data_POSCAR
  _audit_creation_date              2014-09-24
  _audit_creation_method            'ToBaCCo'
  _symmetry_space_group_name_H-M    'P1'
  _symmetry_Int_Tables_number       1
  _symmetry_cell_setting            triclinic
  loop_
  _symmetry_equiv_pos_as_xyz
 x,y,z
_cell_length_a 40.8337
_cell_length_b 41.7443
_cell_length_c 38.8344
_cell_angle_alpha 89.147000
_cell_angle_beta 89.559100
_cell_angle_gamma 90.397100
loop_
  _atom_site_label
  _atom_site_type_symbol
  _atom_site_fract_x
  _atom_site_fract_y
  _atom_site_fract_z
C1 C 0.20339 0.20621 0.22364
 N2 N 0.19339 0.23376 0.20819
 C3 C 0.20587 0.24356 0.17731
 N4 N 0.22898 0.22543 0.16161
 C5 C 0.23962 0.19775 0.17669
 N6 N 0.22650 0.18832 0.20762
 C7 C -0.19059 0.82245 0.23896
 N8 N -0.22064 0.83193 0.22781
 C9 C -0.23389 0.81946 0.19872
 N10 N -0.21659 0.79735 0.18083
 C11 C -0.18655 0.78787 0.19146
 N12 N -0.17385 0.80053 0.22042
 C13 C -0.19995 0.19811 -0.24062
 N14 N -0.22811 0.18434 -0.22837
 C15 C -0.24223 0.19451 -0.19860
 N16 N -0.22756 0.21856 -0.18103
 C17 C -0.19947 0.23253 -0.19290
 N18 N -0.18585 0.22218 -0.22268
 C19 C 0.20721 0.78219 -0.25687
 N20 N 0.19374 0.75391 -0.24584
 C21 C 0.20669 0.73742 -0.21881
 N22 N 0.23332 0.74955 -0.20267
 C23 C 0.24717 0.77778 -0.21311
 N24 N 0.23389 0.79390 -0.24025
 C25 C 0.16474 1.19081 0.80669
 N26 N 0.18793 1.17342 0.82318
 C27 C 0.20466 1.18543 0.85006
 N28 N 0.19824 1.21559 0.86058
 C29 C 0.17504 1.23363 0.84458
 N30 N 0.15829 1.22096 0.81765
 C31 C 0.79320 0.79443 0.75342
 N32 N 0.76251 0.80295 0.76313
 C33 C 0.74703 0.78802 0.78998
 N34 N 0.76257 0.76417 0.80741
 C35 C 0.79325 0.75504 0.79800
 N36 N 0.80833 0.77044 0.77105
 C37 C 0.21029 0.80186 1.24766
 N38 N 0.19465 0.77600 1.23444
 C39 C 0.20934 0.75772 1.21016
 N40 N 0.23988 0.76585 1.19866
 C41 C 0.25583 0.79167 1.21155
 N42 N 0.24089 0.80935 1.23606
 C43 C 0.80623 1.20558 1.23327
 N44 N 0.78265 1.18719 1.21891
 C45 C 0.76741 1.19644 1.18962
 N46 N 0.77587 1.22481 1.17442
 C47 C 0.79944 1.24384 1.18823
 N48 N 0.81460 1.23394 1.21768
 O49 O 0.52233 0.96027 0.92746
 O50 O 0.46901 0.97653 1.06827
 O51 O 0.54822 0.95004 1.01375
 O52 O 0.45055 0.93625 0.97233
 O53 O 0.52814 0.96662 1.06086
 O54 O 0.46120 0.96328 0.92635
 O55 O 0.46192 0.94161 1.03105
 O56 O 0.56303 0.97703 0.95844
 C57 C 0.55194 0.95896 0.93564
 C58 C 0.46153 0.94848 1.06163
 C59 C 0.54403 0.94583 1.04506
 C60 C 0.44990 0.93856 0.94053
 O61 O 0.46196 1.02408 0.93470
 O62 O 0.53635 1.02827 1.04066
 O63 O 0.54537 1.03233 0.98050
 O64 O 0.43441 1.00307 1.02925
 O65 O 0.47573 1.03429 1.04035
 O66 O 0.52516 1.02342 0.93039
 O67 O 0.42704 0.99714 0.96811
 O68 O 0.57965 1.00270 1.02101
 Co69 Co 0.49321 0.99245 0.93568
 Co70 Co 0.50177 0.99996 1.04694
 Co71 Co 0.54359 0.99094 0.99785
 Co72 Co 0.44744 0.97083 1.00015
 O73 O 0.49489 0.98727 0.99231
 C74 C 0.43384 1.02066 0.94797
 C75 C 0.56725 1.02348 1.04268
 C76 C 0.54285 1.03998 0.94955
 C77 C 0.44547 1.03033 1.03729
 O78 O 0.03104 0.48612 0.06677
 O79 O 0.00312 0.53656 -0.07248
 O80 O 0.03465 0.45960 -0.01504
 O81 O 0.04938 0.55862 0.01964
 O82 O 0.01739 0.47941 -0.06255
 O83 O 0.02728 0.54561 0.06811
 O84 O 0.04047 0.54585 -0.03777
 O85 O 0.00913 0.44591 0.04110
 C86 C 0.03055 0.45682 0.06072
 C87 C 0.03171 0.54528 -0.06781
 C88 C 0.03881 0.46408 -0.04638
 C89 C 0.05014 0.55860 0.05148
 O90 O -0.03546 0.54403 0.06540
 O91 O -0.04496 0.46884 -0.04089
 O92 O -0.04818 0.46382 0.02003
 O93 O -0.02364 0.56975 -0.03225
 O94 O -0.05375 0.52756 -0.04191
 O95 O -0.03430 0.48275 0.06922
 O96 O -0.01319 0.57873 0.02836
 O97 O -0.01836 0.42788 -0.01899
 Co98 Co -0.00301 0.51395 0.06149
 Co99 Co -0.01769 0.50373 -0.04886
 Co100 Co -0.00648 0.46439 0.00177
 Co101 Co 0.01196 0.55922 -0.00532
 O102 O -0.00247 0.51218 0.00491
 C103 C -0.03384 0.57176 0.05213
 C104 C -0.03899 0.43885 -0.04207
 C105 C -0.05366 0.46655 0.05143
 C106 C -0.05099 0.55739 -0.03995
 O107 O 1.07606 0.03780 0.47153
 O108 O 0.95825 0.04858 0.52216
 O109 O 0.97674 0.05565 0.45919
 O110 O 1.03684 0.01611 0.57387
 O111 O 0.93736 0.02463 0.46746
 O112 O 1.06795 0.04054 0.53559
 O113 O 0.97945 0.03011 0.56837
 O114 O 1.03276 0.06146 0.45524
 C115 C 1.06290 0.06075 0.45655
 C116 C 0.96382 0.05173 0.55325
 C117 C 0.94753 0.04972 0.45376
 C118 C 1.05737 0.03789 0.56580
 O119 O 1.06919 -0.02182 0.53859
 O120 O 0.95985 -0.02983 0.48287
 O121 O 1.04053 0.00005 0.43278
 O122 O 0.96614 -0.03011 0.54501
 O123 O 0.92442 -0.00299 0.52730
 O124 O 1.06964 -0.02313 0.47358
 O125 O 1.02224 -0.04299 0.54773
 O126 O 0.98079 -0.00736 0.43673
 Co127 Co 1.06488 0.00862 0.50474
 Co128 Co 0.96113 0.00908 0.50382
 Co129 Co 1.00767 0.02603 0.45028
 Co130 Co 1.00194 -0.00510 0.55399
 O131 O 1.01103 0.01082 0.50176
 C132 C 1.05239 -0.04531 0.54833
 C133 C 0.96562 -0.03059 0.45113
 C134 C 1.06100 -0.02099 0.44261
 C135 C 0.93591 -0.02423 0.54863
 C136 C 1.16410 0.21415 0.27063
 C137 C 1.14774 0.20288 0.30014
 C138 C 1.15559 0.17314 0.31498
 C139 C 1.18068 0.15498 0.29984
 C140 C 1.19713 0.16624 0.27028
 C141 C 1.18871 0.19577 0.25483
 C142 C 1.13524 0.16089 0.34421
 C143 C 1.14468 0.13742 0.36582
 C144 C 1.12289 0.12203 0.39214
 C145 C 1.13707 0.10217 0.41731
 C146 C 1.11750 0.08368 0.43968
 C147 C 1.08320 0.08456 0.43735
 C148 C 1.06887 0.10566 0.41342
 C149 C 1.08845 0.12407 0.39089
 H150 H 1.15681 0.23709 0.25990
 H151 H 1.12843 0.21729 0.31112
 H152 H 1.18692 0.13151 0.30982
 H153 H 1.21582 0.15125 0.25905
 H154 H 1.11158 0.17188 0.34777
 H155 H 1.16946 0.12853 0.36408
 H156 H 1.16345 0.10006 0.41888
 H157 H 1.12929 0.06767 0.45788
 H158 H 1.04250 0.10666 0.41082
 H159 H 1.07630 0.13843 0.37154
 C160 C 0.80782 -0.14058 0.28775
 C161 C 0.82311 -0.12682 0.31620
 C162 C 0.85460 -0.13638 0.32615
 C163 C 0.86991 -0.16109 0.30804
 C164 C 0.85477 -0.17480 0.27967
 C165 C 0.82368 -0.16446 0.26864
 C166 C 0.87100 -0.11996 0.35507
 C167 C 0.90371 -0.11715 0.35716
 C168 C 0.92046 -0.09758 0.38331
 C169 C 0.95024 -0.08261 0.37427
 C170 C 0.96566 -0.06190 0.39701
 C171 C 0.95205 -0.05631 0.42965
 C172 C 0.92330 -0.07279 0.43964
 C173 C 0.90749 -0.09313 0.41658
 H174 H 0.78380 -0.13207 0.28049
 H175 H 0.81060 -0.10808 0.32999
 H176 H 0.89360 -0.17005 0.31570
 H177 H 0.86779 -0.19348 0.26631
 H178 H 0.85566 -0.10751 0.37332
 H179 H 0.91893 -0.12679 0.33691
 H180 H 0.96094 -0.08595 0.34898
 H181 H 0.98782 -0.04957 0.38871
 H182 H 0.91226 -0.06882 0.46466
 H183 H 0.88505 -0.10506 0.42467
 C184 C 0.80233 0.16091 0.70902
 C185 C 0.81886 0.14823 0.68067
 C186 C 0.84984 0.16005 0.67072
 C187 C 0.86326 0.18598 0.68866
 C188 C 0.84671 0.19875 0.71688
 C189 C 0.81631 0.18599 0.72784
 C190 C 0.86770 0.14432 0.64223
 C191 C 0.90052 0.14301 0.64066
 C192 C 0.91829 0.12274 0.61583
 C193 C 0.94742 0.10810 0.62639
 C194 C 0.96311 0.08608 0.60529
 C195 C 0.95044 0.07884 0.57280
 C196 C 0.92253 0.09514 0.56116
 C197 C 0.90644 0.11679 0.58258
 H198 H 0.77886 0.15066 0.71652
 H199 H 0.80782 0.12847 0.66707
 H200 H 0.88657 0.19645 0.68103
 H201 H 0.85807 0.21834 0.73044
 H202 H 0.85338 0.13058 0.62422
 H203 H 0.91485 0.15393 0.66074
 H204 H 0.95724 0.11256 0.65173
 H205 H 0.98458 0.07394 0.61486
 H206 H 0.91223 0.08999 0.53620
 H207 H 0.88452 0.12841 0.57333
 C208 C 1.20602 -0.17031 0.70534
 C209 C 1.19104 -0.15222 0.67942
 C210 C 1.16267 -0.16338 0.66318
 C211 C 1.15019 -0.19379 0.67268
 C212 C 1.16509 -0.21192 0.69873
 C213 C 1.19302 -0.20029 0.71581
 C214 C 1.14714 -0.14232 0.63687
 C215 C 1.11625 -0.14580 0.62570
 C216 C 1.10022 -0.12208 0.60254
 C217 C 1.06592 -0.11968 0.60329
 C218 C 1.05007 -0.09563 0.58441
 C219 C 1.06828 -0.07352 0.56432
 C220 C 1.10240 -0.07710 0.56191
 C221 C 1.11820 -0.10124 0.58058
 H222 H 1.22757 -0.16041 0.71744
 H223 H 1.20144 -0.12905 0.67244
 H224 H 1.12904 -0.20388 0.66016
 H225 H 1.15445 -0.23502 0.70554
 H226 H 1.16123 -0.12158 0.62845
 H227 H 1.10100 -0.16493 0.63608
 H228 H 1.05141 -0.13569 0.61956
 H229 H 1.02372 -0.09357 0.58665
 H230 H 1.11702 -0.06076 0.54613
 H231 H 1.14449 -0.10315 0.57795
 C232 C 0.27196 1.14861 1.17437
 C233 C 0.29416 1.12891 1.15740
 C234 C 0.30872 1.13874 1.12616
 C235 C 0.30043 1.16874 1.11194
 C236 C 0.27778 1.18835 1.12864
 C237 C 0.26308 1.17854 1.16012
 C238 C 0.33097 1.11632 1.10848
 C239 C 0.35578 1.12563 1.08772
 C240 C 0.37823 1.10211 1.07205
 C241 C 0.41173 1.10938 1.06871
 C242 C 0.43369 1.08640 1.05660
 C243 C 0.42237 1.05593 1.04705
 C244 C 0.38856 1.04942 1.04858
 C245 C 0.36675 1.07220 1.06098
 H246 H 0.26137 1.13992 1.19843
 H247 H 0.30002 1.10582 1.16878
 H248 H 0.31069 1.17673 1.08749
 H249 H 0.27172 1.21111 1.11665
 H250 H 0.32787 1.09105 1.11454
 H251 H 0.36136 1.15088 1.08429
 H252 H 0.42107 1.13244 1.07667
 H253 H 0.45956 1.09225 1.05541
 H254 H 0.37894 1.02635 1.04100
 H255 H 0.34090 1.06627 1.06215
 C256 C 0.28700 0.77450 0.83375
 C257 C 0.31224 0.78818 0.85285
 C258 C 0.32538 0.81825 0.84361
 C259 C 0.31272 0.83439 0.81458
 C260 C 0.28748 0.82074 0.79542
 C261 C 0.27390 0.79074 0.80493
 C262 C 0.35041 0.83286 0.86622
 C263 C 0.37091 0.85640 0.85575
 C264 C 0.39368 0.87395 0.87866
 C265 C 0.41600 0.89570 0.86338
 C266 C 0.43536 0.91561 0.88355
 C267 C 0.43296 0.91423 0.91964
 C268 C 0.41182 0.89149 0.93515
 C269 C 0.39222 0.87167 0.91493
 H270 H 0.27746 0.75136 0.84210
 H271 H 0.32132 0.77531 0.87521
 H272 H 0.32134 0.85805 0.80712
 H273 H 0.27818 0.83421 0.77359
 H274 H 0.35180 0.82347 0.89224
 H275 H 0.37099 0.86370 0.82890
 H276 H 0.41777 0.89804 0.83560
 H277 H 0.45153 0.93280 0.87082
 H278 H 0.40929 0.89003 0.96291
 H279 H 0.37518 0.85571 0.92807
 C280 C 0.71775 0.85389 1.20360
 C281 C 0.68843 0.86560 1.19004
 C282 C 0.67582 0.85380 1.15909
 C283 C 0.69305 0.82932 1.14237
 C284 C 0.72234 0.81761 1.15588
 C285 C 0.73550 0.83003 1.18643
 C286 C 0.64610 0.86925 1.14438
 C287 C 0.63036 0.85937 1.11610
 C288 C 0.60433 0.87845 1.09911
 C289 C 0.60133 0.87702 1.06317
 C290 C 0.58010 0.89758 1.04561
 C291 C 0.56104 0.91970 1.06373
 C292 C 0.56208 0.91935 1.09991
 C293 C 0.58355 0.89896 1.11746
 H294 H 0.72672 0.86410 1.22724
 H295 H 0.67581 0.88445 1.20356
 H296 H 0.68482 0.81948 1.11838
 H297 H 0.73494 0.79914 1.14177
 H298 H 0.63806 0.89102 1.15657
 H299 H 0.63835 0.83824 1.10284
 H300 H 0.61671 0.86111 1.04845
 H301 H 0.57977 0.89719 1.01772
 H302 H 0.54749 0.93594 1.11462
 H303 H 0.58428 0.89983 1.14528
 C304 C 0.71420 1.19062 0.84513
 C305 C 0.68633 1.17539 0.85890
 C306 C 0.67259 1.14860 0.84267
 C307 C 0.68666 1.13836 0.81165
 C308 C 0.71442 1.15368 0.79772
 C309 C 0.72896 1.17980 0.81451
 C310 C 0.64394 1.13052 0.85706
 C311 C 0.63384 1.13206 0.89003
 C312 C 0.60769 1.11108 0.90504
 C313 C 0.60775 1.10479 0.94066
 C314 C 0.58555 1.08289 0.95550
 C315 C 0.56258 1.06693 0.93501
 C316 C 0.56115 1.07468 0.89970
 C317 C 0.58336 1.09661 0.88487
 H318 H 0.72413 1.21091 0.85873
 H319 H 0.67573 1.18494 0.88213
 H320 H 0.67644 1.11801 0.79836
 H321 H 0.72467 1.14461 0.77400
 H322 H 0.63241 1.11347 0.84021
 H323 H 0.64696 1.14705 0.90778
 H324 H 0.62590 1.11591 0.95691
 H325 H 0.58726 1.07754 0.98281
 H326 H 0.54351 1.06304 0.88328
 H327 H 0.58155 1.10179 0.85758
 C328 C 0.19668 0.27802 0.12465
 C329 C 0.18018 0.30308 0.10804
 C330 C 0.15932 0.32324 0.12662
 C331 C 0.15577 0.31822 0.16234
 C332 C 0.17207 0.29316 0.17886
 C333 C 0.19219 0.27237 0.16014
 C334 C 0.13927 0.34711 0.10775
 C335 C 0.12625 0.37290 0.12271
 C336 C 0.10261 0.39434 0.10533
 C337 C 0.08160 0.38331 0.07945
 C338 C 0.05808 0.40358 0.06516
 C339 C 0.05504 0.43527 0.07639
 C340 C 0.07606 0.44630 0.10220
 C341 C 0.09940 0.42592 0.11670
 H342 H 0.21188 0.26234 0.10946
 H343 H 0.18312 0.30628 0.08045
 H344 H 0.13926 0.33255 0.17750
 H345 H 0.16804 0.28951 0.20624
 H346 H 0.13497 0.34299 0.08069
 H347 H 0.13318 0.37887 0.14869
 H348 H 0.08260 0.35882 0.07079
 H349 H 0.04228 0.39438 0.04529
 H350 H 0.07430 0.47060 0.11138
 H351 H 0.11502 0.43485 0.13690
 C352 C -0.19041 0.26148 -0.13766
 C353 C -0.17335 0.28384 -0.11811
 C354 C -0.14900 0.30333 -0.13336
 C355 C -0.14179 0.29990 -0.16858
 C356 C -0.15851 0.27720 -0.18801
 C357 C -0.18292 0.25766 -0.17274
 C358 C -0.13023 0.32554 -0.11154
 C359 C -0.11752 0.35326 -0.12347
 C360 C -0.09791 0.37482 -0.10172
 C361 C -0.09912 0.40799 -0.10772
 C362 C -0.08033 0.42887 -0.08800
 C363 C -0.05935 0.41686 -0.06246
 C364 C -0.05779 0.38359 -0.05677
 C365 C -0.07698 0.36277 -0.07610
 H366 H -0.20890 0.24663 -0.12505
 H367 H -0.17911 0.28588 -0.09096
 H368 H -0.12257 0.31399 -0.18092
 H369 H -0.15210 0.27478 -0.21496
 H370 H -0.12786 0.31931 -0.08449
 H371 H -0.12274 0.36118 -0.14954
 H372 H -0.11487 0.41778 -0.12752
 H373 H -0.08205 0.45438 -0.09295
 H374 H -0.04174 0.37361 -0.03739
 H375 H -0.07484 0.33723 -0.07149
 C376 C 0.20462 0.69061 -0.17777
 C377 C 0.18817 0.66452 -0.16270
 C378 C 0.15749 0.65467 -0.17484
 C379 C 0.14397 0.67103 -0.20329
 C380 C 0.16050 0.69722 -0.21844
 C381 C 0.19070 0.70772 -0.20538
 C382 C 0.13954 0.62944 -0.15492
 C383 C 0.11313 0.61339 -0.16607
 C384 C 0.09356 0.59169 -0.14315
 C385 C 0.06005 0.58726 -0.14976
 C386 C 0.03996 0.57051 -0.12619
 C387 C 0.05314 0.55801 -0.09558
 C388 C 0.08699 0.56040 -0.09017
 C389 C 0.10708 0.57671 -0.11386
 H390 H 0.22791 0.69786 -0.16712
 H391 H 0.19916 0.65243 -0.14082
 H392 H 0.12013 0.66474 -0.21312
 H393 H 0.14903 0.70989 -0.23963
 H394 H 0.14802 0.62519 -0.12896
 H395 H 0.10399 0.61783 -0.19174
 H396 H 0.04910 0.59810 -0.17239
 H397 H 0.01392 0.56881 -0.13101
 H398 H 0.09783 0.55032 -0.06708
 H399 H 0.13302 0.57799 -0.10865
 C400 C -0.13326 0.76231 0.17628
 C401 C -0.11475 0.74067 0.15737
 C402 C -0.12981 0.72049 0.13362
 C403 C -0.16374 0.72301 0.12829
 C404 C -0.18225 0.74507 0.14686
 C405 C -0.16722 0.76474 0.17130
 C406 C -0.10930 0.69740 0.11478
 C407 C -0.12030 0.66854 0.10539
 C408 C -0.09853 0.64422 0.09028
 C409 C -0.10430 0.61179 0.09817
 C410 C -0.08328 0.58828 0.08579
 C411 C -0.05637 0.59670 0.06465
 C412 C -0.05128 0.62911 0.05568
 C413 C -0.07208 0.65268 0.06848
 H414 H -0.12086 0.77735 0.19463
 H415 H -0.08861 0.73932 0.16172
 H416 H -0.17594 0.70829 0.10952
 H417 H -0.20833 0.74651 0.14232
 H418 H -0.08356 0.70324 0.11148
 H419 H -0.14513 0.66131 0.11199
 H420 H -0.12469 0.60469 0.11466
 H421 H -0.08811 0.56348 0.09280
 H422 H -0.03099 0.63631 0.03913
 H423 H -0.06754 0.67744 0.06115
 C424 C 1.12120 0.19294 0.76320
 C425 C 1.10433 0.17855 0.73609
 C426 C 1.11431 0.14878 0.72360
 C427 C 1.14069 0.13311 0.73924
 C428 C 1.15705 0.14700 0.76660
 C429 C 1.14777 0.17724 0.77898
 C430 C 1.09670 0.13353 0.69501
 C431 C 1.11294 0.11786 0.67044
 C432 C 1.09667 0.09936 0.64333
 C433 C 1.11175 0.09753 0.61090
 C434 C 1.09857 0.07805 0.58554
 C435 C 1.07052 0.05926 0.59246
 C436 C 1.05552 0.06093 0.62508
 C437 C 1.06826 0.08109 0.65020
 H438 H 1.11309 0.21608 0.77201
 H439 H 1.08380 0.19085 0.72453
 H440 H 1.14837 0.10974 0.73067
 H441 H 1.17719 0.13386 0.77784
 H442 H 1.07029 0.13555 0.69398
 H443 H 1.13949 0.11884 0.66986
 H444 H 1.13390 0.11111 0.60526
 H445 H 1.11081 0.07717 0.56073
 H446 H 1.03412 0.04644 0.63127
 H447 H 1.05666 0.08142 0.67536
 C448 C 0.84249 -0.19549 0.71850
 C449 C 0.85987 -0.17652 0.69464
 C450 C 0.84514 -0.15006 0.67851
 C451 C 0.81226 -0.14324 0.68631
 C452 C 0.79482 -0.16217 0.71022
 C453 C 0.80985 -0.18825 0.72719
 C454 C 0.86565 -0.12931 0.65561
 C455 C 0.85383 -0.10852 0.63214
 C456 C 0.87514 -0.08744 0.61030
 C457 C 0.86183 -0.05967 0.59515
 C458 C 0.88138 -0.03896 0.57491
 C459 C 0.91461 -0.04573 0.56949
 C460 C 0.92777 -0.07373 0.58409
 C461 C 0.90827 -0.09451 0.60392
 H462 H 0.85506 -0.21535 0.73070
 H463 H 0.88518 -0.18230 0.68913
 H464 H 0.80011 -0.12271 0.67511
 H465 H 0.76976 -0.15567 0.71601
 H466 H 0.89181 -0.13136 0.65891
 H467 H 0.82767 -0.10614 0.62902
 H468 H 0.83631 -0.05381 0.59932
 H469 H 0.87062 -0.01757 0.56380
 H470 H 0.95322 -0.07985 0.57991
 H471 H 0.91937 -0.11622 0.61363
 C472 C 1.21188 -0.15307 0.28719
 C473 C 1.19651 -0.13341 0.31104
 C474 C 1.16355 -0.13830 0.31995
 C475 C 1.14633 -0.16394 0.30536
 C476 C 1.16183 -0.18407 0.28190
 C477 C 1.19480 -0.17873 0.27216
 C478 C 1.14837 -0.11698 0.34546
 C479 C 1.11668 -0.10886 0.34486
 C480 C 1.10242 -0.08665 0.37015
 C481 C 1.07707 -0.06609 0.36010
 C482 C 1.06373 -0.04444 0.38344
 C483 C 1.07507 -0.04349 0.41750
 C484 C 1.09994 -0.06465 0.42770
 C485 C 1.11348 -0.08596 0.40431
 H486 H 1.23729 -0.14812 0.28075
 H487 H 1.21034 -0.11398 0.32226
 H488 H 1.12108 -0.16880 0.31247
 H489 H 1.14777 -0.20357 0.27118
 H490 H 1.16445 -0.10599 0.36402
 H491 H 1.10127 -0.11703 0.32413
 H492 H 1.06798 -0.06641 0.33397
 H493 H 1.04453 -0.02852 0.37485
 H494 H 1.10906 -0.06475 0.45382
 H495 H 1.13230 -0.10218 0.41318
 C496 C 0.84907 0.21121 0.27702
 C497 C 0.86645 0.19828 0.30488
 C498 C 0.85741 0.16854 0.31956
 C499 C 0.83054 0.15197 0.30590
 C500 C 0.81331 0.16470 0.27814
 C501 C 0.82254 0.19429 0.26284
 C502 C 0.87804 0.15398 0.34680
 C503 C 0.86664 0.13178 0.36936
 C504 C 0.88755 0.11259 0.39287
 C505 C 0.87440 0.08420 0.40737
 C506 C 0.89366 0.06395 0.42765
 C507 C 0.92649 0.07178 0.43400
 C508 C 0.93942 0.10066 0.42055
 C509 C 0.92017 0.12095 0.40031
 H510 H 0.85704 0.23402 0.26613
 H511 H 0.88729 0.21136 0.31472
 H512 H 0.82342 0.12848 0.31553
 H513 H 0.79314 0.15069 0.26825
 H514 H 0.90354 0.16103 0.34686
 H515 H 0.84080 0.12582 0.36939
 H516 H 0.84932 0.07722 0.40227
 H517 H 0.88304 0.04190 0.43785
 H518 H 0.96461 0.10743 0.42537
 H519 H 0.93115 0.14295 0.39066
 C520 C 0.18382 0.27676 -0.11436
 C521 C 0.17522 0.30645 -0.10105
 C522 C 0.15102 0.32509 -0.11680
 C523 C 0.13570 0.31358 -0.14654
 C524 C 0.14404 0.28369 -0.15974
 C525 C 0.16790 0.26457 -0.14354
 C526 C 0.13987 0.35443 -0.09938
 C527 C 0.12582 0.37918 -0.11589
 C528 C 0.10862 0.40557 -0.09804
 C529 C 0.11133 0.41083 -0.06239
 C530 C 0.09005 0.43179 -0.04585
 C531 C 0.06604 0.44830 -0.06457
 C532 C 0.06551 0.44554 -0.10055
 C533 C 0.08658 0.42435 -0.11708
 H534 H 0.20240 0.26307 -0.10104
 H535 H 0.18715 0.31467 -0.07795
 H536 H 0.11624 0.32686 -0.15881
 H537 H 0.13117 0.27538 -0.18223
 H538 H 0.14228 0.35445 -0.07171
 H539 H 0.12439 0.37884 -0.14371
 H540 H 0.12889 0.39817 -0.04674
 H541 H 0.09136 0.43385 -0.01811
 H542 H 0.04739 0.45813 -0.11570
 H543 H 0.08428 0.42125 -0.14460
 C544 C -0.20588 0.28220 0.14022
 C545 C -0.19506 0.30960 0.12229
 C546 C -0.16944 0.32841 0.13504
 C547 C -0.15494 0.31933 0.16645
 C548 C -0.16571 0.29190 0.18443
 C549 C -0.19105 0.27260 0.17136
 C550 C -0.15674 0.35552 0.11352
 C551 C -0.13927 0.37994 0.12619
 C552 C -0.12209 0.40470 0.10471
 C553 C -0.10806 0.43103 0.12135
 C554 C -0.08745 0.45242 0.10346
 C555 C -0.08039 0.44800 0.06841
 C556 C -0.09593 0.42285 0.05114
 C557 C -0.11642 0.40129 0.06908
 H558 H -0.22552 0.26826 0.12913
 H559 H -0.20650 0.31589 0.09805
 H560 H -0.13444 0.33254 0.17671
 H561 H -0.15348 0.28549 0.20818
 H562 H -0.16209 0.35491 0.08632
 H563 H -0.13658 0.38170 0.15380
 H564 H -0.11196 0.43433 0.14869
 H565 H -0.07588 0.47162 0.11748
 H566 H -0.09076 0.41867 0.02418
 H567 H -0.12614 0.38122 0.05512
 C568 C -0.15723 0.72400 -0.19091
 C569 C -0.13983 0.70219 -0.17070
 C570 C -0.15477 0.68661 -0.14243
 C571 C -0.18773 0.69311 -0.13476
 C572 C -0.20515 0.71527 -0.15475
 C573 C -0.19003 0.73135 -0.18295
 C574 C -0.13451 0.66539 -0.12057
 C575 C -0.14636 0.64077 -0.10160
 C576 C -0.12421 0.61972 -0.08168
 C577 C -0.12966 0.58650 -0.08074
 C578 C -0.10662 0.56600 -0.06569
 C579 C -0.07801 0.57856 -0.05095
 C580 C -0.07396 0.61198 -0.04961
 C581 C -0.09677 0.63234 -0.06484
 H582 H -0.14451 0.73561 -0.21231
 H583 H -0.11442 0.69763 -0.17705
 H584 H -0.19980 0.68196 -0.11272
 H585 H -0.23031 0.72011 -0.14765
 H586 H -0.10825 0.66932 -0.12164
 H587 H -0.17202 0.63427 -0.10297
 H588 H -0.15091 0.57631 -0.09316
 H589 H -0.11055 0.54036 -0.06687
 H590 H -0.05250 0.62246 -0.03787
 H591 H -0.09254 0.65795 -0.06412
 C592 C 0.15940 0.72271 0.20594
 C593 C 0.14239 0.69712 0.19154
 C594 C 0.15712 0.67809 0.16636
 C595 C 0.18981 0.68464 0.15663
 C596 C 0.20684 0.71032 0.17102
 C597 C 0.19174 0.72986 0.19561
 C598 C 0.13737 0.65197 0.15108
 C599 C 0.14415 0.63865 0.12060
 C600 C 0.12186 0.61546 0.10387
 C601 C 0.12250 0.61337 0.06783
 C602 C 0.10000 0.59395 0.05080
 C603 C 0.07648 0.57600 0.06952
 C604 C 0.07701 0.57668 0.10568
 C605 C 0.09954 0.59608 0.12271
 H606 H 0.14700 0.73709 0.22494
 H607 H 0.11736 0.69250 0.19975
 H608 H 0.20251 0.66999 0.13818
 H609 H 0.23185 0.71488 0.16277
 H610 H 0.11486 0.64544 0.16438
 H611 H 0.16504 0.64707 0.10567
 H612 H 0.13971 0.62769 0.05270
 H613 H 0.10038 0.59380 0.02291
 H614 H 0.05950 0.56277 0.12085
 H615 H 0.09914 0.59597 0.15056
 C616 C 0.22776 1.13184 0.86448
 C617 C 0.25121 1.11248 0.88004
 C618 C 0.27692 1.12611 0.89859
 C619 C 0.27807 1.15955 0.90257
 C620 C 0.25420 1.17899 0.88740
 C621 C 0.22914 1.16530 0.86774
 C622 C 0.30202 1.10460 0.91308
 C623 C 0.33358 1.11306 0.91567
 C624 C 0.35914 1.08975 0.92536
 C625 C 0.39071 1.09349 0.91134
 C626 C 0.41495 1.07091 0.91839
 C627 C 0.40812 1.04430 0.93994
 C628 C 0.37675 1.04111 0.95480
 C629 C 0.35254 1.06363 0.94769
 H630 H 0.20851 1.12054 0.84986
 H631 H 0.24969 1.08677 0.87689
 H632 H 0.29720 1.17067 0.91749
 H633 H 0.25572 1.20469 0.89050
 H634 H 0.29478 1.07997 0.91818
 H635 H 0.34144 1.13672 0.90709
 H636 H 0.39644 1.11357 0.89431
 H637 H 0.43900 1.07430 0.90692
 H638 H 0.37089 1.02122 0.97204
 H639 H 0.32877 1.06062 0.95987
 C640 C 0.30160 0.78732 1.16832
 C641 C 0.32991 0.79982 1.15253
 C642 C 0.34544 0.82721 1.16546
 C643 C 0.33259 0.84126 1.19535
 C644 C 0.30431 0.82878 1.21109
 C645 C 0.28802 0.80215 1.19730
 C646 C 0.37236 0.84228 1.14491
 C647 C 0.39295 0.86471 1.15684
 C648 C 0.41488 0.88406 1.13395
 C649 C 0.42339 0.91527 1.14378
 C650 C 0.44011 0.93592 1.12092
 C651 C 0.44870 0.92562 1.08785
 C652 C 0.44234 0.89369 1.07894
 C653 C 0.42580 0.87304 1.10181
 H654 H 0.28974 0.76676 1.15702
 H655 H 0.33915 0.78861 1.12946
 H656 H 0.34312 0.86278 1.20585
 H657 H 0.29458 0.84081 1.23342
 H658 H 0.37354 0.83587 1.11805
 H659 H 0.39183 0.87135 1.18362
 H660 H 0.41567 0.92423 1.16857
 H661 H 0.44495 0.96034 1.12854
 H662 H 0.44929 0.88493 1.05383
 H663 H 0.42111 0.84873 1.09385
 C664 C 0.74033 1.14280 1.18564
 C665 C 0.71909 1.12146 1.16972
 C666 C 0.70003 1.13150 1.14181
 C667 C 0.70279 1.16339 1.12980
 C668 C 0.72437 1.18474 1.14553
 C669 C 0.74343 1.17462 1.17358
 C670 C 0.67885 1.10765 1.12501
 C671 C 0.65112 1.11529 1.10880
 C672 C 0.63001 1.09092 1.09270
 C673 C 0.59618 1.09612 1.09109
 C674 C 0.57564 1.07374 1.07564
 C675 C 0.58869 1.04600 1.06095
 C676 C 0.62257 1.04083 1.06240
 C677 C 0.64307 1.06307 1.07810
 H678 H 0.75478 1.13408 1.20703
 H679 H 0.71754 1.09696 1.17925
 H680 H 0.68902 1.17167 1.10773
 H681 H 0.72634 1.20904 1.13553
 H682 H 0.68553 1.08269 1.12785
 H683 H 0.64254 1.13978 1.10899
 H684 H 0.58562 1.11750 1.10194
 H685 H 0.54961 1.07845 1.07467
 H686 H 0.63328 1.01976 1.05105
 H687 H 0.66918 1.05876 1.07803
 C688 C 0.69706 0.82144 0.78156
 C689 C 0.66980 0.83711 0.79495
 C690 C 0.66059 0.83246 0.82949
 C691 C 0.67738 0.80975 0.84968
 C692 C 0.70445 0.79379 0.83619
 C693 C 0.71527 0.80037 0.80237
 C694 C 0.63483 0.85297 0.84418
 C695 C 0.63669 0.86390 0.87639
 C696 C 0.61441 0.88834 0.89043
 C697 C 0.62569 0.90754 0.91725
 C698 C 0.60568 0.93100 0.93133
 C699 C 0.57373 0.93552 0.91912
 C700 C 0.56227 0.91615 0.89240
 C701 C 0.58240 0.89276 0.87817
 H702 H 0.70453 0.82669 0.75524
 H703 H 0.65693 0.85418 0.77880
 H704 H 0.67012 0.80491 0.87613
 H705 H 0.71777 0.77747 0.85279
 H706 H 0.61647 0.86231 0.82684
 H707 H 0.65722 0.85688 0.89226
 H708 H 0.65018 0.90449 0.92726
 H709 H 0.61512 0.94526 0.95215
 H710 H 0.53760 0.91879 0.88277
 H711 H 0.57255 0.87783 0.85816
   
