data_POSCAR
  _audit_creation_date              2014-09-24
  _audit_creation_method            'ToBaCCo'
  _symmetry_space_group_name_H-M    'P1'
  _symmetry_Int_Tables_number       1
  _symmetry_cell_setting            triclinic
  loop_
  _symmetry_equiv_pos_as_xyz
 x,y,z
_cell_length_a 8.9554
_cell_length_b 8.9554
_cell_length_c 17.8755
_cell_angle_alpha 86.162200
_cell_angle_beta 93.837800
_cell_angle_gamma 77.537500
loop_
  _atom_site_label
  _atom_site_type_symbol
  _atom_site_fract_x
  _atom_site_fract_y
  _atom_site_fract_z
O1 O 0.17863 0.58377 1.06848
 O2 O 0.12329 0.30149 0.93136
 O3 O 0.16761 0.58025 0.92109
 O4 O 0.16877 0.29411 1.07605
 O5 O -0.08324 0.36665 1.07656
 O6 O -0.08420 0.65839 0.91846
 O7 O -0.12778 0.38340 0.93223
 O8 O -0.07325 0.65595 1.06819
 Cu9 Cu 0.18468 0.43354 0.99941
 Cu10 Cu -0.11688 0.52602 0.99957
 C11 C 0.06002 0.66522 1.09279
 C12 C -0.01335 0.29561 0.90878
 C13 C 0.04266 0.66320 0.89115
 C14 C 0.04426 0.27837 1.10145
 O15 O 0.36665 -0.08324 0.42344
 O16 O 0.65839 -0.08420 0.58154
 O17 O 0.38341 -0.12778 0.56777
 O18 O 0.65595 -0.07325 0.43181
 O19 O 0.58377 0.17863 0.43152
 O20 O 0.30149 0.12329 0.56864
 O21 O 0.58025 0.16761 0.57891
 O22 O 0.29411 0.16876 0.42395
 Cu23 Cu 0.52602 -0.11688 0.50043
 Cu24 Cu 0.43354 0.18468 0.50059
 C25 C 0.27837 0.04425 0.39855
 C26 C 0.66320 0.04266 0.60885
 C27 C 0.29561 -0.01335 0.59123
 C28 C 0.66522 0.06002 0.40721
 Si29 Si -0.03810 -0.03810 0.25000
 Si30 Si 0.00135 0.00135 0.75000
 N31 N 0.07487 -0.22921 0.14770
 N32 N -0.03365 -0.18999 0.18974
 N33 N 0.04991 0.15364 0.15585
 N34 N -0.06411 0.13566 0.19104
 N35 N 0.19657 -0.04257 0.64692
 N36 N 0.09593 0.06048 0.67178
 N37 N -0.25892 0.04522 0.67308
 N38 N -0.20215 0.05810 0.73556
 N39 N 0.04522 -0.25892 0.82692
 N40 N 0.05810 -0.20215 0.76444
 N41 N -0.04257 0.19657 0.85308
 N42 N 0.06048 0.09593 0.82822
 N43 N -0.22920 0.07487 0.35230
 N44 N -0.18999 -0.03365 0.31026
 N45 N 0.15364 0.04991 0.34415
 N46 N 0.13567 -0.06411 0.30896
   
