data_POSCAR
  _audit_creation_date              2014-09-24
  _audit_creation_method            'ToBaCCo'
  _symmetry_space_group_name_H-M    'P1'
  _symmetry_Int_Tables_number       1
  _symmetry_cell_setting            triclinic
  loop_
  _symmetry_equiv_pos_as_xyz
 x,y,z
_cell_length_a 56.7793
_cell_length_b 59.2012
_cell_length_c 52.9705
_cell_angle_alpha 92.855500
_cell_angle_beta 89.756700
_cell_angle_gamma 93.488600
loop_
  _atom_site_label
  _atom_site_type_symbol
  _atom_site_fract_x
  _atom_site_fract_y
  _atom_site_fract_z
C1 C 0.27426 0.45699 0.98756
 C2 C 0.25590 0.45509 1.00882
 C3 C 0.24298 0.47372 1.01224
 C4 C 0.24953 0.49251 0.99386
 C5 C 0.26006 0.46204 0.96430
 C6 C 0.24695 0.48049 0.96746
 C7 C 0.28896 0.47887 0.99434
 C8 C 0.27621 0.49747 0.99771
 H9 H 0.25353 0.44048 1.02028
 H10 H 0.23906 0.50769 0.99655
 H11 H 0.25949 0.45109 0.94728
 H12 H 0.30791 0.47938 0.99696
 C13 C 0.72980 0.54839 0.00335
 C14 C 0.74754 0.54692 0.02487
 C15 C 0.75992 0.52783 0.02316
 C16 C 0.75345 0.51199 -0.00011
 C17 C 0.74454 0.54623 -0.02078
 C18 C 0.75704 0.52728 -0.02267
 C19 C 0.71446 0.52635 0.00379
 C20 C 0.72663 0.50730 0.00199
 H21 H 0.75009 0.55980 0.04002
 H22 H 0.76345 0.49643 -0.00156
 H23 H 0.74573 0.55918 -0.03454
 H24 H 0.69543 0.52596 0.00572
 C25 C 0.03943 0.22770 0.49517
 C26 C 0.03903 0.24317 0.47480
 C27 C 0.01828 0.25577 0.47441
 C28 C 0.00162 0.25042 0.49472
 C29 C 0.03596 0.24249 0.51943
 C30 C 0.01626 0.25462 0.51917
 C31 C 0.01658 0.21283 0.49234
 C32 C -0.00326 0.22452 0.49210
 H33 H 0.05345 0.24538 0.46151
 H34 H -0.01473 0.25981 0.49464
 H35 H 0.04881 0.24447 0.53454
 H36 H 0.01620 0.19448 0.49065
 C37 C 0.95895 0.77023 0.49969
 C38 C 0.95891 0.75205 0.47797
 C39 C 0.97836 0.73953 0.47756
 C40 C 0.99609 0.74645 0.49894
 C41 C 0.96201 0.75717 0.52363
 C42 C 0.98133 0.74456 0.52324
 C43 C 0.98219 0.78421 0.49663
 C44 C 1.00158 0.77193 0.49633
 H45 H 0.94459 0.74903 0.46457
 H46 H 1.01209 0.73655 0.49856
 H47 H 0.94914 0.75689 0.53878
 H48 H 0.98316 0.80240 0.49480
 C49 C 0.49805 0.05221 0.22724
 C50 C 0.47602 0.04977 0.24391
 C51 C 0.47528 0.03126 0.25826
 C52 C 0.49685 0.01683 0.25450
 C53 C 0.51878 0.05225 0.24578
 C54 C 0.51825 0.03366 0.26008
 C55 C 0.49871 0.03095 0.21259
 C56 C 0.49796 0.01141 0.22737
 H57 H 0.46245 0.06189 0.24448
 H58 H 0.49634 0.00180 0.26628
 H59 H 0.53272 0.06557 0.24720
 H60 H 0.49983 0.03001 0.19213
 C61 C 0.49685 -0.04942 0.77930
 C62 C 0.47459 -0.04739 0.76364
 C63 C 0.47558 -0.02942 0.74855
 C64 C 0.49899 -0.01495 0.75052
 C65 C 0.51697 -0.04990 0.75987
 C66 C 0.51820 -0.03179 0.74485
 C67 C 0.50083 -0.02651 0.79376
 C68 C 0.50194 -0.00844 0.77882
 H69 H 0.45951 -0.05949 0.76424
 H70 H 0.49990 -0.00019 0.73835
 H71 H 0.52948 -0.06300 0.75862
 H72 H 0.50295 -0.02486 0.81410
 C73 C 0.26364 0.01192 0.46134
 H74 H 0.25145 0.02507 0.46455
 C75 C 0.27968 0.01338 0.44138
 H76 H 0.27936 0.02757 0.42930
 C77 C 0.27954 -0.02188 0.47382
 H78 H 0.27950 -0.03541 0.48682
 C79 C 0.29595 -0.02106 0.45413
 H80 H 0.30844 -0.03414 0.45205
 N81 N 0.26378 -0.00557 0.47702
 C82 C 0.22551 0.03426 0.52581
 H83 H 0.23748 0.03283 0.54136
 C84 C 0.21161 0.05295 0.52538
 H85 H 0.21319 0.06581 0.54064
 C86 C 0.20878 0.01921 0.48719
 H87 H 0.20785 0.00595 0.47235
 C88 C 0.19468 0.03761 0.48594
 H89 H 0.18286 0.03827 0.47004
 Zn90 Zn 0.24351 -0.00690 0.50541
 N91 N 0.22416 0.01808 0.50662
 C92 C 0.27960 0.01145 0.53729
 N93 N 0.26331 -0.00628 0.53416
 C94 C 0.26261 -0.02378 0.54989
 C95 C 0.27857 -0.02376 0.56985
 C96 C 0.29599 0.01210 0.55694
 C97 C 0.22341 -0.04766 0.48191
 C98 C 0.20821 -0.06712 0.47998
 C99 C 0.19354 -0.05775 0.52184
 C100 C 0.20864 -0.03819 0.52274
 N101 N 0.22349 -0.03375 0.50315
 H102 H 0.28009 0.02491 0.52419
 H103 H 0.25014 -0.03810 0.54666
 H104 H 0.27783 -0.03801 0.58193
 H105 H 0.30893 0.02628 0.55893
 H106 H 0.23487 -0.04353 0.46626
 H107 H 0.20831 -0.07796 0.46290
 H108 H 0.18192 -0.06106 0.53767
 H109 H 0.20864 -0.02656 0.53915
 C110 C 0.19614 0.05494 0.50507
 C111 C 0.29625 -0.00317 0.43765
 C112 C 0.19316 -0.07244 0.50020
 C113 C 0.29570 -0.00575 0.57346
 C114 C 0.71744 0.02052 0.53231
 H115 H 0.71726 0.03377 0.51897
 C116 C 0.70098 0.01982 0.55200
 H117 H 0.68835 0.03279 0.55380
 C118 C 0.73342 -0.01308 0.54527
 H119 H 0.74556 -0.02629 0.54218
 C120 C 0.71735 -0.01441 0.56520
 H121 H 0.71767 -0.02852 0.57740
 N122 N 0.73314 0.00414 0.52923
 C123 C 0.78957 0.03014 0.48056
 H124 H 0.78960 0.01595 0.46688
 C125 C 0.80573 0.04861 0.47829
 H126 H 0.81816 0.04836 0.46274
 C127 C 0.77320 0.04734 0.51742
 H128 H 0.76057 0.04667 0.53271
 C129 C 0.78912 0.06625 0.51586
 H130 H 0.78852 0.08001 0.53005
 Zn131 Zn 0.75239 0.00394 0.49997
 N132 N 0.77357 0.02991 0.49969
 C133 C 0.73351 0.02048 0.45559
 N134 N 0.73183 0.00342 0.47189
 C135 C 0.71423 -0.01320 0.46974
 C136 C 0.69733 -0.01302 0.45065
 C137 C 0.71706 0.02131 0.43624
 C138 C 0.78726 -0.02262 0.51709
 C139 C 0.80139 -0.04105 0.51775
 C140 C 0.78178 -0.05728 0.48011
 C141 C 0.76793 -0.03852 0.48023
 N142 N 0.77071 -0.02181 0.49875
 H143 H 0.74721 0.03387 0.45793
 H144 H 0.71305 -0.02635 0.48325
 H145 H 0.68328 -0.02623 0.44951
 H146 H 0.71861 0.03526 0.42376
 H147 H 0.78932 -0.00894 0.53138
 H148 H 0.81430 -0.04133 0.53269
 H149 H 0.77920 -0.07047 0.46531
 H150 H 0.75499 -0.03736 0.46553
 C151 C 0.80562 0.06708 0.49600
 C152 C 0.70059 0.00199 0.56857
 C153 C 0.79870 -0.05878 0.49915
 C154 C 0.69848 0.00457 0.43373
 C155 C 0.49602 0.22216 0.99948
 H156 H 0.48434 0.21928 0.98340
 C157 C 0.49371 0.20811 1.01982
 H158 H 0.48015 0.19442 1.01918
 C159 C 0.52806 0.24340 1.01944
 H160 H 0.54163 0.25697 1.01908
 C161 C 0.52648 0.22966 1.04014
 H162 H 0.53878 0.23302 1.05564
 N163 N 0.51273 0.23960 0.99981
 C164 C 0.48428 0.28719 0.94942
 H165 H 0.49837 0.28904 0.93573
 C166 C 0.46442 0.29988 0.94780
 H167 H 0.46334 0.31140 0.93266
 C168 C 0.46907 0.27047 0.98628
 H169 H 0.47115 0.25951 1.00168
 C170 C 0.44893 0.28277 0.98536
 H171 H 0.43569 0.28078 0.99997
 Zn172 Zn 0.51441 0.25757 0.97126
 N173 N 0.48622 0.27281 0.96843
 C174 C 0.50332 0.23499 0.92352
 N175 N 0.51893 0.23760 0.94300
 C176 C 0.53735 0.22411 0.94443
 C177 C 0.54032 0.20677 0.92614
 C178 C 0.50567 0.21785 0.90470
 C179 C 0.53754 0.29583 0.99385
 C180 C 0.55537 0.31279 0.99820
 C181 C 0.57716 0.29668 0.96311
 C182 C 0.55883 0.27998 0.95942
 N183 N 0.53965 0.27975 0.97492
 H184 H 0.48851 0.24559 0.92302
 H185 H 0.54927 0.22635 0.96036
 H186 H 0.55479 0.19589 0.92809
 H187 H 0.49266 0.21557 0.88977
 H188 H 0.52197 0.29535 1.00571
 H189 H 0.55327 0.32533 1.01350
 H190 H 0.59231 0.29658 0.95064
 H191 H 0.55996 0.26726 0.94419
 C192 C 0.44647 0.29787 0.96607
 C193 C 0.50903 0.21181 1.04056
 C194 C 0.57558 0.31335 0.98278
 C195 C 0.52408 0.20314 0.90621
 C196 C 0.46699 0.77533 0.00248
 H197 H 0.45461 0.77726 0.01791
 C198 C 0.46606 0.78898 -0.01817
 H199 H 0.45275 0.80131 -0.01849
 C200 C 0.49987 0.75741 -0.01517
 H201 H 0.51342 0.74554 -0.01367
 C202 C 0.49963 0.77076 -0.03616
 H203 H 0.51287 0.76870 -0.05072
 N204 N 0.48364 0.75985 0.00357
 C205 C 0.45600 0.71091 0.05684
 H206 H 0.47035 0.71151 0.07027
 C207 C 0.43689 0.69511 0.05905
 H208 H 0.43664 0.68369 0.07439
 C209 C 0.43954 0.72446 0.01987
 H210 H 0.44093 0.73541 0.00418
 C211 C 0.42002 0.70908 0.02148
 H212 H 0.40655 0.70859 0.00703
 Zn213 Zn 0.48495 0.74374 0.03349
 N214 N 0.45709 0.72502 0.03734
 C215 C 0.47408 0.76731 0.08039
 N216 N 0.48896 0.76584 0.06025
 C217 C 0.50698 0.78160 0.05712
 C218 C 0.51044 0.80001 0.07435
 C219 C 0.47699 0.78549 0.09828
 C220 C 0.51078 0.70818 0.01374
 C221 C 0.52992 0.69455 0.01103
 C222 C 0.54831 0.71510 0.04704
 C223 C 0.52887 0.72844 0.04894
 N224 N 0.51083 0.72506 0.03210
 H225 H 0.45963 0.75476 0.08228
 H226 H 0.51838 0.78010 0.04077
 H227 H 0.52471 0.81252 0.07114
 H228 H 0.46470 0.78674 0.11391
 H229 H 0.49602 0.70564 0.00085
 H230 H 0.52968 0.68147 -0.00401
 H231 H 0.56265 0.71830 0.06040
 H232 H 0.52834 0.74159 0.06378
 C233 C 0.41872 0.69385 0.04100
 C234 C 0.48265 0.78693 -0.03778
 C235 C 0.54916 0.69808 0.02767
 C236 C 0.49514 0.80234 0.09508
 C237 C 1.02996 0.47046 0.21455
 H238 H 1.01646 0.45675 0.21460
 C239 C 1.04874 0.46937 0.19760
 H240 H 1.04955 0.45466 0.18470
 C241 C 1.04472 0.50649 0.23101
 H242 H 1.04284 0.52107 0.24379
 C243 C 1.06367 0.50626 0.21401
 H244 H 1.07646 0.52061 0.21413
 N245 N 1.02844 0.48864 0.23106
 C246 C 0.98137 0.45843 0.28747
 H247 H 0.96689 0.46950 0.28752
 C248 C 0.98077 0.44029 0.30349
 H249 H 0.96565 0.43745 0.31568
 C250 C 1.01896 0.44918 0.27202
 H251 H 1.03415 0.45301 0.26034
 C252 C 1.01907 0.43089 0.28761
 H253 H 1.03430 0.42072 0.28730
 Zn254 Zn 1.00129 0.48819 0.25197
 N255 N 1.00022 0.46245 0.27205
 C256 C 0.95789 0.47089 0.22780
 N257 N 0.97533 0.48770 0.22962
 C258 C 0.97553 0.50567 0.21462
 C259 C 0.95717 0.50788 0.19777
 C260 C 0.93925 0.47224 0.21077
 C261 C 1.01920 0.51952 0.29045
 C262 C 1.01890 0.53855 0.30722
 C263 C 0.98092 0.54636 0.29047
 C264 C 0.98194 0.52726 0.27412
 N265 N 1.00101 0.51443 0.27410
 H266 H 0.95835 0.45649 0.23952
 H267 H 0.98985 0.51857 0.21616
 H268 H 0.95757 0.52257 0.18634
 H269 H 0.92530 0.45892 0.20968
 H270 H 1.03396 0.50879 0.29044
 H271 H 1.03359 0.54237 0.32000
 H272 H 0.96550 0.55624 0.29002
 H273 H 0.96721 0.52257 0.26174
 C274 C 0.99987 0.42626 0.30374
 C275 C 1.06588 0.48745 0.19710
 C276 C 0.99956 0.55230 0.30731
 C277 C 0.93862 0.49114 0.19579
 C278 C -0.04150 0.48893 0.76334
 H279 H -0.03910 0.47431 0.75078
 C280 C -0.06054 0.48877 0.78021
 H281 H -0.07290 0.47410 0.78020
 C282 C -0.02799 0.52552 0.77930
 H283 H -0.01496 0.53963 0.77908
 C284 C -0.04694 0.52626 0.79606
 H285 H -0.04840 0.54108 0.80867
 N286 N -0.02586 0.50728 0.76302
 C287 C 0.01956 0.46859 0.71935
 H288 H 0.03457 0.47301 0.73141
 C289 C 0.01956 0.44907 0.70347
 H290 H 0.03454 0.43862 0.70387
 C291 C -0.01762 0.47724 0.70355
 H292 H -0.03202 0.48841 0.70370
 C293 C -0.01830 0.45789 0.68723
 H294 H -0.03337 0.45427 0.67491
 Zn295 Zn 0.00090 0.50832 0.74156
 N296 N 0.00095 0.48201 0.71949
 C297 C 0.02912 0.49184 0.77803
 N298 N 0.02746 0.50978 0.76324
 C299 C 0.04347 0.52787 0.76503
 C300 C 0.06249 0.52798 0.78180
 C301 C 0.04803 0.49103 0.79455
 C302 C -0.01772 0.54730 0.72209
 C303 C -0.01795 0.56598 0.70706
 C304 C 0.02005 0.55669 0.69023
 C305 C 0.01959 0.53819 0.70572
 N306 N 0.00099 0.53400 0.72144
 H307 H 0.01581 0.47795 0.77668
 H308 H 0.04146 0.54225 0.75361
 H309 H 0.07524 0.54235 0.78291
 H310 H 0.04919 0.47638 0.80583
 H311 H -0.03273 0.54333 0.73399
 H312 H -0.03308 0.57628 0.70796
 H313 H 0.03505 0.55976 0.67793
 H314 H 0.03407 0.52712 0.70521
 C315 C 0.00040 0.44338 0.68722
 C316 C -0.06353 0.50773 0.79665
 C317 C 0.00111 0.57093 0.69085
 C318 C 0.06507 0.50920 0.79652
 C319 C 0.09494 0.18347 0.49537
 N320 N 0.09095 0.19727 0.51600
 N321 N 0.07407 0.21196 0.51572
 C322 C 0.06060 0.21345 0.49478
 N323 N 0.06490 0.19987 0.47405
 N324 N 0.08176 0.18520 0.47433
 C325 C 0.11194 0.16577 0.49629
 N326 N 0.11420 0.15083 0.47628
 N327 N 0.12836 0.13380 0.47754
 C328 C 0.14079 0.13105 0.49888
 N329 N 0.13872 0.14611 0.51885
 N330 N 0.12451 0.16314 0.51760
 C331 C 0.15554 0.11161 0.50049
 N332 N 0.16845 0.10881 0.52150
 N333 N 0.18138 0.09085 0.52298
 C334 C 0.18180 0.07496 0.50358
 N335 N 0.16887 0.07786 0.48259
 N336 N 0.15601 0.09581 0.48107
 C337 C 0.68352 0.60141 0.00760
 N338 N 0.68443 0.58735 -0.01334
 N339 N 0.69977 0.57123 -0.01490
 C340 C 0.71487 0.56856 0.00438
 N341 N 0.71421 0.58285 0.02523
 N342 N 0.69882 0.59901 0.02680
 C343 C 0.66501 0.61765 0.00999
 N344 N 0.66299 0.63124 0.03122
 N345 N 0.64514 0.64481 0.03384
 C346 C 0.62865 0.64518 0.01538
 N347 N 0.63081 0.63173 -0.00589
 N348 N 0.64865 0.61822 -0.00853
 C349 C 0.60831 0.65923 0.01854
 N350 N 0.59096 0.65782 0.00091
 N351 N 0.57218 0.67011 0.00388
 C352 C 0.57000 0.68431 0.02458
 N353 N 0.58745 0.68574 0.04220
 N354 N 0.60622 0.67339 0.03928
 C355 C 0.90411 -0.18472 0.50208
 N356 N 0.90549 -0.20032 0.48251
 N357 N 0.92231 -0.21513 0.48197
 C358 C 0.93833 -0.21489 0.50100
 N359 N 0.93675 -0.19940 0.52062
 N360 N 0.91996 -0.18465 0.52118
 C361 C 0.88675 -0.16728 0.50214
 N362 N 0.88646 -0.15133 0.52143
 N363 N 0.87171 -0.13471 0.52111
 C364 C 0.85667 -0.13337 0.50148
 N365 N 0.85680 -0.14942 0.48222
 N366 N 0.87160 -0.16607 0.48253
 C367 C 0.84115 -0.11441 0.50092
 N368 N 0.82597 -0.11265 0.48148
 N369 N 0.81240 -0.09506 0.48092
 C370 C 0.81354 -0.07854 0.49973
 N371 N 0.82872 -0.08043 0.51916
 N372 N 0.84224 -0.09799 0.51975
 C373 C 0.31936 0.40339 0.97578
 N374 N 0.32003 0.42095 0.96024
 N375 N 0.30541 0.43755 0.96382
 C376 C 0.28949 0.43723 0.98303
 N377 N 0.28868 0.41955 0.99847
 N378 N 0.30336 0.40293 0.99492
 C379 C 0.33655 0.38591 0.97262
 N380 N 0.33722 0.36911 0.98909
 N381 N 0.35372 0.35406 0.98695
 C382 C 0.37015 0.35526 0.96827
 N383 N 0.36934 0.37193 0.95167
 N384 N 0.35285 0.38698 0.95382
 C385 C 0.38919 0.33954 0.96680
 N386 N 0.40613 0.34134 0.94873
 N387 N 0.42411 0.32787 0.94821
 C388 C 0.42586 0.31207 0.96576
 N389 N 0.40874 0.31019 0.98367
 N390 N 0.39077 0.32364 0.98420
 C391 C 0.93205 0.18706 0.48580
 N392 N 0.95120 0.18066 0.47254
 N393 N 0.97147 0.19308 0.47405
 C394 C 0.97339 0.21258 0.48865
 N395 N 0.95410 0.21938 0.50153
 N396 N 0.93378 0.20675 0.50024
 C397 C 0.91069 0.17172 0.48564
 N398 N 0.89341 0.17406 0.50324
 N399 N 0.87538 0.15854 0.50426
 C400 C 0.87403 0.14021 0.48769
 N401 N 0.89113 0.13815 0.46991
 N402 N 0.90912 0.15355 0.46897
 C403 C 0.85535 0.12204 0.48950
 N404 N 0.85479 0.10408 0.47255
 N405 N 0.83886 0.08684 0.47458
 C406 C 0.82285 0.08675 0.49369
 N407 N 0.82332 0.10484 0.51060
 N408 N 0.83929 0.12216 0.50857
 C409 C 0.30957 0.56010 0.02058
 N410 N 0.28854 0.55924 0.00828
 N411 N 0.27754 0.53933 0.00135
 C412 C 0.28739 0.51964 0.00617
 N413 N 0.30832 0.52061 0.01856
 N414 N 0.31914 0.54042 0.02570
 C415 C 0.32272 0.58169 0.02715
 N416 N 0.34177 0.58203 0.04257
 N417 N 0.35517 0.60102 0.04705
 C418 C 0.35014 0.62039 0.03612
 N419 N 0.33091 0.62017 0.02088
 N420 N 0.31738 0.60116 0.01654
 C421 C 0.36646 0.64055 0.03915
 N422 N 0.36450 0.65848 0.02447
 N423 N 0.38074 0.67574 0.02557
 C424 C 0.39952 0.67576 0.04142
 N425 N 0.40117 0.65797 0.05641
 N426 N 0.38501 0.64069 0.05524
 C427 C 0.06741 -0.19323 0.49095
 N428 N 0.04958 -0.18917 0.47516
 N429 N 0.02887 -0.20083 0.47643
 C430 C 0.02530 -0.21725 0.49325
 N431 N 0.04328 -0.22173 0.50870
 N432 N 0.06395 -0.20979 0.50769
 C433 C 0.08912 -0.17845 0.49118
 N434 N 0.10268 -0.17545 0.51229
 N435 N 0.12081 -0.16002 0.51338
 C436 C 0.12615 -0.14720 0.49332
 N437 N 0.11288 -0.15054 0.47207
 N438 N 0.09461 -0.16576 0.47109
 C439 C 0.14478 -0.12888 0.49507
 N440 N 0.15300 -0.11901 0.47392
 N441 N 0.16873 -0.10138 0.47554
 C442 C 0.17663 -0.09273 0.49840
 N443 N 0.16846 -0.10267 0.51957
 N444 N 0.15289 -0.12047 0.51793
 C445 C 0.68991 0.44396 1.00333
 N446 N 0.71133 0.44596 0.99180
 N447 N 0.72350 0.46600 0.99186
 C448 C 0.71450 0.48470 1.00319
 N449 N 0.69322 0.48254 1.01484
 N450 N 0.68123 0.46258 1.01500
 C451 C 0.67536 0.42259 1.00226
 N452 N 0.65539 0.42091 1.01636
 N453 N 0.64082 0.40248 1.01425
 C454 C 0.64555 0.38504 0.99783
 N455 N 0.66566 0.38654 0.98384
 N456 N 0.68035 0.40501 0.98605
 C457 C 0.62829 0.36564 0.99452
 N458 N 0.63096 0.34906 0.97628
 N459 N 0.61437 0.33228 0.97264
 C460 C 0.59449 0.33149 0.98708
 N461 N 0.59203 0.34803 1.00542
 N462 N 0.60855 0.36477 1.00903
 C463 C 0.49834 0.10603 1.17795
 N464 N 0.48002 0.09024 1.17822
 N465 N 0.47981 0.07362 1.19424
 C466 C 0.49791 0.07214 1.21063
 N467 N 0.51614 0.08810 1.21055
 N468 N 0.51635 0.10476 1.19450
 C469 C 0.49912 0.12336 1.15907
 N470 N 0.51764 0.13892 1.15801
 N471 N 0.51881 0.15383 1.13994
 C472 C 0.50153 0.15366 1.12227
 N473 N 0.48295 0.13820 1.12346
 N474 N 0.48177 0.12334 1.14153
 C475 C 0.50322 0.16926 1.10159
 N476 N 0.48677 0.16766 1.08299
 N477 N 0.48859 0.18125 1.06371
 C478 C 0.50691 0.19700 1.06227
 N479 N 0.52329 0.19865 1.08101
 N480 N 0.52151 0.18501 1.10029
 C481 C -0.00750 0.69703 0.57737
 N482 N 0.00734 0.69923 0.55734
 N483 N 0.00409 0.71469 0.54043
 C484 C -0.01408 0.72854 0.54290
 N485 N -0.02875 0.72646 0.56308
 N486 N -0.02552 0.71101 0.57998
 C487 C -0.00485 0.67920 0.59532
 N488 N -0.02067 0.67632 0.61434
 N489 N -0.01900 0.65959 0.63001
 C490 C -0.00143 0.64509 0.62729
 N491 N 0.01451 0.64804 0.60836
 N492 N 0.01282 0.66478 0.59264
 C493 C -0.00025 0.62618 0.64412
 N494 N 0.01734 0.61166 0.64186
 N495 N 0.01792 0.59421 0.65679
 C496 C 0.00090 0.59057 0.67451
 N497 N -0.01662 0.60520 0.67676
 N498 N -0.01718 0.62264 0.66189
 C499 C 0.49044 0.89734 -0.17062
 N500 N 0.47487 0.91384 -0.16999
 N501 N 0.47693 0.93045 -0.18601
 C502 C 0.49463 0.93122 -0.20332
 N503 N 0.51018 0.91464 -0.20403
 N504 N 0.50813 0.89800 -0.18795
 C505 C 0.48844 0.87955 -0.15227
 N506 N 0.50442 0.86343 -0.15184
 N507 N 0.50290 0.84783 -0.13451
 C508 C 0.48534 0.84781 -0.11701
 N509 N 0.46930 0.86386 -0.11756
 N510 N 0.47082 0.87943 -0.13487
 C511 C 0.48412 0.83132 -0.09720
 N512 N 0.46704 0.83209 -0.07925
 N513 N 0.46640 0.81779 -0.06061
 C514 C 0.48281 0.80214 -0.05917
 N515 N 0.49980 0.80129 -0.07729
 N516 N 0.50046 0.81561 -0.09594
 C517 C 1.00950 0.30425 0.42261
 N518 N 0.99284 0.30019 0.44056
 N519 N 0.99555 0.28441 0.45725
 C520 C 1.01502 0.27211 0.45667
 N521 N 1.03159 0.27620 0.43862
 N522 N 1.02889 0.29193 0.42194
 C523 C 1.00701 0.32190 0.40438
 N524 N 1.02401 0.32572 0.38674
 N525 N 1.02221 0.34193 0.37044
 C526 C 1.00335 0.35497 0.37112
 N527 N 0.98627 0.35114 0.38871
 N528 N 0.98807 0.33489 0.40505
 C529 C 1.00190 0.37315 0.35336
 N530 N 0.98339 0.38666 0.35385
 N531 N 0.98258 0.40340 0.33798
 C532 C 1.00024 0.40729 0.32103
 N533 N 1.01866 0.39366 0.32057
 N534 N 1.01947 0.37695 0.33638
 C535 C 0.49993 0.94733 0.19382
 N536 N 0.49646 0.95008 0.21916
 N537 N 0.49594 0.97082 0.23020
 C538 C 0.49861 0.98950 0.21627
 N539 N 0.50195 0.98658 0.19095
 N540 N 0.50271 0.96595 0.17999
 C541 C 0.50070 0.92481 0.18111
 N542 N 0.50949 0.92290 0.15731
 N543 N 0.50964 0.90280 0.14497
 C544 C 0.50079 0.88384 0.15584
 N545 N 0.49198 0.88566 0.17971
 N546 N 0.49204 0.90582 0.19219
 C547 C 0.50022 0.86207 0.14129
 N548 N 0.48695 0.84371 0.14876
 N549 N 0.48553 0.82453 0.13434
 C550 C 0.49744 0.82300 0.11204
 N551 N 0.51088 0.84133 0.10487
 N552 N 0.51218 0.86047 0.11914
 C553 C 0.00527 0.30708 0.57323
 N554 N 0.02281 0.29285 0.57615
 N555 N 0.02588 0.27584 0.55930
 C556 C 0.01153 0.27234 0.53886
 N557 N -0.00620 0.28642 0.53609
 N558 N -0.00929 0.30347 0.55296
 C559 C 0.00304 0.32665 0.59110
 N560 N -0.01400 0.34146 0.58821
 N561 N -0.01517 0.35972 0.60387
 C562 C 0.00069 0.36384 0.62293
 N563 N 0.01762 0.34895 0.62586
 N564 N 0.01876 0.33072 0.61025
 C565 C 0.00014 0.38431 0.63977
 N566 N 0.01714 0.38883 0.65754
 N567 N 0.01713 0.40754 0.67256
 C568 C 0.00013 0.42252 0.67046
 N569 N -0.01695 0.41792 0.65271
 N570 N -0.01693 0.39920 0.63761
 C571 C 0.51483 0.05778 0.80912
 N572 N 0.50490 0.05404 0.78587
 N573 N 0.50100 0.03297 0.77601
 C574 C 0.50663 0.01493 0.78918
 N575 N 0.51655 0.01876 0.81237
 N576 N 0.52065 0.03976 0.82211
 C577 C 0.51864 0.08073 0.82070
 N578 N 0.53210 0.08421 0.84179
 N579 N 0.53463 0.10463 0.85344
 C580 C 0.52367 0.12235 0.84457
 N581 N 0.51031 0.11896 0.82334
 N582 N 0.50791 0.09851 0.81154
 C583 C 0.52514 0.14426 0.85887
 N584 N 0.51064 0.16082 0.85364
 N585 N 0.51070 0.17985 0.86823
 C586 C 0.52534 0.18306 0.88852
 N587 N 0.54008 0.16659 0.89339
 N588 N 0.53995 0.14757 0.87891
 C589 C 0.98708 0.68499 0.42547
 N590 N 0.96790 0.69753 0.42432
 N591 N 0.96521 0.71495 0.44076
 C592 C 0.98159 0.72053 0.45899
 N593 N 1.00080 0.70802 0.46007
 N594 N 1.00351 0.69058 0.44363
 C595 C 0.98970 0.66553 0.40756
 N596 N 1.00863 0.65265 0.40868
 N597 N 1.01069 0.63481 0.39260
 C598 C 0.99387 0.62922 0.37484
 N599 N 0.97499 0.64214 0.37371
 N600 N 0.97294 0.65995 0.38976
 C601 C 0.99574 0.60940 0.35725
 N602 N 0.97849 0.60389 0.34000
 N603 N 0.97982 0.58584 0.32418
 C604 C 0.99844 0.57252 0.32491
 N605 N 1.01576 0.57809 0.34217
 N606 N 1.01443 0.59618 0.35805
 C607 C 1.19133 0.47916 0.06860
 N608 N 1.20049 0.45895 0.06253
 N609 N 1.21691 0.45725 0.04463
 C610 C 1.22470 0.47565 0.03197
 N611 N 1.21546 0.49586 0.03798
 N612 N 1.19911 0.49760 0.05601
 C613 C 1.17317 0.48084 0.08835
 N614 N 1.16600 0.50130 0.09701
 N615 N 1.14946 0.50263 0.11488
 C616 C 1.13942 0.48355 0.12463
 N617 N 1.14658 0.46313 0.11593
 N618 N 1.16320 0.46180 0.09820
 C619 C 1.12075 0.48475 0.14387
 N620 N 1.10836 0.46560 0.15037
 N621 N 1.09107 0.46651 0.16737
 C622 C 1.08557 0.48660 0.17871
 N623 N 1.09813 0.50577 0.17235
 N624 N 1.11535 0.50488 0.15519
 C625 C 0.57259 -0.02060 0.69241
 N626 N 0.57167 -0.03929 0.70629
 N627 N 0.55426 -0.04295 0.72278
 C628 C 0.53707 -0.02808 0.72601
 N629 N 0.53797 -0.00942 0.71205
 N630 N 0.55539 -0.00575 0.69553
 C631 C 0.59200 -0.01654 0.67447
 N632 N 0.59297 0.00193 0.66021
 N633 N 0.61063 0.00548 0.64394
 C634 C 0.62797 -0.00929 0.64140
 N635 N 0.62701 -0.02772 0.65570
 N636 N 0.60936 -0.03128 0.67194
 C637 C 0.64723 -0.00576 0.62315
 N638 N 0.66432 -0.02076 0.62068
 N639 N 0.68143 -0.01806 0.60364
 C640 C 0.68218 -0.00025 0.58838
 N641 N 0.66512 0.01485 0.59101
 N642 N 0.64798 0.01216 0.60808
 C643 C -0.19316 0.51740 0.91985
 N644 N -0.19884 0.50067 0.93587
 N645 N -0.21491 0.50362 0.95401
 C646 C -0.22595 0.52334 0.95667
 N647 N -0.22037 0.53990 0.94047
 N648 N -0.20426 0.53702 0.92248
 C649 C -0.17468 0.51499 0.90059
 N650 N -0.16634 0.53339 0.88829
 N651 N -0.14911 0.53173 0.87132
 C652 C -0.13967 0.51156 0.86584
 N653 N -0.14811 0.49305 0.87797
 N654 N -0.16527 0.49475 0.89513
 C655 C -0.12021 0.51022 0.84758
 N656 N -0.11298 0.48995 0.83839
 N657 N -0.09512 0.48908 0.82200
 C658 C -0.08371 0.50843 0.81437
 N659 N -0.09100 0.52864 0.82362
 N660 N -0.10894 0.52952 0.83981
 C661 C 0.42017 0.01723 0.30901
 N662 N 0.43861 0.00367 0.30702
 N663 N 0.45611 0.00802 0.29076
 C664 C 0.45581 0.02608 0.27596
 N665 N 0.43731 0.03955 0.27795
 N666 N 0.41984 0.03522 0.29415
 C667 C 0.40108 0.01299 0.32725
 N668 N 0.38305 0.02701 0.32919
 N669 N 0.36594 0.02370 0.34611
 C670 C 0.36621 0.00622 0.36172
 N671 N 0.38419 -0.00789 0.35972
 N672 N 0.40133 -0.00457 0.34278
 C673 C 0.34768 0.00318 0.38086
 N674 N 0.34786 -0.01399 0.39689
 N675 N 0.33137 -0.01619 0.41474
 C676 C 0.31411 -0.00130 0.41726
 N677 N 0.31394 0.01578 0.40108
 N678 N 0.33038 0.01797 0.38324
 C679 C 0.19669 0.49478 0.91371
 N680 N 0.20144 0.50954 0.93378
 N681 N 0.21770 0.50528 0.95077
 C682 C 0.22987 0.48622 0.94818
 N683 N 0.22522 0.47170 0.92793
 N684 N 0.20893 0.47585 0.91110
 C685 C 0.17786 0.49825 0.89561
 N686 N 0.17011 0.48085 0.87955
 N687 N 0.15258 0.48328 0.86352
 C688 C 0.14225 0.50329 0.86273
 N689 N 0.15011 0.52085 0.87863
 N690 N 0.16756 0.51834 0.89489
 C691 C 0.12243 0.50530 0.84542
 N692 N 0.11484 0.52580 0.83984
 N693 N 0.09675 0.52717 0.82409
 C694 C 0.08546 0.50808 0.81358
 N695 N 0.09309 0.48765 0.81926
 N696 N 0.11127 0.48629 0.83475
 C697 C 0.57192 0.02279 0.31132
 N698 N 0.55303 0.00768 0.30845
 N699 N 0.53587 0.01115 0.29224
 C700 C 0.53696 0.02988 0.27836
 N701 N 0.55584 0.04497 0.28133
 N702 N 0.57298 0.04149 0.29748
 C703 C 0.59099 0.01915 0.32903
 N704 N 0.60995 0.03423 0.33110
 N705 N 0.62728 0.03122 0.34720
 C706 C 0.62633 0.01303 0.36184
 N707 N 0.60739 -0.00211 0.35977
 N708 N 0.59003 0.00089 0.34362
 C709 C 0.64532 0.01020 0.37994
 N710 N 0.64432 -0.00739 0.39547
 N711 N 0.66133 -0.00939 0.41234
 C712 C 0.68001 0.00610 0.41430
 N713 N 0.68099 0.02358 0.39859
 N714 N 0.66401 0.02559 0.38176
 C715 C 0.81122 0.51456 0.07617
 N716 N 0.80281 0.49797 0.05936
 N717 N 0.78651 0.50218 0.04244
 C718 C 0.77793 0.52307 0.04182
 N719 N 0.78630 0.53959 0.05872
 N720 N 0.80268 0.53544 0.07549
 C721 C 0.82955 0.51033 0.09454
 N722 N 0.84059 0.52794 0.10801
 N723 N 0.85749 0.52442 0.12444
 C724 C 0.86388 0.50313 0.12819
 N725 N 0.85275 0.48543 0.11484
 N726 N 0.83592 0.48898 0.09824
 C727 C 0.88295 0.49965 0.14598
 N728 N 0.88730 0.47865 0.15335
 N729 N 0.90484 0.47584 0.16938
 C730 C 0.91877 0.49391 0.17842
 N731 N 0.91432 0.51485 0.17099
 N732 N 0.89672 0.51768 0.15518
 C733 C 0.42034 -0.01768 0.69963
 N734 N 0.44039 -0.00392 0.70013
 N735 N 0.45794 -0.00749 0.71583
 C736 C 0.45608 -0.02496 0.73155
 N737 N 0.43597 -0.03860 0.73106
 N738 N 0.41845 -0.03505 0.71542
 C739 C 0.40115 -0.01445 0.68193
 N740 N 0.38168 -0.02894 0.68126
 N741 N 0.36447 -0.02667 0.66477
 C742 C 0.36606 -0.00979 0.64832
 N743 N 0.38548 0.00482 0.64905
 N744 N 0.40273 0.00253 0.66557
 C745 C 0.34741 -0.00803 0.62954
 N746 N 0.34867 0.00869 0.61287
 N747 N 0.33207 0.00964 0.59530
 C748 C 0.31362 -0.00611 0.59367
 N749 N 0.31236 -0.02272 0.61050
 N750 N 0.32891 -0.02365 0.62809
   
