data_POSCAR
  _audit_creation_date              2014-09-24
  _audit_creation_method            'ToBaCCo'
  _symmetry_space_group_name_H-M    'P1'
  _symmetry_Int_Tables_number       1
  _symmetry_cell_setting            triclinic
  loop_
  _symmetry_equiv_pos_as_xyz
 x,y,z
_cell_length_a 19.9036
_cell_length_b 21.0172
_cell_length_c 20.3676
_cell_angle_alpha 90.224900
_cell_angle_beta 87.423100
_cell_angle_gamma 91.377600
loop_
  _atom_site_label
  _atom_site_type_symbol
  _atom_site_fract_x
  _atom_site_fract_y
  _atom_site_fract_z
Si1 Si 0.24648 0.23996 0.25962
 Si2 Si 0.75035 0.73071 0.24935
 Si3 Si 0.75245 0.24353 0.73564
 Si4 Si 0.24630 0.75127 0.76756
 C5 C 0.07708 0.11943 0.02149
 H6 H 0.07398 0.12551 -0.03100
 C7 C 0.11571 0.16208 0.05745
 H8 H 0.14223 0.20126 0.03248
 C9 C 0.04627 0.06072 0.11779
 H10 H 0.01860 0.02155 0.14117
 C11 C 0.08507 0.10186 0.15558
 H12 H 0.08604 0.09419 0.20802
 N13 N 0.04404 0.06954 0.05182
 C14 C 0.03664 -0.08026 -0.09512
 H15 H -0.01694 -0.08693 -0.10027
 C16 C 0.08166 -0.11919 -0.13005
 H17 H 0.06065 -0.15527 -0.16145
 C18 C 0.12652 -0.02652 -0.04446
 H19 H 0.14392 0.00872 -0.01004
 C20 C 0.17331 -0.06455 -0.07800
 H21 H 0.22628 -0.05729 -0.06930
 Zn22 Zn -0.00336 0.01304 -0.00284
 N23 N 0.05960 -0.03484 -0.05359
 C24 C -0.05449 0.05902 -0.12286
 N25 N -0.05682 0.06314 -0.05613
 C26 C -0.09742 0.10505 -0.02375
 C27 C -0.13918 0.14382 -0.05834
 C28 C -0.09556 0.09709 -0.15960
 C29 C -0.03009 -0.08842 0.08517
 C30 C -0.06967 -0.13205 0.12241
 C31 C -0.16893 -0.08556 0.08051
 C32 C -0.12748 -0.04311 0.04387
 N33 N -0.05941 -0.04459 0.04749
 H34 H -0.02075 0.02643 -0.14778
 H35 H -0.09758 0.10797 0.02930
 H36 H -0.17137 0.17664 -0.03142
 H37 H -0.09215 0.09298 -0.21251
 H38 H 0.02417 -0.08936 0.08632
 H39 H -0.04530 -0.16615 0.15256
 H40 H -0.22304 -0.08337 0.07751
 H41 H -0.15004 -0.00921 0.01244
 C42 C 0.15152 -0.11188 -0.12156
 C43 C 0.12118 0.15279 0.12502
 C44 C -0.14035 -0.13068 0.12037
 C45 C -0.13911 0.14003 -0.12709
 C46 C 0.12142 0.60064 0.52329
 H47 H 0.12538 0.59988 0.47014
 C48 C 0.16396 0.64055 0.55825
 H49 H 0.20039 0.67074 0.53129
 C50 C 0.06896 0.56164 0.62225
 H51 H 0.03244 0.53016 0.64696
 C52 C 0.11063 0.60057 0.65931
 H53 H 0.10381 0.59804 0.71207
 N54 N 0.07434 0.56315 0.55557
 C55 C 0.07238 0.45235 0.38701
 H56 H 0.03593 0.47887 0.36139
 C57 C 0.11472 0.41111 0.35190
 H58 H 0.11060 0.40671 0.29927
 C59 C 0.12393 0.42757 0.48617
 H60 H 0.12683 0.43422 0.53867
 C61 C 0.16773 0.38653 0.45294
 H62 H 0.20446 0.36144 0.48002
 Zn63 Zn 0.01909 0.51062 0.50445
 N64 N 0.07677 0.45861 0.45316
 C65 C -0.07945 0.53046 0.41318
 N66 N -0.03481 0.56071 0.45194
 C67 C -0.03187 0.62532 0.45646
 C68 C -0.07393 0.66219 0.41995
 C69 C -0.12215 0.56548 0.37547
 C70 C -0.03489 0.39490 0.55727
 C71 C -0.07879 0.35715 0.59669
 C72 C -0.13196 0.45267 0.63711
 C73 C -0.08701 0.48858 0.59691
 N74 N -0.03931 0.45936 0.55855
 H75 H -0.08209 0.47900 0.41197
 H76 H 0.00225 0.64851 0.48918
 H77 H -0.07118 0.71359 0.42411
 H78 H -0.15737 0.54054 0.34490
 H79 H 0.00267 0.37247 0.52571
 H80 H -0.07270 0.30620 0.59577
 H81 H -0.16938 0.47673 0.66776
 H82 H -0.08988 0.53991 0.59633
 C83 C 0.16234 0.37683 0.38535
 C84 C 0.15880 0.64151 0.62729
 C85 C -0.12845 0.38610 0.63717
 C86 C -0.11938 0.63246 0.37861
 C87 C 0.56508 0.10277 0.53799
 H88 H 0.54187 0.12634 0.49808
 C89 C 0.60714 0.13766 0.57881
 H90 H 0.61627 0.18764 0.56868
 C91 C 0.58312 0.00845 0.59732
 H92 H 0.57318 -0.04196 0.60429
 C93 C 0.62557 0.04139 0.63912
 H94 H 0.64855 0.01586 0.67805
 N95 N 0.55365 0.03943 0.54814
 C96 C 0.50710 -0.11110 0.40721
 H97 H 0.45269 -0.11108 0.41025
 C98 C 0.54036 -0.15343 0.36475
 H99 H 0.51108 -0.18629 0.33576
 C100 C 0.61094 -0.06705 0.44012
 H101 H 0.63822 -0.03242 0.46866
 C102 C 0.64634 -0.10852 0.39808
 H103 H 0.70058 -0.10452 0.39527
 Zn104 Zn 0.49382 -0.00881 0.49664
 N105 N 0.54253 -0.06888 0.44382
 C106 C 0.45558 0.03696 0.37330
 N107 N 0.44776 0.04589 0.43945
 C108 C 0.40931 0.09380 0.46431
 C109 C 0.37488 0.13298 0.42253
 C110 C 0.42202 0.07483 0.32987
 C111 C 0.43410 -0.11734 0.56066
 C112 C 0.39214 -0.15048 0.60621
 C113 C 0.34714 -0.05038 0.64334
 C114 C 0.39050 -0.01920 0.59743
 N115 N 0.43225 -0.05284 0.55637
 H116 H 0.48824 0.00076 0.35356
 H117 H 0.40628 0.10282 0.51647
 H118 H 0.34563 0.17106 0.44401
 H119 H 0.42854 0.06630 0.27750
 H120 H 0.46920 -0.14356 0.52979
 H121 H 0.39527 -0.20164 0.60669
 H122 H 0.31439 -0.02226 0.67528
 H123 H 0.39157 0.03203 0.59585
 C124 C 0.61087 -0.15266 0.35954
 C125 C 0.63753 0.10697 0.63077
 C126 C 0.34763 -0.11698 0.64886
 C127 C 0.38016 0.12292 0.35416
 C128 C 0.55573 0.60686 0.04275
 H129 H 0.53192 0.63245 0.00452
 C130 C 0.59753 0.63968 0.08556
 H131 H 0.60570 0.69028 0.07886
 C132 C 0.57460 0.50944 0.09629
 H133 H 0.56516 0.45866 0.10017
 C134 C 0.61664 0.54017 0.13991
 H135 H 0.63970 0.51250 0.17720
 N136 N 0.54535 0.54288 0.04878
 C137 C 0.50645 0.40288 -0.10541
 H138 H 0.45238 0.40524 -0.10794
 C139 C 0.54224 0.36136 -0.14688
 H140 H 0.51548 0.33166 -0.18112
 C141 C 0.60708 0.43938 -0.05834
 H142 H 0.63233 0.47026 -0.02430
 C143 C 0.64484 0.39867 -0.09892
 H144 H 0.69893 0.39863 -0.09511
 Zn145 Zn 0.48785 0.49657 -0.00653
 N146 N 0.53905 0.44053 -0.06185
 C147 C 0.45704 0.55392 -0.12599
 N148 N 0.44141 0.55367 -0.06030
 C149 C 0.39472 0.59375 -0.03381
 C150 C 0.36022 0.63455 -0.07399
 C151 C 0.42369 0.59343 -0.16789
 C152 C 0.42222 0.38358 0.04345
 C153 C 0.38110 0.34770 0.08739
 C154 C 0.35097 0.44477 0.14385
 C155 C 0.39276 0.47879 0.09887
 N156 N 0.42694 0.44808 0.04936
 H157 H 0.49581 0.52369 -0.14635
 H158 H 0.38396 0.59430 0.01854
 H159 H 0.32306 0.66495 -0.05089
 H160 H 0.43682 0.59187 -0.22010
 H161 H 0.45109 0.35930 0.00544
 H162 H 0.37753 0.29674 0.08040
 H163 H 0.32437 0.47009 0.18307
 H164 H 0.39949 0.52957 0.10485
 C165 C 0.61221 0.35872 -0.14402
 C166 C 0.62858 0.60610 0.13518
 C167 C 0.34525 0.37833 0.13893
 C168 C 0.37402 0.63424 -0.14250
 C169 C 0.18556 -0.19729 -0.19958
 C170 C 0.19997 -0.15092 -0.15279
 H171 H 0.13625 -0.20268 -0.21905
 H172 H 0.25195 -0.14500 -0.13952
 C173 C 0.18890 0.29710 0.29967
 C174 C 0.20729 0.33126 0.35145
 H175 H 0.14031 0.30263 0.27891
 H176 H 0.25560 0.32305 0.37205
 C177 C 0.71022 -0.20887 0.31030
 C178 C 0.64444 -0.19737 0.31245
 H179 H 0.74385 -0.18629 0.34389
 H180 H 0.61310 -0.22332 0.27889
 C181 C 0.71575 0.30285 -0.19835
 C182 C 0.64873 0.31443 -0.18902
 H183 H 0.73442 0.26704 -0.23504
 H184 H 0.69967 0.32412 -0.17580
 C185 C -0.19358 0.18169 -0.22621
 C186 C -0.18355 0.18317 -0.16176
 H187 H -0.17006 0.14728 -0.25870
 H188 H -0.20928 0.21878 -0.13215
 C189 C -0.20977 0.65877 0.29573
 C190 C -0.16349 0.67305 0.34122
 H191 H -0.25520 0.68793 0.28800
 H192 H -0.18228 0.63992 0.30562
 C193 C 0.29246 0.19833 0.32295
 C194 C 0.34438 0.16153 0.30650
 H195 H 0.27215 0.20111 0.37291
 H196 H 0.35990 0.15752 0.25496
 C197 C 0.29009 0.71520 -0.17033
 C198 C 0.34009 0.67164 -0.18698
 H199 H 0.27398 0.72482 -0.12005
 H200 H 0.35302 0.66527 -0.23889
 C201 C -0.17566 -0.22487 0.19846
 C202 C -0.18632 -0.17412 0.15906
 H203 H -0.21829 -0.24790 0.22571
 H204 H -0.15088 -0.20690 0.17784
 C205 C -0.18814 0.28676 0.67573
 C206 C -0.17585 0.34930 0.68139
 H207 H -0.16492 0.25872 0.63680
 H208 H -0.20255 0.37534 0.71997
 C209 C 0.30430 -0.21180 0.71137
 C210 C 0.30400 -0.14697 0.69636
 H211 H 0.34064 -0.24303 0.68850
 H212 H 0.26843 -0.11761 0.72367
 C213 C 0.30532 0.28112 0.19990
 C214 C 0.30082 0.34332 0.18748
 H215 H 0.34316 0.25246 0.17532
 H216 H 0.26357 0.37058 0.21497
 C217 C 0.19500 0.18110 0.21567
 C218 C 0.16362 0.19766 0.16199
 H219 H 0.19032 0.13342 0.23539
 H220 H 0.17181 0.24532 0.14254
 C221 C 0.20066 0.69073 0.72911
 C222 C 0.20075 0.68413 0.66086
 H223 H 0.16947 0.66106 0.76167
 H224 H 0.23412 0.71525 0.63143
 C225 C 0.68751 0.20361 0.68298
 C226 C 0.68394 0.14040 0.67527
 H227 H 0.65455 0.23463 0.65804
 H228 H 0.71649 0.11131 0.70319
 C229 C 0.68514 0.69907 0.18944
 C230 C 0.67517 0.63635 0.18162
 H231 H 0.65841 0.73354 0.16212
 H232 H 0.70313 0.60461 0.21134
   
