data_POSCAR
  _audit_creation_date              2014-09-24
  _audit_creation_method            'ToBaCCo'
  _symmetry_space_group_name_H-M    'P1'
  _symmetry_Int_Tables_number       1
  _symmetry_cell_setting            triclinic
  loop_
  _symmetry_equiv_pos_as_xyz
 x,y,z
_cell_length_a 18.0552
_cell_length_b 43.4617
_cell_length_c 44.6586
_cell_angle_alpha 90.011200
_cell_angle_beta 87.407100
_cell_angle_gamma 90.376900
loop_
  _atom_site_label
  _atom_site_type_symbol
  _atom_site_fract_x
  _atom_site_fract_y
  _atom_site_fract_z
O1 O 0.27898 0.22125 0.28607
 O2 O 0.28630 0.28150 0.22856
 O3 O 0.27684 0.28084 0.28684
 O4 O 0.28568 0.22146 0.22791
 O5 O 0.16379 0.22127 0.22703
 O6 O 0.15482 0.28019 0.28617
 O7 O 0.16428 0.28126 0.22781
 O8 O 0.15697 0.22025 0.28542
 Cu9 Cu 0.29394 0.25134 0.25733
 Cu10 Cu 0.14798 0.25069 0.25655
 C11 C 0.21693 0.21041 0.29565
 C12 C 0.22687 0.29184 0.21838
 C13 C 0.21416 0.29060 0.29667
 C14 C 0.22621 0.21103 0.21741
 O15 O 0.78343 0.28151 0.21167
 O16 O 0.79777 0.22570 0.27274
 O17 O 0.77924 0.22169 0.21549
 O18 O 0.79498 0.28530 0.26979
 O19 O 0.67334 0.28496 0.27687
 O20 O 0.65744 0.22280 0.22175
 O21 O 0.67606 0.22469 0.27906
 O22 O 0.66187 0.28240 0.21866
 Cu23 Cu 0.80068 0.25364 0.24165
 Cu24 Cu 0.65529 0.25386 0.24990
 C25 C 0.72074 0.29145 0.20451
 C26 C 0.73952 0.21525 0.28623
 C27 C 0.71558 0.21145 0.20929
 C28 C 0.73642 0.29579 0.28287
 O29 O 0.84340 0.78492 0.70242
 O30 O 0.92903 0.72465 0.74876
 O31 O 0.87290 0.72640 0.69666
 O32 O 0.91398 0.78443 0.75226
 O33 O 0.80665 0.77633 0.77643
 O34 O 0.76479 0.71634 0.71964
 O35 O 0.82067 0.71689 0.77237
 O36 O 0.73648 0.77519 0.72642
 Cu37 Cu 0.90042 0.75610 0.72274
 Cu38 Cu 0.77133 0.74542 0.75092
 C39 C 0.77442 0.79023 0.70681
 C40 C 0.88876 0.71047 0.76853
 C41 C 0.81326 0.71092 0.69866
 C42 C 0.86874 0.79051 0.77395
 O43 O 0.18111 0.78384 0.78799
 O44 O 0.16182 0.72513 0.72970
 O45 O 0.18122 0.72410 0.78719
 O46 O 0.16556 0.78519 0.73037
 O47 O 0.28717 0.78495 0.72291
 O48 O 0.30234 0.72388 0.77857
 O49 O 0.28327 0.72550 0.72151
 O50 O 0.30264 0.78394 0.78032
 Cu51 Cu 0.16047 0.75460 0.75966
 Cu52 Cu 0.30611 0.75456 0.75009
 C53 C 0.24468 0.79398 0.79415
 C54 C 0.21948 0.71527 0.71555
 C55 C 0.24468 0.71334 0.79243
 C56 C 0.22418 0.79549 0.71693
 C57 C 0.93944 -0.00844 0.01002
 C58 C 1.01404 -0.00689 0.01379
 C59 C 1.04813 0.01499 0.03486
 C60 C 1.06527 -0.02624 -0.00481
 C61 C 0.91172 -0.02438 -0.01671
 C62 C 0.88567 0.00754 0.03064
 C63 C 1.02885 0.04627 0.03517
 C64 C 1.06177 0.06671 0.05481
 C65 C 1.11607 0.05643 0.07394
 C66 C 1.13655 0.02530 0.07316
 C67 C 1.10285 0.00478 0.05381
 C68 C 1.11488 -0.01262 -0.02599
 C69 C 1.15567 -0.03097 -0.04637
 C70 C 1.14731 -0.06314 -0.04572
 C71 C 1.10056 -0.07670 -0.02338
 C72 C 1.06025 -0.05839 -0.00296
 C73 C 0.88237 -0.05431 -0.01442
 C74 C 0.87646 -0.07245 -0.04020
 C75 C 0.89951 -0.06072 -0.06849
 C76 C 0.92199 -0.02975 -0.07079
 C77 C 0.92817 -0.01179 -0.04514
 C78 C 0.89101 0.00482 0.06181
 C79 C 0.85069 0.02429 0.08118
 C80 C 0.80279 0.04624 0.06976
 C81 C 0.79248 0.04712 0.03878
 C82 C 0.83376 0.02791 0.01933
 H83 H 0.98869 0.05495 0.02005
 H84 H 1.04598 0.09070 0.05459
 H85 H 1.17808 0.01678 0.08776
 H86 H 1.11919 -0.01916 0.05374
 H87 H 1.11929 0.01219 -0.02764
 H88 H 1.19097 -0.01996 -0.06350
 H89 H 1.02298 -0.06921 0.01362
 H90 H 0.87002 -0.06443 0.00741
 H91 H 0.85919 -0.09626 -0.03778
 H92 H 0.93881 -0.01992 -0.09234
 H93 H 0.95092 0.01128 -0.04728
 H94 H 0.92947 -0.01126 0.07105
 H95 H 0.85853 0.02286 0.10504
 H96 H 0.75578 0.06388 0.02949
 H97 H 0.82844 0.03029 -0.00462
 H98 H 1.09403 -0.10146 -0.02213
 C99 C 0.43701 0.50299 0.50263
 C100 C 0.51274 0.50383 0.50049
 C101 C 0.55632 0.52325 0.52089
 C102 C 0.55540 0.48566 0.47733
 C103 C 0.39382 0.48065 0.48510
 C104 C 0.39384 0.52478 0.52212
 C105 C 0.61105 0.54330 0.50884
 C106 C 0.65119 0.56220 0.52759
 C107 C 0.63751 0.56142 0.55883
 C108 C 0.58316 0.54116 0.57095
 C109 C 0.54351 0.52198 0.55217
 C110 C 0.53836 0.48727 0.44697
 C111 C 0.57518 0.46858 0.42572
 C112 C 0.63111 0.44850 0.43427
 C113 C 0.65059 0.44798 0.46437
 C114 C 0.61299 0.46637 0.48572
 C115 C 0.41001 0.44909 0.48556
 C116 C 0.37329 0.42867 0.46710
 C117 C 0.31853 0.43934 0.44836
 C118 C 0.29986 0.47067 0.44902
 C119 C 0.33721 0.49114 0.46724
 C120 C 0.33963 0.51358 0.54293
 C121 C 0.30138 0.53377 0.56236
 C122 C 0.31669 0.56549 0.56125
 C123 C 0.36903 0.57676 0.53966
 C124 C 0.40670 0.55662 0.52007
 H125 H 0.62192 0.54466 0.48482
 H126 H 0.69236 0.57778 0.51762
 H127 H 0.57230 0.53979 0.59497
 H128 H 0.50265 0.50620 0.56203
 H129 H 0.49561 0.50263 0.43983
 H130 H 0.56000 0.46981 0.40257
 H131 H 0.62746 0.46495 0.50895
 H132 H 0.45220 0.44040 0.49977
 H133 H 0.38778 0.40453 0.46737
 H134 H 0.25811 0.47950 0.43469
 H135 H 0.32357 0.51536 0.46669
 H136 H 0.32846 0.48912 0.54468
 H137 H 0.26166 0.52447 0.57891
 H138 H 0.38098 0.60117 0.53803
 H139 H 0.44682 0.56582 0.50361
 H140 H 0.69332 0.43263 0.47156
 C141 C 0.04317 0.48900 -0.00903
 C142 C -0.02828 0.48579 -0.01730
 C143 C -0.08091 0.46424 -0.00167
 C144 C -0.05366 0.50390 -0.04301
 C145 C 0.09325 0.51110 -0.02516
 C146 C 0.07410 0.47145 0.01600
 C147 C -0.06378 0.43289 0.00055
 C148 C -0.10575 0.41373 0.01994
 C149 C -0.16619 0.42548 0.03721
 C150 C -0.18648 0.45635 0.03325
 C151 C -0.14421 0.47556 0.01390
 C152 C -0.03564 0.49371 -0.07222
 C153 C -0.03606 0.51421 -0.09634
 C154 C -0.05536 0.54517 -0.09166
 C155 C -0.07910 0.55467 -0.06269
 C156 C -0.07801 0.53420 -0.03854
 C157 C 0.09095 0.54231 -0.01727
 C158 C 0.12644 0.56426 -0.03579
 C159 C 0.16604 0.55511 -0.06201
 C160 C 0.17145 0.52372 -0.06905
 C161 C 0.13460 0.50185 -0.05089
 C162 C 0.04022 0.47199 0.04496
 C163 C 0.06946 0.45479 0.06808
 C164 C 0.13401 0.43737 0.06276
 C165 C 0.16841 0.43732 0.03393
 C166 C 0.13877 0.45418 0.01082
 H167 H -0.01565 0.42364 -0.01161
 H168 H -0.08970 0.38990 0.02208
 H169 H -0.23253 0.46610 0.04633
 H170 H -0.15837 0.49967 0.01251
 H171 H -0.01542 0.47055 -0.07599
 H172 H -0.01847 0.50618 -0.11847
 H173 H -0.09024 0.54269 -0.01607
 H174 H 0.05833 0.54976 0.00232
 H175 H 0.12182 0.58841 -0.03004
 H176 H 0.20115 0.51631 -0.08938
 H177 H 0.13527 0.47793 -0.05768
 H178 H -0.00882 0.48569 0.04965
 H179 H 0.04235 0.45546 0.09020
 H180 H 0.21769 0.42380 0.02912
 H181 H 0.16595 0.45326 -0.01124
 H182 H -0.09369 0.57843 -0.05837
 C183 C 0.53835 1.00417 0.50185
 C184 C 0.46262 1.00396 0.50211
 C185 C 0.41813 0.98339 0.52259
 C186 C 0.42047 1.02455 0.48267
 C187 C 0.58368 1.02170 0.47895
 C188 C 0.57719 0.98769 0.52561
 C189 C 0.42972 0.95150 0.52219
 C190 C 0.39091 0.93247 0.54265
 C191 C 0.33879 0.94491 0.56353
 C192 C 0.32502 0.97668 0.56308
 C193 C 0.36442 0.99577 0.54275
 C194 C 0.36558 1.01223 0.46482
 C195 C 0.32650 1.03127 0.44603
 C196 C 0.34168 1.06300 0.44478
 C197 C 0.39544 1.07542 0.46320
 C198 C 0.43393 1.05640 0.48221
 C199 C 0.63822 1.04254 0.48784
 C200 C 0.67394 1.06208 0.46680
 C201 C 0.65530 1.06118 0.43661
 C202 C 0.60357 1.03926 0.42748
 C203 C 0.56905 1.01934 0.44837
 C204 C 0.56303 0.99573 0.55573
 C205 C 0.58466 0.97632 0.57855
 C206 C 0.62115 0.94856 0.57170
 C207 C 0.64134 0.94194 0.54161
 C208 C 0.61959 0.96148 0.51867
 H209 H 0.46950 0.94143 0.50624
 H210 H 0.40169 0.90799 0.54217
 H211 H 0.28545 0.98687 0.57905
 H212 H 0.35444 1.02032 0.54325
 H213 H 0.35407 0.98773 0.46503
 H214 H 0.28571 1.02110 0.43192
 H215 H 0.47457 1.06649 0.49645
 H216 H 0.65074 1.04465 0.51124
 H217 H 0.71378 1.07879 0.47432
 H218 H 0.58929 1.03780 0.40422
 H219 H 0.52870 1.00284 0.44086
 H220 H 0.53108 1.01607 0.56147
 H221 H 0.56969 0.98227 0.60158
 H222 H 0.66934 0.92068 0.53573
 H223 H 0.63101 0.95498 0.49551
 H224 H 0.40730 1.09988 0.46301
 C225 C 1.16820 0.15340 0.16161
 C226 C 1.23572 0.14127 0.15264
 C227 C 1.30206 0.15156 0.16387
 C228 C 1.29861 0.17521 0.18532
 C229 C 1.22935 0.18797 0.19533
 C230 C 1.16330 0.17674 0.18299
 O231 O 1.11172 0.14045 0.14824
 C232 C 1.14427 0.11963 0.13046
 C233 C 1.22009 0.11909 0.13236
 C234 C 1.26489 0.09864 0.11599
 C235 C 1.23008 0.07795 0.09687
 C236 C 1.15196 0.07822 0.09436
 C237 C 1.10863 0.09947 0.11145
 H238 H 1.35461 0.14169 0.15644
 H239 H 1.35000 0.18328 0.19427
 H240 H 1.10935 0.18574 0.18983
 H241 H 1.32443 0.09858 0.11789
 H242 H 1.26397 0.06198 0.08375
 H243 H 1.04886 0.10000 0.11029
 C244 C 0.72714 0.65003 0.64980
 C245 C 0.78904 0.64103 0.63302
 C246 C 0.85898 0.65338 0.63682
 C247 C 0.86561 0.67614 0.65869
 C248 C 0.80285 0.68619 0.67638
 C249 C 0.73250 0.67264 0.67200
 O250 O 0.66568 0.63578 0.64179
 C251 C 0.68959 0.61752 0.61951
 C252 C 0.76468 0.61993 0.61336
 C253 C 0.80143 0.60366 0.59047
 C254 C 0.75897 0.58417 0.57295
 C255 C 0.68122 0.58131 0.57853
 C256 C 0.64619 0.59806 0.60243
 H257 H 0.90673 0.64595 0.62324
 H258 H 0.92004 0.68593 0.66178
 H259 H 0.68355 0.67989 0.68495
 H260 H 0.86063 0.60608 0.58607
 H261 H 0.78668 0.57127 0.55503
 H262 H 0.58686 0.59664 0.60699
 C263 C -0.22195 0.34244 0.13896
 C264 C -0.28938 0.35354 0.13091
 C265 C -0.35566 0.34552 0.14618
 C266 C -0.35215 0.32518 0.17060
 C267 C -0.28307 0.31339 0.17924
 C268 C -0.21717 0.32236 0.16306
 O269 O -0.16542 0.35279 0.12175
 C270 C -0.19769 0.37082 0.10235
 C271 C -0.27346 0.37217 0.10690
 C272 C -0.31772 0.39007 0.08913
 C273 C -0.28231 0.40734 0.06591
 C274 C -0.20410 0.40629 0.06085
 C275 C -0.16155 0.38763 0.07944
 H276 H -0.40817 0.35452 0.13951
 H277 H -0.40317 0.31857 0.18264
 H278 H -0.16347 0.31385 0.16890
 H279 H -0.37726 0.39085 0.09309
 H280 H -0.31576 0.42140 0.05184
 H281 H -0.10170 0.38676 0.07667
 C282 C 0.28115 0.85204 0.65624
 C283 C 0.21491 0.86622 0.65134
 C284 C 0.14917 0.85822 0.66704
 C285 C 0.15210 0.83470 0.68862
 C286 C 0.22014 0.81994 0.69408
 C287 C 0.28536 0.82888 0.67750
 O288 O 0.33732 0.86278 0.63913
 C289 C 0.30609 0.88428 0.62302
 C290 C 0.23133 0.88746 0.62959
 C291 C 0.18836 0.90901 0.61537
 C292 C 0.22402 0.92797 0.59356
 C293 C 0.30105 0.92488 0.58636
 C294 C 0.34236 0.90265 0.60143
 H295 H 0.09758 0.86965 0.66285
 H296 H 0.10166 0.82817 0.70112
 H297 H 0.33824 0.81814 0.68096
 H298 H 0.12963 0.91119 0.62087
 H299 H 0.19163 0.94478 0.58206
 H300 H 0.40135 0.89999 0.59679
 C301 C -0.09742 0.64914 -0.17238
 C302 C -0.02940 0.63659 -0.17990
 C303 C 0.01659 0.64810 -0.20328
 C304 C -0.00935 0.67315 -0.21981
 C305 C -0.08034 0.68587 -0.21285
 C306 C -0.12416 0.67376 -0.18846
 O307 O -0.13326 0.63490 -0.14976
 C308 C -0.08721 0.61267 -0.14283
 C309 C -0.02295 0.61249 -0.16065
 C310 C 0.03169 0.59042 -0.15765
 C311 C 0.01977 0.56790 -0.13528
 C312 C -0.04564 0.56798 -0.11631
 C313 C -0.09981 0.59076 -0.12033
 H314 H 0.07008 0.63797 -0.20879
 H315 H 0.02499 0.68211 -0.23837
 H316 H -0.17851 0.68284 -0.18240
 H317 H 0.08181 0.59060 -0.17189
 H318 H 0.06239 0.55092 -0.13220
 H319 H -0.15059 0.59130 -0.10649
 C320 C 0.27887 1.15479 0.35402
 C321 C 0.21288 1.14067 0.36257
 C322 C 0.14603 1.14833 0.35021
 C323 C 0.14745 1.17146 0.32818
 C324 C 0.21512 1.18622 0.31893
 C325 C 0.28162 1.17760 0.33218
 O326 O 0.33618 1.14435 0.36841
 C327 C 0.30588 1.12311 0.38646
 C328 C 0.23062 1.11984 0.38377
 C329 C 0.18832 1.09852 0.40046
 C330 C 0.22523 1.07985 0.42063
 C331 C 0.30284 1.08297 0.42382
 C332 C 0.34345 1.10501 0.40642
 H333 H 0.09469 1.13694 0.35728
 H334 H 0.09602 1.17774 0.31829
 H335 H 0.33423 1.18836 0.32577
 H336 H 0.12918 1.09627 0.39797
 H337 H 0.19338 1.06319 0.43395
 H338 H 0.40285 1.10764 0.40799
 C339 C 1.19457 -0.15300 -0.14157
 C340 C 1.26030 -0.13734 -0.13863
 C341 C 1.32329 -0.14320 -0.15679
 C342 C 1.31819 -0.16613 -0.17882
 C343 C 1.25059 -0.18234 -0.18239
 C344 C 1.18801 -0.17551 -0.16341
 O345 O 1.14134 -0.14422 -0.12210
 C346 C 1.17401 -0.12248 -0.10653
 C347 C 1.24669 -0.11720 -0.11577
 C348 C 1.29047 -0.09484 -0.10276
 C349 C 1.25771 -0.07716 -0.07943
 C350 C 1.18288 -0.08239 -0.06950
 C351 C 1.14088 -0.10557 -0.08323
 H352 H 1.37448 -0.13062 -0.15407
 H353 H 1.36655 -0.17101 -0.19321
 H354 H 1.13559 -0.18742 -0.16545
 H355 H 1.34748 -0.09099 -0.11045
 H356 H 1.29054 -0.05955 -0.06901
 H357 H 1.08341 -0.10986 -0.07644
 C358 C 0.68174 0.35730 0.33925
 C359 C 0.74971 0.36554 0.34956
 C360 C 0.81557 0.35235 0.33861
 C361 C 0.81102 0.32968 0.31626
 C362 C 0.74132 0.32054 0.30552
 C363 C 0.67591 0.33480 0.31723
 O364 O 0.62573 0.37228 0.35268
 C365 C 0.65892 0.39034 0.37198
 C366 C 0.73474 0.38709 0.37110
 C367 C 0.77991 0.40334 0.39009
 C368 C 0.74546 0.42367 0.41081
 C369 C 0.66733 0.42749 0.41200
 C370 C 0.62371 0.41057 0.39214
 H371 H 0.86849 0.35911 0.34708
 H372 H 0.86164 0.31899 0.30766
 H373 H 0.62180 0.32845 0.30963
 H374 H 0.83943 0.40033 0.38914
 H375 H 0.77955 0.43656 0.42578
 H376 H 0.56390 0.41257 0.39284
 C377 C 0.86329 -0.15541 -0.16100
 C378 C 0.93132 -0.14139 -0.16557
 C379 C 0.98074 -0.14909 -0.18899
 C380 C 0.95909 -0.17201 -0.20884
 C381 C 0.88864 -0.18694 -0.20517
 C382 C 0.84027 -0.17846 -0.18056
 O383 O 0.82491 -0.14429 -0.13728
 C384 C 0.86978 -0.12275 -0.12687
 C385 C 0.93540 -0.12010 -0.14355
 C386 C 0.99000 -0.09872 -0.13728
 C387 C 0.97660 -0.07917 -0.11276
 C388 C 0.90968 -0.08134 -0.09486
 C389 C 0.85554 -0.10366 -0.10200
 H390 H 1.03411 -0.13773 -0.19198
 H391 H 0.99769 -0.17791 -0.22719
 H392 H 0.78631 -0.18917 -0.17687
 H393 H 1.04120 -0.09716 -0.15079
 H394 H 1.01924 -0.06271 -0.10733
 H395 H 0.80390 -0.10581 -0.08885
 C396 C 0.26951 0.34635 0.35664
 C397 C 0.20184 0.35870 0.36515
 C398 C 0.13634 0.34981 0.35229
 C399 C 0.14083 0.32726 0.32976
 C400 C 0.21015 0.31422 0.32050
 C401 C 0.27533 0.32403 0.33427
 O402 O 0.32511 0.35802 0.37151
 C403 C 0.29186 0.37822 0.38978
 C404 C 0.21646 0.37960 0.38678
 C405 C 0.17117 0.39963 0.40345
 C406 C 0.20510 0.41912 0.42394
 C407 C 0.28282 0.41808 0.42743
 C408 C 0.32657 0.39717 0.41010
 H409 H 0.08369 0.35989 0.35930
 H410 H 0.09035 0.32011 0.31948
 H411 H 0.32910 0.31461 0.32782
 H412 H 0.11197 0.40037 0.40066
 H413 H 0.17094 0.43489 0.43718
 H414 H 0.38614 0.39619 0.41189
 C415 C 0.19877 0.65542 -0.14842
 C416 C 0.26696 0.64199 -0.14590
 C417 C 0.32958 0.65137 -0.16272
 C418 C 0.32172 0.67559 -0.18302
 C419 C 0.25158 0.68963 -0.18659
 C420 C 0.18919 0.67915 -0.16886
 O421 O 0.14656 0.64319 -0.13015
 C422 C 0.18260 0.62147 -0.11595
 C423 C 0.25630 0.61963 -0.12495
 C424 C 0.30367 0.59769 -0.11385
 C425 C 0.27358 0.57660 -0.09278
 C426 C 0.19798 0.57828 -0.08298
 C427 C 0.15209 0.60126 -0.09449
 H428 H 0.38271 0.64048 -0.16026
 H429 H 0.37038 0.68301 -0.19622
 H430 H 0.13484 0.68920 -0.17072
 H431 H 0.36131 0.59652 -0.12153
 H432 H 0.30884 0.55894 -0.08411
 H433 H 0.09388 0.60266 -0.08766
 C434 C 0.69035 1.15644 0.34437
 C435 C 0.75973 1.14878 0.35333
 C436 C 0.82414 1.16225 0.34104
 C437 C 0.81683 1.18444 0.31854
 C438 C 0.74568 1.19312 0.30896
 C439 C 0.68156 1.17881 0.32240
 O440 O 0.63636 1.14046 0.35843
 C441 C 0.67247 1.12241 0.37672
 C442 C 0.74805 1.12672 0.37464
 C443 C 0.79629 1.11049 0.39216
 C444 C 0.76527 1.08895 0.41265
 C445 C 0.68755 1.08381 0.41490
 C446 C 0.64062 1.10081 0.39658
 H447 H 0.87822 1.15574 0.34834
 H448 H 0.86690 1.19489 0.30876
 H449 H 0.62635 1.18447 0.31572
 H450 H 0.85558 1.11437 0.39022
 H451 H 0.80163 1.07604 0.42655
 H452 H 0.58101 1.09763 0.39811
 C453 C 0.17286 0.35024 0.16065
 C454 C 0.24138 0.36189 0.15179
 C455 C 0.30669 0.35189 0.16378
 C456 C 0.30119 0.32890 0.18582
 C457 C 0.23114 0.31637 0.19539
 C458 C 0.16604 0.32740 0.18258
 O459 O 0.11793 0.36242 0.14591
 C460 C 0.15261 0.38217 0.12732
 C461 C 0.22819 0.38271 0.13004
 C462 C 0.27549 0.40109 0.11222
 C463 C 0.24366 0.41947 0.09048
 C464 C 0.16587 0.41915 0.08700
 C465 C 0.11971 0.40041 0.10598
 H466 H 0.36003 0.36130 0.15631
 H467 H 0.35165 0.32082 0.19531
 H468 H 0.11179 0.31831 0.18921
 H469 H 0.33482 0.40104 0.11473
 H470 H 0.27957 0.43389 0.07629
 H471 H 0.06035 0.39932 0.10354
 C472 C 0.73310 0.85221 0.64993
 C473 C 0.66104 0.85880 0.65883
 C474 C 0.62359 0.84410 0.68260
 C475 C 0.66187 0.82161 0.69798
 C476 C 0.73657 0.81419 0.68957
 C477 C 0.77272 0.82986 0.66509
 O478 O 0.75771 0.86897 0.62655
 C479 C 0.69984 0.88648 0.62074
 C480 C 0.63952 0.88109 0.63996
 C481 C 0.57305 0.89674 0.63824
 C482 C 0.56842 0.91903 0.61580
 C483 C 0.62961 0.92525 0.59554
 C484 C 0.69626 0.90850 0.59796
 H485 H 0.56681 0.84973 0.68910
 H486 H 0.63301 0.81008 0.71661
 H487 H 0.82948 0.82478 0.65803
 H488 H 0.52629 0.89191 0.65359
 H489 H 0.51661 0.93114 0.61390
 H490 H 0.74377 0.91270 0.58282
 C491 C 0.76331 0.14530 0.15725
 C492 C 0.69527 0.13915 0.14582
 C493 C 0.63188 0.15554 0.15434
 C494 C 0.63900 0.17921 0.17547
 C495 C 0.70885 0.18621 0.18736
 C496 C 0.77181 0.16888 0.17801
 O497 O 0.81661 0.12713 0.14626
 C498 C 0.78158 0.10917 0.12741
 C499 C 0.70730 0.11561 0.12615
 C500 C 0.66085 0.10002 0.10715
 C501 C 0.69244 0.07694 0.08865
 C502 C 0.76878 0.06977 0.08984
 C503 C 0.81372 0.08614 0.10960
 H504 H 0.57888 0.15032 0.14507
 H505 H 0.59022 0.19224 0.18231
 H506 H 0.82582 0.17350 0.18668
 H507 H 0.60266 0.10562 0.10636
 H508 H 0.65765 0.06461 0.07352
 H509 H 0.87249 0.08159 0.11053
 C510 C 0.26942 0.65993 0.65302
 C511 C 0.20180 0.64638 0.64845
 C512 C 0.13745 0.65457 0.66481
 C513 C 0.14331 0.67754 0.68678
 C514 C 0.21283 0.69163 0.69200
 C515 C 0.27654 0.68261 0.67468
 O516 O 0.32402 0.64881 0.63548
 C517 C 0.29036 0.62770 0.61947
 C518 C 0.21559 0.62515 0.62650
 C519 C 0.17042 0.60378 0.61279
 C520 C 0.20386 0.58425 0.59107
 C521 C 0.28093 0.58661 0.58346
 C522 C 0.32444 0.60879 0.59789
 H523 H 0.08476 0.64360 0.66090
 H524 H 0.09393 0.68412 0.69984
 H525 H 0.33043 0.69280 0.67802
 H526 H 0.11176 0.60204 0.61874
 H527 H 0.16985 0.56743 0.58012
 H528 H 0.38357 0.61078 0.59300
   
