data_POSCAR
  _audit_creation_date              2014-09-24
  _audit_creation_method            'ToBaCCo'
  _symmetry_space_group_name_H-M    'P1'
  _symmetry_Int_Tables_number       1
  _symmetry_cell_setting            triclinic
  loop_
  _symmetry_equiv_pos_as_xyz
 x,y,z
_cell_length_a 28.0433
_cell_length_b 17.1450
_cell_length_c 17.1116
_cell_angle_alpha 89.822700
_cell_angle_beta 90.131300
_cell_angle_gamma 89.885300
loop_
  _atom_site_label
  _atom_site_type_symbol
  _atom_site_fract_x
  _atom_site_fract_y
  _atom_site_fract_z
O1 O 0.06877 0.12979 0.14337
 O2 O 0.11962 0.05900 0.06641
 C3 C 0.11126 0.10861 0.12171
 O4 O -0.06739 -0.14521 0.13580
 O5 O -0.11921 -0.06814 0.06613
 C6 C -0.11020 -0.12350 0.11567
 O7 O 0.06759 -0.14040 0.14049
 O8 O 0.11878 -0.07058 0.06357
 C9 C 0.11045 -0.12104 0.11849
 O10 O -0.06536 0.14097 0.13730
 O11 O -0.11864 0.06724 0.06773
 C12 C -0.10854 0.12135 0.11791
 Zr13 Zr 0.00105 0.09582 0.09946
 O14 O -0.00281 0.09846 0.22292
 O15 O 0.00437 0.21878 0.09264
 Zr16 Zr -0.00009 -0.10170 0.09871
 O17 O -0.00447 -0.10127 0.22222
 O18 O 0.00460 -0.22494 0.09888
 O19 O 0.04303 -0.00390 0.11361
 O20 O -0.04079 -0.00226 0.11418
 O21 O -0.06793 0.14433 -0.13187
 O22 O -0.11958 0.06845 -0.06117
 C23 C -0.11065 0.12386 -0.11066
 O24 O 0.06461 -0.13656 -0.14490
 O25 O 0.11782 -0.06766 -0.07047
 C26 C 0.10775 -0.11715 -0.12517
 O27 O -0.06923 -0.14273 -0.13378
 O28 O -0.12067 -0.06737 -0.06245
 C29 C -0.11188 -0.12196 -0.11277
 O30 O 0.06641 0.13381 -0.14322
 O31 O 0.11832 0.06073 -0.06954
 C32 C 0.10923 0.11184 -0.12354
 Zr33 Zr -0.00069 0.09763 -0.09820
 O34 O -0.00732 0.09761 -0.22148
 O35 O 0.00454 0.22071 -0.09788
 Zr36 Zr -0.00182 -0.09951 -0.09926
 O37 O -0.00865 -0.09725 -0.22249
 O38 O 0.00314 -0.22270 -0.10138
 Zr39 Zr 0.07020 -0.00331 -0.00111
 Zr40 Zr -0.07105 -0.00078 0.00160
 O41 O -0.04287 -0.00008 -0.11220
 O42 O 0.04107 -0.00161 -0.11479
 O43 O -0.04215 0.11248 0.00170
 O44 O 0.04021 -0.11569 -0.00127
 O45 O 0.04178 0.11021 0.00004
 O46 O -0.04338 -0.11519 0.00041
 H47 H -0.06214 -0.00219 0.16024
 H48 H 0.06156 -0.16179 -0.00226
 H49 H -0.06517 0.00074 -0.15719
 H50 H 0.06389 0.15523 0.00002
 H51 H -0.02183 -0.24474 0.06619
 H52 H -0.02223 -0.24332 -0.06705
 H53 H 0.01832 -0.06657 -0.24339
 H54 H 0.01968 0.06714 -0.24262
 H55 H -0.01615 0.23980 -0.05521
 H56 H 0.00485 0.23763 0.14732
 H57 H 0.02072 0.06027 0.24296
 H58 H 0.02377 -0.07315 0.24226
 O59 O 0.56454 0.63549 0.64311
 O60 O 0.61736 0.56577 0.56863
 C61 C 0.60765 0.61542 0.62328
 O62 O 0.43210 0.35746 0.63481
 O63 O 0.37960 0.43015 0.56190
 C64 C 0.38916 0.37650 0.61323
 O65 O 0.56595 0.36789 0.64542
 O66 O 0.61847 0.43766 0.57036
 C67 C 0.60889 0.38829 0.62566
 O68 O 0.43045 0.64236 0.63235
 O69 O 0.37951 0.56609 0.56097
 C70 C 0.38794 0.62096 0.61102
 Zr71 Zr 0.49780 0.59994 0.59560
 O72 O 0.49571 0.61248 0.71846
 O73 O 0.49900 0.72232 0.58097
 Zr74 Zr 0.49896 0.40242 0.59926
 O75 O 0.49310 0.40417 0.72258
 O76 O 0.50533 0.27937 0.60188
 O77 O 0.54049 0.50190 0.61393
 O78 O 0.45683 0.50058 0.61094
 O79 O 0.43172 0.63934 0.36057
 O80 O 0.37940 0.56405 0.43052
 C81 C 0.38879 0.61833 0.37989
 O82 O 0.56856 0.36363 0.35983
 O83 O 0.61940 0.43636 0.43505
 C84 C 0.61108 0.38529 0.38106
 O85 O 0.43424 0.35360 0.36497
 O86 O 0.38072 0.42868 0.43266
 C87 C 0.39101 0.37352 0.38380
 O88 O 0.56541 0.63399 0.35444
 O89 O 0.61770 0.56610 0.43205
 C90 C 0.60829 0.61497 0.37612
 Zr91 Zr 0.49889 0.59676 0.39877
 O92 O 0.49416 0.59571 0.27529
 O93 O 0.50276 0.72006 0.39822
 Zr94 Zr 0.50071 0.39955 0.40178
 O95 O 0.49601 0.39848 0.27827
 O96 O 0.50723 0.27653 0.40333
 Zr97 Zr 0.56990 0.50052 0.50059
 Zr98 Zr 0.42814 0.49805 0.49731
 O99 O 0.45845 0.49717 0.38494
 O100 O 0.54237 0.49875 0.38588
 O101 O 0.45552 0.61247 0.49612
 O102 O 0.54132 0.38722 0.50183
 O103 O 0.54004 0.61312 0.49796
 O104 O 0.45751 0.38477 0.49977
 H105 H 0.43475 0.50037 0.65604
 H106 H 0.56335 0.34198 0.50308
 H107 H 0.43705 0.49625 0.33880
 H108 H 0.56166 0.65877 0.49790
 H109 H 0.47942 0.25789 0.56912
 H110 H 0.48097 0.25586 0.43578
 H111 H 0.52315 0.42903 0.25779
 H112 H 0.52019 0.56207 0.25578
 H113 H 0.47791 0.73946 0.43428
 H114 H 0.49981 0.74451 0.63434
 H115 H 0.48742 0.56098 0.74048
 H116 H 0.51922 0.43727 0.74279
 C117 C 0.23342 0.21223 0.23413
 C118 C 0.18673 0.23562 0.25509
 C119 C 0.14700 0.20117 0.21897
 C120 C 0.15295 0.14353 0.16165
 C121 C 0.19930 0.11993 0.14176
 C122 C 0.23895 0.15358 0.17737
 C123 C 0.27490 0.25156 0.27278
 C124 C 0.32268 0.23318 0.25520
 C125 C 0.36008 0.27245 0.29161
 C126 C 0.35103 0.33111 0.34661
 C127 C 0.30352 0.34931 0.36521
 C128 C 0.26559 0.31025 0.32875
 C129 C 0.17995 0.29360 0.31151
 C130 C 0.21852 0.33006 0.34758
 H131 H 0.14423 0.31140 0.32777
 H132 H 0.21136 0.37485 0.39059
 H133 H 0.11142 0.21993 0.23510
 H134 H 0.20517 0.07534 0.09809
 H135 H 0.39628 0.25689 0.27611
 H136 H 0.29589 0.39433 0.40779
 H137 H 0.27349 0.13294 0.15917
 H138 H 0.33211 0.18902 0.21328
 C139 C 0.76744 0.76430 0.21871
 C140 C 0.81397 0.74468 0.24455
 C141 C 0.85394 0.78071 0.21054
 C142 C 0.84824 0.83659 0.15103
 C143 C 0.80200 0.85511 0.12523
 C144 C 0.76225 0.81963 0.15833
 C145 C 0.72568 0.72574 0.25724
 C146 C 0.67809 0.74211 0.23619
 C147 C 0.64036 0.70580 0.27457
 C148 C 0.64882 0.65205 0.33500
 C149 C 0.69618 0.63468 0.35599
 C150 C 0.73449 0.67113 0.31779
 C151 C 0.82028 0.68965 0.30440
 C152 C 0.78141 0.65364 0.34018
 H153 H 0.85585 0.67438 0.32417
 H154 H 0.78822 0.61171 0.38643
 H155 H 0.88942 0.76569 0.23099
 H156 H 0.79626 0.89751 0.07907
 H157 H 0.60432 0.72035 0.25681
 H158 H 0.70336 0.59312 0.40245
 H159 H 0.72788 0.83679 0.13576
 H160 H 0.66900 0.78298 0.19055
 C161 C 0.76742 0.23956 0.78724
 C162 C 0.81397 0.25752 0.76092
 C163 C 0.85375 0.22056 0.79495
 C164 C 0.84789 0.16530 0.85491
 C165 C 0.80169 0.14863 0.88146
 C166 C 0.76206 0.18513 0.84837
 C167 C 0.72582 0.27858 0.74813
 C168 C 0.67818 0.26349 0.76922
 C169 C 0.64059 0.29964 0.72983
 C170 C 0.64927 0.35202 0.66837
 C171 C 0.69667 0.36839 0.64757
 C172 C 0.73483 0.33199 0.68670
 C173 C 0.82049 0.31163 0.70039
 C174 C 0.78179 0.34811 0.66413
 H175 H 0.85609 0.32566 0.68033
 H176 H 0.78874 0.38915 0.61724
 H177 H 0.88922 0.23419 0.77392
 H178 H 0.79589 0.10677 0.92802
 H179 H 0.60450 0.28599 0.74753
 H180 H 0.70399 0.40883 0.60027
 H181 H 0.72767 0.16934 0.87141
 H182 H 0.66896 0.22362 0.81555
 C183 C 0.22414 0.77147 0.75395
 C184 C 0.23334 0.82661 0.81348
 C185 C 0.19533 0.86321 0.85220
 C186 C 0.14785 0.84556 0.83281
 C187 C 0.13892 0.79132 0.77337
 C188 C 0.17640 0.75480 0.73443
 C189 C 0.26568 0.73275 0.71489
 C190 C 0.26023 0.67679 0.65546
 C191 C 0.29992 0.64129 0.62188
 C192 C 0.34624 0.66049 0.64634
 C193 C 0.35211 0.71688 0.70490
 C194 C 0.31232 0.75289 0.73929
 C195 C 0.28037 0.84452 0.83441
 C196 C 0.31900 0.80844 0.79815
 H197 H 0.28744 0.88686 0.87988
 H198 H 0.35468 0.82405 0.81677
 H199 H 0.20286 0.90511 0.89792
 H200 H 0.10274 0.77657 0.75688
 H201 H 0.29411 0.59833 0.57657
 H202 H 0.38765 0.73244 0.72435
 H203 H 0.16704 0.71354 0.68959
 H204 H 0.22573 0.65918 0.63407
 C205 C 0.23100 0.21607 0.76296
 C206 C 0.18428 0.24069 0.74307
 C207 C 0.14456 0.20627 0.77953
 C208 C 0.15064 0.14733 0.83597
 C209 C 0.19706 0.12249 0.85451
 C210 C 0.23660 0.15613 0.81870
 C211 C 0.27248 0.25537 0.72421
 C212 C 0.32024 0.23605 0.74132
 C213 C 0.35768 0.27515 0.70493
 C214 C 0.34880 0.33463 0.65027
 C215 C 0.30128 0.35390 0.63214
 C216 C 0.26323 0.31502 0.66880
 C217 C 0.17753 0.29974 0.68729
 C218 C 0.21612 0.33595 0.65085
 H219 H 0.14182 0.31851 0.67173
 H220 H 0.20895 0.38149 0.60832
 H221 H 0.10895 0.22591 0.76431
 H222 H 0.20312 0.07684 0.89732
 H223 H 0.39384 0.25865 0.72012
 H224 H 0.29376 0.39967 0.58998
 H225 H 0.27114 0.13432 0.83590
 H226 H 0.32966 0.19129 0.78294
 C227 C 0.77067 0.75801 0.77721
 C228 C 0.76170 0.82006 0.82958
 C229 C 0.79995 0.85873 0.86609
 C230 C 0.84735 0.83677 0.85068
 C231 C 0.85586 0.77490 0.79905
 C232 C 0.81827 0.73606 0.76293
 C233 C 0.72911 0.71899 0.73842
 C234 C 0.73457 0.65694 0.68548
 C235 C 0.69509 0.62365 0.64928
 C236 C 0.64879 0.65083 0.66464
 C237 C 0.64276 0.71183 0.71844
 C238 C 0.68252 0.74608 0.75520
 C239 C 0.71470 0.84351 0.84455
 C240 C 0.67600 0.80744 0.80809
 H241 H 0.70770 0.89092 0.88471
 H242 H 0.64039 0.82819 0.82128
 H243 H 0.79274 0.90639 0.90588
 H244 H 0.89189 0.75621 0.78604
 H245 H 0.70111 0.57627 0.60872
 H246 H 0.60724 0.73335 0.73108
 H247 H 0.82751 0.68937 0.72375
 H248 H 0.76897 0.63315 0.67070
 C249 C 0.22973 0.77452 0.22569
 C250 C 0.18313 0.75354 0.24918
 C251 C 0.14313 0.78866 0.21352
 C252 C 0.14860 0.84488 0.15373
 C253 C 0.19538 0.86502 0.13110
 C254 C 0.23504 0.83067 0.16629
 C255 C 0.27146 0.73571 0.26488
 C256 C 0.31913 0.75306 0.24574
 C257 C 0.35679 0.71509 0.28330
 C258 C 0.34822 0.65863 0.34109
 C259 C 0.30079 0.64115 0.36100
 C260 C 0.26253 0.67920 0.32348
 C261 C 0.17672 0.69742 0.30797
 C262 C 0.21552 0.66101 0.34419
 H263 H 0.14110 0.68116 0.32617
 H264 H 0.20858 0.61785 0.38915
 H265 H 0.10778 0.77160 0.23257
 H266 H 0.20192 0.90781 0.08562
 H267 H 0.39286 0.73007 0.26659
 H268 H 0.29351 0.59786 0.40571
 H269 H 0.26952 0.84906 0.14567
 H270 H 0.32834 0.79567 0.20192
 C271 C 0.77507 0.24127 0.23112
 C272 C 0.76581 0.18314 0.17453
 C273 C 0.80380 0.14463 0.13748
 C274 C 0.85134 0.16289 0.15601
 C275 C 0.86030 0.22089 0.21180
 C276 C 0.82285 0.25956 0.24882
 C277 C 0.73352 0.28032 0.27005
 C278 C 0.73897 0.33857 0.32725
 C279 C 0.69926 0.37241 0.36258
 C280 C 0.65288 0.34938 0.34204
 C281 C 0.64703 0.29182 0.28457
 C282 C 0.68684 0.25725 0.24865
 C283 C 0.71874 0.16345 0.15554
 C284 C 0.68014 0.19964 0.19181
 H285 H 0.71161 0.11905 0.11212
 H286 H 0.64443 0.18202 0.17523
 H287 H 0.79620 0.10007 0.09440
 H288 H 0.89650 0.23648 0.22736
 H289 H 0.70510 0.41683 0.40644
 H290 H 0.61147 0.27346 0.26790
 H291 H 0.83225 0.30327 0.29125
 H292 H 0.77351 0.35887 0.34589
   
