data_POSCAR
  _audit_creation_date              2014-09-24
  _audit_creation_method            'ToBaCCo'
  _symmetry_space_group_name_H-M    'P1'
  _symmetry_Int_Tables_number       1
  _symmetry_cell_setting            triclinic
  loop_
  _symmetry_equiv_pos_as_xyz
 x,y,z
_cell_length_a 42.4551
_cell_length_b 43.1426
_cell_length_c 42.7150
_cell_angle_alpha 90.154200
_cell_angle_beta 89.705500
_cell_angle_gamma 90.569900
loop_
  _atom_site_label
  _atom_site_type_symbol
  _atom_site_fract_x
  _atom_site_fract_y
  _atom_site_fract_z
N1 N 0.15820 0.18703 0.24187
 N2 N 0.18437 0.17311 0.24967
 C3 C 0.18047 0.15947 0.27770
 C4 C 0.14985 0.16462 0.28806
 C5 C 0.13644 0.18222 0.26443
 H6 H 0.19829 0.14572 0.28890
 H7 H 0.11270 0.19099 0.26349
 Cu8 Cu 0.22004 0.17171 0.22112
 Cu9 Cu 0.15445 0.20940 0.20239
 Cu10 Cu 0.22563 0.22496 0.16472
 N11 N 0.25020 0.16752 0.18701
 N12 N 0.25362 0.18934 0.16586
 C13 C 0.27706 0.18158 0.14609
 C14 C 0.28858 0.15283 0.15488
 C15 C 0.27078 0.14472 0.18107
 H16 H 0.28417 0.19542 0.12617
 H17 H 0.27283 0.12412 0.19522
 N18 N 0.18702 0.24836 0.15657
 N19 N 0.15964 0.24139 0.16969
 C20 C 0.13752 0.26022 0.15804
 C21 C 0.15164 0.28002 0.13654
 C22 C 0.18310 0.27184 0.13631
 H23 H 0.11304 0.25990 0.16515
 H24 H 0.20166 0.28164 0.12189
 H25 H 0.19253 0.19320 0.17631
 H26 H 0.20003 0.22284 0.20730
 N27 N -0.17282 0.78340 0.28173
 N28 N -0.19048 0.80809 0.27932
 C29 C -0.18483 0.82693 0.30385
 C30 C -0.16213 0.81346 0.32253
 C31 C -0.15515 0.78574 0.30768
 H32 H -0.19504 0.84961 0.30678
 H33 H -0.13762 0.76906 0.31438
 Cu34 Cu -0.21572 0.81492 0.24216
 Cu35 Cu -0.17107 0.75229 0.24881
 Cu36 Cu -0.23512 0.75306 0.19838
 N37 N -0.24351 0.81858 0.20640
 N38 N -0.25226 0.79415 0.19007
 C39 C -0.27315 0.80291 0.16823
 C40 C -0.27724 0.83482 0.17054
 C41 C -0.25784 0.84381 0.19509
 H42 H -0.28390 0.78720 0.15157
 H43 H -0.25501 0.86681 0.20478
 N44 N -0.20582 0.71775 0.20158
 N45 N -0.18146 0.71778 0.22063
 C46 C -0.16436 0.69222 0.21545
 C47 C -0.17822 0.67526 0.19161
 C48 C -0.20459 0.69217 0.18342
 H49 H -0.14227 0.68743 0.22683
 H50 H -0.22076 0.68716 0.16457
 H51 H -0.19360 0.77332 0.21062
 H52 H -0.21784 0.75839 0.24400
 N53 N -0.18959 0.21950 -0.28092
 N54 N -0.21050 0.19688 -0.28170
 C55 C -0.20309 0.17734 -0.30515
 C56 C -0.17595 0.18825 -0.31977
 C57 C -0.16813 0.21513 -0.30375
 H58 H -0.21563 0.15599 -0.31019
 H59 H -0.14791 0.23002 -0.30786
 Cu60 Cu -0.24406 0.19341 -0.25060
 Cu61 Cu -0.19051 0.25115 -0.24873
 Cu62 Cu -0.24788 0.24596 -0.19148
 N63 N -0.27208 0.18787 -0.21485
 N64 N -0.27395 0.20835 -0.19212
 C65 C -0.29485 0.19810 -0.17057
 C66 C -0.30672 0.16943 -0.18017
 C67 C -0.29156 0.16389 -0.20852
 H68 H -0.30040 0.21047 -0.14925
 H69 H -0.29399 0.14374 -0.22340
 N70 N -0.21874 0.28188 -0.19533
 N71 N -0.19728 0.28395 -0.21770
 C72 C -0.18021 0.31004 -0.21362
 C73 C -0.19099 0.32507 -0.18712
 C74 C -0.21549 0.30653 -0.17607
 H75 H -0.16011 0.31670 -0.22778
 H76 H -0.22922 0.31020 -0.15502
 H77 H -0.21259 0.22353 -0.21405
 H78 H -0.23868 0.24833 -0.23865
 N79 N 0.17871 0.79872 -0.26806
 N80 N 0.19879 0.82207 -0.26714
 C81 C 0.19190 0.84209 -0.29017
 C82 C 0.16630 0.83052 -0.30653
 C83 C 0.15864 0.80284 -0.29199
 H84 H 0.20372 0.86407 -0.29402
 H85 H 0.13847 0.78815 -0.29690
 Cu86 Cu 0.23016 0.82529 -0.23428
 Cu87 Cu 0.17651 0.76796 -0.23481
 Cu88 Cu 0.23184 0.77406 -0.17529
 N89 N 0.26160 0.82833 -0.20150
 N90 N 0.26241 0.80811 -0.17859
 C91 C 0.28571 0.81610 -0.15876
 C92 C 0.30035 0.84299 -0.16974
 C93 C 0.28428 0.84987 -0.19706
 H94 H 0.29097 0.80352 -0.13761
 H95 H 0.28833 0.86932 -0.21244
 N96 N 0.19882 0.74140 -0.17637
 N97 N 0.17788 0.73931 -0.19906
 C98 C 0.15637 0.71744 -0.19156
 C99 C 0.16403 0.70507 -0.16284
 C100 C 0.19126 0.72057 -0.15397
 H101 H 0.13573 0.71191 -0.20526
 H102 H 0.20326 0.71836 -0.13184
 H103 H 0.19603 0.79521 -0.19957
 H104 H 0.22359 0.77042 -0.22249
 N105 N 0.21210 1.16997 0.75289
 N106 N 0.18715 1.18774 0.75349
 C107 C 0.16806 1.17981 0.72966
 C108 C 0.18174 1.15567 0.71308
 C109 C 0.20982 1.15016 0.72855
 H110 H 0.14556 1.19042 0.72526
 H111 H 0.22721 1.13287 0.72287
 Cu112 Cu 0.18171 1.21935 0.78567
 Cu113 Cu 0.24508 1.17384 0.78447
 Cu114 Cu 0.21585 1.20333 0.85426
 N115 N 0.17321 1.24392 0.82297
 N116 N 0.18572 1.23673 0.85004
 C117 C 0.17471 1.25601 0.87226
 C118 C 0.15461 1.27680 0.85825
 C119 C 0.15424 1.26846 0.82690
 H120 H 0.18144 1.25538 0.89664
 H121 H 0.14071 1.27908 0.80849
 N122 N 0.25514 1.17951 0.85138
 N123 N 0.26703 1.16946 0.82467
 C124 C 0.29478 1.15574 0.83028
 C125 C 0.30067 1.15723 0.86216
 C126 C 0.27496 1.17248 0.87473
 H127 H 0.30925 1.14497 0.81251
 H128 H 0.27121 1.17863 0.89900
 H129 H 0.20814 1.17770 0.81344
 H130 H 0.23289 1.21360 0.81071
 N131 N 0.80996 0.82411 0.74995
 N132 N 0.82513 0.79897 0.74164
 C133 C 0.84721 0.80647 0.72015
 C134 C 0.84594 0.83811 0.71487
 C135 C 0.82200 0.84851 0.73423
 H136 H 0.86323 0.79017 0.70950
 H137 H 0.81363 0.87201 0.73641
 Cu138 Cu 0.81510 0.75896 0.76010
 Cu139 Cu 0.77578 0.82334 0.78046
 Cu140 Cu 0.76611 0.75548 0.82240
 N141 N 0.81312 0.72282 0.78708
 N142 N 0.79397 0.72159 0.81131
 C143 C 0.79863 0.69497 0.82683
 C144 C 0.82217 0.67859 0.81168
 C145 C 0.83078 0.69707 0.78647
 H146 H 0.78687 0.68883 0.84847
 H147 H 0.84924 0.69275 0.76954
 N148 N 0.74010 0.79237 0.82967
 N149 N 0.74284 0.81772 0.81259
 C150 C 0.72116 0.83827 0.82214
 C151 C 0.70435 0.82543 0.84673
 C152 C 0.71702 0.79639 0.85103
 H153 H 0.71832 0.86124 0.81258
 H154 H 0.70967 0.77940 0.86821
 H155 H 0.79734 0.78837 0.80521
 H156 H 0.76401 0.77653 0.77904
 N157 N 0.20438 0.83419 1.24581
 N158 N 0.17703 0.82144 1.23901
 C159 C 0.15552 0.83062 1.26023
 C160 C 0.17008 0.85042 1.28149
 C161 C 0.20120 0.85201 1.27155
 H162 H 0.13103 0.82358 1.25989
 H163 H 0.22000 0.86578 1.28166
 Cu164 Cu 0.17139 0.79533 1.20217
 Cu165 Cu 0.24106 0.82858 1.21904
 Cu166 Cu 0.23611 0.76864 1.16522
 N167 N 0.16936 0.76065 1.17305
 N168 N 0.19483 0.74952 1.15970
 C169 C 0.18667 0.72574 1.14088
 C170 C 0.15430 0.72183 1.14232
 C171 C 0.14409 0.74443 1.16302
 H172 H 0.20297 0.71294 1.12636
 H173 H 0.12010 0.74870 1.17033
 N174 N 0.27557 0.79144 1.17385
 N175 N 0.27744 0.81423 1.19444
 C176 C 0.30620 0.82747 1.19246
 C177 C 0.32317 0.81266 1.16916
 C178 C 0.30300 0.78984 1.15797
 H179 H 0.31334 0.84803 1.20519
 H180 H 0.30727 0.77449 1.13841
 H181 H 0.22106 0.81191 1.17765
 H182 H 0.22662 0.78387 1.21037
 N183 N 0.82275 1.18576 1.25420
 N184 N 0.83494 1.21162 1.26527
 C185 C 0.85588 1.20480 1.28771
 C186 C 0.85701 1.17282 1.29069
 C187 C 0.83566 1.16155 1.26894
 H188 H 0.86946 1.22184 1.30060
 H189 H 0.82934 1.13759 1.26459
 Cu190 Cu 0.82305 1.25147 1.24830
 Cu191 Cu 0.79090 1.18529 1.22171
 Cu192 Cu 0.75958 1.25643 1.20213
 N193 N 0.81623 1.28732 1.22184
 N194 N 0.79118 1.28945 1.20407
 C195 C 0.79337 1.31547 1.18690
 C196 C 0.82158 1.33035 1.19395
 C197 C 0.83535 1.31177 1.21642
 H198 H 0.77660 1.32184 1.16913
 H199 H 0.85820 1.31488 1.22709
 N200 N 0.73924 1.21688 1.19093
 N201 N 0.75144 1.18985 1.19826
 C202 C 0.73217 1.16712 1.18812
 C203 C 0.70682 1.18041 1.17331
 C204 C 0.71211 1.21206 1.17532
 H205 H 0.73632 1.14263 1.19124
 H206 H 0.69717 1.23019 1.16652
 H207 H 0.79766 1.22913 1.20233
 H208 H 0.77258 1.22561 1.23822
 O209 O 0.52659 0.95696 0.96383
 O210 O 0.48348 0.96462 1.07091
 O211 O 0.57792 0.98721 1.03737
 O212 O 0.47041 0.95686 0.97274
 O213 O 0.54260 0.96547 1.06855
 O214 O 0.48457 0.98370 0.93247
 O215 O 0.47292 0.94370 1.02668
 O216 O 0.57039 0.97784 0.98044
 C217 C 0.55586 0.95559 0.96719
 C218 C 0.47468 0.94151 1.05553
 C219 C 0.57046 0.96785 1.05858
 C220 C 0.46509 0.96372 0.94444
 O221 O 0.49090 1.03294 0.96461
 O222 O 0.54216 1.02494 1.07244
 O223 O 0.54991 1.03905 0.97649
 O224 O 0.44805 0.99929 1.04312
 O225 O 0.48355 1.02575 1.06830
 O226 O 0.53942 1.00886 0.94010
 O227 O 0.45000 1.01474 0.98811
 O228 O 0.55729 1.04597 1.02956
 Co229 Co 0.50793 0.99471 0.96610
 Co230 Co 0.51266 0.99531 1.06466
 Co231 Co 0.55984 1.01103 1.00619
 Co232 Co 0.46477 0.98034 1.00809
 O233 O 0.51280 0.99645 1.01335
 C234 C 0.46275 1.03580 0.97215
 C235 C 0.55543 1.04669 1.05843
 C236 C 0.55329 1.03275 0.94843
 C237 C 0.45560 1.02204 1.06016
 O238 O 0.03305 0.47235 0.03521
 O239 O 0.03298 0.52684 -0.04845
 O240 O -0.00106 0.43538 -0.03457
 O241 O 0.00156 0.56554 0.01703
 O242 O 0.03261 0.47128 -0.04316
 O243 O 0.03029 0.53173 0.04203
 O244 O -0.00119 0.56181 -0.04050
 O245 O 0.00015 0.43602 0.02175
 C246 C 0.02709 0.44422 0.03122
 C247 C 0.02636 0.55472 -0.04765
 C248 C 0.02639 0.44324 -0.04203
 C249 C 0.02476 0.55911 0.03418
 O250 O -0.02923 0.52606 0.05879
 O251 O -0.02561 0.46844 -0.06996
 O252 O -0.05910 0.45973 0.02290
 O253 O -0.05932 0.53822 -0.03671
 O254 O -0.02632 0.52430 -0.07270
 O255 O -0.02527 0.46892 0.05835
 O256 O -0.05743 0.54849 0.02248
 O257 O -0.05895 0.46225 -0.03308
 Co258 Co 0.00099 0.49947 0.04321
 Co259 Co 0.00203 0.49776 -0.05426
 Co260 Co -0.02829 0.45253 -0.00590
 Co261 Co -0.02772 0.54823 -0.00947
 O262 O -0.01301 0.49972 -0.00635
 C263 C -0.05269 0.54201 0.05062
 C264 C -0.05316 0.46193 -0.06145
 C265 C -0.05277 0.46150 0.05105
 C266 C -0.05319 0.53404 -0.06493
 O267 O 1.05363 0.03961 0.48171
 O268 O 0.94221 0.03294 0.53309
 O269 O 0.97320 0.01072 0.43895
 O270 O 1.03897 0.04672 0.54022
 O271 O 0.94783 0.03608 0.47506
 O272 O 1.07496 0.01565 0.53091
 O273 O 0.98526 0.05496 0.54644
 O274 O 1.02900 0.02296 0.44132
 C275 C 1.04611 0.04318 0.45390
 C276 C 0.95629 0.05569 0.54425
 C277 C 0.95652 0.03347 0.44724
 C278 C 1.06671 0.03947 0.54472
 O279 O 1.04991 -0.03616 0.51882
 O280 O 0.94269 -0.02435 0.47247
 O281 O 1.04033 -0.03533 0.46316
 O282 O 0.97515 -0.00431 0.56749
 O283 O 0.94508 -0.02615 0.53143
 O284 O 1.08315 -0.01137 0.47559
 O285 O 1.03242 -0.01374 0.56124
 O286 O 0.98623 -0.04663 0.46370
 Co287 Co 1.04970 0.00152 0.49908
 Co288 Co 0.94996 0.00467 0.50280
 Co289 Co 1.00678 -0.01058 0.45589
 Co290 Co 1.00771 0.01955 0.54995
 O291 O 1.00170 0.00509 0.50334
 C292 C 1.04561 -0.03658 0.54796
 C293 C 0.95719 -0.04792 0.46412
 C294 C 1.06902 -0.03045 0.45665
 C295 C 0.95448 -0.02435 0.55929
 C296 C 1.10546 0.12652 0.36791
 C297 C 1.13827 0.12476 0.36468
 C298 C 1.15303 0.13779 0.33854
 C299 C 1.13535 0.15303 0.31551
 C300 C 1.10259 0.15528 0.32042
 N301 N 1.08869 0.14165 0.34571
 C302 C 1.08853 0.10928 0.39281
 N303 N 1.06019 0.09595 0.38600
 C304 C 1.04506 0.07652 0.40619
 C305 C 1.05873 0.06915 0.43506
 C306 C 1.08694 0.08412 0.44343
 C307 C 1.10196 0.10414 0.42233
 H308 H 1.17830 0.13557 0.33651
 H309 H 1.08767 0.16667 0.30366
 H310 H 1.02308 0.06576 0.39908
 H311 H 1.09821 0.07907 0.46550
 H312 H 1.15234 0.11223 0.38140
 H313 H 1.12421 0.11480 0.42874
 C314 C 0.88858 -0.14003 0.39535
 C315 C 0.90002 -0.16816 0.38345
 C316 C 0.88294 -0.18402 0.36049
 C317 C 0.85442 -0.17208 0.34944
 C318 C 0.84295 -0.14490 0.36334
 N319 N 0.86016 -0.12972 0.38536
 C320 C 0.90700 -0.11997 0.41683
 N321 N 0.89170 -0.09694 0.43235
 C322 C 0.90713 -0.07496 0.44931
 C323 C 0.94014 -0.07473 0.45058
 C324 C 0.95644 -0.09887 0.43581
 C325 C 0.94001 -0.12151 0.41891
 H326 H 0.89267 -0.20506 0.35082
 H327 H 0.82073 -0.13518 0.35627
 H328 H 0.89362 -0.05688 0.46054
 H329 H 0.98194 -0.09946 0.43609
 H330 H 0.92202 -0.17776 0.39132
 H331 H 0.95333 -0.13878 0.40631
 C332 C 0.87840 0.14081 0.61086
 C333 C 0.84626 0.13354 0.61462
 C334 C 0.82839 0.14953 0.63671
 C335 C 0.84231 0.17277 0.65515
 C336 C 0.87433 0.17986 0.65020
 N337 N 0.89140 0.16367 0.62879
 C338 C 0.89902 0.12229 0.59014
 N339 N 0.93014 0.11971 0.59733
 C340 C 0.94969 0.10029 0.58150
 C341 C 0.93778 0.08137 0.55749
 C342 C 0.90631 0.08504 0.54851
 C343 C 0.88697 0.10561 0.56454
 H344 H 0.80378 0.14335 0.63959
 H345 H 0.88614 0.19745 0.66401
 H346 H 0.97393 0.09832 0.58891
 H347 H 0.89640 0.07129 0.52965
 H348 H 0.83513 0.11489 0.60169
 H349 H 0.86272 0.10781 0.55728
 C350 C 1.11101 -0.12100 0.62679
 C351 C 1.11331 -0.15334 0.62435
 C352 C 1.13147 -0.16941 0.64612
 C353 C 1.14781 -0.15315 0.66957
 C354 C 1.14525 -0.12082 0.67074
 N355 N 1.12688 -0.10585 0.64990
 C356 C 1.09111 -0.10261 0.60584
 N357 N 1.07629 -0.07754 0.61805
 C358 C 1.05990 -0.05755 0.60013
 C359 C 1.05875 -0.06149 0.56752
 C360 C 1.07321 -0.08764 0.55436
 C361 C 1.08920 -0.10849 0.57354
 H362 H 1.13283 -0.19442 0.64460
 H363 H 1.15707 -0.10747 0.68875
 H364 H 1.04911 -0.03775 0.61133
 H365 H 1.07301 -0.09141 0.52928
 H366 H 1.10060 -0.16605 0.60646
 H367 H 1.10124 -0.12799 0.56309
 C368 C 0.36013 1.10052 1.11185
 C369 C 0.35595 1.13143 1.10299
 C370 C 0.33201 1.14872 1.11692
 C371 C 0.31258 1.13554 1.14027
 C372 C 0.31785 1.10439 1.14844
 N373 N 0.34086 1.08789 1.13399
 C374 C 0.38487 1.08128 1.09756
 N375 N 0.37832 1.05113 1.09041
 C376 C 0.40032 1.03200 1.07783
 C377 C 0.43119 1.04279 1.07271
 C378 C 0.43851 1.07369 1.08017
 C379 C 0.41532 1.09312 1.09227
 H380 H 0.32932 1.17254 1.10966
 H381 H 0.30343 1.09275 1.16579
 H382 H 0.39387 1.00823 1.07253
 H383 H 0.46209 1.08282 1.07647
 H384 H 0.37072 1.14197 1.08514
 H385 H 0.42130 1.11687 1.09818
 C386 C 0.37346 0.89477 0.87297
 C387 C 0.36030 0.90517 0.84487
 C388 C 0.33644 0.88787 0.83058
 C389 C 0.32514 0.86016 0.84415
 C390 C 0.33910 0.85060 0.87231
 N391 N 0.36234 0.86791 0.88575
 C392 C 0.39805 0.91265 0.89001
 N393 N 0.40289 0.90619 0.92079
 C394 C 0.42437 0.92185 0.93840
 C395 C 0.44259 0.94579 0.92515
 C396 C 0.43851 0.95256 0.89338
 C397 C 0.41645 0.93599 0.87568
 H398 H 0.32676 0.89677 0.80909
 H399 H 0.33164 0.82957 0.88397
 H400 H 0.42699 0.91568 0.96279
 H401 H 0.45230 0.97071 0.88222
 H402 H 0.36754 0.92679 0.83420
 H403 H 0.41427 0.94142 0.85112
 C404 C 0.66274 0.89166 1.11789
 C405 C 0.68562 0.90527 1.13714
 C406 C 0.70545 0.88649 1.15458
 C407 C 0.70310 0.85395 1.15254
 C408 C 0.68016 0.84133 1.13232
 N409 N 0.66054 0.86021 1.11620
 C410 C 0.63997 0.91089 1.10086
 N411 N 0.60916 0.90192 1.10001
 C412 C 0.58671 0.91950 1.08629
 C413 C 0.59489 0.94780 1.07207
 C414 C 0.62667 0.95698 1.07179
 C415 C 0.64923 0.93873 1.08640
 H416 H 0.72275 0.89775 1.16933
 H417 H 0.67700 0.81655 1.12994
 H418 H 0.56248 0.91144 1.08664
 H419 H 0.63393 0.97861 1.06100
 H420 H 0.68761 0.93022 1.13940
 H421 H 0.67364 0.94627 1.08638
 C422 C 0.62956 1.11056 0.86830
 C423 C 0.64208 1.10114 0.83936
 C424 C 0.66280 1.12073 0.82317
 C425 C 0.67155 1.14984 0.83561
 C426 C 0.65822 1.15838 0.86461
 N427 N 0.63813 1.13882 0.87991
 C428 C 0.60860 1.09030 0.88750
 N429 N 0.60505 1.09707 0.91847
 C430 C 0.58713 1.07939 0.93807
 C431 C 0.57144 1.05288 0.92681
 C432 C 0.57414 1.04567 0.89490
 C433 C 0.59253 1.06435 0.87514
 H434 H 0.67216 1.11255 0.80111
 H435 H 0.66377 1.18039 0.87546
 H436 H 0.58554 1.08587 0.96252
 H437 H 0.56217 1.02554 0.88527
 H438 H 0.63680 1.07863 0.82945
 H439 H 0.59378 1.05843 0.85057
 C440 C 0.10603 0.35090 0.08405
 C441 C 0.13886 0.35221 0.08783
 C442 C 0.15388 0.32892 0.10466
 C443 C 0.13629 0.30445 0.11786
 C444 C 0.10363 0.30377 0.11303
 N445 N 0.08960 0.32659 0.09647
 C446 C 0.08836 0.37521 0.06745
 N447 N 0.05978 0.36767 0.05517
 C448 C 0.04073 0.38904 0.04199
 C449 C 0.04969 0.42044 0.04145
 C450 C 0.07940 0.42873 0.05326
 C451 C 0.09884 0.40620 0.06621
 H452 H 0.17914 0.33036 0.10772
 H453 H 0.08918 0.28510 0.12225
 H454 H 0.01807 0.38156 0.03307
 H455 H 0.08719 0.45271 0.05340
 H456 H 0.15288 0.37077 0.07776
 H457 H 0.12105 0.41333 0.07637
 C458 C -0.14034 0.39792 -0.14114
 C459 C -0.13854 0.39519 -0.17387
 C460 C -0.15611 0.37219 -0.18902
 C461 C -0.17584 0.35217 -0.17182
 C462 C -0.17867 0.35707 -0.13947
 N463 N -0.16082 0.37921 -0.12514
 C464 C -0.11923 0.41877 -0.12300
 N465 N -0.12641 0.42438 -0.09243
 C466 C -0.10655 0.43989 -0.07294
 C467 C -0.07690 0.44999 -0.08371
 C468 C -0.06940 0.44564 -0.11540
 C469 C -0.09042 0.43004 -0.13511
 H470 H -0.15382 0.36978 -0.21415
 H471 H -0.19374 0.34235 -0.12528
 H472 H -0.11340 0.44299 -0.04870
 H473 H -0.04676 0.45307 -0.12462
 H474 H -0.12348 0.41015 -0.18777
 H475 H -0.08316 0.42555 -0.15895
 C476 C 0.10704 0.64396 -0.10751
 C477 C 0.09289 0.66364 -0.12927
 C478 C 0.11158 0.68328 -0.14745
 C479 C 0.14438 0.68369 -0.14386
 C480 C 0.15772 0.66371 -0.12178
 N481 N 0.13898 0.64428 -0.10460
 C482 C 0.08761 0.62228 -0.08876
 N483 N 0.09752 0.59272 -0.08417
 C484 C 0.07904 0.57100 -0.06977
 C485 C 0.04861 0.57861 -0.05939
 C486 C 0.03874 0.60938 -0.06249
 C487 C 0.05809 0.63119 -0.07717
 H488 H 0.10025 0.69844 -0.16400
 H489 H 0.18298 0.66323 -0.11852
 H490 H 0.08770 0.54761 -0.06743
 H491 H 0.01563 0.61639 -0.05447
 H492 H 0.06762 0.66346 -0.13265
 H493 H 0.04981 0.65469 -0.07991
 C494 C -0.13215 0.60359 0.13997
 C495 C -0.12310 0.60974 0.17098
 C496 C -0.13921 0.63202 0.18837
 C497 C -0.16426 0.64835 0.17509
 C498 C -0.17369 0.64028 0.14470
 N499 N -0.15736 0.61882 0.12806
 C500 C -0.11325 0.58404 0.11844
 N501 N -0.11813 0.58716 0.08717
 C502 C -0.10006 0.57283 0.06534
 C503 C -0.07469 0.55435 0.07448
 C504 C -0.06996 0.54955 0.10658
 C505 C -0.08924 0.56421 0.12864
 H506 H -0.13133 0.63705 0.21190
 H507 H -0.19292 0.65205 0.13344
 H508 H -0.10496 0.57684 0.04085
 H509 H -0.05096 0.53508 0.11463
 H510 H -0.10297 0.59881 0.18148
 H511 H -0.08489 0.56023 0.15319
 C512 C 1.14097 0.10591 0.63580
 C513 C 1.16748 0.09388 0.65098
 C514 C 1.18112 0.11032 0.67579
 C515 C 1.16844 0.13863 0.68579
 C516 C 1.14219 0.14999 0.66975
 N517 N 1.12931 0.13356 0.64574
 C518 C 1.12390 0.08898 0.61057
 N519 N 1.09440 0.09852 0.60306
 C520 C 1.07632 0.08377 0.58139
 C521 C 1.08757 0.05740 0.56584
 C522 C 1.11820 0.04752 0.57242
 C523 C 1.13649 0.06327 0.59462
 H524 H 1.20113 0.10039 0.68755
 H525 H 1.13167 0.17180 0.67628
 H526 H 1.05286 0.09226 0.57692
 H527 H 1.12778 0.02733 0.56081
 H528 H 1.17726 0.07169 0.64466
 H529 H 1.16004 0.05516 0.59905
 C530 C 0.89853 -0.10715 0.64933
 C531 C 0.89666 -0.13942 0.64529
 C532 C 0.88005 -0.15739 0.66701
 C533 C 0.86516 -0.14330 0.69266
 C534 C 0.86835 -0.11106 0.69633
 N535 N 0.88475 -0.09403 0.67490
 C536 C 0.91418 -0.08699 0.62594
 N537 N 0.92861 -0.06022 0.63538
 C538 C 0.94229 -0.04015 0.61472
 C539 C 0.94111 -0.04623 0.58246
 C540 C 0.92623 -0.07363 0.57231
 C541 C 0.91291 -0.09407 0.59390
 H542 H 0.87829 -0.18216 0.66327
 H543 H 0.85775 -0.09932 0.71609
 H544 H 0.95343 -0.01919 0.62346
 H545 H 0.92480 -0.07924 0.54762
 H546 H 0.90789 -0.15070 0.62557
 H547 H 0.90092 -0.11469 0.58547
 C548 C 1.12707 -0.10101 0.35805
 C549 C 1.10821 -0.11644 0.33591
 C550 C 1.12225 -0.13229 0.31117
 C551 C 1.15514 -0.13273 0.30798
 C552 C 1.17322 -0.11645 0.33026
 N553 N 1.15895 -0.10121 0.35435
 C554 C 1.11284 -0.08420 0.38488
 N555 N 1.12822 -0.05941 0.39785
 C556 C 1.11542 -0.04233 0.42156
 C557 C 1.08534 -0.04981 0.43320
 C558 C 1.06971 -0.07585 0.42087
 C559 C 1.08338 -0.09316 0.39704
 H560 H 1.10715 -0.14380 0.29438
 H561 H 1.19865 -0.11597 0.32876
 H562 H 1.12828 -0.02250 0.43064
 H563 H 1.04666 -0.08279 0.42950
 H564 H 1.08277 -0.11589 0.33716
 H565 H 1.07087 -0.11336 0.38837
 C566 C 0.90735 0.11845 0.35693
 C567 C 0.90448 0.15051 0.36181
 C568 C 0.88867 0.16842 0.33987
 C569 C 0.87572 0.15453 0.31308
 C570 C 0.88016 0.12260 0.30852
 N571 N 0.89558 0.10562 0.33026
 C572 C 0.92172 0.09803 0.38050
 N573 N 0.93537 0.07109 0.37109
 C574 C 0.94739 0.05044 0.39178
 C575 C 0.94523 0.05610 0.42407
 C576 C 0.93133 0.08376 0.43422
 C577 C 0.91964 0.10475 0.41260
 H578 H 0.88600 0.19296 0.34433
 H579 H 0.87119 0.11100 0.28790
 H580 H 0.95793 0.02937 0.38300
 H581 H 0.92919 0.08908 0.45893
 H582 H 0.91422 0.16171 0.38234
 H583 H 0.90814 0.12542 0.42109
 C584 C 0.10545 0.35076 -0.09702
 C585 C 0.11428 0.35354 -0.12862
 C586 C 0.13008 0.32927 -0.14333
 C587 C 0.13755 0.30250 -0.12651
 C588 C 0.12847 0.30070 -0.09491
 N589 N 0.11251 0.32438 -0.08124
 C590 C 0.08732 0.37526 -0.08111
 N591 N 0.06387 0.36711 -0.06078
 C592 C 0.04493 0.38850 -0.04701
 C593 C 0.04918 0.42015 -0.05346
 C594 C 0.07412 0.42911 -0.07323
 C595 C 0.09310 0.40675 -0.08724
 H596 H 0.13672 0.33159 -0.16772
 H597 H 0.13351 0.28028 -0.08124
 H598 H 0.02613 0.38072 -0.03162
 H599 H 0.07822 0.45331 -0.07877
 H600 H 0.10838 0.37392 -0.14203
 H601 H 0.11192 0.41399 -0.10286
 C602 C -0.13388 0.40171 0.13993
 C603 C -0.16652 0.39688 0.13729
 C604 C -0.18137 0.37446 0.15585
 C605 C -0.16391 0.35702 0.17723
 C606 C -0.13176 0.36417 0.18067
 N607 N -0.11775 0.38571 0.16197
 C608 C -0.11581 0.42160 0.11796
 N609 N -0.08635 0.43126 0.12623
 C610 C -0.06656 0.44592 0.10588
 C611 C -0.07569 0.45056 0.07474
 C612 C -0.10632 0.44186 0.06598
 C613 C -0.12643 0.42743 0.08745
 H614 H -0.20637 0.37045 0.15291
 H615 H -0.11731 0.35178 0.19709
 H616 H -0.04319 0.45247 0.11364
 H617 H -0.11430 0.44506 0.04217
 H618 H -0.18047 0.40978 0.12081
 H619 H -0.14923 0.41940 0.07948
 C620 C -0.13047 0.60052 -0.14985
 C621 C -0.11687 0.61640 -0.17532
 C622 C -0.13293 0.64102 -0.18889
 C623 C -0.16244 0.64997 -0.17718
 C624 C -0.17592 0.63239 -0.15288
 N625 N -0.15965 0.60884 -0.13976
 C626 C -0.11255 0.57825 -0.13073
 N627 N -0.12179 0.57389 -0.10049
 C628 C -0.10447 0.55759 -0.07974
 C629 C -0.07537 0.54524 -0.08881
 C630 C -0.06637 0.54746 -0.12039
 C631 C -0.08494 0.56384 -0.14147
 H632 H -0.12147 0.65386 -0.20752
 H633 H -0.19888 0.63789 -0.14347
 H634 H -0.11264 0.55590 -0.05576
 H635 H -0.04429 0.53786 -0.12846
 H636 H -0.09341 0.61131 -0.18367
 H637 H -0.07713 0.56586 -0.16551
 C638 C 0.09881 0.65606 0.09097
 C639 C 0.08477 0.68323 0.10234
 C640 C 0.10281 0.70463 0.11923
 C641 C 0.13484 0.69919 0.12465
 C642 C 0.14798 0.67177 0.11286
 N643 N 0.12983 0.65107 0.09682
 C644 C 0.08038 0.63199 0.07423
 N645 N 0.08885 0.60178 0.07709
 C646 C 0.07214 0.57826 0.06368
 C647 C 0.04505 0.58455 0.04616
 C648 C 0.03661 0.61563 0.04191
 C649 C 0.05415 0.63937 0.05591
 H650 H 0.09170 0.72548 0.12781
 H651 H 0.17249 0.66647 0.11681
 H652 H 0.07970 0.55465 0.06729
 H653 H 0.01606 0.62160 0.02837
 H654 H 0.05998 0.68764 0.09894
 H655 H 0.04719 0.66316 0.05239
 C656 C 0.37813 1.11828 0.91187
 C657 C 0.38085 1.12350 0.87950
 C658 C 0.35579 1.13660 0.86333
 C659 C 0.32804 1.14465 0.87924
 C660 C 0.32655 1.13968 0.91170
 N661 N 0.35107 1.12647 0.92684
 C662 C 0.40228 1.10116 0.92956
 N663 N 0.39297 1.08478 0.95524
 C664 C 0.41268 1.06565 0.97079
 C665 C 0.44372 1.06164 0.96022
 C666 C 0.45449 1.07977 0.93505
 C667 C 0.43387 1.09960 0.91969
 H668 H 0.35810 1.14012 0.83835
 H669 H 0.30561 1.14530 0.92496
 H670 H 0.40357 1.05242 0.99041
 H671 H 0.47833 1.07747 0.92626
 H672 H 0.40147 1.11648 0.86643
 H673 H 0.44248 1.11288 0.89993
 C674 C 0.40470 0.85185 1.12516
 C675 C 0.39899 0.85758 1.15711
 C676 C 0.37332 0.84343 1.17190
 C677 C 0.35323 0.82356 1.15512
 C678 C 0.36080 0.81696 1.12378
 N679 N 0.38559 0.83152 1.10967
 C680 C 0.42769 0.87060 1.10688
 N681 N 0.42294 0.87394 1.07554
 C682 C 0.43972 0.89450 1.05789
 C683 C 0.46201 0.91411 1.07208
 C684 C 0.46886 0.90961 1.10381
 C685 C 0.45206 0.88766 1.12120
 H686 H 0.36857 0.84896 1.19619
 H687 H 0.34603 0.80177 1.10988
 H688 H 0.43402 0.89700 1.03337
 H689 H 0.48636 0.92391 1.11546
 H690 H 0.41282 0.87417 1.17031
 H691 H 0.45751 0.88503 1.14573
 C692 C 0.63186 1.13072 1.12919
 C693 C 0.64630 1.11839 1.15582
 C694 C 0.67042 1.13490 1.17041
 C695 C 0.68003 1.16384 1.15883
 C696 C 0.66455 1.17581 1.13260
 N697 N 0.64148 1.15892 1.11827
 C698 C 0.60844 1.11230 1.11154
 N699 N 0.60871 1.11324 1.07967
 C700 C 0.59046 1.09388 1.06206
 C701 C 0.57102 1.07161 1.07661
 C702 C 0.56910 1.07159 1.10942
 C703 C 0.58767 1.09189 1.12691
 H704 H 0.68167 1.12492 1.19066
 H705 H 0.67152 1.19798 1.12287
 H706 H 0.59233 1.09492 1.03680
 H707 H 0.55410 1.05511 1.12164
 H708 H 0.63992 1.09567 1.16463
 H709 H 0.58635 1.09106 1.15221
 C710 C 0.63343 0.87077 0.90022
 C711 C 0.63458 0.87485 0.86766
 C712 C 0.65765 0.85983 0.85016
 C713 C 0.67903 0.84022 0.86493
 C714 C 0.67658 0.83605 0.89742
 N715 N 0.65450 0.85172 0.91418
 C716 C 0.61152 0.88895 0.91957
 N717 N 0.62246 0.90346 0.94574
 C718 C 0.60446 0.92354 0.96248
 C719 C 0.57366 0.93001 0.95289
 C720 C 0.56140 0.91399 0.92699
 C721 C 0.58035 0.89362 0.91013
 H722 H 0.65887 0.86357 0.82512
 H723 H 0.69292 0.82128 0.90959
 H724 H 0.61457 0.93522 0.98257
 H725 H 0.53776 0.91841 0.91882
 H726 H 0.61858 0.89041 0.85604
 H727 H 0.57103 0.88219 0.88951
   
