data_POSCAR
  _audit_creation_date              2014-09-24
  _audit_creation_method            'ToBaCCo'
  _symmetry_space_group_name_H-M    'P1'
  _symmetry_Int_Tables_number       1
  _symmetry_cell_setting            triclinic
  loop_
  _symmetry_equiv_pos_as_xyz
 x,y,z
_cell_length_a 31.5493
_cell_length_b 31.5436
_cell_length_c 31.4832
_cell_angle_alpha 90.189600
_cell_angle_beta 89.999800
_cell_angle_gamma 89.999500
loop_
  _atom_site_label
  _atom_site_type_symbol
  _atom_site_fract_x
  _atom_site_fract_y
  _atom_site_fract_z
C1 C 0.50031 0.99990 -0.61513
 C2 C 0.46269 1.00746 -0.59299
 C3 C 0.46281 1.00849 -0.54848
 C4 C 0.50032 1.00001 -0.52543
 C5 C 0.53783 0.99150 -0.54852
 C6 C 0.53794 0.99242 -0.59303
 C7 C 0.50030 1.00004 -0.47774
 C8 C 0.53777 1.00864 -0.45459
 C9 C 0.53781 1.00774 -0.41012
 C10 C 0.50022 1.00015 -0.38807
 C11 C 0.46267 0.99250 -0.41022
 C12 C 0.46280 0.99148 -0.45470
 H13 H 0.50030 0.99985 -0.64963
 H14 H 0.43358 1.01619 -0.53221
 H15 H 0.56707 0.98386 -0.53229
 H16 H 0.56706 1.01633 -0.47068
 H17 H 0.50018 1.00019 -0.35361
 H18 H 0.43355 0.98373 -0.47086
 C19 C -0.61492 1.49997 0.00013
 C20 C -0.59283 1.46213 -0.00626
 C21 C -0.54842 1.46224 -0.00735
 C22 C -0.52533 1.49998 0.00021
 C23 C -0.54845 1.53772 0.00773
 C24 C -0.59285 1.53781 0.00656
 C25 C -0.47764 1.49999 0.00025
 C26 C -0.45451 1.53766 -0.00733
 C27 C -0.41014 1.53774 -0.00618
 C28 C -0.38809 1.50000 0.00033
 C29 C -0.41014 1.46226 0.00680
 C30 C -0.45451 1.46232 0.00787
 H31 H -0.64935 1.49997 0.00010
 H32 H -0.53237 1.43275 -0.01437
 H33 H -0.53241 1.56721 0.01477
 H34 H -0.47042 1.56715 -0.01441
 H35 H -0.35369 1.50001 0.00036
 H36 H -0.47043 1.43283 0.01492
 C37 C -0.00034 0.38669 0.49983
 C38 C 0.00744 0.40873 0.46224
 C39 C 0.00838 0.45316 0.46249
 C40 C -0.00034 0.47618 0.50011
 C41 C -0.00905 0.45315 0.53757
 C42 C -0.00811 0.40876 0.53751
 C43 C -0.00034 0.52376 0.50028
 C44 C 0.00830 0.54678 0.53793
 C45 C 0.00736 0.59121 0.53817
 C46 C -0.00034 0.61325 0.50056
 C47 C -0.00805 0.59118 0.46287
 C48 C -0.00898 0.54679 0.46281
 H49 H -0.00035 0.35227 0.49985
 H50 H 0.01621 0.46940 0.43329
 H51 H -0.01686 0.46927 0.56692
 H52 H 0.01607 0.53054 0.56713
 H53 H -0.00036 0.64767 0.50054
 H54 H -0.01673 0.53067 0.43345
 O55 O -0.10879 1.00203 -0.05729
 O56 O 0.10930 0.99746 -0.05740
 O57 O -0.00158 1.05696 -0.10918
 O58 O 0.00201 0.94212 -0.10907
 O59 O 0.00242 0.89061 -0.05710
 O60 O -0.00195 1.10889 -0.05729
 O61 O 0.05752 0.99769 -0.10926
 O62 O -0.05704 1.00135 -0.10919
 Zr63 Zr 0.00025 0.99968 -0.07460
 O64 O 0.03870 0.96139 -0.03828
 O65 O -0.03817 1.03828 -0.03830
 C66 C -0.09608 1.00273 -0.09646
 C67 C 0.09657 0.99640 -0.09655
 C68 C -0.00286 1.09607 -0.09643
 C69 C 0.00328 0.90311 -0.09626
 H70 H 0.05653 1.05601 -0.05671
 O71 O 0.03856 1.03811 -0.03832
 H72 H -0.05601 0.94352 -0.05652
 O73 O -0.03802 0.96157 -0.03819
 O74 O 0.10937 1.00250 0.05764
 O75 O -0.10871 0.99801 0.05781
 O76 O 0.05771 1.10909 0.00074
 O77 O 0.05768 0.89089 -0.00041
 O78 O -0.05715 0.89091 0.00100
 O79 O -0.05712 1.10910 -0.00053
 O80 O 0.00216 1.05788 0.10947
 O81 O -0.00145 0.94304 0.10958
 O82 O 0.00252 1.10938 0.05749
 O83 O -0.00190 0.89110 0.05769
 O84 O 0.10951 1.05733 0.00070
 O85 O -0.10891 1.05734 -0.00042
 O86 O -0.10893 0.94269 0.00095
 O87 O 0.10949 0.94264 -0.00045
 O88 O 0.05767 1.00229 0.10958
 O89 O -0.05691 0.99866 0.10966
 Zr90 Zr 0.07493 0.99999 0.00015
 Zr91 Zr -0.07435 1.00001 0.00024
 Zr92 Zr 0.00030 1.07461 0.00013
 Zr93 Zr 0.00028 0.92538 0.00027
 Zr94 Zr 0.00035 1.00031 0.07500
 O95 O -0.03813 0.96173 0.03875
 O96 O 0.03876 1.03859 0.03862
 C97 C 0.09670 1.00357 0.09681
 C98 C -0.09597 0.99729 0.09696
 C99 C 0.09681 1.09641 0.00098
 C100 C 0.09678 0.90356 -0.00071
 C101 C -0.09624 0.90360 0.00127
 C102 C -0.09622 1.09642 -0.00076
 C103 C 0.00342 1.09688 0.09665
 C104 C -0.00276 0.90393 0.09683
 H105 H -0.05593 1.05650 0.05699
 O106 O -0.03796 1.03843 0.03864
 H107 H 0.05658 0.94398 0.05703
 O108 O 0.03860 0.96188 0.03866
 C109 C 0.42592 1.01250 0.38489
 C110 C 0.39403 1.01569 0.36404
 C111 C 0.35686 1.01803 0.33766
 C112 C 0.32716 0.98509 0.33825
 C113 C 0.29297 0.98533 0.31000
 C114 C 0.28813 1.01852 0.28064
 C115 C 0.31766 1.05198 0.28095
 C116 C 0.35182 1.05167 0.30925
 C117 C 0.25345 1.01733 0.24874
 C118 C 0.26123 1.02923 0.20641
 C119 C 0.22909 1.02667 0.17596
 C120 C 0.18876 1.01221 0.18735
 C121 C 0.18054 1.00064 0.22943
 C122 C 0.21266 1.00316 0.25996
 C123 C 0.15600 1.00895 0.15569
 C124 C 0.12883 1.00633 0.12890
 H125 H 0.33098 0.95869 0.35985
 H126 H 0.27114 0.95885 0.31020
 H127 H 0.31448 1.07825 0.25913
 H128 H 0.37471 1.07726 0.30842
 H129 H 0.29243 1.03964 0.19661
 H130 H 0.23582 1.03561 0.14345
 H131 H 0.14937 0.98954 0.23861
 H132 H 0.20556 0.99421 0.29236
 C133 C -0.42531 0.98731 0.38479
 C134 C -0.39346 0.98406 0.36386
 C135 C -0.35636 0.98166 0.33738
 C136 C -0.32177 1.00832 0.34525
 C137 C -0.28731 1.00875 0.31732
 C138 C -0.28707 0.98256 0.28104
 C139 C -0.32159 0.95519 0.27394
 C140 C -0.35602 0.95483 0.30190
 C141 C -0.25182 0.98493 0.24986
 C142 C -0.23607 0.94799 0.23027
 C143 C -0.20398 0.95055 0.19974
 C144 C -0.18724 0.99001 0.18838
 C145 C -0.20241 1.02689 0.20795
 C146 C -0.23446 1.02441 0.23849
 C147 C -0.15493 0.99273 0.15624
 C148 C -0.12799 0.99494 0.12918
 H149 H -0.32177 1.02934 0.37254
 H150 H -0.26097 1.02976 0.32395
 H151 H -0.32264 0.93506 0.24604
 H152 H -0.38281 0.93436 0.29528
 H153 H -0.24844 0.91712 0.23867
 H154 H -0.19237 0.92178 0.18486
 H155 H -0.18976 1.05760 0.19929
 H156 H -0.24632 1.05347 0.25250
 C157 C -0.42346 1.01322 -0.38657
 C158 C -0.39178 1.01641 -0.36539
 C159 C -0.35491 1.01873 -0.33858
 C160 C -0.35473 1.04575 -0.30324
 C161 C -0.32058 1.04531 -0.27495
 C162 C -0.28617 1.01767 -0.28158
 C163 C -0.28624 0.99129 -0.31772
 C164 C -0.32042 0.99180 -0.34598
 C165 C -0.25123 1.01524 -0.25005
 C166 C -0.23423 0.97571 -0.23832
 C167 C -0.20242 0.97319 -0.20753
 C168 C -0.18714 1.01008 -0.18806
 C169 C -0.20355 1.04958 -0.19976
 C170 C -0.23539 1.05218 -0.23054
 C171 C -0.15498 1.00734 -0.15578
 C172 C -0.12811 1.00510 -0.12866
 H173 H -0.38145 1.06642 -0.29698
 H174 H -0.32175 1.06560 -0.24716
 H175 H -0.25997 0.97007 -0.32398
 H176 H -0.32031 0.97063 -0.37315
 H177 H -0.24617 0.94666 -0.25227
 H178 H -0.19003 0.94244 -0.19863
 H179 H -0.19185 1.07836 -0.18497
 H180 H -0.24750 1.08309 -0.23921
 C181 C 0.42388 0.98707 -0.38680
 C182 C 0.39213 0.98392 -0.36575
 C183 C 0.35515 0.98164 -0.33910
 C184 C 0.32550 1.01463 -0.33946
 C185 C 0.29154 1.01445 -0.31094
 C186 C 0.28687 0.98127 -0.28153
 C187 C 0.31634 0.94776 -0.28207
 C188 C 0.35027 0.94801 -0.31064
 C189 C 0.25244 0.98253 -0.24937
 C190 C 0.26052 0.97063 -0.20710
 C191 C 0.22861 0.97323 -0.17641
 C192 C 0.18821 0.98773 -0.18750
 C193 C 0.17970 0.99931 -0.22952
 C194 C 0.21159 0.99676 -0.26029
 C195 C 0.15567 0.99101 -0.15563
 C196 C 0.12862 0.99364 -0.12871
 H197 H 0.32919 1.04102 -0.36109
 H198 H 0.26975 1.04097 -0.31097
 H199 H 0.31329 0.92151 -0.26022
 H200 H 0.37313 0.92238 -0.30998
 H201 H 0.29178 0.96018 -0.19753
 H202 H 0.23557 0.96428 -0.14395
 H203 H 0.14848 1.01045 -0.23847
 H204 H 0.20426 1.00570 -0.29264
 C205 C 0.38508 1.42519 -0.01003
 C206 C 0.36424 1.39321 -0.01204
 C207 C 0.33784 1.35603 -0.01299
 C208 C 0.31149 1.34819 -0.04789
 C209 C 0.28312 1.31415 -0.04718
 C210 C 0.28065 1.28755 -0.01144
 C211 C 0.30797 1.29515 0.02308
 C212 C 0.33630 1.32922 0.02230
 C213 C 0.24869 1.25304 -0.00950
 C214 C 0.25887 1.21352 0.00845
 C215 C 0.22830 1.18151 0.01112
 C216 C 0.18721 1.18862 -0.00402
 C217 C 0.17683 1.22774 -0.02203
 C218 C 0.20731 1.25975 -0.02477
 C219 C 0.15565 1.15580 -0.00141
 C220 C 0.12890 1.12857 0.00014
 H221 H 0.31231 1.36883 -0.07531
 H222 H 0.26292 1.30877 -0.07448
 H223 H 0.30649 1.27562 0.05125
 H224 H 0.35630 1.33523 0.04965
 H225 H 0.29055 1.20724 0.02007
 H226 H 0.23672 1.15126 0.02496
 H227 H 0.14509 1.23359 -0.03380
 H228 H 0.19827 1.29002 -0.03813
 C229 C 0.38504 0.57475 0.01029
 C230 C 0.36420 0.60673 0.01228
 C231 C 0.33779 0.64391 0.01319
 C232 C 0.33610 0.67058 -0.02220
 C233 C 0.30777 0.70465 -0.02299
 C234 C 0.28061 0.71239 0.01162
 C235 C 0.28322 0.68593 0.04745
 C236 C 0.31159 0.65189 0.04817
 C237 C 0.24864 0.74690 0.00969
 C238 C 0.20733 0.74027 0.02516
 C239 C 0.17685 0.77228 0.02244
 C240 C 0.18717 0.81134 0.00423
 C241 C 0.22820 0.81836 -0.01112
 C242 C 0.25876 0.78635 -0.00846
 C243 C 0.15561 0.84416 0.00164
 C244 C 0.12886 0.87139 0.00011
 H245 H 0.35598 0.66446 -0.04961
 H246 H 0.30617 0.72408 -0.05123
 H247 H 0.26314 0.69142 0.07482
 H248 H 0.31253 0.63135 0.07567
 H249 H 0.19834 0.71006 0.03868
 H250 H 0.14517 0.76650 0.03438
 H251 H 0.23656 0.84856 -0.02512
 H252 H 0.29039 0.79257 -0.02024
 C253 C -0.38672 0.57668 -0.01020
 C254 C -0.36564 0.60849 -0.01213
 C255 C -0.33894 0.64545 -0.01297
 C256 C -0.31256 0.65297 -0.04786
 C257 C -0.28389 0.68677 -0.04704
 C258 C -0.28117 0.71343 -0.01121
 C259 C -0.30851 0.70616 0.02332
 C260 C -0.33713 0.67234 0.02243
 C261 C -0.24892 0.74769 -0.00918
 C262 C -0.25879 0.78735 0.00891
 C263 C -0.22799 0.81914 0.01164
 C264 C -0.18697 0.81169 -0.00360
 C265 C -0.17690 0.77242 -0.02174
 C266 C -0.20762 0.74063 -0.02452
 C267 C -0.15522 0.84434 -0.00102
 C268 C -0.12836 0.87147 0.00049
 H269 H -0.31359 0.63226 -0.07536
 H270 H -0.26368 0.69190 -0.07434
 H271 H -0.30683 0.72576 0.05156
 H272 H -0.35715 0.66657 0.04978
 H273 H -0.29040 0.79391 0.02059
 H274 H -0.23617 0.84952 0.02556
 H275 H -0.14523 0.76631 -0.03359
 H276 H -0.19883 0.71025 -0.03799
 C277 C -0.38671 1.42333 0.01085
 C278 C -0.36563 1.39152 0.01281
 C279 C -0.33892 1.35457 0.01367
 C280 C -0.33736 1.32746 -0.02157
 C281 C -0.30873 1.29365 -0.02246
 C282 C -0.28112 1.28660 0.01190
 C283 C -0.28359 1.31349 0.04759
 C284 C -0.31227 1.34728 0.04841
 C285 C -0.24887 1.25235 0.00984
 C286 C -0.20746 1.25953 0.02483
 C287 C -0.17674 1.22774 0.02202
 C288 C -0.18693 1.18835 0.00421
 C289 C -0.22805 1.18078 -0.01067
 C290 C -0.25885 1.21257 -0.00792
 C291 C -0.15518 1.15570 0.00160
 C292 C -0.12833 1.12856 0.00006
 H293 H -0.35758 1.33306 -0.04880
 H294 H -0.30725 1.27388 -0.05060
 H295 H -0.26317 1.30853 0.07477
 H296 H -0.31310 1.36816 0.07579
 H297 H -0.19859 1.29000 0.03804
 H298 H -0.14499 1.23394 0.03360
 H299 H -0.23632 1.15032 -0.02434
 H300 H -0.29055 1.20593 -0.01932
 C301 C 0.01282 1.38656 0.42542
 C302 C 0.01631 1.36555 0.39356
 C303 C 0.01898 1.33886 0.35650
 C304 C 0.04504 1.30297 0.35690
 C305 C 0.04480 1.27478 0.32255
 C306 C 0.01833 1.28207 0.28735
 C307 C -0.00705 1.31877 0.28684
 C308 C -0.00674 1.34692 0.32124
 C309 C 0.01599 1.25066 0.25217
 C310 C -0.02336 1.23989 0.23403
 C311 C -0.02586 1.20911 0.20209
 C312 C 0.01087 1.18870 0.18782
 C313 C 0.05021 1.19946 0.20534
 C314 C 0.05280 1.23022 0.23732
 C315 C 0.00811 1.15637 0.15560
 C316 C 0.00585 1.12919 0.12869
 H317 H 0.06477 1.29620 0.38423
 H318 H 0.06428 1.24657 0.32417
 H319 H -0.02735 1.32553 0.25997
 H320 H -0.02717 1.37453 0.32067
 H321 H -0.05233 1.25457 0.24520
 H322 H -0.05649 1.20094 0.18882
 H323 H 0.07886 1.18392 0.19444
 H324 H 0.08358 1.23815 0.25031
 C325 C -0.01377 1.38532 -0.42376
 C326 C -0.01712 1.36416 -0.39213
 C327 C -0.01962 1.33733 -0.35534
 C328 C -0.04504 1.30099 -0.35629
 C329 C -0.04463 1.27275 -0.32216
 C330 C -0.01863 1.28044 -0.28665
 C331 C 0.00611 1.31756 -0.28560
 C332 C 0.00564 1.34577 -0.31977
 C333 C -0.01613 1.24905 -0.25167
 C334 C 0.02319 1.23895 -0.23316
 C335 C 0.02586 1.20826 -0.20135
 C336 C -0.01068 1.18726 -0.18759
 C337 C -0.05000 1.19733 -0.20550
 C338 C -0.05275 1.22801 -0.23734
 C339 C -0.00775 1.15511 -0.15542
 C340 C -0.00538 1.12811 -0.12852
 H341 H -0.06439 1.29393 -0.38385
 H342 H -0.06360 1.24421 -0.32420
 H343 H 0.02603 1.32464 -0.25848
 H344 H 0.02557 1.37373 -0.31878
 H345 H 0.05203 1.25410 -0.24393
 H346 H 0.05647 1.20063 -0.18778
 H347 H -0.07851 1.18135 -0.19497
 H348 H -0.08352 1.23541 -0.25062
 C349 C 0.01267 0.61338 -0.42500
 C350 C 0.01611 0.63439 -0.39313
 C351 C 0.01872 0.66108 -0.35607
 C352 C 0.04507 0.69676 -0.35629
 C353 C 0.04481 0.72495 -0.32194
 C354 C 0.01802 0.71788 -0.28693
 C355 C -0.00766 0.68139 -0.28660
 C356 C -0.00733 0.65323 -0.32099
 C357 C 0.01568 0.74931 -0.25177
 C358 C -0.02370 0.76040 -0.23390
 C359 C -0.02618 0.79119 -0.20197
 C360 C 0.01061 0.81129 -0.18743
 C361 C 0.04999 0.80022 -0.20468
 C362 C 0.05255 0.76945 -0.23665
 C363 C 0.00789 0.84363 -0.15521
 C364 C 0.00566 0.87081 -0.12830
 H365 H 0.06505 0.70336 -0.38347
 H366 H 0.06452 0.75301 -0.32342
 H367 H -0.02820 0.67480 -0.25988
 H368 H -0.02798 0.62579 -0.32057
 H369 H -0.05271 0.74596 -0.24528
 H370 H -0.05684 0.79960 -0.18892
 H371 H 0.07869 0.81552 -0.19356
 H372 H 0.08336 0.76127 -0.24942
 C373 C -0.01363 0.61462 0.42413
 C374 C -0.01692 0.63576 0.39248
 C375 C -0.01936 0.66258 0.35568
 C376 C 0.00635 0.65443 0.32036
 C377 C 0.00684 0.68264 0.28620
 C378 C -0.01832 0.71948 0.28700
 C379 C -0.04476 0.72688 0.32225
 C380 C -0.04519 0.69864 0.35637
 C381 C -0.01584 0.75090 0.25204
 C382 C -0.05254 0.77152 0.23734
 C383 C -0.04983 0.80222 0.20551
 C384 C -0.01045 0.81272 0.18799
 C385 C 0.02619 0.79215 0.20213
 C386 C 0.02355 0.76144 0.23393
 C387 C -0.00757 0.84489 0.15582
 C388 C -0.00523 0.87189 0.12892
 H389 H 0.02660 0.62670 0.31957
 H390 H 0.02710 0.67580 0.25928
 H391 H -0.06407 0.75520 0.32410
 H392 H -0.06490 0.70547 0.38374
 H393 H -0.08336 0.76377 0.25031
 H394 H -0.07841 0.81787 0.19469
 H395 H 0.05685 0.80012 0.18886
 H396 H 0.05246 0.74662 0.24499
   
