data_POSCAR
  _audit_creation_date              2014-09-24
  _audit_creation_method            'ToBaCCo'
  _symmetry_space_group_name_H-M    'P1'
  _symmetry_Int_Tables_number       1
  _symmetry_cell_setting            triclinic
  loop_
  _symmetry_equiv_pos_as_xyz
 x,y,z
_cell_length_a 47.4051
_cell_length_b 47.4052
_cell_length_c 47.2000
_cell_angle_alpha 90.073200
_cell_angle_beta 90.293700
_cell_angle_gamma 89.957500
loop_
  _atom_site_label
  _atom_site_type_symbol
  _atom_site_fract_x
  _atom_site_fract_y
  _atom_site_fract_z
C1 C 0.18825 0.15243 0.18480
 C2 C 0.17404 0.14022 0.20775
 C3 C 0.14981 0.15304 0.21949
 C4 C 0.14037 0.17874 0.20758
 C5 C 0.15457 0.19125 0.18485
 C6 C 0.17859 0.17807 0.17340
 C7 C 0.21190 0.13913 0.17303
 C8 C 0.22644 0.15106 0.14985
 C9 C 0.21660 0.17709 0.13898
 C10 C 0.19285 0.19049 0.15046
 C11 C 0.18293 0.21601 0.13908
 C12 C 0.15901 0.22933 0.15045
 C13 C 0.14501 0.21682 0.17339
 H14 H 0.18134 0.11997 0.21542
 H15 H 0.12261 0.18989 0.21658
 H16 H 0.21943 0.11991 0.18286
 H17 H 0.22640 0.18652 0.12063
 H18 H 0.19397 0.22567 0.12153
 H19 H 0.12629 0.22674 0.18198
 C20 C -0.19462 0.83495 0.19993
 C21 C -0.18342 0.84694 0.22474
 C22 C -0.16012 0.83464 0.23897
 C23 C -0.14858 0.80955 0.22760
 C24 C -0.15950 0.79745 0.20272
 C25 C -0.18256 0.81024 0.18881
 C26 C -0.21761 0.84759 0.18599
 C27 C -0.22873 0.83616 0.16058
 C28 C -0.21624 0.81131 0.14978
 C29 C -0.19344 0.79837 0.16366
 C30 C -0.18131 0.77374 0.15264
 C31 C -0.15825 0.76086 0.16628
 C32 C -0.14745 0.77288 0.19133
 H33 H -0.19375 0.86540 0.23334
 H34 H -0.13013 0.79993 0.23712
 H35 H -0.22576 0.86718 0.19445
 H36 H -0.22477 0.80113 0.13107
 H37 H -0.18948 0.76485 0.13308
 H38 H -0.12982 0.76293 0.20211
 C39 C -0.19484 0.15262 -0.19043
 C40 C -0.18224 0.14021 -0.21419
 C41 C -0.15869 0.15270 -0.22723
 C42 C -0.14762 0.17784 -0.21571
 C43 C -0.15959 0.19012 -0.19150
 C44 C -0.18346 0.17759 -0.17899
 C45 C -0.21867 0.14033 -0.17798
 C46 C -0.23177 0.15272 -0.15415
 C47 C -0.21980 0.17764 -0.14282
 C48 C -0.19581 0.18992 -0.15491
 C49 C -0.18376 0.21417 -0.14293
 C50 C -0.15953 0.22640 -0.15475
 C51 C -0.14784 0.21452 -0.17937
 H52 H -0.19062 0.12050 -0.22223
 H53 H -0.12978 0.18803 -0.22562
 H54 H -0.22761 0.12179 -0.18794
 H55 H -0.22824 0.18708 -0.12377
 H56 H -0.19322 0.22356 -0.12430
 H57 H -0.12906 0.22373 -0.18853
 C58 C 0.19205 0.84632 -0.19358
 C59 C 0.17875 0.86003 -0.21638
 C60 C 0.15189 0.85133 -0.22626
 C61 C 0.13901 0.82806 -0.21284
 C62 C 0.15216 0.81412 -0.19020
 C63 C 0.17874 0.82325 -0.18047
 C64 C 0.21828 0.85569 -0.18336
 C65 C 0.23139 0.84228 -0.16020
 C66 C 0.21812 0.81900 -0.14753
 C67 C 0.19191 0.80942 -0.15748
 C68 C 0.17844 0.78653 -0.14449
 C69 C 0.15189 0.77730 -0.15413
 C70 C 0.13898 0.79116 -0.17708
 H71 H 0.18895 0.87836 -0.22532
 H72 H 0.11906 0.81987 -0.22050
 H73 H 0.22855 0.87343 -0.19346
 H74 H 0.22788 0.80878 -0.12943
 H75 H 0.18836 0.77623 -0.12653
 H76 H 0.11866 0.78394 -0.18485
 C77 C 0.16202 1.19366 0.80774
 C78 C 0.14883 1.18080 0.78441
 C79 C 0.15851 1.15475 0.77353
 C80 C 0.18227 1.14214 0.78662
 C81 C 0.19554 1.15476 0.81005
 C82 C 0.18543 1.18066 0.82061
 C83 C 0.15193 1.21938 0.81836
 C84 C 0.16460 1.23248 0.84216
 C85 C 0.18827 1.21913 0.85470
 C86 C 0.19859 1.19341 0.84420
 C87 C 0.22152 1.17992 0.85738
 C88 C 0.23147 1.15384 0.84727
 C89 C 0.21848 1.14155 0.82343
 H90 H 0.13149 1.19180 0.77429
 H91 H 0.18978 1.12171 0.77970
 H92 H 0.13462 1.22943 0.80725
 H93 H 0.19803 1.22779 0.87357
 H94 H 0.23120 1.18938 0.87594
 H95 H 0.22629 1.12166 0.81525
 C96 C 0.84265 0.80726 0.80126
 C97 C 0.85392 0.81912 0.77651
 C98 C 0.84305 0.84451 0.76505
 C99 C 0.82031 0.85761 0.77923
 C100 C 0.80874 0.84587 0.80382
 C101 C 0.81987 0.82056 0.81481
 C102 C 0.85397 0.78229 0.81264
 C103 C 0.84263 0.76993 0.83738
 C104 C 0.81950 0.78352 0.85041
 C105 C 0.80822 0.80860 0.83942
 C106 C 0.78560 0.82206 0.85295
 C107 C 0.77436 0.84734 0.84216
 C108 C 0.78604 0.85906 0.81752
 H109 H 0.87204 0.80897 0.76704
 H110 H 0.81055 0.87643 0.77067
 H111 H 0.87094 0.77203 0.80134
 H112 H 0.81085 0.77550 0.86999
 H113 H 0.77700 0.81308 0.87216
 H114 H 0.77728 0.87835 0.80885
 C115 C 0.15661 0.80309 1.19619
 C116 C 0.14521 0.81506 1.22081
 C117 C 0.15865 0.83783 1.23440
 C118 C 0.18394 0.84841 1.22317
 C119 C 0.19567 0.83654 1.19866
 C120 C 0.18196 0.81376 1.18512
 C121 C 0.14291 0.78064 1.18255
 C122 C 0.15405 0.76832 1.15769
 C123 C 0.17972 0.77915 1.14706
 C124 C 0.19353 0.80176 1.16045
 C125 C 0.21860 0.81281 1.14929
 C126 C 0.23230 0.83567 1.16251
 C127 C 0.22070 0.84732 1.18728
 H128 H 0.12591 0.80651 1.22951
 H129 H 0.19424 0.86623 1.23324
 H130 H 0.12402 0.77224 1.19215
 H131 H 0.18851 0.77107 1.12755
 H132 H 0.22759 0.80349 1.13039
 H133 H 0.23089 0.86517 1.19740
 C134 C 0.83450 1.20616 1.19989
 C135 C 0.84674 1.19504 1.22463
 C136 C 0.83526 1.17104 1.23812
 C137 C 0.81105 1.15844 1.22587
 C138 C 0.79882 1.16916 1.20100
 C139 C 0.81051 1.19314 1.18798
 C140 C 0.84594 1.23015 1.18689
 C141 C 0.83378 1.24129 1.16204
 C142 C 0.80991 1.22803 1.15023
 C143 C 0.79824 1.20404 1.16299
 C144 C 0.77455 1.19072 1.15107
 C145 C 0.76294 1.16656 1.16378
 C146 C 0.77518 1.15603 1.18882
 H147 H 0.86459 1.20602 1.23382
 H148 H 0.80224 1.13936 1.23477
 H149 H 0.86460 1.23994 1.19589
 H150 H 0.80019 1.23660 1.13126
 H151 H 0.76545 1.19884 1.13161
 H152 H 0.76608 1.13771 1.19902
 O153 O 0.45969 0.94470 0.95488
 O154 O 0.43016 0.97392 0.97963
 C155 C 0.43472 0.95382 0.96160
 O156 O 0.53814 0.94466 1.05780
 O157 O 0.57047 0.96794 1.03047
 C158 C 0.56390 0.95060 1.05061
 O159 O 0.45862 0.94534 1.05312
 O160 O 0.42950 0.97374 1.02670
 C161 C 0.43375 0.95383 1.04506
 O162 O 0.53921 0.94328 0.95359
 O163 O 0.57104 0.96741 0.98115
 C164 C 0.56484 0.94948 0.96130
 Zr165 Zr 0.50004 0.95826 0.96916
 O166 O 0.50100 0.91363 0.97081
 O167 O 0.49739 0.95682 0.92442
 Zr168 Zr 0.49928 0.95937 1.04081
 O169 O 0.50045 0.91474 1.04161
 O170 O 0.49535 0.96033 1.08546
 O171 O 0.47428 0.95460 1.00460
 O172 O 0.52391 0.95239 1.00543
 O173 O 0.54411 1.04067 0.95287
 O174 O 0.57332 1.01435 0.98126
 C175 C 0.56896 1.03228 0.96099
 O176 O 0.46390 1.04881 1.05229
 O177 O 0.43208 1.02235 1.02701
 C178 C 0.43829 1.04227 1.04480
 O179 O 0.54305 1.04217 1.05618
 O180 O 0.57284 1.01453 1.02993
 C181 C 0.56808 1.03343 1.04922
 O182 O 0.46493 1.04752 0.95439
 O183 O 0.43250 1.02240 0.97989
 C184 C 0.43917 1.04160 0.96158
 Zr185 Zr 0.50364 1.02964 0.96827
 O186 O 0.50916 1.07394 0.96764
 O187 O 0.50081 1.02901 0.92349
 Zr188 Zr 0.50288 1.03061 1.03993
 O189 O 0.50829 1.07493 1.03969
 O190 O 0.49921 1.03099 1.08461
 Zr191 Zr 0.45971 0.99663 1.00381
 Zr192 Zr 0.54325 0.99231 1.00515
 O193 O 0.52794 1.03400 1.00443
 O194 O 0.47846 1.03694 1.00363
 O195 O 0.52695 0.99260 0.96351
 O196 O 0.47655 0.99628 1.04514
 O197 O 0.47753 0.99517 0.96310
 O198 O 0.52613 0.99379 1.04628
 H199 H 0.53603 0.93536 1.00583
 H200 H 0.46350 0.99704 1.06145
 H201 H 0.54150 1.04989 1.00446
 H202 H 0.46496 0.99576 0.94627
 H203 H 0.51150 0.97122 1.09305
 H204 H 0.51478 1.01941 1.09240
 H205 H 0.49329 1.08298 1.02750
 H206 H 0.49393 1.08233 0.97917
 H207 H 0.51641 1.01712 0.91641
 H208 H 0.51245 0.96915 0.91699
 H209 H 0.48361 0.90732 0.98039
 H210 H 0.48516 0.90790 1.02904
 O211 O 0.05017 0.45931 -0.05517
 O212 O 0.02172 0.42918 -0.03036
 C213 C 0.04167 0.43416 -0.04833
 O214 O 0.05147 0.53638 0.04699
 O215 O 0.02710 0.56885 0.02052
 C216 C 0.04529 0.56217 0.03998
 O217 O 0.05082 0.45701 0.04209
 O218 O 0.02197 0.42797 0.01605
 C219 C 0.04235 0.43219 0.03399
 O220 O 0.05052 0.53892 -0.05602
 O221 O 0.02621 0.57007 -0.02809
 C222 C 0.04420 0.56434 -0.04786
 Zr223 Zr 0.03567 0.49941 -0.04122
 O224 O 0.08030 0.50085 -0.04159
 O225 O 0.03489 0.49721 -0.08603
 Zr226 Zr 0.03592 0.49765 0.03057
 O227 O 0.08053 0.49884 0.03194
 O228 O 0.03470 0.49332 0.07520
 O229 O 0.04032 0.47332 -0.00598
 O230 O 0.04199 0.52266 -0.00472
 O231 O -0.04728 0.54293 -0.05615
 O232 O -0.02092 0.57199 -0.02760
 C233 C -0.03902 0.56776 -0.04786
 O234 O -0.05282 0.46117 0.04275
 O235 O -0.02714 0.43002 0.01610
 C236 C -0.04648 0.43575 0.03455
 O237 O -0.04637 0.54037 0.04785
 O238 O -0.01981 0.57084 0.02134
 C239 C -0.03791 0.56558 0.04115
 O240 O -0.05285 0.46368 -0.05590
 O241 O -0.02665 0.43124 -0.03120
 C242 C -0.04609 0.43789 -0.04941
 Zr243 Zr -0.03564 0.50236 -0.04114
 O244 O -0.08002 0.50729 -0.04046
 O245 O -0.03628 0.50045 -0.08594
 Zr246 Zr -0.03531 0.50055 0.03055
 O247 O -0.07967 0.50575 0.03041
 O248 O -0.03546 0.49615 0.07516
 Zr249 Zr -0.00152 0.45825 -0.00640
 Zr250 Zr 0.00192 0.54179 -0.00423
 O251 O -0.03961 0.52614 -0.00462
 O252 O -0.04204 0.47657 -0.00598
 O253 O 0.00102 0.52615 -0.04606
 O254 O -0.00064 0.47445 0.03509
 O255 O -0.00096 0.47659 -0.04698
 O256 O 0.00139 0.52410 0.03674
 H257 H 0.05911 0.53463 -0.00450
 H258 H -0.00104 0.46106 0.05120
 H259 H -0.05553 0.53970 -0.00417
 H260 H -0.00139 0.46423 -0.06392
 H261 H 0.02613 0.51068 0.08302
 H262 H -0.02239 0.51045 0.08299
 H263 H -0.08775 0.49058 0.01848
 H264 H -0.08794 0.49095 -0.03020
 H265 H -0.02352 0.51536 -0.09295
 H266 H 0.02474 0.51407 -0.09303
 H267 H 0.08723 0.48485 -0.03007
 H268 H 0.08744 0.48488 0.01803
 O269 O 1.05083 -0.04516 0.53767
 O270 O 1.02569 -0.01832 0.56914
 C271 C 1.04452 -0.03726 0.56326
 O272 O 1.05263 0.05411 0.45804
 O273 O 1.02480 0.02867 0.42751
 C274 C 1.04444 0.04700 0.43272
 O275 O 1.05679 0.05127 0.53764
 O276 O 1.02850 0.02790 0.56909
 C277 C 1.04941 0.04447 0.56322
 O278 O 1.04577 -0.04823 0.45790
 O279 O 1.02105 -0.01966 0.42748
 C280 C 1.03824 -0.04034 0.43259
 Zr281 Zr 1.03415 -0.03183 0.49809
 O282 O 1.07838 -0.03610 0.49404
 O283 O 1.03011 -0.07617 0.50159
 Zr284 Zr 1.03875 0.03963 0.49810
 O285 O 1.08318 0.03779 0.49420
 O286 O 1.04059 0.08415 0.50139
 O287 O 1.04260 0.00356 0.52306
 O288 O 1.04116 0.00355 0.47357
 O289 O 0.94810 -0.04224 0.45973
 O290 O 0.97407 -0.01614 0.42840
 C291 C 0.95510 -0.03494 0.43416
 O292 O 0.95416 0.05903 0.53948
 O293 O 0.97946 0.03094 0.57002
 C294 C 0.96138 0.05083 0.56476
 O295 O 0.95455 0.06093 0.45972
 O296 O 0.97722 0.03184 0.42837
 C297 C 0.96072 0.05287 0.43415
 O298 O 0.94741 -0.03955 0.53961
 O299 O 0.97671 -0.01552 0.56993
 C300 C 0.95594 -0.03260 0.56491
 Zr301 Zr 0.96314 -0.02716 0.49941
 O302 O 0.91863 -0.02419 0.49709
 O303 O 0.96050 -0.07162 0.50256
 Zr304 Zr 0.96765 0.04418 0.49936
 O305 O 0.92308 0.04641 0.49720
 O306 O 0.97020 0.08866 0.50228
 Zr307 Zr 1.00192 0.00624 0.54072
 Zr308 Zr 1.00008 0.00628 0.45669
 O309 O 0.95972 0.00884 0.47494
 O310 O 0.96043 0.00889 0.52470
 O311 O 0.99773 -0.03491 0.47341
 O312 O 1.00413 0.04702 0.52336
 O313 O 0.99894 -0.03458 0.52344
 O314 O 1.00302 0.04743 0.47340
 H315 H 1.05746 0.00239 0.46056
 H316 H 1.00560 0.06344 0.53629
 H317 H 0.94291 0.00991 0.46243
 H318 H 0.99833 -0.05095 0.53646
 H319 H 1.03101 0.09210 0.48453
 H320 H 0.98272 0.09516 0.48692
 H321 H 0.91558 0.03636 0.51390
 H322 H 0.91244 -0.01208 0.51297
 H323 H 0.97138 -0.07970 0.48668
 H324 H 1.01971 -0.08293 0.48468
 H325 H 1.08718 -0.02315 0.50793
 H326 H 1.09022 0.02453 0.50876
 C327 C 1.10614 0.14506 0.24665
 C328 C 1.09193 0.13271 0.26932
 C329 C 1.10637 0.11583 0.28890
 C330 C 1.13529 0.11081 0.28495
 C331 C 1.14953 0.12290 0.26215
 C332 C 1.13531 0.14047 0.24256
 C333 C 1.09053 0.10313 0.31262
 C334 C 1.10248 0.09690 0.33765
 C335 C 1.08670 0.08450 0.36158
 C336 C 1.09656 0.08910 0.38926
 C337 C 1.08264 0.07727 0.41239
 C338 C 1.05873 0.06020 0.40827
 C339 C 1.04897 0.05540 0.38049
 C340 C 1.06280 0.06739 0.35738
 H341 H 1.09370 0.15722 0.23177
 H342 H 1.06951 0.13647 0.27162
 H343 H 1.14699 0.09730 0.29926
 H344 H 1.17198 0.11915 0.26079
 H345 H 1.06802 0.10036 0.30978
 H346 H 1.12435 0.10238 0.34141
 H347 H 1.11507 0.10199 0.39302
 H348 H 1.09084 0.08126 0.43347
 H349 H 1.03073 0.04219 0.37654
 H350 H 1.05508 0.06266 0.33630
 C351 C 0.86610 -0.16886 0.28429
 C352 C 0.87797 -0.15621 0.30832
 C353 C 0.87615 -0.12701 0.31245
 C354 C 0.86132 -0.11072 0.29250
 C355 C 0.84927 -0.12330 0.26855
 C356 C 0.85158 -0.15266 0.26373
 C357 C 0.88944 -0.11434 0.33795
 C358 C 0.89896 -0.08770 0.33861
 C359 C 0.91316 -0.07496 0.36357
 C360 C 0.93166 -0.05231 0.35926
 C361 C 0.94532 -0.03944 0.38213
 C362 C 0.94050 -0.04870 0.40998
 C363 C 0.92166 -0.07116 0.41438
 C364 C 0.90810 -0.08415 0.39143
 H365 H 0.86758 -0.19156 0.28263
 H366 H 0.88884 -0.16932 0.32368
 H367 H 0.85879 -0.08821 0.29533
 H368 H 0.83922 -0.10946 0.25335
 H369 H 0.89303 -0.12799 0.35598
 H370 H 0.89788 -0.07503 0.31956
 H371 H 0.93573 -0.04466 0.33805
 H372 H 0.95958 -0.02211 0.37793
 H373 H 0.91735 -0.07871 0.43556
 H374 H 0.89334 -0.10099 0.39567
 C375 C 0.83783 0.12415 0.72777
 C376 C 0.85024 0.11050 0.70473
 C377 C 0.87934 0.11239 0.70024
 C378 C 0.89603 0.12779 0.71944
 C379 C 0.88375 0.14085 0.74293
 C380 C 0.85444 0.13925 0.74744
 C381 C 0.89197 0.09722 0.67611
 C382 C 0.91248 0.10843 0.66035
 C383 C 0.92458 0.09330 0.63591
 C384 C 0.93048 0.10816 0.61097
 C385 C 0.94193 0.09421 0.58757
 C386 C 0.94852 0.06536 0.58912
 C387 C 0.94315 0.05062 0.61430
 C388 C 0.93099 0.06439 0.63742
 H389 H 0.81517 0.12292 0.73002
 H390 H 0.83702 0.09872 0.69014
 H391 H 0.91867 0.12902 0.71675
 H392 H 0.89740 0.15162 0.75786
 H393 H 0.88300 0.07702 0.67016
 H394 H 0.91936 0.12987 0.66435
 H395 H 0.92587 0.13049 0.60949
 H396 H 0.94614 0.10607 0.56846
 H397 H 0.94808 0.02839 0.61598
 H398 H 0.92709 0.05259 0.65663
 C399 C 1.10831 -0.13398 0.74902
 C400 C 1.09467 -0.12016 0.72674
 C401 C 1.11017 -0.10664 0.70559
 C402 C 1.13975 -0.10645 0.70756
 C403 C 1.15349 -0.12006 0.72999
 C404 C 1.13807 -0.13439 0.75111
 C405 C 1.09471 -0.09235 0.68234
 C406 C 1.10552 -0.08853 0.65644
 C407 C 1.08946 -0.07520 0.63301
 C408 C 1.09623 -0.08225 0.60498
 C409 C 1.08151 -0.07016 0.58231
 C410 C 1.05987 -0.05048 0.58722
 C411 C 1.05341 -0.04308 0.61532
 C412 C 1.06807 -0.05523 0.63796
 H413 H 1.09516 -0.14330 0.76515
 H414 H 1.07182 -0.12013 0.72599
 H415 H 1.15240 -0.09561 0.69199
 H416 H 1.17630 -0.12014 0.72989
 H417 H 1.07302 -0.08648 0.68634
 H418 H 1.12616 -0.09696 0.65156
 H419 H 1.11280 -0.09736 0.60061
 H420 H 1.08719 -0.07618 0.56095
 H421 H 1.03711 -0.02773 0.61989
 H422 H 1.06290 -0.04854 0.65923
 C423 C 0.25282 1.10743 1.13909
 C424 C 0.27575 1.09366 1.12678
 C425 C 0.29689 1.10892 1.11302
 C426 C 0.29442 1.13840 1.11135
 C427 C 0.27139 1.15227 1.12346
 C428 C 0.25006 1.13709 1.13768
 C429 C 0.32041 1.09324 1.09972
 C430 C 0.34589 1.10447 1.09484
 C431 C 0.36920 1.08830 1.08174
 C432 C 0.39717 1.09583 1.08796
 C433 C 0.41967 1.08090 1.07607
 C434 C 0.41461 1.05830 1.05741
 C435 C 0.38655 1.05117 1.05073
 C436 C 0.36411 1.06602 1.06268
 H437 H 0.23671 1.09437 1.14850
 H438 H 0.27689 1.07086 1.12794
 H439 H 0.30999 1.15089 1.10034
 H440 H 0.27108 1.17504 1.12233
 H441 H 0.31687 1.07114 1.09511
 H442 H 0.35047 1.12569 1.10200
 H443 H 0.40164 1.11312 1.10232
 H444 H 0.44100 1.08710 1.08152
 H445 H 0.38184 1.03411 1.03618
 H446 H 0.34286 1.06024 1.05657
 C447 C 0.27986 0.83446 0.86011
 C448 C 0.30480 0.84473 0.87223
 C449 C 0.30872 0.87380 0.87624
 C450 C 0.28764 0.89253 0.86679
 C451 C 0.26276 0.88227 0.85462
 C452 C 0.25845 0.85312 0.85143
 C453 C 0.33503 0.88385 0.89003
 C454 C 0.33634 0.90803 0.90478
 C455 C 0.36206 0.91836 0.91948
 C456 C 0.35893 0.93856 0.94097
 C457 C 0.38246 0.94970 0.95488
 C458 C 0.40983 0.94105 0.94746
 C459 C 0.41304 0.92075 0.92597
 C460 C 0.38943 0.90958 0.91203
 H461 H 0.27733 0.81191 0.85748
 H462 H 0.32087 0.82989 0.87895
 H463 H 0.29029 0.91513 0.86858
 H464 H 0.24662 0.89718 0.84822
 H465 H 0.35315 0.86998 0.88942
 H466 H 0.31733 0.92037 0.90752
 H467 H 0.33814 0.94582 0.94704
 H468 H 0.37914 0.96530 0.97131
 H469 H 0.43382 0.91379 0.91958
 H470 H 0.39285 0.89466 0.89505
 C471 C 0.74493 0.84656 1.11652
 C472 C 0.72265 0.85978 1.10232
 C473 C 0.70285 0.87589 1.11715
 C474 C 0.70607 0.87905 1.14658
 C475 C 0.72846 0.86603 1.16086
 C476 C 0.74839 0.84939 1.14616
 C477 C 0.67988 0.88993 1.10107
 C478 C 0.65494 0.89680 1.11246
 C479 C 0.63202 0.91058 1.09610
 C480 C 0.60398 0.90661 1.10456
 C481 C 0.58181 0.91940 1.08972
 C482 C 0.58728 0.93678 1.06626
 C483 C 0.61544 0.94112 1.05808
 C484 C 0.63756 0.92823 1.07284
 H485 H 0.76004 0.83520 1.10376
 H486 H 0.72093 0.85744 1.07953
 H487 H 0.69158 0.89187 1.15869
 H488 H 0.72932 0.86840 1.18363
 H489 H 0.68328 0.89333 1.07867
 H490 H 0.65042 0.89084 1.13410
 H491 H 0.59918 0.89336 1.12259
 H492 H 0.56041 0.91576 1.09674
 H493 H 0.62047 0.95459 1.04029
 H494 H 0.65894 0.93257 1.06626
 C495 C 0.72395 1.15731 0.87280
 C496 C 0.69990 1.14537 0.88481
 C497 C 0.69498 1.11632 0.88296
 C498 C 0.71428 1.09940 0.86816
 C499 C 0.73827 1.11130 0.85593
 C500 C 0.74376 1.14053 0.85811
 C501 C 0.66917 1.10462 0.89600
 C502 C 0.66720 1.07794 0.90515
 C503 C 0.64166 1.06664 0.91905
 C504 C 0.64458 1.04427 0.93825
 C505 C 0.62102 1.03317 0.95195
 C506 C 0.59391 1.04400 0.94640
 C507 C 0.59093 1.06601 0.92669
 C508 C 0.61453 1.07721 0.91313
 H509 H 0.72614 1.17998 0.87418
 H510 H 0.68507 1.15895 0.89567
 H511 H 0.71083 1.07697 0.86569
 H512 H 0.75291 1.09709 0.84573
 H513 H 0.65188 1.11909 0.89968
 H514 H 0.68546 1.06425 0.90411
 H515 H 0.66522 1.03556 0.94293
 H516 H 0.62407 1.01604 0.96681
 H517 H 0.57034 1.07467 0.92174
 H518 H 0.61135 1.09381 0.89773
 C519 C 0.13902 0.27801 0.15588
 C520 C 0.12778 0.30272 0.14434
 C521 C 0.12522 0.30593 0.11490
 C522 C 0.13517 0.28428 0.09711
 C523 C 0.14650 0.25958 0.10866
 C524 C 0.14824 0.25605 0.13816
 C525 C 0.11238 0.33215 0.10363
 C526 C 0.09915 0.33342 0.07848
 C527 C 0.08495 0.35917 0.06771
 C528 C 0.06348 0.35620 0.04736
 C529 C 0.04952 0.37985 0.03658
 C530 C 0.05691 0.40711 0.04576
 C531 C 0.07870 0.41013 0.06585
 C532 C 0.09264 0.38645 0.07666
 H533 H 0.14055 0.27607 0.17869
 H534 H 0.12064 0.31923 0.15850
 H535 H 0.13442 0.28634 0.07430
 H536 H 0.15342 0.24301 0.09449
 H537 H 0.11220 0.35034 0.11751
 H538 H 0.09698 0.31444 0.06589
 H539 H 0.05733 0.33547 0.03990
 H540 H 0.03301 0.37672 0.02095
 H541 H 0.08515 0.43082 0.07315
 H542 H 0.10970 0.38971 0.09159
 C543 C -0.14290 0.25148 -0.11107
 C544 C -0.12989 0.27429 -0.09762
 C545 C -0.11986 0.29722 -0.11337
 C546 C -0.12271 0.29666 -0.14309
 C547 C -0.13567 0.27374 -0.15657
 C548 C -0.14597 0.25095 -0.14068
 C549 C -0.10555 0.32052 -0.09805
 C550 C -0.10284 0.34673 -0.10836
 C551 C -0.08839 0.36969 -0.09260
 C552 C -0.09537 0.39781 -0.09870
 C553 C -0.08192 0.42001 -0.08451
 C554 C -0.06097 0.41451 -0.06406
 C555 C -0.05381 0.38633 -0.05815
 C556 C -0.06724 0.36419 -0.07232
 H557 H -0.15014 0.23399 -0.09829
 H558 H -0.12766 0.27401 -0.07476
 H559 H -0.11452 0.31353 -0.15606
 H560 H -0.13776 0.27389 -0.17943
 H561 H -0.09813 0.31600 -0.07680
 H562 H -0.11261 0.35211 -0.12840
 H563 H -0.11139 0.40263 -0.11442
 H564 H -0.08786 0.44146 -0.08971
 H565 H -0.03756 0.38128 -0.04276
 H566 H -0.06050 0.34288 -0.06770
 C567 C 0.10835 0.75467 -0.13468
 C568 C 0.09460 0.73209 -0.12177
 C569 C 0.10952 0.70764 -0.11421
 C570 C 0.13876 0.70651 -0.11919
 C571 C 0.15252 0.72914 -0.13209
 C572 C 0.13743 0.75339 -0.14012
 C573 C 0.09399 0.68431 -0.10044
 C574 C 0.10281 0.65742 -0.10063
 C575 C 0.08706 0.63410 -0.08707
 C576 C 0.09194 0.60637 -0.09627
 C577 C 0.07788 0.58371 -0.08377
 C578 C 0.05872 0.58831 -0.06160
 C579 C 0.05398 0.61607 -0.05224
 C580 C 0.06807 0.63870 -0.06471
 H581 H 0.09625 0.77329 -0.14015
 H582 H 0.07216 0.73366 -0.11782
 H583 H 0.15121 0.68845 -0.11285
 H584 H 0.17495 0.72756 -0.13605
 H585 H 0.07382 0.68947 -0.09114
 H586 H 0.12160 0.65181 -0.11229
 H587 H 0.10663 0.60221 -0.11328
 H588 H 0.08212 0.56260 -0.09143
 H589 H 0.03961 0.62038 -0.03499
 H590 H 0.06442 0.65959 -0.05628
 C591 C -0.16234 0.71342 0.14305
 C592 C -0.15020 0.68959 0.13064
 C593 C -0.12079 0.68702 0.12863
 C594 C -0.10366 0.70841 0.14024
 C595 C -0.11582 0.73221 0.15276
 C596 C -0.14529 0.73510 0.15404
 C597 C -0.10890 0.66163 0.11472
 C598 C -0.08345 0.66115 0.10242
 C599 C -0.07216 0.63620 0.08722
 C600 C -0.05148 0.64032 0.06647
 C601 C -0.04042 0.61745 0.05147
 C602 C -0.04963 0.58983 0.05709
 C603 C -0.06996 0.58564 0.07825
 C604 C -0.08105 0.60853 0.09322
 H605 H -0.18511 0.71484 0.14417
 H606 H -0.16386 0.67327 0.12221
 H607 H -0.08091 0.70680 0.13995
 H608 H -0.10215 0.74860 0.16101
 H609 H -0.12253 0.64340 0.11298
 H610 H -0.07098 0.68025 0.10177
 H611 H -0.04405 0.66137 0.06163
 H612 H -0.02463 0.62147 0.03548
 H613 H -0.07730 0.56464 0.08336
 H614 H -0.09622 0.60434 0.10972
 C615 C 1.11541 0.14600 0.74530
 C616 C 1.10151 0.13273 0.72281
 C617 C 1.11614 0.11490 0.70435
 C618 C 1.14500 0.11004 0.70917
 C619 C 1.15894 0.12307 0.73185
 C620 C 1.14448 0.14148 0.75037
 C621 C 1.10040 0.10106 0.68101
 C622 C 1.11238 0.09303 0.65662
 C623 C 1.09610 0.08011 0.63310
 C624 C 1.10527 0.08403 0.60518
 C625 C 1.09015 0.07252 0.58245
 C626 C 1.06570 0.05647 0.58724
 C627 C 1.05694 0.05194 0.61530
 C628 C 1.07197 0.06361 0.63798
 H629 H 1.10276 0.15879 0.75936
 H630 H 1.07913 0.13643 0.71983
 H631 H 1.15685 0.09590 0.69572
 H632 H 1.18135 0.11930 0.73401
 H633 H 1.07779 0.09903 0.68345
 H634 H 1.13441 0.09766 0.65291
 H635 H 1.12398 0.09640 0.60092
 H636 H 1.09763 0.07621 0.56114
 H637 H 1.03838 0.03944 0.61980
 H638 H 1.06482 0.05935 0.65928
 C639 C 0.86804 -0.16035 0.71938
 C640 C 0.87933 -0.14843 0.69484
 C641 C 0.87817 -0.11926 0.69032
 C642 C 0.86472 -0.10222 0.71052
 C643 C 0.85318 -0.11407 0.73495
 C644 C 0.85468 -0.14343 0.74006
 C645 C 0.89062 -0.10737 0.66416
 C646 C 0.90130 -0.08121 0.66292
 C647 C 0.91490 -0.06942 0.63734
 C648 C 0.93560 -0.04858 0.64081
 C649 C 0.94894 -0.03679 0.61734
 C650 C 0.94148 -0.04516 0.58969
 C651 C 0.92039 -0.06575 0.58616
 C652 C 0.90725 -0.07780 0.60973
 H653 H 0.86891 -0.18306 0.72132
 H654 H 0.88918 -0.16209 0.67935
 H655 H 0.86283 -0.07968 0.70746
 H656 H 0.84409 -0.09974 0.75023
 H657 H 0.89263 -0.12126 0.64605
 H658 H 0.90185 -0.06840 0.68193
 H659 H 0.94174 -0.04163 0.66183
 H660 H 0.96515 -0.02110 0.62094
 H661 H 0.91406 -0.07261 0.56518
 H662 H 0.89083 -0.09328 0.60624
 C663 C 1.16309 -0.14104 0.28308
 C664 C 1.15112 -0.12880 0.30717
 C665 C 1.12190 -0.12428 0.30874
 C666 C 1.10475 -0.13292 0.28589
 C667 C 1.11672 -0.14512 0.26181
 C668 C 1.14602 -0.14925 0.26008
 C669 C 1.11011 -0.11112 0.33466
 C670 C 1.08535 -0.09739 0.33506
 C671 C 1.07374 -0.08339 0.36059
 C672 C 1.05363 -0.06196 0.35689
 C673 C 1.04208 -0.04810 0.38023
 C674 C 1.05021 -0.05551 0.40794
 C675 C 1.06996 -0.07734 0.41171
 C676 C 1.08156 -0.09120 0.38832
 H677 H 1.18568 -0.14438 0.28260
 H678 H 1.16478 -0.12267 0.32459
 H679 H 1.08206 -0.13070 0.28656
 H680 H 1.10300 -0.15109 0.24440
 H681 H 1.12317 -0.11149 0.35352
 H682 H 1.07360 -0.09476 0.31552
 H683 H 1.04701 -0.05572 0.33581
 H684 H 1.02679 -0.03151 0.37648
 H685 H 1.07650 -0.08375 0.43276
 H686 H 1.09628 -0.10823 0.39214
 C687 C 0.83156 0.14454 0.28300
 C688 C 0.84397 0.13284 0.30719
 C689 C 0.87299 0.13542 0.31213
 C690 C 0.88931 0.15091 0.29289
 C691 C 0.87693 0.16290 0.26880
 C692 C 0.84779 0.15967 0.26309
 C693 C 0.88539 0.12210 0.33771
 C694 C 0.91205 0.11265 0.33879
 C695 C 0.92404 0.09775 0.36368
 C696 C 0.94594 0.07832 0.35943
 C697 C 0.95771 0.06368 0.38226
 C698 C 0.94813 0.06847 0.41001
 C699 C 0.92656 0.08837 0.41436
 C700 C 0.91461 0.10285 0.39144
 H701 H 0.80895 0.14241 0.28067
 H702 H 0.83083 0.12147 0.32201
 H703 H 0.91168 0.15394 0.29640
 H704 H 0.89073 0.17359 0.25415
 H705 H 0.87143 0.11814 0.35535
 H706 H 0.92510 0.11404 0.32009
 H707 H 0.95375 0.07421 0.33829
 H708 H 0.97444 0.04868 0.37814
 H709 H 0.91883 0.09271 0.43547
 H710 H 0.89834 0.11830 0.39562
 C711 C 0.17068 0.27714 -0.13124
 C712 C 0.15948 0.30195 -0.11980
 C713 C 0.13077 0.30828 -0.12288
 C714 C 0.11359 0.28980 -0.13854
 C715 C 0.12470 0.26510 -0.15010
 C716 C 0.15349 0.25803 -0.14656
 C717 C 0.11942 0.33440 -0.10991
 C718 C 0.09262 0.33651 -0.10116
 C719 C 0.08070 0.36199 -0.08751
 C720 C 0.05701 0.35883 -0.07016
 C721 C 0.04453 0.38221 -0.05735
 C722 C 0.05528 0.40947 -0.06187
 C723 C 0.07891 0.41273 -0.07945
 C724 C 0.09152 0.38923 -0.09217
 H725 H 0.19311 0.27370 -0.12876
 H726 H 0.17328 0.31615 -0.10827
 H727 H 0.09148 0.29435 -0.14204
 H728 H 0.11008 0.25111 -0.16074
 H729 H 0.13400 0.35153 -0.10596
 H730 H 0.07899 0.31824 -0.10260
 H731 H 0.04813 0.33812 -0.06642
 H732 H 0.02629 0.37887 -0.04405
 H733 H 0.08763 0.43344 -0.08347
 H734 H 0.10928 0.39259 -0.10605
 C735 C -0.14420 0.28943 0.16483
 C736 C -0.13232 0.31314 0.15198
 C737 C -0.12962 0.31459 0.12242
 C738 C -0.13980 0.29202 0.10586
 C739 C -0.15167 0.26830 0.11872
 C740 C -0.15388 0.26665 0.14836
 C741 C -0.11660 0.34010 0.10977
 C742 C -0.10455 0.34033 0.08409
 C743 C -0.09034 0.36537 0.07183
 C744 C -0.07046 0.36113 0.05032
 C745 C -0.05635 0.38393 0.03820
 C746 C -0.06195 0.41168 0.04716
 C747 C -0.08227 0.41604 0.06832
 C748 C -0.09639 0.39316 0.08048
 H749 H -0.14606 0.28904 0.18768
 H750 H -0.12500 0.33034 0.16524
 H751 H -0.13900 0.29262 0.08298
 H752 H -0.15884 0.25108 0.10543
 H753 H -0.11548 0.35876 0.12296
 H754 H -0.10340 0.32095 0.07203
 H755 H -0.06559 0.34000 0.04303
 H756 H -0.04098 0.37974 0.02182
 H757 H -0.08730 0.43713 0.07553
 H758 H -0.11222 0.39746 0.09632
 C759 C -0.16258 0.72604 -0.13494
 C760 C -0.15113 0.70157 -0.12307
 C761 C -0.12253 0.69508 -0.12638
 C762 C -0.10568 0.71313 -0.14270
 C763 C -0.11713 0.73750 -0.15490
 C764 C -0.14581 0.74471 -0.15100
 C765 C -0.11125 0.66905 -0.11311
 C766 C -0.08432 0.66628 -0.10469
 C767 C -0.07337 0.64070 -0.09028
 C768 C -0.05019 0.64332 -0.07185
 C769 C -0.03922 0.61972 -0.05789
 C770 C -0.05095 0.59282 -0.06239
 C771 C -0.07387 0.59012 -0.08122
 C772 C -0.08498 0.61378 -0.09501
 H773 H -0.18496 0.72953 -0.13224
 H774 H -0.16471 0.68771 -0.11104
 H775 H -0.08364 0.70843 -0.14631
 H776 H -0.10292 0.75116 -0.16633
 H777 H -0.12618 0.65243 -0.10847
 H778 H -0.07008 0.68400 -0.10673
 H779 H -0.04068 0.66376 -0.06806
 H780 H -0.02137 0.62254 -0.04376
 H781 H -0.08327 0.56970 -0.08533
 H782 H -0.10230 0.61080 -0.10972
 C783 C 0.11006 0.74296 0.14576
 C784 C 0.09589 0.72099 0.13205
 C785 C 0.11072 0.70091 0.11626
 C786 C 0.14011 0.70362 0.11381
 C787 C 0.15436 0.72576 0.12728
 C788 C 0.13967 0.74585 0.14375
 C789 C 0.09471 0.67815 0.10186
 C790 C 0.10579 0.65283 0.09577
 C791 C 0.08952 0.63002 0.08173
 C792 C 0.09750 0.60188 0.08635
 C793 C 0.08294 0.57981 0.07314
 C794 C 0.06028 0.58545 0.05466
 C795 C 0.05245 0.61367 0.04984
 C796 C 0.06691 0.63571 0.06317
 H797 H 0.09733 0.75829 0.15688
 H798 H 0.07315 0.71967 0.13382
 H799 H 0.15221 0.68889 0.10122
 H800 H 0.17709 0.72625 0.12546
 H801 H 0.07257 0.68200 0.09762
 H802 H 0.12709 0.64796 0.10258
 H803 H 0.11500 0.59696 0.10035
 H804 H 0.08966 0.55835 0.07719
 H805 H 0.03522 0.61881 0.03559
 H806 H 0.06068 0.65714 0.05837
 C807 C 0.25381 1.10983 0.86648
 C808 C 0.27578 1.09590 0.88047
 C809 C 0.29956 1.11079 0.89006
 C810 C 0.30065 1.14017 0.88583
 C811 C 0.27863 1.15413 0.87185
 C812 C 0.25501 1.13910 0.86195
 C813 C 0.32217 1.09502 0.90505
 C814 C 0.34889 1.10411 0.90723
 C815 C 0.37152 1.08780 0.92160
 C816 C 0.39967 1.09284 0.91408
 C817 C 0.42163 1.07788 0.92701
 C818 C 0.41594 1.05764 0.94796
 C819 C 0.38776 1.05296 0.95588
 C820 C 0.36581 1.06793 0.94295
 H821 H 0.23566 1.09775 0.85958
 H822 H 0.27422 1.07334 0.88374
 H823 H 0.31817 1.15259 0.89364
 H824 H 0.28017 1.17668 0.86863
 H825 H 0.31672 1.07442 0.91320
 H826 H 0.35503 1.12343 0.89676
 H827 H 0.40467 1.10823 0.89792
 H828 H 0.44308 1.08215 0.92049
 H829 H 0.38261 1.03781 0.97221
 H830 H 0.34452 1.06415 0.95011
 C831 C 0.28107 0.85572 1.16791
 C832 C 0.30541 0.86768 1.15645
 C833 C 0.30765 0.87218 1.12716
 C834 C 0.28527 0.86362 1.10940
 C835 C 0.26094 0.85161 1.12087
 C836 C 0.25848 0.84771 1.15027
 C837 C 0.33378 0.88521 1.11598
 C838 C 0.33477 0.89928 1.09134
 C839 C 0.36061 0.91306 1.08034
 C840 C 0.35764 0.93464 1.06023
 C841 C 0.38132 0.94800 1.04897
 C842 C 0.40865 0.93992 1.05741
 C843 C 0.41167 0.91811 1.07736
 C844 C 0.38795 0.90475 1.08865
 H845 H 0.28000 0.85255 1.19059
 H846 H 0.32247 0.87371 1.17056
 H847 H 0.28650 0.86585 1.08665
 H848 H 0.24387 0.84573 1.10673
 H849 H 0.35230 0.88449 1.12945
 H850 H 0.31556 0.90223 1.07922
 H851 H 0.33687 0.94130 1.05326
 H852 H 0.37814 0.96460 1.03353
 H853 H 0.43239 0.91114 1.08413
 H854 H 0.39124 0.88760 1.10339
 C855 C 0.71558 1.16797 1.13969
 C856 C 0.69221 1.15442 1.12768
 C857 C 0.69095 1.12486 1.12631
 C858 C 0.71343 1.10906 1.13774
 C859 C 0.73679 1.12261 1.14976
 C860 C 0.73815 1.15222 1.15085
 C861 C 0.66555 1.11144 1.11368
 C862 C 0.66524 1.08511 1.10317
 C863 C 0.63992 1.07205 1.09003
 C864 C 0.64357 1.04997 1.07056
 C865 C 0.62030 1.03727 1.05747
 C866 C 0.59275 1.04623 1.06378
 C867 C 0.58905 1.06788 1.08382
 C868 C 0.61233 1.08060 1.09687
 H869 H 0.71579 1.19080 1.14062
 H870 H 0.67507 1.16711 1.11935
 H871 H 0.71298 1.08626 1.13792
 H872 H 0.75391 1.10989 1.15805
 H873 H 0.64686 1.12444 1.11174
 H874 H 0.68460 1.07303 1.10260
 H875 H 0.66456 1.04274 1.06517
 H876 H 0.62396 1.02053 1.04229
 H877 H 0.56813 1.07512 1.08941
 H878 H 0.60855 1.09683 1.11252
 C879 C 0.75035 0.89100 0.86023
 C880 C 0.72813 0.90433 0.87429
 C881 C 0.70547 0.88861 0.88495
 C882 C 0.70575 0.85908 0.88168
 C883 C 0.72800 0.84576 0.86766
 C884 C 0.75054 0.86155 0.85675
 C885 C 0.68260 0.90363 0.90017
 C886 C 0.65643 0.89325 0.90307
 C887 C 0.63350 0.90831 0.91814
 C888 C 0.60541 0.90141 0.91169
 C889 C 0.58314 0.91478 0.92561
 C890 C 0.58846 0.93523 0.94656
 C891 C 0.61662 0.94191 0.95328
 C892 C 0.63889 0.92857 0.93931
 H893 H 0.76764 0.90371 0.85249
 H894 H 0.72863 0.92704 0.87681
 H895 H 0.68916 0.84608 0.89032
 H896 H 0.72749 0.82305 0.86522
 H897 H 0.68732 0.92457 0.90801
 H898 H 0.65096 0.87353 0.89287
 H899 H 0.60067 0.88570 0.89568
 H900 H 0.56174 0.90901 0.91995
 H901 H 0.62152 0.95740 0.96946
 H902 H 0.66022 0.93385 0.94559
   
