data_POSCAR
  _audit_creation_date              2014-09-24
  _audit_creation_method            'ToBaCCo'
  _symmetry_space_group_name_H-M    'P1'
  _symmetry_Int_Tables_number       1
  _symmetry_cell_setting            triclinic
  loop_
  _symmetry_equiv_pos_as_xyz
 x,y,z
_cell_length_a 34.7287
_cell_length_b 34.5710
_cell_length_c 34.5958
_cell_angle_alpha 90.178100
_cell_angle_beta 90.151800
_cell_angle_gamma 90.196100
loop_
  _atom_site_label
  _atom_site_type_symbol
  _atom_site_fract_x
  _atom_site_fract_y
  _atom_site_fract_z
C1 C 0.70032 0.69884 0.98464
 H2 H 0.72681 0.71486 0.98878
 C3 C 0.66744 0.71762 0.97064
 H4 H 0.66975 0.74795 0.96374
 C5 C 0.66700 0.63895 0.98506
 H6 H 0.66744 0.60804 0.98980
 C7 C 0.63356 0.65650 0.97174
 H8 H 0.60849 0.63869 0.96584
 N9 N 0.69955 0.66007 0.99098
 C10 C 0.82124 0.65029 0.99395
 H11 H 0.82091 0.62801 0.97198
 C12 C 0.85636 0.66715 1.00465
 H13 H 0.88213 0.65731 0.99038
 C14 C 0.78818 0.68671 1.04138
 H15 H 0.76171 0.69313 1.05648
 C16 C 0.82257 0.70440 1.05288
 H17 H 0.82215 0.72453 1.07692
 Zn18 Zn 0.74297 0.62997 1.00437
 N19 N 0.78819 0.65974 1.01279
 C20 C 0.75346 0.61747 0.92753
 N21 N 0.75091 0.59745 0.96114
 C22 C 0.75556 0.55842 0.96194
 C23 C 0.76642 0.53857 0.92835
 C24 C 0.76351 0.59886 0.89339
 C25 C 0.70224 0.61830 1.07183
 C26 C 0.69084 0.60129 1.10618
 C27 C 0.74158 0.55427 1.09897
 C28 C 0.75237 0.57279 1.06455
 N29 N 0.73171 0.60332 1.05100
 H30 H 0.74944 0.64848 0.92768
 H31 H 0.75260 0.54284 0.98874
 H32 H 0.77274 0.50812 0.93063
 H33 H 0.76769 0.61598 0.86757
 H34 H 0.68734 0.64376 1.06193
 H35 H 0.66638 0.61347 1.12127
 H36 H 0.75767 0.52911 1.10768
 H37 H 0.77696 0.56246 1.04850
 C38 C 0.85759 0.69417 1.03511
 C39 C 0.63337 0.69628 0.96362
 C40 C 0.70988 0.56822 1.12040
 C41 C 0.77147 0.55906 0.89351
 C42 C 0.71224 0.30937 0.52672
 H43 H 0.73982 0.29676 0.53375
 C44 C 0.67838 0.29129 0.53899
 H45 H 0.68036 0.26428 0.55461
 C46 C 0.67635 0.36079 0.49980
 H47 H 0.67563 0.38828 0.48512
 C48 C 0.64191 0.34384 0.51171
 H49 H 0.61533 0.35823 0.50447
 N50 N 0.71066 0.34424 0.50875
 C51 C 0.83468 0.35825 0.50669
 H52 H 0.83619 0.38516 0.52252
 C53 C 0.86874 0.34004 0.49556
 H54 H 0.89576 0.35395 0.50267
 C55 C 0.79740 0.31064 0.47436
 H56 H 0.76956 0.30038 0.46460
 C57 C 0.83070 0.29143 0.46270
 H58 H 0.82791 0.26659 0.44376
 Zn59 Zn 0.75552 0.37485 0.50230
 N60 N 0.79996 0.34390 0.49526
 C61 C 0.78279 0.43861 0.54606
 N62 N 0.76171 0.40548 0.54729
 C63 C 0.74774 0.39166 0.58126
 C64 C 0.75634 0.41030 0.61606
 C65 C 0.79194 0.45829 0.58015
 C66 C 0.75872 0.39120 0.42312
 C67 C 0.74675 0.40897 0.38904
 C68 C 0.71745 0.45932 0.42722
 C69 C 0.72990 0.44051 0.46065
 N70 N 0.74868 0.40617 0.45801
 H71 H 0.79415 0.44866 0.51878
 H72 H 0.73156 0.36494 0.58170
 H73 H 0.74708 0.39685 0.64260
 H74 H 0.81084 0.48321 0.57869
 H75 H 0.77434 0.36431 0.42155
 H76 H 0.75481 0.39580 0.36193
 H77 H 0.70098 0.48571 0.43002
 H78 H 0.72237 0.45204 0.48871
 C79 C 0.86720 0.30634 0.47270
 C80 C 0.64269 0.30997 0.53411
 C81 C 0.72314 0.44192 0.39081
 C82 C 0.77924 0.44392 0.61601
 C83 C 0.20523 -0.18059 0.03060
 H84 H 0.23250 -0.18684 0.04438
 C85 C 0.17160 -0.19832 0.04376
 H86 H 0.17340 -0.21837 0.06769
 C87 C 0.16952 -0.14453 -0.01510
 H88 H 0.16864 -0.12239 -0.03707
 C89 C 0.13507 -0.16138 -0.00263
 H90 H 0.10855 -0.15175 -0.01564
 N91 N 0.20357 -0.15377 0.00209
 C92 C 0.32325 -0.13238 -0.02995
 H93 H 0.32240 -0.10131 -0.02625
 C94 C 0.35699 -0.15003 -0.04226
 H95 H 0.38188 -0.13219 -0.04853
 C96 C 0.29096 -0.19278 -0.02768
 H97 H 0.26486 -0.20908 -0.02252
 C98 C 0.32418 -0.21173 -0.04057
 H99 H 0.32247 -0.24248 -0.04567
 Zn100 Zn 0.24812 -0.12380 -0.00809
 N101 N 0.29115 -0.15375 -0.02292
 C102 C 0.29117 -0.11332 0.05809
 N103 N 0.26142 -0.09732 0.03832
 C104 C 0.24184 -0.06656 0.05310
 C105 C 0.25406 -0.04900 0.08774
 C106 C 0.30394 -0.09720 0.09252
 C107 C 0.23467 -0.11163 -0.08438
 C108 C 0.22418 -0.09315 -0.11839
 C109 C 0.22228 -0.03264 -0.08331
 C110 C 0.23363 -0.05244 -0.04992
 N111 N 0.23825 -0.09144 -0.05087
 H112 H 0.30509 -0.13905 0.04740
 H113 H 0.21688 -0.05552 0.03807
 H114 H 0.23879 -0.02394 0.09821
 H115 H 0.32833 -0.11018 0.10707
 H116 H 0.23855 -0.14267 -0.08431
 H117 H 0.21951 -0.11064 -0.14402
 H118 H 0.21605 -0.00219 -0.08052
 H119 H 0.23717 -0.03678 -0.02311
 C120 C 0.35796 -0.19022 -0.04818
 C121 C 0.13561 -0.18816 0.02790
 C122 C 0.21687 -0.05303 -0.11851
 C123 C 0.28603 -0.06414 0.10767
 C124 C 0.21281 0.18843 0.45835
 H125 H 0.23970 0.19387 0.44358
 C126 C 0.17913 0.20672 0.44602
 H127 H 0.18049 0.22641 0.42178
 C128 C 0.17782 0.15366 0.50557
 H129 H 0.17698 0.13174 0.52771
 C130 C 0.14349 0.17098 0.49400
 H131 H 0.11739 0.16175 0.50804
 N132 N 0.21142 0.16192 0.48719
 C133 C 0.32784 0.13330 0.52270
 H134 H 0.32269 0.10241 0.52257
 C135 C 0.36299 0.14762 0.53549
 H136 H 0.38359 0.12709 0.54653
 C137 C 0.30459 0.19664 0.51169
 H138 H 0.28134 0.21548 0.50306
 C139 C 0.33991 0.21239 0.52393
 H140 H 0.34328 0.24350 0.52536
 Zn141 Zn 0.25452 0.13010 0.49705
 N142 N 0.29943 0.15763 0.51140
 C143 C 0.29722 0.11549 0.43168
 N144 N 0.26581 0.10234 0.45096
 C145 C 0.24376 0.07313 0.43613
 C146 C 0.25480 0.05422 0.40188
 C147 C 0.30884 0.09806 0.39759
 C148 C 0.24079 0.11857 0.57375
 C149 C 0.22943 0.10034 0.60762
 C150 C 0.22521 0.04005 0.57239
 C151 C 0.23719 0.05953 0.53905
 N152 N 0.24339 0.09837 0.54013
 H153 H 0.31345 0.13988 0.44252
 H154 H 0.21783 0.06425 0.45095
 H155 H 0.23756 0.03034 0.39138
 H156 H 0.33453 0.10876 0.38342
 H157 H 0.24606 0.14943 0.57380
 H158 H 0.22546 0.11763 0.63346
 H159 H 0.21795 0.00976 0.56992
 H160 H 0.24005 0.04383 0.51220
 C161 C 0.36995 0.18772 0.53582
 C162 C 0.14350 0.19728 0.46308
 C163 C 0.22055 0.06068 0.60732
 C164 C 0.28824 0.06645 0.38241
 C165 C 0.19140 0.47606 0.20524
 H166 H 0.20571 0.47672 0.23304
 C167 C 0.21108 0.46280 0.17251
 H168 H 0.24024 0.45265 0.17612
 C169 C 0.13471 0.48503 0.16819
 H170 H 0.10460 0.49288 0.16701
 C171 C 0.15322 0.47227 0.13487
 H172 H 0.13680 0.46978 0.10833
 N173 N 0.15372 0.48617 0.20254
 C174 C 0.14645 0.48940 0.32403
 H175 H 0.12618 0.46569 0.32380
 C176 C 0.16326 0.50062 0.35915
 H177 H 0.15487 0.48539 0.38497
 C178 C 0.18037 0.53836 0.29071
 H179 H 0.18683 0.55335 0.26421
 C180 C 0.19798 0.55036 0.32502
 H181 H 0.21746 0.57489 0.32437
 Zn182 Zn 0.12336 0.50011 0.24565
 N183 N 0.15394 0.50930 0.29092
 C184 C 0.06106 0.46270 0.28332
 N185 N 0.08879 0.45860 0.25599
 C186 C 0.09618 0.42341 0.23991
 C187 C 0.07805 0.39017 0.25390
 C188 C 0.04177 0.43032 0.29760
 C189 C 0.12111 0.57397 0.21602
 C190 C 0.10627 0.60895 0.20310
 C191 C 0.04308 0.58788 0.22283
 C192 C 0.05919 0.55287 0.23508
 N193 N 0.09778 0.54679 0.23198
 H194 H 0.05593 0.49069 0.29627
 H195 H 0.11819 0.42054 0.21809
 H196 H 0.08577 0.36234 0.24185
 H197 H 0.02025 0.43468 0.31968
 H198 H 0.15123 0.56779 0.21158
 H199 H 0.12556 0.62868 0.18855
 H200 H 0.01219 0.59159 0.22434
 H201 H 0.04057 0.53042 0.24595
 C202 C 0.18863 0.53238 0.36025
 C203 C 0.19194 0.46065 0.13652
 C204 C 0.06680 0.61691 0.20709
 C205 C 0.05251 0.39299 0.28523
 C206 C -0.18333 0.04128 0.21354
 H207 H -0.18963 0.05237 0.24210
 C208 C -0.20183 0.05684 0.18127
 H209 H -0.22350 0.07866 0.18625
 C210 C -0.14817 -0.00151 0.17366
 H211 H -0.12654 -0.02366 0.17056
 C212 C -0.16578 0.01337 0.14059
 H213 H -0.15812 0.00130 0.11275
 N214 N -0.15632 0.01336 0.20915
 C215 C -0.13448 -0.02574 0.32702
 H216 H -0.10348 -0.02269 0.32618
 C217 C -0.15223 -0.03940 0.36030
 H218 H -0.13454 -0.04722 0.38488
 C219 C -0.19465 -0.02064 0.29511
 H220 H -0.21086 -0.01400 0.26927
 C221 C -0.21369 -0.03480 0.32784
 H222 H -0.24442 -0.03906 0.32606
 Zn223 Zn -0.12587 -0.00076 0.25242
 N224 N -0.15570 -0.01663 0.29532
 C225 C -0.11151 0.06322 0.29812
 N226 N -0.09693 0.04365 0.26740
 C227 C -0.06627 0.05785 0.24737
 C228 C -0.04809 0.09232 0.25931
 C229 C -0.09454 0.09734 0.31082
 C230 C -0.11968 -0.07507 0.23028
 C231 C -0.10438 -0.10965 0.21703
 C232 C -0.04066 -0.08249 0.22463
 C233 C -0.05744 -0.04782 0.23741
 N234 N -0.09643 -0.04469 0.23914
 H235 H -0.13695 0.05281 0.31264
 H236 H -0.05598 0.04258 0.22212
 H237 H -0.02332 0.10248 0.24346
 H238 H -0.10652 0.11183 0.33584
 H239 H -0.15059 -0.07168 0.23187
 H240 H -0.12446 -0.13158 0.20747
 H241 H -0.00969 -0.08411 0.22164
 H242 H -0.03941 -0.02339 0.24498
 C243 C -0.19236 -0.04461 0.36117
 C244 C -0.19107 0.04510 0.14355
 C245 C -0.06425 -0.11412 0.21397
 C246 C -0.06228 0.11255 0.29168
 C247 C 0.31744 0.53218 0.70738
 H248 H 0.31163 0.54622 0.73473
 C249 C 0.29898 0.54477 0.67386
 H250 H 0.27884 0.56855 0.67584
 C251 C 0.35310 0.48642 0.67129
 H252 H 0.37537 0.46470 0.67017
 C253 C 0.33551 0.49835 0.63693
 H254 H 0.34475 0.48519 0.61022
 N255 N 0.34437 0.50390 0.70546
 C256 C 0.36670 0.47465 0.82626
 H257 H 0.39758 0.47877 0.82551
 C258 C 0.34908 0.46253 0.86023
 H259 H 0.36678 0.45681 0.88538
 C260 C 0.30678 0.47524 0.79344
 H261 H 0.29066 0.47948 0.76703
 C262 C 0.28792 0.46251 0.82684
 H263 H 0.25746 0.45658 0.82491
 Zn264 Zn 0.37493 0.49457 0.74986
 N265 N 0.34554 0.48070 0.79376
 C266 C 0.38694 0.56182 0.79119
 N267 N 0.40181 0.54117 0.76137
 C268 C 0.43190 0.55522 0.74034
 C269 C 0.45001 0.59006 0.75114
 C270 C 0.40357 0.59651 0.80252
 C271 C 0.38737 0.41802 0.73592
 C272 C 0.40634 0.38434 0.72515
 C273 C 0.46629 0.41996 0.72534
 C274 C 0.44607 0.45304 0.73675
 N275 N 0.40712 0.45172 0.74030
 H276 H 0.36173 0.55161 0.80626
 H277 H 0.44203 0.53939 0.71538
 H278 H 0.47457 0.59998 0.73480
 H279 H 0.39150 0.61183 0.82700
 H280 H 0.35640 0.41776 0.73926
 H281 H 0.38957 0.35842 0.71967
 H282 H 0.49679 0.42273 0.72015
 H283 H 0.46140 0.47988 0.74129
 C284 C 0.30917 0.45580 0.86101
 C285 C 0.30854 0.52860 0.63771
 C286 C 0.44622 0.38504 0.71852
 C287 C 0.43607 0.61093 0.78313
 C288 C 0.69094 0.95989 0.70874
 H289 H 0.69595 0.94555 0.73603
 C290 C 0.70808 0.94578 0.67505
 H291 H 0.72659 0.92069 0.67687
 C292 C 0.65803 1.00766 0.67274
 H293 H 0.63719 1.03073 0.67157
 C294 C 0.67426 0.99430 0.63835
 H295 H 0.66551 1.00803 0.61182
 N296 N 0.66580 0.98982 0.70688
 C297 C 0.63790 1.02813 0.82335
 H298 H 0.60734 1.02980 0.81748
 C299 C 0.65202 1.04022 0.85894
 H300 H 0.63162 1.05272 0.87891
 C301 C 0.70065 1.01307 0.80164
 H302 H 0.71939 1.00307 0.77882
 C303 C 0.71620 1.02448 0.83746
 H304 H 0.74716 1.02411 0.84121
 Zn305 Zn 0.63449 1.00125 0.75012
 N306 N 0.66203 1.01516 0.79546
 C307 C 0.61675 0.93723 0.79404
 N308 N 0.60535 0.95606 0.76161
 C309 C 0.57694 0.94126 0.73858
 C310 C 0.55723 0.90737 0.74940
 C311 C 0.59850 0.90354 0.80548
 C312 C 0.62411 1.07832 0.73478
 C313 C 0.60588 1.11220 0.72334
 C314 C 0.54562 1.07720 0.72096
 C315 C 0.56508 1.04392 0.73295
 N316 N 0.60384 1.04486 0.73835
 H317 H 0.64051 0.94797 0.81114
 H318 H 0.56942 0.95575 0.71197
 H319 H 0.53418 0.89671 0.73123
 H320 H 0.60800 0.88957 0.83182
 H321 H 0.65492 1.07827 0.73952
 H322 H 0.62306 1.13798 0.71876
 H323 H 0.51530 1.07469 0.71451
 H324 H 0.54935 1.01720 0.73661
 C325 C 0.69179 1.03802 0.86729
 C326 C 0.69888 0.96211 0.63890
 C327 C 0.56618 1.11201 0.71543
 C328 C 0.56781 0.88828 0.78369
 C329 C 0.03681 0.21545 -0.19020
 H330 H 0.04871 0.24404 -0.19463
 C331 C 0.05222 0.18385 -0.20993
 H332 H 0.07463 0.18931 -0.23080
 C333 C -0.00704 0.17455 -0.15750
 H334 H -0.02939 0.17086 -0.13614
 C335 C 0.00788 0.14206 -0.17628
 H336 H -0.00392 0.11382 -0.16974
 N337 N 0.00859 0.21013 -0.16366
 C338 C -0.02854 0.32520 -0.13002
 H339 H -0.02765 0.31949 -0.09930
 C340 C -0.04169 0.36068 -0.14321
 H341 H -0.05212 0.38095 -0.12193
 C342 C -0.01914 0.30300 -0.19411
 H343 H -0.01112 0.28003 -0.21373
 C344 C -0.03177 0.33858 -0.20871
 H345 H -0.03400 0.34243 -0.23967
 Zn346 Zn -0.00279 0.25139 -0.12972
 N347 N -0.01785 0.29716 -0.15528
 C348 C 0.06233 0.29430 -0.11427
 N349 N 0.04293 0.26270 -0.10151
 C350 C 0.05772 0.24015 -0.07284
 C351 C 0.09206 0.25095 -0.05398
 C352 C 0.09659 0.30558 -0.09701
 C353 C -0.07880 0.23417 -0.11833
 C354 C -0.11254 0.22353 -0.09952
 C355 C -0.07709 0.22183 -0.03937
 C356 C -0.04403 0.23326 -0.05945
 N357 N -0.04530 0.23804 -0.09839
 H358 H 0.05153 0.31081 -0.13837
 H359 H 0.04291 0.21395 -0.06445
 H360 H 0.10266 0.23324 -0.03062
 H361 H 0.11105 0.33127 -0.10757
 H362 H -0.07901 0.23851 -0.14929
 H363 H -0.13825 0.21883 -0.11672
 H364 H -0.07404 0.21567 -0.00894
 H365 H -0.01731 0.23731 -0.04395
 C366 C -0.04319 0.36821 -0.18312
 C367 C 0.03978 0.14605 -0.20094
 C368 C -0.11239 0.21657 -0.05934
 C369 C 0.11170 0.28455 -0.06581
 C370 C 0.46401 0.20488 0.18488
 H371 H 0.45013 0.23216 0.19109
 C372 C 0.45090 0.17104 0.20245
 H373 H 0.42689 0.17269 0.22230
 C374 C 0.50986 0.16931 0.14899
 H375 H 0.53186 0.16855 0.12696
 C376 C 0.49740 0.13465 0.16563
 H377 H 0.51042 0.10808 0.15588
 N378 N 0.49255 0.20337 0.15819
 C379 C 0.52316 0.32424 0.13783
 H380 H 0.51944 0.32364 0.10677
 C381 C 0.53535 0.35810 0.15599
 H382 H 0.54144 0.38334 0.13855
 C383 C 0.52134 0.29120 0.19765
 H384 H 0.51650 0.26475 0.21353
 C385 C 0.53417 0.32449 0.21708
 H386 H 0.53942 0.32248 0.24774
 Zn387 Zn 0.50262 0.24810 0.12832
 N388 N 0.51646 0.29169 0.15867
 C389 C 0.43626 0.29018 0.11608
 N390 N 0.45654 0.26022 0.10103
 C391 C 0.44248 0.23940 0.07055
 C392 C 0.40797 0.25042 0.05235
 C393 C 0.40195 0.30182 0.09927
 C394 C 0.57914 0.23535 0.11698
 C395 C 0.61325 0.22522 0.09865
 C396 C 0.57898 0.22357 0.03785
 C397 C 0.54542 0.23447 0.05743
 N398 N 0.54590 0.23873 0.09652
 H399 H 0.44644 0.30516 0.14155
 H400 H 0.45803 0.21442 0.06017
 H401 H 0.39814 0.23426 0.02744
 H402 H 0.38704 0.32650 0.11141
 H403 H 0.57877 0.23913 0.14802
 H404 H 0.63885 0.22073 0.11600
 H405 H 0.57695 0.21789 0.00723
 H406 H 0.51889 0.23802 0.04154
 C407 C 0.54165 0.35867 0.19611
 C408 C 0.46681 0.13499 0.19221
 C409 C 0.61351 0.21800 0.05868
 C410 C 0.38743 0.28250 0.06654
 C411 C 0.95623 0.71417 0.68936
 H412 H 0.94449 0.74292 0.69271
 C413 C 0.93958 0.68313 0.70899
 H414 H 0.91624 0.68922 0.72860
 C415 C 1.00106 0.67224 0.65958
 H416 H 1.02415 0.66771 0.63925
 C417 C 0.98522 0.64041 0.67856
 H418 H 0.99714 0.61199 0.67327
 N419 N 0.98568 0.70809 0.66437
 C420 C 1.02827 0.82180 0.63183
 H421 H 1.02937 0.81540 0.60122
 C422 C 1.04080 0.85758 0.64530
 H423 H 1.05294 0.87742 0.62456
 C424 C 1.01415 0.80121 0.69546
 H425 H 1.00435 0.77880 0.71483
 C426 C 1.02608 0.83715 0.71029
 H427 H 1.02617 0.84173 0.74125
 Zn428 Zn 1.00015 0.74859 0.63070
 N429 N 1.01542 0.79444 0.65672
 C430 C 0.93635 0.79189 0.61422
 N431 N 0.95603 0.76088 0.60056
 C432 C 0.94189 0.73934 0.57061
 C433 C 0.90748 0.75018 0.55201
 C434 C 0.90223 0.80334 0.59705
 C435 C 1.07464 0.72625 0.62540
 C436 C 1.10911 0.71292 0.61014
 C437 C 1.08099 0.71650 0.54637
 C438 C 1.04657 0.72943 0.56309
 N439 N 1.04394 0.73321 0.60214
 H440 H 0.94669 0.80767 0.63913
 H441 H 0.95713 0.71378 0.56119
 H442 H 0.89729 0.73328 0.52773
 H443 H 0.88765 0.82860 0.60836
 H444 H 1.07175 0.72977 0.65635
 H445 H 1.13148 0.70536 0.63037
 H446 H 1.08231 0.71221 0.51538
 H447 H 1.02203 0.73584 0.54499
 C448 C 1.03928 0.86624 0.68503
 C449 C 0.95239 0.64511 0.70175
 C450 C 1.11296 0.70771 0.56997
 C451 C 0.88726 0.78289 0.56523
 C452 C 0.53443 0.70566 0.31956
 H453 H 0.54705 0.73341 0.31258
 C454 C 0.54847 0.67202 0.30223
 H455 H 0.57194 0.67430 0.28179
 C456 C 0.49087 0.66879 0.35705
 H457 H 0.46961 0.66740 0.37974
 C458 C 0.50420 0.63440 0.34060
 H459 H 0.49247 0.60751 0.35113
 N460 N 0.50638 0.70346 0.34673
 C461 C 0.47471 0.82435 0.36560
 H462 H 0.47857 0.82419 0.39664
 C463 C 0.46310 0.85809 0.34720
 H464 H 0.45759 0.88350 0.36471
 C465 C 0.47540 0.79032 0.30617
 H466 H 0.47946 0.76349 0.29058
 C467 C 0.46289 0.82340 0.28647
 H468 H 0.45688 0.82049 0.25598
 Zn469 Zn 0.49406 0.74819 0.37600
 N470 N 0.48071 0.79140 0.34508
 C471 C 0.56044 0.78974 0.38851
 N472 N 0.53874 0.76157 0.40502
 C473 C 0.55117 0.74284 0.43732
 C474 C 0.58592 0.75389 0.45531
 C475 C 0.59482 0.80151 0.40523
 C476 C 0.41916 0.72923 0.38164
 C477 C 0.38429 0.71671 0.39670
 C478 C 0.41090 0.72385 0.46087
 C479 C 0.44579 0.73598 0.44435
 N480 N 0.44939 0.73740 0.40524
 H481 H 0.55140 0.80297 0.36179
 H482 H 0.53430 0.71934 0.44909
 H483 H 0.59467 0.73934 0.48146
 H484 H 0.61090 0.82474 0.39177
 H485 H 0.42292 0.73052 0.35064
 H486 H 0.36246 0.70758 0.37637
 H487 H 0.40898 0.72086 0.49195
 H488 H 0.47008 0.74301 0.46268
 C489 C 0.45652 0.85841 0.30692
 C490 C 0.53395 0.63553 0.31315
 C491 C 0.37951 0.71355 0.43693
 C492 C 0.60820 0.78388 0.43920
 Si493 Si 0.37301 -0.00285 0.24658
 Si494 Si 0.12855 1.00485 0.74500
 Si495 Si 0.62798 0.49959 0.25567
 Si496 Si 0.86462 0.50355 0.75670
 Si497 Si 0.25062 0.36744 0.00027
 Si498 Si 0.75260 0.12844 1.00228
 Si499 Si 0.24703 0.61940 0.50132
 Si500 Si 0.74924 0.86691 0.50044
 Si501 Si 0.00211 0.25203 0.37621
 Si502 Si 0.99951 0.75261 0.12004
 Si503 Si 0.50662 0.24972 0.62576
 Si504 Si 0.49870 0.75134 0.86674
 C505 C 0.43838 -0.10775 0.28990
 C506 C 0.45725 -0.07099 0.30007
 C507 C 0.43726 -0.03748 0.28603
 C508 C 0.40222 -0.04675 0.26442
 C509 C 0.41521 -0.07283 0.23375
 C510 C 0.43521 -0.10634 0.24758
 C511 C 0.39893 -0.10423 0.30390
 C512 C 0.37943 -0.07091 0.29029
 H513 H 0.48506 -0.06886 0.31437
 H514 H 0.44892 -0.00849 0.28915
 H515 H 0.41551 -0.06539 0.20340
 H516 H 0.45207 -0.12368 0.22776
 H517 H 0.38494 -0.12509 0.32272
 H518 H 0.35003 -0.06514 0.29871
 C519 C 0.93646 0.40401 0.80160
 C520 C 0.89544 0.39352 0.78914
 C521 C 0.87493 0.42353 0.77512
 C522 C 0.89662 0.46234 0.77484
 C523 C 0.91097 0.46790 0.81651
 C524 C 0.93188 0.43786 0.83041
 C525 C 0.95448 0.42339 0.76580
 C526 C 0.93374 0.45403 0.75199
 H527 H 0.88350 0.36449 0.79085
 H528 H 0.84574 0.41943 0.76495
 H529 H 0.90842 0.49453 0.83274
 H530 H 0.94727 0.44056 0.85758
 H531 H 0.98187 0.41488 0.75345
 H532 H 0.94366 0.47156 0.72802
 C533 C 0.06161 1.11027 0.78520
 C534 C 0.04260 1.08939 0.75073
 C535 C 0.06175 1.05707 0.73867
 C536 C 0.09860 1.04840 0.76182
 C537 C 0.12216 1.08605 0.76006
 C538 C 0.10334 1.11792 0.77242
 C539 C 0.06590 1.07862 0.81625
 C540 C 0.08468 1.04637 0.80393
 H541 H 0.01590 1.09881 0.73743
 H542 H 0.05101 1.03894 0.71539
 H543 H 0.15218 1.08772 0.75208
 H544 H 0.11860 1.14512 0.77574
 H545 H 0.05535 1.08129 0.84563
 H546 H 0.08886 1.02184 0.82278
 C547 C 0.55441 0.59928 0.29883
 C548 C 0.53715 0.55907 0.30842
 C549 C 0.55870 0.52872 0.29528
 C550 C 0.59546 0.54083 0.27372
 C551 C 0.58051 0.56782 0.24170
 C552 C 0.55932 0.59817 0.25474
 C553 C 0.59543 0.59782 0.31516
 C554 C 0.61661 0.56770 0.30224
 H555 H 0.50955 0.55421 0.32205
 H556 H 0.54940 0.49893 0.29850
 H557 H 0.58421 0.56276 0.21109
 H558 H 0.54574 0.61855 0.23522
 H559 H 0.60681 0.61866 0.33582
 H560 H 0.64584 0.56353 0.31215
 C561 C 0.56113 0.39422 0.21366
 C562 C 0.54118 0.43283 0.20401
 C563 C 0.56052 0.46484 0.21696
 C564 C 0.59827 0.45573 0.23838
 C565 C 0.58558 0.42784 0.27062
 C566 C 0.56632 0.39584 0.25789
 C567 C 0.60198 0.39851 0.19753
 C568 C 0.62102 0.43036 0.21003
 H569 H 0.51363 0.43475 0.18926
 H570 H 0.54931 0.49383 0.21319
 H571 H 0.58882 0.43366 0.30116
 H572 H 0.55353 0.37581 0.27818
 H573 H 0.61504 0.37793 0.17778
 H574 H 0.65007 0.43639 0.20052
 C575 C 0.05865 0.90268 0.70066
 C576 C 0.04033 0.92178 0.73653
 C577 C 0.06043 0.95317 0.75023
 C578 C 0.09724 0.96245 0.72720
 C579 C 0.11976 0.92425 0.72686
 C580 C 0.09991 0.89353 0.71296
 C581 C 0.06229 0.93646 0.67183
 C582 C 0.08254 0.96726 0.68559
 H583 H 0.01310 0.91267 0.74892
 H584 H 0.05011 0.97067 0.77411
 H585 H 0.14906 0.92099 0.73688
 H586 H 0.11248 0.86485 0.71131
 H587 H 0.04696 0.93817 0.64454
 H588 H 0.08457 0.99380 0.66925
 C589 C 0.93049 0.60951 0.71600
 C590 C 0.88873 0.61679 0.72874
 C591 C 0.87012 0.58477 0.74124
 C592 C 0.89401 0.54744 0.73976
 C593 C 0.90800 0.54502 0.69771
 C594 C 0.92647 0.57739 0.68517
 C595 C 0.94964 0.58937 0.75063
 C596 C 0.93074 0.55696 0.76290
 H597 H 0.87328 0.64373 0.72527
 H598 H 0.84004 0.58603 0.74901
 H599 H 0.90412 0.52010 0.67910
 H600 H 0.93711 0.57981 0.65581
 H601 H 0.97622 0.59940 0.76392
 H602 H 0.94158 0.53935 0.78636
 C603 C 0.44666 0.09825 0.20594
 C604 C 0.40608 0.09592 0.18860
 C605 C 0.38497 0.06545 0.20090
 C606 C 0.40574 0.03898 0.22976
 C607 C 0.44323 0.02762 0.20907
 C608 C 0.46467 0.05841 0.19657
 C609 C 0.44066 0.09707 0.24990
 C610 C 0.41956 0.06629 0.26228
 H611 H 0.39486 0.11655 0.16785
 H612 H 0.35594 0.06091 0.19047
 H613 H 0.45302 -0.00196 0.20593
 H614 H 0.49262 0.05412 0.18349
 H615 H 0.45345 0.11778 0.26984
 H616 H 0.41511 0.06118 0.29274
 C617 C 0.29216 0.43606 -0.10356
 C618 C 0.30290 0.45517 -0.06459
 C619 C 0.29014 0.43537 -0.03293
 C620 C 0.26785 0.39807 -0.04276
 C621 C 0.23553 0.41211 -0.06985
 C622 C 0.24804 0.43180 -0.10147
 C623 C 0.30745 0.39467 -0.10053
 C624 C 0.29516 0.37518 -0.06906
 H625 H 0.31808 0.48256 -0.06215
 H626 H 0.29446 0.44606 -0.00373
 H627 H 0.20515 0.40980 -0.06350
 H628 H 0.22779 0.44590 -0.12061
 H629 H 0.32661 0.38162 -0.12160
 H630 H 0.30427 0.34577 -0.06382
 C631 C 0.79026 0.93522 0.39617
 C632 C 0.80111 0.95413 0.43514
 C633 C 0.78836 0.93433 0.46671
 C634 C 0.76591 0.89713 0.45691
 C635 C 0.73356 0.91127 0.42989
 C636 C 0.74610 0.93103 0.39827
 C637 C 0.80531 0.89369 0.39900
 C638 C 0.79294 0.87412 0.43042
 H639 H 0.81648 0.98142 0.43764
 H640 H 0.79292 0.94495 0.49590
 H641 H 0.70318 0.90854 0.43600
 H642 H 0.72583 0.94463 0.37881
 H643 H 0.82413 0.88053 0.37770
 H644 H 0.80161 0.84452 0.43539
 C645 C 0.79540 0.06499 1.10895
 C646 C 0.76296 0.04530 1.09015
 C647 C 0.74952 0.06431 1.05577
 C648 C 0.77065 0.09971 1.04664
 C649 C 0.76863 0.12332 1.08169
 C650 C 0.78249 0.10474 1.11554
 C651 C 0.82466 0.06899 1.07861
 C652 C 0.81083 0.08748 1.04431
 H653 H 0.75089 0.01805 1.10001
 H654 H 0.72719 0.05194 1.03757
 H655 H 0.76172 0.15374 1.08238
 H656 H 0.78866 0.12177 1.14123
 H657 H 0.85457 0.06044 1.08158
 H658 H 0.82915 0.09130 1.01940
 C659 C 0.29326 0.54801 0.60126
 C660 C 0.30175 0.52974 0.56126
 C661 C 0.28768 0.55061 0.53079
 C662 C 0.26641 0.58775 0.54263
 C663 C 0.23538 0.57331 0.57091
 C664 C 0.24932 0.55279 0.60133
 C665 C 0.30937 0.58920 0.59828
 C666 C 0.29553 0.60970 0.56809
 H667 H 0.31563 0.50212 0.55671
 H668 H 0.29027 0.54072 0.50113
 H669 H 0.20476 0.57686 0.56674
 H670 H 0.23052 0.53962 0.62262
 H671 H 0.33062 0.60118 0.61809
 H672 H 0.30533 0.63890 0.56289
 C673 C 0.20301 0.55080 0.39777
 C674 C 0.19450 0.53077 0.43683
 C675 C 0.20788 0.55079 0.46837
 C676 C 0.22852 0.58892 0.45844
 C677 C 0.26006 0.57646 0.42981
 C678 C 0.24682 0.55678 0.39837
 C679 C 0.18602 0.59140 0.40248
 C680 C 0.19915 0.61106 0.43374
 H681 H 0.18087 0.50276 0.44002
 H682 H 0.20508 0.53977 0.49755
 H683 H 0.29055 0.58064 0.43441
 H684 H 0.26608 0.54498 0.37670
 H685 H 0.16463 0.60352 0.38307
 H686 H 0.18861 0.63970 0.44031
 C687 C 0.70737 0.05691 0.90156
 C688 C 0.71801 0.09656 0.89233
 C689 C 0.73299 0.11772 0.92418
 C690 C 0.73447 0.09608 0.96033
 C691 C 0.69546 0.08147 0.96622
 C692 C 0.68068 0.05964 0.93433
 C693 C 0.74212 0.03978 0.91868
 C694 C 0.75693 0.06143 0.95132
 H695 H 0.71584 0.10916 0.86365
 H696 H 0.74287 0.14710 0.92042
 H697 H 0.68095 0.08110 0.99382
 H698 H 0.65552 0.04128 0.93799
 H699 H 0.75351 0.01170 0.91062
 H700 H 0.78009 0.05071 0.96941
 C701 C 0.71172 0.94127 0.60223
 C702 C 0.75535 0.93447 0.60055
 C703 C 0.76691 0.91300 0.56967
 C704 C 0.73392 0.89962 0.54282
 C705 C 0.70524 0.87923 0.56973
 C706 C 0.69370 0.90075 0.60027
 C707 C 0.70220 0.95938 0.56246
 C708 C 0.71382 0.93755 0.53167
 H709 H 0.77566 0.94688 0.62105
 H710 H 0.79710 0.90789 0.56431
 H711 H 0.69452 0.85013 0.56546
 H712 H 0.67320 0.88985 0.62127
 H713 H 0.68955 0.98758 0.55807
 H714 H 0.71034 0.94733 0.50212
 C715 C 0.20906 0.43964 0.10185
 C716 C 0.25309 0.43427 0.10111
 C717 C 0.26589 0.41336 0.07025
 C718 C 0.23383 0.39941 0.04259
 C719 C 0.20523 0.37786 0.06869
 C720 C 0.19253 0.39860 0.09927
 C721 C 0.20009 0.45797 0.06223
 C722 C 0.21302 0.43698 0.03142
 H723 H 0.27305 0.44836 0.12079
 H724 H 0.29633 0.40989 0.06488
 H725 H 0.19570 0.34839 0.06403
 H726 H 0.17247 0.38663 0.12012
 H727 H 0.18620 0.48582 0.05873
 H728 H 0.20992 0.44708 0.00194
 C729 C -0.09738 0.29164 0.45151
 C730 C -0.09667 0.30828 0.41058
 C731 C -0.06679 0.29615 0.38880
 C732 C -0.03934 0.26811 0.40934
 C733 C -0.02732 0.28948 0.44659
 C734 C -0.05748 0.30174 0.46868
 C735 C -0.09578 0.24751 0.44592
 C736 C -0.06563 0.23530 0.42398
 H737 H -0.11820 0.32810 0.39946
 H738 H -0.06366 0.30576 0.35929
 H739 H 0.00231 0.29287 0.45599
 H740 H -0.05291 0.31470 0.49690
 H741 H -0.11545 0.22737 0.45967
 H742 H -0.06023 0.20484 0.41949
 C743 C 0.39353 0.79262 0.93272
 C744 C 0.43188 0.80361 0.95262
 C745 C 0.46387 0.79090 0.93358
 C746 C 0.45500 0.76838 0.89618
 C747 C 0.42780 0.73582 0.90969
 C748 C 0.39581 0.74830 0.92861
 C749 C 0.39740 0.80787 0.89136
 C750 C 0.42923 0.79561 0.87261
 H751 H 0.43365 0.81899 0.97997
 H752 H 0.49268 0.79549 0.94488
 H753 H 0.43420 0.70533 0.90752
 H754 H 0.37636 0.72790 0.94211
 H755 H 0.37661 0.82695 0.87779
 H756 H 0.43513 0.80467 0.84331
 C757 C 1.09918 0.79726 0.04771
 C758 C 1.05933 0.80649 0.02982
 C759 C 1.02890 0.79294 0.05099
 C760 C 1.04064 0.77139 0.08800
 C761 C 1.06810 0.73971 0.07335
 C762 C 1.09847 0.75313 0.05255
 C763 C 1.09687 0.81354 0.08888
 C764 C 1.06671 0.80022 0.10966
 H765 H 1.05480 0.82052 0.00226
 H766 H 0.99932 0.79606 0.04140
 H767 H 1.06340 0.70903 0.07696
 H768 H 1.11920 0.73385 0.03922
 H769 H 1.11710 0.83456 0.10062
 H770 H 1.06192 0.81019 0.13888
 C771 C 0.60726 0.29544 0.55582
 C772 C 0.57406 0.32461 0.56106
 C773 C 0.54344 0.31037 0.58093
 C774 C 0.54836 0.26850 0.59481
 C775 C 0.55724 0.24580 0.55757
 C776 C 0.58810 0.25966 0.53742
 C777 C 0.61687 0.28321 0.59742
 C778 C 0.58655 0.26889 0.61734
 H779 H 0.57456 0.35450 0.55185
 H780 H 0.51844 0.32802 0.58657
 H781 H 0.54027 0.22148 0.54728
 H782 H 0.59741 0.24694 0.51031
 H783 H 0.64503 0.28652 0.61073
 H784 H 0.58977 0.25969 0.64701
 C785 C 0.40578 0.20396 0.55556
 C786 C 0.44021 0.17601 0.55850
 C787 C 0.47050 0.19022 0.57900
 C788 C 0.46463 0.23142 0.59454
 C789 C 0.45459 0.25491 0.55808
 C790 C 0.42367 0.24070 0.53778
 C791 C 0.39648 0.21523 0.59728
 C792 C 0.42677 0.22964 0.61735
 H793 H 0.44283 0.14921 0.54237
 H794 H 0.49736 0.17459 0.58054
 H795 H 0.47114 0.27961 0.54821
 H796 H 0.41403 0.25344 0.51083
 H797 H 0.36800 0.21266 0.60993
 H798 H 0.42343 0.23932 0.64689
 C799 C 0.89518 0.70871 0.05298
 C800 C 0.90033 0.69174 0.09350
 C801 C 0.93180 0.70484 0.11264
 C802 C 0.95625 0.73421 0.09012
 C803 C 0.96553 0.71341 0.05191
 C804 C 0.93378 0.70006 0.03239
 C805 C 0.89603 0.75274 0.05882
 C806 C 0.92769 0.76598 0.07799
 H807 H 0.88103 0.67040 0.10596
 H808 H 0.93862 0.69430 0.14121
 H809 H 0.99440 0.71072 0.04035
 H810 H 0.93646 0.68672 0.00418
 H811 H 0.87442 0.77215 0.04720
 H812 H 0.93252 0.79661 0.08188
 C813 C 0.59901 0.71262 0.94170
 C814 C 0.59712 0.75675 0.93604
 C815 C 0.56652 0.76852 0.91441
 C816 C 0.54022 0.73546 0.89998
 C817 C 0.56744 0.70734 0.87927
 C818 C 0.59787 0.69578 0.90069
 C819 C 0.55939 0.70242 0.95910
 C820 C 0.52879 0.71440 0.93735
 H821 H 0.61559 0.77760 0.95048
 H822 H 0.56029 0.79891 0.91088
 H823 H 0.56353 0.69713 0.84993
 H824 H 0.61943 0.67614 0.88932
 H825 H 0.55573 0.68818 0.98677
 H826 H 0.49927 0.71029 0.94666
 C827 C 0.10652 0.21153 0.44410
 C828 C 0.10520 0.25560 0.43859
 C829 C 0.07369 0.26821 0.41881
 C830 C 0.04595 0.23574 0.40586
 C831 C 0.07147 0.20736 0.38338
 C832 C 0.10260 0.19470 0.40319
 C833 C 0.06764 0.20199 0.46368
 C834 C 0.03628 0.21459 0.44363
 H835 H 0.12664 0.27535 0.45032
 H836 H 0.06881 0.29870 0.41416
 H837 H 0.06608 0.19797 0.35401
 H838 H 0.12294 0.17447 0.39065
 H839 H 0.06425 0.18892 0.49185
 H840 H 0.00730 0.21125 0.45475
 C841 C 0.54888 0.14700 0.69527
 C842 C 0.55883 0.18631 0.71407
 C843 C 0.54588 0.21755 0.69380
 C844 C 0.52408 0.20699 0.65644
 C845 C 0.55198 0.18088 0.63407
 C846 C 0.56458 0.14983 0.65403
 C847 C 0.50478 0.14831 0.69054
 C848 C 0.49201 0.17949 0.67033
 H849 H 0.57367 0.18929 0.74158
 H850 H 0.54977 0.24692 0.70421
 H851 H 0.56142 0.18598 0.60478
 H852 H 0.58428 0.12898 0.64146
 H853 H 0.48469 0.12893 0.70458
 H854 H 0.46157 0.18516 0.66741
 C855 C 1.04942 0.65241 0.18793
 C856 C 1.03625 0.64264 0.14679
 C857 C 1.02077 0.67278 0.12741
 C858 C 1.01980 0.71092 0.15032
 C859 C 0.99830 0.70072 0.18786
 C860 C 1.01365 0.67008 0.20748
 C861 C 1.07687 0.68726 0.18358
 C862 C 1.06150 0.71746 0.16390
 H863 H 1.03850 0.61400 0.13402
 H864 H 1.00990 0.66928 0.09826
 H865 H 0.97414 0.71700 0.19903
 H866 H 1.00246 0.66066 0.23516
 H867 H 1.10466 0.68977 0.19777
 H868 H 1.07687 0.74459 0.16134
 C869 C 0.95266 0.85095 0.19309
 C870 C 0.99029 0.83422 0.20982
 C871 C 1.00501 0.80413 0.18866
 C872 C 0.98110 0.79369 0.15245
 C873 C 0.94073 0.78585 0.16864
 C874 C 0.92605 0.81523 0.18997
 C875 C 0.96259 0.86147 0.15132
 C876 C 0.97757 0.83202 0.13041
 H877 H 1.00337 0.84409 0.23662
 H878 H 1.03049 0.78851 0.19770
 H879 H 0.92618 0.75819 0.16713
 H880 H 0.90014 0.81084 0.20681
 H881 H 0.95883 0.89019 0.13929
 H882 H 0.98662 0.83619 0.10079
 C883 C 0.46408 0.35070 0.69774
 C884 C 0.45439 0.31098 0.71548
 C885 C 0.46756 0.28026 0.69449
 C886 C 0.48925 0.29169 0.65752
 C887 C 0.46123 0.31806 0.63566
 C888 C 0.44845 0.34859 0.65633
 C889 C 0.50821 0.34982 0.69319
 C890 C 0.52119 0.31908 0.67224
 H891 H 0.43962 0.30738 0.74285
 H892 H 0.46392 0.25068 0.70417
 H893 H 0.45222 0.31382 0.60604
 H894 H 0.42892 0.36976 0.64405
 H895 H 0.52815 0.36930 0.70755
 H896 H 0.55167 0.31375 0.66894
 C897 C 0.45490 0.64710 0.79978
 C898 C 0.42630 0.68079 0.80243
 C899 C 0.44016 0.71242 0.82116
 C900 C 0.48162 0.70817 0.83615
 C901 C 0.48146 0.67089 0.86016
 C902 C 0.46781 0.63945 0.84140
 C903 C 0.49077 0.66531 0.78049
 C904 C 0.50461 0.69741 0.79960
 H905 H 0.39812 0.68054 0.78876
 H906 H 0.42361 0.73880 0.82255
 H907 H 0.49197 0.66861 0.88948
 H908 H 0.46713 0.61112 0.85489
 H909 H 0.50374 0.65502 0.75396
 H910 H 0.52897 0.71402 0.78912
 C911 C -0.04373 0.14871 0.30891
 C912 C -0.00931 0.16834 0.28847
 C913 C 0.00477 0.20011 0.30782
 C914 C -0.01644 0.20926 0.34585
 C915 C -0.05872 0.21307 0.33332
 C916 C -0.07287 0.18174 0.31415
 C917 C -0.02872 0.14009 0.34964
 C918 C -0.01475 0.17127 0.36871
 H919 H 0.00229 0.15945 0.26082
 H920 H 0.02806 0.21769 0.29649
 H921 H -0.07587 0.23884 0.33728
 H922 H -0.10184 0.18115 0.30230
 H923 H -0.02858 0.11141 0.36236
 H924 H -0.00319 0.16849 0.39760
 C925 C 0.03980 0.35685 0.30721
 C926 C 0.02931 0.36451 0.34970
 C927 C 0.01751 0.33280 0.36910
 C928 C 0.01772 0.29521 0.34532
 C929 C -0.00702 0.30415 0.30952
 C930 C 0.00434 0.33641 0.28980
 C931 C 0.07059 0.32481 0.30991
 C932 C 0.05888 0.29266 0.32934
 H933 H 0.03378 0.39169 0.36480
 H934 H 0.01122 0.33447 0.39963
 H935 H -0.03085 0.28618 0.29986
 H936 H -0.01005 0.34600 0.26366
 H937 H 0.09945 0.32723 0.29821
 H938 H 0.07754 0.26789 0.33294
 C939 C 0.54749 0.85291 0.79997
 C940 C 0.57567 0.81932 0.80600
 C941 C 0.56037 0.78846 0.82460
 C942 C 0.51797 0.79332 0.83612
 C943 C 0.51649 0.83152 0.85883
 C944 C 0.53155 0.86220 0.84017
 C945 C 0.51306 0.83400 0.77851
 C946 C 0.49773 0.80268 0.79753
 H947 H 0.60477 0.81900 0.79459
 H948 H 0.57668 0.76214 0.82811
 H949 H 0.50384 0.83496 0.88712
 H950 H 0.53126 0.89106 0.85268
 H951 H 0.50201 0.84340 0.75079
 H952 H 0.47406 0.78577 0.78577
 C953 C 0.69373 0.54931 0.15418
 C954 C 0.65516 0.53486 0.14525
 C955 C 0.63558 0.51892 0.17743
 C956 C 0.65772 0.51970 0.21331
 C957 C 0.69368 0.49976 0.20408
 C958 C 0.71375 0.51600 0.17135
 C959 C 0.68903 0.57621 0.18660
 C960 C 0.66924 0.56000 0.21883
 H961 H 0.64253 0.53453 0.11646
 H962 H 0.60721 0.50641 0.17410
 H963 H 0.70605 0.47713 0.22179
 H964 H 0.74254 0.50658 0.16410
 H965 H 0.70236 0.60467 0.18804
 H966 H 0.66735 0.57555 0.24592
 C967 C 0.19985 1.04390 0.64220
 C968 C 0.21840 1.05400 0.68152
 C969 C 0.19766 1.04182 0.71267
 C970 C 0.16007 1.02056 0.70211
 C971 C 0.13860 1.04855 0.67530
 C972 C 0.15907 1.06046 0.64438
 C973 C 0.19423 0.99972 0.64400
 C974 C 0.17354 0.98767 0.67519
 H975 H 0.24617 1.06820 0.68458
 H976 H 0.20798 1.04574 0.74202
 H977 H 0.10938 1.05826 0.67962
 H978 H 0.14704 1.07994 0.62297
 H979 H 0.20786 0.97910 0.62482
 H980 H 0.16985 0.95724 0.68119
 C981 C 0.19770 0.96353 0.84808
 C982 C 0.19482 1.00586 0.84618
 C983 C 0.17346 1.01922 0.81326
 C984 C 0.15919 0.98810 0.78821
 C985 C 0.19366 0.96626 0.77801
 C986 C 0.21497 0.95278 0.81089
 C987 C 0.15804 0.94954 0.84627
 C988 C 0.13721 0.96275 0.81359
 H989 H 0.21229 1.02587 0.86293
 H990 H 0.17309 1.04954 0.80564
 H991 H 0.20430 0.96294 0.74875
 H992 H 0.24279 0.93884 0.80795
 H993 H 0.14462 0.93159 0.86824
 H994 H 0.10722 0.95525 0.80978
 C995 C 0.70066 0.45626 0.35567
 C996 C 0.65881 0.46658 0.36567
 C997 C 0.63812 0.48045 0.33558
 C998 C 0.66017 0.48221 0.29719
 C999 C 0.69630 0.50647 0.30642
 C1000 C 0.71726 0.49308 0.33708
 C1001 C 0.69640 0.42735 0.32182
 C1002 C 0.67581 0.44108 0.29145
 H1003 H 0.64596 0.46248 0.39394
 H1004 H 0.60828 0.48860 0.33910
 H1005 H 0.70516 0.53155 0.28991
 H1006 H 0.74372 0.50693 0.34668
 H1007 H 0.70691 0.39791 0.32164
 H1008 H 0.67107 0.42356 0.26596
 C1009 C 0.79734 0.45962 0.65292
 C1010 C 0.77857 0.44880 0.69191
 C1011 C 0.79822 0.46234 0.72346
 C1012 C 0.83474 0.48554 0.71356
 C1013 C 0.85812 0.45848 0.68739
 C1014 C 0.83880 0.44510 0.65616
 C1015 C 0.80053 0.50398 0.65480
 C1016 C 0.81996 0.51745 0.68636
 H1017 H 0.75090 0.43455 0.69487
 H1018 H 0.78740 0.45873 0.75260
 H1019 H 0.88775 0.45045 0.69231
 H1020 H 0.85206 0.42576 0.63531
 H1021 H 0.78709 0.52325 0.63409
 H1022 H 0.82271 0.54812 0.69201
 C1023 C 0.30402 -0.04604 0.14357
 C1024 C 0.34562 -0.03386 0.13513
 C1025 C 0.36524 -0.02074 0.16629
 C1026 C 0.34197 -0.02023 0.20396
 C1027 C 0.30574 0.00348 0.19406
 C1028 C 0.28587 -0.00984 0.16236
 C1029 C 0.30686 -0.07507 0.17701
 C1030 C 0.32650 -0.06169 0.20830
 H1031 H 0.35853 -0.03488 0.10659
 H1032 H 0.39474 -0.01102 0.16366
 H1033 H 0.29593 0.02795 0.21102
 H1034 H 0.25942 0.00368 0.15286
 H1035 H 0.29295 -0.10325 0.17677
 H1036 H 0.32855 -0.07868 0.23438
 C1037 C 0.30522 0.04641 0.34720
 C1038 C 0.34542 0.03111 0.35696
 C1039 C 0.36455 0.01608 0.32658
 C1040 C 0.34225 0.01691 0.28820
 C1041 C 0.30394 -0.00383 0.29733
 C1042 C 0.28451 0.01144 0.32831
 C1043 C 0.31121 0.07464 0.31350
 C1044 C 0.33032 0.05934 0.28294
 H1045 H 0.35772 0.03149 0.38586
 H1046 H 0.39305 0.00423 0.33029
 H1047 H 0.29254 -0.02770 0.28036
 H1048 H 0.25681 0.00017 0.33726
 H1049 H 0.29964 0.10377 0.31297
 H1050 H 0.33430 0.07569 0.25665
 C1051 C 0.79230 0.54218 0.85876
 C1052 C 0.83299 0.55929 0.85681
 C1053 C 0.85369 0.54752 0.82601
 C1054 C 0.83261 0.51900 0.79916
 C1055 C 0.81926 0.48610 0.82601
 C1056 C 0.79828 0.49806 0.85705
 C1057 C 0.77392 0.55175 0.81932
 C1058 C 0.79494 0.53961 0.78830
 H1059 H 0.84476 0.57912 0.87824
 H1060 H 0.88280 0.55778 0.82179
 H1061 H 0.82326 0.45568 0.82003
 H1062 H 0.78472 0.47737 0.87618
 H1063 H 0.74610 0.56560 0.81609
 H1064 H 0.78485 0.54318 0.75883
 C1065 C 0.14818 0.68789 0.55267
 C1066 C 0.18368 0.68391 0.57933
 C1067 C 0.21325 0.66396 0.56336
 C1068 C 0.20571 0.64978 0.52193
 C1069 C 0.16783 0.62683 0.52422
 C1070 C 0.13822 0.64643 0.54034
 C1071 C 0.16477 0.70680 0.51597
 C1072 C 0.19493 0.68699 0.50005
 H1073 H 0.18787 0.69914 0.60641
 H1074 H 0.24075 0.66200 0.57794
 H1075 H 0.16414 0.59752 0.51371
 H1076 H 0.10983 0.63360 0.54360
 H1077 H 0.15460 0.73404 0.50431
 H1078 H 0.21030 0.69763 0.47501
 C1079 C 0.64869 0.19813 1.04159
 C1080 C 0.65199 0.15728 1.05821
 C1081 C 0.68325 0.13753 1.04626
 C1082 C 0.70928 0.15960 1.01799
 C1083 C 0.68191 0.17237 0.98527
 C1084 C 0.65038 0.19236 0.99744
 C1085 C 0.68746 0.21777 1.05137
 C1086 C 0.71897 0.19774 1.03897
 H1087 H 0.63112 0.14468 1.07787
 H1088 H 0.68834 0.10841 1.05624
 H1089 H 0.68786 0.16903 0.95482
 H1090 H 0.63089 0.20551 0.97687
 H1091 H 0.68986 0.24579 1.06543
 H1092 H 0.74796 0.20899 1.04237
 C1093 C 0.85441 0.19775 0.95791
 C1094 C 0.85257 0.15762 0.94495
 C1095 C 0.82029 0.13693 0.95907
 C1096 C 0.79516 0.15948 0.98420
 C1097 C 0.82042 0.17476 1.01460
 C1098 C 0.85298 0.19596 1.00029
 C1099 C 0.81718 0.21470 0.94716
 C1100 C 0.78462 0.19355 0.96168
 H1101 H 0.87433 0.14376 0.92716
 H1102 H 0.81678 0.10656 0.95255
 H1103 H 0.81302 0.17555 1.04493
 H1104 H 0.86961 0.21433 1.01958
 H1105 H 0.81403 0.24237 0.93272
 H1106 H 0.75543 0.20423 0.95885
 C1107 C 0.34462 0.69263 0.45366
 C1108 C 0.35525 0.65095 0.46395
 C1109 C 0.32597 0.62999 0.47901
 C1110 C 0.28771 0.65187 0.48233
 C1111 C 0.29783 0.68839 0.50605
 C1112 C 0.32772 0.70958 0.49121
 C1113 C 0.30920 0.68905 0.42680
 C1114 C 0.27996 0.66767 0.44164
 H1115 H 0.38388 0.63898 0.46024
 H1116 H 0.33022 0.60038 0.48815
 H1117 H 0.28217 0.69762 0.53148
 H1118 H 0.33734 0.73658 0.50415
 H1119 H 0.30494 0.70550 0.40053
 H1120 H 0.25251 0.66572 0.42693
 C1121 C 0.64460 0.80056 0.45744
 C1122 C 0.66287 0.78139 0.49339
 C1123 C 0.69509 0.80032 0.50685
 C1124 C 0.70590 0.83670 0.48351
 C1125 C 0.70975 0.82150 0.44194
 C1126 C 0.67804 0.80275 0.42844
 C1127 C 0.63742 0.84239 0.47005
 C1128 C 0.66897 0.86102 0.48346
 H1129 H 0.65279 0.75475 0.50637
 H1130 H 0.71191 0.78966 0.53101
 H1131 H 0.73584 0.82301 0.42504
 H1132 H 0.67749 0.78894 0.40021
 H1133 H 0.60936 0.85614 0.46925
 H1134 H 0.66710 0.89052 0.49371
 C1135 C 0.14750 0.30092 -0.04625
 C1136 C 0.16574 0.28059 -0.01090
 C1137 C 0.19750 0.29954 0.00366
 C1138 C 0.20796 0.33697 -0.01815
 C1139 C 0.21236 0.32341 -0.06025
 C1140 C 0.18103 0.30489 -0.07483
 C1141 C 0.13949 0.34203 -0.03184
 C1142 C 0.17063 0.36066 -0.01759
 H1143 H 0.15556 0.25365 0.00135
 H1144 H 0.21399 0.28848 0.02788
 H1145 H 0.23861 0.32561 -0.07681
 H1146 H 0.18089 0.29223 -0.10360
 H1147 H 0.11119 0.35530 -0.03208
 H1148 H 0.16807 0.38968 -0.00628
 C1149 C 0.35192 0.29959 0.04728
 C1150 C 0.36094 0.34059 0.03324
 C1151 C 0.33032 0.35970 0.01881
 C1152 C 0.29247 0.33662 0.01905
 C1153 C 0.30211 0.29896 -0.00282
 C1154 C 0.33333 0.27954 0.01178
 C1155 C 0.31829 0.30417 0.07573
 C1156 C 0.28749 0.32333 0.06109
 H1157 H 0.38952 0.35345 0.03396
 H1158 H 0.33351 0.38871 0.00770
 H1159 H 0.28521 0.28787 -0.02685
 H1160 H 0.34251 0.25211 -0.00019
 H1161 H 0.31801 0.29168 0.10448
 H1162 H 0.26127 0.32647 0.07757
 C1163 C 0.85141 0.79941 0.54613
 C1164 C 0.83214 0.77874 0.51136
 C1165 C 0.80059 0.79795 0.49705
 C1166 C 0.79141 0.83601 0.51849
 C1167 C 0.78725 0.82340 0.56081
 C1168 C 0.81832 0.80450 0.57516
 C1169 C 0.86017 0.84010 0.53114
 C1170 C 0.82931 0.85898 0.51704
 H1171 H 0.84126 0.75118 0.49961
 H1172 H 0.78329 0.78654 0.47346
 H1173 H 0.76130 0.82682 0.57771
 H1174 H 0.81858 0.79247 0.60411
 H1175 H 0.88877 0.85291 0.53094
 H1176 H 0.83240 0.88774 0.50535
   
