data_POSCAR
  _audit_creation_date              2014-09-24
  _audit_creation_method            'ToBaCCo'
  _symmetry_space_group_name_H-M    'P1'
  _symmetry_Int_Tables_number       1
  _symmetry_cell_setting            triclinic
  loop_
  _symmetry_equiv_pos_as_xyz
 x,y,z
_cell_length_a 31.8672
_cell_length_b 31.8628
_cell_length_c 31.8603
_cell_angle_alpha 99.055300
_cell_angle_beta 80.690300
_cell_angle_gamma 78.211800
loop_
  _atom_site_label
  _atom_site_type_symbol
  _atom_site_fract_x
  _atom_site_fract_y
  _atom_site_fract_z
C1 C 0.58569 0.39439 0.03664
 C2 C 0.61222 0.42330 0.03745
 C3 C 0.59374 0.45704 0.01852
 N4 N 0.55573 0.45061 0.00818
 C5 C 0.55117 0.41203 0.01848
 C6 C 0.60867 0.49558 0.01540
 C7 C 0.57628 0.53539 0.02698
 C8 C 0.57758 0.57114 0.05736
 C9 C 0.54289 0.60417 0.05637
 C10 C 0.52044 0.58718 0.02656
 N11 N 0.54012 0.54461 0.00970
 C12 C 0.48409 0.61219 0.01414
 C13 C 0.45002 0.59297 0.00294
 C14 C 0.41252 0.61371 -0.00928
 C15 C 0.38706 0.58401 -0.01331
 C16 C 0.41077 0.54527 -0.00584
 N17 N 0.44909 0.55094 0.00412
 C18 C 0.39733 0.50546 -0.00900
 C19 C 0.42549 0.46446 -0.01019
 C20 C 0.41587 0.42466 -0.02411
 C21 C 0.44977 0.39264 -0.01954
 C22 C 0.47922 0.41357 -0.00258
 N23 N 0.46442 0.45745 0.00266
 C24 C 0.51706 0.39185 0.01020
 H25 H 0.59053 0.36450 0.04922
 H26 H 0.64036 0.42087 0.05269
 H27 H 0.47785 0.48097 0.01846
 H28 H 0.60172 0.57334 0.07741
 H29 H 0.53493 0.63707 0.07539
 H30 H 0.40391 0.64663 -0.01498
 H31 H 0.35528 0.59031 -0.02199
 H32 H 0.45222 0.35782 -0.02756
 H33 H 0.53232 0.52461 -0.01569
 H34 H 0.38735 0.41921 -0.03651
 C35 C 0.03806 0.57361 0.59306
 C36 C 0.03731 0.60299 0.56592
 C37 C 0.01453 0.58985 0.53456
 N38 N 0.00186 0.55308 0.54138
 C39 C 0.01621 0.54319 0.57714
 C40 C 0.00492 0.61213 0.50084
 C41 C -0.00852 0.59150 0.46400
 C42 C -0.02817 0.61322 0.43511
 C43 C -0.03229 0.58188 0.40222
 C44 C -0.01668 0.54166 0.41252
 N45 N -0.00223 0.54779 0.45024
 C46 C -0.01300 0.50067 0.38568
 C47 C -0.00953 0.46126 0.40133
 C48 C -0.00501 0.42039 0.37598
 C49 C -0.00558 0.39156 0.40367
 C50 C -0.01033 0.41570 0.44506
 N51 N -0.01347 0.45839 0.44358
 C52 C -0.01413 0.39863 0.48351
 C53 C -0.01655 0.42393 0.52495
 C54 C -0.02848 0.41143 0.56417
 C55 C -0.02297 0.44286 0.59618
 C56 C -0.00694 0.47333 0.57577
 N57 N -0.00338 0.46174 0.53244
 C58 C 0.00792 0.50827 0.59685
 H59 H 0.05331 0.57432 0.62106
 H60 H 0.05230 0.63060 0.56873
 H61 H 0.01275 0.47559 0.50922
 H62 H -0.03816 0.64814 0.43707
 H63 H -0.04542 0.58847 0.37410
 H64 H -0.00252 0.41219 0.34125
 H65 H -0.00349 0.35694 0.39432
 H66 H -0.02893 0.44254 0.63053
 H67 H 0.01575 0.52351 0.46290
 H68 H -0.03921 0.38235 0.56962
 C69 C 0.38531 -0.00489 0.59174
 C70 C 0.41284 -0.00451 0.62061
 C71 C 0.45437 -0.00769 0.59686
 N72 N 0.45292 -0.01087 0.55429
 C73 C 0.41071 -0.00861 0.55112
 C74 C 0.49345 -0.01289 0.61359
 C75 C 0.53514 -0.01582 0.58738
 C76 C 0.57532 -0.02979 0.59871
 C77 C 0.60690 -0.02410 0.56692
 C78 C 0.58563 -0.00515 0.53749
 N79 N 0.54191 -0.00068 0.54990
 C80 C 0.60674 0.00941 0.50150
 C81 C 0.58620 0.01730 0.46629
 C82 C 0.60029 0.03939 0.43451
 C83 C 0.57284 0.03799 0.40563
 C84 C 0.54245 0.01579 0.42105
 N85 N 0.55057 0.00316 0.45812
 C86 C 0.50925 0.00556 0.39977
 C87 C 0.47339 -0.00844 0.42056
 C88 C 0.44421 -0.02585 0.39945
 C89 C 0.41160 -0.03042 0.43102
 C90 C 0.42214 -0.01663 0.47073
 N91 N 0.45983 -0.00311 0.46397
 C92 C 0.39543 -0.01356 0.51173
 H93 H 0.35080 -0.00409 0.59973
 H94 H 0.40330 -0.00378 0.65492
 H95 H 0.47252 0.01392 0.48749
 H96 H 0.58208 -0.04210 0.62719
 H97 H 0.64172 -0.03236 0.56618
 H98 H 0.62735 0.05519 0.43243
 H99 H 0.57473 0.05213 0.37684
 H100 H 0.38316 -0.04204 0.42494
 H101 H 0.51796 0.01681 0.53652
 H102 H 0.44558 -0.03352 0.36487
 O103 O 0.46299 0.00826 -0.04211
 O104 O 0.47135 0.01707 0.07294
 O105 O 0.47326 0.06884 0.01813
 O106 O 0.46086 -0.04408 0.01408
 O107 O 0.53255 -0.06832 -0.00468
 O108 O 0.54475 0.04428 -0.00330
 O109 O 0.54305 -0.00687 0.05329
 O110 O 0.53442 -0.01849 -0.06156
 Cu111 Cu 0.45988 0.01493 0.01749
 Cu112 Cu 0.54587 -0.01466 -0.00612
 C113 C 0.49732 -0.00692 -0.07145
 C114 C 0.50866 0.00655 0.08277
 C115 C 0.51109 0.07589 0.00824
 C116 C 0.49471 -0.07550 0.00474
 O117 O -0.06101 0.53303 0.99969
 O118 O 0.05488 0.53424 0.99359
 O119 O 0.00232 0.53571 0.93900
 O120 O -0.00940 0.53194 1.05508
 O121 O 0.00921 0.45970 1.03868
 O122 O 0.02154 0.46359 0.92272
 O123 O 0.07261 0.46192 0.97888
 O124 O -0.04339 0.46095 0.98322
 Cu125 Cu -0.00508 0.54099 0.99852
 Cu126 Cu 0.01659 0.45424 0.97911
 C127 C -0.07208 0.49692 0.99216
 C128 C 0.08332 0.49824 0.98574
 C129 C 0.01386 0.50027 0.91103
 C130 C -0.00159 0.49518 1.06655
 O131 O 0.01284 -0.06233 0.46714
 O132 O 0.00677 0.05167 0.45709
 O133 O 0.06763 -0.01277 0.46566
 O134 O -0.04983 0.00204 0.46207
 O135 O -0.06625 0.02111 0.53347
 O136 O 0.04986 0.01111 0.53664
 O137 O -0.01374 0.07295 0.52825
 O138 O -0.00280 -0.04252 0.53849
 Cu139 Cu 0.01093 -0.00723 0.45580
 Cu140 Cu -0.00982 0.01761 0.54139
 C141 C 0.00648 -0.07214 0.50435
 C142 C -0.00464 0.08173 0.49078
 C143 C 0.07855 -0.00276 0.50190
 C144 C -0.07809 0.01361 0.49742
 C145 C -0.25542 0.49869 0.99700
 C146 C -0.26734 0.45820 0.99265
 C147 C -0.31167 0.45696 0.99628
 C148 C -0.34546 0.49582 1.00695
 C149 C -0.33177 0.53514 1.00455
 C150 C -0.28801 0.53674 1.00065
 C151 C -0.20835 0.49916 0.99569
 C152 C -0.19417 0.53818 1.00364
 C153 C -0.15007 0.53712 1.00247
 C154 C -0.11882 0.49719 0.99357
 C155 C -0.13268 0.45801 0.98611
 C156 C -0.17717 0.45875 0.98750
 C157 C -0.23490 0.41918 0.98439
 C158 C -0.19075 0.41945 0.98147
 H159 H -0.24378 0.38794 0.98037
 H160 H -0.16697 0.38841 0.97519
 H161 H -0.31889 0.42525 0.98950
 H162 H -0.35438 0.56542 1.00470
 H163 H -0.14049 0.56787 1.00869
 H164 H -0.10893 0.42692 0.97959
 H165 H -0.28040 0.56812 0.99992
 H166 H -0.21663 0.56990 1.01144
 C167 C 0.26280 0.50214 0.99126
 C168 C 0.28697 0.51572 0.95670
 C169 C 0.33114 0.51619 0.95591
 C170 C 0.35062 0.50600 0.99064
 C171 C 0.32592 0.49455 1.02570
 C172 C 0.28270 0.49237 1.02602
 C173 C 0.21660 0.49984 0.98997
 C174 C 0.19209 0.48099 1.01948
 C175 C 0.14895 0.48003 1.01733
 C176 C 0.12912 0.49846 0.98633
 C177 C 0.15321 0.51656 0.95619
 C178 C 0.19726 0.51622 0.95702
 C179 C 0.26657 0.52964 0.92383
 C180 C 0.22234 0.53103 0.92465
 H181 H 0.28481 0.54059 0.89762
 H182 H 0.20780 0.54299 0.89903
 H183 H 0.35024 0.52492 0.92866
 H184 H 0.34047 0.48682 1.05286
 H185 H 0.13069 0.46547 1.04043
 H186 H 0.13795 0.52985 0.93154
 H187 H 0.26529 0.48364 1.05404
 H188 H 0.20579 0.46624 1.04399
 C189 C 0.01023 -0.25419 0.51005
 C190 C 0.02917 -0.28495 0.47101
 C191 C 0.02839 -0.32911 0.46863
 C192 C 0.00795 -0.34359 0.50432
 C193 C -0.01035 -0.31292 0.54319
 C194 C -0.00920 -0.26898 0.54610
 C195 C 0.01067 -0.20705 0.51074
 C196 C -0.00679 -0.17376 0.54799
 C197 C -0.00726 -0.13007 0.54625
 C198 C 0.00947 -0.11849 0.50737
 C199 C 0.02807 -0.15154 0.47053
 C200 C 0.02895 -0.19546 0.47194
 C201 C 0.04803 -0.27144 0.43420
 C202 C 0.04764 -0.22762 0.43456
 H203 H 0.06261 -0.29501 0.40433
 H204 H 0.06197 -0.21874 0.40496
 H205 H 0.04379 -0.35241 0.43872
 H206 H -0.02712 -0.32262 0.57114
 H207 H -0.02161 -0.10521 0.57520
 H208 H 0.04167 -0.14308 0.44041
 H209 H -0.02450 -0.24707 0.57657
 H210 H -0.02053 -0.18064 0.57865
 C211 C -0.00897 0.26165 0.47808
 C212 C -0.04812 0.29334 0.49791
 C213 C -0.05058 0.33775 0.49725
 C214 C -0.01344 0.35142 0.48009
 C215 C 0.02562 0.32017 0.46154
 C216 C 0.02781 0.27577 0.46002
 C217 C -0.00770 0.21461 0.47918
 C218 C 0.02762 0.18022 0.45596
 C219 C 0.02792 0.13701 0.45921
 C220 C -0.00644 0.12721 0.48626
 C221 C -0.04232 0.16091 0.50865
 C222 C -0.04376 0.20436 0.50428
 C223 C -0.08376 0.28074 0.52000
 C224 C -0.08117 0.23737 0.52415
 H225 H -0.11359 0.30501 0.53561
 H226 H -0.10912 0.22948 0.54273
 H227 H -0.08070 0.36202 0.51197
 H228 H 0.05468 0.33033 0.44859
 H229 H 0.05561 0.11118 0.44128
 H230 H -0.06948 0.15311 0.52866
 H231 H 0.05891 0.25323 0.44594
 H232 H 0.05503 0.18598 0.43484
 C233 C 0.49053 -0.01866 -0.25369
 C234 C 0.46596 0.01840 -0.26539
 C235 C 0.46686 0.01993 -0.30936
 C236 C 0.49085 -0.01566 -0.34218
 C237 C 0.51202 -0.05377 -0.33013
 C238 C 0.51232 -0.05517 -0.28659
 C239 C 0.49198 -0.01741 -0.20671
 C240 C 0.52060 -0.04956 -0.19244
 C241 C 0.52205 -0.04604 -0.14848
 C242 C 0.49440 -0.01100 -0.11759
 C243 C 0.46553 0.02104 -0.13130
 C244 C 0.46509 0.01878 -0.17566
 C245 C 0.44063 0.05359 -0.23316
 C246 C 0.43937 0.05329 -0.18922
 H247 H 0.42121 0.08170 -0.24202
 H248 H 0.41903 0.08119 -0.16554
 H249 H 0.44950 0.04922 -0.31817
 H250 H 0.52876 -0.08253 -0.35464
 H251 H 0.54482 -0.07091 -0.13853
 H252 H 0.44487 0.04877 -0.10758
 H253 H 0.52951 -0.08517 -0.27932
 H254 H 0.54292 -0.07698 -0.21481
 C255 C 0.51701 0.00968 0.26399
 C256 C 0.48011 0.03498 0.29528
 C257 C 0.47859 0.03487 0.33954
 C258 C 0.51265 0.00857 0.35321
 C259 C 0.54914 -0.01648 0.32230
 C260 C 0.55152 -0.01582 0.27827
 C261 C 0.51690 0.00998 0.21696
 C262 C 0.55262 -0.01263 0.18339
 C263 C 0.55015 -0.01287 0.13999
 C264 C 0.51200 0.00919 0.12886
 C265 C 0.47671 0.03286 0.16206
 C266 C 0.47903 0.03376 0.20583
 C267 C 0.44440 0.05918 0.28216
 C268 C 0.44365 0.05816 0.23840
 H269 H 0.41613 0.07846 0.30610
 H270 H 0.41484 0.07674 0.22992
 H271 H 0.45030 0.05422 0.36345
 H272 H 0.57559 -0.03722 0.33229
 H273 H 0.57796 -0.03118 0.11502
 H274 H 0.44731 0.05061 0.15384
 H275 H 0.58014 -0.03626 0.25599
 H276 H 0.58270 -0.03045 0.18986
 C277 C 0.48219 -0.25380 0.01265
 C278 C 0.52068 -0.28703 -0.00496
 C279 C 0.52060 -0.33083 -0.00409
 C280 C 0.48267 -0.34290 0.01425
 C281 C 0.44497 -0.30955 0.03323
 C282 C 0.44458 -0.26572 0.03223
 C283 C 0.48366 -0.20739 0.01025
 C284 C 0.44684 -0.17191 0.02510
 C285 C 0.45024 -0.12924 0.02265
 C286 C 0.49040 -0.12082 0.00546
 C287 C 0.52700 -0.15603 -0.01010
 C288 C 0.52391 -0.19897 -0.00810
 C289 C 0.55924 -0.27651 -0.02326
 C290 C 0.56091 -0.23341 -0.02447
 H291 H 0.58875 -0.30201 -0.03660
 H292 H 0.59166 -0.22697 -0.03867
 H293 H 0.55017 -0.35594 -0.01873
 H294 H 0.41600 -0.31711 0.05019
 H295 H 0.42143 -0.10270 0.03481
 H296 H 0.55815 -0.15006 -0.02385
 H297 H 0.41474 -0.24169 0.04749
 H298 H 0.41517 -0.17637 0.03868
 C299 C 0.52445 0.25565 0.01310
 C300 C 0.48978 0.28862 0.04038
 C301 C 0.48905 0.33289 0.04103
 C302 C 0.52141 0.34509 0.01346
 C303 C 0.55588 0.31258 -0.01337
 C304 C 0.55764 0.26839 -0.01340
 C305 C 0.52315 0.20871 0.01237
 C306 C 0.55674 0.17332 -0.01224
 C307 C 0.55309 0.13023 -0.01304
 C308 C 0.51575 0.12135 0.01028
 C309 C 0.48262 0.15628 0.03566
 C310 C 0.48626 0.19963 0.03729
 C311 C 0.45518 0.27731 0.06563
 C312 C 0.45318 0.23381 0.06370
 H313 H 0.42862 0.30256 0.08642
 H314 H 0.42519 0.22682 0.08315
 H315 H 0.46225 0.35805 0.06163
 H316 H 0.58091 0.32147 -0.03516
 H317 H 0.57926 0.10379 -0.03262
 H318 H 0.45400 0.14970 0.05447
 H319 H 0.58451 0.24482 -0.03527
 H320 H 0.58606 0.17816 -0.03106
 C321 C -0.26240 0.02149 0.50065
 C322 C -0.27341 0.00010 0.46302
 C323 C -0.31679 -0.00302 0.46312
 C324 C -0.34993 0.01487 0.50039
 C325 C -0.33888 0.03732 0.53710
 C326 C -0.29595 0.04064 0.53731
 C327 C -0.21532 0.02198 0.50004
 C328 C -0.20080 0.04044 0.53655
 C329 C -0.15644 0.03824 0.53511
 C330 C -0.12522 0.01793 0.49723
 C331 C -0.13936 0.00038 0.46025
 C332 C -0.18400 0.00184 0.46154
 C333 C -0.24096 -0.01870 0.42576
 C334 C -0.19728 -0.01765 0.42496
 H335 H -0.24939 -0.03485 0.39681
 H336 H -0.17341 -0.03302 0.39543
 H337 H -0.32438 -0.02107 0.43463
 H338 H -0.36376 0.05263 0.56591
 H339 H -0.14653 0.05227 0.56408
 H340 H -0.11552 -0.01561 0.43085
 H341 H -0.28985 0.05816 0.56664
 H342 H -0.22294 0.05610 0.56682
 C343 C 0.26087 -0.01598 0.51066
 C344 C 0.27175 0.02233 0.53030
 C345 C 0.31566 0.02272 0.53054
 C346 C 0.34889 -0.01522 0.51336
 C347 C 0.33777 -0.05410 0.49722
 C348 C 0.29433 -0.05446 0.49532
 C349 C 0.21405 -0.01392 0.50773
 C350 C 0.20077 -0.04766 0.48285
 C351 C 0.15674 -0.04374 0.48051
 C352 C 0.12498 -0.00670 0.50375
 C353 C 0.13778 0.02717 0.52834
 C354 C 0.18211 0.02445 0.52936
 C355 C 0.23874 0.05978 0.54992
 C356 C 0.19476 0.06039 0.55053
 H357 H 0.24697 0.08889 0.56560
 H358 H 0.17038 0.08996 0.56668
 H359 H 0.32418 0.05252 0.54411
 H360 H 0.36302 -0.08396 0.48495
 H361 H 0.14735 -0.06998 0.46101
 H362 H 0.11329 0.05637 0.54541
 H363 H 0.28752 -0.08509 0.48205
 H364 H 0.22399 -0.07681 0.46429
 C365 C -0.00589 0.49386 1.24847
 C366 C -0.04558 0.51477 1.27805
 C367 C -0.04842 0.51556 1.32266
 C368 C -0.01126 0.49862 1.33850
 C369 C 0.02845 0.47964 1.30935
 C370 C 0.03113 0.47683 1.26484
 C371 C -0.00453 0.49228 1.20107
 C372 C 0.03124 0.46714 1.16882
 C373 C 0.03142 0.46752 1.12508
 C374 C -0.00355 0.49354 1.11259
 C375 C -0.03983 0.51790 1.14417
 C376 C -0.04112 0.51636 1.18820
 C377 C -0.08158 0.53597 1.26304
 C378 C -0.07896 0.53785 1.21923
 H379 H -0.11182 0.55249 1.28569
 H380 H -0.10728 0.55570 1.20938
 H381 H -0.07914 0.53041 1.34526
 H382 H 0.05748 0.46676 1.32121
 H383 H 0.05946 0.44817 1.10091
 H384 H -0.06737 0.53717 1.13430
 H385 H 0.06263 0.46219 1.24394
 H386 H 0.05909 0.44663 1.17668
 C387 C 0.02122 0.50476 0.72873
 C388 C -0.00601 0.54146 0.71893
 C389 C -0.00959 0.54278 0.67582
 C390 C 0.01434 0.50838 0.64205
 C391 C 0.04313 0.47323 0.65148
 C392 C 0.04652 0.47127 0.69427
 C393 C 0.02152 0.50306 0.77542
 C394 C 0.04383 0.46611 0.78880
 C395 C 0.04160 0.46545 0.83280
 C396 C 0.01759 0.50173 0.86452
 C397 C -0.00427 0.53890 0.85157
 C398 C -0.00319 0.53951 0.80748
 C399 C -0.02974 0.57641 0.75218
 C400 C -0.02783 0.57575 0.79546
 H401 H -0.05017 0.60474 0.74464
 H402 H -0.04684 0.60359 0.82002
 H403 H -0.03157 0.57021 0.66846
 H404 H 0.06237 0.44675 0.62559
 H405 H 0.05868 0.43635 0.84202
 H406 H -0.02348 0.56685 0.87592
 H407 H 0.06892 0.44324 0.69960
 H408 H 0.06240 0.43706 0.76594
   
