data_POSCAR
  _audit_creation_date              2014-09-24
  _audit_creation_method            'ToBaCCo'
  _symmetry_space_group_name_H-M    'P1'
  _symmetry_Int_Tables_number       1
  _symmetry_cell_setting            triclinic
  loop_
  _symmetry_equiv_pos_as_xyz
 x,y,z
_cell_length_a 54.4488
_cell_length_b 54.5052
_cell_length_c 15.5727
_cell_angle_alpha 90.042400
_cell_angle_beta 90.053000
_cell_angle_gamma 119.890300
loop_
  _atom_site_label
  _atom_site_type_symbol
  _atom_site_fract_x
  _atom_site_fract_y
  _atom_site_fract_z
C1 C 0.22314 0.49137 0.45048
 C2 C 0.22646 0.49698 0.54070
 C3 C 0.25076 0.49964 0.58210
 C4 C 0.27045 0.49453 0.53858
 C5 C 0.26655 0.48852 0.44925
 C6 C 0.24286 0.48636 0.40731
 H7 H 0.24121 0.48318 0.33829
 H8 H 0.25269 0.50250 0.65113
 C9 C 0.49701 -0.27405 0.45632
 C10 C 0.50178 -0.27129 0.54647
 C11 C 0.50403 -0.24775 0.59002
 C12 C 0.50048 -0.22696 0.54741
 C13 C 0.49585 -0.22956 0.45706
 C14 C 0.49358 -0.25320 0.41360
 H15 H 0.49123 -0.25413 0.34434
 H16 H 0.50641 -0.24692 0.65929
 C17 C 1.27081 0.77439 0.45675
 C18 C 1.26736 0.77644 0.54671
 C19 C 1.24338 0.75533 0.58870
 C20 C 1.22262 0.73195 0.54395
 C21 C 1.22571 0.72952 0.45500
 C22 C 1.24992 0.75032 0.41283
 H23 H 1.25141 0.74851 0.34394
 H24 H 1.24128 0.75667 0.65758
 C25 C 0.77459 0.50380 0.45306
 C26 C 0.77170 0.49820 0.54285
 C27 C 0.74754 0.49559 0.58500
 C28 C 0.72787 0.50101 0.54212
 C29 C 0.73118 0.50635 0.45235
 C30 C 0.75436 0.50773 0.40955
 H31 H 0.75618 0.51099 0.34059
 H32 H 0.74583 0.49266 0.65400
 C33 C 0.50500 0.27468 0.46072
 C34 C 0.49912 0.27206 0.55020
 C35 C 0.49467 0.24742 0.59282
 C36 C 0.49758 0.22620 0.55059
 C37 C 0.50309 0.22887 0.46091
 C38 C 0.50711 0.25317 0.41774
 H39 H 0.51003 0.25448 0.34867
 H40 H 0.49150 0.24599 0.66177
 C41 C 0.72949 0.22611 0.45385
 C42 C 0.72921 0.22587 0.54430
 C43 C 0.75130 0.24815 0.58970
 C44 C 0.77392 0.27115 0.54717
 C45 C 0.77405 0.27104 0.45548
 C46 C 0.75176 0.24867 0.41050
 H47 H 0.75203 0.24851 0.34086
 H48 H 0.75012 0.24786 0.65921
 O49 O 0.96303 0.43729 0.15690
 O50 O 0.93056 0.44290 0.07809
 C51 C 0.93718 0.43035 0.13691
 O52 O 1.04049 0.56465 0.14561
 O53 O 1.07128 0.55720 0.06459
 C54 C 1.06589 0.57114 0.12173
 O55 O 0.96139 0.52258 0.15763
 O56 O 0.92996 0.48353 0.08042
 C57 C 0.93593 0.50288 0.13808
 O58 O 1.04248 0.47562 0.14173
 O59 O 1.07226 0.51550 0.06514
 C60 C 1.06748 0.49569 0.11970
 Zr61 Zr 1.00210 0.46909 0.10577
 O62 O 1.00659 0.47141 0.24110
 O63 O 0.99975 0.42914 0.10572
 Zr64 Zr 1.00068 0.53049 0.10700
 O65 O 1.00475 0.53204 0.24245
 O66 O 0.99696 0.56736 0.10757
 O67 O 0.97630 0.48682 0.12556
 O68 O 1.02605 0.51249 0.12034
 O69 O 1.04021 0.47589 -0.15582
 O70 O 1.07120 0.51546 -0.08016
 C71 C 1.06569 0.49563 -0.13558
 O72 O 0.95779 0.51974 -0.15472
 O73 O 0.92795 0.48221 -0.07004
 C74 C 0.93265 0.50031 -0.13075
 O75 O 1.03742 0.56389 -0.15226
 O76 O 1.06998 0.55674 -0.07937
 C77 C 1.06327 0.57058 -0.13336
 O78 O 0.96051 0.43691 -0.15897
 O79 O 0.92957 0.44233 -0.07163
 C80 C 0.93519 0.43000 -0.13342
 Zr81 Zr 1.00025 0.46852 -0.11079
 O82 O 1.00224 0.46869 -0.24649
 O83 O 0.99800 0.42859 -0.10725
 Zr84 Zr 0.99844 0.52962 -0.10942
 O85 O 1.00055 0.53108 -0.24525
 O86 O 0.99393 0.56602 -0.10819
 Zr87 Zr 0.95813 0.47759 0.00180
 Zr88 Zr 1.04250 0.52126 -0.00518
 O89 O 1.02373 0.51176 -0.12792
 O90 O 0.97398 0.48596 -0.12484
 O91 O 1.02664 0.47720 -0.00465
 O92 O 0.97476 0.52170 0.00087
 O93 O 0.97659 0.45162 -0.00072
 O94 O 1.02475 0.54792 -0.00325
 H95 H 1.03924 0.51919 0.16990
 H96 H 0.96157 0.52927 0.00165
 H97 H 1.03595 0.51825 -0.17956
 H98 H 0.96405 0.43080 -0.00020
 H99 H 1.01249 0.58175 0.07196
 H100 H 1.00989 0.58076 -0.07449
 H101 H 0.98463 0.51315 -0.26720
 H102 H 0.98792 0.47327 -0.26807
 H103 H 1.01579 0.43134 -0.08132
 H104 H 1.01452 0.43040 0.06610
 H105 H 0.99069 0.47313 0.26495
 H106 H 0.98885 0.51433 0.26554
 O107 O 0.52187 0.56284 -0.15575
 O108 O 0.48272 0.55388 -0.07667
 C109 C 0.50170 0.56780 -0.13462
 O110 O 0.47714 0.43543 -0.14990
 O111 O 0.51749 0.44544 -0.07524
 C112 C 0.49738 0.43052 -0.12925
 O113 O 0.43806 0.47588 -0.15972
 O114 O 0.44262 0.51267 -0.07662
 C115 C 0.43052 0.49416 -0.13744
 O116 O 0.56552 0.52718 -0.14919
 O117 O 0.55898 0.48851 -0.07245
 C118 C 0.57258 0.50843 -0.12816
 Zr119 Zr 0.53101 0.53189 -0.10781
 O120 O 0.53385 0.53235 -0.24341
 O121 O 0.56828 0.57169 -0.09660
 Zr122 Zr 0.47031 0.46875 -0.11113
 O123 O 0.47323 0.46824 -0.24667
 O124 O 0.43062 0.43098 -0.11582
 O125 O 0.48727 0.51219 -0.12643
 O126 O 0.51375 0.48882 -0.12550
 O127 O 0.56529 0.52723 0.14784
 O128 O 0.55831 0.48804 0.07224
 C129 C 0.57202 0.50823 0.12720
 O130 O 0.43641 0.47348 0.15248
 O131 O 0.44232 0.51167 0.07392
 C132 C 0.42942 0.49222 0.13141
 O133 O 0.47782 0.43544 0.14696
 O134 O 0.51748 0.44509 0.06991
 C135 C 0.49795 0.43036 0.12564
 O136 O 0.51983 0.56129 0.15737
 O137 O 0.48186 0.55354 0.07405
 C138 C 0.50005 0.56678 0.13483
 Zr139 Zr 0.53017 0.53122 0.10823
 O140 O 0.53152 0.52928 0.24382
 O141 O 0.56642 0.57212 0.10946
 Zr142 Zr 0.46971 0.46783 0.10552
 O143 O 0.47084 0.46618 0.24122
 O144 O 0.43041 0.42954 0.10258
 Zr145 Zr 0.47767 0.51961 -0.00128
 Zr146 Zr 0.52273 0.48011 -0.00148
 O147 O 0.51305 0.48807 0.12269
 O148 O 0.48636 0.51122 0.12391
 O149 O 0.54873 0.52447 0.00035
 O150 O 0.45245 0.47522 -0.00297
 O151 O 0.52167 0.54766 0.00031
 O152 O 0.47875 0.45150 -0.00308
 H153 H 0.52060 0.48293 -0.17609
 H154 H 0.43155 0.46647 -0.00397
 H155 H 0.51978 0.48210 0.17336
 H156 H 0.52885 0.56832 0.00116
 H157 H 0.43147 0.41758 -0.07484
 H158 H 0.43325 0.41540 0.07099
 H159 H 0.47180 0.48362 0.26371
 H160 H 0.51316 0.52616 0.26594
 H161 H 0.57962 0.57223 0.06562
 H162 H 0.57468 0.57818 -0.15605
 H163 H 0.51500 0.52742 -0.26633
 H164 H 0.47333 0.48529 -0.26890
 O165 O 0.52255 -0.04021 0.15339
 O166 O 0.48481 -0.07079 0.07041
 C167 C 0.50325 -0.06553 0.13052
 O168 O 0.47443 0.03885 0.15220
 O169 O 0.51339 0.07029 0.07544
 C170 C 0.49363 0.06441 0.13146
 O171 O 0.43781 -0.04064 0.15753
 O172 O 0.44386 -0.07147 0.07180
 C173 C 0.43132 -0.06606 0.13368
 O174 O 0.56448 0.03934 0.14783
 O175 O 0.55577 0.07047 0.07314
 C176 C 0.57013 0.06481 0.12804
 Zr177 Zr 0.53085 -0.00039 0.10509
 O178 O 0.53360 0.00228 0.24065
 O179 O 0.56800 -0.00362 0.09895
 Zr180 Zr 0.46862 -0.00052 0.10901
 O181 O 0.46928 0.00181 0.24471
 O182 O 0.42912 -0.00203 0.10318
 O183 O 0.48725 -0.02568 0.12288
 O184 O 0.51196 0.02400 0.12380
 O185 O 0.56307 0.04024 -0.15273
 O186 O 0.55528 0.07104 -0.07276
 C187 C 0.56916 0.06562 -0.13015
 O188 O 0.43538 -0.03926 -0.15334
 O189 O 0.44320 -0.07084 -0.07723
 C190 C 0.42941 -0.06480 -0.13338
 O191 O 0.47292 0.04004 -0.14350
 O192 O 0.51325 0.07095 -0.06989
 C193 C 0.49279 0.06534 -0.12301
 O194 O 0.52242 -0.03886 -0.16185
 O195 O 0.48443 -0.07029 -0.08114
 C196 C 0.50327 -0.06429 -0.14039
 Zr197 Zr 0.52989 0.00035 -0.11142
 O198 O 0.53067 0.00355 -0.24696
 O199 O 0.56734 -0.00237 -0.11282
 Zr200 Zr 0.46775 0.00031 -0.10689
 O201 O 0.46926 0.00372 -0.24244
 O202 O 0.42777 -0.00207 -0.10554
 Zr203 Zr 0.47818 -0.04227 -0.00291
 Zr204 Zr 0.52035 0.04216 0.00044
 O205 O 0.51097 0.02492 -0.12415
 O206 O 0.48613 -0.02487 -0.12740
 O207 O 0.54786 0.02539 -0.00257
 O208 O 0.45135 -0.02485 0.00061
 O209 O 0.52247 -0.02474 -0.00431
 O210 O 0.47613 0.02525 0.00247
 H211 H 0.51832 0.03644 0.17504
 H212 H 0.43055 -0.03764 0.00178
 H213 H 0.51696 0.03774 -0.17444
 H214 H 0.53044 -0.03759 -0.00529
 H215 H 0.42305 -0.00263 0.16348
 H216 H 0.42798 0.00997 -0.05761
 H217 H 0.46957 -0.01303 -0.26553
 H218 H 0.51241 -0.01191 -0.26881
 H219 H 0.58183 0.01368 -0.07888
 H220 H 0.58265 0.01338 0.06891
 H221 H 0.51525 -0.01254 0.26380
 H222 H 0.47360 -0.01267 0.26636
 C223 C 1.16049 0.49751 0.30417
 C224 C 1.16518 0.47445 0.29198
 C225 C 1.18683 0.47326 0.33758
 C226 C 1.20259 0.49363 0.40067
 C227 C 1.19727 0.51609 0.41391
 C228 C 1.17672 0.51814 0.36608
 C229 C 1.13754 0.49827 0.25333
 C230 C 1.13350 0.52189 0.25284
 C231 C 1.11110 0.52113 0.20710
 C232 C 1.09202 0.49674 0.16212
 C233 C 1.09623 0.47342 0.15976
 C234 C 1.11933 0.47434 0.20306
 C235 C 1.14747 0.45215 0.23715
 C236 C 1.12455 0.45174 0.19552
 H237 H 1.15082 0.43431 0.22841
 H238 H 1.11095 0.43361 0.15588
 H239 H 1.19014 0.45540 0.32799
 H240 H 1.20942 0.53247 0.46062
 H241 H 1.10816 0.53937 0.20874
 H242 H 1.08178 0.45480 0.12314
 H243 H 1.17344 0.53570 0.37995
 H244 H 1.14748 0.54115 0.28684
 C245 C 0.49564 0.65838 0.31370
 C246 C 0.51563 0.67198 0.38021
 C247 C 0.51619 0.69444 0.42575
 C248 C 0.49672 0.70366 0.40812
 C249 C 0.47757 0.69071 0.33975
 C250 C 0.47688 0.66834 0.29364
 C251 C 0.49578 0.63434 0.26684
 C252 C 0.47644 0.61892 0.20082
 C253 C 0.47777 0.59699 0.15848
 C254 C 0.49837 0.58976 0.18080
 C255 C 0.51746 0.60477 0.24729
 C256 C 0.51630 0.62681 0.29026
 C257 C 0.53521 0.66332 0.40062
 C258 C 0.53559 0.64130 0.35646
 H259 H 0.55054 0.67379 0.45158
 H260 H 0.55125 0.63550 0.37456
 H261 H 0.53274 0.70554 0.47281
 H262 H 0.46223 0.69713 0.32365
 H263 H 0.46261 0.58572 0.10786
 H264 H 0.53339 0.59937 0.26578
 H265 H 0.46144 0.65910 0.24283
 H266 H 0.46012 0.62341 0.18085
 C267 C 0.33929 -0.16052 0.31477
 C268 C 0.32592 -0.15367 0.38082
 C269 C 0.30326 -0.17519 0.42654
 C270 C 0.29367 -0.20395 0.40969
 C271 C 0.30666 -0.21060 0.34249
 C272 C 0.32919 -0.18931 0.29617
 C273 C 0.36331 -0.13675 0.26699
 C274 C 0.37811 -0.14117 0.20009
 C275 C 0.40013 -0.11828 0.15718
 C276 C 0.40805 -0.09034 0.17969
 C277 C 0.39354 -0.08575 0.24661
 C278 C 0.37137 -0.10859 0.29009
 C279 C 0.33500 -0.12534 0.40060
 C280 C 0.35723 -0.10331 0.35627
 H281 H 0.32475 -0.12011 0.45131
 H282 H 0.36340 -0.08176 0.37403
 H283 H 0.29225 -0.16933 0.47270
 H284 H 0.30008 -0.23242 0.32730
 H285 H 0.41094 -0.12256 0.10602
 H286 H 0.39942 -0.06432 0.26502
 H287 H 0.33842 -0.19588 0.24639
 H288 H 0.37301 -0.16210 0.17975
 C289 C 0.84271 0.50494 0.30998
 C290 C 0.82199 0.47957 0.34912
 C291 C 0.79975 0.47924 0.39582
 C292 C 0.79725 0.50359 0.40092
 C293 C 0.81662 0.52807 0.35704
 C294 C 0.83926 0.52890 0.31276
 C295 C 0.86715 0.50503 0.26577
 C296 C 0.89081 0.53004 0.23602
 C297 C 0.91317 0.52913 0.19557
 C298 C 0.91230 0.50330 0.18239
 C299 C 0.88905 0.47824 0.21246
 C300 C 0.86688 0.47905 0.25629
 C301 C 0.82343 0.45472 0.34024
 C302 C 0.84498 0.45430 0.29284
 H303 H 0.80738 0.43518 0.36917
 H304 H 0.84490 0.43445 0.28660
 H305 H 0.78427 0.46006 0.42792
 H306 H 0.81465 0.54688 0.35940
 H307 H 0.93109 0.54869 0.17324
 H308 H 0.88869 0.45831 0.20414
 H309 H 0.85368 0.54838 0.28071
 H310 H 0.89269 0.55054 0.24472
 C311 C 0.50421 0.34061 0.30917
 C312 C 0.48156 0.32385 0.36550
 C313 C 0.48186 0.30225 0.41355
 C314 C 0.50474 0.29730 0.40808
 C315 C 0.52706 0.31368 0.35188
 C316 C 0.52689 0.33510 0.30304
 C317 C 0.50301 0.36353 0.25910
 C318 C 0.52425 0.38125 0.20071
 C319 C 0.52231 0.40253 0.15660
 C320 C 0.49922 0.40685 0.16955
 C321 C 0.47780 0.38909 0.22687
 C322 C 0.47950 0.36757 0.27135
 C323 C 0.45879 0.32879 0.37403
 C324 C 0.45783 0.35023 0.32819
 H325 H 0.44149 0.31597 0.41728
 H326 H 0.43980 0.35328 0.33746
 H327 H 0.46429 0.28927 0.45583
 H328 H 0.54485 0.31008 0.34663
 H329 H 0.53920 0.41585 0.11289
 H330 H 0.45978 0.39206 0.23744
 H331 H 0.54474 0.34715 0.26143
 H332 H 0.54259 0.37914 0.18836
 C333 C 0.66101 0.15951 0.31114
 C334 C 0.68472 0.15701 0.33557
 C335 C 0.70745 0.17926 0.37962
 C336 C 0.70628 0.20344 0.40339
 C337 C 0.68262 0.20572 0.38115
 C338 C 0.66025 0.18410 0.33519
 C339 C 0.63749 0.13557 0.26237
 C340 C 0.61424 0.13702 0.22865
 C341 C 0.59278 0.11413 0.18424
 C342 C 0.59367 0.08905 0.17296
 C343 C 0.61686 0.08742 0.20539
 C344 C 0.63898 0.11065 0.24846
 C345 C 0.68532 0.13212 0.31764
 C346 C 0.66273 0.10926 0.27638
 H347 H 0.70334 0.13009 0.33710
 H348 H 0.66406 0.09033 0.26513
 H349 H 0.72579 0.17754 0.39751
 H350 H 0.68144 0.22425 0.39992
 H351 H 0.57513 0.11595 0.15976
 H352 H 0.61793 0.06827 0.19568
 H353 H 0.64243 0.18687 0.32051
 H354 H 0.61230 0.15568 0.23514
 C355 C 0.49355 0.15845 -0.30286
 C356 C 0.51532 0.17276 -0.36393
 C357 C 0.51612 0.19465 -0.41339
 C358 C 0.49626 0.20367 -0.40053
 C359 C 0.47583 0.19056 -0.33560
 C360 C 0.47421 0.16804 -0.28834
 C361 C 0.49261 0.13425 -0.25449
 C362 C 0.46963 0.11603 -0.20175
 C363 C 0.46967 0.09354 -0.15888
 C364 C 0.49285 0.08925 -0.16596
 C365 C 0.51571 0.10702 -0.21848
 C366 C 0.51536 0.12890 -0.26480
 C367 C 0.53664 0.16570 -0.37359
 C368 C 0.53709 0.14478 -0.32329
 H369 H 0.55355 0.17690 -0.41961
 H370 H 0.55432 0.14045 -0.33200
 H371 H 0.53310 0.20557 -0.45942
 H372 H 0.46025 0.19699 -0.32339
 H373 H 0.45169 0.07958 -0.11949
 H374 H 0.53329 0.10311 -0.22564
 H375 H 0.45791 0.15865 -0.24004
 H376 H 0.45123 0.11842 -0.19446
 C377 C 0.66474 0.50804 -0.31582
 C378 C 0.67086 0.48626 -0.29668
 C379 C 0.69209 0.48426 -0.34253
 C380 C 0.70687 0.50316 -0.40987
 C381 C 0.70098 0.52508 -0.42669
 C382 C 0.68029 0.52745 -0.38100
 C383 C 0.64181 0.50936 -0.26621
 C384 C 0.63441 0.53042 -0.27998
 C385 C 0.61239 0.53031 -0.23398
 C386 C 0.59707 0.50928 -0.17279
 C387 C 0.60464 0.48848 -0.15737
 C388 C 0.62681 0.48839 -0.20343
 C389 C 0.65549 0.46639 -0.23275
 C390 C 0.63387 0.46735 -0.18747
 H391 H 0.66008 0.44965 -0.21797
 H392 H 0.62245 0.45130 -0.13926
 H393 H 0.69617 0.46714 -0.32817
 H394 H 0.71319 0.54131 -0.47340
 H395 H 0.60716 0.54668 -0.24734
 H396 H 0.59304 0.47205 -0.11032
 H397 H 0.67699 0.54477 -0.39777
 H398 H 0.64515 0.54709 -0.32632
 C399 C 0.84029 0.33706 -0.30619
 C400 C 0.83001 0.34357 -0.38117
 C401 C 0.80748 0.32195 -0.42760
 C402 C 0.79544 0.29336 -0.40305
 C403 C 0.80534 0.28725 -0.32697
 C404 C 0.82738 0.30864 -0.27951
 C405 C 0.86466 0.36072 -0.25909
 C406 C 0.87623 0.35650 -0.18311
 C407 C 0.89921 0.37918 -0.14249
 C408 C 0.91119 0.40641 -0.17675
 C409 C 0.89983 0.41111 -0.25138
 C410 C 0.87661 0.38850 -0.29266
 C411 C 0.84243 0.37159 -0.41005
 C412 C 0.86531 0.39354 -0.36700
 H413 H 0.83458 0.37660 -0.46756
 H414 H 0.87434 0.41480 -0.39245
 H415 H 0.79905 0.32761 -0.48228
 H416 H 0.79699 0.26562 -0.30571
 H417 H 0.90773 0.37547 -0.08415
 H418 H 0.90904 0.43239 -0.27697
 H419 H 0.83428 0.30232 -0.22307
 H420 H 0.86790 0.33596 -0.15387
 C421 C 0.50275 -0.15890 -0.31110
 C422 C 0.48207 -0.17288 -0.37563
 C423 C 0.48115 -0.19557 -0.42111
 C424 C 0.50063 -0.20484 -0.40395
 C425 C 0.52012 -0.19177 -0.33649
 C426 C 0.52134 -0.16905 -0.29126
 C427 C 0.50364 -0.13411 -0.26611
 C428 C 0.52462 -0.11752 -0.20512
 C429 C 0.52450 -0.09466 -0.16501
 C430 C 0.50347 -0.08795 -0.18438
 C431 C 0.48274 -0.10388 -0.24556
 C432 C 0.48282 -0.12672 -0.28717
 C433 C 0.46229 -0.16430 -0.39414
 C434 C 0.46248 -0.14191 -0.35027
 H435 H 0.44634 -0.17512 -0.44325
 H436 H 0.44667 -0.13615 -0.36683
 H437 H 0.46469 -0.20647 -0.46876
 H438 H 0.53546 -0.19822 -0.32090
 H439 H 0.54072 -0.08230 -0.11801
 H440 H 0.46689 -0.09814 -0.26171
 H441 H 0.53708 -0.15970 -0.24130
 H442 H 0.54138 -0.12168 -0.18787
 C443 C 0.33669 0.49154 -0.32431
 C444 C 0.32918 0.51222 -0.30337
 C445 C 0.30701 0.51295 -0.34777
 C446 C 0.29232 0.49356 -0.41444
 C447 C 0.29926 0.47241 -0.43172
 C448 C 0.32107 0.47146 -0.38808
 C449 C 0.36077 0.49173 -0.27699
 C450 C 0.37027 0.47252 -0.29527
 C451 C 0.39274 0.47345 -0.24974
 C452 C 0.40654 0.49354 -0.18464
 C453 C 0.39734 0.51293 -0.16607
 C454 C 0.37472 0.51224 -0.21196
 C455 C 0.34393 0.53207 -0.23856
 C456 C 0.36611 0.53200 -0.19361
 H457 H 0.33822 0.54791 -0.22219
 H458 H 0.37680 0.54779 -0.14401
 H459 H 0.30202 0.52939 -0.33258
 H460 H 0.28708 0.45569 -0.47728
 H461 H 0.39932 0.45827 -0.26603
 H462 H 0.40784 0.52867 -0.11620
 H463 H 0.32504 0.45456 -0.40488
 H464 H 0.36082 0.45666 -0.34478
 C465 C 1.15380 0.66572 -0.31459
 C466 C 1.17873 0.66445 -0.33098
 C467 C 1.20090 0.68598 -0.37844
 C468 C 1.19900 0.70930 -0.40718
 C469 C 1.17507 0.71137 -0.38727
 C470 C 1.15252 0.68970 -0.34229
 C471 C 1.13011 0.64167 -0.26706
 C472 C 1.10339 0.63939 -0.25560
 C473 C 1.08185 0.61639 -0.21187
 C474 C 1.08645 0.59523 -0.17757
 C475 C 1.11297 0.59726 -0.18865
 C476 C 1.13455 0.61992 -0.23455
 C477 C 1.18157 0.64201 -0.29871
 C478 C 1.16018 0.62051 -0.25010
 H479 H 1.20080 0.64123 -0.31029
 H480 H 1.16354 0.60378 -0.22577
 H481 H 1.21983 0.68486 -0.39224
 H482 H 1.17372 0.72967 -0.40753
 H483 H 1.06150 0.61521 -0.20464
 H484 H 1.11655 0.58070 -0.16385
 H485 H 1.13453 0.69231 -0.32896
 H486 H 1.09849 0.65483 -0.28126
 C487 C 0.83703 0.49625 -0.31130
 C488 C 0.84367 0.51641 -0.37725
 C489 C 0.82201 0.51708 -0.42376
 C490 C 0.79331 0.49748 -0.40812
 C491 C 0.78678 0.47808 -0.34045
 C492 C 0.80826 0.47731 -0.29316
 C493 C 0.86104 0.49640 -0.26320
 C494 C 0.85699 0.47708 -0.19705
 C495 C 0.88016 0.47835 -0.15405
 C496 C 0.90797 0.49887 -0.17584
 C497 C 0.91215 0.51803 -0.24199
 C498 C 0.88910 0.51694 -0.28557
 C499 C 0.87190 0.53605 -0.39634
 C500 C 0.89412 0.53633 -0.35142
 H501 H 0.87693 0.55147 -0.44696
 H502 H 0.91561 0.55200 -0.36862
 H503 H 0.82768 0.53382 -0.47019
 H504 H 0.76497 0.46271 -0.32581
 H505 H 0.87623 0.46317 -0.10359
 H506 H 0.93347 0.53394 -0.25999
 H507 H 0.80188 0.46168 -0.24301
 H508 H 0.83614 0.46083 -0.17765
 C509 C 0.49718 0.33703 -0.30454
 C510 C 0.51953 0.34372 -0.36283
 C511 C 0.51975 0.32226 -0.41209
 C512 C 0.49867 0.29377 -0.40130
 C513 C 0.47767 0.28715 -0.33876
 C514 C 0.47667 0.30844 -0.29192
 C515 C 0.49674 0.36067 -0.25702
 C516 C 0.47330 0.35675 -0.20800
 C517 C 0.47366 0.37959 -0.16634
 C518 C 0.49757 0.40655 -0.17090
 C519 C 0.52104 0.41083 -0.21924
 C520 C 0.52042 0.38826 -0.26459
 C521 C 0.54190 0.37164 -0.36980
 C522 C 0.54273 0.39331 -0.31989
 H523 H 0.55930 0.37674 -0.41339
 H524 H 0.56071 0.41448 -0.32651
 H525 H 0.53710 0.32765 -0.45620
 H526 H 0.46120 0.26544 -0.32822
 H527 H 0.45525 0.37620 -0.13006
 H528 H 0.53922 0.43197 -0.22445
 H529 H 0.45990 0.30206 -0.24545
 H530 H 0.45426 0.33643 -0.20294
 C531 C 0.66060 0.15983 -0.31248
 C532 C 0.67839 0.15370 -0.36360
 C533 C 0.70091 0.17539 -0.40939
 C534 C 0.70561 0.20307 -0.40689
 C535 C 0.68805 0.20920 -0.35670
 C536 C 0.66577 0.18789 -0.31000
 C537 C 0.63706 0.13611 -0.26341
 C538 C 0.61868 0.14007 -0.20879
 C539 C 0.59698 0.11727 -0.16492
 C540 C 0.59289 0.08987 -0.17439
 C541 C 0.61121 0.08574 -0.22813
 C542 C 0.63324 0.10856 -0.27214
 C543 C 0.67360 0.12602 -0.36893
 C544 C 0.65140 0.10390 -0.32462
 H545 H 0.68714 0.12134 -0.40839
 H546 H 0.64849 0.08282 -0.33126
 H547 H 0.71496 0.17081 -0.44658
 H548 H 0.69155 0.23057 -0.35401
 H549 H 0.58312 0.12112 -0.12429
 H550 H 0.60838 0.06471 -0.23583
 H551 H 0.65286 0.19384 -0.27284
 H552 H 0.62065 0.16055 -0.19899
 C553 C 1.16081 0.49711 -0.31054
 C554 C 1.15423 0.47731 -0.37765
 C555 C 1.17598 0.47707 -0.42498
 C556 C 1.20467 0.49670 -0.40833
 C557 C 1.21108 0.51550 -0.33896
 C558 C 1.18954 0.51584 -0.29113
 C559 C 1.13681 0.49713 -0.26323
 C560 C 1.14099 0.51663 -0.19753
 C561 C 1.11792 0.51598 -0.15625
 C562 C 1.09003 0.49588 -0.17908
 C563 C 1.08566 0.47633 -0.24432
 C564 C 1.10870 0.47690 -0.28662
 C565 C 1.12597 0.45780 -0.39745
 C566 C 1.10370 0.45753 -0.35272
 H567 H 1.12096 0.44255 -0.44869
 H568 H 1.08221 0.44205 -0.37072
 H569 H 1.17043 0.46110 -0.47429
 H570 H 1.23284 0.53092 -0.32371
 H571 H 1.12205 0.53141 -0.10628
 H572 H 1.06426 0.46076 -0.26301
 H573 H 1.19589 0.53111 -0.23983
 H574 H 1.16185 0.53269 -0.17739
 C575 C 0.49804 0.65953 -0.31027
 C576 C 0.52382 0.68553 -0.31669
 C577 C 0.52453 0.70858 -0.35922
 C578 C 0.50034 0.70542 -0.40095
 C579 C 0.47498 0.67957 -0.39635
 C580 C 0.47371 0.65690 -0.35099
 C581 C 0.49808 0.63557 -0.26338
 C582 C 0.47309 0.61000 -0.24481
 C583 C 0.47433 0.58814 -0.20208
 C584 C 0.50048 0.59105 -0.17849
 C585 C 0.52544 0.61651 -0.19525
 C586 C 0.52436 0.63900 -0.23540
 C587 C 0.54891 0.68799 -0.28388
 C588 C 0.54929 0.66501 -0.24601
 H589 H 0.56871 0.70777 -0.28972
 H590 H 0.56936 0.66778 -0.22352
 H591 H 0.54424 0.72851 -0.36427
 H592 H 0.45620 0.67688 -0.42886
 H593 H 0.45483 0.56870 -0.18862
 H594 H 0.54563 0.61905 -0.17485
 H595 H 0.45375 0.63733 -0.35066
 H596 H 0.45240 0.60662 -0.26166
 C597 C 0.33349 -0.15690 -0.30531
 C598 C 0.33734 -0.17882 -0.33947
 C599 C 0.31568 -0.20052 -0.38807
 C600 C 0.28973 -0.20139 -0.39922
 C601 C 0.28505 -0.18110 -0.35911
 C602 C 0.30680 -0.15883 -0.31354
 C603 C 0.35786 -0.13286 -0.26030
 C604 C 0.35783 -0.10788 -0.23748
 C605 C 0.38123 -0.08580 -0.19684
 C606 C 0.40491 -0.08835 -0.17625
 C607 C 0.40522 -0.11311 -0.19864
 C608 C 0.38233 -0.13489 -0.24342
 C609 C 0.36252 -0.17912 -0.32361
 C610 C 0.38418 -0.15808 -0.27415
 H611 H 0.36531 -0.19616 -0.34841
 H612 H 0.40303 -0.15953 -0.26210
 H613 H 0.31885 -0.21685 -0.41689
 H614 H 0.26482 -0.18198 -0.36586
 H615 H 0.38071 -0.06674 -0.18055
 H616 H 0.42367 -0.11497 -0.18386
 H617 H 0.30228 -0.14350 -0.28474
 H618 H 0.34024 -0.10472 -0.25234
 C619 C 0.49730 -0.16195 0.30935
 C620 C 0.51978 -0.15643 0.36627
 C621 C 0.51953 -0.17867 0.41225
 C622 C 0.49678 -0.20640 0.40434
 C623 C 0.47474 -0.21196 0.34717
 C624 C 0.47493 -0.19007 0.30018
 C625 C 0.49831 -0.13753 0.26186
 C626 C 0.47715 -0.14078 0.20339
 C627 C 0.47898 -0.11742 0.16091
 C628 C 0.50189 -0.09011 0.17555
 C629 C 0.52310 -0.08662 0.23373
 C630 C 0.52152 -0.11004 0.27661
 C631 C 0.54221 -0.12877 0.37768
 C632 C 0.54303 -0.10606 0.33398
 H633 H 0.55935 -0.12456 0.42150
 H634 H 0.56080 -0.08505 0.34532
 H635 H 0.53684 -0.17439 0.45552
 H636 H 0.45704 -0.23327 0.34017
 H637 H 0.46218 -0.12085 0.11672
 H638 H 0.54095 -0.06566 0.24552
 H639 H 0.45724 -0.19563 0.25787
 H640 H 0.45898 -0.16112 0.18941
 C641 C 0.33305 0.48802 0.30207
 C642 C 0.33733 0.51330 0.34120
 C643 C 0.31549 0.51327 0.38895
 C644 C 0.28899 0.48865 0.39530
 C645 C 0.28404 0.46423 0.35107
 C646 C 0.30589 0.46376 0.30566
 C647 C 0.35755 0.48836 0.25743
 C648 C 0.35681 0.46353 0.22814
 C649 C 0.38037 0.46489 0.18809
 C650 C 0.40489 0.49100 0.17471
 C651 C 0.40602 0.51585 0.20398
 C652 C 0.38286 0.51462 0.24754
 C653 C 0.36321 0.53845 0.33154
 C654 C 0.38523 0.53925 0.28368
 H655 H 0.36633 0.55791 0.36038
 H656 H 0.40471 0.55930 0.27697
 H657 H 0.31897 0.53240 0.42118
 H658 H 0.26345 0.44525 0.35419
 H659 H 0.37931 0.44549 0.16639
 H660 H 0.42529 0.53600 0.19550
 H661 H 0.30111 0.44433 0.27350
 H662 H 0.33849 0.44287 0.23715
 C663 C 1.16026 0.66232 0.30497
 C664 C 1.15451 0.68106 0.35237
 C665 C 1.17606 0.70305 0.40022
 C666 C 1.20322 0.70627 0.40389
 C667 C 1.20900 0.68779 0.35728
 C668 C 1.18781 0.66600 0.30842
 C669 C 1.13661 0.63922 0.25415
 C670 C 1.14034 0.62019 0.20205
 C671 C 1.11750 0.59863 0.15763
 C672 C 1.09028 0.59527 0.16437
 C673 C 1.08647 0.61451 0.21453
 C674 C 1.10938 0.63649 0.25869
 C675 C 1.12726 0.67765 0.35242
 C676 C 1.10512 0.65568 0.30726
 H677 H 1.12289 0.69199 0.38887
 H678 H 1.08433 0.65373 0.31022
 H679 H 1.17177 0.71781 0.43453
 H680 H 1.22996 0.69012 0.35929
 H681 H 1.12114 0.58420 0.11909
 H682 H 1.06564 0.61240 0.21936
 H683 H 1.19340 0.65222 0.27459
 H684 H 1.16064 0.62149 0.19477
 C685 C 0.49489 0.15782 0.31546
 C686 C 0.51916 0.18492 0.30536
 C687 C 0.52163 0.20816 0.35192
 C688 C 0.50021 0.20475 0.40873
 C689 C 0.47576 0.17817 0.41617
 C690 C 0.47311 0.15496 0.37059
 C691 C 0.49351 0.13337 0.26710
 C692 C 0.47096 0.10540 0.27598
 C693 C 0.47096 0.08322 0.23130
 C694 C 0.49330 0.08827 0.17597
 C695 C 0.51571 0.11614 0.16572
 C696 C 0.51613 0.13856 0.21146
 C697 C 0.54082 0.18863 0.24925
 C698 C 0.53925 0.16600 0.20287
 H699 H 0.55931 0.20938 0.24103
 H700 H 0.55660 0.16998 0.16037
 H701 H 0.54044 0.22879 0.34537
 H702 H 0.45870 0.17531 0.45825
 H703 H 0.45340 0.06197 0.24062
 H704 H 0.53317 0.12040 0.12326
 H705 H 0.45386 0.13508 0.37962
 H706 H 0.45325 0.10004 0.31786
 C707 C 0.66619 0.50961 0.30416
 C708 C 0.66073 0.48419 0.34506
 C709 C 0.68199 0.48338 0.39379
 C710 C 0.70906 0.50723 0.39932
 C711 C 0.71507 0.53179 0.35408
 C712 C 0.69382 0.53315 0.30775
 C713 C 0.64241 0.51014 0.25748
 C714 C 0.64440 0.53525 0.22536
 C715 C 0.62142 0.53466 0.18340
 C716 C 0.59630 0.50900 0.17090
 C717 C 0.59398 0.48392 0.20290
 C718 C 0.61649 0.48442 0.24820
 C719 C 0.63429 0.45966 0.33589
 C720 C 0.61288 0.45960 0.28657
 H721 H 0.63023 0.44010 0.36619
 H722 H 0.59292 0.43998 0.28028
 H723 H 0.67766 0.46413 0.42690
 H724 H 0.73610 0.55019 0.35671
 H725 H 0.62336 0.55424 0.15978
 H726 H 0.57421 0.46416 0.19526
 H727 H 0.69947 0.55263 0.27467
 H728 H 0.66325 0.55558 0.23360
 C729 C 0.84509 0.33614 0.31745
 C730 C 0.81733 0.33115 0.30167
 C731 C 0.79415 0.30923 0.34476
 C732 C 0.79824 0.29239 0.40448
 C733 C 0.82552 0.29665 0.41800
 C734 C 0.84871 0.31827 0.37526
 C735 C 0.86936 0.36032 0.27211
 C736 C 0.89780 0.36756 0.28519
 C737 C 0.91966 0.39030 0.24160
 C738 C 0.91384 0.40644 0.18359
 C739 C 0.88557 0.39948 0.17044
 C740 C 0.86342 0.37675 0.21437
 C741 C 0.81292 0.34827 0.24395
 C742 C 0.83545 0.37052 0.20104
 H743 H 0.79169 0.34446 0.23188
 H744 H 0.83091 0.38317 0.15707
 H745 H 0.77298 0.30582 0.33412
 H746 H 0.82891 0.28353 0.46324
 H747 H 0.94123 0.39512 0.25325
 H748 H 0.88072 0.41183 0.12618
 H749 H 0.86921 0.32073 0.38907
 H750 H 0.90370 0.35604 0.32888
   
