data_POSCAR
  _audit_creation_date              2014-09-24
  _audit_creation_method            'ToBaCCo'
  _symmetry_space_group_name_H-M    'P1'
  _symmetry_Int_Tables_number       1
  _symmetry_cell_setting            triclinic
  loop_
  _symmetry_equiv_pos_as_xyz
 x,y,z
_cell_length_a 34.6026
_cell_length_b 35.5143
_cell_length_c 37.2310
_cell_angle_alpha 90.328400
_cell_angle_beta 89.816100
_cell_angle_gamma 90.435900
loop_
  _atom_site_label
  _atom_site_type_symbol
  _atom_site_fract_x
  _atom_site_fract_y
  _atom_site_fract_z
N1 N 0.13759 0.21744 0.25236
 N2 N 0.15203 0.18630 0.26572
 C3 C 0.13328 0.17780 0.29648
 C4 C 0.10592 0.20505 0.30246
 C5 C 0.10913 0.22987 0.27416
 H6 H 0.13899 0.15372 0.31323
 H7 H 0.09212 0.25483 0.26972
 Cu8 Cu 0.19416 0.15974 0.24195
 Cu9 Cu 0.15693 0.23950 0.20769
 Cu10 Cu 0.23313 0.19369 0.16594
 N11 N 0.23750 0.13478 0.21834
 N12 N 0.25250 0.14826 0.18848
 C13 C 0.28284 0.12701 0.17853
 C14 C 0.28686 0.09887 0.20346
 C15 C 0.25791 0.10442 0.22855
 H16 H 0.30140 0.13238 0.15567
 H17 H 0.25301 0.08848 0.25282
 N18 N 0.20992 0.23992 0.14683
 N19 N 0.18058 0.25739 0.16230
 C20 C 0.17135 0.28782 0.14246
 C21 C 0.19634 0.28927 0.11354
 C22 C 0.22035 0.25871 0.11699
 H23 H 0.14850 0.30744 0.14863
 H24 H 0.24353 0.25079 0.09900
 H25 H 0.17702 0.19016 0.18556
 H26 H 0.21204 0.21867 0.21258
 N27 N 0.66670 0.74995 0.75462
 N28 N 0.67709 0.71807 0.76948
 C29 C 0.65145 0.70892 0.79549
 C30 C 0.62378 0.73677 0.79635
 C31 C 0.63410 0.76226 0.77033
 H32 H 0.65262 0.68392 0.81189
 H33 H 0.61869 0.78742 0.76288
 Cu34 Cu 0.72330 0.69180 0.75330
 Cu35 Cu 0.69529 0.77197 0.71497
 Cu36 Cu 0.75256 0.71468 0.66668
 N37 N 0.76113 0.66201 0.72582
 N38 N 0.77188 0.67003 0.69257
 C39 C 0.79796 0.64431 0.68144
 C40 C 0.80354 0.61932 0.70912
 C41 C 0.77983 0.63108 0.73677
 H42 H 0.81192 0.64387 0.65542
 H43 H 0.77634 0.61802 0.76276
 N44 N 0.73057 0.76060 0.64654
 N45 N 0.71033 0.78419 0.66632
 C46 C 0.70212 0.81505 0.64700
 C47 C 0.71744 0.81000 0.61321
 C48 C 0.73549 0.77539 0.61355
 H49 H 0.68638 0.83922 0.65682
 H50 H 0.75234 0.76285 0.59216
 H51 H 0.70741 0.70592 0.70234
 H52 H 0.75142 0.73050 0.71965
 N53 N 0.35954 0.74496 0.74161
 N54 N 0.35623 0.77412 0.76337
 C55 C 0.38086 0.77044 0.79098
 C56 C 0.40061 0.73726 0.78586
 C57 C 0.38687 0.72180 0.75432
 H58 H 0.38557 0.79119 0.81191
 H59 H 0.39671 0.69642 0.74108
 Cu60 Cu 0.32237 0.81548 0.75209
 Cu61 Cu 0.32824 0.73978 0.69831
 Cu62 Cu 0.28819 0.82304 0.66869
 N63 N 0.28092 0.84987 0.74093
 N64 N 0.26774 0.85332 0.70801
 C65 C 0.23567 0.87457 0.70865
 C66 C 0.22885 0.88487 0.74378
 C67 C 0.25769 0.86864 0.76369
 H68 H 0.21648 0.87837 0.68609
 H69 H 0.25913 0.86693 0.79266
 N70 N 0.29429 0.77876 0.63778
 N71 N 0.30696 0.74609 0.64964
 C72 C 0.30292 0.72002 0.62344
 C73 C 0.28709 0.73770 0.59410
 C74 C 0.28219 0.77472 0.60371
 H75 H 0.31056 0.69066 0.62565
 H76 H 0.26906 0.79658 0.58786
 H77 H 0.33658 0.79518 0.69061
 H78 H 0.28704 0.78141 0.70578
 N79 N 0.85543 0.24118 0.26179
 N80 N 0.84657 0.27481 0.27439
 C81 C 0.86500 0.28086 0.30564
 C82 C 0.88667 0.24953 0.31258
 C83 C 0.87998 0.22449 0.28476
 H84 H 0.86114 0.30521 0.32285
 H85 H 0.89046 0.19597 0.28221
 Cu86 Cu 0.80859 0.30653 0.25152
 Cu87 Cu 0.83175 0.22163 0.21758
 Cu88 Cu 0.74014 0.25818 0.20794
 N89 N 0.76031 0.32979 0.23788
 N90 N 0.73257 0.30989 0.22263
 C91 C 0.70099 0.33131 0.21896
 C92 C 0.71004 0.36654 0.23195
 C93 C 0.74773 0.36503 0.24389
 H94 H 0.67388 0.32202 0.20741
 H95 H 0.76417 0.38721 0.25690
 N96 N 0.75885 0.21497 0.17991
 N97 N 0.79410 0.20120 0.18264
 C98 C 0.80059 0.17774 0.15467
 C99 C 0.76792 0.17749 0.13344
 C100 C 0.74211 0.20119 0.15007
 H101 H 0.82821 0.16533 0.14817
 H102 H 0.71491 0.21076 0.13931
 H103 H 0.79846 0.26731 0.19906
 H104 H 0.78509 0.24235 0.24160
 N105 N 0.84879 0.76628 0.25482
 N106 N 0.84926 0.73200 0.24119
 C107 C 0.87634 0.72985 0.21541
 C108 C 0.89391 0.76459 0.21298
 C109 C 0.87617 0.78728 0.23826
 H110 H 0.88258 0.70498 0.19957
 H111 H 0.88229 0.81664 0.24387
 Cu112 Cu 0.81458 0.69277 0.25701
 Cu113 Cu 0.81195 0.78020 0.29251
 Cu114 Cu 0.73827 0.71537 0.30775
 N115 N 0.76992 0.66025 0.25990
 N116 N 0.73915 0.66956 0.27870
 C117 C 0.71295 0.64134 0.27663
 C118 C 0.72874 0.61336 0.25538
 C119 C 0.76475 0.62590 0.24534
 H120 H 0.68567 0.64044 0.29087
 H121 H 0.78592 0.61085 0.22950
 N122 N 0.74314 0.76301 0.33470
 N123 N 0.77125 0.78780 0.32922
 C124 C 0.76985 0.81436 0.35525
 C125 C 0.73951 0.80538 0.37791
 C126 C 0.72338 0.77283 0.36442
 H127 H 0.79125 0.83631 0.35931
 H128 H 0.70113 0.75593 0.37708
 H129 H 0.79740 0.72719 0.31119
 H130 H 0.77164 0.74441 0.27027
 N131 N 0.36570 0.22496 -0.22170
 N132 N 0.36277 0.19287 -0.23936
 C133 C 0.38064 0.19619 -0.27139
 C134 C 0.39603 0.23203 -0.27354
 C135 C 0.38600 0.24960 -0.24172
 H136 H 0.37834 0.17584 -0.29304
 H137 H 0.38853 0.27938 -0.23580
 Cu138 Cu 0.32912 0.15262 -0.22251
 Cu139 Cu 0.33487 0.23522 -0.17867
 Cu140 Cu 0.25052 0.18231 -0.17830
 N141 N 0.28518 0.11948 -0.21494
 N142 N 0.25367 0.13199 -0.19912
 C143 C 0.22599 0.10527 -0.20080
 C144 C 0.24147 0.07444 -0.21821
 C145 C 0.27904 0.08399 -0.22673
 H146 H 0.19695 0.10814 -0.19034
 H147 H 0.29962 0.06725 -0.24164
 N148 N 0.25796 0.22793 -0.14843
 N149 N 0.29011 0.24826 -0.14850
 C150 C 0.28703 0.27613 -0.12393
 C151 C 0.25129 0.27259 -0.10762
 C152 C 0.23382 0.24168 -0.12322
 H153 H 0.30986 0.29580 -0.11695
 H154 H 0.20647 0.22908 -0.11560
 H155 H 0.30787 0.18291 -0.16685
 H156 H 0.29333 0.20946 -0.20770
 N157 N 0.60700 0.28345 -0.23586
 N158 N 0.61524 0.31552 -0.25175
 C159 C 0.59383 0.31851 -0.28167
 C160 C 0.57085 0.28680 -0.28434
 C161 C 0.58010 0.26481 -0.25524
 H162 H 0.59819 0.33968 -0.30210
 H163 H 0.57110 0.23599 -0.25063
 Cu164 Cu 0.65967 0.34551 -0.23764
 Cu165 Cu 0.63629 0.26590 -0.19474
 Cu166 Cu 0.71972 0.31646 -0.17360
 N167 N 0.71239 0.36382 -0.23515
 N168 N 0.73672 0.35208 -0.21060
 C169 C 0.77042 0.37123 -0.21414
 C170 C 0.76641 0.39571 -0.24271
 C171 C 0.72942 0.39059 -0.25514
 H172 H 0.79466 0.36938 -0.19598
 H173 H 0.71531 0.40652 -0.27594
 N174 N 0.70151 0.27241 -0.14561
 N175 N 0.66975 0.25330 -0.15395
 C176 C 0.66454 0.22531 -0.13018
 C177 C 0.69426 0.22706 -0.10593
 C178 C 0.71746 0.25698 -0.11616
 H179 H 0.64095 0.20518 -0.13040
 H180 H 0.74375 0.26661 -0.10333
 H181 H 0.65979 0.31674 -0.17799
 H182 H 0.68810 0.28971 -0.21198
 N183 N 0.17144 0.74523 0.22348
 N184 N 0.18041 0.77490 0.20400
 C185 C 0.15152 0.78124 0.18055
 C186 C 0.12338 0.75405 0.18642
 C187 C 0.13665 0.73188 0.21367
 H188 H 0.14998 0.80508 0.16267
 H189 H 0.12132 0.70909 0.22675
 Cu190 Cu 0.22688 0.80475 0.21481
 Cu191 Cu 0.20306 0.72872 0.26293
 Cu192 Cu 0.24716 0.79960 0.30585
 N193 N 0.26149 0.84084 0.23936
 N194 N 0.26785 0.83963 0.27436
 C195 C 0.29542 0.86505 0.28288
 C196 C 0.30636 0.88316 0.25188
 C197 C 0.28492 0.86705 0.22459
 H198 H 0.30911 0.86750 0.30888
 H199 H 0.28823 0.87179 0.19606
 N200 N 0.23828 0.75092 0.32846
 N201 N 0.22270 0.72243 0.31083
 C202 C 0.22043 0.69222 0.33237
 C203 C 0.23485 0.70285 0.36526
 C204 C 0.24600 0.74013 0.36225
 H205 H 0.20825 0.66514 0.32495
 H206 H 0.25894 0.75785 0.38273
 H207 H 0.20700 0.79735 0.26478
 H208 H 0.25484 0.77487 0.25650
 N209 N 0.48894 0.41484 0.50155
 N210 N 0.46265 0.43453 0.51888
 C211 C 0.44923 0.41449 0.54681
 C212 C 0.46831 0.38076 0.54688
 C213 C 0.49341 0.38143 0.51803
 H214 H 0.42679 0.42346 0.56518
 H215 H 0.51255 0.35926 0.50923
 Cu216 Cu 0.44661 0.48367 0.50289
 Cu217 Cu 0.51357 0.43354 0.45801
 Cu218 Cu 0.47508 0.51477 0.42207
 N219 N 0.42007 0.52429 0.47925
 N220 N 0.43138 0.53642 0.44755
 C221 C 0.40746 0.56372 0.43665
 C222 C 0.37999 0.56860 0.46297
 C223 C 0.38845 0.54335 0.48976
 H224 H 0.40942 0.57831 0.41128
 H225 H 0.37256 0.53864 0.51442
 N226 N 0.51930 0.48849 0.40054
 N227 N 0.53397 0.45743 0.41419
 C228 C 0.56321 0.44568 0.39307
 C229 C 0.56674 0.47063 0.36516
 C230 C 0.53875 0.49746 0.37036
 H231 H 0.58027 0.42074 0.39736
 H232 H 0.53273 0.52122 0.35329
 H233 H 0.50369 0.49048 0.46497
 H234 H 0.46435 0.46194 0.44333
 N235 N -0.01300 -0.06429 1.01433
 N236 N -0.04864 -0.05654 1.02425
 C237 C -0.06117 -0.08296 1.04739
 C238 C -0.03170 -0.10831 1.05186
 C239 C -0.00138 -0.09586 1.03084
 H240 H -0.08963 -0.08410 1.05942
 H241 H 0.02652 -0.10892 1.02726
 Cu242 Cu -0.07541 -0.01340 1.00473
 Cu243 Cu 0.01489 -0.03308 0.98011
 Cu244 Cu -0.04313 0.02393 0.92793
 N245 N -0.09712 0.03271 0.98599
 N246 N -0.08454 0.04711 0.95556
 C247 C -0.10628 0.07696 0.94695
 C248 C -0.13353 0.08130 0.97359
 C249 C -0.12726 0.05296 0.99802
 H250 H -0.10333 0.09326 0.92263
 H251 H -0.14419 0.04669 1.02174
 N252 N 0.00884 0.00830 0.91302
 N253 N 0.03143 -0.01192 0.93385
 C254 C 0.06354 -0.02105 0.91554
 C255 C 0.06088 -0.00581 0.88185
 C256 C 0.02602 0.01271 0.88075
 H257 H 0.08533 -0.04037 0.92479
 H258 H 0.01289 0.02566 0.85762
 H259 H -0.01907 0.01538 0.97607
 H260 H -0.03549 -0.02851 0.95270
 N261 N 0.99322 0.60063 0.99405
 N262 N 1.02927 0.60219 1.00514
 C263 C 1.03406 0.63298 1.02615
 C264 C 0.99880 0.65105 1.02815
 C265 C 0.97344 0.62963 1.00816
 H266 H 1.06021 0.64025 1.04052
 H267 H 0.94282 0.63424 1.00472
 Cu268 Cu 1.06425 0.56079 0.99427
 Cu269 Cu 0.97434 0.56007 0.96345
 Cu270 Cu 1.04501 0.50554 0.92283
 N271 N 1.09073 0.51310 0.98698
 N272 N 1.08503 0.49254 0.95785
 C273 C 1.10860 0.46246 0.95863
 C274 C 1.12922 0.46423 0.99036
 C275 C 1.11719 0.49636 1.00786
 H276 H 1.10958 0.44048 0.93841
 H277 H 1.12718 0.50697 1.03352
 N278 N 0.99264 0.51119 0.90240
 N279 N 0.96556 0.53064 0.91923
 C280 C 0.93391 0.53201 0.89852
 C281 C 0.94121 0.51233 0.86745
 C282 C 0.97870 0.49935 0.87033
 H283 H 0.90855 0.54859 0.90437
 H284 H 0.99527 0.48471 0.84998
 H285 H 1.01599 0.51842 0.96753
 H286 H 1.02693 0.55989 0.93869
 N287 N 0.46754 0.09119 0.51059
 N288 N 0.50167 0.09228 0.52608
 C289 C 0.50190 0.11946 0.55143
 C290 C 0.46561 0.13544 0.55210
 C291 C 0.44433 0.11688 0.52620
 H292 H 0.52655 0.12733 0.56769
 H293 H 0.41512 0.12298 0.51788
 Cu294 Cu 0.54220 0.05780 0.51140
 Cu295 Cu 0.45757 0.05882 0.46917
 Cu296 Cu 0.53915 0.02006 0.42883
 N297 N 0.57700 0.01757 0.49742
 N298 N 0.57743 0.00408 0.46437
 C299 C 0.60577 -0.02168 0.46145
 C300 C 0.62312 -0.02460 0.49475
 C301 C 0.60414 0.00022 0.51701
 H302 H 0.61213 -0.03794 0.43752
 H303 H 0.60971 0.00537 0.54519
 N304 N 0.48932 0.02569 0.40346
 N305 N 0.45832 0.03969 0.41942
 C306 C 0.42931 0.04140 0.39555
 C307 C 0.44256 0.02749 0.36336
 C308 C 0.48064 0.01754 0.36889
 H309 H 0.40099 0.05284 0.40096
 H310 H 0.50060 0.00619 0.34929
 H311 H 0.50276 0.01977 0.47057
 H312 H 0.51332 0.06764 0.45254
 N313 N 0.00753 0.08399 0.52439
 N314 N -0.02322 0.07740 0.50447
 C315 C -0.02406 0.10235 0.47740
 C316 C 0.00825 0.12512 0.48047
 C317 C 0.02787 0.11291 0.51031
 H318 H -0.04605 0.10346 0.45686
 H319 H 0.05421 0.12462 0.52145
 Cu320 Cu -0.05894 0.03622 0.51513
 Cu321 Cu 0.01685 0.05578 0.56835
 Cu322 Cu -0.02033 -0.03447 0.56219
 N323 N -0.08654 -0.01130 0.52150
 N324 N -0.07089 -0.03882 0.53988
 C325 C -0.09558 -0.06817 0.54110
 C326 C -0.12822 -0.05847 0.52250
 C327 C -0.12200 -0.02224 0.51026
 H328 H -0.09057 -0.09412 0.55537
 H329 H -0.14191 -0.00492 0.49546
 N330 N 0.02068 -0.01999 0.59624
 N331 N 0.03303 0.01506 0.60045
 C332 C 0.05706 0.01680 0.62888
 C333 C 0.05987 -0.01912 0.64263
 C334 C 0.03685 -0.04178 0.62146
 H335 H 0.07105 0.04211 0.63882
 H336 H 0.03076 -0.07140 0.62526
 H337 H 0.00304 0.01247 0.53633
 H338 H -0.03213 0.02048 0.57371
 N339 N 0.48796 0.58593 0.02352
 N340 N 0.46079 0.57562 0.00069
 C341 C 0.46196 0.59878 -0.02794
 C342 C 0.49179 0.62431 -0.02240
 C343 C 0.50784 0.61537 0.01011
 H344 H 0.44401 0.59603 -0.05156
 H345 H 0.53253 0.62871 0.02279
 Cu346 Cu 0.42895 0.53080 0.00979
 Cu347 Cu 0.49663 0.55949 0.06841
 Cu348 Cu 0.47243 0.46568 0.06042
 N349 N 0.40510 0.48139 0.01788
 N350 N 0.42274 0.45625 0.03776
 C351 C 0.40035 0.42535 0.04073
 C352 C 0.36705 0.43142 0.02178
 C353 C 0.37053 0.46720 0.00743
 H354 H 0.40721 0.40093 0.05666
 H355 H 0.34917 0.48220 -0.00795
 N356 N 0.51037 0.48475 0.09541
 N357 N 0.51721 0.52104 0.10049
 C358 C 0.54203 0.52553 0.12800
 C359 C 0.55116 0.49014 0.14028
 C360 C 0.53104 0.46489 0.11918
 H361 H 0.55355 0.55224 0.13731
 H362 H 0.53100 0.43453 0.12125
 H363 H 0.49150 0.51477 0.03560
 H364 H 0.45257 0.51806 0.07029
 N365 N 0.50639 -0.09861 -0.02040
 N366 N 0.53647 -0.08571 -0.03839
 C367 C 0.54777 -0.11154 -0.06264
 C368 C 0.52332 -0.14201 -0.05986
 C369 C 0.49713 -0.13332 -0.03293
 H370 H 0.57228 -0.10856 -0.08054
 H371 H 0.47406 -0.15097 -0.02264
 Cu372 Cu 0.55906 -0.03668 -0.02848
 Cu373 Cu 0.48381 -0.06868 0.01869
 Cu374 Cu 0.55337 -0.01029 0.05774
 N375 N 0.59010 0.00443 -0.01000
 N376 N 0.58967 0.01357 0.02432
 C377 C 0.61586 0.04125 0.03019
 C378 C 0.63267 0.04983 -0.00253
 C379 C 0.61567 0.02640 -0.02747
 H380 H 0.62116 0.05481 0.05581
 H381 H 0.62170 0.02514 -0.05596
 N382 N 0.50468 -0.02506 0.08224
 N383 N 0.47728 -0.04537 0.06647
 C384 C 0.44588 -0.04648 0.08790
 C385 C 0.45432 -0.02636 0.11863
 C386 C 0.49166 -0.01312 0.11451
 H387 H 0.41890 -0.06048 0.08144
 H388 H 0.50730 0.00536 0.13261
 H389 H 0.51349 -0.01624 0.01743
 H390 H 0.53953 -0.05989 0.03047
 N391 N 1.01686 0.40513 0.50252
 N392 N 1.03828 0.42202 0.47803
 C393 C 1.04323 0.39889 0.44973
 C394 C 1.02365 0.36599 0.45663
 C395 C 1.00701 0.37042 0.49030
 H396 H 1.06036 0.40530 0.42616
 H397 H 0.98998 0.34994 0.50496
 Cu398 Cu 1.05986 0.47194 0.48492
 Cu399 Cu 1.00487 0.43008 0.54850
 Cu400 Cu 1.05838 0.51093 0.56673
 N401 N 1.09547 0.51200 0.49792
 N402 N 1.09668 0.52582 0.53077
 C403 C 1.12497 0.55213 0.53268
 C404 C 1.14171 0.55467 0.49902
 C405 C 1.12233 0.52929 0.47752
 H406 H 1.13175 0.56897 0.55616
 H407 H 1.12745 0.52369 0.44932
 N408 N 1.01791 0.49167 0.59933
 N409 N 0.99780 0.46048 0.59307
 C410 C 0.97050 0.45675 0.61891
 C411 C 0.97380 0.48733 0.64193
 C412 C 1.00357 0.50899 0.62866
 H413 H 0.94822 0.43524 0.61935
 H414 H 1.01271 0.53630 0.63859
 H415 H 1.01609 0.48512 0.53441
 H416 H 1.05820 0.45545 0.54782
 C417 C 0.35366 0.02340 0.23320
 C418 C 0.34185 -0.01805 0.23735
 C419 C 0.37273 -0.04133 0.24158
 C420 C 0.41215 -0.02120 0.24161
 C421 C 0.37787 0.03237 0.26651
 C422 C 0.40838 0.00889 0.27103
 C423 C 0.38222 0.02373 0.20140
 C424 C 0.41272 0.00032 0.20608
 H425 H 0.31221 -0.02794 0.23619
 H426 H 0.43702 -0.04040 0.24520
 H427 H 0.37021 0.05414 0.28568
 H428 H 0.37752 0.03878 0.17661
 C429 C 0.14977 -0.06239 0.76596
 C430 C 0.18009 -0.03053 0.76916
 C431 C 0.16431 0.00445 0.76656
 C432 C 0.12039 0.00456 0.76121
 C433 C 0.12014 -0.05361 0.79503
 C434 C 0.10510 -0.01848 0.79295
 C435 C 0.12882 -0.05569 0.73050
 C436 C 0.11355 -0.02052 0.72802
 H437 H 0.21024 -0.03511 0.77532
 H438 H 0.10779 0.03315 0.75930
 H439 H 0.11364 -0.07279 0.81679
 H440 H 0.12678 -0.07665 0.70935
 C441 C 0.67045 0.46188 0.24424
 C442 C 0.69109 0.49985 0.24718
 C443 C 0.66640 0.52931 0.25118
 C444 C 0.62354 0.51810 0.25175
 C445 C 0.64517 0.45919 0.27782
 C446 C 0.62057 0.48868 0.28167
 C447 C 0.64235 0.46585 0.21289
 C448 C 0.61775 0.49535 0.21695
 H449 H 0.72225 0.50290 0.24702
 H450 H 0.60349 0.54216 0.25500
 H451 H 0.64667 0.43606 0.29658
 H452 H 0.64238 0.44747 0.18959
 C453 C 0.85230 0.53218 0.73961
 C454 C 0.82625 0.49766 0.74306
 C455 C 0.84565 0.46491 0.74807
 C456 C 0.88988 0.46967 0.74863
 C457 C 0.87726 0.53208 0.77330
 C458 C 0.89706 0.49943 0.77811
 C459 C 0.88007 0.52321 0.70861
 C460 C 0.89965 0.49033 0.71335
 H461 H 0.79502 0.49950 0.74351
 H462 H 0.90588 0.44303 0.75253
 H463 H 0.87916 0.55588 0.79153
 H464 H 0.88387 0.54092 0.68528
 C465 C 0.22903 0.34034 0.03163
 C466 C 0.23269 0.31794 -0.00335
 C467 C 0.23969 0.33964 -0.03266
 C468 C 0.24159 0.38201 -0.02452
 C469 C 0.26619 0.36379 0.03393
 C470 C 0.27264 0.38583 0.00462
 C471 C 0.19676 0.36895 0.02493
 C472 C 0.20347 0.39052 -0.00480
 H473 H 0.23264 0.28746 -0.00426
 H474 H 0.24699 0.39977 -0.04850
 H475 H 0.28506 0.36353 0.05708
 H476 H 0.17087 0.37119 0.04117
 C477 C 0.73318 0.17796 -0.02595
 C478 C 0.73515 0.19653 0.01122
 C479 C 0.74212 0.17170 0.03805
 C480 C 0.74567 0.13060 0.02571
 C481 C 0.77106 0.15650 -0.03006
 C482 C 0.77738 0.13160 -0.00305
 C483 C 0.70181 0.14728 -0.02257
 C484 C 0.70843 0.12273 0.00466
 H485 H 0.73207 0.22649 0.01578
 H486 H 0.75102 0.11024 0.04763
 H487 H 0.79031 0.15993 -0.05281
 H488 H 0.67639 0.14556 -0.03938
 C489 C 0.25139 0.66973 0.45772
 C490 C 0.25870 0.69251 0.49187
 C491 C 0.26477 0.67072 0.52129
 C492 C 0.26250 0.62824 0.51390
 C493 C 0.28614 0.64377 0.45407
 C494 C 0.29194 0.62201 0.48354
 C495 C 0.21708 0.64388 0.46638
 C496 C 0.22300 0.62213 0.49588
 H497 H 0.26049 0.72296 0.49227
 H498 H 0.26733 0.61050 0.53792
 H499 H 0.30453 0.64313 0.43049
 H500 H 0.19080 0.64292 0.45068
 C501 C 0.73111 0.85551 0.52470
 C502 C 0.73428 0.83723 0.48761
 C503 C 0.74064 0.86240 0.46071
 C504 C 0.74317 0.90356 0.47334
 C505 C 0.76830 0.87833 0.52917
 C506 C 0.77472 0.90353 0.50234
 C507 C 0.69883 0.88460 0.52129
 C508 C 0.70517 0.90965 0.49413
 H509 H 0.73242 0.80710 0.48326
 H510 H 0.74835 0.92401 0.45136
 H511 H 0.78778 0.87458 0.55154
 H512 H 0.67270 0.88407 0.53734
 C513 C 0.02717 0.23457 0.36495
 C514 C -0.01460 0.23490 0.35138
 C515 C -0.04122 0.23753 0.37830
 C516 C -0.02391 0.23997 0.41603
 C517 C 0.03134 0.27046 0.38753
 C518 C 0.00458 0.27326 0.41440
 C519 C 0.02866 0.20202 0.39216
 C520 C 0.00155 0.20507 0.41863
 H521 H -0.02226 0.23221 0.32330
 H522 H -0.04581 0.24227 0.43780
 H523 H 0.05352 0.29151 0.38266
 H524 H 0.04680 0.17750 0.38913
 C525 C -0.03407 0.75897 0.13962
 C526 C 0.00544 0.76181 0.15768
 C527 C 0.03495 0.76816 0.13407
 C528 C 0.02232 0.77096 0.09477
 C529 C -0.03852 0.79526 0.11841
 C530 C -0.00885 0.80163 0.09500
 C531 C -0.02982 0.72795 0.11138
 C532 C -0.00006 0.73400 0.08801
 H533 H 0.00962 0.75843 0.18629
 H534 H 0.04644 0.77607 0.07561
 H535 H -0.06255 0.81426 0.12205
 H536 H -0.04721 0.70247 0.11140
 C537 C 0.43690 0.26359 0.64739
 C538 C 0.47584 0.26584 0.66738
 C539 C 0.50681 0.26257 0.64476
 C540 C 0.49643 0.25828 0.60505
 C541 C 0.43938 0.29458 0.61937
 C542 C 0.47063 0.29209 0.59737
 C543 C 0.43777 0.22661 0.62572
 C544 C 0.46934 0.22404 0.60380
 H545 H 0.47851 0.26865 0.69624
 H546 H 0.52190 0.25607 0.58694
 H547 H 0.41884 0.31740 0.61821
 H548 H 0.41675 0.20412 0.62888
 C549 C 0.54427 0.72007 0.86133
 C550 C 0.50880 0.72153 0.83693
 C551 C 0.47528 0.72805 0.85499
 C552 C 0.47995 0.73174 0.89579
 C553 C 0.54391 0.75704 0.88261
 C554 C 0.51019 0.76321 0.90063
 C555 C 0.53502 0.68951 0.88891
 C556 C 0.50102 0.69560 0.90672
 H557 H 0.51061 0.72043 0.80790
 H558 H 0.45246 0.73671 0.91048
 H559 H 0.56818 0.77646 0.88313
 H560 H 0.55275 0.66493 0.89298
 N561 N 0.07932 0.20626 0.33193
 N562 N 0.05517 0.23289 0.33541
 N563 N 0.58979 0.73910 0.81797
 N564 N 0.58014 0.71463 0.84125
 N565 N 0.43379 0.72528 0.80512
 N566 N 0.43996 0.73649 0.83711
 N567 N -0.09674 0.24237 0.34321
 N568 N -0.08210 0.23671 0.37278
 N569 N -0.07570 0.77464 0.18881
 N570 N -0.06555 0.75133 0.16454
 N571 N 0.40071 0.25024 0.69643
 N572 N 0.40254 0.26880 0.66905
 N573 N 0.55713 0.27394 0.68537
 N574 N 0.54624 0.26219 0.65592
 N575 N 0.08489 0.75282 0.17311
 N576 N 0.07457 0.76962 0.14473
 N577 N 0.31806 0.07277 0.20500
 N578 N 0.32071 0.04881 0.23015
 N579 N 0.82800 0.58701 0.70894
 N580 N 0.82957 0.56652 0.73680
 N581 N 0.79025 0.42714 0.74805
 N582 N 0.82588 0.43027 0.75596
 N583 N 0.33865 -0.09805 0.24787
 N584 N 0.36981 -0.08137 0.24475
 N585 N 0.19504 -0.10667 0.75680
 N586 N 0.16355 -0.10048 0.77018
 N587 N 0.68443 0.39759 0.23406
 N588 N 0.69701 0.43060 0.24058
 N589 N 0.71405 0.57639 0.24910
 N590 N 0.67928 0.56729 0.25615
 N591 N 0.22202 0.04007 0.77297
 N592 N 0.18531 0.03852 0.77334
 N593 N 0.19737 0.31660 0.08537
 N594 N 0.22459 0.31521 0.06234
 N595 N 0.71872 0.83741 0.58530
 N596 N 0.72582 0.82775 0.55303
 N597 N 0.73277 0.81955 0.41325
 N598 N 0.74584 0.85119 0.42404
 N599 N 0.23857 0.29087 -0.07551
 N600 N 0.24987 0.32386 -0.06685
 N601 N 0.69961 0.20165 -0.07688
 N602 N 0.72756 0.20494 -0.05498
 N603 N 0.23795 0.67943 0.39601
 N604 N 0.24604 0.69352 0.42653
 N605 N 0.27586 0.72136 0.56070
 N606 N 0.27539 0.68596 0.55551
 N607 N 0.76571 0.16493 0.09703
 N608 N 0.74611 0.18358 0.07449
 N609 N 0.46104 0.35096 0.57142
 N610 N 0.48016 0.32052 0.57165
 N611 N -0.03349 0.85851 0.07313
 N612 N -0.00637 0.83452 0.07309
 N613 N -0.01198 0.68119 0.05152
 N614 N 0.01186 0.70624 0.06228
 N615 N 0.45380 0.16776 0.57221
 N616 N 0.47897 0.19143 0.58309
 N617 N 0.01889 0.15572 0.45769
 N618 N -0.00721 0.17555 0.44330
 N619 N 0.50697 0.65130 0.95295
 N620 N 0.48511 0.66981 0.93226
 N621 N 0.52734 0.82387 0.92009
 N622 N 0.50330 0.79663 0.92144
 N623 N 0.02351 0.33380 0.43343
 N624 N 0.00275 0.30465 0.43880
 N625 N 0.34826 0.59379 0.46128
 N626 N 0.32344 0.59639 0.48642
 N627 N 0.83512 0.10703 -0.02685
 N628 N 0.80960 0.10675 -0.00221
 N629 N 0.65999 0.07891 -0.01038
 N630 N 0.68261 0.09244 0.01333
 N631 N 0.17087 0.58043 0.48720
 N632 N 0.19517 0.59532 0.50866
 N633 N 0.15647 0.43766 0.00359
 N634 N 0.17696 0.41802 -0.01775
 N635 N 0.65241 0.94968 0.50551
 N636 N 0.67728 0.93697 0.48341
 N637 N 0.83732 0.91930 0.52089
 N638 N 0.80865 0.92694 0.50096
 N639 N 0.33413 0.40696 0.02220
 N640 N 0.30528 0.41074 0.00148
 N641 N 0.59323 0.46780 0.33595
 N642 N 0.59411 0.49213 0.31103
 N643 N 0.08435 -0.01694 0.85231
 N644 N 0.08168 -0.00305 0.82102
 N645 N 0.08034 -0.03101 0.67375
 N646 N 0.09272 -0.00778 0.69725
 N647 N 0.57806 0.48077 0.16766
 N648 N 0.58939 0.50491 0.19076
 N649 N 0.42804 -0.01843 0.14731
 N650 N 0.43983 -0.00806 0.17817
 N651 N 0.94704 0.49935 0.66890
 N652 N 0.92737 0.47646 0.68790
 N653 N 0.91736 0.51403 0.83631
 N654 N 0.92167 0.49351 0.80848
 N655 N 0.42070 0.02623 0.33089
 N656 N 0.43194 0.00911 0.30266
   
