data_POSCAR
  _audit_creation_date              2014-09-24
  _audit_creation_method            'ToBaCCo'
  _symmetry_space_group_name_H-M    'P1'
  _symmetry_Int_Tables_number       1
  _symmetry_cell_setting            triclinic
  loop_
  _symmetry_equiv_pos_as_xyz
 x,y,z
_cell_length_a 24.8848
_cell_length_b 24.6213
_cell_length_c 43.5490
_cell_angle_alpha 87.930500
_cell_angle_beta 93.764100
_cell_angle_gamma 80.445800
loop_
  _atom_site_label
  _atom_site_type_symbol
  _atom_site_fract_x
  _atom_site_fract_y
  _atom_site_fract_z
O1 O 0.00926 0.43847 1.02335
 O2 O 0.01952 0.56217 0.97411
 O3 O 0.02145 0.45731 0.96522
 O4 O 0.00508 0.54387 1.03250
 O5 O 0.09409 0.52441 1.04413
 O6 O 0.11103 0.44640 0.97404
 O7 O 0.10806 0.54891 0.98674
 O8 O 0.09917 0.42226 1.03086
 Cu9 Cu 0.00473 0.50221 0.99781
 Cu10 Cu 0.11195 0.48436 1.00997
 C11 C 0.05313 0.40849 1.03482
 C12 C 0.06599 0.57676 0.97218
 C13 C 0.06916 0.43723 0.95808
 C14 C 0.04680 0.54780 1.05017
 O15 O 0.49709 0.07156 0.46536
 O16 O 0.40928 0.03690 0.52533
 O17 O 0.50105 0.07454 0.52523
 O18 O 0.40573 0.03251 0.46590
 O19 O 0.45143 -0.05252 0.47054
 O20 O 0.54726 -0.01026 0.52932
 O21 O 0.45525 -0.04803 0.52972
 O22 O 0.54218 -0.01362 0.46904
 Cu23 Cu 0.44888 0.06245 0.49500
 Cu24 Cu 0.50396 -0.03950 0.50012
 C25 C 0.53445 0.03489 0.45665
 C26 C 0.41680 -0.01163 0.53755
 C27 C 0.54037 0.03926 0.53753
 C28 C 0.41181 -0.01745 0.45841
 C29 C 0.05496 -0.06291 0.26971
 H30 H 0.05310 -0.08453 0.24860
 C31 C 0.10221 -0.07349 0.28953
 H32 H 0.13643 -0.10327 0.28336
 C33 C 0.01369 0.00437 0.30237
 H34 H -0.02082 0.03517 0.30696
 C35 C 0.06015 -0.00509 0.32293
 H36 H 0.06058 0.01793 0.34363
 N37 N 0.01183 -0.02473 0.27647
 C38 C -0.04433 -0.07396 0.19473
 H39 H -0.04101 -0.03606 0.18236
 C40 C -0.03711 -0.12312 0.17933
 H41 H -0.02878 -0.12223 0.15523
 C42 C -0.05416 -0.12223 0.24153
 H43 H -0.05920 -0.12184 0.26597
 C44 C -0.04635 -0.17242 0.22712
 H45 H -0.04628 -0.21034 0.24052
 Zn46 Zn -0.05003 -0.00981 0.24782
 N47 N -0.05184 -0.07439 0.22541
 C48 C -0.07661 0.06764 0.19590
 N49 N -0.04098 0.05017 0.22078
 C50 C 0.00565 0.07162 0.22574
 C51 C 0.01966 0.10942 0.20446
 C52 C -0.06417 0.10583 0.17395
 C53 C -0.11476 -0.02346 0.29661
 C54 C -0.15820 -0.01140 0.31530
 C55 C -0.19981 0.06119 0.27827
 C56 C -0.15492 0.04843 0.26057
 N57 N -0.11351 0.00665 0.26995
 H58 H -0.11312 0.04959 0.19213
 H59 H 0.03348 0.05781 0.24558
 H60 H 0.05794 0.12446 0.20832
 H61 H -0.09137 0.11729 0.15347
 H62 H -0.08098 -0.05583 0.30396
 H63 H -0.15675 -0.03465 0.33699
 H64 H -0.23262 0.09400 0.26999
 H65 H -0.15321 0.07223 0.23947
 C66 C -0.03661 -0.17326 0.19575
 C67 C 0.10529 -0.04446 0.31659
 C68 C -0.20165 0.03157 0.30633
 C69 C -0.01456 0.12563 0.17773
 C70 C -0.02367 0.12824 0.77379
 H71 H -0.06261 0.13313 0.76060
 C72 C -0.01089 0.17114 0.79163
 H73 H -0.03990 0.20914 0.79165
 C74 C 0.06154 0.07307 0.78995
 H75 H 0.08948 0.03454 0.78920
 C76 C 0.07603 0.11478 0.80791
 H77 H 0.11506 0.10779 0.82122
 N78 N 0.01299 0.08081 0.77283
 C79 C 0.05214 -0.03206 0.69980
 H80 H 0.02070 -0.05733 0.70151
 C81 C 0.09247 -0.04467 0.67913
 H82 H 0.09161 -0.07949 0.66472
 C83 C 0.09151 0.04397 0.71663
 H84 H 0.09094 0.07865 0.73116
 C85 C 0.13233 0.03314 0.69611
 H86 H 0.16341 0.05909 0.69549
 Zn87 Zn 0.00056 0.02152 0.74834
 N88 N 0.05333 0.01059 0.71869
 C89 C -0.07842 0.08085 0.70640
 N90 N -0.06883 0.03617 0.72648
 C91 C -0.10587 0.00159 0.72880
 C92 C -0.15508 0.01167 0.71044
 C93 C -0.12722 0.09280 0.68792
 C94 C 0.05279 -0.08215 0.77377
 C95 C 0.06468 -0.12506 0.79616
 C96 C -0.01533 -0.08575 0.82140
 C97 C -0.02562 -0.04317 0.79849
 N98 N 0.00862 -0.04189 0.77544
 H99 H -0.04765 0.10685 0.70448
 H100 H -0.09685 -0.03445 0.74436
 H101 H -0.18414 -0.01628 0.71240
 H102 H -0.13378 0.12817 0.67179
 H103 H 0.08060 -0.07979 0.75598
 H104 H 0.10078 -0.15597 0.79479
 H105 H -0.04175 -0.08526 0.84021
 H106 H -0.05975 -0.00999 0.79973
 C107 C 0.13373 -0.01232 0.67746
 C108 C 0.03993 0.16491 0.80860
 C109 C 0.03118 -0.12655 0.82074
 C110 C -0.16614 0.05780 0.68967
 C111 C -0.00294 -0.34270 0.10490
 C112 C 0.03169 -0.36002 0.13059
 C113 C 0.07171 -0.40686 0.13147
 C114 C 0.07629 -0.43701 0.10475
 C115 C 0.04058 -0.42042 0.07811
 C116 C 0.00006 -0.37280 0.07833
 O117 O -0.03576 -0.29527 0.10822
 C118 C -0.02167 -0.28247 0.13665
 C119 C 0.01906 -0.32101 0.15142
 C120 C 0.04093 -0.31517 0.18109
 C121 C 0.02053 -0.26727 0.19598
 C122 C -0.02045 -0.22613 0.18095
 C123 C -0.04216 -0.23427 0.15092
 H124 H 0.09904 -0.41920 0.15180
 H125 H 0.10748 -0.47339 0.10482
 H126 H -0.02705 -0.35867 0.05812
 H127 H 0.07324 -0.34588 0.19215
 H128 H 0.03815 -0.26121 0.21875
 H129 H -0.07320 -0.20348 0.13881
 C130 C 0.00815 0.29901 0.08590
 C131 C 0.05550 0.26084 0.08874
 C132 C 0.10201 0.26765 0.07416
 C133 C 0.10000 0.31614 0.05606
 C134 C 0.05195 0.35668 0.05277
 C135 C 0.00499 0.34758 0.06762
 O136 O -0.03031 0.28530 0.10304
 C137 C -0.00651 0.23756 0.11698
 C138 C 0.04599 0.22097 0.10888
 C139 C 0.07959 0.17373 0.12153
 C140 C 0.05848 0.14237 0.14376
 C141 C 0.00470 0.15861 0.15294
 C142 C -0.02866 0.20654 0.13897
 H143 H 0.13889 0.23714 0.07704
 H144 H 0.13620 0.32223 0.04478
 H145 H -0.03197 0.37805 0.06588
 H146 H 0.12090 0.16187 0.11488
 H147 H 0.08415 0.10548 0.15401
 H148 H -0.06959 0.22015 0.14581
 C149 C 0.30406 -0.00011 0.59213
 C150 C 0.30723 -0.05441 0.60179
 C151 C 0.34597 -0.09639 0.59201
 C152 C 0.38265 -0.08182 0.57125
 C153 C 0.37977 -0.02610 0.56061
 C154 C 0.33987 0.01526 0.57144
 O155 O 0.26441 0.03347 0.60417
 C156 C 0.24195 -0.00037 0.62179
 C157 C 0.26645 -0.05462 0.62107
 C158 C 0.24895 -0.09696 0.63763
 C159 C 0.20461 -0.08270 0.65580
 C160 C 0.17900 -0.02689 0.65718
 C161 C 0.19807 0.01475 0.63978
 H162 H 0.34773 -0.13886 0.59996
 H163 H 0.41272 -0.11408 0.56316
 H164 H 0.33644 0.05814 0.56384
 H165 H 0.26883 -0.13938 0.63671
 H166 H 0.19095 -0.11496 0.66926
 H167 H 0.17915 0.05760 0.64011
 C168 C -0.34422 0.03389 0.59914
 C169 C -0.35028 0.08835 0.60641
 C170 C -0.39107 0.12859 0.59222
 C171 C -0.42710 0.11201 0.56963
 C172 C -0.42162 0.05603 0.56158
 C173 C -0.37942 0.01651 0.57672
 O174 O -0.30233 0.00234 0.61495
 C175 C -0.28142 0.03767 0.63256
 C176 C -0.30919 0.09085 0.62820
 C177 C -0.29329 0.13464 0.64372
 C178 C -0.24660 0.12319 0.66435
 C179 C -0.21705 0.06868 0.66914
 C180 C -0.23523 0.02529 0.65314
 H181 H -0.39493 0.17126 0.59824
 H182 H -0.45902 0.14289 0.55834
 H183 H -0.37392 -0.02648 0.57117
 H184 H -0.31565 0.17620 0.63984
 H185 H -0.23338 0.15674 0.67656
 H186 H -0.21308 -0.01653 0.65589
 C187 C 0.03607 -0.30261 0.91592
 C188 C 0.08731 -0.28881 0.91541
 C189 C 0.13217 -0.31656 0.93344
 C190 C 0.12420 -0.36085 0.95268
 C191 C 0.07184 -0.37686 0.95369
 C192 C 0.02695 -0.34650 0.93511
 O193 O -0.00043 -0.27177 0.89606
 C194 C 0.02860 -0.23796 0.88277
 C195 C 0.08251 -0.24687 0.89388
 C196 C 0.12085 -0.21771 0.88267
 C197 C 0.10306 -0.17785 0.85882
 C198 C 0.04779 -0.16789 0.84663
 C199 C 0.00982 -0.19803 0.85910
 H200 H 0.17215 -0.30501 0.93243
 H201 H 0.15932 -0.38293 0.96655
 H202 H -0.01346 -0.35742 0.93493
 H203 H 0.16309 -0.22572 0.89176
 H204 H 0.13238 -0.15460 0.84984
 H205 H -0.03245 -0.19166 0.85008
 C206 C 0.04215 0.34073 0.89557
 C207 C 0.09294 0.32941 0.88428
 C208 C 0.13688 0.35315 0.89534
 C209 C 0.12828 0.38963 0.91924
 C210 C 0.07634 0.40181 0.93147
 C211 C 0.03250 0.37738 0.91908
 O212 O 0.00674 0.31168 0.88295
 C213 C 0.03585 0.28134 0.86330
 C214 C 0.08880 0.29074 0.86320
 C215 C 0.12701 0.26189 0.84527
 C216 C 0.11009 0.22135 0.82690
 C217 C 0.05586 0.21020 0.82685
 C218 C 0.01807 0.24131 0.84511
 H219 H 0.17664 0.34311 0.88632
 H220 H 0.16228 0.40786 0.92845
 H221 H -0.00734 0.38503 0.92823
 H222 H 0.16854 0.26983 0.84571
 H223 H 0.13933 0.19846 0.81278
 H224 H -0.02328 0.23324 0.84600
 C225 C -0.36228 0.02121 0.39833
 C226 C -0.36792 0.07499 0.38725
 C227 C -0.40533 0.11713 0.39794
 C228 C -0.43826 0.10330 0.42101
 C229 C -0.43281 0.04807 0.43329
 C230 C -0.39393 0.00659 0.42155
 O231 O -0.32456 -0.01265 0.38499
 C232 C -0.30576 0.02055 0.36516
 C233 C -0.33071 0.07461 0.36571
 C234 C -0.31615 0.11640 0.34735
 C235 C -0.27392 0.10190 0.32777
 C236 C -0.24756 0.04619 0.32653
 C237 C -0.26446 0.00504 0.34551
 H238 H -0.40913 0.15918 0.38882
 H239 H -0.46753 0.13592 0.42945
 H240 H -0.38846 -0.03601 0.43004
 H241 H -0.33593 0.15882 0.34843
 H242 H -0.26111 0.13446 0.31417
 H243 H -0.24618 -0.03796 0.34511
 C244 C 0.28974 -0.01568 0.40175
 C245 C 0.29475 -0.07072 0.39587
 C246 C 0.33749 -0.11003 0.40896
 C247 C 0.37643 -0.09191 0.42914
 C248 C 0.37191 -0.03535 0.43590
 C249 C 0.32789 0.00325 0.42176
 O250 O 0.24598 0.01485 0.38708
 C251 C 0.22280 -0.02176 0.37166
 C252 C 0.25095 -0.07471 0.37627
 C253 C 0.23354 -0.11949 0.36256
 C254 C 0.18528 -0.10921 0.34317
 C255 C 0.15559 -0.05481 0.33775
 C256 C 0.17487 -0.01056 0.35240
 H257 H 0.34058 -0.15314 0.40398
 H258 H 0.40968 -0.12212 0.43976
 H259 H 0.32303 0.04662 0.42641
 H260 H 0.25618 -0.16088 0.36673
 H261 H 0.17081 -0.14375 0.33263
 H262 H 0.15376 0.03151 0.34859
   
