data_POSCAR
  _audit_creation_date              2014-09-24
  _audit_creation_method            'ToBaCCo'
  _symmetry_space_group_name_H-M    'P1'
  _symmetry_Int_Tables_number       1
  _symmetry_cell_setting            triclinic
  loop_
  _symmetry_equiv_pos_as_xyz
 x,y,z
_cell_length_a 43.0965
_cell_length_b 42.6112
_cell_length_c 24.5564
_cell_angle_alpha 90.009500
_cell_angle_beta 90.124500
_cell_angle_gamma 119.796000
loop_
  _atom_site_label
  _atom_site_type_symbol
  _atom_site_fract_x
  _atom_site_fract_y
  _atom_site_fract_z
C1 C 0.43312 0.88965 0.52696
 C2 C 0.43321 0.88973 0.47104
 C3 C 0.45836 0.92444 0.45518
 N4 N 0.47375 0.94540 0.49939
 C5 C 0.45821 0.92432 0.54330
 C6 C 0.46851 0.93561 0.40095
 C7 C 0.49207 0.97179 0.38565
 C8 C 0.50796 0.98246 0.33489
 C9 C 0.52676 1.01963 0.33501
 C10 C 0.52183 1.03074 0.38587
 N11 N 0.50055 1.00137 0.41636
 C12 C 0.53479 1.06714 0.40143
 C13 C 0.53575 1.07831 0.45589
 C14 C 0.54527 1.11315 0.47218
 C15 C 0.54515 1.11309 0.52807
 C16 C 0.53553 1.07820 0.54414
 N17 N 0.53007 1.05714 0.49995
 C18 C 0.53427 1.06688 0.59857
 C19 C 0.52121 1.03044 0.61392
 C20 C 0.52583 1.01923 0.66492
 C21 C 0.50711 0.98207 0.66464
 C22 C 0.49154 0.97150 0.61353
 N23 N 0.50014 1.00114 0.58299
 C24 C 0.46816 0.93534 0.59772
 H25 H 0.41671 0.86665 0.55259
 H26 H 0.41689 0.86680 0.44509
 H27 H 0.48880 1.00141 0.54578
 H28 H 0.50601 0.96527 0.30108
 H29 H 0.54207 1.03655 0.30128
 H30 H 0.55187 1.13625 0.44648
 H31 H 0.55169 1.13614 0.55393
 H32 H 0.50499 0.96481 0.69842
 H33 H 0.48899 1.00156 0.45331
 H34 H 0.54087 1.03609 0.69900
 C35 C 0.11077 0.56757 0.52764
 C36 C 0.11057 0.56743 0.47174
 C37 C 0.07604 0.54249 0.45580
 N38 N 0.05530 0.52723 0.49996
 C39 C 0.07634 0.54265 0.54397
 C40 C 0.06480 0.53241 0.40150
 C41 C 0.02883 0.50948 0.38598
 C42 C 0.01786 0.49360 0.33505
 C43 C -0.01890 0.47563 0.33499
 C44 C -0.02945 0.48105 0.38589
 N45 N -0.00015 0.50182 0.41658
 C46 C -0.06523 0.46901 0.40139
 C47 C -0.07598 0.46830 0.45590
 C48 C -0.11006 0.45982 0.47236
 C49 C -0.10985 0.45969 0.52827
 C50 C -0.07566 0.46812 0.54409
 N51 N -0.05514 0.47312 0.49985
 C52 C -0.06461 0.46858 0.59832
 C53 C -0.02882 0.48067 0.61370
 C54 C -0.01818 0.47510 0.66444
 C55 C 0.01857 0.49326 0.66456
 C56 C 0.02946 0.50943 0.61382
 N57 N 0.00036 0.50169 0.58320
 C58 C 0.06540 0.53266 0.59842
 H59 H 0.13369 0.58388 0.55331
 H60 H 0.13330 0.58360 0.44584
 H61 H 0.00045 0.51367 0.54634
 H62 H 0.03459 0.49503 0.30125
 H63 H -0.03591 0.46053 0.30114
 H64 H -0.13275 0.45407 0.44677
 H65 H -0.13233 0.45382 0.55424
 H66 H 0.03538 0.49464 0.69834
 H67 H 0.00014 0.51371 0.45364
 H68 H -0.03512 0.45979 0.69809
 C69 C 0.42734 0.53783 0.52893
 C70 C 0.42775 0.53818 0.47304
 C71 C 0.45393 0.53019 0.45733
 N72 N 0.46965 0.52525 0.50163
 C73 C 0.45333 0.52966 0.54550
 C74 C 0.46459 0.52999 0.40314
 C75 C 0.48889 0.51843 0.38780
 C76 C 0.50486 0.52411 0.33703
 C77 C 0.52435 0.50654 0.33708
 C78 C 0.51982 0.49065 0.38791
 N79 N 0.49805 0.49791 0.41846
 C80 C 0.53368 0.46811 0.40344
 C81 C 0.53525 0.45828 0.45778
 C82 C 0.54624 0.43413 0.47379
 C83 C 0.54634 0.43413 0.52968
 C84 C 0.53528 0.45822 0.54597
 N85 N 0.52882 0.47311 0.50191
 C86 C 0.53356 0.46788 0.60046
 C87 C 0.51912 0.48999 0.61606
 C88 C 0.52299 0.50538 0.66725
 C89 C 0.50322 0.52263 0.66712
 C90 C 0.48768 0.51732 0.61588
 N91 N 0.49741 0.49726 0.58516
 C92 C 0.46335 0.52888 0.60008
 H93 H 0.41010 0.54325 0.55443
 H94 H 0.41088 0.54390 0.44700
 H95 H 0.48646 0.48561 0.54777
 H96 H 0.50250 0.53910 0.30325
 H97 H 0.53988 0.50540 0.30335
 H98 H 0.55376 0.41844 0.44794
 H99 H 0.55406 0.41851 0.55539
 H100 H 0.50034 0.53714 0.70111
 H101 H 0.48667 0.48591 0.45540
 H102 H 0.53815 0.50400 0.70142
 O103 O 0.38414 0.65520 -0.04697
 O104 O 0.38374 0.71538 -0.06376
 C105 C 0.36719 0.73230 -0.07381
 O106 O 0.34021 0.72808 -0.04702
 O107 O 0.28073 0.66767 -0.06334
 C108 C 0.26409 0.63410 -0.07327
 O109 O 0.26850 0.61113 -0.04643
 O110 O 0.32820 0.61118 -0.06320
 C111 C 0.36131 0.62778 -0.07351
 O112 O 0.38322 0.66558 0.06139
 O113 O 0.38586 0.72725 0.04456
 C114 C 0.36386 0.73279 0.07132
 O115 O 0.33068 0.71704 0.06137
 O116 O 0.26969 0.65825 0.04509
 C117 C 0.26449 0.63058 0.07192
 O118 O 0.28013 0.61279 0.06189
 O119 O 0.33825 0.60973 0.04515
 C120 C 0.36573 0.63211 0.07174
 Cr121 Cr 0.38226 0.68988 -0.00119
 Cr122 Cr 0.30629 0.69172 -0.00098
 Cr123 Cr 0.30479 0.61321 -0.00066
 O124 O 0.33112 0.66494 -0.00095
 O125 O 0.61493 0.34310 -0.04604
 O126 O 0.61658 0.28351 -0.06237
 C127 C 0.63366 0.26714 -0.07237
 O128 O 0.66090 0.27198 -0.04550
 O129 O 0.71973 0.33298 -0.06160
 C130 C 0.73578 0.36650 -0.07173
 O131 O 0.73087 0.38921 -0.04512
 O132 O 0.67050 0.38783 -0.06212
 C133 C 0.63738 0.37065 -0.07255
 O134 O 0.61630 0.33324 0.06241
 O135 O 0.61489 0.27213 0.04605
 C136 C 0.63729 0.26717 0.07296
 O137 O 0.67045 0.28335 0.06301
 O138 O 0.73082 0.34280 0.04691
 C139 C 0.73561 0.37043 0.07350
 O140 O 0.71945 0.38770 0.06318
 O141 O 0.66059 0.38939 0.04619
 C142 C 0.63330 0.36676 0.07266
 Cr143 Cr 0.61767 0.30899 0.00003
 Cr144 Cr 0.69448 0.30878 0.00070
 Cr145 Cr 0.69436 0.38652 0.00053
 O146 O 0.66884 0.33476 0.00043
 C147 C 0.40382 0.80665 -0.19693
 C148 C 0.40572 0.79599 -0.25088
 C149 C 0.41879 0.82211 -0.29329
 C150 C 0.42969 0.85869 -0.28155
 C151 C 0.42762 0.86932 -0.22764
 C152 C 0.41474 0.84324 -0.18518
 C153 C 0.41309 0.85454 -0.13157
 C154 C 0.42384 0.89058 -0.12023
 C155 C 0.43635 0.91606 -0.16178
 C156 C 0.43824 0.90570 -0.21494
 C157 C 0.42067 0.81086 -0.34683
 C158 C 0.40976 0.77480 -0.35821
 C159 C 0.39685 0.74924 -0.31678
 C160 C 0.39482 0.75955 -0.26364
 C161 C 0.44313 0.88543 -0.32475
 C162 C 0.45443 0.90794 -0.36021
 C163 C 0.39076 0.78007 -0.15349
 C164 C 0.37997 0.75816 -0.11720
 H165 H 0.40351 0.83572 -0.09787
 H166 H 0.42243 0.89876 -0.07899
 H167 H 0.44462 0.94401 -0.15280
 H168 H 0.44807 0.92650 -0.24585
 H169 H 0.43059 0.82976 -0.38038
 H170 H 0.41133 0.76666 -0.39940
 H171 H 0.38838 0.72127 -0.32585
 H172 H 0.38463 0.73868 -0.23279
 C173 C 0.19062 0.59671 -0.19689
 C174 C 0.15465 0.58687 -0.18607
 C175 C 0.12900 0.57367 -0.22888
 C176 C 0.13944 0.57027 -0.28220
 C177 C 0.17539 0.58001 -0.29299
 C178 C 0.20108 0.59337 -0.25023
 C179 C 0.23689 0.60309 -0.26203
 C180 C 0.24702 0.59963 -0.31455
 C181 C 0.22187 0.58645 -0.35632
 C182 C 0.18642 0.57670 -0.34589
 C183 C 0.09323 0.56413 -0.21710
 C184 C 0.08305 0.56736 -0.16451
 C185 C 0.10811 0.58017 -0.12263
 C186 C 0.14354 0.58988 -0.13305
 C187 C 0.11317 0.55676 -0.32581
 C188 C 0.09099 0.54549 -0.36154
 C189 C 0.21679 0.61013 -0.15313
 C190 C 0.23843 0.62116 -0.11669
 H191 H 0.25741 0.61344 -0.23089
 H192 H 0.27452 0.60719 -0.32286
 H193 H 0.22985 0.58376 -0.39704
 H194 H 0.16783 0.56650 -0.37967
 H195 H 0.07276 0.55412 -0.24831
 H196 H 0.05557 0.55990 -0.15623
 H197 H 0.10008 0.58263 -0.08183
 H198 H 0.16206 0.59975 -0.09913
 C199 C 0.39734 0.58986 -0.19695
 C200 C 0.39895 0.60227 -0.25092
 C201 C 0.41230 0.58958 -0.29335
 C202 C 0.42367 0.56432 -0.28163
 C203 C 0.42160 0.55153 -0.22778
 C204 C 0.40851 0.56444 -0.18529
 C205 C 0.40689 0.55143 -0.13172
 C206 C 0.41783 0.52634 -0.12047
 C207 C 0.43050 0.51362 -0.16206
 C208 C 0.43240 0.52595 -0.21517
 C209 C 0.41395 0.60262 -0.34688
 C210 C 0.40243 0.62723 -0.35828
 C211 C 0.38916 0.63946 -0.31686
 C212 C 0.38746 0.62729 -0.26369
 C213 C 0.43770 0.55162 -0.32475
 C214 C 0.44960 0.54101 -0.36014
 C215 C 0.38442 0.60336 -0.15337
 C216 C 0.37382 0.61454 -0.11697
 H217 H 0.39714 0.56044 -0.09801
 H218 H 0.41640 0.51667 -0.07927
 H219 H 0.43888 0.49406 -0.15316
 H220 H 0.44230 0.51513 -0.24614
 H221 H 0.42411 0.59395 -0.38044
 H222 H 0.40377 0.63683 -0.39950
 H223 H 0.38014 0.65848 -0.32595
 H224 H 0.37697 0.63762 -0.23284
 C225 C 0.59737 0.19298 -0.19616
 C226 C 0.57030 0.15695 -0.18567
 C227 C 0.55728 0.13111 -0.22858
 C228 C 0.57150 0.14142 -0.28169
 C229 C 0.59865 0.17740 -0.29215
 C230 C 0.61159 0.20328 -0.24927
 C231 C 0.63870 0.23911 -0.26075
 C232 C 0.65265 0.24906 -0.31307
 C233 C 0.64004 0.22375 -0.35496
 C234 C 0.61336 0.18829 -0.34485
 C235 C 0.53013 0.09529 -0.21714
 C236 C 0.51634 0.08524 -0.16476
 C237 C 0.52912 0.11048 -0.12278
 C238 C 0.55576 0.14597 -0.13288
 C239 C 0.55829 0.11495 -0.32539
 C240 C 0.54715 0.09264 -0.36125
 C241 C 0.61047 0.21941 -0.15236
 C242 C 0.62116 0.24126 -0.11587
 H243 H 0.64940 0.25976 -0.22950
 H244 H 0.67337 0.27655 -0.32113
 H245 H 0.65099 0.23162 -0.39552
 H246 H 0.60447 0.16956 -0.37873
 H247 H 0.51925 0.07470 -0.24845
 H248 H 0.49561 0.05772 -0.15673
 H249 H 0.51832 0.10254 -0.08215
 H250 H 0.56481 0.16462 -0.09889
 C251 C 0.80901 0.40443 -0.19518
 C252 C 0.79801 0.39346 -0.24959
 C253 C 0.82366 0.40654 -0.29222
 C254 C 0.86011 0.43072 -0.28024
 C255 C 0.87106 0.44192 -0.22588
 C256 C 0.84547 0.42861 -0.18320
 C257 C 0.85710 0.43998 -0.12913
 C258 C 0.89299 0.46387 -0.11757
 C259 C 0.91799 0.47701 -0.15933
 C260 C 0.90730 0.46629 -0.21293
 C261 C 0.81207 0.39499 -0.34623
 C262 C 0.77612 0.37144 -0.35787
 C263 C 0.75102 0.35883 -0.31624
 C264 C 0.76169 0.36954 -0.26263
 C265 C 0.88637 0.44398 -0.32369
 C266 C 0.90846 0.45509 -0.35938
 C267 C 0.78290 0.39085 -0.15152
 C268 C 0.76133 0.37968 -0.11512
 H269 H 0.83866 0.43056 -0.09525
 H270 H 0.90142 0.47228 -0.07598
 H271 H 0.94582 0.49564 -0.15017
 H272 H 0.92772 0.47736 -0.24400
 H273 H 0.83060 0.40400 -0.37996
 H274 H 0.76771 0.36296 -0.39944
 H275 H 0.72313 0.34066 -0.32554
 H276 H 0.74118 0.35892 -0.23163
 C277 C 0.60030 0.40720 -0.19673
 C278 C 0.57904 0.38329 -0.23865
 C279 C 0.56565 0.39595 -0.28118
 C280 C 0.57371 0.43247 -0.28162
 C281 C 0.59537 0.45649 -0.24009
 C282 C 0.60862 0.44380 -0.19744
 C283 C 0.63002 0.46827 -0.15618
 C284 C 0.63815 0.50426 -0.15709
 C285 C 0.62531 0.51671 -0.19891
 C286 C 0.60419 0.49323 -0.24007
 C287 C 0.54434 0.37151 -0.32252
 C288 C 0.53661 0.33563 -0.32201
 C289 C 0.54974 0.32327 -0.28048
 C290 C 0.57068 0.34669 -0.23913
 C291 C 0.55940 0.44522 -0.32436
 C292 C 0.54737 0.45584 -0.35963
 C293 C 0.61348 0.39414 -0.15279
 C294 C 0.62439 0.38337 -0.11618
 H295 H 0.64071 0.45989 -0.12286
 H296 H 0.65454 0.52261 -0.12521
 H297 H 0.63176 0.54471 -0.19951
 H298 H 0.59497 0.50423 -0.27185
 H299 H 0.53347 0.37984 -0.35565
 H300 H 0.52034 0.31733 -0.35402
 H301 H 0.54367 0.29538 -0.28027
 H302 H 0.58025 0.33580 -0.20768
 C303 C 0.80909 0.40733 0.19720
 C304 C 0.79837 0.39529 0.25124
 C305 C 0.82415 0.40793 0.29389
 C306 C 0.86044 0.43284 0.28234
 C307 C 0.87110 0.44517 0.22838
 C308 C 0.84538 0.43226 0.18565
 C309 C 0.85673 0.44478 0.13198
 C310 C 0.89245 0.46940 0.12085
 C311 C 0.91757 0.48214 0.16266
 C312 C 0.90716 0.47029 0.21587
 C313 C 0.81284 0.39522 0.34748
 C314 C 0.77704 0.37099 0.35873
 C315 C 0.75180 0.35884 0.31711
 C316 C 0.76219 0.37068 0.26388
 C317 C 0.88685 0.44570 0.32579
 C318 C 0.90910 0.45653 0.36143
 C319 C 0.78287 0.39408 0.15348
 C320 C 0.76122 0.38319 0.11702
 H321 H 0.83818 0.43572 0.09809
 H322 H 0.90067 0.47868 0.07956
 H323 H 0.94527 0.50133 0.15383
 H324 H 0.92766 0.48110 0.24700
 H325 H 0.83150 0.40383 0.38118
 H326 H 0.76885 0.36161 0.39998
 H327 H 0.72402 0.34013 0.32610
 H328 H 0.74158 0.36039 0.23287
 C329 C 0.59934 0.19333 0.19682
 C330 C 0.57331 0.15699 0.18553
 C331 C 0.55986 0.13119 0.22836
 C332 C 0.57268 0.14183 0.28220
 C333 C 0.59875 0.17815 0.29347
 C334 C 0.61203 0.20401 0.25069
 C335 C 0.63796 0.24020 0.26303
 C336 C 0.65043 0.25052 0.31608
 C337 C 0.63755 0.22521 0.35786
 C338 C 0.61203 0.18940 0.34691
 C339 C 0.53370 0.09507 0.21610
 C340 C 0.52137 0.08468 0.16300
 C341 C 0.53463 0.10987 0.12109
 C342 C 0.56027 0.14565 0.13199
 C343 C 0.55919 0.11534 0.32577
 C344 C 0.54786 0.09299 0.36148
 C345 C 0.61298 0.21968 0.15304
 C346 C 0.62416 0.24142 0.11651
 H347 H 0.64883 0.26086 0.23189
 H348 H 0.67021 0.27830 0.32482
 H349 H 0.64739 0.23336 0.39899
 H350 H 0.60290 0.17068 0.38073
 H351 H 0.52247 0.07451 0.24732
 H352 H 0.50140 0.05692 0.15436
 H353 H 0.52497 0.10166 0.07990
 H354 H 0.56973 0.16425 0.09802
 C355 C 0.59735 0.40469 0.19623
 C356 C 0.61102 0.40777 0.24966
 C357 C 0.59847 0.42101 0.29247
 C358 C 0.57218 0.43089 0.28164
 C359 C 0.55851 0.42782 0.22821
 C360 C 0.57119 0.41476 0.18536
 C361 C 0.55721 0.41205 0.13225
 C362 C 0.53141 0.42191 0.12179
 C363 C 0.51896 0.43461 0.16371
 C364 C 0.53224 0.43757 0.21638
 C365 C 0.61268 0.42404 0.34547
 C366 C 0.63844 0.41412 0.35594
 C367 C 0.65063 0.40106 0.31413
 C368 C 0.63719 0.39789 0.26151
 C369 C 0.55904 0.44408 0.32534
 C370 C 0.54773 0.45502 0.36111
 C371 C 0.61016 0.39120 0.15248
 C372 C 0.62075 0.38002 0.11605
 H373 H 0.56604 0.40230 0.09829
 H374 H 0.52102 0.41967 0.08093
 H375 H 0.49889 0.44221 0.15540
 H376 H 0.52166 0.44753 0.24761
 H377 H 0.60411 0.43414 0.37928
 H378 H 0.64901 0.41660 0.39672
 H379 H 0.67064 0.39339 0.32247
 H380 H 0.64753 0.38763 0.23033
 C381 C 0.19138 0.59547 0.19543
 C382 C 0.15544 0.58560 0.18409
 C383 C 0.12978 0.57283 0.22668
 C384 C 0.14020 0.56992 0.28032
 C385 C 0.17616 0.57985 0.29169
 C386 C 0.20185 0.59274 0.24912
 C387 C 0.23767 0.60261 0.26148
 C388 C 0.24780 0.59975 0.31436
 C389 C 0.22266 0.58705 0.35595
 C390 C 0.18721 0.57716 0.34497
 C391 C 0.09401 0.56319 0.21436
 C392 C 0.08386 0.56596 0.16147
 C393 C 0.10894 0.57839 0.11981
 C394 C 0.14436 0.58817 0.13075
 C395 C 0.11388 0.55668 0.32366
 C396 C 0.09173 0.54566 0.35923
 C397 C 0.21748 0.60812 0.15178
 C398 C 0.23902 0.61847 0.11537
 H399 H 0.25819 0.61263 0.23050
 H400 H 0.27531 0.60741 0.32309
 H401 H 0.23065 0.58484 0.39695
 H402 H 0.16862 0.56737 0.37864
 H403 H 0.07354 0.55346 0.24539
 H404 H 0.05639 0.55843 0.15278
 H405 H 0.10093 0.58050 0.07878
 H406 H 0.16290 0.59774 0.09699
 C407 C 0.40287 0.80739 0.19439
 C408 C 0.41405 0.84407 0.18299
 C409 C 0.42750 0.87011 0.22561
 C410 C 0.42980 0.85934 0.27933
 C411 C 0.41883 0.82271 0.29067
 C412 C 0.40524 0.79663 0.24809
 C413 C 0.39429 0.76014 0.26045
 C414 C 0.39676 0.74973 0.31334
 C415 C 0.41015 0.77524 0.35493
 C416 C 0.42112 0.81136 0.34396
 C417 C 0.43840 0.90660 0.21324
 C418 C 0.43622 0.91708 0.16027
 C419 C 0.42313 0.89162 0.11859
 C420 C 0.41210 0.85550 0.12958
 C421 C 0.44343 0.88597 0.32281
 C422 C 0.45479 0.90836 0.35854
 C423 C 0.38898 0.78079 0.15088
 C424 C 0.37748 0.75881 0.11460
 H425 H 0.38373 0.73931 0.22946
 H426 H 0.38826 0.72172 0.32209
 H427 H 0.41206 0.76702 0.39594
 H428 H 0.43144 0.83022 0.37762
 H429 H 0.44871 0.92739 0.24428
 H430 H 0.44472 0.94510 0.15155
 H431 H 0.42149 0.89990 0.07750
 H432 H 0.40209 0.83670 0.09579
 C433 C 0.40059 0.59341 0.19592
 C434 C 0.41311 0.56907 0.18430
 C435 C 0.42556 0.55578 0.22724
 C436 C 0.42568 0.56714 0.28149
 C437 C 0.41300 0.59134 0.29314
 C438 C 0.40028 0.60441 0.25024
 C439 C 0.38751 0.62840 0.26291
 C440 C 0.38733 0.63918 0.31643
 C441 C 0.39994 0.62656 0.35833
 C442 C 0.41269 0.60294 0.34705
 C443 C 0.43771 0.53127 0.21466
 C444 C 0.43778 0.52039 0.16117
 C445 C 0.42577 0.53352 0.11916
 C446 C 0.41352 0.55756 0.13035
 C447 C 0.43914 0.55412 0.32510
 C448 C 0.45058 0.54323 0.36083
 C449 C 0.38815 0.60719 0.15198
 C450 C 0.37790 0.61860 0.11536
 H451 H 0.37749 0.63901 0.23170
 H452 H 0.37736 0.65744 0.32542
 H453 H 0.39982 0.63508 0.39982
 H454 H 0.42226 0.59389 0.38099
 H455 H 0.44718 0.52018 0.24594
 H456 H 0.44719 0.50164 0.15230
 H457 H 0.42589 0.52500 0.07766
 H458 H 0.40438 0.56697 0.09629
   
