data_POSCAR
  _audit_creation_date              2014-09-24
  _audit_creation_method            'ToBaCCo'
  _symmetry_space_group_name_H-M    'P1'
  _symmetry_Int_Tables_number       1
  _symmetry_cell_setting            triclinic
  loop_
  _symmetry_equiv_pos_as_xyz
 x,y,z
_cell_length_a 43.8903
_cell_length_b 53.8922
_cell_length_c 43.5244
_cell_angle_alpha 90.009000
_cell_angle_beta 89.816500
_cell_angle_gamma 90.155800
loop_
  _atom_site_label
  _atom_site_type_symbol
  _atom_site_fract_x
  _atom_site_fract_y
  _atom_site_fract_z
Si1 Si 1.24766 0.24798 0.25036
 Si2 Si 0.74848 -0.25119 0.25125
 Si3 Si 0.75139 0.25071 -0.24865
 Si4 Si 1.25223 -0.25017 -0.24920
 Si5 Si 0.24868 0.24993 0.74962
 Si6 Si 0.74753 0.74893 0.74894
 Si7 Si 0.75150 0.25081 0.24894
 Si8 Si 0.25079 0.75180 0.24905
 N9 N 1.05255 0.02474 0.03277
 N10 N 1.07195 0.04315 0.03709
 N11 N 1.03175 -0.02754 0.05446
 N12 N 1.03679 -0.04547 0.07447
 N13 N 1.05283 -0.02746 0.03299
 N14 N 1.07276 -0.04533 0.03781
 N15 N 1.03149 0.02468 0.05425
 N16 N 1.03599 0.04305 0.07378
 C17 C 1.06127 0.05448 0.06272
 C18 C 1.06240 -0.05651 0.06371
 N19 N 0.94488 -0.02796 0.03358
 N20 N 0.92553 -0.04636 0.03828
 N21 N 0.96590 0.02437 0.05463
 N22 N 0.96155 0.04277 0.07415
 N23 N 0.94467 0.02426 0.03345
 N24 N 0.92528 0.04260 0.03801
 N25 N 0.96611 -0.02782 0.05477
 N26 N 0.96177 -0.04612 0.07446
 Mn27 Mn 0.99880 -0.00158 0.05489
 C28 C 0.93640 -0.05759 0.06383
 C29 C 0.93615 0.05405 0.06347
 N30 N 1.05259 -0.02755 -0.03316
 N31 N 1.07257 -0.04536 -0.03813
 N32 N 1.03119 0.02445 -0.05458
 N33 N 1.03607 0.04231 -0.07477
 N34 N 1.05238 0.02459 -0.03337
 N35 N 1.07224 0.04254 -0.03853
 N36 N 1.03142 -0.02772 -0.05440
 N37 N 1.03645 -0.04565 -0.07442
 Mn38 Mn 1.05292 -0.00142 -0.00019
 C39 C 1.06213 -0.05659 -0.06388
 C40 C 1.06170 0.05354 -0.06437
 N41 N 0.94443 0.02407 -0.03279
 N42 N 0.92452 0.04195 -0.03765
 N43 N 0.96577 -0.02808 -0.05405
 N44 N 0.96104 -0.04618 -0.07391
 N45 N 0.94464 -0.02814 -0.03263
 N46 N 0.92495 -0.04630 -0.03736
 N47 N 0.96553 0.02412 -0.05423
 N48 N 0.96056 0.04203 -0.07426
 Mn49 Mn 0.94429 -0.00194 0.00042
 Mn50 Mn 0.99847 -0.00181 -0.05466
 Cl51 Cl 0.99862 -0.00169 0.00011
 C52 C 0.93496 0.05309 -0.06355
 C53 C 0.93555 -0.05749 -0.06314
 N54 N 1.05549 0.52719 0.53173
 N55 N 1.07545 0.54507 0.53677
 N56 N 1.03410 0.47502 0.55305
 N57 N 1.03895 0.45716 0.57318
 N58 N 1.05538 0.47505 0.53178
 N59 N 1.07527 0.45721 0.53686
 N60 N 1.03424 0.52718 0.55302
 N61 N 1.03917 0.54505 0.57314
 C62 C 1.06489 0.55615 0.56261
 C63 C 1.06465 0.44610 0.56269
 N64 N 0.94739 0.47497 0.53156
 N65 N 0.92728 0.45718 0.53667
 N66 N 0.96862 0.52719 0.55288
 N67 N 0.96387 0.54529 0.57273
 N68 N 0.94755 0.52718 0.53153
 N69 N 0.92790 0.54530 0.53630
 N70 N 0.96844 0.47500 0.55292
 N71 N 0.96322 0.45722 0.57313
 Mn72 Mn 1.00135 0.50109 0.55331
 C73 C 0.93754 0.44615 0.56261
 C74 C 0.93845 0.55652 0.56204
 N75 N 1.05575 0.47502 0.46564
 N76 N 1.07515 0.45669 0.46125
 N77 N 1.03490 0.52720 0.44417
 N78 N 1.03988 0.54523 0.42423
 N79 N 1.05592 0.52723 0.46555
 N80 N 1.07577 0.54528 0.46074
 N81 N 1.03474 0.47499 0.44424
 N82 N 1.03927 0.45663 0.42470
 Mn83 Mn 1.05598 0.50113 0.49867
 C84 C 1.06453 0.44532 0.43566
 C85 C 1.06540 0.55644 0.43493
 N86 N 0.94801 0.52712 0.46532
 N87 N 0.92870 0.54547 0.46078
 N88 N 0.96915 0.47494 0.44407
 N89 N 0.96473 0.45668 0.42435
 N90 N 0.94784 0.47490 0.46531
 N91 N 0.92834 0.45660 0.46059
 N92 N 0.96929 0.52712 0.44407
 N93 N 0.96505 0.54547 0.42449
 Mn94 Mn 0.94734 0.50104 0.49842
 Mn95 Mn 1.00202 0.50106 0.44378
 Cl96 Cl 1.00166 0.50108 0.49855
 C97 C 0.93968 0.55682 0.43526
 C98 C 0.93923 0.44533 0.43499
 N99 N 0.55480 0.02732 0.53255
 N100 N 0.57475 0.04518 0.53778
 N101 N 0.53378 -0.02499 0.55378
 N102 N 0.53843 -0.04312 0.57360
 N103 N 0.55509 -0.02485 0.53255
 N104 N 0.57481 -0.04287 0.53734
 N105 N 0.53350 0.02721 0.55379
 N106 N 0.53839 0.04500 0.57405
 C107 C 0.56413 0.05617 0.56366
 C108 C 0.56407 -0.05419 0.56299
 N109 N 0.44717 -0.02550 0.53198
 N110 N 0.42738 -0.04356 0.53685
 N111 N 0.46783 0.02681 0.55340
 N112 N 0.46254 0.04463 0.57351
 N113 N 0.44685 0.02666 0.53197
 N114 N 0.42672 0.04438 0.53691
 N115 N 0.46815 -0.02534 0.55341
 N116 N 0.46321 -0.04330 0.57343
 Mn117 Mn 0.50081 0.00093 0.55394
 C118 C 0.43777 -0.05460 0.56272
 C119 C 0.43689 0.05554 0.56283
 N120 N 0.55557 -0.02485 0.46643
 N121 N 0.57506 -0.04313 0.46217
 N122 N 0.53433 0.02718 0.44493
 N123 N 0.53892 0.04548 0.42529
 N124 N 0.55528 0.02733 0.46639
 N125 N 0.57470 0.04574 0.46193
 N126 N 0.53461 -0.02501 0.44499
 N127 N 0.53927 -0.04341 0.42554
 Mn128 Mn 0.55553 0.00125 0.49947
 C129 C 0.56456 -0.05460 0.43661
 C130 C 0.56415 0.05697 0.43625
 N131 N 0.44741 0.02665 0.46577
 N132 N 0.42787 0.04482 0.46107
 N133 N 0.46898 -0.02544 0.44453
 N134 N 0.46430 -0.04340 0.42444
 N135 N 0.44766 -0.02557 0.46575
 N136 N 0.42790 -0.04361 0.46066
 N137 N 0.46874 0.02676 0.44456
 N138 N 0.46430 0.04499 0.42486
 Mn139 Mn 0.44692 0.00056 0.49886
 Mn140 Mn 0.50168 0.00087 0.44440
 Cl141 Cl 0.50123 0.00090 0.49918
 C142 C 0.43876 0.05617 0.43551
 C143 C 0.43866 -0.05468 0.43487
 N144 N 0.55233 0.52574 0.03526
 N145 N 0.57161 0.54424 0.03952
 N146 N 0.53144 0.47347 0.05677
 N147 N 0.53610 0.45522 0.07641
 N148 N 0.55254 0.47357 0.03533
 N149 N 0.57212 0.45539 0.03979
 N150 N 0.53123 0.52568 0.05669
 N151 N 0.53557 0.54414 0.07613
 C152 C 0.56083 0.55561 0.06506
 C153 C 0.56153 0.44403 0.06547
 N154 N 0.44465 0.47312 0.03575
 N155 N 0.42526 0.45472 0.04034
 N156 N 0.46559 0.52544 0.05701
 N157 N 0.46084 0.54359 0.07682
 N158 N 0.44447 0.52534 0.03573
 N159 N 0.42477 0.54343 0.04049
 N160 N 0.46580 0.47322 0.05701
 N161 N 0.46136 0.45489 0.07665
 Mn162 Mn 0.49852 0.49945 0.05724
 C163 C 0.43602 0.44345 0.06591
 C164 C 0.43533 0.55473 0.06616
 N165 N 0.55261 0.47354 -0.03081
 N166 N 0.57276 0.45588 -0.03594
 N167 N 0.53128 0.52560 -0.05214
 N168 N 0.53591 0.54376 -0.07197
 N169 N 0.55240 0.52572 -0.03086
 N170 N 0.57198 0.54395 -0.03563
 N171 N 0.53149 0.47339 -0.05209
 N172 N 0.53671 0.45562 -0.07230
 Mn173 Mn 0.55281 0.49964 0.00224
 C174 C 0.56246 0.44474 -0.06182
 C175 C 0.56134 0.55513 -0.06131
 N176 N 0.44451 0.52524 -0.03049
 N177 N 0.42473 0.54321 -0.03531
 N178 N 0.46579 0.47312 -0.05183
 N179 N 0.46073 0.45531 -0.07202
 N180 N 0.44463 0.47308 -0.03045
 N181 N 0.42460 0.45524 -0.03550
 N182 N 0.46567 0.52527 -0.05188
 N183 N 0.46086 0.54326 -0.07182
 Mn184 Mn 0.44421 0.49920 0.00264
 Mn185 Mn 0.49855 0.49934 -0.05233
 Cl186 Cl 0.49852 0.49940 0.00244
 C187 C 0.43530 0.55438 -0.06112
 C188 C 0.43503 0.44420 -0.06143
 C189 C 1.20754 0.21420 0.17464
 C190 C 1.18571 0.19862 0.18815
 C191 C 1.18195 0.19852 0.22008
 C192 C 1.20025 0.21363 0.23847
 C193 C 1.22263 0.22888 0.22514
 C194 C 1.22587 0.22936 0.19306
 C195 C 1.16792 0.18201 0.16951
 C196 C 1.15326 0.16754 0.15445
 C197 C 1.13643 0.14998 0.13743
 C198 C 1.12238 0.13448 0.12338
 C199 C 1.10605 0.11540 0.10717
 C200 C 1.07904 0.10568 0.11947
 C201 C 1.06413 0.08609 0.10472
 C202 C 1.07615 0.07596 0.07750
 C203 C 1.10299 0.08613 0.06499
 C204 C 1.11787 0.10571 0.07979
 H205 H 1.21062 0.21443 0.14993
 H206 H 1.16513 0.18655 0.23079
 H207 H 1.19721 0.21320 0.26317
 H208 H 1.24268 0.24114 0.18216
 H209 H 1.06976 0.11299 0.14071
 H210 H 1.04346 0.07864 0.11483
 H211 H 1.11273 0.07872 0.04403
 H212 H 1.13881 0.11305 0.07012
 C213 C 1.19189 0.69520 0.72361
 C214 C 1.19333 0.69614 0.69150
 C215 C 1.21262 0.71328 0.67702
 C216 C 1.23031 0.72952 0.69459
 C217 C 1.22867 0.72882 0.72677
 C218 C 1.20958 0.71142 0.74117
 C219 C 1.17540 0.67922 0.67348
 C220 C 1.16050 0.66483 0.65856
 C221 C 1.14327 0.64769 0.64135
 C222 C 1.12880 0.63272 0.62687
 C223 C 1.11190 0.61444 0.60990
 C224 C 1.12347 0.60523 0.58218
 C225 C 1.10786 0.58652 0.56645
 C226 C 1.08052 0.57680 0.57835
 C227 C 1.06876 0.58646 0.60594
 C228 C 1.08441 0.60517 0.62163
 H229 H 1.17720 0.68190 0.73505
 H230 H 1.21409 0.71401 0.65218
 H231 H 1.24533 0.74239 0.68293
 H232 H 1.20834 0.71043 0.76600
 H233 H 1.14475 0.61226 0.57293
 H234 H 1.11741 0.57944 0.54522
 H235 H 1.04772 0.57933 0.61560
 H236 H 1.07529 0.61216 0.64311
 C237 C 0.71104 0.21421 0.67783
 C238 C 0.69191 0.19701 0.69244
 C239 C 0.69066 0.19615 0.72457
 C240 C 0.70842 0.21243 0.74199
 C241 C 0.72742 0.22983 0.72746
 C242 C 0.72880 0.23052 0.69526
 C243 C 0.67403 0.17991 0.67456
 C244 C 0.65922 0.16535 0.65976
 C245 C 0.64210 0.14800 0.64266
 C246 C 0.62774 0.13290 0.62826
 C247 C 0.61097 0.11447 0.61130
 C248 C 0.58355 0.10505 0.62301
 C249 C 0.56797 0.08632 0.60724
 C250 C 0.57973 0.07678 0.57958
 C251 C 0.60703 0.08663 0.56773
 C252 C 0.62256 0.10535 0.58353
 H253 H 0.71236 0.21490 0.65298
 H254 H 0.67610 0.18282 0.73613
 H255 H 0.70737 0.21144 0.76683
 H256 H 0.74372 0.24340 0.68350
 H257 H 0.57440 0.11195 0.64451
 H258 H 0.54698 0.07910 0.61688
 H259 H 0.61660 0.07966 0.54645
 H260 H 0.64379 0.11249 0.57428
 C261 C 0.70747 0.71521 0.17595
 C262 C 0.68573 0.69967 0.18968
 C263 C 0.68236 0.69950 0.22165
 C264 C 0.70095 0.71450 0.23986
 C265 C 0.72323 0.72971 0.22630
 C266 C 0.72609 0.73026 0.19418
 C267 C 0.66764 0.68319 0.17121
 C268 C 0.65277 0.66881 0.15626
 C269 C 0.63576 0.65133 0.13934
 C270 C 0.62162 0.63586 0.12535
 C271 C 0.60528 0.61678 0.10919
 C272 C 0.57837 0.60698 0.12161
 C273 C 0.56353 0.58731 0.10695
 C274 C 0.57555 0.57720 0.07973
 C275 C 0.60227 0.58746 0.06709
 C276 C 0.61706 0.60713 0.08179
 H277 H 0.71024 0.71548 0.15120
 H278 H 0.66561 0.68756 0.23252
 H279 H 0.69819 0.71405 0.26459
 H280 H 0.74280 0.74204 0.18311
 H281 H 0.56912 0.61427 0.14288
 H282 H 0.54295 0.57978 0.11714
 H283 H 0.61199 0.58006 0.04612
 H284 H 0.63794 0.61453 0.07205
 C285 C 0.81544 -0.22524 0.19211
 C286 C 0.81020 -0.19962 0.19155
 C287 C 0.78641 -0.18953 0.20897
 C288 C 0.76790 -0.20494 0.22687
 C289 C 0.77301 -0.23060 0.22748
 C290 C 0.79690 -0.24069 0.21005
 C291 C 0.82900 -0.18352 0.17315
 C292 C 0.84422 -0.16942 0.15804
 C293 C 0.86142 -0.15222 0.14074
 C294 C 0.87560 -0.13697 0.12633
 C295 C 0.89193 -0.11813 0.10959
 C296 C 0.91906 -0.10836 0.12137
 C297 C 0.93389 -0.08891 0.10616
 C298 C 0.92165 -0.07898 0.07901
 C299 C 0.89470 -0.08921 0.06701
 C300 C 0.87992 -0.10866 0.08226
 H301 H 0.83378 -0.23325 0.17871
 H302 H 0.78214 -0.16974 0.20867
 H303 H 0.74955 -0.19672 0.23999
 H304 H 0.80114 -0.26048 0.21030
 H305 H 0.92849 -0.11550 0.14257
 H306 H 0.95464 -0.08141 0.11588
 H307 H 0.88481 -0.08195 0.04611
 H308 H 0.85887 -0.11604 0.07300
 C309 C 0.82431 0.28756 0.71058
 C310 C 0.80983 0.30468 0.69137
 C311 C 0.77797 0.30534 0.69012
 C312 C 0.76068 0.28895 0.70799
 C313 C 0.77508 0.27166 0.72710
 C314 C 0.80701 0.27115 0.72846
 C315 C 0.82758 0.32192 0.67343
 C316 C 0.84226 0.33659 0.65857
 C317 C 0.85922 0.35406 0.64139
 C318 C 0.87350 0.36926 0.62695
 C319 C 0.89029 0.38778 0.61005
 C320 C 0.87878 0.39706 0.58239
 C321 C 0.89442 0.41582 0.56665
 C322 C 0.92174 0.42554 0.57845
 C323 C 0.93339 0.41585 0.60600
 C324 C 0.91772 0.39710 0.62170
 H325 H 0.84894 0.28702 0.71192
 H326 H 0.76651 0.31860 0.67549
 H327 H 0.73605 0.28980 0.70695
 H328 H 0.81866 0.25835 0.74346
 H329 H 0.85756 0.39000 0.57318
 H330 H 0.88494 0.42291 0.54547
 H331 H 0.95440 0.42297 0.61560
 H332 H 0.92682 0.39007 0.64311
 C333 C 0.27918 -0.19585 0.68946
 C334 C 0.31102 -0.19650 0.69097
 C335 C 0.32538 -0.21346 0.71047
 C336 C 0.30797 -0.22975 0.72837
 C337 C 0.27606 -0.22928 0.72671
 C338 C 0.26177 -0.21212 0.70735
 C339 C 0.32885 -0.17940 0.67299
 C340 C 0.34358 -0.16481 0.65808
 C341 C 0.36053 -0.14740 0.64088
 C342 C 0.37476 -0.13220 0.62644
 C343 C 0.39141 -0.11362 0.60959
 C344 C 0.37980 -0.10436 0.58197
 C345 C 0.39518 -0.08540 0.56638
 C346 C 0.42233 -0.07547 0.57832
 C347 C 0.43410 -0.08517 0.60579
 C348 C 0.41869 -0.10413 0.62134
 H349 H 0.26782 -0.18269 0.67460
 H350 H 0.35001 -0.21396 0.71200
 H351 H 0.31952 -0.24245 0.74359
 H352 H 0.23715 -0.21130 0.70610
 H353 H 0.35867 -0.11156 0.57271
 H354 H 0.38562 -0.07829 0.54524
 H355 H 0.45499 -0.07789 0.61548
 H356 H 0.42784 -0.11114 0.64273
 C357 C 0.28546 0.30999 0.20869
 C358 C 0.30957 0.30012 0.19153
 C359 C 0.31506 0.27453 0.19204
 C360 C 0.29644 0.25890 0.20968
 C361 C 0.27226 0.26877 0.22688
 C362 C 0.26689 0.29440 0.22629
 C363 C 0.32847 0.31644 0.17348
 C364 C 0.34373 0.33075 0.15868
 C365 C 0.36095 0.34818 0.14174
 C366 C 0.37514 0.36361 0.12760
 C367 C 0.39144 0.38264 0.11113
 C368 C 0.37954 0.39222 0.08381
 C369 C 0.39434 0.41177 0.06877
 C370 C 0.42121 0.42200 0.08096
 C371 C 0.43332 0.41199 0.10811
 C372 C 0.41848 0.39243 0.12313
 H373 H 0.28099 0.32975 0.20843
 H374 H 0.33365 0.26669 0.17884
 H375 H 0.30089 0.23914 0.20990
 H376 H 0.24829 0.30246 0.23920
 H377 H 0.35858 0.38483 0.07438
 H378 H 0.38453 0.41909 0.04786
 H379 H 0.45400 0.41948 0.11799
 H380 H 0.42783 0.38521 0.14431
 C381 C 0.79115 0.21383 -0.17523
 C382 C 0.81023 0.19669 -0.18989
 C383 C 0.81184 0.19616 -0.22202
 C384 C 0.79442 0.21264 -0.23939
 C385 C 0.77537 0.22990 -0.22482
 C386 C 0.77372 0.23033 -0.19262
 C387 C 0.82755 0.17923 -0.17208
 C388 C 0.84189 0.16434 -0.15741
 C389 C 0.85846 0.14657 -0.14053
 C390 C 0.87241 0.13110 -0.12639
 C391 C 0.88881 0.11227 -0.10988
 C392 C 0.91608 0.10285 -0.12182
 C393 C 0.93137 0.08381 -0.10649
 C394 C 0.91951 0.07393 -0.07904
 C395 C 0.89233 0.08373 -0.06696
 C396 C 0.87707 0.10277 -0.08233
 H397 H 0.78954 0.21427 -0.15039
 H398 H 0.82637 0.18289 -0.23362
 H399 H 0.79567 0.21183 -0.26423
 H400 H 0.75875 0.24310 -0.18084
 H401 H 0.92535 0.11004 -0.14315
 H402 H 0.95228 0.07664 -0.11631
 H403 H 0.88269 0.07649 -0.04585
 H404 H 0.85596 0.10990 -0.07290
 C405 C 0.78816 0.68755 0.29280
 C406 C 0.81259 0.69791 0.30892
 C407 C 0.81806 0.72348 0.30731
 C408 C 0.79888 0.73863 0.28990
 C409 C 0.77392 0.72839 0.27423
 C410 C 0.76903 0.70266 0.27542
 C411 C 0.83189 0.68211 0.32695
 C412 C 0.84741 0.66821 0.34184
 C413 C 0.86483 0.65120 0.35895
 C414 C 0.87910 0.63606 0.37326
 C415 C 0.89543 0.61731 0.38991
 C416 C 0.88334 0.60775 0.41726
 C417 C 0.89807 0.58833 0.43238
 C418 C 0.92502 0.57821 0.42023
 C419 C 0.93734 0.58825 0.39307
 C420 C 0.92258 0.60768 0.37798
 H421 H 0.78390 0.66774 0.29365
 H422 H 0.83713 0.73167 0.31941
 H423 H 0.80382 0.75828 0.28841
 H424 H 0.75058 0.69403 0.26303
 H425 H 0.86228 0.61502 0.42662
 H426 H 0.88811 0.58098 0.45329
 H427 H 0.95810 0.58084 0.38324
 H428 H 0.93206 0.61489 0.35676
 C429 C 0.31687 0.22242 0.30681
 C430 C 0.31138 0.19685 0.30829
 C431 C 0.28705 0.18656 0.29193
 C432 C 0.26807 0.20173 0.27447
 C433 C 0.27298 0.22747 0.27342
 C434 C 0.29784 0.23764 0.28932
 C435 C 0.33053 0.18098 0.32641
 C436 C 0.34595 0.16703 0.34137
 C437 C 0.36329 0.15000 0.35856
 C438 C 0.37755 0.13489 0.37294
 C439 C 0.39394 0.11620 0.38968
 C440 C 0.42127 0.10675 0.37794
 C441 C 0.43619 0.08747 0.39317
 C442 C 0.42386 0.07739 0.42030
 C443 C 0.39671 0.08730 0.43226
 C444 C 0.38182 0.10658 0.41699
 H445 H 0.33586 0.23057 0.31909
 H446 H 0.28276 0.16675 0.29267
 H447 H 0.24970 0.19315 0.26191
 H448 H 0.30280 0.25729 0.28796
 H449 H 0.43079 0.11401 0.35676
 H450 H 0.45710 0.08023 0.38347
 H451 H 0.38673 0.07991 0.45314
 H452 H 0.36062 0.11370 0.42622
 C453 C 0.31277 0.69585 -0.22131
 C454 C 0.31082 0.69667 -0.18921
 C455 C 0.29141 0.71377 -0.17496
 C456 C 0.27398 0.72997 -0.19274
 C457 C 0.27601 0.72929 -0.22490
 C458 C 0.29535 0.71204 -0.23907
 C459 C 0.32818 0.67955 -0.17100
 C460 C 0.34253 0.66493 -0.15598
 C461 C 0.35911 0.64745 -0.13874
 C462 C 0.37308 0.63219 -0.12433
 C463 C 0.38948 0.61353 -0.10760
 C464 C 0.37757 0.60405 -0.08012
 C465 C 0.39276 0.58503 -0.06466
 C466 C 0.42001 0.57527 -0.07659
 C467 C 0.43208 0.58518 -0.10393
 C468 C 0.41686 0.60419 -0.11934
 H469 H 0.32757 0.68259 -0.23258
 H470 H 0.28954 0.71441 -0.15015
 H471 H 0.25877 0.74273 -0.18127
 H472 H 0.29687 0.71104 -0.26389
 H473 H 0.35636 0.61113 -0.07087
 H474 H 0.38297 0.57776 -0.04363
 H475 H 0.45305 0.57803 -0.11360
 H476 H 0.42624 0.61137 -0.14062
 C477 C 1.17821 -0.21425 -0.20991
 C478 C 1.19212 -0.19697 -0.19042
 C479 C 1.22393 -0.19589 -0.18853
 C480 C 1.24176 -0.21204 -0.20606
 C481 C 1.22792 -0.22951 -0.22543
 C482 C 1.19604 -0.23041 -0.22744
 C483 C 1.17380 -0.18000 -0.17286
 C484 C 1.15862 -0.16556 -0.15832
 C485 C 1.14110 -0.14835 -0.14151
 C486 C 1.12645 -0.13333 -0.12732
 C487 C 1.10941 -0.11498 -0.11061
 C488 C 1.12072 -0.10562 -0.08290
 C489 C 1.10501 -0.08688 -0.06738
 C490 C 1.07783 -0.07726 -0.07947
 C491 C 1.06634 -0.08706 -0.10704
 C492 C 1.08209 -0.10581 -0.12254
 H493 H 1.15361 -0.21509 -0.21173
 H494 H 1.23493 -0.18247 -0.17368
 H495 H 1.26635 -0.21088 -0.20456
 H496 H 1.18481 -0.24333 -0.24269
 H497 H 1.14187 -0.11257 -0.07350
 H498 H 1.11436 -0.07969 -0.04615
 H499 H 1.04543 -0.08001 -0.11684
 H500 H 1.07318 -0.11291 -0.14401
 C501 C 1.17482 0.28675 0.28779
 C502 C 1.18796 0.29910 0.31275
 C503 C 1.21877 0.29549 0.31953
 C504 C 1.23645 0.27975 0.30126
 C505 C 1.22345 0.26734 0.27615
 C506 C 1.19249 0.27100 0.26952
 C507 C 1.17025 0.31638 0.33050
 C508 C 1.15570 0.33129 0.34500
 C509 C 1.13905 0.34924 0.36153
 C510 C 1.12517 0.36499 0.37530
 C511 C 1.10905 0.38429 0.39132
 C512 C 1.12087 0.39408 0.41859
 C513 C 1.10611 0.41373 0.43332
 C514 C 1.07937 0.42385 0.42086
 C515 C 1.06737 0.41365 0.39373
 C516 C 1.08217 0.39399 0.37903
 H517 H 1.15108 0.28964 0.28212
 H518 H 1.22925 0.30515 0.33861
 H519 H 1.26031 0.27768 0.30657
 H520 H 1.18202 0.26227 0.24982
 H521 H 1.14171 0.38674 0.42825
 H522 H 1.11582 0.42120 0.45422
 H523 H 1.04678 0.42106 0.38365
 H524 H 1.07288 0.38658 0.35789
 C525 C 0.71983 -0.20378 0.32059
 C526 C 0.68901 -0.20013 0.31386
 C527 C 0.67585 -0.21235 0.28882
 C528 C 0.69348 -0.22802 0.27043
 C529 C 0.72443 -0.23174 0.27704
 C530 C 0.73747 -0.21945 0.30221
 C531 C 0.67130 -0.18299 0.33176
 C532 C 0.65668 -0.16819 0.34634
 C533 C 0.63990 -0.15037 0.36292
 C534 C 0.62587 -0.13472 0.37668
 C535 C 0.60955 -0.11552 0.39263
 C536 C 0.58267 -0.10594 0.38021
 C537 C 0.56770 -0.08633 0.39480
 C538 C 0.57954 -0.07605 0.42195
 C539 C 0.60628 -0.08605 0.43456
 C540 C 0.62121 -0.10567 0.41994
 H541 H 0.73032 -0.19422 0.33975
 H542 H 0.65210 -0.20942 0.28318
 H543 H 0.68299 -0.23667 0.25069
 H544 H 0.76133 -0.22158 0.30751
 H545 H 0.57351 -0.11341 0.35904
 H546 H 0.54711 -0.07901 0.38462
 H547 H 0.61587 -0.07852 0.45548
 H548 H 0.64205 -0.11291 0.42969
 C549 C 0.72406 0.30500 -0.18739
 C550 C 0.69222 0.30419 -0.18907
 C551 C 0.67800 0.28701 -0.20849
 C552 C 0.69554 0.27073 -0.22618
 C553 C 0.72745 0.27139 -0.22443
 C554 C 0.74159 0.28872 -0.20508
 C555 C 0.67418 0.32135 -0.17142
 C556 C 0.65919 0.33593 -0.15684
 C557 C 0.64184 0.35327 -0.13998
 C558 C 0.62726 0.36835 -0.12577
 C559 C 0.61021 0.38672 -0.10902
 C560 C 0.58286 0.39588 -0.12090
 C561 C 0.56699 0.41452 -0.10528
 C562 C 0.57838 0.42424 -0.07761
 C563 C 0.60562 0.41466 -0.06560
 C564 C 0.62144 0.39603 -0.08124
 H565 H 0.73531 0.31831 -0.17259
 H566 H 0.65339 0.28636 -0.21017
 H567 H 0.68407 0.25792 -0.24139
 H568 H 0.76621 0.28971 -0.20375
 H569 H 0.57398 0.38883 -0.14241
 H570 H 0.54605 0.42154 -0.11505
 H571 H 0.61491 0.42178 -0.04431
 H572 H 0.64261 0.38910 -0.07185
 C573 C 1.20772 0.21302 -0.17729
 C574 C 1.18867 0.19594 -0.19209
 C575 C 1.18755 0.19535 -0.22422
 C576 C 1.20541 0.21176 -0.24147
 C577 C 1.22438 0.22901 -0.22675
 C578 C 1.22559 0.22945 -0.19455
 C579 C 1.17081 0.17864 -0.17438
 C580 C 1.15605 0.16390 -0.15971
 C581 C 1.13904 0.14633 -0.14275
 C582 C 1.12479 0.13104 -0.12845
 C583 C 1.10816 0.11240 -0.11162
 C584 C 1.08087 0.10285 -0.12335
 C585 C 1.06543 0.08394 -0.10770
 C586 C 1.07719 0.07432 -0.08016
 C587 C 1.10435 0.08427 -0.06830
 C588 C 1.11975 0.10319 -0.08397
 H589 H 1.20895 0.21350 -0.15244
 H590 H 1.17304 0.18211 -0.23593
 H591 H 1.20450 0.21095 -0.26632
 H592 H 1.24049 0.24221 -0.18264
 H593 H 1.07173 0.10982 -0.14475
 H594 H 1.04454 0.07663 -0.11735
 H595 H 1.11390 0.07724 -0.04711
 H596 H 1.14087 0.11042 -0.07471
 C597 C 1.21620 0.71289 0.32196
 C598 C 1.19077 0.70116 0.30914
 C599 C 1.18307 0.70581 0.27853
 C600 C 1.20109 0.72166 0.26064
 C601 C 1.22731 0.73294 0.27298
 C602 C 1.23426 0.72877 0.30410
 C603 C 1.17308 0.68382 0.32706
 C604 C 1.15855 0.66890 0.34172
 C605 C 1.14183 0.65101 0.35853
 C606 C 1.12782 0.63538 0.37258
 C607 C 1.11142 0.61632 0.38898
 C608 C 1.08425 0.60673 0.37703
 C609 C 1.06900 0.58746 0.39222
 C610 C 1.08081 0.57750 0.41955
 C611 C 1.10788 0.58746 0.43164
 C612 C 1.12309 0.60674 0.41641
 H613 H 1.22228 0.70956 0.34571
 H614 H 1.16330 0.69700 0.26838
 H615 H 1.19444 0.72496 0.23706
 H616 H 1.25364 0.73740 0.31490
 H617 H 1.07502 0.61397 0.35579
 H618 H 1.04818 0.58018 0.38239
 H619 H 1.11749 0.58018 0.45266
 H620 H 1.14413 0.61397 0.42586
 C621 C 0.70934 0.21796 0.32443
 C622 C 0.68840 0.20180 0.31064
 C623 C 0.68572 0.20126 0.27861
 C624 C 0.70431 0.21641 0.26044
 C625 C 0.72596 0.23207 0.27408
 C626 C 0.72796 0.23314 0.30622
 C627 C 0.67051 0.18504 0.32912
 C628 C 0.65587 0.17043 0.34410
 C629 C 0.63911 0.15271 0.36108
 C630 C 0.62515 0.13709 0.37514
 C631 C 0.60891 0.11790 0.39141
 C632 C 0.58198 0.10807 0.37922
 C633 C 0.56710 0.08846 0.39409
 C634 C 0.57906 0.07843 0.42130
 C635 C 0.60584 0.08868 0.43367
 C636 C 0.62068 0.10829 0.41877
 H637 H 0.71153 0.21859 0.34921
 H638 H 0.66958 0.18886 0.26768
 H639 H 0.70222 0.21555 0.23567
 H640 H 0.74400 0.24543 0.31734
 H641 H 0.57272 0.11533 0.35801
 H642 H 0.54649 0.08096 0.38407
 H643 H 0.61553 0.08134 0.45462
 H644 H 0.64156 0.11571 0.42836
 C645 C 0.70748 0.71467 -0.17529
 C646 C 0.68572 0.69906 -0.18875
 C647 C 0.68187 0.69918 -0.22065
 C648 C 0.70005 0.71450 -0.23905
 C649 C 0.72239 0.72975 -0.22578
 C650 C 0.72568 0.73002 -0.19372
 C651 C 0.66807 0.68224 -0.17009
 C652 C 0.65354 0.66764 -0.15497
 C653 C 0.63684 0.64999 -0.13780
 C654 C 0.62287 0.63447 -0.12357
 C655 C 0.60655 0.61544 -0.10706
 C656 C 0.57946 0.60570 -0.11901
 C657 C 0.56444 0.58630 -0.10385
 C658 C 0.57642 0.57638 -0.07658
 C659 C 0.60337 0.58653 -0.06447
 C660 C 0.61835 0.60593 -0.07965
 H661 H 0.71063 0.71474 -0.15061
 H662 H 0.66511 0.68721 -0.23134
 H663 H 0.69699 0.71418 -0.26374
 H664 H 0.74249 0.74177 -0.18285
 H665 H 0.57016 0.61288 -0.14024
 H666 H 0.54370 0.57887 -0.11369
 H667 H 0.61309 0.57928 -0.04348
 H668 H 0.63934 0.61328 -0.07024
 C669 C 0.78469 -0.18926 -0.20837
 C670 C 0.80888 -0.19913 -0.19148
 C671 C 0.81471 -0.22467 -0.19260
 C672 C 0.79636 -0.24023 -0.21053
 C673 C 0.77207 -0.23036 -0.22743
 C674 C 0.76637 -0.20477 -0.22625
 C675 C 0.82746 -0.18288 -0.17305
 C676 C 0.84248 -0.16866 -0.15792
 C677 C 0.85951 -0.15136 -0.14059
 C678 C 0.87363 -0.13610 -0.12616
 C679 C 0.89006 -0.11732 -0.10940
 C680 C 0.87813 -0.10784 -0.08193
 C681 C 0.89320 -0.08862 -0.06655
 C682 C 0.92036 -0.07860 -0.07853
 C683 C 0.93246 -0.08851 -0.10585
 C684 C 0.91736 -0.10772 -0.12119
 H685 H 0.77992 -0.16955 -0.20765
 H686 H 0.83336 -0.23253 -0.17962
 H687 H 0.80105 -0.25994 -0.21116
 H688 H 0.74767 -0.19670 -0.23888
 H689 H 0.85697 -0.11507 -0.07263
 H690 H 0.88338 -0.08138 -0.04554
 H691 H 0.95336 -0.08118 -0.11559
 H692 H 0.92676 -0.11486 -0.14246
 C693 C 0.79436 0.31274 0.28578
 C694 C 0.81486 0.30248 0.30678
 C695 C 0.81687 0.27666 0.30978
 C696 C 0.79812 0.26121 0.29213
 C697 C 0.77700 0.27148 0.27163
 C698 C 0.77563 0.29734 0.26821
 C699 C 0.83338 0.31868 0.32532
 C700 C 0.84826 0.33293 0.34053
 C701 C 0.86504 0.35034 0.35792
 C702 C 0.87889 0.36575 0.37237
 C703 C 0.89494 0.38475 0.38910
 C704 C 0.88256 0.39442 0.41626
 C705 C 0.89724 0.41389 0.43154
 C706 C 0.92444 0.42397 0.41975
 C707 C 0.93700 0.41387 0.39275
 C708 C 0.92230 0.39440 0.37752
 H709 H 0.79276 0.33268 0.28308
 H710 H 0.83277 0.26850 0.32584
 H711 H 0.79982 0.24127 0.29473
 H712 H 0.76017 0.30579 0.25205
 H713 H 0.86135 0.38714 0.42538
 H714 H 0.88707 0.42128 0.45230
 H715 H 0.95795 0.42123 0.38317
 H716 H 0.93204 0.38712 0.35648
 C717 C 0.31619 -0.22179 0.30699
 C718 C 0.31142 -0.19613 0.30632
 C719 C 0.28834 -0.18636 0.28789
 C720 C 0.26993 -0.20210 0.27039
 C721 C 0.27417 -0.22797 0.27121
 C722 C 0.29777 -0.23759 0.28948
 C723 C 0.33005 -0.17965 0.32442
 C724 C 0.34514 -0.16532 0.33933
 C725 C 0.36228 -0.14797 0.35651
 C726 C 0.37648 -0.13273 0.37091
 C727 C 0.39294 -0.11402 0.38780
 C728 C 0.42033 -0.10444 0.37617
 C729 C 0.43550 -0.08538 0.39175
 C730 C 0.42340 -0.07562 0.41915
 C731 C 0.39614 -0.08561 0.43094
 C732 C 0.38100 -0.10467 0.41533
 H733 H 0.33413 -0.22958 0.32101
 H734 H 0.28455 -0.16651 0.28703
 H735 H 0.25252 -0.19373 0.25634
 H736 H 0.30208 -0.25737 0.29016
 H737 H 0.42975 -0.11148 0.35486
 H738 H 0.45647 -0.07807 0.38215
 H739 H 0.38631 -0.07849 0.45201
 H740 H 0.35979 -0.11189 0.42452
 C741 C 0.27526 0.30408 -0.18866
 C742 C 0.30712 0.30331 -0.19001
 C743 C 0.32159 0.28624 -0.20939
 C744 C 0.30427 0.26999 -0.22735
 C745 C 0.27234 0.27061 -0.22592
 C746 C 0.25795 0.28785 -0.20663
 C747 C 0.32491 0.32043 -0.17204
 C748 C 0.33966 0.33499 -0.15719
 C749 C 0.35671 0.35234 -0.14005
 C750 C 0.37107 0.36746 -0.12564
 C751 C 0.38789 0.38588 -0.10875
 C752 C 0.37638 0.39509 -0.08099
 C753 C 0.39200 0.41382 -0.06528
 C754 C 0.41931 0.42358 -0.07722
 C755 C 0.43098 0.41395 -0.10487
 C756 C 0.41533 0.39523 -0.12054
 H757 H 0.26382 0.31732 -0.17391
 H758 H 0.34622 0.28562 -0.21079
 H759 H 0.31593 0.25724 -0.24250
 H760 H 0.23333 0.28879 -0.20554
 H761 H 0.35514 0.38802 -0.07168
 H762 H 0.38250 0.42087 -0.04402
 H763 H 0.45199 0.42111 -0.11458
 H764 H 0.42442 0.38825 -0.14203
 C765 C 1.21441 -0.21142 0.17620
 C766 C 1.18954 -0.19919 0.18949
 C767 C 1.18290 -0.20274 0.22066
 C768 C 1.20126 -0.21814 0.23856
 C769 C 1.22652 -0.23023 0.22548
 C770 C 1.23283 -0.22687 0.19406
 C771 C 1.17157 -0.18221 0.17155
 C772 C 1.15679 -0.16756 0.15691
 C773 C 1.13979 -0.14995 0.14014
 C774 C 1.12556 -0.13456 0.12612
 C775 C 1.10894 -0.11574 0.10972
 C776 C 1.08172 -0.10635 0.12185
 C777 C 1.06629 -0.08729 0.10664
 C778 C 1.07796 -0.07737 0.07913
 C779 C 1.10507 -0.08715 0.06687
 C780 C 1.12046 -0.10620 0.08211
 H781 H 1.21986 -0.20872 0.15213
 H782 H 1.16381 -0.19328 0.23125
 H783 H 1.19602 -0.22023 0.26276
 H784 H 1.25226 -0.23567 0.18331
 H785 H 1.07261 -0.11355 0.14323
 H786 H 1.04545 -0.08014 0.11660
 H787 H 1.11458 -0.07989 0.04570
 H788 H 1.14153 -0.11329 0.07253
 C789 C 1.22262 0.30472 0.68873
 C790 C 1.19076 0.30399 0.69005
 C791 C 1.17612 0.28675 0.70914
 C792 C 1.19328 0.27030 0.72686
 C793 C 1.22521 0.27088 0.72546
 C794 C 1.23977 0.28829 0.70645
 C795 C 1.17314 0.32131 0.67233
 C796 C 1.15856 0.33604 0.65767
 C797 C 1.14172 0.35358 0.64073
 C798 C 1.12757 0.36885 0.62647
 C799 C 1.11102 0.38744 0.60972
 C800 C 1.08365 0.39680 0.62150
 C801 C 1.06825 0.41565 0.60593
 C802 C 1.08012 0.42540 0.57841
 C803 C 1.10738 0.41563 0.56649
 C804 C 1.12274 0.39678 0.58209
 H805 H 1.23420 0.31809 0.67419
 H806 H 1.15148 0.28616 0.71052
 H807 H 1.18150 0.25741 0.74180
 H808 H 1.26441 0.28920 0.70540
 H809 H 1.07439 0.38973 0.64289
 H810 H 1.04728 0.42281 0.61562
 H811 H 1.11703 0.42276 0.54532
 H812 H 1.14393 0.38969 0.57279
 C813 C 0.71929 -0.20248 0.68075
 C814 C 0.68828 -0.19928 0.68713
 C815 C 0.67482 -0.21226 0.71152
 C816 C 0.69234 -0.22820 0.72959
 C817 C 0.72349 -0.23145 0.72334
 C818 C 0.73681 -0.21842 0.69881
 C819 C 0.67064 -0.18189 0.66952
 C820 C 0.65614 -0.16695 0.65509
 C821 C 0.63949 -0.14902 0.63854
 C822 C 0.62557 -0.13337 0.62468
 C823 C 0.60936 -0.11426 0.60845
 C824 C 0.58218 -0.10475 0.62050
 C825 C 0.56715 -0.08540 0.60547
 C826 C 0.57921 -0.07532 0.57821
 C827 C 0.60628 -0.08522 0.56603
 C828 C 0.62126 -0.10456 0.58109
 H829 H 0.73004 -0.19236 0.66212
 H830 H 0.65091 -0.20972 0.71691
 H831 H 0.68158 -0.23740 0.74886
 H832 H 0.76082 -0.22013 0.69383
 H833 H 0.57279 -0.11208 0.64169
 H834 H 0.54632 -0.07816 0.61536
 H835 H 0.61606 -0.07784 0.54505
 H836 H 0.64231 -0.11175 0.57158
 C837 C 0.70815 0.28384 0.17464
 C838 C 0.68766 0.30003 0.18902
 C839 C 0.68570 0.30060 0.22111
 C840 C 0.70454 0.28542 0.23876
 C841 C 0.72572 0.26969 0.22450
 C842 C 0.72703 0.26862 0.19232
 C843 C 0.66944 0.31676 0.17105
 C844 C 0.65451 0.33132 0.15647
 C845 C 0.63745 0.34896 0.13989
 C846 C 0.62326 0.36449 0.12610
 C847 C 0.60684 0.38356 0.11003
 C848 C 0.57985 0.39313 0.12243
 C849 C 0.56478 0.41259 0.10767
 C850 C 0.57662 0.42274 0.08036
 C851 C 0.60347 0.41275 0.06779
 C852 C 0.61849 0.39329 0.08258
 H853 H 0.70978 0.28318 0.14981
 H854 H 0.66992 0.31302 0.23250
 H855 H 0.70299 0.28628 0.26358
 H856 H 0.74270 0.25630 0.18076
 H857 H 0.57067 0.38578 0.14371
 H858 H 0.54412 0.41990 0.11784
 H859 H 0.61308 0.42017 0.04676
 H860 H 0.63940 0.38607 0.07282
 C861 C 0.79304 0.18857 0.21158
 C862 C 0.81335 0.19864 0.19007
 C863 C 0.81551 0.22444 0.18670
 C864 C 0.79714 0.24005 0.20456
 C865 C 0.77627 0.22996 0.22566
 C866 C 0.77470 0.20413 0.22937
 C867 C 0.83162 0.18227 0.17149
 C868 C 0.84630 0.16783 0.15635
 C869 C 0.86286 0.15017 0.13914
 C870 C 0.87654 0.13454 0.12490
 C871 C 0.89241 0.11528 0.10847
 C872 C 0.88002 0.10536 0.08150
 C873 C 0.89450 0.08565 0.06653
 C874 C 0.92153 0.07560 0.07843
 C875 C 0.93409 0.08593 0.10524
 C876 C 0.91958 0.10563 0.12016
 H877 H 0.79134 0.16866 0.21457
 H878 H 0.83126 0.23246 0.17024
 H879 H 0.79900 0.25996 0.20173
 H880 H 0.75945 0.19581 0.24598
 H881 H 0.85895 0.11262 0.07229
 H882 H 0.88434 0.07809 0.04590
 H883 H 0.95491 0.07859 0.11490
 H884 H 0.92933 0.11310 0.14106
 C885 C 0.78666 0.68727 0.70715
 C886 C 0.81084 0.69745 0.69033
 C887 C 0.81639 0.72303 0.69158
 C888 C 0.79753 0.73836 0.70929
 C889 C 0.77278 0.72830 0.72564
 C890 C 0.76785 0.70255 0.72482
 C891 C 0.82982 0.68143 0.67199
 C892 C 0.84508 0.66736 0.65691
 C893 C 0.86230 0.65019 0.63959
 C894 C 0.87652 0.63501 0.62514
 C895 C 0.89299 0.61629 0.60833
 C896 C 0.88115 0.60677 0.58090
 C897 C 0.89621 0.58758 0.56551
 C898 C 0.92329 0.57762 0.57744
 C899 C 0.93531 0.58757 0.60472
 C900 C 0.92022 0.60676 0.62007
 H901 H 0.78232 0.66747 0.70662
 H902 H 0.83529 0.73110 0.67897
 H903 H 0.80257 0.75800 0.71048
 H904 H 0.74961 0.69402 0.73772
 H905 H 0.86005 0.61395 0.57165
 H906 H 0.88645 0.58030 0.54452
 H907 H 0.95614 0.58029 0.61442
 H908 H 0.92955 0.61392 0.64133
 C909 C 0.28940 0.21370 0.67598
 C910 C 0.30830 0.19645 0.69054
 C911 C 0.30936 0.19554 0.72266
 C912 C 0.29160 0.21178 0.74015
 C913 C 0.27279 0.22920 0.72567
 C914 C 0.27163 0.22997 0.69348
 C915 C 0.32613 0.17935 0.67260
 C916 C 0.34091 0.16478 0.65780
 C917 C 0.35802 0.14741 0.64074
 C918 C 0.37244 0.13228 0.62644
 C919 C 0.38937 0.11384 0.60971
 C920 C 0.41672 0.10468 0.62159
 C921 C 0.43249 0.08595 0.60606
 C922 C 0.42102 0.07613 0.57848
 C923 C 0.39378 0.08570 0.56645
 C924 C 0.37804 0.10443 0.58201
 H925 H 0.28822 0.21444 0.65114
 H926 H 0.32375 0.18217 0.73418
 H927 H 0.29248 0.21072 0.76498
 H928 H 0.25686 0.24286 0.68176
 H929 H 0.42567 0.11180 0.64303
 H930 H 0.45343 0.07895 0.61584
 H931 H 0.38443 0.07851 0.54524
 H932 H 0.35687 0.11137 0.57264
 C933 C 0.27834 0.69556 0.19313
 C934 C 0.30955 0.70003 0.18954
 C935 C 0.32271 0.72094 0.20327
 C936 C 0.30486 0.73701 0.22102
 C937 C 0.27363 0.73218 0.22561
 C938 C 0.26049 0.71157 0.21084
 C939 C 0.32794 0.68286 0.17219
 C940 C 0.34284 0.66798 0.15793
 C941 C 0.35976 0.65003 0.14151
 C942 C 0.37378 0.63431 0.12772
 C943 C 0.39002 0.61510 0.11153
 C944 C 0.41709 0.60550 0.12357
 C945 C 0.43210 0.58607 0.10858
 C946 C 0.42017 0.57594 0.08137
 C947 C 0.39321 0.58591 0.06918
 C948 C 0.37823 0.60535 0.08420
 H949 H 0.26781 0.67957 0.18238
 H950 H 0.34680 0.72476 0.20037
 H951 H 0.31568 0.75318 0.23089
 H952 H 0.23648 0.70754 0.21294
 H953 H 0.42640 0.61286 0.14474
 H954 H 0.45285 0.57878 0.11848
 H955 H 0.38350 0.57851 0.04824
 H956 H 0.35727 0.61257 0.07469
   
