data_POSCAR
  _audit_creation_date              2014-09-24
  _audit_creation_method            'ToBaCCo'
  _symmetry_space_group_name_H-M    'P1'
  _symmetry_Int_Tables_number       1
  _symmetry_cell_setting            triclinic
  loop_
  _symmetry_equiv_pos_as_xyz
 x,y,z
_cell_length_a 39.3570
_cell_length_b 39.0976
_cell_length_c 39.3601
_cell_angle_alpha 89.295400
_cell_angle_beta 91.711100
_cell_angle_gamma 88.542100
loop_
  _atom_site_label
  _atom_site_type_symbol
  _atom_site_fract_x
  _atom_site_fract_y
  _atom_site_fract_z
N1 N 0.30263 0.22834 0.19628
 N2 N 0.28929 0.25656 0.18243
 C3 C 0.30958 0.26764 0.15792
 C4 C 0.33735 0.24534 0.15656
 C5 C 0.33182 0.22032 0.18084
 H6 H 0.30461 0.29032 0.14235
 H7 H 0.34817 0.19840 0.18730
 Cu8 Cu 0.24695 0.27665 0.19806
 Cu9 Cu 0.28105 0.20542 0.23409
 Cu10 Cu 0.23509 0.26385 0.28124
 N11 N 0.21344 0.30333 0.22216
 N12 N 0.21028 0.29973 0.25512
 C13 C 0.18758 0.32330 0.26576
 C14 C 0.17574 0.34272 0.23789
 C15 C 0.19226 0.32864 0.21051
 H16 H 0.18005 0.32593 0.29182
 H17 H 0.18902 0.33603 0.18403
 N18 N 0.25064 0.21834 0.29907
 N19 N 0.26703 0.19563 0.28066
 C20 C 0.27114 0.16622 0.29862
 C21 C 0.25607 0.17039 0.32965
 C22 C 0.24385 0.20393 0.32929
 H23 H 0.28336 0.14316 0.28947
 H24 H 0.23014 0.21655 0.34919
 H25 H 0.23430 0.23266 0.23991
 H26 H 0.27544 0.25373 0.24971
 N27 N 0.68633 -0.23605 0.21693
 N28 N 0.69294 -0.26832 0.21032
 C29 C 0.67175 -0.27835 0.18510
 C30 C 0.65003 -0.25100 0.17551
 C31 C 0.66097 -0.22434 0.19591
 H32 H 0.67174 -0.30398 0.17510
 H33 H 0.65215 -0.19795 0.19494
 Cu34 Cu 0.72937 -0.29389 0.23436
 Cu35 Cu 0.70858 -0.21261 0.25462
 Cu36 Cu 0.77324 -0.25799 0.29827
 N37 N 0.77446 -0.31104 0.24876
 N38 N 0.79159 -0.29678 0.27370
 C39 C 0.82162 -0.31353 0.27858
 C40 C 0.82411 -0.33941 0.25478
 C41 C 0.79312 -0.33732 0.23676
 H42 H 0.84063 -0.30662 0.29751
 H43 H 0.78397 -0.35449 0.21740
 N44 N 0.75802 -0.21178 0.31106
 N45 N 0.73384 -0.19413 0.29414
 C46 C 0.72871 -0.16402 0.30974
 C47 C 0.75117 -0.16247 0.33733
 C48 C 0.76915 -0.19329 0.33758
 H49 H 0.70962 -0.14484 0.30211
 H50 H 0.78832 -0.20190 0.35623
 H51 H 0.75394 -0.24039 0.25232
 H52 H 0.72179 -0.25539 0.28264
 N53 N 0.70573 0.23251 0.79808
 N54 N 0.71815 0.26126 0.80936
 C55 C 0.69884 0.27299 0.83456
 C56 C 0.67261 0.25064 0.83889
 C57 C 0.67802 0.22499 0.81566
 H58 H 0.70366 0.29585 0.84894
 H59 H 0.66283 0.20262 0.81184
 Cu60 Cu 0.75815 0.28094 0.79016
 Cu61 Cu 0.72642 0.20712 0.76152
 Cu62 Cu 0.80332 0.23614 0.73376
 N63 N 0.80390 0.29326 0.77883
 N64 N 0.82127 0.27610 0.75642
 C65 C 0.85119 0.29121 0.75216
 C66 C 0.85313 0.31913 0.77360
 C67 C 0.82224 0.31973 0.78979
 H68 H 0.87022 0.28236 0.73484
 H69 H 0.81276 0.33919 0.80660
 N70 N 0.78080 0.19617 0.71421
 N71 N 0.75144 0.18515 0.72477
 C72 C 0.74238 0.15801 0.70616
 C73 C 0.76744 0.15138 0.68315
 C74 C 0.79121 0.17628 0.68865
 H75 H 0.71918 0.14413 0.70887
 H76 H 0.81401 0.17995 0.67452
 H77 H 0.77471 0.22305 0.77491
 H78 H 0.75199 0.24670 0.73899
 N79 N 0.28178 -0.22777 0.79627
 N80 N 0.26831 -0.25487 0.80999
 C81 C 0.28826 -0.26585 0.83654
 C82 C 0.31548 -0.24417 0.83982
 C83 C 0.31081 -0.22073 0.81333
 H84 H 0.28310 -0.28757 0.85271
 H85 H 0.32713 -0.19988 0.80702
 Cu86 Cu 0.22534 -0.27215 0.79223
 Cu87 Cu 0.25893 -0.20191 0.75933
 Cu88 Cu 0.20519 -0.25173 0.71078
 N89 N 0.18625 -0.29160 0.76868
 N90 N 0.17914 -0.28426 0.73657
 C91 C 0.15240 -0.30248 0.72598
 C92 C 0.14109 -0.32168 0.75322
 C93 C 0.16390 -0.31439 0.77976
 H94 H 0.14322 -0.30280 0.69983
 H95 H 0.16414 -0.32462 0.80540
 N96 N 0.22262 -0.20768 0.69462
 N97 N 0.24192 -0.18809 0.71377
 C98 C 0.24723 -0.15865 0.69698
 C99 C 0.23001 -0.15943 0.66589
 C100 C 0.21515 -0.19116 0.66499
 H101 H 0.26224 -0.13796 0.70677
 H102 H 0.19968 -0.20129 0.64448
 H103 H 0.21079 -0.22414 0.75402
 H104 H 0.24964 -0.24841 0.74088
 N105 N 0.68832 -0.23987 0.79930
 N106 N 0.69189 -0.27290 0.80542
 C107 C 0.66928 -0.28216 0.82859
 C108 C 0.65047 -0.25334 0.83760
 C109 C 0.66411 -0.22680 0.81915
 H110 H 0.66663 -0.30796 0.83818
 H111 H 0.65710 -0.19991 0.81999
 Cu112 Cu 0.72704 -0.30006 0.78376
 Cu113 Cu 0.71381 -0.21680 0.76441
 Cu114 Cu 0.75585 -0.27137 0.71010
 N115 N 0.76618 -0.32192 0.76299
 N116 N 0.77685 -0.31070 0.73372
 C117 C 0.80324 -0.33034 0.72415
 C118 C 0.80952 -0.35585 0.74854
 C119 C 0.78576 -0.34909 0.77328
 H120 H 0.81780 -0.32510 0.70189
 H121 H 0.78239 -0.36332 0.79662
 N122 N 0.74409 -0.22377 0.69816
 N123 N 0.72875 -0.20259 0.71898
 C124 C 0.72378 -0.17206 0.70311
 C125 C 0.73674 -0.17442 0.67091
 C126 C 0.74975 -0.20734 0.66876
 H127 H 0.71127 -0.14996 0.71391
 H128 H 0.76205 -0.21859 0.64721
 H129 H 0.71144 -0.26044 0.73726
 H130 H 0.75403 -0.25152 0.75694
 N131 N 0.32138 0.25353 0.77558
 N132 N 0.30566 0.27909 0.79043
 C133 C 0.32279 0.28675 0.81928
 C134 C 0.35101 0.26509 0.82244
 C135 C 0.34922 0.24409 0.79446
 H136 H 0.31511 0.30625 0.83696
 H137 H 0.36671 0.22341 0.78840
 Cu138 Cu 0.26411 0.29961 0.77091
 Cu139 Cu 0.30394 0.23481 0.73298
 Cu140 Cu 0.21724 0.25051 0.71992
 N141 N 0.22226 0.31707 0.74925
 N142 N 0.20318 0.29742 0.73018
 C143 C 0.17416 0.31465 0.72129
 C144 C 0.17557 0.34715 0.73489
 C145 C 0.20633 0.34758 0.75276
 H146 H 0.15318 0.30392 0.70699
 H147 H 0.21583 0.36823 0.76809
 N148 N 0.24223 0.21246 0.69852
 N149 N 0.27554 0.20813 0.70168
 C150 C 0.28544 0.18210 0.68197
 C151 C 0.25689 0.16863 0.66628
 C152 C 0.22999 0.18893 0.67700
 H153 H 0.31160 0.17381 0.67904
 H154 H 0.20352 0.18707 0.66923
 H155 H 0.26441 0.26917 0.71721
 H156 H 0.25805 0.24002 0.75424
 N157 N 0.30083 -0.24053 0.21480
 N158 N 0.28643 -0.26778 0.20229
 C159 C 0.30200 -0.27676 0.17360
 C160 C 0.32737 -0.25370 0.16773
 C161 C 0.32634 -0.23154 0.19485
 H162 H 0.29524 -0.29828 0.15801
 H163 H 0.34293 -0.21041 0.19969
 Cu164 Cu 0.24911 -0.28911 0.22490
 Cu165 Cu 0.28426 -0.21752 0.25475
 Cu166 Cu 0.21048 -0.24802 0.28848
 N167 N 0.20512 -0.30262 0.24062
 N168 N 0.18981 -0.28633 0.26510
 C169 C 0.15985 -0.30100 0.27061
 C170 C 0.15602 -0.32766 0.24809
 C171 C 0.18555 -0.32828 0.22986
 H172 H 0.14218 -0.29305 0.28968
 H173 H 0.19249 -0.34641 0.21057
 N174 N 0.23551 -0.20956 0.30827
 N175 N 0.26337 -0.19775 0.29503
 C176 C 0.27405 -0.17109 0.31342
 C177 C 0.25242 -0.16638 0.34006
 C178 C 0.22796 -0.19089 0.33572
 H179 H 0.29572 -0.15584 0.30764
 H180 H 0.20628 -0.19471 0.35144
 H181 H 0.26060 -0.25835 0.27742
 H182 H 0.23471 -0.23237 0.24536
 N183 N 0.70417 0.23530 0.21569
 N184 N 0.72255 0.25651 0.19824
 C185 C 0.70491 0.26646 0.16981
 C186 C 0.67385 0.25065 0.16970
 C187 C 0.67440 0.23079 0.19892
 H188 H 0.71399 0.28367 0.15057
 H189 H 0.65442 0.21456 0.20743
 Cu190 Cu 0.76780 0.26902 0.21405
 Cu191 Cu 0.71961 0.21577 0.25915
 Cu192 Cu 0.79231 0.24923 0.29499
 N193 N 0.80592 0.29091 0.23667
 N194 N 0.81385 0.28472 0.26885
 C195 C 0.83962 0.30467 0.27852
 C196 C 0.84933 0.32362 0.25061
 C197 C 0.82690 0.31455 0.22460
 H198 H 0.85021 0.30558 0.30415
 H199 H 0.82574 0.32466 0.19888
 N200 N 0.76704 0.21267 0.31696
 N201 N 0.73942 0.19970 0.30301
 C202 C 0.72877 0.17427 0.32308
 C203 C 0.75061 0.17129 0.35112
 C204 C 0.77484 0.19568 0.34625
 H205 H 0.70731 0.15837 0.31735
 H206 H 0.79684 0.20017 0.36256
 H207 H 0.74609 0.25957 0.27026
 H208 H 0.77171 0.22187 0.25510
 C209 C 0.26892 0.10905 0.51608
 C210 C 0.26932 0.10919 0.48119
 C211 C 0.25858 0.07736 0.47094
 N212 N 0.25097 0.05810 0.49827
 C213 C 0.25734 0.07734 0.52592
 C214 C 0.25398 0.06736 0.43679
 C215 C 0.24843 0.03323 0.42675
 C216 C 0.24020 0.02349 0.39380
 C217 C 0.23925 -0.01166 0.39403
 C218 C 0.24650 -0.02248 0.42720
 N219 N 0.25249 0.00500 0.44685
 C220 C 0.24925 -0.05710 0.43804
 C221 C 0.24917 -0.06774 0.47249
 C222 C 0.25309 -0.10140 0.48382
 C223 C 0.24965 -0.10105 0.51837
 C224 C 0.24378 -0.06722 0.52700
 N225 N 0.24310 -0.04698 0.49891
 C226 C 0.23723 -0.05586 0.56009
 C227 C 0.23408 -0.02100 0.56876
 C228 C 0.22164 -0.00919 0.59917
 C229 C 0.22523 0.02569 0.59897
 C230 C 0.23989 0.03423 0.56849
 N231 N 0.24521 0.00563 0.55025
 C232 C 0.25076 0.06733 0.55970
 H233 H 0.27588 0.13008 0.53226
 H234 H 0.27670 0.13029 0.46519
 H235 H 0.25977 0.00388 0.52874
 H236 H 0.23588 0.03995 0.37170
 H237 H 0.23392 -0.02740 0.37219
 H238 H 0.25752 -0.12396 0.46877
 H239 H 0.25098 -0.12321 0.53515
 H240 H 0.21846 0.04276 0.61927
 H241 H 0.26243 0.00425 0.47155
 H242 H 0.21152 -0.02421 0.61963
 C243 C 0.77065 0.10156 0.49695
 C244 C 0.77225 0.09937 0.53177
 C245 C 0.76344 0.06634 0.54034
 N246 N 0.75655 0.04835 0.51200
 C247 C 0.76123 0.06970 0.48544
 C248 C 0.75985 0.05406 0.57386
 C249 C 0.75177 0.01999 0.58205
 C250 C 0.74124 0.00916 0.61361
 C251 C 0.73738 -0.02558 0.61179
 C252 C 0.74574 -0.03512 0.57916
 N253 N 0.75482 -0.00719 0.56133
 C254 C 0.74673 -0.06925 0.56759
 C255 C 0.75093 -0.07848 0.53333
 C256 C 0.75554 -0.11171 0.52213
 C257 C 0.75716 -0.10979 0.48737
 C258 C 0.75316 -0.07549 0.47846
 N259 N 0.74909 -0.05648 0.50656
 C260 C 0.75140 -0.06261 0.44473
 C261 C 0.74796 -0.02743 0.43624
 C262 C 0.73857 -0.01463 0.40423
 C263 C 0.73929 0.02045 0.40610
 C264 C 0.74944 0.02813 0.43913
 N265 N 0.75495 -0.00123 0.45723
 C266 C 0.75500 0.06160 0.45101
 H267 H 0.77564 0.12410 0.48184
 H268 H 0.77863 0.11990 0.54883
 H269 H 0.76643 -0.00344 0.48122
 H270 H 0.73695 0.02466 0.63575
 H271 H 0.72968 -0.04197 0.63239
 H272 H 0.75738 -0.13495 0.53737
 H273 H 0.76041 -0.13126 0.47056
 H274 H 0.73340 0.03824 0.38535
 H275 H 0.76613 -0.00722 0.53789
 H276 H 0.73188 -0.02904 0.38181
 C277 C 0.52424 0.23766 0.10647
 C278 C 0.48940 0.23669 0.10504
 C279 C 0.47936 0.24328 0.07149
 N280 N 0.50685 0.24838 0.05247
 C281 C 0.53434 0.24468 0.07373
 C282 C 0.44521 0.24722 0.05963
 C283 C 0.43548 0.25239 0.02503
 C284 C 0.40340 0.26360 0.01354
 C285 C 0.40397 0.26477 -0.02138
 C286 C 0.43635 0.25413 -0.03029
 N287 N 0.45525 0.24622 -0.00186
 C288 C 0.44709 0.25089 -0.06409
 C289 C 0.48124 0.24554 -0.07302
 C290 C 0.49177 0.23922 -0.10571
 C291 C 0.52661 0.23878 -0.10427
 C292 C 0.53617 0.24501 -0.07078
 N293 N 0.50841 0.24926 -0.05178
 C294 C 0.56994 0.24966 -0.05905
 C295 C 0.57940 0.25423 -0.02454
 C296 C 0.61095 0.26512 -0.01318
 C297 C 0.61045 0.26527 0.02171
 C298 C 0.57857 0.25453 0.03073
 N299 N 0.55996 0.24747 0.00238
 C300 C 0.56827 0.24992 0.06456
 H301 H 0.54025 0.23410 0.12914
 H302 H 0.47328 0.23229 0.12637
 H303 H 0.53683 0.23533 0.00159
 H304 H 0.38183 0.27041 0.02874
 H305 H 0.38290 0.27256 -0.03827
 H306 H 0.47600 0.23590 -0.12837
 H307 H 0.54299 0.23510 -0.12559
 H308 H 0.63131 0.27237 0.03849
 H309 H 0.47908 0.23419 -0.00095
 H310 H 0.63218 0.27216 -0.02844
 C311 C 0.47391 0.72577 0.10721
 C312 C 0.50867 0.72759 0.10760
 C313 C 0.51745 0.73732 0.07507
 N314 N 0.48927 0.74106 0.05480
 C315 C 0.46266 0.73385 0.07434
 C316 C 0.55051 0.74620 0.06561
 C317 C 0.55920 0.75265 0.03154
 C318 C 0.58896 0.76766 0.02174
 C319 C 0.58843 0.76797 -0.01326
 C320 C 0.55835 0.75312 -0.02388
 N321 N 0.54079 0.74369 0.00359
 C322 C 0.54876 0.74701 -0.05820
 C323 C 0.51525 0.73874 -0.06868
 C324 C 0.50537 0.72938 -0.10134
 C325 C 0.47052 0.72830 -0.10210
 C326 C 0.46032 0.73620 -0.06971
 N327 N 0.48763 0.74276 -0.04941
 C328 C 0.42622 0.74039 -0.06016
 C329 C 0.41631 0.74301 -0.02600
 C330 C 0.38367 0.75165 -0.01614
 C331 C 0.38421 0.75084 0.01872
 C332 C 0.41718 0.74178 0.02935
 N333 N 0.43639 0.73633 0.00191
 C334 C 0.42822 0.73781 0.06374
 H335 H 0.45869 0.71974 0.12882
 H336 H 0.52544 0.72324 0.12960
 H337 H 0.46091 0.72587 0.00220
 H338 H 0.60904 0.77729 0.03810
 H339 H 0.60803 0.77791 -0.02907
 H340 H 0.52148 0.72483 -0.12271
 H341 H 0.45454 0.72267 -0.12407
 H342 H 0.36265 0.75628 0.03439
 H343 H 0.51939 0.72865 0.00328
 H344 H 0.36158 0.75778 -0.03232
 C345 C 0.10206 0.52439 0.26116
 C346 C 0.10483 0.48941 0.25901
 C347 C 0.07295 0.47822 0.24904
 N348 N 0.05083 0.50508 0.24537
 C349 C 0.06847 0.53328 0.25298
 C350 C 0.06530 0.44427 0.24027
 C351 C 0.03159 0.43362 0.23442
 C352 C 0.02271 0.40315 0.21928
 C353 C -0.01201 0.40093 0.22137
 C354 C -0.02335 0.43012 0.23770
 N355 N 0.00335 0.44996 0.24544
 C356 C -0.05700 0.43611 0.24827
 C357 C -0.06974 0.46923 0.25571
 C358 C -0.10182 0.47684 0.26766
 C359 C -0.10504 0.51191 0.26828
 C360 C -0.07459 0.52446 0.25733
 N361 N -0.05321 0.49840 0.24941
 C362 C -0.06778 0.55937 0.25238
 C363 C -0.03492 0.57161 0.24656
 C364 C -0.02810 0.60474 0.23630
 C365 C 0.00669 0.60700 0.23569
 C366 C 0.02019 0.57514 0.24544
 N367 N -0.00534 0.55384 0.25237
 C368 C 0.05530 0.56706 0.24949
 H369 H 0.12253 0.54135 0.26755
 H370 H 0.12786 0.47410 0.26343
 H371 H -0.00262 0.52983 0.26387
 H372 H 0.03958 0.38417 0.20849
 H373 H -0.02710 0.37984 0.21261
 H374 H -0.12113 0.45906 0.27464
 H375 H -0.12724 0.52652 0.27582
 H376 H 0.02044 0.62964 0.22907
 H377 H 0.00284 0.47090 0.26148
 H378 H -0.04628 0.62533 0.23028
 C379 C 0.09846 0.49531 0.72992
 C380 C 0.09354 0.53016 0.73131
 C381 C 0.06144 0.53586 0.74401
 N382 N 0.04676 0.50574 0.75066
 C383 C 0.06921 0.48094 0.74185
 C384 C 0.04701 0.56840 0.75102
 C385 C 0.01253 0.57363 0.75953
 C386 C -0.00133 0.60419 0.77107
 C387 C -0.03586 0.59998 0.77278
 C388 C -0.04205 0.56677 0.76290
 N389 N -0.01252 0.55099 0.75466
 C390 C -0.07461 0.55272 0.75919
 C391 C -0.08020 0.51724 0.75775
 C392 C -0.11175 0.50271 0.75307
 C393 C -0.10638 0.46793 0.75496
 C394 C -0.07173 0.46244 0.76049
 N395 N -0.05585 0.49258 0.76262
 C396 C -0.05561 0.43001 0.76516
 C397 C -0.01997 0.42461 0.76556
 C398 C -0.00337 0.39401 0.77471
 C399 C 0.03058 0.39827 0.76915
 C400 C 0.03383 0.43147 0.75709
 N401 N 0.00289 0.44724 0.75470
 C402 C 0.06456 0.44554 0.74658
 H403 H 0.12112 0.48208 0.72147
 H404 H 0.11158 0.54912 0.72395
 H405 H -0.00265 0.47047 0.74249
 H406 H 0.01190 0.62745 0.77678
 H407 H -0.05432 0.61925 0.78022
 H408 H -0.13614 0.51578 0.74911
 H409 H -0.12575 0.44887 0.75258
 H410 H 0.05053 0.37898 0.77329
 H411 H -0.01041 0.52784 0.74217
 H412 H -0.01462 0.37081 0.78390
 C413 C 0.38497 0.27738 0.12873
 C414 C 0.36618 0.24719 0.13332
 C415 C 0.37439 0.21802 0.11461
 C416 C 0.39990 0.21857 0.09085
 C417 C 0.41812 0.24826 0.08522
 C418 C 0.41083 0.27800 0.10413
 C419 C 0.37938 0.30672 0.14861
 C420 C 0.39778 0.33626 0.14340
 C421 C 0.42224 0.33714 0.11862
 C422 C 0.42887 0.30832 0.09917
 H423 H 0.36130 0.30706 0.16872
 H424 H 0.39312 0.35856 0.15878
 H425 H 0.43637 0.36017 0.11467
 H426 H 0.44830 0.30996 0.08039
 H427 H 0.36042 0.19475 0.11792
 H428 H 0.40544 0.19567 0.07660
 C429 C 0.59575 0.77326 0.14835
 C430 C 0.62401 0.74941 0.14967
 C431 C 0.62667 0.72557 0.12321
 C432 C 0.60345 0.72571 0.09585
 C433 C 0.57696 0.75009 0.09322
 C434 C 0.57372 0.77499 0.11884
 C435 C 0.58678 0.79349 0.17645
 C436 C 0.56048 0.81803 0.17373
 C437 C 0.54172 0.82229 0.14343
 C438 C 0.54790 0.80073 0.11631
 H439 H 0.59854 0.78953 0.20131
 H440 H 0.55437 0.83357 0.19540
 H441 H 0.52150 0.84156 0.14135
 H442 H 0.53195 0.80399 0.09356
 H443 H 0.64740 0.70687 0.12294
 H444 H 0.60606 0.70638 0.07654
 C445 C 0.62550 0.28220 -0.13030
 C446 C 0.64581 0.25229 -0.13559
 C447 C 0.64080 0.22287 -0.11585
 C448 C 0.61662 0.22273 -0.09080
 C449 C 0.59664 0.25197 -0.08480
 C450 C 0.60105 0.28212 -0.10432
 C451 C 0.62801 0.31184 -0.15088
 C452 C 0.60803 0.34102 -0.14503
 C453 C 0.58496 0.34122 -0.11893
 C454 C 0.58130 0.31207 -0.09878
 H455 H 0.64486 0.31269 -0.17201
 H456 H 0.61035 0.36356 -0.16096
 H457 H 0.56956 0.36397 -0.11449
 H458 H 0.56285 0.31316 -0.07895
 H459 H 0.65600 0.19982 -0.11966
 H460 H 0.61324 0.19953 -0.07608
 C461 C 0.35756 0.78305 -0.11847
 C462 C 0.34376 0.75372 -0.13429
 C463 C 0.35760 0.72122 -0.12566
 C464 C 0.38477 0.71732 -0.10230
 C465 C 0.39948 0.74587 -0.08739
 C466 C 0.38646 0.77908 -0.09594
 C467 C 0.34257 0.81608 -0.12317
 C468 C 0.35716 0.84459 -0.10827
 C469 C 0.38656 0.84084 -0.08795
 C470 C 0.40102 0.80843 -0.08155
 H471 H 0.31899 0.82031 -0.13746
 H472 H 0.34545 0.86971 -0.11235
 H473 H 0.39784 0.86308 -0.07655
 H474 H 0.42349 0.80654 -0.06503
 H475 H 0.34733 0.69853 -0.13720
 H476 H 0.39433 0.69182 -0.09563
 C477 C 0.14869 0.39917 0.21496
 C478 C 0.14898 0.37039 0.23753
 C479 C 0.12217 0.36700 0.25995
 C480 C 0.09540 0.39091 0.26017
 C481 C 0.09380 0.41859 0.23727
 C482 C 0.12000 0.42229 0.21362
 C483 C 0.17657 0.40639 0.19449
 C484 C 0.17486 0.43346 0.17104
 C485 C 0.14566 0.45416 0.16778
 C486 C 0.11848 0.44883 0.18892
 H487 H 0.20030 0.39204 0.19693
 H488 H 0.19635 0.43842 0.15533
 H489 H 0.14432 0.47488 0.14926
 H490 H 0.09641 0.46578 0.18588
 H491 H 0.12169 0.34542 0.27743
 H492 H 0.07560 0.38774 0.27842
 C493 C 0.08672 0.65464 0.72931
 C494 C 0.11472 0.65418 0.75338
 C495 C 0.11722 0.62716 0.77741
 C496 C 0.09504 0.60007 0.77621
 C497 C 0.06966 0.59843 0.75076
 C498 C 0.06544 0.62565 0.72682
 C499 C 0.07766 0.68388 0.70920
 C500 C 0.05162 0.68297 0.68443
 C501 C 0.03340 0.65333 0.67971
 C502 C 0.03992 0.62497 0.70087
 H503 H 0.08936 0.70820 0.71331
 H504 H 0.04538 0.70550 0.66901
 H505 H 0.01342 0.65266 0.66024
 H506 H 0.02447 0.60276 0.69705
 H507 H 0.13751 0.62572 0.79656
 H508 H 0.09819 0.57964 0.79499
 C509 C -0.14079 0.61961 0.22074
 C510 C -0.14865 0.63649 0.25170
 C511 C -0.12864 0.62816 0.28110
 C512 C -0.10324 0.60281 0.28093
 C513 C -0.09678 0.58456 0.25151
 C514 C -0.11561 0.59260 0.22115
 C515 C -0.15493 0.63057 0.18883
 C516 C -0.14753 0.61313 0.15915
 C517 C -0.12503 0.58514 0.16023
 C518 C -0.10876 0.57520 0.19079
 H519 H -0.17044 0.65360 0.18592
 H520 H -0.15892 0.62175 0.13507
 H521 H -0.11935 0.57174 0.13709
 H522 H -0.09042 0.55412 0.19030
 H523 H -0.13335 0.64037 0.30509
 H524 H -0.08851 0.59719 0.30412
 C525 C -0.11472 0.36456 0.80403
 C526 C -0.12127 0.34386 0.77501
 C527 C -0.10277 0.34981 0.74553
 C528 C -0.08141 0.37743 0.74310
 C529 C -0.07735 0.39993 0.77009
 C530 C -0.09339 0.39335 0.80110
 C531 C -0.12675 0.35613 0.83653
 C532 C -0.12066 0.37713 0.86432
 C533 C -0.10168 0.40639 0.86073
 C534 C -0.08775 0.41430 0.82958
 H535 H -0.13966 0.33261 0.84129
 H536 H -0.13031 0.37037 0.88891
 H537 H -0.09696 0.42253 0.88242
 H538 H -0.07203 0.43655 0.82821
 H539 H -0.10636 0.33445 0.72308
 H540 H -0.06865 0.38194 0.71950
 C541 C 0.22266 0.13738 0.37338
 C542 C 0.25355 0.14422 0.35703
 C543 C 0.28318 0.12550 0.36683
 C544 C 0.28295 0.10101 0.39283
 C545 C 0.25310 0.09454 0.40993
 C546 C 0.22266 0.11274 0.40042
 C547 C 0.19146 0.15336 0.36274
 C548 C 0.16151 0.14651 0.37933
 C549 C 0.16183 0.12332 0.40642
 C550 C 0.19199 0.10636 0.41682
 H551 H 0.18957 0.17068 0.34117
 H552 H 0.13786 0.15910 0.37094
 H553 H 0.13848 0.11810 0.41915
 H554 H 0.19101 0.08807 0.43761
 H555 H 0.30687 0.13013 0.35444
 H556 H 0.30627 0.08697 0.39975
 C557 C 0.79530 0.10311 0.65024
 C558 C 0.76705 0.12531 0.65625
 C559 C 0.73747 0.12315 0.63574
 C560 C 0.73573 0.10020 0.60907
 C561 C 0.76347 0.07860 0.60219
 C562 C 0.79356 0.07983 0.62270
 C563 C 0.82489 0.10273 0.67147
 C564 C 0.85246 0.08093 0.66494
 C565 C 0.85106 0.05892 0.63745
 C566 C 0.82190 0.05819 0.61651
 H567 H 0.82689 0.11874 0.69358
 H568 H 0.87499 0.08101 0.68140
 H569 H 0.87257 0.04209 0.63250
 H570 H 0.82171 0.04050 0.59558
 H571 H 0.71565 0.13981 0.64008
 H572 H 0.71254 0.09922 0.59361
 C573 C 0.19939 -0.12139 0.62071
 C574 C 0.22945 -0.13243 0.63907
 C575 C 0.26038 -0.11727 0.63186
 C576 C 0.26224 -0.09244 0.60645
 C577 C 0.23329 -0.08206 0.58726
 C578 C 0.20154 -0.09644 0.59415
 C579 C 0.16706 -0.13353 0.62875
 C580 C 0.13801 -0.12274 0.61002
 C581 C 0.14041 -0.09935 0.58332
 C582 C 0.17180 -0.08607 0.57550
 H583 H 0.16364 -0.15081 0.64989
 H584 H 0.11345 -0.13243 0.61641
 H585 H 0.11776 -0.09110 0.56890
 H586 H 0.17253 -0.06747 0.55496
 H587 H 0.28353 -0.12513 0.64572
 H588 H 0.28660 -0.08143 0.60140
 C589 C 0.78386 -0.12100 0.37451
 C590 C 0.75280 -0.13548 0.36335
 C591 C 0.72239 -0.12495 0.37818
 C592 C 0.72239 -0.10140 0.40444
 C593 C 0.75276 -0.08747 0.41646
 C594 C 0.78381 -0.09700 0.40147
 C595 C 0.81487 -0.12912 0.35896
 C596 C 0.84516 -0.11481 0.37044
 C597 C 0.84516 -0.09201 0.39731
 C598 C 0.81483 -0.08301 0.41269
 H599 H 0.81604 -0.14607 0.33754
 H600 H 0.86874 -0.12135 0.35832
 H601 H 0.86876 -0.08101 0.40610
 H602 H 0.81587 -0.06494 0.43329
 H603 H 0.69847 -0.13569 0.36990
 H604 H 0.69852 -0.09410 0.41567
 C605 C 0.59476 0.77162 -0.13945
 C606 C 0.62323 0.74837 -0.13690
 C607 C 0.62648 0.72619 -0.10860
 C608 C 0.60254 0.72655 -0.08331
 C609 C 0.57505 0.74996 -0.08464
 C610 C 0.57181 0.77377 -0.11211
 C611 C 0.58755 0.79187 -0.16889
 C612 C 0.56087 0.81607 -0.16988
 C613 C 0.54049 0.82026 -0.14190
 C614 C 0.54568 0.79923 -0.11330
 H615 H 0.60151 0.78863 -0.19184
 H616 H 0.55595 0.83161 -0.19253
 H617 H 0.52008 0.83936 -0.14266
 H618 H 0.52891 0.80288 -0.09229
 H619 H 0.64783 0.70824 -0.10591
 H620 H 0.60540 0.70824 -0.06247
 C621 C 0.39380 0.29216 -0.13723
 C622 C 0.37617 0.26314 -0.14897
 C623 C 0.38191 0.23141 -0.13259
 C624 C 0.40421 0.22809 -0.10457
 C625 C 0.42156 0.25637 -0.09230
 C626 C 0.41646 0.28874 -0.10844
 C627 C 0.39033 0.32425 -0.15403
 C628 C 0.40787 0.35244 -0.14206
 C629 C 0.42938 0.34922 -0.11343
 C630 C 0.43383 0.31770 -0.09677
 H631 H 0.37459 0.32785 -0.17682
 H632 H 0.40487 0.37688 -0.15516
 H633 H 0.44291 0.37120 -0.10426
 H634 H 0.45101 0.31621 -0.07478
 H635 H 0.36867 0.20906 -0.14135
 H636 H 0.40831 0.20319 -0.09256
 C637 C 0.36288 0.77624 0.12360
 C638 C 0.35173 0.74590 0.13967
 C639 C 0.36510 0.71410 0.12968
 C640 C 0.38978 0.71191 0.10515
 C641 C 0.40241 0.74149 0.09037
 C642 C 0.38936 0.77401 0.09978
 C643 C 0.34764 0.80864 0.12962
 C644 C 0.35986 0.83818 0.11458
 C645 C 0.38708 0.83611 0.09291
 C646 C 0.40164 0.80437 0.08533
 H647 H 0.32563 0.81155 0.14514
 H648 H 0.34802 0.86282 0.11964
 H649 H 0.39656 0.85915 0.08143
 H650 H 0.42235 0.80383 0.06784
 H651 H 0.35679 0.69065 0.14139
 H652 H 0.39945 0.68695 0.09788
 C653 C 0.63049 0.28378 0.13219
 C654 C 0.64649 0.25249 0.14323
 C655 C 0.63589 0.22167 0.12915
 C656 C 0.61052 0.22138 0.10382
 C657 C 0.59468 0.25188 0.09216
 C658 C 0.60434 0.28342 0.10637
 C659 C 0.63915 0.31532 0.14678
 C660 C 0.62302 0.34577 0.13560
 C661 C 0.59784 0.34541 0.11001
 C662 C 0.58841 0.31457 0.09553
 H663 H 0.65807 0.31680 0.16714
 H664 H 0.62998 0.36977 0.14697
 H665 H 0.58540 0.36913 0.10149
 H666 H 0.56850 0.31532 0.07594
 H667 H 0.64776 0.19758 0.13752
 H668 H 0.60319 0.19716 0.09311
 C669 C -0.14880 0.60591 0.71955
 C670 C -0.16396 0.61900 0.74945
 C671 C -0.15059 0.60773 0.78137
 C672 C -0.12147 0.58679 0.78410
 C673 C -0.10457 0.57644 0.75513
 C674 C -0.11808 0.58586 0.72256
 C675 C -0.16459 0.60984 0.68690
 C676 C -0.14868 0.59798 0.65797
 C677 C -0.11726 0.58102 0.66088
 C678 C -0.10220 0.57454 0.69284
 H679 H -0.18996 0.62068 0.68333
 H680 H -0.16103 0.60160 0.63320
 H681 H -0.10498 0.57192 0.63834
 H682 H -0.07831 0.56017 0.69407
 H683 H -0.16160 0.61643 0.80471
 H684 H -0.11171 0.57891 0.80909
 C685 C -0.09372 0.34849 0.26968
 C686 C -0.12433 0.35026 0.24948
 C687 C -0.13109 0.37923 0.22874
 C688 C -0.10903 0.40646 0.22853
 C689 C -0.08009 0.40644 0.25011
 C690 C -0.07257 0.37754 0.27146
 C691 C -0.08292 0.31829 0.28739
 C692 C -0.05411 0.31781 0.30889
 C693 C -0.03526 0.34716 0.31293
 C694 C -0.04422 0.37676 0.29437
 H695 H -0.09587 0.29449 0.28413
 H696 H -0.04639 0.29454 0.32251
 H697 H -0.01319 0.34679 0.33003
 H698 H -0.02864 0.39888 0.29805
 H699 H -0.15400 0.38118 0.21284
 H700 H -0.11486 0.42809 0.21171
 C701 C 0.12760 0.38308 0.70610
 C702 C 0.14817 0.37383 0.73522
 C703 C 0.14204 0.38983 0.76624
 C704 C 0.11538 0.41348 0.76921
 C705 C 0.09380 0.42169 0.74134
 C706 C 0.09979 0.40676 0.70942
 C707 C 0.13444 0.37015 0.67359
 C708 C 0.11347 0.37905 0.64550
 C709 C 0.08564 0.40125 0.64907
 C710 C 0.07885 0.41518 0.68065
 H711 H 0.15630 0.35369 0.66930
 H712 H 0.11898 0.36882 0.62078
 H713 H 0.06946 0.40803 0.62716
 H714 H 0.05729 0.43277 0.68227
 H715 H 0.15748 0.38329 0.78875
 H716 H 0.11099 0.42491 0.79369
 C717 C 0.11462 0.63483 0.21531
 C718 C 0.12812 0.64753 0.24646
 C719 C 0.11593 0.63506 0.27724
 C720 C 0.09202 0.60944 0.27771
 C721 C 0.07983 0.59524 0.24745
 C722 C 0.09097 0.60784 0.21590
 C723 C 0.12326 0.64886 0.18356
 C724 C 0.11051 0.63534 0.15328
 C725 C 0.08864 0.60796 0.15393
 C726 C 0.07874 0.59436 0.18488
 H727 H 0.13923 0.67082 0.18169
 H728 H 0.11752 0.64628 0.12916
 H729 H 0.07890 0.59753 0.13034
 H730 H 0.06124 0.57345 0.18428
 H731 H 0.12573 0.64452 0.30126
 H732 H 0.08348 0.60004 0.30193
 C733 C 0.70728 -0.13198 0.62979
 C734 C 0.73732 -0.14764 0.64424
 C735 C 0.76906 -0.13836 0.63245
 C736 C 0.77157 -0.11317 0.60745
 C737 C 0.74236 -0.09699 0.59311
 C738 C 0.70987 -0.10646 0.60392
 C739 C 0.67469 -0.14163 0.63980
 C740 C 0.64545 -0.12602 0.62513
 C741 C 0.64805 -0.10082 0.60012
 C742 C 0.67989 -0.09111 0.58945
 H743 H 0.67142 -0.16146 0.65872
 H744 H 0.62064 -0.13364 0.63310
 H745 H 0.62525 -0.08886 0.58880
 H746 H 0.68083 -0.07165 0.56972
 H747 H 0.79216 -0.15038 0.64309
 H748 H 0.79650 -0.10606 0.59930
 C749 C 0.28406 -0.12896 0.38258
 C750 C 0.25343 -0.13912 0.36594
 C751 C 0.22272 -0.12225 0.37338
 C752 C 0.22190 -0.09538 0.39622
 C753 C 0.25185 -0.08411 0.41191
 C754 C 0.28330 -0.10058 0.40496
 C755 C 0.31523 -0.14703 0.37868
 C756 C 0.34508 -0.13614 0.39466
 C757 C 0.34451 -0.10744 0.41519
 C758 C 0.31393 -0.08986 0.42055
 H759 H 0.31688 -0.17016 0.36408
 H760 H 0.36877 -0.15018 0.39124
 H761 H 0.36778 -0.09907 0.42746
 H762 H 0.31447 -0.06801 0.43715
 H763 H 0.19908 -0.12971 0.36113
 H764 H 0.19769 -0.08323 0.40178
 C765 C 0.72090 0.13745 0.39652
 C766 C 0.75044 0.14482 0.37823
 C767 C 0.78049 0.12558 0.38484
 C768 C 0.78145 0.09866 0.40832
 C769 C 0.75245 0.09035 0.42600
 C770 C 0.72188 0.10974 0.42037
 C771 C 0.69063 0.15746 0.39235
 C772 C 0.66179 0.14958 0.41034
 C773 C 0.66255 0.12193 0.43298
 C774 C 0.69228 0.10219 0.43813
 H775 H 0.68904 0.17963 0.37566
 H776 H 0.63876 0.16510 0.40679
 H777 H 0.64007 0.11593 0.44684
 H778 H 0.69191 0.08110 0.45617
 H779 H 0.80325 0.13094 0.37111
 H780 H 0.80497 0.08405 0.41269
 C781 C 0.27736 0.11122 0.64279
 C782 C 0.25559 0.14084 0.64084
 C783 C 0.23272 0.14502 0.61298
 C784 C 0.23166 0.12122 0.58700
 C785 C 0.25414 0.09290 0.58739
 C786 C 0.27770 0.08801 0.61512
 C787 C 0.29803 0.10336 0.67196
 C788 C 0.32051 0.07520 0.67264
 C789 C 0.32261 0.05407 0.64459
 C790 C 0.30137 0.06021 0.61610
 H791 H 0.29650 0.11817 0.69485
 H792 H 0.33636 0.06972 0.69510
 H793 H 0.34037 0.03245 0.64512
 H794 H 0.30359 0.04293 0.59499
 H795 H 0.21571 0.16722 0.61099
 H796 H 0.21324 0.12503 0.56620
   
