data_POSCAR
  _audit_creation_date              2014-09-24
  _audit_creation_method            'ToBaCCo'
  _symmetry_space_group_name_H-M    'P1'
  _symmetry_Int_Tables_number       1
  _symmetry_cell_setting            triclinic
  loop_
  _symmetry_equiv_pos_as_xyz
 x,y,z
_cell_length_a 27.8357
_cell_length_b 30.0302
_cell_length_c 36.2714
_cell_angle_alpha 89.882700
_cell_angle_beta 89.696200
_cell_angle_gamma 53.233900
loop_
  _atom_site_label
  _atom_site_type_symbol
  _atom_site_fract_x
  _atom_site_fract_y
  _atom_site_fract_z
O1 O -0.12828 0.36148 0.03641
 O2 O -0.03547 0.36938 -0.03244
 O3 O -0.10663 0.34083 -0.03461
 O4 O -0.05355 0.38755 0.03840
 O5 O 0.01802 0.29936 0.05133
 O6 O -0.02801 0.25424 -0.02514
 O7 O 0.04173 0.28475 -0.01700
 O8 O -0.05412 0.27303 0.04518
 Cu9 Cu -0.08910 0.37385 0.00088
 Cu10 Cu 0.00114 0.26944 0.01451
 C11 C -0.10686 0.31554 0.05251
 C12 C 0.01967 0.32867 -0.03575
 C13 C -0.07517 0.28950 -0.04302
 C14 C -0.00819 0.35059 0.05712
 O15 O 0.49176 0.86243 0.45680
 O16 O 0.41912 0.83413 0.52952
 O17 O 0.50078 0.85030 0.52776
 O18 O 0.40587 0.84975 0.45743
 O19 O 0.47398 0.75944 0.45039
 O20 O 0.57011 0.76043 0.51847
 O21 O 0.48875 0.74422 0.52167
 O22 O 0.55866 0.77175 0.44906
 Cu23 Cu 0.44680 0.85847 0.49347
 Cu24 Cu 0.52884 0.75038 0.48403
 C25 C 0.53885 0.82111 0.44143
 C26 C 0.44293 0.78402 0.53870
 C27 C 0.55210 0.80547 0.53455
 C28 C 0.42394 0.80435 0.44175
 O29 O 1.05813 0.60110 -0.04977
 O30 O 1.13683 0.61532 0.02581
 O31 O 1.05618 0.59668 0.02364
 O32 O 1.14314 0.61195 -0.04556
 O33 O 1.07126 0.70206 -0.04665
 O34 O 0.98744 0.68791 0.02491
 O35 O 1.06490 0.70565 0.02722
 O36 O 0.98251 0.68968 -0.04290
 Cu37 Cu 1.10543 0.59691 -0.01136
 Cu38 Cu 1.02121 0.70536 -0.01060
 C39 C 1.00583 0.64319 -0.05861
 C40 C 1.11423 0.66321 0.03929
 C41 C 1.00739 0.63969 0.03618
 C42 C 1.12180 0.65990 -0.05815
 O43 O 0.61114 0.11877 0.54361
 O44 O 0.51866 0.12020 0.47015
 O45 O 0.60958 0.12389 0.47214
 O46 O 0.51854 0.11738 0.54343
 O47 O 0.45468 0.20902 0.54257
 O48 O 0.54998 0.21547 0.47607
 O49 O 0.46149 0.21200 0.47036
 O50 O 0.54798 0.21020 0.54694
 Cu51 Cu 0.57020 0.11073 0.50723
 Cu52 Cu 0.49686 0.22086 0.50963
 C53 C 0.59538 0.16443 0.55770
 C54 C 0.47632 0.16662 0.45646
 C55 C 0.59514 0.17102 0.46197
 C56 C 0.47111 0.16244 0.55518
 O57 O 0.70340 0.06897 -0.03534
 O58 O 0.70323 -0.02277 0.03161
 O59 O 0.69716 0.06740 0.03542
 O60 O 0.71390 -0.02234 -0.04030
 O61 O 0.81228 -0.07324 -0.03524
 O62 O 0.79576 0.01708 0.03978
 O63 O 0.80129 -0.07178 0.03712
 O64 O 0.80209 0.01821 -0.03203
 Cu65 Cu 0.69458 0.02744 -0.00246
 Cu66 Cu 0.81277 -0.03268 0.00284
 C67 C 0.75265 0.05910 -0.04539
 C68 C 0.75180 -0.06215 0.04663
 C69 C 0.74378 0.05763 0.05034
 C70 C 0.76598 -0.06241 -0.05129
 O71 O 0.19410 0.58821 0.46743
 O72 O 0.19711 0.50534 0.54358
 O73 O 0.19681 0.59190 0.53815
 O74 O 0.19120 0.50334 0.47128
 O75 O 0.29020 0.44488 0.47063
 O76 O 0.29578 0.53630 0.53555
 O77 O 0.29599 0.45038 0.54181
 O78 O 0.29286 0.53007 0.46347
 Cu79 Cu 0.18486 0.55251 0.50533
 Cu80 Cu 0.30366 0.48480 0.50248
 C81 C 0.24304 0.57318 0.45245
 C82 C 0.24712 0.46430 0.55622
 C83 C 0.24712 0.57946 0.54816
 C84 C 0.23955 0.45913 0.45963
 O85 O 0.25979 1.05359 0.03882
 O86 O 0.26601 0.96666 -0.03669
 O87 O 0.25108 1.05988 -0.03443
 O88 O 0.27437 0.95849 0.03445
 O89 O 0.17652 1.00244 0.03802
 O90 O 0.15324 1.10594 -0.02934
 O91 O 0.16758 1.01382 -0.03329
 O92 O 0.16292 1.09491 0.04393
 Cu93 Cu 0.27261 1.00566 0.00046
 Cu94 Cu 0.15527 1.05920 0.00554
 C95 C 0.21000 1.08819 0.05516
 C96 C 0.21739 0.97673 -0.04840
 C97 C 0.19839 1.09860 -0.04519
 C98 C 0.22942 0.96271 0.04759
 O99 O 0.78883 0.43089 0.46802
 O100 O 0.77690 0.52655 0.53729
 O101 O 0.78135 0.43809 0.53892
 O102 O 0.78519 0.52001 0.46418
 O103 O 0.68677 0.57070 0.46041
 O104 O 0.68239 0.49213 0.53624
 O105 O 0.67828 0.57954 0.53317
 O106 O 0.69003 0.48320 0.46465
 Cu107 Cu 0.79306 0.47409 0.50225
 Cu108 Cu 0.67452 0.53685 0.49809
 C109 C 0.74128 0.44063 0.45476
 C110 C 0.72559 0.56809 0.54822
 C111 C 0.73099 0.45195 0.55062
 C112 C 0.73642 0.55856 0.44882
 C113 C 0.23210 0.24309 0.22505
 C114 C 0.17897 0.29798 0.23045
 C115 C 0.17354 0.32914 0.26095
 C116 C 0.22073 0.30845 0.28585
 C117 C 0.27459 0.25422 0.28020
 C118 C 0.27923 0.22190 0.25044
 H119 H 0.32028 0.18031 0.24675
 H120 H 0.13244 0.37073 0.26478
 C121 C 0.79079 0.75051 0.21531
 C122 C 0.83367 0.69201 0.21831
 C123 C 0.83307 0.66452 0.24946
 C124 C 0.78850 0.69360 0.27680
 C125 C 0.74371 0.75171 0.27253
 C126 C 0.74563 0.77930 0.24207
 H127 H 0.71216 0.82389 0.23957
 H128 H 0.86633 0.61990 0.25181
 C129 C 0.76421 0.24796 0.22231
 C130 C 0.75329 0.20805 0.22707
 C131 C 0.73122 0.20442 0.26083
 C132 C 0.71882 0.24051 0.29001
 C133 C 0.72935 0.28072 0.28512
 C134 C 0.75159 0.28419 0.25138
 H135 H 0.76105 0.31417 0.24819
 H136 H 0.72176 0.17443 0.26394
 C137 C 0.22800 0.74365 0.20998
 C138 C 0.23883 0.78382 0.21343
 C139 C 0.26452 0.78616 0.24580
 C140 C 0.27895 0.74972 0.27518
 C141 C 0.26614 0.71091 0.27221
 C142 C 0.24182 0.70765 0.23954
 H143 H 0.23167 0.67805 0.23759
 H144 H 0.27463 0.81579 0.24776
 C145 C 0.75334 0.22030 0.71498
 C146 C 0.76889 0.25726 0.71450
 C147 C 0.78779 0.26747 0.74696
 C148 C 0.79417 0.23965 0.77971
 C149 C 0.78410 0.19883 0.77939
 C150 C 0.76320 0.18995 0.74718
 H151 H 0.75163 0.16130 0.74783
 H152 H 0.79766 0.29737 0.74673
 C153 C 0.29057 0.76327 0.71856
 C154 C 0.28097 0.72207 0.72003
 C155 C 0.26175 0.71294 0.75305
 C156 C 0.25239 0.74359 0.78493
 C157 C 0.26530 0.78245 0.78406
 C158 C 0.28322 0.79256 0.75085
 H159 H 0.29279 0.82266 0.75035
 H160 H 0.25181 0.68310 0.75349
 C161 C 0.20428 0.31502 0.72131
 C162 C 0.23905 0.25668 0.71579
 C163 C 0.24294 0.22293 0.74426
 C164 C 0.21155 0.24603 0.77765
 C165 C 0.17591 0.30470 0.78274
 C166 C 0.17246 0.33819 0.75435
 H167 H 0.14597 0.38278 0.75842
 H168 H 0.27008 0.17830 0.74024
 C169 C 0.75417 0.71338 0.72194
 C170 C 0.71828 0.77191 0.71661
 C171 C 0.71529 0.80583 0.74430
 C172 C 0.74674 0.78336 0.77731
 C173 C 0.78170 0.72499 0.78320
 C174 C 0.78610 0.69070 0.75501
 H175 H 0.81302 0.64616 0.75932
 H176 H 0.68814 0.85042 0.74005
 C177 C 0.15274 0.14972 0.10718
 C178 C 0.20631 0.11837 0.08629
 C179 C 0.25549 0.11707 0.09803
 C180 C 0.25085 0.14665 0.12975
 C181 C 0.19743 0.17603 0.15083
 C182 C 0.14871 0.17740 0.13924
 C183 C 0.19306 0.20436 0.18293
 C184 C 0.23951 0.20781 0.19304
 C185 C 0.29253 0.17853 0.17180
 C186 C 0.29845 0.14770 0.14079
 H187 H 0.29702 0.09377 0.08235
 H188 H 0.10713 0.20035 0.15485
 H189 H 0.15294 0.22446 0.19976
 H190 H 0.33981 0.12564 0.12500
 H191 H 0.11390 0.15188 0.09935
 H192 H 0.32916 0.18022 0.17884
 C193 C 0.66444 0.64311 0.59540
 C194 C 0.72087 0.60129 0.58020
 C195 C 0.77289 0.58820 0.59773
 C196 C 0.76871 0.61582 0.63017
 C197 C 0.71182 0.65664 0.64568
 C198 C 0.65998 0.67029 0.62793
 C199 C 0.70766 0.68453 0.67795
 C200 C 0.75927 0.67534 0.69326
 C201 C 0.81570 0.63356 0.67830
 C202 C 0.82046 0.60364 0.64722
 H203 H 0.81672 0.55614 0.58638
 H204 H 0.61596 0.70218 0.63910
 H205 H 0.66399 0.71617 0.68970
 H206 H 0.86447 0.57233 0.63579
 H207 H 0.62360 0.65410 0.58259
 H208 H 0.85597 0.62573 0.68976
 C209 C 0.69649 0.91352 0.08323
 C210 C 0.75038 0.90596 0.07450
 C211 C 0.80198 0.86771 0.09540
 C212 C 0.79921 0.83922 0.12511
 C213 C 0.74484 0.84726 0.13341
 C214 C 0.69396 0.88409 0.11208
 C215 C 0.74216 0.81860 0.16303
 C216 C 0.79298 0.78254 0.18482
 C217 C 0.84628 0.77623 0.17704
 C218 C 0.84966 0.80364 0.14715
 H219 H 0.84392 0.86133 0.08945
 H220 H 0.65188 0.89079 0.11806
 H221 H 0.70083 0.82380 0.16893
 H222 H 0.89159 0.79736 0.14147
 H223 H 0.65592 0.94235 0.06778
 H224 H 0.88560 0.74949 0.19395
 C225 C 0.30401 0.38911 0.60342
 C226 C 0.24874 0.43268 0.58819
 C227 C 0.19529 0.44606 0.60399
 C228 C 0.19703 0.41612 0.63438
 C229 C 0.25289 0.37263 0.64948
 C230 C 0.30606 0.35949 0.63384
 C231 C 0.25472 0.34208 0.67940
 C232 C 0.20164 0.35252 0.69330
 C233 C 0.14625 0.39662 0.67878
 C234 C 0.14391 0.42839 0.64964
 H235 H 0.15238 0.47944 0.59253
 H236 H 0.34925 0.32595 0.64490
 H237 H 0.29754 0.30860 0.69094
 H238 H 0.10069 0.46163 0.63847
 H239 H 0.34588 0.37788 0.59185
 H240 H 0.10491 0.40530 0.68926
 C241 C 0.80122 0.35854 0.09221
 C242 C 0.85760 0.31132 0.08083
 C243 C 0.88169 0.26009 0.09819
 C244 C 0.85112 0.25639 0.12739
 C245 C 0.79516 0.30438 0.13927
 C246 C 0.77020 0.35507 0.12115
 C247 C 0.76597 0.30106 0.16963
 C248 C 0.79226 0.25045 0.18831
 C249 C 0.84760 0.20295 0.17603
 C250 C 0.87657 0.20575 0.14563
 H251 H 0.92506 0.22323 0.08969
 H252 H 0.72728 0.39225 0.12985
 H253 H 0.72340 0.33790 0.17919
 H254 H 0.91957 0.16864 0.13697
 H255 H 0.78163 0.39847 0.07928
 H256 H 0.86928 0.16394 0.19063
 C257 C 0.44987 0.71604 0.58247
 C258 C 0.41881 0.77124 0.57011
 C259 C 0.36679 0.81372 0.58906
 C260 C 0.34682 0.80129 0.62035
 C261 C 0.37923 0.74576 0.63284
 C262 C 0.43034 0.70345 0.61352
 C263 C 0.36059 0.73350 0.66475
 C264 C 0.30935 0.77587 0.68416
 C265 C 0.27711 0.83088 0.67145
 C266 C 0.29562 0.84353 0.63979
 H267 H 0.34240 0.85642 0.57987
 H268 H 0.45563 0.66066 0.62267
 H269 H 0.38664 0.69121 0.67493
 H270 H 0.27018 0.88633 0.63069
 H271 H 0.49015 0.68244 0.56852
 H272 H 0.23755 0.86412 0.68615
 C273 C 0.20189 0.62429 0.08159
 C274 C 0.14505 0.66974 0.06956
 C275 C 0.11729 0.72159 0.08700
 C276 C 0.14538 0.72780 0.11637
 C277 C 0.20239 0.68175 0.12836
 C278 C 0.23040 0.63028 0.11065
 C279 C 0.22988 0.68775 0.15826
 C280 C 0.20085 0.73903 0.17655
 C281 C 0.14411 0.78443 0.16455
 C282 C 0.11684 0.77905 0.13447
 H283 H 0.07338 0.75701 0.07812
 H284 H 0.27407 0.59453 0.11950
 H285 H 0.27343 0.65243 0.16772
 H286 H 0.07288 0.81465 0.12586
 H287 H 0.22434 0.58396 0.06859
 H288 H 0.12009 0.82366 0.17909
 C289 C 0.68495 0.11480 0.59950
 C290 C 0.63244 0.16471 0.58673
 C291 C 0.61567 0.21538 0.60162
 C292 C 0.65054 0.21635 0.62885
 C293 C 0.70323 0.16601 0.64158
 C294 C 0.72005 0.11544 0.62667
 C295 C 0.73769 0.16723 0.66919
 C296 C 0.71994 0.21821 0.68413
 C297 C 0.66718 0.26781 0.67141
 C298 C 0.63309 0.26697 0.64382
 H299 H 0.57535 0.25424 0.59209
 H300 H 0.76024 0.07640 0.63607
 H301 H 0.77795 0.12878 0.67923
 H302 H 0.59258 0.30590 0.63460
 H303 H 0.69894 0.07518 0.58848
 H304 H 0.65150 0.30735 0.68347
 C305 C 0.69970 0.14892 0.92042
 C306 C 0.75202 0.09482 0.92630
 C307 C 0.80217 0.07391 0.90340
 C308 C 0.79919 0.10577 0.87389
 C309 C 0.74600 0.15994 0.86794
 C310 C 0.69690 0.18143 0.89171
 C311 C 0.74218 0.19099 0.83765
 C312 C 0.79030 0.16801 0.81286
 C313 C 0.84296 0.11438 0.81884
 C314 C 0.84769 0.08367 0.84942
 H315 H 0.84249 0.03201 0.90750
 H316 H 0.65583 0.22282 0.88756
 H317 H 0.70133 0.23226 0.83264
 H318 H 0.88866 0.04219 0.85345
 H319 H 0.66062 0.16593 0.93786
 H320 H 0.88019 0.09622 0.79963
 C321 C 0.19724 0.66428 0.42149
 C322 C 0.24166 0.60651 0.42204
 C323 C 0.28381 0.58093 0.39317
 C324 C 0.28070 0.61272 0.36353
 C325 C 0.23626 0.67102 0.36354
 C326 C 0.19502 0.69639 0.39272
 C327 C 0.23306 0.70284 0.33401
 C328 C 0.27241 0.67701 0.30396
 C329 C 0.31570 0.61913 0.30367
 C330 C 0.32039 0.58721 0.33351
 H331 H 0.31780 0.53625 0.39328
 H332 H 0.16057 0.74095 0.39305
 H333 H 0.19910 0.74754 0.33386
 H334 H 0.35436 0.54258 0.33288
 H335 H 0.16455 0.68470 0.44360
 H336 H 0.34603 0.59885 0.28043
 C337 C 0.17015 0.97579 0.89396
 C338 C 0.21773 0.94710 0.91914
 C339 C 0.26518 0.89103 0.91264
 C340 C 0.26481 0.86376 0.88131
 C341 C 0.21747 0.89356 0.85558
 C342 C 0.17034 0.94947 0.86224
 C343 C 0.21803 0.86694 0.82367
 C344 C 0.26406 0.81042 0.81786
 C345 C 0.31007 0.78064 0.84385
 C346 C 0.31082 0.80722 0.87520
 H347 H 0.30171 0.86860 0.93217
 H348 H 0.13358 0.97281 0.84296
 H349 H 0.18247 0.88980 0.80354
 H350 H 0.34724 0.78359 0.89466
 H351 H 0.13332 1.01915 0.89844
 H352 H 0.34591 0.73696 0.83949
 C353 C 0.79287 0.34564 0.42808
 C354 C 0.74556 0.40270 0.42704
 C355 C 0.70298 0.42379 0.39875
 C356 C 0.70832 0.38844 0.37118
 C357 C 0.75569 0.33085 0.37266
 C358 C 0.79747 0.30982 0.40135
 C359 C 0.76116 0.29555 0.34497
 C360 C 0.72110 0.31745 0.31533
 C361 C 0.67486 0.37465 0.31365
 C362 C 0.66792 0.40987 0.34169
 H363 H 0.66686 0.46796 0.39757
 H364 H 0.83417 0.26588 0.40279
 H365 H 0.79733 0.25137 0.34585
 H366 H 0.63166 0.45391 0.34000
 H367 H 0.82602 0.32871 0.44977
 H368 H 0.64397 0.39183 0.29070
 C369 C 0.11923 0.29331 0.94182
 C370 C 0.05634 0.33102 0.93906
 C371 C 0.03109 0.36773 0.90890
 C372 C 0.06776 0.36147 0.87960
 C373 C 0.13076 0.32263 0.88241
 C374 C 0.15611 0.29063 0.91437
 C375 C 0.16698 0.31157 0.85168
 C376 C 0.14059 0.33209 0.81696
 C377 C 0.07840 0.37355 0.81476
 C378 C 0.04233 0.38930 0.84618
 H379 H -0.01724 0.39672 0.90617
 H380 H 0.20428 0.26022 0.91678
 H381 H 0.21521 0.28108 0.85369
 H382 H -0.00584 0.41939 0.84351
 H383 H 0.14010 0.26512 0.96500
 H384 H 0.05724 0.39093 0.78835
 C385 C 0.62990 0.81298 0.42640
 C386 C 0.57361 0.82850 0.41531
 C387 C 0.55849 0.83682 0.37790
 C388 C 0.60149 0.82506 0.35132
 C389 C 0.65954 0.80607 0.36263
 C390 C 0.67244 0.80245 0.40024
 C391 C 0.70503 0.78666 0.33627
 C392 C 0.69362 0.78429 0.29902
 C393 C 0.63498 0.80718 0.28766
 C394 C 0.58910 0.82754 0.31367
 H395 H 0.51549 0.84742 0.36942
 H396 H 0.71662 0.78796 0.40936
 H397 H 0.75032 0.76932 0.34491
 H398 H 0.54487 0.84227 0.30449
 H399 H 0.64228 0.80541 0.45525
 H400 H 0.62563 0.80590 0.25889
 C401 C 1.00341 0.60281 0.88368
 C402 C 0.97367 0.63953 0.91359
 C403 C 0.91062 0.67604 0.91379
 C404 C 0.87798 0.67854 0.88362
 C405 C 0.90857 0.64727 0.85157
 C406 C 0.97119 0.60793 0.85236
 C407 C 0.87620 0.65864 0.81886
 C408 C 0.81370 0.69978 0.81857
 C409 C 0.78325 0.72287 0.85221
 C410 C 0.81523 0.71381 0.88431
 H411 H 0.88686 0.70303 0.93732
 H412 H 0.99535 0.58248 0.82838
 H413 H 0.89993 0.63898 0.79327
 H414 H 0.79101 0.73642 0.90914
 H415 H 1.05190 0.57370 0.88303
 H416 H 0.73484 0.75254 0.85284
 C417 C 0.42758 0.13448 0.41809
 C418 C 0.44565 0.16881 0.42283
 C419 C 0.43390 0.20670 0.39507
 C420 C 0.40237 0.21200 0.36340
 C421 C 0.38111 0.17968 0.35961
 C422 C 0.39492 0.14028 0.38681
 C423 C 0.34384 0.18958 0.32977
 C424 C 0.32691 0.23213 0.30446
 C425 C 0.35255 0.26049 0.30678
 C426 C 0.38985 0.25067 0.33614
 H427 H 0.44891 0.23250 0.39837
 H428 H 0.37939 0.11486 0.38427
 H429 H 0.32404 0.16768 0.32795
 H430 H 0.40654 0.27518 0.33845
 H431 H 0.43693 0.10465 0.43913
 H432 H 0.34001 0.29320 0.28734
 C433 C 0.82995 0.86182 0.90251
 C434 C 0.77268 0.90439 0.91628
 C435 C 0.72171 0.91652 0.89796
 C436 C 0.72775 0.88650 0.86648
 C437 C 0.78551 0.84412 0.85272
 C438 C 0.83630 0.83208 0.87095
 C439 C 0.79148 0.81335 0.82168
 C440 C 0.74057 0.82217 0.80563
 C441 C 0.68334 0.86541 0.81884
 C442 C 0.67693 0.89762 0.84884
 H443 H 0.67726 0.94924 0.90820
 H444 H 0.88092 0.79937 0.86098
 H445 H 0.83574 0.78042 0.81129
 H446 H 0.63232 0.93006 0.85896
 H447 H 0.86998 0.85169 0.91600
 H448 H 0.64363 0.87280 0.80679
 C449 C 0.25859 0.37005 0.44069
 C450 C 0.23670 0.42479 0.43234
 C451 C 0.21250 0.44679 0.39744
 C452 C 0.21124 0.41392 0.37062
 C453 C 0.23176 0.35928 0.37944
 C454 C 0.25518 0.33776 0.41462
 C455 C 0.23027 0.32655 0.35256
 C456 C 0.21377 0.34571 0.31604
 C457 C 0.19330 0.40021 0.30773
 C458 C 0.19110 0.43430 0.33488
 H459 H 0.19639 0.48888 0.39091
 H460 H 0.27200 0.29565 0.42167
 H461 H 0.24406 0.28543 0.35972
 H462 H 0.17556 0.47596 0.32760
 H463 H 0.27761 0.35263 0.46753
 H464 H 0.18039 0.41603 0.27988
 C465 C 0.13282 0.17139 0.90968
 C466 C 0.19049 0.13102 0.92394
 C467 C 0.24066 0.12034 0.90473
 C468 C 0.23362 0.14815 0.87170
 C469 C 0.17566 0.18742 0.85730
 C470 C 0.12557 0.19903 0.87667
 C471 C 0.16878 0.21582 0.82452
 C472 C 0.21888 0.20789 0.80726
 C473 C 0.27637 0.16732 0.82115
 C474 C 0.28373 0.13748 0.85293
 H475 H 0.28556 0.08966 0.91504
 H476 H 0.08070 0.22966 0.86636
 H477 H 0.12429 0.24676 0.81378
 H478 H 0.32853 0.10729 0.86348
 H479 H 0.09310 0.18095 0.92358
 H480 H 0.31550 0.16049 0.80830
 C481 C 0.68442 0.62319 0.39540
 C482 C 0.73689 0.58857 0.41635
 C483 C 0.78964 0.58134 0.40502
 C484 C 0.78997 0.60792 0.37308
 C485 C 0.73726 0.64133 0.35186
 C486 C 0.68468 0.64901 0.36342
 C487 C 0.73779 0.66690 0.31958
 C488 C 0.78934 0.66231 0.30914
 C489 C 0.84158 0.62890 0.33035
 C490 C 0.84205 0.60164 0.36188
 H491 H 0.83035 0.55502 0.42092
 H492 H 0.64369 0.67501 0.34771
 H493 H 0.69773 0.69120 0.30289
 H494 H 0.88290 0.57631 0.37777
 H495 H 0.64314 0.62957 0.40331
 H496 H 0.88183 0.62468 0.32283
 C497 C 0.20943 0.61980 0.90150
 C498 C 0.15402 0.66633 0.91511
 C499 C 0.13144 0.71939 0.90124
 C500 C 0.16293 0.72573 0.87403
 C501 C 0.21793 0.67857 0.86028
 C502 C 0.24095 0.62589 0.87439
 C503 C 0.24832 0.68478 0.83212
 C504 C 0.22425 0.73757 0.81748
 C505 C 0.16988 0.78422 0.83161
 C506 C 0.13966 0.77844 0.85980
 H507 H 0.08905 0.75591 0.91130
 H508 H 0.28309 0.58928 0.86420
 H509 H 0.29003 0.64860 0.82107
 H510 H 0.09740 0.81504 0.86986
 H511 H 0.22846 0.57834 0.91153
 H512 H 0.14967 0.82500 0.81994
 C513 C 0.68396 0.12718 0.41934
 C514 C 0.62943 0.17486 0.43251
 C515 C 0.60579 0.22653 0.41601
 C516 C 0.63506 0.23045 0.38610
 C517 C 0.68955 0.18223 0.37276
 C518 C 0.71399 0.13090 0.38985
 C519 C 0.71777 0.18606 0.34204
 C520 C 0.69170 0.23732 0.32425
 C521 C 0.63746 0.28486 0.33774
 C522 C 0.60969 0.28161 0.36864
 H523 H 0.56352 0.26362 0.42567
 H524 H 0.75571 0.09349 0.37998
 H525 H 0.75940 0.14914 0.33156
 H526 H 0.56763 0.31885 0.37831
 H527 H 0.70310 0.08691 0.43160
 H528 H 0.61569 0.32435 0.32377
 C529 C 0.94486 0.21474 0.91409
 C530 C 0.90714 0.27052 0.92580
 C531 C 0.85335 0.30823 0.90684
 C532 C 0.83783 0.29077 0.87631
 C533 C 0.87646 0.23475 0.86450
 C534 C 0.92965 0.19702 0.88374
 C535 C 0.86169 0.21773 0.83329
 C536 C 0.80878 0.25603 0.81385
 C537 C 0.77048 0.31141 0.82596
 C538 C 0.78476 0.32865 0.85700
 H539 H 0.82382 0.35132 0.91556
 H540 H 0.95977 0.15395 0.87512
 H541 H 0.89192 0.17523 0.82357
 H542 H 0.75464 0.37171 0.86564
 H543 H 0.98667 0.18479 0.92812
 H544 H 0.72954 0.34142 0.81116
 C545 C 0.33176 0.85238 0.40227
 C546 C 0.38721 0.80341 0.41281
 C547 C 0.40842 0.75329 0.39477
 C548 C 0.37547 0.75215 0.36621
 C549 C 0.32013 0.80170 0.35549
 C550 C 0.29845 0.85152 0.37390
 C551 C 0.28800 0.80063 0.32621
 C552 C 0.31069 0.75063 0.30754
 C553 C 0.36567 0.70170 0.31852
 C554 C 0.39760 0.70234 0.34774
 H555 H 0.45110 0.71515 0.40252
 H556 H 0.25609 0.88990 0.36611
 H557 H 0.24570 0.83856 0.31772
 H558 H 0.44010 0.66405 0.35548
 H559 H 0.31433 0.89153 0.41572
 H560 H 0.38458 0.66307 0.30390
 C561 C 0.29246 0.86729 0.07476
 C562 C 0.23873 0.92153 0.07471
 C563 C 0.19455 0.93670 0.10137
 C564 C 0.20452 0.89857 0.12841
 C565 C 0.25854 0.84386 0.12804
 C566 C 0.30201 0.82856 0.10094
 C567 C 0.26866 0.80585 0.15526
 C568 C 0.22621 0.82246 0.18332
 C569 C 0.17334 0.87703 0.18400
 C570 C 0.16203 0.91461 0.15638
 H571 H 0.15327 0.97869 0.10179
 H572 H 0.34375 0.78693 0.10033
 H573 H 0.31001 0.76390 0.15527
 H574 H 0.12066 0.95647 0.15729
 H575 H 0.32697 0.85476 0.05435
 H576 H 0.14080 0.89038 0.20594
 C577 C 0.68407 0.45309 0.60934
 C578 C 0.72845 0.42266 0.58219
 C579 C 0.77083 0.36493 0.58602
 C580 C 0.76908 0.33779 0.61697
 C581 C 0.72568 0.36918 0.64493
 C582 C 0.68311 0.42668 0.64070
 C583 C 0.72581 0.34259 0.67675
 C584 C 0.76724 0.28484 0.68034
 C585 C 0.80879 0.25356 0.65201
 C586 C 0.81013 0.27991 0.62065
 H587 H 0.80466 0.34130 0.56483
 H588 H 0.64927 0.45120 0.66170
 H589 H 0.69362 0.36656 0.69868
 H590 H 0.84334 0.25515 0.59939
 H591 H 0.65113 0.49770 0.60677
 H592 H 0.84107 0.20889 0.65465
 C593 C 0.68952 0.15028 0.08096
 C594 C 0.73760 0.09345 0.08048
 C595 C 0.77976 0.07076 0.10909
 C596 C 0.77356 0.10438 0.13826
 C597 C 0.72572 0.16188 0.13813
 C598 C 0.68405 0.18443 0.10934
 C599 C 0.72004 0.19564 0.16703
 C600 C 0.76051 0.17234 0.19645
 C601 C 0.80691 0.11513 0.19698
 C602 C 0.81394 0.08141 0.16779
 H603 H 0.81655 0.02673 0.10903
 H604 H 0.64702 0.22833 0.10892
 H605 H 0.68375 0.23983 0.16704
 H606 H 0.85052 0.03738 0.16846
 H607 H 0.65673 0.16841 0.05903
 H608 H 0.83808 0.09686 0.21977
 C609 C 0.20031 0.67187 0.57794
 C610 C 0.24857 0.61515 0.57534
 C611 C 0.29632 0.59219 0.60027
 C612 C 0.29460 0.62496 0.62857
 C613 C 0.24560 0.68199 0.63109
 C614 C 0.19919 0.70518 0.60528
 C615 C 0.24280 0.71428 0.66016
 C616 C 0.28731 0.68978 0.68730
 C617 C 0.33572 0.63327 0.68471
 C618 C 0.33986 0.60123 0.65525
 H619 H 0.33335 0.54831 0.59870
 H620 H 0.16127 0.74872 0.60683
 H621 H 0.20502 0.75781 0.66255
 H622 H 0.37753 0.55759 0.65389
 H623 H 0.16318 0.69040 0.55888
 H624 H 0.37008 0.61397 0.70571
 C625 C 0.91190 0.65994 0.05775
 C626 C 0.97263 0.63509 0.06432
 C627 C 0.99651 0.61486 0.09959
 C628 C 0.95842 0.62404 0.12900
 C629 C 0.89671 0.65109 0.12231
 C630 C 0.87438 0.66691 0.08640
 C631 C 0.85729 0.66662 0.15197
 C632 C 0.87774 0.65955 0.18832
 C633 C 0.93947 0.62922 0.19491
 C634 C 0.97975 0.61096 0.16536
 H635 H 1.04322 0.59668 0.10473
 H636 H 0.82716 0.68797 0.08091
 H637 H 0.80962 0.68950 0.14692
 H638 H 1.02687 0.59009 0.17103
 H639 H 0.89303 0.67604 0.03066
 H640 H 0.95592 0.62316 0.22283
 C641 C 0.46512 0.13191 0.61770
 C642 C 0.43610 0.16159 0.58533
 C643 C 0.37323 0.19609 0.58391
 C644 C 0.33945 0.20333 0.61526
 C645 C 0.36896 0.17696 0.64871
 C646 C 0.43179 0.13993 0.64931
 C647 C 0.33532 0.19083 0.68135
 C648 C 0.27270 0.23071 0.68079
 C649 C 0.24353 0.25157 0.64672
 C650 C 0.27666 0.23875 0.61427
 H651 H 0.35076 0.21886 0.55885
 H652 H 0.45515 0.11892 0.67458
 H653 H 0.35807 0.17399 0.70748
 H654 H 0.25325 0.25844 0.58875
 H655 H 0.51362 0.10530 0.61921
 H656 H 0.19515 0.28122 0.64566
 C657 C 0.06794 0.36241 0.07624
 C658 C 0.01717 0.36527 0.08535
 C659 C 0.00263 0.36543 0.12240
 C660 C 0.04165 0.35781 0.15024
 C661 C 0.09524 0.35071 0.14066
 C662 C 0.10660 0.35562 0.10377
 C663 C 0.13857 0.33460 0.16765
 C664 C 0.12920 0.32488 0.20385
 C665 C 0.07398 0.33655 0.21388
 C666 C 0.03049 0.35265 0.18716
 H667 H -0.03585 0.36621 0.12922
 H668 H 0.14730 0.35048 0.09601
 H669 H 0.18105 0.32623 0.16018
 H670 H -0.01051 0.35841 0.19502
 H671 H 0.08018 0.36093 0.04761
 H672 H 0.06616 0.32977 0.24193
 C673 C 0.65363 0.76967 0.55685
 C674 C 0.59117 0.80489 0.56186
 C675 C 0.56662 0.83597 0.59441
 C676 C 0.60437 0.82845 0.62307
 C677 C 0.66734 0.79206 0.61814
 C678 C 0.69147 0.76419 0.58450
 C679 C 0.70505 0.78004 0.64799
 C680 C 0.68055 0.79892 0.68344
 C681 C 0.61818 0.83788 0.68767
 C682 C 0.58033 0.85334 0.65751
 H683 H 0.51841 0.86258 0.59848
 H684 H 0.73958 0.73568 0.58042
 H685 H 0.75327 0.75083 0.64457
 H686 H 0.53224 0.88149 0.66174
 H687 H 0.67315 0.74557 0.53175
 H688 H 0.59854 0.85342 0.71477
   
