data_POSCAR
  _audit_creation_date              2014-09-24
  _audit_creation_method            'ToBaCCo'
  _symmetry_space_group_name_H-M    'P1'
  _symmetry_Int_Tables_number       1
  _symmetry_cell_setting            triclinic
  loop_
  _symmetry_equiv_pos_as_xyz
 x,y,z
_cell_length_a 48.6426
_cell_length_b 48.6388
_cell_length_c 9.0810
_cell_angle_alpha 89.994600
_cell_angle_beta 90.003200
_cell_angle_gamma 90.000000
loop_
  _atom_site_label
  _atom_site_type_symbol
  _atom_site_fract_x
  _atom_site_fract_y
  _atom_site_fract_z
O1 O 0.28003 0.22301 0.15628
 O2 O 0.22735 0.27646 0.10247
 O3 O 0.27994 0.27654 0.15643
 O4 O 0.22743 0.22291 0.10253
 O5 O 0.21900 0.22289 0.34147
 O6 O 0.27150 0.27651 0.39547
 O7 O 0.21891 0.27643 0.34151
 O8 O 0.27159 0.22298 0.39533
 Cu9 Cu 0.25455 0.24973 0.10551
 Cu10 Cu 0.24439 0.24970 0.39234
 C11 C 0.28479 0.21392 0.28486
 C12 C 0.21417 0.28554 0.21295
 C13 C 0.28466 0.28564 0.28503
 C14 C 0.21425 0.21375 0.21291
 O15 O 0.78015 0.27625 0.34224
 O16 O 0.72765 0.22263 0.39612
 O17 O 0.78025 0.22272 0.34244
 O18 O 0.72758 0.27617 0.39627
 O19 O 0.71913 0.27616 0.15723
 O20 O 0.77181 0.22270 0.10340
 O21 O 0.71921 0.22262 0.15718
 O22 O 0.77171 0.27624 0.10320
 Cu23 Cu 0.75477 0.24944 0.39317
 Cu24 Cu 0.74460 0.24942 0.10635
 C25 C 0.78486 0.28537 0.21365
 C26 C 0.71445 0.21348 0.28575
 C27 C 0.78500 0.21363 0.21388
 C28 C 0.71439 0.28526 0.28581
 O29 O 0.77257 0.77645 0.89709
 O30 O 0.71990 0.72300 0.84326
 O31 O 0.77249 0.72291 0.89700
 O32 O 0.71998 0.77653 0.84311
 O33 O 0.72842 0.77652 0.60407
 O34 O 0.78092 0.72290 0.65806
 O35 O 0.72833 0.72298 0.60421
 O36 O 0.78101 0.77643 0.65806
 Cu37 Cu 0.74537 0.74973 0.89402
 Cu38 Cu 0.75553 0.74971 0.60720
 C39 C 0.78576 0.78553 0.78663
 C40 C 0.71515 0.71390 0.71470
 C41 C 0.78568 0.71376 0.78663
 C42 C 0.71526 0.78564 0.71451
 O43 O 0.28027 0.77720 0.84303
 O44 O 0.22759 0.72374 0.89684
 O45 O 0.28018 0.72367 0.84307
 O46 O 0.22768 0.77728 0.89696
 O47 O 0.21924 0.77731 0.65803
 O48 O 0.27174 0.72368 0.60402
 O49 O 0.21915 0.72378 0.65779
 O50 O 0.27182 0.77723 0.60398
 Cu51 Cu 0.25479 0.75047 0.89388
 Cu52 Cu 0.24462 0.75050 0.60706
 C53 C 0.28501 0.78629 0.71445
 C54 C 0.21440 0.71467 0.78635
 C55 C 0.28490 0.71456 0.71449
 C56 C 0.21449 0.78645 0.78661
 O57 O 1.02757 -0.03053 0.09323
 O58 O 0.97395 0.02197 0.14718
 O59 O 0.97404 -0.03062 0.09333
 O60 O 1.02749 0.02207 0.14709
 O61 O 1.02746 0.03051 -0.09196
 O62 O 0.97401 -0.02217 -0.14572
 O63 O 0.97393 0.03041 -0.09187
 O64 O 1.02754 -0.02209 -0.14582
 Cu65 Cu 1.00077 -0.00514 0.14414
 Cu66 Cu 1.00073 0.00503 -0.14275
 C67 C 1.03666 -0.03526 -0.03538
 C68 C 0.96482 0.03512 0.03671
 C69 C 0.96494 -0.03536 -0.03524
 C70 C 1.03656 0.03526 0.03660
 O71 O 0.52641 0.46936 0.59317
 O72 O 0.47295 0.52204 0.64721
 O73 O 0.47288 0.46945 0.59308
 O74 O 0.52650 0.52195 0.64729
 O75 O 0.52652 0.53043 0.40828
 O76 O 0.47290 0.47794 0.35407
 O77 O 0.47298 0.53052 0.40820
 O78 O 0.52643 0.47785 0.35416
 Cu79 Cu 0.49968 0.49484 0.64411
 Cu80 Cu 0.49971 0.50505 0.35727
 C81 C 0.53550 0.46464 0.46457
 C82 C 0.46388 0.53524 0.53678
 C83 C 0.46378 0.46475 0.46446
 C84 C 0.53562 0.53513 0.53689
 O85 O -0.02735 0.53073 0.09224
 O86 O 0.02618 0.47813 0.14601
 O87 O 0.02618 0.53073 0.09228
 O88 O -0.02735 0.47813 0.14604
 O89 O -0.02735 0.46971 -0.09303
 O90 O 0.02618 0.52231 -0.14679
 O91 O 0.02618 0.46971 -0.09306
 O92 O -0.02736 0.52231 -0.14683
 Cu93 Cu -0.00059 0.50529 0.14306
 Cu94 Cu -0.00059 0.49515 -0.14385
 C95 C -0.03645 0.53547 -0.03634
 C96 C 0.03527 0.46496 0.03551
 C97 C 0.03528 0.53548 -0.03629
 C98 C -0.03644 0.46496 0.03555
 O99 O 0.47370 1.03075 0.59195
 O100 O 0.52723 0.97817 0.64619
 O101 O 0.52724 1.03075 0.59197
 O102 O 0.47369 0.97818 0.64623
 O103 O 0.47369 0.96969 0.40724
 O104 O 0.52724 1.02226 0.35298
 O105 O 0.52722 0.96968 0.40719
 O106 O 0.47369 1.02226 0.35296
 Cu107 Cu 0.50047 1.00533 0.64300
 Cu108 Cu 0.50047 0.99511 0.35617
 C109 C 0.46459 1.03545 0.46335
 C110 C 0.53632 0.96497 0.53580
 C111 C 0.53634 1.03545 0.46336
 C112 C 0.46459 0.96499 0.53585
 N113 N 1.16098 0.16412 0.29057
 C114 C 1.15559 0.15414 0.15423
 N115 N 1.16983 0.16408 0.03746
 N116 N 1.18890 0.18343 0.05645
 C117 C 1.19437 0.19351 0.19293
 N118 N 1.18004 0.18347 0.30962
 C119 C 1.13500 0.13336 0.13377
 C120 C 1.11766 0.11594 0.11667
 C121 C 1.09698 0.09525 0.09624
 N122 N 1.08711 0.08097 0.21305
 N123 N 1.06785 0.06181 0.19407
 C124 C 1.05782 0.05630 0.05762
 N125 N 1.06777 0.07064 -0.05912
 N126 N 1.08703 0.08980 -0.04012
 N127 N 0.66945 0.66335 0.53824
 C128 C 0.65517 0.65346 0.65505
 N129 N 0.66063 0.66341 0.79141
 N130 N 0.67978 0.68268 0.81042
 C131 C 0.69411 0.69263 0.69367
 N132 N 0.68860 0.68261 0.55722
 C133 C 0.63448 0.63278 0.63460
 C134 C 0.61707 0.61545 0.61745
 C135 C 0.59629 0.59486 0.59691
 N136 N 0.58632 0.58947 0.46052
 N137 N 0.56698 0.57041 0.44140
 C138 C 0.55696 0.55609 0.55806
 N139 N 0.56700 0.56153 0.69456
 N140 N 0.58635 0.58060 0.71365
 N141 N -0.16082 0.33609 0.29008
 C142 C -0.15544 0.34607 0.15369
 N143 N -0.16969 0.33612 0.03695
 N144 N -0.18875 0.31676 0.05604
 C145 C -0.19419 0.30672 0.19253
 N146 N -0.17988 0.31674 0.30920
 C147 C -0.13486 0.36685 0.13312
 C148 C -0.11754 0.38428 0.11592
 C149 C -0.09687 0.40498 0.09539
 N150 N -0.08697 0.41926 0.21216
 N151 N -0.06771 0.43841 0.19312
 C152 C -0.05772 0.44393 0.05663
 N153 N -0.06768 0.42959 -0.06009
 N154 N -0.08694 0.41044 -0.04101
 N155 N 0.33958 0.83675 0.79090
 C156 C 0.34503 0.84668 0.65450
 N157 N 0.33073 0.83680 0.53776
 N158 N 0.31156 0.81756 0.55684
 C159 C 0.30606 0.80755 0.69333
 N160 N 0.32042 0.81750 0.81002
 C161 C 0.36573 0.86734 0.63392
 C162 C 0.38316 0.88467 0.61667
 C163 C 0.40394 0.90525 0.59605
 N164 N 0.41388 0.91952 0.71272
 N165 N 0.43322 0.93860 0.69357
 C166 C 0.44326 0.94402 0.55707
 N167 N 0.43325 0.92969 0.44045
 N168 N 0.41391 0.91062 0.45964
 N169 N -0.16102 0.66416 -0.29082
 C170 C -0.15562 0.65419 -0.15444
 N171 N -0.16988 0.66413 -0.03773
 N172 N -0.18896 0.68346 -0.05682
 C173 C -0.19444 0.69352 -0.19333
 N174 N -0.18009 0.68349 -0.30997
 C175 C -0.13501 0.63344 -0.13386
 C176 C -0.11766 0.61604 -0.11666
 C177 C -0.09696 0.59537 -0.09614
 N178 N -0.08701 0.58993 0.04025
 N179 N -0.06773 0.57080 0.05931
 C180 C -0.05775 0.55648 -0.05741
 N181 N -0.06776 0.56198 -0.19389
 N182 N -0.08705 0.58111 -0.21292
 N183 N 0.33942 1.16354 0.20836
 C184 C 0.34488 1.15361 0.34476
 N185 N 0.33057 1.16346 0.46151
 N186 N 0.31137 1.18268 0.44244
 C187 C 0.30586 1.19268 0.30595
 N188 N 0.32022 1.18276 0.18926
 C189 C 0.36562 1.13298 0.36532
 C190 C 0.38308 1.11569 0.38255
 C191 C 0.40388 1.09514 0.40317
 N192 N 0.41388 1.08978 0.53957
 N193 N 0.43324 1.07074 0.55875
 C194 C 0.44325 1.05641 0.44213
 N195 N 0.43320 1.06182 0.30564
 N196 N 0.41384 1.08087 0.28649
 N197 N 1.17008 -0.16392 -0.03758
 C198 C 1.15581 -0.15397 -0.15423
 N199 N 1.16119 -0.16392 -0.29065
 N200 N 1.18026 -0.18326 -0.30987
 C201 C 1.19461 -0.19332 -0.19328
 N202 N 1.18915 -0.18326 -0.05674
 C203 C 1.13521 -0.13321 -0.13355
 C204 C 1.11787 -0.11581 -0.11624
 C205 C 1.09718 -0.09514 -0.09556
 N206 N 1.08725 -0.08086 -0.21226
 N207 N 1.06797 -0.06173 -0.19309
 C208 C 1.05797 -0.05625 -0.05656
 N209 N 1.06797 -0.07059 0.06008
 N210 N 1.08725 -0.08971 0.04088
 N211 N 0.65994 0.33585 0.20939
 C212 C 0.65454 0.34581 0.34578
 N213 N 0.66882 0.33589 0.46251
 N214 N 0.68793 0.31658 0.44341
 C215 C 0.69338 0.30655 0.30693
 N216 N 0.67904 0.31654 0.19027
 C217 C 0.63393 0.36656 0.36637
 C218 C 0.61659 0.38397 0.38365
 C219 C 0.59591 0.40465 0.40432
 N220 N 0.58602 0.41897 0.28765
 N221 N 0.56677 0.43812 0.30683
 C222 C 0.55676 0.44359 0.44336
 N223 N 0.56672 0.42922 0.55996
 N224 N 0.58598 0.41007 0.54075
 N225 N 0.83141 -0.16390 -0.03671
 C226 C 0.84569 -0.15400 -0.15345
 N227 N 0.84027 -0.16396 -0.28983
 N228 N 0.82114 -0.18324 -0.30893
 C229 C 0.80679 -0.19320 -0.19225
 N230 N 0.81227 -0.18318 -0.05578
 C231 C 0.86635 -0.13329 -0.13291
 C232 C 0.88372 -0.11592 -0.11569
 C233 C 0.90444 -0.09527 -0.09514
 N234 N 0.91435 -0.08099 -0.21188
 N235 N 0.93364 -0.06186 -0.19281
 C236 C 0.94366 -0.05638 -0.05633
 N237 N 0.93368 -0.07072 0.06036
 N238 N 0.91440 -0.08985 0.04126
 N239 N 0.33906 0.33629 0.20880
 C240 C 0.34446 0.34623 0.34525
 N241 N 0.33020 0.33628 0.46193
 N242 N 0.31109 0.31697 0.44275
 C243 C 0.30563 0.30696 0.30622
 N244 N 0.31996 0.31698 0.18959
 C245 C 0.36510 0.36695 0.36595
 C246 C 0.38247 0.38432 0.38330
 C247 C 0.40320 0.40495 0.40404
 N248 N 0.41314 0.41034 0.54050
 N249 N 0.43245 0.42944 0.55977
 C250 C 0.44246 0.44378 0.44319
 N251 N 0.43245 0.43834 0.30664
 N252 N 0.41314 0.41924 0.28740
 N253 N 0.16878 0.66404 -0.03720
 C254 C 0.15451 0.65415 -0.15399
 N255 N 0.15993 0.66412 -0.29034
 N256 N 0.17905 0.68342 -0.30935
 C257 C 0.19338 0.69338 -0.19261
 N258 N 0.18790 0.68334 -0.05617
 C259 C 0.13387 0.63342 -0.13355
 C260 C 0.11650 0.61603 -0.11644
 C261 C 0.09579 0.59537 -0.09598
 N262 N 0.08584 0.58993 0.04039
 N263 N 0.06655 0.57081 0.05941
 C264 C 0.05657 0.55649 -0.05733
 N265 N 0.06659 0.56199 -0.19380
 N266 N 0.08588 0.58112 -0.21279
 N267 N 0.66109 1.16394 0.20832
 C268 C 0.65568 1.15398 0.34471
 N269 N 0.66995 1.16390 0.46141
 N270 N 0.68906 1.18321 0.44232
 C271 C 0.69455 1.19326 0.30580
 N272 N 0.68019 1.18324 0.18917
 C273 C 0.63504 1.13327 0.36531
 C274 C 0.61765 1.11590 0.38255
 C275 C 0.59692 1.09527 0.40318
 N276 N 0.58700 1.08099 0.28650
 N277 N 0.56768 1.06189 0.30564
 C278 C 0.55765 1.05644 0.44215
 N279 N 0.56765 1.07079 0.55877
 N280 N 0.58696 1.08988 0.53959
 N281 N 0.15976 0.33615 0.28961
 C282 C 0.15435 0.34613 0.15327
 N283 N 0.16861 0.33622 0.03648
 N284 N 0.18770 0.31689 0.05546
 C285 C 0.19317 0.30684 0.19190
 N286 N 0.17885 0.31682 0.30863
 C287 C 0.13375 0.36690 0.13282
 C288 C 0.11641 0.38431 0.11571
 C289 C 0.09573 0.40500 0.09524
 N290 N 0.08579 0.41046 -0.04114
 N291 N 0.06652 0.42961 -0.06018
 C292 C 0.05656 0.44393 0.05656
 N293 N 0.06656 0.43842 0.19303
 N294 N 0.08583 0.41927 0.21204
 N295 N 0.66089 0.83630 0.79092
 C296 C 0.65549 0.84627 0.65452
 N297 N 0.66975 0.83633 0.53779
 N298 N 0.68884 0.81700 0.55688
 C299 C 0.69429 0.80697 0.69337
 N300 N 0.67998 0.81698 0.81004
 C301 C 0.63487 0.86701 0.63394
 C302 C 0.61752 0.88441 0.61668
 C303 C 0.59682 0.90507 0.59603
 N304 N 0.58687 0.91047 0.45961
 N305 N 0.56758 0.92960 0.44041
 C306 C 0.55761 0.94396 0.55703
 N307 N 0.56763 0.93850 0.69354
 N308 N 0.58692 0.91937 0.71270
 N309 N 0.83077 0.16314 0.03746
 C310 C 0.84506 0.15327 0.15428
 N311 N 0.83959 0.16321 0.29064
 N312 N 0.82041 0.18244 0.30963
 C313 C 0.80606 0.19238 0.19287
 N314 N 0.81159 0.18237 0.05642
 C315 C 0.86579 0.13263 0.13386
 C316 C 0.88324 0.11533 0.11679
 C317 C 0.90405 0.09477 0.09637
 N318 N 0.91404 0.08939 -0.03998
 N319 N 0.93342 0.07035 -0.05899
 C320 C 0.94345 0.05607 0.05776
 N321 N 0.93340 0.06151 0.19421
 N322 N 0.91402 0.08055 0.21318
 N323 N 0.33928 0.66391 0.79110
 C324 C 0.34469 0.65394 0.65473
 N325 N 0.33044 0.66387 0.53794
 N326 N 0.31134 0.68320 0.55695
 C327 C 0.30587 0.69323 0.69341
 N328 N 0.32018 0.68323 0.81014
 C329 C 0.36532 0.63320 0.63425
 C330 C 0.38268 0.61581 0.61712
 C331 C 0.40339 0.59516 0.59663
 N332 N 0.41336 0.58974 0.46026
 N333 N 0.43264 0.57062 0.44119
 C334 C 0.44260 0.55627 0.55789
 N335 N 0.43257 0.56174 0.69435
 N336 N 0.41328 0.58087 0.71338
   
