data_POSCAR
  _audit_creation_date              2014-09-24
  _audit_creation_method            'ToBaCCo'
  _symmetry_space_group_name_H-M    'P1'
  _symmetry_Int_Tables_number       1
  _symmetry_cell_setting            triclinic
  loop_
  _symmetry_equiv_pos_as_xyz
 x,y,z
_cell_length_a 70.5472
_cell_length_b 70.4740
_cell_length_c 25.6865
_cell_angle_alpha 89.970100
_cell_angle_beta 90.006600
_cell_angle_gamma 119.989200
loop_
  _atom_site_label
  _atom_site_type_symbol
  _atom_site_fract_x
  _atom_site_fract_y
  _atom_site_fract_z
O1 O 0.22349 0.48366 0.45074
 O2 O 0.26089 0.48364 0.55090
 O3 O 0.22386 0.48360 0.55190
 O4 O 0.26052 0.48368 0.44975
 O5 O 0.27858 0.51992 0.44985
 O6 O 0.24193 0.51983 0.55195
 O7 O 0.27894 0.51987 0.55094
 O8 O 0.24158 0.51989 0.45084
 Cu9 Cu 0.24036 0.47999 0.50082
 Cu10 Cu 0.26208 0.52353 0.50089
 C11 C 0.22614 0.50179 0.43414
 C12 C 0.27632 0.50175 0.56758
 C13 C 0.22662 0.50171 0.56891
 C14 C 0.27583 0.50182 0.43282
 O15 O 0.51787 -0.26114 0.44935
 O16 O 0.51936 -0.22330 0.55026
 O17 O 0.51762 -0.26115 0.55044
 O18 O 0.51960 -0.22330 0.44894
 O19 O 0.48343 -0.24013 0.44844
 O20 O 0.48146 -0.27799 0.54998
 O21 O 0.48319 -0.24012 0.54979
 O22 O 0.48171 -0.27798 0.44885
 Cu23 Cu 0.52226 -0.24050 0.49980
 Cu24 Cu 0.47880 -0.26073 0.49921
 C25 C 0.49954 -0.27604 0.43229
 C26 C 0.50153 -0.22527 0.56695
 C27 C 0.49921 -0.27605 0.56710
 C28 C 0.50185 -0.22528 0.43166
 O29 O 1.25784 0.77721 0.45057
 O30 O 1.22132 0.73936 0.55128
 O31 O 1.25744 0.77715 0.55188
 O32 O 1.22171 0.73942 0.45018
 O33 O 1.24097 0.72249 0.45087
 O34 O 1.27671 0.76023 0.55262
 O35 O 1.24057 0.72242 0.55202
 O36 O 1.27711 0.76030 0.45126
 Cu37 Cu 1.23765 0.76001 0.50090
 Cu38 Cu 1.26080 0.73967 0.50177
 C39 C 1.27368 0.77519 0.43402
 C40 C 1.22469 0.72442 0.56843
 C41 C 1.27315 0.77510 0.56930
 C42 C 1.22522 0.72450 0.43360
 O43 O 0.74125 0.52098 0.55049
 O44 O 0.77848 0.52122 0.44943
 O45 O 0.74128 0.52073 0.44920
 O46 O 0.77854 0.52155 0.55069
 O47 O 0.76084 0.48533 0.55130
 O48 O 0.72358 0.48450 0.44983
 O49 O 0.76076 0.48499 0.45008
 O50 O 0.72356 0.48476 0.55109
 Cu51 Cu 0.76167 0.52478 0.49993
 Cu52 Cu 0.74040 0.48124 0.50068
 C53 C 0.72606 0.50282 0.56768
 C54 C 0.77594 0.50314 0.43281
 C55 C 0.72611 0.50248 0.43249
 C56 C 0.77606 0.50358 0.56789
 O57 O 0.48092 0.22119 0.55163
 O58 O 0.48056 0.25822 0.45079
 O59 O 0.48066 0.22127 0.45045
 O60 O 0.48086 0.25818 0.55209
 O61 O 0.51705 0.27633 0.55152
 O62 O 0.51686 0.23943 0.44990
 O63 O 0.51676 0.27637 0.45023
 O64 O 0.51711 0.23933 0.55108
 Cu65 Cu 0.47710 0.23789 0.50132
 Cu66 Cu 0.52059 0.25971 0.50064
 C67 C 0.49906 0.22393 0.56818
 C68 C 0.49860 0.27358 0.43359
 C69 C 0.49873 0.22406 0.43319
 C70 C 0.49899 0.27354 0.56880
 O71 O 0.74054 0.22205 0.45088
 O72 O 0.77817 0.25915 0.55118
 O73 O 0.74083 0.22246 0.55198
 O74 O 0.77784 0.25873 0.44983
 O75 O 0.76021 0.27732 0.44962
 O76 O 0.72323 0.24107 0.55170
 O77 O 0.76055 0.27774 0.55090
 O78 O 0.72293 0.24066 0.45066
 Cu79 Cu 0.76115 0.23874 0.50101
 Cu80 Cu 0.73998 0.26110 0.50071
 C81 C 0.72530 0.22502 0.43409
 C82 C 0.77576 0.27476 0.56783
 C83 C 0.72567 0.22554 0.56876
 C84 C 0.77530 0.27419 0.43259
 O85 O 1.03007 0.54755 0.09619
 O86 O 1.05427 0.54271 0.04604
 C87 C 1.04968 0.55235 0.08274
 O88 O 0.96869 0.44962 0.09038
 O89 O 0.94459 0.45575 0.04314
 C90 C 0.94909 0.44495 0.07700
 O91 O 1.02983 0.48226 0.09683
 O92 O 1.05418 0.51104 0.04609
 C93 C 1.04950 0.49692 0.08319
 O94 O 0.96881 0.51857 0.09132
 O95 O 0.94464 0.48845 0.04387
 C96 C 0.94918 0.50365 0.07805
 Zr97 Zr 0.99948 0.52344 0.06560
 O98 O 0.99748 0.52333 0.14786
 O99 O 1.00047 0.55383 0.05988
 Zr100 Zr 0.99941 0.47530 0.06447
 O101 O 0.99822 0.47161 0.14627
 O102 O 1.00037 0.44601 0.05494
 O103 O 1.01882 0.50903 0.07550
 O104 O 0.98053 0.48991 0.07481
 O105 O 0.96897 0.51923 -0.09039
 O106 O 0.94473 0.48876 -0.04395
 C107 C 0.94933 0.50420 -0.07752
 O108 O 1.03011 0.48222 -0.09660
 O109 O 1.05430 0.51119 -0.04619
 C110 C 1.04972 0.49696 -0.08293
 O111 O 0.96895 0.44990 -0.09201
 O112 O 0.94481 0.45592 -0.04473
 C113 C 0.94933 0.44521 -0.07879
 O114 O 1.03016 0.54802 -0.09559
 O115 O 1.05433 0.54292 -0.04587
 C116 C 1.04978 0.55276 -0.08224
 Zr117 Zr 0.99959 0.52384 -0.06524
 O118 O 0.99719 0.52337 -0.14743
 O119 O 1.00178 0.55490 -0.06250
 Zr120 Zr 0.99954 0.47577 -0.06619
 O121 O 0.99720 0.47444 -0.14842
 O122 O 1.00168 0.44686 -0.06467
 Zr123 Zr 1.03233 0.51599 -0.00013
 Zr124 Zr 0.96685 0.48331 -0.00030
 O125 O 0.98062 0.49037 -0.07542
 O126 O 1.01906 0.50957 -0.07596
 O127 O 0.97989 0.51750 0.00025
 O128 O 1.01879 0.48176 -0.00070
 O129 O 1.01879 0.53667 0.00034
 O130 O 0.97978 0.46206 -0.00092
 H131 H 0.97079 0.48499 0.10564
 H132 H 1.02884 0.47575 -0.00062
 H133 H 0.97087 0.48559 -0.10624
 H134 H 1.02877 0.55275 0.00050
 H135 H 1.00062 0.44073 0.09053
 H136 H 0.98975 0.43618 -0.04202
 H137 H 1.00889 0.48863 -0.16205
 H138 H 1.00863 0.52058 -0.16143
 H139 H 0.99027 0.55368 -0.03842
 H140 H 1.00040 0.55862 0.09612
 H141 H 1.00884 0.52036 0.16167
 H142 H 0.99780 0.48433 0.16097
 O143 O 0.51728 0.54761 -0.09724
 O144 O 0.48828 0.54272 -0.04691
 C145 C 0.50245 0.55238 -0.08371
 O146 O 0.48099 0.44975 -0.09158
 O147 O 0.51117 0.45586 -0.04430
 C148 C 0.49592 0.44508 -0.07820
 O149 O 0.45241 0.48225 -0.09738
 O150 O 0.45679 0.51102 -0.04672
 C151 C 0.44735 0.49688 -0.08373
 O152 O 0.54982 0.51896 -0.09262
 O153 O 0.54404 0.48889 -0.04513
 C154 C 0.55465 0.50412 -0.07932
 Zr155 Zr 0.52392 0.52358 -0.06663
 O156 O 0.52565 0.52342 -0.14891
 O157 O 0.55323 0.55403 -0.06104
 Zr158 Zr 0.47598 0.47537 -0.06525
 O159 O 0.47329 0.47180 -0.14707
 O160 O 0.44586 0.44602 -0.05534
 O161 O 0.49017 0.50910 -0.07635
 O162 O 0.50947 0.49004 -0.07574
 O163 O 0.55043 0.51943 0.08897
 O164 O 0.54424 0.48894 0.04263
 C165 C 0.55510 0.50443 0.07601
 O166 O 0.45232 0.48227 0.09606
 O167 O 0.45692 0.51118 0.04556
 C168 C 0.44737 0.49699 0.08242
 O169 O 0.48143 0.45012 0.09126
 O170 O 0.51165 0.45626 0.04405
 C171 C 0.49645 0.44552 0.07816
 O172 O 0.51782 0.54810 0.09459
 O173 O 0.48851 0.54294 0.04505
 C174 C 0.50289 0.55279 0.08136
 Zr175 Zr 0.52430 0.52398 0.06416
 O176 O 0.52634 0.52354 0.14633
 O177 O 0.55308 0.55508 0.06128
 Zr178 Zr 0.47644 0.47586 0.06539
 O179 O 0.47739 0.47443 0.14761
 O180 O 0.44546 0.44690 0.06390
 Zr181 Zr 0.48364 0.51603 -0.00069
 Zr182 Zr 0.51664 0.48345 -0.00070
 O183 O 0.50995 0.49054 0.07444
 O184 O 0.49060 0.50964 0.07509
 O185 O 0.53765 0.51766 -0.00138
 O186 O 0.46307 0.48180 0.00000
 O187 O 0.51782 0.53678 -0.00136
 O188 O 0.48249 0.46216 0.00011
 H189 H 0.51434 0.48516 -0.10654
 H190 H 0.44701 0.47576 0.00006
 H191 H 0.51498 0.48583 0.10530
 H192 H 0.52386 0.55285 -0.00154
 H193 H 0.44019 0.44078 -0.09085
 H194 H 0.44683 0.43616 0.04171
 H195 H 0.48008 0.48868 0.16125
 H196 H 0.51212 0.52070 0.16046
 H197 H 0.56337 0.55389 0.03713
 H198 H 0.55800 0.55888 -0.09730
 H199 H 0.51120 0.52014 -0.16250
 H200 H 0.48701 0.48375 -0.16182
 O201 O 0.48240 0.02978 0.09600
 O202 O 0.51149 0.05400 0.04596
 C203 C 0.49721 0.04941 0.08251
 O204 O 0.51897 -0.03157 0.09107
 O205 O 0.48885 -0.05573 0.04372
 C206 C 0.50412 -0.05120 0.07764
 O207 O 0.54741 0.02950 0.09699
 O208 O 0.54305 0.05388 0.04622
 C209 C 0.55247 0.04919 0.08331
 O210 O 0.44998 -0.03140 0.09139
 O211 O 0.45588 -0.05564 0.04412
 C212 C 0.44519 -0.05105 0.07809
 Zr213 Zr 0.47592 -0.00085 0.06564
 O214 O 0.47414 -0.00280 0.14792
 O215 O 0.44657 0.00019 0.05991
 Zr216 Zr 0.52392 -0.00095 0.06476
 O217 O 0.52644 -0.00189 0.14662
 O218 O 0.55410 -0.00006 0.05528
 O219 O 0.50964 0.01851 0.07564
 O220 O 0.49041 -0.01989 0.07498
 O221 O 0.44963 -0.03135 -0.09014
 O222 O 0.45590 -0.05565 -0.04411
 C223 C 0.44498 -0.05102 -0.07730
 O224 O 0.54779 0.02970 -0.09639
 O225 O 0.54304 0.05395 -0.04608
 C226 C 0.55267 0.04935 -0.08279
 O227 O 0.51875 -0.03167 -0.09111
 O228 O 0.48846 -0.05589 -0.04410
 C229 C 0.50378 -0.05133 -0.07794
 O230 O 0.48216 0.02987 -0.09553
 O231 O 0.51140 0.05404 -0.04584
 C232 C 0.49704 0.04950 -0.08221
 Zr233 Zr 0.47578 -0.00075 -0.06524
 O234 O 0.47414 -0.00320 -0.14745
 O235 O 0.44696 0.00149 -0.06326
 Zr236 Zr 0.52366 -0.00088 -0.06586
 O237 O 0.52278 -0.00329 -0.14806
 O238 O 0.55467 0.00123 -0.06426
 Zr239 Zr 0.51627 0.03200 -0.00002
 Zr240 Zr 0.48338 -0.03361 -0.00006
 O241 O 0.49017 -0.01981 -0.07521
 O242 O 0.50948 0.01871 -0.07583
 O243 O 0.46234 -0.02046 0.00027
 O244 O 0.53690 0.01842 -0.00043
 O245 O 0.48208 0.01846 0.00031
 O246 O 0.51755 -0.02064 -0.00054
 H247 H 0.48550 -0.02967 0.10575
 H248 H 0.55295 0.02846 -0.00036
 H249 H 0.48521 -0.02958 -0.10601
 H250 H 0.47598 0.02844 0.00038
 H251 H 0.55969 0.00033 0.09087
 H252 H 0.55338 -0.01074 -0.04167
 H253 H 0.52011 0.00827 -0.16180
 H254 H 0.48819 0.00859 -0.16137
 H255 H 0.43682 -0.00965 -0.03822
 H256 H 0.44178 0.00026 0.09614
 H257 H 0.48850 0.00854 0.16158
 H258 H 0.51271 -0.00363 0.16120
 C259 C 1.21109 0.50183 0.39666
 C260 C 1.19816 0.50194 0.36612
 C261 C 1.18243 0.50214 0.33079
 C262 C 1.17698 0.49002 0.28458
 C263 C 1.16122 0.48981 0.25112
 C264 C 1.15071 0.50173 0.26352
 C265 C 1.15644 0.51399 0.30990
 C266 C 1.17217 0.51417 0.34325
 C267 C 1.13351 0.50108 0.22891
 C268 C 1.13223 0.52010 0.21992
 C269 C 1.11554 0.51929 0.18894
 C270 C 1.09993 0.49947 0.16650
 C271 C 1.10121 0.48051 0.17468
 C272 C 1.11789 0.48129 0.20563
 C273 C 1.08228 0.49849 0.13630
 C274 C 1.06736 0.49772 0.11169
 H275 H 1.18484 0.48067 0.27453
 H276 H 1.15736 0.48043 0.21543
 H277 H 1.14842 0.52307 0.32094
 H278 H 1.17618 0.52352 0.37905
 H279 H 1.14416 0.53563 0.23674
 H280 H 1.11471 0.53407 0.18282
 H281 H 1.08915 0.46506 0.15767
 H282 H 1.11826 0.46631 0.21235
 C283 C 0.49900 0.70957 0.39639
 C284 C 0.49857 0.69656 0.36526
 C285 C 0.49814 0.68075 0.32909
 C286 C 0.51216 0.68763 0.28601
 C287 C 0.51231 0.67218 0.25208
 C288 C 0.49841 0.64962 0.26086
 C289 C 0.48421 0.64290 0.30399
 C290 C 0.48410 0.65837 0.33784
 C291 C 0.49910 0.63313 0.22608
 C292 C 0.47970 0.61392 0.21215
 C293 C 0.48047 0.59801 0.18115
 C294 C 0.50060 0.60109 0.16361
 C295 C 0.51995 0.62025 0.17668
 C296 C 0.51923 0.63618 0.20767
 C297 C 0.50146 0.58428 0.13363
 C298 C 0.50216 0.57002 0.10932
 H299 H 0.52310 0.70492 0.27885
 H300 H 0.52323 0.67788 0.21890
 H301 H 0.47355 0.62567 0.31227
 H302 H 0.47326 0.65285 0.37123
 H303 H 0.46394 0.61121 0.22514
 H304 H 0.46539 0.58323 0.17124
 H305 H 0.53563 0.62275 0.16353
 H306 H 0.53446 0.65064 0.21828
 C307 C 0.28819 -0.20974 0.39566
 C308 C 0.30056 -0.19681 0.36409
 C309 C 0.31556 -0.18104 0.32725
 C310 C 0.32355 -0.15868 0.33544
 C311 C 0.33855 -0.14322 0.30062
 C312 C 0.34582 -0.14993 0.25706
 C313 C 0.33758 -0.17247 0.24895
 C314 C 0.32254 -0.18791 0.28384
 C315 C 0.36233 -0.13340 0.22110
 C316 C 0.37960 -0.13595 0.20179
 C317 C 0.39578 -0.11981 0.17018
 C318 C 0.39487 -0.10098 0.15729
 C319 C 0.37755 -0.09849 0.17549
 C320 C 0.36137 -0.11459 0.20715
 C321 C 0.41227 -0.08372 0.12767
 C322 C 0.42714 -0.06896 0.10422
 H323 H 0.31834 -0.15316 0.36904
 H324 H 0.34483 -0.12600 0.30841
 H325 H 0.34268 -0.17815 0.21551
 H326 H 0.31644 -0.20518 0.27708
 H327 H 0.38096 -0.15010 0.21234
 H328 H 0.40920 -0.12184 0.15660
 H329 H 0.37669 -0.08397 0.16580
 H330 H 0.34814 -0.11228 0.22082
 C331 C 0.79070 0.50321 0.39427
 C332 C 0.80326 0.50317 0.36248
 C333 C 0.81848 0.50304 0.32530
 C334 C 0.81531 0.48317 0.30551
 C335 C 0.83057 0.48294 0.27114
 C336 C 0.84924 0.50262 0.25611
 C337 C 0.85211 0.52254 0.27566
 C338 C 0.83683 0.52273 0.31005
 C339 C 0.86600 0.50233 0.22153
 C340 C 0.87643 0.51838 0.18270
 C341 C 0.89277 0.51850 0.15157
 C342 C 0.89888 0.50259 0.15881
 C343 C 0.88843 0.48643 0.19690
 C344 C 0.87210 0.48627 0.22803
 C345 C 0.91637 0.50319 0.12861
 C346 C 0.93124 0.50352 0.10469
 H347 H 0.80115 0.46783 0.31700
 H348 H 0.82774 0.46736 0.25627
 H349 H 0.86645 0.53794 0.26544
 H350 H 0.83950 0.53821 0.32531
 H351 H 0.87192 0.53079 0.17631
 H352 H 0.90076 0.53109 0.12219
 H353 H 0.89311 0.47411 0.20306
 H354 H 0.86464 0.47390 0.25804
 C355 C 0.49848 0.28827 0.39506
 C356 C 0.49838 0.30082 0.36325
 C357 C 0.49827 0.31605 0.32602
 C358 C 0.47864 0.31539 0.31353
 C359 C 0.47862 0.33073 0.27900
 C360 C 0.49828 0.34699 0.25653
 C361 C 0.51790 0.34733 0.26882
 C362 C 0.51787 0.33197 0.30334
 C363 C 0.49840 0.36392 0.22176
 C364 C 0.51514 0.38594 0.22578
 C365 C 0.51484 0.40204 0.19459
 C366 C 0.49786 0.39641 0.15891
 C367 C 0.48127 0.37452 0.15410
 C368 C 0.48153 0.35837 0.18529
 C369 C 0.49713 0.41327 0.12878
 C370 C 0.49670 0.42777 0.10488
 H371 H 0.46338 0.30320 0.33103
 H372 H 0.46330 0.33020 0.27092
 H373 H 0.53326 0.35946 0.25168
 H374 H 0.53316 0.33262 0.31268
 H375 H 0.52818 0.39081 0.25396
 H376 H 0.52770 0.41895 0.19886
 H377 H 0.46804 0.36997 0.12660
 H378 H 0.46856 0.34154 0.18084
 C379 C 0.71015 0.21010 0.39646
 C380 C 0.69711 0.19731 0.36572
 C381 C 0.68121 0.18174 0.33001
 C382 C 0.65897 0.17462 0.33700
 C383 C 0.64338 0.15894 0.30358
 C384 C 0.64982 0.15012 0.26266
 C385 C 0.67225 0.15754 0.25565
 C386 C 0.68783 0.17325 0.28913
 C387 C 0.63315 0.13289 0.22830
 C388 C 0.63526 0.11487 0.21287
 C389 C 0.61919 0.09826 0.18210
 C390 C 0.60082 0.09942 0.16625
 C391 C 0.59867 0.11738 0.18089
 C392 C 0.61472 0.13402 0.21168
 C393 C 0.58391 0.08190 0.13618
 C394 C 0.56962 0.06705 0.11167
 H395 H 0.65366 0.18100 0.36868
 H396 H 0.62624 0.15335 0.31050
 H397 H 0.67775 0.15127 0.22416
 H398 H 0.70500 0.17866 0.28333
 H399 H 0.64908 0.11336 0.22559
 H400 H 0.62097 0.08438 0.17121
 H401 H 0.58452 0.11846 0.16880
 H402 H 0.61276 0.14780 0.22234
 C403 C 0.49916 0.20987 -0.39579
 C404 C 0.49918 0.19712 -0.36449
 C405 C 0.49911 0.18155 -0.32803
 C406 C 0.47971 0.16191 -0.31826
 C407 C 0.47975 0.14635 -0.28453
 C408 C 0.49923 0.15022 -0.26012
 C409 C 0.51860 0.17014 -0.26975
 C410 C 0.51852 0.18569 -0.30348
 C411 C 0.49940 0.13329 -0.22591
 C412 C 0.51678 0.12891 -0.22833
 C413 C 0.51653 0.11238 -0.19768
 C414 C 0.49895 0.10003 -0.16414
 C415 C 0.48173 0.10445 -0.16090
 C416 C 0.48194 0.12096 -0.19154
 C417 C 0.49829 0.08241 -0.13429
 C418 C 0.49771 0.06746 -0.11008
 H419 H 0.46461 0.15848 -0.33726
 H420 H 0.46463 0.13107 -0.27853
 H421 H 0.53379 0.17372 -0.25108
 H422 H 0.53363 0.20085 -0.31073
 H423 H 0.53032 0.13789 -0.25486
 H424 H 0.52991 0.10904 -0.20067
 H425 H 0.46805 0.09501 -0.13500
 H426 H 0.46846 0.12412 -0.18828
 C427 C 0.71198 0.50268 -0.39609
 C428 C 0.69921 0.50249 -0.36456
 C429 C 0.68363 0.50215 -0.32780
 C430 C 0.66132 0.48714 -0.33406
 C431 C 0.64603 0.48715 -0.29946
 C432 C 0.65285 0.50221 -0.25805
 C433 C 0.67535 0.51714 -0.25182
 C434 C 0.69062 0.51709 -0.28649
 C435 C 0.63648 0.50266 -0.22241
 C436 C 0.63871 0.52273 -0.20596
 C437 C 0.62273 0.52314 -0.17453
 C438 C 0.60435 0.50352 -0.15899
 C439 C 0.60216 0.48348 -0.17440
 C440 C 0.61811 0.48303 -0.20583
 C441 C 0.58724 0.50394 -0.12934
 C442 C 0.57256 0.50414 -0.10575
 H443 H 0.65571 0.47557 -0.36603
 H444 H 0.62883 0.47567 -0.30582
 H445 H 0.68114 0.52877 -0.22001
 H446 H 0.70786 0.52877 -0.28124
 H447 H 0.65249 0.53811 -0.21858
 H448 H 0.62452 0.53875 -0.16311
 H449 H 0.58799 0.46820 -0.16264
 H450 H 0.61606 0.46732 -0.21724
 C451 C 0.78994 0.28877 -0.39617
 C452 C 0.80270 0.30149 -0.36484
 C453 C 0.81814 0.31703 -0.32834
 C454 C 0.82697 0.33949 -0.33702
 C455 C 0.84232 0.35471 -0.30241
 C456 C 0.84910 0.34767 -0.25855
 C457 C 0.84005 0.32503 -0.24999
 C458 C 0.82466 0.30983 -0.28468
 C459 C 0.86586 0.36393 -0.22263
 C460 C 0.88260 0.36066 -0.20267
 C461 C 0.89900 0.37652 -0.17100
 C462 C 0.89886 0.39579 -0.15873
 C463 C 0.88206 0.39901 -0.17760
 C464 C 0.86567 0.38320 -0.20928
 C465 C 0.91645 0.41275 -0.12891
 C466 C 0.93138 0.42735 -0.10525
 H467 H 0.82212 0.34525 -0.37082
 H468 H 0.84922 0.37200 -0.31057
 H469 H 0.84475 0.31910 -0.21630
 H470 H 0.81793 0.29247 -0.27756
 H471 H 0.88336 0.34614 -0.21273
 H472 H 0.91200 0.37392 -0.15687
 H473 H 0.88180 0.41388 -0.16840
 H474 H 0.85285 0.38606 -0.22341
 C475 C 0.50215 -0.21020 -0.39463
 C476 C 0.50274 -0.19727 -0.36302
 C477 C 0.50351 -0.18153 -0.32613
 C478 C 0.51837 -0.15922 -0.33337
 C479 C 0.51877 -0.14377 -0.29862
 C480 C 0.50427 -0.15042 -0.25606
 C481 C 0.48951 -0.17292 -0.24884
 C482 C 0.48915 -0.18836 -0.28366
 C483 C 0.50424 -0.13388 -0.22028
 C484 C 0.48438 -0.13605 -0.20244
 C485 C 0.48433 -0.11988 -0.17101
 C486 C 0.50408 -0.10138 -0.15684
 C487 C 0.52393 -0.09926 -0.17358
 C488 C 0.52402 -0.11540 -0.20504
 C489 C 0.50398 -0.08406 -0.12738
 C490 C 0.50390 -0.06926 -0.10403
 H491 H 0.52948 -0.15373 -0.36624
 H492 H 0.53010 -0.12657 -0.30572
 H493 H 0.47832 -0.17858 -0.21615
 H494 H 0.47760 -0.20560 -0.27764
 H495 H 0.46887 -0.14993 -0.21401
 H496 H 0.46886 -0.12161 -0.15857
 H497 H 0.53932 -0.08500 -0.16289
 H498 H 0.53958 -0.11339 -0.21755
 C499 C 0.29059 0.50178 -0.39696
 C500 C 0.30359 0.50186 -0.36633
 C501 C 0.31948 0.50203 -0.33088
 C502 C 0.31271 0.48893 -0.28614
 C503 C 0.32823 0.48867 -0.25266
 C504 C 0.35073 0.50153 -0.26355
 C505 C 0.35735 0.51477 -0.30843
 C506 C 0.34182 0.51499 -0.34183
 C507 C 0.36727 0.50084 -0.22898
 C508 C 0.38708 0.52009 -0.21774
 C509 C 0.40297 0.51928 -0.18682
 C510 C 0.39929 0.49926 -0.16669
 C511 C 0.37955 0.48007 -0.17710
 C512 C 0.36362 0.48084 -0.20798
 C513 C 0.41603 0.49834 -0.13662
 C514 C 0.43023 0.49762 -0.11211
 H515 H 0.29546 0.47885 -0.27727
 H516 H 0.32263 0.47851 -0.21813
 H517 H 0.37451 0.52460 -0.31833
 H518 H 0.34724 0.52510 -0.37650
 H519 H 0.39026 0.53577 -0.23275
 H520 H 0.41820 0.53424 -0.17896
 H521 H 0.37657 0.46447 -0.16190
 H522 H 0.34867 0.46570 -0.21645
 C523 C 1.21079 0.71005 -0.39569
 C524 C 1.19816 0.69708 -0.36456
 C525 C 1.18273 0.68133 -0.32837
 C526 C 1.17636 0.65916 -0.33329
 C527 C 1.16070 0.64368 -0.29960
 C528 C 1.15115 0.65018 -0.26050
 C529 C 1.15786 0.67255 -0.25549
 C530 C 1.17354 0.68801 -0.28923
 C531 C 1.13386 0.63360 -0.22610
 C532 C 1.11535 0.63525 -0.21310
 C533 C 1.09868 0.61922 -0.18235
 C534 C 1.10026 0.60135 -0.16412
 C535 C 1.11870 0.59968 -0.17629
 C536 C 1.13540 0.61569 -0.20705
 C537 C 1.08265 0.58441 -0.13429
 C538 C 1.06772 0.57006 -0.11009
 H539 H 1.18328 0.65379 -0.36363
 H540 H 1.15567 0.62656 -0.30497
 H541 H 1.15102 0.67810 -0.22540
 H542 H 1.17835 0.70514 -0.28507
 H543 H 1.11351 0.64865 -0.22774
 H544 H 1.08442 0.62062 -0.17339
 H545 H 1.12010 0.58591 -0.16236
 H546 H 1.14955 0.61409 -0.21584
 C547 C 0.79109 0.50389 -0.39414
 C548 C 0.80410 0.50411 -0.36338
 C549 C 0.82005 0.50431 -0.32816
 C550 C 0.81562 0.50080 -0.27480
 C551 C 0.83111 0.50062 -0.24108
 C552 C 0.85118 0.50387 -0.26048
 C553 C 0.85551 0.50757 -0.31411
 C554 C 0.84004 0.50778 -0.34766
 C555 C 0.86754 0.50327 -0.22525
 C556 C 0.87909 0.49277 -0.24106
 C557 C 0.89503 0.49277 -0.20888
 C558 C 0.89966 0.50321 -0.16046
 C559 C 0.88806 0.51344 -0.14394
 C560 C 0.87203 0.51343 -0.17610
 C561 C 0.91678 0.50382 -0.12883
 C562 C 0.93148 0.50413 -0.10428
 H563 H 0.80015 0.49805 -0.25934
 H564 H 0.82726 0.49756 -0.20006
 H565 H 0.87094 0.51048 -0.33007
 H566 H 0.84367 0.51059 -0.38887
 H567 H 0.87575 0.48450 -0.27828
 H568 H 0.90387 0.48474 -0.22196
 H569 H 0.89157 0.52163 -0.10656
 H570 H 0.86352 0.52178 -0.16308
 C571 C 0.49909 0.28830 -0.39267
 C572 C 0.49925 0.30100 -0.36108
 C573 C 0.49951 0.31654 -0.32438
 C574 C 0.51333 0.33898 -0.33279
 C575 C 0.51320 0.35421 -0.29825
 C576 C 0.49919 0.34719 -0.25477
 C577 C 0.48547 0.32457 -0.24639
 C578 C 0.48564 0.30935 -0.28102
 C579 C 0.49855 0.36346 -0.21924
 C580 C 0.47845 0.36034 -0.20041
 C581 C 0.47777 0.37627 -0.16931
 C582 C 0.49715 0.39546 -0.15654
 C583 C 0.51725 0.39853 -0.17423
 C584 C 0.51797 0.38264 -0.20533
 C585 C 0.49640 0.41249 -0.12741
 C586 C 0.49601 0.42716 -0.10425
 H587 H 0.52405 0.34471 -0.36639
 H588 H 0.52370 0.37150 -0.30623
 H589 H 0.47468 0.31867 -0.21297
 H590 H 0.47488 0.29201 -0.27415
 H591 H 0.46321 0.34589 -0.21096
 H592 H 0.46212 0.37380 -0.15605
 H593 H 0.53235 0.41334 -0.16458
 H594 H 0.53370 0.38537 -0.21865
 C595 C 0.71063 0.21083 -0.39324
 C596 C 0.69757 0.19813 -0.36242
 C597 C 0.68154 0.18260 -0.32696
 C598 C 0.65931 0.17247 -0.33967
 C599 C 0.64365 0.15682 -0.30636
 C600 C 0.65003 0.15105 -0.25982
 C601 C 0.67242 0.16146 -0.24714
 C602 C 0.68808 0.17714 -0.28054
 C603 C 0.63339 0.13385 -0.22545
 C604 C 0.63737 0.11807 -0.20231
 C605 C 0.62130 0.10128 -0.17188
 C606 C 0.60110 0.10008 -0.16408
 C607 C 0.59710 0.11588 -0.18629
 C608 C 0.61313 0.13266 -0.21676
 C609 C 0.58425 0.08230 -0.13460
 C610 C 0.56993 0.06729 -0.11060
 H611 H 0.65409 0.17649 -0.37566
 H612 H 0.62659 0.14887 -0.31760
 H613 H 0.67781 0.15753 -0.21132
 H614 H 0.70525 0.18490 -0.27035
 H615 H 0.65268 0.11837 -0.20883
 H616 H 0.62452 0.08907 -0.15503
 H617 H 0.58152 0.11511 -0.18043
 H618 H 0.60969 0.14472 -0.23350
 C619 C 1.21181 0.50170 -0.39288
 C620 C 1.19906 0.50177 -0.36179
 C621 C 1.18348 0.50191 -0.32588
 C622 C 1.17699 0.51760 -0.33115
 C623 C 1.16120 0.51730 -0.29781
 C624 C 1.15164 0.50124 -0.25873
 C625 C 1.15845 0.48566 -0.25336
 C626 C 1.17427 0.48601 -0.28677
 C627 C 1.13423 0.50042 -0.22474
 C628 C 1.11566 0.48022 -0.21226
 C629 C 1.09884 0.47950 -0.18205
 C630 C 1.10035 0.49892 -0.16386
 C631 C 1.11886 0.51908 -0.17549
 C632 C 1.13571 0.51984 -0.20571
 C633 C 1.08264 0.49820 -0.13453
 C634 C 1.06766 0.49760 -0.11063
 H635 H 1.18393 0.52991 -0.36150
 H636 H 1.15607 0.52930 -0.30344
 H637 H 1.15158 0.47326 -0.22326
 H638 H 1.17918 0.47378 -0.28238
 H639 H 1.11390 0.46502 -0.22693
 H640 H 1.08453 0.46382 -0.17345
 H641 H 1.12020 0.53421 -0.16157
 H642 H 1.14992 0.53561 -0.21411
 C643 C 0.49849 0.70953 -0.39687
 C644 C 0.49791 0.69646 -0.36572
 C645 C 0.49734 0.68056 -0.32964
 C646 C 0.51081 0.68735 -0.28559
 C647 C 0.51091 0.67182 -0.25185
 C648 C 0.49752 0.64928 -0.26181
 C649 C 0.48384 0.64265 -0.30587
 C650 C 0.48377 0.65819 -0.33953
 C651 C 0.49824 0.63273 -0.22734
 C652 C 0.47894 0.61318 -0.21478
 C653 C 0.47979 0.59722 -0.18414
 C654 C 0.49990 0.60059 -0.16561
 C655 C 0.51915 0.62009 -0.17733
 C656 C 0.51835 0.63608 -0.20795
 C657 C 0.50085 0.58378 -0.13590
 C658 C 0.50163 0.56954 -0.11171
 H659 H 0.52137 0.70463 -0.27757
 H660 H 0.52142 0.67743 -0.21793
 H661 H 0.47358 0.62544 -0.31503
 H662 H 0.47337 0.65276 -0.37368
 H663 H 0.46320 0.61024 -0.22859
 H664 H 0.46478 0.58218 -0.17525
 H665 H 0.53481 0.62282 -0.16338
 H666 H 0.53351 0.65080 -0.21753
 C667 C 0.28739 -0.20985 -0.39204
 C668 C 0.29959 -0.19692 -0.36029
 C669 C 0.31445 -0.18115 -0.32334
 C670 C 0.32140 -0.18802 -0.27985
 C671 C 0.33644 -0.17257 -0.24504
 C672 C 0.34470 -0.15004 -0.25334
 C673 C 0.33742 -0.14334 -0.29691
 C674 C 0.32241 -0.15880 -0.33164
 C675 C 0.36133 -0.13350 -0.21773
 C676 C 0.36048 -0.11462 -0.20385
 C677 C 0.37683 -0.09847 -0.17271
 C678 C 0.39420 -0.10098 -0.15496
 C679 C 0.39498 -0.11988 -0.16770
 C680 C 0.37864 -0.13607 -0.19880
 C681 C 0.41178 -0.08366 -0.12597
 C682 C 0.42678 -0.06888 -0.10300
 H683 H 0.31531 -0.20529 -0.27305
 H684 H 0.34155 -0.17823 -0.21157
 H685 H 0.34372 -0.12612 -0.30483
 H686 H 0.31722 -0.15331 -0.36533
 H687 H 0.34722 -0.11231 -0.21723
 H688 H 0.37608 -0.08389 -0.16312
 H689 H 0.40844 -0.12191 -0.15445
 H690 H 0.37990 -0.15027 -0.20931
 C691 C 0.50264 -0.21022 0.39303
 C692 C 0.50332 -0.19730 0.36126
 C693 C 0.50418 -0.18156 0.32424
 C694 C 0.51916 -0.15928 0.33123
 C695 C 0.51957 -0.14382 0.29648
 C696 C 0.50494 -0.15046 0.25421
 C697 C 0.49007 -0.17293 0.24720
 C698 C 0.48970 -0.18838 0.28202
 C699 C 0.50484 -0.13390 0.21861
 C700 C 0.48494 -0.13597 0.20150
 C701 C 0.48482 -0.11976 0.17034
 C702 C 0.50456 -0.10133 0.15575
 C703 C 0.52444 -0.09932 0.17174
 C704 C 0.52460 -0.11549 0.20293
 C705 C 0.50440 -0.08397 0.12662
 C706 C 0.50428 -0.06914 0.10352
 H707 H 0.53036 -0.15382 0.36393
 H708 H 0.53099 -0.12663 0.30339
 H709 H 0.47878 -0.17856 0.21472
 H710 H 0.47804 -0.20560 0.27623
 H711 H 0.46945 -0.14979 0.21345
 H712 H 0.46933 -0.12140 0.15845
 H713 H 0.53981 -0.08510 0.16071
 H714 H 0.54018 -0.11357 0.21492
 C715 C 0.29068 0.50189 0.39465
 C716 C 0.30354 0.50201 0.36359
 C717 C 0.31931 0.50222 0.32775
 C718 C 0.31244 0.48812 0.28481
 C719 C 0.32789 0.48783 0.25121
 C720 C 0.35042 0.50166 0.26020
 C721 C 0.35712 0.51593 0.30319
 C722 C 0.34166 0.51618 0.33671
 C723 C 0.36692 0.50088 0.22576
 C724 C 0.38613 0.52027 0.21177
 C725 C 0.40208 0.51943 0.18118
 C726 C 0.39903 0.49923 0.16414
 C727 C 0.37986 0.47989 0.17725
 C728 C 0.36389 0.48069 0.20783
 C729 C 0.41586 0.49834 0.13451
 C730 C 0.43015 0.49765 0.11038
 H731 H 0.29516 0.47725 0.27753
 H732 H 0.32222 0.47685 0.21811
 H733 H 0.37433 0.52653 0.31162
 H734 H 0.34715 0.52708 0.37000
 H735 H 0.38880 0.53607 0.22442
 H736 H 0.41686 0.53451 0.17121
 H737 H 0.37740 0.46416 0.16445
 H738 H 0.34943 0.46547 0.21852
 C739 C 1.21080 0.70933 0.39540
 C740 C 1.19832 0.69632 0.36419
 C741 C 1.18301 0.68051 0.32800
 C742 C 1.17516 0.65817 0.33604
 C743 C 1.15953 0.64267 0.30240
 C744 C 1.15149 0.64934 0.26024
 C745 C 1.15970 0.67187 0.25210
 C746 C 1.17535 0.68735 0.28580
 C747 C 1.13417 0.63281 0.22592
 C748 C 1.11670 0.63558 0.20922
 C749 C 1.09990 0.61959 0.17872
 C750 C 1.10034 0.60066 0.16445
 C751 C 1.11778 0.59787 0.18028
 C752 C 1.13460 0.61384 0.21079
 C753 C 1.08260 0.58382 0.13485
 C754 C 1.06761 0.56955 0.11071
 H755 H 1.18089 0.65270 0.36876
 H756 H 1.15332 0.62545 0.31015
 H757 H 1.15403 0.67753 0.21964
 H758 H 1.18133 0.70461 0.27924
 H759 H 1.11574 0.64984 0.22080
 H760 H 1.08643 0.62186 0.16686
 H761 H 1.11828 0.58327 0.16941
 H762 H 1.14796 0.61137 0.22248
 C763 C 0.49866 0.20931 0.39472
 C764 C 0.49860 0.19664 0.36316
 C765 C 0.49852 0.18120 0.32646
 C766 C 0.47929 0.16128 0.31783
 C767 C 0.47939 0.14579 0.28405
 C768 C 0.49877 0.15003 0.25850
 C769 C 0.51795 0.17025 0.26691
 C770 C 0.51781 0.18572 0.30071
 C771 C 0.49907 0.13316 0.22451
 C772 C 0.51677 0.12925 0.22636
 C773 C 0.51663 0.11272 0.19606
 C774 C 0.49885 0.09991 0.16348
 C775 C 0.48131 0.10386 0.16078
 C776 C 0.48141 0.12038 0.19107
 C777 C 0.49831 0.08229 0.13409
 C778 C 0.49781 0.06735 0.11018
 H779 H 0.46430 0.15757 0.33780
 H780 H 0.46444 0.13027 0.27895
 H781 H 0.53305 0.17409 0.24733
 H782 H 0.53279 0.20110 0.30713
 H783 H 0.53046 0.13860 0.25221
 H784 H 0.53025 0.10972 0.19859
 H785 H 0.46747 0.09405 0.13562
 H786 H 0.46768 0.12319 0.18830
 C787 C 0.71131 0.50216 0.39380
 C788 C 0.69862 0.50186 0.36195
 C789 C 0.68317 0.50147 0.32484
 C790 C 0.66073 0.48789 0.33343
 C791 C 0.64559 0.48793 0.29844
 C792 C 0.65271 0.50161 0.25433
 C793 C 0.67532 0.51509 0.24578
 C794 C 0.69045 0.51500 0.28085
 C795 C 0.63654 0.50217 0.21831
 C796 C 0.63987 0.52222 0.19841
 C797 C 0.62403 0.52285 0.16690
 C798 C 0.60474 0.50347 0.15474
 C799 C 0.60148 0.48341 0.17348
 C800 C 0.61727 0.48274 0.20501
 C801 C 0.58777 0.50420 0.12532
 C802 C 0.57311 0.50451 0.10203
 H803 H 0.65492 0.47744 0.36750
 H804 H 0.62830 0.47762 0.30654
 H805 H 0.68130 0.52562 0.21191
 H806 H 0.70780 0.52557 0.27383
 H807 H 0.65441 0.53748 0.20846
 H808 H 0.62665 0.53848 0.15286
 H809 H 0.58658 0.46831 0.16433
 H810 H 0.61437 0.46703 0.21916
 C811 C 0.79000 0.28865 0.39372
 C812 C 0.80254 0.30114 0.36176
 C813 C 0.81774 0.31643 0.32457
 C814 C 0.82442 0.33870 0.32881
 C815 C 0.83970 0.35378 0.29387
 C816 C 0.84853 0.34678 0.25415
 C817 C 0.84157 0.32432 0.24991
 C818 C 0.82626 0.30925 0.28494
 C819 C 0.86538 0.36297 0.21836
 C820 C 0.88372 0.36119 0.20444
 C821 C 0.90021 0.37715 0.17315
 C822 C 0.89854 0.39501 0.15528
 C823 C 0.88016 0.39670 0.16804
 C824 C 0.86367 0.38079 0.19934
 C825 C 0.91617 0.41219 0.12611
 C826 C 0.93113 0.42695 0.10296
 H827 H 0.81802 0.34444 0.35953
 H828 H 0.84498 0.37098 0.29868
 H829 H 0.84790 0.31841 0.21942
 H830 H 0.82117 0.29204 0.28131
 H831 H 0.88565 0.34783 0.21900
 H832 H 0.91444 0.37576 0.16375
 H833 H 0.87873 0.41049 0.15444
 H834 H 0.84961 0.38245 0.20881
   
