data_POSCAR
  _audit_creation_date              2014-09-24
  _audit_creation_method            'ToBaCCo'
  _symmetry_space_group_name_H-M    'P1'
  _symmetry_Int_Tables_number       1
  _symmetry_cell_setting            triclinic
  loop_
  _symmetry_equiv_pos_as_xyz
 x,y,z
_cell_length_a 55.4593
_cell_length_b 55.6571
_cell_length_c 55.2980
_cell_angle_alpha 88.250700
_cell_angle_beta 87.642900
_cell_angle_gamma 88.806800
loop_
  _atom_site_label
  _atom_site_type_symbol
  _atom_site_fract_x
  _atom_site_fract_y
  _atom_site_fract_z
C1 C 0.75988 0.61172 0.99585
 C2 C 0.75126 0.37275 0.50523
 C3 C 0.25048 -0.13071 0.00797
 C4 C 0.25736 0.10870 0.49841
 C5 C 0.11593 0.49672 0.25857
 C6 C -0.12659 0.00238 0.25159
 C7 C 0.37984 0.51014 0.74056
 C8 C 0.60939 1.00639 0.76622
 C9 C 0.01279 0.24921 -0.12225
 C10 C 0.50038 0.26330 0.11517
 C11 C 0.99081 0.76290 0.61725
 C12 C 0.50509 0.75072 0.37460
 C13 C 0.42384 -0.02292 0.26506
 H14 H 0.42453 -0.00590 0.27392
 C15 C 0.43713 -0.04276 0.27376
 H16 H 0.44820 -0.04072 0.28921
 C17 C 0.40753 -0.04648 0.23498
 H18 H 0.39545 -0.04814 0.22034
 C19 C 0.42053 -0.06670 0.24301
 H20 H 0.41841 -0.08356 0.23414
 N21 N 0.40921 -0.02517 0.24615
 C22 C 0.39123 0.04554 0.21506
 H23 H 0.37195 0.04315 0.21450
 C24 C 0.40133 0.06689 0.20618
 H25 H 0.38959 0.08076 0.19871
 C26 C 0.42962 0.03017 0.22582
 H27 H 0.44049 0.01578 0.23355
 C28 C 0.44055 0.05138 0.21711
 H29 H 0.45988 0.05309 0.21822
 Zn30 Zn 0.38829 0.00080 0.23754
 N31 N 0.40530 0.02787 0.22496
 C32 C 0.37212 0.03247 0.27365
 N33 N 0.37022 0.00968 0.26587
 C34 C 0.35717 -0.00696 0.27899
 C35 C 0.34524 -0.00080 0.30083
 C36 C 0.36053 0.03938 0.29521
 C37 C 0.37933 -0.01155 0.19080
 C38 C 0.36641 -0.01881 0.17133
 C39 C 0.33038 -0.01965 0.19742
 C40 C 0.34404 -0.01218 0.21645
 N41 N 0.36815 -0.00868 0.21288
 H42 H 0.38307 0.04533 0.26348
 H43 H 0.35635 -0.02513 0.27269
 H44 H 0.33508 -0.01432 0.31111
 H45 H 0.36254 0.05762 0.30097
 H46 H 0.39848 -0.00841 0.18844
 H47 H 0.37588 -0.02128 0.15404
 H48 H 0.31128 -0.02270 0.20065
 H49 H 0.33543 -0.00942 0.23405
 C50 C 0.42629 0.07019 0.20734
 C51 C 0.43524 -0.06516 0.26295
 C52 C 0.34162 -0.02322 0.17451
 C53 C 0.34697 0.02266 0.30924
 C54 C 0.09183 1.01783 0.78268
 H55 H 0.08904 1.00089 0.79241
 C56 C 0.08026 1.03877 0.79093
 H57 H 0.06843 1.03770 0.80698
 C58 C 0.11146 1.03984 0.75053
 H59 H 0.12411 1.04036 0.73515
 C60 C 0.10028 1.06116 0.75810
 H61 H 0.10433 1.07775 0.74819
 N62 N 0.10719 1.01875 0.76288
 C63 C 0.11675 0.94609 0.73648
 H64 H 0.13628 0.94541 0.73595
 C65 C 0.10406 0.92676 0.72846
 H66 H 0.11409 0.91127 0.72177
 C67 C 0.08031 0.96757 0.74550
 H68 H 0.07122 0.98366 0.75192
 C69 C 0.06681 0.94859 0.73744
 H70 H 0.04731 0.95023 0.73787
 Zn71 Zn 0.12502 0.99071 0.75419
 N72 N 0.10483 0.96588 0.74496
 C73 C 0.13756 0.95813 0.79166
 N74 N 0.14258 0.98003 0.78134
 C75 C 0.15860 0.99474 0.79116
 C76 C 0.17058 0.98735 0.81201
 C77 C 0.14907 0.95005 0.81237
 C78 C 0.13365 1.00174 0.70592
 C79 C 0.14643 1.00695 0.68429
 C80 C 0.18351 1.00357 0.70571
 C81 C 0.16994 0.99815 0.72704
 N82 N 0.14543 0.99769 0.72676
 H83 H 0.12422 0.94696 0.78420
 H84 H 0.16186 1.01233 0.78296
 H85 H 0.18323 0.99931 0.81961
 H86 H 0.14459 0.93256 0.82018
 H87 H 0.11416 1.00103 0.70621
 H88 H 0.13650 1.01037 0.66804
 H89 H 0.20298 1.00418 0.70625
 H90 H 0.17898 0.99445 0.74372
 C91 C 0.07874 0.92783 0.72877
 C92 C 0.08468 1.06090 0.77876
 C93 C 0.17170 1.00814 0.68397
 C94 C 0.16580 0.96471 0.82291
 C95 C 0.59291 0.52134 0.28101
 H96 H 0.59060 0.50425 0.29059
 C97 C 0.58040 0.54181 0.28920
 H98 H 0.56835 0.54022 0.30504
 C99 C 0.61220 0.54423 0.24928
 H100 H 0.62504 0.54529 0.23410
 C101 C 0.60007 0.56508 0.25680
 H102 H 0.60362 0.58187 0.24702
 N103 N 0.60852 0.52291 0.26144
 C104 C 0.62070 0.45082 0.23426
 H105 H 0.64022 0.45072 0.23389
 C106 C 0.60869 0.43121 0.22588
 H107 H 0.61924 0.41609 0.21908
 C108 C 0.58356 0.47110 0.24326
 H109 H 0.57393 0.48683 0.24982
 C110 C 0.57074 0.45181 0.23487
 H111 H 0.55121 0.45285 0.23518
 Zn112 Zn 0.62736 0.49550 0.25269
 N113 N 0.60810 0.47015 0.24291
 C114 C 0.64081 0.46282 0.28983
 N115 N 0.64491 0.48510 0.27993
 C116 C 0.66025 0.50030 0.29008
 C117 C 0.67253 0.49303 0.31076
 C118 C 0.65267 0.45485 0.31037
 C119 C 0.63658 0.50735 0.20461
 C120 C 0.64969 0.51291 0.18324
 C121 C 0.68636 0.50991 0.20538
 C122 C 0.67246 0.50415 0.22641
 N123 N 0.64800 0.50331 0.22565
 H124 H 0.62801 0.45123 0.28210
 H125 H 0.66279 0.51814 0.28219
 H126 H 0.68466 0.50537 0.31858
 H127 H 0.64898 0.43703 0.31784
 H128 H 0.61712 0.50631 0.20450
 H129 H 0.64005 0.51628 0.16681
 H130 H 0.70578 0.51075 0.20630
 H131 H 0.68124 0.50041 0.24323
 C132 C 0.58336 0.43150 0.22602
 C133 C 0.58413 0.56415 0.27719
 C134 C 0.67492 0.51443 0.18343
 C135 C 0.66878 0.46998 0.32118
 C136 C 0.92711 0.47274 0.76630
 H137 H 0.92780 0.48994 0.77482
 C138 C 0.94088 0.45322 0.77498
 H139 H 0.95231 0.45568 0.79009
 C140 C 0.91040 0.44842 0.73708
 H141 H 0.89800 0.44632 0.72280
 C142 C 0.92386 0.42852 0.74510
 H143 H 0.92176 0.41148 0.73657
 N144 N 0.91208 0.46997 0.74780
 C145 C 0.89274 0.53961 0.71534
 H146 H 0.87354 0.53668 0.71490
 C147 C 0.90224 0.56105 0.70600
 H148 H 0.89011 0.57442 0.69827
 C149 C 0.93151 0.52559 0.72642
 H150 H 0.94275 0.51170 0.73450
 C151 C 0.94185 0.54695 0.71726
 H152 H 0.96110 0.54928 0.71838
 Zn153 Zn 0.89077 0.49554 0.73903
 N154 N 0.90727 0.52257 0.72562
 C155 C 0.87482 0.52792 0.77454
 N156 N 0.87297 0.50491 0.76736
 C157 C 0.85994 0.48856 0.78092
 C158 C 0.84790 0.49530 0.80251
 C159 C 0.86312 0.53539 0.79584
 C160 C 0.88121 0.48186 0.69282
 C161 C 0.86795 0.47428 0.67371
 C162 C 0.83220 0.47448 0.70020
 C163 C 0.84620 0.48220 0.71887
 N164 N 0.87031 0.48537 0.71492
 H165 H 0.88573 0.54056 0.76402
 H166 H 0.85914 0.47023 0.77509
 H167 H 0.83769 0.48204 0.81311
 H168 H 0.86505 0.55382 0.80107
 H169 H 0.90037 0.48479 0.69014
 H170 H 0.87718 0.47137 0.65638
 H171 H 0.81308 0.47178 0.70372
 H172 H 0.83781 0.48551 0.73646
 C173 C 0.92706 0.56514 0.70712
 C174 C 0.93906 0.43061 0.76458
 C175 C 0.84312 0.47030 0.67727
 C176 C 0.84949 0.51903 0.81024
 C177 C 0.27351 0.42639 -0.02744
 H178 H 0.28189 0.42772 -0.01023
 C179 C 0.28218 0.43990 -0.04759
 H180 H 0.29717 0.45174 -0.04562
 C181 C 0.24456 0.40842 -0.05111
 H182 H 0.23036 0.39566 -0.05269
 C183 C 0.25257 0.42160 -0.07163
 H184 H 0.24413 0.41891 -0.08862
 N185 N 0.25513 0.41089 -0.02959
 C186 C 0.22290 0.39295 0.04158
 H187 H 0.22271 0.37370 0.03946
 C188 C 0.21355 0.40282 0.06286
 H189 H 0.20604 0.39090 0.07693
 C190 C 0.23332 0.43153 0.02560
 H191 H 0.24113 0.44255 0.01100
 C192 C 0.22408 0.44224 0.04674
 H193 H 0.22487 0.46156 0.04821
 Zn194 Zn 0.24614 0.39023 -0.00300
 N195 N 0.23287 0.40723 0.02365
 C196 C 0.28144 0.37603 0.02976
 N197 N 0.27412 0.37302 0.00690
 C198 C 0.28719 0.35911 -0.00889
 C199 C 0.30832 0.34719 -0.00163
 C200 C 0.30229 0.36451 0.03772
 C201 C 0.20000 0.38006 -0.01590
 C202 C 0.18060 0.36652 -0.02245
 C203 C 0.20624 0.33092 -0.02073
 C204 C 0.22521 0.34521 -0.01406
 N205 N 0.22182 0.36936 -0.01211
 H206 H 0.27137 0.38769 0.04188
 H207 H 0.28129 0.35741 -0.02715
 H208 H 0.31849 0.33619 -0.01442
 H209 H 0.30761 0.36732 0.05602
 H210 H 0.19775 0.39926 -0.01392
 H211 H 0.16350 0.37559 -0.02557
 H212 H 0.20930 0.31176 -0.02242
 H213 H 0.24256 0.33698 -0.01049
 C214 C 0.21426 0.42775 0.06583
 C215 C 0.27190 0.43732 -0.07018
 C216 C 0.18358 0.34161 -0.02511
 C217 C 0.31609 0.34985 0.02201
 C218 C 0.78061 0.09523 1.02285
 H219 H 0.78987 0.09290 1.00545
 C220 C 0.78884 0.08286 1.04341
 H221 H 0.80437 0.07085 1.04157
 C222 C 0.74976 0.11456 1.04644
 H223 H 0.73497 0.12744 1.04775
 C224 C 0.75733 0.10257 1.06739
 H225 H 0.74795 0.10621 1.08448
 N226 N 0.76148 0.11084 1.02474
 C227 C 0.73444 0.12440 0.95260
 H228 H 0.73485 0.14382 0.95262
 C229 C 0.72523 0.11298 0.93303
 H230 H 0.71865 0.12388 0.91806
 C231 C 0.74210 0.08693 0.97263
 H232 H 0.74840 0.07695 0.98829
 C233 C 0.73285 0.07469 0.95338
 H234 H 0.73227 0.05525 0.95436
 Zn235 Zn 0.75310 0.12998 0.99733
 N236 N 0.74276 0.11136 0.97180
 C237 C 0.79046 0.14413 0.96418
 N238 N 0.78063 0.14760 0.98676
 C239 C 0.79113 0.16228 1.00233
 C240 C 0.81222 0.17443 0.99520
 C241 C 0.81139 0.15590 0.95631
 C242 C 0.70548 0.13896 1.01031
 C243 C 0.68449 0.15194 1.01628
 C244 C 0.70721 0.18854 1.01235
 C245 C 0.72787 0.17477 1.00626
 N246 N 0.72664 0.15041 1.00566
 H247 H 0.78239 0.13185 0.95229
 H248 H 0.78324 0.16434 1.02038
 H249 H 0.82035 0.18597 1.00786
 H250 H 0.81885 0.15269 0.93827
 H251 H 0.70501 0.11958 1.00941
 H252 H 0.66795 0.14229 1.02010
 H253 H 0.70850 0.20789 1.01295
 H254 H 0.74478 0.18355 1.00203
 C255 C 0.72419 0.08779 0.93326
 C256 C 0.77735 0.08672 1.06615
 C257 C 0.68515 0.17708 1.01752
 C258 C 0.82265 0.17124 0.97189
 C259 C 0.27439 0.59983 0.51663
 H260 H 0.28339 0.59857 0.49897
 C261 C 0.28393 0.58754 0.53662
 H262 H 0.30021 0.57668 0.53407
 C263 C 0.24286 0.61643 0.54148
 H264 H 0.22725 0.62821 0.54350
 C265 C 0.25174 0.60446 0.56189
 H266 H 0.24254 0.60703 0.57930
 N267 N 0.25428 0.61403 0.51941
 C268 C 0.22370 0.62692 0.44873
 H269 H 0.22207 0.64629 0.44943
 C270 C 0.21539 0.61516 0.42894
 H271 H 0.20736 0.62574 0.41450
 C272 C 0.23600 0.58988 0.46709
 H273 H 0.24386 0.58016 0.48214
 C274 C 0.22781 0.57730 0.44756
 H275 H 0.22958 0.55789 0.44774
 Zn276 Zn 0.24396 0.63312 0.49268
 N277 N 0.23398 0.61427 0.46716
 C278 C 0.27902 0.65009 0.45834
 N279 N 0.27022 0.65230 0.48150
 C280 C 0.28110 0.66655 0.49718
 C281 C 0.30176 0.67926 0.48971
 C282 C 0.29944 0.66253 0.45011
 C283 C 0.19625 0.63960 0.50734
 C284 C 0.17487 0.65158 0.51413
 C285 C 0.19586 0.68920 0.51002
 C286 C 0.21693 0.67643 0.50317
 N287 N 0.21675 0.65204 0.50223
 H288 H 0.27065 0.63820 0.44628
 H289 H 0.27401 0.66765 0.51564
 H290 H 0.31035 0.69028 0.50253
 H291 H 0.30617 0.66017 0.43166
 H292 H 0.19660 0.62023 0.50615
 H293 H 0.15888 0.64117 0.51827
 H294 H 0.19633 0.70859 0.51086
 H295 H 0.23333 0.68599 0.49861
 C296 C 0.21738 0.59001 0.42810
 C297 C 0.27275 0.59004 0.55972
 C298 C 0.17446 0.67672 0.51567
 C299 C 0.31128 0.67718 0.46589
 C300 C 0.76009 0.92382 0.48122
 H301 H 0.76874 0.92524 0.49829
 C302 C 0.76896 0.93661 0.46070
 H303 H 0.78437 0.94801 0.46225
 C304 C 0.73031 0.90619 0.45831
 H305 H 0.71570 0.89381 0.45719
 C306 C 0.73854 0.91865 0.43741
 H307 H 0.72987 0.91581 0.42057
 N308 N 0.74124 0.90879 0.47962
 C309 C 0.70964 0.89303 0.55163
 H310 H 0.70905 0.87371 0.55027
 C311 C 0.70067 0.90388 0.57258
 H312 H 0.69311 0.89265 0.58720
 C313 C 0.72053 0.93083 0.53405
 H314 H 0.72832 0.94119 0.51895
 C315 C 0.71173 0.94250 0.55479
 H316 H 0.71287 0.96186 0.55545
 Zn317 Zn 0.73235 0.88872 0.50667
 N318 N 0.71965 0.90648 0.53306
 C319 C 0.76800 0.87419 0.53911
 N320 N 0.76043 0.87154 0.51629
 C321 C 0.77355 0.85823 0.50001
 C322 C 0.79510 0.84675 0.50662
 C323 C 0.78930 0.86307 0.54645
 C324 C 0.68589 0.87836 0.49468
 C325 C 0.66670 0.86481 0.48761
 C326 C 0.69283 0.82952 0.48824
 C327 C 0.71156 0.84379 0.49548
 N328 N 0.70786 0.86783 0.49809
 H329 H 0.75782 0.88535 0.55164
 H330 H 0.76742 0.85682 0.48180
 H331 H 0.80536 0.83634 0.49339
 H332 H 0.79489 0.86564 0.56471
 H333 H 0.68343 0.89748 0.49712
 H334 H 0.64952 0.87376 0.48461
 H335 H 0.69619 0.81050 0.48580
 H336 H 0.72905 0.83570 0.49867
 C337 C 0.70186 0.92892 0.57453
 C338 C 0.75841 0.93377 0.43830
 C339 C 0.67009 0.84009 0.48397
 C340 C 0.80327 0.84920 0.53013
 C341 C -0.02182 0.26360 0.41827
 H342 H -0.00454 0.27217 0.41897
 C343 C -0.04172 0.27244 0.43185
 H344 H -0.03947 0.28772 0.44314
 C345 C -0.04589 0.23405 0.40168
 H346 H -0.04767 0.21954 0.38940
 C347 C -0.06620 0.24226 0.41495
 H348 H -0.08329 0.23367 0.41283
 N349 N -0.02428 0.24489 0.40338
 C350 C 0.04664 0.21390 0.38491
 H351 H 0.04477 0.21361 0.36553
 C352 C 0.06767 0.20487 0.39502
 H353 H 0.08182 0.19755 0.38317
 C354 C 0.03023 0.22403 0.42360
 H355 H 0.01555 0.23154 0.43460
 C356 C 0.05107 0.21512 0.43455
 H357 H 0.05221 0.21588 0.45401
 Zn358 Zn 0.00198 0.23619 0.38223
 N359 N 0.02862 0.22356 0.39914
 C360 C 0.03453 0.27193 0.36638
 N361 N 0.01160 0.26427 0.36443
 C362 C -0.00473 0.27738 0.35156
 C363 C 0.00190 0.29910 0.33993
 C364 C 0.04191 0.29336 0.35505
 C365 C -0.01069 0.18986 0.37272
 C366 C -0.01745 0.17041 0.35947
 C367 C -0.01726 0.19626 0.32355
 C368 C -0.01025 0.21527 0.33754
 N369 N -0.00744 0.21178 0.36173
 H370 H 0.04712 0.26177 0.37721
 H371 H -0.02302 0.27117 0.35070
 H372 H -0.01138 0.30940 0.32994
 H373 H 0.06024 0.29903 0.35714
 H374 H -0.00809 0.18756 0.39195
 H375 H -0.02016 0.15322 0.36878
 H376 H -0.01970 0.19938 0.30437
 H377 H -0.00718 0.23275 0.32908
 C378 C 0.07024 0.20557 0.42014
 C379 C -0.06441 0.26200 0.42996
 C380 C -0.02103 0.17346 0.33456
 C381 C 0.02551 0.30740 0.34174
 C382 C 1.01798 0.77464 0.09559
 H383 H 1.00093 0.78415 0.09361
 C384 C 1.03884 0.78316 0.08338
 H385 H 1.03757 0.79918 0.07185
 C386 C 1.04044 0.74286 0.11395
 H387 H 1.04120 0.72755 0.12637
 C388 C 1.06165 0.75070 0.10209
 H389 H 1.07839 0.74103 0.10540
 N390 N 1.01918 0.75493 0.11068
 C391 C 0.94682 0.72693 0.12377
 H392 H 0.94680 0.72628 0.14334
 C393 C 0.92717 0.71838 0.11199
 H394 H 0.91211 0.71118 0.12276
 C395 C 0.96693 0.73685 0.08626
 H396 H 0.98261 0.74385 0.07639
 C397 C 0.94758 0.72835 0.07365
 H398 H 0.94854 0.72901 0.05405
 Zn399 Zn 0.99149 0.74605 0.12985
 N400 N 0.96608 0.73610 0.11089
 C401 C 0.95860 0.78247 0.14451
 N402 N 0.98109 0.77307 0.14786
 C403 C 0.99656 0.78372 0.16251
 C404 C 0.98945 0.80455 0.17471
 C405 C 0.95077 0.80311 0.15634
 C406 C 1.00289 0.69835 0.13844
 C407 C 1.00881 0.67728 0.15122
 C408 C 1.00697 0.69952 0.18813
 C409 C 1.00082 0.72025 0.17458
 N410 N 0.99928 0.71931 0.15014
 H411 H 0.94677 0.77431 0.13226
 H412 H 1.01455 0.77620 0.16446
 H413 H 1.00205 0.81284 0.18619
 H414 H 0.93281 0.81021 0.15318
 H415 H 1.00135 0.69812 0.11901
 H416 H 1.01189 0.66092 0.14135
 H417 H 1.00847 0.70059 0.20753
 H418 H 0.99748 0.73703 0.18357
 C419 C 0.92734 0.71894 0.08658
 C420 C 1.06115 0.77134 0.08685
 C421 C 1.01116 0.67767 0.17638
 C422 C 0.96626 0.81455 0.17160
 C423 C 0.51838 0.27566 0.58506
 H424 H 0.50137 0.28504 0.58245
 C425 C 0.53932 0.28350 0.57250
 H426 H 0.53815 0.29884 0.56007
 C427 C 0.54068 0.24502 0.60541
 H428 H 0.54136 0.23050 0.61876
 C429 C 0.56197 0.25219 0.59323
 H430 H 0.57868 0.24277 0.59724
 N431 N 0.51947 0.25688 0.60132
 C432 C 0.44656 0.23101 0.61633
 H433 H 0.44657 0.23177 0.63585
 C434 C 0.42664 0.22214 0.60526
 H435 H 0.41139 0.21610 0.61654
 C436 C 0.46686 0.23772 0.57825
 H437 H 0.48273 0.24361 0.56789
 C438 C 0.44725 0.22878 0.56635
 H439 H 0.44817 0.22800 0.54679
 Zn440 Zn 0.49171 0.24941 0.62100
 N441 N 0.46605 0.23875 0.60281
 C442 C 0.45969 0.28746 0.63337
 N443 N 0.48185 0.27761 0.63740
 C444 C 0.49749 0.28847 0.65171
 C445 C 0.49081 0.30992 0.66299
 C446 C 0.45230 0.30878 0.64423
 C447 C 0.50312 0.20214 0.63251
 C448 C 0.50873 0.18184 0.64666
 C449 C 0.50558 0.20621 0.68213
 C450 C 0.49983 0.22612 0.66722
 N451 N 0.49909 0.22377 0.64285
 H452 H 0.44776 0.27909 0.62135
 H453 H 0.51523 0.28056 0.65419
 H454 H 0.50351 0.31831 0.67430
 H455 H 0.43457 0.31621 0.64063
 H456 H 0.50213 0.20077 0.61310
 H457 H 0.51214 0.16492 0.63788
 H458 H 0.50639 0.20843 0.70146
 H459 H 0.49610 0.24337 0.67514
 C460 C 0.42677 0.22084 0.57994
 C461 C 0.56159 0.27195 0.57684
 C462 C 0.51025 0.18371 0.67182
 C463 C 0.46792 0.32037 0.65926
 C464 C 0.47831 0.76475 0.92030
 H465 H 0.49532 0.77375 0.92141
 C466 C 0.45814 0.77247 0.93421
 H467 H 0.45990 0.78733 0.94615
 C468 C 0.45516 0.73529 0.90237
 H469 H 0.45379 0.72129 0.88945
 C470 C 0.43462 0.74235 0.91596
 H471 H 0.41781 0.73339 0.91341
 N472 N 0.47642 0.74663 0.90458
 C473 C 0.54802 0.71814 0.88464
 H474 H 0.54609 0.71868 0.86524
 C475 C 0.56929 0.70915 0.89427
 H476 H 0.58356 0.70269 0.88204
 C477 C 0.53153 0.72617 0.92384
 H478 H 0.51672 0.73286 0.93522
 C479 C 0.55261 0.71725 0.93433
 H480 H 0.55381 0.71716 0.95382
 Zn481 Zn 0.50288 0.73946 0.88304
 N482 N 0.52983 0.72674 0.89936
 C483 C 0.53451 0.77658 0.86893
 N484 N 0.51183 0.76844 0.86642
 C485 C 0.49533 0.78157 0.85381
 C486 C 0.50153 0.80378 0.84294
 C487 C 0.54146 0.79851 0.85839
 C488 C 0.49109 0.69335 0.87166
 C489 C 0.48458 0.67435 0.85765
 C490 C 0.48456 0.70149 0.82269
 C491 C 0.49126 0.72003 0.83744
 N492 N 0.49403 0.71569 0.86152
 H493 H 0.54723 0.76638 0.87957
 H494 H 0.47723 0.77496 0.85251
 H495 H 0.48813 0.81405 0.83311
 H496 H 0.55960 0.80454 0.86087
 H497 H 0.49367 0.69038 0.89082
 H498 H 0.48210 0.65681 0.86630
 H499 H 0.48215 0.70529 0.80362
 H500 H 0.49410 0.73784 0.82965
 C501 C 0.57193 0.70877 0.91942
 C502 C 0.43579 0.76149 0.93181
 C503 C 0.48102 0.67829 0.83283
 C504 C 0.52489 0.81255 0.84529
 N505 N 0.50385 -0.18655 0.34832
 C506 C 0.48931 -0.18855 0.32943
 N507 N 0.48057 -0.21041 0.32464
 N508 N 0.48615 -0.22967 0.33839
 C509 C 0.50069 -0.22777 0.35745
 N510 N 0.50940 -0.20577 0.36207
 C511 C 0.48188 -0.16742 0.31592
 C512 C 0.47517 -0.14936 0.30537
 C513 C 0.46649 -0.12770 0.29359
 N514 N 0.45389 -0.12875 0.27319
 N515 N 0.44446 -0.10880 0.26317
 C516 C 0.44723 -0.08706 0.27319
 N517 N 0.46006 -0.08612 0.29355
 N518 N 0.46949 -0.10607 0.30358
 N519 N 0.98462 0.28747 0.82937
 C520 C 0.99589 0.30869 0.83125
 N521 N 1.01335 0.31037 0.84749
 N522 N 1.01915 0.29153 0.86165
 C523 C 1.00763 0.27029 0.86024
 N524 N 0.99044 0.26860 0.84354
 C525 C 0.98815 0.32965 0.81767
 C526 C 0.98110 0.34753 0.80707
 C527 C 0.97194 0.36894 0.79521
 N528 N 0.97476 0.39074 0.80492
 N529 N 0.96481 0.41043 0.79488
 C530 C 0.95163 0.40904 0.77480
 N531 N 0.94905 0.38714 0.76506
 N532 N 0.95899 0.36746 0.77509
 N533 N 0.01411 1.18700 0.85360
 C534 C 0.03340 1.18766 0.83780
 N535 N 0.04564 1.20842 0.83443
 N536 N 0.03889 1.22787 0.84668
 C537 C 0.01975 1.22723 0.86290
 N538 N 0.00738 1.20641 0.86584
 C539 C 0.04145 1.16620 0.82588
 C540 C 0.04826 1.14780 0.81662
 C541 C 0.05660 1.12560 0.80631
 N542 N 0.07063 1.12568 0.78567
 N543 N 0.07920 1.10509 0.77673
 C544 C 0.07409 1.08368 0.78809
 N545 N 0.05989 1.08373 0.80872
 N546 N 0.05131 1.10431 0.81767
 N547 N 0.50721 0.68860 0.35017
 C548 C 0.52716 0.68923 0.33521
 N549 N 0.53950 0.70997 0.33241
 N550 N 0.53225 0.72941 0.34443
 C551 C 0.51247 0.72881 0.35983
 N552 N 0.49998 0.70801 0.36218
 C553 C 0.53584 0.66779 0.32363
 C554 C 0.54337 0.64953 0.31456
 C555 C 0.55276 0.62765 0.30436
 N556 N 0.56709 0.62831 0.28392
 N557 N 0.57671 0.60809 0.27510
 C558 C 0.57240 0.58647 0.28640
 N559 N 0.55790 0.58593 0.30683
 N560 N 0.54827 0.60615 0.31565
 N561 N 0.51630 0.29746 0.16947
 C562 C 0.51933 0.31992 0.15975
 N563 N 0.51572 0.32399 0.13589
 N564 N 0.50930 0.30618 0.12213
 C565 C 0.50624 0.28359 0.13170
 N566 N 0.50984 0.27961 0.15570
 C567 C 0.52814 0.33880 0.17391
 C568 C 0.53657 0.35481 0.18487
 C569 C 0.54794 0.37383 0.19683
 N570 N 0.53518 0.39360 0.20401
 N571 N 0.54629 0.41182 0.21366
 C572 C 0.57057 0.41095 0.21636
 N573 N 0.58316 0.39100 0.20923
 N574 N 0.57207 0.37281 0.19962
 N575 N 0.00596 0.79657 0.67220
 C576 C 0.01160 0.81845 0.66233
 N577 N 0.01014 0.82227 0.63813
 N578 N 0.00332 0.80478 0.62419
 C579 C -0.00217 0.78272 0.63387
 N580 N -0.00090 0.77904 0.65824
 C581 C 0.02076 0.83689 0.67681
 C582 C 0.02956 0.85255 0.68797
 C583 C 0.04144 0.87114 0.70004
 N584 N 0.02935 0.89146 0.70680
 N585 N 0.04105 0.90935 0.71637
 C586 C 0.06525 0.90761 0.71938
 N587 N 0.07715 0.88712 0.71269
 N588 N 0.06549 0.86926 0.70318
 N589 N 0.99630 0.70675 0.65574
 C590 C 0.97434 0.69686 0.65386
 N591 N 0.95748 0.70873 0.64080
 N592 N 0.96241 0.72976 0.62980
 C593 C 0.98438 0.73984 0.63151
 N594 N 1.00125 0.72784 0.64473
 C595 C 0.96896 0.67374 0.66471
 C596 C 0.96308 0.65435 0.67302
 C597 C 0.95432 0.63156 0.68204
 N598 N 0.93056 0.62685 0.68091
 N599 N 0.92207 0.60573 0.68881
 C600 C 0.93699 0.58844 0.69811
 N601 N 0.96087 0.59324 0.69919
 N602 N 0.96941 0.61443 0.69126
 N603 N 0.46839 0.21970 0.15755
 C604 C 0.48130 0.19906 0.15407
 N605 N 0.50087 0.19935 0.13862
 N606 N 0.50720 0.21961 0.12681
 C607 C 0.49413 0.24036 0.12985
 N608 N 0.47473 0.23998 0.14574
 C609 C 0.47323 0.17679 0.16506
 C610 C 0.46580 0.15799 0.17348
 C611 C 0.45597 0.13570 0.18267
 N612 N 0.47045 0.11779 0.19141
 N613 N 0.46111 0.09694 0.19928
 C614 C 0.43698 0.09325 0.19860
 N615 N 0.42264 0.11130 0.18981
 N616 N 0.43195 0.13210 0.18196
 N617 N 0.32724 0.50028 -0.21560
 C618 C 0.33844 0.49214 -0.19550
 N619 N 0.36281 0.48994 -0.19622
 N620 N 0.37562 0.49579 -0.21633
 C621 C 0.36461 0.50412 -0.23655
 N622 N 0.34009 0.50615 -0.23576
 C623 C 0.32485 0.48508 -0.17388
 C624 C 0.31423 0.47845 -0.15549
 C625 C 0.30236 0.46963 -0.13352
 N626 N 0.31205 0.47305 -0.11181
 N627 N 0.30206 0.46329 -0.09159
 C628 C 0.28205 0.44969 -0.09235
 N629 N 0.27232 0.44651 -0.11417
 N630 N 0.28229 0.45627 -0.13438
 N631 N 0.81844 0.99238 0.29231
 C632 C 0.82841 0.98301 0.31261
 N633 N 0.85263 0.97962 0.31285
 N634 N 0.86653 0.98558 0.29351
 C635 C 0.85677 0.99518 0.27314
 N636 N 0.83237 0.99836 0.27290
 C637 C 0.81377 0.97662 0.33374
 C638 C 0.80248 0.97074 0.35199
 C639 C 0.79009 0.96302 0.37408
 N640 N 0.79955 0.96724 0.39573
 N641 N 0.78915 0.95847 0.41620
 C642 C 0.76893 0.94513 0.41576
 N643 N 0.75943 0.94116 0.39398
 N644 N 0.76983 0.94991 0.37351
 N645 N 0.83338 0.04017 1.21228
 C646 C 0.83579 0.02903 1.19081
 N647 N 0.85000 0.00903 1.18915
 N648 N 0.86148 0.00043 1.20833
 C649 C 0.85917 0.01142 1.22997
 N650 N 0.84487 0.03154 1.23151
 C651 C 0.82431 0.03870 1.16974
 C652 C 0.81526 0.04665 1.15164
 C653 C 0.80507 0.05615 1.12980
 N654 N 0.81582 0.05148 1.10794
 N655 N 0.80683 0.06088 1.08769
 C656 C 0.78675 0.07530 1.08855
 N657 N 0.77599 0.07979 1.11054
 N658 N 0.78497 0.07040 1.13079
 N659 N 0.33565 0.54489 0.70293
 C660 C 0.33824 0.53403 0.68132
 N661 N 0.35385 0.51514 0.67905
 N662 N 0.36654 0.50737 0.69774
 C663 C 0.36413 0.51814 0.71951
 N664 N 0.34836 0.53710 0.72167
 C665 C 0.32553 0.54303 0.66072
 C666 C 0.31545 0.55059 0.64305
 C667 C 0.30403 0.55979 0.62175
 N668 N 0.31452 0.55640 0.59950
 N669 N 0.30441 0.56568 0.57976
 C670 C 0.28343 0.57869 0.58154
 N671 N 0.27295 0.58191 0.60391
 N672 N 0.28305 0.57264 0.62365
 N673 N 0.15889 0.53371 0.29127
 C674 C 0.15795 0.52341 0.31381
 N675 N 0.14384 0.50410 0.31835
 N676 N 0.13106 0.49535 0.30088
 C677 C 0.13188 0.50553 0.27817
 N678 N 0.14610 0.52494 0.27378
 C679 C 0.17033 0.53383 0.33309
 C680 C 0.17995 0.54304 0.34952
 C681 C 0.19050 0.55477 0.36915
 N682 N 0.19985 0.54187 0.38787
 N683 N 0.20863 0.55299 0.40654
 C684 C 0.20827 0.57740 0.40718
 N685 N 0.19893 0.59017 0.38829
 N686 N 0.19019 0.57908 0.36965
 N687 N 0.62963 0.02329 0.82677
 C688 C 0.65352 0.02696 0.82252
 N689 N 0.66331 0.02379 0.79994
 N690 N 0.64962 0.01707 0.78217
 C691 C 0.62562 0.01333 0.78634
 N692 N 0.61595 0.01659 0.80903
 C693 C 0.66782 0.03551 0.84139
 C694 C 0.67918 0.04355 0.85731
 C695 C 0.69188 0.05430 0.87618
 N696 N 0.69910 0.04107 0.89569
 N697 N 0.70973 0.05157 0.91371
 C698 C 0.71342 0.07567 0.91288
 N699 N 0.70624 0.08873 0.89320
 N700 N 0.69566 0.07826 0.87521
 N701 N 0.63279 1.00650 0.70160
 C702 C 0.64870 0.98772 0.70177
 N703 N 0.65255 0.97559 0.72293
 N704 N 0.64065 0.98189 0.74326
 C705 C 0.62429 1.00046 0.74319
 N706 N 0.62089 1.01280 0.72191
 C707 C 0.65963 0.97940 0.67952
 C708 C 0.66801 0.97152 0.66086
 C709 C 0.67713 0.96095 0.63889
 N710 N 0.67632 0.93684 0.63658
 N711 N 0.68416 0.92679 0.61613
 C712 C 0.69307 0.94044 0.59715
 N713 N 0.69386 0.96466 0.59955
 N714 N 0.68599 0.97475 0.62006
 N715 N 0.14075 0.46225 0.20575
 C716 C 0.15649 0.47790 0.19498
 N717 N 0.15981 0.49932 0.20526
 N718 N 0.14758 0.50493 0.22565
 C719 C 0.13166 0.48931 0.23657
 N720 N 0.12854 0.46786 0.22607
 C721 C 0.16865 0.47191 0.17250
 C722 C 0.17792 0.46559 0.15359
 C723 C 0.18793 0.45635 0.13134
 N724 N 0.19621 0.47122 0.11308
 N725 N 0.20466 0.46224 0.09221
 C726 C 0.20501 0.43812 0.08887
 N727 N 0.19668 0.42342 0.10729
 N728 N 0.18828 0.43235 0.12809
 N729 N -0.20898 0.31968 0.48947
 C730 C -0.18721 0.33012 0.48561
 N731 N -0.18550 0.35412 0.48825
 N732 N -0.20490 0.36730 0.49459
 C733 C -0.22680 0.35701 0.49854
 N734 N -0.22843 0.33288 0.49583
 C735 C -0.16628 0.31627 0.47797
 C736 C -0.14837 0.30544 0.47105
 C737 C -0.12683 0.29334 0.46209
 N738 N -0.10488 0.30279 0.46523
 N739 N -0.08499 0.29252 0.45552
 C740 C -0.08631 0.27245 0.44226
 N741 N -0.10838 0.26297 0.43935
 N742 N -0.12827 0.27324 0.44906
 N743 N 0.29968 0.82216 1.00880
 C744 C 0.31013 0.82482 0.98631
 N745 N 0.30065 0.84112 0.97050
 N746 N 0.28145 0.85452 0.97701
 C747 C 0.27087 0.85210 0.99957
 N748 N 0.28042 0.83557 1.01532
 C749 C 0.33176 0.81161 0.97954
 C750 C 0.35017 0.80136 0.97308
 C751 C 0.37220 0.78999 0.96438
 N752 N 0.39377 0.80012 0.96785
 N753 N 0.41406 0.79071 0.95806
 C754 C 0.41353 0.77086 0.94437
 N755 N 0.39186 0.76068 0.94117
 N756 N 0.37157 0.77007 0.95095
 N757 N 1.20814 0.81973 0.02650
 C758 C 1.18824 0.83229 0.03428
 N759 N 1.18881 0.85660 0.03407
 N760 N 1.20862 0.86803 0.02625
 C761 C 1.22871 0.85562 0.01844
 N762 N 1.22799 0.83118 0.01866
 C763 C 1.16659 0.82021 0.04231
 C764 C 1.14808 0.81072 0.04918
 C765 C 1.12584 0.80003 0.05771
 N766 N 1.10441 0.81115 0.05335
 N767 N 1.08382 0.80183 0.06221
 C768 C 1.08390 0.78105 0.07579
 N769 N 1.10546 0.76993 0.07996
 N770 N 1.12605 0.77923 0.07110
 N771 N 0.70934 0.32938 0.53745
 C772 C 0.68914 0.33195 0.52455
 N773 N 0.68924 0.34720 0.50500
 N774 N 0.70886 0.35967 0.49868
 C775 C 0.72913 0.35752 0.51172
 N776 N 0.72899 0.34186 0.53112
 C777 C 0.66741 0.31983 0.53224
 C778 C 0.64885 0.31034 0.53893
 C779 C 0.62655 0.29971 0.54734
 N780 N 0.60514 0.31042 0.54205
 N781 N 0.58447 0.30133 0.55098
 C782 C 0.58444 0.28121 0.56556
 N783 N 0.60598 0.27048 0.57063
 N784 N 0.62665 0.27956 0.56171
 N785 N 0.30127 0.13771 0.53758
 C786 C 0.31219 0.15362 0.52191
 N787 N 0.30491 0.15549 0.49882
 N788 N 0.28739 0.14166 0.49159
 C789 C 0.27657 0.12536 0.50713
 N790 N 0.28380 0.12390 0.53036
 C791 C 0.33177 0.16756 0.52968
 C792 C 0.34831 0.17848 0.53721
 C793 C 0.36788 0.19057 0.54752
 N794 N 0.38773 0.19691 0.53384
 N795 N 0.40637 0.20687 0.54399
 C796 C 0.40582 0.21073 0.56818
 N797 N 0.38580 0.20442 0.58169
 N798 N 0.36720 0.19451 0.57157
 N799 N 0.81937 0.64107 0.00208
 C800 C 0.81465 0.65554 0.02101
 N801 N 0.79208 0.65625 0.03139
 N802 N 0.77475 0.64287 0.02309
 C803 C 0.77934 0.62826 0.00408
 N804 N 0.80206 0.62769 -0.00621
 C805 C 0.83375 0.66860 0.03101
 C806 C 0.84997 0.67883 0.03997
 C807 C 0.86928 0.69014 0.05150
 N808 N 0.86872 0.69159 0.07591
 N809 N 0.88706 0.70099 0.08693
 C810 C 0.90670 0.70926 0.07398
 N811 N 0.90713 0.70787 0.04945
 N812 N 0.88876 0.69844 0.03841
 N813 N 0.69959 0.62592 0.97102
 C814 C 0.69787 0.65014 0.97241
 N815 N 0.71654 0.66223 0.98101
 N816 N 0.73624 0.65037 0.98823
 C817 C 0.73796 0.62599 0.98710
 N818 N 0.71923 0.61408 0.97822
 C819 C 0.67654 0.66259 0.96454
 C820 C 0.65835 0.67210 0.95738
 C821 C 0.63661 0.68242 0.94797
 N822 N 0.61808 0.68963 0.96301
 N823 N 0.59754 0.69815 0.95402
 C824 C 0.59476 0.69963 0.92970
 N825 N 0.61344 0.69239 0.91479
 N826 N 0.63395 0.68391 0.92375
 N827 N 0.19825 0.12336 0.47127
 C828 C 0.19530 0.14714 0.47523
 N829 N 0.21275 0.15882 0.48640
 N830 N 0.23251 0.14697 0.49352
 C831 C 0.23556 0.12305 0.48956
 N832 N 0.21796 0.11153 0.47835
 C833 C 0.17399 0.15959 0.46732
 C834 C 0.15588 0.16907 0.45992
 C835 C 0.13431 0.17930 0.45004
 N836 N 0.11590 0.18751 0.46466
 N837 N 0.09554 0.19599 0.45524
 C838 C 0.09285 0.19644 0.43089
 N839 N 0.11142 0.18821 0.41641
 N840 N 0.13173 0.17976 0.42579
 N841 N 0.56076 0.04340 0.73748
 C842 C 0.56426 0.06548 0.74621
 N843 N 0.58158 0.06823 0.76242
 N844 N 0.59511 0.04948 0.76954
 C845 C 0.59188 0.02726 0.76070
 N846 N 0.57429 0.02464 0.74459
 C847 C 0.55191 0.08610 0.73614
 C848 C 0.54252 0.10334 0.72640
 C849 C 0.53249 0.12354 0.71330
 N850 N 0.52951 0.14525 0.72363
 N851 N 0.52197 0.16433 0.71063
 C852 C 0.51728 0.16239 0.68683
 N853 N 0.52016 0.14053 0.67669
 N854 N 0.52766 0.12148 0.68966
 N855 N 1.07223 0.54871 0.26214
 C856 C 1.07058 0.55558 0.23852
 N857 N 1.08299 0.54294 0.22139
 N858 N 1.09687 0.52417 0.22763
 C859 C 1.09896 0.51734 0.25128
 N860 N 1.08612 0.52987 0.26841
 C861 C 1.05702 0.57666 0.23144
 C862 C 1.04662 0.59439 0.22388
 C863 C 1.03543 0.61523 0.21294
 N864 N 1.02843 0.61444 0.18983
 N865 N 1.02020 0.63419 0.17850
 C866 C 1.01872 0.65553 0.18982
 N867 N 1.02553 0.65620 0.21314
 N868 N 1.03383 0.63640 0.22448
 N869 N 0.88857 0.93992 0.23306
 C870 C 0.91299 0.93962 0.23159
 N871 N 0.92491 0.95969 0.23697
 N872 N 0.91268 0.97949 0.24358
 C873 C 0.88810 0.97993 0.24486
 N874 N 0.87636 0.95965 0.23960
 C875 C 0.92562 0.91857 0.22308
 C876 C 0.93452 0.90040 0.21504
 C877 C 0.94300 0.87843 0.20442
 N878 N 0.96565 0.86962 0.20776
 N879 N 0.97311 0.84923 0.19749
 C880 C 0.95817 0.83698 0.18356
 N881 N 0.93552 0.84595 0.18040
 N882 N 0.92808 0.86626 0.19063
 N883 N 0.39348 0.44662 0.72460
 C884 C 0.41743 0.44686 0.71879
 N885 N 0.42954 0.46764 0.72044
 N886 N 0.41798 0.48756 0.72773
 C887 C 0.39390 0.48739 0.73363
 N888 N 0.38194 0.46649 0.73185
 C889 C 0.42917 0.42563 0.70959
 C890 C 0.43757 0.40737 0.70127
 C891 C 0.44576 0.38532 0.69063
 N892 N 0.46789 0.37567 0.69497
 N893 N 0.47502 0.35502 0.68505
 C894 C 0.46026 0.34329 0.67050
 N895 N 0.43814 0.35311 0.66630
 N896 N 0.43103 0.37370 0.67618
 N897 N 0.42641 0.54456 0.77105
 C898 C 0.42440 0.56671 0.76038
 N899 N 0.40873 0.57032 0.74240
 N900 N 0.39529 0.55238 0.73550
 C901 C 0.39687 0.53018 0.74643
 N902 N 0.41297 0.52664 0.76417
 C903 C 0.43670 0.58653 0.76992
 C904 C 0.44623 0.60292 0.77930
 C905 C 0.45667 0.62193 0.79207
 N906 N 0.45859 0.64437 0.78199
 N907 N 0.46674 0.66225 0.79474
 C908 C 0.47313 0.65834 0.81804
 N909 N 0.47128 0.63577 0.82792
 N910 N 0.46318 0.61792 0.81520
 N911 N -0.08059 0.05084 0.24833
 C912 C -0.08329 0.06024 0.27065
 N913 N -0.09968 0.05070 0.28680
 N914 N -0.11302 0.03237 0.28089
 C915 C -0.11045 0.02269 0.25862
 N916 N -0.09398 0.03242 0.24240
 C917 C -0.06931 0.08013 0.27753
 C918 C -0.05856 0.09668 0.28522
 C919 C -0.04691 0.11591 0.29654
 N920 N -0.03908 0.11248 0.31928
 N921 N -0.03039 0.13068 0.33106
 C922 C -0.02927 0.15306 0.32061
 N923 N -0.03693 0.15639 0.29767
 N924 N -0.04569 0.13815 0.28587
 N925 N 0.06488 0.45567 0.27658
 C926 C 0.07701 0.43566 0.28432
 N927 N 0.10142 0.43562 0.28392
 N928 N 0.11343 0.45493 0.27599
 C929 C 0.10150 0.47511 0.26820
 N930 N 0.07692 0.47506 0.26860
 C931 C 0.06454 0.41462 0.29309
 C932 C 0.05582 0.39620 0.30099
 C933 C 0.04762 0.37363 0.31108
 N934 N 0.06325 0.35908 0.32306
 N935 N 0.05615 0.33805 0.33260
 C936 C 0.03315 0.33070 0.33053
 N937 N 0.01749 0.34534 0.31842
 N938 N 0.02460 0.36645 0.30883
 N939 N 0.56032 0.96323 0.78444
 C940 C 0.57330 0.94324 0.79068
 N941 N 0.59770 0.94387 0.78913
 N942 N 0.60884 0.96378 0.78143
 C943 C 0.59603 0.98387 0.77489
 N944 N 0.57149 0.98319 0.77671
 C945 C 0.56172 0.92161 0.79922
 C946 C 0.55354 0.90282 0.80681
 C947 C 0.54577 0.87991 0.81643
 N948 N 0.56151 0.86558 0.82851
 N949 N 0.55479 0.84421 0.83752
 C950 C 0.53209 0.83629 0.83479
 N951 N 0.51632 0.85074 0.82260
 N952 N 0.52305 0.87219 0.81355
 N953 N 0.72307 0.58343 0.04680
 C954 C 0.73960 0.56941 0.05814
 N955 N 0.76266 0.56853 0.04897
 N956 N 0.76894 0.58143 0.02905
 C957 C 0.75238 0.59561 0.01758
 N958 N 0.72933 0.59630 0.02697
 C959 C 0.73248 0.55651 0.08004
 C960 C 0.72458 0.54674 0.09835
 C961 C 0.71300 0.53637 0.11974
 N962 N 0.72433 0.53477 0.14103
 N963 N 0.71246 0.52725 0.16125
 C964 C 0.68882 0.52126 0.16089
 N965 N 0.67771 0.52275 0.13944
 N966 N 0.68955 0.53019 0.11928
 N967 N 0.25798 1.06215 0.54885
 C968 C 0.23517 1.06407 0.55849
 N969 N 0.21938 1.07975 0.54821
 N970 N 0.22617 1.09328 0.52899
 C971 C 0.24903 1.09163 0.51918
 N972 N 0.26479 1.07570 0.52955
 C973 C 0.22774 1.05069 0.58000
 C974 C 0.21992 1.04064 0.59819
 C975 C 0.20869 1.03006 0.61966
 N976 N 0.22045 1.02822 0.64069
 N977 N 0.20893 1.02065 0.66109
 C978 C 0.18522 1.01485 0.66118
 N979 N 0.17368 1.01654 0.63998
 N980 N 0.18516 1.02404 0.61963
 N981 N 0.23723 0.92072 0.96473
 C982 C 0.22649 0.90931 0.94684
 N983 N 0.22358 0.88524 0.94888
 N984 N 0.23117 0.87288 0.96817
 C985 C 0.24191 0.88411 0.98625
 N986 N 0.24486 0.90833 0.98409
 C987 C 0.21771 0.92224 0.92604
 C988 C 0.20944 0.93147 0.90812
 C989 C 0.19853 0.94043 0.88648
 N990 N 0.18262 0.92662 0.87561
 N991 N 0.17235 0.93440 0.85544
 C992 C 0.17761 0.95630 0.84530
 N993 N 0.19364 0.97014 0.85626
 N994 N 0.20395 0.96233 0.87650
 N995 N 0.72125 0.42010 0.46685
 C996 C 0.73203 0.41670 0.44475
 N997 N 0.74981 0.39978 0.44240
 N998 N 0.75653 0.38656 0.46154
 C999 C 0.74569 0.38972 0.48378
 N1000 N 0.72797 0.40689 0.48601
 C1001 C 0.72276 0.42865 0.42363
 C1002 C 0.71416 0.43734 0.40563
 C1003 C 0.70295 0.44600 0.38404
 N1004 N 0.68791 0.43154 0.37279
 N1005 N 0.67720 0.43922 0.35282
 C1006 C 0.68110 0.46166 0.34330
 N1007 N 0.69626 0.47613 0.35464
 N1008 N 0.70701 0.46844 0.37468
 N1009 N 0.76678 0.42289 0.54519
 C1010 C 0.77254 0.41073 0.56583
 N1011 N 0.77074 0.38649 0.56698
 N1012 N 0.76342 0.37475 0.54808
 C1013 C 0.75759 0.38677 0.52728
 N1014 N 0.75944 0.41114 0.52626
 C1015 C 0.78243 0.42299 0.58549
 C1016 C 0.79179 0.43266 0.60180
 C1017 C 0.80422 0.44347 0.62081
 N1018 N 0.82764 0.44951 0.61714
 N1019 N 0.83981 0.45832 0.63501
 C1020 C 0.82907 0.46139 0.65726
 N1021 N 0.80550 0.45541 0.66083
 N1022 N 0.79330 0.44656 0.64293
 N1023 N 0.29094 -0.10259 0.05124
 C1024 C 0.27577 -0.08694 0.06277
 N1025 N 0.25250 -0.08503 0.05623
 N1026 N 0.24463 -0.09856 0.03880
 C1027 C 0.25970 -0.11458 0.02735
 N1028 N 0.28309 -0.11609 0.03387
 C1029 C 0.28437 -0.07323 0.08209
 C1030 C 0.29282 -0.06257 0.09829
 C1031 C 0.30434 -0.05084 0.11734
 N1032 N 0.29321 -0.04865 0.13948
 N1033 N 0.30483 -0.03942 0.15758
 C1034 C 0.32803 -0.03218 0.15419
 N1035 N 0.33897 -0.03429 0.13190
 N1036 N 0.32737 -0.04348 0.11383
 N1037 N 0.28406 0.09584 0.43713
 C1038 C 0.28578 0.07155 0.43749
 N1039 N 0.27850 0.05901 0.45782
 N1040 N 0.26973 0.07052 0.47718
 C1041 C 0.26806 0.09498 0.47695
 N1042 N 0.27532 0.10732 0.45643
 C1043 C 0.29546 0.05964 0.41647
 C1044 C 0.30404 0.05132 0.39810
 C1045 C 0.31486 0.04350 0.37559
 N1046 N 0.31242 0.02071 0.36813
 N1047 N 0.32252 0.01399 0.34701
 C1048 C 0.33534 0.02983 0.33263
 N1049 N 0.33762 0.05261 0.34028
 N1050 N 0.32757 0.05931 0.36132
 N1051 N 0.77992 0.56039 0.95686
 C1052 C 0.78656 0.57214 0.93586
 N1053 N 0.78452 0.59641 0.93446
 N1054 N 0.77613 0.60864 0.95341
 C1055 C 0.76952 0.59708 0.97459
 N1056 N 0.77148 0.57265 0.97589
 C1057 C 0.79631 0.55946 0.91535
 C1058 C 0.80509 0.55050 0.89739
 C1059 C 0.81626 0.54196 0.87533
 N1060 N 0.82920 0.55733 0.86077
 N1061 N 0.83963 0.54995 0.84015
 C1062 C 0.83752 0.52691 0.83322
 N1063 N 0.82447 0.51149 0.84789
 N1064 N 0.81400 0.51890 0.86859
 N1065 N 0.05293 0.75947 0.58836
 C1066 C 0.05073 0.74187 0.57227
 N1067 N 0.02891 0.73180 0.57007
 N1068 N 0.00988 0.73905 0.58364
 C1069 C 0.01197 0.75662 0.59996
 N1070 N 0.03393 0.76671 0.60193
 C1071 C 0.07173 0.73237 0.55962
 C1072 C 0.08959 0.72363 0.55001
 C1073 C 0.11086 0.71222 0.53970
 N1074 N 0.11109 0.68831 0.53588
 N1075 N 0.13122 0.67718 0.52791
 C1076 C 0.15192 0.68952 0.52354
 N1077 N 0.15156 0.71356 0.52726
 N1078 N 0.13140 0.72471 0.53526
 N1079 N 0.54038 0.23571 1.06709
 C1080 C 0.56207 0.24530 1.07107
 N1081 N 0.56362 0.26157 1.08863
 N1082 N 0.54409 0.26796 1.10190
 C1083 C 0.52225 0.25828 1.09817
 N1084 N 0.52084 0.24209 1.08037
 C1085 C 0.58351 0.23619 1.05890
 C1086 C 0.60147 0.22731 1.04964
 C1087 C 0.62254 0.21524 1.03975
 N1088 N 0.64380 0.22674 1.03647
 N1089 N 0.66368 0.21478 1.02897
 C1090 C 0.66300 0.19088 1.02464
 N1091 N 0.64158 0.17957 1.02783
 N1092 N 0.62174 0.19150 1.03528
 N1093 N 0.97154 0.22014 0.92454
 C1094 C 0.95016 0.23153 0.92060
 N1095 N 0.94924 0.24942 0.90348
 N1096 N 0.96903 0.25557 0.89050
 C1097 C 0.99047 0.24390 0.89397
 N1098 N 0.99135 0.22629 0.91156
 C1099 C 0.92828 0.22285 0.93218
 C1100 C 0.90964 0.21476 0.94054
 C1101 C 0.88731 0.20418 0.94879
 N1102 N 0.87798 0.20750 0.97154
 N1103 N 0.85734 0.19720 0.97892
 C1104 C 0.84534 0.18323 0.96382
 N1105 N 0.85481 0.18009 0.94106
 N1106 N 0.87538 0.19036 0.93369
 N1107 N 0.44074 0.75268 0.39826
 C1108 C 0.44039 0.73424 0.41483
 N1109 N 0.46110 0.72171 0.41894
 N1110 N 0.48152 0.72735 0.40673
 C1111 C 0.48196 0.74562 0.38980
 N1112 N 0.46114 0.75832 0.38605
 C1113 C 0.41792 0.72649 0.42591
 C1114 C 0.39886 0.71919 0.43406
 C1115 C 0.37610 0.70950 0.44230
 N1116 N 0.36795 0.71132 0.46566
 N1117 N 0.34716 0.70139 0.47316
 C1118 C 0.33384 0.68927 0.45759
 N1119 N 0.34210 0.68768 0.43421
 N1120 N 0.36282 0.69759 0.42671
 N1121 N 0.53942 0.76644 0.42876
 C1122 C 0.56180 0.77021 0.41878
 N1123 N 0.56590 0.76695 0.39479
 N1124 N 0.54817 0.76016 0.38116
 C1125 C 0.52563 0.75634 0.39097
 N1126 N 0.52166 0.75962 0.41512
 C1127 C 0.58038 0.77972 0.43280
 C1128 C 0.59599 0.78882 0.44374
 C1129 C 0.61440 0.80100 0.45577
 N1130 N 0.61052 0.82399 0.46249
 N1131 N 0.62809 0.83617 0.47191
 C1132 C 0.65023 0.82585 0.47492
 N1133 N 0.65397 0.80269 0.46834
 N1134 N 0.63638 0.79049 0.45887
 N1135 N 0.07344 0.25180 -0.09506
 C1136 C 0.07005 0.27004 -0.07951
 N1137 N 0.04793 0.28069 -0.07709
 N1138 N 0.02980 0.27353 -0.09001
 C1139 C 0.03314 0.25553 -0.10597
 N1140 N 0.05530 0.24462 -0.10798
 C1141 C 0.09008 0.27971 -0.06771
 C1142 C 0.10671 0.28910 -0.05859
 C1143 C 0.12606 0.30178 -0.04864
 N1144 N 0.12292 0.32528 -0.04343
 N1145 N 0.14113 0.33775 -0.03564
 C1146 C 0.16320 0.32723 -0.03281
 N1147 N 0.16623 0.30358 -0.03792
 N1148 N 0.14799 0.29108 -0.04576
 N1149 N 0.43823 0.28494 0.10132
 C1150 C 0.43938 0.28750 0.07687
 N1151 N 0.46034 0.28202 0.06459
 N1152 N 0.47953 0.27411 0.07647
 C1153 C 0.47846 0.27136 0.10104
 N1154 N 0.45739 0.27706 0.11317
 C1155 C 0.41885 0.29696 0.06453
 C1156 C 0.40110 0.30554 0.05550
 C1157 C 0.37951 0.31658 0.04653
 N1158 N 0.37281 0.31346 0.02353
 N1159 N 0.35263 0.32394 0.01563
 C1160 C 0.33848 0.33788 0.03046
 N1161 N 0.34536 0.34085 0.05346
 N1162 N 0.36546 0.33041 0.06134
 N1163 N 0.95007 0.78294 0.56766
 C1164 C 0.92982 0.78965 0.58052
 N1165 N 0.92949 0.78777 0.60499
 N1166 N 0.94874 0.77933 0.61633
 C1167 C 0.96909 0.77240 0.60363
 N1168 N 0.96938 0.77447 0.57902
 C1169 C 0.90894 0.79908 0.56872
 C1170 C 0.89078 0.80744 0.56031
 C1171 C 0.86861 0.81797 0.55216
 N1172 N 0.85452 0.83107 0.56761
 N1173 N 0.83380 0.84086 0.56053
 C1174 C 0.82632 0.83792 0.53775
 N1175 N 0.84052 0.82472 0.52227
 N1176 N 0.86131 0.81488 0.52936
   
