data_POSCAR
  _audit_creation_date              2014-09-24
  _audit_creation_method            'ToBaCCo'
  _symmetry_space_group_name_H-M    'P1'
  _symmetry_Int_Tables_number       1
  _symmetry_cell_setting            triclinic
  loop_
  _symmetry_equiv_pos_as_xyz
 x,y,z
_cell_length_a 34.2122
_cell_length_b 32.9653
_cell_length_c 34.0108
_cell_angle_alpha 88.351400
_cell_angle_beta 90.519100
_cell_angle_gamma 88.144500
loop_
  _atom_site_label
  _atom_site_type_symbol
  _atom_site_fract_x
  _atom_site_fract_y
  _atom_site_fract_z
C1 C 0.60322 0.66531 0.62362
 C2 C 0.63152 0.66410 0.59415
 C3 C 0.65816 0.63111 0.59213
 C4 C 0.65666 0.59924 0.62025
 C5 C 0.62807 0.59934 0.64994
 C6 C 0.60147 0.63296 0.65123
 H7 H 0.63254 0.68876 0.57244
 H8 H 0.67714 0.57370 0.61795
 H9 H 0.57967 0.63471 0.67402
 C10 C 0.89616 0.34200 0.12801
 C11 C 0.89585 0.37384 0.15503
 C12 C 0.86692 0.40501 0.15336
 C13 C 0.83696 0.40409 0.12524
 C14 C 0.83565 0.37250 0.09876
 C15 C 0.86511 0.34183 0.10012
 H16 H 0.91818 0.37568 0.17723
 H17 H 0.81444 0.42802 0.12408
 H18 H 0.86254 0.31729 0.07998
 C19 C 0.39369 0.16580 -0.12253
 C20 C 0.36430 0.16305 -0.09416
 C21 C 0.33639 0.13288 -0.09618
 C22 C 0.33831 0.10505 -0.12662
 C23 C 0.36752 0.10752 -0.15522
 C24 C 0.39528 0.13779 -0.15283
 H25 H 0.36274 0.18482 -0.07089
 H26 H 0.31665 0.08188 -0.12840
 H27 H 0.41776 0.13999 -0.17498
 C28 C 0.09798 0.83456 0.37887
 C29 C 0.12303 0.83861 0.41161
 C30 C 0.15017 0.86958 0.41271
 C31 C 0.15230 0.89729 0.38085
 C32 C 0.12747 0.89423 0.34816
 C33 C 0.10051 0.86305 0.34730
 H34 H 0.12245 0.81693 0.43612
 H35 H 0.17328 0.92120 0.38142
 H36 H 0.08098 0.86203 0.32217
 N37 N 0.07480 0.18674 0.11385
 N38 N 0.06676 0.17477 0.14999
 C39 C 0.03421 0.19471 0.16184
 C40 C 0.02083 0.22007 0.13121
 C41 C 0.04720 0.21422 0.10116
 H42 H 0.02081 0.19057 0.19029
 H43 H 0.04677 0.22947 0.07257
 Cu44 Cu 0.09839 0.13296 0.17753
 Cu45 Cu 0.12163 0.16734 0.08709
 Cu46 Cu 0.17221 0.08503 0.13079
 N47 N 0.12091 0.08143 0.19708
 N48 N 0.15070 0.06356 0.17973
 C49 C 0.16027 0.02861 0.19947
 C50 C 0.13471 0.02406 0.23052
 C51 C 0.10998 0.05813 0.22794
 H52 H 0.18294 0.00715 0.19082
 H53 H 0.08562 0.06545 0.24671
 N54 N 0.18875 0.11151 0.08119
 N55 N 0.16985 0.14337 0.06498
 C56 C 0.18841 0.15486 0.03198
 C57 C 0.22032 0.12875 0.02684
 C58 C 0.21947 0.10147 0.05852
 H59 H 0.17889 0.17982 0.01252
 H60 H 0.23971 0.07626 0.06477
 H61 H 0.11852 0.11013 0.11344
 H62 H 0.15420 0.14527 0.13528
 N63 N 0.42221 0.82101 0.61360
 N64 N 0.43686 0.83723 0.64512
 C65 C 0.47047 0.81705 0.65533
 C66 C 0.47743 0.78684 0.62853
 C67 C 0.44620 0.79046 0.60237
 H68 H 0.48924 0.82461 0.67960
 H69 H 0.44121 0.77245 0.57691
 Cu70 Cu 0.41179 0.88485 0.66784
 Cu71 Cu 0.37330 0.84069 0.58917
 Cu72 Cu 0.32771 0.92499 0.62942
 N73 N 0.38606 0.93244 0.68995
 N74 N 0.35279 0.94736 0.67526
 C75 C 0.34127 0.97979 0.69584
 C76 C 0.36893 0.98588 0.72487
 C77 C 0.39711 0.95531 0.72006
 H78 H 0.31523 0.99831 0.68935
 H79 H 0.42372 0.95016 0.73701
 N80 N 0.30691 0.89793 0.58310
 N81 N 0.32365 0.86506 0.56861
 C82 C 0.30154 0.85243 0.53869
 C83 C 0.26962 0.87898 0.53361
 C84 C 0.27404 0.90747 0.56228
 H85 H 0.30828 0.82588 0.52189
 H86 H 0.25406 0.93256 0.56827
 H87 H 0.37807 0.90029 0.60546
 H88 H 0.34969 0.86640 0.63873
 N89 N 0.92666 0.68079 0.39338
 N90 N 0.93939 0.66681 0.35988
 C91 C 0.97098 0.68743 0.34880
 C92 C 0.97869 0.71557 0.37705
 C93 C 0.95006 0.71029 0.40506
 H94 H 0.98780 0.68178 0.32266
 H95 H 0.94612 0.72685 0.43174
 Cu96 Cu 0.91459 0.62185 0.33482
 Cu97 Cu 0.87996 0.66070 0.41860
 Cu98 Cu 0.83536 0.58011 0.37524
 N99 N 0.89036 0.57520 0.31217
 N100 N 0.85886 0.55969 0.32751
 C101 C 0.84705 0.52934 0.30508
 C102 C 0.87288 0.52513 0.27423
 C103 C 0.90002 0.55476 0.27976
 H104 H 0.82148 0.51186 0.31084
 H105 H 0.92428 0.56171 0.26087
 N106 N 0.81597 0.60495 0.42360
 N107 N 0.83240 0.63624 0.43961
 C108 C 0.81094 0.64796 0.47054
 C109 C 0.77975 0.62249 0.47456
 C110 C 0.78397 0.59559 0.44428
 H111 H 0.81730 0.67350 0.48841
 H112 H 0.76422 0.57197 0.43690
 H113 H 0.88638 0.60250 0.39789
 H114 H 0.85394 0.63898 0.36864
 N115 N 0.57067 0.31442 -0.10728
 N116 N 0.55634 0.33177 -0.13980
 C117 C 0.52340 0.31332 -0.15000
 C118 C 0.51644 0.28287 -0.12230
 C119 C 0.54701 0.28465 -0.09542
 H120 H 0.50531 0.32200 -0.17525
 H121 H 0.55183 0.26581 -0.06923
 Cu122 Cu 0.58153 0.37746 -0.16506
 Cu123 Cu 0.61898 0.33190 -0.08294
 Cu124 Cu 0.66489 0.41272 -0.12890
 N125 N 0.60670 0.42336 -0.19000
 N126 N 0.64041 0.43571 -0.17685
 C127 C 0.65248 0.46625 -0.20041
 C128 C 0.62444 0.47389 -0.22949
 C129 C 0.59578 0.44620 -0.22192
 H130 H 0.67920 0.48218 -0.19612
 H131 H 0.56940 0.44253 -0.23902
 N132 N 0.68490 0.38548 -0.08007
 N133 N 0.66804 0.35418 -0.06306
 C134 C 0.68826 0.34308 -0.03009
 C135 C 0.71902 0.36893 -0.02586
 C136 C 0.71583 0.39550 -0.05805
 H137 H 0.68021 0.31914 -0.00965
 H138 H 0.73420 0.42074 -0.06467
 H139 H 0.61447 0.39154 -0.10336
 H140 H 0.64321 0.35523 -0.13372
 C141 C -0.05334 0.29883 0.16404
 C142 C -0.07424 0.31045 0.12923
 C143 C -0.06567 0.28695 0.09573
 C144 C -0.03563 0.25668 0.09655
 C145 C -0.01382 0.24780 0.13107
 C146 C -0.02502 0.26755 0.16506
 C147 C -0.00013 0.28742 0.19442
 C148 C -0.03020 0.32221 0.19296
 H149 H -0.07967 0.29367 0.06759
 H150 H -0.02856 0.24127 0.06970
 H151 H 0.02878 0.29578 0.18250
 H152 H 0.00094 0.27045 0.22314
 H153 H -0.01831 0.35049 0.17983
 H154 H -0.04568 0.32589 0.22130
 C155 C 0.55550 0.71425 0.59033
 C156 C 0.57481 0.70003 0.62466
 C157 C 0.56551 0.71938 0.65996
 C158 C 0.53475 0.74887 0.66100
 C159 C 0.51203 0.75882 0.62698
 C160 C 0.52453 0.74237 0.59150
 C161 C 0.50262 0.72143 0.56015
 C162 C 0.53686 0.69101 0.55867
 H163 H 0.58096 0.71062 0.68696
 H164 H 0.52735 0.76192 0.68891
 H165 H 0.49909 0.74052 0.53280
 H166 H 0.47543 0.70762 0.57113
 H167 H 0.55333 0.69294 0.53069
 H168 H 0.52939 0.65979 0.56859
 C169 C 1.05794 0.78388 0.41275
 C170 C 1.07137 0.80248 0.37791
 C171 C 1.05724 0.78706 0.34216
 C172 C 1.02814 0.75778 0.34198
 C173 C 1.01143 0.74378 0.37735
 C174 C 1.02833 0.75603 0.41248
 C175 C 1.01012 0.77260 0.44862
 C176 C 1.04263 0.80282 0.44919
 H177 H 1.06836 0.79739 0.31407
 H178 H 1.01739 0.74777 0.31396
 H179 H 1.01168 0.75034 0.47380
 H180 H 0.98086 0.78735 0.44288
 H181 H 1.06295 0.79778 0.47467
 H182 H 1.03211 0.83482 0.44400
 C183 C 0.44126 0.20813 -0.08675
 C184 C 0.42165 0.19900 -0.12148
 C185 C 0.42967 0.22242 -0.15557
 C186 C 0.45958 0.25073 -0.15546
 C187 C 0.48266 0.25582 -0.12142
 C188 C 0.47139 0.23542 -0.08679
 C189 C 0.49476 0.20984 -0.05753
 C190 C 0.46158 0.18028 -0.05733
 H191 H 0.41385 0.21771 -0.18270
 H192 H 0.46593 0.26675 -0.18274
 H193 H 0.49828 0.22516 -0.02908
 H194 H 0.52222 0.19695 -0.07005
 H195 H 0.44580 0.17888 -0.02892
 H196 H 0.46987 0.15032 -0.06957
 C197 C 0.09526 -0.05558 0.30088
 C198 C 0.12917 -0.07613 0.31489
 C199 C 0.16477 -0.06709 0.29661
 C200 C 0.16639 -0.03536 0.26802
 C201 C 0.13266 -0.01129 0.25808
 C202 C 0.09700 -0.02350 0.27371
 C203 C 0.06524 -0.00004 0.29378
 C204 C 0.06312 -0.03548 0.32318
 H205 H 0.19149 -0.08352 0.30543
 H206 H 0.19442 -0.02819 0.25554
 H207 H 0.03851 0.00417 0.27509
 H208 H 0.07573 0.02798 0.30730
 H209 H 0.03539 -0.05199 0.32110
 H210 H 0.07217 -0.02785 0.35351
 C211 C 0.65906 0.54121 -0.31343
 C212 C 0.62596 0.56613 -0.32285
 C213 C 0.59056 0.55571 -0.30427
 C214 C 0.58990 0.52470 -0.27492
 C215 C 0.62469 0.50420 -0.26222
 C216 C 0.65861 0.51177 -0.28342
 C217 C 0.69894 0.52069 -0.26988
 C218 C 0.69967 0.55269 -0.30287
 H219 H 0.56315 0.57123 -0.31219
 H220 H 0.56247 0.51828 -0.26075
 H221 H 0.71990 0.49477 -0.27416
 H222 H 0.69964 0.53403 -0.24025
 H223 H 0.72100 0.54504 -0.32620
 H224 H 0.70092 0.58422 -0.29225
 C225 C 0.40321 1.06088 0.79948
 C226 C 0.36824 1.07962 0.81149
 C227 C 0.33388 1.07126 0.79049
 C228 C 0.33432 1.04170 0.76139
 C229 C 0.36900 1.01927 0.75312
 C230 C 0.40355 1.03107 0.77143
 C231 C 0.43478 1.00662 0.79319
 C232 C 0.43453 1.03950 0.82360
 H233 H 0.30644 1.08658 0.79745
 H234 H 0.30701 1.03501 0.74706
 H235 H 0.46249 1.00471 0.77644
 H236 H 0.42432 0.97713 0.80498
 H237 H 0.46191 1.05674 0.82408
 H238 H 0.42407 1.02903 0.85294
 C239 C 0.83417 0.45197 0.20028
 C240 C 0.86796 0.43886 0.18093
 C241 C 0.90280 0.45895 0.18877
 C242 C 0.90415 0.48805 0.21826
 C243 C 0.87088 0.49708 0.24110
 C244 C 0.83565 0.47989 0.22998
 C245 C 0.80602 0.45786 0.25373
 C246 C 0.80423 0.42763 0.22093
 H247 H 0.92929 0.45113 0.17311
 H248 H 0.93181 0.50162 0.22454
 H249 H 0.77840 0.47614 0.25680
 H250 H 0.81839 0.44426 0.28164
 H251 H 0.77577 0.42883 0.20485
 H252 H 0.81539 0.39664 0.22988
 C253 C 0.29469 0.09483 -0.04862
 C254 C 0.30421 0.13133 -0.06757
 C255 C 0.28177 0.16644 -0.05875
 C256 C 0.25359 0.16531 -0.02884
 C257 C 0.24784 0.12927 -0.00649
 C258 C 0.26766 0.09389 -0.01841
 C259 C 0.29157 0.06255 0.00457
 C260 C 0.32086 0.06340 -0.02875
 H261 H 0.28691 0.19499 -0.07408
 H262 H 0.23796 0.19322 -0.02188
 H263 H 0.27654 0.03324 0.00753
 H264 H 0.30349 0.07422 0.03243
 H265 H 0.32240 0.03476 -0.04521
 H266 H 0.34962 0.07538 -0.02011
 C267 C 0.70765 0.66370 0.54879
 C268 C 0.68669 0.62954 0.55975
 C269 C 0.69324 0.59399 0.53839
 C270 C 0.72284 0.59198 0.50992
 C271 C 0.74701 0.62525 0.50264
 C272 C 0.73738 0.66152 0.52135
 C273 C 0.76218 0.68921 0.54418
 C274 C 0.72940 0.69177 0.57394
 H275 H 0.67632 0.56738 0.54451
 H276 H 0.72796 0.56367 0.49519
 H277 H 0.76666 0.71847 0.52805
 H278 H 0.78924 0.67374 0.55627
 H279 H 0.71480 0.72235 0.57466
 H280 H 0.73750 0.67792 0.60321
 C281 C 0.79159 0.40705 0.04829
 C282 C 0.80323 0.37184 0.06971
 C283 C 0.78277 0.33625 0.06281
 C284 C 0.75447 0.33553 0.03243
 C285 C 0.74668 0.37012 0.00778
 C286 C 0.76449 0.40615 0.01778
 C287 C 0.78655 0.43596 -0.00662
 C288 C 0.81591 0.43713 0.02707
 H289 H 0.78947 0.30872 0.08003
 H290 H 0.74033 0.30730 0.02702
 H291 H 0.76980 0.46515 -0.01156
 H292 H 0.79912 0.42248 -0.03351
 H293 H 0.81577 0.46680 0.04179
 H294 H 0.84538 0.42449 0.01964
 C295 C 0.19627 0.83702 0.46248
 C296 C 0.17696 0.87196 0.44689
 C297 C 0.18455 0.90913 0.46450
 C298 C 0.21375 0.91124 0.49385
 C299 C 0.23664 0.87642 0.50543
 C300 C 0.22576 0.83921 0.49050
 C301 C 0.24940 0.80598 0.47210
 C302 C 0.21675 0.80337 0.44179
 H303 H 0.16897 0.93672 0.45459
 H304 H 0.21989 0.94053 0.50564
 H305 H 0.25254 0.77846 0.49167
 H306 H 0.27706 0.81673 0.45911
 H307 H 0.20075 0.77460 0.44425
 H308 H 0.22560 0.81238 0.41148
   
