data_POSCAR
  _audit_creation_date              2014-09-24
  _audit_creation_method            'ToBaCCo'
  _symmetry_space_group_name_H-M    'P1'
  _symmetry_Int_Tables_number       1
  _symmetry_cell_setting            triclinic
  loop_
  _symmetry_equiv_pos_as_xyz
 x,y,z
_cell_length_a 41.4383
_cell_length_b 41.4101
_cell_length_c 41.4848
_cell_angle_alpha 90.045300
_cell_angle_beta 90.054100
_cell_angle_gamma 89.840300
loop_
  _atom_site_label
  _atom_site_type_symbol
  _atom_site_fract_x
  _atom_site_fract_y
  _atom_site_fract_z
C1 C 0.33809 0.33764 1.37982
 C2 C 0.31028 0.35022 1.39451
 C3 C 0.29507 0.37767 1.38177
 C4 C 0.30768 0.39285 1.35435
 C5 C 0.33546 0.38057 1.33936
 C6 C 0.35076 0.35282 1.35210
 C7 C 0.35318 0.30987 1.39206
 C8 C 0.38063 0.29715 1.37688
 C9 C 0.39332 0.31225 1.34946
 C10 C 0.37852 0.34005 1.33691
 C11 C 0.39069 0.35504 1.30918
 C12 C 0.37541 0.38247 1.29652
 C13 C 0.34797 0.39525 1.31159
 H14 H 0.30031 0.33850 1.41566
 H15 H 0.29571 0.41400 1.34451
 H16 H 0.34339 0.29798 1.41319
 H17 H 0.41450 0.30221 1.33774
 H18 H 0.41184 0.34524 1.29724
 H19 H 0.33624 0.41641 1.30151
 C20 C 1.16281 0.66263 0.87942
 C21 C 1.19058 0.65006 0.89422
 C22 C 1.20585 0.62264 0.88148
 C23 C 1.19332 0.60746 0.85397
 C24 C 1.16557 0.61972 0.83888
 C25 C 1.15021 0.64745 0.85162
 C26 C 1.14765 0.69038 0.89166
 C27 C 1.12022 0.70307 0.87639
 C28 C 1.10761 0.68797 0.84889
 C29 C 1.12248 0.66020 0.83634
 C30 C 1.11038 0.64521 0.80853
 C31 C 1.12571 0.61781 0.79588
 C32 C 1.15314 0.60504 0.81103
 H33 H 1.20048 0.66178 0.91543
 H34 H 1.20534 0.58632 0.84415
 H35 H 1.15737 0.70227 0.91286
 H36 H 1.08645 0.69800 0.83710
 H37 H 1.08925 0.65499 0.79652
 H38 H 1.16491 0.58390 0.80096
 C39 C 0.66022 -0.16598 0.12082
 C40 C 0.68795 -0.15354 0.10599
 C41 C 0.70308 -0.12607 0.11858
 C42 C 0.69053 -0.11071 0.14595
 C43 C 0.66283 -0.12281 0.16107
 C44 C 0.64758 -0.15060 0.14850
 C45 C 0.64517 -0.19377 0.10873
 C46 C 0.61779 -0.20632 0.12404
 C47 C 0.60514 -0.19103 0.15144
 C48 C 0.61990 -0.16320 0.16383
 C49 C 0.60777 -0.14800 0.19153
 C50 C 0.62301 -0.12053 0.20400
 C51 C 0.65037 -0.10792 0.18879
 H52 H 0.69796 -0.16534 0.08488
 H53 H 0.70251 -0.08954 0.15559
 H54 H 0.65493 -0.20581 0.08762
 H55 H 0.58402 -0.20094 0.16326
 H56 H 0.58668 -0.15765 0.20358
 H57 H 0.66208 -0.08673 0.19873
 C58 C -0.16114 1.16526 -0.37988
 C59 C -0.18903 1.15293 -0.39459
 C60 C -0.20423 1.12554 -0.38193
 C61 C -0.19156 1.11017 -0.35459
 C62 C -0.16371 1.12219 -0.33959
 C63 C -0.14841 1.14987 -0.35224
 C64 C -0.14602 1.19296 -0.39202
 C65 C -0.11850 1.20537 -0.37683
 C66 C -0.10576 1.19010 -0.34951
 C67 C -0.12057 1.16237 -0.33703
 C68 C -0.10834 1.14718 -0.30937
 C69 C -0.12364 1.11981 -0.29682
 C70 C -0.15115 1.10730 -0.31191
 H71 H -0.19904 1.16480 -0.41568
 H72 H -0.20352 1.08905 -0.34482
 H73 H -0.15577 1.20506 -0.41308
 H74 H -0.08453 1.19999 -0.33784
 H75 H -0.08714 1.15676 -0.29741
 H76 H -0.16290 1.08619 -0.30190
 C77 C 0.66036 0.66620 0.62148
 C78 C 0.68814 0.65367 0.60670
 C79 C 0.70329 0.62614 0.61927
 C80 C 0.69070 0.61080 0.64656
 C81 C 0.66294 0.62300 0.66164
 C82 C 0.64767 0.65085 0.64910
 C83 C 0.64528 0.69406 0.60942
 C84 C 0.61784 0.70670 0.62468
 C85 C 0.60514 0.69144 0.65201
 C86 C 0.61992 0.66355 0.66438
 C87 C 0.60774 0.64836 0.69202
 C88 C 0.62301 0.62083 0.70446
 C89 C 0.65043 0.60813 0.68930
 H90 H 0.69818 0.66545 0.58564
 H91 H 0.70270 0.58958 0.65618
 H92 H 0.65508 0.70606 0.58835
 H93 H 0.58397 0.70142 0.66379
 H94 H 0.58660 0.65808 0.70404
 H95 H 0.66215 0.58689 0.69922
 C96 C 0.83895 0.33390 0.12061
 C97 C 0.81109 0.34642 0.10592
 C98 C 0.79597 0.37398 0.11856
 C99 C 0.80874 0.38932 0.14585
 C100 C 0.83656 0.37711 0.16083
 C101 C 0.85177 0.34926 0.14820
 C102 C 0.85397 0.30604 0.10847
 C103 C 0.88150 0.29341 0.12363
 C104 C 0.89433 0.30868 0.15094
 C105 C 0.87959 0.33657 0.16339
 C106 C 0.89191 0.35177 0.19101
 C107 C 0.87671 0.37931 0.20353
 C108 C 0.84921 0.39199 0.18846
 H109 H 0.80101 0.33457 0.08486
 H110 H 0.79685 0.41058 0.15560
 H111 H 0.84409 0.29402 0.08742
 H112 H 0.91556 0.29871 0.16265
 H113 H 0.91311 0.34205 0.20295
 H114 H 0.83755 0.41324 0.19844
 C115 C 0.33687 0.16185 0.88032
 C116 C 0.30912 0.14933 0.89501
 C117 C 0.29393 0.12198 0.88216
 C118 C 0.30651 0.10684 0.85465
 C119 C 0.33424 0.11906 0.83966
 C120 C 0.34951 0.14670 0.85251
 C121 C 0.35195 0.18953 0.89265
 C122 C 0.37934 0.20215 0.87747
 C123 C 0.39200 0.18710 0.84998
 C124 C 0.37722 0.15941 0.83733
 C125 C 0.38937 0.14448 0.80951
 C126 C 0.37412 0.11716 0.79674
 C127 C 0.34672 0.10442 0.81179
 H128 H 0.29917 0.16102 0.91623
 H129 H 0.29455 0.08576 0.84473
 H130 H 0.34226 0.20146 0.91383
 H131 H 0.41312 0.19716 0.83833
 H132 H 0.41048 0.15424 0.79758
 H133 H 0.33501 0.08335 0.80162
 C134 C 0.16149 0.83718 0.37985
 C135 C 0.18922 0.84975 0.39464
 C136 C 0.20434 0.87711 0.38190
 C137 C 0.19177 0.89226 0.35442
 C138 C 0.16408 0.88002 0.33932
 C139 C 0.14884 0.85234 0.35205
 C140 C 0.14647 0.80946 0.39208
 C141 C 0.11910 0.79678 0.37680
 C142 C 0.10643 0.81185 0.34929
 C143 C 0.12117 0.83959 0.33676
 C144 C 0.10903 0.85455 0.30893
 C145 C 0.12426 0.88191 0.29629
 C146 C 0.15161 0.89468 0.31147
 H147 H 0.19924 0.83811 0.41584
 H148 H 0.20376 0.91335 0.34466
 H149 H 0.15624 0.79759 0.41328
 H150 H 0.08533 0.80183 0.33749
 H151 H 0.08795 0.84477 0.29691
 H152 H 0.16331 0.91578 0.30139
 Zn153 Zn -0.00648 0.95867 0.01838
 Zn154 Zn -0.04024 1.01723 -0.00671
 Zn155 Zn 0.02464 1.02368 0.02468
 Zn156 Zn 0.01845 0.99216 -0.04013
 O157 O -0.00088 0.99797 -0.00091
 O158 O -0.04794 0.94987 0.02671
 O159 O -0.04333 1.05510 0.01375
 O160 O 0.03708 1.00382 0.06115
 O161 O -0.07304 0.99333 0.00803
 O162 O 0.01391 0.95586 0.05625
 O163 O 0.00457 1.06018 0.03703
 O164 O 0.05624 1.01259 -0.04298
 O165 O -0.04893 1.02574 -0.04815
 O166 O 0.06110 1.03607 0.00483
 O167 O -0.00537 1.00708 -0.07299
 O168 O 0.02703 0.95065 -0.04884
 O169 O 0.00859 0.92575 -0.00535
 C170 C -0.07351 0.96594 0.02161
 C171 C -0.02359 1.07068 0.03110
 C172 C 0.03120 0.97573 0.07175
 C173 C 0.07170 1.03003 -0.02321
 C174 C -0.03276 1.02075 -0.07359
 C175 C 0.02216 0.92515 -0.03271
 Zn176 Zn 0.48149 0.00786 0.46054
 Zn177 Zn 0.47524 -0.02361 0.52529
 Zn178 Zn 0.54014 -0.01721 0.49408
 Zn179 Zn 0.50637 0.04138 0.51917
 O180 O 0.50078 0.00207 0.49980
 O181 O 0.44367 -0.01252 0.45758
 O182 O 0.49528 -0.06008 0.53769
 O183 O 0.54882 -0.02582 0.45266
 O184 O 0.43881 -0.03602 0.50533
 O185 O 0.50529 -0.00715 0.42773
 O186 O 0.54322 -0.05504 0.51458
 O187 O 0.54783 0.05017 0.52760
 O188 O 0.46273 -0.00373 0.56171
 O189 O 0.57294 0.00672 0.50887
 O190 O 0.48592 0.04423 0.55698
 O191 O 0.49137 0.07428 0.49541
 O192 O 0.47298 0.04938 0.45183
 C193 C 0.42821 -0.02996 0.47728
 C194 C 0.52345 -0.07059 0.53186
 C195 C 0.53266 -0.02086 0.42718
 C196 C 0.57341 0.03412 0.52249
 C197 C 0.46858 0.02436 0.57237
 C198 C 0.47785 0.07488 0.46800
 Zn199 Zn 0.96042 0.48271 0.49321
 Zn200 Zn 1.02537 0.47612 0.52450
 Zn201 Zn 1.01893 0.50768 0.45976
 Zn202 Zn 0.99399 0.54118 0.51841
 O203 O 0.99972 0.50189 0.49901
 O204 O 0.95751 0.44486 0.51360
 O205 O 1.06184 0.46369 0.50455
 O206 O 0.99515 0.49275 0.42690
 O207 O 1.00547 0.43965 0.53680
 O208 O 0.95170 0.47420 0.45177
 O209 O 1.05683 0.48725 0.45682
 O210 O 1.00884 0.57408 0.49470
 O211 O 1.03783 0.49594 0.56099
 O212 O 1.02728 0.54920 0.45111
 O213 O 1.01450 0.54395 0.55623
 O214 O 0.95252 0.55002 0.52688
 O215 O 0.92755 0.50665 0.50807
 C216 C 0.97733 0.42921 0.53088
 C217 C 1.07239 0.46977 0.47652
 C218 C 0.96782 0.47912 0.42631
 C219 C 1.02233 0.57469 0.46730
 C220 C 1.03190 0.52405 0.57164
 C221 C 0.92700 0.53401 0.52177
 Zn222 Zn 0.50663 0.45916 1.01931
 Zn223 Zn 0.48164 0.49259 0.96065
 Zn224 Zn 0.47524 0.52422 1.02539
 Zn225 Zn 0.54019 0.51760 0.99419
 O226 O 0.50089 0.49843 0.99993
 O227 O 0.49166 0.42625 0.99562
 O228 O 0.44377 0.51308 0.95766
 O229 O 0.46282 0.50444 1.06187
 O230 O 0.47320 0.45108 0.95201
 O231 O 0.48624 0.45646 1.05713
 O232 O 0.43875 0.53666 1.00540
 O233 O 0.54313 0.55546 1.01465
 O234 O 0.50541 0.50745 0.92783
 O235 O 0.49516 0.56069 1.03775
 O236 O 0.54885 0.52610 0.95277
 O237 O 0.57308 0.49364 1.00901
 O238 O 0.54812 0.45027 1.02771
 C239 C 0.47810 0.42562 0.96823
 C240 C 0.42821 0.53058 0.97734
 C241 C 0.46882 0.47637 1.07254
 C242 C 0.52330 0.57112 1.03191
 C243 C 0.53273 0.52111 0.92729
 C244 C 0.57364 0.46625 1.02262
 C245 C 1.21252 0.41156 0.42079
 C246 C 1.18861 0.42306 0.39495
 C247 C 1.16035 0.43451 0.40723
 C248 C 1.15872 0.43338 0.44417
 C249 C 1.18852 0.45207 0.45571
 C250 C 1.21682 0.44059 0.44341
 C251 C 1.19387 0.38654 0.44068
 C252 C 1.16557 0.39801 0.45297
 C253 C 1.24284 0.39926 0.40724
 C254 C 1.26749 0.38916 0.39551
 C255 C 1.12814 0.44588 0.45697
 C256 C 1.10279 0.45654 0.46648
 H257 H 1.19345 0.42227 0.36924
 H258 H 1.14099 0.44354 0.39202
 H259 H 1.18750 0.47248 0.47212
 H260 H 1.24004 0.45118 0.44928
 H261 H 1.20218 0.36199 0.44477
 H262 H 1.14963 0.38331 0.46760
 C263 C 0.28827 0.58878 0.92094
 C264 C 0.29043 0.59164 0.95779
 C265 C 0.31869 0.58017 0.97026
 C266 C 0.34198 0.56699 0.94463
 C267 C 0.34649 0.59484 0.92068
 C268 C 0.31827 0.60629 0.90823
 C269 C 0.29431 0.55293 0.91368
 C270 C 0.32253 0.54148 0.92613
 C271 C 0.25801 0.60107 0.90721
 C272 C 0.23339 0.61116 0.89535
 C273 C 0.37251 0.55450 0.95760
 C274 C 0.39784 0.54383 0.96722
 H275 H 0.27145 0.60177 0.97276
 H276 H 0.32394 0.58047 0.99591
 H277 H 0.36981 0.60473 0.91410
 H278 H 0.31742 0.62599 0.89098
 H279 H 0.27785 0.53785 0.90000
 H280 H 0.33023 0.51658 0.92311
 C281 C -0.21308 0.90834 0.07859
 C282 C -0.21779 0.93100 0.04968
 C283 C -0.18958 0.94248 0.03732
 C284 C -0.15946 0.93016 0.05511
 C285 C -0.16204 0.89320 0.05412
 C286 C -0.19024 0.88173 0.06647
 C287 C -0.19307 0.92782 0.10290
 C288 C -0.16491 0.93928 0.09056
 C289 C -0.24330 0.89603 0.09219
 C290 C -0.26788 0.88596 0.10394
 C291 C -0.12901 0.94262 0.04217
 C292 C -0.10376 0.95311 0.03233
 H293 H -0.24120 0.93743 0.03978
 H294 H -0.18882 0.95875 0.01683
 H295 H -0.14340 0.87744 0.04453
 H296 H -0.19575 0.85613 0.06746
 H297 H -0.20040 0.93223 0.12764
 H298 H -0.14811 0.95351 0.10474
 C299 C 0.71319 0.09187 0.57915
 C300 C 0.70998 0.09634 0.54254
 C301 C 0.68171 0.08483 0.53027
 C302 C 0.65946 0.07000 0.55583
 C303 C 0.65486 0.09663 0.58119
 C304 C 0.68310 0.10812 0.59344
 C305 C 0.70829 0.05560 0.58485
 C306 C 0.68005 0.04411 0.57260
 C307 C 0.74349 0.10419 0.59264
 C308 C 0.76815 0.11423 0.60432
 C309 C 0.62895 0.05751 0.54299
 C310 C 0.60368 0.04699 0.53320
 H311 H 0.72829 0.10755 0.52759
 H312 H 0.67579 0.08618 0.50481
 H313 H 0.63147 0.10569 0.58883
 H314 H 0.68389 0.12702 0.61157
 H315 H 0.72550 0.04028 0.59739
 H316 H 0.67308 0.01894 0.57464
 C317 C 0.42006 0.21470 0.41073
 C318 C 0.41133 0.20790 0.44601
 C319 C 0.42384 0.17968 0.45744
 C320 C 0.44385 0.16100 0.43246
 C321 C 0.46959 0.18496 0.42098
 C322 C 0.45707 0.21322 0.40954
 C323 C 0.40871 0.18478 0.39207
 C324 C 0.42121 0.15656 0.40349
 C325 C 0.40632 0.24496 0.39845
 C326 C 0.39448 0.26959 0.38835
 C327 C 0.45696 0.13049 0.44485
 C328 C 0.46695 0.10520 0.45527
 H329 H 0.39665 0.22387 0.46075
 H330 H 0.41986 0.17148 0.48196
 H331 H 0.49535 0.18017 0.42177
 H332 H 0.47211 0.23264 0.40053
 H333 H 0.39232 0.18568 0.37165
 H334 H 0.41553 0.13329 0.39286
 C335 C 0.92153 0.28929 0.58886
 C336 C 0.93765 0.31009 0.61493
 C337 C 0.94997 0.33834 0.60350
 C338 C 0.94497 0.34299 0.56713
 C339 C 0.90846 0.33959 0.56189
 C340 C 0.89616 0.31139 0.57331
 C341 C 0.94750 0.28457 0.56289
 C342 C 0.95983 0.31283 0.55146
 C343 C 0.90794 0.25902 0.60111
 C344 C 0.89616 0.23442 0.61114
 C345 C 0.95779 0.37352 0.55467
 C346 C 0.96731 0.39884 0.54404
 H347 H 0.93927 0.30322 0.64013
 H348 H 0.96216 0.35567 0.61890
 H349 H 0.89357 0.35777 0.55023
 H350 H 0.87073 0.30540 0.57142
 H351 H 0.95552 0.26113 0.55427
 H352 H 0.97841 0.31359 0.53305
 C353 C 0.08051 0.78544 -0.08981
 C354 C 0.07385 0.78505 -0.05342
 C355 C 0.06123 0.81326 -0.04203
 C356 C 0.05649 0.83909 -0.06815
 C357 C 0.03551 0.82289 -0.09401
 C358 C 0.04815 0.79466 -0.10541
 C359 C 0.10241 0.81477 -0.09520
 C360 C 0.08979 0.84295 -0.08382
 C361 C 0.09438 0.75521 -0.10205
 C362 C 0.10629 0.73061 -0.11213
 C363 C 0.04325 0.86957 -0.05580
 C364 C 0.03316 0.89484 -0.04541
 H365 H 0.07861 0.76443 -0.03797
 H366 H 0.05516 0.81679 -0.01682
 H367 H 0.01275 0.83269 -0.10260
 H368 H 0.03622 0.78029 -0.12376
 H369 H 0.12579 0.81351 -0.10694
 H370 H 0.10236 0.86583 -0.08583
 C371 C 0.57876 0.71115 1.09031
 C372 C 0.58877 0.70373 1.05548
 C373 C 0.57655 0.67548 1.04396
 C374 C 0.55551 0.65738 1.06840
 C375 C 0.52948 0.68179 1.07858
 C376 C 0.54171 0.71008 1.09012
 C377 C 0.58922 0.68139 1.10977
 C378 C 0.57701 0.65313 1.09826
 C379 C 0.59226 0.74145 1.10264
 C380 C 0.60398 0.76610 1.11270
 C381 C 0.54279 0.62682 1.05585
 C382 C 0.53332 0.60149 1.04514
 H383 H 0.60408 0.71932 1.04109
 H384 H 0.58140 0.66688 1.01971
 H385 H 0.50374 0.67725 1.07690
 H386 H 0.52646 0.72980 1.09831
 H387 H 0.60483 0.68243 1.13079
 H388 H 0.58214 0.62997 1.10941
 C389 C 0.41007 0.42181 1.21250
 C390 C 0.39090 0.45094 1.19980
 C391 C 0.40252 0.46298 1.17151
 C392 C 0.43216 0.44469 1.15875
 C393 C 0.42150 0.40929 1.15653
 C394 C 0.40990 0.39727 1.18476
 C395 C 0.44511 0.43352 1.21472
 C396 C 0.45673 0.44555 1.18646
 C397 C 0.39764 0.40851 1.24279
 C398 C 0.38750 0.39695 1.26743
 C399 C 0.44480 0.45721 1.12821
 C400 C 0.45556 0.46652 1.10288
 H401 H 0.37007 0.46121 1.21195
 H402 H 0.39165 0.48356 1.15943
 H403 H 0.42292 0.39492 1.13467
 H404 H 0.40139 0.37261 1.18708
 H405 H 0.45952 0.43250 1.23656
 H406 H 0.48109 0.45484 1.18410
 C407 C 0.58904 -0.07977 0.28777
 C408 C 0.57736 -0.04468 0.28465
 C409 C 0.56616 -0.03191 0.31282
 C410 C 0.56775 -0.05550 0.34132
 C411 C 0.60315 -0.06639 0.34297
 C412 C 0.61434 -0.07914 0.31482
 C413 C 0.56027 -0.09818 0.30193
 C414 C 0.54909 -0.08543 0.33007
 C415 C 0.60107 -0.09376 0.25759
 C416 C 0.61101 -0.10575 0.23303
 C417 C 0.55559 -0.04212 0.37174
 C418 C 0.54531 -0.03193 0.39696
 H419 H 0.57786 -0.03107 0.26230
 H420 H 0.55706 -0.00737 0.31462
 H421 H 0.61812 -0.06423 0.36435
 H422 H 0.63890 -0.08791 0.31208
 H423 H 0.54961 -0.11937 0.29082
 H424 H 0.52883 -0.09571 0.34305
 C425 C -0.08942 1.07922 -0.21308
 C426 C -0.06536 1.05136 -0.21784
 C427 C -0.05409 1.03868 -0.18966
 C428 C -0.06799 1.05512 -0.15951
 C429 C -0.10476 1.05267 -0.16327
 C430 C -0.11603 1.06535 -0.19144
 C431 C -0.07163 1.10378 -0.19186
 C432 C -0.06037 1.09112 -0.16372
 C433 C -0.10154 1.09313 -0.24326
 C434 C -0.11155 1.10507 -0.26782
 C435 C -0.05576 1.04183 -0.12908
 C436 C -0.04544 1.03173 -0.10385
 H437 H -0.05787 1.04238 -0.24127
 H438 H -0.03694 1.01883 -0.18894
 H439 H -0.12054 1.04190 -0.14541
 H440 H -0.14147 1.06544 -0.19771
 H441 H -0.06816 1.12892 -0.19837
 H442 H -0.04727 1.10543 -0.14612
 C443 C 1.09102 0.57851 0.71171
 C444 C 1.10569 0.59439 0.68171
 C445 C 1.09401 0.58241 0.65344
 C446 C 1.06879 0.55571 0.65790
 C447 C 1.04273 0.57073 0.67955
 C448 C 1.05441 0.58271 0.70782
 C449 C 1.09716 0.54218 0.70733
 C450 C 1.08546 0.53018 0.67901
 C451 C 1.10352 0.59177 0.74204
 C452 C 1.11367 0.60332 0.76672
 C453 C 1.05606 0.54322 0.62733
 C454 C 1.04524 0.53392 0.60200
 H455 H 1.12370 0.61336 0.68258
 H456 H 1.10202 0.59112 0.63011
 H457 H 1.01732 0.57182 0.67324
 H458 H 1.03901 0.59407 0.72572
 H459 H 1.10958 0.52722 0.72490
 H460 H 1.08786 0.50494 0.67232
 C461 C 0.78727 0.59160 0.57920
 C462 C 0.80717 0.57165 0.60326
 C463 C 0.83537 0.56019 0.59084
 C464 C 0.84095 0.56979 0.55556
 C465 C 0.83840 0.60678 0.55516
 C466 C 0.81017 0.61825 0.56760
 C467 C 0.78265 0.56940 0.54991
 C468 C 0.81089 0.55793 0.53747
 C469 C 0.75701 0.60392 0.59287
 C470 C 0.73238 0.61402 0.60464
 C471 C 0.87145 0.55734 0.54253
 C472 C 0.89672 0.54685 0.53260
 H473 H 0.79975 0.56692 0.62790
 H474 H 0.85210 0.54565 0.60485
 H475 H 0.85709 0.62256 0.54590
 H476 H 0.80468 0.64386 0.56898
 H477 H 0.75927 0.56326 0.53982
 H478 H 0.81171 0.54196 0.51672
 C479 C 0.71345 0.40810 1.07955
 C480 C 0.70591 0.39556 1.04553
 C481 C 0.67765 0.40717 1.03319
 C482 C 0.65974 0.43016 1.05611
 C483 C 0.68428 0.45664 1.06433
 C484 C 0.71251 0.44504 1.07665
 C485 C 0.68373 0.39939 1.09977
 C486 C 0.65552 0.41098 1.08746
 C487 C 0.74373 0.39566 1.09310
 C488 C 0.76838 0.38548 1.10481
 C489 C 0.62923 0.44275 1.04320
 C490 C 0.60395 0.45334 1.03336
 H491 H 0.72140 0.37904 1.03230
 H492 H 0.66892 0.40060 1.00940
 H493 H 0.67988 0.48224 1.06075
 H494 H 0.73229 0.46071 1.08362
 H495 H 0.68476 0.38532 1.12183
 H496 H 0.63237 0.40684 1.09897
 C497 C 0.21154 1.08820 -0.07881
 C498 C 0.20340 1.05386 -0.09006
 C499 C 0.17519 1.04241 -0.07778
 C500 C 0.15786 1.06639 -0.05545
 C501 C 0.15375 1.09719 -0.07562
 C502 C 0.18196 1.10865 -0.08790
 C503 C 0.21110 1.08658 -0.04183
 C504 C 0.18284 1.07510 -0.02953
 C505 C 0.24180 1.10048 -0.09235
 C506 C 0.26640 1.11055 -0.10408
 C507 C 0.12735 1.05390 -0.04268
 C508 C 0.10204 1.04324 -0.03319
 H509 H 0.21847 1.03976 -0.10622
 H510 H 0.16612 1.01849 -0.08344
 H511 H 0.13070 1.10900 -0.07986
 H512 H 0.18308 1.13026 -0.10265
 H513 H 0.23118 1.09381 -0.02665
 H514 H 0.17871 1.07251 -0.00383
 C515 C 0.28829 -0.08833 0.42173
 C516 C 0.28397 -0.06824 0.45256
 C517 C 0.31224 -0.05671 0.46481
 C518 C 0.34202 -0.06642 0.44501
 C519 C 0.33481 -0.05473 0.41064
 C520 C 0.30659 -0.06623 0.39842
 C521 C 0.31252 -0.11493 0.43081
 C522 C 0.34078 -0.10341 0.44305
 C523 C 0.25802 -0.10067 0.40823
 C524 C 0.23340 -0.11078 0.39651
 C525 C 0.37255 -0.05387 0.45775
 C526 C 0.39787 -0.04318 0.46724
 H527 H 0.26078 -0.06351 0.46379
 H528 H 0.31327 -0.04211 0.48654
 H529 H 0.35050 -0.03878 0.39709
 H530 H 0.29811 -0.06014 0.37440
 H531 H 0.30787 -0.14056 0.42792
 H532 H 0.36033 -0.11917 0.45065
 C533 C 0.57885 -0.21066 0.59076
 C534 C 0.59160 -0.20181 0.55720
 C535 C 0.57943 -0.17354 0.54557
 C536 C 0.55570 -0.15685 0.56862
 C537 C 0.57434 -0.15302 0.60038
 C538 C 0.58651 -0.18130 0.61202
 C539 C 0.54195 -0.21061 0.58733
 C540 C 0.52976 -0.18229 0.57568
 C541 C 0.59230 -0.24099 0.60321
 C542 C 0.60401 -0.26568 0.61332
 C543 C 0.54301 -0.12628 0.55594
 C544 C 0.53354 -0.10094 0.54516
 H545 H 0.60866 -0.21648 0.54374
 H546 H 0.58608 -0.16400 0.52214
 H547 H 0.57765 -0.13011 0.61268
 H548 H 0.60025 -0.18262 0.63428
 H549 H 0.52675 -0.23099 0.59352
 H550 H 0.50412 -0.17840 0.57188
 C551 C 1.07984 0.71442 0.41046
 C552 C 1.06043 0.71840 0.44172
 C553 C 1.04796 0.69018 0.45306
 C554 C 1.05613 0.66076 0.43201
 C555 C 1.09309 0.66064 0.42953
 C556 C 1.10554 0.68882 0.41821
 C557 C 1.05666 0.69788 0.38678
 C558 C 1.04419 0.66966 0.39811
 C559 C 1.09353 0.74466 0.39828
 C560 C 1.10531 0.76926 0.38824
 C561 C 1.04307 0.63028 0.44429
 C562 C 1.03314 0.60500 0.45464
 H563 H 1.05677 0.74135 0.45387
 H564 H 1.03362 0.68895 0.47491
 H565 H 1.10817 0.64018 0.43608
 H566 H 1.13128 0.69252 0.41508
 H567 H 1.05056 0.70751 0.36320
 H568 H 1.02741 0.65510 0.38425
 C569 C -0.07941 1.21078 0.08970
 C570 C -0.06959 1.21238 0.05407
 C571 C -0.05732 1.18410 0.04250
 C572 C -0.05606 1.15698 0.06769
 C573 C -0.09075 1.15412 0.08028
 C574 C -0.10301 1.18238 0.09184
 C575 C -0.04898 1.19932 0.10755
 C576 C -0.03669 1.17101 0.09597
 C577 C -0.09295 1.24111 0.10210
 C578 C -0.10469 1.26579 0.11221
 C579 C -0.04326 1.12641 0.05508
 C580 C -0.03372 1.10106 0.04435
 H581 H -0.07203 1.23384 0.03925
 H582 H -0.04923 1.18134 0.01776
 H583 H -0.10448 1.13183 0.08015
 H584 H -0.12725 1.18428 0.10160
 H585 H -0.03804 1.21230 0.12749
 H586 H -0.01523 1.15974 0.10598
 C587 C 0.41971 0.28597 0.91178
 C588 C 0.45422 0.29241 0.89999
 C589 C 0.46688 0.32062 0.91124
 C590 C 0.44377 0.33959 0.93316
 C591 C 0.43439 0.31583 0.95993
 C592 C 0.42174 0.28764 0.94868
 C593 C 0.40032 0.31600 0.90186
 C594 C 0.41296 0.34417 0.91310
 C595 C 0.40584 0.25576 0.89967
 C596 C 0.39397 0.23118 0.88964
 C597 C 0.45704 0.37005 0.94535
 C598 C 0.46713 0.39532 0.95563
 H599 H 0.46753 0.27624 0.88422
 H600 H 0.49103 0.32862 0.90511
 H601 H 0.43744 0.32070 0.98546
 H602 H 0.41395 0.26837 0.96459
 H603 H 0.37857 0.31520 0.88727
 H604 H 0.40204 0.36750 0.90812
 C605 C 0.58898 0.58004 0.78805
 C606 C 0.58243 0.60537 0.81428
 C607 C 0.57127 0.59260 0.84235
 C608 C 0.56773 0.55572 0.84150
 C609 C 0.60114 0.54297 0.83174
 C610 C 0.61232 0.55576 0.80362
 C611 C 0.55707 0.56167 0.78427
 C612 C 0.54589 0.54888 0.81238
 C613 C 0.60100 0.59406 0.75793
 C614 C 0.61095 0.60606 0.73342
 C615 C 0.55560 0.54232 0.87188
 C616 C 0.54534 0.53214 0.89707
 H617 H 0.58623 0.63110 0.81107
 H618 H 0.56552 0.60740 0.86320
 H619 H 0.61479 0.52542 0.84565
 H620 H 0.63555 0.54917 0.79345
 H621 H 0.54439 0.55892 0.76152
 H622 H 0.52364 0.53516 0.81371
 C623 C 0.40906 0.07826 0.71249
 C624 C 0.40751 0.10253 0.68459
 C625 C 0.41929 0.09073 0.65630
 C626 C 0.43150 0.05578 0.65863
 C627 C 0.40282 0.03650 0.67186
 C628 C 0.39101 0.04833 0.70020
 C629 C 0.44460 0.06789 0.71437
 C630 C 0.45640 0.05607 0.68605
 C631 C 0.39644 0.09133 0.74285
 C632 C 0.38621 0.10276 0.76755
 C633 C 0.44434 0.04346 0.62804
 C634 C 0.45522 0.03424 0.60271
 H635 H 0.39796 0.12688 0.68686
 H636 H 0.41984 0.10496 0.63434
 H637 H 0.39271 0.01543 0.66004
 H638 H 0.37078 0.03739 0.71266
 H639 H 0.45920 0.06964 0.73604
 H640 H 0.48111 0.04769 0.68347
 C641 C 0.08975 0.92116 0.21202
 C642 C 0.05707 0.90692 0.20207
 C643 C 0.04552 0.91892 0.17376
 C644 C 0.06775 0.94401 0.15813
 C645 C 0.10054 0.92698 0.15484
 C646 C 0.11210 0.91497 0.18317
 C647 C 0.08444 0.95788 0.21250
 C648 C 0.07286 0.96990 0.18413
 C649 C 0.10212 0.90790 0.24240
 C650 C 0.11222 0.89635 0.26711
 C651 C 0.05516 0.95651 0.12751
 C652 C 0.04444 0.96584 0.10214
 H653 H 0.04412 0.88900 0.21606
 H654 H 0.02266 0.91127 0.16350
 H655 H 0.11355 0.92461 0.13226
 H656 H 0.13501 0.90231 0.18485
 H657 H 0.08935 0.97308 0.23325
 H658 H 0.06785 0.99540 0.18059
 C659 C 0.91112 0.42013 0.28708
 C660 C 0.94334 0.40550 0.29812
 C661 C 0.95463 0.41829 0.32620
 C662 C 0.93259 0.44447 0.34052
 C663 C 0.89945 0.42836 0.34381
 C664 C 0.88816 0.41557 0.31573
 C665 C 0.91712 0.45667 0.28540
 C666 C 0.92842 0.46947 0.31351
 C667 C 0.89897 0.40609 0.25697
 C668 C 0.88890 0.39409 0.23247
 C669 C 0.94484 0.45789 0.37088
 C670 C 0.95516 0.46808 0.39608
 H671 H 0.95619 0.38675 0.28502
 H672 H 0.97715 0.41049 0.33714
 H673 H 0.88600 0.42714 0.36623
 H674 H 0.86505 0.40339 0.31409
 H675 H 0.91287 0.47119 0.26402
 H676 H 0.93385 0.49496 0.31623
   
