data_POSCAR
  _audit_creation_date              2014-09-24
  _audit_creation_method            'ToBaCCo'
  _symmetry_space_group_name_H-M    'P1'
  _symmetry_Int_Tables_number       1
  _symmetry_cell_setting            triclinic
  loop_
  _symmetry_equiv_pos_as_xyz
 x,y,z
_cell_length_a 29.5704
_cell_length_b 29.4219
_cell_length_c 29.1325
_cell_angle_alpha 89.953200
_cell_angle_beta 89.749700
_cell_angle_gamma 88.445600
loop_
  _atom_site_label
  _atom_site_type_symbol
  _atom_site_fract_x
  _atom_site_fract_y
  _atom_site_fract_z
O1 O -0.03972 0.32374 0.03530
 O2 O 0.05000 0.31885 -0.05195
 O3 O -0.03677 0.31739 -0.05387
 O4 O 0.04851 0.32401 0.03723
 O5 O 0.05109 0.24903 0.04185
 O6 O -0.03455 0.24238 -0.04918
 O7 O 0.05383 0.24394 -0.04689
 O8 O -0.03770 0.24875 0.03972
 Cu9 Cu 0.00519 0.32853 -0.00857
 Cu10 Cu 0.00838 0.23845 -0.00297
 C11 C -0.05440 0.28712 0.05198
 C12 C 0.06725 0.28083 -0.06438
 C13 C -0.04996 0.27889 -0.06720
 C14 C 0.06476 0.28754 0.05461
 O15 O 0.53449 0.81217 0.44723
 O16 O 0.44559 0.81696 0.53607
 O17 O 0.53295 0.81604 0.53729
 O18 O 0.44720 0.81261 0.44676
 O19 O 0.44781 0.73757 0.45038
 O20 O 0.53536 0.74097 0.54005
 O21 O 0.44698 0.74192 0.53958
 O22 O 0.53642 0.73713 0.45038
 Cu23 Cu 0.49006 0.82194 0.49148
 Cu24 Cu 0.49189 0.73182 0.49543
 C25 C 0.55027 0.77403 0.43332
 C26 C 0.43117 0.78030 0.55299
 C27 C 0.54851 0.77916 0.55432
 C28 C 0.43279 0.77468 0.43326
 O29 O 1.04627 0.67993 0.02906
 O30 O 0.95811 0.68204 -0.05804
 O31 O 1.04411 0.70236 -0.05852
 O32 O 0.95773 0.67483 0.03092
 O33 O 0.94711 0.74860 0.04204
 O34 O 1.02253 0.77438 -0.05155
 O35 O 0.94165 0.75431 -0.04331
 O36 O 1.03791 0.75403 0.03829
 Cu37 Cu 1.00315 0.67760 -0.01514
 Cu38 Cu 0.98799 0.76492 -0.00107
 C39 C 1.05767 0.71627 0.04840
 C40 C 0.93392 0.71759 -0.06472
 C41 C 1.04598 0.74375 -0.07154
 C42 C 0.93722 0.70801 0.05101
 O43 O 0.55438 0.17258 0.53679
 O44 O 0.46612 0.17716 0.44815
 O45 O 0.55299 0.17771 0.44760
 O46 O 0.46606 0.17069 0.53733
 O47 O 0.46285 0.24566 0.54183
 O48 O 0.55075 0.25271 0.45236
 O49 O 0.46262 0.25213 0.45294
 O50 O 0.55183 0.24755 0.54127
 Cu51 Cu 0.51018 0.16699 0.49227
 Cu52 Cu 0.50670 0.25708 0.49785
 C53 C 0.56862 0.20929 0.55362
 C54 C 0.44958 0.21531 0.43524
 C55 C 0.56647 0.21619 0.43453
 C56 C 0.44915 0.20701 0.55436
 O57 O 0.67541 -0.04193 0.04616
 O58 O 0.67414 0.05146 -0.03745
 O59 O 0.67267 -0.03632 -0.04360
 O60 O 0.68057 0.04561 0.05140
 O61 O 0.75519 0.04170 0.04677
 O62 O 0.74731 -0.04111 -0.04684
 O63 O 0.74873 0.04753 -0.04161
 O64 O 0.75001 -0.04691 0.04248
 Cu65 Cu 0.66823 0.00503 0.00457
 Cu66 Cu 0.75782 -0.00030 -0.00026
 C67 C 0.71266 -0.06017 0.05883
 C68 C 0.71107 0.06566 -0.05366
 C69 C 0.70890 -0.05257 -0.06139
 C70 C 0.71918 0.05785 0.06490
 O71 O 0.16620 0.54091 0.46286
 O72 O 0.17573 0.45238 0.55199
 O73 O 0.17183 0.53992 0.55247
 O74 O 0.16970 0.45189 0.46278
 O75 O 0.24425 0.45265 0.45795
 O76 O 0.24637 0.54102 0.54728
 O77 O 0.25029 0.45267 0.54656
 O78 O 0.24073 0.54196 0.45810
 Cu79 Cu 0.16335 0.49624 0.50777
 Cu80 Cu 0.25289 0.49730 0.50168
 C81 C 0.20197 0.55683 0.44563
 C82 C 0.21449 0.43764 0.56456
 C83 C 0.20947 0.55502 0.56550
 C84 C 0.20668 0.43678 0.44566
 O85 O 0.32988 1.03770 0.05067
 O86 O 0.33299 0.94673 -0.03578
 O87 O 0.33494 1.03593 -0.03872
 O88 O 0.32331 0.95086 0.05334
 O89 O 0.24889 0.95604 0.04708
 O90 O 0.26052 1.04146 -0.04372
 O91 O 0.25859 0.95200 -0.04138
 O92 O 0.25552 1.04398 0.04503
 Cu93 Cu 0.33777 0.99219 0.00761
 Cu94 Cu 0.24845 0.99890 0.00082
 C95 C 0.29244 1.05611 0.06294
 C96 C 0.29627 0.93328 -0.05271
 C97 C 0.29943 1.05394 -0.05619
 C98 C 0.28408 0.93937 0.06608
 O99 O 0.83072 0.54483 0.54599
 O100 O 0.83535 0.45277 0.46098
 O101 O 0.83182 0.54133 0.45710
 O102 O 0.82908 0.45651 0.55032
 O103 O 0.75444 0.45674 0.54693
 O104 O 0.75710 0.54226 0.45533
 O105 O 0.76068 0.45351 0.45823
 O106 O 0.75601 0.54575 0.54391
 Cu107 Cu 0.83925 0.49862 0.50388
 Cu108 Cu 0.74955 0.49959 0.50086
 C109 C 0.79275 0.56135 0.55900
 C110 C 0.79892 0.43739 0.44519
 C111 C 0.79462 0.55666 0.44089
 C112 C 0.79128 0.44199 0.56417
 C113 C 0.21267 0.20806 0.14240
 C114 C 0.24746 0.18467 0.16563
 C115 C 0.26128 0.20046 0.20860
 C116 C 0.24378 0.24168 0.22715
 C117 C 0.21021 0.26573 0.20182
 C118 C 0.19361 0.24846 0.16037
 C119 C 0.26084 0.25936 0.27229
 C120 C 0.23517 0.29112 0.29864
 C121 C 0.25169 0.30823 0.34018
 C122 C 0.29304 0.29118 0.35734
 C123 C 0.31823 0.25808 0.33305
 C124 C 0.30306 0.24418 0.28985
 H125 H 0.20190 0.19599 0.10921
 H126 H 0.28564 0.17980 0.22731
 H127 H 0.19658 0.29789 0.21401
 H128 H 0.20233 0.30303 0.28712
 H129 H 0.30461 0.30229 0.39058
 H130 H 0.32494 0.22163 0.27010
 C131 C 0.78401 0.77854 0.13366
 C132 C 0.75000 0.80291 0.15732
 C133 C 0.73541 0.78693 0.20013
 C134 C 0.75184 0.74511 0.21824
 C135 C 0.78466 0.72014 0.19238
 C136 C 0.80207 0.73750 0.15120
 C137 C 0.73553 0.72848 0.26423
 C138 C 0.76192 0.69738 0.29039
 C139 C 0.74671 0.68145 0.33302
 C140 C 0.70578 0.69876 0.35126
 C141 C 0.67982 0.73125 0.32716
 C142 C 0.69391 0.74442 0.28310
 H143 H 0.79566 0.79092 0.10080
 H144 H 0.71187 0.80810 0.21949
 H145 H 0.79763 0.68759 0.20425
 H146 H 0.79445 0.68521 0.27794
 H147 H 0.69518 0.68841 0.38521
 H148 H 0.67180 0.76699 0.26376
 C149 C 0.80038 0.20818 0.14148
 C150 C 0.81800 0.24872 0.15830
 C151 C 0.80181 0.26657 0.20020
 C152 C 0.77034 0.24290 0.22695
 C153 C 0.75503 0.20117 0.21011
 C154 C 0.76769 0.18505 0.16663
 C155 C 0.75257 0.26147 0.27172
 C156 C 0.71063 0.24739 0.28896
 C157 C 0.69500 0.26082 0.33237
 C158 C 0.71889 0.29309 0.35702
 C159 C 0.75964 0.30970 0.33975
 C160 C 0.77701 0.29266 0.29796
 H161 H 0.81066 0.19581 0.10793
 H162 H 0.81403 0.29885 0.21171
 H163 H 0.73299 0.18059 0.23062
 H164 H 0.68950 0.22575 0.26882
 H165 H 0.70682 0.30386 0.39052
 H166 H 0.80944 0.30403 0.28611
 C167 C 0.19565 0.79468 0.14473
 C168 C 0.17745 0.75406 0.16062
 C169 C 0.19323 0.73483 0.20205
 C170 C 0.22512 0.75726 0.22922
 C171 C 0.24095 0.79926 0.21325
 C172 C 0.22882 0.81648 0.17009
 C173 C 0.24351 0.73680 0.27296
 C174 C 0.28577 0.75020 0.28979
 C175 C 0.30224 0.73497 0.33218
 C176 C 0.27874 0.70174 0.35610
 C177 C 0.23782 0.68552 0.33919
 C178 C 0.21966 0.70422 0.29846
 H179 H 0.18594 0.80766 0.11131
 H180 H 0.18074 0.70224 0.21250
 H181 H 0.26338 0.81898 0.23395
 H182 H 0.30663 0.77258 0.27001
 H183 H 0.29141 0.68975 0.38886
 H184 H 0.18718 0.69309 0.28683
 C185 C 0.71431 0.28866 0.64117
 C186 C 0.69677 0.24820 0.65855
 C187 C 0.71366 0.23037 0.70011
 C188 C 0.74591 0.25381 0.72588
 C189 C 0.76154 0.29517 0.70823
 C190 C 0.74778 0.31156 0.66522
 C191 C 0.76372 0.23549 0.77068
 C192 C 0.80610 0.24879 0.78722
 C193 C 0.82172 0.23533 0.83063
 C194 C 0.79703 0.20398 0.85604
 C195 C 0.75554 0.18868 0.83975
 C196 C 0.73849 0.20556 0.79790
 H197 H 0.70330 0.30121 0.60800
 H198 H 0.70135 0.19828 0.71220
 H199 H 0.78441 0.31539 0.72791
 H200 H 0.82750 0.26989 0.76655
 H201 H 0.80885 0.19320 0.88955
 H202 H 0.70553 0.19516 0.78688
 C203 C 0.28832 0.70295 0.64707
 C204 C 0.30752 0.74222 0.66481
 C205 C 0.29201 0.75947 0.70722
 C206 C 0.25870 0.73697 0.73287
 C207 C 0.24047 0.69722 0.71434
 C208 C 0.25401 0.68092 0.67100
 C209 C 0.24162 0.75577 0.77781
 C210 C 0.19658 0.74870 0.79212
 C211 C 0.17998 0.76767 0.83307
 C212 C 0.20747 0.79534 0.85926
 C213 C 0.25174 0.80421 0.84541
 C214 C 0.26916 0.78305 0.80556
 H215 H 0.29854 0.69089 0.61341
 H216 H 0.30576 0.79071 0.71982
 H217 H 0.21570 0.67861 0.73358
 H218 H 0.17348 0.73038 0.77070
 H219 H 0.19350 0.81109 0.88999
 H220 H 0.30372 0.78905 0.79560
 C221 C 0.29953 0.28491 0.64231
 C222 C 0.26536 0.30834 0.66671
 C223 C 0.25274 0.29251 0.71014
 C224 C 0.26995 0.25080 0.72771
 C225 C 0.30294 0.22683 0.70143
 C226 C 0.31891 0.24444 0.65973
 C227 C 0.25287 0.23250 0.77269
 C228 C 0.27774 0.19949 0.79812
 C229 C 0.26079 0.18215 0.83959
 C230 C 0.22003 0.20021 0.85762
 C231 C 0.19597 0.23451 0.83417
 C232 C 0.21117 0.24845 0.79100
 H233 H 0.30976 0.29709 0.60888
 H234 H 0.22946 0.31350 0.72997
 H235 H 0.31668 0.19456 0.71312
 H236 H 0.31022 0.18678 0.78604
 H237 H 0.20823 0.18918 0.89095
 H238 H 0.18970 0.27199 0.77211
 C239 C 0.70250 0.70993 0.63935
 C240 C 0.74353 0.69378 0.65774
 C241 C 0.75897 0.71222 0.69901
 C242 C 0.73252 0.74432 0.72419
 C243 C 0.69100 0.75947 0.70496
 C244 C 0.67681 0.74383 0.66197
 C245 C 0.74838 0.76190 0.76986
 C246 C 0.73050 0.80289 0.78873
 C247 C 0.74519 0.81883 0.83140
 C248 C 0.78011 0.79525 0.85434
 C249 C 0.79903 0.75500 0.83631
 C250 C 0.78192 0.73780 0.79517
 H251 H 0.69168 0.69757 0.60629
 H252 H 0.79174 0.70096 0.71118
 H253 H 0.66896 0.78313 0.72317
 H254 H 0.70570 0.82334 0.77039
 H255 H 0.79150 0.80735 0.88726
 H256 H 0.79532 0.70560 0.78309
 N257 N 0.31657 0.13681 0.14969
 N258 N 0.32937 0.10181 0.11977
 C259 C 0.29229 0.08983 0.09650
 C260 C 0.25538 0.11660 0.11068
 C261 C 0.27203 0.14582 0.14375
 H262 H 0.22119 0.11579 0.09765
 H263 H 0.33886 0.15446 0.17038
 H264 H 0.36222 0.08824 0.11632
 N265 N 0.81575 0.65186 0.63681
 N266 N 0.82849 0.61680 0.61109
 C267 C 0.79162 0.59961 0.59131
 C268 C 0.75373 0.62489 0.60475
 C269 C 0.77046 0.65784 0.63368
 H270 H 0.71899 0.61992 0.59482
 H271 H 0.83811 0.67166 0.65525
 H272 H 0.86197 0.60525 0.60696
 N273 N 0.68527 0.85801 0.14497
 N274 N 0.67532 0.89336 0.11856
 C275 C 0.71192 0.90313 0.09313
 C276 C 0.74683 0.87256 0.10372
 C277 C 0.72843 0.84423 0.13677
 H278 H 0.78037 0.87068 0.08872
 H279 H 0.66213 0.84282 0.16695
 H280 H 0.64373 0.91009 0.11774
 N281 N 0.19659 0.35824 0.65537
 N282 N 0.18294 0.39153 0.62790
 C283 C 0.21764 0.40281 0.60055
 C284 C 0.25514 0.37553 0.61093
 C285 C 0.24030 0.34744 0.64592
 H286 H 0.28799 0.37537 0.59443
 H287 H 0.17551 0.34219 0.67883
 H288 H 0.15017 0.40572 0.62761
 N289 N 0.85829 0.31822 0.13245
 N290 N 0.89188 0.32818 0.10446
 C291 C 0.90847 0.28941 0.08556
 C292 C 0.88428 0.25317 0.10192
 C293 C 0.85263 0.27288 0.13162
 H294 H 0.88910 0.21757 0.09341
 H295 H 0.83921 0.34239 0.15092
 H296 H 0.90300 0.36105 0.09840
 N297 N 0.34927 0.81113 0.63946
 N298 N 0.38134 0.82109 0.60963
 C299 C 0.39582 0.78255 0.58868
 C300 C 0.37186 0.74645 0.60579
 C301 C 0.34245 0.76601 0.63793
 H302 H 0.37522 0.71106 0.59594
 H303 H 0.33174 0.83524 0.65948
 H304 H 0.39284 0.85384 0.60368
 N305 N 0.14389 0.68440 0.12802
 N306 N 0.11113 0.67424 0.09567
 C307 C 0.09210 0.71378 0.08099
 C308 C 0.11225 0.74978 0.10308
 C309 C 0.14462 0.72995 0.13202
 H310 H 0.10484 0.78570 0.09827
 H311 H 0.16523 0.66045 0.14403
 H312 H 0.10334 0.64140 0.08526
 N313 N 0.65558 0.17877 0.63420
 N314 N 0.62191 0.16867 0.60665
 C315 C 0.60548 0.20728 0.58738
 C316 C 0.62990 0.24358 0.60312
 C317 C 0.66154 0.22406 0.63278
 H318 H 0.62538 0.27908 0.59403
 H319 H 0.67461 0.15466 0.65268
 H320 H 0.61073 0.13578 0.60100
 N321 N 0.68373 0.15541 0.86837
 N322 N 0.67154 0.12113 0.89871
 C323 C 0.70991 0.10154 0.91508
 C324 C 0.74702 0.12274 0.89618
 C325 C 0.72927 0.15628 0.86726
 H326 H 0.78238 0.11475 0.90259
 H327 H 0.66093 0.17707 0.85120
 H328 H 0.63831 0.11274 0.90667
 N329 N 0.16914 0.64307 0.36420
 N330 N 0.15978 0.60928 0.39240
 C331 C 0.19860 0.59339 0.41125
 C332 C 0.23416 0.61813 0.39449
 C333 C 0.21413 0.64957 0.36484
 H334 H 0.26959 0.61398 0.40314
 H335 H 0.14477 0.66189 0.34595
 H336 H 0.12726 0.59776 0.39884
 N337 N 0.32361 0.83986 0.87192
 N338 N 0.33518 0.87406 0.89851
 C339 C 0.29730 0.89487 0.91490
 C340 C 0.26008 0.87292 0.89824
 C341 C 0.27809 0.83795 0.87120
 H342 H 0.22485 0.88138 0.90505
 H343 H 0.34675 0.81789 0.85544
 H344 H 0.36849 0.88261 0.90552
 N345 N 0.82930 0.34987 0.36446
 N346 N 0.83952 0.38347 0.39232
 C347 C 0.80112 0.40014 0.41171
 C348 C 0.76491 0.37607 0.39578
 C349 C 0.78418 0.34433 0.36588
 H350 H 0.72956 0.38107 0.40471
 H351 H 0.85315 0.33072 0.34569
 H352 H 0.87230 0.39454 0.39797
 N353 N 0.14914 0.30421 0.84990
 N354 N 0.11402 0.31739 0.87936
 C355 C 0.10122 0.28018 0.90242
 C356 C 0.12763 0.24276 0.88864
 C357 C 0.15741 0.25933 0.85595
 H358 H 0.12628 0.20837 0.90169
 H359 H 0.16730 0.32647 0.82938
 H360 H 0.10092 0.35057 0.88267
 N361 N 0.62622 0.79720 0.34053
 N362 N 0.59311 0.80875 0.36916
 C363 C 0.58457 0.77308 0.39652
 C364 C 0.61362 0.73709 0.38483
 C365 C 0.63980 0.75389 0.34915
 H366 H 0.61610 0.70396 0.40093
 H367 H 0.64027 0.81944 0.31681
 H368 H 0.57706 0.84081 0.37014
 N369 N 0.84888 0.68698 0.85484
 N370 N 0.88461 0.67754 0.88052
 C371 C 0.89621 0.71550 0.90286
 C372 C 0.86658 0.75067 0.89109
 C373 C 0.83693 0.73124 0.86037
 H374 H 0.86707 0.78553 0.90286
 H375 H 0.83292 0.66299 0.83462
 H376 H 0.90046 0.64546 0.88283
 N377 N 0.37225 0.19229 0.34461
 N378 N 0.40607 0.18078 0.37207
 C379 C 0.41501 0.21640 0.39917
 C380 C 0.38556 0.25230 0.38859
 C381 C 0.35869 0.23552 0.35378
 H382 H 0.38323 0.28530 0.40493
 H383 H 0.35772 0.17001 0.32139
 H384 H 0.42219 0.14875 0.37256
 N385 N 0.67894 0.87108 0.84867
 N386 N 0.66900 0.90438 0.87778
 C387 C 0.70666 0.91439 0.90107
 C388 C 0.74206 0.88653 0.88618
 C389 C 0.72307 0.85910 0.85320
 H390 H 0.77631 0.88518 0.89914
 H391 H 0.65525 0.85553 0.82780
 H392 H 0.63674 0.91911 0.88224
 N393 N 0.18022 0.34955 0.36504
 N394 N 0.16847 0.38344 0.39279
 C395 C 0.20611 0.39989 0.41173
 C396 C 0.24342 0.37534 0.39561
 C397 C 0.22561 0.34354 0.36610
 H398 H 0.27853 0.37990 0.40439
 H399 H 0.15721 0.33041 0.34670
 H400 H 0.13517 0.39471 0.39881
 N401 N 0.33134 0.13994 0.86476
 N402 N 0.34204 0.10393 0.89439
 C403 C 0.30288 0.08844 0.91130
 C404 C 0.26689 0.11375 0.89331
 C405 C 0.28594 0.14583 0.86474
 H406 H 0.23131 0.10988 0.90085
 H407 H 0.35502 0.15967 0.84781
 H408 H 0.37480 0.09234 0.90224
 N409 N 0.81908 0.64109 0.35632
 N410 N 0.83168 0.60809 0.38474
 C411 C 0.79458 0.59226 0.40563
 C412 C 0.75682 0.61621 0.39012
 C413 C 0.77371 0.64704 0.35893
 H414 H 0.72198 0.61189 0.40039
 H415 H 0.84151 0.65970 0.33647
 H416 H 0.86514 0.59706 0.38993
 N417 N 0.10495 0.80367 0.84228
 N418 N 0.06851 0.79818 0.87185
 C419 C 0.07351 0.75719 0.89217
 C420 C 0.11267 0.73538 0.87570
 C421 C 0.13182 0.76621 0.84531
 H422 H 0.12839 0.70442 0.88890
 H423 H 0.11294 0.83427 0.82636
 H424 H 0.04373 0.82326 0.87875
 N425 N 0.64486 0.19481 0.34312
 N426 N 0.61168 0.18277 0.37057
 C427 C 0.60066 0.21802 0.39816
 C428 C 0.62796 0.25420 0.38801
 C429 C 0.65582 0.23797 0.35288
 H430 H 0.62843 0.28694 0.40488
 H431 H 0.66082 0.17289 0.31958
 H432 H 0.59748 0.15065 0.37079
 N433 N 0.87355 0.30020 0.84018
 N434 N 0.90658 0.31200 0.86766
 C435 C 0.91652 0.27704 0.89596
 C436 C 0.88861 0.24126 0.88619
 C437 C 0.86152 0.25746 0.85059
 H438 H 0.88712 0.20891 0.90375
 H439 H 0.85832 0.32210 0.81625
 H440 H 0.92135 0.34386 0.86748
 N441 N 0.35383 0.79975 0.34370
 N442 N 0.38757 0.81042 0.37079
 C443 C 0.39831 0.77428 0.39727
 C444 C 0.37020 0.73890 0.38668
 C445 C 0.34216 0.75657 0.35252
 H446 H 0.36933 0.70576 0.40275
 H447 H 0.33800 0.82262 0.32110
 H448 H 0.40229 0.84228 0.37159
 N449 N 0.29809 0.86235 0.16015
 N450 N 0.31308 0.89377 0.13198
 C451 C 0.27945 0.90638 0.10338
 C452 C 0.24127 0.88207 0.11370
 C453 C 0.25456 0.85416 0.14989
 H454 H 0.20911 0.88336 0.09611
 H455 H 0.31828 0.84545 0.18441
 H456 H 0.34606 0.90562 0.13194
 N457 N 0.81409 0.36136 0.65358
 N458 N 0.82581 0.39520 0.62661
 C459 C 0.79026 0.40715 0.60018
 C460 C 0.75427 0.37969 0.61060
 C461 C 0.77084 0.35084 0.64465
 H462 H 0.72132 0.37984 0.59458
 H463 H 0.83621 0.34474 0.67628
 H464 H 0.85790 0.40919 0.62589
 N465 N 0.70053 0.13633 0.15695
 N466 N 0.68744 0.10341 0.12971
 C467 C 0.72203 0.09150 0.10172
 C468 C 0.75884 0.11796 0.11139
 C469 C 0.74372 0.14627 0.14663
 H470 H 0.79125 0.11775 0.09400
 H471 H 0.67929 0.15289 0.18069
 H472 H 0.65504 0.09010 0.12980
 N473 N 0.18657 0.63311 0.65743
 N474 N 0.17453 0.60075 0.62892
 C475 C 0.21026 0.58908 0.60226
 C476 C 0.24669 0.61500 0.61428
 C477 C 0.23022 0.64284 0.64934
 H478 H 0.28000 0.61443 0.59873
 H479 H 0.16449 0.64931 0.68065
 H480 H 0.14216 0.58747 0.62744
 N481 N 0.84986 0.66907 0.12659
 N482 N 0.88581 0.66110 0.10010
 C483 C 0.89999 0.70110 0.08369
 C484 C 0.87191 0.73570 0.10008
 C485 C 0.84032 0.71424 0.12689
 H486 H 0.87401 0.77169 0.09292
 H487 H 0.83174 0.64380 0.14311
 H488 H 0.89984 0.62888 0.09312
 N489 N 0.36408 0.17512 0.63515
 N490 N 0.39850 0.16538 0.60744
 C491 C 0.41266 0.20425 0.58842
 C492 C 0.38609 0.24025 0.60440
 C493 C 0.35549 0.22038 0.63393
 H494 H 0.38856 0.27582 0.59550
 H495 H 0.34635 0.15083 0.65354
 H496 H 0.41164 0.13260 0.60147
 N497 N 0.14854 0.31819 0.13670
 N498 N 0.11460 0.32841 0.10879
 C499 C 0.10051 0.28983 0.08929
 C500 C 0.12662 0.25353 0.10525
 C501 C 0.15692 0.27290 0.13518
 H502 H 0.12420 0.21810 0.09583
 H503 H 0.16623 0.34222 0.15530
 H504 H 0.10183 0.36133 0.10290
 N505 N 0.62343 0.80891 0.64492
 N506 N 0.59049 0.81855 0.61572
 C507 C 0.58199 0.78099 0.59124
 C508 C 0.61066 0.74583 0.60538
 C509 C 0.63676 0.76504 0.63939
 H510 H 0.61313 0.71168 0.59166
 H511 H 0.63765 0.83273 0.66673
 H512 H 0.57469 0.85055 0.61228
   
