data_POSCAR
  _audit_creation_date              2014-09-24
  _audit_creation_method            'ToBaCCo'
  _symmetry_space_group_name_H-M    'P1'
  _symmetry_Int_Tables_number       1
  _symmetry_cell_setting            triclinic
  loop_
  _symmetry_equiv_pos_as_xyz
 x,y,z
_cell_length_a 54.0017
_cell_length_b 53.5677
_cell_length_c 53.7788
_cell_angle_alpha 89.921300
_cell_angle_beta 89.987900
_cell_angle_gamma 90.084400
loop_
  _atom_site_label
  _atom_site_type_symbol
  _atom_site_fract_x
  _atom_site_fract_y
  _atom_site_fract_z
N1 N 0.59709 0.66539 0.61454
 N2 N 0.58763 0.65537 0.63479
 C3 C 0.56758 0.66861 0.64171
 C4 C 0.56451 0.68780 0.62491
 C5 C 0.58343 0.68533 0.60791
 H6 H 0.55605 0.66465 0.65768
 H7 H 0.58695 0.69711 0.59195
 Cu8 Cu 0.60237 0.62599 0.65005
 Cu9 Cu 0.62631 0.65181 0.59826
 Cu10 Cu 0.65234 0.59880 0.62443
 N11 N 0.61689 0.59595 0.66420
 N12 N 0.63643 0.58539 0.65407
 C13 C 0.64266 0.56503 0.66739
 C14 C 0.62610 0.56288 0.68676
 C15 C 0.60998 0.58264 0.68433
 H16 H 0.65802 0.55276 0.66330
 H17 H 0.59447 0.58694 0.69630
 N18 N 0.66578 0.61511 0.59446
 N19 N 0.65588 0.63533 0.58451
 C20 C 0.66924 0.64201 0.56439
 C21 C 0.68829 0.62518 0.56171
 C22 C 0.68569 0.60839 0.58093
 H23 H 0.66548 0.65791 0.55258
 H24 H 0.69746 0.59252 0.58474
 H25 H 0.62090 0.61547 0.61008
 H26 H 0.64158 0.63547 0.62951
 N27 N 0.90390 0.33470 0.11374
 N28 N 0.91359 0.34488 0.13377
 C29 C 0.93362 0.33160 0.14072
 C30 C 0.93642 0.31224 0.12413
 C31 C 0.91739 0.31461 0.10724
 H32 H 0.94527 0.33566 0.15657
 H33 H 0.91366 0.30268 0.09146
 Cu34 Cu 0.89905 0.37450 0.14869
 Cu35 Cu 0.87455 0.34821 0.09759
 Cu36 Cu 0.84835 0.40103 0.12393
 N37 N 0.88421 0.40411 0.16331
 N38 N 0.86435 0.41440 0.15351
 C39 C 0.85791 0.43447 0.16709
 C40 C 0.87463 0.43676 0.18629
 C41 C 0.89108 0.41733 0.18348
 H42 H 0.84229 0.44649 0.16329
 H43 H 0.90679 0.41320 0.19523
 N44 N 0.83488 0.38474 0.09400
 N45 N 0.84484 0.36461 0.08398
 C46 C 0.83147 0.35797 0.06388
 C47 C 0.81234 0.37473 0.06128
 C48 C 0.81491 0.39144 0.08053
 H49 H 0.83530 0.34217 0.05200
 H50 H 0.80310 0.40726 0.08438
 H51 H 0.87964 0.38469 0.10903
 H52 H 0.85959 0.36453 0.12900
 N53 N 0.40339 0.16506 -0.11372
 N54 N 0.41364 0.15431 -0.13314
 C55 C 0.43380 0.16751 -0.13996
 C56 C 0.43615 0.18741 -0.12393
 C57 C 0.41666 0.18542 -0.10751
 H58 H 0.44587 0.16304 -0.15537
 H59 H 0.41249 0.19782 -0.09222
 Cu60 Cu 0.39964 0.12417 -0.14763
 Cu61 Cu 0.37368 0.15186 -0.09794
 Cu62 Cu 0.34766 0.09879 -0.12398
 N63 N 0.38444 0.09476 -0.16238
 N64 N 0.36411 0.08494 -0.15306
 C65 C 0.35753 0.06496 -0.16674
 C66 C 0.37466 0.06225 -0.18552
 C67 C 0.39148 0.08134 -0.18235
 H68 H 0.34150 0.05332 -0.16333
 H69 H 0.40754 0.08514 -0.19377
 N70 N 0.33375 0.11551 -0.09453
 N71 N 0.34366 0.13575 -0.08461
 C72 C 0.33006 0.14261 -0.06475
 C73 C 0.31083 0.12590 -0.06220
 C74 C 0.31359 0.10897 -0.08123
 H75 H 0.33385 0.15849 -0.05295
 H76 H 0.30183 0.09307 -0.08500
 H77 H 0.37869 0.11509 -0.10843
 H78 H 0.35967 0.13503 -0.12957
 N79 N 0.09637 0.83402 0.38574
 N80 N 0.08670 0.84427 0.36573
 C81 C 0.06660 0.83105 0.35881
 C82 C 0.06374 0.81163 0.37539
 C83 C 0.08280 0.81392 0.39225
 H84 H 0.05495 0.83518 0.34298
 H85 H 0.08652 0.80193 0.40801
 Cu86 Cu 0.10137 0.87385 0.35069
 Cu87 Cu 0.12577 0.84746 0.40189
 Cu88 Cu 0.15173 0.90072 0.37594
 N89 N 0.11586 0.90398 0.33660
 N90 N 0.13558 0.91439 0.34656
 C91 C 0.14182 0.93477 0.33326
 C92 C 0.12509 0.93714 0.31407
 C93 C 0.10886 0.91743 0.31661
 H94 H 0.15735 0.94691 0.33720
 H95 H 0.09323 0.91325 0.30476
 N96 N 0.16537 0.88415 0.40565
 N97 N 0.15550 0.86384 0.41553
 C98 C 0.16896 0.85705 0.43552
 C99 C 0.18805 0.87388 0.43820
 C100 C 0.18536 0.89081 0.41911
 H101 H 0.16520 0.84109 0.44728
 H102 H 0.19711 0.90674 0.41537
 H103 H 0.12040 0.88394 0.39054
 H104 H 0.14076 0.86412 0.37065
 C105 C 0.11268 0.14672 0.11493
 C106 C 0.13392 0.13611 0.10433
 C107 C 0.14445 0.11506 0.11492
 C108 C 0.13387 0.10436 0.13624
 C109 C 0.11288 0.11485 0.14672
 C110 C 0.10222 0.13616 0.13600
 C111 C 0.09851 0.16712 0.10862
 N112 N 0.07988 0.16903 0.12535
 C113 C 0.08186 0.15031 0.14218
 C114 C 0.10671 0.10063 0.16717
 N115 N 0.12345 0.08195 0.16918
 C116 C 0.14014 0.08394 0.15048
 C117 C 0.16479 0.10886 0.10077
 N118 N 0.16669 0.12565 0.08203
 C119 C 0.14803 0.14240 0.08391
 H120 H 0.10148 0.17964 0.09306
 H121 H 0.06942 0.14727 0.15769
 H122 H 0.09126 0.10361 0.17965
 H123 H 0.15563 0.07148 0.14752
 H124 H 0.17726 0.09335 0.10384
 H125 H 0.14499 0.15793 0.07138
 C126 C 0.38622 0.85328 0.61530
 C127 C 0.36489 0.86380 0.60477
 C128 C 0.35438 0.88488 0.61528
 C129 C 0.36507 0.89568 0.63646
 C130 C 0.38614 0.88527 0.64688
 C131 C 0.39678 0.86396 0.63623
 C132 C 0.40042 0.83290 0.60901
 N133 N 0.41917 0.83113 0.62563
 C134 C 0.41724 0.84991 0.64234
 C135 C 0.39237 0.89955 0.66722
 N136 N 0.37560 0.91820 0.66923
 C137 C 0.35883 0.91612 0.65063
 C138 C 0.33396 0.89099 0.60121
 N139 N 0.33199 0.87412 0.58258
 C140 C 0.35069 0.85741 0.58448
 H141 H 0.39739 0.82033 0.59356
 H142 H 0.42978 0.85307 0.65772
 H143 H 0.40788 0.89661 0.67965
 H144 H 0.34329 0.92854 0.64770
 H145 H 0.32150 0.90651 0.60422
 H146 H 0.35370 0.84185 0.57201
 C147 C 0.88666 0.64646 0.38469
 C148 C 0.86537 0.63588 0.39530
 C149 C 0.85490 0.61470 0.38489
 C150 C 0.86558 0.60386 0.36375
 C151 C 0.88663 0.61432 0.35325
 C152 C 0.89723 0.63575 0.36379
 C153 C 0.90083 0.66693 0.39087
 N154 N 0.91957 0.66873 0.37423
 C155 C 0.91765 0.64987 0.35760
 C156 C 0.89288 0.59997 0.33298
 N157 N 0.87614 0.58123 0.33109
 C158 C 0.85938 0.58332 0.34969
 C159 C 0.83450 0.60853 0.39901
 N160 N 0.83251 0.62546 0.41757
 C161 C 0.85117 0.64226 0.41559
 H162 H 0.89780 0.67955 0.40628
 H163 H 0.93020 0.64669 0.34221
 H164 H 0.90837 0.60292 0.32052
 H165 H 0.84386 0.57084 0.35270
 H166 H 0.82207 0.59294 0.39607
 H167 H 0.85415 0.65788 0.42800
 C168 C 0.61381 0.35407 -0.11533
 C169 C 0.63515 0.36466 -0.10485
 C170 C 0.64563 0.38578 -0.11542
 C171 C 0.63491 0.39656 -0.13660
 C172 C 0.61382 0.38611 -0.14696
 C173 C 0.60320 0.36474 -0.13626
 C174 C 0.59966 0.33362 -0.10902
 N175 N 0.58089 0.33178 -0.12561
 C176 C 0.58277 0.35060 -0.14234
 C177 C 0.60755 0.40039 -0.16731
 N178 N 0.62432 0.41909 -0.16938
 C179 C 0.64113 0.41703 -0.15082
 C180 C 0.66608 0.39194 -0.10141
 N181 N 0.66809 0.37507 -0.08275
 C182 C 0.64939 0.35830 -0.08457
 H183 H 0.60273 0.32101 -0.09357
 H184 H 0.57021 0.35372 -0.15773
 H185 H 0.59202 0.39742 -0.17971
 H186 H 0.65669 0.42947 -0.14795
 H187 H 0.67855 0.40749 -0.10449
 H188 H 0.64642 0.34272 -0.07208
 C189 C 0.02658 0.22237 0.12499
 C190 C 0.01827 0.23282 0.14768
 C191 C -0.00041 0.25149 0.14752
 C192 C -0.01068 0.25961 0.12468
 C193 C -0.00236 0.24918 0.10199
 C194 C 0.01633 0.23051 0.10214
 C195 C 0.02436 0.22038 0.07922
 C196 C 0.01421 0.22845 0.05679
 C197 C -0.00407 0.24668 0.05664
 C198 C -0.01233 0.25700 0.07892
 C199 C -0.00840 0.26167 0.17043
 C200 C 0.00176 0.25361 0.19287
 C201 C 0.02001 0.23534 0.19302
 C202 C 0.02824 0.22500 0.17075
 C203 C -0.02980 0.27865 0.12451
 C204 C -0.04568 0.29444 0.12434
 C205 C 0.04565 0.20328 0.12515
 C206 C 0.06148 0.18744 0.12526
 H207 H 0.03854 0.20616 0.07838
 H208 H 0.02056 0.22050 0.03944
 H209 H -0.01190 0.25288 0.03917
 H210 H -0.02659 0.27113 0.07784
 H211 H -0.02255 0.27593 0.17127
 H212 H -0.00456 0.26159 0.21022
 H213 H 0.02785 0.22915 0.21050
 H214 H 0.04248 0.21084 0.17183
 C215 C 0.47281 0.77812 0.62540
 C216 C 0.46627 0.75254 0.62432
 C217 C 0.48507 0.73399 0.62425
 C218 C 0.51031 0.74114 0.62525
 C219 C 0.51685 0.76672 0.62634
 C220 C 0.49804 0.78527 0.62643
 C221 C 0.50504 0.81072 0.62755
 C222 C 0.52990 0.81765 0.62853
 C223 C 0.54828 0.79952 0.62842
 C224 C 0.54194 0.77432 0.62734
 C225 C 0.47807 0.70854 0.62316
 C226 C 0.45321 0.70160 0.62216
 C227 C 0.43483 0.71973 0.62223
 C228 C 0.44117 0.74493 0.62330
 C229 C 0.52952 0.72219 0.62515
 C230 C 0.54549 0.70649 0.62504
 C231 C 0.45360 0.79707 0.62546
 C232 C 0.43767 0.81282 0.62553
 H233 H 0.49141 0.82551 0.62768
 H234 H 0.53492 0.83721 0.62937
 H235 H 0.56757 0.80501 0.62918
 H236 H 0.55691 0.76091 0.62731
 H237 H 0.49170 0.69375 0.62306
 H238 H 0.44819 0.68205 0.62133
 H239 H 0.41555 0.71425 0.62145
 H240 H 0.42620 0.75834 0.62331
 C241 C 0.97319 0.72191 0.37442
 C242 C 0.99844 0.71484 0.37400
 C243 C 1.01723 0.73346 0.37417
 C244 C 1.01066 0.75903 0.37473
 C245 C 0.98540 0.76610 0.37509
 C246 C 0.96661 0.74748 0.37494
 C247 C 0.94150 0.75501 0.37532
 C248 C 0.93513 0.78020 0.37582
 C249 C 0.95350 0.79840 0.37595
 C250 C 0.97837 0.79154 0.37559
 C251 C 1.04235 0.72593 0.37376
 C252 C 1.04872 0.70074 0.37319
 C253 C 1.03035 0.68254 0.37302
 C254 C 1.00547 0.68940 0.37342
 C255 C 1.02986 0.77805 0.37495
 C256 C 1.04579 0.79384 0.37515
 C257 C 0.95399 0.70289 0.37433
 C258 C 0.93806 0.68709 0.37428
 H259 H 0.92654 0.74155 0.37524
 H260 H 0.91583 0.78563 0.37610
 H261 H 0.94845 0.81795 0.37633
 H262 H 0.99199 0.80638 0.37571
 H263 H 1.05730 0.73940 0.37387
 H264 H 1.06802 0.69532 0.37287
 H265 H 1.03539 0.66300 0.37257
 H266 H 0.99185 0.67456 0.37326
 C267 C 0.52747 0.27841 -0.12520
 C268 C 0.50361 0.28386 -0.13466
 C269 C 0.48487 0.26519 -0.13444
 C270 C 0.49010 0.24117 -0.12476
 C271 C 0.51397 0.23571 -0.11533
 C272 C 0.53271 0.25439 -0.11554
 C273 C 0.55642 0.24849 -0.10599
 C274 C 0.56148 0.22482 -0.09651
 C275 C 0.54317 0.20656 -0.09631
 C276 C 0.51966 0.21184 -0.10558
 C277 C 0.46116 0.27109 -0.14398
 C278 C 0.45611 0.29476 -0.15348
 C279 C 0.47443 0.31301 -0.15371
 C280 C 0.49794 0.30773 -0.14444
 C281 C 0.47094 0.22211 -0.12448
 C282 C 0.45505 0.20628 -0.12423
 C283 C 0.54659 0.29750 -0.12536
 C284 C 0.56246 0.31336 -0.12548
 H285 H 0.57127 0.26207 -0.10575
 H286 H 0.57972 0.22063 -0.08928
 H287 H 0.54720 0.18820 -0.08892
 H288 H 0.50603 0.19702 -0.10502
 H289 H 0.44630 0.25752 -0.14421
 H290 H 0.43787 0.29896 -0.16071
 H291 H 0.47041 0.33136 -0.16111
 H292 H 0.51158 0.32254 -0.14502
 C293 C 0.12387 0.02851 0.22276
 C294 C 0.14541 0.01395 0.22659
 C295 C 0.14563 -0.00477 0.24535
 C296 C 0.12431 -0.00884 0.26016
 C297 C 0.10277 0.00570 0.25631
 C298 C 0.10255 0.02444 0.23756
 C299 C 0.08081 0.03875 0.23407
 C300 C 0.05988 0.03467 0.24868
 C301 C 0.06008 0.01635 0.26701
 C302 C 0.08123 0.00197 0.27086
 C303 C 0.16738 -0.01908 0.24885
 C304 C 0.18831 -0.01500 0.23422
 C305 C 0.18809 0.00330 0.21588
 C306 C 0.16694 0.01767 0.21203
 C307 C 0.12454 -0.02798 0.27931
 C308 C 0.12477 -0.04389 0.29519
 C309 C 0.12367 0.04764 0.20360
 C310 C 0.12355 0.06352 0.18768
 H311 H 0.07975 0.05322 0.22006
 H312 H 0.04340 0.04579 0.24577
 H313 H 0.04377 0.01325 0.27830
 H314 H 0.08049 -0.01205 0.28534
 H315 H 0.16845 -0.03353 0.26288
 H316 H 0.20479 -0.02611 0.23715
 H317 H 0.20440 0.00639 0.20457
 H318 H 0.16768 0.03168 0.19753
 C319 C 0.62468 0.47248 -0.22300
 C320 C 0.64262 0.47164 -0.24219
 C321 C 0.64285 0.49036 -0.26095
 C322 C 0.62515 0.50982 -0.26041
 C323 C 0.60719 0.51065 -0.24124
 C324 C 0.60695 0.49193 -0.22248
 C325 C 0.58882 0.49317 -0.20351
 C326 C 0.57142 0.51235 -0.20308
 C327 C 0.57165 0.53065 -0.22143
 C328 C 0.58928 0.52991 -0.24033
 C329 C 0.66097 0.48911 -0.27994
 C330 C 0.67836 0.46992 -0.28037
 C331 C 0.67814 0.45163 -0.26203
 C332 C 0.66052 0.45238 -0.24311
 C333 C 0.62546 0.52900 -0.27952
 C334 C 0.62575 0.54493 -0.29538
 C335 C 0.62449 0.45339 -0.20380
 C336 C 0.62439 0.43753 -0.18788
 H337 H 0.58789 0.47936 -0.18884
 H338 H 0.55769 0.51301 -0.18843
 H339 H 0.55810 0.54551 -0.22101
 H340 H 0.58871 0.54456 -0.25419
 H341 H 0.66189 0.50291 -0.29462
 H342 H 0.69208 0.46925 -0.29503
 H343 H 0.69169 0.43676 -0.26245
 H344 H 0.66109 0.43772 -0.22926
 C345 C 0.37540 0.97155 0.72275
 C346 C 0.39308 0.97069 0.74218
 C347 C 0.39297 0.98931 0.76099
 C348 C 0.37517 1.00869 0.76026
 C349 C 0.35751 1.00956 0.74082
 C350 C 0.35763 0.99094 0.72201
 C351 C 0.33979 0.99221 0.70277
 C352 C 0.32233 1.01133 0.70213
 C353 C 0.32221 1.02953 0.72052
 C354 C 0.33955 1.02875 0.73969
 C355 C 0.41082 0.98805 0.78022
 C356 C 0.42828 0.96893 0.78085
 C357 C 0.42840 0.95073 0.76246
 C358 C 0.41105 0.95150 0.74330
 C359 C 0.37502 1.02769 0.77950
 C360 C 0.37487 1.04347 0.79547
 C361 C 0.37548 0.95248 0.70358
 C362 C 0.37554 0.93663 0.68768
 H363 H 0.33913 0.97848 0.68804
 H364 H 0.30882 1.01202 0.68728
 H365 H 0.30861 1.04435 0.71994
 H366 H 0.33871 1.04334 0.75357
 H367 H 0.41147 1.00178 0.79494
 H368 H 0.44180 0.96825 0.79570
 H369 H 0.44201 0.93592 0.76304
 H370 H 0.41189 0.93692 0.72943
 C371 C 0.87585 0.52761 0.27785
 C372 C 0.85796 0.50827 0.27867
 C373 C 0.85774 0.48958 0.25992
 C374 C 0.87541 0.49034 0.24048
 C375 C 0.89334 0.50965 0.23970
 C376 C 0.89356 0.52833 0.25845
 C377 C 0.91166 0.54744 0.25727
 C378 C 0.92904 0.54808 0.23813
 C379 C 0.92883 0.52981 0.21981
 C380 C 0.91122 0.51077 0.22049
 C381 C 0.83967 0.47044 0.26113
 C382 C 0.82233 0.46978 0.28031
 C383 C 0.82254 0.48804 0.29863
 C384 C 0.84011 0.50711 0.29792
 C385 C 0.87512 0.47131 0.22127
 C386 C 0.87489 0.45553 0.20531
 C387 C 0.87599 0.54677 0.29692
 C388 C 0.87608 0.56271 0.31273
 H389 H 0.91258 0.56207 0.27111
 H390 H 0.94275 0.56283 0.23752
 H391 H 0.94237 0.53038 0.20498
 H392 H 0.91181 0.49699 0.20581
 H393 H 0.83875 0.45581 0.24730
 H394 H 0.80864 0.45500 0.28095
 H395 H 0.80903 0.48744 0.31349
 H396 H 0.83954 0.52089 0.31261
 C397 C 0.21989 0.12580 0.02870
 C398 C 0.22852 0.14872 0.01878
 C399 C 0.24717 0.14878 0.00011
 C400 C 0.25707 0.12591 -0.00853
 C401 C 0.24845 0.10300 0.00140
 C402 C 0.22981 0.10294 0.02007
 C403 C 0.22150 0.07980 0.02972
 C404 C 0.23132 0.05735 0.02116
 C405 C 0.24953 0.05740 0.00290
 C406 C 0.25806 0.07991 -0.00694
 C407 C 0.25550 0.17192 -0.00951
 C408 C 0.24569 0.19437 -0.00095
 C409 C 0.22745 0.19431 0.01729
 C410 C 0.21889 0.17181 0.02711
 C411 C 0.27613 0.12596 -0.02760
 C412 C 0.29196 0.12596 -0.04341
 C413 C 0.20085 0.12574 0.04778
 C414 C 0.18504 0.12570 0.06362
 H415 H 0.20737 0.07879 0.04396
 H416 H 0.22475 0.03982 0.02875
 H417 H 0.25709 0.03992 -0.00370
 H418 H 0.27225 0.07898 -0.02112
 H419 H 0.26966 0.17293 -0.02372
 H420 H 0.25228 0.21190 -0.00851
 H421 H 0.21988 0.21180 0.02388
 H422 H 0.20468 0.17273 0.04126
 C423 C 0.77916 0.62545 0.47073
 C424 C 0.77047 0.64831 0.48061
 C425 C 0.75179 0.64825 0.49924
 C426 C 0.74192 0.62533 0.50790
 C427 C 0.75060 0.60247 0.49801
 C428 C 0.76927 0.60253 0.47937
 C429 C 0.77763 0.57944 0.46976
 C430 C 0.76785 0.55693 0.47833
 C431 C 0.74961 0.55687 0.49657
 C432 C 0.74101 0.57932 0.50636
 C433 C 0.74338 0.67134 0.50881
 C434 C 0.75317 0.69385 0.50023
 C435 C 0.77144 0.69391 0.48203
 C436 C 0.78006 0.67146 0.47226
 C437 C 0.72288 0.62526 0.52698
 C438 C 0.70709 0.62522 0.54283
 C439 C 0.79826 0.62551 0.45172
 C440 C 0.81411 0.62551 0.43593
 H441 H 0.79179 0.57853 0.45555
 H442 H 0.77447 0.53945 0.47078
 H443 H 0.74207 0.53933 0.50316
 H444 H 0.72679 0.57830 0.52051
 H445 H 0.72919 0.67226 0.52299
 H446 H 0.74653 0.71134 0.50776
 H447 H 0.77898 0.71144 0.47543
 H448 H 0.79429 0.67247 0.45812
 C449 C 0.72152 0.37492 -0.02969
 C450 C 0.73142 0.39779 -0.02099
 C451 C 0.75008 0.39775 -0.00236
 C452 C 0.75876 0.37483 0.00746
 C453 C 0.74889 0.35196 -0.00126
 C454 C 0.73021 0.35200 -0.01988
 C455 C 0.72061 0.32890 -0.02829
 C456 C 0.72924 0.30640 -0.01859
 C457 C 0.74751 0.30636 -0.00040
 C458 C 0.75729 0.32882 0.00824
 C459 C 0.75968 0.42085 0.00605
 C460 C 0.75108 0.44335 -0.00368
 C461 C 0.73284 0.44339 -0.02190
 C462 C 0.72305 0.42093 -0.03053
 C463 C 0.77778 0.37479 0.02655
 C464 C 0.79356 0.37476 0.04240
 C465 C 0.70241 0.37496 -0.04869
 C466 C 0.68654 0.37500 -0.06445
 H467 H 0.70637 0.32797 -0.04241
 H468 H 0.72169 0.28890 -0.02523
 H469 H 0.75415 0.28883 0.00708
 H470 H 0.77148 0.32782 0.02241
 H471 H 0.77389 0.42179 0.02020
 H472 H 0.75862 0.46085 0.00296
 H473 H 0.72622 0.46092 -0.02940
 H474 H 0.70888 0.42193 -0.04473
 C475 C 0.27877 0.87393 0.52930
 C476 C 0.26889 0.89681 0.52061
 C477 C 0.25029 0.89678 0.50190
 C478 C 0.24167 0.87387 0.49200
 C479 C 0.25156 0.85100 0.50070
 C480 C 0.27017 0.85103 0.51939
 C481 C 0.27977 0.82793 0.52777
 C482 C 0.27123 0.80544 0.51797
 C483 C 0.25303 0.80541 0.49971
 C484 C 0.24324 0.82787 0.49110
 C485 C 0.24071 0.91988 0.49350
 C486 C 0.24924 0.94237 0.50331
 C487 C 0.26741 0.94240 0.52161
 C488 C 0.27719 0.91994 0.53023
 C489 C 0.22265 0.87385 0.47291
 C490 C 0.20686 0.87385 0.45707
 C491 C 0.29780 0.87397 0.54838
 C492 C 0.31361 0.87403 0.56421
 H493 H 0.29396 0.82699 0.54195
 H494 H 0.27878 0.78794 0.52460
 H495 H 0.24646 0.78789 0.49216
 H496 H 0.22911 0.82688 0.47686
 H497 H 0.22655 0.92083 0.47930
 H498 H 0.24171 0.95987 0.49668
 H499 H 0.27397 0.95991 0.52918
 H500 H 0.29129 0.92092 0.54449
   
