data_POSCAR
  _audit_creation_date              2014-09-24
  _audit_creation_method            'ToBaCCo'
  _symmetry_space_group_name_H-M    'P1'
  _symmetry_Int_Tables_number       1
  _symmetry_cell_setting            triclinic
  loop_
  _symmetry_equiv_pos_as_xyz
 x,y,z
_cell_length_a 26.0403
_cell_length_b 25.7075
_cell_length_c 46.2498
_cell_angle_alpha 89.948100
_cell_angle_beta 90.123600
_cell_angle_gamma 123.273500
loop_
  _atom_site_label
  _atom_site_type_symbol
  _atom_site_fract_x
  _atom_site_fract_y
  _atom_site_fract_z
Zn1 Zn 0.96411 0.03749 1.01511
 Zn2 Zn 1.08154 0.04486 1.01094
 Zn3 Zn 0.96345 -0.08011 1.01304
 Zn4 Zn 0.99698 0.00067 0.96058
 O5 O 1.00125 0.00044 0.99994
 O6 O 1.01426 0.10371 1.03732
 O7 O 1.10130 0.00014 1.03172
 O8 O 0.89907 -0.10122 1.03619
 O9 O 1.10187 0.11000 1.03307
 O10 O 0.89948 -0.01484 1.03712
 O11 O 1.01451 -0.09257 1.03402
 O12 O 0.95550 -0.07572 0.94586
 O13 O 1.13348 0.07548 0.98129
 O14 O 0.93306 -0.13678 0.98397
 O15 O 1.07113 0.04117 0.94350
 O16 O 0.95880 0.03651 0.94754
 O17 O 0.93640 0.06600 0.98796
 C18 C 1.07098 0.13045 1.04308
 C19 C 1.07094 -0.05569 1.04056
 C20 C 0.87618 -0.07103 1.04466
 C21 C 0.93120 -0.12944 0.95687
 C22 C 1.12490 0.07125 0.95419
 C23 C 0.93619 0.06284 0.96059
 Zn24 Zn 0.03672 0.95995 0.51314
 Zn25 Zn -0.07839 0.96135 0.51267
 Zn26 Zn 0.04514 1.08073 0.51070
 Zn27 Zn 0.00009 0.99701 0.46024
 O28 O 0.00072 0.99952 0.49936
 O29 O -0.01461 0.89525 0.53591
 O30 O -0.08877 1.01214 0.53523
 O31 O 0.10940 1.09905 0.53233
 O32 O -0.10041 0.89392 0.53431
 O33 O 0.10449 1.01047 0.53432
 O34 O 0.00203 1.10071 0.53228
 O35 O 0.04790 1.07138 0.44398
 O36 O -0.13430 0.93737 0.48386
 O37 O 0.07593 1.13495 0.48133
 O38 O -0.07367 0.96799 0.44554
 O39 O 0.02487 0.95017 0.44607
 O40 O 0.05925 0.92800 0.48487
 C41 C -0.07041 0.87106 0.54306
 C42 C -0.05256 1.06931 0.54172
 C43 C 0.13048 1.06752 0.54102
 C44 C 0.07586 1.12585 0.45439
 C45 C -0.12626 0.94490 0.45668
 C46 C 0.05007 0.92501 0.45776
 O47 O 0.24283 0.59612 0.28710
 O48 O 0.24068 0.69456 0.27661
 C49 C 0.28061 0.74278 0.29040
 O50 O 0.33728 0.77249 0.28439
 O51 O 0.43794 0.77660 0.27393
 C52 C 0.44332 0.73765 0.28854
 O53 O 0.41315 0.67990 0.28292
 O54 O 0.31037 0.57357 0.27363
 C55 C 0.26834 0.56644 0.29038
 O56 O 0.23254 0.57036 0.22989
 O57 O 0.23737 0.67268 0.21989
 C58 C 0.26617 0.73005 0.21363
 O59 O 0.31531 0.77136 0.22667
 O60 O 0.41502 0.77259 0.21642
 C61 C 0.44285 0.74577 0.21129
 O62 O 0.43277 0.69892 0.22566
 O63 O 0.32570 0.59580 0.21646
 C64 C 0.26778 0.56391 0.21342
 Cr65 Cr 0.24155 0.63510 0.25329
 Cr66 Cr 0.37469 0.77007 0.25034
 Cr67 Cr 0.36914 0.63872 0.24968
 O68 O 0.32857 0.68159 0.25093
 O69 O 0.76087 0.40134 0.78617
 O70 O 0.75544 0.29782 0.77760
 C71 C 0.71289 0.24913 0.79039
 O72 O 0.65652 0.22242 0.78393
 O73 O 0.55841 0.22190 0.77000
 C74 C 0.54989 0.25931 0.78370
 O75 O 0.58455 0.31781 0.78080
 O76 O 0.69119 0.42286 0.77468
 C77 C 0.73509 0.43062 0.79038
 O78 O 0.77260 0.42466 0.72865
 O79 O 0.76249 0.31850 0.71979
 C80 C 0.73054 0.26066 0.71423
 O81 O 0.68192 0.22264 0.72799
 O82 O 0.58846 0.22853 0.71423
 C83 C 0.56273 0.25710 0.70826
 O84 O 0.57248 0.30389 0.72271
 O85 O 0.68103 0.40653 0.71697
 C86 C 0.73866 0.43567 0.71349
 Cr87 Cr 0.75959 0.35898 0.75297
 Cr88 Cr 0.62327 0.22737 0.74916
 Cr89 Cr 0.63386 0.36109 0.74886
 O90 O 0.67234 0.31595 0.75042
 C91 C 0.19454 0.26906 0.08556
 C92 C 0.16231 0.29347 0.09791
 C93 C 0.09869 0.26252 0.09166
 C94 C 0.06932 0.20991 0.07365
 C95 C 0.10201 0.18643 0.06171
 C96 C 0.16480 0.21661 0.06783
 C97 C 0.06441 0.28383 0.10354
 C98 C 0.09129 0.33439 0.12216
 C99 C 0.15417 0.36628 0.12957
 C100 C 0.19068 0.34663 0.11658
 C101 C 0.25427 0.38074 0.12271
 C102 C 0.28096 0.43070 0.14169
 C103 C 0.24560 0.44863 0.15553
 C104 C 0.18176 0.41702 0.14964
 C105 C 0.14804 0.43683 0.16462
 C106 C 0.17639 0.48497 0.18477
 C107 C 0.23928 0.51545 0.19072
 C108 C 0.27379 0.49758 0.17565
 H109 H 0.24257 0.28861 0.08943
 H110 H 0.02065 0.18692 0.06913
 H111 H 0.19133 0.19948 0.05898
 H112 H 0.01590 0.26070 0.09863
 H113 H 0.06120 0.34747 0.13025
 H114 H 0.28518 0.37031 0.11305
 H115 H 0.32987 0.45509 0.14588
 H116 H 0.09941 0.41545 0.16184
 H117 H 0.14850 0.49790 0.19598
 H118 H 0.32249 0.52070 0.18010
 C119 C 0.74794 0.81135 0.09391
 C120 C 0.71814 0.84181 0.10167
 C121 C 0.74095 0.90123 0.08944
 C122 C 0.79203 0.92898 0.07091
 C123 C 0.82151 0.89857 0.06383
 C124 C 0.79856 0.83934 0.07534
 C125 C 0.71299 0.93306 0.09583
 C126 C 0.66293 0.90768 0.11430
 C127 C 0.63874 0.84911 0.12748
 C128 C 0.66695 0.81569 0.12114
 C129 C 0.64363 0.75777 0.13482
 C130 C 0.59519 0.73357 0.15422
 C131 C 0.56741 0.76555 0.16070
 C132 C 0.58797 0.82331 0.14718
 C133 C 0.55694 0.85288 0.15422
 C134 C 0.50930 0.82711 0.17444
 C135 C 0.49058 0.77100 0.18838
 C136 C 0.51948 0.74013 0.18101
 H137 H 0.73344 0.76581 0.10171
 H138 H 0.80888 0.97465 0.06198
 H139 H 0.82011 0.81450 0.07018
 H140 H 0.73018 0.97846 0.08648
 H141 H 0.64478 0.93590 0.11810
 H142 H 0.66238 0.72998 0.13136
 H143 H 0.57948 0.68927 0.16442
 H144 H 0.56832 0.89613 0.14465
 H145 H 0.48768 0.85193 0.17949
 H146 H 0.50518 0.69632 0.19137
 C147 C 0.19230 0.94795 0.08739
 C148 C 0.16169 0.88668 0.09849
 C149 C 0.10097 0.84334 0.08859
 C150 C 0.07178 0.86180 0.06942
 C151 C 0.10226 0.92323 0.05943
 C152 C 0.16301 0.96565 0.06832
 C153 C 0.06934 0.78189 0.09807
 C154 C 0.09630 0.76215 0.11727
 C155 C 0.15620 0.80355 0.12822
 C156 C 0.18908 0.86711 0.11904
 C157 C 0.24758 0.90924 0.13122
 C158 C 0.27318 0.89019 0.15161
 C159 C 0.24223 0.82834 0.16048
 C160 C 0.18379 0.78383 0.14857
 C161 C 0.15540 0.72132 0.15762
 C162 C 0.18280 0.70450 0.17825
 C163 C 0.23958 0.74897 0.19071
 C164 C 0.26936 0.81087 0.18143
 H165 H 0.23902 0.98351 0.09286
 H166 H 0.02498 0.82832 0.06252
 H167 H 0.18817 1.01335 0.06078
 H168 H 0.02296 0.74851 0.09061
 H169 H 0.06804 0.71406 0.12361
 H170 H 0.27459 0.95800 0.12596
 H171 H 0.31785 0.92448 0.16059
 H172 H 0.11212 0.68394 0.14913
 H173 H 0.15874 0.65608 0.18463
 H174 H 0.31360 0.84569 0.19060
 C175 C 0.80805 0.73340 0.58711
 C176 C 0.84106 0.70961 0.59942
 C177 C 0.90435 0.74061 0.59261
 C178 C 0.93258 0.79249 0.57407
 C179 C 0.89917 0.81543 0.56214
 C180 C 0.83672 0.78527 0.56890
 C181 C 0.93946 0.72004 0.60444
 C182 C 0.91366 0.66987 0.62334
 C183 C 0.85101 0.63750 0.63109
 C184 C 0.81379 0.65687 0.61844
 C185 C 0.75056 0.62277 0.62517
 C186 C 0.72475 0.57268 0.64408
 C187 C 0.76064 0.55449 0.65729
 C188 C 0.82426 0.58639 0.65107
 C189 C 0.85840 0.56614 0.66550
 C190 C 0.83053 0.51700 0.68530
 C191 C 0.76769 0.48591 0.69142
 C192 C 0.73303 0.50476 0.67702
 H193 H 0.76014 0.71367 0.59134
 H194 H 0.98104 0.81546 0.56918
 H195 H 0.80965 0.80190 0.56012
 H196 H 0.98781 0.74336 0.59920
 H197 H 0.94432 0.65738 0.63136
 H198 H 0.71923 0.63328 0.61601
 H199 H 0.67600 0.54818 0.64861
 H200 H 0.90698 0.58778 0.66241
 H201 H 0.85863 0.50367 0.69605
 H202 H 0.68438 0.48143 0.68156
 C203 C 0.26111 0.18795 0.58794
 C204 C 0.29053 0.15768 0.59654
 C205 C 0.26718 0.09726 0.58534
 C206 C 0.21527 0.06806 0.56721
 C207 C 0.18600 0.09832 0.55954
 C208 C 0.20992 0.15869 0.56983
 C209 C 0.29540 0.06600 0.59241
 C210 C 0.34614 0.09293 0.61059
 C211 C 0.37049 0.15237 0.62287
 C212 C 0.34184 0.18505 0.61594
 C213 C 0.36448 0.24330 0.62918
 C214 C 0.41267 0.26845 0.64880
 C215 C 0.44100 0.23728 0.65579
 C216 C 0.42144 0.17952 0.64249
 C217 C 0.45344 0.15114 0.64974
 C218 C 0.50029 0.17740 0.67035
 C219 C 0.51728 0.23293 0.68441
 C220 C 0.48821 0.26327 0.67651
 H221 H 0.27640 0.23439 0.59462
 H222 H 0.19763 0.02160 0.55911
 H223 H 0.18866 0.18356 0.56408
 H224 H 0.27788 0.01990 0.58386
 H225 H 0.36436 0.06498 0.61510
 H226 H 0.34504 0.27039 0.62546
 H227 H 0.42762 0.31275 0.65880
 H228 H 0.44345 0.10849 0.64004
 H229 H 0.52243 0.15319 0.67569
 H230 H 0.50144 0.30672 0.68692
 C231 C 0.94835 0.19230 0.58724
 C232 C 0.88804 0.16023 0.59860
 C233 C 0.84708 0.09725 0.59016
 C234 C 0.86630 0.06806 0.57148
 C235 C 0.92638 0.10037 0.56077
 C236 C 0.96692 0.16279 0.56873
 C237 C 0.78714 0.06334 0.60054
 C238 C 0.76677 0.08991 0.61955
 C239 C 0.80579 0.15204 0.62912
 C240 C 0.86724 0.18810 0.61820
 C241 C 0.90587 0.25054 0.62744
 C242 C 0.88586 0.27655 0.64710
 C243 C 0.82667 0.24171 0.65844
 C244 C 0.78557 0.17911 0.64947
 C245 C 0.72602 0.14591 0.66162
 C246 C 0.70884 0.17315 0.68210
 C247 C 0.74987 0.23458 0.69133
 C248 C 0.80861 0.26900 0.67905
 H249 H 0.98269 0.24009 0.59230
 H250 H 0.83438 0.01980 0.56545
 H251 H 1.01370 0.18916 0.56079
 H252 H 0.75552 0.01533 0.59404
 H253 H 0.71981 0.05989 0.62639
 H254 H 0.95234 0.28094 0.61999
 H255 H 0.91744 0.32448 0.65370
 H256 H 0.69141 0.09849 0.65611
 H257 H 0.66280 0.14541 0.69087
 H258 H 0.84076 0.31661 0.68594
 C259 C 0.28602 0.18361 0.92673
 C260 C 0.28429 0.16012 0.89883
 C261 C 0.22840 0.10580 0.88969
 C262 C 0.17605 0.07831 0.90738
 C263 C 0.17886 0.10213 0.93493
 C264 C 0.23426 0.15464 0.94448
 C265 C 0.22523 0.07859 0.86315
 C266 C 0.27691 0.10263 0.84583
 C267 C 0.33368 0.15635 0.85402
 C268 C 0.33646 0.18760 0.88009
 C269 C 0.39086 0.24569 0.88627
 C270 C 0.44154 0.27138 0.86810
 C271 C 0.44096 0.23932 0.84366
 C272 C 0.38749 0.18061 0.83666
 C273 C 0.39056 0.14786 0.81290
 C274 C 0.44367 0.17338 0.79632
 C275 C 0.49535 0.23257 0.80252
 C276 C 0.49373 0.26545 0.82624
 H277 H 0.32718 0.22301 0.93587
 H278 H 0.13356 0.03697 0.90007
 H279 H 0.23760 0.17361 0.96583
 H280 H 0.18254 0.03745 0.85590
 H281 H 0.27040 0.07901 0.82559
 H282 H 0.39503 0.27352 0.90464
 H283 H 0.48205 0.31642 0.87352
 H284 H 0.35327 0.10168 0.80699
 H285 H 0.44387 0.14683 0.77819
 H286 H 0.53396 0.31087 0.83146
 C287 C 0.84203 0.77039 0.89288
 C288 C 0.84273 0.71626 0.89704
 C289 C 0.87366 0.71384 0.92180
 C290 C 0.90029 0.76290 0.94207
 C291 C 0.89943 0.81626 0.93729
 C292 C 0.87029 0.81944 0.91254
 C293 C 0.87899 0.66318 0.92581
 C294 C 0.85626 0.61586 0.90531
 C295 C 0.82523 0.61625 0.88029
 C296 C 0.81556 0.66561 0.87696
 C297 C 0.77847 0.66244 0.85383
 C298 C 0.75428 0.61459 0.83376
 C299 C 0.76690 0.56858 0.83549
 C300 C 0.80289 0.56871 0.85860
 C301 C 0.81613 0.52207 0.85851
 C302 C 0.79421 0.47741 0.83649
 C303 C 0.75779 0.47712 0.81405
 C304 C 0.74404 0.52273 0.81392
 H305 H 0.82205 0.77747 0.87409
 H306 H 0.92382 0.76067 0.96094
 H307 H 0.86942 0.86041 0.90828
 H308 H 0.90225 0.66072 0.94472
 H309 H 0.86260 0.57867 0.90999
 H310 H 0.76592 0.69568 0.85098
 H311 H 0.72608 0.61421 0.81637
 H312 H 0.84464 0.51979 0.87470
 H313 H 0.80580 0.44289 0.83708
 H314 H 0.71659 0.52360 0.79649
 C315 C 0.90121 0.17820 0.93275
 C316 C 0.86279 0.14656 0.90867
 C317 C 0.84549 0.08454 0.90353
 C318 C 0.87025 0.05789 0.92032
 C319 C 0.90949 0.09064 0.94349
 C320 C 0.92355 0.15018 0.95003
 C321 C 0.80371 0.04948 0.88164
 C322 C 0.77798 0.07429 0.86482
 C323 C 0.79527 0.13643 0.86841
 C324 C 0.84062 0.17404 0.88971
 C325 C 0.86419 0.23830 0.89052
 C326 C 0.84412 0.26492 0.87115
 C327 C 0.79777 0.22823 0.85120
 C328 C 0.77076 0.16302 0.85044
 C329 C 0.72011 0.12706 0.83172
 C330 C 0.70006 0.15530 0.81323
 C331 C 0.73020 0.22008 0.81246
 C332 C 0.77858 0.25638 0.83174
 H333 H 0.91364 0.22404 0.93914
 H334 H 0.85819 0.01110 0.91570
 H335 H 0.95316 0.17574 0.96819
 H336 H 0.79028 0.00206 0.87762
 H337 H 0.74669 0.04440 0.84813
 H338 H 0.90058 0.26990 0.90503
 H339 H 0.86486 0.31476 0.87194
 H340 H 0.69447 0.07695 0.83120
 H341 H 0.66201 0.12637 0.79872
 H342 H 0.80110 0.30653 0.83163
 C343 C 0.78680 0.94999 0.39276
 C344 C 0.72644 0.89790 0.39722
 C345 C 0.71528 0.86088 0.42217
 C346 C 0.76256 0.87746 0.44230
 C347 C 0.82214 0.92878 0.43716
 C348 C 0.83366 0.96460 0.41227
 C349 C 0.65743 0.80678 0.42647
 C350 C 0.61123 0.78690 0.40591
 C351 C 0.62050 0.82173 0.38056
 C352 C 0.67765 0.88008 0.37715
 C353 C 0.68404 0.91884 0.35389
 C354 C 0.63770 0.89961 0.33355
 C355 C 0.58390 0.84050 0.33510
 C356 C 0.57455 0.80042 0.35850
 C357 C 0.52058 0.73977 0.35823
 C358 C 0.47821 0.72007 0.33565
 C359 C 0.48744 0.76020 0.31283
 C360 C 0.53994 0.82078 0.31296
 H361 H 0.79999 0.97902 0.37382
 H362 H 0.75365 0.84902 0.46133
 H363 H 0.87949 1.00441 0.40782
 H364 H 0.64823 0.77854 0.44559
 H365 H 0.56802 0.74447 0.41080
 H366 H 0.72408 0.96521 0.35113
 H367 H 0.64478 0.93086 0.31600
 H368 H 0.51081 0.70562 0.37457
 H369 H 0.43795 0.67293 0.33602
 H370 H 0.54780 0.85186 0.29518
 C371 C 0.15936 0.22247 0.38877
 C372 C 0.16384 0.27893 0.39441
 C373 C 0.13862 0.28384 0.42063
 C374 C 0.11248 0.23489 0.44074
 C375 C 0.10797 0.17923 0.43454
 C376 C 0.13140 0.17344 0.40844
 C377 C 0.13828 0.33692 0.42632
 C378 C 0.16008 0.38432 0.40602
 C379 C 0.18515 0.38136 0.37951
 C380 C 0.19042 0.32958 0.37445
 C381 C 0.22260 0.33039 0.34977
 C382 C 0.24592 0.37839 0.32984
 C383 C 0.23683 0.42660 0.33329
 C384 C 0.20582 0.42871 0.35797
 C385 C 0.19530 0.47719 0.35956
 C386 C 0.21541 0.52173 0.33766
 C387 C 0.24723 0.51992 0.31374
 C388 C 0.25811 0.47241 0.31185
 H389 H 0.17477 0.21368 0.36887
 H390 H 0.09325 0.23908 0.46071
 H391 H 0.12787 0.13054 0.40313
 H392 H 0.11954 0.34121 0.44642
 H393 H 0.15796 0.42359 0.41203
 H394 H 0.23196 0.29514 0.34557
 H395 H 0.27037 0.37707 0.31120
 H396 H 0.17012 0.48095 0.37698
 H397 H 0.20614 0.55784 0.33951
 H398 H 0.28190 0.47003 0.29319
 C399 C 0.05084 0.83055 0.39588
 C400 C 0.10816 0.83704 0.39908
 C401 C 0.14585 0.87256 0.42280
 C402 C 0.12531 0.89824 0.44297
 C403 C 0.06891 0.89211 0.43899
 C404 C 0.03211 0.85823 0.41535
 C405 C 0.20446 0.88379 0.42573
 C406 C 0.22765 0.86281 0.40499
 C407 C 0.19206 0.82766 0.38091
 C408 C 0.13013 0.81155 0.37890
 C409 C 0.09198 0.77009 0.35693
 C410 C 0.11432 0.74777 0.33662
 C411 C 0.17574 0.76677 0.33695
 C412 C 0.21587 0.80738 0.35888
 C413 C 0.27844 0.82711 0.35729
 C414 C 0.29958 0.80660 0.33507
 C415 C 0.25912 0.76532 0.31393
 C416 C 0.19719 0.74550 0.31518
 H417 H 0.02052 0.80676 0.37786
 H418 H 0.15454 0.92568 0.46093
 H419 H -0.01137 0.85358 0.41175
 H420 H 0.23342 0.91053 0.44388
 H421 H 0.27343 0.87381 0.40876
 H422 H 0.04386 0.75263 0.35524
 H423 H 0.08325 0.71599 0.32014
 H424 H 0.31248 0.85958 0.37246
 H425 H 0.34775 0.82290 0.33452
 H426 H 0.16553 0.71422 0.29872
   
