data_POSCAR
  _audit_creation_date              2014-09-24
  _audit_creation_method            'ToBaCCo'
  _symmetry_space_group_name_H-M    'P1'
  _symmetry_Int_Tables_number       1
  _symmetry_cell_setting            triclinic
  loop_
  _symmetry_equiv_pos_as_xyz
 x,y,z
_cell_length_a 31.6269
_cell_length_b 30.3844
_cell_length_c 15.2295
_cell_angle_alpha 89.930300
_cell_angle_beta 89.953100
_cell_angle_gamma 125.162400
loop_
  _atom_site_label
  _atom_site_type_symbol
  _atom_site_fract_x
  _atom_site_fract_y
  _atom_site_fract_z
C1 C 0.46946 0.89057 0.58213
 C2 C 0.46289 0.86510 0.50128
 C3 C 0.46914 0.89092 0.42154
 C4 C 0.48623 0.94531 0.42084
 C5 C 0.49641 0.97324 0.50116
 C6 C 0.48768 0.94582 0.58207
 C7 C 0.49938 0.97509 0.66043
 C8 C 0.51507 1.02818 0.65995
 C9 C 0.52429 1.05645 0.58086
 C10 C 0.51457 1.02848 0.50047
 C11 C 0.49302 0.97226 0.34158
 C12 C 0.50962 1.02566 0.34093
 C13 C 0.52208 1.05523 0.41932
 C14 C 0.53840 1.10969 0.41875
 C15 C 0.54369 1.13505 0.49905
 C16 C 0.53992 1.11078 0.58003
 H17 H 0.49662 0.95744 0.72366
 H18 H 0.51900 1.04629 0.72312
 H19 H 0.48520 0.95217 0.27895
 H20 H 0.51144 1.04308 0.27789
 H21 H 0.44771 0.82271 0.49986
 H22 H 0.55741 1.17703 0.49831
 C23 C -0.10528 0.46656 0.42259
 C24 C -0.12979 0.46020 0.50269
 C25 C -0.10530 0.46670 0.58330
 C26 C -0.05266 0.48448 0.58318
 C27 C -0.02677 0.49282 0.50203
 C28 C -0.05333 0.48322 0.42158
 C29 C -0.02688 0.49184 0.34212
 C30 C 0.02461 0.50950 0.34142
 C31 C 0.05213 0.52055 0.42011
 C32 C 0.02616 0.51175 0.50120
 C33 C -0.02410 0.49787 0.66156
 C34 C 0.02761 0.51624 0.66071
 C35 C 0.05336 0.52303 0.58138
 C36 C 0.10615 0.54257 0.57985
 C37 C 0.13101 0.55052 0.49962
 C38 C 0.10502 0.54025 0.41998
 H39 H -0.04551 0.48569 0.27937
 H40 H 0.04273 0.51481 0.27831
 H41 H -0.04091 0.49580 0.72458
 H42 H 0.04748 0.52589 0.72306
 H43 H -0.17015 0.44585 0.50184
 H44 H 0.17175 0.56634 0.49913
 C45 C 0.42712 0.52829 0.58112
 C46 C 0.40890 0.53300 0.49995
 C47 C 0.42673 0.52654 0.42048
 C48 C 0.46104 0.51099 0.42048
 C49 C 0.47823 0.50337 0.50134
 C50 C 0.46164 0.51234 0.58191
 C51 C 0.47816 0.50261 0.66075
 C52 C 0.51267 0.48824 0.66083
 C53 C 0.52929 0.47854 0.58208
 C54 C 0.51232 0.48694 0.50141
 C55 C 0.47816 0.50242 0.34139
 C56 C 0.51183 0.48697 0.34145
 C57 C 0.52939 0.47906 0.42062
 C58 C 0.56414 0.46409 0.42078
 C59 C 0.58246 0.45839 0.50025
 C60 C 0.56437 0.46332 0.58138
 H61 H 0.46442 0.50553 0.72393
 H62 H 0.52641 0.48543 0.72404
 H63 H 0.46543 0.50732 0.27848
 H64 H 0.52430 0.48165 0.27858
 H65 H 0.38392 0.54672 0.49790
 H66 H 0.60802 0.44538 0.49837
 O67 O 0.40413 0.63507 -0.07372
 O68 O 0.41442 0.72533 -0.10054
 C69 C 0.39550 0.75151 -0.11728
 O70 O 0.35936 0.74678 -0.07175
 O71 O 0.26897 0.65816 -0.10114
 C72 C 0.23992 0.60838 -0.11857
 O73 O 0.24051 0.57318 -0.07423
 O74 O 0.32107 0.57190 -0.10207
 C75 C 0.36873 0.59581 -0.11913
 O76 O 0.40380 0.64993 0.10078
 O77 O 0.41881 0.74270 0.07516
 C78 C 0.38973 0.75082 0.11946
 O79 O 0.34227 0.72789 0.10214
 O80 O 0.24972 0.64188 0.07304
 C81 C 0.23790 0.60070 0.11740
 O82 O 0.25613 0.57389 0.10049
 O83 O 0.33361 0.56750 0.07321
 C84 C 0.37420 0.60002 0.11753
 Cr85 Cr 0.40757 0.68697 0.00043
 Cr86 Cr 0.30612 0.69211 0.00060
 Cr87 Cr 0.28954 0.57447 -0.00064
 O88 O 0.33443 0.65117 0.00044
 O89 O 0.59280 0.35933 -0.07577
 O90 O 0.58702 0.27134 -0.09983
 C91 C 0.60921 0.24871 -0.11891
 O92 O 0.64734 0.25645 -0.07570
 O93 O 0.73696 0.34754 -0.09827
 C94 C 0.76213 0.39703 -0.11758
 O95 O 0.75747 0.43031 -0.07630
 O96 O 0.67487 0.42724 -0.10012
 C97 C 0.62724 0.40060 -0.11888
 O98 O 0.59317 0.34604 0.09925
 O99 O 0.58295 0.25584 0.07643
 C100 C 0.61268 0.24789 0.11848
 O101 O 0.65996 0.27097 0.09957
 O102 O 0.75089 0.36030 0.07690
 C103 C 0.76205 0.40185 0.11893
 O104 O 0.74353 0.42813 0.09951
 O105 O 0.66291 0.42944 0.07581
 C106 C 0.62179 0.39567 0.11798
 Cr107 Cr 0.59196 0.30963 -0.00002
 Cr108 Cr 0.69748 0.31036 0.00063
 Cr109 Cr 0.70800 0.42569 -0.00019
 O110 O 0.66585 0.34857 0.00030
 C111 C 0.42013 0.85863 -0.27975
 C112 C 0.45359 0.85856 -0.34086
 C113 C 0.46716 0.82228 -0.32756
 C114 C 0.44933 0.78855 -0.25404
 C115 C 0.41636 0.78915 -0.19290
 C116 C 0.40193 0.82453 -0.20668
 H117 H 0.40642 0.88370 -0.29008
 H118 H 0.49246 0.82066 -0.37338
 H119 H 0.46078 0.76136 -0.24592
 H120 H 0.37596 0.82545 -0.16157
 C121 C 0.13424 0.51988 -0.28404
 C122 C 0.13790 0.55865 -0.33988
 C123 C 0.17414 0.61338 -0.32209
 C124 C 0.20664 0.62939 -0.24942
 C125 C 0.20379 0.59085 -0.19352
 C126 C 0.16701 0.53584 -0.21135
 H127 H 0.10660 0.47742 -0.29759
 H128 H 0.17755 0.64370 -0.36512
 H129 H 0.23457 0.67205 -0.23793
 H130 H 0.16384 0.50518 -0.16963
 C131 C 0.44993 0.57964 -0.28142
 C132 C 0.41259 0.54305 -0.34242
 C133 C 0.36080 0.52490 -0.32948
 C134 C 0.34650 0.54115 -0.25622
 C135 C 0.38378 0.57713 -0.19499
 C136 C 0.43569 0.59632 -0.20858
 H137 H 0.49056 0.59688 -0.29155
 H138 H 0.33099 0.49710 -0.37528
 H139 H 0.30624 0.52603 -0.24827
 H140 H 0.46549 0.62470 -0.16336
 C141 C 0.59114 0.14599 -0.28438
 C142 C 0.55537 0.14309 -0.34354
 C143 C 0.53846 0.17638 -0.32853
 C144 C 0.55503 0.20970 -0.25477
 C145 C 0.59006 0.21177 -0.19521
 C146 C 0.60806 0.17967 -0.21111
 H147 H 0.60731 0.12333 -0.29618
 H148 H 0.51137 0.17575 -0.37296
 H149 H 0.54087 0.23441 -0.24510
 H150 H 0.63570 0.18090 -0.16734
 C151 C 0.83304 0.47041 -0.32538
 C152 C 0.86465 0.45225 -0.33945
 C153 C 0.86213 0.41569 -0.27891
 C154 C 0.82885 0.39777 -0.20658
 C155 C 0.79833 0.41694 -0.19217
 C156 C 0.80112 0.45386 -0.25148
 H157 H 0.83375 0.49828 -0.37088
 H158 H 0.88430 0.39919 -0.28952
 H159 H 0.82689 0.36889 -0.16188
 H160 H 0.77741 0.46867 -0.24200
 C161 C 0.54336 0.41310 -0.28007
 C162 C 0.57997 0.44991 -0.34198
 C163 C 0.63223 0.46961 -0.32984
 C164 C 0.64764 0.45457 -0.25650
 C165 C 0.61104 0.41823 -0.19452
 C166 C 0.55872 0.39754 -0.20725
 H167 H 0.50249 0.39482 -0.28951
 H168 H 0.66148 0.49762 -0.37641
 H169 H 0.68819 0.47076 -0.24918
 H170 H 0.52947 0.36890 -0.16130
 C171 C 0.85166 0.40786 0.29136
 C172 C 0.86342 0.45219 0.34170
 C173 C 0.84239 0.48044 0.31811
 C174 C 0.81018 0.46473 0.24484
 C175 C 0.79809 0.42014 0.19424
 C176 C 0.81949 0.39209 0.21812
 H177 H 0.86690 0.38507 0.30961
 H178 H 0.85064 0.51439 0.35693
 H179 H 0.79419 0.48707 0.22863
 H180 H 0.81083 0.35745 0.18099
 C181 C 0.58977 0.14316 0.28335
 C182 C 0.55397 0.14122 0.34133
 C183 C 0.53768 0.17491 0.32444
 C184 C 0.55529 0.20809 0.25013
 C185 C 0.59131 0.21012 0.19327
 C186 C 0.60855 0.17756 0.21068
 H187 H 0.60492 0.11962 0.29620
 H188 H 0.51050 0.17482 0.36795
 H189 H 0.54196 0.23340 0.23850
 H190 H 0.63672 0.17888 0.16813
 C191 C 0.54197 0.39968 0.29903
 C192 C 0.57841 0.44883 0.33970
 C193 C 0.62886 0.48131 0.30624
 C194 C 0.64275 0.46473 0.23266
 C195 C 0.60654 0.41495 0.19252
 C196 C 0.55592 0.38276 0.22628
 H197 H 0.50298 0.37399 0.32480
 H198 H 0.65750 0.51915 0.33762
 H199 H 0.68213 0.49021 0.20856
 H200 H 0.52714 0.34428 0.19682
 C201 C 0.15731 0.52506 0.31833
 C202 C 0.13549 0.55296 0.33845
 C203 C 0.14634 0.59582 0.28470
 C204 C 0.17885 0.61078 0.21184
 C205 C 0.20129 0.58325 0.19181
 C206 C 0.18972 0.53986 0.24548
 H207 H 0.14974 0.49226 0.35984
 H208 H 0.13040 0.61830 0.30026
 H209 H 0.18704 0.64444 0.17210
 H210 H 0.20645 0.51790 0.23222
 C211 C 0.40409 0.84234 0.30308
 C212 C 0.45101 0.85760 0.34114
 C213 C 0.47857 0.83866 0.30537
 C214 C 0.45938 0.80486 0.23187
 C215 C 0.41190 0.78886 0.19419
 C216 C 0.38465 0.80823 0.23045
 H217 H 0.38217 0.85628 0.33059
 H218 H 0.51464 0.84978 0.33471
 H219 H 0.48106 0.79030 0.20580
 H220 H 0.34806 0.79679 0.20298
 C221 C 0.45115 0.59147 0.29837
 C222 C 0.41346 0.54278 0.33926
 C223 C 0.36299 0.51190 0.30580
 C224 C 0.35036 0.52966 0.23201
 C225 C 0.38788 0.57905 0.19181
 C226 C 0.43848 0.60956 0.22553
 H227 H 0.49017 0.61595 0.32407
 H228 H 0.33340 0.47444 0.33733
 H229 H 0.31099 0.50551 0.20789
 H230 H 0.46826 0.64769 0.19598
   
