data_POSCAR
  _audit_creation_date              2014-09-24
  _audit_creation_method            'ToBaCCo'
  _symmetry_space_group_name_H-M    'P1'
  _symmetry_Int_Tables_number       1
  _symmetry_cell_setting            triclinic
  loop_
  _symmetry_equiv_pos_as_xyz
 x,y,z
_cell_length_a 57.4816
_cell_length_b 57.4867
_cell_length_c 57.5144
_cell_angle_alpha 90.013500
_cell_angle_beta 90.011500
_cell_angle_gamma 90.017500
loop_
  _atom_site_label
  _atom_site_type_symbol
  _atom_site_fract_x
  _atom_site_fract_y
  _atom_site_fract_z
O1 O 0.31666 0.34907 0.02253
 O2 O 0.34881 0.31753 -0.02289
 O3 O 0.31672 0.34954 -0.02261
 O4 O 0.34881 0.31710 0.02226
 O5 O 0.32170 0.28980 0.02201
 O6 O 0.28952 0.32233 -0.02296
 O7 O 0.32169 0.29023 -0.02324
 O8 O 0.28946 0.32185 0.02228
 Cu9 Cu 0.33548 0.33605 -0.00014
 Cu10 Cu 0.30285 0.30330 -0.00050
 C11 C 0.29758 0.34088 0.02998
 C12 C 0.34076 0.29851 -0.03065
 C13 C 0.29766 0.34150 -0.03029
 C14 C 0.34077 0.29793 0.02962
 O15 O 0.68317 0.65086 0.02195
 O16 O 0.65140 0.68287 -0.02340
 O17 O 0.68339 0.65072 -0.02319
 O18 O 0.65115 0.68292 0.02174
 O19 O 0.67836 0.71012 0.02190
 O20 O 0.71068 0.67783 -0.02315
 O21 O 0.67861 0.71007 -0.02335
 O22 O 0.71046 0.67798 0.02210
 Cu23 Cu 0.66453 0.66411 -0.00075
 Cu24 Cu 0.69729 0.69675 -0.00063
 C25 C 0.70222 0.65893 0.02961
 C26 C 0.65954 0.70194 -0.03093
 C27 C 0.70254 0.65873 -0.03066
 C28 C 0.65924 0.70199 0.02934
 O29 O 0.68305 0.34944 0.97776
 O30 O 0.65103 0.31752 1.02301
 O31 O 0.68305 0.34964 1.02289
 O32 O 0.65095 0.31743 0.97787
 O33 O 0.67810 0.29018 0.97788
 O34 O 0.71030 0.32250 1.02302
 O35 O 0.67820 0.29029 1.02312
 O36 O 0.71029 0.32228 0.97778
 Cu37 Cu 0.66428 0.33624 1.00038
 Cu38 Cu 0.69698 0.30356 1.00046
 C39 C 0.70213 0.34133 0.97022
 C40 C 0.65911 0.29846 1.03061
 C41 C 0.70215 0.34161 1.03047
 C42 C 0.65902 0.29832 0.97035
 O43 O 0.34921 0.68223 1.02337
 O44 O 0.31720 0.65045 0.97798
 O45 O 0.34930 0.68248 0.97823
 O46 O 0.31715 0.65014 1.02312
 O47 O 0.28992 0.67729 1.02330
 O48 O 0.32215 0.70973 0.97831
 O49 O 0.28996 0.67762 0.97806
 O50 O 0.32206 0.70948 1.02355
 Cu51 Cu 0.33595 0.66359 1.00066
 Cu52 Cu 0.30327 0.69628 1.00082
 C53 C 0.34114 0.70128 1.03102
 C54 C 0.29812 0.65858 0.97045
 C55 C 0.34125 0.70162 0.97078
 C56 C 0.29804 0.65815 1.03070
 O57 O -0.02310 0.34887 0.31729
 O58 O 0.02236 0.31718 0.34923
 O59 O 0.02206 0.34925 0.31719
 O60 O -0.02279 0.31683 0.34935
 O61 O -0.02271 0.28958 0.32221
 O62 O 0.02225 0.32208 0.28996
 O63 O 0.02255 0.28993 0.32208
 O64 O -0.02302 0.32170 0.29006
 Cu65 Cu -0.00038 0.33577 0.33600
 Cu66 Cu -0.00022 0.30307 0.30333
 C67 C -0.03064 0.34073 0.29823
 C68 C 0.03004 0.29815 0.34114
 C69 C 0.02964 0.34123 0.29809
 C70 C -0.03024 0.29768 0.34131
 O71 O 0.02245 0.68249 0.65054
 O72 O -0.02293 0.65081 0.68263
 O73 O -0.02271 0.68269 0.65042
 O74 O 0.02223 0.65052 0.68268
 O75 O 0.02239 0.67779 0.70981
 O76 O -0.02266 0.71005 0.67745
 O77 O -0.02288 0.67809 0.70975
 O78 O 0.02261 0.70984 0.67759
 Cu79 Cu -0.00025 0.66388 0.66384
 Cu80 Cu -0.00012 0.69670 0.69639
 C81 C 0.03009 0.70157 0.65855
 C82 C -0.03048 0.65901 0.70166
 C83 C -0.03019 0.70186 0.65839
 C84 C 0.02981 0.65862 0.70174
 O85 O 1.02328 0.65130 0.31689
 O86 O 0.97791 0.68291 0.34906
 O87 O 0.97811 0.65087 0.31701
 O88 O 1.02307 0.68330 0.34902
 O89 O 1.02284 0.71058 0.32192
 O90 O 0.97776 0.67806 0.28982
 O91 O 0.97757 0.71019 0.32194
 O92 O 1.02304 0.67850 0.28970
 Cu93 Cu 1.00063 0.66436 0.33573
 Cu94 Cu 1.00028 0.69709 0.30310
 C95 C 1.03072 0.65947 0.29781
 C96 C 0.97016 0.70193 0.34101
 C97 C 0.97042 0.65891 0.29797
 C98 C 1.03046 0.70247 0.34098
 O99 O 0.97708 0.31713 0.65062
 O100 O 1.02244 0.34903 0.68258
 O101 O 1.02225 0.31709 0.65044
 O102 O 0.97727 0.34917 0.68273
 O103 O 0.97726 0.32196 0.70990
 O104 O 1.02235 0.28978 0.67751
 O105 O 1.02254 0.32181 0.70974
 O106 O 0.97708 0.28983 0.67771
 Cu107 Cu 0.99974 0.33585 0.66386
 Cu108 Cu 0.99980 0.30309 0.69646
 C109 C 0.96953 0.29803 0.65867
 C110 C 1.03007 0.34089 0.70160
 C111 C 1.02983 0.29798 0.65843
 C112 C 0.96977 0.34109 0.70183
 O113 O 0.34913 0.02292 0.31742
 O114 O 0.31720 -0.02248 0.34926
 O115 O 0.34933 -0.02224 0.31729
 O116 O 0.31712 0.02268 0.34951
 O117 O 0.28986 0.02275 0.32236
 O118 O 0.32218 -0.02228 0.29004
 O119 O 0.28997 -0.02251 0.32209
 O120 O 0.32196 0.02298 0.29018
 Cu121 Cu 0.33593 0.00022 0.33611
 Cu122 Cu 0.30324 0.00024 0.30342
 C123 C 0.34102 0.03052 0.29836
 C124 C 0.29814 -0.03007 0.34114
 C125 C 0.34129 -0.02976 0.29818
 C126 C 0.29800 0.03021 0.34148
 O127 O 0.65100 0.02283 0.68249
 O128 O 0.68291 -0.02273 0.65088
 O129 O 0.65076 -0.02233 0.68282
 O130 O 0.68308 0.02243 0.65045
 O131 O 0.71029 0.02260 0.67764
 O132 O 0.67787 -0.02226 0.71011
 O133 O 0.71011 -0.02266 0.67808
 O134 O 0.67813 0.02300 0.70976
 Cu135 Cu 0.66420 0.00004 0.66392
 Cu136 Cu 0.69685 0.00019 0.69665
 C137 C 0.65909 0.03051 0.70152
 C138 C 0.70195 -0.03029 0.65905
 C139 C 0.65876 -0.02976 0.70198
 C140 C 0.70219 0.02998 0.65848
 O141 O 0.34846 0.97686 0.68319
 O142 O 0.31667 1.02222 0.65119
 O143 O 0.34879 1.02203 0.68313
 O144 O 0.31642 0.97706 0.65110
 O145 O 0.28918 0.97717 0.67825
 O146 O 0.32166 1.02225 0.71039
 O147 O 0.28945 1.02244 0.67836
 O148 O 0.32131 0.97698 0.71043
 Cu149 Cu 0.33532 0.99952 0.66441
 Cu150 Cu 0.30265 0.99971 0.69711
 C151 C 0.34035 0.96936 0.70228
 C152 C 0.29765 1.02992 0.65929
 C153 C 0.34077 1.02966 0.70220
 C154 C 0.29728 0.96962 0.65916
 O155 O 0.65136 0.97794 0.31750
 O156 O 0.68347 1.02329 0.34926
 O157 O 0.65132 1.02310 0.31726
 O158 O 0.68338 0.97813 0.34958
 O159 O 0.71062 0.97788 0.32243
 O160 O 0.67846 1.02297 0.29001
 O161 O 0.71070 1.02315 0.32210
 O162 O 0.67852 0.97770 0.29027
 Cu163 Cu 0.66465 1.00064 0.33613
 Cu164 Cu 0.69733 1.00042 0.30345
 C165 C 0.65944 0.97024 0.29848
 C166 C 0.70257 1.03079 0.34114
 C167 C 0.65938 1.03053 0.29812
 C168 C 0.70245 0.97048 0.34155
 C169 C 0.87689 0.77289 0.48811
 C170 C 0.87774 0.77358 0.51191
 C171 C 0.86180 0.79027 0.51894
 N172 N 0.85132 0.79975 0.50016
 C173 C 0.86051 0.78923 0.48127
 C174 C 0.85705 0.79600 0.54239
 C175 C 0.84012 0.81231 0.54979
 C176 C 0.83345 0.81547 0.57276
 C177 C 0.81652 0.83234 0.57285
 C178 C 0.81323 0.83913 0.54993
 N179 N 0.82795 0.82708 0.53605
 C180 C 0.79687 0.85609 0.54271
 C181 C 0.79107 0.86108 0.51933
 C182 C 0.77439 0.87714 0.51250
 C183 C 0.77363 0.87654 0.48870
 C184 C 0.78991 0.86018 0.48165
 N185 N 0.80047 0.85077 0.50041
 C186 C 0.79531 0.85509 0.45820
 C187 C 0.81237 0.83890 0.45085
 C188 C 0.81999 0.83665 0.42807
 C189 C 0.83681 0.81970 0.42798
 C190 C 0.83912 0.81195 0.45071
 N191 N 0.82383 0.82345 0.46447
 C192 C 0.85523 0.79474 0.45789
 H193 H 0.88735 0.76175 0.47711
 H194 H 0.88882 0.76292 0.52277
 H195 H 0.82024 0.81977 0.48172
 H196 H 0.83988 0.80635 0.58792
 H197 H 0.80748 0.83867 0.58809
 H198 H 0.76380 0.88813 0.52351
 H199 H 0.76249 0.88713 0.47784
 H200 H 0.84649 0.81400 0.41288
 H201 H 0.83073 0.82996 0.51853
 H202 H 0.81427 0.84646 0.41305
 C203 C 0.22634 0.12359 0.51289
 C204 C 0.22565 0.12276 0.48909
 C205 C 0.20901 0.13876 0.48207
 N206 N 0.19957 0.14926 0.50085
 C207 C 0.21005 0.14003 0.51974
 C208 C 0.20332 0.14356 0.45862
 C209 C 0.18705 0.16053 0.45124
 C210 C 0.18394 0.16727 0.42828
 C211 C 0.16709 0.18420 0.42820
 C212 C 0.16025 0.18744 0.45111
 N213 N 0.17227 0.17268 0.46498
 C214 C 0.14328 0.20379 0.45833
 C215 C 0.13828 0.20957 0.48172
 C216 C 0.12221 0.22623 0.48855
 C217 C 0.12282 0.22699 0.51236
 C218 C 0.13921 0.21074 0.51940
 N219 N 0.14861 0.20019 0.50063
 C220 C 0.14431 0.20535 0.54285
 C221 C 0.16050 0.18828 0.55019
 C222 C 0.16278 0.18069 0.57298
 C223 C 0.17970 0.16384 0.57306
 C224 C 0.18740 0.16148 0.55031
 N225 N 0.17591 0.17677 0.53657
 C226 C 0.20457 0.14531 0.54313
 H227 H 0.23744 0.11309 0.52388
 H228 H 0.23628 0.11165 0.47822
 H229 H 0.17956 0.18033 0.51930
 H230 H 0.19308 0.16086 0.41312
 H231 H 0.16079 0.19328 0.41296
 H232 H 0.11120 0.23681 0.47755
 H233 H 0.11223 0.23813 0.52322
 H234 H 0.18541 0.15416 0.58816
 H235 H 0.16933 0.16985 0.48249
 H236 H 0.15301 0.18644 0.58801
 C237 C 0.21747 0.88381 0.51145
 C238 C 0.21751 0.88378 0.48760
 C239 C 0.20533 0.86413 0.48068
 N240 N 0.19806 0.85208 0.49951
 C241 C 0.20527 0.86417 0.51835
 C242 C 0.20232 0.85698 0.45738
 C243 C 0.18822 0.83806 0.45047
 C244 C 0.18803 0.82838 0.42837
 C245 C 0.17106 0.81149 0.42833
 C246 C 0.16134 0.81129 0.45040
 N247 N 0.17178 0.82765 0.46371
 C248 C 0.14237 0.79723 0.45723
 C249 C 0.13530 0.79410 0.48054
 C250 C 0.11570 0.78185 0.48746
 C251 C 0.11577 0.78177 0.51131
 C252 C 0.13540 0.79398 0.51821
 N253 N 0.14740 0.80131 0.49937
 C254 C 0.14258 0.79698 0.54151
 C255 C 0.16149 0.81111 0.54840
 C256 C 0.17121 0.81127 0.57048
 C257 C 0.18806 0.82828 0.57053
 C258 C 0.18819 0.83804 0.54847
 N259 N 0.17183 0.82758 0.53517
 C260 C 0.20219 0.85706 0.54165
 H261 H 0.22566 0.89672 0.52244
 H262 H 0.22574 0.89667 0.47662
 H263 H 0.16619 0.83321 0.51900
 H264 H 0.19884 0.83314 0.41372
 H265 H 0.16628 0.80073 0.41363
 H266 H 0.10280 0.77364 0.47647
 H267 H 0.10292 0.77349 0.52230
 H268 H 0.19883 0.83306 0.58521
 H269 H 0.16618 0.83325 0.47990
 H270 H 0.16649 0.80043 0.58512
 C271 C 0.88430 0.21766 0.51133
 C272 C 0.88443 0.21766 0.48748
 C273 C 0.86486 0.20541 0.48046
 N274 N 0.85272 0.19813 0.49922
 C275 C 0.86466 0.20541 0.51812
 C276 C 0.85787 0.20236 0.45711
 C277 C 0.83894 0.18829 0.45016
 C278 C 0.82930 0.18814 0.42804
 C279 C 0.81234 0.17124 0.42797
 C280 C 0.81208 0.16150 0.45004
 N281 N 0.82846 0.17188 0.46337
 C282 C 0.79794 0.14256 0.45683
 C283 C 0.79484 0.13537 0.48011
 C284 C 0.78262 0.11572 0.48693
 C285 C 0.78257 0.11563 0.51078
 C286 C 0.79476 0.13524 0.51778
 N287 N 0.80206 0.14736 0.49900
 C288 C 0.79776 0.14229 0.54112
 C289 C 0.81176 0.16127 0.54805
 C290 C 0.81183 0.17097 0.57014
 C291 C 0.82870 0.18797 0.57022
 C292 C 0.83849 0.18819 0.54817
 N293 N 0.82817 0.17176 0.53485
 C294 C 0.85742 0.20234 0.54139
 H295 H 0.89712 0.22591 0.52239
 H296 H 0.89736 0.22592 0.47657
 H297 H 0.83386 0.16619 0.51868
 H298 H 0.83412 0.19894 0.41340
 H299 H 0.80158 0.16651 0.41326
 H300 H 0.77441 0.10286 0.47588
 H301 H 0.77432 0.10271 0.52170
 H302 H 0.83337 0.19876 0.58491
 H303 H 0.83400 0.16625 0.47957
 H304 H 0.80101 0.16616 0.58477
 C305 C 0.48835 0.78218 0.88434
 C306 C 0.51221 0.78224 0.88415
 C307 C 0.51894 0.79448 0.86449
 N308 N 0.49998 0.80170 0.85260
 C309 C 0.48125 0.79439 0.86479
 C310 C 0.54219 0.79760 0.85719
 C311 C 0.54890 0.81176 0.83826
 C312 C 0.57094 0.81204 0.82842
 C313 C 0.57080 0.82903 0.81158
 C314 C 0.54868 0.83867 0.81156
 N315 N 0.53553 0.82815 0.82799
 C316 C 0.54167 0.85764 0.79759
 C317 C 0.51830 0.86461 0.79464
 C318 C 0.51122 0.88420 0.78248
 C319 C 0.48735 0.88404 0.78257
 C320 C 0.48061 0.86437 0.79479
 N321 N 0.49956 0.85244 0.80196
 C322 C 0.45735 0.85710 0.79793
 C323 C 0.45062 0.83815 0.81207
 C324 C 0.42856 0.82835 0.81237
 C325 C 0.42871 0.81147 0.82934
 C326 C 0.45085 0.81140 0.83894
 N327 N 0.46401 0.82783 0.82842
 C328 C 0.45787 0.79738 0.85786
 H329 H 0.47748 0.77391 0.89729
 H330 H 0.52333 0.77402 0.89693
 H331 H 0.48022 0.83352 0.83394
 H332 H 0.58568 0.80128 0.83306
 H333 H 0.58540 0.83388 0.80073
 H334 H 0.52210 0.89715 0.77421
 H335 H 0.47625 0.89686 0.77439
 H336 H 0.41409 0.80063 0.83419
 H337 H 0.51935 0.83369 0.83372
 H338 H 0.41381 0.83302 0.80165
 C339 C 0.48787 0.11630 0.21793
 C340 C 0.51173 0.11624 0.21794
 C341 C 0.51870 0.13582 0.20569
 N342 N 0.49989 0.14789 0.19840
 C343 C 0.48101 0.13590 0.20567
 C344 C 0.54203 0.14288 0.20264
 C345 C 0.54892 0.16184 0.18859
 C346 C 0.57100 0.17158 0.18848
 C347 C 0.57102 0.18853 0.17159
 C348 C 0.54894 0.18868 0.16183
 N349 N 0.53567 0.17226 0.17219
 C350 C 0.54211 0.20276 0.14287
 C351 C 0.51881 0.20575 0.13564
 C352 C 0.51197 0.21791 0.11597
 C353 C 0.48811 0.21785 0.11584
 C354 C 0.48113 0.20567 0.13545
 N355 N 0.49993 0.19848 0.14760
 C356 C 0.45778 0.20259 0.14246
 C357 C 0.45088 0.18859 0.16145
 C358 C 0.42877 0.18846 0.17112
 C359 C 0.42876 0.17163 0.18814
 C360 C 0.45086 0.16193 0.18840
 N361 N 0.46415 0.17226 0.17197
 C362 C 0.45771 0.14306 0.20258
 H363 H 0.47684 0.10346 0.22618
 H364 H 0.52269 0.10335 0.22620
 H365 H 0.48036 0.16663 0.16643
 H366 H 0.58567 0.16682 0.19929
 H367 H 0.58570 0.19934 0.16687
 H368 H 0.52301 0.22613 0.10313
 H369 H 0.47716 0.22603 0.10290
 H370 H 0.41407 0.16692 0.19892
 H371 H 0.51948 0.16663 0.16653
 H372 H 0.41410 0.19921 0.16627
 C373 C 0.48818 0.12365 0.77293
 C374 C 0.51200 0.12301 0.77366
 C375 C 0.51888 0.13906 0.79032
 N376 N 0.50000 0.14941 0.79973
 C377 C 0.48118 0.14003 0.78921
 C378 C 0.54230 0.14402 0.79609
 C379 C 0.54957 0.16095 0.81246
 C380 C 0.57252 0.16770 0.81575
 C381 C 0.57249 0.18454 0.83269
 C382 C 0.54951 0.18774 0.83939
 N383 N 0.53573 0.17301 0.82721
 C384 C 0.54216 0.20403 0.85635
 C385 C 0.51872 0.20983 0.86110
 C386 C 0.51174 0.22653 0.87705
 C387 C 0.48793 0.22730 0.87619
 C388 C 0.48103 0.21099 0.85979
 N389 N 0.49990 0.20042 0.85061
 C390 C 0.45762 0.20556 0.85452
 C391 C 0.45039 0.18836 0.83841
 C392 C 0.42762 0.18065 0.83611
 C393 C 0.42766 0.16368 0.81931
 C394 C 0.45045 0.16138 0.81169
 N395 N 0.46411 0.17681 0.82313
 C396 C 0.45774 0.14515 0.79464
 H397 H 0.47728 0.11307 0.76181
 H398 H 0.52298 0.11200 0.76306
 H399 H 0.48138 0.18045 0.81953
 H400 H 0.58775 0.16135 0.80669
 H401 H 0.58768 0.19362 0.83913
 H402 H 0.52265 0.23714 0.88814
 H403 H 0.47696 0.23846 0.88666
 H404 H 0.41260 0.15391 0.81361
 H405 H 0.51819 0.17016 0.83000
 H406 H 0.41253 0.18640 0.84579
 C407 C 0.48860 0.77403 0.12276
 C408 C 0.51242 0.77334 0.12336
 C409 C 0.51943 0.78964 0.13972
 N410 N 0.50062 0.80015 0.14911
 C411 C 0.48172 0.79069 0.13880
 C412 C 0.54288 0.79511 0.14481
 C413 C 0.55019 0.81220 0.16100
 C414 C 0.57298 0.81983 0.16329
 C415 C 0.57303 0.83668 0.18022
 C416 C 0.55026 0.83899 0.18792
 N417 N 0.53653 0.82367 0.17640
 C418 C 0.54304 0.85513 0.20508
 C419 C 0.51963 0.86039 0.21052
 C420 C 0.51274 0.87683 0.22679
 C421 C 0.48892 0.87763 0.22606
 C422 C 0.48193 0.86161 0.20942
 N423 N 0.50075 0.85113 0.20001
 C424 C 0.45848 0.85678 0.20370
 C425 C 0.45113 0.83975 0.18746
 C426 C 0.42816 0.83297 0.18436
 C427 C 0.42812 0.81600 0.16754
 C428 C 0.45105 0.81278 0.16073
 N429 N 0.46490 0.82760 0.17272
 C430 C 0.45831 0.79640 0.14381
 H431 H 0.47761 0.76339 0.11177
 H432 H 0.52331 0.76223 0.11277
 H433 H 0.48242 0.83045 0.16980
 H434 H 0.58803 0.81412 0.15353
 H435 H 0.58812 0.84638 0.18595
 H436 H 0.52371 0.88735 0.23790
 H437 H 0.47802 0.88873 0.23666
 H438 H 0.41289 0.80687 0.16126
 H439 H 0.51926 0.82008 0.18004
 H440 H 0.41298 0.83937 0.19347
 C441 C 0.88391 0.48854 0.78223
 C442 C 0.88380 0.51240 0.78224
 C443 C 0.86417 0.51922 0.79450
 N444 N 0.85223 0.50033 0.80178
 C445 C 0.86435 0.48154 0.79449
 C446 C 0.85696 0.54251 0.79757
 C447 C 0.83805 0.54932 0.81172
 C448 C 0.82828 0.57139 0.81194
 C449 C 0.81144 0.57135 0.82895
 C450 C 0.81137 0.54926 0.83866
 N451 N 0.82775 0.53603 0.82816
 C452 C 0.79739 0.54235 0.85765
 C453 C 0.79440 0.51901 0.86471
 C454 C 0.78226 0.51202 0.88434
 C455 C 0.78230 0.48816 0.88427
 C456 C 0.79448 0.48132 0.86460
 N457 N 0.80166 0.50021 0.85259
 C458 C 0.79755 0.45803 0.85741
 C459 C 0.81162 0.45120 0.83846
 C460 C 0.81183 0.42912 0.82873
 C461 C 0.82875 0.42916 0.81181
 C462 C 0.83843 0.45127 0.81164
 N463 N 0.82799 0.46451 0.82805
 C464 C 0.85734 0.45819 0.79756
 H465 H 0.89682 0.47761 0.77397
 H466 H 0.89661 0.52345 0.77398
 H467 H 0.83357 0.48072 0.83368
 H468 H 0.83295 0.58608 0.80114
 H469 H 0.80064 0.58599 0.83376
 H470 H 0.77404 0.52296 0.89727
 H471 H 0.77413 0.47712 0.89714
 H472 H 0.83354 0.41449 0.80101
 H473 H 0.83344 0.51984 0.83373
 H474 H 0.80107 0.41441 0.83348
 C475 C 0.11608 0.51257 0.21757
 C476 C 0.11587 0.48871 0.21764
 C477 C 0.13543 0.48160 0.20545
 N478 N 0.14764 0.50033 0.19814
 C479 C 0.13575 0.51929 0.20534
 C480 C 0.14236 0.45822 0.20246
 C481 C 0.16127 0.45119 0.18842
 C482 C 0.17084 0.42904 0.18833
 C483 C 0.18779 0.42888 0.17144
 C484 C 0.18812 0.45094 0.16166
 N485 N 0.17179 0.46434 0.17200
 C486 C 0.20225 0.45766 0.14271
 C487 C 0.20545 0.48092 0.13548
 C488 C 0.21770 0.48766 0.11583
 C489 C 0.21786 0.51152 0.11572
 C490 C 0.20570 0.51860 0.13530
 N491 N 0.19833 0.49987 0.14744
 C492 C 0.20280 0.54197 0.14231
 C493 C 0.18880 0.54899 0.16125
 C494 C 0.18880 0.57111 0.17090
 C495 C 0.17191 0.57127 0.18785
 C496 C 0.16204 0.54924 0.18810
 N497 N 0.17233 0.53585 0.17173
 C498 C 0.14307 0.54254 0.20222
 H499 H 0.10329 0.52369 0.22577
 H500 H 0.10290 0.47785 0.22591
 H501 H 0.16659 0.51968 0.16618
 H502 H 0.16598 0.41443 0.19915
 H503 H 0.19849 0.41412 0.16673
 H504 H 0.22586 0.47656 0.10300
 H505 H 0.22616 0.52240 0.10279
 H506 H 0.16727 0.58600 0.19861
 H507 H 0.16629 0.48056 0.16633
 H508 H 0.19968 0.58570 0.16608
 C509 C 0.87717 0.48779 0.22593
 C510 C 0.87657 0.51161 0.22669
 C511 C 0.86022 0.51865 0.21040
 N512 N 0.85081 0.49987 0.19985
 C513 C 0.86112 0.48096 0.20925
 C514 C 0.85514 0.54211 0.20500
 C515 C 0.83898 0.54945 0.18790
 C516 C 0.83675 0.57225 0.18029
 C517 C 0.81985 0.57233 0.16342
 C518 C 0.81210 0.54958 0.16108
 N519 N 0.82356 0.53583 0.17640
 C520 C 0.79494 0.54240 0.14492
 C521 C 0.78943 0.51900 0.13965
 C522 C 0.77313 0.51215 0.12321
 C523 C 0.77380 0.48834 0.12239
 C524 C 0.79043 0.48131 0.13839
 N525 N 0.79989 0.50010 0.14889
 C526 C 0.79611 0.45785 0.14320
 C527 C 0.81237 0.45046 0.16018
 C528 C 0.81546 0.42749 0.16690
 C529 C 0.83231 0.42741 0.18385
 C530 C 0.83915 0.45033 0.18710
 N531 N 0.82715 0.46421 0.17234
 C532 C 0.85611 0.45756 0.20347
 H533 H 0.88816 0.47678 0.23653
 H534 H 0.88717 0.52248 0.23783
 H535 H 0.83009 0.48173 0.16952
 H536 H 0.84654 0.58728 0.18603
 H537 H 0.81417 0.58744 0.15373
 H538 H 0.76205 0.52315 0.11270
 H539 H 0.76317 0.47746 0.11128
 H540 H 0.83859 0.41217 0.19293
 H541 H 0.81988 0.51856 0.17997
 H542 H 0.80633 0.41232 0.16049
 C543 C 0.12332 0.48746 0.77351
 C544 C 0.12247 0.51127 0.77425
 C545 C 0.13840 0.51828 0.79096
 N546 N 0.14889 0.49948 0.80040
 C547 C 0.13971 0.48059 0.78983
 C548 C 0.14316 0.54173 0.79673
 C549 C 0.16007 0.54911 0.81308
 C550 C 0.16675 0.57208 0.81628
 C551 C 0.18364 0.57215 0.83318
 C552 C 0.18692 0.54921 0.83994
 N553 N 0.17221 0.53534 0.82784
 C554 C 0.20326 0.54196 0.85691
 C555 C 0.20906 0.51856 0.86185
 C556 C 0.22572 0.51171 0.87791
 C557 C 0.22651 0.48790 0.87723
 C558 C 0.21027 0.48086 0.86082
 N559 N 0.19970 0.49965 0.85146
 C560 C 0.20492 0.45741 0.85564
 C561 C 0.18787 0.45008 0.83942
 C562 C 0.18030 0.42728 0.83708
 C563 C 0.16348 0.42721 0.82012
 C564 C 0.16112 0.44998 0.81246
 N565 N 0.17638 0.46373 0.82402
 C566 C 0.14500 0.45718 0.79528
 H567 H 0.11287 0.47647 0.76234
 H568 H 0.11139 0.52215 0.76361
 H569 H 0.17994 0.48101 0.82042
 H570 H 0.16034 0.58727 0.80719
 H571 H 0.19269 0.58739 0.83955
 H572 H 0.23628 0.52270 0.88896
 H573 H 0.23765 0.47702 0.88781
 H574 H 0.15383 0.41210 0.81436
 H575 H 0.16942 0.51780 0.83070
 H576 H 0.18604 0.41223 0.84682
 C577 C 0.26121 0.37945 0.07693
 N578 N 0.23769 0.38085 0.07552
 N579 N 0.22595 0.39521 0.08941
 C580 C 0.23736 0.40861 0.10512
 N581 N 0.26087 0.40716 0.10657
 N582 N 0.27261 0.39280 0.09268
 C583 C 0.27396 0.36516 0.06094
 C584 C 0.28473 0.35375 0.04705
 C585 C 0.22490 0.42519 0.11895
 C586 C 0.21454 0.43967 0.13003
 C587 C 0.73781 0.62020 0.07701
 N588 N 0.72611 0.60750 0.09308
 N589 N 0.73752 0.59318 0.10728
 C590 C 0.76098 0.59113 0.10585
 N591 N 0.77269 0.60388 0.08983
 N592 N 0.76128 0.61820 0.07562
 C593 C 0.72538 0.63451 0.06079
 C594 C 0.71484 0.64597 0.04676
 C595 C 0.77307 0.57465 0.12013
 C596 C 0.78308 0.56027 0.13164
 C597 C 0.73840 0.38008 0.92334
 N598 N 0.76194 0.38115 0.92445
 N599 N 0.77370 0.39549 0.91054
 C600 C 0.76227 0.40919 0.89512
 N601 N 0.73873 0.40807 0.89397
 N602 N 0.72697 0.39373 0.90787
 C603 C 0.72566 0.36577 0.93931
 C604 C 0.71492 0.35430 0.95319
 C605 C 0.77478 0.42571 0.88125
 C606 C 0.78519 0.44012 0.87014
 C607 C 0.26194 0.61987 0.92344
 N608 N 0.27342 0.60640 0.90785
 N609 N 0.26173 0.59206 0.89388
 C610 C 0.23821 0.59075 0.89509
 N611 N 0.22672 0.60425 0.91064
 N612 N 0.23841 0.61860 0.92461
 C613 C 0.27462 0.63418 0.93947
 C614 C 0.28534 0.64564 0.95338
 C615 C 0.22578 0.57424 0.88111
 C616 C 0.21548 0.55985 0.86986
 C617 C 0.07703 0.26228 0.38012
 N618 N 0.09219 0.27387 0.39400
 N619 N 0.10611 0.26225 0.40843
 C620 C 0.10528 0.23869 0.40943
 N621 N 0.09016 0.22710 0.39552
 N622 N 0.07624 0.23872 0.38108
 C623 C 0.06103 0.27485 0.36570
 C624 C 0.04712 0.28547 0.35416
 C625 C 0.11919 0.22631 0.42601
 C626 C 0.13039 0.21602 0.44044
 C627 C 0.07692 0.73762 0.61953
 N628 N 0.09174 0.72615 0.60521
 N629 N 0.10558 0.73790 0.59081
 C630 C 0.10501 0.76148 0.59028
 N631 N 0.09022 0.77296 0.60464
 N632 N 0.07638 0.76120 0.61904
 C633 C 0.06099 0.72494 0.63394
 C634 C 0.04713 0.71426 0.64549
 C635 C 0.11881 0.77404 0.57374
 C636 C 0.12988 0.78451 0.55935
 C637 C 0.92286 0.73745 0.37994
 N638 N 0.90707 0.72572 0.39297
 N639 N 0.89293 0.73715 0.40734
 C640 C 0.89413 0.76064 0.40911
 N641 N 0.90988 0.77238 0.39603
 N642 N 0.92403 0.76095 0.38167
 C643 C 0.93903 0.72503 0.36557
 C644 C 0.95303 0.71452 0.35405
 C645 C 0.87992 0.77277 0.42562
 C646 C 0.86846 0.78282 0.44001
 C647 C 0.92283 0.26174 0.61967
 N648 N 0.92376 0.23818 0.61883
 N649 N 0.90997 0.22639 0.60439
 C650 C 0.89483 0.23781 0.59036
 N651 N 0.89386 0.26136 0.59124
 N652 N 0.90765 0.27315 0.60567
 C653 C 0.93871 0.27450 0.63409
 C654 C 0.95253 0.28524 0.64563
 C655 C 0.88108 0.22524 0.57377
 C656 C 0.87006 0.21478 0.55931
 C657 C 0.37981 0.07739 0.26211
 N658 N 0.39392 0.09249 0.27350
 N659 N 0.40826 0.10635 0.26168
 C660 C 0.40892 0.10552 0.23813
 N661 N 0.39478 0.09046 0.22674
 N662 N 0.38044 0.07660 0.23855
 C663 C 0.36549 0.06144 0.27488
 C664 C 0.35401 0.04756 0.28561
 C665 C 0.42543 0.11933 0.22552
 C666 C 0.43983 0.13039 0.21504
 C667 C 0.62024 0.07761 0.73739
 N668 N 0.60624 0.09267 0.72584
 N669 N 0.59187 0.10663 0.73750
 C670 C 0.59106 0.10594 0.76106
 N671 N 0.60510 0.09092 0.77261
 N672 N 0.61948 0.07696 0.76095
 C673 C 0.63460 0.06157 0.72479
 C674 C 0.64609 0.04763 0.71417
 C675 C 0.57455 0.11989 0.77349
 C676 C 0.56016 0.13111 0.78382
 C677 C 0.37912 0.92258 0.73864
 N678 N 0.38019 0.92376 0.76217
 N679 N 0.39457 0.90993 0.77396
 C680 C 0.40832 0.89451 0.76259
 N681 N 0.40722 0.89329 0.73906
 N682 N 0.39283 0.90712 0.72727
 C683 C 0.36478 0.93850 0.72586
 C684 C 0.35331 0.95234 0.71509
 C685 C 0.42491 0.88074 0.77514
 C686 C 0.43937 0.86972 0.78556
 C687 C 0.62067 0.92292 0.26273
 N688 N 0.60770 0.90700 0.27435
 N689 N 0.59342 0.89282 0.26284
 C690 C 0.59167 0.89413 0.23936
 N691 N 0.60468 0.91001 0.22773
 N692 N 0.61896 0.92419 0.23925
 C693 C 0.63496 0.93910 0.27525
 C694 C 0.64644 0.95310 0.28583
 C695 C 0.57524 0.87988 0.22714
 C696 C 0.56089 0.86838 0.21704
 C697 C 0.37971 0.26301 0.92206
 N698 N 0.39298 0.27474 0.90648
 N699 N 0.40736 0.26330 0.89235
 C700 C 0.40889 0.23978 0.89337
 N701 N 0.39557 0.22804 0.90890
 N702 N 0.38120 0.23949 0.92304
 C703 C 0.36533 0.27543 0.93822
 C704 C 0.35380 0.28594 0.95221
 C705 C 0.42539 0.22762 0.87918
 C706 C 0.43977 0.21753 0.86773
 C707 C 0.62065 0.73831 0.92239
 N708 N 0.61959 0.76185 0.92357
 N709 N 0.60513 0.77364 0.90981
 C710 C 0.59131 0.76224 0.89446
 N711 N 0.59242 0.73870 0.89324
 N712 N 0.60687 0.72692 0.90700
 C713 C 0.63505 0.72553 0.93826
 C714 C 0.64656 0.71477 0.95208
 C715 C 0.57468 0.77478 0.88075
 C716 C 0.56018 0.78521 0.86977
 C717 C 0.38017 0.73737 0.07784
 N718 N 0.39426 0.72587 0.09286
 N719 N 0.40869 0.73760 0.10672
 C720 C 0.40946 0.76116 0.10596
 N721 N 0.39534 0.77266 0.09097
 N722 N 0.38091 0.76094 0.07712
 C723 C 0.36574 0.72469 0.06190
 C724 C 0.35419 0.71401 0.04805
 C725 C 0.42602 0.77367 0.11982
 C726 C 0.44043 0.78406 0.13097
 C727 C 0.62018 0.26219 0.07733
 N728 N 0.61940 0.23863 0.07644
 N729 N 0.60501 0.22683 0.09025
 C730 C 0.59096 0.23825 0.10538
 N731 N 0.59179 0.26181 0.10631
 N732 N 0.60618 0.27360 0.09250
 C733 C 0.63456 0.27495 0.06143
 C734 C 0.64608 0.28568 0.04760
 C735 C 0.57441 0.22567 0.11916
 C736 C 0.55999 0.21520 0.13021
 C737 C 0.26197 0.07736 0.62068
 N738 N 0.27362 0.09342 0.60793
 N739 N 0.26215 0.10764 0.59368
 C740 C 0.23868 0.10625 0.59176
 N741 N 0.22701 0.09023 0.60456
 N742 N 0.23848 0.07600 0.61881
 C743 C 0.27445 0.06113 0.63493
 C744 C 0.28501 0.04708 0.64635
 C745 C 0.22652 0.12054 0.57533
 C746 C 0.21647 0.13205 0.56099
 C747 C 0.73840 0.07676 0.37902
 N748 N 0.72707 0.09231 0.39266
 N749 N 0.73891 0.10620 0.40696
 C750 C 0.76245 0.10495 0.40804
 N751 N 0.77379 0.08944 0.39435
 N752 N 0.76194 0.07556 0.38005
 C753 C 0.72556 0.06078 0.36477
 C754 C 0.71474 0.04689 0.35338
 C755 C 0.77506 0.11879 0.42453
 C756 C 0.78552 0.12988 0.43893
 C757 C 0.73809 0.92255 0.62052
 N758 N 0.72660 0.90708 0.60690
 N759 N 0.73831 0.89310 0.59260
 C760 C 0.76185 0.89416 0.59148
 N761 N 0.77334 0.90959 0.60514
 N762 N 0.76164 0.92357 0.61944
 C763 C 0.72541 0.93862 0.63478
 C764 C 0.71471 0.95258 0.64618
 C765 C 0.77430 0.88020 0.57499
 C766 C 0.78462 0.86898 0.56060
 C767 C 0.26185 0.92297 0.37978
 N768 N 0.27324 0.90775 0.39374
 N769 N 0.26143 0.89384 0.40802
 C770 C 0.23786 0.89472 0.40876
 N771 N 0.22646 0.90989 0.39476
 N772 N 0.23828 0.92381 0.38048
 C773 C 0.27462 0.93896 0.36551
 C774 C 0.28537 0.95287 0.35408
 C775 C 0.22526 0.88084 0.42521
 C776 C 0.21477 0.86972 0.43955
 C777 C 0.07737 0.37952 0.73750
 N778 N 0.07595 0.38133 0.76097
 N779 N 0.09011 0.39562 0.77251
 C780 C 0.10612 0.40851 0.76093
 N781 N 0.10757 0.40666 0.73747
 N782 N 0.09342 0.39237 0.72593
 C783 C 0.06120 0.36525 0.72494
 C784 C 0.04720 0.35382 0.71431
 C785 C 0.12033 0.42496 0.77317
 C786 C 0.13179 0.43932 0.78329
 C787 C 0.07757 0.62082 0.26139
 N788 N 0.09317 0.60728 0.27277
 N789 N 0.10701 0.59289 0.26099
 C790 C 0.10566 0.59161 0.23749
 N791 N 0.09010 0.60520 0.22610
 N792 N 0.07626 0.61959 0.23788
 C793 C 0.06163 0.63514 0.27417
 C794 C 0.04776 0.64657 0.28495
 C795 C 0.11943 0.57501 0.22497
 C796 C 0.13046 0.56053 0.21457
 C797 C 0.92234 0.37946 0.26213
 N798 N 0.92338 0.38059 0.23860
 N799 N 0.90945 0.39498 0.22693
 C800 C 0.89408 0.40868 0.23844
 N801 N 0.89301 0.40751 0.26197
 N802 N 0.90693 0.39312 0.27364
 C803 C 0.93836 0.36512 0.27478
 C804 C 0.95227 0.35365 0.28547
 C805 C 0.88017 0.42523 0.22602
 C806 C 0.86898 0.43966 0.21572
 C807 C 0.92261 0.62042 0.73806
 N808 N 0.90723 0.60660 0.72670
 N809 N 0.89336 0.59227 0.73853
 C810 C 0.89446 0.59134 0.76206
 N811 N 0.90980 0.60521 0.77343
 N812 N 0.92367 0.61954 0.76160
 C813 C 0.93858 0.63469 0.72527
 C814 C 0.95247 0.64611 0.71449
 C815 C 0.88065 0.57483 0.77465
 C816 C 0.86960 0.56041 0.78512
 C817 C 0.73828 0.62033 0.92372
 N818 N 0.72688 0.60695 0.90798
 N819 N 0.73863 0.59255 0.89413
 C820 C 0.76213 0.59109 0.89559
 N821 N 0.77354 0.60451 0.91130
 N822 N 0.76179 0.61891 0.92515
 C823 C 0.72551 0.63475 0.93960
 C824 C 0.71473 0.64631 0.95338
 C825 C 0.77463 0.57456 0.88168
 C826 C 0.78502 0.56018 0.87050
 C827 C 0.26243 0.37985 0.92366
 N828 N 0.23900 0.38210 0.92537
 N829 N 0.22751 0.39641 0.91122
 C830 C 0.23910 0.40892 0.89492
 N831 N 0.26252 0.40664 0.89317
 N832 N 0.27401 0.39232 0.90732
 C833 C 0.27496 0.36547 0.93976
 C834 C 0.28559 0.35393 0.95367
 C835 C 0.22693 0.42535 0.88061
 C836 C 0.21686 0.43965 0.86903
 C837 C 0.26232 0.61969 0.07628
 N838 N 0.23876 0.61874 0.07522
 N839 N 0.22696 0.60437 0.08906
 C840 C 0.23836 0.59051 0.10438
 N841 N 0.26191 0.59151 0.10547
 N842 N 0.27371 0.60588 0.09163
 C843 C 0.27510 0.63412 0.06041
 C844 C 0.28588 0.64570 0.04664
 C845 C 0.22577 0.57405 0.11828
 C846 C 0.21529 0.55972 0.12946
 C847 C 0.73758 0.38001 0.07634
 N848 N 0.76111 0.38137 0.07519
 N849 N 0.77274 0.39577 0.08916
 C850 C 0.76120 0.40924 0.10470
 N851 N 0.73767 0.40785 0.10588
 N852 N 0.72604 0.39345 0.09191
 C853 C 0.72496 0.36558 0.06035
 C854 C 0.71426 0.35402 0.04650
 C855 C 0.77358 0.42574 0.11876
 C856 C 0.78386 0.44008 0.13011
 C857 C 0.92397 0.73736 0.62004
 N858 N 0.90834 0.72585 0.60662
 N859 N 0.89436 0.73751 0.59227
 C860 C 0.89558 0.76103 0.59090
 N861 N 0.91118 0.77254 0.60436
 N862 N 0.92516 0.76089 0.61871
 C863 C 0.93996 0.72470 0.63444
 C864 C 0.95381 0.71399 0.64598
 C865 C 0.88150 0.77344 0.57446
 C866 C 0.87015 0.78374 0.56015
 C867 C 0.92409 0.26177 0.37950
 N868 N 0.90827 0.27310 0.39284
 N869 N 0.89438 0.26128 0.40715
 C870 C 0.89588 0.23778 0.40855
 N871 N 0.91166 0.22644 0.39517
 N872 N 0.92555 0.23826 0.38086
 C873 C 0.94000 0.27461 0.36517
 C874 C 0.95380 0.28544 0.35367
 C875 C 0.88193 0.22521 0.42499
 C876 C 0.87073 0.21477 0.43932
 C877 C 0.07604 0.26278 0.62023
 N878 N 0.09242 0.27437 0.60783
 N879 N 0.10663 0.26290 0.59355
 C880 C 0.10489 0.23949 0.59125
 N881 N 0.08855 0.22788 0.60369
 N882 N 0.07434 0.23935 0.61797
 C883 C 0.05988 0.27530 0.63456
 C884 C 0.04592 0.28592 0.64606
 C885 C 0.11926 0.22734 0.57486
 C886 C 0.13088 0.21728 0.56059
 C887 C 0.07620 0.73829 0.37918
 N888 N 0.09224 0.72692 0.39221
 N889 N 0.10614 0.73866 0.40659
 C890 C 0.10441 0.76212 0.40838
 N891 N 0.08841 0.77350 0.39531
 N892 N 0.07451 0.76176 0.38093
 C893 C 0.06027 0.72551 0.36481
 C894 C 0.04645 0.71470 0.35331
 C895 C 0.11834 0.77457 0.42493
 C896 C 0.12953 0.78492 0.43934
 C897 C 0.61954 0.92382 0.73842
 N898 N 0.60610 0.90811 0.72703
 N899 N 0.59170 0.89426 0.73878
 C900 C 0.59028 0.89570 0.76227
 N901 N 0.60376 0.91136 0.77367
 N902 N 0.61817 0.92521 0.76192
 C903 C 0.63401 0.93966 0.72566
 C904 C 0.64562 0.95340 0.71488
 C905 C 0.57378 0.88176 0.77478
 C906 C 0.55944 0.87054 0.78519
 C907 C 0.38049 0.92357 0.26204
 N908 N 0.38206 0.92490 0.23855
 N909 N 0.39649 0.91096 0.22694
 C910 C 0.40979 0.89526 0.23848
 N911 N 0.40818 0.89388 0.26197
 N912 N 0.39375 0.90783 0.27357
 C913 C 0.36601 0.93951 0.27466
 C914 C 0.35441 0.95332 0.28535
 C915 C 0.42632 0.88120 0.22615
 C916 C 0.44068 0.86986 0.21590
 C917 C 0.62024 0.07701 0.26169
 N918 N 0.61875 0.07554 0.23820
 N919 N 0.60430 0.08935 0.22647
 C920 C 0.59089 0.10506 0.23787
 N921 N 0.59242 0.10657 0.26135
 N922 N 0.60687 0.09276 0.27308
 C923 C 0.63471 0.06116 0.27444
 C924 C 0.64630 0.04741 0.28522
 C925 C 0.57431 0.11893 0.22539
 C926 C 0.55990 0.13008 0.21501
 C927 C 0.37991 0.07682 0.73781
 N928 N 0.38235 0.07514 0.76121
 N929 N 0.39674 0.08936 0.77255
 C930 C 0.40912 0.10567 0.76084
 N931 N 0.40664 0.10738 0.73745
 N932 N 0.39225 0.09317 0.72611
 C933 C 0.36547 0.06065 0.72543
 C934 C 0.35388 0.04669 0.71489
 C935 C 0.42561 0.12006 0.77285
 C936 C 0.43996 0.13169 0.78280
 C937 C 0.62035 0.73788 0.07647
 N938 N 0.61787 0.76127 0.07462
 N939 N 0.60358 0.77271 0.08885
 C940 C 0.59135 0.76112 0.10535
 N941 N 0.59387 0.73774 0.10722
 N942 N 0.60815 0.72629 0.09300
 C943 C 0.63468 0.72537 0.06030
 C944 C 0.64619 0.71475 0.04636
 C945 C 0.57494 0.77322 0.11973
 C946 C 0.56065 0.78324 0.13137
 C947 C 0.37980 0.26145 0.07617
 N948 N 0.39279 0.27283 0.09225
 N949 N 0.40717 0.26111 0.10614
 C950 C 0.40901 0.23765 0.10437
 N951 N 0.39598 0.22626 0.08833
 N952 N 0.38159 0.23798 0.07444
 C953 C 0.36539 0.27421 0.06027
 C954 C 0.35383 0.28500 0.04650
 C955 C 0.42554 0.22521 0.11834
 C956 C 0.43993 0.21488 0.12956
 C957 C 0.62001 0.26224 0.92346
 N958 N 0.60687 0.27380 0.90765
 N959 N 0.59249 0.26222 0.89363
 C960 C 0.59081 0.23872 0.89499
 N961 N 0.60399 0.22716 0.91076
 N962 N 0.61837 0.23874 0.92479
 C963 C 0.63442 0.27483 0.93949
 C964 C 0.64597 0.28551 0.95337
 C965 C 0.57432 0.22642 0.88087
 C966 C 0.55997 0.21620 0.86948
 C967 C 0.38024 0.73809 0.92419
 N968 N 0.39366 0.72671 0.90848
 N969 N 0.40799 0.73849 0.89458
 C970 C 0.40935 0.76200 0.89597
 N971 N 0.39589 0.77339 0.91165
 N972 N 0.38155 0.76161 0.92555
 C973 C 0.36586 0.72531 0.94010
 C974 C 0.35432 0.71452 0.95388
 C975 C 0.42580 0.77454 0.88200
 C976 C 0.44011 0.78497 0.87077
 C977 C 0.73817 0.92339 0.38062
 N978 N 0.72651 0.90707 0.39303
 N979 N 0.73791 0.89288 0.40737
 C980 C 0.76133 0.89457 0.40974
 N981 N 0.77300 0.91085 0.39728
 N982 N 0.76160 0.92505 0.38294
 C983 C 0.72573 0.93953 0.36621
 C984 C 0.71516 0.95347 0.35464
 C985 C 0.77341 0.88019 0.42617
 C986 C 0.78342 0.86856 0.44046
 C987 C 0.26089 0.92307 0.62002
 N988 N 0.23742 0.92473 0.61822
 N989 N 0.22575 0.91089 0.60374
 C990 C 0.23718 0.89497 0.59062
 N991 N 0.26064 0.89327 0.59246
 N992 N 0.27232 0.90711 0.60694
 C993 C 0.27361 0.93895 0.63450
 C994 C 0.28438 0.95272 0.64609
 C995 C 0.22479 0.88107 0.57400
 C996 C 0.21448 0.86990 0.55955
 C997 C 0.26183 0.07684 0.38070
 N998 N 0.27336 0.09248 0.39409
 N999 N 0.26173 0.10640 0.40851
 C1000 C 0.23822 0.10511 0.41000
 N1001 N 0.22668 0.08951 0.39657
 N1002 N 0.23831 0.07558 0.38214
 C1003 C 0.27446 0.06091 0.36621
 C1004 C 0.28517 0.04712 0.35460
 C1005 C 0.22585 0.11914 0.42651
 C1006 C 0.21557 0.13047 0.44085
 C1007 C 0.73861 0.07634 0.61917
 N1008 N 0.72721 0.09200 0.60572
 N1009 N 0.73895 0.10582 0.59128
 C1010 C 0.76246 0.10438 0.58985
 N1011 N 0.77387 0.08876 0.60334
 N1012 N 0.76213 0.07495 0.61778
 C1013 C 0.72586 0.06052 0.63367
 C1014 C 0.71508 0.04681 0.64531
 C1015 C 0.77496 0.11827 0.57330
 C1016 C 0.78536 0.12944 0.55892
 C1017 C 0.92335 0.61976 0.26225
 N1018 N 0.90714 0.60719 0.27390
 N1019 N 0.89295 0.59284 0.26248
 C1020 C 0.89455 0.59061 0.23906
 N1021 N 0.91072 0.60322 0.22740
 N1022 N 0.92491 0.61758 0.23882
 C1023 C 0.93948 0.63419 0.27470
 C1024 C 0.95341 0.64578 0.28527
 C1025 C 0.88020 0.57417 0.22695
 C1026 C 0.86858 0.55986 0.21692
 C1027 C 0.92328 0.38019 0.73831
 N1028 N 0.92470 0.38155 0.76182
 N1029 N 0.91087 0.39596 0.77359
 C1030 C 0.89521 0.40944 0.76222
 N1031 N 0.89375 0.40804 0.73872
 N1032 N 0.90758 0.39363 0.72695
 C1033 C 0.93913 0.36574 0.72553
 C1034 C 0.95289 0.35417 0.71473
 C1035 C 0.88133 0.42598 0.77474
 C1036 C 0.87016 0.44036 0.78516
 C1037 C 0.07645 0.61953 0.73803
 N1038 N 0.09218 0.60619 0.72657
 N1039 N 0.10611 0.59181 0.73825
 C1040 C 0.10474 0.59033 0.76175
 N1041 N 0.08905 0.60371 0.77321
 N1042 N 0.07512 0.61809 0.76153
 C1043 C 0.06052 0.63396 0.72534
 C1044 C 0.04672 0.64554 0.71460
 C1045 C 0.11877 0.57385 0.77417
 C1046 C 0.13009 0.55951 0.78447
 C1047 C 0.07613 0.38048 0.26175
 N1048 N 0.07497 0.38158 0.23822
 N1049 N 0.08884 0.39596 0.22646
 C1050 C 0.10428 0.40968 0.23787
 N1051 N 0.10547 0.40855 0.26139
 N1052 N 0.09160 0.39417 0.27315
 C1053 C 0.06026 0.36602 0.27450
 C1054 C 0.04651 0.35440 0.28526
 C1055 C 0.11822 0.42615 0.22533
 C1056 C 0.12945 0.44047 0.21489
   
