data_POSCAR
  _audit_creation_date              2014-09-24
  _audit_creation_method            'ToBaCCo'
  _symmetry_space_group_name_H-M    'P1'
  _symmetry_Int_Tables_number       1
  _symmetry_cell_setting            triclinic
  loop_
  _symmetry_equiv_pos_as_xyz
 x,y,z
_cell_length_a 40.7466
_cell_length_b 40.7821
_cell_length_c 12.5144
_cell_angle_alpha 90.044700
_cell_angle_beta 89.999200
_cell_angle_gamma 119.960100
loop_
  _atom_site_label
  _atom_site_type_symbol
  _atom_site_fract_x
  _atom_site_fract_y
  _atom_site_fract_z
C1 C 0.20855 0.47948 0.44488
 C2 C 0.20867 0.47856 0.55922
 C3 C 0.23791 0.47612 0.61199
 C4 C 0.26786 0.47587 0.55660
 C5 C 0.26866 0.47894 0.44315
 C6 C 0.23932 0.48077 0.38985
 H7 H 0.23994 0.48160 0.30326
 H8 H 0.23743 0.47464 0.69843
 C9 C 0.51663 -0.27209 0.44327
 C10 C 0.51660 -0.27141 0.55700
 C11 C 0.51700 -0.24114 0.61121
 C12 C 0.51687 -0.21113 0.55628
 C13 C 0.51727 -0.21157 0.44255
 C14 C 0.51742 -0.24160 0.38829
 H15 H 0.51741 -0.24134 0.30164
 H16 H 0.51663 -0.24159 0.69787
 C17 C 1.27143 0.79055 0.44510
 C18 C 1.27269 0.78880 0.55873
 C19 C 1.24357 0.75825 0.61381
 C20 C 1.21272 0.72938 0.55947
 C21 C 1.21080 0.73079 0.44699
 C22 C 1.23969 0.76157 0.39142
 H23 H 1.23822 0.76165 0.30494
 H24 H 1.24421 0.75765 0.70044
 C25 C 0.78588 0.51265 0.44530
 C26 C 0.78882 0.51847 0.55784
 C27 C 0.76043 0.52252 0.61057
 C28 C 0.72837 0.51865 0.55591
 C29 C 0.72623 0.51288 0.44336
 C30 C 0.75457 0.50947 0.39039
 H31 H 0.75345 0.50668 0.30402
 H32 H 0.76156 0.52525 0.69680
 C33 C 0.48804 0.27380 0.44387
 C34 C 0.48202 0.27155 0.55631
 C35 C 0.47820 0.23958 0.61102
 C36 C 0.48253 0.21135 0.55855
 C37 C 0.48859 0.21435 0.44613
 C38 C 0.49171 0.24558 0.39108
 H39 H 0.49465 0.24674 0.30477
 H40 H 0.47531 0.23841 0.69720
 C41 C 0.72878 0.21298 0.44199
 C42 C 0.73048 0.21138 0.55448
 C43 C 0.76140 0.24044 0.60930
 C44 C 0.79025 0.27201 0.55487
 C45 C 0.78820 0.27296 0.44124
 C46 C 0.75750 0.24368 0.38692
 H47 H 0.75667 0.24406 0.30029
 H48 H 0.76170 0.23921 0.69579
 N49 N 0.95967 0.53869 0.11661
 N50 N 0.93127 0.54503 0.13251
 N51 N 1.03925 0.55527 0.19039
 N52 N 1.06748 0.57342 0.25818
 N53 N 1.03908 0.57867 0.11859
 N54 N 1.06691 0.61350 0.13653
 N55 N 0.95928 0.51494 0.18815
 N56 N 0.93024 0.50394 0.25353
 C57 C 0.91313 0.52294 0.21772
 C58 C 1.08447 0.60971 0.22367
 N59 N 1.04008 0.46251 0.11296
 N60 N 1.06797 0.45540 0.12879
 N61 N 0.95976 0.44483 0.18553
 N62 N 0.93104 0.42603 0.25129
 N63 N 0.96044 0.42223 0.11188
 N64 N 0.93246 0.38724 0.12631
 N65 N 1.03951 0.48459 0.18850
 N66 N 1.06681 0.49284 0.25851
 Mn67 Mn 0.99947 0.49995 0.18943
 C68 C 1.08441 0.47468 0.21949
 C69 C 0.91434 0.39026 0.21313
 N70 N 1.03980 0.57988 -0.11279
 N71 N 1.06805 0.61475 -0.12770
 N72 N 0.96071 0.51703 -0.18811
 N73 N 0.93233 0.50673 -0.25530
 N74 N 0.96013 0.53960 -0.11420
 N75 N 0.93133 0.54541 -0.12962
 N76 N 1.04044 0.55701 -0.18562
 N77 N 1.06941 0.57539 -0.25072
 Mn78 Mn 0.99967 0.55966 0.00208
 C79 C 1.08631 0.61132 -0.21379
 C80 C 0.91420 0.52458 -0.21803
 N81 N 0.96088 0.42346 -0.11861
 N82 N 0.93234 0.38885 -0.13505
 N83 N 1.04079 0.48703 -0.18878
 N84 N 1.07007 0.49842 -0.25332
 N85 N 1.04069 0.46372 -0.11646
 N86 N 1.06990 0.45851 -0.12995
 N87 N 0.96108 0.44682 -0.19102
 N88 N 0.93272 0.42885 -0.25843
 Mn89 Mn 1.00051 0.44256 -0.00262
 Mn90 Mn 1.00075 0.50199 -0.18951
 Cl91 Cl 1.00011 0.50105 -0.00004
 C92 C 0.91497 0.39271 -0.22264
 C93 C 1.08801 0.48043 -0.21565
 N94 N 0.46177 0.42116 0.11448
 N95 N 0.45536 0.38635 0.12879
 N96 N 0.44520 0.48377 0.19182
 N97 N 0.42741 0.49509 0.25722
 N98 N 0.42191 0.46092 0.11867
 N99 N 0.38757 0.45585 0.13272
 N100 N 0.48554 0.44412 0.18664
 N101 N 0.49652 0.42580 0.25092
 C102 C 0.47749 0.38990 0.21371
 C103 C 0.39146 0.47738 0.21952
 N104 N 0.53783 0.57753 0.11777
 N105 N 0.54307 0.61188 0.13350
 N106 N 0.55556 0.51450 0.18601
 N107 N 0.57416 0.50381 0.25012
 N108 N 0.57831 0.53831 0.11371
 N109 N 0.61326 0.54501 0.12770
 N110 N 0.51545 0.55418 0.19147
 N111 N 0.50478 0.57188 0.25900
 Mn112 Mn 0.50045 0.49912 0.19021
 C113 C 0.52219 0.60785 0.22205
 C114 C 0.61001 0.52305 0.21264
 N115 N 0.42073 0.46137 -0.11123
 N116 N 0.38540 0.45312 -0.12774
 N117 N 0.48360 0.44512 -0.18951
 N118 N 0.49374 0.42717 -0.25771
 N119 N 0.46093 0.42181 -0.11615
 N120 N 0.45492 0.38723 -0.13287
 N121 N 0.44312 0.48412 -0.18602
 N122 N 0.42362 0.49164 -0.25620
 Mn123 Mn 0.44092 0.44090 0.00149
 C124 C 0.38782 0.47241 -0.21804
 C125 C 0.47568 0.39108 -0.22151
 N126 N 0.57725 0.53870 -0.11693
 N127 N 0.61193 0.54495 -0.13378
 N128 N 0.51346 0.55523 -0.18544
 N129 N 0.50366 0.57394 -0.25202
 N130 N 0.53713 0.57812 -0.11288
 N131 N 0.54448 0.61315 -0.12882
 N132 N 0.55390 0.51587 -0.19010
 N133 N 0.57198 0.50584 -0.25826
 Mn134 Mn 0.55806 0.55860 0.00044
 Mn135 Mn 0.49853 0.50013 -0.18895
 Cl136 Cl 0.49948 0.49970 0.00070
 C137 C 0.60815 0.52415 -0.22231
 C138 C 0.52314 0.60991 -0.21527
 N139 N 0.42269 -0.03903 0.11809
 N140 N 0.38803 -0.06758 0.13414
 N141 N 0.48643 0.04087 0.18986
 N142 N 0.49750 0.06986 0.25547
 N143 N 0.46268 0.04055 0.11841
 N144 N 0.45640 0.06896 0.13447
 N145 N 0.44604 -0.03895 0.19051
 N146 N 0.42803 -0.06740 0.25742
 C147 C 0.39187 -0.08508 0.22144
 C148 C 0.47853 0.08702 0.21980
 N149 N 0.57941 0.03978 0.11452
 N150 N 0.61425 0.06809 0.12978
 N151 N 0.51630 -0.03960 0.18797
 N152 N 0.50670 -0.06783 0.25540
 N153 N 0.53920 -0.03961 0.11410
 N154 N 0.54614 -0.06759 0.12977
 N155 N 0.55643 0.04023 0.18734
 N156 N 0.57471 0.06914 0.25278
 Mn157 Mn 0.50130 0.00063 0.19014
 C158 C 0.61069 0.08617 0.21611
 C159 C 0.52548 -0.08497 0.21774
 N160 N 0.46218 0.04079 -0.11226
 N161 N 0.45613 0.06942 -0.12768
 N162 N 0.44479 -0.03920 -0.18591
 N163 N 0.42616 -0.06780 -0.25224
 N164 N 0.42197 -0.03875 -0.11254
 N165 N 0.38703 -0.06677 -0.12769
 N166 N 0.48497 0.04047 -0.18587
 N167 N 0.49520 0.06883 -0.25283
 Mn168 Mn 0.44194 0.00088 0.00296
 C169 C 0.47709 0.08672 -0.21574
 C170 C 0.39028 -0.08464 -0.21472
 N171 N 0.53809 -0.03997 -0.11646
 N172 N 0.54360 -0.06890 -0.13267
 N173 N 0.55529 0.04013 -0.18831
 N174 N 0.57352 0.06848 -0.25549
 N175 N 0.57862 0.03969 -0.11674
 N176 N 0.61353 0.06751 -0.13416
 N177 N 0.51501 -0.03950 -0.18883
 N178 N 0.50416 -0.06798 -0.25593
 Mn179 Mn 0.55927 -0.00003 -0.00118
 Mn180 Mn 0.50001 0.00049 -0.18835
 Cl181 Cl 0.50064 0.00049 0.00092
 C182 C 0.52212 -0.08615 -0.22008
 C183 C 0.60981 0.08531 -0.22081
 C184 C 1.18363 0.49779 0.29028
 C185 C 1.17754 0.47631 0.38425
 C186 C 1.13974 0.45174 0.41638
 C187 C 1.10951 0.45130 0.36253
 C188 C 1.11616 0.47414 0.27278
 C189 C 1.15319 0.49672 0.23532
 H190 H 1.21203 0.51707 0.26219
 H191 H 1.13344 0.43292 0.48382
 H192 H 1.08088 0.43307 0.39090
 H193 H 1.15862 0.51433 0.16537
 C194 C 0.49304 0.65993 0.41499
 C195 C 0.51619 0.69798 0.38409
 C196 C 0.53904 0.70551 0.29236
 C197 C 0.54066 0.67625 0.23852
 C198 C 0.51910 0.63874 0.27403
 C199 C 0.49476 0.63081 0.36148
 H200 H 0.47282 0.65236 0.47932
 H201 H 0.55731 0.73427 0.26527
 H202 H 0.55945 0.68311 0.17062
 H203 H 0.47697 0.60201 0.38890
 C204 C 0.29351 -0.16409 0.29529
 C205 C 0.30119 -0.18013 0.38510
 C206 C 0.33938 -0.16632 0.41317
 C207 C 0.36859 -0.13586 0.35911
 C208 C 0.36065 -0.11869 0.27369
 C209 C 0.32292 -0.13353 0.24077
 H210 H 0.26466 -0.17376 0.27027
 H211 H 0.34698 -0.17962 0.47558
 H212 H 0.39750 -0.12574 0.38449
 H213 H 0.31604 -0.12100 0.17444
 C214 C 0.81431 0.48407 0.32603
 C215 C 0.81766 0.51574 0.38030
 C216 C 0.85181 0.55032 0.37497
 C217 C 0.88258 0.55299 0.31818
 C218 C 0.87978 0.52089 0.26858
 C219 C 0.84555 0.48643 0.27253
 H220 H 0.78807 0.45725 0.32918
 H221 H 0.85469 0.57505 0.41582
 H222 H 0.90893 0.57972 0.31601
 H223 H 0.84309 0.46142 0.23451
 C224 C 0.45003 0.30125 0.37033
 C225 C 0.48475 0.30191 0.37685
 C226 C 0.51643 0.33012 0.32251
 C227 C 0.51399 0.35879 0.26823
 C228 C 0.47943 0.35843 0.26350
 C229 C 0.44728 0.32912 0.31275
 H230 H 0.42529 0.27948 0.41125
 H231 H 0.54336 0.33089 0.32661
 H232 H 0.53905 0.38137 0.23064
 H233 H 0.42049 0.32867 0.31012
 C234 C 0.70558 0.15302 0.33935
 C235 C 0.69912 0.18147 0.37918
 C236 C 0.66458 0.17988 0.35803
 C237 C 0.63578 0.14877 0.30435
 C238 C 0.64191 0.11989 0.26635
 C239 C 0.67726 0.12259 0.28193
 H240 H 0.73238 0.15424 0.35375
 H241 H 0.65967 0.20229 0.38505
 H242 H 0.60875 0.14729 0.29205
 H243 H 0.68242 0.10049 0.25327
 C244 C 0.50781 0.16903 -0.40391
 C245 C 0.48216 0.18174 -0.38087
 C246 C 0.45675 0.16463 -0.29494
 C247 C 0.45536 0.13410 -0.23950
 C248 C 0.47961 0.12036 -0.26789
 C249 C 0.50625 0.13857 -0.34927
 H250 H 0.53002 0.18330 -0.46238
 H251 H 0.43660 0.17351 -0.27376
 H252 H 0.43471 0.12069 -0.17636
 H253 H 0.52612 0.12935 -0.37078
 C254 C 0.70660 0.54416 -0.29860
 C255 C 0.69876 0.51921 -0.38554
 C256 C 0.66049 0.49420 -0.41139
 C257 C 0.63133 0.49581 -0.35793
 C258 C 0.63939 0.52185 -0.27499
 C259 C 0.67724 0.54557 -0.24440
 H260 H 0.73551 0.56390 -0.27536
 H261 H 0.65276 0.47235 -0.47094
 H262 H 0.60234 0.47638 -0.38130
 H263 H 0.68421 0.56577 -0.18006
 C264 C 0.83594 0.29438 -0.29597
 C265 C 0.81976 0.30188 -0.38579
 C266 C 0.83359 0.33999 -0.41439
 C267 C 0.86414 0.36928 -0.36063
 C268 C 0.88137 0.36149 -0.27503
 C269 C 0.86656 0.32385 -0.24176
 H270 H 0.82630 0.26560 -0.27060
 H271 H 0.82020 0.34748 -0.47686
 H272 H 0.87425 0.39813 -0.38626
 H273 H 0.87915 0.31708 -0.17532
 C274 C 0.49354 -0.16653 -0.41539
 C275 C 0.51649 -0.18168 -0.38429
 C276 C 0.53909 -0.16677 -0.29191
 C277 C 0.54063 -0.13606 -0.23736
 C278 C 0.51919 -0.11993 -0.27276
 C279 C 0.49512 -0.13592 -0.36103
 H280 H 0.47361 -0.17881 -0.48056
 H281 H 0.55720 -0.17748 -0.26476
 H282 H 0.55922 -0.12444 -0.16890
 H283 H 0.47748 -0.12471 -0.38858
 C284 C 0.31116 0.45036 -0.41997
 C285 C 0.29601 0.47289 -0.38398
 C286 C 0.30975 0.49264 -0.28646
 C287 C 0.33903 0.49167 -0.23096
 C288 C 0.35528 0.47114 -0.27167
 C289 C 0.34102 0.45019 -0.36566
 H290 H 0.29982 0.43253 -0.48982
 H291 H 0.29938 0.51058 -0.25547
 H292 H 0.34984 0.50796 -0.15809
 H293 H 0.35291 0.43356 -0.39676
 C294 C 1.15267 0.70605 -0.33803
 C295 C 1.18139 0.69983 -0.37703
 C296 C 1.18017 0.66557 -0.35478
 C297 C 1.14915 0.63676 -0.30096
 C298 C 1.11999 0.64262 -0.26382
 C299 C 1.12233 0.67773 -0.28040
 H300 H 1.15359 0.73263 -0.35333
 H301 H 1.20277 0.66084 -0.38131
 H302 H 1.14793 0.60990 -0.28799
 H303 H 1.10001 0.68268 -0.25246
 C304 C 0.83157 0.49358 -0.40582
 C305 C 0.81855 0.51890 -0.38184
 C306 C 0.83556 0.54415 -0.29547
 C307 C 0.86631 0.54573 -0.24055
 C308 C 0.88038 0.52185 -0.26991
 C309 C 0.86227 0.49534 -0.35172
 H310 H 0.81741 0.47150 -0.46475
 H311 H 0.82645 0.56406 -0.27356
 H312 H 0.87963 0.56625 -0.17702
 H313 H 0.87175 0.47574 -0.37397
 C314 C 0.50626 0.33926 -0.41022
 C315 C 0.48119 0.30098 -0.38515
 C316 C 0.45598 0.29294 -0.29882
 C317 C 0.45439 0.32214 -0.24439
 C318 C 0.47818 0.36001 -0.27422
 C319 C 0.50446 0.36825 -0.35659
 H320 H 0.52830 0.34710 -0.46921
 H321 H 0.43619 0.26400 -0.27623
 H322 H 0.43400 0.31504 -0.18053
 H323 H 0.52395 0.39727 -0.37931
 C324 C 0.70781 0.15604 -0.32121
 C325 C 0.70002 0.17996 -0.38352
 C326 C 0.66302 0.17402 -0.38581
 C327 C 0.63375 0.14319 -0.33283
 C328 C 0.64124 0.11860 -0.27292
 C329 C 0.67863 0.12567 -0.26560
 H330 H 0.73632 0.16054 -0.31711
 H331 H 0.65676 0.19325 -0.42868
 H332 H 0.60527 0.13875 -0.33794
 H333 H 0.68507 0.10714 -0.21945
 C334 C 1.16539 0.45893 -0.28716
 C335 C 1.18176 0.48215 -0.37748
 C336 C 1.16982 0.50809 -0.40487
 C337 C 1.14001 0.50820 -0.35035
 C338 C 1.12199 0.48302 -0.26559
 C339 C 1.13568 0.45924 -0.23232
 H340 H 1.17365 0.43858 -0.26307
 H341 H 1.18304 0.52782 -0.47014
 H342 H 1.13059 0.52750 -0.37605
 H343 H 1.12249 0.43979 -0.16644
 C344 C 0.48910 0.67503 -0.31289
 C345 C 0.51955 0.69997 -0.37761
 C346 C 0.55209 0.69651 -0.38333
 C347 C 0.55369 0.66771 -0.32737
 C348 C 0.52258 0.64182 -0.26669
 C349 C 0.49036 0.64565 -0.25914
 H350 H 0.46384 0.67741 -0.30774
 H351 H 0.57584 0.71567 -0.43259
 H352 H 0.57870 0.66491 -0.33388
 H353 H 0.46617 0.62577 -0.21241
 C354 C 0.32749 -0.18392 -0.31467
 C355 C 0.30126 -0.17940 -0.37638
 C356 C 0.30306 -0.14413 -0.37893
 C357 C 0.33142 -0.11344 -0.32272
 C358 C 0.35860 -0.11760 -0.26517
 C359 C 0.35650 -0.15293 -0.26097
 H360 H 0.32638 -0.21100 -0.31190
 H361 H 0.28284 -0.14033 -0.42572
 H362 H 0.33291 -0.08620 -0.32683
 H363 H 0.37745 -0.15638 -0.21686
 C364 C 0.49102 -0.18473 0.31038
 C365 C 0.52081 -0.17962 0.37757
 C366 C 0.55309 -0.14360 0.38678
 C367 C 0.55501 -0.11283 0.33206
 C368 C 0.52453 -0.11772 0.26874
 C369 C 0.49264 -0.15378 0.25747
 H370 H 0.46593 -0.21236 0.30257
 H371 H 0.57635 -0.13927 0.43800
 H372 H 0.57978 -0.08505 0.34135
 H373 H 0.46894 -0.15785 0.20863
 C374 C 0.29270 0.45506 0.29589
 C375 C 0.30023 0.48166 0.37717
 C376 C 0.33795 0.50913 0.39925
 C377 C 0.36771 0.50817 0.34658
 C378 C 0.36018 0.48035 0.26901
 C379 C 0.32244 0.45448 0.24202
 H380 H 0.26381 0.43374 0.27730
 H381 H 0.34432 0.53027 0.46048
 H382 H 0.39658 0.52877 0.36782
 H383 H 0.31588 0.43290 0.18208
 C384 C 1.15529 0.70779 0.32298
 C385 C 1.17924 0.70015 0.38575
 C386 C 1.17318 0.66315 0.38917
 C387 C 1.14224 0.63376 0.33668
 C388 C 1.11768 0.64114 0.27613
 C389 C 1.12484 0.67849 0.26785
 H390 H 1.15987 0.73629 0.31804
 H391 H 1.19243 0.65698 0.43241
 H392 H 1.13774 0.60530 0.34249
 H393 H 1.10633 0.68485 0.22116
 C394 C 0.51752 0.18576 0.32873
 C395 C 0.48565 0.18259 0.38139
 C396 C 0.45096 0.14859 0.37495
 C397 C 0.44837 0.11779 0.31862
 C398 C 0.48064 0.12038 0.27071
 C399 C 0.51524 0.15446 0.27582
 H400 H 0.54443 0.21189 0.33277
 H401 H 0.42608 0.14585 0.41456
 H402 H 0.42152 0.09156 0.31546
 H403 H 0.54037 0.15677 0.23903
 C404 C 0.69850 0.55071 0.37065
 C405 C 0.69810 0.51614 0.37633
 C406 C 0.67022 0.48458 0.32074
 C407 C 0.64159 0.48695 0.26598
 C408 C 0.64166 0.52134 0.26211
 C409 C 0.67065 0.55340 0.31267
 H410 H 0.72003 0.57536 0.41253
 H411 H 0.66968 0.45777 0.32417
 H412 H 0.61921 0.46195 0.22747
 H413 H 0.67082 0.58004 0.31080
 C414 C 0.85514 0.30313 0.37742
 C415 C 0.81984 0.30135 0.37559
 C416 C 0.81515 0.32745 0.31389
 C417 C 0.84602 0.35636 0.25966
 C418 C 0.88140 0.35846 0.26322
 C419 C 0.88570 0.33138 0.32063
 H420 H 0.85908 0.28302 0.42419
 H421 H 0.78804 0.32635 0.31167
 H422 H 0.84246 0.37727 0.21580
 H423 H 0.91299 0.33290 0.32438
   
