data_POSCAR
  _audit_creation_date              2014-09-24
  _audit_creation_method            'ToBaCCo'
  _symmetry_space_group_name_H-M    'P1'
  _symmetry_Int_Tables_number       1
  _symmetry_cell_setting            triclinic
  loop_
  _symmetry_equiv_pos_as_xyz
 x,y,z
_cell_length_a 33.2899
_cell_length_b 39.5177
_cell_length_c 31.7012
_cell_angle_alpha 90.281000
_cell_angle_beta 87.984000
_cell_angle_gamma 89.767400
loop_
  _atom_site_label
  _atom_site_type_symbol
  _atom_site_fract_x
  _atom_site_fract_y
  _atom_site_fract_z
C1 C 0.27866 0.28125 0.23886
 C2 C 0.24760 0.26469 0.26118
 C3 C 0.21745 0.28356 0.28258
 C4 C 0.21799 0.31917 0.28171
 C5 C 0.24922 0.33545 0.25870
 C6 C 0.27960 0.31673 0.23713
 C7 C 0.24507 0.22755 0.25934
 C8 C 0.27238 0.20729 0.28068
 C9 C 0.27062 0.17179 0.27778
 C10 C 0.24087 0.15702 0.25318
 C11 C 0.21430 0.17713 0.23059
 C12 C 0.21624 0.21244 0.23435
 H13 H 0.30094 0.26632 0.22126
 H14 H 0.19409 0.27023 0.30023
 H15 H 0.29510 0.21928 0.29926
 H16 H 0.19552 0.22834 0.21769
 H17 H 0.24979 0.36283 0.25728
 H18 H 0.23840 0.12978 0.25110
 C19 C 0.77106 0.78598 0.22451
 C20 C 0.74045 0.77163 0.24999
 C21 C 0.71159 0.79240 0.27064
 C22 C 0.71248 0.82780 0.26548
 C23 C 0.74365 0.84159 0.23968
 C24 C 0.77309 0.82125 0.21868
 C25 C 0.73710 0.73448 0.25182
 C26 C 0.76594 0.71522 0.27238
 C27 C 0.76511 0.67970 0.27053
 C28 C 0.73490 0.66378 0.24779
 C29 C 0.70638 0.68274 0.22619
 C30 C 0.70728 0.71823 0.22917
 H31 H 0.79173 0.76897 0.20802
 H32 H 0.68792 0.78069 0.28977
 H33 H 0.78945 0.72796 0.28904
 H34 H 0.68541 0.73348 0.21329
 H35 H 0.74668 0.86870 0.23765
 H36 H 0.73380 0.63643 0.24643
 C37 C 0.78484 0.27995 0.71419
 C38 C 0.75700 0.26099 0.73808
 C39 C 0.72770 0.27733 0.76363
 C40 C 0.72634 0.31297 0.76661
 C41 C 0.75500 0.33163 0.74246
 C42 C 0.78407 0.31547 0.71600
 C43 C 0.76110 0.22395 0.73997
 C44 C 0.79015 0.20991 0.76556
 C45 C 0.79434 0.17455 0.76939
 C46 C 0.76924 0.15372 0.74543
 C47 C 0.73897 0.16753 0.72068
 C48 C 0.73533 0.20288 0.71799
 H49 H 0.80686 0.26677 0.69419
 H50 H 0.70809 0.26166 0.78305
 H51 H 0.80976 0.22714 0.78149
 H52 H 0.71225 0.21411 0.69918
 H53 H 0.75475 0.35903 0.74400
 H54 H 0.77266 0.12651 0.74672
 C55 C 0.28451 0.77441 0.72387
 C56 C 0.25538 0.75654 0.74765
 C57 C 0.22552 0.77394 0.77108
 C58 C 0.22438 0.80935 0.77112
 C59 C 0.25326 0.82711 0.74677
 C60 C 0.28388 0.81020 0.72276
 C61 C 0.25671 0.71939 0.74951
 C62 C 0.28468 0.70340 0.77464
 C63 C 0.28459 0.66807 0.77901
 C64 C 0.25689 0.64883 0.75660
 C65 C 0.22826 0.66467 0.73151
 C66 C 0.22850 0.70014 0.72831
 H67 H 0.30661 0.75974 0.70592
 H68 H 0.20424 0.75969 0.79046
 H69 H 0.30626 0.71867 0.79094
 H70 H 0.20651 0.71298 0.70962
 H71 H 0.25184 0.85450 0.74717
 H72 H 0.25771 0.62155 0.75908
 C73 C 0.03776 0.05905 0.03454
 H74 H 0.02485 0.07217 0.00840
 C75 C 0.05832 0.07724 0.06490
 H76 H 0.06085 0.10444 0.06184
 C77 C 0.05025 0.00770 0.07016
 H78 H 0.04704 -0.01950 0.07175
 C79 C 0.07126 0.02477 0.10091
 H80 H 0.08481 0.01005 0.12532
 N81 N 0.03419 0.02490 0.03777
 C82 C 0.02972 -0.05297 -0.05979
 H83 H -0.00220 -0.05529 -0.06439
 C84 C 0.05683 -0.07238 -0.08434
 H85 H 0.04543 -0.08981 -0.10747
 C86 C 0.08326 -0.02619 -0.02562
 H87 H 0.09361 -0.00777 -0.00324
 C88 C 0.11139 -0.04512 -0.04939
 H89 H 0.14297 -0.04160 -0.04385
 Zn90 Zn 0.00623 -0.00144 -0.00130
 N91 N 0.04326 -0.03018 -0.03133
 C92 C -0.01297 0.02225 -0.08243
 N93 N -0.02080 0.02651 -0.04027
 C94 C -0.04883 0.04937 -0.02588
 C95 C -0.07139 0.06782 -0.05422
 C96 C -0.03541 0.03959 -0.11179
 C97 C -0.03502 -0.06131 0.02725
 C98 C -0.06356 -0.07884 0.05195
 C99 C -0.08388 -0.02591 0.08466
 C100 C -0.05522 -0.00944 0.05923
 N101 N -0.03197 -0.02707 0.03063
 H102 H 0.01027 0.00504 -0.09364
 H103 H -0.05406 0.05314 0.00759
 H104 H -0.09416 0.08540 -0.04228
 H105 H -0.02933 0.03531 -0.14518
 H106 H -0.01532 -0.07525 0.00571
 H107 H -0.06591 -0.10603 0.04840
 H108 H -0.10116 -0.01117 0.10775
 H109 H -0.05083 0.01743 0.06315
 C110 C 0.09831 -0.06814 -0.07985
 C111 C 0.07530 0.06015 0.09885
 C112 C -0.08890 -0.06105 0.08071
 C113 C -0.06551 0.06223 -0.09769
 C114 C 0.04661 0.56723 0.51256
 H115 H 0.04612 0.56966 0.47860
 C116 C 0.07136 0.58815 0.53570
 H117 H 0.09019 0.60624 0.51895
 C118 C 0.02380 0.53927 0.57480
 H119 H 0.00513 0.52029 0.58992
 C120 C 0.04827 0.55966 0.59923
 H121 H 0.04822 0.55605 0.63308
 N122 N 0.02402 0.54298 0.53215
 C123 C 0.01642 0.46563 0.43369
 H124 H -0.01559 0.46346 0.42955
 C125 C 0.04336 0.44600 0.40885
 H126 H 0.03184 0.42892 0.38539
 C127 C 0.07034 0.49021 0.46954
 H128 H 0.08097 0.50674 0.49389
 C129 C 0.09817 0.47124 0.44547
 H130 H 0.12973 0.47353 0.45201
 Zn131 Zn -0.00593 0.51492 0.49628
 N132 N 0.03033 0.48770 0.46282
 C133 C -0.03505 0.54318 0.41970
 N134 N -0.03624 0.54450 0.46261
 C135 C -0.05918 0.56791 0.48396
 C136 C -0.08303 0.59061 0.46229
 C137 C -0.05859 0.56539 0.39669
 C138 C -0.02610 0.46309 0.55479
 C139 C -0.05189 0.44273 0.57946
 C140 C -0.10840 0.46939 0.54718
 C141 C -0.08162 0.48916 0.52322
 N142 N -0.04131 0.48629 0.52803
 H143 H -0.01608 0.52484 0.40321
 H144 H -0.05939 0.56853 0.51809
 H145 H -0.10201 0.60810 0.48029
 H146 H -0.05762 0.56375 0.36256
 H147 H 0.00611 0.46074 0.55741
 H148 H -0.03924 0.42489 0.60122
 H149 H -0.14026 0.47207 0.54234
 H150 H -0.09326 0.50677 0.50073
 C151 C 0.08493 0.44914 0.41410
 C152 C 0.07262 0.58442 0.57969
 C153 C -0.09372 0.44622 0.57645
 C154 C -0.08305 0.58954 0.41797
 C155 C 0.55432 0.05569 0.51244
 H156 H 0.54903 0.05883 0.47926
 C157 C 0.58142 0.07697 0.53206
 H158 H 0.59779 0.09527 0.51300
 C159 C 0.53872 0.02825 0.57712
 H160 H 0.52161 0.00968 0.59484
 C161 C 0.56552 0.04906 0.59806
 H162 H 0.56877 0.04597 0.63169
 N163 N 0.53388 0.03165 0.53491
 C164 C 0.51175 -0.06000 0.46984
 H165 H 0.48615 -0.06776 0.48921
 C166 C 0.53237 -0.08410 0.44486
 H167 H 0.52218 -0.11006 0.44549
 C168 C 0.55453 -0.01660 0.44382
 H169 H 0.56307 0.00968 0.44323
 C170 C 0.57583 -0.03979 0.41822
 H171 H 0.60081 -0.03091 0.39851
 Zn172 Zn 0.49623 0.00505 0.50559
 N173 N 0.52350 -0.02701 0.46953
 C174 C 0.46094 0.02973 0.43131
 N175 N 0.46559 0.03512 0.47322
 C176 C 0.44845 0.06228 0.49335
 C177 C 0.42480 0.08503 0.47145
 C178 C 0.43772 0.05198 0.40808
 C179 C 0.47718 -0.04317 0.56882
 C180 C 0.45203 -0.06249 0.59533
 C181 C 0.39530 -0.03036 0.57165
 C182 C 0.42141 -0.01203 0.54515
 N183 N 0.46159 -0.01858 0.54422
 H184 H 0.47489 0.00798 0.41593
 H185 H 0.45264 0.06590 0.52676
 H186 H 0.41044 0.10559 0.48886
 H187 H 0.43425 0.04709 0.37477
 H188 H 0.50914 -0.04833 0.56704
 H189 H 0.46485 -0.08224 0.61431
 H190 H 0.36336 -0.02515 0.57122
 H191 H 0.40931 0.00697 0.52475
 C192 C 0.56527 -0.07417 0.41895
 C193 C 0.58718 0.07402 0.57561
 C194 C 0.41054 -0.05605 0.59706
 C195 C 0.41915 0.08013 0.42806
 C196 C 0.52716 0.55320 0.04238
 H197 H 0.50644 0.56564 0.02211
 C198 C 0.54816 0.57250 0.07135
 H199 H 0.54279 0.59951 0.07337
 C200 C 0.56059 0.50345 0.06352
 H201 H 0.56657 0.47675 0.05918
 C202 C 0.58212 0.52169 0.09288
 H203 H 0.60431 0.50855 0.11087
 N204 N 0.53302 0.51913 0.03964
 C205 C 0.54277 0.43151 -0.03307
 H206 H 0.51919 0.41766 -0.01649
 C207 C 0.57117 0.41422 -0.05874
 H208 H 0.56924 0.38695 -0.06126
 C209 C 0.57341 0.48388 -0.05019
 H210 H 0.57361 0.51115 -0.04706
 C211 C 0.60201 0.46776 -0.07650
 H212 H 0.62343 0.48339 -0.09362
 Zn213 Zn 0.50514 0.49119 0.00143
 N214 N 0.54421 0.46577 -0.02973
 C215 C 0.48157 0.51242 -0.07914
 N216 N 0.47547 0.51758 -0.03691
 C217 C 0.44667 0.53949 -0.02189
 C218 C 0.42291 0.55734 -0.04970
 C219 C 0.45835 0.52956 -0.10800
 C220 C 0.48125 0.44401 0.06538
 C221 C 0.45357 0.42605 0.09069
 C222 C 0.40083 0.44487 0.04598
 C223 C 0.42946 0.46234 0.02150
 N224 N 0.46871 0.46252 0.03217
 H225 H 0.50384 0.49440 -0.09068
 H226 H 0.44145 0.54246 0.01180
 H227 H 0.39982 0.57435 -0.03713
 H228 H 0.46404 0.52516 -0.14140
 H229 H 0.51255 0.44365 0.07296
 H230 H 0.46400 0.41228 0.11769
 H231 H 0.36983 0.44531 0.03680
 H232 H 0.42001 0.47606 -0.00580
 C233 C 0.60127 0.43232 -0.08128
 C234 C 0.57560 0.55667 0.09758
 C235 C 0.41257 0.42716 0.08183
 C236 C 0.42825 0.55210 -0.09337
 C237 C 0.18005 -0.12307 -0.15989
 C238 C 0.14180 -0.13591 -0.14957
 N239 N 0.13069 -0.16620 -0.16569
 C240 C 0.15627 -0.18440 -0.19148
 C241 C 0.19490 -0.17171 -0.20166
 N242 N 0.20554 -0.14114 -0.18557
 N243 N 0.19112 -0.09269 -0.14413
 C244 C 0.16572 -0.07454 -0.11822
 C245 C 0.12730 -0.08738 -0.10736
 N246 N 0.11635 -0.11782 -0.12373
 H247 H 0.14626 -0.20822 -0.20424
 H248 H 0.17530 -0.05007 -0.10709
 C249 C 0.16948 0.39090 0.34098
 C250 C 0.13078 0.37850 0.35021
 N251 N 0.12070 0.34723 0.33631
 C252 C 0.14771 0.32762 0.31398
 C253 C 0.18692 0.33972 0.30519
 N254 N 0.19645 0.37136 0.31881
 N255 N 0.17961 0.42220 0.35455
 C256 C 0.15296 0.44158 0.37749
 C257 C 0.11423 0.42909 0.38769
 N258 N 0.10406 0.39780 0.37324
 H259 H 0.13830 0.30309 0.30286
 H260 H 0.16197 0.46660 0.38726
 C261 C 0.63684 -0.14246 0.34434
 C262 C 0.63198 -0.10863 0.33256
 N263 N 0.65153 -0.09693 0.29751
 C264 C 0.67683 -0.11716 0.27421
 C265 C 0.68368 -0.15103 0.28673
 N266 N 0.66237 -0.16284 0.32124
 N267 N 0.61712 -0.15400 0.37962
 C268 C 0.59305 -0.13309 0.40379
 C269 C 0.58869 -0.09884 0.39239
 N270 N 0.60833 -0.08774 0.35673
 H271 H 0.69037 -0.10665 0.24578
 H272 H 0.57865 -0.14294 0.43223
 C273 C 0.68139 0.37998 -0.16674
 C274 C 0.64687 0.36434 -0.14987
 N275 N 0.63859 0.33206 -0.16119
 C276 C 0.66351 0.31449 -0.18835
 C277 C 0.69863 0.33002 -0.20564
 N278 N 0.70605 0.36271 -0.19425
 N279 N 0.69018 0.41201 -0.15479
 C280 C 0.66569 0.42934 -0.12701
 C281 C 0.63017 0.41413 -0.11058
 N282 N 0.62206 0.38171 -0.12253
 H283 H 0.65482 0.28919 -0.19706
 H284 H 0.67455 0.45448 -0.11783
 C285 C -0.14232 0.11053 -0.18235
 C286 C -0.12580 0.12861 -0.14909
 N287 N -0.13505 0.16181 -0.14374
 C288 C -0.16014 0.17788 -0.17009
 C289 C -0.17769 0.15974 -0.20339
 N290 N -0.16799 0.12630 -0.20815
 N291 N -0.13272 0.07739 -0.18814
 C292 C -0.10739 0.06145 -0.16195
 C293 C -0.09137 0.07932 -0.12796
 N294 N -0.10113 0.11259 -0.12236
 H295 H -0.16739 0.20403 -0.16332
 H296 H -0.10064 0.03490 -0.16697
 C297 C -0.16216 0.65213 0.35035
 C298 C -0.14950 0.62058 0.33428
 N299 N -0.16372 0.60932 0.29722
 C300 C -0.19056 0.62795 0.27572
 C301 C -0.20422 0.65934 0.29214
 N302 N -0.18911 0.67076 0.32900
 N303 N -0.14778 0.66338 0.38738
 C304 C -0.12177 0.64428 0.40945
 C305 C -0.10964 0.61217 0.39397
 N306 N -0.12368 0.60142 0.35633
 H307 H -0.20081 0.61836 0.24598
 H308 H -0.11063 0.65427 0.43859
 C309 C 0.34197 0.14343 0.35866
 C310 C 0.35197 0.11070 0.34464
 N311 N 0.33639 0.09870 0.30860
 C312 C 0.31073 0.11778 0.28616
 C313 C 0.29962 0.15045 0.30060
 N314 N 0.31610 0.16249 0.33647
 N315 N 0.35812 0.15556 0.39438
 C316 C 0.38343 0.13626 0.41708
 C317 C 0.39289 0.10295 0.40372
 N318 N 0.37696 0.09132 0.36738
 H319 H 0.29968 0.10751 0.25713
 H320 H 0.39616 0.14716 0.44490
 C321 C 0.35199 0.60289 -0.17689
 C322 C 0.36319 0.61818 -0.13907
 N323 N 0.34907 0.64949 -0.12881
 C324 C 0.32424 0.66632 -0.15470
 C325 C 0.31276 0.65108 -0.19269
 N326 N 0.32695 0.61953 -0.20262
 N327 N 0.36600 0.57152 -0.18707
 C328 C 0.39084 0.55470 -0.16116
 C329 C 0.40213 0.56987 -0.12306
 N330 N 0.38773 0.60133 -0.11302
 H331 H 0.31289 0.69096 -0.14511
 H332 H 0.40084 0.52947 -0.16988
 C333 C -0.17538 -0.11296 0.15705
 C334 C -0.14119 -0.12978 0.14080
 N335 N -0.13556 -0.16289 0.15022
 C336 C -0.16265 -0.18002 0.17519
 C337 C -0.19726 -0.16311 0.19210
 N338 N -0.20211 -0.12983 0.18209
 N339 N -0.18155 -0.08001 0.14753
 C340 C -0.15464 -0.06283 0.12276
 C341 C -0.11953 -0.07926 0.10698
 N342 N -0.11399 -0.11263 0.11622
 H343 H -0.15609 -0.20608 0.18230
 H344 H -0.16108 -0.03677 0.11519
 C345 C -0.17332 0.38702 0.65308
 C346 C -0.13484 0.37501 0.64137
 N347 N -0.12307 0.34400 0.65453
 C348 C -0.14817 0.32430 0.67860
 C349 C -0.18710 0.33608 0.69012
 N350 N -0.19839 0.36743 0.67709
 N351 N -0.18507 0.41810 0.64025
 C352 C -0.16021 0.43767 0.61585
 C353 C -0.12162 0.42564 0.60342
 N354 N -0.10990 0.39453 0.61698
 H355 H -0.13745 0.29999 0.68907
 H356 H -0.17042 0.46255 0.60693
 C357 C 0.33145 -0.11644 0.67190
 C358 C 0.36550 -0.13068 0.65161
 N359 N 0.37254 -0.16435 0.65519
 C360 C 0.34695 -0.18459 0.67794
 C361 C 0.31224 -0.17051 0.69856
 N362 N 0.30608 -0.13649 0.69474
 N363 N 0.32401 -0.08283 0.66820
 C364 C 0.34905 -0.06277 0.64471
 C365 C 0.38327 -0.07692 0.62396
 N366 N 0.39074 -0.11067 0.62827
 H367 H 0.35465 -0.21103 0.68010
 H368 H 0.34245 -0.03601 0.64258
 C369 C 0.32718 0.37903 0.16371
 C370 C 0.36639 0.36622 0.15841
 N371 N 0.37702 0.33798 0.17958
 C372 C 0.35006 0.32174 0.20553
 C373 C 0.31052 0.33432 0.21066
 N374 N 0.30030 0.36293 0.18967
 N375 N 0.31647 0.40720 0.14252
 C376 C 0.34311 0.42309 0.11596
 C377 C 0.38250 0.41024 0.11016
 N378 N 0.39312 0.38212 0.13200
 H379 H 0.35955 0.29941 0.22216
 H380 H 0.33370 0.44585 0.10022
 C381 C 0.14480 0.11373 0.18677
 C382 C 0.13689 0.12753 0.14727
 N383 N 0.15290 0.15789 0.13627
 C384 C 0.17682 0.17497 0.16293
 C385 C 0.18560 0.16085 0.20228
 N386 N 0.16913 0.13048 0.21314
 N387 N 0.12855 0.08353 0.19790
 C388 C 0.10530 0.06610 0.17099
 C389 C 0.09838 0.07918 0.13051
 N390 N 0.11413 0.10996 0.12010
 H391 H 0.18992 0.19872 0.15281
 H392 H 0.09236 0.04244 0.18148
 C393 C 0.15483 0.64122 0.65051
 C394 C 0.14250 0.60898 0.66362
 N395 N 0.15775 0.59544 0.69893
 C396 C 0.18515 0.61256 0.72157
 C397 C 0.19823 0.64481 0.70819
 N398 N 0.18224 0.65829 0.67297
 N399 N 0.13934 0.65495 0.61546
 C400 C 0.11238 0.63767 0.59249
 C401 C 0.10042 0.60492 0.60494
 N402 N 0.11569 0.59161 0.64065
 H403 H 0.19591 0.60118 0.74999
 H404 H 0.10030 0.64961 0.56503
 C405 C 0.66823 0.13700 0.64034
 C406 C 0.65788 0.10489 0.65568
 N407 N 0.67374 0.09374 0.69192
 C408 C 0.69980 0.11315 0.71344
 C409 C 0.71081 0.14535 0.69797
 N410 N 0.69428 0.15645 0.66175
 N411 N 0.65187 0.14831 0.60441
 C412 C 0.62581 0.12886 0.58289
 C413 C 0.61556 0.09633 0.59786
 N414 N 0.63190 0.08542 0.63425
 H415 H 0.71102 0.10367 0.74272
 H416 H 0.61282 0.13911 0.55490
 C417 C 0.64356 0.61397 0.18301
 C418 C 0.62909 0.62873 0.14640
 N419 N 0.63852 0.66131 0.13723
 C420 C 0.66210 0.67977 0.16285
 C421 C 0.67731 0.66491 0.19941
 N422 N 0.66732 0.63225 0.20841
 N423 N 0.63452 0.58132 0.19206
 C424 C 0.61214 0.56249 0.16574
 C425 C 0.59835 0.57684 0.12825
 N426 N 0.60692 0.60992 0.11992
 H427 H 0.67001 0.70526 0.15369
 H428 H 0.60514 0.53666 0.17424
   
