data_POSCAR
  _audit_creation_date              2014-09-24
  _audit_creation_method            'ToBaCCo'
  _symmetry_space_group_name_H-M    'P1'
  _symmetry_Int_Tables_number       1
  _symmetry_cell_setting            triclinic
  loop_
  _symmetry_equiv_pos_as_xyz
 x,y,z
_cell_length_a 31.2014
_cell_length_b 26.0355
_cell_length_c 28.1082
_cell_angle_alpha 91.600800
_cell_angle_beta 91.269700
_cell_angle_gamma 92.742300
loop_
  _atom_site_label
  _atom_site_type_symbol
  _atom_site_fract_x
  _atom_site_fract_y
  _atom_site_fract_z
O1 O 0.33828 0.42503 0.04497
 O2 O 0.39777 0.34872 -0.04341
 O3 O 0.34949 0.42632 -0.04570
 O4 O 0.40315 0.36245 0.05174
 O5 O 0.35294 0.29985 0.05117
 O6 O 0.29879 0.36404 -0.04997
 O7 O 0.34748 0.28631 -0.04014
 O8 O 0.28785 0.36256 0.04290
 Cu9 Cu 0.37744 0.39597 0.00296
 Cu10 Cu 0.31661 0.32288 0.00145
 C11 C 0.30152 0.40701 0.05694
 C12 C 0.38168 0.30461 -0.05743
 C13 C 0.31583 0.40586 -0.06537
 C14 C 0.38834 0.32051 0.06782
 O15 O 0.61213 0.63681 -0.04149
 O16 O 0.67923 0.57558 0.04867
 O17 O 0.61113 0.63139 0.05054
 O18 O 0.67896 0.58160 -0.04490
 O19 O 0.71782 0.65489 -0.04282
 O20 O 0.65062 0.70418 0.05314
 O21 O 0.72193 0.64564 0.05225
 O22 O 0.65372 0.70796 -0.03420
 Cu23 Cu 0.64156 0.59889 0.00312
 Cu24 Cu 0.69159 0.68382 0.00979
 C25 C 0.62110 0.68312 -0.05236
 C26 C 0.71276 0.60017 0.06475
 C27 C 0.61794 0.67738 0.06606
 C28 C 0.70862 0.61059 -0.06144
 O29 O 0.61207 0.28707 1.05406
 O30 O 0.68239 0.36987 0.98422
 O31 O 0.61127 0.31430 0.96573
 O32 O 0.68078 0.34202 1.07067
 O33 O 0.71935 0.27593 1.05101
 O34 O 0.64509 0.24344 0.94963
 O35 O 0.71724 0.30232 0.96027
 O36 O 0.64932 0.21908 1.03714
 Cu37 Cu 0.64267 0.33507 1.01992
 Cu38 Cu 0.68712 0.25382 0.99694
 C39 C 0.61891 0.23974 1.05875
 C40 C 0.71193 0.35053 0.96055
 C41 C 0.61504 0.27327 0.94117
 C42 C 0.71165 0.31346 1.07887
 O43 O 0.34763 0.65626 1.03383
 O44 O 0.29254 0.65522 0.91686
 O45 O 0.35983 0.69550 0.95367
 O46 O 0.26559 0.62626 1.00284
 O47 O 0.23870 0.70088 1.02110
 O48 O 0.33310 0.76955 0.97578
 O49 O 0.26625 0.73021 0.93592
 O50 O 0.31869 0.72956 1.05329
 Cu51 Cu 0.31717 0.64948 0.97665
 Cu52 Cu 0.28468 0.73844 0.99944
 C53 C 0.34589 0.69571 1.06103
 C54 C 0.27294 0.69474 0.90533
 C55 C 0.36215 0.74462 0.95629
 C56 C 0.23551 0.65241 1.01887
 O57 O -0.02763 0.37482 0.33369
 O58 O 0.06806 0.31762 0.37937
 O59 O 0.05543 0.37690 0.30707
 O60 O -0.01069 0.29798 0.38837
 O61 O -0.02472 0.24152 0.32919
 O62 O 0.04631 0.31422 0.25265
 O63 O 0.05842 0.25340 0.32647
 O64 O -0.03306 0.31779 0.27395
 Cu65 Cu 0.02187 0.34901 0.35625
 Cu66 Cu 0.01177 0.27618 0.29050
 C67 C -0.04621 0.35722 0.29592
 C68 C 0.07781 0.27409 0.36302
 C69 C 0.06251 0.35777 0.26587
 C70 C -0.02709 0.25479 0.37261
 O71 O 0.03371 0.68758 0.61449
 O72 O -0.04159 0.60081 0.67649
 O73 O -0.05048 0.67471 0.61885
 O74 O 0.04183 0.61367 0.67343
 O75 O 0.04209 0.66854 0.73481
 O76 O -0.05174 0.72885 0.68066
 O77 O -0.04104 0.65492 0.73852
 O78 O 0.03251 0.74393 0.67455
 Cu79 Cu -0.00386 0.63897 0.63965
 Cu80 Cu -0.00416 0.70509 0.71302
 C81 C 0.04606 0.73048 0.63397
 C82 C -0.05440 0.61300 0.71766
 C83 C -0.06799 0.71057 0.64158
 C84 C 0.05747 0.63021 0.71332
 O85 O 1.04032 0.62669 0.31858
 O86 O 0.95396 0.68719 0.38303
 O87 O 0.95758 0.60829 0.32622
 O88 O 1.03634 0.70543 0.37852
 O89 O 1.02689 0.75272 0.31543
 O90 O 0.94500 0.65793 0.26546
 O91 O 0.94484 0.73899 0.32303
 O92 O 1.02644 0.67278 0.25573
 Cu93 Cu 0.99847 0.65174 0.35761
 Cu94 Cu 0.98487 0.71065 0.28373
 C95 C 1.04701 0.63820 0.27574
 C96 C 0.93537 0.72417 0.36425
 C97 C 0.93770 0.61660 0.28751
 C98 C 1.04431 0.74619 0.35598
 O99 O 0.97679 0.30170 0.63572
 O100 O 1.05353 0.39471 0.69298
 O101 O 1.05954 0.31941 0.63348
 O102 O 0.97071 0.37962 0.69309
 O103 O 0.97744 0.32997 0.75502
 O104 O 1.06819 0.26985 0.69519
 O105 O 1.06041 0.34542 0.75523
 O106 O 0.98439 0.24942 0.69554
 Cu107 Cu 1.01410 0.35381 0.65778
 Cu108 Cu 1.02279 0.29292 0.73128
 C109 C 0.96771 0.25955 0.65548
 C110 C 1.07050 0.38597 0.73314
 C111 C 1.08009 0.28587 0.65499
 C112 C 0.95918 0.36588 0.73392
 O113 O 0.36919 0.07429 0.30312
 O114 O 0.33372 -0.04041 0.37159
 O115 O 0.38359 -0.02723 0.29688
 O116 O 0.32726 0.05705 0.37848
 O117 O 0.26684 0.04454 0.33607
 O118 O 0.32587 -0.03524 0.25017
 O119 O 0.27404 -0.04795 0.32756
 O120 O 0.30710 0.06562 0.26375
 Cu121 Cu 0.36009 0.01586 0.34085
 Cu122 Cu 0.28948 0.00364 0.28743
 C123 C 0.34120 0.09184 0.27502
 C124 C 0.29629 -0.06081 0.36313
 C125 C 0.36449 -0.04547 0.25952
 C126 C 0.28766 0.06443 0.37211
 O127 O 0.65847 -0.04639 0.59829
 O128 O 0.60412 0.05801 0.65758
 O129 O 0.66242 0.05311 0.59188
 O130 O 0.60212 -0.04087 0.66379
 O131 O 0.65153 -0.03106 0.72132
 O132 O 0.71392 0.05683 0.64731
 O133 O 0.65687 0.06808 0.71135
 O134 O 0.70919 -0.04080 0.65464
 Cu135 Cu 0.62650 0.00559 0.62228
 Cu136 Cu 0.68793 0.01375 0.68953
 C137 C 0.69336 -0.06095 0.61602
 C138 C 0.62093 0.08050 0.69451
 C139 C 0.69946 0.06926 0.60689
 C140 C 0.61613 -0.05103 0.70502
 O141 O 0.33517 1.02788 0.59745
 O142 O 0.40698 0.95365 0.66935
 O143 O 0.33194 0.93620 0.61923
 O144 O 0.39659 1.05573 0.64867
 O145 O 0.35570 1.07150 0.70993
 O146 O 0.29265 0.95144 0.68208
 O147 O 0.36945 0.96926 0.73308
 O148 O 0.29440 1.04107 0.65985
 Cu149 Cu 0.37354 0.99002 0.62972
 Cu150 Cu 0.32687 1.00724 0.70507
 C151 C 0.30285 1.04723 0.61614
 C152 C 0.40048 0.94823 0.71304
 C153 C 0.29837 0.92705 0.64316
 C154 C 0.38196 1.08726 0.67907
 O155 O 0.61029 0.95481 0.34529
 O156 O 0.70027 1.04190 0.39098
 O157 O 0.61957 1.05523 0.34039
 O158 O 0.67146 0.94925 0.39916
 O159 O 0.71572 0.94203 0.33914
 O160 O 0.65399 1.03871 0.27454
 O161 O 0.73038 1.03857 0.32091
 O162 O 0.64911 0.94111 0.28170
 Cu163 Cu 0.64730 1.00605 0.37486
 Cu164 Cu 0.69102 0.98975 0.29784
 C165 C 0.61570 0.93180 0.30542
 C166 C 0.73256 1.05025 0.36477
 C167 C 0.62458 1.06146 0.29622
 C168 C 0.70312 0.92867 0.38014
 O169 O 0.87417 0.80197 0.46868
 O170 O 0.81867 0.87667 0.55823
 O171 O 0.86751 0.79803 0.56134
 O172 O 0.82210 0.87701 0.46590
 O173 O 0.76715 0.82066 0.45631
 O174 O 0.80747 0.74943 0.55728
 O175 O 0.76009 0.82641 0.54603
 O176 O 0.82008 0.74400 0.46473
 Cu177 Cu 0.85146 0.84357 0.51415
 Cu178 Cu 0.78348 0.77879 0.50479
 C179 C 0.85716 0.75986 0.45223
 C180 C 0.77949 0.86567 0.56592
 C181 C 0.84389 0.76105 0.57648
 C182 C 0.78643 0.86268 0.44571
 O183 O 0.13027 0.19674 0.47108
 O184 O 0.17851 0.11614 0.55997
 O185 O 0.13648 0.20008 0.56539
 O186 O 0.17446 0.11550 0.46739
 O187 O 0.23263 0.16679 0.46250
 O188 O 0.19898 0.24360 0.56457
 O189 O 0.23982 0.16098 0.55203
 O190 O 0.18834 0.24879 0.47161
 Cu191 Cu 0.14848 0.15274 0.51621
 Cu192 Cu 0.22072 0.21060 0.51240
 C193 C 0.15079 0.23603 0.45615
 C194 C 0.21817 0.12380 0.56949
 C195 C 0.16268 0.23502 0.58281
 C196 C 0.21035 0.12687 0.44871
 O197 O 0.12274 0.82677 0.55037
 O198 O 0.18986 0.90512 0.47057
 O199 O 0.11544 0.86036 0.46355
 O200 O 0.19783 0.87755 0.55816
 O201 O 0.23124 0.81100 0.52948
 O202 O 0.14465 0.79009 0.43621
 O203 O 0.22067 0.83588 0.44311
 O204 O 0.15436 0.75781 0.52408
 Cu205 Cu 0.15328 0.87389 0.51392
 Cu206 Cu 0.19031 0.79084 0.48149
 C207 C 0.12678 0.77845 0.55000
 C208 C 0.21632 0.88413 0.44325
 C209 C 0.11632 0.82360 0.43317
 C210 C 0.23005 0.84964 0.55809
 O211 O 0.85159 0.07519 0.46671
 O212 O 0.90031 0.15615 0.56427
 O213 O 0.83457 0.09206 0.55604
 O214 O 0.92133 0.13046 0.48016
 O215 O 0.88560 0.19549 0.45340
 O216 O 0.79515 0.15462 0.53087
 O217 O 0.86287 0.22044 0.53904
 O218 O 0.81301 0.13882 0.44223
 Cu219 Cu 0.88017 0.10680 0.51938
 Cu220 Cu 0.83529 0.18400 0.48911
 C221 C 0.82431 0.09289 0.43800
 C222 C 0.89075 0.20297 0.56696
 C223 C 0.80020 0.11560 0.55640
 C224 C 0.91924 0.16946 0.45473
 O225 O 0.47144 0.90115 0.85037
 O226 O 0.55329 0.82871 0.90980
 O227 O 0.55417 0.89973 0.84588
 O228 O 0.46929 0.82261 0.90426
 O229 O 0.46780 0.76592 0.84415
 O230 O 0.55259 0.84168 0.78689
 O231 O 0.55023 0.76963 0.85167
 O232 O 0.47068 0.84567 0.78930
 Cu233 Cu 0.51258 0.86838 0.88383
 Cu234 Cu 0.51036 0.79999 0.81201
 C235 C 0.45784 0.88654 0.80926
 C236 C 0.56481 0.78657 0.89201
 C237 C 0.56656 0.88436 0.80537
 C238 C 0.45386 0.78140 0.88365
 O239 O 0.52384 0.17078 0.14633
 O240 O 0.42891 0.13660 0.22050
 O241 O 0.44243 0.17681 0.14123
 O242 O 0.51609 0.11512 0.22479
 O243 O 0.52581 0.18738 0.26698
 O244 O 0.45504 0.25136 0.17981
 O245 O 0.44097 0.21128 0.25874
 O246 O 0.53347 0.24340 0.18876
 Cu247 Cu 0.47787 0.14109 0.18100
 Cu248 Cu 0.49089 0.22829 0.22967
 C249 C 0.54303 0.21476 0.15398
 C250 C 0.41650 0.17238 0.24822
 C251 C 0.43688 0.22470 0.14544
 C252 C 0.53475 0.14088 0.25888
 O253 O 0.50253 0.12277 0.77594
 O254 O 0.43823 0.21123 0.84459
 O255 O 0.42865 0.15205 0.76094
 O256 O 0.51340 0.16819 0.85590
 O257 O 0.53976 0.23886 0.82303
 O258 O 0.45758 0.22176 0.72939
 O259 O 0.47063 0.27834 0.81203
 O260 O 0.53722 0.18992 0.74559
 Cu261 Cu 0.46616 0.15850 0.81372
 Cu262 Cu 0.50236 0.23849 0.77185
 C263 C 0.53160 0.14162 0.74996
 C264 C 0.44516 0.25967 0.84222
 C265 C 0.43043 0.18391 0.72763
 C266 C 0.54047 0.20638 0.85579
 O267 O 0.44965 0.81600 0.10614
 O268 O 0.53682 0.88145 0.17453
 O269 O 0.53367 0.81431 0.10562
 O270 O 0.45414 0.88246 0.17556
 O271 O 0.45296 0.81994 0.22722
 O272 O 0.53190 0.75092 0.15622
 O273 O 0.53483 0.82020 0.22748
 O274 O 0.44665 0.75212 0.15624
 Cu275 Cu 0.49375 0.85442 0.13503
 Cu276 Cu 0.49151 0.77880 0.19657
 C277 C 0.43266 0.77395 0.11949
 C278 C 0.54997 0.86308 0.21305
 C279 C 0.54675 0.77156 0.11914
 C280 C 0.44076 0.86320 0.21386
 O281 O 0.80798 0.43965 0.89971
 O282 O 0.87662 0.54197 0.84825
 O283 O 0.79958 0.53714 0.88530
 O284 O 0.88246 0.44316 0.85639
 O285 O 0.85254 0.43040 0.78475
 O286 O 0.77298 0.52423 0.81225
 O287 O 0.84775 0.52347 0.77695
 O288 O 0.77782 0.42199 0.82907
 Cu289 Cu 0.84451 0.49188 0.87964
 Cu290 Cu 0.80811 0.47218 0.79505
 C291 C 0.78105 0.41362 0.87327
 C292 C 0.87504 0.54892 0.80372
 C293 C 0.77248 0.54698 0.85268
 C294 C 0.88234 0.42259 0.81469
 O295 O 0.08757 0.53958 0.14757
 O296 O 0.16463 0.45303 0.09454
 O297 O 0.10803 0.44957 0.16454
 O298 O 0.12804 0.53958 0.07124
 O299 O 0.18337 0.57538 0.11249
 O300 O 0.16101 0.48467 0.20980
 O301 O 0.21714 0.49038 0.13884
 O302 O 0.14061 0.57607 0.19199
 Cu303 Cu 0.11833 0.49052 0.11462
 Cu304 Cu 0.18121 0.53499 0.16735
 C305 C 0.10120 0.57179 0.17992
 C306 C 0.20407 0.45769 0.10699
 C307 C 0.12881 0.45297 0.20379
 C308 C 0.15860 0.57298 0.07562
 O309 O 0.87511 0.41724 0.16978
 O310 O 0.79509 0.49980 0.12047
 O311 O 0.86809 0.51595 0.16707
 O312 O 0.79898 0.40048 0.13312
 O313 O 0.77514 0.39927 0.20657
 O314 O 0.83743 0.51821 0.23718
 O315 O 0.76071 0.49897 0.18820
 O316 O 0.84689 0.42481 0.24102
 Cu317 Cu 0.83695 0.45839 0.14037
 Cu318 Cu 0.80007 0.46248 0.22400
 C319 C 0.87541 0.40799 0.21376
 C320 C 0.76379 0.51254 0.14527
 C321 C 0.86538 0.53545 0.20884
 C322 C 0.77700 0.37892 0.16530
 O323 O 0.15675 0.48003 0.84650
 O324 O 0.22619 0.59994 0.86204
 O325 O 0.14778 0.57636 0.83703
 O326 O 0.23776 0.49677 0.87687
 O327 O 0.25624 0.48995 0.80189
 O328 O 0.16766 0.56704 0.76232
 O329 O 0.24259 0.59244 0.78627
 O330 O 0.17484 0.47638 0.77089
 Cu331 Cu 0.19169 0.53863 0.86398
 Cu332 Cu 0.21528 0.52936 0.77446
 C333 C 0.15195 0.46037 0.80465
 C334 C 0.24271 0.61864 0.82486
 C335 C 0.14184 0.58381 0.79279
 C336 C 0.26107 0.47789 0.84493
 N337 N 0.27398 0.43827 0.08386
 N338 N 0.23383 0.42681 0.08311
 N339 N 0.74273 0.57516 0.09390
 N340 N 0.73144 0.54155 0.12368
 N341 N 0.74028 0.38476 0.93615
 N342 N 0.75267 0.37626 0.89401
 N343 N 0.26453 0.70462 0.85641
 N344 N 0.25527 0.67214 0.82251
 N345 N 0.10671 0.24521 0.38975
 N346 N 0.13024 0.26687 0.42265
 N347 N 0.07547 0.76402 0.60983
 N348 N 0.09897 0.74620 0.57739
 N349 N 0.90555 0.75179 0.39114
 N350 N 0.88105 0.72951 0.42050
 N351 N 0.93958 0.22263 0.63091
 N352 N 0.91440 0.23782 0.59859
 N353 N 0.34143 0.14516 0.26470
 N354 N 0.37214 0.17790 0.25783
 N355 N 0.59745 0.11756 0.71940
 N356 N 0.55785 0.10726 0.72548
 N357 N 0.42857 0.91758 0.73937
 N358 N 0.42905 0.91775 0.78452
 N359 N 0.58256 0.89837 0.28456
 N360 N 0.58234 0.89219 0.23954
 N361 N 0.40159 0.27431 0.90710
 N362 N 0.42578 0.29330 0.87563
 N363 N 0.59276 0.70886 0.91701
 N364 N 0.59352 0.75771 0.91919
 N365 N 0.37989 0.70778 0.09473
 N366 N 0.39718 0.75272 0.09175
 N367 N 0.59213 0.21045 0.08963
 N368 N 0.57352 0.23552 0.12192
 N369 N 0.27740 0.07854 0.58781
 N370 N 0.23952 0.08907 0.59859
 N371 N 0.77074 0.05938 0.38408
 N372 N 0.80802 0.06041 0.39963
 N373 N 0.71609 0.90176 0.59018
 N374 N 0.75656 0.90003 0.59494
 N375 N 0.27697 0.90522 0.39635
 N376 N 0.24017 0.91574 0.41157
 N377 N 0.10269 0.42199 0.75157
 N378 N 0.11838 0.42257 0.79372
 N379 N 0.07702 0.61025 0.24943
 N380 N 0.07129 0.60113 0.20503
 N381 N 0.91884 0.38365 0.27699
 N382 N 0.90932 0.37992 0.23289
 N383 N 0.91536 0.57892 0.73989
 N384 N 0.90552 0.58426 0.78339
 N385 N 0.72700 0.59656 0.89919
 N386 N 0.74128 0.58472 0.86004
 N387 N 0.30169 0.42518 0.89505
 N388 N 0.29279 0.44157 0.85545
 N389 N 0.19947 0.62924 0.03012
 N390 N 0.16451 0.60788 0.03807
 N391 N 0.73467 0.32205 0.11771
 N392 N 0.75437 0.33083 0.15564
 N393 N 0.89412 0.72426 0.62753
 N394 N 0.85668 0.73265 0.61668
 N395 N 0.96129 0.21958 0.40234
 N396 N 0.95646 0.18289 0.42861
 N397 N 0.11672 0.27241 0.63816
 N398 N 0.15314 0.26445 0.62455
 N399 N 0.06768 0.78413 0.37615
 N400 N 0.08632 0.82306 0.39395
 N401 N 0.59071 0.91567 0.73354
 N402 N 0.59412 0.91726 0.77874
 N403 N 0.38711 0.92271 0.22748
 N404 N 0.41360 0.89163 0.24391
 N405 N 0.59482 0.09034 0.26921
 N406 N 0.56633 0.11742 0.28816
 N407 N 0.38272 0.14046 0.66717
 N408 N 0.40190 0.17999 0.68716
 N409 N 0.58681 0.69995 0.09582
 N410 N 0.57849 0.74704 0.09163
 N411 N 0.41284 0.29659 0.10425
 N412 N 0.41055 0.24827 0.11037
 N413 N 0.58453 0.26089 0.90387
 N414 N 0.57097 0.21490 0.89394
 N415 N 0.39715 0.77270 0.93619
 N416 N 0.41970 0.75239 0.90441
 N417 N 0.72558 0.89233 0.40704
 N418 N 0.76611 0.89636 0.41378
 N419 N 0.26324 0.89628 0.62231
 N420 N 0.26721 0.86626 0.58630
 N421 N 0.26722 0.09583 0.40633
 N422 N 0.22699 0.09353 0.41308
 N423 N 0.72741 0.09696 0.57624
 N424 N 0.76731 0.09567 0.58568
 N425 N 0.90706 0.57833 0.26891
 N426 N 0.89582 0.57517 0.22508
 N427 N 0.92485 0.39178 0.75509
 N428 N 0.91765 0.39371 0.79948
 N429 N 0.09319 0.60513 0.73315
 N430 N 0.10525 0.61018 0.77668
 N431 N 0.08563 0.38669 0.23184
 N432 N 0.11339 0.42288 0.24208
   
