data_POSCAR
  _audit_creation_date              2014-09-24
  _audit_creation_method            'ToBaCCo'
  _symmetry_space_group_name_H-M    'P1'
  _symmetry_Int_Tables_number       1
  _symmetry_cell_setting            triclinic
  loop_
  _symmetry_equiv_pos_as_xyz
 x,y,z
_cell_length_a 37.5613
_cell_length_b 37.5653
_cell_length_c 37.5026
_cell_angle_alpha 90.081600
_cell_angle_beta 89.825600
_cell_angle_gamma 90.176100
loop_
  _atom_site_label
  _atom_site_type_symbol
  _atom_site_fract_x
  _atom_site_fract_y
  _atom_site_fract_z
N1 N 0.17264 1.17371 0.17282
 N2 N 0.82745 0.82471 0.17290
 N3 N 0.82650 1.17238 -0.17175
 N4 N 0.17374 0.82883 -0.17381
 C5 C 0.55499 1.04894 -0.00565
 H6 H 0.55453 1.04857 0.02319
 C7 C 0.58054 1.06919 -0.02361
 H8 H 0.59977 1.08462 -0.00860
 C9 C 0.53157 1.02794 -0.06051
 H10 H 0.51308 1.01107 -0.07473
 C11 C 0.55678 1.04779 -0.07954
 H12 H 0.55745 1.04641 -0.10839
 N13 N 0.53122 1.02882 -0.02421
 C14 C 0.44653 1.00779 0.05266
 H15 H 0.44671 0.97900 0.05234
 C16 C 0.42103 1.02591 0.07276
 H17 H 0.40156 1.01106 0.08813
 C18 C 0.47056 1.06238 0.03163
 H19 H 0.48925 1.07644 0.01479
 C20 C 0.44542 1.08156 0.05133
 H21 H 0.44500 1.11035 0.04985
 Zn22 Zn 0.50079 0.99900 0.00279
 N23 N 0.47056 1.02615 0.03258
 C24 C 0.53054 0.97010 0.06631
 N25 N 0.53062 0.96915 0.03001
 C26 C 0.55448 0.94899 0.01163
 C27 C 0.57969 0.92878 0.02978
 C28 C 0.55541 0.95029 0.08553
 C29 C 0.44716 0.99032 -0.04750
 C30 C 0.42184 0.97227 -0.06786
 C31 C 0.44549 0.91656 -0.04629
 C32 C 0.47048 0.93568 -0.02634
 N33 N 0.47077 0.97191 -0.02724
 H34 H 0.51200 0.98700 0.08039
 H35 H 0.55437 0.94931 -0.01721
 H36 H 0.59902 0.91333 0.01491
 H37 H 0.55577 0.95176 0.11437
 H38 H 0.44756 1.01912 -0.04714
 H39 H 0.40271 0.98717 -0.08338
 H40 H 0.44484 0.88776 -0.04487
 H41 H 0.48882 0.92157 -0.00936
 C42 C 0.42027 1.06310 0.07183
 C43 C 0.58162 1.06837 -0.06086
 C44 C 0.42080 0.93509 -0.06699
 C45 C 0.58036 0.92969 0.06704
 C46 C -0.00762 0.55335 1.04658
 H47 H 0.02118 0.55334 1.04632
 C48 C -0.02596 0.57860 1.06677
 H49 H -0.01129 0.59806 1.08226
 C50 C -0.06199 0.52910 1.02536
 H51 H -0.07587 0.51041 1.00842
 C52 C -0.08139 0.55399 1.04514
 H53 H -0.11019 0.55422 1.04363
 N54 N -0.02575 0.52931 1.02637
 C55 C 0.05195 0.44586 1.00559
 H56 H 0.05183 0.44605 0.97674
 C57 C 0.07214 0.42066 1.02381
 H58 H 0.08776 0.40144 1.00900
 C59 C 0.03034 0.46952 1.06018
 H60 H 0.01325 0.48794 1.07420
 C61 C 0.05011 0.44468 1.07947
 H62 H 0.04843 0.44421 1.10831
 Zn63 Zn 0.00170 0.49934 0.99660
 N64 N 0.03155 0.46956 1.02389
 C65 C 0.06503 0.53012 0.96779
 N66 N 0.02880 0.52963 0.96675
 C67 C 0.01036 0.55323 0.94651
 C68 C 0.02837 0.57878 0.92633
 C69 C 0.08411 0.55533 0.94802
 C70 C -0.04793 0.44496 0.98786
 C71 C -0.06798 0.41940 0.96976
 C72 C -0.04638 0.44345 0.91397
 C73 C -0.02675 0.46868 0.93313
 N74 N -0.02782 0.46889 0.96943
 H75 H 0.07914 0.51176 0.98475
 H76 H -0.01844 0.55267 0.94676
 H77 H 0.01345 0.59791 0.91084
 H78 H 0.11290 0.55615 0.94957
 H79 H -0.04772 0.44531 1.01670
 H80 H -0.08341 0.40004 0.98468
 H81 H -0.04484 0.44289 0.88512
 H82 H -0.00988 0.48729 0.91901
 C83 C 0.07094 0.41987 1.06106
 C84 C -0.06316 0.57911 1.06580
 C85 C -0.06696 0.41845 0.93251
 C86 C 0.06555 0.58004 0.92736
 C87 C 1.04715 -0.00614 0.55459
 H88 H 1.04640 0.02264 0.55438
 C89 C 1.06757 -0.02388 0.57996
 H90 H 1.08275 -0.00875 0.59930
 C91 C 1.02695 -0.06112 0.53071
 H92 H 1.01034 -0.07548 0.51212
 C93 C 1.04699 -0.07992 0.55573
 H94 H 1.04600 -0.10874 0.55615
 N95 N 1.02735 -0.02487 0.53067
 C96 C 1.00576 0.05182 0.44646
 H97 H 0.97696 0.05112 0.44667
 C98 C 1.02376 0.07220 0.42103
 H99 H 1.00883 0.08738 0.40165
 C100 C 1.06048 0.03150 0.47031
 H101 H 1.07465 0.01482 0.48889
 C102 C 1.07955 0.05148 0.44524
 H103 H 1.10836 0.05038 0.44477
 Zn104 Zn 0.99732 0.00176 0.50047
 N105 N 1.02423 0.03196 0.47037
 C106 C 0.96756 0.06468 0.53082
 N107 N 0.96703 0.02843 0.53062
 C108 C 0.94702 0.00975 0.55445
 C109 C 0.92658 0.02752 0.57996
 C110 C 0.94753 0.08352 0.55598
 C111 C 0.98953 -0.04836 0.44639
 C112 C 0.97186 -0.06893 0.42094
 C113 C 0.91575 -0.04841 0.44495
 C114 C 0.93449 -0.02823 0.47006
 N115 N 0.97074 -0.02852 0.47023
 H116 H 0.98435 0.07901 0.51228
 H117 H 0.94767 -0.01904 0.55413
 H118 H 0.91130 0.01242 0.59929
 H119 H 0.94869 0.11233 0.55658
 H120 H 1.01832 -0.04752 0.44670
 H121 H 0.98705 -0.08413 0.40164
 H122 H 0.88693 -0.04749 0.44441
 H123 H 0.92007 -0.01157 0.48860
 C124 C 1.06097 0.07176 0.42022
 C125 C 1.06725 -0.06108 0.58071
 C126 C 0.93467 -0.06870 0.42003
 C127 C 0.92711 0.06472 0.58093
 C128 C 0.11973 0.33720 1.11216
 C129 C 0.10523 0.32369 1.14432
 C130 C 0.11845 0.29140 1.15881
 C131 C 0.14602 0.27283 1.14102
 C132 C 0.16177 0.28730 1.10989
 C133 C 0.14859 0.31960 1.09542
 C134 C 0.16444 0.33333 1.06401
 C135 C 0.19258 0.31568 1.04743
 C136 C 0.20547 0.28408 1.06160
 C137 C 0.19031 0.26991 1.09244
 C138 C 0.10330 0.27817 1.19077
 C139 C 0.07586 0.29633 1.20794
 C140 C 0.06290 0.32789 1.19375
 C141 C 0.07730 0.34153 1.16229
 C142 C 0.15653 0.23780 1.15334
 C143 C 0.16436 0.20816 1.16272
 C144 C 0.10343 0.36769 1.09503
 C145 C 0.08905 0.39204 1.07997
 H146 H 0.15539 0.35788 1.05205
 H147 H 0.20445 0.32658 1.02347
 H148 H 0.22732 0.27046 1.04862
 H149 H 0.20127 0.24531 1.10251
 H150 H 0.11261 0.25380 1.20287
 H151 H 0.06462 0.28587 1.23241
 H152 H 0.04159 0.34192 1.20720
 H153 H 0.06644 0.36623 1.15233
 C154 C -0.11464 0.66161 1.11501
 C155 C -0.14387 0.67800 1.09793
 C156 C -0.15807 0.71023 1.11179
 C157 C -0.14298 0.72580 1.14266
 C158 C -0.11501 0.70841 1.16080
 C159 C -0.10074 0.67623 1.14691
 C160 C -0.07241 0.65961 1.16520
 C161 C -0.05864 0.67431 1.19642
 C162 C -0.07264 0.70575 1.21004
 C163 C -0.10048 0.72273 1.19253
 C164 C -0.18695 0.72643 1.09398
 C165 C -0.20148 0.71117 1.06340
 C166 C -0.18762 0.67964 1.04986
 C167 C -0.15912 0.66314 1.06680
 C168 C -0.15460 0.76074 1.15436
 C169 C -0.16330 0.79032 1.16329
 C170 C -0.09738 0.63120 1.09851
 C171 C -0.08221 0.60690 1.08401
 H172 H -0.06073 0.63505 1.15569
 H173 H -0.03701 0.66122 1.21012
 H174 H -0.06189 0.71703 1.23432
 H175 H -0.11060 0.74704 1.20420
 H176 H -0.19867 0.75092 1.10357
 H177 H -0.22360 0.72389 1.05014
 H178 H -0.19900 0.66788 1.02611
 H179 H -0.14930 0.63859 1.05534
 C180 C -0.11597 0.33507 0.88207
 C181 C -0.09849 0.31766 0.85348
 C182 C -0.11234 0.28510 0.83993
 C183 C -0.14363 0.27025 0.85497
 C184 C -0.16218 0.28867 0.88219
 C185 C -0.14826 0.32115 0.89586
 C186 C -0.16694 0.33877 0.92352
 C187 C -0.19856 0.32476 0.93719
 C188 C -0.21223 0.29305 0.92374
 C189 C -0.19434 0.27510 0.89656
 C190 C -0.09410 0.26785 0.81175
 C191 C -0.06315 0.28243 0.79722
 C192 C -0.04964 0.31431 0.81042
 C193 C -0.06697 0.33181 0.83827
 C194 C -0.15536 0.23501 0.84417
 C195 C -0.16433 0.20517 0.83621
 C196 C -0.09950 0.36579 0.89888
 C197 C -0.08505 0.39035 0.91374
 H198 H -0.15743 0.36358 0.93473
 H199 H -0.21255 0.33862 0.95830
 H200 H -0.23683 0.28231 0.93438
 H201 H -0.20606 0.25064 0.88680
 H202 H -0.10362 0.24303 0.80060
 H203 H -0.04958 0.26892 0.77561
 H204 H -0.02559 0.32554 0.79904
 H205 H -0.05551 0.35658 0.84760
 C206 C 0.11564 0.66379 0.87855
 C207 C 0.09840 0.68155 0.85019
 C208 C 0.11240 0.71422 0.83710
 C209 C 0.14356 0.72889 0.85244
 C210 C 0.16185 0.71017 0.87948
 C211 C 0.14783 0.67752 0.89260
 C212 C 0.16630 0.65953 0.92000
 C213 C 0.19778 0.67337 0.93397
 C214 C 0.21151 0.70529 0.92111
 C215 C 0.19384 0.72361 0.89420
 C216 C 0.09444 0.73177 0.80908
 C217 C 0.06357 0.71740 0.79432
 C218 C 0.04988 0.68544 0.80711
 C219 C 0.06695 0.66762 0.83475
 C220 C 0.15539 0.76422 0.84211
 C221 C 0.16428 0.79411 0.83439
 C222 C 0.09896 0.63291 0.89488
 C223 C 0.08421 0.60824 0.90926
 H224 H 0.15671 0.63455 0.93076
 H225 H 0.21162 0.65923 0.95487
 H226 H 0.23599 0.71591 0.93201
 H227 H 0.20559 0.74827 0.88495
 H228 H 0.10412 0.75665 0.79822
 H229 H 0.05020 0.73115 0.77286
 H230 H 0.02589 0.67438 0.79555
 H231 H 0.05535 0.64279 0.84374
 C232 C 1.11172 0.12089 0.33697
 C233 C 1.09471 0.14924 0.31900
 C234 C 1.10919 0.16244 0.28655
 C235 C 1.14060 0.14722 0.27228
 C236 C 1.15863 0.12019 0.29122
 C237 C 1.14413 0.10695 0.32366
 C238 C 1.16236 0.07956 0.34186
 C239 C 1.19408 0.06570 0.32843
 C240 C 1.20828 0.07868 0.29672
 C241 C 1.19085 0.10560 0.27820
 C242 C 1.09148 0.19046 0.26879
 C243 C 1.06036 0.20510 0.28275
 C244 C 1.04619 0.19219 0.31450
 C245 C 1.06303 0.16455 0.33252
 C246 C 1.15299 0.15769 0.23713
 C247 C 1.16245 0.16547 0.20739
 C248 C 1.09466 0.10451 0.36765
 C249 C 1.07971 0.09003 0.39217
 H250 H 1.15241 0.06870 0.36670
 H251 H 1.20772 0.04480 0.34273
 H252 H 1.23294 0.06788 0.28643
 H253 H 1.20298 0.11495 0.25374
 H254 H 1.10153 0.20141 0.24406
 H255 H 1.04719 0.22656 0.26886
 H256 H 1.02202 0.20365 0.32525
 H257 H 1.05105 0.15546 0.35717
 C258 C 1.11752 -0.11085 0.66339
 C259 C 1.10450 -0.14376 0.67649
 C260 C 1.11836 -0.15802 0.70866
 C261 C 1.14507 -0.13925 0.72754
 C262 C 1.15931 -0.10725 0.71351
 C263 C 1.14550 -0.09301 0.68132
 C264 C 1.15987 -0.06076 0.66803
 C265 C 1.18715 -0.04311 0.68601
 C266 C 1.20064 -0.05704 0.71750
 C267 C 1.18696 -0.08871 0.73124
 C268 C 1.10471 -0.19077 0.72145
 C269 C 1.07811 -0.20894 0.70299
 C270 C 1.06452 -0.19497 0.67155
 C271 C 1.07745 -0.16275 0.65834
 C272 C 1.15626 -0.15159 0.76239
 C273 C 1.16470 -0.16102 0.79189
 C274 C 1.10060 -0.09421 0.63294
 C275 C 1.08578 -0.07955 0.60858
 H276 H 1.15030 -0.04893 0.64359
 H277 H 1.19787 -0.01850 0.67544
 H278 H 1.22182 -0.04323 0.73138
 H279 H 1.19833 -0.09854 0.75577
 H280 H 1.11456 -0.20273 0.74570
 H281 H 1.06803 -0.23399 0.71311
 H282 H 1.04387 -0.20918 0.65730
 H283 H 1.06615 -0.15299 0.63372
 C284 C 0.88545 -0.11926 0.33687
 C285 C 0.90347 -0.14712 0.31894
 C286 C 0.88961 -0.16092 0.28651
 C287 C 0.85780 -0.14680 0.27224
 C288 C 0.83881 -0.12025 0.29112
 C289 C 0.85270 -0.10641 0.32353
 C290 C 0.83352 -0.07951 0.34167
 C291 C 0.80146 -0.06673 0.32822
 C292 C 0.78786 -0.08031 0.29654
 C293 C 0.80623 -0.10675 0.27807
 C294 C 0.90834 -0.18842 0.26879
 C295 C 0.93983 -0.20198 0.28277
 C296 C 0.95339 -0.18850 0.31450
 C297 C 0.93555 -0.16135 0.33248
 C298 C 0.84593 -0.15791 0.23714
 C299 C 0.83698 -0.16630 0.20744
 C300 C 0.90182 -0.10224 0.36753
 C301 C 0.91631 -0.08735 0.39202
 H302 H 0.84298 -0.06823 0.36648
 H303 H 0.78708 -0.04620 0.34248
 H304 H 0.76293 -0.07033 0.28623
 H305 H 0.79456 -0.11659 0.25363
 H306 H 0.89880 -0.19979 0.24407
 H307 H 0.95379 -0.22305 0.26889
 H308 H 0.97786 -0.19912 0.32525
 H309 H 0.94709 -0.15179 0.35711
 C310 C 0.87785 0.11439 0.66471
 C311 C 0.89112 0.14722 0.67774
 C312 C 0.87798 0.16125 0.71043
 C313 C 0.85178 0.14229 0.72992
 C314 C 0.83718 0.11042 0.71595
 C315 C 0.85022 0.09645 0.68321
 C316 C 0.83551 0.06433 0.66997
 C317 C 0.80861 0.04657 0.68853
 C318 C 0.79589 0.06023 0.72058
 C319 C 0.80997 0.09174 0.73429
 C320 C 0.89187 0.19393 0.72313
 C321 C 0.91803 0.21225 0.70410
 C322 C 0.93094 0.19850 0.67216
 C323 C 0.91775 0.16635 0.65901
 C324 C 0.84159 0.15422 0.76533
 C325 C 0.83405 0.16324 0.79530
 C326 C 0.89429 0.09782 0.63380
 C327 C 0.90881 0.08319 0.60912
 H328 H 0.84449 0.05272 0.64510
 H329 H 0.79760 0.02208 0.67798
 H330 H 0.77502 0.04633 0.73492
 H331 H 0.79924 0.10134 0.75930
 H332 H 0.88250 0.20573 0.74774
 H333 H 0.92831 0.23725 0.71418
 H334 H 0.95126 0.21283 0.65746
 H335 H 0.92850 0.15677 0.63398
 C336 C 0.33688 1.11381 0.12038
 C337 C 0.32352 1.14591 0.10599
 C338 C 0.29104 1.16026 0.11910
 C339 C 0.27212 1.14237 0.14645
 C340 C 0.28642 1.11128 0.16210
 C341 C 0.31892 1.09696 0.14902
 C342 C 0.33247 1.06560 0.16477
 C343 C 0.31446 1.04891 0.19270
 C344 C 0.28267 1.06292 0.20548
 C345 C 0.26866 1.09372 0.19042
 C346 C 0.27797 1.19216 0.10406
 C347 C 0.29648 1.20944 0.07684
 C348 C 0.32823 1.19539 0.06398
 C349 C 0.34171 1.16398 0.07827
 C350 C 0.23695 1.15455 0.15685
 C351 C 0.20720 1.16379 0.16460
 C352 C 0.36761 1.09684 0.10415
 C353 C 0.39218 1.08190 0.08984
 H354 H 0.35716 1.05376 0.15580
 H355 H 0.32523 1.02498 0.20449
 H356 H 0.26876 1.04986 0.22717
 H357 H 0.24390 1.10366 0.20129
 H358 H 0.25346 1.20415 0.11330
 H359 H 0.28614 1.23386 0.06569
 H360 H 0.34252 1.20892 0.04284
 H361 H 0.36657 1.15414 0.06750
 C362 C 0.66492 1.11806 -0.11100
 C363 C 0.67743 1.10553 -0.14438
 C364 C 0.70975 1.11914 -0.15880
 C365 C 0.72941 1.14506 -0.13969
 C366 C 0.71603 1.15881 -0.10716
 C367 C 0.68364 1.14531 -0.09280
 C368 C 0.67097 1.15922 -0.06005
 C369 C 0.68973 1.18575 -0.04205
 C370 C 0.72144 1.19890 -0.05607
 C371 C 0.73459 1.18563 -0.08821
 C372 C 0.72191 1.10604 -0.19206
 C373 C 0.70272 1.08015 -0.21053
 C374 C 0.67116 1.06678 -0.19639
 C375 C 0.65853 1.07922 -0.16369
 C376 C 0.76436 1.15592 -0.15229
 C377 C 0.79396 1.16409 -0.16192
 C378 C 0.63425 1.10134 -0.09427
 C379 C 0.60971 1.08669 -0.07951
 H380 H 0.64639 1.14988 -0.04812
 H381 H 0.67962 1.19613 -0.01707
 H382 H 0.73595 1.21947 -0.04196
 H383 H 0.75935 1.19667 -0.09806
 H384 H 0.74620 1.11579 -0.20417
 H385 H 0.71239 1.07046 -0.23596
 H386 H 0.65634 1.04668 -0.21085
 H387 H 0.63377 1.06812 -0.15382
 C388 C 0.33784 0.88469 -0.11663
 C389 C 0.32290 0.89969 -0.14778
 C390 C 0.29051 0.88586 -0.16165
 C391 C 0.27323 0.85718 -0.14422
 C392 C 0.28913 0.84098 -0.11419
 C393 C 0.32157 0.85477 -0.10036
 C394 C 0.33675 0.83842 -0.07005
 C395 C 0.32037 0.80923 -0.05389
 C396 C 0.28864 0.79577 -0.06741
 C397 C 0.27306 0.81138 -0.09719
 C398 C 0.27586 0.90151 -0.19259
 C399 C 0.29274 0.93003 -0.20938
 C400 C 0.32439 0.94361 -0.19579
 C401 C 0.33941 0.92874 -0.16533
 C402 C 0.23808 0.84597 -0.15570
 C403 C 0.20832 0.83764 -0.16443
 C404 C 0.36843 0.90150 -0.09997
 C405 C 0.39286 0.91636 -0.08535
 H406 H 0.36146 0.84789 -0.05864
 H407 H 0.33238 0.79700 -0.03076
 H408 H 0.27602 0.77311 -0.05476
 H409 H 0.24842 0.79994 -0.10680
 H410 H 0.25137 0.89176 -0.20421
 H411 H 0.28121 0.94163 -0.23308
 H412 H 0.33740 0.96577 -0.20893
 H413 H 0.36412 0.94012 -0.15582
 C414 C 0.66313 0.88061 0.11764
 C415 C 0.67950 0.89733 0.14724
 C416 C 0.71196 0.88372 0.16095
 C417 C 0.72778 0.85346 0.14499
 C418 C 0.71039 0.83559 0.11668
 C419 C 0.67797 0.84924 0.10293
 C420 C 0.66136 0.83125 0.07424
 C421 C 0.67629 0.80057 0.05964
 C422 C 0.70797 0.78720 0.07314
 C423 C 0.72496 0.80442 0.10131
 C424 C 0.72814 0.90117 0.19021
 C425 C 0.71263 0.93117 0.20558
 C426 C 0.68087 0.94447 0.19220
 C427 C 0.66440 0.92788 0.16334
 C428 C 0.76300 0.84220 0.15602
 C429 C 0.79280 0.83373 0.16423
 C430 C 0.63258 0.89706 0.10078
 C431 C 0.60820 0.91152 0.08587
 H432 H 0.63661 0.84058 0.06294
 H433 H 0.66319 0.78709 0.03776
 H434 H 0.71943 0.76334 0.06175
 H435 H 0.74947 0.79297 0.11100
 H436 H 0.75280 0.89175 0.20157
 H437 H 0.72533 0.94416 0.22798
 H438 H 0.66892 0.96778 0.20424
 H439 H 0.63966 0.93913 0.15392
   
