data_POSCAR
  _audit_creation_date              2014-09-24
  _audit_creation_method            'ToBaCCo'
  _symmetry_space_group_name_H-M    'P1'
  _symmetry_Int_Tables_number       1
  _symmetry_cell_setting            triclinic
  loop_
  _symmetry_equiv_pos_as_xyz
 x,y,z
_cell_length_a 30.9446
_cell_length_b 30.9431
_cell_length_c 30.9741
_cell_angle_alpha 90.134000
_cell_angle_beta 89.996300
_cell_angle_gamma 90.371200
loop_
  _atom_site_label
  _atom_site_type_symbol
  _atom_site_fract_x
  _atom_site_fract_y
  _atom_site_fract_z
Si1 Si -0.00005 0.50029 0.25009
 Si2 Si 0.00005 0.49928 0.74988
 Si3 Si 0.24909 -0.00197 0.49998
 Si4 Si 0.75054 0.00136 0.49944
 Si5 Si 0.50202 0.25058 0.99937
 Si6 Si 0.49865 0.74914 1.00072
 B7 B 1.00024 1.04411 0.02685
 B8 B 1.00009 1.04383 -0.02752
 B9 B 1.04412 1.02721 -0.00040
 B10 B 1.02726 1.00021 0.04370
 B11 B 0.97284 1.00014 0.04384
 B12 B 0.95605 1.02709 -0.00017
 B13 B 0.99964 0.95578 -0.02727
 B14 B 0.99977 0.95606 0.02709
 B15 B 0.95577 0.97267 -0.00002
 B16 B 0.97261 0.99968 -0.04412
 B17 B 1.02704 0.99975 -0.04426
 B18 B 1.04383 0.97279 -0.00024
 B19 B 0.54380 0.50020 0.47260
 B20 B 0.49972 0.52716 0.45608
 B21 B 0.49964 0.47274 0.45602
 B22 B 0.52707 0.45612 0.49983
 B23 B 0.54411 0.50027 0.52696
 B24 B 0.52722 0.54418 0.49992
 B25 B 0.45607 0.49983 0.52747
 B26 B 0.50015 0.47285 0.54399
 B27 B 0.50023 0.52728 0.54405
 B28 B 0.47279 0.54391 0.50025
 B29 B 0.45576 0.49975 0.47310
 B30 B 0.47266 0.45584 0.50015
 C31 C 1.00065 1.45195 0.21691
 C32 C 1.00143 1.41832 0.19726
 C33 C 1.00261 1.37705 0.17583
 C34 C 1.03735 1.34926 0.18306
 C35 C 1.03744 1.30796 0.16471
 C36 C 1.00270 1.29387 0.13887
 C37 C 0.96821 1.32230 0.13124
 C38 C 0.96815 1.36360 0.14970
 C39 C 1.00215 1.24948 0.12058
 C40 C 0.98764 1.24199 0.07815
 C41 C 0.98703 1.20015 0.06107
 C42 C 1.00083 1.16528 0.08613
 C43 C 1.01528 1.17232 0.12836
 C44 C 1.01594 1.21416 0.14551
 C45 C 1.00067 1.12251 0.06802
 C46 C 1.00050 1.08736 0.05132
 H47 H 1.06413 1.35931 0.20334
 H48 H 1.06472 1.28707 0.17068
 H49 H 0.94078 1.31220 0.11190
 H50 H 0.94093 1.38472 0.14419
 H51 H 0.97732 1.26854 0.05800
 H52 H 0.97596 1.19501 0.02825
 H53 H 1.02600 1.14551 0.14800
 H54 H 1.02672 1.21881 0.17846
 C55 C 1.00000 0.54944 0.21837
 C56 C 1.00022 0.58371 0.19999
 C57 C 1.00067 0.62580 0.18037
 C58 C 1.00972 0.66216 0.20582
 C59 C 1.00973 0.70335 0.18751
 C60 C 1.00065 0.70879 0.14337
 C61 C 0.99163 0.67201 0.11797
 C62 C 0.99166 0.63076 0.13640
 C63 C 1.00038 0.75269 0.12412
 C64 C 0.96854 0.76422 0.09391
 C65 C 0.96808 0.80572 0.07621
 C66 C 0.99938 0.83620 0.08845
 C67 C 1.03125 0.82507 0.11836
 C68 C 1.03175 0.78361 0.13614
 C69 C 0.99948 0.87840 0.06925
 C70 C 0.99960 0.91315 0.05192
 H71 H 1.01654 0.65869 0.23995
 H72 H 1.01616 0.73101 0.20805
 H73 H 0.98503 0.67511 0.08379
 H74 H 0.98465 0.60281 0.11640
 H75 H 0.94366 0.74134 0.08440
 H76 H 0.94334 0.81403 0.05294
 H77 H 1.05585 0.84835 0.12773
 H78 H 1.05703 0.77554 0.15885
 C79 C 0.99936 1.45084 -0.21733
 C80 C 0.99887 1.41726 -0.19772
 C81 C 0.99826 1.37613 -0.17617
 C82 C 0.96085 1.35051 -0.17713
 C83 C 0.96096 1.30926 -0.15883
 C84 C 0.99859 1.29305 -0.13938
 C85 C 1.03587 1.31933 -0.13801
 C86 C 1.03569 1.36057 -0.15637
 C87 C 0.99916 1.24868 -0.12126
 C88 C 1.02041 1.24023 -0.08206
 C89 C 1.02102 1.19840 -0.06516
 C90 C 1.00048 1.16451 -0.08720
 C91 C 0.97930 1.17250 -0.12622
 C92 C 0.97864 1.21432 -0.14319
 C93 C 1.00035 1.12186 -0.06899
 C94 C 1.00024 1.08685 -0.05219
 H95 H 0.93174 1.36220 -0.19250
 H96 H 0.93160 1.29006 -0.15986
 H97 H 1.06547 1.30757 -0.12372
 H98 H 1.06495 1.37999 -0.15580
 H99 H 1.03602 1.26606 -0.06416
 H100 H 1.03728 1.19255 -0.03476
 H101 H 0.96326 1.14646 -0.14348
 H102 H 0.96252 1.21969 -0.17372
 C103 C 1.00103 0.54811 -0.21770
 C104 C 1.00174 0.58199 -0.19847
 C105 C 1.00266 0.62348 -0.17745
 C106 C 0.96987 0.63507 -0.14863
 C107 C 0.96957 0.67640 -0.13026
 C108 C 1.00201 0.70672 -0.14067
 C109 C 1.03509 0.69456 -0.16930
 C110 C 1.03536 0.65323 -0.18756
 C111 C 1.00113 0.75101 -0.12217
 C112 C 1.01138 0.78708 -0.14794
 C113 C 1.01060 0.82879 -0.13050
 C114 C 0.99957 0.83493 -0.08715
 C115 C 0.98927 0.79932 -0.06126
 C116 C 0.98997 0.75762 -0.07863
 C117 C 0.99944 0.87757 -0.06874
 C118 C 0.99944 0.91261 -0.05183
 H119 H 0.94421 0.61240 -0.14086
 H120 H 0.94342 0.68497 -0.10872
 H121 H 1.06083 0.71696 -0.17747
 H122 H 1.06083 0.64462 -0.20993
 H123 H 1.01953 0.78308 -0.18171
 H124 H 1.01862 0.85618 -0.15078
 H125 H 0.98093 0.80378 -0.02757
 H126 H 0.98244 0.73050 -0.05786
 C127 C 1.21698 0.99699 0.45101
 C128 C 1.19771 0.99649 0.41721
 C129 C 1.17643 0.99607 0.37591
 C130 C 1.17922 0.95959 0.34930
 C131 C 1.16097 0.96001 0.30802
 C132 C 1.13971 0.99702 0.29277
 C133 C 1.13656 1.03334 0.32001
 C134 C 1.15489 1.03286 0.36127
 C135 C 1.12148 0.99797 0.24843
 C136 C 1.08129 1.01740 0.24047
 C137 C 1.06427 1.01838 0.19870
 C138 C 1.08716 1.00003 0.16435
 C139 C 1.12716 0.98066 0.17185
 C140 C 1.14426 0.97965 0.21362
 C141 C 1.06885 1.00024 0.12173
 C142 C 1.05198 1.00033 0.08674
 H143 H 1.19594 0.93098 0.36026
 H144 H 1.16341 0.93135 0.28806
 H145 H 1.12087 1.06249 0.30902
 H146 H 1.15286 1.06141 0.38147
 H147 H 1.06273 1.03128 0.26663
 H148 H 1.03312 1.03322 0.19323
 H149 H 1.14508 0.96633 0.14546
 H150 H 1.17554 0.96498 0.21861
 C151 C 1.21578 0.99759 -0.45187
 C152 C 1.19596 0.99752 -0.41840
 C153 C 1.17423 0.99764 -0.37734
 C154 C 1.16636 1.03678 -0.35614
 C155 C 1.14823 1.03690 -0.31481
 C156 C 1.13779 0.99778 -0.29407
 C157 C 1.14519 0.95860 -0.31595
 C158 C 1.16337 0.95857 -0.35728
 C159 C 1.12004 0.99782 -0.24953
 C160 C 1.08674 0.96895 -0.23786
 C161 C 1.07015 0.96902 -0.19589
 C162 C 1.08662 0.99786 -0.16506
 C163 C 1.11981 1.02661 -0.17624
 C164 C 1.13646 1.02659 -0.21820
 C165 C 1.06836 0.99874 -0.12243
 C166 C 1.05156 0.99934 -0.08740
 H167 H 1.17481 1.06721 -0.37130
 H168 H 1.14236 1.06758 -0.29906
 H169 H 1.13798 0.92796 -0.30067
 H170 H 1.16971 0.92807 -0.37324
 H171 H 1.07307 0.94680 -0.26135
 H172 H 1.04422 0.94684 -0.18759
 H173 H 1.13271 1.04909 -0.15260
 H174 H 1.16250 1.04877 -0.22602
 C175 C 0.78409 1.00157 0.45146
 C176 C 0.80389 1.00209 0.41797
 C177 C 0.82541 1.00302 0.37681
 C178 C 0.82032 1.03872 0.34967
 C179 C 0.83850 1.03864 0.30838
 C180 C 0.86201 1.00275 0.29362
 C181 C 0.86755 0.96728 0.32141
 C182 C 0.84926 0.96740 0.36271
 C183 C 0.87999 1.00205 0.24919
 C184 C 0.92140 0.98529 0.24127
 C185 C 0.93820 0.98459 0.19940
 C186 C 0.91385 1.00053 0.16492
 C187 C 0.87263 1.01721 0.17238
 C188 C 0.85576 1.01797 0.21425
 C189 C 0.93179 1.00042 0.12214
 C190 C 0.94839 1.00031 0.08702
 H191 H 0.80179 1.06640 0.36022
 H192 H 0.83420 1.06666 0.28799
 H193 H 0.88505 0.93899 0.31080
 H194 H 0.85307 0.93944 0.38332
 H195 H 0.94102 0.97329 0.26753
 H196 H 0.97026 0.97180 0.19393
 H197 H 0.85355 1.02962 0.14588
 H198 H 0.82356 1.03052 0.21924
 C199 C 0.78209 1.00129 -0.45124
 C200 C 0.80068 1.00158 -0.41706
 C201 C 0.82089 1.00224 -0.37523
 C202 C 0.85665 0.97615 -0.36668
 C203 C 0.87497 0.97577 -0.32539
 C204 C 0.85760 1.00140 -0.29210
 C205 C 0.82187 1.02773 -0.30117
 C206 C 0.80367 1.02810 -0.34244
 C207 C 0.87647 1.00057 -0.24803
 C208 C 0.84954 1.00076 -0.21138
 C209 C 0.86732 1.00028 -0.16988
 C210 C 0.91218 0.99963 -0.16451
 C211 C 0.93924 0.99934 -0.20071
 C212 C 0.92155 0.99975 -0.24222
 C213 C 0.93076 0.99949 -0.12201
 C214 C 0.94782 0.99950 -0.08710
 H215 H 0.87006 0.95580 -0.39177
 H216 H 0.90216 0.95481 -0.31927
 H217 H 0.80816 1.04827 -0.27642
 H218 H 0.77597 1.04839 -0.34871
 H219 H 0.81472 1.00079 -0.21481
 H220 H 0.84611 1.00039 -0.14204
 H221 H 0.97404 0.99902 -0.19685
 H222 H 0.94312 1.00012 -0.26974
 C223 C 1.45228 1.21929 -0.00056
 C224 C 1.41781 1.20096 -0.00029
 C225 C 1.37562 1.18115 0.00023
 C226 C 1.34021 1.20484 0.01506
 C227 C 1.29887 1.18644 0.01488
 C228 C 1.29235 1.14398 -0.00016
 C229 C 1.32820 1.12027 -0.01481
 C230 C 1.36957 1.13880 -0.01466
 C231 C 1.24831 1.12461 -0.00054
 C232 C 1.24178 1.08132 0.01178
 C233 C 1.20026 1.06330 0.01184
 C234 C 1.16476 1.08821 -0.00048
 C235 C 1.17087 1.13123 -0.01293
 C236 C 1.21238 1.14936 -0.01294
 C237 C 1.12226 1.06926 -0.00059
 C238 C 1.08729 1.05203 -0.00056
 H239 H 1.34454 1.23764 0.02669
 H240 H 1.27208 1.20528 0.02694
 H241 H 1.32413 1.08769 -0.02703
 H242 H 1.39674 1.12024 -0.02639
 H243 H 1.26868 1.06161 0.02198
 H244 H 1.19581 1.02997 0.02164
 H245 H 1.14360 1.15070 -0.02272
 H246 H 1.21643 1.18258 -0.02315
 C247 C 0.54969 1.21681 -0.00122
 C248 C 0.58296 1.19681 -0.00177
 C249 C 0.62388 1.17500 -0.00256
 C250 C 0.63892 1.15372 0.03426
 C251 C 0.68008 1.13530 0.03440
 C252 C 0.70680 1.13813 -0.00228
 C253 C 0.69109 1.15904 -0.03933
 C254 C 0.64993 1.17736 -0.03942
 C255 C 0.75116 1.12011 -0.00163
 C256 C 0.78578 1.14297 -0.02055
 C257 C 0.82758 1.12611 -0.01980
 C258 C 0.83531 1.08627 -0.00013
 C259 C 0.80115 1.06330 0.01881
 C260 C 0.75934 1.08009 0.01811
 C261 C 0.87798 1.06825 -0.00013
 C262 C 0.91301 1.05159 -0.00014
 H263 H 0.61918 1.15206 0.06310
 H264 H 0.69144 1.11986 0.06357
 H265 H 0.71064 1.16122 -0.06825
 H266 H 0.63866 1.19391 -0.06804
 H267 H 0.78062 1.17412 -0.03546
 H268 H 0.85383 1.14410 -0.03457
 H269 H 0.80680 1.03228 0.03389
 H270 H 0.73331 1.06150 0.03247
 C271 C 1.44958 0.78085 0.00064
 C272 C 1.41539 0.79925 0.00046
 C273 C 1.37340 0.81895 0.00013
 C274 C 1.36880 0.86327 0.00778
 C275 C 1.32767 0.88183 0.00782
 C276 C 1.29065 0.85619 0.00030
 C277 C 1.29572 0.81171 -0.00746
 C278 C 1.33679 0.79328 -0.00753
 C279 C 1.24689 0.87563 0.00042
 C280 C 1.21179 0.85370 0.01954
 C281 C 1.17050 0.87178 0.01924
 C282 C 1.16376 0.91191 -0.00021
 C283 C 1.19843 0.93403 -0.01923
 C284 C 1.23975 0.91607 -0.01890
 C285 C 1.12152 0.93090 -0.00019
 C286 C 1.08675 0.94809 -0.00021
 H287 H 1.39692 0.88341 0.01390
 H288 H 1.32476 0.91608 0.01437
 H289 H 1.26796 0.79124 -0.01399
 H290 H 1.34001 0.75894 -0.01358
 H291 H 1.21637 0.82282 0.03519
 H292 H 1.14391 0.85455 0.03430
 H293 H 1.19349 0.96513 -0.03439
 H294 H 1.26597 0.93349 -0.03431
 C295 C 0.54713 0.78237 0.00143
 C296 C 0.58085 0.80204 0.00208
 C297 C 0.62223 0.82352 0.00299
 C298 C 0.64962 0.81802 0.03848
 C299 C 0.69103 0.83632 0.03838
 C300 C 0.70565 0.86035 0.00269
 C301 C 0.67763 0.86624 -0.03259
 C302 C 0.63622 0.84784 -0.03244
 C303 C 0.75015 0.87860 0.00199
 C304 C 0.75802 0.92023 -0.01452
 C305 C 0.79994 0.93728 -0.01524
 C306 C 0.83452 0.91298 0.00046
 C307 C 0.82711 0.87154 0.01690
 C308 C 0.78519 0.85441 0.01767
 C309 C 0.87734 0.93118 0.00032
 C310 C 0.91251 0.94800 0.00018
 H311 H 0.63916 0.79912 0.06602
 H312 H 0.71160 0.83172 0.06625
 H313 H 0.68812 0.88414 -0.06074
 H314 H 0.61542 0.85198 -0.06024
 H315 H 0.73169 0.93983 -0.02632
 H316 H 0.80536 0.96950 -0.02784
 H317 H 0.85369 0.85250 0.02912
 H318 H 0.78024 0.82206 0.03003
 C319 C 0.95121 0.49951 0.28257
 C320 C 0.91750 0.49924 0.30203
 C321 C 0.87627 0.49911 0.32349
 C322 C 0.85650 0.53820 0.33433
 C323 C 0.81515 0.53826 0.35251
 C324 C 0.79298 0.49914 0.36002
 C325 C 0.81340 0.45997 0.34955
 C326 C 0.85474 0.46001 0.33134
 C327 C 0.74851 0.49919 0.37807
 C328 C 0.73598 0.46842 0.40909
 C329 C 0.69410 0.46845 0.42596
 C330 C 0.66420 0.49916 0.41204
 C331 C 0.67625 0.52986 0.38117
 C332 C 0.71814 0.52989 0.36424
 C333 C 0.62168 0.49985 0.43064
 C334 C 0.58676 0.50019 0.44772
 H335 H 0.87283 0.56867 0.32825
 H336 H 0.80055 0.56889 0.36078
 H337 H 0.79698 0.42937 0.35444
 H338 H 0.86959 0.42957 0.32270
 H339 H 0.75875 0.44474 0.42078
 H340 H 0.68512 0.44473 0.45009
 H341 H 0.65334 0.55383 0.37028
 H342 H 0.72662 0.55361 0.33998
 C343 C 0.04846 0.50066 0.28288
 C344 C 0.08220 0.50113 0.30229
 C345 C 0.12356 0.50189 0.32346
 C346 C 0.13636 0.46722 0.34931
 C347 C 0.17768 0.46690 0.36761
 C348 C 0.20677 0.50123 0.36011
 C349 C 0.19337 0.53616 0.33450
 C350 C 0.15206 0.53643 0.31630
 C351 C 0.25108 0.50043 0.37847
 C352 C 0.28674 0.51422 0.35371
 C353 C 0.32845 0.51359 0.37106
 C354 C 0.33500 0.49919 0.41330
 C355 C 0.29980 0.48531 0.43815
 C356 C 0.25810 0.48586 0.42087
 C357 C 0.37759 0.49933 0.43171
 C358 C 0.41260 0.49950 0.44861
 H359 H 0.11468 0.44014 0.35475
 H360 H 0.18723 0.43935 0.38678
 H361 H 0.21479 0.56332 0.32864
 H362 H 0.14251 0.56337 0.29623
 H363 H 0.28243 0.52505 0.32079
 H364 H 0.35552 0.52438 0.35158
 H365 H 0.30457 0.47434 0.47099
 H366 H 0.23128 0.47555 0.44089
 C367 C 0.95132 0.49972 0.71742
 C368 C 0.91758 0.50020 0.69805
 C369 C 0.87629 0.50091 0.67674
 C370 C 0.86079 0.46409 0.65532
 C371 C 0.81950 0.46403 0.63696
 C372 C 0.79312 0.50081 0.63997
 C373 C 0.80924 0.53782 0.66113
 C374 C 0.85053 0.53783 0.67940
 C375 C 0.74880 0.50041 0.62161
 C376 C 0.71435 0.51947 0.64427
 C377 C 0.67262 0.51913 0.62696
 C378 C 0.66483 0.49975 0.58685
 C379 C 0.69881 0.48063 0.56411
 C380 C 0.74053 0.48089 0.58136
 C381 C 0.62227 0.50013 0.56838
 C382 C 0.58728 0.50033 0.55145
 H383 H 0.88032 0.43522 0.65340
 H384 H 0.80781 0.43489 0.62132
 H385 H 0.78996 0.56681 0.66345
 H386 H 0.86218 0.56646 0.69603
 H387 H 0.71959 0.53421 0.67559
 H388 H 0.64650 0.53400 0.64479
 H389 H 0.69310 0.46575 0.53291
 H390 H 0.76644 0.46642 0.56293
 C391 C 0.04854 0.49871 0.71706
 C392 C 0.08217 0.49847 0.69747
 C393 C 0.12334 0.49827 0.67592
 C394 C 0.14476 0.45920 0.66881
 C395 C 0.18612 0.45915 0.65064
 C396 C 0.20666 0.49827 0.63947
 C397 C 0.18459 0.53733 0.64619
 C398 C 0.14323 0.53730 0.66434
 C399 C 0.25117 0.49834 0.62155
 C400 C 0.28160 0.52965 0.63490
 C401 C 0.32354 0.52963 0.61811
 C402 C 0.33561 0.49831 0.58788
 C403 C 0.30566 0.46699 0.57445
 C404 C 0.26371 0.46695 0.59117
 C405 C 0.37816 0.49905 0.56936
 C406 C 0.41310 0.49952 0.55232
 H407 H 0.12982 0.42883 0.67803
 H408 H 0.20245 0.42860 0.64636
 H409 H 0.19930 0.56791 0.63738
 H410 H 0.12699 0.56773 0.66986
 H411 H 0.27311 0.55386 0.65866
 H412 H 0.34649 0.55408 0.62860
 H413 H 0.31463 0.44280 0.55080
 H414 H 0.24091 0.44277 0.57986
 C415 C 0.49854 0.71616 0.04902
 C416 C 0.49842 0.69647 0.08252
 C417 C 0.49824 0.67484 0.12358
 C418 C 0.45917 0.66753 0.14520
 C419 C 0.45911 0.64933 0.18647
 C420 C 0.49822 0.63832 0.20673
 C421 C 0.53729 0.64522 0.18445
 C422 C 0.53727 0.66341 0.14317
 C423 C 0.49828 0.62046 0.25119
 C424 C 0.52960 0.63400 0.28139
 C425 C 0.52955 0.61732 0.32330
 C426 C 0.49819 0.58701 0.33557
 C427 C 0.46685 0.57340 0.30586
 C428 C 0.46685 0.59000 0.26394
 C429 C 0.49890 0.56864 0.37810
 C430 C 0.49938 0.55176 0.41305
 H431 H 0.42881 0.67664 0.13049
 H432 H 0.42856 0.64492 0.20296
 H433 H 0.56786 0.63654 0.19893
 H434 H 0.56771 0.66908 0.12678
 H435 H 0.55384 0.65784 0.27274
 H436 H 0.55401 0.62796 0.34606
 H437 H 0.44263 0.54967 0.31499
 H438 H 0.44266 0.57854 0.24132
 C439 C 0.49907 0.71669 0.95191
 C440 C 0.49905 0.69730 0.91814
 C441 C 0.49878 0.67596 0.87682
 C442 C 0.46103 0.67537 0.85195
 C443 C 0.46128 0.65721 0.81059
 C444 C 0.49939 0.63943 0.79351
 C445 C 0.53703 0.63962 0.81902
 C446 C 0.53672 0.65786 0.86038
 C447 C 0.50000 0.62135 0.74907
 C448 C 0.52252 0.58304 0.73998
 C449 C 0.52302 0.56609 0.69812
 C450 C 0.50112 0.58720 0.66482
 C451 C 0.47872 0.62536 0.67345
 C452 C 0.47816 0.64238 0.71530
 C453 C 0.50081 0.56885 0.62218
 C454 C 0.50054 0.55196 0.58715
 H455 H 0.43152 0.68942 0.86432
 H456 H 0.43165 0.65700 0.79200
 H457 H 0.56698 0.62664 0.80660
 H458 H 0.56621 0.65849 0.87922
 H459 H 0.53917 0.56583 0.76535
 H460 H 0.54023 0.53635 0.69178
 H461 H 0.46163 0.64189 0.64787
 H462 H 0.46104 0.67223 0.72115
 C463 C 0.50328 0.28292 0.04826
 C464 C 0.50397 0.30207 0.08217
 C465 C 0.50469 0.32300 0.12369
 C466 C 0.47238 0.35235 0.13502
 C467 C 0.47177 0.37060 0.17637
 C468 C 0.50344 0.35956 0.20699
 C469 C 0.53605 0.33039 0.19508
 C470 C 0.53663 0.31225 0.15373
 C471 C 0.50219 0.37795 0.25130
 C472 C 0.51130 0.35190 0.28735
 C473 C 0.51021 0.36924 0.32906
 C474 C 0.50002 0.41278 0.33525
 C475 C 0.49085 0.43894 0.29965
 C476 C 0.49186 0.42167 0.25794
 C477 C 0.49965 0.43111 0.37790
 C478 C 0.49950 0.44802 0.41293
 H479 H 0.44729 0.36061 0.11214
 H480 H 0.44597 0.39257 0.18472
 H481 H 0.56121 0.32172 0.21770
 H482 H 0.56172 0.28946 0.14533
 H483 H 0.51879 0.31799 0.28332
 H484 H 0.51735 0.34874 0.35643
 H485 H 0.48317 0.47278 0.30413
 H486 H 0.48523 0.44267 0.23085
 C487 C 0.50298 0.28344 0.95098
 C488 C 0.50374 0.30291 0.91735
 C489 C 0.50473 0.32416 0.87609
 C490 C 0.53841 0.31565 0.84721
 C491 C 0.53820 0.33390 0.80598
 C492 C 0.50420 0.36092 0.79305
 C493 C 0.47079 0.36980 0.82255
 C494 C 0.47103 0.35144 0.86377
 C495 C 0.50327 0.37916 0.74876
 C496 C 0.49028 0.42207 0.74182
 C497 C 0.48932 0.43912 0.70009
 C498 C 0.50125 0.41354 0.66478
 C499 C 0.51418 0.37082 0.67127
 C500 C 0.51519 0.35371 0.71300
 C501 C 0.50078 0.43162 0.62211
 C502 C 0.50044 0.44832 0.58706
 H503 H 0.56459 0.29447 0.85637
 H504 H 0.56468 0.32695 0.78424
 H505 H 0.44392 0.39006 0.81338
 H506 H 0.44461 0.35795 0.88575
 H507 H 0.48143 0.44263 0.76870
 H508 H 0.47944 0.47231 0.69538
 H509 H 0.52345 0.35078 0.64412
 H510 H 0.52477 0.32039 0.71724
 C511 C 0.71731 0.95289 0.49838
 C512 C 0.69753 0.91923 0.49762
 C513 C 0.67587 0.87795 0.49668
 C514 C 0.65314 0.86328 0.53291
 C515 C 0.63468 0.82190 0.53300
 C516 C 0.63888 0.79460 0.49684
 C517 C 0.66126 0.80992 0.46036
 C518 C 0.67964 0.85130 0.46033
 C519 C 0.62070 0.75007 0.49747
 C520 C 0.64413 0.71536 0.47988
 C521 C 0.62715 0.67339 0.48074
 C522 C 0.58661 0.66558 0.49920
 C523 C 0.56304 0.69983 0.51676
 C524 C 0.57995 0.74181 0.51594
 C525 C 0.56855 0.62269 0.49948
 C526 C 0.55183 0.58747 0.49971
 H527 H 0.65036 0.88350 0.56137
 H528 H 0.61809 0.81086 0.56175
 H529 H 0.66453 0.78992 0.43183
 H530 H 0.69729 0.86229 0.43216
 H531 H 0.67583 0.72059 0.46596
 H532 H 0.64561 0.64707 0.46702
 H533 H 0.53149 0.69412 0.53090
 H534 H 0.56091 0.76789 0.52924
 C535 C 0.71875 0.05036 0.49884
 C536 C 0.70033 0.08454 0.49832
 C537 C 0.68064 0.12652 0.49759
 C538 C 0.63707 0.13160 0.50845
 C539 C 0.61863 0.17277 0.50844
 C540 C 0.64364 0.20937 0.49767
 C541 C 0.68734 0.20381 0.48662
 C542 C 0.70565 0.16268 0.48659
 C543 C 0.62439 0.25319 0.49802
 C544 C 0.64783 0.28876 0.51443
 C545 C 0.62976 0.33006 0.51462
 C546 C 0.58813 0.33632 0.49835
 C547 C 0.56457 0.30122 0.48188
 C548 C 0.58252 0.25989 0.48176
 C549 C 0.56909 0.37852 0.49902
 C550 C 0.55182 0.41324 0.49949
 H551 H 0.61746 0.10383 0.51719
 H552 H 0.58503 0.17608 0.51755
 H553 H 0.70726 0.23123 0.47757
 H554 H 0.73941 0.15909 0.47807
 H555 H 0.67991 0.28454 0.52768
 H556 H 0.64816 0.35702 0.52760
 H557 H 0.53234 0.30580 0.46910
 H558 H 0.56389 0.23330 0.46842
 C559 C 0.28257 0.95016 0.50084
 C560 C 0.30244 0.91681 0.50162
 C561 C 0.32417 0.87585 0.50270
 C562 C 0.34714 0.86130 0.46663
 C563 C 0.36566 0.82018 0.46671
 C564 C 0.36125 0.79301 0.50286
 C565 C 0.33862 0.80823 0.53918
 C566 C 0.32020 0.84935 0.53905
 C567 C 0.37946 0.74872 0.50239
 C568 C 0.35593 0.71379 0.51985
 C569 C 0.37292 0.67204 0.51913
 C570 C 0.41358 0.66466 0.50094
 C571 C 0.43726 0.69914 0.48353
 C572 C 0.42034 0.74091 0.48420
 C573 C 0.43162 0.62199 0.50073
 C574 C 0.44828 0.58696 0.50051
 H575 H 0.35008 0.88140 0.43818
 H576 H 0.38244 0.80921 0.43808
 H577 H 0.33519 0.78834 0.56771
 H578 H 0.30236 0.86025 0.56710
 H579 H 0.32413 0.71867 0.53355
 H580 H 0.35438 0.64554 0.53272
 H581 H 0.46890 0.69377 0.46958
 H582 H 0.43946 0.76716 0.47100
 C583 C 0.28059 0.04765 0.50042
 C584 C 0.29895 0.08211 0.50092
 C585 C 0.31872 0.12432 0.50169
 C586 C 0.36139 0.13029 0.48787
 C587 C 0.37987 0.17169 0.48790
 C588 C 0.35579 0.20764 0.50167
 C589 C 0.31300 0.20119 0.51567
 C590 C 0.29465 0.15983 0.51566
 C591 C 0.37509 0.25171 0.50138
 C592 C 0.35058 0.28745 0.48799
 C593 C 0.36871 0.32897 0.48789
 C594 C 0.41147 0.33527 0.50120
 C595 C 0.43609 0.29999 0.51462
 C596 C 0.41809 0.25846 0.51467
 C597 C 0.43050 0.37774 0.50070
 C598 C 0.44781 0.41268 0.50036
 H599 H 0.38025 0.10304 0.47680
 H600 H 0.41272 0.17568 0.47648
 H601 H 0.29385 0.22808 0.52704
 H602 H 0.26159 0.15556 0.52648
 H603 H 0.31759 0.28323 0.47705
 H604 H 0.34945 0.35607 0.47727
 H605 H 0.46921 0.30460 0.52513
 H606 H 0.43759 0.23172 0.52567
   
