data_POSCAR
  _audit_creation_date              2014-09-24
  _audit_creation_method            'ToBaCCo'
  _symmetry_space_group_name_H-M    'P1'
  _symmetry_Int_Tables_number       1
  _symmetry_cell_setting            triclinic
  loop_
  _symmetry_equiv_pos_as_xyz
 x,y,z
_cell_length_a 32.3858
_cell_length_b 32.3349
_cell_length_c 14.1428
_cell_angle_alpha 89.579000
_cell_angle_beta 89.552800
_cell_angle_gamma 119.786700
loop_
  _atom_site_label
  _atom_site_type_symbol
  _atom_site_fract_x
  _atom_site_fract_y
  _atom_site_fract_z
C1 C 0.34378 0.43947 0.45199
 C2 C 0.34405 0.44417 0.54827
 C3 C 0.31014 0.45713 0.56981
 N4 N 0.28907 0.46014 0.49003
 C5 C 0.30946 0.44928 0.41798
 C6 C 0.30296 0.47109 0.65994
 C7 C 0.26787 0.48357 0.68053
 C8 C 0.26682 0.50724 0.76129
 C9 C 0.22652 0.51094 0.75679
 C10 C 0.20391 0.48939 0.67345
 N11 N 0.22922 0.47253 0.62774
 C12 C 0.15961 0.48339 0.64504
 C13 C 0.14136 0.46982 0.55255
 C14 C 0.09678 0.46076 0.52405
 C15 C 0.09431 0.45217 0.42864
 C16 C 0.13747 0.45620 0.40146
 N17 N 0.16617 0.46724 0.47732
 C18 C 0.15117 0.45436 0.30669
 C19 C 0.19491 0.45723 0.28083
 C20 C 0.21457 0.46752 0.19031
 C21 C 0.25716 0.46776 0.19473
 C22 C 0.26233 0.45725 0.28768
 N23 N 0.22380 0.45011 0.33930
 C24 C 0.30144 0.45345 0.32152
 H25 H 0.36693 0.43085 0.41142
 H26 H 0.36762 0.44013 0.59656
 H27 H 0.21580 0.43757 0.40862
 H28 H 0.29237 0.52033 0.81790
 H29 H 0.21498 0.52733 0.80936
 H30 H 0.06921 0.46114 0.56720
 H31 H 0.06447 0.44477 0.38400
 H32 H 0.28156 0.47492 0.13605
 H33 H 0.21817 0.45023 0.56971
 H34 H 0.20010 0.47478 0.12771
 C35 C 0.55588 -0.35390 0.42212
 C36 C 0.55666 -0.35675 0.51893
 C37 C 0.54919 -0.32097 0.55382
 N38 N 0.54393 -0.29644 0.48131
 C39 C 0.54807 -0.31638 0.40061
 C40 C 0.54240 -0.31470 0.65058
 C41 C 0.53597 -0.27711 0.68419
 C42 C 0.51835 -0.27601 0.77347
 C43 C 0.51737 -0.23415 0.77866
 C44 C 0.53457 -0.21056 0.69266
 N45 N 0.54651 -0.23665 0.63599
 C46 C 0.54002 -0.16544 0.67042
 C47 C 0.55016 -0.14477 0.57899
 C48 C 0.55954 -0.09890 0.55797
 C49 C 0.56203 -0.09445 0.46129
 C50 C 0.55394 -0.13779 0.42640
 N51 N 0.54672 -0.16843 0.49849
 C52 C 0.54788 -0.15011 0.33003
 C53 C 0.54073 -0.19415 0.29573
 C54 C 0.52438 -0.21133 0.20609
 C55 C 0.52191 -0.25489 0.20022
 C56 C 0.53694 -0.26327 0.28639
 N57 N 0.54906 -0.22566 0.34363
 C58 C 0.54040 -0.30424 0.30842
 H59 H 0.55964 -0.37742 0.37312
 H60 H 0.56097 -0.38295 0.55911
 H61 H 0.56574 -0.22007 0.40846
 H62 H 0.50692 -0.30283 0.82900
 H63 H 0.50526 -0.22249 0.83904
 H64 H 0.56305 -0.07186 0.60712
 H65 H 0.56769 -0.06337 0.42123
 H66 H 0.51022 -0.27786 0.13932
 H67 H 0.56451 -0.22568 0.57152
 H68 H 0.51479 -0.19447 0.15078
 C69 C 1.12512 0.63136 0.50250
 C70 C 1.12370 0.63874 0.59701
 C71 C 1.15413 0.68714 0.61171
 N72 N 1.17370 0.70943 0.52878
 C73 C 1.15625 0.67534 0.46223
 C74 C 1.16129 0.70991 0.69988
 C75 C 1.19890 0.75634 0.71840
 C76 C 1.20541 0.78033 0.80281
 C77 C 1.24888 0.82165 0.79559
 C78 C 1.26745 0.82195 0.70661
 N79 N 1.23683 0.78202 0.66057
 C80 C 1.31323 0.85619 0.67291
 C81 C 1.32746 0.86123 0.57652
 C82 C 1.37292 0.89266 0.54241
 C83 C 1.37181 0.88738 0.44631
 C84 C 1.32578 0.85262 0.42433
 N85 N 1.29863 0.83726 0.50395
 C86 C 1.30950 0.83696 0.33164
 C87 C 1.26522 0.79658 0.31112
 C88 C 1.24558 0.78420 0.22169
 C89 C 1.20480 0.74049 0.23092
 C90 C 1.20066 0.72752 0.32562
 N91 N 1.23772 0.76168 0.37364
 C92 C 1.16515 0.68384 0.36469
 H93 H 1.10519 0.59750 0.46744
 H94 H 1.10256 0.61135 0.64880
 H95 H 1.24690 0.75855 0.44238
 H96 H 1.18202 0.76854 0.86423
 H97 H 1.26533 0.84805 0.85012
 H98 H 1.40371 0.91703 0.58252
 H99 H 1.40164 0.90676 0.39816
 H100 H 1.18127 0.72031 0.17426
 H101 H 1.24449 0.77001 0.59877
 H102 H 1.25969 0.80417 0.15632
 C103 C 0.90272 0.55239 0.56281
 C104 C 0.90738 0.55610 0.46593
 C105 C 0.86436 0.54873 0.43159
 N106 N 0.83355 0.54044 0.50450
 C107 C 0.85687 0.54283 0.58509
 C108 C 0.85279 0.54569 0.33441
 C109 C 0.80843 0.53849 0.30269
 C110 C 0.79085 0.52335 0.21280
 C111 C 0.74683 0.51979 0.21027
 C112 C 0.73872 0.53316 0.29850
 N113 N 0.77676 0.54522 0.35396
 C114 C 0.69757 0.53540 0.32361
 C115 C 0.68557 0.54246 0.41590
 C116 C 0.64782 0.54970 0.43814
 C117 C 0.64455 0.54923 0.53491
 C118 C 0.68028 0.54150 0.56875
 N119 N 0.70526 0.53742 0.49577
 C120 C 0.68623 0.53341 0.66472
 C121 C 0.72414 0.52709 0.69639
 C122 C 0.72595 0.50932 0.78493
 C123 C 0.76803 0.50875 0.78821
 C124 C 0.79106 0.52628 0.70161
 N125 N 0.76434 0.53796 0.64661
 C126 C 0.83648 0.53281 0.67780
 H127 H 0.92980 0.55552 0.61131
 H128 H 0.93854 0.56251 0.42536
 H129 H 0.77513 0.55630 0.58248
 H130 H 0.80763 0.51503 0.15525
 H131 H 0.72346 0.50859 0.15004
 H132 H 0.62437 0.55380 0.38964
 H133 H 0.61807 0.55278 0.57566
 H134 H 0.78028 0.49676 0.84782
 H135 H 0.78227 0.56086 0.41994
 H136 H 0.69956 0.49769 0.84124
 C137 C 0.44503 0.09604 0.43557
 C138 C 0.44286 0.09029 0.53198
 C139 C 0.44925 0.13250 0.56972
 N140 N 0.45519 0.16373 0.49949
 C141 C 0.45258 0.14157 0.41743
 C142 C 0.45464 0.14356 0.66688
 C143 C 0.45922 0.18653 0.70238
 C144 C 0.47510 0.20395 0.79214
 C145 C 0.47501 0.24628 0.79873
 C146 C 0.45890 0.25371 0.71294
 N147 N 0.44862 0.21673 0.65525
 C148 C 0.45274 0.29320 0.69178
 C149 C 0.44388 0.30527 0.60050
 C150 C 0.43370 0.34150 0.58116
 C151 C 0.43343 0.34578 0.48455
 C152 C 0.44340 0.31211 0.44777
 N153 N 0.44979 0.28747 0.51866
 C154 C 0.45132 0.30783 0.35090
 C155 C 0.46010 0.27202 0.31624
 C156 C 0.47882 0.27285 0.22723
 C157 C 0.48237 0.23239 0.22098
 C158 C 0.46556 0.20777 0.30621
 N159 N 0.45136 0.23176 0.36333
 C160 C 0.46212 0.16342 0.32702
 H161 H 0.44252 0.07009 0.38466
 H162 H 0.43846 0.05913 0.56999
 H163 H 0.43303 0.21917 0.42716
 H164 H 0.48613 0.18809 0.84695
 H165 H 0.48571 0.26908 0.85988
 H166 H 0.42825 0.36344 0.63153
 H167 H 0.42779 0.37154 0.44588
 H168 H 0.49586 0.22230 0.16038
 H169 H 0.43169 0.21076 0.59061
 H170 H 0.48933 0.30001 0.17265
 C171 C 0.63606 0.10965 0.55751
 C172 C 0.63449 0.11001 0.46068
 C173 C 0.67939 0.14420 0.42908
 N174 N 0.70857 0.16398 0.50356
 C175 C 0.68202 0.14345 0.58238
 C176 C 0.69280 0.15591 0.33282
 C177 C 0.73644 0.19580 0.30339
 C178 C 0.75470 0.20475 0.21178
 C179 C 0.79592 0.24857 0.21225
 C180 C 0.80146 0.26521 0.30402
 N181 N 0.76497 0.23305 0.35856
 C182 C 0.83727 0.31048 0.33417
 C183 C 0.84579 0.32482 0.42884
 C184 C 0.87509 0.37145 0.45767
 C185 C 0.87776 0.36987 0.55364
 C186 C 0.84992 0.32241 0.58028
 N187 N 0.83071 0.29490 0.50388
 C188 C 0.84469 0.30501 0.67333
 C189 C 0.81000 0.25850 0.70082
 C190 C 0.80639 0.23826 0.78932
 C191 C 0.76476 0.19503 0.79017
 C192 C 0.74439 0.19016 0.70182
 N193 N 0.77218 0.22890 0.64820
 C194 C 0.69871 0.15375 0.67646
 H195 H 0.60663 0.08700 0.60430
 H196 H 0.60361 0.08792 0.41851
 H197 H 0.76186 0.23745 0.58519
 H198 H 0.73962 0.18233 0.15081
 H199 H 0.81865 0.26654 0.15165
 H200 H 0.89309 0.40336 0.41412
 H201 H 0.89802 0.40024 0.59843
 H202 H 0.75036 0.17058 0.84981
 H203 H 0.75707 0.23903 0.42657
 H204 H 0.83036 0.25371 0.84800
 O205 O 0.96079 0.53684 -0.16298
 O206 O 1.04188 0.53389 0.23629
 O207 O 0.91354 0.48719 0.09254
 O208 O 1.07056 0.60328 -0.04555
 O209 O 0.98025 0.54382 0.14769
 O210 O 1.04890 0.57114 -0.18039
 O211 O 1.06736 0.58154 0.11410
 O212 O 0.90372 0.47768 -0.08200
 C213 C 0.91803 0.51258 -0.13970
 C214 C 1.07362 0.57431 0.19936
 C215 C 0.93591 0.52457 0.14129
 C216 C 1.07049 0.60747 -0.13177
 O217 O 1.03665 0.48584 -0.18761
 O218 O 0.95542 0.46002 0.20623
 O219 O 0.93254 0.41063 -0.06910
 O220 O 1.09244 0.51555 0.06793
 O221 O 1.02809 0.46339 0.13560
 O222 O 0.94865 0.45283 -0.19357
 O223 O 1.09621 0.53763 -0.10224
 O224 O 0.94107 0.41810 0.08761
 Co225 Co 0.99890 0.51091 -0.16432
 Co226 Co 1.00574 0.50483 0.13464
 Co227 Co 0.92838 0.45285 0.00659
 Co228 Co 1.07474 0.55447 0.00692
 O229 O 0.99992 0.50376 -0.00949
 C230 C 1.07988 0.50740 -0.16869
 C231 C 0.93315 0.41994 0.17173
 C232 C 0.93048 0.41299 -0.15505
 C233 C 1.07100 0.47929 0.11937
 O234 O 0.45393 0.41389 -0.12604
 O235 O 0.45489 0.50416 0.17782
 O236 O 0.48784 0.41163 0.07827
 O237 O 0.41333 0.53141 -0.08739
 O238 O 0.49515 0.45775 0.19181
 O239 O 0.41560 0.46631 -0.13055
 O240 O 0.40829 0.48443 0.05568
 O241 O 0.51904 0.41657 -0.08058
 C242 C 0.48029 0.39585 -0.12376
 C243 C 0.41341 0.48456 0.14319
 C244 C 0.48192 0.41676 0.16296
 C245 C 0.39934 0.49491 -0.14270
 O246 O 0.49802 0.53750 -0.19864
 O247 O 0.57629 0.52787 0.11519
 O248 O 0.58349 0.50411 -0.06610
 O249 O 0.46991 0.57369 0.07796
 O250 O 0.53706 0.57809 0.10360
 O251 O 0.53693 0.48778 -0.18894
 O252 O 0.50248 0.58135 -0.08125
 O253 O 0.57767 0.46107 0.08278
 Co254 Co 0.47750 0.47767 -0.14831
 Co255 Co 0.51455 0.51595 0.13580
 Co256 Co 0.53349 0.46178 0.00967
 Co257 Co 0.45729 0.52978 -0.01472
 O258 O 0.49538 0.49592 -0.00426
 C259 C 0.50937 0.57768 -0.16667
 C260 C 0.59327 0.50010 0.13113
 C261 C 0.57818 0.50375 -0.15433
 C262 C 0.51027 0.59527 0.11441
 O263 O 0.58187 0.03851 -0.11766
 O264 O 0.50161 -0.04421 0.18725
 O265 O 0.58632 0.08354 0.06394
 O266 O 0.46944 -0.11873 -0.07547
 O267 O 0.54672 0.04515 0.18795
 O268 O 0.53363 -0.05075 -0.11873
 O269 O 0.51722 -0.07512 0.06300
 O270 O 0.57515 0.10080 -0.09617
 C271 C 0.59788 0.08218 -0.13014
 C272 C 0.51837 -0.06886 0.15102
 C273 C 0.58525 0.07548 0.15025
 C274 C 0.50667 -0.09566 -0.13087
 O275 O 0.46051 -0.04284 -0.18772
 O276 O 0.47079 0.04950 0.12689
 O277 O 0.48485 0.07105 -0.06852
 O278 O 0.42933 -0.10227 0.09133
 O279 O 0.42314 -0.04141 0.13397
 O280 O 0.50634 0.04367 -0.18789
 O281 O 0.41840 -0.07962 -0.06607
 O282 O 0.53152 0.11742 0.06922
 Co283 Co 0.51972 -0.00240 -0.14163
 Co284 Co 0.48670 0.00193 0.14610
 Co285 Co 0.53247 0.07183 0.00081
 Co286 Co 0.47118 -0.07189 -0.00626
 O287 O 0.50230 0.00007 0.00030
 C288 C 0.42073 -0.06993 -0.15121
 C289 C 0.49657 0.09501 0.12957
 C290 C 0.48547 0.06504 -0.15560
 C291 C 0.40758 -0.08541 0.13599
 C292 C 1.12175 0.45708 0.23216
 C293 C 1.09780 0.46382 0.17558
 C294 C 0.53181 0.66366 0.23776
 C295 C 0.52271 0.63378 0.17850
 C296 C 0.33966 -0.13824 0.25815
 C297 C 0.36900 -0.11500 0.19850
 C298 C 0.88498 0.54332 0.26403
 C299 C 0.90935 0.53764 0.20557
 C300 C 0.45747 0.34555 0.28519
 C301 C 0.46621 0.37746 0.22914
 C302 C 0.65823 0.12695 0.26181
 C303 C 0.62642 0.10288 0.20807
 C304 C 0.46175 0.11419 -0.27228
 C305 C 0.47064 0.09017 -0.21913
 C306 C 0.65063 0.52596 -0.27171
 C307 C 0.61826 0.51730 -0.21713
 C308 C 0.87529 0.33857 -0.25731
 C309 C 0.90127 0.37108 -0.20777
 C310 C 0.52988 -0.14078 -0.25599
 C311 C 0.51984 -0.12042 -0.19713
 C312 C 0.33469 0.47745 -0.27088
 C313 C 0.36345 0.48462 -0.21091
 C314 C 1.13107 0.68252 -0.22906
 C315 C 1.10281 0.65133 -0.17778
 C316 C 0.86155 0.52624 -0.25171
 C317 C 0.88529 0.51995 -0.19448
 C318 C 0.46056 0.32498 -0.23793
 C319 C 0.46898 0.35566 -0.18139
 C320 C 0.66717 0.12937 -0.25223
 C321 C 0.63704 0.10826 -0.19301
 C322 C 1.13370 0.49232 -0.28895
 C323 C 1.11069 0.49988 -0.23105
 C324 C 0.53533 0.64984 -0.28608
 C325 C 0.52583 0.61779 -0.23027
 C326 C 0.34715 -0.11644 -0.26260
 C327 C 0.37955 -0.09390 -0.20951
 C328 C 0.54161 -0.11882 0.26489
 C329 C 0.53309 -0.09463 0.21208
 C330 C 0.33914 0.46054 0.25567
 C331 C 0.37254 0.46966 0.20396
 C332 C 1.13419 0.64579 0.30286
 C333 C 1.10677 0.61289 0.25572
 C334 C 0.47337 0.14048 0.25234
 C335 C 0.48384 0.12064 0.19360
 C336 C 0.66258 0.52484 0.25159
 C337 C 0.63177 0.51416 0.19457
 C338 C 0.86928 0.34557 0.26715
 C339 C 0.89856 0.37891 0.22196
   
