data_POSCAR
  _audit_creation_date              2014-09-24
  _audit_creation_method            'ToBaCCo'
  _symmetry_space_group_name_H-M    'P1'
  _symmetry_Int_Tables_number       1
  _symmetry_cell_setting            triclinic
  loop_
  _symmetry_equiv_pos_as_xyz
 x,y,z
_cell_length_a 54.8358
_cell_length_b 54.8003
_cell_length_c 54.8583
_cell_angle_alpha 90.002100
_cell_angle_beta 89.955500
_cell_angle_gamma 89.988100
loop_
  _atom_site_label
  _atom_site_type_symbol
  _atom_site_fract_x
  _atom_site_fract_y
  _atom_site_fract_z
C1 C 0.21110 0.51404 1.03033
 H2 H 0.20962 0.52740 1.01588
 C3 C 0.19440 0.51424 1.04952
 H4 H 0.17995 0.52758 1.04861
 C5 C 0.23092 0.47952 1.04681
 H6 H 0.24496 0.46578 1.04558
 C7 C 0.21489 0.47925 1.06661
 H8 H 0.21812 0.46569 1.08051
 N9 N 0.22893 0.49692 1.02931
 C10 C 0.28503 0.53010 0.98392
 H11 H 0.28531 0.51741 0.96881
 C12 C 0.30087 0.55002 0.98407
 H13 H 0.31339 0.55259 0.96902
 C14 C 0.26896 0.54159 1.02238
 H15 H 0.25673 0.53801 1.03741
 C16 C 0.28478 0.56155 1.02346
 H17 H 0.28441 0.57344 1.03923
 Zn18 Zn 0.24979 0.49803 1.00179
 N19 N 0.26937 0.52638 1.00278
 C20 C 0.22879 0.51800 0.95882
 N21 N 0.22956 0.49823 0.97381
 C22 C 0.21479 0.47865 0.97005
 C23 C 0.19885 0.47819 0.95022
 C24 C 0.21293 0.51840 0.93892
 C25 C 0.28699 0.46847 1.02030
 C26 C 0.30378 0.44933 1.02071
 C27 C 0.28900 0.43648 0.98126
 C28 C 0.27223 0.45566 0.98177
 N29 N 0.27135 0.47104 1.00123
 H30 H 0.24011 0.53369 0.96248
 H31 H 0.21537 0.46342 0.98258
 H32 H 0.18709 0.46253 0.94760
 H33 H 0.21258 0.53425 0.92714
 H34 H 0.28642 0.48139 1.03520
 H35 H 0.31611 0.44755 1.03601
 H36 H 0.28946 0.42435 0.96568
 H37 H 0.26024 0.45845 0.96642
 C38 C 0.30098 0.56591 1.00412
 C39 C 0.19594 0.49671 1.06841
 C40 C 0.30493 0.43309 1.00097
 C41 C 0.19772 0.49830 0.93443
 C42 C 0.78653 0.52264 -0.03458
 H43 H 0.78591 0.53766 -0.02180
 C44 C 0.80315 0.52303 -0.05384
 H45 H 0.81535 0.53844 -0.05580
 C46 C 0.77204 0.48378 -0.04686
 H47 H 0.76023 0.46832 -0.04376
 C48 C 0.78859 0.48330 -0.06623
 H49 H 0.78905 0.46761 -0.07822
 N50 N 0.77128 0.50331 -0.03156
 C51 C 0.71540 0.53476 0.01556
 H52 H 0.71618 0.52215 0.03071
 C53 C 0.69892 0.55416 0.01601
 H54 H 0.68700 0.55642 0.03160
 C55 C 0.72927 0.54646 -0.02367
 H56 H 0.74074 0.54309 -0.03932
 C57 C 0.71282 0.56592 -0.02411
 H58 H 0.71209 0.57768 -0.03996
 Zn59 Zn 0.75080 0.50362 -0.00382
 N60 N 0.73032 0.53141 -0.00397
 C61 C 0.77232 0.52264 0.03957
 N62 N 0.77162 0.50362 0.02365
 C63 C 0.78715 0.48442 0.02585
 C64 C 0.80407 0.48366 0.04480
 C65 C 0.78903 0.52266 0.05879
 C66 C 0.71444 0.47367 -0.02266
 C67 C 0.69770 0.45452 -0.02326
 C68 C 0.71326 0.44063 0.01552
 C69 C 0.72979 0.46004 0.01535
 N70 N 0.73011 0.47602 -0.00362
 H71 H 0.76039 0.53812 0.03708
 H72 H 0.78646 0.46973 0.01269
 H73 H 0.81608 0.46805 0.04634
 H74 H 0.78967 0.53820 0.07096
 H75 H 0.71489 0.48684 -0.03734
 H76 H 0.68556 0.45287 -0.03872
 H77 H 0.71290 0.42842 0.03104
 H78 H 0.74191 0.46261 0.03064
 C79 C 0.69738 0.56992 -0.00408
 C80 C 0.80442 0.50310 -0.06986
 C81 C 0.69682 0.43776 -0.00391
 C82 C 0.80529 0.50303 0.06152
 C83 C -0.02164 0.28662 0.47113
 H84 H -0.03344 0.28962 0.48666
 C85 C -0.02304 0.30209 0.45099
 H86 H -0.03567 0.31716 0.45214
 C87 C 0.01034 0.26425 0.45280
 H88 H 0.02343 0.24953 0.45367
 C89 C 0.00946 0.27912 0.43213
 H90 H 0.02151 0.27457 0.41723
 N91 N -0.00506 0.26826 0.47176
 C92 C -0.03152 0.21376 0.52301
 H93 H -0.01711 0.21420 0.53646
 C94 C -0.05039 0.19682 0.52514
 H95 H -0.05059 0.18451 0.54057
 C96 C -0.04845 0.22919 0.48638
 H97 H -0.04731 0.24148 0.47102
 C98 C -0.06765 0.21250 0.48777
 H99 H -0.08110 0.21209 0.47334
 Zn100 Zn -0.00318 0.24983 0.50079
 N101 N -0.03083 0.22944 0.50381
 C102 C -0.01977 0.27295 0.54404
 N103 N -0.00176 0.27231 0.52700
 C104 C 0.01674 0.28880 0.52731
 C105 C 0.01815 0.30626 0.54578
 C106 C -0.01938 0.29046 0.56254
 C107 C 0.02328 0.20914 0.48568
 C108 C 0.04251 0.19246 0.48485
 C109 C 0.06449 0.21760 0.51352
 C110 C 0.04459 0.23350 0.51422
 N111 N 0.02460 0.22919 0.50020
 H112 H -0.03481 0.26028 0.54301
 H113 H 0.03045 0.28840 0.51312
 H114 H 0.03352 0.31863 0.54595
 H115 H -0.03433 0.29098 0.57542
 H116 H 0.00704 0.20592 0.47498
 H117 H 0.04055 0.17629 0.47371
 H118 H 0.08040 0.22189 0.52435
 H119 H 0.04526 0.24921 0.52602
 C120 C -0.06865 0.19582 0.50721
 C121 C -0.00721 0.29881 0.43087
 C122 C 0.06362 0.19657 0.49883
 C123 C -0.00016 0.30743 0.56372
 C124 C 0.98633 0.71166 0.52591
 H125 H 0.97315 0.70947 0.51140
 C126 C 0.98640 0.69545 0.54550
 H127 H 0.97337 0.68062 0.54561
 C128 C 1.02005 0.73302 0.54238
 H129 H 1.03342 0.74739 0.54093
 C130 C 1.02053 0.71743 0.56255
 H131 H 1.03396 0.72052 0.57665
 N132 N 1.00292 0.73003 0.52471
 C133 C 0.96834 0.78418 0.47805
 H134 H 0.98090 0.78446 0.46283
 C135 C 0.94833 0.79993 0.47834
 H136 H 0.94561 0.81239 0.46327
 C137 C 0.95739 0.76837 0.51676
 H138 H 0.96126 0.75637 0.53190
 C139 C 0.93728 0.78396 0.51790
 H140 H 0.92556 0.78352 0.53379
 Zn141 Zn 1.00135 0.74999 0.49659
 N142 N 0.97248 0.76883 0.49708
 C143 C 0.98206 0.72632 0.45464
 N144 N 1.00178 0.72867 0.46946
 C145 C 1.02180 0.71434 0.46657
 C146 C 1.02269 0.69701 0.44796
 C147 C 0.98202 0.70895 0.43599
 C148 C 1.03001 0.78852 0.51385
 C149 C 1.04885 0.80564 0.51377
 C150 C 1.06226 0.78960 0.47498
 C151 C 1.04331 0.77259 0.47594
 N152 N 1.02783 0.77216 0.49534
 H153 H 0.96602 0.73735 0.45772
 H154 H 1.03706 0.71629 0.47890
 H155 H 1.03903 0.68615 0.44581
 H156 H 0.96582 0.70688 0.42493
 H157 H 1.01702 0.78826 0.52870
 H158 H 1.05030 0.81854 0.52865
 H159 H 1.07453 0.78960 0.45951
 H160 H 1.04084 0.76001 0.46101
 C161 C 0.93267 0.80015 0.49860
 C162 C 1.00358 0.69824 0.56430
 C163 C 1.06526 0.80630 0.49414
 C164 C 1.00251 0.69389 0.43249
 C165 C 0.47234 -0.01807 0.28506
 H166 H 0.48395 -0.03395 0.28342
 C167 C 0.45287 -0.01820 0.30146
 H168 H 0.44961 -0.03426 0.31249
 C169 C 0.46314 0.02252 0.27331
 H170 H 0.46755 0.03853 0.26269
 C171 C 0.44363 0.02327 0.28968
 H172 H 0.43281 0.03974 0.29114
 N173 N 0.47692 0.00197 0.27119
 C174 C 0.52395 -0.03276 0.21746
 H175 H 0.54020 -0.02176 0.21959
 C176 C 0.52410 -0.05258 0.20151
 H177 H 0.54063 -0.05616 0.19134
 C178 C 0.48250 -0.03977 0.22714
 H179 H 0.46624 -0.03449 0.23695
 C180 C 0.48157 -0.05932 0.21082
 H181 H 0.46462 -0.06929 0.20922
 Zn182 Zn 0.50454 0.00087 0.25054
 N183 N 0.50353 -0.02705 0.23026
 C184 C 0.54571 -0.02041 0.27390
 N185 N 0.53219 0.00023 0.27119
 C186 C 0.53676 0.02047 0.28477
 C187 C 0.55585 0.02064 0.30159
 C188 C 0.56490 -0.02108 0.29060
 C189 C 0.48486 0.03201 0.21582
 C190 C 0.48416 0.05092 0.19883
 C191 C 0.52567 0.06107 0.20949
 C192 C 0.52543 0.04216 0.22661
 N193 N 0.50516 0.02814 0.22946
 H194 H 0.54125 -0.03663 0.26366
 H195 H 0.52529 0.03641 0.28274
 H196 H 0.55895 0.03680 0.31252
 H197 H 0.57546 -0.03767 0.29253
 H198 H 0.46915 0.02031 0.21816
 H199 H 0.46754 0.05390 0.18863
 H200 H 0.54223 0.07152 0.20701
 H201 H 0.54166 0.03826 0.23706
 C202 C 0.50263 -0.06624 0.19769
 C203 C 0.43829 0.00270 0.30398
 C204 C 0.50485 0.06563 0.19522
 C205 C 0.57010 -0.00040 0.30479
 C206 C 0.52693 -0.02067 0.71695
 H207 H 0.51470 -0.03609 0.71843
 C208 C 0.54661 -0.02156 0.70080
 H209 H 0.54939 -0.03773 0.68980
 C210 C 0.53750 0.01954 0.72880
 H211 H 0.53356 0.03575 0.73929
 C212 C 0.55727 0.01951 0.71274
 H213 H 0.56873 0.03555 0.71148
 N214 N 0.52291 -0.00045 0.73074
 C215 C 0.47442 -0.03084 0.78595
 H216 H 0.45902 -0.01870 0.78372
 C217 C 0.47326 -0.04979 0.80288
 H218 H 0.45660 -0.05236 0.81314
 C219 C 0.51466 -0.04205 0.77494
 H220 H 0.53097 -0.03855 0.76445
 C221 C 0.51446 -0.06100 0.79199
 H222 H 0.53076 -0.07187 0.79437
 Zn223 Zn 0.49500 -0.00022 0.75107
 N224 N 0.49476 -0.02749 0.77220
 C225 C 0.45297 -0.02066 0.72849
 N226 N 0.46749 -0.00060 0.73024
 C227 C 0.46373 0.01929 0.71591
 C228 C 0.44434 0.01980 0.69944
 C229 C 0.43352 -0.02103 0.71206
 C230 C 0.51496 0.03157 0.78529
 C231 C 0.51594 0.05133 0.80128
 C232 C 0.47495 0.06217 0.78929
 C233 C 0.47492 0.04244 0.77314
 N234 N 0.49484 0.02773 0.77133
 H235 H 0.45672 -0.03661 0.73943
 H236 H 0.47592 0.03475 0.71723
 H237 H 0.44172 0.03573 0.68805
 H238 H 0.42212 -0.03712 0.71090
 H239 H 0.53028 0.01920 0.78396
 H240 H 0.53210 0.05414 0.81228
 H241 H 0.45897 0.07371 0.79066
 H242 H 0.45881 0.03861 0.76249
 C243 C 0.49356 -0.06509 0.80632
 C244 C 0.56202 -0.00123 0.69848
 C245 C 0.49572 0.06683 0.80348
 C246 C 0.42901 -0.00060 0.69731
 C247 C 0.28887 0.02054 0.46920
 H248 H 0.28879 0.03455 0.48310
 C249 C 0.30609 0.02138 0.45045
 H250 H 0.31920 0.03614 0.44998
 C251 C 0.27258 -0.01633 0.45361
 H252 H 0.25984 -0.03127 0.45515
 C253 C 0.28962 -0.01633 0.43469
 H254 H 0.28947 -0.03106 0.42152
 N255 N 0.27235 0.00206 0.47027
 C256 C 0.21073 0.02859 0.51276
 H257 H 0.20842 0.01294 0.52455
 C258 C 0.19378 0.04755 0.51340
 H259 H 0.17829 0.04596 0.52553
 C260 C 0.23306 0.04855 0.48165
 H261 H 0.24813 0.04871 0.46899
 C262 C 0.21682 0.06821 0.48207
 H263 H 0.22012 0.08352 0.47006
 Zn264 Zn 0.25038 0.00157 0.49696
 N265 N 0.22985 0.02934 0.49702
 C266 C 0.26832 0.01930 0.54214
 N267 N 0.26941 0.00080 0.52564
 C268 C 0.28533 -0.01802 0.52838
 C269 C 0.30090 -0.01886 0.54846
 C270 C 0.28377 0.01932 0.56239
 C271 C 0.21470 -0.02797 0.47569
 C272 C 0.19786 -0.04699 0.47415
 C273 C 0.21162 -0.06139 0.51342
 C274 C 0.22839 -0.04222 0.51408
 N275 N 0.22966 -0.02602 0.49535
 H276 H 0.25581 0.03429 0.53940
 H277 H 0.28608 -0.03225 0.51473
 H278 H 0.31372 -0.03380 0.55016
 H279 H 0.28280 0.03422 0.57532
 H280 H 0.21578 -0.01456 0.46125
 H281 H 0.18641 -0.04834 0.45815
 H282 H 0.21046 -0.07364 0.52885
 H283 H 0.23986 -0.03993 0.52991
 C284 C 0.19666 0.06785 0.49797
 C285 C 0.30663 0.00273 0.43293
 C286 C 0.19597 -0.06394 0.49329
 C287 C 0.30038 0.00010 0.56567
 C288 C 0.71297 0.01611 0.53545
 H289 H 0.71353 0.03092 0.52242
 C290 C 0.69624 0.01671 0.55462
 H291 H 0.68387 0.03204 0.55620
 C292 C 0.72777 -0.02235 0.54853
 H293 H 0.73974 -0.03777 0.54581
 C294 C 0.71116 -0.02260 0.56786
 H295 H 0.71085 -0.03804 0.58017
 N296 N 0.72846 -0.00309 0.53289
 C297 C 0.78608 0.02701 0.48705
 H298 H 0.78589 0.01379 0.47240
 C299 C 0.80288 0.04613 0.48668
 H300 H 0.81531 0.04771 0.47142
 C301 C 0.77009 0.04077 0.52476
 H302 H 0.75772 0.03826 0.53988
 C303 C 0.78663 0.06017 0.52515
 H304 H 0.78673 0.07244 0.54061
 Zn305 Zn 0.74935 -0.00288 0.50541
 N306 N 0.77006 0.02474 0.50583
 C307 C 0.72893 0.01651 0.46171
 N308 N 0.72902 -0.00255 0.47759
 C309 C 0.71332 -0.02156 0.47498
 C310 C 0.69685 -0.02207 0.45562
 C311 C 0.71266 0.01680 0.44212
 C312 C 0.78510 -0.03367 0.52451
 C313 C 0.80170 -0.05297 0.52493
 C314 C 0.78707 -0.06548 0.48533
 C315 C 0.77059 -0.04603 0.48577
 N316 N 0.76986 -0.03065 0.50522
 H317 H 0.74107 0.03177 0.46449
 H318 H 0.71356 -0.03632 0.48808
 H319 H 0.68474 -0.03756 0.45374
 H320 H 0.71250 0.03238 0.42998
 H321 H 0.78441 -0.02093 0.53956
 H322 H 0.81339 -0.05519 0.54066
 H323 H 0.78778 -0.07711 0.46940
 H324 H 0.75887 -0.04289 0.47026
 C325 C 0.80341 0.06296 0.50598
 C326 C 0.69512 -0.00288 0.57107
 C327 C 0.80301 -0.06911 0.50506
 C328 C 0.69624 -0.00263 0.43893
 C329 C 0.48592 0.21171 1.02697
 H330 H 0.47297 0.21040 1.01216
 C331 C 0.48575 0.19433 1.04555
 H332 H 0.47245 0.17973 1.04513
 C333 C 0.51943 0.23203 1.04521
 H334 H 0.53291 0.24638 1.04472
 C335 C 0.51965 0.21525 1.06439
 H336 H 0.53326 0.21688 1.07859
 N337 N 0.50267 0.23000 1.02703
 C338 C 0.47325 0.28862 0.98217
 H339 H 0.48721 0.28977 0.96827
 C340 C 0.45363 0.30482 0.98183
 H341 H 0.45253 0.31845 0.96758
 C342 C 0.45824 0.26999 1.01818
 H343 H 0.46029 0.25656 1.03246
 C344 C 0.43849 0.28610 1.01875
 H345 H 0.42524 0.28478 1.03334
 Zn346 Zn 0.50286 0.25107 0.99970
 N347 N 0.47504 0.27146 0.99998
 C348 C 0.48620 0.23374 0.95362
 N349 N 0.50315 0.23108 0.97151
 C350 C 0.51992 0.21283 0.97065
 C351 C 0.51991 0.19617 0.95139
 C352 C 0.48580 0.21775 0.93381
 C353 C 0.53129 0.28879 1.01833
 C354 C 0.55011 0.30589 1.01895
 C355 C 0.56681 0.28776 0.98242
 C356 C 0.54766 0.27092 0.98254
 N357 N 0.53039 0.27177 1.00033
 H358 H 0.47272 0.24803 0.95475
 H359 H 0.53294 0.21087 0.98533
 H360 H 0.53290 0.18130 0.95164
 H361 H 0.47235 0.22052 0.91965
 H362 H 0.51711 0.28925 1.03205
 H363 H 0.55052 0.31919 1.03353
 H364 H 0.58003 0.28720 0.96776
 H365 H 0.54632 0.25756 0.96811
 C366 C 0.43601 0.30372 1.00035
 C367 C 0.50284 0.19596 1.06450
 C368 C 0.56807 0.30571 1.00068
 C369 C 0.50259 0.19839 0.93262
 C370 C 0.47799 0.78832 -0.02488
 H371 H 0.46561 0.78935 -0.00955
 C372 C 0.47660 0.80561 -0.04351
 H373 H 0.46293 0.81985 -0.04259
 C374 C 0.51136 0.76890 -0.04437
 H375 H 0.52533 0.75503 -0.04435
 C376 C 0.51035 0.78559 -0.06360
 H377 H 0.52349 0.78431 -0.07829
 N378 N 0.49526 0.77051 -0.02555
 C379 C 0.46953 0.71155 0.02125
 H380 H 0.48421 0.71077 0.03438
 C381 C 0.45037 0.69486 0.02267
 H382 H 0.45023 0.68173 0.03740
 C383 C 0.45213 0.72978 -0.01381
 H384 H 0.45314 0.74315 -0.02825
 C385 C 0.43278 0.71320 -0.01329
 H386 H 0.41916 0.71399 -0.02754
 Zn387 Zn 0.49733 0.74966 0.00192
 N388 N 0.46995 0.72872 0.00338
 C389 C 0.48446 0.76633 0.04964
 N390 N 0.49899 0.76992 0.02987
 C391 C 0.51456 0.78918 0.02875
 C392 C 0.51570 0.80598 0.04783
 C393 C 0.48544 0.78236 0.06941
 C394 C 0.52621 0.71293 -0.01839
 C395 C 0.54568 0.69663 -0.02004
 C396 C 0.56262 0.71437 0.01654
 C397 C 0.54293 0.73056 0.01731
 N398 N 0.52525 0.72954 -0.00002
 H399 H 0.47194 0.75116 0.05015
 H400 H 0.52569 0.79180 0.01267
 H401 H 0.52756 0.82164 0.04593
 H402 H 0.47407 0.77872 0.08512
 H403 H 0.51169 0.71229 -0.03171
 H404 H 0.54621 0.68388 -0.03509
 H405 H 0.57612 0.71506 0.03091
 H406 H 0.54153 0.74356 0.03206
 C407 C 0.43170 0.69538 0.00513
 C408 C 0.49299 0.80439 -0.06312
 C409 C 0.56415 0.69701 -0.00228
 C410 C 0.50099 0.80277 0.06862
 C411 C 1.02562 0.48010 0.21031
 H412 H 1.00961 0.46915 0.20673
 C413 C 1.04528 0.47946 0.19418
 H414 H 1.04395 0.46818 0.17806
 C415 C 1.04586 0.50913 0.23507
 H416 H 1.04588 0.52087 0.25089
 C417 C 1.06614 0.50874 0.21963
 H418 H 1.08177 0.51992 0.22413
 N419 N 1.02616 0.49489 0.23018
 C420 C 0.97679 0.46476 0.28459
 H421 H 0.96299 0.47884 0.28544
 C422 C 0.97546 0.44467 0.30019
 H423 H 0.96055 0.44337 0.31308
 C424 C 1.01364 0.44993 0.26748
 H425 H 1.02867 0.45225 0.25494
 C426 C 1.01318 0.42971 0.28296
 H427 H 1.02775 0.41640 0.28199
 Zn428 Zn 0.99770 0.49570 0.24961
 N429 N 0.99564 0.46698 0.26862
 C430 C 0.95290 0.48103 0.22784
 N431 N 0.97082 0.49819 0.22807
 C432 C 0.97102 0.51678 0.21166
 C433 C 0.95254 0.51883 0.19430
 C434 C 0.93408 0.48235 0.21075
 C435 C 1.01423 0.52096 0.29056
 C436 C 1.01519 0.53956 0.30792
 C437 C 0.98409 0.56120 0.28544
 C438 C 0.98346 0.54201 0.26870
 N439 N 0.99857 0.52249 0.27141
 H440 H 0.95342 0.46598 0.24052
 H441 H 0.98576 0.52990 0.21192
 H442 H 0.95295 0.53390 0.18156
 H443 H 0.92029 0.46821 0.21053
 H444 H 1.02584 0.50511 0.29244
 H445 H 1.02777 0.53807 0.32305
 H446 H 0.97187 0.57656 0.28314
 H447 H 0.97074 0.54270 0.25372
 C448 C 0.99397 0.42698 0.29965
 C449 C 1.06598 0.49394 0.19867
 C450 C 1.00001 0.56002 0.30541
 C451 C 0.93380 0.50137 0.19359
 C452 C -0.02613 0.48413 0.78593
 H453 H -0.01308 0.46933 0.78555
 C454 C -0.04553 0.48351 0.80242
 H455 H -0.04733 0.46814 0.81470
 C456 C -0.03901 0.52263 0.77109
 H457 H -0.03615 0.53810 0.75925
 C458 C -0.05851 0.52289 0.78747
 H459 H -0.07081 0.53835 0.78767
 N460 N -0.02347 0.50328 0.77038
 C461 C 0.01991 0.47581 0.70970
 H462 H 0.03305 0.49049 0.70854
 C463 C 0.01997 0.45733 0.69221
 H464 H 0.03327 0.45771 0.67761
 C465 C -0.01387 0.45775 0.72978
 H466 H -0.02745 0.45828 0.74402
 C467 C -0.01410 0.43858 0.71298
 H468 H -0.02774 0.42437 0.71450
 Zn469 Zn 0.00380 0.50303 0.74914
 N470 N 0.00311 0.47578 0.72794
 C471 C 0.04751 0.48280 0.76837
 N472 N 0.03190 0.50209 0.76896
 C473 C 0.03505 0.52077 0.78496
 C474 C 0.05468 0.52067 0.80110
 C475 C 0.06727 0.48182 0.78442
 C476 C -0.01551 0.53519 0.71451
 C477 C -0.01576 0.55493 0.69844
 C478 C 0.02491 0.56540 0.71178
 C479 C 0.02420 0.54573 0.72795
 N480 N 0.00414 0.53116 0.72909
 H481 H 0.04441 0.46796 0.75578
 H482 H 0.02209 0.53566 0.78529
 H483 H 0.05672 0.53554 0.81394
 H484 H 0.07950 0.46632 0.78386
 H485 H -0.03094 0.52292 0.71529
 H486 H -0.03149 0.55787 0.68688
 H487 H 0.04105 0.57675 0.71089
 H488 H 0.03993 0.54178 0.73912
 C489 C 0.00281 0.43845 0.69380
 C490 C -0.06200 0.50309 0.80332
 C491 C 0.00471 0.57017 0.69685
 C492 C 0.07099 0.50093 0.80108
 C493 C 0.12277 0.14417 0.49810
 C494 C 0.10830 0.14793 0.47725
 C495 C 0.08955 0.16520 0.47733
 C496 C 0.08430 0.17885 0.49842
 C497 C 0.09881 0.17512 0.51924
 C498 C 0.11792 0.15826 0.51899
 C499 C 0.14240 0.12528 0.49822
 C500 C 0.14798 0.11235 0.51966
 C501 C 0.16594 0.09427 0.51970
 C502 C 0.17847 0.08812 0.49817
 C503 C 0.17300 0.10113 0.47675
 C504 C 0.15541 0.11961 0.47684
 H505 H 0.07919 0.16780 0.46075
 H506 H 0.09522 0.18491 0.53599
 H507 H 0.16991 0.08511 0.53671
 H508 H 0.18193 0.09680 0.45970
 H509 H 0.12888 0.15633 0.53527
 H510 H 0.13819 0.11581 0.53644
 H511 H 0.11112 0.13725 0.46090
 H512 H 0.15206 0.12942 0.46005
 C513 C 0.64265 0.62616 -0.00457
 C514 C 0.64617 0.61122 -0.02508
 C515 C 0.66431 0.59332 -0.02510
 C516 C 0.67908 0.58980 -0.00449
 C517 C 0.67572 0.60488 0.01595
 C518 C 0.65778 0.62302 0.01585
 C519 C 0.62277 0.64445 -0.00422
 C520 C 0.62703 0.66831 0.00409
 C521 C 0.60812 0.68544 0.00452
 C522 C 0.58447 0.67898 -0.00307
 C523 C 0.58029 0.65500 -0.01123
 C524 C 0.59925 0.63800 -0.01194
 H525 H 0.66640 0.58181 -0.04102
 H526 H 0.68697 0.60261 0.03200
 H527 H 0.61212 0.70382 0.01054
 H528 H 0.56225 0.64916 -0.01668
 H529 H 0.65532 0.63420 0.03194
 H530 H 0.64508 0.67377 0.00994
 H531 H 0.63484 0.61341 -0.04110
 H532 H 0.59541 0.61961 -0.01807
 C533 C 0.87528 -0.14633 0.50236
 C534 C 0.87912 -0.15974 0.48087
 C535 C 0.89757 -0.17733 0.47969
 C536 C 0.91235 -0.18203 0.50007
 C537 C 0.90816 -0.16897 0.52171
 C538 C 0.88988 -0.15124 0.52282
 C539 C 0.85659 -0.12679 0.50329
 C540 C 0.86213 -0.10413 0.51386
 C541 C 0.84477 -0.08549 0.51444
 C542 C 0.82135 -0.08913 0.50462
 C543 C 0.81580 -0.11189 0.49414
 C544 C 0.83327 -0.13048 0.49339
 H545 H 0.90031 -0.18725 0.46284
 H546 H 0.91942 -0.17204 0.53763
 H547 H 0.84988 -0.06805 0.52217
 H548 H 0.79785 -0.11546 0.48675
 H549 H 0.88717 -0.14133 0.53968
 H550 H 0.88010 -0.10064 0.52126
 H551 H 0.86825 -0.15620 0.46478
 H552 H 0.82845 -0.14788 0.48535
 C553 C 0.35866 0.37575 1.00068
 C554 C 0.35524 0.39063 0.98005
 C555 C 0.33755 0.40897 0.98002
 C556 C 0.32309 0.41310 1.00074
 C557 C 0.32639 0.39830 1.02136
 C558 C 0.34385 0.37972 1.02128
 C559 C 0.37787 0.35654 1.00085
 C560 C 0.39113 0.35148 1.02222
 C561 C 0.40965 0.33395 1.02218
 C562 C 0.41555 0.32134 1.00071
 C563 C 0.40225 0.32617 0.97940
 C564 C 0.38351 0.34344 0.97950
 H565 H 0.33556 0.42036 0.96401
 H566 H 0.31526 0.40097 1.03746
 H567 H 0.41985 0.33074 1.03878
 H568 H 0.40629 0.31645 0.96269
 H569 H 0.34561 0.36835 1.03732
 H570 H 0.38765 0.36148 1.03888
 H571 H 0.36660 0.38848 0.96404
 H572 H 0.37337 0.34644 0.96285
 C573 C 0.87590 0.13999 0.50832
 C574 C 0.89990 0.13473 0.51558
 C575 C 0.91775 0.15290 0.51549
 C576 C 0.91204 0.17682 0.50819
 C577 C 0.88795 0.18218 0.50124
 C578 C 0.87007 0.16398 0.50133
 C579 C 0.85719 0.12039 0.50765
 C580 C 0.83315 0.12489 0.51534
 C581 C 0.81566 0.10631 0.51477
 C582 C 0.82183 0.08284 0.50643
 C583 C 0.84586 0.07840 0.49869
 C584 C 0.86331 0.09694 0.49926
 H585 H 0.93618 0.14807 0.52066
 H586 H 0.88291 0.20048 0.49575
 H587 H 0.79725 0.11038 0.52066
 H588 H 0.85130 0.06045 0.49246
 H589 H 0.85179 0.16857 0.49545
 H590 H 0.82792 0.14271 0.52210
 H591 H 0.90491 0.11652 0.52138
 H592 H 0.88158 0.09295 0.49291
 C593 C 0.35420 0.62345 0.00628
 C594 C 0.33959 0.62014 -0.01448
 C595 C 0.32209 0.60161 -0.01509
 C596 C 0.31862 0.58633 0.00518
 C597 C 0.33279 0.59007 0.02616
 C598 C 0.35054 0.60835 0.02664
 C599 C 0.37378 0.64204 0.00638
 C600 C 0.39737 0.63578 0.01403
 C601 C 0.41611 0.65303 0.01354
 C602 C 0.41161 0.67708 0.00572
 C603 C 0.38786 0.68334 -0.00172
 C604 C 0.36919 0.66595 -0.00156
 H605 H 0.31129 0.59914 -0.03143
 H606 H 0.33058 0.57841 0.04195
 H607 H 0.43423 0.64732 0.01886
 H608 H 0.38358 0.70175 -0.00745
 H609 H 0.36150 0.61066 0.04290
 H610 H 0.40144 0.61735 0.01988
 H611 H 0.34218 0.63147 -0.03045
 H612 H 0.35107 0.67125 -0.00736
 C613 C 0.12233 -0.13981 0.49257
 C614 C 0.10826 -0.14443 0.47168
 C615 C 0.08994 -0.16215 0.47210
 C616 C 0.08514 -0.17540 0.49350
 C617 C 0.09925 -0.17082 0.51437
 C618 C 0.11776 -0.15330 0.51386
 C619 C 0.14139 -0.12065 0.49229
 C620 C 0.16446 -0.12506 0.50247
 C621 C 0.18227 -0.10681 0.50252
 C622 C 0.17731 -0.08365 0.49262
 C623 C 0.15417 -0.07933 0.48242
 C624 C 0.13647 -0.09766 0.48215
 H625 H 0.07920 -0.16520 0.45582
 H626 H 0.09604 -0.18091 0.53104
 H627 H 0.20000 -0.11093 0.51014
 H628 H 0.14950 -0.06160 0.47509
 H629 H 0.12822 -0.14996 0.53027
 H630 H 0.16879 -0.14274 0.51016
 H631 H 0.11152 -0.13440 0.45499
 H632 H 0.11871 -0.09367 0.47450
 C633 C 0.64276 0.38058 0.99761
 C634 C 0.63696 0.40389 0.98864
 C635 C 0.65451 0.42233 0.98807
 C636 C 0.67836 0.41791 0.99635
 C637 C 0.68425 0.39453 1.00513
 C638 C 0.66665 0.37607 1.00574
 C639 C 0.62383 0.36121 0.99869
 C640 C 0.62947 0.33691 0.99269
 C641 C 0.61145 0.31885 0.99342
 C642 C 0.58742 0.32469 1.00022
 C643 C 0.58185 0.34897 1.00633
 C644 C 0.59983 0.36698 1.00562
 H645 H 0.64927 0.44020 0.98148
 H646 H 0.70251 0.39047 1.01142
 H647 H 0.61637 0.30027 0.98883
 H648 H 0.56347 0.35417 1.01132
 H649 H 0.67164 0.35837 1.01295
 H650 H 0.64773 0.33192 0.98707
 H651 H 0.61882 0.40788 0.98194
 H652 H 0.59495 0.38545 1.01066
 C653 C 0.50472 0.12182 1.13985
 C654 C 0.49163 0.10001 1.13654
 C655 C 0.49186 0.08184 1.15436
 C656 C 0.50483 0.08508 1.17623
 C657 C 0.51779 0.10697 1.17966
 C658 C 0.51784 0.12505 1.16165
 C659 C 0.50467 0.14098 1.12057
 C660 C 0.50507 0.16593 1.12671
 C661 C 0.50472 0.18381 1.10852
 C662 C 0.50357 0.17715 1.08384
 C663 C 0.50322 0.15232 1.07764
 C664 C 0.50396 0.13444 1.09576
 H665 H 0.48202 0.06509 1.15080
 H666 H 0.52775 0.11027 1.19636
 H667 H 0.50485 0.20288 1.11372
 H668 H 0.50273 0.14674 1.05871
 H669 H 0.52839 0.14144 1.16473
 H670 H 0.50521 0.17168 1.14558
 H671 H 0.48097 0.09698 1.12022
 H672 H 0.50424 0.11548 1.09026
 C673 C 0.00487 0.64656 0.62387
 C674 C 0.02656 0.65737 0.61544
 C675 C 0.02616 0.67418 0.59628
 C676 C 0.00401 0.68096 0.58528
 C677 C -0.01774 0.67063 0.59415
 C678 C -0.01729 0.65352 0.61302
 C679 C 0.00536 0.62766 0.64341
 C680 C -0.01401 0.62557 0.66016
 C681 C -0.01415 0.60699 0.67761
 C682 C 0.00527 0.59039 0.67902
 C683 C 0.02492 0.59275 0.66280
 C684 C 0.02487 0.61104 0.64506
 H685 H 0.04333 0.68147 0.58981
 H686 H -0.03521 0.67570 0.58651
 H687 H -0.02938 0.60563 0.69012
 H688 H 0.03997 0.57996 0.66340
 H689 H -0.03436 0.64541 0.61871
 H690 H -0.02909 0.63831 0.65986
 H691 H 0.04395 0.65282 0.62359
 H692 H 0.03986 0.61169 0.63223
 C693 C 0.49259 0.87847 -0.13855
 C694 C 0.50554 0.87511 -0.16045
 C695 C 0.50567 0.89323 -0.17841
 C696 C 0.49310 0.91533 -0.17482
 C697 C 0.48021 0.91867 -0.15290
 C698 C 0.47979 0.90044 -0.13513
 C699 C 0.49260 0.85933 -0.11925
 C700 C 0.49223 0.86588 -0.09444
 C701 C 0.49203 0.84802 -0.07629
 C702 C 0.49261 0.82319 -0.08248
 C703 C 0.49322 0.81651 -0.10716
 C704 C 0.49302 0.83438 -0.12537
 H705 H 0.51553 0.88982 -0.19516
 H706 H 0.47065 0.93556 -0.14921
 H707 H 0.49194 0.85361 -0.05735
 H708 H 0.49349 0.79744 -0.11236
 H709 H 0.46926 0.90358 -0.11873
 H710 H 0.49249 0.88485 -0.08895
 H711 H 0.51590 0.85860 -0.16365
 H712 H 0.49286 0.82859 -0.14423
 C713 C 0.99245 0.34955 0.37160
 C714 C 0.97187 0.34676 0.38654
 C715 C 0.97173 0.32977 0.40553
 C716 C 0.99236 0.31508 0.41054
 C717 C 1.01277 0.31767 0.39494
 C718 C 1.01274 0.33452 0.37582
 C719 C 0.99304 0.36861 0.35225
 C720 C 1.01461 0.38168 0.34750
 C721 C 1.01499 0.40026 0.33007
 C722 C 0.99377 0.40640 0.31717
 C723 C 0.97225 0.39327 0.32167
 C724 C 0.97192 0.37447 0.33891
 H725 H 0.95500 0.32808 0.41580
 H726 H 1.02948 0.30767 0.39788
 H727 H 1.03174 0.41034 0.32719
 H728 H 0.95570 0.39748 0.31176
 H729 H 1.02882 0.33590 0.36444
 H730 H 1.03109 0.37805 0.35773
 H731 H 0.95590 0.35807 0.38392
 H732 H 0.95511 0.36451 0.34174
 C733 C 0.50175 0.87598 0.14559
 C734 C 0.52301 0.88139 0.15881
 C735 C 0.52333 0.90033 0.17586
 C736 C 0.50217 0.91415 0.18079
 C737 C 0.48066 0.90812 0.16802
 C738 C 0.48057 0.88962 0.15049
 C739 C 0.50177 0.85660 0.12645
 C740 C 0.48057 0.84305 0.12141
 C741 C 0.48032 0.82568 0.10276
 C742 C 0.50143 0.82089 0.08894
 C743 C 0.52280 0.83398 0.09442
 C744 C 0.52289 0.85176 0.11268
 H745 H 0.54008 0.90340 0.18581
 H746 H 0.46408 0.91856 0.17038
 H747 H 0.46336 0.81636 0.09895
 H748 H 0.53959 0.83057 0.08462
 H749 H 0.46396 0.88653 0.14031
 H750 H 0.46405 0.84581 0.13184
 H751 H 0.53950 0.87085 0.15623
 H752 H 0.53950 0.86198 0.11564
 C753 C 0.00124 0.36298 0.61984
 C754 C -0.00897 0.33989 0.62449
 C755 C -0.00912 0.32183 0.60648
 C756 C 0.00050 0.32648 0.58315
 C757 C 0.01059 0.34961 0.57849
 C758 C 0.01121 0.36748 0.59664
 C759 C 0.00141 0.38232 0.63899
 C760 C -0.00056 0.40713 0.63256
 C761 C 0.00010 0.42531 0.65038
 C762 C 0.00217 0.41911 0.67508
 C763 C 0.00370 0.39446 0.68173
 C764 C 0.00360 0.37625 0.66386
 H765 H -0.01668 0.30416 0.61099
 H766 H 0.01780 0.35416 0.56070
 H767 H -0.00138 0.44425 0.64493
 H768 H 0.00548 0.38936 0.70072
 H769 H 0.01967 0.38480 0.59241
 H770 H -0.00291 0.41259 0.61375
 H771 H -0.01715 0.33576 0.64196
 H772 H 0.00564 0.35747 0.66958
 C773 C 0.49793 0.12505 0.85612
 C774 C 0.47800 0.10887 0.85527
 C775 C 0.47702 0.09033 0.83780
 C776 C 0.49613 0.08728 0.82107
 C777 C 0.51599 0.10340 0.82174
 C778 C 0.51679 0.12222 0.83892
 C779 C 0.49923 0.14445 0.87513
 C780 C 0.52174 0.15130 0.88535
 C781 C 0.52289 0.16907 0.90359
 C782 C 0.50153 0.18022 0.91242
 C783 C 0.47903 0.17343 0.90212
 C784 C 0.47793 0.15596 0.88361
 H785 H 0.46166 0.07791 0.83781
 H786 H 0.53083 0.10152 0.80883
 H787 H 0.54058 0.17404 0.91076
 H788 H 0.46213 0.18127 0.90863
 H789 H 0.53216 0.13460 0.83862
 H790 H 0.53852 0.14264 0.87959
 H791 H 0.46337 0.11010 0.86847
 H792 H 0.46030 0.15152 0.87595
 C793 C 1.00193 0.63727 0.37759
 C794 C 1.01416 0.63383 0.39984
 C795 C 1.01431 0.65213 0.41756
 C796 C 1.00254 0.67455 0.41340
 C797 C 0.99056 0.67813 0.39102
 C798 C 0.99015 0.65969 0.37340
 C799 C 1.00136 0.61749 0.35898
 C800 C 1.00205 0.62299 0.33392
 C801 C 1.00145 0.60435 0.31652
 C802 C 1.00049 0.57981 0.32378
 C803 C 0.99987 0.57424 0.34874
 C804 C 1.00012 0.59285 0.36613
 H805 H 1.02339 0.64849 0.43469
 H806 H 0.98156 0.69525 0.38701
 H807 H 1.00218 0.60908 0.29736
 H808 H 0.99877 0.55545 0.35478
 H809 H 0.98029 0.66292 0.35662
 H810 H 1.00344 0.64168 0.32771
 H811 H 1.02378 0.61700 0.40360
 H812 H 0.99900 0.58790 0.38520
 C813 C 1.14383 0.49564 0.12666
 C814 C 1.15829 0.47510 0.12163
 C815 C 1.17534 0.47541 0.10268
 C816 C 1.17891 0.49648 0.08817
 C817 C 1.16466 0.51726 0.09390
 C818 C 1.14735 0.51673 0.11258
 C819 C 1.12475 0.49490 0.14603
 C820 C 1.11905 0.51587 0.15969
 C821 C 1.10022 0.51551 0.17688
 C822 C 1.08682 0.49405 0.18120
 C823 C 1.09304 0.47289 0.16807
 C824 C 1.11157 0.47336 0.15059
 H825 H 1.18484 0.45852 0.09914
 H826 H 1.16697 0.53443 0.08454
 H827 H 1.09585 0.53227 0.18636
 H828 H 1.08351 0.45587 0.17118
 H829 H 1.13645 0.53290 0.11570
 H830 H 1.12907 0.53269 0.15708
 H831 H 1.15640 0.45859 0.13228
 H832 H 1.11514 0.45691 0.14028
 C833 C 0.62079 -0.00207 0.64625
 C834 C 0.61641 -0.02240 0.66127
 C835 C 0.59742 -0.02211 0.67829
 C836 C 0.58249 -0.00142 0.68078
 C837 C 0.58699 0.01899 0.66596
 C838 C 0.60586 0.01865 0.64885
 C839 C 0.64053 -0.00256 0.62764
 C840 C 0.65438 0.01848 0.62272
 C841 C 0.67226 0.01830 0.60455
 C842 C 0.67683 -0.00297 0.59100
 C843 C 0.66333 -0.02413 0.59618
 C844 C 0.64534 -0.02391 0.61424
 H845 H 0.59455 -0.03798 0.68969
 H846 H 0.57553 0.03504 0.66721
 H847 H 0.68263 0.03477 0.60118
 H848 H 0.66623 -0.04068 0.58579
 H849 H 0.60841 0.03444 0.63727
 H850 H 0.65149 0.03509 0.63301
 H851 H 0.62780 -0.03849 0.66003
 H852 H 0.63476 -0.04031 0.61726
 C853 C -0.14069 0.50260 0.87392
 C854 C -0.15516 0.52343 0.87788
 C855 C -0.17314 0.52351 0.89595
 C856 C -0.17723 0.50269 0.91030
 C857 C -0.16314 0.48171 0.90608
 C858 C -0.14500 0.48169 0.88817
 C859 C -0.12085 0.50284 0.85541
 C860 C -0.11560 0.48190 0.84152
 C861 C -0.09652 0.48198 0.82461
 C862 C -0.08242 0.50307 0.82103
 C863 C -0.08778 0.52407 0.83468
 C864 C -0.10670 0.52394 0.85174
 H865 H -0.18396 0.53983 0.89863
 H866 H -0.16569 0.46553 0.91712
 H867 H -0.09296 0.46563 0.81410
 H868 H -0.07696 0.54047 0.83252
 H869 H -0.13395 0.46548 0.88593
 H870 H -0.12639 0.46548 0.84355
 H871 H -0.15268 0.53968 0.86693
 H872 H -0.10989 0.54023 0.86243
 C873 C 0.38048 0.00339 0.35723
 C874 C 0.38360 -0.01671 0.34158
 C875 C 0.40224 -0.01685 0.32420
 C876 C 0.41805 0.00318 0.32190
 C877 C 0.41472 0.02345 0.33722
 C878 C 0.39621 0.02352 0.35476
 C879 C 0.36119 0.00318 0.37633
 C880 C 0.34842 0.02462 0.38233
 C881 C 0.33070 0.02448 0.40067
 C882 C 0.32520 0.00286 0.41327
 C883 C 0.33778 -0.01862 0.40717
 C884 C 0.35563 -0.01844 0.38899
 H885 H 0.40420 -0.03257 0.31239
 H886 H 0.42685 0.03900 0.33607
 H887 H 0.32106 0.04123 0.40481
 H888 H 0.33417 -0.03546 0.41684
 H889 H 0.39462 0.03912 0.36676
 H890 H 0.35192 0.04150 0.37269
 H891 H 0.37154 -0.03230 0.34265
 H892 H 0.36542 -0.03517 0.38519
 C893 C 0.14628 0.49901 0.87508
 C894 C 0.14935 0.51966 0.89000
 C895 C 0.16623 0.51949 0.90905
 C896 C 0.18029 0.49861 0.91379
 C897 C 0.17731 0.47796 0.89892
 C898 C 0.16057 0.47819 0.87970
 C899 C 0.12787 0.49909 0.85516
 C900 C 0.11400 0.47810 0.85008
 C901 C 0.09595 0.47852 0.83210
 C902 C 0.09122 0.49999 0.81896
 C903 C 0.10530 0.52085 0.82370
 C904 C 0.12350 0.52038 0.84150
 H905 H 0.16789 0.53553 0.92047
 H906 H 0.18813 0.46172 0.90200
 H907 H 0.08514 0.46228 0.82902
 H908 H 0.10224 0.53755 0.81359
 H909 H 0.15897 0.46212 0.86834
 H910 H 0.11658 0.46151 0.86048
 H911 H 0.13832 0.53582 0.88732
 H912 H 0.13417 0.53671 0.84456
 C913 C 0.62543 -0.00187 0.36050
 C914 C 0.62301 0.01853 0.34517
 C915 C 0.60520 0.01895 0.32694
 C916 C 0.58958 -0.00109 0.32354
 C917 C 0.59228 -0.02164 0.33863
 C918 C 0.60997 -0.02200 0.35694
 C919 C 0.64366 -0.00203 0.38047
 C920 C 0.63734 -0.01099 0.40362
 C921 C 0.65437 -0.01112 0.42253
 C922 C 0.67818 -0.00240 0.41873
 C923 C 0.68449 0.00662 0.39556
 C924 C 0.66740 0.00685 0.37665
 H925 H 0.60367 0.03495 0.31545
 H926 H 0.58035 -0.03725 0.33663
 H927 H 0.64873 -0.01771 0.44026
 H928 H 0.70277 0.01316 0.39193
 H929 H 0.61158 -0.03807 0.36831
 H930 H 0.61906 -0.01754 0.40722
 H931 H 0.63456 0.03437 0.34761
 H932 H 0.67285 0.01362 0.35892
 C933 C 0.85951 0.50332 0.11845
 C934 C 0.86518 0.49459 0.09503
 C935 C 0.84760 0.49449 0.07664
 C936 C 0.82387 0.50305 0.08122
 C937 C 0.81815 0.51174 0.10465
 C938 C 0.83577 0.51186 0.12307
 C939 C 0.87834 0.50345 0.13791
 C940 C 0.87235 0.49693 0.16196
 C941 C 0.89026 0.49647 0.18009
 C942 C 0.91456 0.50253 0.17457
 C943 C 0.92047 0.50928 0.15056
 C944 C 0.90258 0.50977 0.13247
 H945 H 0.85271 0.48797 0.05872
 H946 H 0.79998 0.51825 0.10881
 H947 H 0.88507 0.49144 0.19846
 H948 H 0.93905 0.51377 0.14561
 H949 H 0.83089 0.51891 0.14085
 H950 H 0.85389 0.49175 0.16670
 H951 H 0.88320 0.48759 0.09096
 H952 H 0.90773 0.51518 0.11419
 C953 C 0.37154 -0.00056 0.64375
 C954 C 0.37518 0.01976 0.65900
 C955 C 0.39372 0.01969 0.67648
 C956 C 0.40888 -0.00077 0.67928
 C957 C 0.40504 -0.02123 0.66436
 C958 C 0.38666 -0.02109 0.64673
 C959 C 0.35248 -0.00016 0.62444
 C960 C 0.33934 -0.02140 0.61856
 C961 C 0.32224 -0.02126 0.59967
 C962 C 0.31771 0.00018 0.58640
 C963 C 0.33043 0.02154 0.59256
 C964 C 0.34770 0.02135 0.61129
 H965 H 0.39610 0.03559 0.68796
 H966 H 0.41668 -0.03712 0.66589
 H967 H 0.31245 -0.03791 0.59549
 H968 H 0.32754 0.03823 0.58240
 H969 H 0.38470 -0.03688 0.63503
 H970 H 0.34220 -0.03816 0.62860
 H971 H 0.36361 0.03570 0.65754
 H972 H 0.35776 0.03793 0.61500
   
