data_POSCAR
  _audit_creation_date              2014-09-24
  _audit_creation_method            'ToBaCCo'
  _symmetry_space_group_name_H-M    'P1'
  _symmetry_Int_Tables_number       1
  _symmetry_cell_setting            triclinic
  loop_
  _symmetry_equiv_pos_as_xyz
 x,y,z
_cell_length_a 69.2412
_cell_length_b 69.3053
_cell_length_c 69.4482
_cell_angle_alpha 90.039700
_cell_angle_beta 89.830300
_cell_angle_gamma 90.075800
loop_
  _atom_site_label
  _atom_site_type_symbol
  _atom_site_fract_x
  _atom_site_fract_y
  _atom_site_fract_z
C1 C 0.22046 0.51417 1.02382
 H2 H 0.21992 0.52544 1.01307
 C3 C 0.20752 0.51439 1.03928
 H4 H 0.19702 0.52592 1.04047
 C5 C 0.23450 0.48512 1.03514
 H6 H 0.24477 0.47355 1.03328
 C7 C 0.22181 0.48477 1.05083
 H8 H 0.22251 0.47301 1.06108
 N9 N 0.23369 0.49976 1.02211
 C10 C 0.27942 0.52376 0.98600
 H11 H 0.27994 0.51298 0.97474
 C12 C 0.29235 0.53924 0.98571
 H13 H 0.30284 0.54044 0.97417
 C14 C 0.26543 0.53517 1.01507
 H15 H 0.25517 0.53335 1.02667
 C16 C 0.27812 0.55086 1.01534
 H17 H 0.27747 0.56118 1.02705
 Zn18 Zn 0.24992 0.50013 1.00014
 N19 N 0.26621 0.52209 1.00045
 C20 C 0.23446 0.51510 0.96522
 N21 N 0.23363 0.50050 0.97830
 C22 C 0.22036 0.48609 0.97672
 C23 C 0.20743 0.48582 0.96133
 C24 C 0.22178 0.51538 0.94960
 C25 C 0.27941 0.47647 1.01396
 C26 C 0.29234 0.46102 1.01405
 C27 C 0.27794 0.44946 0.98454
 C28 C 0.26527 0.46513 0.98500
 N29 N 0.26614 0.47817 0.99965
 H30 H 0.24477 0.52668 0.96697
 H31 H 0.21980 0.47484 0.98751
 H32 H 0.19690 0.47430 0.96019
 H33 H 0.22248 0.52707 0.93928
 H34 H 0.28001 0.48722 1.02524
 H35 H 0.30290 0.45980 1.02546
 H36 H 0.27723 0.43919 0.97280
 H37 H 0.25497 0.46698 0.97351
 C38 C 0.29169 0.55289 1.00053
 C39 C 0.20819 0.49954 1.05290
 C40 C 0.29159 0.44741 0.99920
 C41 C 0.20816 0.50060 0.94766
 C42 C 0.78018 0.51560 -0.02133
 H43 H 0.78073 0.52662 -0.01029
 C44 C 0.79338 0.51598 -0.03656
 H45 H 0.80411 0.52735 -0.03733
 C46 C 0.76590 0.48699 -0.03354
 H47 H 0.75545 0.47550 -0.03211
 C48 C 0.77885 0.48682 -0.04902
 H49 H 0.77821 0.47530 -0.05955
 N50 N 0.76672 0.50132 -0.02015
 C51 C 0.72076 0.52478 0.01597
 H52 H 0.71999 0.51373 0.02693
 C53 C 0.70789 0.54027 0.01640
 H54 H 0.69719 0.54122 0.02778
 C55 C 0.73531 0.53682 -0.01258
 H56 H 0.74574 0.53524 -0.02406
 C57 C 0.72269 0.55254 -0.01269
 H58 H 0.72357 0.56311 -0.02414
 Zn59 Zn 0.75024 0.50131 0.00163
 N60 N 0.73420 0.52340 0.00169
 C61 C 0.76544 0.51529 0.03708
 N62 N 0.76627 0.50099 0.02365
 C63 C 0.77939 0.48646 0.02499
 C64 C 0.79221 0.48577 0.04046
 C65 C 0.77801 0.51514 0.05279
 C66 C 0.72059 0.47838 -0.01314
 C67 C 0.70746 0.46310 -0.01381
 C68 C 0.72145 0.45049 0.01543
 C69 C 0.73434 0.46603 0.01556
 N70 N 0.73376 0.47951 0.00132
 H71 H 0.75525 0.52696 0.03553
 H72 H 0.77995 0.47547 0.01393
 H73 H 0.80265 0.47418 0.04138
 H74 H 0.77735 0.52661 0.06338
 H75 H 0.72024 0.48948 -0.02408
 H76 H 0.69697 0.46235 -0.02534
 H77 H 0.72192 0.43986 0.02685
 H78 H 0.74458 0.46741 0.02718
 C79 C 0.70885 0.55425 0.00192
 C80 C 0.79272 0.50144 -0.05051
 C81 C 0.70789 0.44905 0.00062
 C82 C 0.79152 0.50025 0.05446
 C83 C -0.01482 0.28002 0.47715
 H84 H -0.02589 0.28058 0.48817
 C85 C -0.01529 0.29297 0.46177
 H86 H -0.02681 0.30350 0.46090
 C87 C 0.01397 0.26589 0.46509
 H88 H 0.02554 0.25558 0.46663
 C89 C 0.01406 0.27858 0.44946
 H90 H 0.02562 0.27784 0.43893
 N91 N -0.00043 0.26674 0.47846
 C92 C -0.02397 0.22092 0.51460
 H93 H -0.01302 0.22034 0.52567
 C94 C -0.03936 0.20788 0.51493
 H95 H -0.04033 0.19725 0.52632
 C96 C -0.03581 0.23510 0.48589
 H97 H -0.03416 0.24544 0.47438
 C98 C -0.05142 0.22231 0.48568
 H99 H -0.06185 0.22296 0.47410
 Zn100 Zn -0.00050 0.25043 0.50030
 N101 N -0.02253 0.23425 0.50029
 C102 C -0.01483 0.26576 0.53564
 N103 N -0.00042 0.26659 0.52228
 C104 C 0.01410 0.27977 0.52369
 C105 C 0.01466 0.29262 0.53916
 C106 C -0.01481 0.27837 0.55135
 C107 C 0.02271 0.22087 0.48575
 C108 C 0.03801 0.20777 0.48528
 C109 C 0.05022 0.22193 0.51464
 C110 C 0.03469 0.23479 0.51456
 N111 N 0.02139 0.23410 0.50018
 H112 H -0.02648 0.25552 0.53403
 H113 H 0.02518 0.28032 0.51269
 H114 H 0.02626 0.30309 0.54016
 H115 H -0.02635 0.27768 0.56189
 H116 H 0.01175 0.22043 0.47468
 H117 H 0.03890 0.19722 0.47379
 H118 H 0.06068 0.22247 0.52619
 H119 H 0.03314 0.24506 0.52616
 C120 C -0.05317 0.20857 0.50031
 C121 C -0.00071 0.29224 0.44779
 C122 C 0.05186 0.20829 0.49988
 C123 C 0.00007 0.29191 0.55311
 C124 C 0.98529 0.71931 0.52247
 H125 H 0.97437 0.71881 0.51137
 C126 C 0.98457 0.70628 0.53778
 H127 H 0.97303 0.69574 0.53855
 C128 C 1.01396 0.73335 0.53483
 H129 H 1.02559 0.74366 0.53345
 C130 C 1.01379 0.72056 0.55038
 H131 H 1.02518 0.72119 0.56103
 N132 N 0.99975 0.73259 0.52135
 C133 C 0.97692 0.77849 0.48506
 H134 H 0.98808 0.77913 0.47415
 C135 C 0.96148 0.79141 0.48449
 H136 H 0.96068 0.80202 0.47307
 C137 C 0.96454 0.76422 0.51359
 H138 H 0.96598 0.75387 0.52511
 C139 C 0.94886 0.77689 0.51356
 H140 H 0.93817 0.77614 0.52495
 Zn141 Zn 1.00009 0.74897 0.49956
 N142 N 0.97810 0.76515 0.49938
 C143 C 0.98625 0.73373 0.46406
 N144 N 1.00046 0.73286 0.47754
 C145 C 1.01493 0.71965 0.47626
 C146 C 1.01565 0.70678 0.46080
 C147 C 0.98644 0.72111 0.44835
 C148 C 1.02324 0.77841 0.51446
 C149 C 1.03865 0.79141 0.51517
 C150 C 1.05120 0.77736 0.48584
 C151 C 1.03555 0.76460 0.48567
 N152 N 1.02204 0.76527 0.49994
 H153 H 0.97462 0.74398 0.46557
 H154 H 1.02584 0.71906 0.48736
 H155 H 1.02719 0.69627 0.45992
 H156 H 0.97504 0.72181 0.43772
 H157 H 1.01212 0.77885 0.52542
 H158 H 1.03947 0.80186 0.52675
 H159 H 1.06185 0.77682 0.47439
 H160 H 1.03410 0.75440 0.47401
 C161 C 0.94734 0.79060 0.49888
 C162 C 0.99896 0.70692 0.55185
 C163 C 1.05274 0.79088 0.50071
 C164 C 1.00127 0.70752 0.44674
 C165 C 0.47667 -0.01404 0.27894
 H166 H 0.48767 -0.02510 0.27935
 C167 C 0.46125 -0.01464 0.29194
 H168 H 0.46031 -0.02623 0.30236
 C169 C 0.46467 0.01488 0.26521
 H170 H 0.46624 0.02655 0.25504
 C171 C 0.44902 0.01482 0.27796
 H172 H 0.43850 0.02636 0.27746
 N173 N 0.47803 0.00049 0.26584
 C174 C 0.51448 -0.02232 0.21985
 H175 H 0.52551 -0.01127 0.21935
 C176 C 0.51500 -0.03764 0.20679
 H177 H 0.52654 -0.03842 0.19623
 C178 C 0.48570 -0.03455 0.23393
 H179 H 0.47412 -0.03310 0.24427
 C180 C 0.48567 -0.05011 0.22112
 H181 H 0.47414 -0.06068 0.22180
 Zn182 Zn 0.49999 0.00071 0.24954
 N183 N 0.50006 -0.02112 0.23315
 C184 C 0.53538 -0.01362 0.26465
 N185 N 0.52198 0.00071 0.26566
 C186 C 0.52336 0.01503 0.27901
 C187 C 0.53882 0.01547 0.29185
 C188 C 0.55108 -0.01372 0.27724
 C189 C 0.48545 0.02419 0.22033
 C190 C 0.48495 0.03967 0.20749
 C191 C 0.51432 0.05189 0.22177
 C192 C 0.51428 0.03616 0.23436
 N193 N 0.49989 0.02278 0.23350
 H194 H 0.53379 -0.02514 0.25429
 H195 H 0.51232 0.02605 0.27971
 H196 H 0.53978 0.02690 0.30246
 H197 H 0.56164 -0.02522 0.27642
 H198 H 0.47439 0.01316 0.21975
 H199 H 0.47343 0.04065 0.19701
 H200 H 0.52586 0.06243 0.22246
 H201 H 0.52588 0.03456 0.24459
 C202 C 0.50045 -0.05165 0.20742
 C203 C 0.44732 -0.00007 0.29145
 C204 C 0.49953 0.05363 0.20822
 C205 C 0.55280 0.00095 0.29096
 C206 C 0.52232 -0.01472 0.71986
 H207 H 0.51116 -0.02565 0.71946
 C208 C 0.53753 -0.01532 0.70663
 H209 H 0.53815 -0.02679 0.69604
 C210 C 0.53490 0.01391 0.73379
 H211 H 0.53363 0.02548 0.74414
 C212 C 0.55036 0.01384 0.72081
 H213 H 0.56104 0.02527 0.72131
 N214 N 0.52134 -0.00032 0.73316
 C215 C 0.48518 -0.02339 0.77925
 H216 H 0.47421 -0.01232 0.78000
 C217 C 0.48470 -0.03886 0.79212
 H218 H 0.47329 -0.03977 0.80279
 C219 C 0.51377 -0.03553 0.76477
 H220 H 0.52527 -0.03400 0.75435
 C221 C 0.51383 -0.05123 0.77738
 H222 H 0.52528 -0.06184 0.77652
 Zn223 Zn 0.49957 -0.00009 0.74970
 N224 N 0.49949 -0.02208 0.76584
 C225 C 0.46389 -0.01404 0.73475
 N226 N 0.47743 0.00020 0.73379
 C227 C 0.47611 0.01465 0.72060
 C228 C 0.46058 0.01531 0.70785
 C229 C 0.44812 -0.01392 0.72225
 C230 C 0.51462 0.02312 0.77897
 C231 C 0.51537 0.03854 0.79189
 C232 C 0.48595 0.05096 0.77800
 C233 C 0.48573 0.03530 0.76532
 N234 N 0.50003 0.02185 0.76594
 H235 H 0.46543 -0.02565 0.74499
 H236 H 0.48725 0.02559 0.71993
 H237 H 0.45968 0.02683 0.69735
 H238 H 0.43745 -0.02535 0.72302
 H239 H 0.52560 0.01204 0.77936
 H240 H 0.52701 0.03941 0.80225
 H241 H 0.47448 0.06157 0.77748
 H242 H 0.47401 0.03380 0.75521
 C243 C 0.49917 -0.05288 0.79118
 C244 C 0.55165 -0.00090 0.70710
 C245 C 0.50089 0.05257 0.79140
 C246 C 0.44647 0.00088 0.70868
 C247 C 0.27930 0.01476 0.47695
 H248 H 0.27970 0.02593 0.48783
 C249 C 0.29230 0.01527 0.46155
 H250 H 0.30272 0.02690 0.46049
 C251 C 0.26555 -0.01432 0.46523
 H252 H 0.25537 -0.02602 0.46691
 C253 C 0.27831 -0.01437 0.44961
 H254 H 0.27780 -0.02600 0.43920
 N255 N 0.26618 0.00020 0.47844
 C256 C 0.22003 0.02313 0.51463
 H257 H 0.21956 0.01217 0.52570
 C258 C 0.20683 0.03834 0.51501
 H259 H 0.19619 0.03917 0.52645
 C260 C 0.23411 0.03520 0.48587
 H261 H 0.24449 0.03372 0.47433
 C262 C 0.22116 0.05065 0.48571
 H263 H 0.22173 0.06113 0.47415
 Zn264 Zn 0.24984 0.00012 0.50034
 N265 N 0.23339 0.02190 0.50027
 C266 C 0.26498 0.01475 0.53555
 N267 N 0.26599 0.00033 0.52228
 C268 C 0.27934 -0.01399 0.52374
 C269 C 0.29219 -0.01433 0.53919
 C270 C 0.27758 0.01496 0.55124
 C271 C 0.22053 -0.02350 0.48597
 C272 C 0.20762 -0.03899 0.48558
 C273 C 0.22187 -0.05092 0.51497
 C274 C 0.23454 -0.03521 0.51482
 N275 N 0.23373 -0.02197 0.50037
 H276 H 0.25462 0.02625 0.53390
 H277 H 0.28004 -0.02509 0.51280
 H278 H 0.30279 -0.02577 0.54023
 H279 H 0.27675 0.02651 0.56172
 H280 H 0.21998 -0.01258 0.47487
 H281 H 0.19712 -0.04007 0.47409
 H282 H 0.22252 -0.06136 0.52655
 H283 H 0.24478 -0.03349 0.52639
 C284 C 0.20739 0.05220 0.50040
 C285 C 0.29181 0.00056 0.44777
 C286 C 0.20829 -0.05280 0.50022
 C287 C 0.29130 0.00028 0.55305
 C288 C 0.72014 0.01334 0.52191
 H289 H 0.71969 0.02443 0.51097
 C290 C 0.70697 0.01371 0.53717
 H291 H 0.69637 0.02517 0.53806
 C292 C 0.73413 -0.01548 0.53386
 H293 H 0.74446 -0.02704 0.53232
 C294 C 0.72121 -0.01565 0.54935
 H295 H 0.72176 -0.02724 0.55980
 N296 N 0.73344 -0.00105 0.52059
 C297 C 0.77970 0.02216 0.48467
 H298 H 0.78036 0.01113 0.47366
 C299 C 0.79275 0.03753 0.48431
 H300 H 0.80348 0.03840 0.47296
 C301 C 0.76524 0.03428 0.51323
 H302 H 0.75475 0.03278 0.52467
 C303 C 0.77804 0.04989 0.51340
 H304 H 0.77725 0.06046 0.52488
 Zn305 Zn 0.74990 -0.00104 0.49879
 N306 N 0.76622 0.02088 0.49891
 C307 C 0.73494 0.01336 0.46345
 N308 N 0.73386 -0.00101 0.47677
 C309 C 0.72048 -0.01534 0.47530
 C310 C 0.70765 -0.01573 0.45983
 C311 C 0.72237 0.01351 0.44774
 C312 C 0.77928 -0.02437 0.51331
 C313 C 0.79221 -0.03980 0.51383
 C314 C 0.77800 -0.05205 0.48452
 C315 C 0.76531 -0.03639 0.48453
 N316 N 0.76610 -0.02301 0.49888
 H317 H 0.74533 0.02487 0.46510
 H318 H 0.71973 -0.02639 0.48627
 H319 H 0.69701 -0.02715 0.45881
 H320 H 0.72325 0.02504 0.43725
 H321 H 0.77980 -0.01336 0.52434
 H322 H 0.80269 -0.04075 0.52534
 H323 H 0.77736 -0.06260 0.47302
 H324 H 0.75507 -0.03482 0.47295
 C325 C 0.79192 0.05150 0.49882
 C326 C 0.70750 -0.00093 0.55099
 C327 C 0.79157 -0.05375 0.49929
 C328 C 0.70861 -0.00116 0.44595
 C329 C 0.48548 0.22082 1.02289
 H330 H 0.47452 0.22016 1.01183
 C331 C 0.48484 0.20799 1.03837
 H332 H 0.47332 0.19744 1.03931
 C333 C 0.51419 0.23505 1.03494
 H334 H 0.52580 0.24535 1.03337
 C335 C 0.51410 0.22247 1.05066
 H336 H 0.52554 0.22324 1.06124
 N337 N 0.49992 0.23409 1.02152
 C338 C 0.47714 0.27954 0.98462
 H339 H 0.48833 0.28002 0.97373
 C340 C 0.46175 0.29251 0.98387
 H341 H 0.46102 0.30299 0.97233
 C342 C 0.46464 0.26562 1.01327
 H343 H 0.46601 0.25539 1.02490
 C344 C 0.44900 0.27835 1.01306
 H345 H 0.43827 0.27775 1.02443
 Zn346 Zn 0.50022 0.25015 0.99949
 N347 N 0.47825 0.26636 0.99910
 C348 C 0.48635 0.23449 0.96420
 N349 N 0.50056 0.23376 0.97769
 C350 C 0.51503 0.22053 0.97653
 C351 C 0.51576 0.20753 0.96117
 C352 C 0.48654 0.22174 0.94861
 C353 C 0.52333 0.27985 1.01390
 C354 C 0.53866 0.29295 1.01434
 C355 C 0.55123 0.27845 0.98523
 C356 C 0.53565 0.26560 0.98533
 N357 N 0.52216 0.26646 0.99961
 H358 H 0.47473 0.24477 0.96561
 H359 H 0.52596 0.22005 0.98762
 H360 H 0.52731 0.19703 0.96037
 H361 H 0.47515 0.22235 0.93797
 H362 H 0.51222 0.28043 1.02487
 H363 H 0.53943 0.30362 1.02572
 H364 H 0.56184 0.27778 0.97377
 H365 H 0.53423 0.25520 0.97384
 C366 C 0.44758 0.29191 0.99824
 C367 C 0.49930 0.20882 1.05236
 C368 C 0.55270 0.29225 0.99985
 C369 C 0.50137 0.20815 0.94710
 C370 C 0.48531 0.78039 -0.02308
 H371 H 0.47431 0.78107 -0.01201
 C372 C 0.48474 0.79316 -0.03860
 H373 H 0.47323 0.80369 -0.03956
 C374 C 0.51405 0.76616 -0.03515
 H375 H 0.52564 0.75588 -0.03358
 C376 C 0.51402 0.77868 -0.05092
 H377 H 0.52549 0.77788 -0.06153
 N378 N 0.49973 0.76714 -0.02170
 C379 C 0.47651 0.72178 0.01525
 H380 H 0.48755 0.72133 0.02622
 C381 C 0.46105 0.70883 0.01594
 H382 H 0.46012 0.69841 0.02753
 C383 C 0.46445 0.73556 -0.01357
 H384 H 0.46602 0.74573 -0.02524
 C385 C 0.44876 0.72286 -0.01341
 H386 H 0.43820 0.72341 -0.02488
 Zn387 Zn 0.49986 0.75112 0.00036
 N388 N 0.47786 0.73488 0.00072
 C389 C 0.48572 0.76689 0.03558
 N390 N 0.50004 0.76759 0.02212
 C391 C 0.51450 0.78085 0.02325
 C392 C 0.51511 0.79393 0.03854
 C393 C 0.48579 0.77972 0.05111
 C394 C 0.52313 0.72148 -0.01398
 C395 C 0.53857 0.70855 -0.01446
 C396 C 0.55091 0.72317 0.01463
 C397 C 0.53524 0.73585 0.01456
 N398 N 0.52182 0.73488 0.00030
 H399 H 0.47410 0.75658 0.03420
 H400 H 0.52551 0.78130 0.01217
 H401 H 0.52666 0.80446 0.03931
 H402 H 0.47431 0.77914 0.06174
 H403 H 0.51208 0.72081 -0.02494
 H404 H 0.53949 0.69791 -0.02586
 H405 H 0.56149 0.72396 0.02606
 H406 H 0.53370 0.74625 0.02605
 C407 C 0.44707 0.70938 0.00147
 C408 C 0.49924 0.79230 -0.05263
 C409 C 0.55257 0.70940 -0.00001
 C410 C 0.50061 0.79336 0.05258
 C411 C 1.02388 0.48380 0.22066
 H412 H 1.01278 0.47281 0.22019
 C413 C 1.03928 0.48319 0.20766
 H414 H 1.04013 0.47165 0.19716
 C415 C 1.03611 0.51258 0.23458
 H416 H 1.03464 0.52421 0.24483
 C417 C 1.05176 0.51250 0.22183
 H418 H 1.06238 0.52398 0.22242
 N419 N 1.02264 0.49827 0.23386
 C420 C 0.98619 0.47544 0.27986
 H421 H 0.97520 0.48652 0.28045
 C422 C 0.98564 0.46008 0.29285
 H423 H 0.97417 0.45925 0.30346
 C424 C 1.01486 0.46320 0.26563
 H425 H 1.02642 0.46466 0.25526
 C426 C 1.01486 0.44761 0.27837
 H427 H 1.02631 0.43699 0.27765
 Zn428 Zn 1.00071 0.49852 0.25020
 N429 N 1.00057 0.47665 0.26651
 C430 C 0.96515 0.48438 0.23514
 N431 N 0.97869 0.49861 0.23412
 C432 C 0.97743 0.51296 0.22082
 C433 C 0.96191 0.51356 0.20805
 C434 C 0.94939 0.48444 0.22262
 C435 C 1.01539 0.52199 0.27944
 C436 C 1.01598 0.53752 0.29225
 C437 C 0.98661 0.54971 0.27803
 C438 C 0.98657 0.53395 0.26547
 N439 N 1.00092 0.52057 0.26630
 H440 H 0.96664 0.47285 0.24547
 H441 H 0.98858 0.52389 0.22011
 H442 H 0.96103 0.52502 0.19749
 H443 H 0.93869 0.47305 0.22347
 H444 H 1.02642 0.51097 0.28001
 H445 H 1.02754 0.53854 0.30268
 H446 H 0.97512 0.56027 0.27734
 H447 H 0.97494 0.53233 0.25528
 C448 C 1.00012 0.44606 0.29211
 C449 C 1.05333 0.49768 0.20825
 C450 C 1.00145 0.55149 0.29154
 C451 C 0.94777 0.49917 0.20897
 C452 C -0.02260 0.48572 0.78037
 H453 H -0.01154 0.47472 0.78086
 C454 C -0.03784 0.48532 0.79356
 H455 H -0.03859 0.47395 0.80424
 C456 C -0.03488 0.51431 0.76621
 H457 H -0.03347 0.52579 0.75580
 C458 C -0.05036 0.51445 0.77916
 H459 H -0.06093 0.52595 0.77857
 N460 N -0.02145 0.50000 0.76697
 C461 C 0.01469 0.47651 0.72110
 H462 H 0.02570 0.48757 0.72031
 C463 C 0.01511 0.46099 0.70827
 H464 H 0.02651 0.46002 0.69761
 C465 C -0.01395 0.46447 0.73562
 H466 H -0.02545 0.46607 0.74602
 C467 C -0.01407 0.44871 0.72305
 H468 H -0.02556 0.43813 0.72394
 Zn469 Zn 0.00036 0.50002 0.75049
 N470 N 0.00038 0.47790 0.73450
 C471 C 0.03593 0.48613 0.76561
 N472 N 0.02247 0.50041 0.76644
 C473 C 0.02383 0.51497 0.77952
 C474 C 0.03934 0.51570 0.79231
 C475 C 0.05168 0.48631 0.77816
 C476 C -0.01452 0.52291 0.72099
 C477 C -0.01520 0.53818 0.70789
 C478 C 0.01422 0.55077 0.72174
 C479 C 0.01436 0.53527 0.73459
 N480 N 0.00003 0.52180 0.73407
 H481 H 0.03436 0.47443 0.75546
 H482 H 0.01275 0.52595 0.78008
 H483 H 0.04026 0.52730 0.80273
 H484 H 0.06228 0.47484 0.77751
 H485 H -0.02553 0.51183 0.72067
 H486 H -0.02680 0.53892 0.69749
 H487 H 0.02570 0.56140 0.72218
 H488 H 0.02604 0.53389 0.74476
 C489 C 0.00058 0.44699 0.70925
 C490 C -0.05182 0.49984 0.79297
 C491 C -0.00068 0.55221 0.70827
 C492 C 0.05336 0.50122 0.79163
 C493 C 0.06733 0.19446 0.50002
 C494 C 0.08010 0.18265 0.50020
 C495 C 0.09509 0.16830 0.50048
 C496 C 0.09372 0.15264 0.51311
 C497 C 0.10801 0.13843 0.51317
 C498 C 0.12391 0.13968 0.50056
 C499 C 0.12524 0.15556 0.48800
 C500 C 0.11090 0.16977 0.48796
 C501 C 0.13890 0.12438 0.50039
 C502 C 0.15860 0.12915 0.49862
 C503 C 0.17267 0.11469 0.49853
 C504 C 0.16724 0.09529 0.50018
 C505 C 0.14770 0.09041 0.50188
 C506 C 0.13362 0.10483 0.50199
 C507 C 0.18166 0.08036 0.50018
 C508 C 0.19351 0.06763 0.50025
 H509 H 0.08156 0.15138 0.52289
 H510 H 0.10671 0.12653 0.52319
 H511 H 0.13717 0.15682 0.47797
 H512 H 0.11208 0.18180 0.47807
 H513 H 0.16313 0.14407 0.49759
 H514 H 0.18776 0.11863 0.49725
 H515 H 0.14334 0.07544 0.50310
 H516 H 0.11858 0.10067 0.50308
 C517 C 0.69531 0.56998 0.00180
 C518 C 0.68376 0.58298 0.00169
 C519 C 0.66975 0.59830 0.00157
 C520 C 0.66684 0.60919 -0.01513
 C521 C 0.65282 0.62369 -0.01541
 C522 C 0.64151 0.62749 0.00103
 C523 C 0.64467 0.61655 0.01779
 C524 C 0.65868 0.60205 0.01804
 C525 C 0.62627 0.64254 0.00062
 C526 C 0.62327 0.65471 0.01658
 C527 C 0.60861 0.66858 0.01632
 C528 C 0.59678 0.67046 0.00013
 C529 C 0.59972 0.65852 -0.01586
 C530 C 0.61437 0.64466 -0.01564
 C531 C 0.58137 0.68438 0.00006
 C532 C 0.56832 0.69588 0.00002
 H533 H 0.67534 0.60642 -0.02795
 H534 H 0.65091 0.63202 -0.02845
 H535 H 0.63603 0.61893 0.03060
 H536 H 0.66075 0.59364 0.03102
 H537 H 0.63233 0.65360 0.02920
 H538 H 0.60647 0.67777 0.02877
 H539 H 0.59059 0.65980 -0.02843
 H540 H 0.61614 0.63534 -0.02804
 C541 C 0.93160 -0.19587 0.49882
 C542 C 0.91857 -0.18434 0.49876
 C543 C 0.90322 -0.17037 0.49867
 C544 C 0.90059 -0.15844 0.48265
 C545 C 0.88601 -0.14451 0.48272
 C546 C 0.87386 -0.14231 0.49885
 C547 C 0.87654 -0.15448 0.51484
 C548 C 0.89112 -0.16841 0.51473
 C549 C 0.85869 -0.12718 0.49911
 C550 C 0.85532 -0.11621 0.51584
 C551 C 0.84138 -0.10163 0.51594
 C552 C 0.83061 -0.09785 0.49935
 C553 C 0.83374 -0.10877 0.48268
 C554 C 0.84768 -0.12335 0.48255
 C555 C 0.81664 -0.08249 0.49933
 C556 C 0.80511 -0.06947 0.49931
 H557 H 0.90993 -0.15978 0.47018
 H558 H 0.88450 -0.13519 0.47031
 H559 H 0.86727 -0.15331 0.52737
 H560 H 0.89302 -0.17760 0.52720
 H561 H 0.86373 -0.11862 0.52873
 H562 H 0.83913 -0.09320 0.52889
 H563 H 0.82547 -0.10597 0.46977
 H564 H 0.84977 -0.13170 0.46953
 C565 C 0.30514 0.43169 0.99875
 C566 C 0.31669 0.41869 0.99837
 C567 C 0.33071 0.40339 0.99791
 C568 C 0.33407 0.39227 1.01438
 C569 C 0.34813 0.37781 1.01411
 C570 C 0.35905 0.37430 0.99735
 C571 C 0.35542 0.38543 0.98082
 C572 C 0.34135 0.39988 0.98111
 C573 C 0.37440 0.35934 0.99722
 C574 C 0.39217 0.36289 0.98798
 C575 C 0.40676 0.34897 0.98811
 C576 C 0.40380 0.33132 0.99744
 C577 C 0.38616 0.32760 1.00660
 C578 C 0.37154 0.34151 1.00650
 C579 C 0.41899 0.31718 0.99776
 C580 C 0.43192 0.30554 0.99800
 H581 H 0.32597 0.39492 1.02748
 H582 H 0.35074 0.36965 1.02714
 H583 H 0.36340 0.38291 0.96762
 H584 H 0.33885 0.40838 0.96828
 H585 H 0.39493 0.37656 0.98096
 H586 H 0.42039 0.35203 0.98104
 H587 H 0.38371 0.31397 1.01383
 H588 H 0.35794 0.33826 1.01353
 C589 C 0.93130 0.19475 0.49999
 C590 C 0.91852 0.18293 0.49968
 C591 C 0.90354 0.16852 0.49925
 C592 C 0.90536 0.15254 0.48706
 C593 C 0.89111 0.13825 0.48691
 C594 C 0.87482 0.13974 0.49898
 C595 C 0.87304 0.15595 0.51108
 C596 C 0.88733 0.17023 0.51121
 C597 C 0.85990 0.12433 0.49909
 C598 C 0.84014 0.12898 0.50010
 C599 C 0.82615 0.11440 0.50012
 C600 C 0.83172 0.09501 0.49916
 C601 C 0.85133 0.09025 0.49821
 C602 C 0.86533 0.10479 0.49817
 C603 C 0.81740 0.07995 0.49910
 C604 C 0.80565 0.06710 0.49900
 H605 H 0.91783 0.15110 0.47771
 H606 H 0.89277 0.12610 0.47724
 H607 H 0.86079 0.15739 0.52069
 H608 H 0.88582 0.18251 0.52076
 H609 H 0.83550 0.14388 0.50060
 H610 H 0.81100 0.11824 0.50081
 H611 H 0.85580 0.07529 0.49753
 H612 H 0.88042 0.10073 0.49768
 C613 C 0.30520 0.56869 0.00071
 C614 C 0.31669 0.58178 0.00082
 C615 C 0.33061 0.59722 0.00091
 C616 C 0.33363 0.60804 0.01765
 C617 C 0.34752 0.62272 0.01786
 C618 C 0.35857 0.62675 0.00130
 C619 C 0.35531 0.61587 -0.01550
 C620 C 0.34143 0.60120 -0.01567
 C621 C 0.37367 0.64200 0.00161
 C622 C 0.37635 0.65427 -0.01432
 C623 C 0.39091 0.66827 -0.01419
 C624 C 0.40296 0.67021 0.00184
 C625 C 0.40030 0.65820 0.01782
 C626 C 0.38575 0.64419 0.01773
 C627 C 0.41831 0.68423 0.00175
 C628 C 0.43133 0.69579 0.00164
 H629 H 0.32532 0.60510 0.03056
 H630 H 0.34952 0.63099 0.03093
 H631 H 0.36376 0.61843 -0.02839
 H632 H 0.33927 0.59285 -0.02868
 H633 H 0.36713 0.65310 -0.02683
 H634 H 0.39282 0.67752 -0.02662
 H635 H 0.40960 0.65953 0.03027
 H636 H 0.38422 0.63481 0.03010
 C637 C 0.06845 -0.19551 0.50091
 C638 C 0.08146 -0.18393 0.50103
 C639 C 0.09680 -0.16991 0.50115
 C640 C 0.09961 -0.15815 0.51729
 C641 C 0.11417 -0.14416 0.51724
 C642 C 0.12612 -0.14172 0.50099
 C643 C 0.12327 -0.15371 0.48488
 C644 C 0.10870 -0.16771 0.48497
 C645 C 0.14123 -0.12648 0.50072
 C646 C 0.14434 -0.11532 0.48408
 C647 C 0.15825 -0.10068 0.48395
 C648 C 0.16926 -0.09702 0.50042
 C649 C 0.16638 -0.10813 0.51701
 C650 C 0.15246 -0.12277 0.51717
 C651 C 0.18323 -0.08163 0.50039
 C652 C 0.19475 -0.06857 0.50033
 H653 H 0.09042 -0.15968 0.52986
 H654 H 0.11583 -0.13499 0.52975
 H655 H 0.13238 -0.15235 0.47226
 H656 H 0.10667 -0.17674 0.47240
 H657 H 0.13576 -0.11764 0.47127
 H658 H 0.16031 -0.09211 0.47106
 H659 H 0.17484 -0.10543 0.52983
 H660 H 0.15057 -0.13127 0.53012
 C661 C 0.69408 0.43352 1.00047
 C662 C 0.68229 0.42070 1.00032
 C663 C 0.66794 0.40567 1.00011
 C664 C 0.67347 0.38627 1.00104
 C665 C 0.65945 0.37172 1.00079
 C666 C 0.63972 0.37641 0.99958
 C667 C 0.63434 0.39596 0.99867
 C668 C 0.64837 0.41047 0.99894
 C669 C 0.62477 0.36102 0.99929
 C670 C 0.60867 0.36255 0.98707
 C671 C 0.59440 0.34828 0.98705
 C672 C 0.59600 0.33229 0.99922
 C673 C 0.61203 0.33054 1.01133
 C674 C 0.62634 0.34480 1.01136
 C675 C 0.58101 0.31790 0.99949
 C676 C 0.56822 0.30608 0.99967
 H677 H 0.68859 0.38240 1.00191
 H678 H 0.66405 0.35680 1.00129
 H679 H 0.61927 0.40005 0.99802
 H680 H 0.64393 0.42544 0.99827
 H681 H 0.60718 0.37472 0.97741
 H682 H 0.58207 0.34975 0.97759
 H683 H 0.61338 0.31824 1.02086
 H684 H 0.63844 0.34332 1.02108
 C685 C 0.49954 0.06940 1.19475
 C686 C 0.49954 0.08245 1.18328
 C687 C 0.49951 0.09782 1.16935
 C688 C 0.51662 0.10296 1.15988
 C689 C 0.51651 0.11750 1.14593
 C690 C 0.49923 0.12706 1.14124
 C691 C 0.48214 0.12189 1.15097
 C692 C 0.48229 0.10736 1.16493
 C693 C 0.49900 0.14210 1.12601
 C694 C 0.48371 0.14293 1.11272
 C695 C 0.48369 0.15678 1.09810
 C696 C 0.49891 0.16999 1.09656
 C697 C 0.51412 0.16938 1.10977
 C698 C 0.51418 0.15553 1.12440
 C699 C 0.49907 0.18390 1.08118
 C700 C 0.49918 0.19537 1.06813
 H701 H 0.53002 0.09560 1.16314
 H702 H 0.52985 0.12096 1.13852
 H703 H 0.46867 0.12915 1.14786
 H704 H 0.46896 0.10350 1.17218
 H705 H 0.47196 0.13263 1.11340
 H706 H 0.47189 0.15708 1.08790
 H707 H 0.52597 0.17956 1.10872
 H708 H 0.52603 0.15541 1.13454
 C709 C -0.00127 0.69331 0.56748
 C710 C -0.00145 0.68175 0.58045
 C711 C -0.00164 0.66777 0.59576
 C712 C -0.01669 0.65433 0.59705
 C713 C -0.01669 0.64046 0.61165
 C714 C -0.00160 0.63984 0.62517
 C715 C 0.01341 0.65350 0.62381
 C716 C 0.01337 0.66736 0.60920
 C717 C -0.00138 0.62483 0.64042
 C718 C 0.01596 0.61554 0.64540
 C719 C 0.01610 0.60112 0.65947
 C720 C -0.00106 0.59580 0.66876
 C721 C -0.01836 0.60504 0.66401
 C722 C -0.01853 0.61946 0.64994
 C723 C -0.00095 0.58062 0.68288
 C724 C -0.00084 0.56775 0.69455
 H725 H -0.02833 0.65446 0.58666
 H726 H -0.02830 0.62999 0.61215
 H727 H 0.02509 0.65355 0.63414
 H728 H 0.02508 0.67772 0.60834
 H729 H 0.02935 0.61915 0.63816
 H730 H 0.02956 0.59400 0.66298
 H731 H -0.03172 0.60106 0.67114
 H732 H -0.03206 0.62651 0.64660
 C733 C 0.49921 0.93136 -0.19534
 C734 C 0.49926 0.91833 -0.18385
 C735 C 0.49930 0.90297 -0.16992
 C736 C 0.48228 0.89282 -0.16590
 C737 C 0.48218 0.87831 -0.15193
 C738 C 0.49913 0.87377 -0.14177
 C739 C 0.51621 0.88395 -0.14604
 C740 C 0.51627 0.89846 -0.16002
 C741 C 0.49893 0.85876 -0.12651
 C742 C 0.51449 0.84588 -0.12450
 C743 C 0.51446 0.83207 -0.10983
 C744 C 0.49889 0.83095 -0.09698
 C745 C 0.48329 0.84359 -0.09893
 C746 C 0.48328 0.85740 -0.11359
 C747 C 0.49906 0.81710 -0.08155
 C748 C 0.49916 0.80569 -0.06846
 H749 H 0.46906 0.89619 -0.17350
 H750 H 0.46887 0.87057 -0.14914
 H751 H 0.52943 0.88098 -0.13830
 H752 H 0.52951 0.90629 -0.16295
 H753 H 0.52663 0.84641 -0.13435
 H754 H 0.52660 0.82233 -0.10846
 H755 H 0.47120 0.84290 -0.08901
 H756 H 0.47122 0.86727 -0.11458
 C757 C 0.99927 0.30500 0.43289
 C758 C 0.99922 0.31645 0.41982
 C759 C 0.99912 0.33032 0.40441
 C760 C 0.98386 0.34343 0.40281
 C761 C 0.98392 0.35722 0.38813
 C762 C 0.99928 0.35808 0.37484
 C763 C 1.01450 0.34473 0.37649
 C764 C 1.01440 0.33095 0.39119
 C765 C 0.99957 0.37304 0.35954
 C766 C 1.01684 0.38268 0.35481
 C767 C 1.01701 0.39714 0.34078
 C768 C 0.99995 0.40215 0.33128
 C769 C 0.98272 0.39253 0.33575
 C770 C 0.98252 0.37807 0.34978
 C771 C 1.00003 0.41743 0.31726
 C772 C 1.00008 0.43040 0.30570
 H773 H 0.97199 0.34311 0.41301
 H774 H 0.97214 0.36745 0.38741
 H775 H 1.02640 0.34487 0.36635
 H776 H 1.02626 0.32083 0.39227
 H777 H 1.03015 0.37933 0.36224
 H778 H 1.03041 0.40456 0.33750
 H779 H 0.96943 0.39628 0.32846
 H780 H 0.96905 0.37076 0.35292
 C781 C 0.50047 0.93355 0.19449
 C782 C 0.50048 0.92060 0.18289
 C783 C 0.50050 0.90531 0.16886
 C784 C 0.48354 0.90069 0.15897
 C785 C 0.48363 0.88616 0.14499
 C786 C 0.50073 0.87606 0.14071
 C787 C 0.51769 0.88074 0.15083
 C788 C 0.51756 0.89527 0.16480
 C789 C 0.50093 0.86092 0.12555
 C790 C 0.51656 0.85949 0.11263
 C791 C 0.51657 0.84551 0.09812
 C792 C 0.50099 0.83275 0.09633
 C793 C 0.48544 0.83396 0.10917
 C794 C 0.48539 0.84795 0.12370
 C795 C 0.50085 0.81867 0.08109
 C796 C 0.50073 0.80704 0.06817
 H797 H 0.47027 0.90844 0.16193
 H798 H 0.47041 0.88309 0.13728
 H799 H 0.53102 0.87307 0.14803
 H800 H 0.53077 0.89872 0.17239
 H801 H 0.52861 0.86943 0.11351
 H802 H 0.52865 0.84475 0.08820
 H803 H 0.47332 0.82414 0.10793
 H804 H 0.47326 0.84853 0.13356
 C805 C 0.00018 0.30534 0.56891
 C806 C 0.00030 0.31678 0.58200
 C807 C 0.00047 0.33064 0.59743
 C808 C 0.01641 0.34282 0.59985
 C809 C 0.01644 0.35664 0.61452
 C810 C 0.00047 0.35849 0.62697
 C811 C -0.01544 0.34608 0.62450
 C812 C -0.01542 0.33225 0.60982
 C813 C 0.00030 0.37352 0.64222
 C814 C -0.01656 0.38422 0.64599
 C815 C -0.01657 0.39875 0.65996
 C816 C 0.00023 0.40277 0.67037
 C817 C 0.01702 0.39210 0.66686
 C818 C 0.01707 0.37757 0.65289
 C819 C 0.00035 0.41815 0.68431
 C820 C 0.00046 0.43120 0.69579
 H821 H 0.02876 0.34176 0.59028
 H822 H 0.02878 0.36615 0.61587
 H823 H -0.02784 0.34698 0.63399
 H824 H -0.02784 0.32288 0.60808
 H825 H -0.02963 0.38163 0.63785
 H826 H -0.02963 0.40698 0.66250
 H827 H 0.03011 0.39508 0.67486
 H828 H 0.03020 0.36943 0.65050
 C829 C 0.50112 0.06829 0.80494
 C830 C 0.50127 0.08131 0.81646
 C831 C 0.50141 0.09667 0.83042
 C832 C 0.48414 0.10265 0.83904
 C833 C 0.48430 0.11720 0.85300
 C834 C 0.50178 0.12594 0.85853
 C835 C 0.51905 0.11993 0.84966
 C836 C 0.51885 0.10538 0.83570
 C837 C 0.50202 0.14102 0.87375
 C838 C 0.51664 0.14119 0.88778
 C839 C 0.51663 0.15509 0.90236
 C840 C 0.50204 0.16902 0.90313
 C841 C 0.48751 0.16908 0.88916
 C842 C 0.48748 0.15517 0.87456
 C843 C 0.50181 0.18301 0.91844
 C844 C 0.50161 0.19457 0.93143
 H845 H 0.47056 0.09594 0.83513
 H846 H 0.47080 0.12132 0.85975
 H847 H 0.53270 0.12654 0.85343
 H848 H 0.53230 0.10087 0.82909
 H849 H 0.52788 0.13033 0.88771
 H850 H 0.52791 0.15488 0.91315
 H851 H 0.47616 0.17982 0.88960
 H852 H 0.47617 0.15557 0.86384
 C853 C 1.00149 0.69402 0.43099
 C854 C 1.00169 0.68251 0.41797
 C855 C 1.00196 0.66853 0.40264
 C856 C 1.01701 0.65512 0.40144
 C857 C 1.01707 0.64119 0.38688
 C858 C 1.00203 0.64047 0.37330
 C859 C 0.98704 0.65412 0.37454
 C860 C 0.98702 0.66805 0.38912
 C861 C 1.00184 0.62533 0.35815
 C862 C 0.98451 0.61597 0.35319
 C863 C 0.98441 0.60134 0.33932
 C864 C 1.00161 0.59589 0.33021
 C865 C 1.01890 0.60523 0.33490
 C866 C 1.01903 0.61986 0.34878
 C867 C 1.00157 0.58043 0.31637
 C868 C 1.00152 0.56732 0.30495
 H869 H 1.02860 0.65532 0.41188
 H870 H 1.02866 0.63073 0.38648
 H871 H 0.97540 0.65409 0.36417
 H872 H 0.97531 0.67838 0.38989
 H873 H 0.97109 0.61966 0.36033
 H874 H 0.97096 0.59415 0.33586
 H875 H 1.03229 0.60114 0.32791
 H876 H 1.03256 0.62695 0.35210
 C877 C 1.19539 0.49928 0.06783
 C878 C 1.18389 0.49908 0.08091
 C879 C 1.16995 0.49890 0.09631
 C880 C 1.15917 0.51548 0.10038
 C881 C 1.14527 0.51522 0.11501
 C882 C 1.14194 0.49834 0.12577
 C883 C 1.15295 0.48178 0.12166
 C884 C 1.16686 0.48207 0.10702
 C885 C 1.12680 0.49793 0.14097
 C886 C 1.11465 0.48176 0.14303
 C887 C 1.10007 0.48159 0.15700
 C888 C 1.09744 0.49753 0.16909
 C889 C 1.10955 0.51361 0.16728
 C890 C 1.12414 0.51382 0.15331
 C891 C 1.08207 0.49754 0.18309
 C892 C 1.06905 0.49758 0.19464
 H893 H 1.16139 0.52856 0.09212
 H894 H 1.13685 0.52812 0.11764
 H895 H 1.15089 0.46863 0.12984
 H896 H 1.17515 0.46916 0.10400
 H897 H 1.11616 0.46941 0.13359
 H898 H 1.09072 0.46909 0.15823
 H899 H 1.10766 0.52602 0.17659
 H900 H 1.13341 0.52637 0.15225
 C901 C 0.56708 -0.00095 0.69318
 C902 C 0.57978 -0.00103 0.68127
 C903 C 0.59468 -0.00115 0.66679
 C904 C 0.61417 -0.00141 0.67209
 C905 C 0.62859 -0.00158 0.65795
 C906 C 0.62368 -0.00152 0.63829
 C907 C 0.60404 -0.00123 0.63313
 C908 C 0.58967 -0.00105 0.64729
 C909 C 0.63893 -0.00173 0.62321
 C910 C 0.63668 -0.01302 0.60651
 C911 C 0.65086 -0.01297 0.59215
 C912 C 0.66748 -0.00166 0.59427
 C913 C 0.66992 0.00952 0.61087
 C914 C 0.65576 0.00949 0.62527
 C915 C 0.68183 -0.00137 0.57925
 C916 C 0.69365 -0.00115 0.56647
 H917 H 0.61821 -0.00154 0.68715
 H918 H 0.64356 -0.00203 0.66237
 H919 H 0.59980 -0.00090 0.61814
 H920 H 0.57463 -0.00078 0.64302
 H921 H 0.62403 -0.02201 0.60463
 H922 H 0.64885 -0.02172 0.57938
 H923 H 0.68271 0.01838 0.61262
 H924 H 0.65780 0.01850 0.63784
 C925 C -0.19339 0.50123 0.93405
 C926 C -0.18153 0.50104 0.92131
 C927 C -0.16710 0.50084 0.90635
 C928 C -0.14768 0.49808 0.91110
 C929 C -0.13356 0.49803 0.89668
 C930 C -0.13869 0.50073 0.87727
 C931 C -0.15828 0.50341 0.87263
 C932 C -0.17238 0.50348 0.88710
 C933 C -0.12363 0.50081 0.86200
 C934 C -0.12690 0.49160 0.84423
 C935 C -0.11257 0.49149 0.82999
 C936 C -0.09485 0.50061 0.83329
 C937 C -0.09151 0.50991 0.85086
 C938 C -0.10579 0.51002 0.86512
 C939 C -0.07995 0.50029 0.81880
 C940 C -0.06725 0.50006 0.80690
 H941 H -0.14344 0.49596 0.92595
 H942 H -0.11865 0.49565 0.90068
 H943 H -0.16265 0.50575 0.85786
 H944 H -0.18738 0.50567 0.88327
 H945 H -0.14039 0.48419 0.84148
 H946 H -0.11528 0.48419 0.81646
 H947 H -0.07785 0.51705 0.85355
 H948 H -0.10294 0.51747 0.87852
 C949 C 0.43163 -0.00014 0.30508
 C950 C 0.41864 -0.00019 0.31668
 C951 C 0.40333 -0.00022 0.33074
 C952 C 0.39218 0.01636 0.33365
 C953 C 0.37766 0.01650 0.34768
 C954 C 0.37410 0.00003 0.35900
 C955 C 0.38530 -0.01662 0.35585
 C956 C 0.39982 -0.01672 0.34182
 C957 C 0.35901 0.00030 0.37425
 C958 C 0.34706 -0.01585 0.37732
 C959 C 0.33314 -0.01570 0.39195
 C960 C 0.33098 0.00057 0.40370
 C961 C 0.34271 0.01675 0.40069
 C962 C 0.35663 0.01664 0.38607
 C963 C 0.31698 0.00056 0.41906
 C964 C 0.30541 0.00056 0.43207
 H965 H 0.39477 0.02920 0.32513
 H966 H 0.36913 0.02944 0.34959
 H967 H 0.38309 -0.02943 0.36449
 H968 H 0.40842 -0.02960 0.33974
 H969 H 0.34838 -0.02855 0.36832
 H970 H 0.32411 -0.02830 0.39414
 H971 H 0.34121 0.02939 0.40975
 H972 H 0.36577 0.02919 0.38425
 C973 C 0.19468 0.50077 0.93193
 C974 C 0.18322 0.50085 0.91890
 C975 C 0.16934 0.50087 0.90352
 C976 C 0.15778 0.48462 0.90033
 C977 C 0.14397 0.48473 0.88568
 C978 C 0.14154 0.50115 0.87403
 C979 C 0.15333 0.51738 0.87727
 C980 C 0.16714 0.51723 0.89192
 C981 C 0.12655 0.50141 0.85877
 C982 C 0.11521 0.51798 0.85579
 C983 C 0.10073 0.51805 0.84180
 C984 C 0.09742 0.50160 0.83058
 C985 C 0.10873 0.48511 0.83330
 C986 C 0.12320 0.48501 0.84730
 C987 C 0.08211 0.50150 0.81661
 C988 C 0.06910 0.50138 0.80511
 H989 H 0.15931 0.47191 0.90927
 H990 H 0.13495 0.47212 0.88373
 H991 H 0.15196 0.53014 0.86839
 H992 H 0.17604 0.52988 0.89425
 H993 H 0.11725 0.53074 0.86456
 H994 H 0.09200 0.53086 0.83987
 H995 H 0.10629 0.47231 0.82468
 H996 H 0.13185 0.47213 0.84908
 C997 C 0.56858 0.00088 0.30440
 C998 C 0.58164 0.00082 0.31583
 C999 C 0.59705 0.00074 0.32969
 C1000 C 0.60893 -0.01547 0.33154
 C1001 C 0.62357 -0.01573 0.34536
 C1002 C 0.62651 0.00025 0.35753
 C1003 C 0.61458 0.01653 0.35544
 C1004 C 0.59995 0.01675 0.34162
 C1005 C 0.64171 -0.00019 0.37258
 C1006 C 0.65296 0.01629 0.37643
 C1007 C 0.66689 0.01599 0.39096
 C1008 C 0.66978 -0.00076 0.40182
 C1009 C 0.65878 -0.01726 0.39800
 C1010 C 0.64485 -0.01701 0.38347
 C1011 C 0.68369 -0.00089 0.41716
 C1012 C 0.69516 -0.00101 0.43019
 H1013 H 0.60683 -0.02794 0.32235
 H1014 H 0.63267 -0.02838 0.34645
 H1015 H 0.61630 0.02894 0.36476
 H1016 H 0.59078 0.02935 0.34036
 H1017 H 0.65105 0.02937 0.36814
 H1018 H 0.67534 0.02885 0.39379
 H1019 H 0.66083 -0.03028 0.40638
 H1020 H 0.63625 -0.02984 0.38104
 C1021 C 0.80497 0.50008 0.07021
 C1022 C 0.81644 0.49993 0.08323
 C1023 C 0.83037 0.49974 0.09856
 C1024 C 0.83322 0.51621 0.10988
 C1025 C 0.84717 0.51620 0.12439
 C1026 C 0.85848 0.49969 0.12777
 C1027 C 0.85537 0.48315 0.11643
 C1028 C 0.84142 0.48319 0.10192
 C1029 C 0.87370 0.49982 0.14280
 C1030 C 0.87672 0.48354 0.15452
 C1031 C 0.89141 0.48351 0.16829
 C1032 C 0.90327 0.49972 0.17053
 C1033 C 0.90028 0.51603 0.15907
 C1034 C 0.88559 0.51611 0.14530
 C1035 C 0.91876 0.49949 0.18430
 C1036 C 0.93190 0.49933 0.19564
 H1037 H 0.82473 0.52909 0.10741
 H1038 H 0.84905 0.52907 0.13304
 H1039 H 0.86401 0.47031 0.11849
 H1040 H 0.83939 0.47039 0.09319
 H1041 H 0.86766 0.47088 0.15310
 H1042 H 0.89358 0.47081 0.17711
 H1043 H 0.90942 0.52863 0.16064
 H1044 H 0.88381 0.52875 0.13634
 C1045 C 0.43066 0.00100 0.69528
 C1046 C 0.41760 0.00110 0.68384
 C1047 C 0.40223 0.00120 0.66994
 C1048 C 0.39906 0.01756 0.65860
 C1049 C 0.38453 0.01750 0.64467
 C1050 C 0.37297 0.00101 0.64188
 C1051 C 0.37616 -0.01531 0.65348
 C1052 C 0.39070 -0.01520 0.66741
 C1053 C 0.35792 0.00074 0.62669
 C1054 C 0.35525 -0.01575 0.61517
 C1055 C 0.34141 -0.01587 0.60056
 C1056 C 0.33004 0.00047 0.59727
 C1057 C 0.33247 0.01691 0.60873
 C1058 C 0.34632 0.01706 0.62335
 C1059 C 0.31616 0.00047 0.58188
 C1060 C 0.30472 0.00041 0.56883
 H1061 H 0.40796 0.03031 0.66038
 H1062 H 0.38261 0.03019 0.63580
 H1063 H 0.36735 -0.02812 0.65185
 H1064 H 0.39302 -0.02794 0.67614
 H1065 H 0.36412 -0.02844 0.61719
 H1066 H 0.33970 -0.02863 0.59171
 H1067 H 0.32373 0.02963 0.60632
 H1068 H 0.34787 0.02988 0.63212
   
