data_POSCAR
  _audit_creation_date              2014-09-24
  _audit_creation_method            'ToBaCCo'
  _symmetry_space_group_name_H-M    'P1'
  _symmetry_Int_Tables_number       1
  _symmetry_cell_setting            triclinic
  loop_
  _symmetry_equiv_pos_as_xyz
 x,y,z
_cell_length_a 32.0540
_cell_length_b 32.8626
_cell_length_c 43.3393
_cell_angle_alpha 89.873100
_cell_angle_beta 89.860300
_cell_angle_gamma 89.846300
loop_
  _atom_site_label
  _atom_site_type_symbol
  _atom_site_fract_x
  _atom_site_fract_y
  _atom_site_fract_z
B1 B 0.27007 0.23484 0.22109
 B2 B 0.27962 0.28323 0.22960
 B3 B 0.23223 0.26943 0.21812
 B4 B 0.22123 0.22299 0.23248
 B5 B 0.26371 0.20851 0.25383
 B6 B 0.30030 0.24621 0.25158
 B7 B 0.23103 0.27761 0.27937
 B8 B 0.22147 0.22912 0.27090
 B9 B 0.26890 0.24287 0.28238
 B10 B 0.27992 0.28936 0.26798
 B11 B 0.23743 0.30383 0.24658
 B12 B 0.20080 0.26613 0.24887
 B13 B 0.72560 0.76643 0.21918
 B14 B 0.71396 0.71888 0.22912
 B15 B 0.76197 0.73030 0.21731
 B16 B 0.77477 0.77690 0.23026
 B17 B 0.73275 0.79404 0.25107
 B18 B 0.69462 0.75770 0.24992
 B19 B 0.76237 0.72502 0.27873
 B20 B 0.77398 0.77260 0.26879
 B21 B 0.72594 0.76129 0.28063
 B22 B 0.71314 0.71460 0.26767
 B23 B 0.75517 0.69748 0.24678
 B24 B 0.79328 0.73381 0.24795
 B25 B 0.74856 0.21743 -0.21970
 B26 B 0.72856 0.26370 -0.22510
 B27 B 0.77903 0.25830 -0.21715
 B28 B 0.79719 0.21592 -0.23455
 B29 B 0.75585 0.19534 -0.25405
 B30 B 0.71293 0.22523 -0.24766
 B31 B 0.77109 0.27103 -0.27778
 B32 B 0.79095 0.22470 -0.27243
 B33 B 0.74043 0.23012 -0.28034
 B34 B 0.72240 0.27252 -0.26295
 B35 B 0.76369 0.29306 -0.24343
 B36 B 0.80663 0.26318 -0.24977
 B37 B 0.26593 0.77576 -0.27578
 B38 B 0.21526 0.77978 -0.26788
 B39 B 0.23647 0.73417 -0.27366
 B40 B 0.28501 0.73344 -0.25887
 B41 B 0.29315 0.78056 -0.24311
 B42 B 0.24947 0.80956 -0.24922
 B43 B 0.22770 0.74514 -0.21303
 B44 B 0.27837 0.74112 -0.22095
 B45 B 0.25710 0.78675 -0.21514
 B46 B 0.20855 0.78747 -0.22997
 B47 B 0.20046 0.74036 -0.24568
 B48 B 0.24412 0.71137 -0.23962
 B49 B 1.22118 1.25764 0.78136
 B50 B 1.27109 1.26549 0.77262
 B51 B 1.25457 1.21868 0.78086
 B52 B 1.20603 1.21256 0.76672
 B53 B 1.19301 1.25746 0.74891
 B54 B 1.23372 1.29060 0.75301
 B55 B 1.26122 1.22581 0.71970
 B56 B 1.21133 1.21787 0.72845
 B57 B 1.22776 1.26462 0.72022
 B58 B 1.27630 1.27082 0.73433
 B59 B 1.28940 1.22590 0.75215
 B60 B 1.24867 1.19275 0.74798
 B61 B 0.75888 0.72614 0.71926
 B62 B 0.77871 0.77237 0.72451
 B63 B 0.72797 0.76692 0.71780
 B64 B 0.71090 0.72422 0.73524
 B65 B 0.75320 0.70340 0.75357
 B66 B 0.79564 0.73351 0.74641
 B67 B 0.73841 0.77861 0.77826
 B68 B 0.71863 0.73233 0.77300
 B69 B 0.76940 0.73777 0.77972
 B70 B 0.78644 0.78050 0.76227
 B71 B 0.74413 0.80132 0.74390
 B72 B 0.70168 0.77120 0.75106
 B73 B 1.24341 0.72304 0.28054
 B74 B 1.23147 0.77080 0.27115
 B75 B 1.27994 0.75900 0.28160
 B76 B 1.29211 0.71239 0.26800
 B77 B 1.24914 0.69576 0.24824
 B78 B 1.21118 0.73235 0.25069
 B79 B 1.27770 0.76486 0.22013
 B80 B 1.28960 0.71708 0.22948
 B81 B 1.24108 0.72891 0.21911
 B82 B 1.22901 0.77550 0.23267
 B83 B 1.27195 0.79214 0.25244
 B84 B 1.30994 0.75556 0.25002
 B85 B 0.76627 1.27219 0.22221
 B86 B 0.71665 1.28085 0.23148
 B87 B 0.73224 1.23395 0.22263
 B88 B 0.78094 1.22647 0.23615
 B89 B 0.79499 1.27067 0.25436
 B90 B 0.75474 1.30477 0.25100
 B91 B 0.72688 1.23957 0.28385
 B92 B 0.77646 1.23090 0.27451
 B93 B 0.76084 1.27775 0.28348
 B94 B 0.71214 1.28530 0.26990
 B95 B 0.69811 1.24110 0.25174
 B96 B 0.73837 1.20702 0.25509
 O97 O 0.47350 1.08957 0.01819
 O98 O 0.54172 0.91752 0.01092
 O99 O 0.44895 0.96596 0.04523
 O100 O 0.56119 1.03604 0.04489
 O101 O 0.46618 0.91828 0.01324
 O102 O 0.55084 1.08488 0.01346
 O103 O 0.55292 0.96417 0.04372
 O104 O 0.43865 1.04247 0.04334
 C105 C 0.44955 1.07860 0.03985
 C106 C 0.55245 0.92765 0.03749
 C107 C 0.45256 0.92918 0.03932
 C108 C 0.56247 1.07278 0.03936
 O109 O 0.54356 1.05795 -0.04417
 O110 O 0.46478 0.95190 -0.04490
 O111 O 0.41663 1.03741 -0.01475
 O112 O 0.58854 0.96171 -0.01372
 O113 O 0.53898 0.95445 -0.04570
 O114 O 0.46503 1.07086 -0.04029
 O115 O 0.59219 1.03529 -0.01389
 O116 O 0.41744 0.96235 -0.01151
 Co117 Co 0.50816 1.06857 -0.01206
 Co118 Co 0.50306 0.94118 -0.01512
 Co119 Co 0.43773 1.00180 0.01421
 Co120 Co 0.56785 0.99950 0.01391
 O121 O 0.50381 1.00331 0.00018
 C122 C 0.58102 1.05048 -0.03932
 C123 C 0.42743 0.95290 -0.03830
 C124 C 0.42777 1.06097 -0.03627
 C125 C 0.57673 0.95306 -0.04035
 O126 O 0.95825 0.56369 0.54141
 O127 O 1.03816 0.41684 0.51566
 O128 O 0.91867 0.47220 0.52619
 O129 O 1.08385 0.53911 0.53100
 O130 O 0.97500 0.44323 0.54127
 O131 O 1.03009 0.57292 0.54584
 O132 O 1.06856 0.46666 0.53767
 O133 O 0.91204 0.54451 0.51036
 C134 C 0.92117 0.56012 0.53540
 C135 C 1.06266 0.42947 0.53582
 C136 C 0.93781 0.45167 0.54603
 C137 C 1.06738 0.56434 0.54840
 O138 O 1.04007 0.58642 0.48495
 O139 O 0.96172 0.40150 0.49241
 O140 O 0.94341 0.52715 0.45583
 O141 O 1.07413 0.45875 0.47568
 O142 O 1.01218 0.44303 0.46166
 O143 O 0.96240 0.58265 0.47913
 O144 O 1.08118 0.53457 0.47211
 O145 O 0.93983 0.45479 0.46697
 Co146 Co 0.99753 0.57041 0.51177
 Co147 Co 0.99292 0.44589 0.50170
 Co148 Co 0.93546 0.50003 0.49145
 Co149 Co 1.06974 0.49970 0.50402
 O150 O 1.00209 0.50657 0.50351
 C151 C 1.07004 0.57125 0.46936
 C152 C 0.93445 0.41746 0.47346
 C153 C 0.94717 0.56488 0.45597
 C154 C 1.05022 0.44322 0.45637
 O155 O 1.02931 0.45536 0.05915
 O156 O 1.03136 0.54833 -0.05713
 O157 O 1.02605 0.42368 -0.03535
 O158 O 1.02655 0.57997 0.03754
 O159 O 1.05125 0.47899 -0.05212
 O160 O 1.05086 0.52392 0.05349
 O161 O 1.05243 0.57170 -0.01401
 O162 O 1.05120 0.43159 0.01637
 C163 C 1.05595 0.43553 0.04442
 C164 C 1.05759 0.56809 -0.04208
 C165 C 1.05407 0.44176 -0.04961
 C166 C 1.05446 0.56110 0.05138
 O167 O 0.96877 0.54815 0.05906
 O168 O 0.96898 0.45675 -0.05778
 O169 O 0.97173 0.42389 0.03686
 O170 O 0.97382 0.58112 -0.03520
 O171 O 0.94892 0.52601 -0.05222
 O172 O 0.94755 0.47980 0.05320
 O173 O 0.94743 0.57199 0.01618
 O174 O 0.94694 0.43240 -0.01506
 Co175 Co 0.99919 0.50185 0.05086
 Co176 Co 1.00007 0.50250 -0.04940
 Co177 Co 0.99906 0.43544 0.00076
 Co178 Co 0.99997 0.56864 0.00114
 O179 O 0.99957 0.50209 0.00083
 C180 C 0.94196 0.56746 0.04413
 C181 C 0.94266 0.43624 -0.04322
 C182 C 0.94385 0.44271 0.05078
 C183 C 0.94607 0.56321 -0.04974
 O184 O 0.52972 0.95550 0.55804
 O185 O 0.53091 1.04912 0.44268
 O186 O 0.52517 0.92429 0.46334
 O187 O 0.52615 1.08035 0.53746
 O188 O 0.55037 0.97975 0.44695
 O189 O 0.55092 1.02428 0.55286
 O190 O 0.55223 1.07209 0.48588
 O191 O 0.55098 0.93167 0.51505
 C192 C 0.55604 0.93556 0.54307
 C193 C 0.55748 1.06826 0.45784
 C194 C 0.55318 0.94247 0.44913
 C195 C 0.55412 1.06156 0.55127
 O196 O 0.46856 1.04788 0.55870
 O197 O 0.46786 0.95806 0.44166
 O198 O 0.47192 0.92377 0.53606
 O199 O 0.47376 1.08219 0.46465
 O200 O 0.44817 1.02742 0.44769
 O201 O 0.44777 0.97948 0.55280
 O202 O 0.44722 1.07240 0.51599
 O203 O 0.44640 0.93296 0.48432
 Co204 Co 0.49928 1.00189 0.55027
 Co205 Co 0.49928 1.00352 0.45010
 Co206 Co 0.49869 0.93579 0.49979
 Co207 Co 0.49975 1.06912 0.50095
 O208 O 0.49925 1.00255 0.50027
 C209 C 0.44180 1.06744 0.54391
 C210 C 0.44175 0.93731 0.45623
 C211 C 0.44426 0.94235 0.55040
 C212 C 0.44564 1.06466 0.45026
 O213 O 1.07918 1.02552 0.46341
 O214 O 0.92347 1.03056 0.53081
 O215 O 0.95140 1.02228 0.43723
 O216 O 1.05037 1.01458 0.55658
 O217 O 0.93104 1.04841 0.47887
 O218 O 1.07294 1.04146 0.51590
 O219 O 0.98285 1.04611 0.55006
 O220 O 1.02148 1.04721 0.44446
 C221 C 1.05937 1.05154 0.44809
 C222 C 0.94571 1.05442 0.54613
 C223 C 0.93468 1.05109 0.45074
 C224 C 1.06858 1.04319 0.54399
 O225 O 1.07582 0.95842 0.53034
 O226 O 0.92125 0.96708 0.46220
 O227 O 1.04935 0.97151 0.43675
 O228 O 0.94825 0.97292 0.55572
 O229 O 0.92664 0.94833 0.51411
 O230 O 1.06942 0.94344 0.47782
 O231 O 1.01612 0.94166 0.54884
 O232 O 0.97921 0.94612 0.44312
 Co233 Co 1.06745 0.99252 0.49689
 Co234 Co 0.93244 0.99826 0.49655
 Co235 Co 1.00030 0.99661 0.44618
 Co236 Co 0.99942 0.99396 0.54717
 O237 O 0.99990 0.99532 0.49669
 C238 C 1.05358 0.93409 0.54544
 C239 C 0.94127 0.94168 0.44648
 C240 C 1.06676 0.94251 0.44960
 C241 C 0.93014 0.94512 0.54218
 O242 O 0.57388 0.54457 -0.02181
 O243 O 0.43033 0.54714 0.01291
 O244 O 0.48549 0.54969 -0.05795
 O245 O 0.51882 0.54627 0.04856
 O246 O 0.42579 0.53229 -0.03972
 O247 O 0.57791 0.52697 0.03028
 O248 O 0.44930 0.51863 0.05392
 O249 O 0.55407 0.51912 -0.06358
 C250 C 0.57088 0.54758 -0.04992
 C251 C 0.43266 0.54801 0.04115
 C252 C 0.44808 0.55729 -0.05410
 C253 C 0.55672 0.55173 0.04579
 O254 O 0.57061 0.44484 0.01429
 O255 O 0.42965 0.44930 -0.02567
 O256 O 0.52038 0.44565 -0.05842
 O257 O 0.47959 0.44400 0.04657
 O258 O 0.42191 0.46431 0.02667
 O259 O 0.57881 0.46208 -0.03773
 O260 O 0.54865 0.47133 0.05526
 O261 O 0.45236 0.47642 -0.06626
 Co262 Co 0.56854 0.49479 -0.00392
 Co263 Co 0.43372 0.49807 -0.00636
 Co264 Co 0.50287 0.49760 -0.05587
 Co265 Co 0.49930 0.49519 0.04525
 O266 O 0.50111 0.49642 -0.00524
 C267 C 0.56660 0.44276 0.04243
 C268 C 0.43339 0.44811 -0.05381
 C269 C 0.55748 0.43783 -0.05344
 C270 C 0.44186 0.43894 0.04253
 C271 C 0.29162 1.21538 0.19290
 C272 C 0.31178 1.20086 0.17209
 C273 C 0.33784 1.18311 0.14852
 C274 C 0.35206 1.14308 0.15211
 C275 C 0.37822 1.12568 0.12992
 C276 C 0.39054 1.14814 0.10394
 C277 C 0.37663 1.18838 0.10037
 C278 C 0.35045 1.20591 0.12271
 C279 C 0.41470 1.12808 0.08028
 C280 C 0.43255 1.10761 0.06125
 H281 H 0.34286 1.12528 0.17205
 H282 H 0.38842 1.09444 0.13282
 H283 H 0.38561 1.20597 0.08027
 H284 H 0.33996 1.23706 0.11985
 C285 C 0.77069 0.70111 0.69035
 C286 C 0.78283 0.68187 0.66833
 C287 C 0.79981 0.65926 0.64263
 C288 C 0.80333 0.61675 0.64425
 C289 C 0.82399 0.59524 0.62084
 C290 C 0.84127 0.61609 0.59561
 C291 C 0.83679 0.65849 0.59362
 C292 C 0.81616 0.67998 0.61703
 C293 C 0.86690 0.59475 0.57337
 C294 C 0.89042 0.57807 0.55553
 H295 H 0.79120 0.60037 0.66404
 H296 H 0.82758 0.56256 0.62286
 H297 H 0.85035 0.67507 0.57445
 H298 H 0.81406 0.71285 0.61562
 C299 C 0.70574 0.78552 0.19028
 C300 C 0.68752 0.80005 0.16859
 C301 C 0.66410 0.81771 0.14363
 C302 C 0.68034 0.85079 0.12719
 C303 C 0.65627 0.86998 0.10456
 C304 C 0.61580 0.85628 0.09825
 C305 C 0.59977 0.82271 0.11430
 C306 C 0.62392 0.80343 0.13694
 C307 C 0.59058 0.87837 0.07642
 C308 C 0.57155 0.89939 0.05843
 H309 H 0.71123 0.86224 0.13229
 H310 H 0.66892 0.89604 0.09240
 H311 H 0.56847 0.81197 0.10974
 H312 H 0.61098 0.77797 0.14966
 C313 C 1.21227 0.28583 0.69062
 C314 C 1.19668 0.30165 0.66828
 C315 C 1.17564 0.32042 0.64255
 C316 C 1.14133 0.30108 0.62896
 C317 C 1.11838 0.32085 0.60587
 C318 C 1.12967 0.36006 0.59624
 C319 C 1.16449 0.37899 0.60941
 C320 C 1.18737 0.35927 0.63250
 C321 C 1.10472 0.38200 0.57405
 C322 C 1.08472 0.40239 0.55617
 H323 H 1.13177 0.27113 0.63671
 H324 H 1.09145 0.30594 0.59598
 H325 H 1.17344 0.40936 0.60226
 H326 H 1.21360 0.37467 0.64297
 C327 C 0.73573 1.19140 -0.19159
 C328 C 0.72284 1.17085 -0.17052
 C329 C 0.70499 1.14651 -0.14611
 C330 C 0.69498 1.16441 -0.11773
 C331 C 0.67346 1.14209 -0.09525
 C332 C 0.66173 1.10173 -0.10099
 C333 C 0.67266 1.08347 -0.12908
 C334 C 0.69424 1.10581 -0.15157
 C335 C 0.63530 1.08073 -0.07918
 C336 C 0.61145 1.06537 -0.06097
 H337 H 0.70270 1.19595 -0.11334
 H338 H 0.66485 1.15670 -0.07376
 H339 H 0.66346 1.05244 -0.13394
 H340 H 0.70144 1.09173 -0.17354
 C341 C 1.22453 0.70353 0.30988
 C342 C 1.20704 0.68855 0.33186
 C343 C 1.18439 0.67037 0.35722
 C344 C 1.18747 0.62843 0.36265
 C345 C 1.16364 0.61021 0.38596
 C346 C 1.13641 0.63371 0.40402
 C347 C 1.13354 0.67576 0.39880
 C348 C 1.15745 0.69403 0.37545
 C349 C 1.11146 0.61413 0.42758
 C350 C 1.09167 0.59579 0.44689
 H351 H 1.20789 0.60974 0.34861
 H352 H 1.16617 0.57769 0.38972
 H353 H 1.11265 0.69431 0.41257
 H354 H 1.15456 0.72644 0.37136
 C355 C 0.26912 0.81210 -0.18682
 C356 C 0.28194 0.83210 -0.16563
 C357 C 0.30022 0.85576 -0.14132
 C358 C 0.30744 0.89743 -0.14569
 C359 C 0.33020 0.91939 -0.12385
 C360 C 0.34583 0.89971 -0.09760
 C361 C 0.33756 0.85831 -0.09282
 C362 C 0.31485 0.83637 -0.11464
 C363 C 0.37309 0.92079 -0.07674
 C364 C 0.39730 0.93663 -0.05928
 H365 H 0.29669 0.91260 -0.16644
 H366 H 0.33668 0.95131 -0.12789
 H367 H 0.34978 0.84272 -0.07271
 H368 H 0.30992 0.80406 -0.11123
 C369 C 0.77672 0.29712 0.31362
 C370 C 0.79214 0.31037 0.33689
 C371 C 0.81288 0.32532 0.36407
 C372 C 0.84355 0.30147 0.37850
 C373 C 0.86663 0.31728 0.40311
 C374 C 0.85905 0.35700 0.41348
 C375 C 0.82764 0.38042 0.39953
 C376 C 0.80464 0.36465 0.37491
 C377 C 0.88555 0.37529 0.43645
 C378 C 0.90795 0.39298 0.45430
 H379 H 0.85037 0.27107 0.37021
 H380 H 0.89104 0.29899 0.41348
 H381 H 0.82174 0.41130 0.40713
 H382 H 0.78123 0.38347 0.36384
 C383 C 1.21456 0.28454 0.18715
 C384 C 1.19971 0.29968 0.16431
 C385 C 1.18065 0.32024 0.13857
 C386 C 1.14450 0.30437 0.12514
 C387 C 1.12249 0.32718 0.10326
 C388 C 1.13644 0.36601 0.09472
 C389 C 1.17338 0.38133 0.10737
 C390 C 1.19544 0.35847 0.12924
 C391 C 1.11056 0.39135 0.07544
 C392 C 1.08682 0.41206 0.06057
 H393 H 1.13248 0.27510 0.13243
 H394 H 1.09377 0.31518 0.09385
 H395 H 1.18428 0.41144 0.10118
 H396 H 1.22309 0.37125 0.13974
 C397 C 0.70898 0.78298 0.68760
 C398 C 0.69457 0.79874 0.66487
 C399 C 0.67699 0.82006 0.63896
 C400 C 0.64486 0.80247 0.62176
 C401 C 0.62421 0.82537 0.59920
 C402 C 0.63561 0.86593 0.59379
 C403 C 0.66875 0.88304 0.61025
 C404 C 0.68943 0.86012 0.63276
 C405 C 0.61023 0.89108 0.57409
 C406 C 0.58678 0.91186 0.55908
 H407 H 0.63481 0.77163 0.62652
 H408 H 0.59835 0.81196 0.58683
 H409 H 0.67752 0.91448 0.60651
 H410 H 0.71405 0.87411 0.64611
 C411 C 1.20982 0.72825 -0.18266
 C412 C 1.19551 0.71173 -0.16017
 C413 C 1.17756 0.68953 -0.13478
 C414 C 1.19365 0.65122 -0.12678
 C415 C 1.17282 0.62688 -0.10518
 C416 C 1.13584 0.64081 -0.09146
 C417 C 1.12061 0.67971 -0.09866
 C418 C 1.14139 0.70400 -0.12029
 C419 C 1.11110 0.61404 -0.07253
 C420 C 1.08804 0.59233 -0.05793
 H421 H 1.22138 0.63956 -0.13809
 H422 H 1.18468 0.59673 -0.10002
 H423 H 1.09183 0.69065 -0.08841
 H424 H 1.12842 0.73336 -0.12653
 C425 C 0.70890 1.22210 0.31391
 C426 C 0.69509 1.20578 0.33660
 C427 C 0.67796 1.18424 0.36253
 C428 C 0.69183 1.14470 0.36919
 C429 C 0.67149 1.12148 0.39170
 C430 C 0.63731 1.13781 0.40765
 C431 C 0.62447 1.17788 0.40178
 C432 C 0.64476 1.20106 0.37926
 C433 C 0.61220 1.11229 0.42718
 C434 C 0.58863 1.09153 0.44204
 H435 H 0.71730 1.13132 0.35618
 H436 H 0.68134 1.09037 0.39579
 H437 H 0.59775 1.19062 0.41373
 H438 H 0.63359 1.23147 0.37409
 C439 C 0.77919 0.71353 0.18672
 C440 C 0.79364 0.69772 0.16400
 C441 C 0.81233 0.67682 0.13830
 C442 C 0.84235 0.69635 0.12005
 C443 C 0.86479 0.67428 0.09795
 C444 C 0.85733 0.63260 0.09403
 C445 C 0.82621 0.61342 0.11149
 C446 C 0.80375 0.63550 0.13357
 C447 C 0.88477 0.60889 0.07478
 C448 C 0.90978 0.58950 0.06002
 H449 H 0.84952 0.72817 0.12370
 H450 H 0.88907 0.68934 0.08481
 H451 H 0.82045 0.58114 0.10890
 H452 H 0.78092 0.61999 0.14779
 C453 C 0.27996 1.20909 0.68960
 C454 C 0.29489 1.19380 0.66687
 C455 C 0.31368 1.17377 0.64084
 C456 C 0.30476 1.13275 0.63510
 C457 C 0.32685 1.11157 0.61234
 C458 C 0.35789 1.13135 0.59521
 C459 C 0.36573 1.17276 0.60019
 C460 C 0.34365 1.19394 0.62296
 C461 C 0.38498 1.10831 0.57526
 C462 C 0.40976 1.08927 0.56007
 H463 H 0.28183 1.11679 0.64895
 H464 H 0.32085 1.07946 0.60893
 H465 H 0.38998 1.18825 0.58730
 H466 H 0.35099 1.22556 0.62736
 C467 C 0.79696 0.27451 -0.18659
 C468 C 0.81099 0.29089 -0.16399
 C469 C 0.82836 0.31314 -0.13844
 C470 C 0.86577 0.30027 -0.12489
 C471 C 0.88553 0.32475 -0.10298
 C472 C 0.86808 0.36230 -0.09450
 C473 C 0.82997 0.37459 -0.10733
 C474 C 0.81016 0.35006 -0.12923
 C475 C 0.89141 0.38942 -0.07492
 C476 C 0.91333 0.41148 -0.05973
 H477 H 0.88037 0.27204 -0.13202
 H478 H 0.91514 0.31504 -0.09343
 H479 H 0.81631 0.40366 -0.10119
 H480 H 0.78145 0.36054 -0.13977
 C481 C 0.29782 0.77606 0.31189
 C482 C 0.31144 0.79294 0.33440
 C483 C 0.32799 0.81575 0.35994
 C484 C 0.36122 0.80024 0.37733
 C485 C 0.38046 0.82458 0.39958
 C486 C 0.36660 0.86456 0.40458
 C487 C 0.33251 0.87961 0.38787
 C488 C 0.31326 0.85525 0.36563
 C489 C 0.39015 0.89115 0.42439
 C490 C 0.41223 0.91287 0.43970
 H491 H 0.37312 0.76989 0.37298
 H492 H 0.40706 0.81273 0.41213
 H493 H 0.32175 0.91056 0.39126
 H494 H 0.28787 0.86772 0.35211
 C495 C 1.19461 1.20413 0.29304
 C496 C 1.17607 1.18599 0.31282
 C497 C 1.15616 1.16506 0.33779
 C498 C 1.12003 1.18112 0.35140
 C499 C 1.10159 1.16112 0.37642
 C500 C 1.11954 1.12530 0.38796
 C501 C 1.15593 1.10960 0.37455
 C502 C 1.17426 1.12950 0.34954
 C503 C 1.09876 1.10227 0.41148
 C504 C 1.08101 1.08049 0.42948
 H505 H 1.10612 1.20889 0.34260
 H506 H 1.07315 1.17318 0.38645
 H507 H 1.16970 1.08163 0.38310
 H508 H 1.20242 1.11712 0.33929
 C509 C 0.69140 0.71333 -0.20182
 C510 C 0.67315 0.69818 -0.18048
 C511 C 0.65393 0.67914 -0.15433
 C512 C 0.61151 0.66929 -0.15485
 C513 C 0.59410 0.64701 -0.13057
 C514 C 0.61911 0.63459 -0.10577
 C515 C 0.66121 0.64565 -0.10477
 C516 C 0.67858 0.66801 -0.12901
 C517 C 0.60276 0.60633 -0.08363
 C518 C 0.58865 0.58049 -0.06697
 H519 H 0.59230 0.67768 -0.17441
 H520 H 0.56160 0.63815 -0.13169
 H521 H 0.68088 0.63575 -0.08588
 H522 H 0.71149 0.67546 -0.12851
 C523 C 0.81933 1.20669 0.70275
 C524 C 0.83837 1.19305 0.68125
 C525 C 0.85832 1.17631 0.65458
 C526 C 0.83404 1.16579 0.62900
 C527 C 0.85236 1.14600 0.60392
 C528 C 0.89502 1.13691 0.60438
 C529 C 0.91959 1.14879 0.62948
 C530 C 0.90124 1.16854 0.65459
 C531 C 0.91245 1.11064 0.58138
 C532 C 0.92732 1.08614 0.56400
 H533 H 0.80075 1.17171 0.62889
 H534 H 0.83305 1.13643 0.58480
 H535 H 0.95254 1.14136 0.63016
 H536 H 0.92017 1.17658 0.67433
 C537 C 0.31588 0.69271 0.20655
 C538 C 0.33273 0.67601 0.18527
 C539 C 0.34948 0.65747 0.15806
 C540 C 0.38778 0.67025 0.14587
 C541 C 0.40292 0.65288 0.11862
 C542 C 0.37951 0.62309 0.10343
 C543 C 0.34086 0.61098 0.11536
 C544 C 0.32582 0.62824 0.14257
 C545 C 0.39740 0.60067 0.07834
 C546 C 0.41305 0.57847 0.05959
 H547 H 0.40596 0.69331 0.15751
 H548 H 0.43318 0.66192 0.10982
 H549 H 0.32288 0.58746 0.10406
 H550 H 0.29591 0.61861 0.15166
 C551 C 1.18636 0.79713 0.70731
 C552 C 1.16666 0.80931 0.68563
 C553 C 1.14567 0.82360 0.65855
 C554 C 1.10264 0.83077 0.65901
 C555 C 1.08313 0.84749 0.63312
 C556 C 1.10661 0.85691 0.60674
 C557 C 1.14942 0.84843 0.60595
 C558 C 1.16891 0.83168 0.63182
 C559 C 1.08801 0.88058 0.58258
 C560 C 1.07238 0.90344 0.56425
 H561 H 1.08448 0.82455 0.67959
 H562 H 1.05010 0.85452 0.63407
 H563 H 1.16793 0.85617 0.58584
 H564 H 1.20226 0.82614 0.63131
 C565 C 0.68951 0.30317 0.20781
 C566 C 0.67180 0.31793 0.18607
 C567 C 0.65365 0.33406 0.15842
 C568 C 0.61035 0.33435 0.15441
 C569 C 0.59321 0.35075 0.12747
 C570 C 0.61936 0.36657 0.10443
 C571 C 0.66271 0.36517 0.10811
 C572 C 0.67982 0.34877 0.13501
 C573 C 0.60164 0.38957 0.07950
 C574 C 0.58610 0.41208 0.06085
 H575 H 0.58992 0.32262 0.17226
 H576 H 0.55961 0.35228 0.12503
 H577 H 0.68317 0.37789 0.09067
 H578 H 0.71340 0.34819 0.13780
 C579 C 0.80184 0.79722 0.29021
 C580 C 0.82125 0.81465 0.30975
 C581 C 0.84213 0.83433 0.33467
 C582 C 0.82286 0.86728 0.34936
 C583 C 0.84210 0.88568 0.37452
 C584 C 0.88053 0.87103 0.38512
 C585 C 0.89965 0.83779 0.37064
 C586 C 0.88032 0.81929 0.34546
 C587 C 0.90184 0.89277 0.40887
 C588 C 0.91980 0.91362 0.42723
 H589 H 0.79308 0.87875 0.34133
 H590 H 0.82735 0.91169 0.38539
 H591 H 0.92963 0.82661 0.37851
 H592 H 0.89511 0.79344 0.33441
 C593 C 0.29843 0.28815 -0.20422
 C594 C 0.31700 0.30594 -0.18436
 C595 C 0.33675 0.32771 -0.15982
 C596 C 0.31747 0.36263 -0.14800
 C597 C 0.33623 0.38423 -0.12413
 C598 C 0.37431 0.37094 -0.11193
 C599 C 0.39339 0.33566 -0.12343
 C600 C 0.37451 0.31394 -0.14733
 C601 C 0.39513 0.39564 -0.08953
 C602 C 0.41255 0.41847 -0.07220
 H603 H 0.28816 0.37334 -0.15745
 H604 H 0.32146 0.41170 -0.11558
 H605 H 0.42305 0.32540 -0.11431
 H606 H 0.38945 0.28676 -0.15621
 C607 C 1.20271 0.27580 -0.18897
 C608 C 1.18857 0.29405 -0.16725
 C609 C 1.17135 0.31866 -0.14296
 C610 C 1.18409 0.35925 -0.13996
 C611 C 1.16401 0.38499 -0.11896
 C612 C 1.13111 0.37021 -0.10088
 C613 C 1.11922 0.32929 -0.10322
 C614 C 1.13928 0.30357 -0.12423
 C615 C 1.10691 0.39742 -0.08197
 C616 C 1.08421 0.41886 -0.06685
 H617 H 1.20856 0.37134 -0.15460
 H618 H 1.17321 0.41663 -0.11755
 H619 H 1.09355 0.31764 -0.08953
 H620 H 1.12890 0.27238 -0.12658
 C621 C 0.70858 0.77925 0.31086
 C622 C 0.69405 0.79723 0.33264
 C623 C 0.67552 0.82135 0.35682
 C624 C 0.68768 0.86201 0.36063
 C625 C 0.66611 0.88729 0.38121
 C626 C 0.63222 0.87203 0.39808
 C627 C 0.62086 0.83107 0.39491
 C628 C 0.64240 0.80582 0.37432
 C629 C 0.60692 0.89872 0.41680
 C630 C 0.58363 0.91977 0.43184
 H631 H 0.71290 0.87452 0.34693
 H632 H 0.67502 0.91894 0.38326
 H633 H 0.59452 0.81899 0.40766
 H634 H 0.63236 0.77462 0.37133
 C635 C 0.78907 0.72117 -0.19046
 C636 C 0.80487 0.70455 -0.16858
 C637 C 0.82454 0.68214 -0.14401
 C638 C 0.80837 0.64437 -0.13484
 C639 C 0.83025 0.62003 -0.11380
 C640 C 0.86841 0.63338 -0.10187
 C641 C 0.88397 0.67163 -0.11042
 C642 C 0.86213 0.69592 -0.13145
 C643 C 0.89326 0.60710 -0.08260
 C644 C 0.91614 0.58613 -0.06721
 H645 H 0.77957 0.63319 -0.14469
 H646 H 0.81805 0.59043 -0.10753
 H647 H 0.91359 0.68214 -0.10150
 H648 H 0.87519 0.72481 -0.13864
 C649 C 0.28700 1.22693 0.31303
 C650 C 0.30265 1.21033 0.33503
 C651 C 0.32291 1.18772 0.35932
 C652 C 0.36318 1.19850 0.36866
 C653 C 0.38546 1.17331 0.38884
 C654 C 0.36771 1.13707 0.39978
 C655 C 0.32696 1.12682 0.39116
 C656 C 0.30462 1.15208 0.37095
 C657 C 0.39257 1.10975 0.41834
 C658 C 0.41552 1.08810 0.43320
 H659 H 0.37790 1.22563 0.35952
 H660 H 0.41699 1.18151 0.39523
 H661 H 0.31292 1.09884 0.39935
 H662 H 0.27370 1.14315 0.36360
 C663 C 1.22200 0.71188 0.18921
 C664 C 1.20588 0.69518 0.16754
 C665 C 1.18533 0.67288 0.14336
 C666 C 1.19324 0.63115 0.13988
 C667 C 1.16968 0.60806 0.11918
 C668 C 1.13801 0.62659 0.10186
 C669 C 1.13092 0.66855 0.10469
 C670 C 1.15448 0.69163 0.12540
 C671 C 1.11055 0.60227 0.08313
 C672 C 1.08591 0.58274 0.06826
 H673 H 1.21663 0.61619 0.15393
 H674 H 1.17529 0.57563 0.11739
 H675 H 1.10632 0.68318 0.09159
 H676 H 1.14774 0.72375 0.12810
 C677 C 0.72115 1.21385 0.68951
 C678 C 0.70444 1.19765 0.66782
 C679 C 0.68288 1.17601 0.64370
 C680 C 0.69800 1.13828 0.63338
 C681 C 0.67431 1.11472 0.61298
 C682 C 0.63534 1.12874 0.60280
 C683 C 0.62079 1.16693 0.61250
 C684 C 0.64441 1.19042 0.63289
 C685 C 0.60896 1.10343 0.58386
 C686 C 0.58504 1.08338 0.56867
 H687 H 0.72747 1.12655 0.64182
 H688 H 0.68588 1.08522 0.60579
 H689 H 0.59065 1.17807 0.60494
 H690 H 0.63209 1.21925 0.64095
 C691 C 0.78484 0.28995 0.19240
 C692 C 0.79973 0.30691 0.17034
 C693 C 0.81843 0.32937 0.14543
 C694 C 0.80866 0.37066 0.14149
 C695 C 0.83056 0.39410 0.11993
 C696 C 0.86228 0.37629 0.10221
 C697 C 0.87109 0.33469 0.10544
 C698 C 0.84922 0.31127 0.12702
 C699 C 0.88856 0.40111 0.08295
 C700 C 0.91265 0.42094 0.06778
 H701 H 0.78515 0.38504 0.15583
 H702 H 0.82375 0.42629 0.11782
 H703 H 0.89581 0.32069 0.09204
 H704 H 0.85728 0.27948 0.13008
 C705 C 0.28428 0.79243 0.69392
 C706 C 0.29959 0.80836 0.67154
 C707 C 0.31922 0.82946 0.64628
 C708 C 0.30499 0.86821 0.63758
 C709 C 0.32739 0.89118 0.61595
 C710 C 0.36407 0.87544 0.60292
 C711 C 0.37750 0.83618 0.61090
 C712 C 0.35517 0.81328 0.63255
 C713 C 0.38991 0.90036 0.58333
 C714 C 0.41357 0.92033 0.56783
 H715 H 0.27743 0.88118 0.64828
 H716 H 0.31685 0.92158 0.61013
 H717 H 0.40596 0.82380 0.60114
 H718 H 0.36670 0.78356 0.63932
 C719 C 0.26920 1.19632 -0.18976
 C720 C 0.28321 1.17833 -0.16778
 C721 C 0.30218 1.15666 -0.14244
 C722 C 0.30399 1.11401 -0.14267
 C723 C 0.32623 1.09310 -0.11977
 C724 C 0.34676 1.11474 -0.09650
 C725 C 0.34409 1.15734 -0.09588
 C726 C 0.32192 1.17823 -0.11878
 C727 C 0.37322 1.09383 -0.07469
 C728 C 0.39713 1.07778 -0.05689
 H729 H 0.28921 1.09700 -0.16101
 H730 H 0.32832 1.06021 -0.12067
 H731 H 0.36011 1.17446 -0.07819
 H732 H 0.32112 1.21119 -0.11852
 C733 C 0.78299 0.70501 0.30701
 C734 C 0.80259 0.68872 0.32731
 C735 C 0.82813 0.66854 0.35000
 C736 C 0.82502 0.62635 0.35400
 C737 C 0.85166 0.60614 0.37447
 C738 C 0.88174 0.62793 0.39099
 C739 C 0.88478 0.67019 0.38711
 C740 C 0.85811 0.69044 0.36658
 C741 C 0.90784 0.60689 0.41291
 C742 C 0.92751 0.58821 0.43199
 H743 H 0.80227 0.60905 0.34109
 H744 H 0.84877 0.57352 0.37744
 H745 H 0.90768 0.68742 0.39993
 H746 H 0.86108 0.72303 0.36345
 C747 C 0.71573 1.21353 0.19311
 C748 C 0.69917 1.19808 0.17110
 C749 C 0.67696 1.17952 0.14593
 C750 C 0.68744 1.14016 0.13630
 C751 C 0.66356 1.12073 0.11376
 C752 C 0.62894 1.14045 0.10075
 C753 C 0.61881 1.18011 0.11002
 C754 C 0.64276 1.19959 0.13257
 C755 C 0.60355 1.11912 0.07864
 C756 C 0.58366 1.09922 0.06051
 H757 H 0.71354 1.12419 0.14663
 H758 H 0.67169 1.09005 0.10683
 H759 H 0.59211 1.19566 0.10019
 H760 H 0.63414 1.22994 0.14003
 C761 C 1.22358 0.70913 0.69805
 C762 C 1.20903 0.68999 0.67702
 C763 C 1.18828 0.66767 0.65307
 C764 C 1.18813 0.62504 0.65361
 C765 C 1.16406 0.60343 0.63235
 C766 C 1.13990 0.62439 0.61056
 C767 C 1.14061 0.66702 0.60970
 C768 C 1.16467 0.68861 0.63095
 C769 C 1.11400 0.60236 0.58929
 C770 C 1.09239 0.58454 0.57106
 H771 H 1.20584 0.60857 0.67088
 H772 H 1.16376 0.57048 0.63320
 H773 H 1.12209 0.68355 0.59294
 H774 H 1.16411 0.72159 0.63059
 C775 C 0.72599 0.80425 -0.19323
 C776 C 0.71293 0.82463 -0.17209
 C777 C 0.69474 0.84896 -0.14772
 C778 C 0.68941 0.89105 -0.15170
 C779 C 0.66808 0.91404 -0.12941
 C780 C 0.65188 0.89508 -0.10297
 C781 C 0.65791 0.85313 -0.09874
 C782 C 0.67919 0.83018 -0.12101
 C783 C 0.62698 0.91780 -0.08102
 C784 C 0.60481 0.93512 -0.06256
 H785 H 0.70085 0.90593 -0.17238
 H786 H 0.66345 0.94635 -0.13313
 H787 H 0.64533 0.83799 -0.07854
 H788 H 0.68263 0.79764 -0.11776
 C789 C 1.20950 0.29870 0.30687
 C790 C 1.18955 0.31623 0.32642
 C791 C 1.16390 0.33800 0.34826
 C792 C 1.16696 0.38042 0.35046
 C793 C 1.14076 0.40195 0.37053
 C794 C 1.11112 0.38123 0.38843
 C795 C 1.10797 0.33878 0.38619
 C796 C 1.13420 0.31724 0.36608
 C797 C 1.08638 0.40325 0.41073
 C798 C 1.06802 0.42171 0.43066
 H799 H 1.18953 0.39686 0.33661
 H800 H 1.14385 0.43468 0.37230
 H801 H 1.08553 0.32235 0.40014
 H802 H 1.13128 0.28448 0.36439
 C803 C 0.29702 0.78452 0.19099
 C804 C 0.31530 0.79985 0.16950
 C805 C 0.33898 0.81878 0.14498
 C806 C 0.37226 0.79800 0.13088
 C807 C 0.39715 0.81764 0.10873
 C808 C 0.38892 0.85821 0.10062
 C809 C 0.35533 0.87870 0.11448
 C810 C 0.33054 0.85912 0.13656
 C811 C 0.41460 0.87969 0.07849
 C812 C 0.43377 0.90054 0.06034
 H813 H 0.37933 0.76688 0.13734
 H814 H 0.42296 0.80140 0.09822
 H815 H 0.34858 0.91004 0.10845
 H816 H 0.30520 0.87567 0.14742
 C817 C 0.78551 0.29738 0.69464
 C818 C 0.80126 0.31828 0.67483
 C819 C 0.82317 0.34302 0.65248
 C820 C 0.85050 0.32462 0.63140
 C821 C 0.87440 0.34855 0.61131
 C822 C 0.87137 0.39113 0.61219
 C823 C 0.84384 0.40959 0.63315
 C824 C 0.81992 0.38560 0.65330
 C825 C 0.89559 0.41528 0.59074
 C826 C 0.91546 0.43343 0.57138
 H827 H 0.85374 0.29180 0.63076
 H828 H 0.89535 0.33384 0.59513
 H829 H 0.84098 0.44242 0.63398
 H830 H 0.79931 0.40025 0.66974
 C831 C 1.18434 1.19602 0.70471
 C832 C 1.16690 1.18039 0.68335
 C833 C 1.14931 1.16229 0.65637
 C834 C 1.17587 1.15029 0.63233
 C835 C 1.15959 1.13085 0.60645
 C836 C 1.11669 1.12367 0.60451
 C837 C 1.08996 1.13678 0.62815
 C838 C 1.10627 1.15618 0.65408
 C839 C 1.10071 1.09827 0.58051
 C840 C 1.08665 1.07441 0.56238
 H841 H 1.20921 1.15516 0.63391
 H842 H 1.18053 1.12031 0.58848
 H843 H 1.05677 1.13082 0.62698
 H844 H 1.08555 1.16557 0.67254
 C845 C 0.68640 0.69426 0.20744
 C846 C 0.66780 0.67704 0.18736
 C847 C 0.64839 0.65779 0.16158
 C848 C 0.67020 0.62761 0.14546
 C849 C 0.65254 0.60991 0.11939
 C850 C 0.61311 0.62251 0.10929
 C851 C 0.59143 0.65304 0.12521
 C852 C 0.60920 0.67086 0.15129
 C853 C 0.59344 0.60096 0.08466
 C854 C 0.57680 0.58008 0.06564
 H855 H 0.70078 0.61776 0.15307
 H856 H 0.66927 0.58596 0.10742
 H857 H 0.56069 0.66258 0.11774
 H858 H 0.59244 0.69464 0.16342
 C859 C 1.20451 0.79538 0.29349
 C860 C 1.18578 0.81264 0.31361
 C861 C 1.16553 0.83213 0.33907
 C862 C 1.18350 0.86678 0.35211
 C863 C 1.16473 0.88528 0.37753
 C864 C 1.12800 0.86912 0.39002
 C865 C 1.11027 0.83411 0.37725
 C866 C 1.12917 0.81549 0.35182
 C867 C 1.10644 0.89137 0.41356
 C868 C 1.08828 0.91304 0.43141
 H869 H 1.21179 0.87961 0.34250
 H870 H 1.17834 0.91267 0.38703
 H871 H 1.08157 0.82173 0.38654
 H872 H 1.11538 0.78838 0.34202
 C873 C 0.69960 0.28184 -0.20068
 C874 C 0.67904 0.29590 -0.18011
 C875 C 0.65631 0.31338 -0.15495
 C876 C 0.67762 0.32484 -0.12819
 C877 C 0.65650 0.34543 -0.10472
 C878 C 0.61402 0.35438 -0.10797
 C879 C 0.59241 0.34165 -0.13427
 C880 C 0.61355 0.32111 -0.15777
 C881 C 0.59392 0.38112 -0.08652
 C882 C 0.57723 0.40588 -0.07028
 H883 H 0.71077 0.31900 -0.12592
 H884 H 0.67356 0.35567 -0.08464
 H885 H 0.55966 0.34896 -0.13713
 H886 H 0.59692 0.31242 -0.17846
 C887 C 0.80409 1.20804 0.29750
 C888 C 0.82322 1.19187 0.31795
 C889 C 0.84389 1.17329 0.34364
 C890 C 0.82124 1.16497 0.37060
 C891 C 0.84044 1.14491 0.39522
 C892 C 0.88241 1.13342 0.39297
 C893 C 0.90537 1.14284 0.36634
 C894 C 0.88614 1.16283 0.34170
 C895 C 0.90055 1.10750 0.41597
 C896 C 0.91595 1.08313 0.43327
 H897 H 0.78854 1.17315 0.37229
 H898 H 0.82230 1.13727 0.41554
 H899 H 0.93772 1.13356 0.36425
 H900 H 0.90387 1.16928 0.32095
 C901 C 0.30762 0.72271 -0.19679
 C902 C 0.32828 0.70776 -0.17663
 C903 C 0.35093 0.68870 -0.15206
 C904 C 0.39401 0.68243 -0.15462
 C905 C 0.41504 0.66009 -0.13199
 C906 C 0.39300 0.64411 -0.10679
 C907 C 0.35018 0.65159 -0.10373
 C908 C 0.32918 0.67393 -0.12633
 C909 C 0.41310 0.61595 -0.08630
 C910 C 0.42934 0.59020 -0.07063
 H911 H 0.41100 0.69364 -0.17452
 H912 H 0.44809 0.65402 -0.13471
 H913 H 0.33280 0.63890 -0.08453
 H914 H 0.29580 0.67854 -0.12426
 C915 C 0.80593 0.79096 0.69914
 C916 C 0.82404 0.80508 0.67732
 C917 C 0.84306 0.82237 0.65041
 C918 C 0.81783 0.83485 0.62577
 C919 C 0.83550 0.85492 0.60051
 C920 C 0.87848 0.86228 0.59980
 C921 C 0.90390 0.84849 0.62395
 C922 C 0.88620 0.82850 0.64924
 C923 C 0.89576 0.88866 0.57673
 C924 C 0.91094 0.91325 0.55951
 H925 H 0.78438 0.83017 0.62654
 H926 H 0.81554 0.86597 0.58216
 H927 H 0.93711 0.85457 0.62377
 H928 H 0.90590 0.81894 0.66822
 C929 C 0.30655 0.30743 0.20709
 C930 C 0.32515 0.32330 0.18627
 C931 C 0.34502 0.34029 0.15967
 C932 C 0.37973 0.32086 0.14656
 C933 C 0.39789 0.33661 0.11975
 C934 C 0.38097 0.37148 0.10594
 C935 C 0.34581 0.39038 0.11879
 C936 C 0.32779 0.37473 0.14558
 C937 C 0.40214 0.39107 0.08092
 C938 C 0.42018 0.41098 0.06189
 H939 H 0.39274 0.29373 0.15709
 H940 H 0.42540 0.32214 0.11016
 H941 H 0.33289 0.41768 0.10845
 H942 H 0.30057 0.38953 0.15536
   
