data_POSCAR
  _audit_creation_date              2014-09-24
  _audit_creation_method            'ToBaCCo'
  _symmetry_space_group_name_H-M    'P1'
  _symmetry_Int_Tables_number       1
  _symmetry_cell_setting            triclinic
  loop_
  _symmetry_equiv_pos_as_xyz
 x,y,z
_cell_length_a 13.2412
_cell_length_b 12.7343
_cell_length_c 15.8809
_cell_angle_alpha 90.136800
_cell_angle_beta 89.799400
_cell_angle_gamma 90.565900
loop_
  _atom_site_label
  _atom_site_type_symbol
  _atom_site_fract_x
  _atom_site_fract_y
  _atom_site_fract_z
O1 O 0.16573 0.06370 0.10185
 O2 O -0.17743 -0.06195 0.10166
 O3 O -0.04583 0.18643 0.10399
 O4 O 0.04363 -0.17441 0.11031
 O5 O -0.18861 0.11724 0.06996
 O6 O 0.18412 -0.11183 0.06609
 O7 O -0.12526 -0.20342 0.04968
 O8 O 0.12023 0.20642 0.04779
 C9 C 0.15918 0.15917 0.10731
 C10 C -0.17121 -0.15760 0.10689
 C11 C -0.13473 0.16681 0.12248
 C12 C 0.13448 -0.15612 0.12291
 O13 O 0.16576 -0.05749 -0.10109
 O14 O -0.17632 0.06469 -0.10121
 O15 O 0.04676 0.17910 -0.11008
 O16 O -0.04656 -0.18218 -0.10392
 O17 O -0.18908 -0.11498 -0.06962
 O18 O 0.18600 0.11793 -0.06538
 O19 O 0.11862 -0.20078 -0.04736
 O20 O -0.12254 0.20668 -0.04950
 Co21 Co 0.15906 0.00297 0.00035
 Co22 Co -0.16661 0.00132 0.00020
 Co23 Co -0.00041 0.17515 -0.00237
 Co24 Co -0.00227 -0.17071 0.00260
 O25 O -0.00290 0.00221 0.00022
 C26 C 0.15834 -0.15296 -0.10685
 C27 C -0.16863 0.16043 -0.10659
 C28 C 0.13760 0.16143 -0.12264
 C29 C -0.13522 -0.16412 -0.12205
 O30 O 0.43673 0.33660 0.38732
 O31 O 0.59010 0.68806 0.42804
 O32 O 0.31064 0.56800 0.40313
 O33 O 0.74860 0.40782 0.46253
 O34 O 0.40403 0.70421 0.44221
 O35 O 0.60917 0.34307 0.40838
 O36 O 0.64559 0.53679 0.38649
 O37 O 0.29906 0.37802 0.44527
 C38 C 0.34467 0.34308 0.38368
 C39 C 0.63437 0.63255 0.37365
 C40 C 0.33868 0.66146 0.39364
 C41 C 0.70474 0.34085 0.41176
 O42 O 0.58206 0.30546 0.57678
 O43 O 0.43204 0.66619 0.61328
 O44 O 0.31227 0.43237 0.60041
 O45 O 0.72109 0.60559 0.52710
 O46 O 0.59669 0.64979 0.59960
 O47 O 0.39886 0.29548 0.55736
 O48 O 0.65631 0.45043 0.60370
 O49 O 0.29501 0.62033 0.55706
 Co50 Co 0.50514 0.33548 0.48482
 Co51 Co 0.50493 0.66409 0.51854
 Co52 Co 0.32213 0.49958 0.50170
 Co53 Co 0.64340 0.48987 0.49487
 O54 O 0.48938 0.50228 0.50266
 C55 C 0.63730 0.35889 0.62388
 C56 C 0.34029 0.65927 0.61705
 C57 C 0.33722 0.33865 0.60849
 C58 C 0.68839 0.65565 0.58873
 C59 C 0.17677 0.30233 0.29394
 C60 C 0.19952 0.33174 0.20101
 C61 C 0.20404 0.21433 0.17945
 C62 C 0.18028 0.18423 0.27098
 C63 C 0.31790 0.21204 0.19654
 C64 C 0.31435 0.33008 0.21924
 C65 C 0.29078 0.29964 0.31071
 C66 C 0.29484 0.18242 0.28882
 H67 H 0.12031 0.34037 0.33548
 H68 H 0.15953 0.39198 0.16369
 H69 H 0.12451 0.12339 0.29077
 H70 H 0.37499 0.17428 0.15535
 H71 H 0.37025 0.39087 0.19958
 H72 H 0.33455 0.12184 0.32602
 C73 C 0.76536 0.76897 0.31125
 C74 C 0.82907 0.71613 0.24151
 C75 C 0.77575 0.78396 0.17566
 C76 C 0.71252 0.83744 0.24472
 C77 C 0.69343 0.69922 0.16348
 C78 C 0.74619 0.63054 0.23047
 C79 C 0.68296 0.68414 0.29939
 C80 C 0.62955 0.75201 0.23359
 H81 H 0.79448 0.79726 0.37282
 H82 H 0.91164 0.70211 0.24424
 H83 H 0.69934 0.92317 0.25031
 H84 H 0.66456 0.67107 0.10181
 H85 H 0.75961 0.54501 0.22517
 H86 H 0.54698 0.76597 0.23106
 C87 C 0.67887 0.19233 0.71873
 C88 C 0.79460 0.19066 0.73114
 C89 C 0.77927 0.21804 0.82456
 C90 C 0.66397 0.21931 0.81295
 C91 C 0.78644 0.33620 0.80508
 C92 C 0.80113 0.30919 0.71068
 C93 C 0.68578 0.31043 0.69892
 C94 C 0.67030 0.33827 0.79225
 H95 H 0.63408 0.13321 0.68296
 H96 H 0.84631 0.12957 0.70661
 H97 H 0.60798 0.18165 0.85576
 H98 H 0.83148 0.39489 0.84107
 H99 H 0.85716 0.34685 0.66790
 H100 H 0.61847 0.39937 0.81652
 C101 C 0.22752 0.64419 0.75726
 C102 C 0.28411 0.70826 0.82583
 C103 C 0.20242 0.79233 0.82057
 C104 C 0.14469 0.72929 0.75345
 C105 C 0.26197 0.85221 0.75253
 C106 C 0.34426 0.76773 0.75716
 C107 C 0.28702 0.70464 0.68955
 C108 C 0.20516 0.78860 0.68434
 H109 H 0.21426 0.55798 0.75738
 H110 H 0.31558 0.67629 0.88506
 H111 H 0.06212 0.71429 0.75418
 H112 H 0.27586 0.93824 0.75186
 H113 H 0.42692 0.78341 0.75797
 H114 H 0.17354 0.82065 0.62518
 C115 C 0.30157 0.31357 0.77072
 C116 C 0.18602 0.31297 0.78343
 C117 C 0.18950 0.20138 0.80573
 C118 C 0.30027 0.19694 0.79686
 C119 C 0.17244 0.16599 0.71878
 C120 C 0.17081 0.28200 0.69031
 C121 C 0.28689 0.27978 0.67811
 C122 C 0.28839 0.16310 0.70367
 H123 H 0.35502 0.37424 0.79476
 H124 H 0.14168 0.37208 0.81897
 H125 H 0.35135 0.16042 0.84353
 H126 H 0.11676 0.10385 0.70149
 H127 H 0.11453 0.31660 0.64705
 H128 H 0.33057 0.09928 0.67192
 C129 C 0.86232 0.70764 0.68111
 C130 C 0.85137 0.82468 0.70784
 C131 C 0.82273 0.79013 0.79792
 C132 C 0.83511 0.67406 0.77245
 C133 C 0.71049 0.78646 0.77470
 C134 C 0.73789 0.82057 0.68397
 C135 C 0.74968 0.70446 0.65820
 C136 C 0.72228 0.67023 0.74891
 H137 H 0.92447 0.67529 0.64214
 H138 H 0.90474 0.88946 0.69184
 H139 H 0.87465 0.61354 0.80984
 H140 H 0.64776 0.81850 0.81323
 H141 H 0.69842 0.88135 0.64682
 H142 H 0.66940 0.60541 0.76604
 C143 C 0.17269 0.72041 0.31655
 C144 C 0.17742 0.83724 0.28984
 C145 C 0.18823 0.80159 0.19774
 C146 C 0.18308 0.68568 0.22363
 C147 C 0.30429 0.80216 0.20578
 C148 C 0.29430 0.83667 0.29913
 C149 C 0.28873 0.72045 0.32462
 C150 C 0.29925 0.68550 0.23232
 H151 H 0.11881 0.68644 0.36304
 H152 H 0.12622 0.89978 0.31260
 H153 H 0.13672 0.62386 0.19243
 H154 H 0.35830 0.83606 0.15937
 H155 H 0.34080 0.89819 0.33052
 H156 H 0.35036 0.62307 0.20913
 C157 C 0.71925 0.31539 0.24898
 C158 C 0.82904 0.32183 0.21691
 C159 C 0.82539 0.20847 0.19907
 C160 C 0.71999 0.19744 0.22671
 C161 C 0.86551 0.18160 0.28264
 C162 C 0.86818 0.29982 0.30684
 C163 C 0.75828 0.29033 0.33876
 C164 C 0.75600 0.17184 0.31688
 H165 H 0.65850 0.37093 0.23200
 H166 H 0.85986 0.38115 0.17225
 H167 H 0.66094 0.15420 0.19074
 H168 H 0.92685 0.12409 0.29245
 H169 H 0.93176 0.34129 0.33831
 H170 H 0.72727 0.10677 0.35702
   
