data_POSCAR
  _audit_creation_date              2014-09-24
  _audit_creation_method            'ToBaCCo'
  _symmetry_space_group_name_H-M    'P1'
  _symmetry_Int_Tables_number       1
  _symmetry_cell_setting            triclinic
  loop_
  _symmetry_equiv_pos_as_xyz
 x,y,z
_cell_length_a 30.4509
_cell_length_b 32.8044
_cell_length_c 20.2773
_cell_angle_alpha 87.220800
_cell_angle_beta 84.488400
_cell_angle_gamma 91.812700
loop_
  _atom_site_label
  _atom_site_type_symbol
  _atom_site_fract_x
  _atom_site_fract_y
  _atom_site_fract_z
C1 C 1.27033 0.17020 0.31229
 C2 C 1.23905 0.19976 0.30290
 C3 C 1.20135 0.18903 0.27219
 C4 C 1.19569 0.15036 0.24863
 C5 C 1.22896 0.12210 0.25259
 C6 C 1.26644 0.13161 0.28530
 C7 C 1.24806 0.24326 0.31507
 C8 C 1.29069 0.26090 0.29967
 C9 C 1.29711 0.30342 0.28884
 C10 C 1.26004 0.32819 0.29528
 C11 C 1.21785 0.31066 0.31353
 C12 C 1.21255 0.26875 0.32702
 H13 H 1.29918 0.17848 0.33659
 H14 H 1.17704 0.21140 0.26269
 H15 H 1.31796 0.24134 0.28785
 H16 H 1.17972 0.25570 0.34168
 H17 H 1.22427 0.09220 0.23343
 H18 H 1.26352 0.36087 0.28479
 C19 C 0.77567 -0.32040 0.30060
 C20 C 0.74226 -0.29195 0.29853
 C21 C 0.70150 -0.30436 0.27774
 C22 C 0.69494 -0.34334 0.25578
 C23 C 0.72971 -0.37025 0.25197
 C24 C 0.77017 -0.35936 0.27554
 C25 C 0.75104 -0.24806 0.30865
 C26 C 0.79189 -0.22911 0.28501
 C27 C 0.79661 -0.18647 0.27776
 C28 C 0.76022 -0.16243 0.29433
 C29 C 0.71970 -0.18121 0.31953
 C30 C 0.71604 -0.22359 0.32962
 H31 H 0.80689 -0.31118 0.31774
 H32 H 0.67521 -0.28312 0.27448
 H33 H 0.81907 -0.24726 0.26654
 H34 H 0.68456 -0.23756 0.34971
 H35 H 0.72402 -0.40045 0.23448
 H36 H 0.76293 -0.12958 0.28520
 C37 C 0.78706 0.21652 -0.23572
 C38 C 0.75090 0.23882 -0.25313
 C39 C 0.71424 0.21743 -0.27301
 C40 C 0.71244 0.17484 -0.27195
 C41 C 0.74865 0.15276 -0.25426
 C42 C 0.78641 0.17383 -0.23701
 C43 C 0.74998 0.28372 -0.24574
 C44 C 0.78921 0.30803 -0.25182
 C45 C 0.78886 0.34898 -0.23436
 C46 C 0.74828 0.36644 -0.21601
 C47 C 0.70859 0.34384 -0.21749
 C48 C 0.70970 0.30235 -0.22936
 H49 H 0.81546 0.23200 -0.21870
 H50 H 0.68631 0.23364 -0.28873
 H51 H 0.82034 0.29471 -0.26741
 H52 H 0.67889 0.28466 -0.22380
 H53 H 0.74740 0.11970 -0.25382
 H54 H 0.74725 0.39858 -0.20634
 C55 C 1.27064 -0.31363 -0.20574
 C56 C 1.24841 -0.28184 -0.23486
 C57 C 1.22035 -0.29018 -0.28345
 C58 C 1.21085 -0.33007 -0.29855
 C59 C 1.23091 -0.36234 -0.26671
 C60 C 1.26217 -0.35441 -0.22136
 C61 C 1.25216 -0.23971 -0.21386
 C62 C 1.29345 -0.22033 -0.21017
 C63 C 1.29636 -0.17802 -0.20395
 C64 C 1.25778 -0.15555 -0.19917
 C65 C 1.21647 -0.17503 -0.20184
 C66 C 1.21384 -0.21713 -0.20692
 H67 H 1.29242 -0.30650 -0.16843
 H68 H 1.20445 -0.26543 -0.30812
 H69 H 1.32328 -0.23728 -0.21869
 H70 H 1.18185 -0.23231 -0.20851
 H71 H 1.22368 -0.39310 -0.28045
 H72 H 1.26028 -0.12258 -0.19761
 C73 C 0.21823 0.30747 0.74968
 C74 C 0.22770 0.26942 0.77815
 C75 C 0.19326 0.24026 0.79476
 C76 C 0.14963 0.24783 0.78064
 C77 C 0.14113 0.28637 0.75074
 C78 C 0.17534 0.31607 0.73428
 C79 C 0.27444 0.25792 0.77987
 C80 C 0.30554 0.28386 0.80510
 C81 C 0.35116 0.27622 0.79682
 C82 C 0.36472 0.24089 0.76354
 C83 C 0.33372 0.21474 0.73803
 C84 C 0.28878 0.22325 0.74772
 H85 H 0.24511 0.32961 0.73622
 H86 H 0.20167 0.21081 0.81522
 H87 H 0.29381 0.31105 0.82808
 H88 H 0.26471 0.20374 0.72726
 H89 H 0.10839 0.29326 0.73823
 H90 H 0.39921 0.23393 0.75545
 C91 C 0.71816 0.80249 0.75803
 C92 C 0.72724 0.76286 0.78061
 C93 C 0.69200 0.73454 0.79825
 C94 C 0.64790 0.74511 0.79187
 C95 C 0.63991 0.78534 0.76870
 C96 C 0.67470 0.81453 0.75124
 C97 C 0.77417 0.75065 0.77861
 C98 C 0.80660 0.77711 0.79975
 C99 C 0.85184 0.76981 0.78683
 C100 C 0.86443 0.73440 0.75357
 C101 C 0.83244 0.70748 0.73201
 C102 C 0.78743 0.71555 0.74634
 H103 H 0.74602 0.82305 0.74313
 H104 H 0.69953 0.70387 0.81443
 H105 H 0.79635 0.80462 0.82328
 H106 H 0.76238 0.69560 0.72931
 H107 H 0.60641 0.79421 0.76524
 H108 H 0.89899 0.72857 0.74185
 C109 C 0.72271 0.28632 0.19260
 C110 C 0.73606 0.24995 0.22232
 C111 C 0.70456 0.21846 0.24203
 C112 C 0.65974 0.22346 0.23261
 C113 C 0.64693 0.26043 0.20289
 C114 C 0.67839 0.29176 0.18204
 C115 C 0.78309 0.24603 0.23346
 C116 C 0.80283 0.27417 0.27238
 C117 C 0.84798 0.27349 0.28020
 C118 C 0.87380 0.24430 0.24794
 C119 C 0.85445 0.21514 0.20906
 C120 C 0.80880 0.21620 0.20267
 H121 H 0.74721 0.31050 0.17756
 H122 H 0.71505 0.19022 0.26448
 H123 H 0.78275 0.29671 0.29707
 H124 H 0.79342 0.19476 0.17220
 H125 H 0.61268 0.26469 0.19498
 H126 H 0.90836 0.24338 0.25597
 C127 C 0.22403 0.79397 0.21645
 C128 C 0.23520 0.75554 0.24166
 C129 C 0.20277 0.72382 0.25006
 C130 C 0.15937 0.72983 0.23312
 C131 C 0.14912 0.76900 0.20766
 C132 C 0.18121 0.80137 0.19835
 C133 C 0.28143 0.74839 0.25704
 C134 C 0.30394 0.77638 0.29413
 C135 C 0.34759 0.76984 0.30824
 C136 C 0.36896 0.73589 0.28287
 C137 C 0.34807 0.70854 0.24356
 C138 C 0.30381 0.71438 0.23228
 H139 H 0.24945 0.81793 0.21131
 H140 H 0.21213 0.69424 0.26880
 H141 H 0.28711 0.80251 0.31349
 H142 H 0.28740 0.69358 0.20189
 H143 H 0.11619 0.77437 0.19472
 H144 H 0.40261 0.73106 0.29337
 N145 N 1.07014 0.05073 0.04449
 N146 N 1.09835 0.07930 0.05965
 N147 N 1.05240 -0.04213 0.08538
 N148 N 1.06548 -0.07167 0.12528
 N149 N 1.08326 -0.03272 0.03674
 N150 N 1.11797 -0.05513 0.04229
 N151 N 1.03964 0.04257 0.09397
 N152 N 1.04539 0.06622 0.14329
 C153 C 1.08163 0.08925 0.12066
 C154 C 1.10638 -0.07971 0.09692
 N155 N 0.92470 -0.05532 0.06062
 N156 N 0.89454 -0.08384 0.08288
 N157 N 0.94650 0.02954 0.10621
 N158 N 0.94533 0.06271 0.14026
 N159 N 0.91636 0.03030 0.06370
 N160 N 0.89408 0.06441 0.06853
 N161 N 0.95729 -0.05508 0.09864
 N162 N 0.95052 -0.08361 0.14687
 Mn163 Mn 0.99884 -0.00670 0.09652
 C164 C 0.91171 -0.10163 0.13585
 C165 C 0.91204 0.08378 0.11794
 N166 N 1.08371 -0.02467 -0.10357
 N167 N 1.11538 -0.05046 -0.11458
 N168 N 1.04027 0.05550 -0.14053
 N169 N 1.03880 0.08982 -0.17704
 N170 N 1.07003 0.05898 -0.09815
 N171 N 1.09021 0.09539 -0.10554
 N172 N 1.05322 -0.02955 -0.14419
 N173 N 1.06330 -0.05917 -0.18429
 Mn174 Mn 1.07704 0.01339 -0.03030
 C175 C 1.10236 -0.07154 -0.16507
 C176 C 1.07038 0.11424 -0.15505
 N177 N 0.91566 0.03458 -0.08103
 N178 N 0.88289 0.05913 -0.09091
 N179 N 0.95860 -0.04474 -0.13158
 N180 N 0.96049 -0.07621 -0.16973
 N181 N 0.92666 -0.05059 -0.08312
 N182 N 0.90590 -0.08635 -0.08762
 N183 N 0.94721 0.03992 -0.12980
 N184 N 0.93751 0.06855 -0.17311
 Mn185 Mn 0.92007 -0.01017 -0.00981
 Mn186 Mn 0.99985 0.00509 -0.13730
 Cl187 Cl 0.99881 0.00035 -0.02022
 C188 C 0.89751 0.08030 -0.14848
 C189 C 0.92733 -0.10182 -0.14224
 N190 N 1.07965 0.56089 0.51579
 N191 N 1.10911 0.59116 0.51494
 N192 N 1.06140 0.47542 0.59147
 N193 N 1.07314 0.44874 0.63730
 N194 N 1.09026 0.47687 0.53879
 N195 N 1.12242 0.45188 0.54747
 N196 N 1.05234 0.56010 0.57008
 N197 N 1.06340 0.58934 0.60850
 C198 C 1.09803 0.60900 0.57227
 C199 C 1.11140 0.43434 0.60868
 N200 N 0.93598 0.45669 0.57575
 N201 N 0.90622 0.43014 0.60535
 N202 N 0.95673 0.54948 0.59247
 N203 N 0.94563 0.58087 0.62889
 N204 N 0.92589 0.54125 0.55347
 N205 N 0.89342 0.56661 0.56191
 N206 N 0.96627 0.46516 0.61548
 N207 N 0.95707 0.44533 0.67369
 Mn208 Mn 1.00927 0.51263 0.59319
 C209 C 0.92036 0.42258 0.66568
 C210 C 0.90596 0.59132 0.60865
 N211 N 1.08649 0.46609 0.39986
 N212 N 1.11846 0.44022 0.39183
 N213 N 1.04452 0.54283 0.33972
 N214 N 1.04403 0.57312 0.29406
 N215 N 1.07621 0.54965 0.37783
 N216 N 1.09843 0.58400 0.35887
 N217 N 1.05508 0.45783 0.36204
 N218 N 1.06457 0.42561 0.32758
 Mn219 Mn 1.08341 0.51340 0.45803
 C220 C 1.10424 0.41523 0.34683
 C221 C 1.07829 0.59831 0.30649
 N222 N 0.92203 0.52948 0.41437
 N223 N 0.88715 0.55004 0.40118
 N224 N 0.96006 0.44445 0.38389
 N225 N 0.95300 0.41113 0.35111
 N226 N 0.93195 0.44492 0.43719
 N227 N 0.90563 0.41205 0.44266
 N228 N 0.95003 0.52846 0.36108
 N229 N 0.93453 0.54750 0.30990
 Mn230 Mn 0.92871 0.49308 0.49525
 Mn231 Mn 1.00254 0.49328 0.36074
 Cl232 Cl 1.00586 0.50306 0.47684
 C233 C 0.89590 0.56163 0.33628
 C234 C 0.91903 0.39107 0.38909
 N235 N 0.57325 0.05932 0.55920
 N236 N 0.60526 0.08528 0.57141
 N237 N 0.55379 -0.02787 0.62446
 N238 N 0.56571 -0.05389 0.67097
 N239 N 0.58435 -0.02442 0.57393
 N240 N 0.61796 -0.04724 0.58493
 N241 N 0.54209 0.05699 0.60909
 N242 N 0.55166 0.08195 0.65501
 C243 C 0.59063 0.09979 0.63053
 C244 C 0.60573 -0.06585 0.64501
 N245 N 0.42831 -0.04697 0.60156
 N246 N 0.40003 -0.07608 0.62664
 N247 N 0.44759 0.04430 0.62450
 N248 N 0.43849 0.07791 0.65642
 N249 N 0.41793 0.03724 0.58310
 N250 N 0.38813 0.06545 0.58558
 N251 N 0.45910 -0.04088 0.64142
 N252 N 0.45287 -0.06614 0.69454
 Mn253 Mn 0.50060 0.00807 0.62557
 C254 C 0.41618 -0.08816 0.68386
 C255 C 0.40099 0.09055 0.63158
 N256 N 0.58419 -0.03175 0.43337
 N257 N 0.61704 -0.05673 0.42375
 N258 N 0.54130 0.04433 0.37630
 N259 N 0.54265 0.07276 0.32772
 N260 N 0.57165 0.05224 0.41636
 N261 N 0.59480 0.08598 0.39554
 N262 N 0.55317 -0.04000 0.39484
 N263 N 0.56381 -0.07095 0.35823
 Mn264 Mn 0.57868 0.01407 0.49544
 C265 C 0.60366 -0.08094 0.37688
 C266 C 0.57618 0.09844 0.34029
 N267 N 0.41753 0.02840 0.44282
 N268 N 0.38144 0.04593 0.42668
 N269 N 0.45842 -0.05510 0.41071
 N270 N 0.45402 -0.08753 0.37523
 N271 N 0.42784 -0.05614 0.46115
 N272 N 0.40192 -0.08925 0.46141
 N273 N 0.44709 0.02867 0.39115
 N274 N 0.43145 0.04552 0.33825
 Mn275 Mn 0.42264 -0.00935 0.52237
 Mn276 Mn 0.50020 -0.00563 0.39266
 Cl277 Cl 0.50052 0.00187 0.50900
 C278 C 0.39106 0.05705 0.36183
 C279 C 0.41840 -0.10837 0.40726
 N280 N 0.56196 0.55163 0.07234
 N281 N 0.58871 0.58169 0.08609
 N282 N 0.55138 0.45744 0.10473
 N283 N 0.56537 0.42411 0.13460
 N284 N 0.57925 0.46967 0.05362
 N285 N 0.61279 0.44536 0.04734
 N286 N 0.53437 0.54047 0.12424
 N287 N 0.54095 0.56331 0.17438
 C288 C 0.57443 0.58917 0.14929
 C289 C 0.60385 0.41712 0.09789
 N290 N 0.42439 0.43764 0.09074
 N291 N 0.39603 0.40767 0.11231
 N292 N 0.44171 0.52175 0.14508
 N293 N 0.44009 0.55441 0.18038
 N294 N 0.40954 0.52146 0.10604
 N295 N 0.38555 0.55426 0.11441
 N296 N 0.45769 0.43860 0.12731
 N297 N 0.45307 0.40891 0.17409
 Mn298 Mn 0.49627 0.48924 0.12595
 C299 C 0.41489 0.38953 0.16312
 C300 C 0.40441 0.57392 0.16251
 N301 N 0.57282 0.48327 -0.08484
 N302 N 0.60465 0.45847 -0.10104
 N303 N 0.52328 0.56272 -0.10659
 N304 N 0.52332 0.59620 -0.14568
 N305 N 0.55540 0.56514 -0.06788
 N306 N 0.57856 0.59982 -0.08032
 N307 N 0.54067 0.47923 -0.12287
 N308 N 0.54966 0.45096 -0.16602
 Mn309 Mn 0.56760 0.51768 -0.00672
 C310 C 0.58992 0.43872 -0.15174
 C311 C 0.55795 0.61904 -0.12847
 N312 N 0.40178 0.53116 -0.03483
 N313 N 0.36243 0.54515 -0.04270
 N314 N 0.44765 0.45859 -0.10197
 N315 N 0.45023 0.42903 -0.14389
 N316 N 0.41889 0.44846 -0.05070
 N317 N 0.40060 0.41188 -0.05725
 N318 N 0.42961 0.54156 -0.08705
 N319 N 0.40962 0.56327 -0.13113
 Mn320 Mn 0.41327 0.48463 0.02804
 Mn321 Mn 0.48528 0.51062 -0.10543
 Cl322 Cl 0.49048 0.50061 0.01036
 C323 C 0.36817 0.56619 -0.10172
 C324 C 0.42041 0.40033 -0.11592
 N325 N 1.08407 0.13615 0.21182
 N326 N 1.11442 0.15182 0.24636
 C327 C 1.15434 0.14036 0.22058
 C328 C 1.14949 0.11719 0.16658
 C329 C 1.10446 0.11541 0.16290
 H330 H 1.17476 0.10218 0.13641
 H331 H 1.05008 0.13879 0.22274
 H332 H 1.10762 0.16870 0.28828
 N333 N 1.14804 0.67005 0.56150
 N334 N 1.17919 0.68536 0.59497
 C335 C 1.17953 0.66292 0.65236
 C336 C 1.14663 0.63275 0.65662
 C337 C 1.12742 0.63856 0.59813
 H338 H 1.13946 0.60862 0.69482
 H339 H 1.14224 0.68005 0.51351
 H340 H 1.20090 0.70963 0.57743
 N341 N 0.59981 0.14290 0.72511
 N342 N 0.63217 0.16132 0.75222
 C343 C 0.67053 0.15466 0.71628
 C344 C 0.66240 0.13164 0.66300
 C345 C 0.61696 0.12500 0.67061
 H346 H 0.68590 0.12171 0.62412
 H347 H 0.56658 0.14286 0.74358
 H348 H 0.62791 0.17854 0.79422
 N349 N 0.58061 0.63371 0.24362
 N350 N 0.61288 0.65172 0.27176
 C351 C 0.65147 0.64451 0.23660
 C352 C 0.64361 0.62190 0.18320
 C353 C 0.59840 0.61577 0.18961
 H354 H 0.66751 0.60995 0.14676
 H355 H 0.54733 0.63308 0.26193
 H356 H 0.60859 0.66719 0.31561
 N357 N 0.90895 -0.15771 0.22272
 N358 N 0.87859 -0.17969 0.26100
 C359 C 0.83849 -0.16793 0.24649
 C360 C 0.84337 -0.13777 0.19589
 C361 C 0.88860 -0.13239 0.18226
 H362 H 0.81778 -0.12187 0.17277
 H363 H 0.94295 -0.16007 0.22449
 H364 H 0.88534 -0.20195 0.29686
 N365 N 0.87463 0.42482 0.77166
 N366 N 0.83453 0.40583 0.79691
 C367 C 0.82816 0.37272 0.76161
 C368 C 0.86369 0.36978 0.71404
 C369 C 0.89117 0.40348 0.72052
 H370 H 0.86577 0.34968 0.67313
 H371 H 0.88512 0.45408 0.78290
 H372 H 0.81307 0.41703 0.83453
 N373 N 0.40975 -0.14294 0.77487
 N374 N 0.37758 -0.16725 0.80484
 C375 C 0.33919 -0.15607 0.78253
 C376 C 0.34718 -0.12414 0.73599
 C377 C 0.39203 -0.11692 0.73226
 H378 H 0.32387 -0.10975 0.70601
 H379 H 0.44319 -0.14545 0.78134
 H380 H 0.38209 -0.19153 0.83847
 N381 N 0.41128 0.32664 0.23717
 N382 N 0.37768 0.30198 0.27175
 C383 C 0.33896 0.32004 0.26469
 C384 C 0.34699 0.35575 0.22531
 C385 C 0.39204 0.35828 0.20854
 H386 H 0.32311 0.37635 0.20765
 H387 H 0.44475 0.32012 0.23224
 H388 H 0.38282 0.27497 0.29886
 N389 N 0.89618 0.14136 -0.22375
 N390 N 0.86719 0.16560 -0.24759
 C391 C 0.82642 0.15255 -0.22224
 C392 C 0.82950 0.11860 -0.17934
 C393 C 0.87458 0.11279 -0.18178
 H394 H 0.80301 0.10094 -0.15072
 H395 H 0.93028 0.14457 -0.23594
 H396 H 0.87533 0.19052 -0.28106
 N397 N 0.84673 0.56165 0.24656
 N398 N 0.80923 0.58234 0.23222
 C399 C 0.80459 0.61324 0.27372
 C400 C 0.83826 0.61257 0.31531
 C401 C 0.86329 0.57986 0.29719
 H402 H 0.84225 0.63136 0.35691
 H403 H 0.85697 0.53462 0.22572
 H404 H 0.78960 0.57495 0.19474
 N405 N 0.34540 0.05365 0.26768
 N406 N 0.30813 0.07305 0.24881
 C407 C 0.30010 0.10377 0.28982
 C408 C 0.33106 0.10396 0.33581
 C409 C 0.35835 0.07248 0.32032
 H410 H 0.33262 0.12316 0.37752
 H411 H 0.35844 0.02751 0.24715
 H412 H 0.29149 0.06552 0.20815
 N413 N 0.30005 0.55173 -0.15423
 N414 N 0.27069 0.57379 -0.18922
 C415 C 0.28417 0.61354 -0.19177
 C416 C 0.32257 0.61732 -0.15985
 C417 C 0.33112 0.57826 -0.13763
 H418 H 0.34234 0.64465 -0.15396
 H419 H 0.29802 0.52019 -0.14389
 H420 H 0.24234 0.56098 -0.20617
 N421 N 1.11194 -0.13344 -0.23058
 N422 N 1.14195 -0.16146 -0.23884
 C423 C 1.17649 -0.15131 -0.20505
 C424 C 1.16826 -0.11548 -0.17427
 C425 C 1.12707 -0.10538 -0.19138
 H426 H 1.18869 -0.09966 -0.14211
 H427 H 1.08146 -0.13418 -0.25023
 H428 H 1.13870 -0.18683 -0.26741
 N429 N 1.11161 0.34969 0.29172
 N430 N 1.14161 0.32171 0.28406
 C431 C 1.17822 0.33464 0.31062
 C432 C 1.17147 0.37230 0.33627
 C433 C 1.12872 0.38046 0.32371
 H434 H 1.19376 0.39037 0.36261
 H435 H 1.07976 0.34707 0.27694
 H436 H 1.13688 0.29422 0.26133
 N437 N 0.61087 -0.14427 0.31643
 N438 N 0.64140 -0.17090 0.30205
 C439 C 0.67910 -0.15827 0.32577
 C440 C 0.67247 -0.12211 0.35692
 C441 C 0.62859 -0.11460 0.35012
 H442 H 0.69577 -0.10441 0.38202
 H443 H 0.57837 -0.14689 0.30429
 H444 H 0.63639 -0.19719 0.27625
 N445 N 0.59848 0.37912 -0.22319
 N446 N 0.62976 0.35321 -0.23878
 C447 C 0.66593 0.36381 -0.20895
 C448 C 0.65731 0.39763 -0.17283
 C449 C 0.61444 0.40630 -0.18319
 H450 H 0.67902 0.41364 -0.14273
 H451 H 0.56691 0.37785 -0.23924
 H452 H 0.62647 0.32929 -0.27032
 N453 N 1.05499 0.17903 -0.21662
 N454 N 1.07671 0.21680 -0.23311
 C455 C 1.11629 0.21638 -0.20792
 C456 C 1.11965 0.17871 -0.17370
 C457 C 1.08114 0.15647 -0.18079
 H458 H 1.14673 0.16794 -0.14760
 H459 H 1.02410 0.17027 -0.23067
 H460 H 1.06450 0.23947 -0.26348
 N461 N 1.06592 0.65939 0.23258
 N462 N 1.08813 0.69676 0.21404
 C463 C 1.12718 0.69717 0.24094
 C464 C 1.13003 0.66023 0.27722
 C465 C 1.09132 0.63783 0.27106
 H466 H 1.15604 0.65094 0.30683
 H467 H 1.03445 0.65096 0.22044
 H468 H 1.07610 0.71911 0.18286
 N469 N 0.56781 0.15068 0.24967
 N470 N 0.58941 0.18365 0.22178
 C471 C 0.62648 0.18989 0.25195
 C472 C 0.62829 0.15943 0.30169
 C473 C 0.59039 0.13533 0.29850
 H474 H 0.65351 0.15531 0.33531
 H475 H 0.53812 0.13896 0.23521
 H476 H 0.57916 0.20087 0.18177
 N477 N 0.54683 0.68390 -0.19280
 N478 N 0.57166 0.71951 -0.21352
 C479 C 0.61259 0.71579 -0.19355
 C480 C 0.61403 0.67802 -0.15895
 C481 C 0.57251 0.65933 -0.15958
 H482 H 0.64145 0.66544 -0.13563
 H483 H 0.51403 0.67810 -0.20155
 H484 H 0.56010 0.74309 -0.24283
 N485 N 0.94552 -0.16008 -0.21285
 N486 N 0.92634 -0.19398 -0.23066
 C487 C 0.88545 -0.19854 -0.19845
 C488 C 0.87887 -0.16579 -0.15736
 C489 C 0.91768 -0.14208 -0.16852
 H490 H 0.84944 -0.15895 -0.12622
 H491 H 0.97690 -0.14899 -0.23223
 H492 H 0.94061 -0.21237 -0.26684
 N493 N 0.86566 0.33321 0.41885
 N494 N 0.84718 0.30250 0.39073
 C495 C 0.86594 0.30068 0.32816
 C496 C 0.89828 0.33200 0.31577
 C497 C 0.89658 0.35220 0.37495
 H498 H 0.91754 0.34070 0.26929
 H499 H 0.85592 0.34188 0.46682
 H500 H 0.82101 0.28391 0.41351
 N501 N 0.42134 -0.18380 0.41405
 N502 N 0.40248 -0.21560 0.38908
 C503 C 0.37195 -0.20255 0.34958
 C504 C 0.37133 -0.16006 0.34998
 C505 C 0.40352 -0.14959 0.39121
 H506 H 0.35178 -0.13971 0.32218
 H507 H 0.44645 -0.18558 0.44562
 H508 H 0.41080 -0.24578 0.39889
 N509 N 0.44502 0.34140 -0.18057
 N510 N 0.42601 0.30627 -0.20374
 C511 C 0.38241 0.30491 -0.18288
 C512 C 0.37353 0.33855 -0.14416
 C513 C 0.41328 0.36047 -0.14455
 H514 H 0.34211 0.34729 -0.12057
 H515 H 0.47800 0.35124 -0.19134
 H516 H 0.44302 0.28717 -0.23614
 N517 N 1.18175 -0.09874 0.11725
 N518 N 1.20272 -0.13132 0.14566
 C519 C 1.17151 -0.15987 0.16988
 C520 C 1.12990 -0.14520 0.15818
 C521 C 1.13806 -0.10705 0.12526
 H522 H 1.09788 -0.16036 0.17019
 H523 H 1.19793 -0.07293 0.09283
 H524 H 1.23696 -0.13322 0.14263
 N525 N 1.18319 0.40285 0.61788
 N526 N 1.20009 0.37240 0.65059
 C527 C 1.16828 0.35405 0.69391
 C528 C 1.12900 0.37438 0.68844
 C529 C 1.14022 0.40517 0.63944
 H530 H 1.09677 0.36694 0.71423
 H531 H 1.20083 0.42122 0.58020
 H532 H 1.23256 0.36346 0.64067
 N533 N 0.67924 -0.08372 0.67568
 N534 N 0.69877 -0.11693 0.70480
 C535 C 0.66671 -0.14566 0.72497
 C536 C 0.62599 -0.13020 0.71060
 C537 C 0.63561 -0.09185 0.67948
 H538 H 0.59379 -0.14549 0.71721
 H539 H 0.69638 -0.05803 0.65246
 H540 H 0.73273 -0.11813 0.70705
 N541 N 0.67376 0.38180 0.07567
 N542 N 0.69340 0.34929 0.09754
 C543 C 0.66633 0.32950 0.14602
 C544 C 0.62737 0.35057 0.15541
 C545 C 0.63381 0.38378 0.10984
 H546 H 0.59893 0.34319 0.19068
 H547 H 0.68778 0.40237 0.03795
 H548 H 0.72468 0.34071 0.07864
 N549 N 0.94084 0.15212 0.14171
 N550 N 0.92634 0.18626 0.16625
 C551 C 0.88187 0.18362 0.17602
 C552 C 0.86754 0.14583 0.15494
 C553 C 0.90624 0.12682 0.13402
 H554 H 0.83426 0.13279 0.15910
 H555 H 0.97421 0.14585 0.13208
 H556 H 0.94707 0.21052 0.17685
 N557 N 0.83832 0.63091 0.61034
 N558 N 0.81895 0.66054 0.64226
 C559 C 0.84486 0.67365 0.68785
 C560 C 0.88326 0.65104 0.68386
 C561 C 0.87734 0.62397 0.63405
 H562 H 0.91092 0.65349 0.71334
 H563 H 0.82476 0.61571 0.57254
 H564 H 0.78870 0.67196 0.63143
 N565 N 0.34245 0.13923 0.61539
 N566 N 0.32494 0.17134 0.64264
 C567 C 0.34713 0.18113 0.69442
 C568 C 0.38118 0.15384 0.69966
 C569 C 0.37645 0.12741 0.64861
 H570 H 0.40455 0.15240 0.73659
 H571 H 0.33079 0.12545 0.57476
 H572 H 0.29814 0.18626 0.62546
 N573 N 0.43292 0.64309 0.18009
 N574 N 0.41862 0.67817 0.20078
 C575 C 0.37424 0.67547 0.21295
 C576 C 0.35956 0.63660 0.19721
 C577 C 0.39826 0.61702 0.17735
 H578 H 0.32621 0.62365 0.20363
 H579 H 0.46621 0.63699 0.16890
 H580 H 0.43943 0.70336 0.20670
   
