data_POSCAR
  _audit_creation_date              2014-09-24
  _audit_creation_method            'ToBaCCo'
  _symmetry_space_group_name_H-M    'P1'
  _symmetry_Int_Tables_number       1
  _symmetry_cell_setting            triclinic
  loop_
  _symmetry_equiv_pos_as_xyz
 x,y,z
_cell_length_a 35.8463
_cell_length_b 36.6426
_cell_length_c 17.2007
_cell_angle_alpha 89.809600
_cell_angle_beta 90.107000
_cell_angle_gamma 119.260900
loop_
  _atom_site_label
  _atom_site_type_symbol
  _atom_site_fract_x
  _atom_site_fract_y
  _atom_site_fract_z
C1 C 0.49991 0.99862 0.46058
 C2 C 0.49851 0.99892 0.53962
 C3 C 0.47787 0.95958 0.58527
 C4 C 0.51772 1.03822 0.58578
 C5 C 0.52041 1.03781 0.41404
 C6 C 0.48043 0.95895 0.41574
 C7 C 0.44201 0.95054 0.63026
 C8 C 0.42385 0.91545 0.67850
 C9 C 0.44190 0.88866 0.68541
 C10 C 0.47741 0.89766 0.63685
 C11 C 0.49505 0.93259 0.58768
 C12 C 0.50707 1.06983 0.57232
 C13 C 0.52505 1.10601 0.61801
 C14 C 0.55337 1.11098 0.67916
 C15 C 0.56314 1.07877 0.69307
 C16 C 0.54567 1.04299 0.64688
 C17 C 0.56348 1.06798 0.42481
 C18 C 0.58178 1.10477 0.38052
 C19 C 0.55741 1.11189 0.32440
 C20 C 0.51463 1.08102 0.31257
 C21 C 0.49641 1.04439 0.35682
 C22 C 0.50536 0.95211 0.36127
 C23 C 0.48722 0.91648 0.31469
 C24 C 0.44355 0.88676 0.32129
 C25 C 0.41878 0.89330 0.37719
 C26 C 0.43695 0.92925 0.42339
 H27 H 0.42797 0.97084 0.62795
 H28 H 0.39518 0.90976 0.70879
 H29 H 0.49357 0.87936 0.63921
 H30 H 0.52308 0.93941 0.55350
 H31 H 0.48473 1.06647 0.52675
 H32 H 0.51691 1.13021 0.60517
 H33 H 0.55388 1.01877 0.65919
 H34 H 0.58279 1.06309 0.46765
 H35 H 0.61483 1.12790 0.39088
 H36 H 0.49524 1.08492 0.26854
 H37 H 0.46330 1.02123 0.34692
 H38 H 0.53889 0.97479 0.35406
 H39 H 0.50726 0.91291 0.27180
 H40 H 0.38527 0.87092 0.38497
 H41 H 0.41689 0.93427 0.46404
 H42 H 0.58334 1.08024 0.74061
 C43 C -0.00291 0.50057 0.45858
 C44 C -0.00296 0.50181 0.53751
 C45 C 0.03717 0.52266 0.58346
 C46 C -0.04334 0.48158 0.58309
 C47 C -0.04327 0.47917 0.41389
 C48 C 0.03706 0.52007 0.41210
 C49 C 0.04437 0.49968 0.64098
 C50 C 0.08054 0.51874 0.68805
 C51 C 0.11044 0.56144 0.67907
 C52 C 0.10342 0.58443 0.62064
 C53 C 0.06697 0.56522 0.57343
 C54 C -0.07206 0.43854 0.57714
 C55 C -0.10816 0.41957 0.62505
 C56 C -0.11579 0.44314 0.68097
 C57 C -0.08714 0.48640 0.68567
 C58 C -0.05136 0.50531 0.63741
 C59 C -0.07129 0.49547 0.40990
 C60 C -0.10862 0.47551 0.36525
 C61 C -0.11916 0.43826 0.32408
 C62 C -0.09063 0.42205 0.33039
 C63 C -0.05303 0.44256 0.37357
 C64 C 0.04196 0.54873 0.35356
 C65 C 0.07818 0.56612 0.30641
 C66 C 0.11043 0.55515 0.31637
 C67 C 0.10564 0.52660 0.37569
 C68 C 0.06913 0.50903 0.42286
 H69 H 0.02165 0.46688 0.64991
 H70 H 0.08445 0.50012 0.73298
 H71 H 0.12596 0.61721 0.61143
 H72 H 0.06169 0.58364 0.52991
 H73 H -0.06602 0.41943 0.53678
 H74 H -0.12974 0.38638 0.61870
 H75 H -0.02938 0.53849 0.64341
 H76 H -0.06380 0.52412 0.44022
 H77 H -0.12799 0.49058 0.36181
 H78 H -0.09737 0.39287 0.30349
 H79 H -0.03177 0.42943 0.37670
 H80 H 0.01749 0.55748 0.34398
 H81 H 0.08036 0.58749 0.26077
 H82 H 0.12997 0.51776 0.38571
 H83 H 0.06566 0.48645 0.46704
 H84 H -0.09154 0.50555 0.72847
 C85 C 0.49881 0.49944 0.46452
 C86 C 0.49893 0.50059 0.54364
 C87 C 0.47887 0.52140 0.58709
 C88 C 0.51876 0.48082 0.59136
 C89 C 0.51819 0.47800 0.42038
 C90 C 0.47925 0.51962 0.41682
 C91 C 0.50384 0.55411 0.63787
 C92 C 0.48587 0.57438 0.67919
 C93 C 0.44202 0.56214 0.67162
 C94 C 0.41700 0.52849 0.62120
 C95 C 0.43523 0.50844 0.57948
 C96 C 0.56233 0.49324 0.58509
 C97 C 0.58015 0.47379 0.63025
 C98 C 0.55471 0.44117 0.68258
 C99 C 0.51103 0.42972 0.68916
 C100 C 0.49351 0.44946 0.64454
 C101 C 0.50623 0.43586 0.43402
 C102 C 0.52371 0.41610 0.38927
 C103 C 0.55288 0.43784 0.32920
 C104 C 0.56396 0.47967 0.31479
 C105 C 0.54702 0.49955 0.36012
 C106 C 0.44886 0.49593 0.36030
 C107 C 0.43230 0.51463 0.31066
 C108 C 0.44575 0.55762 0.31619
 C109 C 0.47567 0.58120 0.37409
 C110 C 0.49253 0.56244 0.42348
 H111 H 0.53750 0.56410 0.64530
 H112 H 0.50651 0.59859 0.71917
 H113 H 0.38346 0.51819 0.61186
 H114 H 0.41533 0.48286 0.54106
 H115 H 0.58246 0.51782 0.54486
 H116 H 0.61362 0.48353 0.62182
 H117 H 0.45991 0.43993 0.65104
 H118 H 0.48303 0.41813 0.47858
 H119 H 0.51434 0.38373 0.40147
 H120 H 0.58452 0.49687 0.26705
 H121 H 0.55602 0.53180 0.34744
 H122 H 0.43841 0.46292 0.35381
 H123 H 0.40979 0.49549 0.26636
 H124 H 0.48634 0.61419 0.38107
 H125 H 0.51650 0.58148 0.46589
 H126 H 0.49015 0.40645 0.73054
 O127 O 0.39874 0.66188 -0.07251
 O128 O 0.39547 0.73092 -0.09095
 C129 C 0.37589 0.75154 -0.09983
 O130 O 0.34270 0.74402 -0.06116
 O131 O 0.27266 0.67323 -0.08917
 C132 C 0.25263 0.63429 -0.10303
 O133 O 0.26004 0.60821 -0.06683
 O134 O 0.33252 0.61085 -0.09705
 C135 C 0.37212 0.63086 -0.11249
 O136 O 0.39814 0.67092 0.08300
 O137 O 0.39789 0.74172 0.06424
 C138 C 0.37132 0.74787 0.10320
 O139 O 0.33130 0.72765 0.09154
 O140 O 0.25963 0.65866 0.06443
 C141 C 0.25364 0.62582 0.10035
 O142 O 0.27500 0.60742 0.08609
 O143 O 0.34612 0.60651 0.05596
 C144 C 0.37922 0.63172 0.09386
 Cr145 Cr 0.39519 0.70017 -0.00388
 Cr146 Cr 0.30277 0.69970 0.00126
 Cr147 Cr 0.30463 0.61054 -0.00529
 O148 O 0.33423 0.67016 -0.00236
 O149 O 0.59661 0.33748 -0.06329
 O150 O 0.59907 0.26850 -0.08790
 C151 C 0.62030 0.25029 -0.10452
 O152 O 0.65381 0.25687 -0.06787
 O153 O 0.72366 0.32801 -0.08785
 C154 C 0.74345 0.36725 -0.09824
 O155 O 0.73550 0.39207 -0.05938
 O156 O 0.66264 0.39018 -0.08394
 C157 C 0.62311 0.37003 -0.10032
 O158 O 0.59754 0.32485 0.09141
 O159 O 0.59765 0.25494 0.06677
 C160 C 0.62476 0.24866 0.10375
 O161 O 0.66428 0.26718 0.08744
 O162 O 0.73572 0.33675 0.06685
 C163 C 0.74099 0.36790 0.10731
 O164 O 0.72068 0.38756 0.09484
 O165 O 0.65019 0.38976 0.07089
 C166 C 0.61754 0.36335 0.10819
 Cr167 Cr 0.60016 0.29766 0.00169
 Cr168 Cr 0.69302 0.29830 -0.00027
 Cr169 Cr 0.69103 0.38755 0.00533
 O170 O 0.66136 0.32778 0.00206
 C171 C 0.44054 0.82625 -0.26144
 C172 C 0.42693 0.85656 -0.26146
 C173 C 0.39879 0.85294 -0.19982
 C174 C 0.38247 0.81904 -0.14771
 C175 C 0.39366 0.78740 -0.15402
 C176 C 0.42457 0.79295 -0.20906
 C177 C 0.42337 0.76279 -0.26813
 C178 C 0.44047 0.79873 -0.32588
 H179 H 0.38928 0.87622 -0.18912
 H180 H 0.36071 0.81756 -0.10263
 H181 H 0.39030 0.73772 -0.28141
 H182 H 0.44649 0.75167 -0.25466
 H183 H 0.41733 0.79460 -0.37278
 H184 H 0.47322 0.80759 -0.34629
 C185 C 0.16375 0.55774 -0.23171
 C186 C 0.14746 0.58153 -0.26684
 C187 C 0.16484 0.62360 -0.24268
 C188 C 0.19953 0.64140 -0.19013
 C189 C 0.21747 0.61748 -0.16033
 C190 C 0.19759 0.57511 -0.17997
 C191 C 0.21667 0.54993 -0.21117
 C192 C 0.17952 0.53086 -0.26803
 H193 H 0.15179 0.64282 -0.26410
 H194 H 0.21232 0.67378 -0.17326
 H195 H 0.21604 0.52709 -0.16777
 H196 H 0.24815 0.56959 -0.23966
 H197 H 0.15755 0.49703 -0.25736
 H198 H 0.18935 0.53943 -0.32965
 C199 C 0.37937 0.56339 -0.27141
 C200 C 0.42362 0.58266 -0.28615
 C201 C 0.44876 0.62346 -0.25532
 C202 C 0.43140 0.64038 -0.20250
 C203 C 0.38841 0.61720 -0.17883
 C204 C 0.36238 0.58012 -0.21891
 C205 C 0.33030 0.53821 -0.18872
 C206 C 0.34876 0.51968 -0.24571
 H207 H 0.48221 0.64237 -0.26985
 H208 H 0.45240 0.67062 -0.17701
 H209 H 0.29701 0.53058 -0.20299
 H210 H 0.33590 0.53338 -0.12685
 H211 H 0.32580 0.50112 -0.29227
 H212 H 0.36506 0.50408 -0.21693
 C213 C 0.61501 0.17045 -0.24910
 C214 C 0.57185 0.14937 -0.27185
 C215 C 0.54688 0.16788 -0.24964
 C216 C 0.56323 0.20239 -0.19851
 C217 C 0.60514 0.21950 -0.16857
 C218 C 0.63115 0.20471 -0.20019
 C219 C 0.66337 0.19511 -0.16500
 C220 C 0.64539 0.15695 -0.21758
 H221 H 0.51378 0.15413 -0.26755
 H222 H 0.54211 0.21374 -0.17868
 H223 H 0.65750 0.18699 -0.10220
 H224 H 0.69663 0.21902 -0.18012
 H225 H 0.62984 0.12768 -0.18279
 H226 H 0.66861 0.15854 -0.26204
 C227 C 0.83111 0.44592 -0.22748
 C228 C 0.84819 0.42290 -0.26271
 C229 C 0.83233 0.38116 -0.23714
 C230 C 0.79797 0.36266 -0.18421
 C231 C 0.77888 0.38553 -0.15489
 C232 C 0.79761 0.42785 -0.17492
 C233 C 0.77726 0.45202 -0.20591
 C234 C 0.81396 0.47181 -0.26363
 H235 H 0.84615 0.36258 -0.25800
 H236 H 0.78623 0.33045 -0.16681
 H237 H 0.77750 0.47460 -0.16265
 H238 H 0.74573 0.43168 -0.23366
 H239 H 0.83523 0.50581 -0.25362
 H240 H 0.80381 0.46296 -0.32499
 C241 C 0.61664 0.43912 -0.25839
 C242 C 0.57242 0.42057 -0.27303
 C243 C 0.54663 0.38012 -0.24082
 C244 C 0.56355 0.36271 -0.18778
 C245 C 0.60676 0.38503 -0.16495
 C246 C 0.63320 0.42194 -0.20552
 C247 C 0.66583 0.46368 -0.17590
 C248 C 0.64784 0.48267 -0.23332
 H249 H 0.51307 0.36173 -0.25495
 H250 H 0.54212 0.33265 -0.16187
 H251 H 0.69893 0.47074 -0.19013
 H252 H 0.66045 0.46872 -0.11413
 H253 H 0.67088 0.50090 -0.28011
 H254 H 0.63205 0.49877 -0.20491
 C255 C 0.83783 0.38639 0.22388
 C256 C 0.84322 0.41758 0.27762
 C257 C 0.80890 0.42657 0.28244
 C258 C 0.77456 0.40928 0.22925
 C259 C 0.77299 0.38200 0.17034
 C260 C 0.80373 0.36912 0.17230
 C261 C 0.83027 0.36713 0.10763
 C262 C 0.86782 0.38626 0.16329
 H263 H 0.80822 0.44740 0.32594
 H264 H 0.75015 0.41851 0.23258
 H265 H 0.83332 0.38803 0.05813
 H266 H 0.82070 0.33437 0.09144
 H267 H 0.89273 0.41834 0.14626
 H268 H 0.88008 0.36445 0.17776
 C269 C 0.61946 0.17143 0.25593
 C270 C 0.57639 0.15128 0.27832
 C271 C 0.55153 0.16944 0.25347
 C272 C 0.56779 0.20245 0.19909
 C273 C 0.60941 0.21829 0.16870
 C274 C 0.63555 0.20410 0.20257
 C275 C 0.66353 0.18952 0.16537
 C276 C 0.64589 0.15374 0.22382
 H277 H 0.51884 0.15694 0.27303
 H278 H 0.54701 0.21405 0.17813
 H279 H 0.69804 0.21202 0.17405
 H280 H 0.65409 0.17908 0.10435
 H281 H 0.67028 0.15567 0.26608
 H282 H 0.62619 0.12251 0.19679
 C283 C 0.61406 0.43397 0.26369
 C284 C 0.57034 0.41628 0.28061
 C285 C 0.54335 0.37568 0.25109
 C286 C 0.55901 0.35701 0.19792
 C287 C 0.60210 0.37850 0.17339
 C288 C 0.62932 0.41545 0.21265
 C289 C 0.66646 0.45606 0.18865
 C290 C 0.64967 0.47685 0.24467
 H291 H 0.50956 0.35953 0.26481
 H292 H 0.53678 0.32725 0.17219
 H293 H 0.66479 0.46395 0.12672
 H294 H 0.69745 0.45878 0.20721
 H295 H 0.63947 0.49690 0.21305
 H296 H 0.67123 0.49183 0.29505
 C297 C 0.16124 0.61116 0.22611
 C298 C 0.14767 0.57248 0.26253
 C299 C 0.16820 0.54955 0.24027
 C300 C 0.20321 0.56685 0.18843
 C301 C 0.21839 0.60738 0.15741
 C302 C 0.19542 0.62803 0.17502
 C303 C 0.21105 0.67132 0.20483
 C304 C 0.17353 0.65279 0.26093
 H305 H 0.15740 0.51835 0.26268
 H306 H 0.21843 0.54860 0.17310
 H307 H 0.20861 0.69210 0.16027
 H308 H 0.24267 0.68429 0.23412
 H309 H 0.14954 0.66297 0.24865
 H310 H 0.18329 0.65494 0.32289
 C311 C 0.44906 0.83559 0.23171
 C312 C 0.42402 0.85065 0.26682
 C313 C 0.38093 0.83277 0.24251
 C314 C 0.36330 0.79875 0.19053
 C315 C 0.38839 0.78198 0.16090
 C316 C 0.43184 0.80240 0.18002
 C317 C 0.45851 0.78470 0.21138
 C318 C 0.47738 0.82107 0.26809
 H319 H 0.36065 0.84487 0.26333
 H320 H 0.33008 0.78563 0.17371
 H321 H 0.48204 0.78595 0.16798
 H322 H 0.43909 0.75379 0.24001
 H323 H 0.51179 0.84318 0.25733
 H324 H 0.46891 0.81133 0.32974
 C325 C 0.39037 0.55375 0.22192
 C326 C 0.42981 0.57749 0.25912
 C327 C 0.45481 0.61962 0.23507
 C328 C 0.43859 0.63765 0.18151
 C329 C 0.39715 0.61390 0.15016
 C330 C 0.37460 0.57135 0.16889
 C331 C 0.32985 0.54563 0.19762
 C332 C 0.34714 0.52634 0.25588
 H333 H 0.48674 0.63887 0.25771
 H334 H 0.45829 0.67020 0.16550
 H335 H 0.30861 0.52305 0.15313
 H336 H 0.31722 0.56483 0.22506
 H337 H 0.33574 0.49263 0.24494
 H338 H 0.34464 0.53436 0.31725
   
