data_POSCAR
  _audit_creation_date              2014-09-24
  _audit_creation_method            'ToBaCCo'
  _symmetry_space_group_name_H-M    'P1'
  _symmetry_Int_Tables_number       1
  _symmetry_cell_setting            triclinic
  loop_
  _symmetry_equiv_pos_as_xyz
 x,y,z
_cell_length_a 22.5311
_cell_length_b 21.6211
_cell_length_c 22.5588
_cell_angle_alpha 88.132900
_cell_angle_beta 87.023300
_cell_angle_gamma 95.924100
loop_
  _atom_site_label
  _atom_site_type_symbol
  _atom_site_fract_x
  _atom_site_fract_y
  _atom_site_fract_z
Si1 Si 0.01222 0.50714 0.27335
 Si2 Si -0.01078 0.51824 0.72755
 Si3 Si 0.22590 -0.03650 0.49942
 Si4 Si 0.76348 0.00792 0.51529
 Si5 Si 0.53100 0.25248 0.99712
 Si6 Si 0.47160 0.74135 0.98687
 B7 B 1.01440 1.07453 0.04549
 B8 B 1.01783 1.07734 -0.03302
 B9 B 1.07176 1.04522 0.00646
 B10 B 1.03795 1.00486 0.06798
 B11 B 0.96222 1.01512 0.06908
 B12 B 0.95039 1.05896 0.00478
 B13 B 0.99016 0.94683 -0.02972
 B14 B 0.98689 0.94716 0.04675
 B15 B 0.93211 0.97919 0.00732
 B16 B 0.96837 1.01695 -0.05638
 B17 B 1.04315 1.00848 -0.05541
 B18 B 1.05542 0.96384 0.00518
 B19 B 0.56173 0.47750 0.45613
 B20 B 0.55744 0.47943 0.53374
 B21 B 0.55346 0.54735 0.48966
 B22 B 0.51316 0.52818 0.42898
 B23 B 0.49327 0.44853 0.43379
 B24 B 0.52053 0.41859 0.49734
 B25 B 0.43772 0.50159 0.53104
 B26 B 0.44214 0.49880 0.45424
 B27 B 0.44605 0.43160 0.49727
 B28 B 0.48563 0.45198 0.55823
 B29 B 0.50654 0.53093 0.55359
 B30 B 0.47895 0.56060 0.48918
 C31 C 1.04136 1.39133 0.22970
 C32 C 1.02994 1.33744 0.19780
 C33 C 0.97687 1.32887 0.16694
 C34 C 0.93941 1.37646 0.16340
 C35 C 0.95345 1.43171 0.19187
 C36 C 1.00296 1.43841 0.22700
 C37 C 0.96213 1.27289 0.13996
 C38 C 1.00239 1.22780 0.13836
 C39 C 1.05747 1.23798 0.16427
 C40 C 1.07033 1.29191 0.19621
 C41 C 1.09771 1.19339 0.15783
 C42 C 1.08427 1.14211 0.12246
 C43 C 1.02971 1.13235 0.09285
 C44 C 0.98808 1.17317 0.10935
 H45 H 1.07917 1.39526 0.25725
 H46 H 0.89931 1.37089 0.13872
 H47 H 0.92372 1.46790 0.18919
 H48 H 0.92027 1.26534 0.11830
 H49 H 1.11192 1.29908 0.21839
 H50 H 1.14024 1.19896 0.17840
 H51 H 1.11827 1.11093 0.11861
 H52 H 0.94323 1.16465 0.10103
 C53 C 0.97472 0.61381 0.21554
 C54 C 0.98439 0.67401 0.18951
 C55 C 1.04338 0.69934 0.17227
 C56 C 1.09105 0.66370 0.17903
 C57 C 1.08101 0.60429 0.20537
 C58 C 1.02330 0.57971 0.22574
 C59 C 1.05403 0.75990 0.14841
 C60 C 1.00632 0.79491 0.13943
 C61 C 0.94728 0.77005 0.15532
 C62 C 0.93647 0.70974 0.18127
 C63 C 0.90062 0.80623 0.14437
 C64 C 0.91259 0.86378 0.11328
 C65 C 0.97129 0.88594 0.09149
 C66 C 1.01729 0.85360 0.11179
 H67 H 0.92969 0.59449 0.22941
 H68 H 1.13632 0.68222 0.16497
 H69 H 1.11910 0.57898 0.21087
 H70 H 1.09940 0.77923 0.13533
 H71 H 0.89112 0.69047 0.19424
 H72 H 0.85488 0.78937 0.15815
 H73 H 0.87540 0.88957 0.10559
 H74 H 1.06262 0.87097 0.10229
 C75 C 1.02573 1.41579 -0.20619
 C76 C 1.01555 1.35704 -0.17688
 C77 C 0.95679 1.33346 -0.15705
 C78 C 0.91001 1.37096 -0.16336
 C79 C 0.92074 1.42967 -0.19234
 C80 C 0.97805 1.45124 -0.21650
 C81 C 0.94585 1.27272 -0.13187
 C82 C 0.99345 1.23655 -0.12374
 C83 C 1.05202 1.26096 -0.14161
 C84 C 1.06290 1.32064 -0.16889
 C85 C 1.09829 1.22388 -0.13387
 C86 C 1.08710 1.16601 -0.10354
 C87 C 1.03032 1.14373 -0.07645
 C88 C 0.98339 1.17625 -0.09759
 H89 H 1.07055 1.43249 -0.22313
 H90 H 0.86486 1.35423 -0.14730
 H91 H 0.88360 1.45678 -0.19845
 H92 H 0.90064 1.25413 -0.11754
 H93 H 1.10806 1.33862 -0.18404
 H94 H 1.14349 1.23989 -0.15034
 H95 H 1.12485 1.14104 -0.09983
 H96 H 0.93846 1.15433 -0.09709
 C97 C 0.97739 0.61113 -0.18544
 C98 C 0.98629 0.67208 -0.16474
 C99 C 1.02612 0.71765 -0.19692
 C100 C 1.05157 0.70359 -0.25192
 C101 C 1.03846 0.64483 -0.27428
 C102 C 1.00486 0.59678 -0.23978
 C103 C 1.03785 0.77738 -0.17499
 C104 C 1.00588 0.79423 -0.12421
 C105 C 0.96277 0.75046 -0.09484
 C106 C 0.95464 0.68902 -0.11371
 C107 C 0.92928 0.76879 -0.04634
 C108 C 0.93715 0.83012 -0.02870
 C109 C 0.97863 0.87649 -0.05769
 C110 C 1.01645 0.85433 -0.10239
 H111 H 0.94780 0.57572 -0.16053
 H112 H 1.07970 0.73874 -0.27870
 H113 H 1.05486 0.63708 -0.31907
 H114 H 1.06970 0.81158 -0.19893
 H115 H 0.92267 0.65503 -0.08970
 H116 H 0.89636 0.73596 -0.02219
 H117 H 0.90940 0.84003 0.00846
 H118 H 1.05849 0.87957 -0.11578
 C119 C 1.19515 0.96621 0.38062
 C120 C 1.16132 0.97992 0.33271
 C121 C 1.10993 1.01170 0.34125
 C122 C 1.09280 1.02803 0.39896
 C123 C 1.12640 1.01289 0.44708
 C124 C 1.17766 0.98171 0.43792
 C125 C 1.07699 1.02612 0.29199
 C126 C 1.09406 1.00692 0.23502
 C127 C 1.14464 0.97392 0.22823
 C128 C 1.17834 0.96153 0.27641
 C129 C 1.16107 0.95305 0.17317
 C130 C 1.12722 0.96311 0.12523
 C131 C 1.07602 0.99554 0.12838
 C132 C 1.06159 1.01940 0.18475
 H133 H 1.23526 0.94319 0.37315
 H134 H 1.05358 1.05233 0.40686
 H135 H 1.11294 1.02637 0.49115
 H136 H 1.03784 1.05098 0.29812
 H137 H 1.21749 0.93658 0.27019
 H138 H 1.19967 0.92731 0.16717
 H139 H 1.14216 0.94238 0.08633
 H140 H 1.02674 1.04962 0.18985
 C141 C 1.20278 0.97439 -0.37852
 C142 C 1.16784 0.97201 -0.32586
 C143 C 1.10851 0.94342 -0.32345
 C144 C 1.08593 0.91623 -0.37456
 C145 C 1.12148 0.91968 -0.42776
 C146 C 1.17966 0.95024 -0.43008
 C147 C 1.07308 0.94380 -0.27042
 C148 C 1.09666 0.97321 -0.22074
 C149 C 1.15608 1.00107 -0.22399
 C150 C 1.19149 0.99985 -0.27615
 C151 C 1.17912 1.03097 -0.17534
 C152 C 1.14370 1.03334 -0.12355
 C153 C 1.08443 1.00508 -0.11735
 C154 C 1.06167 0.97582 -0.16799
 H155 H 1.24766 0.99670 -0.37875
 H156 H 1.04066 0.89366 -0.37371
 H157 H 1.10311 0.90004 -0.46725
 H158 H 1.02730 0.92230 -0.26809
 H159 H 1.23715 1.02185 -0.27848
 H160 H 1.22462 1.05319 -0.17736
 H161 H 1.16467 1.05796 -0.08877
 H162 H 1.01612 0.95445 -0.16684
 C163 C 0.82110 1.04335 0.40498
 C164 C 0.85188 1.03052 0.35208
 C165 C 0.88854 0.98131 0.35037
 C166 C 0.89556 0.94745 0.40342
 C167 C 0.86340 0.95979 0.45610
 C168 C 0.82491 1.00697 0.45671
 C169 C 0.91533 0.96581 0.29543
 C170 C 0.90532 0.99907 0.24254
 C171 C 0.86987 1.04905 0.24606
 C172 C 0.84352 1.06441 0.30018
 C173 C 0.86029 1.08307 0.19514
 C174 C 0.88711 1.06972 0.14129
 C175 C 0.92476 1.02185 0.13422
 C176 C 0.93077 0.98450 0.18644
 H177 H 0.79032 1.07869 0.40440
 H178 H 0.92355 0.90962 0.40355
 H179 H 0.86604 0.93031 0.49538
 H180 H 0.94305 0.92772 0.29376
 H181 H 0.81548 1.10232 0.30173
 H182 H 0.83179 1.12052 0.19669
 H183 H 0.87408 1.09614 0.10434
 H184 H 0.95915 0.94738 0.18542
 C185 C 0.83508 1.02145 -0.38554
 C186 C 0.84682 1.01556 -0.32526
 C187 C 0.80626 0.97903 -0.28498
 C188 C 0.75361 0.94954 -0.30631
 C189 C 0.74150 0.95691 -0.36635
 C190 C 0.78248 0.99241 -0.40640
 C191 C 0.81901 0.97328 -0.22439
 C192 C 0.87187 1.00408 -0.20387
 C193 C 0.91068 1.04127 -0.24491
 C194 C 0.89839 1.04664 -0.30475
 C195 C 0.96255 1.07195 -0.22619
 C196 C 0.97767 1.06426 -0.16822
 C197 C 0.94180 1.02719 -0.12397
 C198 C 0.88737 0.99796 -0.14373
 H199 H 0.86638 1.04962 -0.41603
 H200 H 0.72139 0.92176 -0.27648
 H201 H 0.69957 0.93555 -0.38122
 H202 H 0.78822 0.94483 -0.19361
 H203 H 0.92930 1.07505 -0.33557
 H204 H 0.99351 1.09989 -0.25725
 H205 H 1.02199 1.08393 -0.16179
 H206 H 0.85668 0.97056 -0.11380
 C207 C 1.40589 1.22433 0.00769
 C208 C 1.35226 1.18560 0.01601
 C209 C 1.35300 1.12150 0.03028
 C210 C 1.40780 1.09772 0.03746
 C211 C 1.46119 1.13670 0.02837
 C212 C 1.46055 1.19960 0.01086
 C213 C 1.29907 1.08245 0.03656
 C214 C 1.24475 1.10659 0.02668
 C215 C 1.24466 1.17072 0.01362
 C216 C 1.29801 1.21002 0.00913
 C217 C 1.19091 1.19486 0.00599
 C218 C 1.13845 1.15524 0.00661
 C219 C 1.13669 1.08932 0.01179
 C220 C 1.19068 1.06749 0.02870
 H221 H 1.40513 1.27363 -0.00228
 H222 H 1.40941 1.04906 0.04968
 H223 H 1.50270 1.11747 0.03569
 H224 H 1.29958 1.03325 0.04729
 H225 H 1.29740 1.25932 -0.00124
 H226 H 1.18914 1.24452 -0.00053
 H227 H 1.09843 1.17818 0.00456
 H228 H 1.19262 1.02072 0.04347
 C229 C 0.65030 1.22680 0.00451
 C230 C 0.69921 1.19371 -0.00756
 C231 C 0.69135 1.13647 -0.03630
 C232 C 0.63546 1.11622 -0.05714
 C233 C 0.58776 1.15186 -0.04828
 C234 C 0.59427 1.20552 -0.01481
 C235 C 0.73953 1.10087 -0.04377
 C236 C 0.79562 1.12314 -0.02446
 C237 C 0.80423 1.18291 -0.00122
 C238 C 0.75596 1.21753 0.00808
 C239 C 0.86150 1.20749 0.01097
 C240 C 0.90800 1.17014 0.00702
 C241 C 0.89819 1.10591 -0.00310
 C242 C 0.84315 1.08629 -0.02714
 H243 H 0.65649 1.26957 0.02790
 H244 H 0.62891 1.07353 -0.08093
 H245 H 0.54551 1.13686 -0.06677
 H246 H 0.73321 1.05578 -0.06361
 H247 H 0.76251 1.26274 0.02769
 H248 H 0.87055 1.25559 0.02277
 H249 H 0.95254 1.19274 0.01029
 H250 H 0.83588 1.04217 -0.04711
 C251 C 1.35140 0.77261 -0.02248
 C252 C 1.30538 0.81222 -0.02473
 C253 C 1.32050 0.87698 -0.03345
 C254 C 1.38129 0.90084 -0.03812
 C255 C 1.42666 0.86119 -0.03262
 C256 C 1.41230 0.79678 -0.02384
 C257 C 1.27463 0.91671 -0.03618
 C258 C 1.21391 0.89293 -0.02655
 C259 C 1.19911 0.82877 -0.01589
 C260 C 1.24461 0.78843 -0.01660
 C261 C 1.13891 0.80639 -0.00438
 C262 C 1.09458 0.84751 0.00004
 C263 C 1.10760 0.91311 -0.00688
 C264 C 1.16801 0.93283 -0.02559
 H265 H 1.33969 0.72278 -0.01716
 H266 H 1.39372 0.95045 -0.04464
 H267 H 1.47288 0.88093 -0.03496
 H268 H 1.28628 0.96636 -0.04371
 H269 H 1.23285 0.73880 -0.00895
 H270 H 1.12597 0.75692 0.00273
 H271 H 1.04975 0.82638 0.00956
 H272 H 1.18141 0.97964 -0.03794
 C273 C 0.58046 0.82346 0.00640
 C274 C 0.64282 0.84257 -0.00096
 C275 C 0.67969 0.81127 -0.04002
 C276 C 0.65439 0.75872 -0.06771
 C277 C 0.59363 0.73812 -0.05764
 C278 C 0.55482 0.77172 -0.02320
 C279 C 0.74145 0.83172 -0.04929
 C280 C 0.76799 0.88113 -0.01716
 C281 C 0.73139 0.90926 0.02428
 C282 C 0.66936 0.89145 0.03108
 C283 C 0.75729 0.95571 0.05816
 C284 C 0.81830 0.97386 0.05169
 C285 C 0.85847 0.94923 0.01103
 C286 C 0.83018 0.90282 -0.02520
 H287 H 0.55227 0.84799 0.03581
 H288 H 0.68199 0.73231 -0.09594
 H289 H 0.57762 0.69479 -0.07668
 H290 H 0.76899 0.80816 -0.08025
 H291 H 0.64194 0.91498 0.06221
 H292 H 0.73013 0.97925 0.08950
 H293 H 0.83146 1.01250 0.07525
 H294 H 0.85490 0.88451 -0.06147
 C295 C 0.89829 0.46071 0.32415
 C296 C 0.84285 0.46849 0.35183
 C297 C 0.83454 0.52581 0.37801
 C298 C 0.88174 0.57305 0.37846
 C299 C 0.93606 0.56540 0.34949
 C300 C 0.94374 0.51031 0.32048
 C301 C 0.77852 0.53629 0.40111
 C302 C 0.73047 0.49065 0.39809
 C303 C 0.73794 0.43292 0.37386
 C304 C 0.79472 0.42154 0.35106
 C305 C 0.68750 0.39001 0.36978
 C306 C 0.63129 0.40424 0.39198
 C307 C 0.62393 0.46107 0.42018
 C308 C 0.67427 0.50431 0.41667
 H309 H 0.90490 0.41720 0.30369
 H310 H 0.87588 0.61680 0.39900
 H311 H 0.97144 0.60347 0.34774
 H312 H 0.77191 0.58069 0.42021
 H313 H 0.80085 0.37771 0.33074
 H314 H 0.69136 0.34559 0.34984
 H315 H 0.59443 0.36894 0.38851
 H316 H 0.66953 0.55210 0.41750
 C317 C 0.13117 0.49779 0.29752
 C318 C 0.18043 0.50183 0.33214
 C319 C 0.17335 0.51357 0.39326
 C320 C 0.11633 0.51866 0.41902
 C321 C 0.06709 0.51400 0.38391
 C322 C 0.07471 0.50523 0.32268
 C323 C 0.22334 0.51978 0.42736
 C324 C 0.27973 0.51249 0.40118
 C325 C 0.28622 0.49914 0.34063
 C326 C 0.23668 0.49464 0.30615
 C327 C 0.34227 0.49084 0.31545
 C328 C 0.39109 0.49310 0.35058
 C329 C 0.38615 0.50453 0.41195
 C330 C 0.32953 0.51704 0.43529
 H331 H 0.13710 0.48900 0.25069
 H332 H 0.10991 0.52659 0.46601
 H333 H 0.02366 0.51827 0.40493
 H334 H 0.21828 0.52926 0.47420
 H335 H 0.24181 0.48518 0.25930
 H336 H 0.34846 0.48206 0.26860
 H337 H 0.43303 0.48840 0.32763
 H338 H 0.32340 0.53202 0.47941
 C339 C 0.87685 0.47258 0.67955
 C340 C 0.81923 0.48147 0.66095
 C341 C 0.80523 0.54263 0.64806
 C342 C 0.84912 0.59294 0.65043
 C343 C 0.90574 0.58367 0.66843
 C344 C 0.91972 0.52413 0.68561
 C345 C 0.74768 0.55292 0.63253
 C346 C 0.70470 0.50270 0.62530
 C347 C 0.71800 0.44160 0.63684
 C348 C 0.77487 0.43101 0.65607
 C349 C 0.67291 0.39311 0.63005
 C350 C 0.61990 0.40567 0.60371
 C351 C 0.61265 0.46538 0.57845
 C352 C 0.64930 0.51294 0.60352
 H353 H 0.88742 0.42618 0.69131
 H354 H 0.83934 0.63984 0.63932
 H355 H 0.93765 0.62414 0.67088
 H356 H 0.73709 0.60002 0.62370
 H357 H 0.78484 0.38391 0.66602
 H358 H 0.67878 0.34580 0.64390
 H359 H 0.58473 0.36792 0.60280
 H360 H 0.63832 0.55919 0.60234
 C361 C 0.11254 0.53588 0.68931
 C362 C 0.16433 0.52265 0.65777
 C363 C 0.16269 0.46970 0.62283
 C364 C 0.10758 0.43460 0.61557
 C365 C 0.05484 0.45178 0.64336
 C366 C 0.05692 0.50258 0.68061
 C367 C 0.21629 0.45272 0.59669
 C368 C 0.27017 0.49125 0.60114
 C369 C 0.26983 0.54781 0.62999
 C370 C 0.21765 0.56189 0.66068
 C371 C 0.32139 0.58976 0.62653
 C372 C 0.37262 0.57572 0.59443
 C373 C 0.37664 0.51692 0.56950
 C374 C 0.32398 0.47494 0.57534
 H375 H 0.11692 0.57087 0.72222
 H376 H 0.10529 0.39405 0.58849
 H377 H 0.01286 0.42395 0.63779
 H378 H 0.21590 0.41057 0.57186
 H379 H 0.21806 0.60421 0.68528
 H380 H 0.32163 0.63442 0.64704
 H381 H 0.40965 0.61129 0.59170
 H382 H 0.32210 0.43047 0.55753
 C383 C 0.50681 0.68070 0.09371
 C384 C 0.50086 0.66202 0.15470
 C385 C 0.44671 0.66708 0.18788
 C386 C 0.39958 0.69076 0.15951
 C387 C 0.40619 0.71020 0.09949
 C388 C 0.45960 0.70541 0.06543
 C389 C 0.44059 0.64870 0.24880
 C390 C 0.48790 0.62439 0.27707
 C391 C 0.54185 0.62003 0.24385
 C392 C 0.54837 0.63905 0.18333
 C393 C 0.58836 0.59559 0.27159
 C394 C 0.58004 0.57103 0.32972
 C395 C 0.52531 0.56871 0.36355
 C396 C 0.48152 0.60208 0.33724
 H397 H 0.54872 0.67754 0.06877
 H398 H 0.35775 0.69538 0.18407
 H399 H 0.36926 0.73019 0.08087
 H400 H 0.39871 0.65220 0.27380
 H401 H 0.59020 0.63520 0.15836
 H402 H 0.63075 0.59260 0.24737
 H403 H 0.61628 0.54923 0.34428
 H404 H 0.44035 0.60721 0.36124
 C405 C 0.48325 0.70922 0.86648
 C406 C 0.48123 0.66996 0.81819
 C407 C 0.44610 0.61192 0.82321
 C408 C 0.41724 0.59258 0.87873
 C409 C 0.42469 0.62979 0.92862
 C410 C 0.45818 0.68833 0.92285
 C411 C 0.44174 0.57440 0.77296
 C412 C 0.47639 0.59219 0.71983
 C413 C 0.51599 0.64702 0.71822
 C414 C 0.51628 0.68689 0.76597
 C415 C 0.55578 0.66074 0.66924
 C416 C 0.55519 0.62191 0.62121
 C417 C 0.51172 0.57072 0.61649
 C418 C 0.47285 0.55620 0.66846
 H419 H 0.50802 0.75496 0.86107
 H420 H 0.39050 0.54795 0.88398
 H421 H 0.40394 0.61324 0.97135
 H422 H 0.41302 0.53085 0.77574
 H423 H 0.54552 0.73015 0.76330
 H424 H 0.58836 0.70138 0.66822
 H425 H 0.58862 0.63537 0.58675
 H426 H 0.43834 0.51778 0.66945
 C427 C 0.50053 0.28894 0.11320
 C428 C 0.50616 0.32411 0.16391
 C429 C 0.55191 0.37381 0.16543
 C430 C 0.59029 0.38841 0.11495
 C431 C 0.58379 0.35348 0.06409
 C432 C 0.53941 0.30281 0.06300
 C433 C 0.55855 0.40748 0.21743
 C434 C 0.51946 0.39202 0.26755
 C435 C 0.47311 0.34351 0.26465
 C436 C 0.46673 0.30970 0.21331
 C437 C 0.43374 0.32910 0.31345
 C438 C 0.44061 0.36159 0.36502
 C439 C 0.48758 0.40869 0.37199
 C440 C 0.52607 0.42386 0.32067
 H441 H 0.46609 0.25015 0.11369
 H442 H 0.62544 0.42661 0.11485
 H443 H 0.61428 0.36615 0.02637
 H444 H 0.59406 0.44521 0.21897
 H445 H 0.43121 0.27192 0.21192
 H446 H 0.39728 0.29238 0.31198
 H447 H 0.40858 0.34671 0.39882
 H448 H 0.56281 0.45876 0.32170
 C449 C 0.48569 0.29627 0.88882
 C450 C 0.49046 0.33122 0.83491
 C451 C 0.54347 0.37063 0.81938
 C452 C 0.59102 0.37346 0.85684
 C453 C 0.58631 0.33761 0.90944
 C454 C 0.53327 0.30024 0.92684
 C455 C 0.54918 0.40490 0.76559
 C456 C 0.50367 0.39835 0.72577
 C457 C 0.45076 0.35953 0.74065
 C458 C 0.44386 0.32654 0.79565
 C459 C 0.40553 0.35586 0.70043
 C460 C 0.41502 0.38673 0.64464
 C461 C 0.47080 0.41922 0.62555
 C462 C 0.51122 0.42991 0.67072
 H463 H 0.44587 0.26491 0.89973
 H464 H 0.63251 0.40210 0.84469
 H465 H 0.62526 0.33784 0.93534
 H466 H 0.59006 0.43480 0.75365
 H467 H 0.40301 0.29660 0.80734
 H468 H 0.36289 0.32913 0.71192
 H469 H 0.37774 0.38424 0.61738
 H470 H 0.54768 0.46580 0.66564
 C471 C 0.73008 0.88220 0.50796
 C472 C 0.69936 0.82834 0.48834
 C473 C 0.64971 0.83192 0.45311
 C474 C 0.63417 0.89076 0.43537
 C475 C 0.66688 0.94492 0.45372
 C476 C 0.71323 0.94058 0.49248
 C477 C 0.61682 0.77669 0.43690
 C478 C 0.63286 0.71867 0.45697
 C479 C 0.68435 0.71653 0.48964
 C480 C 0.71777 0.77095 0.50427
 C481 C 0.70115 0.65968 0.50848
 C482 C 0.66244 0.60645 0.50358
 C483 C 0.60544 0.60745 0.48072
 C484 C 0.59642 0.66299 0.44870
 H485 H 0.76796 0.87843 0.53514
 H486 H 0.59756 0.89485 0.40670
 H487 H 0.65686 0.98945 0.43613
 H488 H 0.57762 0.77892 0.41131
 H489 H 0.75672 0.76858 0.53032
 H490 H 0.74363 0.65639 0.52816
 H491 H 0.68048 0.56364 0.51257
 H492 H 0.55746 0.66555 0.42332
 C493 C 0.67673 0.09549 0.50807
 C494 C 0.65906 0.15584 0.50522
 C495 C 0.70127 0.20771 0.51301
 C496 C 0.76084 0.19833 0.52163
 C497 C 0.77848 0.13829 0.52178
 C498 C 0.73675 0.08660 0.51468
 C499 C 0.68322 0.26794 0.51192
 C500 C 0.62378 0.27696 0.50159
 C501 C 0.58291 0.22561 0.49045
 C502 C 0.60013 0.16521 0.49354
 C503 C 0.52639 0.23614 0.47318
 C504 C 0.50956 0.29639 0.47130
 C505 C 0.54453 0.34769 0.49335
 C506 C 0.60479 0.33682 0.50116
 H507 H 0.64359 0.05600 0.50572
 H508 H 0.79391 0.23743 0.52746
 H509 H 0.82501 0.13230 0.52725
 H510 H 0.71529 0.30762 0.51904
 H511 H 0.56809 0.12575 0.48562
 H512 H 0.49556 0.19808 0.45954
 H513 H 0.46827 0.30095 0.45238
 H514 H 0.63873 0.37535 0.50394
 C515 C 0.31738 0.88064 0.49232
 C516 C 0.33864 0.82259 0.48467
 C517 C 0.30164 0.77354 0.46133
 C518 C 0.24264 0.78264 0.44930
 C519 C 0.22050 0.83934 0.46144
 C520 C 0.25781 0.88900 0.48251
 C521 C 0.32393 0.71605 0.45189
 C522 C 0.38100 0.70570 0.47009
 C523 C 0.41561 0.75342 0.49724
 C524 C 0.39560 0.81229 0.50221
 C525 C 0.46941 0.74106 0.51984
 C526 C 0.48777 0.68169 0.51685
 C527 C 0.45663 0.63247 0.48776
 C528 C 0.40332 0.64780 0.46291
 H529 H 0.34737 0.91824 0.50689
 H530 H 0.21318 0.74543 0.43216
 H531 H 0.17422 0.84461 0.45374
 H532 H 0.29609 0.67876 0.43270
 H533 H 0.42335 0.84931 0.52190
 H534 H 0.49697 0.77694 0.54122
 H535 H 0.52886 0.67709 0.53521
 H536 H 0.37856 0.61699 0.43644
 C537 C 0.26559 0.09203 0.48625
 C538 C 0.29810 0.14769 0.50081
 C539 C 0.34762 0.14642 0.53657
 C540 C 0.36322 0.08900 0.55770
 C541 C 0.32934 0.03374 0.54446
 C542 C 0.28022 0.03452 0.50837
 C543 C 0.38030 0.20251 0.55069
 C544 C 0.36475 0.25961 0.52798
 C545 C 0.31463 0.26022 0.49326
 C546 C 0.28112 0.20466 0.48054
 C547 C 0.30042 0.31624 0.46904
 C548 C 0.33924 0.36995 0.47302
 C549 C 0.39308 0.37121 0.50313
 C550 C 0.40102 0.31555 0.53564
 H551 H 0.22732 0.09424 0.45958
 H552 H 0.40034 0.08692 0.58611
 H553 H 0.33933 -0.00872 0.56637
 H554 H 0.41890 0.20154 0.57737
 H555 H 0.24290 0.20567 0.45329
 H556 H 0.26156 0.31783 0.44282
 H557 H 0.32792 0.40785 0.44740
 H558 H 0.43975 0.31344 0.56165
   
