data_POSCAR
  _audit_creation_date              2014-09-24
  _audit_creation_method            'ToBaCCo'
  _symmetry_space_group_name_H-M    'P1'
  _symmetry_Int_Tables_number       1
  _symmetry_cell_setting            triclinic
  loop_
  _symmetry_equiv_pos_as_xyz
 x,y,z
_cell_length_a 35.1748
_cell_length_b 35.8278
_cell_length_c 33.6371
_cell_angle_alpha 90.021600
_cell_angle_beta 89.895200
_cell_angle_gamma 89.929400
loop_
  _atom_site_label
  _atom_site_type_symbol
  _atom_site_fract_x
  _atom_site_fract_y
  _atom_site_fract_z
C1 C 1.25203 0.24793 0.24753
 C2 C 0.74804 -0.25059 0.24997
 C3 C 0.75023 0.25144 -0.24876
 C4 C 1.25016 -0.25186 -0.25090
 C5 C 0.24884 0.25202 0.75072
 C6 C 0.74846 0.74916 0.75185
 C7 C 0.74881 0.24967 0.24911
 C8 C 0.25211 0.75206 0.24897
 N9 N 1.06643 0.03732 0.04444
 N10 N 1.09238 0.06286 0.05239
 N11 N 1.03926 -0.04132 0.07129
 N12 N 1.04694 -0.06617 0.09912
 N13 N 1.06583 -0.04144 0.04380
 N14 N 1.09207 -0.06667 0.05206
 N15 N 1.04005 0.03700 0.07210
 N16 N 1.04752 0.06209 0.09976
 C17 C 1.08004 0.07833 0.08685
 C18 C 1.07971 -0.08218 0.08648
 N19 N 0.93097 -0.03958 0.04228
 N20 N 0.90425 -0.06450 0.04940
 N21 N 0.95806 0.03799 0.07114
 N22 N 0.95065 0.06324 0.09866
 N23 N 0.93211 0.03880 0.04314
 N24 N 0.90638 0.06466 0.05087
 N25 N 0.95701 -0.04044 0.07020
 N26 N 0.94860 -0.06600 0.09709
 Mn27 Mn 0.99857 -0.00173 0.07155
 C28 C 0.91577 -0.08108 0.08347
 C29 C 0.91852 0.07995 0.08543
 N30 N 1.06664 -0.04061 -0.04199
 N31 N 1.09372 -0.06475 -0.05086
 N32 N 1.04132 0.03804 -0.06940
 N33 N 1.05040 0.06190 -0.09771
 N34 N 1.06738 0.03780 -0.04147
 N35 N 1.09478 0.06168 -0.05005
 N36 N 1.04061 -0.04008 -0.06995
 N37 N 1.04949 -0.06366 -0.09865
 Mn38 Mn 1.06691 -0.00171 0.00123
 C39 C 1.08241 -0.07927 -0.08606
 C40 C 1.08354 0.07684 -0.08501
 N41 N 0.93280 0.03952 -0.04267
 N42 N 0.90680 0.06499 -0.05079
 N43 N 0.95844 -0.03929 -0.07069
 N44 N 0.95097 -0.06461 -0.09811
 N45 N 0.93180 -0.03905 -0.04331
 N46 N 0.90560 -0.06431 -0.05129
 N47 N 0.95930 0.03918 -0.07021
 N48 N 0.95196 0.06437 -0.09781
 Mn49 Mn 0.93158 -0.00004 -0.00013
 Mn50 Mn 0.99990 -0.00056 -0.07038
 Cl51 Cl 0.99927 -0.00102 0.00056
 C52 C 0.91931 0.08059 -0.08508
 C53 C 0.91809 -0.08030 -0.08541
 N54 N 0.95915 0.54114 0.42772
 N55 N 0.93252 0.54890 0.40129
 N56 N 1.03992 0.56702 0.45365
 N57 N 1.06411 0.59383 0.44459
 N58 N 1.03897 0.54177 0.42533
 N59 N 1.06233 0.55100 0.39614
 N60 N 0.96006 0.56691 0.45547
 N61 N 0.93405 0.59266 0.44886
 C62 C 0.91680 0.58097 0.41519
 C63 C 1.07827 0.58329 0.40887
 N64 N 1.04093 0.54145 0.56745
 N65 N 1.06697 0.54892 0.59448
 N66 N 0.96143 0.56730 0.54074
 N67 N 0.93813 0.59477 0.55013
 N68 N 0.96098 0.54134 0.56830
 N69 N 0.93715 0.55057 0.59715
 N70 N 1.04107 0.56695 0.53944
 N71 N 1.06703 0.59256 0.54678
 Mn72 Mn 1.00072 0.56728 0.49730
 C73 C 1.08328 0.58071 0.58099
 C74 C 0.92271 0.58379 0.58505
 N75 N 1.03982 0.46081 0.42544
 N76 N 1.06314 0.45165 0.39614
 N77 N 0.96166 0.43420 0.45532
 N78 N 0.93855 0.40644 0.44679
 N79 N 0.96005 0.46010 0.42772
 N80 N 0.93559 0.45053 0.39974
 N81 N 1.04130 0.43571 0.45388
 N82 N 1.06574 0.40909 0.44478
 Mn83 Mn 0.99941 0.50097 0.42615
 C84 C 1.07956 0.41958 0.40895
 C85 C 0.92203 0.41719 0.41240
 N86 N 0.96173 0.46025 0.56836
 N87 N 0.93798 0.45080 0.59715
 N88 N 1.04231 0.43582 0.53967
 N89 N 1.06795 0.41002 0.54767
 N90 N 1.04166 0.46133 0.56768
 N91 N 1.06700 0.45362 0.59540
 N92 N 0.96266 0.43422 0.54084
 N93 N 0.93977 0.40648 0.55025
 Mn94 Mn 1.00119 0.50110 0.56832
 Mn95 Mn 1.00207 0.43480 0.49742
 Cl96 Cl 1.00081 0.50102 0.49727
 C97 C 0.92410 0.41737 0.58511
 C98 C 1.08350 0.42172 0.58227
 N99 N 0.56633 0.04226 0.54434
 N100 N 0.59237 0.06756 0.55283
 N101 N 0.54155 -0.03646 0.57344
 N102 N 0.54908 -0.06115 0.60145
 N103 N 0.56842 -0.03642 0.54629
 N104 N 0.59476 -0.06145 0.55493
 N105 N 0.53980 0.04175 0.57186
 N106 N 0.54726 0.06647 0.59989
 C107 C 0.57985 0.08277 0.58734
 C108 C 0.58214 -0.07687 0.58930
 N109 N 0.43366 -0.03915 0.54383
 N110 N 0.40688 -0.06354 0.55245
 N111 N 0.45790 0.03994 0.57038
 N112 N 0.44817 0.06374 0.59851
 N113 N 0.43206 0.03918 0.54224
 N114 N 0.40414 0.06263 0.55053
 N115 N 0.45938 -0.03812 0.57206
 N116 N 0.45050 -0.06159 0.60084
 Mn117 Mn 0.49967 0.00174 0.57223
 C118 C 0.41797 -0.07765 0.58786
 C119 C 0.41487 0.07811 0.58550
 N120 N 0.56991 -0.03808 0.46069
 N121 N 0.59725 -0.06253 0.45409
 N122 N 0.54190 0.03828 0.43015
 N123 N 0.54947 0.06247 0.40167
 N124 N 0.56756 0.04023 0.45841
 N125 N 0.59317 0.06597 0.44991
 N126 N 0.54386 -0.04006 0.43284
 N127 N 0.55279 -0.06611 0.40661
 Mn128 Mn 0.56842 0.00207 0.50243
 C129 C 0.58603 -0.08013 0.42053
 C130 C 0.58126 0.07987 0.41459
 N131 N 0.43349 0.03721 0.45649
 N132 N 0.40723 0.06231 0.44820
 N133 N 0.46155 -0.04166 0.43119
 N134 N 0.45383 -0.06675 0.40358
 N135 N 0.43480 -0.04123 0.45846
 N136 N 0.40835 -0.06616 0.45023
 N137 N 0.45993 0.03678 0.42890
 N138 N 0.45229 0.06164 0.40103
 Mn139 Mn 0.43321 -0.00095 0.50023
 Mn140 Mn 0.50184 -0.00174 0.43038
 Cl141 Cl 0.50080 0.00028 0.50131
 C142 C 0.41946 0.07762 0.41370
 C143 C 0.42079 -0.08223 0.41615
 N144 N 0.56884 0.53847 0.04232
 N145 N 0.59517 0.56411 0.04782
 N146 N 0.54133 0.46168 0.07264
 N147 N 0.54838 0.43643 0.10014
 N148 N 0.56684 0.46004 0.04414
 N149 N 0.59190 0.43346 0.05148
 N150 N 0.54318 0.53994 0.07067
 N151 N 0.55141 0.56665 0.09627
 C152 C 0.58380 0.58170 0.08142
 C153 C 0.57977 0.41877 0.08639
 N154 N 0.43290 0.46311 0.04787
 N155 N 0.40785 0.43662 0.05510
 N156 N 0.46117 0.54172 0.07333
 N157 N 0.45485 0.56802 0.10007
 N158 N 0.43420 0.54159 0.04643
 N159 N 0.40892 0.56790 0.05401
 N160 N 0.45963 0.46322 0.07501
 N161 N 0.45346 0.43673 0.10155
 Mn162 Mn 0.50135 0.50170 0.07335
 C163 C 0.42111 0.42022 0.08857
 C164 C 0.42232 0.58442 0.08737
 N165 N 0.56488 0.45855 -0.04159
 N166 N 0.59060 0.43289 -0.05009
 N167 N 0.53968 0.53733 -0.06997
 N168 N 0.54671 0.56253 -0.09762
 N169 N 0.56671 0.53717 -0.04311
 N170 N 0.59268 0.56256 -0.05156
 N171 N 0.53812 0.45910 -0.06876
 N172 N 0.54511 0.43402 -0.09660
 Mn173 Mn 0.56723 0.49849 0.00044
 C174 C 0.57768 0.41751 -0.08427
 C175 C 0.57967 0.57835 -0.08553
 N176 N 0.43202 0.53981 -0.03886
 N177 N 0.40481 0.56385 -0.04712
 N178 N 0.45621 0.46079 -0.06603
 N179 N 0.44659 0.43632 -0.09354
 N180 N 0.43053 0.46183 -0.03766
 N181 N 0.40267 0.43828 -0.04528
 N182 N 0.45758 0.53915 -0.06736
 N183 N 0.44839 0.56293 -0.09575
 Mn184 Mn 0.43211 0.50156 0.00450
 Mn185 Mn 0.49790 0.49912 -0.06841
 Cl186 Cl 0.49967 0.50022 0.00244
 C187 C 0.41563 0.57846 -0.08238
 C188 C 0.41336 0.42217 -0.07994
 C189 C 1.17134 0.18048 0.17881
 C190 C 1.17950 0.21732 0.16766
 C191 C 1.20465 0.23893 0.19018
 C192 C 1.22419 0.22357 0.22302
 C193 C 1.21382 0.18720 0.23522
 C194 C 1.18808 0.16595 0.21326
 C195 C 1.14586 0.15682 0.15451
 C196 C 1.15258 0.15226 0.11363
 C197 C 1.13078 0.12714 0.09141
 C198 C 1.10142 0.10671 0.10955
 C199 C 1.09379 0.11238 0.15011
 C200 C 1.11605 0.13692 0.17247
 H201 H 1.20958 0.26760 0.18140
 H202 H 1.22518 0.17493 0.26205
 H203 H 1.13717 0.12337 0.06015
 H204 H 1.07136 0.09699 0.16486
 H205 H 1.18165 0.13781 0.22291
 H206 H 1.17557 0.16715 0.09922
 H207 H 1.16607 0.22948 0.14177
 H208 H 1.11025 0.14014 0.20392
 C209 C 1.18631 0.67026 0.67398
 C210 C 1.21452 0.69287 0.65701
 C211 C 1.23535 0.71765 0.68045
 C212 C 1.22784 0.72130 0.72157
 C213 C 1.20122 0.69653 0.73865
 C214 C 1.18035 0.67188 0.71519
 C215 C 1.16238 0.64586 0.64869
 C216 C 1.15138 0.61024 0.66186
 C217 C 1.12646 0.58856 0.63929
 C218 C 1.11214 0.60207 0.60312
 C219 C 1.12410 0.63710 0.58928
 C220 C 1.14892 0.65881 0.61187
 H221 H 1.25764 0.73324 0.66595
 H222 H 1.19587 0.69708 0.77037
 H223 H 1.11788 0.56152 0.65052
 H224 H 1.11346 0.64821 0.56150
 H225 H 1.15889 0.65473 0.72928
 H226 H 1.16179 0.59924 0.68977
 H227 H 1.22077 0.69116 0.62553
 H228 H 1.15652 0.68630 0.60112
 C229 C 0.67130 0.18275 0.68183
 C230 C 0.67868 0.21979 0.67098
 C231 C 0.70331 0.24173 0.69367
 C232 C 0.72317 0.22656 0.72641
 C233 C 0.71345 0.19000 0.73848
 C234 C 0.68820 0.16834 0.71628
 C235 C 0.64627 0.15899 0.65716
 C236 C 0.65288 0.15544 0.61614
 C237 C 0.63094 0.13102 0.59325
 C238 C 0.60152 0.11031 0.61086
 C239 C 0.59411 0.11482 0.65164
 C240 C 0.61655 0.13865 0.67466
 H241 H 0.70747 0.27055 0.68509
 H242 H 0.72506 0.17795 0.76532
 H243 H 0.63718 0.12809 0.56186
 H244 H 0.57166 0.09912 0.66599
 H245 H 0.68225 0.14004 0.72573
 H246 H 0.67579 0.17073 0.60206
 H247 H 0.66500 0.23189 0.64520
 H248 H 0.61080 0.14113 0.70620
 C249 C 0.67649 0.68775 0.16618
 C250 C 0.66157 0.71864 0.18652
 C251 C 0.68436 0.73937 0.21226
 C252 C 0.72241 0.72877 0.21975
 C253 C 0.73808 0.70019 0.19588
 C254 C 0.71531 0.67950 0.17008
 C255 C 0.65134 0.66317 0.14250
 C256 C 0.66362 0.64829 0.10603
 C257 C 0.64110 0.62261 0.08557
 C258 C 0.60596 0.61121 0.10128
 C259 C 0.59311 0.62693 0.13708
 C260 C 0.61557 0.65270 0.15748
 H261 H 0.67178 0.76358 0.22623
 H262 H 0.76782 0.69278 0.19861
 H263 H 0.65160 0.61108 0.05788
 H264 H 0.56612 0.61866 0.14984
 H265 H 0.72784 0.65616 0.15431
 H266 H 0.69083 0.65624 0.09354
 H267 H 0.63213 0.72671 0.18261
 H268 H 0.60554 0.66339 0.18574
 C269 C 0.82215 -0.18362 0.17295
 C270 C 0.78337 -0.17521 0.17712
 C271 C 0.76008 -0.19701 0.20141
 C272 C 0.77498 -0.22731 0.22325
 C273 C 0.81342 -0.23707 0.21657
 C274 C 0.83677 -0.21511 0.19242
 C275 C 0.84726 -0.15930 0.14874
 C276 C 0.88346 -0.14916 0.16270
 C277 C 0.90616 -0.12433 0.14110
 C278 C 0.89315 -0.10932 0.10505
 C279 C 0.85745 -0.12029 0.09052
 C280 C 0.83471 -0.14494 0.11218
 H281 H 0.73029 -0.18969 0.20394
 H282 H 0.82576 -0.26188 0.22950
 H283 H 0.93356 -0.11636 0.15299
 H284 H 0.84675 -0.10930 0.06271
 H285 H 0.86626 -0.22306 0.18853
 H286 H 0.89375 -0.15955 0.19094
 H287 H 0.77114 -0.15126 0.16224
 H288 H 0.80719 -0.15268 0.10040
 C289 C 0.82699 0.32148 0.68000
 C290 C 0.80939 0.29011 0.66292
 C291 C 0.78571 0.26707 0.68550
 C292 C 0.77704 0.27576 0.72543
 C293 C 0.79668 0.30587 0.74299
 C294 C 0.82093 0.32854 0.72061
 C295 C 0.85189 0.34635 0.65569
 C296 C 0.85379 0.38500 0.66336
 C297 C 0.87726 0.40820 0.64054
 C298 C 0.89876 0.39340 0.60911
 C299 C 0.89669 0.35500 0.60113
 C300 C 0.87388 0.33172 0.62435
 H301 H 0.77432 0.24245 0.67130
 H302 H 0.79281 0.31219 0.77422
 H303 H 0.87827 0.43776 0.64719
 H304 H 0.91335 0.34274 0.57736
 H305 H 0.83520 0.35141 0.73536
 H306 H 0.83680 0.39749 0.68670
 H307 H 0.81352 0.28337 0.63186
 H308 H 0.87404 0.30211 0.61801
 C309 C 0.32300 -0.17527 0.68160
 C310 C 0.28359 -0.17656 0.67516
 C311 C 0.26070 -0.20084 0.69709
 C312 C 0.27656 -0.22520 0.72557
 C313 C 0.31586 -0.22177 0.73358
 C314 C 0.33872 -0.19781 0.71140
 C315 C 0.34771 -0.15051 0.65745
 C316 C 0.37892 -0.13219 0.67478
 C317 C 0.40238 -0.10924 0.65192
 C318 C 0.39481 -0.10376 0.61143
 C319 C 0.36379 -0.12207 0.59398
 C320 C 0.34058 -0.14537 0.61672
 H321 H 0.23040 -0.20117 0.69139
 H322 H 0.32954 -0.23713 0.75717
 H323 H 0.42593 -0.09514 0.66615
 H324 H 0.35745 -0.11838 0.56273
 H325 H 0.36894 -0.19730 0.71745
 H326 H 0.38487 -0.13503 0.70620
 H327 H 0.27033 -0.15858 0.65333
 H328 H 0.31724 -0.15961 0.60228
 C329 C 0.33468 0.31128 0.17693
 C330 C 0.31455 0.28182 0.15927
 C331 C 0.28873 0.26069 0.18148
 C332 C 0.28122 0.26942 0.22169
 C333 C 0.30417 0.29687 0.23985
 C334 C 0.32996 0.31789 0.21772
 C335 C 0.35901 0.33633 0.15267
 C336 C 0.39360 0.35006 0.16763
 C337 C 0.41445 0.37658 0.14630
 C338 C 0.40105 0.38993 0.10968
 C339 C 0.36720 0.37527 0.09408
 C340 C 0.34642 0.34875 0.11533
 H341 H 0.27498 0.23752 0.16685
 H342 H 0.30104 0.30301 0.27121
 H343 H 0.44059 0.38724 0.15890
 H344 H 0.35623 0.38499 0.06585
 H345 H 0.34525 0.34019 0.23238
 H346 H 0.40428 0.34062 0.19608
 H347 H 0.31880 0.27509 0.12819
 H348 H 0.31969 0.33905 0.10320
 C349 C 0.82984 0.18450 -0.17788
 C350 C 0.81227 0.21600 -0.16115
 C351 C 0.78744 0.23797 -0.18362
 C352 C 0.77810 0.22815 -0.22311
 C353 C 0.79829 0.19821 -0.24052
 C354 C 0.82328 0.17637 -0.21812
 C355 C 0.85420 0.15970 -0.15325
 C356 C 0.88813 0.14465 -0.16860
 C357 C 0.90982 0.11968 -0.14606
 C358 C 0.89791 0.10904 -0.10782
 C359 C 0.86444 0.12464 -0.09215
 C360 C 0.84288 0.14977 -0.11457
 H361 H 0.77574 0.26270 -0.16981
 H362 H 0.79394 0.19112 -0.27147
 H363 H 0.93556 0.10818 -0.15887
 H364 H 0.85455 0.11697 -0.06276
 H365 H 0.83674 0.15254 -0.23209
 H366 H 0.89783 0.15212 -0.19810
 H367 H 0.81800 0.22386 -0.13065
 H368 H 0.81670 0.16059 -0.10207
 C369 C 0.81203 0.67425 0.32815
 C370 C 0.78102 0.66055 0.30647
 C371 C 0.75970 0.68432 0.28224
 C372 C 0.76983 0.72227 0.27763
 C373 C 0.79910 0.73624 0.30210
 C374 C 0.82027 0.71253 0.32644
 C375 C 0.83625 0.64872 0.35190
 C376 C 0.84961 0.65964 0.38945
 C377 C 0.87488 0.63699 0.41044
 C378 C 0.88743 0.60296 0.39430
 C379 C 0.87316 0.59135 0.35737
 C380 C 0.84774 0.61402 0.33637
 H381 H 0.73524 0.67263 0.26741
 H382 H 0.80645 0.76557 0.30131
 H383 H 0.88519 0.64655 0.43899
 H384 H 0.88236 0.56525 0.34426
 H385 H 0.84379 0.72407 0.34312
 H386 H 0.84077 0.68592 0.40245
 H387 H 0.77305 0.63143 0.30852
 H388 H 0.83813 0.60501 0.30735
 C389 C 0.32823 0.18003 0.32124
 C390 C 0.30901 0.21058 0.33807
 C391 C 0.28457 0.23254 0.31508
 C392 C 0.27770 0.22385 0.27475
 C393 C 0.29867 0.19419 0.25778
 C394 C 0.32311 0.17238 0.28071
 C395 C 0.35304 0.15577 0.34591
 C396 C 0.38769 0.14205 0.33086
 C397 C 0.40982 0.11735 0.35325
 C398 C 0.39768 0.10579 0.39107
 C399 C 0.36355 0.12020 0.40653
 C400 C 0.34150 0.14496 0.38422
 H401 H 0.27183 0.25668 0.32905
 H402 H 0.29567 0.18761 0.22652
 H403 H 0.43608 0.10681 0.34067
 H404 H 0.35349 0.11180 0.43563
 H405 H 0.33754 0.14907 0.26678
 H406 H 0.39760 0.15030 0.30167
 H407 H 0.31337 0.21790 0.36897
 H408 H 0.31480 0.15474 0.39649
 C409 C 0.31906 0.67392 -0.17657
 C410 C 0.29108 0.69652 -0.15891
 C411 C 0.26797 0.71945 -0.18212
 C412 C 0.27327 0.72172 -0.22367
 C413 C 0.29985 0.69712 -0.24125
 C414 C 0.32254 0.67385 -0.21810
 C415 C 0.34428 0.65023 -0.15184
 C416 C 0.38260 0.64473 -0.16252
 C417 C 0.40607 0.62171 -0.13972
 C418 C 0.39180 0.60422 -0.10556
 C419 C 0.35382 0.61026 -0.09439
 C420 C 0.33023 0.63278 -0.11744
 H421 H 0.24612 0.73514 -0.16695
 H422 H 0.30374 0.69675 -0.27320
 H423 H 0.43534 0.61760 -0.14880
 H424 H 0.34201 0.59682 -0.06832
 H425 H 0.34280 0.65573 -0.23283
 H426 H 0.39454 0.65835 -0.18840
 H427 H 0.28728 0.69694 -0.12698
 H428 H 0.30076 0.63584 -0.10870
 C429 C 1.17671 -0.17640 -0.18201
 C430 C 1.16090 -0.19946 -0.21137
 C431 C 1.18390 -0.22301 -0.23412
 C432 C 1.22345 -0.22551 -0.22713
 C433 C 1.23928 -0.20048 -0.19925
 C434 C 1.21630 -0.17666 -0.17678
 C435 C 1.15203 -0.15201 -0.15716
 C436 C 1.16042 -0.14607 -0.11677
 C437 C 1.13750 -0.12281 -0.09351
 C438 C 1.10550 -0.10532 -0.11002
 C439 C 1.09666 -0.11167 -0.15012
 C440 C 1.11979 -0.13458 -0.17351
 H441 H 1.17014 -0.23883 -0.25729
 H442 H 1.26969 -0.20000 -0.19432
 H443 H 1.14485 -0.11848 -0.06259
 H444 H 1.07231 -0.09827 -0.16369
 H445 H 1.22964 -0.15823 -0.15546
 H446 H 1.18457 -0.15961 -0.10301
 H447 H 1.13055 -0.19970 -0.21660
 H448 H 1.11279 -0.13801 -0.20462
 C449 C 1.17612 0.32274 0.31446
 C450 C 1.17820 0.28443 0.32325
 C451 C 1.20217 0.26083 0.30155
 C452 C 1.22560 0.27482 0.27090
 C453 C 1.22098 0.31274 0.26028
 C454 C 1.19738 0.33641 0.28225
 C455 C 1.15190 0.34828 0.33872
 C456 C 1.13269 0.37856 0.32111
 C457 C 1.11001 0.40242 0.34406
 C458 C 1.10563 0.39624 0.38500
 C459 C 1.12495 0.36626 0.40272
 C460 C 1.14799 0.34271 0.37992
 H461 H 1.20296 0.23148 0.30917
 H462 H 1.23543 0.32458 0.23488
 H463 H 1.09515 0.42513 0.32958
 H464 H 1.12223 0.36096 0.43430
 H465 H 1.19623 0.36562 0.27416
 H466 H 1.13449 0.38345 0.28941
 H467 H 1.16106 0.27252 0.34680
 H468 H 1.16296 0.32026 0.39471
 C469 C 0.68057 -0.18215 0.33190
 C470 C 0.67106 -0.21951 0.32481
 C471 C 0.69360 -0.24145 0.29977
 C472 C 0.72490 -0.22599 0.27917
 C473 C 0.73578 -0.18918 0.28906
 C474 C 0.71370 -0.16752 0.31477
 C475 C 0.65572 -0.15812 0.35648
 C476 C 0.67108 -0.13679 0.38750
 C477 C 0.64804 -0.11231 0.40911
 C478 C 0.60939 -0.10818 0.39955
 C479 C 0.59387 -0.12992 0.36889
 C480 C 0.61680 -0.15498 0.34776
 H481 H 0.68577 -0.27036 0.29524
 H482 H 0.76139 -0.17682 0.27715
 H483 H 0.66074 -0.09585 0.43260
 H484 H 0.56415 -0.12730 0.36104
 H485 H 0.72207 -0.13896 0.32062
 H486 H 0.70098 -0.13893 0.39481
 H487 H 0.64621 -0.23170 0.33871
 H488 H 0.60446 -0.17104 0.32375
 C489 C 0.66938 0.31769 -0.17883
 C490 C 0.67834 0.28103 -0.16772
 C491 C 0.70367 0.25984 -0.19051
 C492 C 0.72253 0.27545 -0.22369
 C493 C 0.71134 0.31158 -0.23590
 C494 C 0.68544 0.33246 -0.21357
 C495 C 0.64385 0.34085 -0.15399
 C496 C 0.65081 0.34484 -0.11312
 C497 C 0.62878 0.36926 -0.09021
 C498 C 0.59899 0.38956 -0.10766
 C499 C 0.59111 0.38446 -0.14822
 C500 C 0.61360 0.36058 -0.17127
 H501 H 0.70912 0.23127 -0.18173
 H502 H 0.72232 0.32387 -0.26293
 H503 H 0.63537 0.37265 -0.05898
 H504 H 0.56835 0.39982 -0.16242
 H505 H 0.67839 0.36048 -0.22314
 H506 H 0.67414 0.33005 -0.09923
 H507 H 0.66540 0.26868 -0.14163
 H508 H 0.60759 0.35774 -0.20270
 C509 C 1.17663 0.17567 -0.18024
 C510 C 1.21629 0.17594 -0.17569
 C511 C 1.23883 0.20008 -0.19820
 C512 C 1.22250 0.22539 -0.22549
 C513 C 1.18285 0.22302 -0.23177
 C514 C 1.16029 0.19916 -0.20894
 C515 C 1.15243 0.15073 -0.15550
 C516 C 1.11998 0.13365 -0.17171
 C517 C 1.09723 0.11030 -0.14850
 C518 C 1.10663 0.10309 -0.10870
 C519 C 1.13892 0.12011 -0.09233
 C520 C 1.16148 0.14384 -0.11542
 H521 H 1.26932 0.19957 -0.19379
 H522 H 1.16869 0.23914 -0.25443
 H523 H 1.07265 0.09730 -0.16200
 H524 H 1.14672 0.11512 -0.06165
 H525 H 1.12986 0.19945 -0.21364
 H526 H 1.11248 0.13773 -0.20260
 H527 H 1.23005 0.15725 -0.15490
 H528 H 1.18585 0.15704 -0.10175
 C529 C 1.17588 0.67935 0.31468
 C530 C 1.19583 0.66584 0.28148
 C531 C 1.21975 0.68920 0.25957
 C532 C 1.22655 0.72668 0.27133
 C533 C 1.20388 0.74058 0.30295
 C534 C 1.17950 0.71730 0.32447
 C535 C 1.15128 0.65407 0.33887
 C536 C 1.14789 0.65916 0.38023
 C537 C 1.12451 0.63589 0.40293
 C538 C 1.10442 0.60657 0.38500
 C539 C 1.10824 0.60085 0.34391
 C540 C 1.13115 0.62451 0.32104
 H541 H 1.23285 0.67741 0.23331
 H542 H 1.20555 0.76965 0.31158
 H543 H 1.12223 0.64080 0.43462
 H544 H 1.09276 0.57867 0.32926
 H545 H 1.16323 0.72926 0.34867
 H546 H 1.16354 0.68100 0.39523
 H547 H 1.19340 0.63695 0.27246
 H548 H 1.13242 0.62000 0.28926
 C549 C 0.67081 0.18063 0.31919
 C550 C 0.68755 0.16630 0.28455
 C551 C 0.71241 0.18813 0.26204
 C552 C 0.72194 0.22473 0.27406
 C553 C 0.70216 0.23983 0.30697
 C554 C 0.67788 0.21775 0.32992
 C555 C 0.64627 0.15669 0.34415
 C556 C 0.61687 0.13581 0.32691
 C557 C 0.59497 0.11170 0.35015
 C558 C 0.60255 0.10753 0.39090
 C559 C 0.63160 0.12881 0.40828
 C560 C 0.65307 0.15346 0.38514
 H561 H 0.72393 0.17615 0.23507
 H562 H 0.70616 0.26869 0.31550
 H563 H 0.57275 0.09559 0.33600
 H564 H 0.63794 0.12615 0.43965
 H565 H 0.66426 0.22977 0.35585
 H566 H 0.61099 0.13806 0.29541
 H567 H 0.68180 0.13793 0.27518
 H568 H 0.67575 0.16919 0.39899
 C569 C 0.66876 0.68125 -0.17881
 C570 C 0.68435 0.66738 -0.21423
 C571 C 0.70970 0.68891 -0.23643
 C572 C 0.72086 0.72478 -0.22344
 C573 C 0.70228 0.73962 -0.18966
 C574 C 0.67750 0.71775 -0.16697
 C575 C 0.64398 0.65725 -0.15413
 C576 C 0.61358 0.63778 -0.17139
 C577 C 0.59185 0.61305 -0.14868
 C578 C 0.60063 0.60680 -0.10850
 C579 C 0.63060 0.62678 -0.09105
 C580 C 0.65189 0.65207 -0.11360
 H581 H 0.72040 0.67724 -0.26392
 H582 H 0.70761 0.76803 -0.18028
 H583 H 0.56890 0.59799 -0.16287
 H584 H 0.63785 0.62254 -0.06010
 H585 H 0.66487 0.72943 -0.14033
 H586 H 0.60687 0.64151 -0.20255
 H587 H 0.67741 0.63952 -0.22440
 H588 H 0.67536 0.66663 -0.09976
 C589 C 0.82842 -0.18451 -0.17725
 C590 C 0.81073 -0.21589 -0.16047
 C591 C 0.78579 -0.23773 -0.18292
 C592 C 0.77644 -0.22785 -0.22239
 C593 C 0.79672 -0.19802 -0.23980
 C594 C 0.82182 -0.17635 -0.21745
 C595 C 0.85290 -0.15981 -0.15274
 C596 C 0.88689 -0.14510 -0.16820
 C597 C 0.90861 -0.12000 -0.14592
 C598 C 0.89665 -0.10888 -0.10783
 C599 C 0.86315 -0.12420 -0.09201
 C600 C 0.84156 -0.14947 -0.11417
 H601 H 0.77407 -0.26242 -0.16912
 H602 H 0.79234 -0.19088 -0.27073
 H603 H 0.93438 -0.10874 -0.15883
 H604 H 0.85325 -0.11617 -0.06272
 H605 H 0.83534 -0.15260 -0.23143
 H606 H 0.89659 -0.15290 -0.19762
 H607 H 0.81648 -0.22375 -0.12998
 H608 H 0.81534 -0.16005 -0.10160
 C609 C 0.82510 0.32025 0.31959
 C610 C 0.80786 0.28881 0.33690
 C611 C 0.78436 0.26552 0.31454
 C612 C 0.77555 0.27408 0.27466
 C613 C 0.79495 0.30424 0.25685
 C614 C 0.81902 0.32713 0.27900
 C615 C 0.84971 0.34542 0.34359
 C616 C 0.85088 0.38407 0.33590
 C617 C 0.87432 0.40756 0.35825
 C618 C 0.89647 0.39300 0.38920
 C619 C 0.89500 0.35461 0.39729
 C620 C 0.87222 0.33104 0.37452
 H621 H 0.77318 0.24086 0.32885
 H622 H 0.79098 0.31045 0.22564
 H623 H 0.87489 0.43713 0.35157
 H624 H 0.91217 0.34258 0.42072
 H625 H 0.83310 0.35007 0.26411
 H626 H 0.83342 0.39631 0.31286
 H627 H 0.81212 0.28223 0.36797
 H628 H 0.87285 0.30143 0.38082
 C629 C 0.32795 -0.18197 0.32214
 C630 C 0.31000 -0.21353 0.33808
 C631 C 0.28548 -0.23515 0.31487
 C632 C 0.27665 -0.22503 0.27513
 C633 C 0.29686 -0.19427 0.25899
 C634 C 0.32152 -0.17292 0.28218
 C635 C 0.35310 -0.15835 0.34712
 C636 C 0.38745 -0.14423 0.33188
 C637 C 0.41004 -0.12035 0.35472
 C638 C 0.39861 -0.10987 0.39318
 C639 C 0.36474 -0.12464 0.40878
 C640 C 0.34229 -0.14871 0.38604
 H641 H 0.27414 -0.26020 0.32829
 H642 H 0.29318 -0.18643 0.22815
 H643 H 0.43605 -0.10948 0.34196
 H644 H 0.35523 -0.11707 0.43834
 H645 H 0.33519 -0.14890 0.26887
 H646 H 0.39678 -0.15158 0.30219
 H647 H 0.31554 -0.22199 0.36843
 H648 H 0.31585 -0.15890 0.39849
 C649 C 0.31722 0.32603 -0.17399
 C650 C 0.28925 0.30330 -0.15668
 C651 C 0.26653 0.28026 -0.18019
 C652 C 0.27210 0.27809 -0.22176
 C653 C 0.29865 0.30286 -0.23898
 C654 C 0.32104 0.32615 -0.21551
 C655 C 0.34221 0.34970 -0.14895
 C656 C 0.38062 0.35491 -0.15924
 C657 C 0.40393 0.37800 -0.13642
 C658 C 0.38944 0.39600 -0.10260
 C659 C 0.35139 0.39018 -0.09166
 C660 C 0.32793 0.36744 -0.11472
 H661 H 0.24465 0.26449 -0.16524
 H662 H 0.30267 0.30344 -0.27091
 H663 H 0.43326 0.38187 -0.14535
 H664 H 0.33944 0.40395 -0.06583
 H665 H 0.34131 0.34437 -0.23000
 H666 H 0.39275 0.34105 -0.18491
 H667 H 0.28516 0.30288 -0.12478
 H668 H 0.29840 0.36447 -0.10622
 C669 C 1.17212 -0.18227 0.18034
 C670 C 1.18760 -0.16791 0.21548
 C671 C 1.21338 -0.18886 0.23781
 C672 C 1.22546 -0.22485 0.22527
 C673 C 1.20661 -0.24013 0.19171
 C674 C 1.18142 -0.21877 0.16894
 C675 C 1.14661 -0.15891 0.15562
 C676 C 1.11611 -0.13950 0.17302
 C677 C 1.09356 -0.11554 0.15019
 C678 C 1.10154 -0.10996 0.10968
 C679 C 1.13164 -0.12986 0.09211
 C680 C 1.15375 -0.15439 0.11480
 H681 H 1.22353 -0.17656 0.26517
 H682 H 1.21214 -0.26857 0.18245
 H683 H 1.07057 -0.10054 0.16453
 H684 H 1.13834 -0.12614 0.06092
 H685 H 1.16882 -0.23093 0.14259
 H686 H 1.10992 -0.14270 0.20439
 H687 H 1.18015 -0.14008 0.22544
 H688 H 1.17725 -0.16889 0.10077
 C689 C 1.18459 0.33077 0.67667
 C690 C 1.17855 0.32864 0.71786
 C691 C 1.19951 0.30374 0.74105
 C692 C 1.22627 0.27920 0.72369
 C693 C 1.23388 0.28345 0.68264
 C694 C 1.21303 0.30847 0.65952
 C695 C 1.16067 0.35538 0.65148
 C696 C 1.14798 0.34290 0.61416
 C697 C 1.12376 0.36497 0.59123
 C698 C 1.11156 0.39993 0.60515
 C699 C 1.12490 0.41290 0.64197
 C700 C 1.14925 0.39084 0.66491
 H701 H 1.19414 0.30282 0.77275
 H702 H 1.25630 0.26813 0.66795
 H703 H 1.11385 0.35423 0.56299
 H704 H 1.11607 0.43984 0.65333
 H705 H 1.21945 0.31061 0.62811
 H706 H 1.15583 0.31555 0.60318
 H707 H 1.15697 0.34558 0.73211
 H708 H 1.15902 0.40148 0.69323
 C709 C 0.67073 -0.18010 0.68310
 C710 C 0.68724 -0.16661 0.71816
 C711 C 0.71189 -0.18904 0.74026
 C712 C 0.72144 -0.22547 0.72747
 C713 C 0.70173 -0.23981 0.69423
 C714 C 0.67771 -0.21708 0.67162
 C715 C 0.64656 -0.15539 0.65851
 C716 C 0.61677 -0.13500 0.67591
 C717 C 0.59515 -0.11026 0.65308
 C718 C 0.60345 -0.10488 0.61261
 C719 C 0.63301 -0.12555 0.59509
 C720 C 0.65414 -0.15089 0.61778
 H721 H 0.72332 -0.17763 0.76749
 H722 H 0.70567 -0.26853 0.68510
 H723 H 0.57255 -0.09464 0.66735
 H724 H 0.63991 -0.12199 0.56394
 H725 H 0.66426 -0.22848 0.64536
 H726 H 0.61031 -0.13816 0.70723
 H727 H 0.68153 -0.13840 0.72814
 H728 H 0.67714 -0.16619 0.60381
 C729 C 0.66868 0.31612 0.17929
 C730 C 0.68429 0.33065 0.21430
 C731 C 0.70978 0.30959 0.23671
 C732 C 0.72105 0.27357 0.22426
 C733 C 0.70249 0.25810 0.19088
 C734 C 0.67754 0.27949 0.16800
 C735 C 0.64367 0.33959 0.15450
 C736 C 0.61338 0.35921 0.17189
 C737 C 0.59173 0.38394 0.14925
 C738 C 0.60043 0.38996 0.10899
 C739 C 0.63012 0.36961 0.09131
 C740 C 0.65140 0.34436 0.11385
 H741 H 0.72049 0.32172 0.26391
 H742 H 0.70800 0.22956 0.18196
 H743 H 0.56895 0.39923 0.16361
 H744 H 0.63727 0.37368 0.06028
 H745 H 0.66487 0.26736 0.14167
 H746 H 0.60681 0.35573 0.20314
 H747 H 0.67724 0.35866 0.22399
 H748 H 0.67481 0.32961 0.09995
 C749 C 0.82898 0.18369 0.17799
 C750 C 0.82224 0.17520 0.21811
 C751 C 0.79701 0.19671 0.24060
 C752 C 0.77674 0.22660 0.22333
 C753 C 0.78626 0.23680 0.18398
 C754 C 0.81137 0.21518 0.16143
 C755 C 0.85351 0.15920 0.15327
 C756 C 0.84225 0.14928 0.11461
 C757 C 0.86386 0.12416 0.09220
 C758 C 0.89724 0.10858 0.10793
 C759 C 0.90914 0.11932 0.14609
 C760 C 0.88742 0.14430 0.16859
 H761 H 0.79257 0.18942 0.27149
 H762 H 0.77453 0.26157 0.17035
 H763 H 0.85404 0.11640 0.06285
 H764 H 0.93484 0.10784 0.15890
 H765 H 0.81726 0.22328 0.13102
 H766 H 0.81606 0.16003 0.10217
 H767 H 0.83576 0.15134 0.23190
 H768 H 0.89704 0.15183 0.19809
 C769 C 0.82515 0.67935 0.68004
 C770 C 0.81922 0.67220 0.72065
 C771 C 0.79500 0.69482 0.74316
 C772 C 0.77526 0.72501 0.72577
 C773 C 0.78381 0.73380 0.68586
 C774 C 0.80746 0.71078 0.66313
 C775 C 0.85007 0.65452 0.65564
 C776 C 0.87196 0.66922 0.62431
 C777 C 0.89489 0.64601 0.60108
 C778 C 0.89720 0.60762 0.60905
 C779 C 0.87578 0.59275 0.64046
 C780 C 0.85217 0.61588 0.66328
 H781 H 0.79121 0.68841 0.77437
 H782 H 0.77240 0.75850 0.67180
 H783 H 0.91147 0.65832 0.57732
 H784 H 0.87698 0.56319 0.64709
 H785 H 0.81151 0.71760 0.63208
 H786 H 0.87197 0.69883 0.61799
 H787 H 0.83357 0.64930 0.73529
 H788 H 0.83525 0.60333 0.68661
 C789 C 0.32035 0.17600 0.68038
 C790 C 0.33674 0.19852 0.70987
 C791 C 0.31436 0.22224 0.73302
 C792 C 0.27485 0.22555 0.72630
 C793 C 0.25839 0.20145 0.69790
 C794 C 0.28079 0.17734 0.67507
 C795 C 0.34452 0.15092 0.65574
 C796 C 0.33627 0.14480 0.61533
 C797 C 0.35923 0.12130 0.59229
 C798 C 0.39110 0.10384 0.60910
 C799 C 0.39955 0.11011 0.64929
 C800 C 0.37638 0.13312 0.67243
 H801 H 0.32857 0.23751 0.75631
 H802 H 0.22797 0.20182 0.69300
 H803 H 0.35217 0.11694 0.56131
 H804 H 0.42372 0.09666 0.66314
 H805 H 0.26700 0.15948 0.65352
 H806 H 0.31234 0.15851 0.60134
 H807 H 0.36710 0.19812 0.71503
 H808 H 0.38317 0.13647 0.70359
 C809 C 0.33421 0.69018 0.17887
 C810 C 0.32808 0.68183 0.21906
 C811 C 0.30213 0.70248 0.24152
 C812 C 0.28004 0.73142 0.22425
 C813 C 0.28966 0.74192 0.18480
 C814 C 0.31552 0.72104 0.16229
 C815 C 0.35885 0.66583 0.15404
 C816 C 0.34705 0.65508 0.11583
 C817 C 0.36826 0.62937 0.09375
 C818 C 0.40181 0.61399 0.10933
 C819 C 0.41441 0.62573 0.14690
 C820 C 0.39308 0.65132 0.16910
 H821 H 0.29825 0.69489 0.27242
 H822 H 0.27739 0.76630 0.17088
 H823 H 0.35789 0.62089 0.06483
 H824 H 0.44027 0.61445 0.15958
 H825 H 0.32104 0.72917 0.13182
 H826 H 0.32063 0.66549 0.10359
 H827 H 0.34250 0.65853 0.23295
 H828 H 0.40313 0.65945 0.19825
   
