data_POSCAR
  _audit_creation_date              2014-09-24
  _audit_creation_method            'ToBaCCo'
  _symmetry_space_group_name_H-M    'P1'
  _symmetry_Int_Tables_number       1
  _symmetry_cell_setting            triclinic
  loop_
  _symmetry_equiv_pos_as_xyz
 x,y,z
_cell_length_a 24.8513
_cell_length_b 36.9192
_cell_length_c 33.5917
_cell_angle_alpha 90.097200
_cell_angle_beta 89.994300
_cell_angle_gamma 89.988400
loop_
  _atom_site_label
  _atom_site_type_symbol
  _atom_site_fract_x
  _atom_site_fract_y
  _atom_site_fract_z
O1 O 0.26413 0.28050 0.19446
 O2 O 0.31887 0.21163 0.26253
 O3 O 0.26083 0.20968 0.19891
 O4 O 0.32234 0.28247 0.25925
 O5 O 0.24968 0.28423 0.29693
 O6 O 0.18494 0.21705 0.23202
 O7 O 0.24360 0.21347 0.29730
 O8 O 0.19158 0.28536 0.23225
 Cu9 Cu 0.29910 0.24588 0.22523
 Cu10 Cu 0.21034 0.25025 0.26872
 C11 C 0.21825 0.29422 0.20158
 C12 C 0.29014 0.20030 0.29117
 C13 C 0.21151 0.20193 0.20428
 C14 C 0.29668 0.29544 0.28875
 O15 O 0.82095 0.28196 0.24201
 O16 O 0.75894 0.21119 0.30433
 O17 O 0.81722 0.21120 0.24085
 O18 O 0.76292 0.28213 0.30645
 O19 O 0.69002 0.28571 0.26889
 O20 O 0.74259 0.21247 0.20528
 O21 O 0.68333 0.21724 0.27058
 O22 O 0.74828 0.28331 0.20433
 Cu23 Cu 0.79748 0.24644 0.27700
 Cu24 Cu 0.70890 0.24975 0.23319
 C25 C 0.79536 0.29455 0.21235
 C26 C 0.70979 0.20301 0.29890
 C27 C 0.78900 0.19939 0.21215
 C28 C 0.71707 0.29570 0.29900
 O29 O 0.76304 0.78300 0.69704
 O30 O 0.81895 0.71418 0.76487
 O31 O 0.76131 0.71243 0.70028
 O32 O 0.82137 0.78516 0.76066
 O33 O 0.74880 0.78655 0.79834
 O34 O 0.68647 0.71628 0.73562
 O35 O 0.74469 0.71620 0.80080
 O36 O 0.68956 0.78586 0.73406
 Cu37 Cu 0.79869 0.74834 0.72716
 Cu38 Cu 0.71010 0.75142 0.77103
 C39 C 0.71670 0.79600 0.70409
 C40 C 0.79129 0.70333 0.79436
 C41 C 0.71327 0.70259 0.70716
 C42 C 0.79548 0.79839 0.78990
 O43 O 0.31497 0.78346 0.73640
 O44 O 0.25792 0.71590 0.80487
 O45 O 0.31331 0.71283 0.73886
 O46 O 0.26017 0.78696 0.80138
 O47 O 0.18248 0.78295 0.76991
 O48 O 0.23884 0.71381 0.70312
 O49 O 0.18325 0.71431 0.76907
 O50 O 0.23849 0.78439 0.70299
 Cu51 Cu 0.29422 0.74967 0.77385
 Cu52 Cu 0.20339 0.74895 0.73246
 C53 C 0.28627 0.79573 0.70822
 C54 C 0.21070 0.70397 0.79878
 C55 C 0.28545 0.70112 0.70985
 C56 C 0.21148 0.79678 0.79711
 C57 C 1.02504 0.02808 0.02109
 C58 C 0.96792 0.02608 0.02206
 C59 C 0.94101 0.00415 -0.00553
 C60 C 0.96920 -0.01828 -0.03203
 C61 C 1.02632 -0.02033 -0.02930
 C62 C 1.05325 0.00397 -0.00383
 H63 H 1.09674 0.00401 -0.00333
 H64 H 0.89740 0.00432 -0.00611
 C65 C 0.52555 0.52373 0.52675
 C66 C 0.46839 0.52277 0.52614
 C67 C 0.44215 0.49986 0.49895
 C68 C 0.47117 0.47696 0.47341
 C69 C 0.52812 0.47584 0.47625
 C70 C 0.55441 0.49975 0.50226
 H71 H 0.59799 0.49965 0.50349
 H72 H 0.39856 0.49986 0.49761
 C73 C -0.02778 0.47576 0.02899
 C74 C 0.02916 0.47457 0.02633
 C75 C 0.05598 0.49973 0.00226
 C76 C 0.02744 0.52493 -0.02073
 C77 C -0.02970 0.52376 -0.02109
 C78 C -0.05649 0.49971 0.00449
 H79 H -0.10009 0.49969 0.00544
 H80 H 0.09959 0.49971 0.00144
 C81 C 0.47110 0.97434 0.52603
 C82 C 0.52803 0.97671 0.52765
 C83 C 0.55434 1.00364 0.50549
 C84 C 0.52594 1.02698 0.47990
 C85 C 0.46932 1.02226 0.47585
 C86 C 0.44285 0.99666 0.49961
 H87 H 0.39945 0.99421 0.49761
 H88 H 0.59757 1.00631 0.50825
 C89 C 1.13279 0.13093 0.12474
 C90 C 1.18729 0.12495 0.13458
 C91 C 1.21429 0.14966 0.15944
 C92 C 1.18557 0.17740 0.17890
 C93 C 1.12984 0.18040 0.17241
 C94 C 1.10407 0.15822 0.14472
 C95 C 1.10670 0.10624 0.09546
 C96 C 1.05910 0.11549 0.07548
 C97 C 1.03518 0.09101 0.04931
 C98 C 1.05558 0.05566 0.04488
 C99 C 1.10552 0.04739 0.06261
 C100 C 1.13241 0.07324 0.08611
 C101 C 1.21309 0.09336 0.12124
 C102 C 1.18518 0.06707 0.09933
 H103 H 1.25449 0.08805 0.12952
 H104 H 1.20585 0.04225 0.09135
 H105 H 1.25676 0.14589 0.16563
 H106 H 1.10643 0.20118 0.18728
 H107 H 0.99968 0.09958 0.03325
 H108 H 1.12357 0.02097 0.05834
 H109 H 1.06142 0.16200 0.13996
 H110 H 1.04080 0.14185 0.07912
 C111 C 0.63961 0.62420 0.63022
 C112 C 0.61639 0.65894 0.63526
 C113 C 0.63979 0.68391 0.66161
 C114 C 0.68789 0.67555 0.68124
 C115 C 0.71252 0.64199 0.67472
 C116 C 0.68837 0.61633 0.64987
 C117 C 0.61200 0.59776 0.60323
 C118 C 0.62712 0.56106 0.60055
 C119 C 0.59924 0.53729 0.57561
 C120 C 0.55632 0.54961 0.55212
 C121 C 0.54205 0.58639 0.55378
 C122 C 0.56774 0.61000 0.58042
 C123 C 0.57102 0.66890 0.61309
 C124 C 0.54815 0.64529 0.58542
 H125 H 0.55365 0.69566 0.61653
 H126 H 0.51364 0.65447 0.56847
 H127 H 0.62169 0.71038 0.66585
 H128 H 0.75020 0.63550 0.68928
 H129 H 0.61065 0.50898 0.57522
 H130 H 0.50951 0.59635 0.53532
 H131 H 0.70894 0.59085 0.64581
 H132 H 0.65924 0.54998 0.61838
 C133 C -0.13096 0.37629 0.13875
 C134 C -0.17416 0.35522 0.12396
 C135 C -0.19861 0.32905 0.14833
 C136 C -0.17944 0.32254 0.18698
 C137 C -0.13569 0.34277 0.20115
 C138 C -0.11188 0.36940 0.17752
 C139 C -0.10628 0.40415 0.11192
 C140 C -0.06582 0.42822 0.12471
 C141 C -0.04217 0.45239 0.09807
 C142 C -0.05762 0.45289 0.05793
 C143 C -0.09992 0.43050 0.04533
 C144 C -0.12456 0.40637 0.07206
 C145 C -0.19186 0.35978 0.08468
 C146 C -0.16701 0.38437 0.05910
 H147 H -0.22474 0.34353 0.07325
 H148 H -0.18142 0.38629 0.02873
 H149 H -0.23185 0.31314 0.13683
 H150 H -0.12000 0.33819 0.23081
 H151 H -0.01065 0.47024 0.10863
 H152 H -0.11258 0.43116 0.01445
 H153 H -0.07816 0.38387 0.18999
 H154 H -0.05175 0.42880 0.15507
 C155 C 0.35623 0.87377 0.62845
 C156 C 0.37475 0.87082 0.66817
 C157 C 0.35176 0.84525 0.69391
 C158 C 0.30912 0.82321 0.68119
 C159 C 0.28915 0.82726 0.64244
 C160 C 0.31253 0.85206 0.61625
 C161 C 0.38380 0.90012 0.60134
 C162 C 0.37240 0.90249 0.56032
 C163 C 0.40036 0.92679 0.53613
 C164 C 0.43991 0.94958 0.55223
 C165 C 0.45054 0.94807 0.59321
 C166 C 0.42419 0.92283 0.61750
 C167 C 0.41572 0.89359 0.68209
 C168 C 0.43921 0.91950 0.65750
 H169 H 0.42954 0.89157 0.71261
 H170 H 0.47052 0.93664 0.66975
 H171 H 0.36672 0.84278 0.72412
 H172 H 0.25603 0.81068 0.63206
 H173 H 0.39180 0.92727 0.50452
 H174 H 0.48059 0.96593 0.60598
 H175 H 0.29566 0.85392 0.58675
 H176 H 0.34305 0.88525 0.54615
 C177 C -0.14245 0.62377 -0.12548
 C178 C -0.12165 0.62758 -0.16451
 C179 C -0.14323 0.65367 -0.19039
 C180 C -0.18640 0.67564 -0.17842
 C181 C -0.20812 0.67100 -0.14022
 C182 C -0.18639 0.64556 -0.11400
 C183 C -0.11660 0.59670 -0.09818
 C184 C -0.13112 0.59290 -0.05779
 C185 C -0.10391 0.56854 -0.03314
 C186 C -0.06197 0.54713 -0.04817
 C187 C -0.04888 0.54954 -0.08872
 C188 C -0.07459 0.57480 -0.11341
 C189 C -0.07966 0.60522 -0.17758
 C190 C -0.05715 0.57907 -0.15276
 H191 H -0.06402 0.60790 -0.20755
 H192 H -0.02470 0.56248 -0.16431
 H193 H -0.12670 0.65662 -0.22008
 H194 H -0.24163 0.68747 -0.13031
 H195 H -0.11456 0.56723 -0.00191
 H196 H -0.01700 0.53267 -0.10067
 H197 H -0.20470 0.64334 -0.08500
 H198 H -0.16226 0.60918 -0.04435
 C199 C 0.35432 1.11886 0.36970
 C200 C 0.37711 1.12430 0.33156
 C201 C 0.35586 1.15081 0.30610
 C202 C 0.31133 1.17173 0.31768
 C203 C 0.28754 1.16533 0.35484
 C204 C 0.30873 1.13935 0.38061
 C205 C 0.38025 1.09184 0.39691
 C206 C 0.36386 1.08689 0.43670
 C207 C 0.39178 1.06334 0.46172
 C208 C 0.43629 1.04383 0.44766
 C209 C 0.45105 1.04692 0.40750
 C210 C 0.42458 1.07158 0.38248
 C211 C 0.42099 1.10334 0.31907
 C212 C 0.44376 1.07722 0.34379
 H213 H 0.43812 1.10726 0.28972
 H214 H 0.47790 1.06188 0.33282
 H215 H 0.37401 1.15510 0.27713
 H216 H 0.25290 1.18091 0.36437
 H217 H 0.37979 1.06137 0.49264
 H218 H 0.48519 1.03161 0.39645
 H219 H 0.28884 1.13582 0.40886
 H220 H 0.33085 1.10182 0.44954
 C221 C 1.14255 -0.12601 -0.12511
 C222 C 1.11137 -0.15490 -0.14025
 C223 C 1.13377 -0.17889 -0.16807
 C224 C 1.18902 -0.17759 -0.17702
 C225 C 1.22121 -0.15126 -0.15834
 C226 C 1.19794 -0.12495 -0.13374
 C227 C 1.11552 -0.09880 -0.09894
 C228 C 1.13714 -0.06422 -0.09158
 C229 C 1.10824 -0.03879 -0.06922
 C230 C 1.05859 -0.04794 -0.05176
 C231 C 1.03906 -0.08342 -0.05695
 C232 C 1.06440 -0.10738 -0.08329
 C233 C 1.05907 -0.16064 -0.12594
 C234 C 1.03725 -0.13848 -0.09635
 H235 H 1.03552 -0.18336 -0.13664
 H236 H 0.99727 -0.14456 -0.08530
 H237 H 1.10895 -0.20026 -0.18054
 H238 H 1.26408 -0.15002 -0.16409
 H239 H 1.12438 -0.01168 -0.06638
 H240 H 1.00206 -0.09169 -0.04260
 H241 H 1.22379 -0.10456 -0.12079
 H242 H 1.17483 -0.05589 -0.10473
 C243 C 0.64666 0.37367 0.37791
 C244 C 0.62257 0.33927 0.37235
 C245 C 0.64554 0.31431 0.34585
 C246 C 0.69378 0.32235 0.32634
 C247 C 0.71947 0.35542 0.33346
 C248 C 0.69593 0.38109 0.35869
 C249 C 0.61882 0.40041 0.40445
 C250 C 0.63482 0.43694 0.40757
 C251 C 0.60586 0.46119 0.43130
 C252 C 0.56096 0.44950 0.45305
 C253 C 0.54622 0.41284 0.45143
 C254 C 0.57308 0.38876 0.42602
 C255 C 0.57634 0.32976 0.39373
 C256 C 0.55294 0.35366 0.42079
 H257 H 0.55837 0.30323 0.38987
 H258 H 0.51745 0.34493 0.43690
 H259 H 0.62656 0.28821 0.34097
 H260 H 0.75724 0.36163 0.31889
 H261 H 0.61782 0.48939 0.43190
 H262 H 0.51219 0.40341 0.46874
 H263 H 0.71707 0.40629 0.36310
 H264 H 0.66836 0.44754 0.39086
 C265 C 0.86510 -0.11764 -0.14088
 C266 C 0.81872 -0.13602 -0.12725
 C267 C 0.79478 -0.16292 -0.15094
 C268 C 0.81853 -0.17383 -0.18707
 C269 C 0.86628 -0.15670 -0.19938
 C270 C 0.88890 -0.12874 -0.17690
 C271 C 0.88876 -0.08862 -0.11510
 C272 C 0.93015 -0.06541 -0.12807
 C273 C 0.95370 -0.04073 -0.10179
 C274 C 0.93776 -0.03952 -0.06172
 C275 C 0.89356 -0.06040 -0.04949
 C276 C 0.86835 -0.08432 -0.07607
 C277 C 0.79788 -0.12855 -0.08936
 C278 C 0.82321 -0.10408 -0.06382
 H279 H 0.76268 -0.14288 -0.07866
 H280 H 0.80689 -0.10032 -0.03418
 H281 H 0.75876 -0.17638 -0.14029
 H282 H 0.88608 -0.16454 -0.22681
 H283 H 0.98637 -0.02380 -0.11223
 H284 H 0.88003 -0.05904 -0.01884
 H285 H 0.92574 -0.11676 -0.18766
 H286 H 0.94496 -0.06609 -0.15827
 C287 C 0.36922 0.37779 0.36243
 C288 C 0.32669 0.35616 0.37723
 C289 C 0.30268 0.32986 0.35277
 C290 C 0.32165 0.32369 0.31399
 C291 C 0.36484 0.34439 0.29976
 C292 C 0.38820 0.37123 0.32352
 C293 C 0.39335 0.40583 0.38944
 C294 C 0.43289 0.43061 0.37674
 C295 C 0.45613 0.45487 0.40362
 C296 C 0.44126 0.45463 0.44390
 C297 C 0.39972 0.43160 0.45636
 C298 C 0.37544 0.40748 0.42943
 C299 C 0.30924 0.36024 0.41664
 C300 C 0.33373 0.38489 0.44237
 H301 H 0.27690 0.34353 0.42806
 H302 H 0.31961 0.38639 0.47286
 H303 H 0.26995 0.31354 0.36432
 H304 H 0.38039 0.34002 0.27001
 H305 H 0.48712 0.47318 0.39321
 H306 H 0.38752 0.43167 0.48735
 H307 H 0.42149 0.38614 0.31108
 H308 H 0.44656 0.43160 0.34629
 C309 C 0.13568 0.63153 -0.11876
 C310 C 0.18097 0.61998 -0.14104
 C311 C 0.20687 0.64421 -0.16698
 C312 C 0.18613 0.67906 -0.17266
 C313 C 0.14006 0.68998 -0.15198
 C314 C 0.11530 0.66668 -0.12501
 C315 C 0.10971 0.60521 -0.09094
 C316 C 0.06882 0.61531 -0.06410
 C317 C 0.04388 0.58943 -0.04026
 C318 C 0.05808 0.55276 -0.04324
 C319 C 0.10102 0.54276 -0.06809
 C320 C 0.12750 0.56881 -0.09138
 C321 C 0.19870 0.58404 -0.13840
 C322 C 0.17164 0.55876 -0.11490
 H323 H 0.23299 0.57503 -0.15572
 H324 H 0.18586 0.53101 -0.11481
 H325 H 0.24181 0.63560 -0.18388
 H326 H 0.12337 0.71677 -0.15662
 H327 H 0.01243 0.59795 -0.01998
 H328 H 0.11312 0.51459 -0.06984
 H329 H 0.07958 0.67635 -0.11015
 H330 H 0.05577 0.64303 -0.06092
 C331 C 0.63227 1.13242 0.37938
 C332 C 0.68712 1.12722 0.37002
 C333 C 0.71355 1.15192 0.34495
 C334 C 0.68415 1.17880 0.32475
 C335 C 0.62826 1.18110 0.33088
 C336 C 0.60289 1.15898 0.35881
 C337 C 0.60662 1.10749 0.40859
 C338 C 0.55812 1.11584 0.42798
 C339 C 0.53448 1.09083 0.45369
 C340 C 0.55618 1.05585 0.45801
 C341 C 0.60706 1.04867 0.44123
 C342 C 0.63347 1.07502 0.41829
 C343 C 0.71397 1.09628 0.38392
 C344 C 0.68674 1.06972 0.40573
 H345 H 0.75569 1.09162 0.37604
 H346 H 0.70820 1.04532 0.41403
 H347 H 0.75620 1.14867 0.33909
 H348 H 0.60437 1.20122 0.31544
 H349 H 0.49791 1.09848 0.46903
 H350 H 0.62602 1.02256 0.44561
 H351 H 0.56006 1.16214 0.36324
 H352 H 0.53872 1.14180 0.42403
 C353 C 0.14217 0.36701 0.12005
 C354 C 0.18772 0.37852 0.14206
 C355 C 0.21412 0.35419 0.16764
 C356 C 0.19385 0.31917 0.17301
 C357 C 0.14792 0.30816 0.15227
 C358 C 0.12252 0.33160 0.12580
 C359 C 0.11511 0.39361 0.09310
 C360 C 0.07294 0.38383 0.06723
 C361 C 0.04672 0.40999 0.04454
 C362 C 0.06114 0.44659 0.04754
 C363 C 0.10530 0.45634 0.07130
 C364 C 0.13276 0.43005 0.09367
 C365 C 0.20518 0.41453 0.13957
 C366 C 0.17755 0.43994 0.11659
 H367 H 0.23975 0.42348 0.15661
 H368 H 0.19164 0.46772 0.11661
 H369 H 0.24904 0.36282 0.18453
 H370 H 0.13162 0.28122 0.15665
 H371 H 0.01415 0.40171 0.02512
 H372 H 0.11742 0.48451 0.07307
 H373 H 0.08686 0.32180 0.11101
 H374 H 0.05965 0.35617 0.06401
 C375 C 0.64622 0.87490 0.62655
 C376 C 0.62716 0.83873 0.62681
 C377 C 0.65023 0.81319 0.65257
 C378 C 0.69359 0.82278 0.67692
 C379 C 0.71432 0.85795 0.67541
 C380 C 0.69072 0.88391 0.65071
 C381 C 0.61836 0.90182 0.60027
 C382 C 0.62969 0.93924 0.60125
 C383 C 0.60100 0.96337 0.57727
 C384 C 0.56090 0.95079 0.55134
 C385 C 0.55078 0.91344 0.54913
 C386 C 0.57755 0.88918 0.57436
 C387 C 0.58570 0.82816 0.60107
 C388 C 0.56224 0.85268 0.57479
 H389 H 0.57155 0.80039 0.60094
 H390 H 0.53055 0.84312 0.55525
 H391 H 0.63498 0.78567 0.65338
 H392 H 0.74824 0.86547 0.69392
 H393 H 0.60926 0.99209 0.57971
 H394 H 0.52044 0.90341 0.52872
 H395 H 0.70805 0.91069 0.65074
 H396 H 0.65935 0.95052 0.62116
 C397 C 0.85781 0.11713 0.13667
 C398 C 0.81603 0.13968 0.12227
 C399 C 0.79221 0.16555 0.14747
 C400 C 0.81099 0.17040 0.18650
 C401 C 0.85274 0.14829 0.20053
 C402 C 0.87566 0.12187 0.17614
 C403 C 0.88313 0.09052 0.10861
 C404 C 0.92300 0.06564 0.12056
 C405 C 0.94853 0.04353 0.09265
 C406 C 0.93542 0.04592 0.05216
 C407 C 0.89315 0.06867 0.04032
 C408 C 0.86685 0.09084 0.06823
 C409 C 0.79970 0.13721 0.08244
 C410 C 0.82515 0.11374 0.05585
 H411 H 0.76781 0.15449 0.07134
 H412 H 0.81217 0.11366 0.02505
 H413 H 0.76050 0.18291 0.13619
 H414 H 0.86796 0.15152 0.23055
 H415 H 0.98005 0.02534 0.10247
 H416 H 0.88230 0.07022 0.00911
 H417 H 0.90813 0.10611 0.18849
 H418 H 0.93552 0.06311 0.15116
 C419 C 0.35243 0.62105 0.63062
 C420 C 0.37214 0.62452 0.66999
 C421 C 0.35023 0.65071 0.69572
 C422 C 0.30768 0.67293 0.68321
 C423 C 0.28673 0.66836 0.64477
 C424 C 0.30885 0.64291 0.61872
 C425 C 0.37897 0.59425 0.60336
 C426 C 0.36629 0.59143 0.56256
 C427 C 0.39429 0.56747 0.53793
 C428 C 0.43514 0.54540 0.55336
 C429 C 0.44629 0.54673 0.59430
 C430 C 0.42000 0.57181 0.61901
 C431 C 0.41335 0.60176 0.68350
 C432 C 0.43611 0.57555 0.65876
 H433 H 0.42810 0.60413 0.71375
 H434 H 0.46788 0.55859 0.67064
 H435 H 0.36605 0.65359 0.72565
 H436 H 0.25367 0.68502 0.63448
 H437 H 0.38522 0.56703 0.50639
 H438 H 0.47742 0.52942 0.60650
 H439 H 0.29113 0.64077 0.58951
 H440 H 0.33619 0.60829 0.54877
   
