data_POSCAR
  _audit_creation_date              2014-09-24
  _audit_creation_method            'ToBaCCo'
  _symmetry_space_group_name_H-M    'P1'
  _symmetry_Int_Tables_number       1
  _symmetry_cell_setting            triclinic
  loop_
  _symmetry_equiv_pos_as_xyz
 x,y,z
_cell_length_a 52.6097
_cell_length_b 50.4811
_cell_length_c 51.3170
_cell_angle_alpha 89.175900
_cell_angle_beta 91.476900
_cell_angle_gamma 92.854300
loop_
  _atom_site_label
  _atom_site_type_symbol
  _atom_site_fract_x
  _atom_site_fract_y
  _atom_site_fract_z
N1 N 0.17544 0.21139 0.24324
 N2 N 0.18390 0.19003 0.25473
 C3 C 0.16926 0.18366 0.27538
 C4 C 0.15078 0.20220 0.27667
 C5 C 0.15533 0.21937 0.25599
 H6 H 0.17196 0.16703 0.28851
 H7 H 0.14478 0.23657 0.25073
 Cu8 Cu 0.21352 0.17361 0.24135
 Cu9 Cu 0.19098 0.22784 0.21287
 Cu10 Cu 0.24397 0.19928 0.18875
 N11 N 0.24262 0.15712 0.22714
 N12 N 0.25521 0.16757 0.20735
 C13 C 0.27461 0.15209 0.20211
 C14 C 0.27371 0.13065 0.21927
 C15 C 0.25324 0.13455 0.23482
 H16 H 0.28778 0.15558 0.18645
 H17 H 0.24660 0.12178 0.25057
 N18 N 0.22919 0.23136 0.17292
 N19 N 0.20897 0.24194 0.18236
 C20 C 0.20287 0.26293 0.16752
 C21 C 0.21996 0.26591 0.14763
 C22 C 0.23643 0.24552 0.15159
 H23 H 0.18684 0.27490 0.17076
 H24 H 0.25232 0.24123 0.13965
 H25 H 0.20650 0.19392 0.19861
 H26 H 0.22757 0.21528 0.22033
 N27 N 0.66590 0.72585 0.74000
 N28 N 0.67362 0.70458 0.75230
 C29 C 0.65854 0.69912 0.77270
 C30 C 0.64036 0.71799 0.77314
 C31 C 0.64565 0.73465 0.75214
 H32 H 0.66063 0.68269 0.78618
 H33 H 0.63539 0.75184 0.74610
 Cu34 Cu 0.70264 0.68628 0.74037
 Cu35 Cu 0.68243 0.74018 0.70897
 Cu36 Cu 0.73513 0.70831 0.68801
 N37 N 0.73166 0.66822 0.72824
 N38 N 0.74511 0.67728 0.70847
 C39 C 0.76410 0.66083 0.70460
 C40 C 0.76200 0.64024 0.72266
 C41 C 0.74131 0.64564 0.73732
 H42 H 0.77770 0.66302 0.68916
 H43 H 0.73380 0.63378 0.75332
 N44 N 0.72168 0.73987 0.67002
 N45 N 0.70155 0.75177 0.67800
 C46 C 0.69640 0.77176 0.66134
 C47 C 0.71409 0.77255 0.64184
 C48 C 0.72985 0.75206 0.64798
 H49 H 0.68068 0.78453 0.66310
 H50 H 0.74580 0.74623 0.63689
 H51 H 0.69710 0.70511 0.69671
 H52 H 0.71821 0.72668 0.71810
 N53 N 0.31844 0.74403 0.74383
 N54 N 0.31264 0.76203 0.76066
 C55 C 0.33167 0.76501 0.77859
 C56 C 0.35049 0.74808 0.77259
 C57 C 0.34139 0.73500 0.75042
 H58 H 0.33221 0.77910 0.79430
 H59 H 0.35092 0.72046 0.73950
 Cu60 Cu 0.28175 0.78135 0.75669
 Cu61 Cu 0.29660 0.73464 0.71373
 Cu62 Cu 0.24631 0.77471 0.70151
 N63 N 0.25658 0.80676 0.74668
 N64 N 0.24285 0.80389 0.72506
 C65 C 0.22749 0.82423 0.72227
 C66 C 0.23173 0.84088 0.74323
 C67 C 0.25036 0.82915 0.75848
 H68 H 0.21436 0.82691 0.70598
 H69 H 0.25900 0.83635 0.77653
 N70 N 0.25286 0.74423 0.67990
 N71 N 0.27205 0.72879 0.68434
 C72 C 0.27245 0.71108 0.66492
 C73 C 0.25269 0.71588 0.64740
 C74 C 0.24061 0.73689 0.65767
 H75 H 0.28679 0.69667 0.66291
 H76 H 0.22461 0.74677 0.64913
 H77 H 0.28502 0.77291 0.71049
 H78 H 0.26310 0.74798 0.72706
 N79 N 0.83357 0.26176 0.25430
 N80 N 0.82742 0.28378 0.26539
 C81 C 0.84269 0.28840 0.28643
 C82 C 0.85957 0.26824 0.28853
 C83 C 0.85312 0.25162 0.26784
 H84 H 0.84208 0.30569 0.29852
 H85 H 0.86250 0.23396 0.26250
 Cu86 Cu 0.80171 0.30576 0.25000
 Cu87 Cu 0.81698 0.24945 0.22187
 Cu88 Cu 0.75661 0.27337 0.21420
 N89 N 0.77152 0.32295 0.23758
 N90 N 0.75330 0.30989 0.22442
 C91 C 0.73386 0.32580 0.21994
 C92 C 0.74053 0.35030 0.23046
 C93 C 0.76455 0.34778 0.24156
 H94 H 0.71628 0.32001 0.20969
 H95 H 0.77577 0.36257 0.25244
 N96 N 0.76816 0.24310 0.19466
 N97 N 0.79140 0.23447 0.19680
 C98 C 0.79475 0.21724 0.17753
 C99 C 0.77266 0.21528 0.16230
 C100 C 0.75614 0.23174 0.17393
 H101 H 0.81261 0.20857 0.17353
 H102 H 0.73752 0.23687 0.16671
 H103 H 0.79488 0.28123 0.20981
 H104 H 0.78593 0.26079 0.23911
 N105 N 0.82316 0.72420 0.26567
 N106 N 0.81959 0.69930 0.25877
 C107 C 0.83779 0.69295 0.24250
 C108 C 0.85395 0.71498 0.23876
 C109 C 0.84410 0.73459 0.25380
 H110 H 0.83844 0.67388 0.23331
 H111 H 0.85135 0.75493 0.25555
 Cu112 Cu 0.79050 0.67744 0.26920
 Cu113 Cu 0.79952 0.74037 0.28923
 Cu114 Cu 0.74218 0.70431 0.29822
 N115 N 0.75695 0.66036 0.26858
 N116 N 0.73771 0.67061 0.27993
 C117 C 0.71702 0.65386 0.27713
 C118 C 0.72382 0.63223 0.26295
 C119 C 0.74932 0.63712 0.25793
 H120 H 0.69856 0.65696 0.28505
 H121 H 0.76172 0.62445 0.24791
 N122 N 0.75073 0.73856 0.31514
 N123 N 0.77256 0.75229 0.31224
 C124 C 0.77366 0.77268 0.32909
 C125 C 0.75160 0.77146 0.34339
 C126 C 0.73751 0.74973 0.33376
 H127 H 0.79000 0.78625 0.33208
 H128 H 0.71952 0.74168 0.34080
 H129 H 0.78173 0.70653 0.30475
 H130 H 0.76960 0.71879 0.27238
 N131 N 0.31208 0.25196 -0.23507
 N132 N 0.30589 0.23070 -0.24882
 C133 C 0.32439 0.22681 -0.26578
 C134 C 0.34335 0.24657 -0.26253
 C135 C 0.33489 0.26222 -0.24276
 H136 H 0.32419 0.21076 -0.27952
 H137 H 0.34434 0.27989 -0.23473
 Cu138 Cu 0.27443 0.20979 -0.24313
 Cu139 Cu 0.28965 0.26506 -0.20868
 Cu140 Cu 0.23210 0.22950 -0.20094
 N141 N 0.24255 0.18943 -0.23764
 N142 N 0.22574 0.19788 -0.22162
 C143 C 0.20618 0.17980 -0.21999
 C144 C 0.21098 0.15873 -0.23575
 C145 C 0.23423 0.16553 -0.24671
 H146 H 0.19041 0.18125 -0.20710
 H147 H 0.24472 0.15340 -0.25944
 N148 N 0.24175 0.26172 -0.18140
 N149 N 0.26393 0.27493 -0.18334
 C150 C 0.26563 0.29384 -0.16487
 C151 C 0.24355 0.29211 -0.15060
 C152 C 0.22887 0.27173 -0.16188
 H153 H 0.28220 0.30689 -0.16110
 H154 H 0.21056 0.26388 -0.15553
 H155 H 0.27173 0.22906 -0.20006
 H156 H 0.25700 0.24972 -0.22626
 N157 N 0.65771 0.26610 -0.23600
 N158 N 0.66452 0.28402 -0.25361
 C159 C 0.64567 0.28540 -0.27189
 C160 C 0.62597 0.26749 -0.26505
 C161 C 0.63443 0.25565 -0.24214
 H162 H 0.64599 0.29872 -0.28860
 H163 H 0.62461 0.24041 -0.23071
 Cu164 Cu 0.69694 0.30416 -0.24918
 Cu165 Cu 0.67927 0.25685 -0.20634
 Cu166 Cu 0.73741 0.29175 -0.19912
 N167 N 0.72917 0.32453 -0.24472
 N168 N 0.74499 0.31928 -0.22526
 C169 C 0.76499 0.33696 -0.22564
 C170 C 0.76143 0.35444 -0.24623
 C171 C 0.73851 0.34592 -0.25799
 H172 H 0.78034 0.33792 -0.21120
 H173 H 0.72892 0.35513 -0.27436
 N174 N 0.72589 0.26314 -0.17488
 N175 N 0.70362 0.25015 -0.17770
 C176 C 0.70100 0.23201 -0.15844
 C177 C 0.72265 0.23353 -0.14264
 C178 C 0.73804 0.25354 -0.15355
 H179 H 0.68452 0.21867 -0.15614
 H180 H 0.75675 0.26039 -0.14655
 H181 H 0.69848 0.29371 -0.20269
 H182 H 0.71371 0.26850 -0.22258
 N183 N 0.17701 0.76271 0.23649
 N184 N 0.18162 0.78582 0.22504
 C185 C 0.16216 0.79070 0.20826
 C186 C 0.14440 0.76959 0.20976
 C187 C 0.15460 0.75218 0.22762
 H188 H 0.15999 0.80911 0.19758
 H189 H 0.14533 0.73419 0.23518
 Cu190 Cu 0.21052 0.80867 0.23651
 Cu191 Cu 0.19625 0.75098 0.26667
 Cu192 Cu 0.24984 0.78872 0.28598
 N193 N 0.24367 0.82608 0.24371
 N194 N 0.25892 0.81882 0.26294
 C195 C 0.27996 0.83530 0.26333
 C196 C 0.27767 0.85388 0.24328
 C197 C 0.25438 0.84719 0.23125
 H198 H 0.29557 0.83413 0.27738
 H199 H 0.24552 0.85701 0.21481
 N200 N 0.23699 0.75689 0.30567
 N201 N 0.21729 0.74205 0.29707
 C202 C 0.21214 0.72245 0.31430
 C203 C 0.22929 0.72477 0.33500
 C204 C 0.24495 0.74685 0.32890
 H205 H 0.19622 0.70826 0.31240
 H206 H 0.26048 0.75532 0.34079
 H207 H 0.21129 0.78805 0.27974
 H208 H 0.23076 0.77079 0.25571
 N209 N 0.47257 0.42666 0.49048
 N210 N 0.45479 0.43747 0.50375
 C211 C 0.44904 0.42194 0.52447
 C212 C 0.46403 0.40017 0.52435
 C213 C 0.47880 0.40386 0.50250
 H214 H 0.43477 0.42617 0.53838
 H215 H 0.49274 0.39071 0.49567
 Cu216 Cu 0.43992 0.47045 0.49300
 Cu217 Cu 0.48547 0.44263 0.45814
 Cu218 Cu 0.45338 0.49621 0.43424
 N219 N 0.41960 0.49773 0.47702
 N220 N 0.42517 0.50749 0.45391
 C221 C 0.40856 0.52575 0.44698
 C222 C 0.39147 0.52769 0.46677
 C223 C 0.39905 0.50961 0.48566
 H224 H 0.40902 0.53674 0.42878
 H225 H 0.39022 0.50535 0.50416
 N226 N 0.48236 0.48241 0.41679
 N227 N 0.49497 0.46209 0.42569
 C228 C 0.51364 0.45761 0.40897
 C229 C 0.51245 0.47597 0.38864
 C230 C 0.49245 0.49133 0.39437
 H231 H 0.52692 0.44201 0.41118
 H232 H 0.48567 0.50786 0.38305
 H233 H 0.47576 0.48051 0.46469
 H234 H 0.45082 0.45738 0.44956
 N235 N -0.00433 -0.07429 0.97810
 N236 N -0.02840 -0.07584 0.98447
 C237 C -0.03287 -0.09766 0.99922
 C238 C -0.01035 -0.11038 1.00261
 C239 C 0.00748 -0.09499 0.98896
 H240 H -0.05091 -0.10322 1.00792
 H241 H 0.02751 -0.09836 0.98723
 Cu242 Cu -0.05122 -0.04794 0.97571
 Cu243 Cu 0.00962 -0.04495 0.95692
 Cu244 Cu -0.03397 -0.00166 0.93151
 N245 N -0.06799 -0.01458 0.97302
 N246 N -0.06089 0.00381 0.95596
 C247 C -0.07556 0.02469 0.95817
 C248 C -0.09283 0.01901 0.97761
 C249 C -0.08751 -0.00614 0.98661
 H250 H -0.07404 0.04251 0.94621
 H251 H -0.09701 -0.01747 1.00187
 N252 N 0.00001 -0.00445 0.91719
 N253 N 0.01688 -0.02036 0.92739
 C254 C 0.03758 -0.01919 0.91249
 C255 C 0.03352 -0.00183 0.89186
 C256 C 0.00950 0.00731 0.89556
 H257 H 0.05377 -0.03137 0.91547
 H258 H -0.00081 0.02059 0.88295
 H259 H -0.01674 -0.01641 0.96353
 H260 H -0.02459 -0.04156 0.93779
 N261 N 1.01433 0.57530 0.99745
 N262 N 1.03762 0.57404 1.00712
 C263 C 1.04035 0.59050 1.02772
 C264 C 1.01728 0.60205 1.03118
 C265 C 1.00135 0.59187 1.01168
 H266 H 1.05760 0.59368 1.03941
 H267 H 0.98198 0.59716 1.00748
 Cu268 Cu 1.06093 0.54974 0.99181
 Cu269 Cu 1.00314 0.55861 0.96512
 Cu270 Cu 1.04498 0.51893 0.93497
 N271 N 1.08355 0.52530 0.97583
 N272 N 1.07755 0.51412 0.95333
 C273 C 1.09584 0.49767 0.94726
 C274 C 1.11418 0.49823 0.96712
 C275 C 1.10569 0.51591 0.98497
 H276 H 1.09512 0.48508 0.93036
 H277 H 1.11469 0.52095 1.00355
 N278 N 1.01085 0.52616 0.91992
 N279 N 0.99487 0.54065 0.93217
 C280 C 0.97353 0.54262 0.91752
 C281 C 0.97594 0.52883 0.89475
 C282 C 0.99984 0.51839 0.89697
 H283 H 0.95751 0.55374 0.92287
 H284 H 1.00869 0.50660 0.88265
 H285 H 1.02612 0.52611 0.96822
 H286 H 1.03917 0.55568 0.94971
 N287 N 0.52002 0.08270 0.48778
 N288 N 0.54084 0.07894 0.50175
 C289 C 0.54108 0.09482 0.52280
 C290 C 0.51894 0.10868 0.52193
 C291 C 0.50616 0.10047 0.49947
 H292 H 0.55577 0.09569 0.53795
 H293 H 0.48817 0.10727 0.49206
 Cu294 Cu 0.56404 0.05205 0.49126
 Cu295 Cu 0.51242 0.06535 0.45491
 Cu296 Cu 0.55367 0.01905 0.43453
 N297 N 0.58670 0.02508 0.48006
 N298 N 0.58296 0.01279 0.45773
 C299 C 0.60101 -0.00500 0.45525
 C300 C 0.61662 -0.00417 0.47737
 C301 C 0.60697 0.01515 0.49269
 H302 H 0.60208 -0.01840 0.43910
 H303 H 0.61399 0.02123 0.51177
 N304 N 0.52280 0.02835 0.41407
 N305 N 0.50744 0.04625 0.42213
 C306 C 0.48882 0.04941 0.40416
 C307 C 0.49235 0.03271 0.38371
 C308 C 0.51397 0.01936 0.39065
 H309 H 0.47369 0.06295 0.40575
 H310 H 0.52292 0.00481 0.37916
 H311 H 0.53097 0.03056 0.46365
 H312 H 0.54973 0.05727 0.44602
 N313 N -0.02250 0.08757 0.53549
 N314 N -0.04354 0.08371 0.52113
 C315 C -0.04305 0.10122 0.50101
 C316 C -0.02047 0.11645 0.50266
 C317 C -0.00802 0.10733 0.52477
 H318 H -0.05750 0.10208 0.48568
 H319 H 0.01036 0.11453 0.53236
 Cu320 Cu -0.06913 0.05439 0.52794
 Cu321 Cu -0.01457 0.06646 0.56701
 Cu322 Cu -0.05664 0.01699 0.58055
 N323 N -0.08572 0.01910 0.53285
 N324 N -0.07994 0.00426 0.55319
 C325 C -0.09350 -0.01892 0.55195
 C326 C -0.10899 -0.01868 0.52977
 C327 C -0.10373 0.00591 0.51814
 H328 H -0.09272 -0.03442 0.56666
 H329 H -0.11233 0.01363 0.50042
 N330 N -0.02665 0.02361 0.60259
 N331 N -0.01033 0.04342 0.59748
 C332 C 0.00909 0.04317 0.61508
 C333 C 0.00485 0.02179 0.63183
 C334 C -0.01803 0.00976 0.62332
 H335 H 0.02566 0.05673 0.61498
 H336 H -0.02744 -0.00800 0.63123
 H337 H -0.03681 0.03997 0.54409
 H338 H -0.05356 0.06330 0.56458
 N339 N 0.47197 0.60064 0.03752
 N340 N 0.45019 0.59879 0.02438
 C341 C 0.45068 0.61668 0.00472
 C342 C 0.47413 0.63028 0.00537
 C343 C 0.48718 0.61971 0.02655
 H344 H 0.43554 0.61877 -0.00972
 H345 H 0.50639 0.62506 0.03324
 Cu346 Cu 0.42416 0.57136 0.03202
 Cu347 Cu 0.47872 0.57748 0.06734
 Cu348 Cu 0.44442 0.51732 0.06372
 N349 N 0.40506 0.53763 0.03018
 N350 N 0.41407 0.51626 0.04118
 C351 C 0.39785 0.49545 0.03622
 C352 C 0.37749 0.50423 0.02149
 C353 C 0.38263 0.53121 0.01801
 H354 H 0.40014 0.47553 0.04365
 H355 H 0.37108 0.54509 0.00745
 N356 N 0.47523 0.52300 0.08604
 N357 N 0.48742 0.54634 0.08861
 C358 C 0.50608 0.54439 0.10692
 C359 C 0.50572 0.51848 0.11609
 C360 C 0.48595 0.50549 0.10243
 H361 H 0.51910 0.56052 0.11296
 H362 H 0.47935 0.48501 0.10490
 H363 H 0.46243 0.54867 0.04417
 H364 H 0.44383 0.55651 0.07331
 N365 N 0.54104 -0.07209 0.01111
 N366 N 0.55691 -0.06021 -0.00515
 C367 C 0.55686 -0.07375 -0.02741
 C368 C 0.53997 -0.09548 -0.02530
 C369 C 0.53015 -0.09381 -0.00053
 H370 H 0.56867 -0.06819 -0.04369
 H371 H 0.51633 -0.10746 0.00837
 Cu372 Cu 0.57745 -0.02891 0.00387
 Cu373 Cu 0.53592 -0.05725 0.04557
 Cu374 Cu 0.57927 -0.00653 0.06496
 N375 N 0.60564 -0.00668 0.01692
 N376 N 0.60690 0.00214 0.04089
 C377 C 0.62844 0.01766 0.04395
 C378 C 0.64107 0.01852 0.02049
 C379 C 0.62604 0.00269 0.00394
 H380 H 0.63405 0.02819 0.06154
 H381 H 0.62948 -0.00166 -0.01619
 N382 N 0.54988 -0.01879 0.08602
 N383 N 0.53404 -0.03880 0.07919
 C384 C 0.51515 -0.04107 0.09644
 C385 C 0.51900 -0.02129 0.11465
 C386 C 0.54122 -0.00757 0.10751
 H387 H 0.49868 -0.05468 0.09474
 H388 H 0.54981 0.00998 0.11661
 H389 H 0.54990 -0.01861 0.03905
 H390 H 0.57367 -0.04367 0.04867
 N391 N 1.02148 0.41050 0.52456
 N392 N 1.04066 0.41787 0.50971
 C393 C 1.04055 0.40174 0.48902
 C394 C 1.02043 0.38318 0.49116
 C395 C 1.00871 0.38935 0.51396
 H396 H 1.05448 0.40283 0.47386
 H397 H 0.99209 0.37928 0.52218
 Cu398 Cu 1.06505 0.44652 0.51985
 Cu399 Cu 1.01389 0.42935 0.55608
 Cu400 Cu 1.05638 0.48074 0.57416
 N401 N 1.08898 0.47532 0.53082
 N402 N 1.08599 0.48748 0.55292
 C403 C 1.10521 0.50566 0.55669
 C404 C 1.12109 0.50513 0.53574
 C405 C 1.11016 0.48578 0.51952
 H406 H 1.10697 0.51901 0.57298
 H407 H 1.11715 0.47985 0.50095
 N408 N 1.02543 0.47128 0.59334
 N409 N 1.00951 0.45121 0.58707
 C410 C 0.98966 0.45079 0.60321
 C411 C 0.99316 0.47188 0.62001
 C412 C 1.01601 0.48436 0.61328
 H413 H 0.97312 0.43723 0.60186
 H414 H 1.02474 0.50210 0.62188
 H415 H 1.03180 0.46477 0.54525
 H416 H 1.05109 0.44095 0.56460
 C417 C 0.37625 0.02221 0.22822
 C418 C 0.36053 -0.00405 0.23047
 C419 C 0.37429 -0.02551 0.23610
 C420 C 0.40309 -0.01894 0.23875
 C421 C 0.39165 0.02422 0.25382
 C422 C 0.40600 0.00297 0.25950
 C423 C 0.39591 0.01708 0.20761
 C424 C 0.40992 -0.00441 0.21304
 H425 H 0.34004 -0.00563 0.22765
 H426 H 0.41440 -0.03655 0.24263
 H427 H 0.39181 0.04168 0.26586
 H428 H 0.39839 0.02922 0.19019
 C429 C 0.14912 -0.03519 0.74397
 C430 C 0.16674 -0.01022 0.74184
 C431 C 0.15564 0.01273 0.74765
 C432 C 0.12763 0.00849 0.75536
 C433 C 0.13912 -0.03479 0.77166
 C434 C 0.12788 -0.01208 0.77780
 C435 C 0.12575 -0.02935 0.72653
 C436 C 0.11478 -0.00637 0.73225
 H437 H 0.18649 -0.01115 0.73673
 H438 H 0.11831 0.02693 0.76038
 H439 H 0.13931 -0.05196 0.78455
 H440 H 0.11857 -0.04159 0.71064
 C441 C 0.63691 0.45554 0.24199
 C442 C 0.65163 0.48227 0.24576
 C443 C 0.63712 0.50233 0.25296
 C444 C 0.60886 0.49384 0.25568
 C445 C 0.62334 0.45023 0.26759
 C446 C 0.60874 0.47016 0.27502
 C447 C 0.61575 0.46152 0.22207
 C448 C 0.60118 0.48176 0.22898
 H449 H 0.67181 0.48526 0.24240
 H450 H 0.59674 0.50998 0.26155
 H451 H 0.62463 0.43167 0.27822
 H452 H 0.61378 0.45193 0.20333
 C453 C 0.85904 0.52695 0.73892
 C454 C 0.84226 0.50149 0.74248
 C455 C 0.85533 0.47944 0.74782
 C456 C 0.88437 0.48473 0.74907
 C457 C 0.87559 0.52882 0.76384
 C458 C 0.88917 0.50697 0.76919
 C459 C 0.87739 0.52030 0.71755
 C460 C 0.89053 0.49820 0.72276
 H461 H 0.82171 0.50076 0.74028
 H462 H 0.89504 0.46669 0.75306
 H463 H 0.87710 0.54649 0.77562
 H464 H 0.87946 0.53180 0.69968
 C465 C 0.23881 0.36236 0.02669
 C466 C 0.23581 0.35129 -0.00084
 C467 C 0.23885 0.36979 -0.02022
 C468 C 0.24381 0.39827 -0.01020
 C469 C 0.26453 0.37769 0.02719
 C470 C 0.26737 0.39636 0.00799
 C471 C 0.21925 0.38386 0.02757
 C472 C 0.22166 0.40260 0.00822
 H473 H 0.23318 0.33024 -0.00457
 H474 H 0.24596 0.41361 -0.02582
 H475 H 0.27900 0.37453 0.04218
 H476 H 0.20403 0.38352 0.04140
 C477 C 0.77394 0.15482 -0.02044
 C478 C 0.77612 0.16729 0.00654
 C479 C 0.78271 0.15010 0.02600
 C480 C 0.78643 0.12173 0.01670
 C481 C 0.79937 0.14241 -0.02429
 C482 C 0.80610 0.12512 -0.00503
 C483 C 0.75491 0.13109 -0.01713
 C484 C 0.76108 0.11397 0.00247
 H485 H 0.77193 0.18771 0.01001
 H486 H 0.79179 0.10759 0.03243
 H487 H 0.81019 0.14583 -0.04179
 H488 H 0.73689 0.12919 -0.02779
 C489 C 0.24703 0.64626 0.46744
 C490 C 0.24647 0.65894 0.49428
 C491 C 0.24883 0.64145 0.51456
 C492 C 0.25089 0.61249 0.50609
 C493 C 0.27143 0.63113 0.46774
 C494 C 0.27364 0.61326 0.48773
 C495 C 0.22557 0.62451 0.46783
 C496 C 0.22753 0.60685 0.48799
 H497 H 0.24514 0.68007 0.49690
 H498 H 0.25194 0.59809 0.52251
 H499 H 0.28535 0.63382 0.45261
 H500 H 0.20960 0.62384 0.45409
 C501 C 0.74207 0.85734 0.51447
 C502 C 0.74196 0.84316 0.48836
 C503 C 0.74571 0.85952 0.46736
 C504 C 0.74859 0.88914 0.47437
 C505 C 0.76708 0.87401 0.51546
 C506 C 0.77063 0.89088 0.49480
 C507 C 0.72148 0.87772 0.51108
 C508 C 0.72463 0.89421 0.48999
 H509 H 0.73996 0.82176 0.48682
 H510 H 0.75136 0.90256 0.45728
 H511 H 0.78024 0.87344 0.53204
 H512 H 0.70540 0.87855 0.52374
 C513 C 0.03440 0.24000 0.35912
 C514 C 0.00929 0.23878 0.34347
 C515 C -0.01141 0.24389 0.35747
 C516 C -0.00517 0.24994 0.38624
 C517 C 0.03597 0.26727 0.37166
 C518 C 0.01541 0.27273 0.38579
 C519 C 0.02990 0.22050 0.38195
 C520 C 0.00893 0.22544 0.39596
 H521 H 0.00809 0.23398 0.32294
 H522 H -0.02202 0.25440 0.39771
 H523 H 0.05294 0.28028 0.37084
 H524 H 0.04105 0.20330 0.38550
 C525 C -0.03346 0.75010 0.14365
 C526 C -0.00813 0.76053 0.15574
 C527 C 0.01107 0.76402 0.13855
 C528 C 0.00303 0.75686 0.11040
 C529 C -0.03925 0.76953 0.12152
 C530 C -0.02036 0.77316 0.10402
 C531 C -0.02696 0.72453 0.12984
 C532 C -0.00767 0.72792 0.11259
 H533 H -0.00527 0.76297 0.17657
 H534 H 0.01830 0.76000 0.09603
 H535 H -0.05658 0.78024 0.12055
 H536 H -0.03628 0.70535 0.13385
 C537 C 0.45836 0.24313 0.64427
 C538 C 0.48237 0.24956 0.66098
 C539 C 0.50373 0.25502 0.64707
 C540 C 0.49930 0.25317 0.61742
 C541 C 0.45658 0.26667 0.62535
 C542 C 0.47777 0.27204 0.61114
 C543 C 0.46575 0.21995 0.62731
 C544 C 0.48720 0.22507 0.61338
 H545 H 0.48248 0.24924 0.68210
 H546 H 0.51676 0.25735 0.60621
 H547 H 0.43973 0.27811 0.62346
 H548 H 0.45626 0.20046 0.62772
 C549 C 0.52290 0.75151 0.85656
 C550 C 0.49757 0.75237 0.84140
 C551 C 0.47722 0.75653 0.85631
 C552 C 0.48407 0.75912 0.88554
 C553 C 0.52518 0.77731 0.87180
 C554 C 0.50514 0.78136 0.88727
 C555 C 0.51838 0.72981 0.87750
 C556 C 0.49788 0.73370 0.89248
 H557 H 0.49596 0.74953 0.82052
 H558 H 0.46750 0.76219 0.89783
 H559 H 0.54221 0.79029 0.87165
 H560 H 0.52985 0.71266 0.87988
 C561 C 0.09604 0.22930 0.30886
 C562 C 0.09137 0.21117 0.32936
 N563 N 0.10639 0.19013 0.33251
 C564 C 0.12583 0.18645 0.31605
 C565 C 0.13040 0.20468 0.29549
 N566 N 0.11528 0.22562 0.29259
 N567 N 0.08116 0.25022 0.30530
 C568 C 0.06165 0.25390 0.32133
 C569 C 0.05671 0.23589 0.34200
 N570 N 0.07177 0.21481 0.34554
 H571 H 0.13741 0.16950 0.31894
 H572 H 0.04990 0.27069 0.31792
 C573 C 0.58481 0.74399 0.80558
 C574 C 0.57997 0.72485 0.82519
 N575 N 0.59505 0.70387 0.82764
 C576 C 0.61473 0.70112 0.81135
 C577 C 0.61954 0.72021 0.79158
 N578 N 0.60435 0.74121 0.78929
 N579 N 0.56984 0.76500 0.80305
 C580 C 0.55015 0.76774 0.81922
 C581 C 0.54505 0.74856 0.83885
 N582 N 0.56022 0.72751 0.84135
 H583 H 0.62631 0.68412 0.81379
 H584 H 0.53844 0.78468 0.81677
 C585 C 0.40355 0.75821 0.82124
 C586 C 0.42272 0.74404 0.81018
 N587 N 0.41791 0.73099 0.78754
 C588 C 0.39476 0.73155 0.77527
 C589 C 0.37550 0.74606 0.78600
 N590 N 0.38044 0.75903 0.80886
 N591 N 0.40850 0.77119 0.84397
 C592 C 0.43182 0.77070 0.85610
 C593 C 0.45119 0.75680 0.84482
 N594 N 0.44598 0.74380 0.82208
 H595 H 0.39171 0.72110 0.75715
 H596 H 0.43531 0.78164 0.87390
 C597 C -0.08258 0.24362 0.31794
 C598 C -0.07615 0.26286 0.33679
 N599 N -0.09198 0.28286 0.34033
 C600 C -0.11368 0.28480 0.32552
 C601 C -0.11972 0.26599 0.30594
 N602 N -0.10403 0.24566 0.30306
 N603 N -0.06669 0.22388 0.31390
 C604 C -0.04425 0.22284 0.32740
 C605 C -0.03720 0.24262 0.34561
 N606 N -0.05358 0.26199 0.35023
 H607 H -0.12563 0.30119 0.32875
 H608 H -0.03177 0.20703 0.32353
 C609 C -0.09299 0.74360 0.19889
 C610 C -0.08513 0.72105 0.18618
 N611 N -0.09668 0.69705 0.19139
 C612 C -0.11592 0.69452 0.20852
 C613 C -0.12425 0.71710 0.22104
 N614 N -0.11236 0.74116 0.21595
 N615 N -0.08129 0.76759 0.19371
 C616 C -0.06220 0.77005 0.17634
 C617 C -0.05445 0.74754 0.16330
 N618 N -0.06618 0.72351 0.16873
 H619 H -0.12455 0.67500 0.21215
 H620 H -0.05318 0.78942 0.17256
 C621 C 0.39089 0.23426 0.68923
 C622 C 0.40951 0.25437 0.69449
 N623 N 0.40597 0.27167 0.71393
 C624 C 0.38459 0.26978 0.72840
 C625 C 0.36579 0.24950 0.72327
 N626 N 0.36962 0.23225 0.70369
 N627 N 0.39416 0.21728 0.66948
 C628 C 0.41536 0.21929 0.65483
 C629 C 0.43453 0.23912 0.66031
 N630 N 0.43076 0.25637 0.67995
 H631 H 0.38250 0.28393 0.74372
 H632 H 0.41674 0.20582 0.63885
 C633 C 0.57517 0.27002 0.68522
 C634 C 0.55630 0.25312 0.69628
 N635 N 0.56085 0.24118 0.71959
 C636 C 0.58345 0.24534 0.73253
 C637 C 0.60253 0.26257 0.72183
 N638 N 0.59776 0.27453 0.69829
 N639 N 0.57054 0.28158 0.66161
 C640 C 0.54786 0.27699 0.64861
 C641 C 0.52884 0.26028 0.65989
 N642 N 0.53366 0.24882 0.68353
 H643 H 0.58609 0.23544 0.75113
 H644 H 0.54458 0.28672 0.62999
 C645 C 0.08737 0.77529 0.16600
 C646 C 0.06835 0.76352 0.18166
 N647 N 0.07434 0.75451 0.20589
 C648 C 0.09866 0.75650 0.21524
 C649 C 0.11793 0.76818 0.19973
 N650 N 0.11181 0.77759 0.17543
 N651 N 0.08110 0.78367 0.14146
 C652 C 0.05670 0.78064 0.13190
 C653 C 0.03768 0.76887 0.14771
 N654 N 0.04417 0.76075 0.17224
 H655 H 0.10280 0.74919 0.23474
 H656 H 0.05224 0.78753 0.11234
 C657 C 0.33016 0.08914 0.21667
 C658 C 0.31973 0.06452 0.22522
 N659 N 0.29477 0.06186 0.23104
 C660 C 0.27965 0.08280 0.22891
 C661 C 0.28987 0.10761 0.22040
 N662 N 0.31498 0.11018 0.21428
 N663 N 0.35544 0.09170 0.21170
 C664 C 0.37069 0.07074 0.21486
 C665 C 0.36013 0.04591 0.22307
 N666 N 0.33484 0.04372 0.22816
 H667 H 0.25979 0.08003 0.23374
 H668 H 0.39081 0.07344 0.21118
 C669 C 0.81662 0.59604 0.72448
 C670 C 0.80469 0.57204 0.73284
 N671 N 0.77936 0.57066 0.73711
 C672 C 0.76533 0.59230 0.73361
 C673 C 0.77705 0.61646 0.72523
 N674 N 0.80253 0.61775 0.72067
 N675 N 0.84219 0.59734 0.72102
 C676 C 0.85627 0.57570 0.72547
 C677 C 0.84423 0.55148 0.73342
 N678 N 0.81866 0.55051 0.73698
 H679 H 0.74514 0.59058 0.73724
 H680 H 0.87664 0.57730 0.72282
 C681 C 0.81480 0.40545 0.75675
 C682 C 0.80563 0.42530 0.74016
 N683 N 0.78290 0.42126 0.72740
 C684 C 0.76866 0.39833 0.73072
 C685 C 0.77735 0.37861 0.74794
 N686 N 0.80039 0.38268 0.76045
 N687 N 0.83763 0.40961 0.76941
 C688 C 0.85160 0.43287 0.76641
 C689 C 0.84208 0.45307 0.75033
 N690 N 0.81931 0.44857 0.73752
 H691 H 0.75049 0.39594 0.72051
 H692 H 0.86946 0.43583 0.77714
 C693 C 0.33234 -0.09835 0.24672
 C694 C 0.32546 -0.08001 0.22736
 N695 N 0.30384 -0.08446 0.21293
 C696 C 0.28835 -0.10627 0.21718
 C697 C 0.29443 -0.12447 0.23727
 N698 N 0.31661 -0.12008 0.25140
 N699 N 0.35420 -0.09356 0.26104
 C700 C 0.36912 -0.07100 0.25717
 C701 C 0.36152 -0.05212 0.23851
 N702 N 0.33995 -0.05741 0.22395
 H703 H 0.27124 -0.10876 0.20521
 H704 H 0.38601 -0.06730 0.26932
 C705 C 0.18903 -0.10553 0.73195
 C706 C 0.19414 -0.08974 0.75381
 N707 N 0.21191 -0.09699 0.77185
 C708 C 0.22474 -0.11950 0.76904
 C709 C 0.21948 -0.13559 0.74715
 N710 N 0.20172 -0.12796 0.72915
 N711 N 0.17142 -0.09825 0.71383
 C712 C 0.15838 -0.07596 0.71669
 C713 C 0.16299 -0.06016 0.73894
 N714 N 0.18111 -0.06751 0.75677
 H715 H 0.23873 -0.12465 0.78381
 H716 H 0.14492 -0.07088 0.70148
 C717 C 0.68376 0.39095 0.22847
 C718 C 0.69449 0.41603 0.23500
 N719 N 0.72000 0.41943 0.23910
 C720 C 0.73535 0.39874 0.23729
 C721 C 0.72468 0.37344 0.23113
 N722 N 0.69908 0.37024 0.22661
 N723 N 0.65812 0.38752 0.22510
 C724 C 0.64270 0.40803 0.22827
 C725 C 0.65340 0.43316 0.23511
 N726 N 0.67914 0.43638 0.23820
 H727 H 0.75561 0.40207 0.24074
 H728 H 0.62228 0.40466 0.22612
 C729 C 0.67268 0.57856 0.26398
 C730 C 0.68208 0.56056 0.24651
 N731 N 0.70379 0.56684 0.23373
 C732 C 0.71697 0.59019 0.23800
 C733 C 0.70827 0.60804 0.25620
 N734 N 0.68603 0.60190 0.26857
 N735 N 0.65088 0.57191 0.27674
 C736 C 0.63831 0.54791 0.27303
 C737 C 0.64824 0.52957 0.25611
 N738 N 0.66982 0.53664 0.24316
 H739 H 0.73423 0.59449 0.22743
 H740 H 0.62134 0.54294 0.28389
 C741 C 0.19394 0.08869 0.74766
 C742 C 0.17074 0.08416 0.76024
 N743 N 0.16063 0.10422 0.77316
 C744 C 0.17281 0.12859 0.77432
 C745 C 0.19633 0.13312 0.76210
 N746 N 0.20619 0.11295 0.74890
 N747 N 0.20404 0.06863 0.73475
 C748 C 0.19216 0.04410 0.73408
 C749 C 0.16907 0.03925 0.74712
 N750 N 0.15890 0.05966 0.75968
 H751 H 0.16424 0.14407 0.78488
 H752 H 0.20071 0.02880 0.72327
 C753 C 0.23716 0.30321 0.08705
 C754 C 0.22001 0.32366 0.08685
 N755 N 0.20328 0.32494 0.10638
 C756 C 0.20286 0.30672 0.12612
 C757 C 0.22003 0.28613 0.12647
 N758 N 0.23681 0.28497 0.10679
 N759 N 0.25399 0.30201 0.06757
 C760 C 0.25450 0.32040 0.04796
 C761 C 0.23742 0.34106 0.04772
 N762 N 0.22054 0.34209 0.06731
 H763 H 0.18929 0.30853 0.14135
 H764 H 0.26829 0.31915 0.03279
 C765 C 0.73636 0.80474 0.58033
 C766 C 0.71860 0.82430 0.57611
 N767 N 0.69977 0.82670 0.59335
 C768 C 0.69784 0.81043 0.61464
 C769 C 0.71559 0.79073 0.61898
 N770 N 0.73446 0.78845 0.60157
 N771 N 0.75529 0.80242 0.56316
 C772 C 0.75728 0.81880 0.54198
 C773 C 0.73952 0.83849 0.53761
 N774 N 0.72057 0.84069 0.55494
 H775 H 0.68257 0.81296 0.62792
 H776 H 0.77266 0.81664 0.52868
 C777 C 0.75494 0.82380 0.39425
 C778 C 0.73744 0.81311 0.41220
 N779 N 0.72430 0.78998 0.40696
 C780 C 0.72799 0.77676 0.38466
 C781 C 0.74604 0.78683 0.36679
 N782 N 0.75908 0.81031 0.37204
 N783 N 0.76793 0.84713 0.39972
 C784 C 0.76447 0.85994 0.42251
 C785 C 0.74765 0.84864 0.44092
 N786 N 0.73447 0.82552 0.43506
 H787 H 0.71741 0.75815 0.38148
 H788 H 0.77555 0.87810 0.42665
 C789 C 0.24726 0.34048 -0.09610
 C790 C 0.22936 0.32880 -0.07910
 N791 N 0.21593 0.30634 -0.08604
 C792 C 0.21969 0.29473 -0.10919
 C793 C 0.23810 0.30579 -0.12617
 N794 N 0.25146 0.32860 -0.11918
 N795 N 0.26066 0.36301 -0.08880
 C796 C 0.25729 0.37403 -0.06508
 C797 C 0.24009 0.36163 -0.04765
 N798 N 0.22645 0.33940 -0.05535
 H799 H 0.20888 0.27655 -0.11371
 H800 H 0.26882 0.39146 -0.05945
 C801 C 0.75565 0.20679 -0.08375
 C802 C 0.73941 0.18493 -0.07732
 N803 N 0.71799 0.17957 -0.09187
 C804 C 0.71201 0.19503 -0.11275
 C805 C 0.72832 0.21685 -0.11958
 N806 N 0.74982 0.22221 -0.10478
 N807 N 0.77710 0.21200 -0.06904
 C808 C 0.78313 0.19614 -0.04832
 C809 C 0.76708 0.17390 -0.04216
 N810 N 0.74553 0.16907 -0.05688
 H811 H 0.69485 0.18995 -0.12396
 H812 H 0.80043 0.20052 -0.03701
 C813 C 0.24622 0.69810 0.40099
 C814 C 0.22842 0.67659 0.40325
 N815 N 0.21151 0.67120 0.38352
 C816 C 0.21148 0.68632 0.36149
 C817 C 0.22926 0.70801 0.35891
 N818 N 0.24626 0.71337 0.37890
 N819 N 0.26336 0.70306 0.42078
 C820 C 0.26358 0.68733 0.44258
 C821 C 0.24582 0.66562 0.44476
 N822 N 0.22868 0.66095 0.42488
 H823 H 0.19768 0.68115 0.34626
 H824 H 0.27773 0.69138 0.45788
 C825 C 0.25591 0.67013 0.59157
 C826 C 0.24074 0.68261 0.57267
 N827 N 0.22899 0.70491 0.57873
 C828 C 0.23190 0.71555 0.60283
 C829 C 0.24764 0.70358 0.62173
 N830 N 0.25922 0.68099 0.61559
 N831 N 0.26759 0.64775 0.58537
 C832 C 0.26497 0.63744 0.56101
 C833 C 0.25032 0.65035 0.54184
 N834 N 0.23851 0.67263 0.54831
 H835 H 0.22252 0.73356 0.60678
 H836 H 0.27500 0.61997 0.55648
 C837 C 0.78525 0.17530 0.10421
 C838 C 0.76671 0.18400 0.08637
 N839 N 0.74968 0.20141 0.09397
 C840 C 0.75050 0.21092 0.11860
 C841 C 0.76958 0.20303 0.13640
 N842 N 0.78647 0.18522 0.12872
 N843 N 0.80210 0.15760 0.09647
 C844 C 0.80138 0.14847 0.07159
 C845 C 0.78334 0.15791 0.05352
 N846 N 0.76637 0.17537 0.06151
 H847 H 0.73689 0.22517 0.12376
 H848 H 0.81522 0.13468 0.06580
 C849 C 0.48061 0.33706 0.55768
 C850 C 0.46300 0.33537 0.57773
 N851 N 0.44627 0.35468 0.58015
 C852 C 0.44627 0.37572 0.56337
 C853 C 0.46381 0.37760 0.54307
 N854 N 0.48062 0.35807 0.54076
 N855 N 0.49728 0.31755 0.55539
 C856 C 0.49713 0.29645 0.57228
 C857 C 0.47939 0.29469 0.59241
 N858 N 0.46278 0.31435 0.59444
 H859 H 0.43255 0.39063 0.56592
 H860 H 0.51038 0.28111 0.56955
 C861 C -0.02613 0.83117 0.04430
 C862 C -0.00217 0.82445 0.05425
 N863 N 0.01903 0.83820 0.04592
 C864 C 0.01729 0.85865 0.02844
 C865 C -0.00682 0.86598 0.01922
 N866 N -0.02787 0.85177 0.02729
 N867 N -0.04739 0.81765 0.05247
 C868 C -0.04592 0.79810 0.07076
 C869 C -0.02210 0.79204 0.08184
 N870 N -0.00067 0.80511 0.07289
 H871 H 0.03445 0.86957 0.02254
 H872 H -0.06330 0.78767 0.07676
 C873 C 0.01928 0.66352 0.07056
 C874 C -0.00570 0.66295 0.07963
 N875 N -0.02190 0.64195 0.07411
 C876 C -0.01444 0.62164 0.05952
 C877 C 0.01041 0.62221 0.04998
 N878 N 0.02685 0.64313 0.05596
 N879 N 0.03519 0.68493 0.07569
 C880 C 0.02720 0.70588 0.08922
 C881 C 0.00205 0.70550 0.09807
 N882 N -0.01364 0.68377 0.09318
 H883 H -0.02794 0.60536 0.05503
 H884 H 0.04050 0.72243 0.09323
 C885 C 0.51728 0.16540 0.56737
 C886 C 0.49105 0.16604 0.57156
 N887 N 0.47482 0.14757 0.56042
 C888 C 0.48356 0.12859 0.54499
 C889 C 0.50978 0.12783 0.54055
 N890 N 0.52614 0.14623 0.55205
 N891 N 0.53332 0.18436 0.57818
 C892 C 0.52431 0.20396 0.59288
 C893 C 0.49801 0.20459 0.59713
 N894 N 0.48212 0.18539 0.58638
 H895 H 0.47011 0.11425 0.53616
 H896 H 0.53764 0.21851 0.60151
 C897 C -0.01910 0.16936 0.45155
 C898 C 0.00718 0.17465 0.44898
 N899 N 0.02382 0.16118 0.46409
 C900 C 0.01539 0.14260 0.48168
 C901 C -0.01091 0.13690 0.48408
 N902 N -0.02755 0.15046 0.46882
 N903 N -0.03570 0.18311 0.43662
 C904 C -0.02722 0.20183 0.41914
 C905 C -0.00090 0.20682 0.41616
 N906 N 0.01566 0.19298 0.43122
 H907 H 0.02915 0.13203 0.49327
 H908 H -0.04093 0.21203 0.40712
 C909 C 0.47338 0.67979 0.95145
 C910 C 0.49942 0.68570 0.94795
 N911 N 0.51680 0.67407 0.96382
 C912 C 0.50930 0.65664 0.98294
 C913 C 0.48321 0.65025 0.98611
 N914 N 0.46592 0.66209 0.97019
 N915 N 0.45594 0.69169 0.93593
 C916 C 0.46336 0.70929 0.91700
 C917 C 0.48943 0.71497 0.91313
 N918 N 0.50688 0.70294 0.92874
 H919 H 0.52358 0.64747 0.99509
 H920 H 0.44905 0.71830 0.90474
 C921 C 0.51255 0.84399 0.94151
 C922 C 0.52637 0.84458 0.91851
 N923 N 0.54374 0.86468 0.91400
 C924 C 0.54814 0.88429 0.93155
 C925 C 0.53466 0.88378 0.95494
 N926 N 0.51702 0.86355 0.95929
 N927 N 0.49538 0.82349 0.94591
 C928 C 0.49167 0.80344 0.92847
 C929 C 0.50598 0.80378 0.90563
 N930 N 0.52285 0.82458 0.90134
 H931 H 0.56233 0.89980 0.92720
 H932 H 0.47841 0.78709 0.93300
 C933 C 0.02019 0.34105 0.43263
 C934 C 0.00588 0.31829 0.44066
 N935 N -0.00458 0.31767 0.46460
 C936 C -0.00106 0.33861 0.48099
 C937 C 0.01409 0.36101 0.47332
 N938 N 0.02414 0.36164 0.44915
 N939 N 0.03056 0.34191 0.40874
 C940 C 0.02797 0.32074 0.39273
 C941 C 0.01485 0.29728 0.40115
 N942 N 0.00366 0.29683 0.42485
 H943 H -0.00933 0.33736 0.50007
 H944 H 0.03655 0.32209 0.37380
 C945 C 0.33512 0.56193 0.48920
 C946 C 0.32997 0.57833 0.46765
 N947 N 0.34466 0.57793 0.44643
 C948 C 0.36445 0.56183 0.44569
 C949 C 0.36991 0.54526 0.46723
 N950 N 0.35499 0.54572 0.48857
 N951 N 0.32016 0.56259 0.51037
 C952 C 0.30025 0.57887 0.51087
 C953 C 0.29506 0.59529 0.48914
 N954 N 0.31027 0.59443 0.46817
 H955 H 0.37564 0.56212 0.42833
 H956 H 0.28894 0.57899 0.52812
 C957 C 0.86906 0.07818 -0.01617
 C958 C 0.84818 0.06814 -0.00196
 N959 N 0.84743 0.04245 0.00634
 C960 C 0.86646 0.02627 0.00077
 C961 C 0.88703 0.03612 -0.01415
 N962 N 0.88781 0.06197 -0.02206
 N963 N 0.86994 0.10376 -0.02456
 C964 C 0.85053 0.11966 -0.02000
 C965 C 0.82895 0.10943 -0.00679
 N966 N 0.82853 0.08392 0.00232
 H967 H 0.86513 0.00580 0.00731
 H968 H 0.85179 0.13997 -0.02706
 C969 C 0.70193 0.05960 0.02540
 C970 C 0.70625 0.06545 -0.00097
 N971 N 0.68988 0.05554 -0.01955
 C972 C 0.66916 0.04007 -0.01306
 C973 C 0.66425 0.03446 0.01335
 N974 N 0.68089 0.04439 0.03206
 N975 N 0.71850 0.06985 0.04386
 C976 C 0.73886 0.08609 0.03710
 C977 C 0.74253 0.09277 0.01070
 N978 N 0.72613 0.08198 -0.00759
 H979 H 0.65636 0.03289 -0.02848
 H980 H 0.75120 0.09472 0.05224
 C981 C 0.17028 0.54664 0.50139
 C982 C 0.18344 0.55929 0.52228
 N983 N 0.17665 0.55326 0.54707
 C984 C 0.15707 0.53544 0.55194
 C985 C 0.14361 0.52297 0.53106
 N986 N 0.15078 0.52872 0.50622
 N987 N 0.17665 0.55317 0.47658
 C988 C 0.19532 0.57206 0.47169
 C989 C 0.20830 0.58507 0.49257
 N990 N 0.20217 0.57806 0.51742
 H991 H 0.15202 0.53116 0.57191
 H992 H 0.19996 0.57686 0.45170
 C993 C 0.16589 0.45986 -0.00211
 C994 C 0.17577 0.44742 -0.02368
 N995 N 0.16593 0.45241 -0.04788
 C996 C 0.14647 0.46900 -0.05147
 C997 C 0.13633 0.48134 -0.02989
 N998 N 0.14656 0.47656 -0.00569
 N999 N 0.17516 0.45430 0.02217
 C1000 C 0.19359 0.43656 0.02594
 C1001 C 0.20335 0.42375 0.00444
 N1002 N 0.19432 0.42978 -0.01996
 H1003 H 0.13897 0.47243 -0.07099
 H1004 H 0.20043 0.43233 0.04556
 C1005 C 0.66890 0.94949 0.47033
 C1006 C 0.67546 0.94399 0.49645
 N1007 N 0.66338 0.95605 0.51572
 C1008 C 0.64486 0.97326 0.51011
 C1009 C 0.63768 0.97835 0.48398
 N1010 N 0.64999 0.96627 0.46468
 N1011 N 0.68135 0.93771 0.45109
 C1012 C 0.69993 0.92051 0.45678
 C1013 C 0.70605 0.91438 0.48295
 N1014 N 0.69358 0.92640 0.50213
 H1015 H 0.63542 0.98231 0.52595
 H1016 H 0.70916 0.91107 0.44104
 C1017 C 0.83264 0.94742 0.50069
 C1018 C 0.83386 0.92206 0.51203
 N1019 N 0.85419 0.91609 0.52732
 C1020 C 0.87323 0.93453 0.53236
 C1021 C 0.87183 0.96036 0.52191
 N1022 N 0.85163 0.96610 0.50591
 N1023 N 0.81187 0.95326 0.48576
 C1024 C 0.79208 0.93505 0.48212
 C1025 C 0.79291 0.90996 0.49435
 N1026 N 0.81406 0.90418 0.50873
 H1027 H 0.88909 0.92909 0.54479
 H1028 H 0.77546 0.94062 0.47090
 C1029 C 0.33478 0.44488 0.01102
 C1030 C 0.31155 0.45589 0.00401
 N1031 N 0.31065 0.48263 0.00104
 C1032 C 0.33181 0.49885 0.00531
 C1033 C 0.35479 0.48783 0.01344
 N1034 N 0.35564 0.46103 0.01574
 N1035 N 0.33591 0.41831 0.01431
 C1036 C 0.31465 0.40218 0.01171
 C1037 C 0.29102 0.41311 0.00605
 N1038 N 0.29008 0.43978 0.00180
 H1039 H 0.33041 0.52009 0.00332
 H1040 H 0.31605 0.38104 0.01485
 C1041 C 0.56440 0.46531 0.34286
 C1042 C 0.55849 0.48264 0.32219
 N1043 N 0.53790 0.49759 0.32363
 C1044 C 0.52287 0.49598 0.34478
 C1045 C 0.52859 0.47847 0.36553
 N1046 N 0.54934 0.46356 0.36398
 N1047 N 0.58507 0.45046 0.34145
 C1048 C 0.59992 0.45187 0.32015
 C1049 C 0.59376 0.46881 0.29906
 N1050 N 0.57323 0.48399 0.30085
 H1051 H 0.50653 0.50809 0.34509
 H1052 H 0.61645 0.43999 0.31995
 C1053 C 0.08720 -0.00882 0.84755
 C1054 C 0.07920 0.00506 0.82516
 N1055 N 0.05707 0.01780 0.82542
 C1056 C 0.04236 0.01690 0.84690
 C1057 C 0.04996 0.00229 0.86910
 N1058 N 0.07241 -0.00997 0.86882
 N1059 N 0.10911 -0.02183 0.84735
 C1060 C 0.12315 -0.02216 0.82554
 C1061 C 0.11477 -0.00916 0.80266
 N1062 N 0.09311 0.00455 0.80321
 H1063 H 0.02466 0.02691 0.84630
 H1064 H 0.14049 -0.03283 0.82600
 C1065 C 0.05731 0.02187 0.68159
 C1066 C 0.05769 -0.00512 0.68843
 N1067 N 0.04012 -0.02256 0.67767
 C1068 C 0.02232 -0.01430 0.66011
 C1069 C 0.02241 0.01257 0.65248
 N1070 N 0.03994 0.03005 0.66356
 N1071 N 0.07473 0.03934 0.69262
 C1072 C 0.09275 0.03097 0.70994
 C1073 C 0.09374 0.00381 0.71609
 N1074 N 0.07604 -0.01355 0.70518
 H1075 H 0.00881 -0.02875 0.65158
 H1076 H 0.10677 0.04524 0.71793
 C1077 C 0.55011 0.51370 0.17323
 C1078 C 0.55392 0.48639 0.17438
 N1079 N 0.54177 0.47009 0.15679
 C1080 C 0.52599 0.47985 0.13801
 C1081 C 0.52242 0.50727 0.13648
 N1082 N 0.53465 0.52356 0.15422
 N1083 N 0.56214 0.52993 0.19100
 C1084 C 0.57796 0.52012 0.20978
 C1085 C 0.58226 0.49282 0.21063
 N1086 N 0.57002 0.47666 0.19280
 H1087 H 0.51673 0.46636 0.12415
 H1088 H 0.58776 0.53368 0.22321
 C1089 C 0.46689 -0.02659 0.16220
 C1090 C 0.46468 0.00005 0.16886
 N1091 N 0.48091 0.01897 0.15870
 C1092 C 0.49917 0.01252 0.14196
 C1093 C 0.50094 -0.01403 0.13454
 N1094 N 0.48469 -0.03298 0.14494
 N1095 N 0.45101 -0.04557 0.17290
 C1096 C 0.43289 -0.03907 0.18983
 C1097 C 0.43014 -0.01233 0.19588
 N1098 N 0.44620 0.00660 0.18521
 H1099 H 0.51158 0.02810 0.13389
 H1100 H 0.42030 -0.05452 0.19790
 C1101 C 0.94277 0.47105 0.66932
 C1102 C 0.94126 0.49822 0.67417
 N1103 N 0.95683 0.51610 0.66163
 C1104 C 0.97392 0.50807 0.64438
 C1105 C 0.97521 0.48092 0.63907
 N1106 N 0.95949 0.46301 0.65167
 N1107 N 0.92758 0.45318 0.68245
 C1108 C 0.91088 0.46128 0.70016
 C1109 C 0.90900 0.48851 0.70459
 N1110 N 0.92427 0.50631 0.69140
 H1111 H 0.98599 0.52281 0.63454
 H1112 H 0.89880 0.44668 0.71017
 C1113 C 0.94254 0.50784 0.83279
 C1114 C 0.92232 0.52493 0.83168
 N1115 N 0.91994 0.54270 0.85085
 C1116 C 0.93684 0.54422 0.87124
 C1117 C 0.95730 0.52721 0.87261
 N1118 N 0.95967 0.50939 0.85316
 N1119 N 0.94476 0.49016 0.81335
 C1120 C 0.92772 0.48887 0.79286
 C1121 C 0.90751 0.50620 0.79162
 N1122 N 0.90550 0.52378 0.81124
 H1123 H 0.93435 0.55888 0.88595
 H1124 H 0.93047 0.47495 0.77752
 C1125 C 0.45761 0.00602 0.32473
 C1126 C 0.44402 0.02803 0.31672
 N1127 N 0.44706 0.05102 0.32995
 C1128 C 0.46291 0.05300 0.35114
 C1129 C 0.47644 0.03097 0.35962
 N1130 N 0.47362 0.00793 0.34600
 N1131 N 0.45409 -0.01700 0.31138
 C1132 C 0.43766 -0.01896 0.29040
 C1133 C 0.42401 0.00320 0.28232
 N1134 N 0.42776 0.02608 0.29591
 H1135 H 0.46490 0.07168 0.36123
 H1136 H 0.43527 -0.03768 0.28052
   
