data_POSCAR
  _audit_creation_date              2014-09-24
  _audit_creation_method            'ToBaCCo'
  _symmetry_space_group_name_H-M    'P1'
  _symmetry_Int_Tables_number       1
  _symmetry_cell_setting            triclinic
  loop_
  _symmetry_equiv_pos_as_xyz
 x,y,z
_cell_length_a 35.5417
_cell_length_b 35.5157
_cell_length_c 35.5150
_cell_angle_alpha 90.047600
_cell_angle_beta 90.043800
_cell_angle_gamma 89.983600
loop_
  _atom_site_label
  _atom_site_type_symbol
  _atom_site_fract_x
  _atom_site_fract_y
  _atom_site_fract_z
O1 O 0.22047 1.03456 0.03821
 O2 O 0.21861 0.96657 -0.04039
 O3 O 0.21802 0.96216 0.03315
 O4 O 0.21846 1.04019 -0.03482
 O5 O 0.28044 1.03703 -0.03801
 O6 O 0.28017 0.96134 0.03295
 O7 O 0.28057 0.96414 -0.03965
 O8 O 0.28255 1.03526 0.03539
 Cu9 Cu 0.21264 1.00095 -0.00104
 Cu10 Cu 0.28717 0.99946 -0.00227
 C11 C 0.25198 1.04676 0.04987
 C12 C 0.24934 0.95324 -0.05317
 C13 C 0.24894 0.94869 0.04490
 C14 C 0.24946 1.05167 -0.04829
 O15 O 0.72087 0.53747 0.53737
 O16 O 0.71933 0.46459 0.46364
 O17 O 0.71745 0.46416 0.53789
 O18 O 0.72023 0.53785 0.46520
 O19 O 0.78233 0.53485 0.46475
 O20 O 0.77953 0.46096 0.53760
 O21 O 0.78141 0.46155 0.46524
 O22 O 0.78296 0.53424 0.53883
 Cu23 Cu 0.71318 0.50095 0.50101
 Cu24 Cu 0.78782 0.49789 0.50169
 C25 C 0.75228 0.54834 0.55049
 C26 C 0.75014 0.45068 0.45193
 C27 C 0.74792 0.45000 0.55011
 C28 C 0.75173 0.54901 0.45271
 O29 O 0.78083 0.96353 1.04020
 O30 O 0.78091 1.03414 0.96410
 O31 O 0.78253 1.03692 1.03774
 O32 O 0.78175 0.96089 0.96737
 O33 O 0.71975 0.96422 0.96468
 O34 O 0.72062 1.03523 1.04037
 O35 O 0.71895 1.03749 0.96743
 O36 O 0.71889 0.96195 1.03816
 Cu37 Cu 0.78774 0.99894 1.00235
 Cu38 Cu 0.71333 0.99971 1.00270
 C39 C 0.74976 0.95005 1.05177
 C40 C 0.74987 1.04825 0.95324
 C41 C 0.75179 1.04876 1.05165
 C42 C 0.75065 0.94998 0.95362
 O43 O 0.27907 0.46096 0.53380
 O44 O 0.28265 0.53784 0.46444
 O45 O 0.28163 0.53418 0.53846
 O46 O 0.28143 0.46468 0.46158
 O47 O 0.21938 0.46754 0.45910
 O48 O 0.21958 0.53708 0.53615
 O49 O 0.22054 0.54071 0.46392
 O50 O 0.21698 0.46382 0.53314
 Cu51 Cu 0.28746 0.49944 0.49976
 Cu52 Cu 0.21284 0.50225 0.49795
 C53 C 0.24733 0.44929 0.54524
 C54 C 0.25223 0.55235 0.45239
 C55 C 0.25067 0.54759 0.55029
 C56 C 0.25041 0.45418 0.44732
 O57 O 1.03600 0.27948 0.03586
 O58 O 0.96134 0.28088 -0.03576
 O59 O 0.96371 0.27852 0.03782
 O60 O 1.03504 0.28042 -0.03729
 O61 O 1.03319 0.21835 -0.04084
 O62 O 0.96401 0.21632 0.03617
 O63 O 0.96051 0.21884 -0.03657
 O64 O 1.03787 0.21739 0.03255
 Cu65 Cu 0.99895 0.28608 0.00013
 Cu66 Cu 0.99900 0.21146 -0.00222
 C67 C 1.04975 0.24823 0.04632
 C68 C 0.94779 0.25018 -0.04827
 C69 C 0.95191 0.24703 0.04993
 C70 C 1.04609 0.24972 -0.05200
 O71 O 0.53529 0.78056 0.54013
 O72 O 0.46483 0.78426 0.46434
 O73 O 0.46302 0.78085 0.53758
 O74 O 0.53890 0.78196 0.46677
 O75 O 0.53672 0.71988 0.46339
 O76 O 0.46123 0.71876 0.53426
 O77 O 0.46456 0.72213 0.46105
 O78 O 0.53533 0.71843 0.53676
 Cu79 Cu 0.50063 0.78818 0.50222
 Cu80 Cu 0.49935 0.71353 0.49887
 C81 C 0.54725 0.74886 0.55139
 C82 C 0.45272 0.75392 0.44979
 C83 C 0.44930 0.74955 0.54803
 C84 C 0.55053 0.75107 0.45287
 O85 O 0.03846 0.78128 -0.03551
 O86 O -0.03639 0.78115 0.03619
 O87 O 0.03606 0.78083 0.03772
 O88 O -0.03522 0.78257 -0.03770
 O89 O -0.03652 0.72055 -0.03808
 O90 O 0.03676 0.71868 0.03524
 O91 O -0.03711 0.71897 0.03497
 O92 O 0.03641 0.71932 -0.03792
 Cu93 Cu 0.00069 0.78770 0.00010
 Cu94 Cu -0.00020 0.71316 -0.00146
 C95 C 0.05031 0.75032 -0.04910
 C96 C -0.04923 0.74997 0.04803
 C97 C 0.04872 0.74942 0.04912
 C98 C -0.04830 0.75188 -0.05075
 O99 O 0.53651 0.28077 0.46422
 O100 O 0.46419 0.27873 0.53828
 O101 O 0.53634 0.27920 0.53739
 O102 O 0.46238 0.28145 0.46498
 O103 O 0.46326 0.21932 0.46169
 O104 O 0.53740 0.21705 0.53425
 O105 O 0.46328 0.21660 0.53514
 O106 O 0.53549 0.21863 0.46110
 Cu107 Cu 0.49981 0.28633 0.50117
 Cu108 Cu 0.49978 0.21160 0.49806
 C109 C 0.54830 0.25006 0.45010
 C110 C 0.45154 0.24724 0.54941
 C111 C 0.54940 0.24777 0.54819
 C112 C 0.45033 0.25084 0.45092
 O113 O 1.03478 0.03864 0.22050
 O114 O 0.96508 -0.03827 0.22034
 O115 O 0.96190 0.03451 0.21994
 O116 O 1.03870 -0.03475 0.21861
 O117 O 1.03594 -0.03906 0.28060
 O118 O 0.96590 0.03745 0.28196
 O119 O 0.96296 -0.03592 0.28231
 O120 O 1.03909 0.03422 0.28238
 Cu121 Cu 1.00017 -0.00003 0.21357
 Cu122 Cu 1.00105 -0.00089 0.28808
 C123 C 1.04924 0.04909 0.25153
 C124 C 0.95129 -0.04966 0.25137
 C125 C 0.95139 0.04840 0.25113
 C126 C 1.04982 -0.04932 0.24928
 O127 O 0.53886 0.53382 0.72243
 O128 O 0.45934 0.46718 0.72105
 O129 O 0.46583 0.54031 0.72080
 O130 O 0.53238 0.46076 0.72088
 O131 O 0.53614 0.46431 0.78287
 O132 O 0.46111 0.53601 0.78265
 O133 O 0.46284 0.46268 0.78298
 O134 O 0.53426 0.53750 0.78435
 Cu135 Cu 0.49915 0.50056 0.71500
 Cu136 Cu 0.49850 0.50006 0.78949
 C137 C 0.54943 0.54772 0.75368
 C138 C 0.44824 0.45283 0.75186
 C139 C 0.45137 0.55105 0.75168
 C140 C 0.54640 0.44971 0.75186
 O141 O 0.96445 1.03969 0.78056
 O142 O 1.03192 0.96075 0.77919
 O143 O 1.03785 1.03396 0.78091
 O144 O 0.95899 0.96677 0.78072
 O145 O 0.96198 0.96379 0.71867
 O146 O 1.03399 1.03823 0.71899
 O147 O 1.03514 0.96509 0.71724
 O148 O 0.96088 1.03718 0.71866
 Cu149 Cu 0.99841 1.00029 0.78662
 Cu150 Cu 0.99792 1.00115 0.71213
 C151 C 0.95034 1.05139 0.74977
 C152 C 1.04559 0.95003 0.74791
 C153 C 1.04879 1.04817 0.75001
 C154 C 0.94769 0.95315 0.74966
 O155 O 0.46316 0.53465 0.27833
 O156 O 0.53942 0.46458 0.27795
 O157 O 0.53631 0.53769 0.28015
 O158 O 0.46644 0.46137 0.27897
 O159 O 0.46244 0.46605 0.21708
 O160 O 0.54104 0.53409 0.21823
 O161 O 0.53537 0.46102 0.21596
 O162 O 0.46783 0.53940 0.21650
 Cu163 Cu 0.50127 0.49955 0.28515
 Cu164 Cu 0.50165 0.50026 0.21064
 C165 C 0.45322 0.54967 0.24743
 C166 C 0.54965 0.45016 0.24685
 C167 C 0.55138 0.54814 0.24951
 C168 C 0.45190 0.45127 0.24792
 O169 O 0.24873 0.15088 0.20013
 O170 O 0.29067 0.14173 0.25255
 O171 O 0.15199 0.19962 0.24790
 O172 O 0.13857 0.24859 0.28557
 O173 O 0.20001 0.24544 0.14959
 O174 O 0.25136 0.28802 0.13835
 O175 O 0.25215 0.30618 0.34382
 O176 O 0.20697 0.25861 0.35564
 O177 O 0.34695 0.25034 0.30158
 O178 O 0.36005 0.20981 0.24952
 O179 O 0.30250 0.34778 0.24549
 O180 O 0.25045 0.35910 0.20402
 O181 O 0.25036 0.34985 0.29702
 O182 O 0.20823 0.35843 0.24108
 O183 O 0.34731 0.30249 0.25177
 O184 O 0.35836 0.24723 0.20727
 O185 O 0.30151 0.25624 0.34621
 O186 O 0.24896 0.21280 0.35853
 O187 O 0.25473 0.19440 0.15346
 O188 O 0.29410 0.24766 0.14090
 O189 O 0.15427 0.25151 0.19403
 O190 O 0.14456 0.29573 0.24586
 O191 O 0.19678 0.15415 0.25386
 O192 O 0.24955 0.14427 0.29471
 Zr193 Zr 0.24818 0.18332 0.24984
 O194 O 0.28347 0.21653 0.28393
 Zr195 Zr 0.18294 0.25007 0.24591
 O196 O 0.21493 0.28596 0.28079
 Zr197 Zr 0.25025 0.24661 0.18107
 O198 O 0.28482 0.28308 0.21253
 Zr199 Zr 0.25077 0.25429 0.31559
 O200 O 0.21486 0.21807 0.28450
 Zr201 Zr 0.31736 0.25133 0.25034
 O202 O 0.28567 0.21433 0.21593
 Zr203 Zr 0.25149 0.31786 0.24698
 O204 O 0.21665 0.28468 0.21169
 O205 O 0.21431 0.21339 0.21294
 O206 O 0.28640 0.28830 0.28382
 C207 C 0.25265 0.16033 0.16541
 C208 C 0.16239 0.16515 0.25176
 C209 C 0.16547 0.24884 0.15973
 C210 C 0.25131 0.34028 0.33189
 C211 C 0.33604 0.25333 0.33590
 C212 C 0.33684 0.33697 0.24855
 H213 H 0.29878 0.19976 0.29998
 H214 H 0.30065 0.29792 0.19516
 H215 H 0.19839 0.19672 0.19728
 H216 H 0.19794 0.30198 0.29593
 H217 H 0.18752 0.24005 0.34826
 H218 H 0.14632 0.26421 0.30730
 H219 H 0.35653 0.27001 0.19136
 H220 H 0.31445 0.23153 0.15100
 H221 H 0.26977 0.19481 0.35432
 H222 H 0.23264 0.15432 0.31444
 H223 H 0.26707 0.35023 0.18353
 H224 H 0.23298 0.30762 0.14577
 H225 H 0.31017 0.14907 0.23406
 H226 H 0.35169 0.18899 0.26597
 H227 H 0.15238 0.31298 0.22543
 H228 H 0.19073 0.35545 0.26252
 O229 O 0.74994 0.84733 0.19889
 O230 O 0.70864 0.85781 0.25113
 O231 O 0.84878 0.80327 0.25188
 O232 O 0.86335 0.75508 0.28943
 O233 O 0.80291 0.74808 0.15336
 O234 O 0.75034 0.70780 0.14294
 O235 O 0.74958 0.69868 0.34916
 O236 O 0.79503 0.74727 0.35891
 O237 O 0.65512 0.74712 0.30443
 O238 O 0.64186 0.78917 0.25090
 O239 O 0.70154 0.65172 0.25223
 O240 O 0.75554 0.64065 0.21091
 O241 O 0.75356 0.65319 0.30419
 O242 O 0.79538 0.64205 0.25014
 O243 O 0.65565 0.69628 0.25453
 O244 O 0.64313 0.74968 0.21044
 O245 O 0.70043 0.75111 0.34948
 O246 O 0.75267 0.79241 0.36034
 O247 O 0.74995 0.80176 0.15365
 O248 O 0.70834 0.74904 0.14392
 O249 O 0.84863 0.75212 0.19813
 O250 O 0.85817 0.70702 0.25007
 O251 O 0.80295 0.84815 0.25121
 O252 O 0.75055 0.85841 0.29306
 Zr253 Zr 0.75228 0.81737 0.24993
 O254 O 0.71765 0.78491 0.28532
 Zr255 Zr 0.81916 0.75213 0.24957
 O256 O 0.78766 0.71704 0.28558
 Zr257 Zr 0.75230 0.75087 0.18402
 O258 O 0.71818 0.71525 0.21679
 Zr259 Zr 0.75105 0.74948 0.31882
 O260 O 0.78622 0.78514 0.28642
 Zr261 Zr 0.68473 0.74783 0.25311
 O262 O 0.71587 0.78384 0.21719
 Zr263 Zr 0.75200 0.68283 0.25292
 O264 O 0.78650 0.71515 0.21665
 O265 O 0.78715 0.78641 0.21472
 O266 O 0.71631 0.71317 0.28839
 C267 C 0.74917 0.83629 0.16445
 C268 C 0.83753 0.83762 0.25209
 C269 C 0.83752 0.74953 0.16378
 C270 C 0.75172 0.66413 0.33861
 C271 C 0.66593 0.74932 0.33890
 C272 C 0.66688 0.66193 0.25332
 H273 H 0.70193 0.80201 0.30063
 H274 H 0.70285 0.69935 0.19987
 H275 H 0.80290 0.80266 0.19849
 H276 H 0.80483 0.70203 0.30152
 H277 H 0.81440 0.76548 0.35056
 H278 H 0.85615 0.73929 0.31118
 H279 H 0.64793 0.72863 0.19283
 H280 H 0.68866 0.76659 0.15292
 H281 H 0.73452 0.81220 0.35302
 H282 H 0.76930 0.85069 0.31220
 H283 H 0.73592 0.64595 0.19186
 H284 H 0.76758 0.68773 0.15168
 H285 H 0.68856 0.84822 0.23434
 H286 H 0.64762 0.80847 0.27015
 H287 H 0.85097 0.68972 0.22941
 H288 H 0.81419 0.64829 0.26971
 O289 O 0.75111 0.15142 0.80341
 O290 O 0.70935 0.13985 0.75152
 O291 O 0.84742 0.19964 0.75284
 O292 O 0.86061 0.24826 0.71516
 O293 O 0.79822 0.24977 0.85052
 O294 O 0.74542 0.29075 0.86012
 O295 O 0.74885 0.30066 0.65380
 O296 O 0.79297 0.25223 0.64448
 O297 O 0.65237 0.24922 0.69740
 O298 O 0.63947 0.20676 0.74977
 O299 O 0.69485 0.34571 0.75206
 O300 O 0.74797 0.35905 0.79175
 O301 O 0.74341 0.34588 0.69890
 O302 O 0.78871 0.35791 0.75275
 O303 O 0.65048 0.29986 0.74749
 O304 O 0.63972 0.24516 0.79147
 O305 O 0.69833 0.24826 0.65286
 O306 O 0.75143 0.20703 0.64259
 O307 O 0.74543 0.19655 0.84864
 O308 O 0.70386 0.24894 0.85868
 O309 O 0.84444 0.25210 0.80615
 O310 O 0.85297 0.29629 0.75374
 O311 O 0.80319 0.15324 0.75057
 O312 O 0.75077 0.14123 0.70917
 Zr313 Zr 0.75139 0.18194 0.75264
 O314 O 0.71596 0.21336 0.71705
 Zr315 Zr 0.81579 0.24969 0.75432
 O316 O 0.78346 0.28368 0.71796
 Zr317 Zr 0.74810 0.24780 0.81894
 O318 O 0.71319 0.28255 0.78597
 Zr319 Zr 0.74864 0.24993 0.68412
 O320 O 0.78465 0.21554 0.71690
 Zr321 Zr 0.68132 0.24914 0.74902
 O322 O 0.71328 0.21386 0.78505
 Zr323 Zr 0.74609 0.31630 0.75026
 O324 O 0.78125 0.28509 0.78700
 O325 O 0.78470 0.21392 0.78846
 O326 O 0.71212 0.28483 0.71418
 C327 C 0.74782 0.16206 0.83785
 C328 C 0.83738 0.16494 0.75106
 C329 C 0.83284 0.25174 0.84038
 C330 C 0.74590 0.33511 0.66444
 C331 C 0.66366 0.24847 0.66307
 C332 C 0.66059 0.33451 0.74991
 H333 H 0.70095 0.19590 0.70145
 H334 H 0.69718 0.29778 0.80288
 H335 H 0.80088 0.19809 0.80471
 H336 H 0.80025 0.29939 0.70233
 H337 H 0.81269 0.23465 0.65340
 H338 H 0.85277 0.26312 0.69296
 H339 H 0.64259 0.26710 0.80840
 H340 H 0.68435 0.23141 0.84928
 H341 H 0.73250 0.18759 0.64873
 H342 H 0.76885 0.14994 0.68985
 H343 H 0.73092 0.35138 0.81236
 H344 H 0.76345 0.31047 0.85225
 H345 H 0.68908 0.14852 0.76856
 H346 H 0.64735 0.18672 0.73211
 H347 H 0.84428 0.31397 0.77346
 H348 H 0.80485 0.35510 0.73025
 O349 O 0.24547 0.85024 0.79811
 O350 O 0.28682 0.86032 0.74564
 O351 O 0.14931 0.79971 0.75051
 O352 O 0.13683 0.75028 0.71271
 O353 O 0.19878 0.75356 0.84856
 O354 O 0.25171 0.71300 0.85954
 O355 O 0.24713 0.69568 0.65387
 O356 O 0.20482 0.74421 0.64212
 O357 O 0.34481 0.75278 0.69591
 O358 O 0.35728 0.79403 0.74813
 O359 O 0.30308 0.65484 0.75318
 O360 O 0.24994 0.64259 0.79387
 O361 O 0.25416 0.65213 0.70029
 O362 O 0.20962 0.64133 0.75447
 O363 O 0.34693 0.70086 0.74597
 O364 O 0.35720 0.75625 0.78994
 O365 O 0.29926 0.74447 0.65167
 O366 O 0.24656 0.78922 0.63982
 O367 O 0.25084 0.80667 0.84491
 O368 O 0.29319 0.75511 0.85666
 O369 O 0.15269 0.74803 0.80427
 O370 O 0.14398 0.70331 0.75281
 O371 O 0.19322 0.84601 0.74451
 O372 O 0.24559 0.85708 0.70359
 Zr373 Zr 0.24519 0.81790 0.74836
 O374 O 0.28090 0.78552 0.71396
 Zr375 Zr 0.18125 0.74983 0.75239
 O376 O 0.21383 0.71474 0.71732
 Zr377 Zr 0.24886 0.75446 0.81694
 O378 O 0.28412 0.71888 0.78524
 Zr379 Zr 0.24859 0.74733 0.68238
 O380 O 0.21224 0.78267 0.71382
 Zr381 Zr 0.31574 0.75137 0.74735
 O382 O 0.28344 0.78756 0.78206
 Zr383 Zr 0.25150 0.68356 0.75068
 O384 O 0.21602 0.71579 0.78623
 O385 O 0.21209 0.78702 0.78527
 O386 O 0.28535 0.71401 0.71376
 C387 C 0.24865 0.84069 0.83286
 C388 C 0.15906 0.83436 0.74666
 C389 C 0.16423 0.75019 0.83848
 C390 C 0.25075 0.66169 0.66554
 C391 C 0.33376 0.74852 0.66176
 C392 C 0.33717 0.66623 0.74979
 H393 H 0.29579 0.80256 0.69783
 H394 H 0.30029 0.70434 0.80260
 H395 H 0.19581 0.80326 0.80102
 H396 H 0.19705 0.69840 0.70229
 H397 H 0.18495 0.76191 0.65045
 H398 H 0.14488 0.73478 0.69101
 H399 H 0.35514 0.73405 0.80661
 H400 H 0.31260 0.77233 0.84656
 H401 H 0.26860 0.80596 0.64272
 H402 H 0.22935 0.84639 0.68361
 H403 H 0.26747 0.65087 0.81387
 H404 H 0.23385 0.69289 0.85226
 H405 H 0.30666 0.85319 0.76388
 H406 H 0.34873 0.81429 0.73105
 H407 H 0.15323 0.68569 0.77231
 H408 H 0.19286 0.64375 0.73235
 O409 O 0.24383 0.34534 0.69249
 O410 O 0.20437 0.35794 0.74494
 O411 O 0.34386 0.30509 0.75376
 O412 O 0.35974 0.25637 0.78880
 O413 O 0.30306 0.24476 0.65249
 O414 O 0.25089 0.20474 0.64129
 O415 O 0.24389 0.20189 0.84756
 O416 O 0.28842 0.25217 0.85691
 O417 O 0.15021 0.24620 0.79814
 O418 O 0.13912 0.28938 0.74292
 O419 O 0.19874 0.15218 0.75443
 O420 O 0.25287 0.13993 0.71134
 O421 O 0.25091 0.15538 0.80406
 O422 O 0.29277 0.14279 0.75092
 O423 O 0.15274 0.19596 0.74643
 O424 O 0.14028 0.24821 0.70452
 O425 O 0.19392 0.25359 0.84437
 O426 O 0.24413 0.29552 0.85640
 O427 O 0.25100 0.29892 0.64883
 O428 O 0.20907 0.24609 0.63925
 O429 O 0.34698 0.25279 0.69844
 O430 O 0.35507 0.20866 0.75208
 O431 O 0.29829 0.34913 0.74435
 O432 O 0.24590 0.36013 0.78624
 Zr433 Zr 0.24809 0.31758 0.74461
 O434 O 0.21277 0.28586 0.77997
 Zr435 Zr 0.31570 0.25331 0.74882
 O436 O 0.28350 0.21888 0.78477
 Zr437 Zr 0.25142 0.24911 0.68099
 O438 O 0.21642 0.21424 0.71364
 Zr439 Zr 0.24545 0.25186 0.81567
 O440 O 0.28110 0.28703 0.78336
 Zr441 Zr 0.18138 0.24758 0.74766
 O442 O 0.21332 0.28264 0.71163
 Zr443 Zr 0.24915 0.18336 0.75207
 O444 O 0.28469 0.21485 0.71602
 O445 O 0.28475 0.28614 0.71164
 O446 O 0.21201 0.21443 0.78521
 C447 C 0.24648 0.33355 0.65838
 C448 C 0.33266 0.33927 0.74984
 C449 C 0.33720 0.24782 0.66394
 C450 C 0.24758 0.16715 0.83806
 C451 C 0.15990 0.25004 0.83281
 C452 C 0.16414 0.16193 0.75048
 H453 H 0.19632 0.30315 0.79425
 H454 H 0.20180 0.19769 0.69670
 H455 H 0.30080 0.30214 0.69545
 H456 H 0.30045 0.20463 0.80164
 H457 H 0.30715 0.27117 0.84885
 H458 H 0.35062 0.24425 0.81212
 H459 H 0.14839 0.23014 0.68493
 H460 H 0.18969 0.26489 0.64618
 H461 H 0.22839 0.31613 0.84633
 H462 H 0.26468 0.35328 0.80568
 H463 H 0.23159 0.14285 0.69361
 H464 H 0.26618 0.18421 0.65229
 H465 H 0.18366 0.34717 0.72971
 H466 H 0.14127 0.30643 0.76485
 H467 H 0.34944 0.19119 0.73107
 H468 H 0.31165 0.15021 0.77000
 O469 O 0.75384 0.65257 0.69887
 O470 O 0.79364 0.64183 0.75140
 O471 O 0.65390 0.69514 0.75700
 O472 O 0.63849 0.74399 0.79223
 O473 O 0.69522 0.74810 0.65504
 O474 O 0.74519 0.79206 0.64370
 O475 O 0.75433 0.80089 0.84938
 O476 O 0.71037 0.75125 0.86057
 O477 O 0.84824 0.75441 0.80097
 O478 O 0.85945 0.71104 0.74688
 O479 O 0.79889 0.84814 0.75435
 O480 O 0.74552 0.85970 0.71226
 O481 O 0.74757 0.84622 0.80469
 O482 O 0.70426 0.85626 0.75050
 O483 O 0.84515 0.80426 0.74851
 O484 O 0.85729 0.75058 0.70709
 O485 O 0.80450 0.75080 0.84762
 O486 O 0.75410 0.70712 0.86025
 O487 O 0.74846 0.69780 0.65381
 O488 O 0.78897 0.75144 0.64257
 O489 O 0.65109 0.74792 0.70147
 O490 O 0.64301 0.79156 0.75519
 O491 O 0.69982 0.65081 0.75077
 O492 O 0.75234 0.64157 0.79335
 Zr493 Zr 0.75004 0.68229 0.75001
 O494 O 0.78555 0.71517 0.78420
 Zr495 Zr 0.68231 0.74681 0.75206
 O496 O 0.71459 0.78217 0.78717
 Zr497 Zr 0.74663 0.74856 0.68426
 O498 O 0.78145 0.78464 0.71583
 Zr499 Zr 0.75284 0.75017 0.81890
 O500 O 0.71699 0.71418 0.78763
 Zr501 Zr 0.81675 0.75247 0.75069
 O502 O 0.78478 0.71609 0.71591
 Zr503 Zr 0.74872 0.81668 0.75337
 O504 O 0.71331 0.78405 0.71807
 O505 O 0.71336 0.71270 0.71614
 O506 O 0.78607 0.78668 0.78725
 C507 C 0.75206 0.66341 0.66440
 C508 C 0.66528 0.66085 0.75474
 C509 C 0.66102 0.74827 0.66665
 C510 C 0.75100 0.83536 0.83899
 C511 C 0.83851 0.75289 0.83575
 C512 C 0.83354 0.83838 0.75120
 H513 H 0.80212 0.69840 0.79894
 H514 H 0.79599 0.80071 0.69842
 H515 H 0.69740 0.69613 0.70040
 H516 H 0.69770 0.79689 0.80370
 H517 H 0.69138 0.73222 0.85314
 H518 H 0.64763 0.75662 0.81530
 H519 H 0.85003 0.76945 0.68795
 H520 H 0.80873 0.73325 0.65003
 H521 H 0.77238 0.68778 0.85215
 H522 H 0.73374 0.64934 0.81259
 H523 H 0.76400 0.85382 0.69231
 H524 H 0.72786 0.81152 0.65359
 H525 H 0.81424 0.65198 0.73566
 H526 H 0.85639 0.69347 0.76826
 H527 H 0.64861 0.80889 0.73410
 H528 H 0.68693 0.85109 0.77166
 O529 O 0.25374 0.65512 0.30428
 O530 O 0.21058 0.64232 0.25367
 O531 O 0.34927 0.69890 0.24473
 O532 O 0.36335 0.74785 0.20881
 O533 O 0.30539 0.75659 0.34505
 O534 O 0.25273 0.79663 0.35529
 O535 O 0.24993 0.79814 0.14861
 O536 O 0.29286 0.74784 0.14018
 O537 O 0.15388 0.75168 0.19781
 O538 O 0.14322 0.70856 0.25234
 O539 O 0.19913 0.84730 0.24347
 O540 O 0.25333 0.86135 0.28469
 O541 O 0.24768 0.84508 0.19220
 O542 O 0.29301 0.85899 0.24431
 O543 O 0.15430 0.80206 0.24926
 O544 O 0.14374 0.74880 0.29171
 O545 O 0.19816 0.74684 0.15181
 O546 O 0.24935 0.70452 0.14066
 O547 O 0.25260 0.70210 0.34797
 O548 O 0.21145 0.75506 0.35730
 O549 O 0.34995 0.75158 0.29929
 O550 O 0.35685 0.79584 0.24561
 O551 O 0.30462 0.65350 0.25168
 O552 O 0.25188 0.64081 0.21073
 Zr553 Zr 0.25360 0.68339 0.25234
 O554 O 0.21755 0.71388 0.21659
 Zr555 Zr 0.31914 0.74977 0.24862
 O556 O 0.28610 0.78299 0.21222
 Zr557 Zr 0.25404 0.75203 0.31586
 O558 O 0.21830 0.78575 0.28276
 Zr559 Zr 0.24958 0.74858 0.18103
 O560 O 0.28603 0.71476 0.21389
 Zr561 Zr 0.18465 0.75125 0.24850
 O562 O 0.21739 0.71723 0.28491
 Zr563 Zr 0.25028 0.81746 0.24443
 O564 O 0.28647 0.78721 0.28099
 O565 O 0.28885 0.71615 0.28554
 O566 O 0.21460 0.78504 0.21103
 C567 C 0.25291 0.66717 0.33838
 C568 C 0.33885 0.66435 0.24761
 C569 C 0.33973 0.75518 0.33381
 C570 C 0.24847 0.83301 0.15813
 C571 C 0.16393 0.74904 0.16317
 C572 C 0.16478 0.83652 0.24642
 H573 H 0.20172 0.69613 0.20218
 H574 H 0.20309 0.80188 0.29957
 H575 H 0.30536 0.70068 0.30181
 H576 H 0.30265 0.79776 0.19546
 H577 H 0.31211 0.72974 0.14910
 H578 H 0.35405 0.75993 0.18552
 H579 H 0.14985 0.76866 0.31028
 H580 H 0.19197 0.73649 0.35004
 H581 H 0.23212 0.68460 0.14957
 H582 H 0.26980 0.64843 0.19082
 H583 H 0.23369 0.85671 0.30384
 H584 H 0.26871 0.81690 0.34482
 H585 H 0.19070 0.65231 0.27043
 H586 H 0.14752 0.69038 0.23168
 H587 H 0.34980 0.81356 0.26594
 H588 H 0.31020 0.85348 0.22312
 O589 O 0.74886 0.34751 0.30208
 O590 O 0.79189 0.35808 0.25077
 O591 O 0.65320 0.30093 0.24600
 O592 O 0.63920 0.25124 0.21104
 O593 O 0.69781 0.25143 0.34781
 O594 O 0.74861 0.20825 0.35908
 O595 O 0.75365 0.19707 0.15326
 O596 O 0.71042 0.24625 0.14190
 O597 O 0.84902 0.24927 0.20035
 O598 O 0.86112 0.28978 0.25258
 O599 O 0.80288 0.15238 0.24886
 O600 O 0.75013 0.14010 0.29174
 O601 O 0.75215 0.15206 0.19882
 O602 O 0.70881 0.14137 0.25304
 O603 O 0.84802 0.19765 0.25227
 O604 O 0.85742 0.25350 0.29534
 O605 O 0.80458 0.24527 0.15438
 O606 O 0.75341 0.29100 0.14189
 O607 O 0.75188 0.30249 0.34758
 O608 O 0.79142 0.24884 0.35952
 O609 O 0.65313 0.24865 0.30189
 O610 O 0.64545 0.20430 0.24882
 O611 O 0.69813 0.34654 0.24921
 O612 O 0.75078 0.35692 0.20754
 Zr613 Zr 0.74911 0.31674 0.25138
 O614 O 0.78516 0.28450 0.21721
 Zr615 Zr 0.68344 0.25020 0.25090
 O616 O 0.71630 0.21533 0.21594
 Zr617 Zr 0.74886 0.25126 0.31796
 O618 O 0.78432 0.21577 0.28643
 Zr619 Zr 0.75314 0.24799 0.18336
 O620 O 0.71662 0.28336 0.21455
 Zr621 Zr 0.81803 0.24871 0.25083
 O622 O 0.78545 0.28462 0.28548
 Zr623 Zr 0.75194 0.18234 0.24976
 O624 O 0.71608 0.21442 0.28502
 O625 O 0.71394 0.28559 0.28604
 O626 O 0.78791 0.21304 0.21515
 C627 C 0.75084 0.33695 0.33663
 C628 C 0.66379 0.33554 0.24672
 C629 C 0.66349 0.24962 0.33657
 C630 C 0.75305 0.16269 0.16431
 C631 C 0.83884 0.24690 0.16572
 C632 C 0.83730 0.16317 0.25066
 H633 H 0.80106 0.30154 0.20208
 H634 H 0.79961 0.20037 0.30382
 H635 H 0.69757 0.30190 0.30161
 H636 H 0.69962 0.19990 0.19984
 H637 H 0.69104 0.26477 0.14955
 H638 H 0.64859 0.23873 0.18801
 H639 H 0.85405 0.23159 0.31217
 H640 H 0.81140 0.26649 0.35149
 H641 H 0.77480 0.30807 0.14693
 H642 H 0.73384 0.34749 0.18751
 H643 H 0.76882 0.14670 0.31130
 H644 H 0.73137 0.18846 0.34971
 H645 H 0.81106 0.34994 0.26930
 H646 H 0.85313 0.31099 0.23642
 H647 H 0.65217 0.18717 0.26975
 H648 H 0.69140 0.14560 0.23171
 C649 C 0.27945 0.10425 0.07922
 C650 C 0.25306 0.07489 0.08028
 C651 C 0.22730 0.07310 0.11017
 C652 C 0.22803 0.10025 0.13871
 C653 C 0.25372 0.13020 0.13702
 C654 C 0.27935 0.13208 0.10705
 H655 H 0.29944 0.10623 0.05629
 H656 H 0.20680 0.05058 0.11154
 H657 H 0.20784 0.09852 0.16147
 H658 H 0.29936 0.15502 0.10528
 C659 C 0.72891 0.60908 0.57615
 C660 C 0.75295 0.57793 0.57937
 C661 C 0.77724 0.57521 0.61041
 C662 C 0.77679 0.60291 0.63841
 C663 C 0.75301 0.63429 0.63497
 C664 C 0.72941 0.63737 0.60343
 H665 H 0.71011 0.61172 0.55227
 H666 H 0.79589 0.55126 0.61337
 H667 H 0.79527 0.60009 0.66252
 H668 H 0.71079 0.66128 0.60032
 C669 C 0.71540 0.90573 0.09183
 C670 C 0.74954 0.92191 0.07960
 C671 C 0.78345 0.90916 0.09584
 C672 C 0.78315 0.88125 0.12355
 C673 C 0.74911 0.86536 0.13531
 C674 C 0.71527 0.87760 0.11936
 H675 H 0.68870 0.91463 0.08010
 H676 H 0.81030 0.92080 0.08734
 H677 H 0.80950 0.87197 0.13580
 H678 H 0.68878 0.86550 0.12834
 C679 C 0.27171 0.38886 0.57133
 C680 C 0.24587 0.41872 0.57312
 C681 C 0.21939 0.41973 0.60239
 C682 C 0.21955 0.39189 0.63019
 C683 C 0.24533 0.36200 0.62835
 C684 C 0.27103 0.36034 0.59842
 H685 H 0.29229 0.38755 0.54888
 H686 H 0.19937 0.44264 0.60435
 H687 H 0.19950 0.39361 0.65308
 H688 H 0.29132 0.33763 0.59669
 C689 C 0.72356 0.10717 0.92556
 C690 C 0.74956 0.07744 0.92381
 C691 C 0.77487 0.07562 0.89354
 C692 C 0.77371 0.10279 0.86507
 C693 C 0.74805 0.13279 0.86714
 C694 C 0.72324 0.13500 0.89776
 H695 H 0.70389 0.10915 0.94876
 H696 H 0.79504 0.05283 0.89159
 H697 H 0.79332 0.10080 0.84181
 H698 H 0.70328 0.15796 0.89984
 C699 C 0.22815 0.61297 0.42635
 C700 C 0.25354 0.58272 0.42431
 C701 C 0.27930 0.58100 0.39447
 C702 C 0.27886 0.60851 0.36640
 C703 C 0.25354 0.63878 0.36845
 C704 C 0.22861 0.64121 0.39893
 H705 H 0.20812 0.61480 0.44926
 H706 H 0.29896 0.55779 0.39231
 H707 H 0.29844 0.60633 0.34318
 H708 H 0.20884 0.66435 0.40091
 C709 C 0.21505 0.91491 0.90073
 C710 C 0.24902 0.92620 0.91790
 C711 C 0.28289 0.90938 0.90575
 C712 C 0.28270 0.88166 0.87786
 C713 C 0.24885 0.87070 0.86108
 C714 C 0.21506 0.88755 0.87237
 H715 H 0.18842 0.92714 0.90915
 H716 H 0.30965 0.91713 0.91816
 H717 H 0.30896 0.86867 0.86941
 H718 H 0.18867 0.87906 0.85965
 C719 C 0.72558 0.42440 0.39161
 C720 C 0.74987 0.42148 0.42261
 C721 C 0.77462 0.39078 0.42510
 C722 C 0.77466 0.36300 0.39725
 C723 C 0.75090 0.36626 0.36586
 C724 C 0.72655 0.39727 0.36308
 H725 H 0.70645 0.44801 0.38912
 H726 H 0.79351 0.38804 0.44890
 H727 H 0.79362 0.33926 0.39989
 H728 H 0.70784 0.40009 0.33921
 C729 C 0.07804 0.27387 0.10503
 C730 C 0.07952 0.24806 0.07512
 C731 C 0.10968 0.22263 0.07291
 C732 C 0.13831 0.22346 0.10000
 C733 C 0.13641 0.24889 0.13024
 C734 C 0.10594 0.27386 0.13271
 H735 H 0.05491 0.29362 0.10731
 H736 H 0.11139 0.20261 0.04995
 H737 H 0.16149 0.20376 0.09780
 H738 H 0.10399 0.29367 0.15584
 C739 C 0.57269 0.77216 0.61256
 C740 C 0.57548 0.74762 0.58165
 C741 C 0.60606 0.72278 0.57931
 C742 C 0.63407 0.72328 0.60693
 C743 C 0.63122 0.74768 0.63791
 C744 C 0.60005 0.77171 0.64088
 H745 H 0.54919 0.79147 0.61487
 H746 H 0.60879 0.70378 0.55558
 H747 H 0.65783 0.70441 0.60431
 H748 H 0.59742 0.79077 0.66456
 C749 C 0.09683 0.78401 0.91285
 C750 C 0.07880 0.75027 0.92346
 C751 C 0.08993 0.71641 0.90588
 C752 C 0.11780 0.71643 0.87815
 C753 C 0.13562 0.75005 0.86807
 C754 C 0.12522 0.78378 0.88562
 H755 H 0.08923 0.81062 0.92567
 H756 H 0.07680 0.68987 0.91310
 H757 H 0.12557 0.69021 0.86461
 H758 H 0.13873 0.80999 0.87784
 C759 C 0.57512 0.22560 0.39015
 C760 C 0.57730 0.25068 0.42065
 C761 C 0.60783 0.27557 0.42324
 C762 C 0.63629 0.27477 0.39611
 C763 C 0.63390 0.24993 0.36542
 C764 C 0.60291 0.22569 0.36236
 H765 H 0.55168 0.20626 0.38765
 H766 H 0.61007 0.29497 0.44668
 H767 H 0.65990 0.29389 0.39875
 H768 H 0.60062 0.20635 0.33886
 C769 C 0.92345 0.77576 0.10729
 C770 C 0.92169 0.74982 0.07751
 C771 C 0.89210 0.72366 0.07627
 C772 C 0.86428 0.72389 0.10410
 C773 C 0.86647 0.74939 0.13423
 C774 C 0.89637 0.77514 0.13579
 H775 H 0.94615 0.79606 0.10883
 H776 H 0.89020 0.70351 0.05343
 H777 H 0.84140 0.70381 0.10248
 H778 H 0.89836 0.79520 0.15871
 C779 C 0.42478 0.27219 0.60922
 C780 C 0.42291 0.24644 0.57927
 C781 C 0.39316 0.22053 0.57774
 C782 C 0.36506 0.22107 0.60528
 C783 C 0.36709 0.24666 0.63536
 C784 C 0.39738 0.27190 0.63740
 H785 H 0.44762 0.29232 0.61095
 H786 H 0.39115 0.20057 0.55475
 H787 H 0.34190 0.20134 0.60327
 H788 H 0.39930 0.29203 0.66026
 C789 C 0.90505 0.28517 0.91043
 C790 C 0.91880 0.25078 0.92481
 C791 C 0.90300 0.21690 0.91137
 C792 C 0.87455 0.21744 0.88424
 C793 C 0.86146 0.25170 0.86994
 C794 C 0.87673 0.28555 0.88308
 H795 H 0.91638 0.31184 0.91995
 H796 H 0.91263 0.18985 0.92165
 H797 H 0.86300 0.19108 0.87408
 H798 H 0.86685 0.31221 0.87202
 C799 C 0.42695 0.73037 0.38898
 C800 C 0.42456 0.75540 0.41948
 C801 C 0.39464 0.78114 0.42119
 C802 C 0.36685 0.78107 0.39329
 C803 C 0.36938 0.75618 0.36268
 C804 C 0.39988 0.73118 0.36046
 H805 H 0.44990 0.71038 0.38713
 H806 H 0.39225 0.80054 0.44462
 H807 H 0.34349 0.80056 0.39546
 H808 H 0.40216 0.71156 0.33719
 C809 C 0.07531 0.10949 0.22692
 C810 C 0.07801 0.07893 0.25182
 C811 C 0.10829 0.07720 0.27716
 C812 C 0.13593 0.10521 0.27705
 C813 C 0.13296 0.13601 0.25249
 C814 C 0.10227 0.13813 0.22766
 H815 H 0.05206 0.11143 0.20727
 H816 H 0.11094 0.05380 0.29652
 H817 H 0.15942 0.10306 0.29637
 H818 H 0.09967 0.16151 0.20825
 C819 C 0.61003 0.57364 0.72948
 C820 C 0.57952 0.57616 0.75443
 C821 C 0.57784 0.60619 0.78010
 C822 C 0.60580 0.63384 0.78018
 C823 C 0.63647 0.63115 0.75548
 C824 C 0.63863 0.60064 0.73042
 H825 H 0.61190 0.55059 0.70958
 H826 H 0.55445 0.60870 0.79948
 H827 H 0.60363 0.65719 0.79970
 H828 H 0.66193 0.59827 0.71091
 C829 C 0.91234 0.09769 0.78399
 C830 C 0.92292 0.07995 0.75006
 C831 C 0.90513 0.09125 0.71638
 C832 C 0.87725 0.11900 0.71675
 C833 C 0.86709 0.13642 0.75057
 C834 C 0.88484 0.12586 0.78414
 H835 H 0.92530 0.08995 0.81049
 H836 H 0.91232 0.07836 0.68968
 H837 H 0.86360 0.12693 0.69064
 H838 H 0.87705 0.13911 0.81051
 C839 C 0.42711 0.61019 0.22319
 C840 C 0.42419 0.57915 0.24746
 C841 C 0.39316 0.57629 0.27164
 C842 C 0.36506 0.60375 0.27109
 C843 C 0.36819 0.63512 0.24728
 C844 C 0.39960 0.63835 0.22357
 H845 H 0.45095 0.61293 0.20442
 H846 H 0.39032 0.55245 0.29043
 H847 H 0.34114 0.60079 0.28969
 H848 H 0.40249 0.66230 0.20493
 C849 C 0.07208 0.88970 0.77248
 C850 C 0.07407 0.91992 0.74711
 C851 C 0.10364 0.92131 0.72096
 C852 C 0.13135 0.89339 0.72081
 C853 C 0.12918 0.86301 0.74593
 C854 C 0.09914 0.86111 0.77150
 H855 H 0.04941 0.88803 0.79278
 H856 H 0.10577 0.94447 0.70124
 H857 H 0.15437 0.89537 0.70093
 H858 H 0.09721 0.83806 0.79137
 C859 C 0.57541 0.38953 0.22254
 C860 C 0.57866 0.42074 0.24661
 C861 C 0.60998 0.42382 0.27041
 C862 C 0.63804 0.39636 0.26973
 C863 C 0.63457 0.36480 0.24618
 C864 C 0.60290 0.36135 0.22282
 H865 H 0.55132 0.38667 0.20407
 H866 H 0.61303 0.44781 0.28903
 H867 H 0.66216 0.39941 0.28809
 H868 H 0.59977 0.33719 0.20444
 C869 C 0.91043 0.90619 0.21762
 C870 C 0.92308 0.92258 0.25154
 C871 C 0.90670 0.91057 0.28568
 C872 C 0.87855 0.88308 0.28582
 C873 C 0.86642 0.86695 0.25200
 C874 C 0.88246 0.87852 0.21794
 H875 H 0.92221 0.91453 0.19077
 H876 H 0.91550 0.92242 0.31238
 H877 H 0.86637 0.87424 0.31233
 H878 H 0.87329 0.86611 0.19159
 C879 C 0.41922 0.39436 0.77744
 C880 C 0.41825 0.42423 0.75161
 C881 C 0.38857 0.42642 0.72560
 C882 C 0.36004 0.39929 0.72569
 C883 C 0.36149 0.36898 0.75101
 C884 C 0.39138 0.36661 0.77674
 H885 H 0.44196 0.39206 0.79764
 H886 H 0.38723 0.44934 0.70554
 H887 H 0.33735 0.40145 0.70543
 H888 H 0.39299 0.34345 0.79650
 C889 C 0.10390 0.27675 0.91901
 C890 C 0.07449 0.25044 0.91786
 C891 C 0.07287 0.22439 0.88811
 C892 C 0.10015 0.22487 0.85975
 C893 C 0.13007 0.25057 0.86147
 C894 C 0.13183 0.27641 0.89136
 H895 H 0.10577 0.29694 0.94181
 H896 H 0.05032 0.20392 0.88667
 H897 H 0.09844 0.20459 0.83700
 H898 H 0.15467 0.29653 0.89310
 C899 C 0.57704 0.72693 0.39268
 C900 C 0.58005 0.75114 0.42379
 C901 C 0.61151 0.77482 0.42695
 C902 C 0.63994 0.77372 0.39968
 C903 C 0.63660 0.74990 0.36824
 C904 C 0.60476 0.72681 0.36481
 H905 H 0.55291 0.70854 0.38966
 H906 H 0.61440 0.79357 0.45085
 H907 H 0.66419 0.79193 0.40276
 H908 H 0.60162 0.70827 0.34084
 C909 C 0.91122 0.78665 0.90537
 C910 C 0.92413 0.75238 0.92079
 C911 C 0.90866 0.71844 0.90711
 C912 C 0.88094 0.71878 0.87921
 C913 C 0.86837 0.75291 0.86415
 C914 C 0.88363 0.78684 0.87720
 H915 H 0.92233 0.81337 0.91501
 H916 H 0.91767 0.69146 0.91811
 H917 H 0.86919 0.69239 0.86941
 H918 H 0.87392 0.81344 0.86585
 C919 C 0.42453 0.22883 0.38959
 C920 C 0.42117 0.25179 0.42157
 C921 C 0.38969 0.27533 0.42534
 C922 C 0.36155 0.27534 0.39779
 C923 C 0.36523 0.25291 0.36541
 C924 C 0.39709 0.22987 0.36141
 H925 H 0.44870 0.21055 0.38618
 H926 H 0.38654 0.29308 0.44996
 H927 H 0.33719 0.29319 0.40151
 H928 H 0.40042 0.21216 0.33679
 C929 C 0.07617 0.77437 0.10879
 C930 C 0.07776 0.74877 0.07869
 C931 C 0.10763 0.72299 0.07673
 C932 C 0.13598 0.72339 0.10405
 C933 C 0.13414 0.74868 0.13438
 C934 C 0.10383 0.77390 0.13680
 H935 H 0.05328 0.79442 0.11084
 H936 H 0.10945 0.70315 0.05362
 H937 H 0.15911 0.70365 0.10179
 H938 H 0.10203 0.79375 0.15991
 C939 C 0.57508 0.27090 0.60901
 C940 C 0.57855 0.24724 0.57756
 C941 C 0.61022 0.22387 0.57422
 C942 C 0.63846 0.22476 0.60172
 C943 C 0.63466 0.24804 0.63347
 C944 C 0.60259 0.27079 0.63707
 H945 H 0.55077 0.28905 0.61211
 H946 H 0.61343 0.20559 0.55001
 H947 H 0.66293 0.20685 0.59855
 H948 H 0.59915 0.28891 0.66131
 C949 C 0.92583 0.27183 0.11021
 C950 C 0.92366 0.24621 0.08017
 C951 C 0.89393 0.22025 0.07887
 C952 C 0.86613 0.22063 0.10668
 C953 C 0.86844 0.24609 0.13685
 C954 C 0.89874 0.27133 0.13872
 H955 H 0.94867 0.29197 0.11175
 H956 H 0.89171 0.20037 0.05583
 H957 H 0.84298 0.20088 0.10485
 H958 H 0.90088 0.29128 0.16172
 C959 C 0.42041 0.77515 0.60655
 C960 C 0.41947 0.74912 0.57682
 C961 C 0.38996 0.72288 0.57496
 C962 C 0.36146 0.72311 0.60218
 C963 C 0.36285 0.74875 0.63226
 C964 C 0.39267 0.77457 0.63436
 H965 H 0.44302 0.79550 0.60862
 H966 H 0.38866 0.70264 0.55217
 H967 H 0.33878 0.70284 0.60019
 H968 H 0.39420 0.79464 0.65730
 C969 C 0.22317 0.11145 0.92536
 C970 C 0.24950 0.08198 0.92344
 C971 C 0.27557 0.08126 0.89381
 C972 C 0.27473 0.10900 0.86599
 C973 C 0.24861 0.13858 0.86801
 C974 C 0.22314 0.13993 0.89814
 H975 H 0.20289 0.11257 0.94808
 H976 H 0.29599 0.05870 0.89169
 H977 H 0.29468 0.10753 0.84299
 H978 H 0.20265 0.16244 0.90004
 C979 C 0.72735 0.60925 0.42629
 C980 C 0.75251 0.57883 0.42395
 C981 C 0.77766 0.57679 0.39360
 C982 C 0.77704 0.60435 0.36548
 C983 C 0.75216 0.63498 0.36805
 C984 C 0.72762 0.63746 0.39887
 H985 H 0.70778 0.61136 0.44957
 H986 H 0.79713 0.55344 0.39121
 H987 H 0.79630 0.60205 0.34196
 H988 H 0.70814 0.66081 0.40128
 C989 C 0.71844 0.08919 0.09638
 C990 C 0.75221 0.07688 0.07954
 C991 C 0.78636 0.09343 0.09130
 C992 C 0.78661 0.12158 0.11886
 C993 C 0.75288 0.13338 0.13538
 C994 C 0.71886 0.11704 0.12417
 H995 H 0.69159 0.07723 0.08828
 H996 H 0.81295 0.08486 0.07912
 H997 H 0.81310 0.13402 0.12743
 H998 H 0.69262 0.12601 0.13684
 C999 C 0.22438 0.60566 0.57928
 C1000 C 0.25065 0.57619 0.58033
 C1001 C 0.27678 0.57458 0.60999
 C1002 C 0.27629 0.60189 0.63845
 C1003 C 0.25049 0.63178 0.63686
 C1004 C 0.22469 0.63355 0.60698
 H1005 H 0.20411 0.60754 0.55656
 H1006 H 0.29721 0.55198 0.61134
 H1007 H 0.29655 0.60020 0.66119
 H1008 H 0.20452 0.65637 0.60531
 C1009 C 0.72462 0.92199 0.89467
 C1010 C 0.75051 0.92049 0.92449
 C1011 C 0.77653 0.89077 0.92609
 C1012 C 0.77628 0.86261 0.89856
 C1013 C 0.75083 0.86450 0.86841
 C1014 C 0.72520 0.89451 0.86649
 H1015 H 0.70446 0.94480 0.89283
 H1016 H 0.79667 0.88906 0.94893
 H1017 H 0.79639 0.83975 0.90040
 H1018 H 0.70526 0.89635 0.84347
 C1019 C 0.22508 0.42751 0.38712
 C1020 C 0.25070 0.42566 0.41720
 C1021 C 0.27689 0.39612 0.41848
 C1022 C 0.27690 0.36835 0.39066
 C1023 C 0.25157 0.37029 0.36045
 C1024 C 0.22594 0.40031 0.35854
 H1025 H 0.20477 0.45020 0.38553
 H1026 H 0.29682 0.39408 0.44149
 H1027 H 0.29692 0.34549 0.39251
 H1028 H 0.20605 0.40214 0.33550
 C1029 C 0.22073 0.91812 0.10126
 C1030 C 0.24841 0.91833 0.07310
 C1031 C 0.27553 0.88956 0.07236
 C1032 C 0.27482 0.86089 0.09937
 C1033 C 0.24776 0.86139 0.12810
 C1034 C 0.22079 0.89019 0.12890
 H1035 H 0.19962 0.94009 0.10241
 H1036 H 0.29700 0.88912 0.05074
 H1037 H 0.29597 0.83894 0.09848
 H1038 H 0.19966 0.89088 0.15080
 C1039 C 0.77189 0.38996 0.57728
 C1040 C 0.74675 0.42039 0.57907
 C1041 C 0.72095 0.42247 0.60892
 C1042 C 0.72092 0.39492 0.63708
 C1043 C 0.74581 0.36427 0.63501
 C1044 C 0.77099 0.36179 0.60469
 H1045 H 0.79190 0.38778 0.55438
 H1046 H 0.70143 0.44581 0.61086
 H1047 H 0.70118 0.39724 0.66020
 H1048 H 0.79050 0.33844 0.60268
 C1049 C 0.10854 0.07486 0.77597
 C1050 C 0.07873 0.07681 0.75005
 C1051 C 0.07754 0.10654 0.72409
 C1052 C 0.10529 0.13434 0.72453
 C1053 C 0.13531 0.13223 0.75013
 C1054 C 0.13701 0.10209 0.77561
 H1055 H 0.11003 0.05205 0.79614
 H1056 H 0.05472 0.10866 0.70396
 H1057 H 0.10354 0.15734 0.70458
 H1058 H 0.15986 0.10011 0.79571
 C1059 C 0.61295 0.57383 0.22730
 C1060 C 0.58109 0.57702 0.25043
 C1061 C 0.57789 0.60794 0.27483
 C1062 C 0.60572 0.63572 0.27551
 C1063 C 0.63784 0.63233 0.25281
 C1064 C 0.64145 0.60098 0.22895
 H1065 H 0.61602 0.55005 0.20843
 H1066 H 0.55348 0.61097 0.29284
 H1067 H 0.60237 0.65965 0.29406
 H1068 H 0.66591 0.59797 0.21102
 C1069 C 0.07609 0.88957 0.27149
 C1070 C 0.07916 0.92153 0.24852
 C1071 C 0.11046 0.92545 0.22480
 C1072 C 0.13870 0.89805 0.22458
 C1073 C 0.13533 0.86570 0.24700
 C1074 C 0.10366 0.86153 0.27025
 H1075 H 0.05205 0.88604 0.28988
 H1076 H 0.11338 0.95004 0.20702
 H1077 H 0.16292 0.90189 0.20656
 H1078 H 0.10061 0.83690 0.28797
 C1079 C 0.57191 0.38896 0.72731
 C1080 C 0.57515 0.41986 0.75177
 C1081 C 0.60637 0.42232 0.77584
 C1082 C 0.63439 0.39470 0.77487
 C1083 C 0.63097 0.36355 0.75073
 C1084 C 0.59929 0.36065 0.72729
 H1085 H 0.54795 0.38650 0.70860
 H1086 H 0.60947 0.44603 0.79480
 H1087 H 0.65853 0.39740 0.79332
 H1088 H 0.59614 0.33692 0.70846
 C1089 C 0.92431 0.10801 0.27652
 C1090 C 0.92206 0.07759 0.25138
 C1091 C 0.89183 0.07549 0.22601
 C1092 C 0.86388 0.10314 0.22617
 C1093 C 0.86647 0.13388 0.25086
 C1094 C 0.89700 0.13633 0.27582
 H1095 H 0.94756 0.11021 0.29614
 H1096 H 0.88959 0.05218 0.20644
 H1097 H 0.84058 0.10090 0.20660
 H1098 H 0.89934 0.15981 0.29516
 C1099 C 0.42494 0.61098 0.72583
 C1100 C 0.42270 0.58103 0.75156
 C1101 C 0.39251 0.57965 0.77696
 C1102 C 0.36455 0.60729 0.77611
 C1103 C 0.36696 0.63743 0.75067
 C1104 C 0.39758 0.63933 0.72580
 H1105 H 0.44808 0.61263 0.70606
 H1106 H 0.39013 0.55671 0.79691
 H1107 H 0.34119 0.60537 0.79560
 H1108 H 0.39983 0.66226 0.70583
 C1109 C 0.91940 0.89439 0.72389
 C1110 C 0.91795 0.92436 0.74961
 C1111 C 0.88824 0.92622 0.77560
 C1112 C 0.86014 0.89867 0.77557
 C1113 C 0.86211 0.86827 0.75039
 C1114 C 0.89201 0.86622 0.72469
 H1115 H 0.94220 0.89235 0.70376
 H1116 H 0.88659 0.94919 0.79561
 H1117 H 0.83735 0.90059 0.79573
 H1118 H 0.89393 0.84300 0.70498
 C1119 C 0.42474 0.39160 0.27302
 C1120 C 0.42256 0.42197 0.24781
 C1121 C 0.39205 0.42419 0.22279
 C1122 C 0.36378 0.39681 0.22347
 C1123 C 0.36628 0.36615 0.24829
 C1124 C 0.39713 0.36357 0.27284
 H1125 H 0.44812 0.38929 0.29247
 H1126 H 0.38976 0.44748 0.20324
 H1127 H 0.34026 0.39922 0.20420
 H1128 H 0.39949 0.34022 0.29231
   
