data_POSCAR
  _audit_creation_date              2014-09-24
  _audit_creation_method            'ToBaCCo'
  _symmetry_space_group_name_H-M    'P1'
  _symmetry_Int_Tables_number       1
  _symmetry_cell_setting            triclinic
  loop_
  _symmetry_equiv_pos_as_xyz
 x,y,z
_cell_length_a 27.5862
_cell_length_b 24.2874
_cell_length_c 28.2162
_cell_angle_alpha 88.554200
_cell_angle_beta 91.695400
_cell_angle_gamma 123.209800
loop_
  _atom_site_label
  _atom_site_type_symbol
  _atom_site_fract_x
  _atom_site_fract_y
  _atom_site_fract_z
O1 O 0.06840 0.59621 1.28947
 O2 O -0.04246 0.51470 1.19463
 O3 O -0.04138 0.54927 1.28027
 O4 O 0.06935 0.56659 1.20061
 O5 O 0.05127 0.47061 1.22660
 O6 O -0.06027 0.45273 1.30580
 O7 O -0.05890 0.41903 1.21964
 O8 O 0.05048 0.50017 1.31509
 Cu9 Cu 0.01580 0.56665 1.23875
 Cu10 Cu -0.00585 0.45114 1.26945
 C11 C 0.07775 0.56219 1.31868
 C12 C -0.06980 0.45250 1.19128
 C13 C -0.07009 0.49807 1.30596
 C14 C 0.07834 0.52072 1.19952
 O15 O 0.41819 0.44889 1.29356
 O16 O 0.51602 0.43466 1.21531
 O17 O 0.51169 0.44720 1.30738
 O18 O 0.42009 0.43112 1.20464
 O19 O 0.47223 0.53941 1.19644
 O20 O 0.56532 0.55543 1.29895
 O21 O 0.56901 0.54305 1.20861
 O22 O 0.47359 0.55733 1.28829
 Cu23 Cu 0.46159 0.42961 1.25628
 Cu24 Cu 0.52518 0.55966 1.24659
 C25 C 0.42943 0.50530 1.30451
 C26 C 0.55958 0.48726 1.19879
 C27 C 0.55347 0.50338 1.32095
 C28 C 0.43007 0.48287 1.18355
 O29 O 0.49786 0.94992 1.30869
 O30 O 0.55661 1.05960 1.20112
 O31 O 0.54893 1.07783 1.29212
 O32 O 0.51712 0.93652 1.22178
 O33 O 0.42908 0.91394 1.20600
 O34 O 0.46297 1.05952 1.27376
 O35 O 0.46792 1.03457 1.18509
 O36 O 0.41328 0.93645 1.29219
 Cu37 Cu 0.53909 1.00869 1.25783
 Cu38 Cu 0.43492 0.98428 1.23754
 C39 C 0.44485 0.92513 1.31849
 C40 C 0.52055 1.06337 1.17414
 C41 C 0.51156 1.09248 1.29557
 C42 C 0.46770 0.90101 1.20210
 O43 O 0.94962 0.49683 0.68325
 O44 O 1.06018 0.57918 0.77761
 O45 O 1.06056 0.54467 0.69163
 O46 O 0.95006 0.52833 0.77159
 O47 O 0.93144 0.43225 0.79787
 O48 O 1.04196 0.44860 0.71790
 O49 O 1.04293 0.48353 0.80371
 O50 O 0.93179 0.40098 0.70927
 Cu51 Cu 1.00655 0.54667 0.72827
 Cu52 Cu 0.98476 0.43141 0.75967
 C53 C 0.92226 0.43476 0.67998
 C54 C 1.07060 0.54578 0.80643
 C55 C 1.07053 0.49941 0.69173
 C56 C 0.92294 0.47853 0.79897
 O57 O 0.52949 0.44401 0.71621
 O58 O 0.43290 0.46073 0.79176
 O59 O 0.43933 0.44920 0.70155
 O60 O 0.52856 0.46363 0.80657
 O61 O 0.58280 0.57171 0.79715
 O62 O 0.49322 0.55743 0.69336
 O63 O 0.48754 0.56914 0.78530
 O64 O 0.58490 0.55230 0.70838
 Cu65 Cu 0.47711 0.44360 0.75528
 Cu66 Cu 0.54221 0.57355 0.74492
 C67 C 0.57374 0.49533 0.69952
 C68 C 0.44319 0.51690 0.80137
 C69 C 0.45161 0.50140 0.67948
 C70 C 0.57140 0.51993 0.81912
 O71 O 0.57381 0.06342 0.70310
 O72 O 0.53181 -0.03101 0.81331
 O73 O 0.53465 -0.05645 0.72472
 O74 O 0.56866 0.08920 0.79185
 O75 O 0.47850 0.06201 0.78101
 O76 O 0.44520 -0.08198 0.71219
 O77 O 0.44085 -0.06112 0.80247
 O78 O 0.48484 0.04009 0.69155
 Cu79 Cu 0.56120 0.01916 0.75959
 Cu80 Cu 0.45320 -0.01282 0.74593
 C81 C 0.53670 0.06673 0.67797
 C82 C 0.47985 -0.06230 0.82682
 C83 C 0.48464 -0.09284 0.70576
 C84 C 0.52910 0.09980 0.79836
 O85 O 0.38932 0.62627 0.94074
 O86 O 0.41855 0.74138 0.97291
 C87 C 0.39381 0.76871 0.95546
 O88 O 0.34121 0.74780 0.96297
 O89 O 0.23233 0.65150 0.96933
 C90 C 0.21316 0.60618 0.93897
 O91 O 0.22506 0.56252 0.94043
 O92 O 0.30263 0.53226 0.94549
 C93 C 0.35092 0.56947 0.92550
 O94 O 0.38319 0.58357 1.03086
 O95 O 0.40829 0.69605 1.06189
 C96 C 0.39354 0.73313 1.07754
 O97 O 0.35512 0.73957 1.05744
 O98 O 0.24770 0.63989 1.06334
 C99 C 0.21230 0.57791 1.06579
 O100 O 0.20806 0.53915 1.03429
 O101 O 0.28807 0.51407 1.03984
 C102 C 0.34014 0.53382 1.05032
 Cr103 Cr 0.39659 0.66065 1.00141
 Cr104 Cr 0.29475 0.69215 1.01278
 Cr105 Cr 0.25822 0.54055 0.99029
 O106 O 0.31654 0.63119 1.00117
 O107 O 0.61834 0.41686 0.97094
 O108 O 0.59231 0.30372 0.94072
 C109 C 0.60715 0.26731 0.92391
 O110 O 0.64692 0.26198 0.94248
 O111 O 0.75435 0.36188 0.93600
 C112 C 0.78977 0.42381 0.93339
 O113 O 0.79387 0.46271 0.96473
 O114 O 0.71335 0.48721 0.96130
 C115 C 0.66106 0.46716 0.95152
 O116 O 0.61455 0.37591 1.06141
 O117 O 0.58518 0.26019 1.03003
 C118 C 0.61050 0.23269 1.04591
 O119 O 0.66269 0.25358 1.03687
 O120 O 0.77100 0.35020 1.02986
 C121 C 0.79053 0.39559 1.06024
 O122 O 0.77897 0.43954 1.05892
 O123 O 0.70111 0.46972 1.05567
 C124 C 0.65289 0.43314 1.07592
 Cr125 Cr 0.60593 0.34037 1.00092
 Cr126 Cr 0.70803 0.30951 0.98682
 Cr127 Cr 0.74457 0.46115 1.00990
 O128 O 0.68613 0.37026 0.99948
 O129 O 0.70497 0.44399 0.56702
 O130 O 0.78471 0.43009 0.53514
 C131 C 0.78159 0.37683 0.54597
 O132 O 0.74580 0.32221 0.52653
 O133 O 0.63847 0.22998 0.50786
 C134 C 0.60548 0.22257 0.54144
 O135 O 0.59020 0.26241 0.54835
 O136 O 0.60977 0.38150 0.55512
 C137 C 0.65416 0.42393 0.57889
 O138 O 0.68406 0.47603 0.47921
 O139 O 0.76257 0.46105 0.44699
 C140 C 0.77773 0.42806 0.42566
 O141 O 0.76005 0.36913 0.43716
 O142 O 0.64987 0.28037 0.41992
 C143 C 0.59599 0.25684 0.41952
 O144 O 0.57101 0.26408 0.45377
 O145 O 0.59848 0.38464 0.46050
 C146 C 0.63591 0.44593 0.45611
 Cr147 Cr 0.73203 0.44938 0.50668
 Cr148 Cr 0.69777 0.30261 0.47360
 Cr149 Cr 0.59525 0.32436 0.50429
 O150 O 0.67528 0.35909 0.49500
 O151 O 0.31907 0.52670 0.52201
 O152 O 0.23780 0.53813 0.55299
 C153 C 0.22161 0.57029 0.57414
 O154 O 0.23891 0.62914 0.56287
 O155 O 0.34868 0.71961 0.58004
 C156 C 0.40286 0.74506 0.58009
 O157 O 0.42835 0.73962 0.54535
 O158 O 0.40417 0.61974 0.54000
 C159 C 0.36756 0.55811 0.54472
 O160 O 0.29763 0.55624 0.43353
 O161 O 0.21602 0.56794 0.46411
 C162 C 0.21777 0.62054 0.45356
 O163 O 0.25232 0.67519 0.47347
 O164 O 0.35904 0.76915 0.49184
 C165 C 0.38791 0.77411 0.45583
 O166 O 0.40759 0.73807 0.45044
 O167 O 0.39259 0.62085 0.44545
 C168 C 0.34869 0.57658 0.42227
 Cr169 Cr 0.26962 0.55064 0.49358
 Cr170 Cr 0.30061 0.69620 0.52635
 Cr171 Cr 0.40542 0.67851 0.49552
 O172 O 0.32485 0.64123 0.50516
 N173 N 0.31838 0.48003 0.37628
 N174 N 0.33951 0.45805 0.34595
 C175 C 0.39264 0.50954 0.33461
 C176 C 0.40362 0.56411 0.35911
 N177 N 0.35607 0.54331 0.38478
 H178 H 0.44308 0.61275 0.36013
 N179 N 0.35406 0.83180 0.41064
 N180 N 0.36734 0.87101 0.37335
 C181 C 0.41902 0.88553 0.35826
 C182 C 0.43720 0.85320 0.38762
 N183 N 0.39492 0.82010 0.41973
 H184 H 0.47575 0.85211 0.38512
 N185 N 0.18166 0.67310 0.40320
 N186 N 0.14567 0.65998 0.36684
 C187 C 0.12036 0.59571 0.35726
 C188 C 0.14182 0.56949 0.38912
 N189 N 0.18002 0.61964 0.41716
 H190 H 0.13175 0.51970 0.39102
 N191 N 0.65666 0.54662 0.41543
 N192 N 0.63605 0.56381 0.37893
 C193 C 0.58848 0.50790 0.36261
 C194 C 0.58024 0.45618 0.39029
 N195 N 0.62351 0.48223 0.42282
 H196 H 0.54723 0.40435 0.38613
 N197 N 0.50856 0.20327 0.36959
 N198 N 0.48437 0.15861 0.33568
 C199 C 0.52312 0.14351 0.32508
 C200 C 0.57217 0.18102 0.35299
 N201 N 0.56120 0.21733 0.38034
 H202 H 0.61031 0.17876 0.35560
 N203 N 0.83198 0.51812 0.37016
 N204 N 0.87290 0.53879 0.33835
 C205 C 0.88497 0.49219 0.33605
 C206 C 0.84982 0.44175 0.36722
 N207 N 0.81747 0.46009 0.38778
 H208 H 0.84914 0.39751 0.37524
 N209 N 0.67915 0.52076 1.13054
 N210 N 0.65563 0.53735 1.16272
 C211 C 0.60098 0.48533 1.16848
 C212 C 0.59158 0.43573 1.13869
 N213 N 0.64163 0.46019 1.11552
 H214 H 0.55169 0.38857 1.13247
 N215 N 0.82449 0.34182 1.11171
 N216 N 0.86132 0.35521 1.14747
 C217 C 0.88781 0.41993 1.15625
 C218 C 0.86573 0.44597 1.12492
 N219 N 0.82633 0.39539 1.09783
 H220 H 0.87704 0.49622 1.12203
 N221 N 0.52058 0.13124 1.06183
 N222 N 0.49549 0.08561 1.09517
 C223 C 0.53636 0.09878 1.12849
 C224 C 0.58829 0.15444 1.11420
 N225 N 0.57603 0.17301 1.07237
 H226 H 0.62892 0.18167 1.13388
 N227 N 0.31469 0.43837 1.10048
 N228 N 0.33792 0.42299 1.13600
 C229 C 0.39128 0.47696 1.14449
 C230 C 0.40027 0.52568 1.11304
 N231 N 0.35166 0.49968 1.08619
 H232 H 0.43765 0.57577 1.11085
 N233 N 0.15716 0.48798 1.12079
 N234 N 0.12218 0.47129 1.15697
 C235 C 0.11853 0.52322 1.16538
 C236 C 0.15286 0.57291 1.13322
 N237 N 0.17598 0.54853 1.10602
 H238 H 0.15835 0.62040 1.12869
 N239 N 0.46888 0.77664 1.13924
 N240 N 0.49015 0.82164 1.17289
 C241 C 0.45596 0.84540 1.17350
 C242 C 0.41317 0.81380 1.13933
 N243 N 0.42284 0.77148 1.11867
 H244 H 0.38024 0.82318 1.12878
 N245 N 0.69009 0.51135 0.63604
 N246 N 0.67018 0.53355 0.66740
 C247 C 0.61277 0.48874 0.66988
 C248 C 0.59790 0.43820 0.63920
 N249 N 0.64748 0.45433 0.61872
 H250 H 0.55512 0.39578 0.63097
 N251 N 0.59917 0.12286 0.56533
 N252 N 0.58119 0.08029 0.60099
 C253 C 0.55425 0.09688 0.63096
 C254 C 0.55655 0.15166 0.61280
 N255 N 0.58518 0.16624 0.57172
 H256 H 0.54270 0.18053 0.62921
 N257 N 0.81702 0.32341 0.59635
 N258 N 0.85323 0.33649 0.63254
 C259 C 0.87931 0.40100 0.64170
 C260 C 0.85813 0.42739 0.60978
 N261 N 0.81931 0.37716 0.58212
 H262 H 0.86876 0.47740 0.60762
 N263 N 0.34900 0.45801 0.58459
 N264 N 0.37005 0.44096 0.62081
 C265 C 0.41697 0.49708 0.63757
 C266 C 0.42431 0.54892 0.61042
 N267 N 0.38113 0.52257 0.57778
 H268 H 0.45652 0.60089 0.61508
 N269 N 0.49128 0.80196 0.62852
 N270 N 0.51470 0.84591 0.66289
 C271 C 0.47406 0.85705 0.67566
 C272 C 0.42461 0.81778 0.64851
 N273 N 0.43734 0.78458 0.61941
 H274 H 0.38507 0.81724 0.64737
 N275 N 0.16657 0.47937 0.62906
 N276 N 0.12534 0.45836 0.66067
 C277 C 0.11305 0.50483 0.66301
 C278 C 0.14852 0.55557 0.63204
 N279 N 0.18117 0.53752 0.61158
 H280 H 0.14942 0.59999 0.62420
 N281 N 0.32341 0.48450 0.86829
 N282 N 0.34654 0.46846 0.83540
 C283 C 0.40186 0.51953 0.83103
 C284 C 0.41216 0.56794 0.86236
 N285 N 0.36192 0.54371 0.88507
 H286 H 0.45273 0.61377 0.87006
 N287 N 0.17451 0.65753 0.89037
 N288 N 0.13720 0.64356 0.85491
 C289 C 0.11487 0.58038 0.84354
 C290 C 0.13988 0.55587 0.87294
 N291 N 0.17685 0.60577 0.90160
 H292 H 0.13171 0.50689 0.87375
 N293 N 0.48592 0.86471 0.93495
 N294 N 0.51027 0.91008 0.90134
 C295 C 0.46740 0.90110 0.87172
 C296 C 0.41520 0.84859 0.88858
 N297 N 0.42914 0.82731 0.92810
 H298 H 0.37260 0.82525 0.87203
 N299 N 0.68603 0.56334 0.90260
 N300 N 0.66288 0.57925 0.86736
 C301 C 0.60953 0.52545 0.85861
 C302 C 0.60045 0.47623 0.88963
 N303 N 0.64905 0.50182 0.91646
 H304 H 0.56324 0.42598 0.89130
 N305 N 0.84601 0.51359 0.87836
 N306 N 0.88072 0.52956 0.84205
 C307 C 0.88338 0.47697 0.83349
 C308 C 0.84867 0.42761 0.86579
 N309 N 0.82634 0.45283 0.89316
 H310 H 0.84230 0.37968 0.87022
 N311 N 0.52881 0.22235 0.86473
 N312 N 0.50642 0.17755 0.83090
 C313 C 0.54137 0.15509 0.82779
 C314 C 0.58579 0.18728 0.86075
 N315 N 0.57630 0.22866 0.88315
 H316 H 0.61974 0.17885 0.86938
   
