data_POSCAR
  _audit_creation_date              2014-09-24
  _audit_creation_method            'ToBaCCo'
  _symmetry_space_group_name_H-M    'P1'
  _symmetry_Int_Tables_number       1
  _symmetry_cell_setting            triclinic
  loop_
  _symmetry_equiv_pos_as_xyz
 x,y,z
_cell_length_a 40.6333
_cell_length_b 40.7603
_cell_length_c 21.2681
_cell_angle_alpha 90.621200
_cell_angle_beta 89.630500
_cell_angle_gamma 120.163000
loop_
  _atom_site_label
  _atom_site_type_symbol
  _atom_site_fract_x
  _atom_site_fract_y
  _atom_site_fract_z
O1 O 0.44549 0.97203 0.53625
 O2 O 0.50411 1.04912 0.42645
 O3 O 0.46762 0.97538 0.42013
 O4 O 0.48187 1.04590 0.54256
 O5 O 0.53335 1.04568 0.57449
 O6 O 0.51915 0.97520 0.45195
 O7 O 0.55568 1.04911 0.45837
 O8 O 0.49706 0.97196 0.56812
 Cu9 Cu 0.46962 1.01063 0.47808
 Cu10 Cu 0.53148 1.01049 0.51648
 C11 C 0.46136 0.95888 0.57097
 C12 C 0.53985 1.06228 0.42355
 C13 C 0.49088 0.96327 0.41513
 C14 C 0.51006 1.05776 0.57950
 O15 O 0.03699 0.43888 0.55671
 O16 O -0.03717 0.40583 0.43471
 O17 O 0.03715 0.44297 0.43458
 O18 O -0.03704 0.40191 0.55684
 O19 O -0.03688 0.45605 0.56387
 O20 O 0.03727 0.49712 0.44177
 O21 O -0.03710 0.45996 0.44190
 O22 O 0.03702 0.49296 0.56374
 Cu23 Cu -0.00003 0.41697 0.49480
 Cu24 Cu 0.00008 0.48196 0.50344
 C25 C 0.04960 0.47158 0.58122
 C26 C -0.04992 0.42713 0.41780
 C27 C 0.04999 0.47705 0.41762
 C28 C -0.04956 0.42204 0.58140
 O29 O 0.44398 0.49254 0.46064
 O30 O 0.50292 0.47466 0.57028
 O31 O 0.46620 0.51161 0.57666
 O32 O 0.48096 0.45569 0.45418
 O33 O 0.53227 0.50769 0.42215
 O34 O 0.51751 0.56357 0.54470
 O35 O 0.55431 0.52657 0.53823
 O36 O 0.49536 0.54447 0.42862
 Cu37 Cu 0.46837 0.47842 0.51871
 Cu38 Cu 0.53000 0.54078 0.48014
 C39 C 0.45969 0.52160 0.42586
 C40 C 0.53858 0.49751 0.57301
 C41 C 0.48930 0.54707 0.58173
 C42 C 0.50921 0.47223 0.41726
 O43 O 0.38677 0.66251 -0.04724
 O44 O 0.38546 0.72338 -0.07893
 C45 C 0.36872 0.74106 -0.09478
 O46 O 0.33962 0.73772 -0.06605
 O47 O 0.27720 0.67238 -0.08153
 C48 C 0.25896 0.63662 -0.08731
 O49 O 0.26325 0.61467 -0.05032
 O50 O 0.32735 0.61519 -0.06364
 C51 C 0.36267 0.63195 -0.07498
 O52 O 0.38459 0.68066 0.07501
 O53 O 0.38654 0.74318 0.04338
 C54 C 0.36231 0.74952 0.07095
 O55 O 0.32706 0.73105 0.05903
 O56 O 0.26271 0.66777 0.04317
 C57 C 0.25747 0.64105 0.07977
 O58 O 0.27591 0.62369 0.07497
 O59 O 0.33832 0.62059 0.06183
 C60 C 0.36736 0.64619 0.09089
 Cr61 Cr 0.38381 0.70142 -0.00196
 Cr62 Cr 0.30265 0.70121 -0.01104
 Cr63 Cr 0.30222 0.62056 0.00545
 O64 O 0.32960 0.67440 -0.00251
 O65 O 0.61487 0.33838 -0.07737
 O66 O 0.61336 0.27610 -0.04565
 C67 C 0.63738 0.26963 -0.07362
 O68 O 0.67271 0.28817 -0.06246
 O69 O 0.73692 0.35173 -0.04932
 C70 C 0.74127 0.37800 -0.08633
 O71 O 0.72312 0.39557 -0.08046
 O72 O 0.66081 0.39860 -0.06466
 C73 C 0.63168 0.37283 -0.09328
 O74 O 0.61388 0.35715 0.04492
 O75 O 0.61566 0.29651 0.07658
 C76 C 0.63276 0.27917 0.09232
 O77 O 0.66173 0.28253 0.06306
 O78 O 0.72426 0.34806 0.07601
 C79 C 0.74280 0.38389 0.08075
 O80 O 0.73765 0.40542 0.04418
 O81 O 0.67342 0.40448 0.06037
 C82 C 0.63817 0.38772 0.07245
 Cr83 Cr 0.61646 0.31805 -0.00040
 Cr84 Cr 0.69790 0.31863 0.00658
 Cr85 Cr 0.69774 0.39900 -0.00984
 O86 O 0.67066 0.34519 -0.00122
 C87 C 0.43780 0.92812 -0.38514
 C88 C 0.45384 0.91303 -0.34508
 C89 C 0.43211 0.88202 -0.29972
 C90 C 0.45117 0.86585 -0.26984
 C91 C 0.43248 0.83693 -0.22609
 C92 C 0.39396 0.82323 -0.21130
 C93 C 0.37496 0.83977 -0.24029
 C94 C 0.39372 0.86881 -0.28418
 C95 C 0.37358 0.79314 -0.16393
 C96 C 0.38526 0.76751 -0.14752
 H97 H 0.48428 0.92416 -0.34787
 H98 H 0.48086 0.87580 -0.28010
 H99 H 0.44873 0.82616 -0.20308
 H100 H 0.34548 0.83019 -0.22893
 H101 H 0.37805 0.88095 -0.30474
 H102 H 0.34872 0.79120 -0.14124
 H103 H 0.40747 0.91727 -0.38543
 H104 H 0.40853 0.76753 -0.17254
 C105 C 0.07747 0.48370 -0.37226
 C106 C 0.09245 0.51928 -0.34299
 C107 C 0.12198 0.53400 -0.29308
 C108 C 0.13281 0.56968 -0.26654
 C109 C 0.16063 0.58531 -0.21984
 C110 C 0.17862 0.56567 -0.19876
 C111 C 0.16743 0.52970 -0.22430
 C112 C 0.13957 0.51403 -0.27123
 C113 C 0.20832 0.58157 -0.14937
 C114 C 0.23085 0.62050 -0.13831
 H115 H 0.08178 0.53768 -0.35722
 H116 H 0.11955 0.58559 -0.28184
 H117 H 0.16739 0.61248 -0.19977
 H118 H 0.18062 0.51385 -0.20840
 H119 H 0.13234 0.48649 -0.28992
 H120 H 0.21335 0.56214 -0.12231
 H121 H 0.08712 0.46442 -0.35907
 H122 H 0.22806 0.64030 -0.16814
 C123 C 0.48393 0.56846 -0.37194
 C124 C 0.45363 0.55202 -0.32927
 C125 C 0.44546 0.57310 -0.28010
 C126 C 0.41599 0.55200 -0.23731
 C127 C 0.40579 0.57009 -0.19162
 C128 C 0.42468 0.60990 -0.18789
 C129 C 0.45494 0.63114 -0.22921
 C130 C 0.46513 0.61302 -0.27525
 C131 C 0.41314 0.62964 -0.14158
 C132 C 0.37552 0.61382 -0.12137
 H133 H 0.43445 0.52160 -0.33185
 H134 H 0.40058 0.52127 -0.23937
 H135 H 0.38322 0.55273 -0.15909
 H136 H 0.47011 0.66186 -0.22688
 H137 H 0.48789 0.63059 -0.30714
 H138 H 0.43408 0.65793 -0.12589
 H139 H 0.50424 0.59851 -0.36973
 H140 H 0.35396 0.58704 -0.14132
 C141 C 0.51559 0.08592 -0.37161
 C142 C 0.54545 0.09904 -0.32849
 C143 C 0.55389 0.12823 -0.27909
 C144 C 0.58373 0.13675 -0.23720
 C145 C 0.59414 0.16495 -0.19130
 C146 C 0.57506 0.18564 -0.18644
 C147 C 0.54442 0.17643 -0.22684
 C148 C 0.53401 0.14819 -0.27306
 C149 C 0.58675 0.21682 -0.13988
 C150 C 0.62443 0.23869 -0.12010
 H151 H 0.56413 0.08727 -0.33123
 H152 H 0.59929 0.12162 -0.24014
 H153 H 0.61699 0.17026 -0.15947
 H154 H 0.52907 0.19175 -0.22359
 H155 H 0.51085 0.14276 -0.30407
 H156 H 0.56584 0.22405 -0.12362
 H157 H 0.49559 0.09601 -0.37012
 H158 H 0.64596 0.23359 -0.14050
 C159 C 0.92256 0.40633 -0.37198
 C160 C 0.90768 0.42698 -0.34266
 C161 C 0.87814 0.41220 -0.29264
 C162 C 0.86738 0.43710 -0.26614
 C163 C 0.83956 0.42494 -0.21933
 C164 C 0.82151 0.38728 -0.19811
 C165 C 0.83263 0.36246 -0.22362
 C166 C 0.86048 0.37461 -0.27065
 C167 C 0.79182 0.37352 -0.14859
 C168 C 0.76937 0.38997 -0.13745
 H169 H 0.91843 0.45608 -0.35694
 H170 H 0.88068 0.46628 -0.28154
 H171 H 0.83286 0.44539 -0.19930
 H172 H 0.81939 0.33341 -0.20760
 H173 H 0.86767 0.35427 -0.28930
 H174 H 0.78673 0.34904 -0.12149
 H175 H 0.91282 0.37735 -0.35876
 H176 H 0.77221 0.41259 -0.16730
 C177 C 0.56225 0.49053 -0.38315
 C178 C 0.54634 0.45937 -0.34304
 C179 C 0.56814 0.45022 -0.29777
 C180 C 0.54908 0.41503 -0.26753
 C181 C 0.56784 0.40490 -0.22389
 C182 C 0.60642 0.42974 -0.20957
 C183 C 0.62541 0.46524 -0.23890
 C184 C 0.60659 0.47543 -0.28269
 C185 C 0.62685 0.42009 -0.16237
 C186 C 0.61517 0.38275 -0.14593
 H187 H 0.51591 0.43993 -0.34570
 H188 H 0.51935 0.39527 -0.27742
 H189 H 0.55160 0.37793 -0.20059
 H190 H 0.65494 0.48515 -0.22791
 H191 H 0.62226 0.50319 -0.30358
 H192 H 0.65175 0.44306 -0.13983
 H193 H 0.59256 0.51019 -0.38352
 H194 H 0.59187 0.35948 -0.17086
 C195 C 0.91983 0.41296 0.37015
 C196 C 0.90371 0.43429 0.35007
 C197 C 0.87208 0.42003 0.30412
 C198 C 0.86579 0.44616 0.27161
 C199 C 0.83621 0.43377 0.22788
 C200 C 0.81204 0.39474 0.21609
 C201 C 0.81793 0.36866 0.24968
 C202 C 0.84746 0.38104 0.29326
 C203 C 0.78068 0.37959 0.16939
 C204 C 0.77249 0.40159 0.12941
 H205 H 0.91541 0.46310 0.36752
 H206 H 0.88407 0.47635 0.27971
 H207 H 0.83269 0.45500 0.20384
 H208 H 0.79957 0.33843 0.24217
 H209 H 0.85036 0.35987 0.31886
 H210 H 0.76361 0.34899 0.16499
 H211 H 0.91031 0.38501 0.35058
 H212 H 0.78861 0.43220 0.13171
 C213 C 0.56224 0.09143 0.38195
 C214 C 0.54662 0.10713 0.34210
 C215 C 0.56870 0.13814 0.29687
 C216 C 0.55004 0.15481 0.26726
 C217 C 0.56900 0.18372 0.22361
 C218 C 0.60741 0.19695 0.20865
 C219 C 0.62601 0.17991 0.23734
 C220 C 0.60698 0.15086 0.28114
 C221 C 0.62798 0.22703 0.16132
 C222 C 0.61675 0.25311 0.14562
 H223 H 0.51627 0.09659 0.34482
 H224 H 0.52044 0.14525 0.27763
 H225 H 0.55301 0.19485 0.20078
 H226 H 0.65539 0.18912 0.22582
 H227 H 0.62234 0.13833 0.30147
 H228 H 0.65243 0.22847 0.13791
 H229 H 0.59253 0.10196 0.38169
 H230 H 0.59393 0.25352 0.17143
 C231 C 0.51510 0.44972 0.36859
 C232 C 0.54522 0.46662 0.32586
 C233 C 0.55421 0.44599 0.27701
 C234 C 0.58524 0.46735 0.23705
 C235 C 0.59602 0.44963 0.19158
 C236 C 0.57612 0.40989 0.18521
 C237 C 0.54437 0.38846 0.22370
 C238 C 0.53357 0.40621 0.26946
 C239 C 0.58782 0.39036 0.13873
 C240 C 0.62557 0.40578 0.11942
 H241 H 0.56386 0.49711 0.32877
 H242 H 0.60141 0.49801 0.24114
 H243 H 0.61976 0.46726 0.16118
 H244 H 0.52833 0.35782 0.21920
 H245 H 0.50938 0.38844 0.29875
 H246 H 0.56667 0.36249 0.12172
 H247 H 0.49530 0.41955 0.36728
 H248 H 0.64732 0.43215 0.14021
 C249 C 0.08025 0.49312 0.36986
 C250 C 0.09646 0.53060 0.34971
 C251 C 0.12809 0.54795 0.30363
 C252 C 0.13447 0.58041 0.27109
 C253 C 0.16406 0.59759 0.22724
 C254 C 0.18815 0.58267 0.21538
 C255 C 0.18218 0.55068 0.24902
 C256 C 0.15264 0.53355 0.29271
 C257 C 0.21952 0.59888 0.16857
 C258 C 0.22779 0.62909 0.12855
 H259 H 0.08483 0.54775 0.36718
 H260 H 0.11625 0.59236 0.27923
 H261 H 0.16765 0.62236 0.20316
 H262 H 0.20049 0.53877 0.24146
 H263 H 0.14968 0.50945 0.31834
 H264 H 0.23652 0.58529 0.16411
 H265 H 0.08970 0.47465 0.35027
 H266 H 0.21176 0.64364 0.13092
 C267 C 0.48519 0.93493 0.36647
 C268 C 0.45499 0.92143 0.32396
 C269 C 0.44617 0.89185 0.27513
 C270 C 0.41552 0.88246 0.23457
 C271 C 0.40483 0.85393 0.18918
 C272 C 0.42443 0.83379 0.18351
 C273 C 0.45581 0.84384 0.22260
 C274 C 0.46652 0.87241 0.26829
 C275 C 0.41272 0.80248 0.13720
 C276 C 0.37499 0.78025 0.11780
 H277 H 0.43622 0.93310 0.32693
 H278 H 0.39957 0.89717 0.23814
 H279 H 0.38137 0.84800 0.15833
 H280 H 0.47160 0.82898 0.21866
 H281 H 0.49035 0.87856 0.29818
 H282 H 0.43379 0.79560 0.12046
 H283 H 0.50520 0.92486 0.36490
 H284 H 0.35331 0.78503 0.13843
 C285 C 0.43601 0.52853 0.38198
 C286 C 0.45192 0.55964 0.34176
 C287 C 0.43012 0.56872 0.29634
 C288 C 0.44924 0.60380 0.26583
 C289 C 0.43053 0.61388 0.22202
 C290 C 0.39192 0.58908 0.20781
 C291 C 0.37286 0.55367 0.23740
 C292 C 0.39164 0.54354 0.28138
 C293 C 0.37158 0.59872 0.16039
 C294 C 0.38332 0.63609 0.14412
 H295 H 0.48234 0.57908 0.34440
 H296 H 0.47899 0.62354 0.27561
 H297 H 0.44682 0.64077 0.19848
 H298 H 0.34331 0.53380 0.22649
 H299 H 0.37592 0.51586 0.30250
 H300 H 0.34685 0.57577 0.13749
 H301 H 0.40571 0.50885 0.38234
 H302 H 0.40642 0.65929 0.16950
   
