data_POSCAR
  _audit_creation_date              2014-09-24
  _audit_creation_method            'ToBaCCo'
  _symmetry_space_group_name_H-M    'P1'
  _symmetry_Int_Tables_number       1
  _symmetry_cell_setting            triclinic
  loop_
  _symmetry_equiv_pos_as_xyz
 x,y,z
_cell_length_a 37.7020
_cell_length_b 39.7330
_cell_length_c 39.9086
_cell_angle_alpha 87.959900
_cell_angle_beta 88.274200
_cell_angle_gamma 81.705200
loop_
  _atom_site_label
  _atom_site_type_symbol
  _atom_site_fract_x
  _atom_site_fract_y
  _atom_site_fract_z
C1 C 0.30289 0.22785 0.22695
 N2 N 0.30814 0.20901 0.25574
 C3 C 0.28630 0.21566 0.28299
 N4 N 0.25844 0.24152 0.28120
 C5 C 0.25283 0.26081 0.25238
 N6 N 0.27532 0.25387 0.22541
 C7 C 0.68169 -0.22986 0.23671
 N8 N 0.68002 -0.20863 0.26270
 C9 C 0.70436 -0.21366 0.28733
 N10 N 0.73135 -0.24035 0.28566
 C11 C 0.73365 -0.26209 0.25970
 N12 N 0.70854 -0.25661 0.23550
 C13 C 0.72633 0.28238 0.73497
 N14 N 0.75069 0.30385 0.72855
 C15 C 0.76894 0.30407 0.69864
 N16 N 0.76219 0.28227 0.67473
 C17 C 0.73715 0.26107 0.68069
 N18 N 0.71962 0.26115 0.71090
 C19 C 0.28292 -0.28896 0.75603
 N20 N 0.26086 -0.31206 0.74952
 C21 C 0.24635 -0.31270 0.71873
 N22 N 0.25443 -0.29011 0.69423
 C23 C 0.27695 -0.26737 0.70026
 N24 N 0.29073 -0.26684 0.73115
 C25 C 0.71703 -0.21373 0.78168
 N26 N 0.74055 -0.24298 0.78463
 C27 C 0.77103 -0.24808 0.76544
 N28 N 0.77786 -0.22337 0.74288
 C29 C 0.75502 -0.19384 0.73940
 N30 N 0.72449 -0.18906 0.75891
 C31 C 0.28170 0.19323 0.79398
 N32 N 0.25690 0.22137 0.79749
 C33 C 0.22642 0.22557 0.77977
 N34 N 0.22075 0.20133 0.75832
 C35 C 0.24503 0.17290 0.75455
 N36 N 0.27569 0.16896 0.77239
 C37 C 0.23189 -0.24029 0.23104
 N38 N 0.21082 -0.26425 0.24071
 C39 C 0.18696 -0.25916 0.26691
 N40 N 0.18423 -0.22960 0.28332
 C41 C 0.20479 -0.20536 0.27422
 N42 N 0.22882 -0.21083 0.24817
 C43 C 0.74337 0.26985 0.22238
 N44 N 0.75116 0.24199 0.24318
 C45 C 0.77529 0.24204 0.26800
 N46 N 0.79136 0.27018 0.27178
 C47 C 0.78398 0.29801 0.25109
 N48 N 0.76001 0.29742 0.22655
 O49 O 0.22578 0.03504 0.48428
 O50 O 0.22549 -0.04768 0.52580
 O51 O 0.23833 0.01152 0.54491
 O52 O 0.23172 -0.02782 0.46273
 O53 O 0.29076 -0.03653 0.45850
 O54 O 0.29721 0.00233 0.53878
 O55 O 0.28453 -0.05841 0.52151
 O56 O 0.28466 0.02541 0.47776
 Cu57 Cu 0.22516 -0.00652 0.50456
 Cu58 Cu 0.29465 -0.01805 0.49903
 C59 C 0.25476 0.04450 0.47342
 C60 C 0.25447 -0.06736 0.53077
 C61 C 0.26943 0.01370 0.55573
 C62 C 0.26054 -0.03907 0.44664
 O63 O 0.78640 0.04512 0.51158
 O64 O 0.78268 -0.03336 0.46812
 O65 O 0.78375 0.03054 0.44915
 O66 O 0.77515 -0.01630 0.53088
 O67 O 0.71643 -0.00299 0.52852
 O68 O 0.72467 0.04108 0.44765
 O69 O 0.72377 -0.02196 0.46615
 O70 O 0.72757 0.05835 0.50986
 Cu71 Cu 0.78775 0.00518 0.49012
 Cu72 Cu 0.71736 0.01972 0.48800
 C73 C 0.75809 0.06546 0.51779
 C74 C 0.75300 -0.04121 0.45940
 C75 C 0.75519 0.04383 0.43460
 C76 C 0.74387 -0.01737 0.54363
 O77 O 0.49598 0.21115 0.02276
 O78 O 0.56704 0.19937 -0.04350
 O79 O 0.56620 0.19875 0.02283
 O80 O 0.49773 0.20602 -0.04173
 O81 O 0.49763 0.26158 -0.04549
 O82 O 0.56541 0.25436 0.02024
 O83 O 0.56737 0.25486 -0.04552
 O84 O 0.49601 0.26667 0.01846
 Cu85 Cu 0.53211 0.19820 -0.00937
 Cu86 Cu 0.53199 0.26482 -0.01347
 C87 C 0.48330 0.24119 0.03125
 C88 C 0.57873 0.22556 -0.05631
 C89 C 0.57706 0.22525 0.03312
 C90 C 0.48563 0.23500 -0.05441
 O91 O 0.50465 0.78473 0.02986
 O92 O 0.43677 0.79461 -0.03598
 O93 O 0.43495 0.79905 0.02993
 O94 O 0.50591 0.78627 -0.03524
 O95 O 0.50419 0.73094 -0.03232
 O96 O 0.43304 0.74386 0.03405
 O97 O 0.43415 0.73952 -0.03155
 O98 O 0.50291 0.72937 0.03222
 Cu99 Cu 0.47041 0.79673 -0.00301
 Cu100 Cu 0.46806 0.73048 0.00091
 C101 C 0.51590 0.75505 0.04166
 C102 C 0.42450 0.76842 -0.04550
 C103 C 0.42224 0.77392 0.04363
 C104 C 0.51747 0.75649 -0.04480
 O105 O 0.03076 0.46444 0.27126
 O106 O -0.04001 0.53987 0.27091
 O107 O 0.02970 0.52931 0.26083
 O108 O -0.03901 0.47433 0.27605
 O109 O -0.03329 0.47640 0.33080
 O110 O 0.03434 0.53469 0.31534
 O111 O -0.03489 0.54278 0.32561
 O112 O 0.03590 0.46927 0.32575
 Cu113 Cu -0.00523 0.50168 0.26435
 Cu114 Cu 0.00093 0.50631 0.32981
 C115 C 0.04537 0.45404 0.29883
 C116 C -0.04950 0.55414 0.29848
 C117 C 0.04384 0.54142 0.28525
 C118 C -0.04753 0.46536 0.30564
 O119 O 0.04084 0.51556 0.76795
 O120 O -0.03772 0.47256 0.76270
 O121 O 0.03265 0.45118 0.75903
 O122 O -0.02608 0.53389 0.75915
 O123 O -0.01900 0.53786 0.70407
 O124 O 0.03809 0.45537 0.70389
 O125 O -0.03279 0.47333 0.70747
 O126 O 0.04736 0.51742 0.71279
 Cu127 Cu 0.00266 0.49204 0.76727
 Cu128 Cu 0.00802 0.49575 0.70191
 C129 C 0.05749 0.52424 0.74170
 C130 C -0.04904 0.46566 0.73454
 C131 C 0.04533 0.43915 0.73131
 C132 C -0.03225 0.55012 0.73135
 C133 C 0.33430 0.24606 0.17485
 C134 C 0.36059 0.23942 0.14939
 C135 C 0.37971 0.20624 0.14648
 C136 C 0.37213 0.18025 0.16901
 C137 C 0.34662 0.18728 0.19480
 C138 C 0.32772 0.22023 0.19810
 C139 C 0.40669 0.19974 0.12166
 C140 C 0.41550 0.22621 0.10028
 C141 C 0.39646 0.25941 0.10331
 C142 C 0.36883 0.26570 0.12752
 C143 C 0.40579 0.28597 0.08245
 C144 C 0.43406 0.27986 0.05913
 C145 C 0.45326 0.24700 0.05591
 C146 C 0.44355 0.22015 0.07636
 H147 H 0.32008 0.27161 0.17742
 H148 H 0.38648 0.15469 0.16717
 H149 H 0.34181 0.16691 0.21236
 H150 H 0.42139 0.17431 0.11951
 H151 H 0.35436 0.29120 0.12987
 H152 H 0.39151 0.31155 0.08442
 H153 H 0.44081 0.30096 0.04346
 H154 H 0.45824 0.19475 0.07415
 C155 C 0.65462 0.75233 0.18635
 C156 C 0.62830 0.75808 0.16182
 C157 C 0.60361 0.78845 0.16166
 C158 C 0.60516 0.81224 0.18637
 C159 C 0.63073 0.80600 0.21121
 C160 C 0.65597 0.77607 0.21153
 C161 C 0.57745 0.79441 0.13707
 C162 C 0.57494 0.76989 0.11320
 C163 C 0.59909 0.73911 0.11385
 C164 C 0.62594 0.73362 0.13781
 C165 C 0.59567 0.71409 0.09078
 C166 C 0.56840 0.71936 0.06748
 C167 C 0.54461 0.75002 0.06633
 C168 C 0.54823 0.77538 0.08906
 H169 H 0.67347 0.72898 0.18613
 H170 H 0.58634 0.83559 0.18672
 H171 H 0.63082 0.82501 0.22999
 H172 H 0.55868 0.81783 0.13688
 H173 H 0.64457 0.71011 0.13813
 H174 H 0.61382 0.69031 0.09098
 H175 H 0.56613 0.69956 0.05003
 H176 H 0.52969 0.79894 0.08850
 C177 C 0.69411 0.25212 -0.22020
 C178 C 0.67704 0.25111 -0.18853
 C179 C 0.67335 0.28009 -0.16846
 C180 C 0.68755 0.30922 -0.17999
 C181 C 0.70496 0.30983 -0.21132
 C182 C 0.70806 0.28149 -0.23182
 C183 C 0.65519 0.27968 -0.13736
 C184 C 0.64059 0.25068 -0.12607
 C185 C 0.64514 0.22131 -0.14559
 C186 C 0.66340 0.22168 -0.17673
 C187 C 0.63056 0.19236 -0.13393
 C188 C 0.61034 0.19304 -0.10393
 C189 C 0.60442 0.22265 -0.08513
 C190 C 0.62050 0.25106 -0.09598
 H191 H 0.69682 0.22995 -0.23564
 H192 H 0.68508 0.33158 -0.16484
 H193 H 0.71556 0.33270 -0.21971
 H194 H 0.65187 0.30212 -0.12222
 H195 H 0.66648 0.19934 -0.19198
 H196 H 0.63397 0.16954 -0.14846
 H197 H 0.59819 0.17084 -0.09612
 H198 H 0.61638 0.27400 -0.08158
 C199 C 0.31508 0.74021 -0.20432
 C200 C 0.32982 0.74213 -0.17277
 C201 C 0.32769 0.71576 -0.14845
 C202 C 0.30937 0.68866 -0.15566
 C203 C 0.29388 0.68734 -0.18693
 C204 C 0.29714 0.71272 -0.21195
 C205 C 0.34426 0.71677 -0.11754
 C206 C 0.36260 0.74401 -0.11064
 C207 C 0.36319 0.77116 -0.13444
 C208 C 0.34692 0.76998 -0.16539
 C209 C 0.38085 0.79868 -0.12722
 C210 C 0.39919 0.79863 -0.09733
 C211 C 0.40039 0.77097 -0.07428
 C212 C 0.38124 0.74409 -0.08075
 H213 H 0.31745 0.76049 -0.22280
 H214 H 0.30718 0.66838 -0.13717
 H215 H 0.28013 0.66593 -0.19169
 H216 H 0.34337 0.69614 -0.09911
 H217 H 0.34807 0.79048 -0.18392
 H218 H 0.38127 0.81982 -0.14508
 H219 H 0.41376 0.81958 -0.09297
 H220 H 0.38175 0.72274 -0.06299
 C221 C 0.20301 0.30069 0.27917
 C222 C 0.17489 0.32800 0.27710
 C223 C 0.16582 0.34383 0.24560
 C224 C 0.18513 0.33212 0.21674
 C225 C 0.21329 0.30519 0.21904
 C226 C 0.22259 0.28917 0.25021
 C227 C 0.13784 0.37124 0.24349
 C228 C 0.11910 0.38337 0.27256
 C229 C 0.12838 0.36762 0.30407
 C230 C 0.15599 0.33994 0.30611
 C231 C 0.11012 0.38003 0.33316
 C232 C 0.08316 0.40799 0.33120
 C233 C 0.07358 0.42395 0.30009
 C234 C 0.09152 0.41126 0.27074
 H235 H 0.20990 0.28876 0.30341
 H236 H 0.17859 0.34393 0.19238
 H237 H 0.22774 0.29686 0.19626
 H238 H 0.13092 0.38333 0.21930
 H239 H 0.16300 0.32793 0.33032
 H240 H 0.11687 0.36829 0.35750
 H241 H 0.06968 0.41708 0.35419
 H242 H 0.08452 0.42345 0.24663
 C243 C 0.20933 0.64241 0.73859
 C244 C 0.18349 0.62116 0.73319
 C245 C 0.16898 0.62031 0.70102
 C246 C 0.18094 0.64050 0.67471
 C247 C 0.20645 0.66183 0.68035
 C248 C 0.22071 0.66328 0.71237
 C249 C 0.14238 0.59977 0.69585
 C250 C 0.12972 0.58045 0.72260
 C251 C 0.14452 0.58121 0.75469
 C252 C 0.17145 0.60130 0.75970
 C253 C 0.13169 0.56234 0.78150
 C254 C 0.10386 0.54350 0.77690
 C255 C 0.08847 0.54280 0.74530
 C256 C 0.10197 0.56096 0.71803
 H257 H 0.21997 0.64317 0.76344
 H258 H 0.17021 0.64015 0.64986
 H259 H 0.21473 0.67746 0.65960
 H260 H 0.13109 0.59931 0.67122
 H261 H 0.18254 0.60197 0.78440
 H262 H 0.14278 0.56258 0.80622
 H263 H 0.09418 0.52959 0.79829
 H264 H 0.09024 0.56074 0.69359
 C265 C -0.21257 0.70339 0.28275
 C266 C -0.18480 0.67575 0.28038
 C267 C -0.18229 0.65476 0.25231
 C268 C -0.20771 0.66156 0.22721
 C269 C -0.23542 0.68883 0.22981
 C270 C -0.23833 0.71027 0.25753
 C271 C -0.15456 0.62717 0.24983
 C272 C -0.12950 0.61998 0.27533
 C273 C -0.13223 0.64083 0.30358
 C274 C -0.15965 0.66867 0.30581
 C275 C -0.10766 0.63331 0.32934
 C276 C -0.08085 0.60524 0.32741
 C277 C -0.07769 0.58429 0.29948
 C278 C -0.10201 0.59203 0.27330
 H279 H -0.21411 0.71931 0.30440
 H280 H -0.20626 0.64570 0.20553
 H281 H -0.25449 0.69307 0.20981
 H282 H -0.15268 0.61115 0.22821
 H283 H -0.16159 0.68463 0.32748
 H284 H -0.10935 0.64898 0.35117
 H285 H -0.06240 0.59999 0.34786
 H286 H -0.10001 0.57595 0.25175
 C287 C -0.19960 0.34889 0.71836
 C288 C -0.17280 0.36980 0.71460
 C289 C -0.15075 0.36844 0.68532
 C290 C -0.15663 0.34648 0.65989
 C291 C -0.18354 0.32556 0.66381
 C292 C -0.20507 0.32609 0.69335
 C293 C -0.12295 0.38862 0.68233
 C294 C -0.11685 0.40976 0.70851
 C295 C -0.13953 0.41126 0.73749
 C296 C -0.16742 0.39155 0.74020
 C297 C -0.13354 0.43187 0.76383
 C298 C -0.10460 0.45005 0.76216
 C299 C -0.08124 0.44838 0.73396
 C300 C -0.08795 0.42872 0.70677
 H301 H -0.21591 0.35026 0.74126
 H302 H -0.14013 0.34516 0.63714
 H303 H -0.18695 0.30859 0.64389
 H304 H -0.10570 0.38736 0.66003
 H305 H -0.18449 0.39258 0.76264
 H306 H -0.15080 0.43337 0.78610
 H307 H -0.10025 0.46522 0.78327
 H308 H -0.06999 0.42715 0.68497
 C309 C 0.26517 0.19090 0.33754
 C310 C 0.27037 0.16650 0.36396
 C311 C 0.30387 0.14548 0.36694
 C312 C 0.33191 0.14993 0.34423
 C313 C 0.32633 0.17370 0.31772
 C314 C 0.29276 0.19383 0.31361
 C315 C 0.30841 0.11939 0.39165
 C316 C 0.27956 0.11328 0.41280
 C317 C 0.24636 0.13486 0.41051
 C318 C 0.24213 0.16165 0.38645
 C319 C 0.21744 0.12836 0.43138
 C320 C 0.22075 0.09970 0.45292
 C321 C 0.25318 0.07723 0.45433
 C322 C 0.28289 0.08487 0.43500
 H323 H 0.23919 0.20626 0.33462
 H324 H 0.35781 0.13424 0.34628
 H325 H 0.34824 0.17577 0.29993
 H326 H 0.33391 0.10290 0.39342
 H327 H 0.21644 0.17774 0.38429
 H328 H 0.19187 0.14472 0.43016
 H329 H 0.19752 0.09459 0.46781
 H330 H 0.30801 0.06775 0.43585
 C331 C 0.75573 0.22398 0.63180
 C332 C 0.74941 0.19806 0.61062
 C333 C 0.71586 0.18595 0.61224
 C334 C 0.68907 0.20025 0.63466
 C335 C 0.69589 0.22532 0.65621
 C336 C 0.72936 0.23709 0.65534
 C337 C 0.71000 0.15900 0.59229
 C338 C 0.73765 0.14320 0.57150
 C339 C 0.77112 0.15546 0.56975
 C340 C 0.77658 0.18313 0.58887
 C341 C 0.79902 0.13917 0.54966
 C342 C 0.79430 0.11031 0.53241
 C343 C 0.76140 0.09748 0.53438
 C344 C 0.73283 0.11455 0.55338
 H345 H 0.78171 0.23270 0.63111
 H346 H 0.66319 0.19138 0.63621
 H347 H 0.67501 0.23525 0.67395
 H348 H 0.68437 0.14957 0.59383
 H349 H 0.80238 0.19224 0.58769
 H350 H 0.82480 0.14824 0.54794
 H351 H 0.81663 0.09779 0.51763
 H352 H 0.70743 0.10474 0.55517
 C353 C 0.26064 -0.23060 0.64927
 C354 C 0.26665 -0.20353 0.62726
 C355 C 0.29837 -0.18863 0.62948
 C356 C 0.32371 -0.20132 0.65341
 C357 C 0.31704 -0.22755 0.67585
 C358 C 0.28529 -0.24210 0.67427
 C359 C 0.30365 -0.16051 0.60864
 C360 C 0.27698 -0.14625 0.58651
 C361 C 0.24531 -0.16126 0.58424
 C362 C 0.24068 -0.19016 0.60412
 C363 C 0.21816 -0.14636 0.56299
 C364 C 0.22166 -0.11616 0.54516
 C365 C 0.25272 -0.10072 0.54762
 C366 C 0.28076 -0.11637 0.56766
 H367 H 0.23595 -0.24147 0.64806
 H368 H 0.34818 -0.19027 0.65546
 H369 H 0.33656 -0.23620 0.69478
 H370 H 0.32783 -0.14893 0.61060
 H371 H 0.21624 -0.20142 0.60255
 H372 H 0.19376 -0.15752 0.56091
 H373 H 0.19986 -0.10463 0.52959
 H374 H 0.30465 -0.10443 0.56985
 C375 C 0.73070 -0.18639 0.33495
 C376 C 0.72819 -0.16083 0.35878
 C377 C 0.69564 -0.13857 0.36317
 C378 C 0.66600 -0.14262 0.34426
 C379 C 0.66885 -0.16763 0.32033
 C380 C 0.70129 -0.18942 0.31499
 C381 C 0.69345 -0.11200 0.38568
 C382 C 0.72363 -0.10684 0.40340
 C383 C 0.75602 -0.12940 0.39947
 C384 C 0.75800 -0.15645 0.37748
 C385 C 0.78625 -0.12395 0.41692
 C386 C 0.78481 -0.09577 0.43708
 C387 C 0.75303 -0.07262 0.44050
 C388 C 0.72224 -0.07879 0.42412
 H389 H 0.75585 -0.20295 0.33106
 H390 H 0.64082 -0.12593 0.34741
 H391 H 0.64560 -0.16960 0.30563
 H392 H 0.66858 -0.09474 0.38865
 H393 H 0.78300 -0.17345 0.37421
 H394 H 0.81126 -0.14102 0.41436
 H395 H 0.80889 -0.09181 0.44960
 H396 H 0.69761 -0.06113 0.42647
 C397 C 0.67665 0.76313 -0.17725
 C398 C 0.64582 0.76687 -0.15640
 C399 C 0.62352 0.79860 -0.15542
 C400 C 0.63194 0.82574 -0.17619
 C401 C 0.66241 0.82165 -0.19745
 C402 C 0.68554 0.79045 -0.19794
 C403 C 0.59335 0.80265 -0.13359
 C404 C 0.58502 0.77518 -0.11310
 C405 C 0.60674 0.74315 -0.11502
 C406 C 0.63709 0.73926 -0.13648
 C407 C 0.59795 0.71554 -0.09518
 C408 C 0.56830 0.71971 -0.07308
 C409 C 0.54715 0.75163 -0.07011
 C410 C 0.55551 0.77924 -0.09049
 H411 H 0.69356 0.73862 -0.17735
 H412 H 0.61499 0.85020 -0.17595
 H413 H 0.66812 0.84322 -0.21300
 H414 H 0.57649 0.82714 -0.13244
 H415 H 0.65401 0.71479 -0.13755
 H416 H 0.61421 0.69079 -0.09651
 H417 H 0.56249 0.69810 -0.05765
 H418 H 0.53918 0.80394 -0.08863
 C419 C 0.32641 0.21919 -0.17428
 C420 C 0.35720 0.21667 -0.15501
 C421 C 0.37709 0.18439 -0.14793
 C422 C 0.36631 0.15529 -0.16114
 C423 C 0.33571 0.15808 -0.18065
 C424 C 0.31518 0.18997 -0.18695
 C425 C 0.40712 0.18176 -0.12750
 C426 C 0.41749 0.21105 -0.11421
 C427 C 0.39810 0.24338 -0.12217
 C428 C 0.36808 0.24597 -0.14247
 C429 C 0.40874 0.27262 -0.10929
 C430 C 0.43781 0.26989 -0.08801
 C431 C 0.45669 0.23787 -0.07907
 C432 C 0.44661 0.20852 -0.09267
 H433 H 0.31113 0.24403 -0.17934
 H434 H 0.38134 0.13035 -0.15613
 H435 H 0.32766 0.13523 -0.19019
 H436 H 0.42214 0.15696 -0.12165
 H437 H 0.35295 0.27076 -0.14817
 H438 H 0.39427 0.29759 -0.11529
 H439 H 0.44498 0.29287 -0.07791
 H440 H 0.46109 0.18367 -0.08616
 C441 C 0.27711 0.77904 0.19203
 C442 C 0.30154 0.77305 0.16481
 C443 C 0.30619 0.74121 0.14935
 C444 C 0.28595 0.71610 0.16101
 C445 C 0.26135 0.72234 0.18773
 C446 C 0.25661 0.75380 0.20384
 C447 C 0.33092 0.73498 0.12244
 C448 C 0.35080 0.76039 0.11047
 C449 C 0.34564 0.79245 0.12559
 C450 C 0.32126 0.79850 0.15274
 C451 C 0.36497 0.81802 0.11331
 C452 C 0.38936 0.81193 0.08645
 C453 C 0.39524 0.78004 0.07141
 C454 C 0.37575 0.75431 0.08361
 H455 H 0.27396 0.80355 0.20372
 H456 H 0.28906 0.69157 0.14939
 H457 H 0.24625 0.70218 0.19587
 H458 H 0.33461 0.71043 0.11077
 H459 H 0.31757 0.82306 0.16440
 H460 H 0.36129 0.84277 0.12453
 H461 H 0.40403 0.83220 0.07773
 H462 H 0.37988 0.72966 0.07219
 C463 C 0.70673 0.24143 0.18271
 C464 C 0.68302 0.24359 0.15579
 C465 C 0.66899 0.27588 0.14191
 C466 C 0.67865 0.30533 0.15503
 C467 C 0.70239 0.30298 0.18135
 C468 C 0.71690 0.27115 0.19541
 C469 C 0.64568 0.27837 0.11495
 C470 C 0.63620 0.24900 0.10138
 C471 C 0.65012 0.21664 0.11507
 C472 C 0.67340 0.21411 0.14223
 C473 C 0.64042 0.18738 0.10132
 C474 C 0.61702 0.19017 0.07447
 C475 C 0.60292 0.22227 0.06075
 C476 C 0.61285 0.25159 0.07436
 H477 H 0.71780 0.21674 0.19319
 H478 H 0.66807 0.33024 0.14474
 H479 H 0.70941 0.32635 0.19069
 H480 H 0.63502 0.30321 0.10445
 H481 H 0.68409 0.18928 0.15270
 H482 H 0.65079 0.16234 0.11141
 H483 H 0.60983 0.16713 0.06456
 H484 H 0.60214 0.27652 0.06418
 C485 C -0.17515 0.71491 0.74644
 C486 C -0.15171 0.68422 0.74883
 C487 C -0.15741 0.65976 0.77426
 C488 C -0.18678 0.66628 0.79659
 C489 C -0.21051 0.69662 0.79362
 C490 C -0.20502 0.72142 0.76858
 C491 C -0.13394 0.62904 0.77667
 C492 C -0.10541 0.62212 0.75339
 C493 C -0.10015 0.64639 0.72758
 C494 C -0.12301 0.67744 0.72575
 C495 C -0.07240 0.63896 0.70365
 C496 C -0.05033 0.60760 0.70498
 C497 C -0.05512 0.58347 0.73066
 C498 C -0.08247 0.59102 0.75506
 H499 H -0.17033 0.73339 0.72679
 H500 H -0.19163 0.64777 0.81617
 H501 H -0.23306 0.70060 0.81121
 H502 H -0.13823 0.61031 0.79626
 H503 H -0.11885 0.69608 0.70602
 H504 H -0.06808 0.65722 0.68366
 H505 H -0.02931 0.60227 0.68601
 H506 H -0.08654 0.57230 0.77471
 C507 C -0.17590 0.32931 0.28132
 C508 C -0.15812 0.35788 0.28374
 C509 C -0.16305 0.38421 0.25883
 C510 C -0.18656 0.38232 0.23277
 C511 C -0.20449 0.35421 0.23074
 C512 C -0.19899 0.32696 0.25453
 C513 C -0.14391 0.41180 0.25991
 C514 C -0.11982 0.41349 0.28559
 C515 C -0.11588 0.38807 0.31143
 C516 C -0.13509 0.36034 0.31035
 C517 C -0.09202 0.39046 0.33733
 C518 C -0.07104 0.41686 0.33668
 C519 C -0.07350 0.44104 0.31001
 C520 C -0.09868 0.43970 0.28509
 H521 H -0.17154 0.30897 0.30022
 H522 H -0.19081 0.40246 0.21365
 H523 H -0.22213 0.35366 0.20990
 H524 H -0.14716 0.43157 0.24032
 H525 H -0.13155 0.34041 0.32975
 H526 H -0.08883 0.37138 0.35752
 H527 H -0.05168 0.41743 0.35609
 H528 H -0.10099 0.45852 0.26461
 C529 C 0.17876 0.26847 0.75508
 C530 C 0.15558 0.29931 0.75633
 C531 C 0.15335 0.31868 0.78556
 C532 C 0.17476 0.30698 0.81290
 C533 C 0.19850 0.27660 0.81111
 C534 C 0.20063 0.25710 0.78225
 C535 C 0.13022 0.34963 0.78674
 C536 C 0.11004 0.36183 0.75874
 C537 C 0.11284 0.34267 0.72932
 C538 C 0.13521 0.31134 0.72847
 C539 C 0.09355 0.35536 0.70102
 C540 C 0.07182 0.38687 0.70172
 C541 C 0.06850 0.40595 0.73089
 C542 C 0.08750 0.39316 0.75946
 H543 H 0.18056 0.25382 0.73252
 H544 H 0.17351 0.32154 0.83546
 H545 H 0.21509 0.26827 0.83237
 H546 H 0.12837 0.36445 0.80920
 H547 H 0.13722 0.29662 0.70593
 H548 H 0.09549 0.34104 0.67826
 H549 H 0.05727 0.39618 0.67947
 H550 H 0.08530 0.40789 0.78197
 C551 C 0.16598 0.68597 0.25939
 C552 C 0.14383 0.66173 0.26957
 C553 C 0.12143 0.66700 0.29852
 C554 C 0.12132 0.69648 0.31666
 C555 C 0.14283 0.72078 0.30609
 C556 C 0.16549 0.71598 0.27732
 C557 C 0.09901 0.64304 0.30859
 C558 C 0.09789 0.61429 0.28951
 C559 C 0.12003 0.60918 0.26033
 C560 C 0.14324 0.63263 0.25085
 C561 C 0.11796 0.58109 0.24062
 C562 C 0.09348 0.55882 0.24919
 C563 C 0.07130 0.56374 0.27804
 C564 C 0.07412 0.59115 0.29853
 H565 H 0.18301 0.68164 0.23713
 H566 H 0.10426 0.70097 0.33887
 H567 H 0.14166 0.74335 0.32076
 H568 H 0.08182 0.64718 0.33079
 H569 H 0.16018 0.62865 0.22847
 H570 H 0.13466 0.57679 0.21817
 H571 H 0.09176 0.53773 0.23314
 H572 H 0.05674 0.59527 0.32059
 C573 C 0.73694 -0.14197 0.70209
 C574 C 0.74462 -0.11992 0.67527
 C575 C 0.77937 -0.12364 0.66020
 C576 C 0.80601 -0.14880 0.67258
 C577 C 0.79809 -0.17083 0.69885
 C578 C 0.76341 -0.16808 0.71359
 C579 C 0.78676 -0.10275 0.63248
 C580 C 0.75967 -0.07851 0.61915
 C581 C 0.72506 -0.07444 0.63454
 C582 C 0.71785 -0.09491 0.66263
 C583 C 0.69791 -0.05049 0.62109
 C584 C 0.70455 -0.03152 0.59207
 C585 C 0.73857 -0.03582 0.57597
 C586 C 0.76630 -0.05896 0.59011
 H587 H 0.71010 -0.13955 0.71311
 H588 H 0.83283 -0.15193 0.66149
 H589 H 0.81920 -0.19043 0.70732
 H590 H 0.81333 -0.10596 0.62079
 H591 H 0.69117 -0.09195 0.67410
 H592 H 0.67129 -0.04690 0.63260
 H593 H 0.68272 -0.01370 0.58196
 H594 H 0.79261 -0.06259 0.57794
 C595 C 0.23177 -0.15821 0.29939
 C596 C 0.23006 -0.13290 0.32339
 C597 C 0.19755 -0.12292 0.34144
 C598 C 0.16707 -0.13752 0.33444
 C599 C 0.16926 -0.16325 0.31129
 C600 C 0.20174 -0.17441 0.29418
 C601 C 0.19639 -0.09972 0.36726
 C602 C 0.22760 -0.08719 0.37611
 C603 C 0.25989 -0.09646 0.35753
 C604 C 0.26078 -0.11880 0.33096
 C605 C 0.29115 -0.08432 0.36675
 C606 C 0.29090 -0.06463 0.39505
 C607 C 0.25929 -0.05632 0.41450
 C608 C 0.22742 -0.06685 0.40423
 H609 H 0.25698 -0.16683 0.28648
 H610 H 0.14191 -0.13004 0.34786
 H611 H 0.14566 -0.17514 0.30744
 H612 H 0.17160 -0.09264 0.38145
 H613 H 0.28574 -0.12639 0.31720
 H614 H 0.31609 -0.09096 0.35272
 H615 H 0.31579 -0.05658 0.40218
 H616 H 0.20288 -0.06065 0.41900
 C617 C 0.76222 0.18606 0.29348
 C618 C 0.76862 0.15955 0.31782
 C619 C 0.79726 0.15884 0.34006
 C620 C 0.81941 0.18426 0.33717
 C621 C 0.81257 0.21077 0.31330
 C622 C 0.78365 0.21231 0.29151
 C623 C 0.80264 0.13342 0.36550
 C624 C 0.77908 0.10922 0.36967
 C625 C 0.75073 0.10965 0.34711
 C626 C 0.74604 0.13443 0.32105
 C627 C 0.72655 0.08615 0.35184
 C628 C 0.72920 0.06369 0.37962
 C629 C 0.75659 0.06366 0.40273
 C630 C 0.78225 0.08571 0.39703
 H631 H 0.73983 0.18686 0.27692
 H632 H 0.84157 0.18408 0.35388
 H633 H 0.82982 0.23036 0.31222
 H634 H 0.82432 0.13326 0.38279
 H635 H 0.72400 0.13494 0.30409
 H636 H 0.70473 0.08603 0.33479
 H637 H 0.70921 0.04681 0.38356
 H638 H 0.80314 0.08613 0.41504
 C639 C 0.26699 0.12518 0.71603
 C640 C 0.26115 0.10449 0.68945
 C641 C 0.22626 0.10588 0.67685
 C642 C 0.19772 0.12735 0.69147
 C643 C 0.20384 0.14826 0.71741
 C644 C 0.23855 0.14786 0.72960
 C645 C 0.22061 0.08658 0.64923
 C646 C 0.24953 0.06644 0.63351
 C647 C 0.28432 0.06466 0.64644
 C648 C 0.28984 0.08338 0.67451
 C649 C 0.31326 0.04486 0.63053
 C650 C 0.30806 0.02784 0.60150
 C651 C 0.27377 0.02997 0.58789
 C652 C 0.24442 0.04885 0.60448
 H653 H 0.29389 0.12471 0.72508
 H654 H 0.17079 0.12864 0.68226
 H655 H 0.18134 0.16523 0.72759
 H656 H 0.19390 0.08802 0.63939
 H657 H 0.31662 0.08227 0.68409
 H658 H 0.34007 0.04309 0.64013
 H659 H 0.33114 0.01327 0.58944
 H660 H 0.21787 0.05073 0.59425
   
