data_POSCAR
  _audit_creation_date              2014-09-24
  _audit_creation_method            'ToBaCCo'
  _symmetry_space_group_name_H-M    'P1'
  _symmetry_Int_Tables_number       1
  _symmetry_cell_setting            triclinic
  loop_
  _symmetry_equiv_pos_as_xyz
 x,y,z
_cell_length_a 26.2696
_cell_length_b 27.6829
_cell_length_c 14.3098
_cell_angle_alpha 89.870100
_cell_angle_beta 89.862500
_cell_angle_gamma 90.124300
loop_
  _atom_site_label
  _atom_site_type_symbol
  _atom_site_fract_x
  _atom_site_fract_y
  _atom_site_fract_z
C1 C 0.82579 0.17627 0.41675
 C2 C 0.84359 0.15850 0.50194
 C3 C 0.82552 0.17619 0.58704
 C4 C 0.78836 0.21302 0.58808
 C5 C 0.76984 0.23150 0.50189
 C6 C 0.78859 0.21307 0.41569
 C7 C 0.76966 0.23191 0.33133
 C8 C 0.73298 0.26815 0.33133
 C9 C 0.71396 0.28684 0.41564
 C10 C 0.73249 0.26843 0.50184
 C11 C 0.76923 0.23181 0.67240
 C12 C 0.73256 0.26811 0.67232
 C13 C 0.71367 0.28692 0.58793
 C14 C 0.67643 0.32374 0.58658
 C15 C 0.65869 0.34135 0.50122
 C16 C 0.67682 0.32351 0.41644
 H17 H 0.78312 0.21869 0.26455
 H18 H 0.71959 0.28146 0.26458
 H19 H 0.78256 0.21852 0.73921
 H20 H 0.71905 0.28137 0.73903
 H21 H 0.87219 0.13012 0.50202
 H22 H 0.63004 0.36965 0.50052
 C23 C 0.17745 0.82416 0.58698
 C24 C 0.15952 0.84199 0.50202
 C25 C 0.17713 0.82407 0.41695
 C26 C 0.21400 0.78708 0.41581
 C27 C 0.23265 0.76855 0.50192
 C28 C 0.21429 0.78716 0.58806
 C29 C 0.23317 0.76831 0.67238
 C30 C 0.26954 0.73172 0.67236
 C31 C 0.28828 0.71271 0.58795
 C32 C 0.26964 0.73133 0.50185
 C33 C 0.23263 0.76818 0.33141
 C34 C 0.26902 0.73164 0.33131
 C35 C 0.28794 0.71278 0.41561
 C36 C 0.32474 0.67580 0.41639
 C37 C 0.34272 0.65781 0.50117
 C38 C 0.32517 0.67558 0.58656
 H39 H 0.21990 0.78178 0.73909
 H40 H 0.28294 0.71836 0.73908
 H41 H 0.21917 0.78156 0.26475
 H42 H 0.28224 0.71822 0.26453
 H43 H 0.13108 0.87043 0.50212
 H44 H 0.37111 0.62929 0.50046
 C45 C 0.17411 0.17607 -0.41598
 C46 C 0.15628 0.15823 -0.50100
 C47 C 0.17437 0.17597 -0.58627
 C48 C 0.21160 0.21289 -0.58766
 C49 C 0.23015 0.23143 -0.50163
 C50 C 0.21136 0.21297 -0.41526
 C51 C 0.23033 0.23187 -0.33108
 C52 C 0.26707 0.26821 -0.33142
 C53 C 0.28612 0.28693 -0.41590
 C54 C 0.26756 0.26847 -0.50193
 C55 C 0.23076 0.23172 -0.67214
 C56 C 0.26749 0.26811 -0.67241
 C57 C 0.28641 0.28699 -0.58819
 C58 C 0.32372 0.32390 -0.58718
 C59 C 0.34148 0.34158 -0.50198
 C60 C 0.32333 0.32370 -0.41704
 H61 H 0.21684 0.21863 -0.26417
 H62 H 0.28048 0.28156 -0.26479
 H63 H 0.21742 0.21838 -0.73884
 H64 H 0.28103 0.28140 -0.73924
 H65 H 0.12762 0.12980 -0.50081
 H66 H 0.37019 0.36994 -0.50155
 C67 C -0.32500 0.67506 -0.41724
 C68 C -0.34265 0.65727 -0.50242
 C69 C -0.32482 0.67544 -0.58751
 C70 C -0.28799 0.71278 -0.58832
 C71 C -0.26965 0.73124 -0.50198
 C72 C -0.28820 0.71231 -0.41593
 C73 C -0.26948 0.73111 -0.33141
 C74 C -0.23317 0.76783 -0.33112
 C75 C -0.21433 0.78706 -0.41527
 C76 C -0.23268 0.76868 -0.50162
 C77 C -0.26904 0.73212 -0.67248
 C78 C -0.23274 0.76889 -0.67211
 C79 C -0.21407 0.78767 -0.58756
 C80 C -0.17723 0.82494 -0.58596
 C81 C -0.15963 0.84257 -0.50060
 C82 C -0.17752 0.82425 -0.41584
 H83 H -0.28283 0.71747 -0.26470
 H84 H -0.21994 0.78108 -0.26430
 H85 H -0.28221 0.71888 -0.73936
 H86 H -0.21934 0.78257 -0.73874
 H87 H -0.37101 0.62856 -0.50249
 H88 H -0.13123 0.87119 -0.49992
 N89 N 0.05311 1.05231 0.16487
 N90 N 0.08440 1.06291 0.23366
 N91 N -0.05370 1.08710 0.10257
 N92 N -0.08433 1.12258 0.12851
 N93 N -0.05392 1.05244 0.16549
 N94 N -0.08488 1.06319 0.23491
 N95 N 0.05314 1.08693 0.10184
 N96 N 0.08427 1.12221 0.12701
 C97 C 0.10439 1.10588 0.20813
 C98 C -0.10443 1.10631 0.20998
 N99 N -0.05388 1.05245 -0.16306
 N100 N -0.08510 1.06310 -0.23195
 N101 N 0.05313 1.08702 -0.10099
 N102 N 0.08398 1.12246 -0.12724
 N103 N 0.05316 1.05235 -0.16359
 N104 N 0.08419 1.06305 -0.23310
 N105 N -0.05371 1.08704 -0.10029
 N106 N -0.08462 1.12238 -0.12576
 Mn107 Mn -0.00029 1.08748 0.00078
 C108 C -0.10483 1.10608 -0.20675
 C109 C 0.10399 1.10616 -0.20855
 N110 N -0.05432 0.94864 0.16569
 N111 N -0.08591 0.93814 0.23444
 N112 N 0.05250 0.91393 0.10260
 N113 N 0.08373 0.87875 0.12754
 N114 N 0.05275 0.94850 0.16536
 N115 N 0.08428 0.93796 0.23386
 N116 N -0.05437 0.91411 0.10281
 N117 N -0.08582 0.87899 0.12796
 Mn118 Mn -0.00059 1.00047 0.16571
 C119 C -0.10610 0.89532 0.20897
 C120 C 0.10414 0.89506 0.20835
 N121 N 0.05283 0.94854 -0.16289
 N122 N 0.08466 0.93811 -0.23115
 N123 N -0.05429 0.91405 -0.09971
 N124 N -0.08545 0.87878 -0.12488
 N125 N -0.05425 0.94865 -0.16273
 N126 N -0.08554 0.93806 -0.23155
 N127 N 0.05258 0.91402 -0.09970
 N128 N 0.08409 0.87899 -0.12406
 Mn129 Mn -0.00053 1.00049 -0.16342
 Mn130 Mn -0.00091 0.91358 0.00150
 Cl131 Cl -0.00059 1.00053 0.00114
 C132 C 0.10467 0.89535 -0.20498
 C133 C -0.10556 0.89510 -0.20605
 N134 N 0.55430 0.58589 -0.10302
 N135 N 0.58531 0.62122 -0.12902
 N136 N 0.44724 0.55153 -0.16534
 N137 N 0.41590 0.56224 -0.23407
 N138 N 0.44745 0.58607 -0.10248
 N139 N 0.41643 0.62138 -0.12764
 N140 N 0.55429 0.55124 -0.16566
 N141 N 0.58546 0.56183 -0.23496
 C142 C 0.60537 0.60484 -0.21019
 C143 C 0.39613 0.60519 -0.20865
 N144 N 0.44691 0.41307 -0.10178
 N145 N 0.41556 0.37792 -0.12671
 N146 N 0.55396 0.44744 -0.16535
 N147 N 0.58533 0.43678 -0.23423
 N148 N 0.55377 0.41290 -0.10220
 N149 N 0.58485 0.37762 -0.12730
 N150 N 0.44690 0.44771 -0.16472
 N151 N 0.41540 0.43729 -0.23326
 Mn152 Mn 0.50059 0.49948 -0.16562
 C153 C 0.39532 0.39439 -0.20762
 C154 C 0.60516 0.39385 -0.20860
 N155 N 0.44747 0.58597 0.10006
 N156 N 0.41639 0.62120 0.12524
 N157 N 0.55425 0.55139 0.16287
 N158 N 0.58533 0.56216 0.23194
 N159 N 0.55432 0.58596 0.09977
 N160 N 0.58526 0.62138 0.12517
 N161 N 0.44720 0.55134 0.16302
 N162 N 0.41577 0.56185 0.23182
 Mn163 Mn 0.50090 0.58642 -0.00142
 C164 C 0.39601 0.60480 0.20633
 C165 C 0.60525 0.60519 0.20653
 N166 N 0.55368 0.41297 0.10041
 N167 N 0.58482 0.37778 0.12562
 N168 N 0.44682 0.44753 0.16362
 N169 N 0.41538 0.43690 0.23260
 N170 N 0.44682 0.41298 0.10079
 N171 N 0.41554 0.37773 0.12621
 N172 N 0.55388 0.44759 0.16309
 N173 N 0.58531 0.43712 0.23172
 Mn174 Mn 0.50030 0.41252 -0.00069
 Mn175 Mn 0.50054 0.49946 0.16351
 Cl176 Cl 0.50059 0.49947 -0.00106
 C177 C 0.60515 0.39420 0.20642
 C178 C 0.39531 0.39398 0.20735
 C179 C 0.34435 0.34412 0.33394
 C180 C 0.36588 0.36520 0.27138
 C181 C -0.15677 0.84540 0.33542
 C182 C -0.13542 0.86656 0.27291
 C183 C 0.65511 0.65525 0.33345
 C184 C 0.63410 0.63412 0.27071
 C185 C 0.15425 1.15574 0.33493
 C186 C 0.13326 1.13469 0.27221
 C187 C 0.65588 0.34395 -0.33473
 C188 C 0.63445 0.36504 -0.27236
 C189 C 0.15594 0.84547 -0.32989
 C190 C 0.13430 0.86666 -0.26808
 C191 C 0.34560 0.65526 -0.33477
 C192 C 0.36694 0.63407 -0.27242
 C193 C -0.15444 1.15598 -0.33397
 C194 C -0.13355 1.13493 -0.27106
 C195 C 0.65486 0.65467 -0.33828
 C196 C 0.63401 0.63363 -0.27507
 C197 C 0.15379 1.15593 -0.33677
 C198 C 0.13275 1.13496 -0.27351
 C199 C 0.34476 0.34481 -0.33375
 C200 C 0.36611 0.36578 -0.27140
 C201 C -0.15613 0.84533 -0.33229
 C202 C -0.13475 0.86637 -0.26993
 C203 C 0.34592 0.65458 0.33290
 C204 C 0.36706 0.63352 0.27037
 C205 C -0.15398 1.15612 0.33773
 C206 C -0.13304 1.13515 0.27466
 C207 C 0.65546 0.34460 0.33295
 C208 C 0.63421 0.36556 0.27042
 C209 C 0.15536 0.84528 0.33380
 C210 C 0.13367 0.86638 0.27184
   
