data_POSCAR
  _audit_creation_date              2014-09-24
  _audit_creation_method            'ToBaCCo'
  _symmetry_space_group_name_H-M    'P1'
  _symmetry_Int_Tables_number       1
  _symmetry_cell_setting            triclinic
  loop_
  _symmetry_equiv_pos_as_xyz
 x,y,z
_cell_length_a 34.4273
_cell_length_b 34.5699
_cell_length_c 34.4267
_cell_angle_alpha 78.895600
_cell_angle_beta 73.811700
_cell_angle_gamma 100.971400
loop_
  _atom_site_label
  _atom_site_type_symbol
  _atom_site_fract_x
  _atom_site_fract_y
  _atom_site_fract_z
O1 O 0.54149 0.49596 0.03462
 O2 O 0.43302 0.48208 0.03382
 O3 O 0.48571 0.43695 0.02895
 O4 O 0.48859 0.54133 0.03944
 O5 O 0.51222 0.56471 -0.02938
 O6 O 0.50917 0.46033 -0.03986
 O7 O 0.45630 0.50578 -0.03489
 O8 O 0.56483 0.51947 -0.03418
 Cu9 Cu 0.48490 0.48677 0.04110
 Cu10 Cu 0.51294 0.51488 -0.04147
 C11 C 0.57175 0.50992 0.00034
 C12 C 0.42596 0.49172 -0.00063
 C13 C 0.49709 0.43078 -0.00724
 C14 C 0.50075 0.57089 0.00681
 O15 O -0.03902 0.54134 0.51056
 O16 O -0.02985 0.43666 0.51202
 O17 O -0.03329 0.48118 0.56520
 O18 O -0.03560 0.49663 0.45712
 O19 O 0.03321 0.51951 0.43303
 O20 O 0.03552 0.50418 0.54110
 O21 O 0.03897 0.45940 0.48775
 O22 O 0.02973 0.56408 0.48616
 Cu23 Cu -0.04133 0.48671 0.51360
 Cu24 Cu 0.04125 0.51404 0.48462
 C25 C -0.00622 0.57073 0.49829
 C26 C 0.00613 0.43011 0.49999
 C27 C 0.00149 0.49021 0.57167
 C28 C -0.00157 0.51054 0.42655
 O29 O 0.50205 0.03300 0.54644
 O30 O 0.51659 0.03343 0.43623
 O31 O 0.45414 0.03368 0.49940
 O32 O 0.56427 0.03276 0.48304
 O33 O 0.54584 -0.03455 0.50120
 O34 O 0.43574 -0.03364 0.51744
 O35 O 0.49801 -0.03388 0.45411
 O36 O 0.48332 -0.03424 0.56432
 Cu37 Cu 0.51107 0.03995 0.48953
 Cu38 Cu 0.48892 -0.04081 0.51103
 C39 C 0.49034 -0.00070 0.57436
 C40 C 0.50963 -0.00015 0.42631
 C41 C 0.42610 0.00017 0.51102
 C42 C 0.57390 -0.00104 0.48950
 O43 O 0.46374 -0.00405 -0.04294
 O44 O 0.46528 -0.01774 0.06534
 O45 O 0.45924 0.04144 0.00981
 O46 O 0.46974 -0.06298 0.01283
 O47 O 0.53852 -0.03962 -0.01124
 O48 O 0.52802 0.06477 -0.01412
 O49 O 0.53404 0.00575 0.04157
 O50 O 0.53249 0.01963 -0.06672
 Cu51 Cu 0.45760 -0.01314 0.01361
 Cu52 Cu 0.54016 0.01495 -0.01499
 C53 C 0.49788 0.00999 -0.07338
 C54 C 0.49990 -0.00822 0.07201
 C55 C 0.49185 0.07098 -0.00248
 C56 C 0.50591 -0.06917 0.00115
 O57 O -0.04591 0.53407 0.99695
 O58 O 0.06416 0.53381 0.98234
 O59 O 0.01730 0.53346 0.93474
 O60 O 0.00116 0.53445 1.04481
 O61 O -0.01726 0.46713 1.06345
 O62 O -0.00101 0.46615 0.95336
 O63 O 0.04598 0.46650 1.00130
 O64 O -0.06404 0.46676 1.01576
 Cu65 Cu 0.01096 0.54070 0.98788
 Cu66 Cu -0.01087 0.45989 1.01030
 C67 C -0.07381 0.50044 1.00868
 C68 C 0.07390 0.50012 0.98949
 C69 C 0.01075 0.49965 0.92521
 C70 C -0.01065 0.50095 1.07297
 O71 O 0.01170 -0.04154 0.46061
 O72 O 0.01291 0.06305 0.46985
 O73 O 0.06617 0.01854 0.46647
 O74 O -0.04186 0.00315 0.46410
 O75 O -0.06595 -0.01987 0.53295
 O76 O 0.04206 -0.00460 0.53530
 O77 O -0.01137 0.04019 0.53871
 O78 O -0.01273 -0.06444 0.52946
 Cu79 Cu 0.01461 0.01305 0.45836
 Cu80 Cu -0.01439 -0.01444 0.54101
 C81 C -0.00056 -0.07088 0.49345
 C82 C 0.00083 0.06952 0.50585
 C83 C 0.07262 0.00944 0.50127
 C84 C -0.07242 -0.01082 0.49815
 C85 C -0.35073 0.53356 0.96344
 C86 C -0.30959 0.53704 0.96335
 C87 C -0.30142 0.52124 1.00008
 C88 C -0.33527 0.50308 1.03742
 C89 C -0.37643 0.49984 1.03759
 C90 C -0.38464 0.51467 1.00051
 C91 C -0.25736 0.52468 0.99834
 C92 C -0.24606 0.49804 1.02409
 C93 C -0.20182 0.49983 1.02054
 C94 C -0.19124 0.46357 1.03421
 C95 C -0.14974 0.46377 1.03056
 C96 C -0.11795 0.50044 1.01367
 C97 C -0.12870 0.53696 1.00102
 C98 C -0.17019 0.53670 1.00441
 H99 H -0.35596 0.54555 0.93440
 H100 H -0.28406 0.55152 0.93428
 H101 H -0.33013 0.49173 1.06664
 H102 H -0.40184 0.48541 1.06674
 H103 H -0.23340 0.54818 0.97299
 H104 H -0.26973 0.47212 1.04670
 H105 H -0.21508 0.43484 1.04713
 H106 H -0.14256 0.43515 1.04086
 H107 H -0.10500 0.56575 0.98817
 H108 H -0.17738 0.56543 0.99479
 C109 C 0.35053 0.47073 1.03683
 C110 C 0.30941 0.46713 1.03686
 C111 C 0.30114 0.48039 0.99958
 C112 C 0.33484 0.49608 0.96183
 C113 C 0.37601 0.49939 0.96166
 C114 C 0.38452 0.48718 0.99924
 C115 C 0.25712 0.47689 1.00122
 C116 C 0.24608 0.50241 0.97416
 C117 C 0.20187 0.50068 0.97764
 C118 C 0.19151 0.53673 0.96279
 C119 C 0.15001 0.53655 0.96647
 C120 C 0.11803 0.50009 0.98449
 C121 C 0.12857 0.46374 0.99828
 C122 C 0.17005 0.46400 0.99492
 H123 H 0.35556 0.46068 1.06643
 H124 H 0.28394 0.45456 1.06629
 H125 H 0.32952 0.50541 0.93230
 H126 H 0.40114 0.51184 0.93198
 H127 H 0.23302 0.45451 1.02749
 H128 H 0.26994 0.52745 0.95049
 H129 H 0.21552 0.56530 0.94898
 H130 H 0.14298 0.56503 0.95526
 H131 H 0.10470 0.43509 1.01204
 H132 H 0.17710 0.43540 1.00550
 C133 C -0.04911 -0.38163 0.51370
 C134 C -0.05233 -0.34218 0.51512
 C135 C -0.01644 -0.30940 0.50080
 C136 C 0.02300 -0.31692 0.48545
 C137 C 0.02634 -0.35639 0.48431
 C138 C -0.00967 -0.38940 0.49851
 C139 C -0.02105 -0.26833 0.50431
 C140 C 0.00644 -0.23366 0.47894
 C141 C 0.00257 -0.19259 0.48322
 C142 C 0.02075 -0.15918 0.44782
 C143 C 0.01911 -0.11975 0.45095
 C144 C -0.00021 -0.11282 0.48979
 C145 C -0.01826 -0.14626 0.52531
 C146 C -0.01692 -0.18573 0.52210
 H147 H -0.07761 -0.40608 0.52506
 H148 H -0.08304 -0.33723 0.52744
 H149 H 0.05147 -0.29263 0.47531
 H150 H 0.05731 -0.36097 0.47261
 H151 H -0.04891 -0.26682 0.52761
 H152 H 0.03201 -0.23510 0.45295
 H153 H 0.03629 -0.16361 0.41761
 H154 H 0.03354 -0.09463 0.42304
 H155 H -0.03316 -0.14192 0.55573
 H156 H -0.03017 -0.21054 0.55032
 C157 C 0.04882 0.38091 0.48187
 C158 C 0.05197 0.34144 0.48047
 C159 C 0.01635 0.30825 0.49749
 C160 C -0.02277 0.31541 0.51556
 C161 C -0.02598 0.35491 0.51671
 C162 C 0.00976 0.38812 0.49982
 C163 C 0.02078 0.26714 0.49390
 C164 C -0.00568 0.23244 0.52038
 C165 C -0.00200 0.19133 0.51600
 C166 C -0.01897 0.15811 0.55166
 C167 C -0.01747 0.11866 0.54853
 C168 C 0.00054 0.11149 0.50947
 C169 C 0.01737 0.14473 0.47370
 C170 C 0.01611 0.18422 0.47688
 H171 H 0.07692 0.40585 0.46836
 H172 H 0.08239 0.33680 0.46603
 H173 H -0.05114 0.29082 0.52784
 H174 H -0.05657 0.35946 0.53051
 H175 H 0.04775 0.26567 0.46943
 H176 H -0.03019 0.23389 0.54732
 H177 H -0.03345 0.16272 0.58207
 H178 H -0.03093 0.09369 0.57665
 H179 H 0.03122 0.14022 0.44310
 H180 H 0.02835 0.20882 0.44848
 C181 C 0.47162 -0.03799 -0.35220
 C182 C 0.46781 -0.03826 -0.31066
 C183 C 0.47836 -0.00171 -0.29952
 C184 C 0.49145 0.03543 -0.33057
 C185 C 0.49494 0.03582 -0.37211
 C186 C 0.48552 -0.00093 -0.38365
 C187 C 0.47479 -0.00350 -0.25528
 C188 C 0.49905 0.02443 -0.24400
 C189 C 0.49751 0.02107 -0.20001
 C190 C 0.53388 0.03833 -0.19208
 C191 C 0.53398 0.03491 -0.15100
 C192 C 0.49742 0.01467 -0.11691
 C193 C 0.46064 -0.00160 -0.12485
 C194 C 0.46065 0.00152 -0.16596
 H195 H 0.46375 -0.06696 -0.35956
 H196 H 0.45725 -0.06725 -0.28721
 H197 H 0.49858 0.06428 -0.32285
 H198 H 0.50535 0.06504 -0.39518
 H199 H 0.45370 -0.03034 -0.23168
 H200 H 0.52315 0.04904 -0.26797
 H201 H 0.56255 0.05389 -0.21778
 H202 H 0.56276 0.04804 -0.14595
 H203 H 0.43189 -0.01713 -0.09928
 H204 H 0.43169 -0.01104 -0.17094
 C205 C 0.53127 0.03688 0.35043
 C206 C 0.53485 0.03730 0.30890
 C207 C 0.52133 0.00113 0.29819
 C208 C 0.50546 -0.03586 0.32971
 C209 C 0.50214 -0.03633 0.37122
 C210 C 0.51461 0.00009 0.38212
 C211 C 0.52471 0.00314 0.25394
 C212 C 0.49893 -0.02343 0.24269
 C213 C 0.50043 -0.01981 0.19866
 C214 C 0.46363 -0.03567 0.19070
 C215 C 0.46347 -0.03208 0.14962
 C216 C 0.50036 -0.01302 0.11555
 C217 C 0.53751 0.00189 0.12353
 C218 C 0.53759 -0.00146 0.16464
 H219 H 0.54143 0.06544 0.35772
 H220 H 0.54757 0.06613 0.28514
 H221 H 0.49597 -0.06453 0.32241
 H222 H 0.48947 -0.06522 0.39485
 H223 H 0.54716 0.02916 0.23027
 H224 H 0.47373 -0.04703 0.26669
 H225 H 0.43470 -0.05030 0.21637
 H226 H 0.43439 -0.04414 0.14457
 H227 H 0.56652 0.01645 0.09798
 H228 H 0.56685 0.00996 0.16960
 C229 C 0.48359 -0.38028 0.05018
 C230 C 0.48246 -0.34087 0.05369
 C231 C 0.49927 -0.30751 0.01817
 C232 C 0.51692 -0.31439 -0.02117
 C233 C 0.51782 -0.35381 -0.02472
 C234 C 0.50106 -0.38721 0.01088
 C235 C 0.49574 -0.26650 0.02287
 C236 C 0.52211 -0.23180 -0.00365
 C237 C 0.51738 -0.19079 -0.00017
 C238 C 0.55282 -0.15743 -0.01723
 C239 C 0.54928 -0.11800 -0.01616
 C240 C 0.51001 -0.11107 0.00150
 C241 C 0.47448 -0.14448 0.01850
 C242 C 0.47807 -0.18391 0.01767
 H243 H 0.47021 -0.40539 0.07817
 H244 H 0.46833 -0.33641 0.08426
 H245 H 0.52899 -0.28965 -0.04944
 H246 H 0.53125 -0.35816 -0.05549
 H247 H 0.47130 -0.26512 0.04991
 H248 H 0.54906 -0.23319 -0.02819
 H249 H 0.58337 -0.16188 -0.03151
 H250 H 0.57722 -0.09289 -0.02973
 H251 H 0.44375 -0.14012 0.03209
 H252 H 0.44985 -0.20866 0.02995
 C253 C 0.51419 0.38202 -0.05070
 C254 C 0.51531 0.34262 -0.05429
 C255 C 0.49854 0.30923 -0.01881
 C256 C 0.48095 0.31605 0.02057
 C257 C 0.48006 0.35546 0.02420
 C258 C 0.49677 0.38890 -0.01136
 C259 C 0.50206 0.26825 -0.02360
 C260 C 0.47570 0.23352 0.00286
 C261 C 0.48041 0.19254 -0.00077
 C262 C 0.44496 0.15918 0.01619
 C263 C 0.44849 0.11978 0.01497
 C264 C 0.48775 0.11286 -0.00273
 C265 C 0.52329 0.14626 -0.01964
 C266 C 0.51971 0.18567 -0.01866
 H267 H 0.52754 0.40716 -0.07868
 H268 H 0.52941 0.33821 -0.08489
 H269 H 0.46889 0.29127 0.04882
 H270 H 0.46667 0.35977 0.05499
 H271 H 0.52648 0.26691 -0.05068
 H272 H 0.44877 0.23486 0.02746
 H273 H 0.41442 0.16362 0.03051
 H274 H 0.42054 0.09467 0.02848
 H275 H 0.55402 0.14192 -0.03325
 H276 H 0.54794 0.21041 -0.03086
 C277 C -0.35003 0.03525 0.46711
 C278 C -0.30852 0.03518 0.46305
 C279 C -0.29806 -0.00128 0.47617
 C280 C -0.32978 -0.03807 0.49204
 C281 C -0.37129 -0.03805 0.49583
 C282 C -0.38194 -0.00133 0.48385
 C283 C -0.25387 0.00024 0.47257
 C284 C -0.24278 -0.02663 0.49829
 C285 C -0.19884 -0.02318 0.49692
 C286 C -0.19101 -0.03898 0.53386
 C287 C -0.14999 -0.03523 0.53422
 C288 C -0.11587 -0.01608 0.49740
 C289 C -0.12371 -0.00136 0.46009
 C290 C -0.16476 -0.00486 0.45981
 H291 H -0.35714 0.06403 0.45730
 H292 H -0.28459 0.06386 0.45034
 H293 H -0.32267 -0.06694 0.50121
 H294 H -0.39509 -0.06679 0.50853
 H295 H -0.23011 0.02622 0.45017
 H296 H -0.26684 -0.05019 0.52348
 H297 H -0.21674 -0.05358 0.56276
 H298 H -0.14504 -0.04716 0.56342
 H299 H -0.09810 0.01325 0.43113
 H300 H -0.16964 0.00649 0.43045
 C301 C 0.35005 -0.03615 0.53336
 C302 C 0.30856 -0.03612 0.53726
 C303 C 0.29811 0.00030 0.52394
 C304 C 0.32982 0.03710 0.50805
 C305 C 0.37131 0.03713 0.50441
 C306 C 0.38194 0.00044 0.51657
 C307 C 0.25395 -0.00127 0.52738
 C308 C 0.24291 0.02548 0.50149
 C309 C 0.19900 0.02197 0.50274
 C310 C 0.19123 0.03759 0.46571
 C311 C 0.15023 0.03378 0.46527
 C312 C 0.11606 0.01474 0.50208
 C313 C 0.12385 0.00017 0.53946
 C314 C 0.16487 0.00374 0.53983
 H315 H 0.35715 -0.06490 0.54330
 H316 H 0.28463 -0.06480 0.55000
 H317 H 0.32272 0.06595 0.49872
 H318 H 0.39511 0.06587 0.49167
 H319 H 0.23017 -0.02721 0.54982
 H320 H 0.26701 0.04898 0.47627
 H321 H 0.21699 0.05212 0.43683
 H322 H 0.14531 0.04558 0.43601
 H323 H 0.09821 -0.01435 0.56842
 H324 H 0.16970 -0.00748 0.56925
 C325 C 0.03450 0.53481 1.34893
 C326 C 0.03413 0.53859 1.30790
 C327 C -0.00284 0.52299 1.30010
 C328 C -0.03995 0.50484 1.33421
 C329 C -0.03965 0.50130 1.37527
 C330 C -0.00232 0.51583 1.38309
 C331 C -0.00150 0.52645 1.25616
 C332 C -0.02732 0.49970 1.24515
 C333 C -0.02378 0.50122 1.20097
 C334 C -0.03708 0.46479 1.19062
 C335 C -0.03309 0.46471 1.14913
 C336 C -0.01623 0.50126 1.11712
 C337 C -0.00408 0.53796 1.12765
 C338 C -0.00781 0.53799 1.16914
 H339 H 0.06372 0.54659 1.35386
 H340 H 0.06303 0.55307 1.28215
 H341 H -0.06932 0.49364 1.32935
 H342 H -0.06862 0.48682 1.40090
 H343 H 0.02373 0.54991 1.23204
 H344 H -0.04978 0.47381 1.26898
 H345 H -0.04987 0.43614 1.21463
 H346 H -0.04303 0.43595 1.14211
 H347 H 0.00871 0.56668 1.10376
 H348 H 0.00150 0.56684 1.17616
 C349 C -0.03455 0.46589 0.64930
 C350 C -0.03416 0.46209 0.69032
 C351 C 0.00281 0.47769 0.69810
 C352 C 0.03992 0.49587 0.66398
 C353 C 0.03960 0.49943 0.62293
 C354 C 0.00226 0.48490 0.61513
 C355 C 0.00151 0.47421 0.74204
 C356 C 0.02733 0.50095 0.75305
 C357 C 0.02382 0.49941 0.79722
 C358 C 0.03712 0.53584 0.80757
 C359 C 0.03315 0.53591 0.84907
 C360 C 0.01632 0.49935 0.88107
 C361 C 0.00417 0.46265 0.87053
 C362 C 0.00788 0.46264 0.82904
 H363 H -0.06378 0.45411 0.64437
 H364 H -0.06305 0.44760 0.71608
 H365 H 0.06930 0.50707 0.66883
 H366 H 0.06855 0.51393 0.59730
 H367 H -0.02372 0.45074 0.76617
 H368 H 0.04978 0.52686 0.72922
 H369 H 0.04989 0.56450 0.78357
 H370 H 0.04308 0.56466 0.85610
 H371 H -0.00860 0.43393 0.89440
 H372 H -0.00143 0.43379 0.82201
   
