data_POSCAR
  _audit_creation_date              2014-09-24
  _audit_creation_method            'ToBaCCo'
  _symmetry_space_group_name_H-M    'P1'
  _symmetry_Int_Tables_number       1
  _symmetry_cell_setting            triclinic
  loop_
  _symmetry_equiv_pos_as_xyz
 x,y,z
_cell_length_a 41.9638
_cell_length_b 43.9030
_cell_length_c 35.8346
_cell_angle_alpha 89.447400
_cell_angle_beta 90.193400
_cell_angle_gamma 87.967600
loop_
  _atom_site_label
  _atom_site_type_symbol
  _atom_site_fract_x
  _atom_site_fract_y
  _atom_site_fract_z
C1 C 0.31190 0.29819 0.23214
 H2 H 0.30729 0.30376 0.26101
 C3 C 0.33095 0.31681 0.21042
 H4 H 0.34136 0.33635 0.22320
 C5 C 0.30434 0.26533 0.18101
 H6 H 0.29392 0.24521 0.16972
 C7 C 0.32334 0.28324 0.15834
 H8 H 0.32734 0.27682 0.12958
 N9 N 0.29884 0.27319 0.21710
 C10 C 0.23852 0.27732 0.30860
 H11 H 0.25160 0.26083 0.32567
 C12 C 0.21837 0.29888 0.32585
 H13 H 0.21647 0.29844 0.35594
 C14 C 0.22726 0.29950 0.24933
 H15 H 0.23172 0.30038 0.21967
 C16 C 0.20705 0.32162 0.26546
 H17 H 0.19555 0.33900 0.24790
 Zn18 Zn 0.27169 0.25000 0.24730
 N19 N 0.24235 0.27771 0.27089
 C20 C 0.28097 0.20878 0.30750
 N21 N 0.29622 0.22761 0.28369
 C22 C 0.32851 0.22915 0.28419
 C23 C 0.34674 0.21107 0.30912
 C24 C 0.29820 0.19038 0.33298
 C25 C 0.22829 0.23225 0.19082
 C26 C 0.21324 0.21182 0.16740
 C27 C 0.24321 0.17057 0.19760
 C28 C 0.25779 0.19176 0.22012
 N29 N 0.25000 0.22200 0.21672
 H30 H 0.25529 0.20746 0.30600
 H31 H 0.34029 0.24390 0.26471
 H32 H 0.37247 0.21242 0.30857
 H33 H 0.28497 0.17525 0.35051
 H34 H 0.22287 0.25635 0.18785
 H35 H 0.19634 0.22114 0.14721
 H36 H 0.24999 0.14665 0.20103
 H37 H 0.27583 0.18390 0.23981
 C38 C 0.20221 0.32136 0.30414
 C39 C 0.33645 0.30962 0.17277
 C40 C 0.22059 0.18029 0.17064
 C41 C 0.33176 0.19116 0.33394
 C42 C 0.79870 0.80204 0.22280
 H43 H 0.80083 0.80319 0.25286
 C44 C 0.81669 0.82093 0.20022
 H45 H 0.83220 0.83629 0.21415
 C46 C 0.77421 0.78099 0.16986
 H47 H 0.75714 0.76591 0.15814
 C48 C 0.79169 0.79943 0.14613
 H49 H 0.78790 0.79782 0.11628
 N50 N 0.77817 0.78246 0.20743
 C51 C 0.73348 0.78657 0.30915
 H52 H 0.74849 0.76928 0.32268
 C53 C 0.71700 0.80818 0.33080
 H54 H 0.71974 0.80722 0.36082
 C55 C 0.71329 0.80993 0.25362
 H56 H 0.71222 0.81051 0.22345
 C57 C 0.69664 0.83210 0.27415
 H58 H 0.68265 0.84976 0.25964
 Zn59 Zn 0.75344 0.75941 0.24066
 N60 N 0.73101 0.78761 0.27130
 C61 C 0.76552 0.71381 0.29439
 N62 N 0.77988 0.73251 0.26969
 C63 C 0.81202 0.73117 0.26501
 C64 C 0.83109 0.71085 0.28628
 C65 C 0.78364 0.69326 0.31643
 C66 C 0.69248 0.73942 0.21930
 C67 C 0.67133 0.72136 0.20004
 C68 C 0.71636 0.69539 0.17099
 C69 C 0.73661 0.71383 0.19105
 N70 N 0.72444 0.73562 0.21415
 H71 H 0.73983 0.71498 0.29704
 H72 H 0.82298 0.74564 0.24457
 H73 H 0.85666 0.71027 0.28201
 H74 H 0.77098 0.67916 0.33575
 H75 H 0.68326 0.75629 0.23858
 H76 H 0.64595 0.72489 0.20458
 H77 H 0.72723 0.67817 0.15338
 H78 H 0.76218 0.71080 0.18822
 C79 C 0.69809 0.83119 0.31321
 C80 C 0.81341 0.81991 0.16097
 C81 C 0.68302 0.69917 0.17507
 C82 C 0.81714 0.69149 0.31261
 C83 C 0.79124 0.28744 0.73887
 H84 H 0.79125 0.28812 0.76904
 C85 C 0.81228 0.30508 0.71870
 H86 H 0.82833 0.31949 0.73360
 C87 C 0.77057 0.26735 0.68304
 H88 H 0.75478 0.25208 0.66931
 C89 C 0.79138 0.28453 0.66170
 H90 H 0.79110 0.28198 0.63176
 N91 N 0.77059 0.26943 0.72088
 C92 C 0.69569 0.25797 0.80366
 H93 H 0.69532 0.23337 0.80554
 C94 C 0.67486 0.27584 0.82537
 H95 H 0.65856 0.26489 0.84417
 C96 C 0.71706 0.30215 0.77640
 H97 H 0.73292 0.31236 0.75660
 C98 C 0.69671 0.32086 0.79759
 H99 H 0.69722 0.34528 0.79351
 Zn100 Zn 0.74395 0.24584 0.75135
 N101 N 0.71661 0.27133 0.78026
 C102 C 0.77056 0.22268 0.82004
 N103 N 0.77140 0.22144 0.78216
 C104 C 0.79308 0.20315 0.76431
 C105 C 0.81449 0.18445 0.78458
 C106 C 0.79166 0.20439 0.84155
 C107 C 0.69717 0.23399 0.69740
 C108 C 0.67712 0.21608 0.67628
 C109 C 0.69940 0.17137 0.70793
 C110 C 0.71908 0.19013 0.72821
 N111 N 0.71795 0.22077 0.72236
 H112 H 0.75370 0.23799 0.83369
 H113 H 0.79355 0.20300 0.73412
 H114 H 0.83133 0.16991 0.76954
 H115 H 0.79020 0.20623 0.87151
 H116 H 0.69622 0.25850 0.69388
 H117 H 0.66094 0.22717 0.65634
 H118 H 0.70123 0.14729 0.71407
 H119 H 0.73492 0.18011 0.74910
 C120 C 0.67560 0.30769 0.82296
 C121 C 0.81241 0.30403 0.67960
 C122 C 0.67802 0.18421 0.68113
 C123 C 0.81400 0.18462 0.82380
 C124 C 0.27470 0.77819 0.72306
 H125 H 0.27829 0.77683 0.75295
 C126 C 0.29318 0.79738 0.70148
 H127 H 0.31129 0.81002 0.71536
 C128 C 0.24709 0.76222 0.66935
 H129 H 0.22936 0.74830 0.65682
 C130 C 0.26498 0.78122 0.64669
 H131 H 0.26056 0.78190 0.61688
 N132 N 0.25163 0.76171 0.70695
 C133 C 0.18218 0.75346 0.79652
 H134 H 0.18042 0.72899 0.79888
 C135 C 0.16472 0.77257 0.82054
 H136 H 0.14951 0.76268 0.84144
 C137 C 0.20403 0.79613 0.76633
 H138 H 0.21884 0.80535 0.74472
 C139 C 0.18708 0.81602 0.78974
 H140 H 0.18900 0.84030 0.78540
 Zn141 Zn 0.22634 0.73866 0.73980
 N142 N 0.20189 0.76545 0.77060
 C143 C 0.25629 0.71665 0.80686
 N144 N 0.25474 0.71374 0.76916
 C145 C 0.27390 0.69316 0.75107
 C146 C 0.29447 0.67335 0.77111
 C147 C 0.27689 0.69760 0.82804
 C148 C 0.17617 0.72769 0.68936
 C149 C 0.15600 0.71009 0.66795
 C150 C 0.17941 0.66485 0.69726
 C151 C 0.19915 0.68333 0.71792
 N152 N 0.19789 0.71409 0.71295
 H153 H 0.24146 0.73363 0.82070
 H154 H 0.27263 0.69170 0.72098
 H155 H 0.30891 0.65666 0.75604
 H156 H 0.27664 0.70014 0.85798
 H157 H 0.17495 0.75227 0.68665
 H158 H 0.13944 0.72150 0.64871
 H159 H 0.18152 0.64063 0.70245
 H160 H 0.21547 0.67291 0.73800
 C161 C 0.16760 0.80425 0.81784
 C162 C 0.28785 0.79969 0.66275
 C163 C 0.15778 0.67809 0.67102
 C164 C 0.29620 0.67522 0.81019
 C165 C -0.01626 -0.01543 0.02294
 C166 C -0.00358 0.00997 0.00517
 C167 C -0.02409 0.03361 -0.00796
 C168 C -0.05731 0.03181 -0.00404
 C169 C -0.06960 0.00661 0.01476
 C170 C -0.04925 -0.01725 0.02821
 C171 C 0.03123 0.01207 0.00078
 C172 C 0.04877 -0.01072 -0.01807
 C173 C 0.08183 -0.00841 -0.02322
 C174 C 0.09709 0.01701 -0.00891
 C175 C 0.07984 0.03965 0.01097
 C176 C 0.04682 0.03714 0.01505
 H177 H -0.00028 -0.03351 0.03344
 H178 H -0.01383 0.05331 -0.02092
 H179 H 0.03612 -0.02939 -0.02989
 H180 H 0.03315 0.05455 0.02992
 H181 H -0.09505 0.00605 0.01921
 H182 H 0.12234 0.01906 -0.01379
 C183 C -0.04763 0.46369 0.50667
 C184 C -0.03129 0.48882 0.49302
 C185 C -0.04854 0.51490 0.48035
 C186 C -0.08207 0.51577 0.48058
 C187 C -0.09799 0.49080 0.49523
 C188 C -0.08112 0.46476 0.50858
 C189 C 0.00392 0.48763 0.49148
 C190 C 0.01994 0.46415 0.47208
 C191 C 0.05329 0.46288 0.47003
 C192 C 0.07067 0.48485 0.48889
 C193 C 0.05507 0.50831 0.50897
 C194 C 0.02149 0.50969 0.50975
 H195 H -0.03402 0.44354 0.51566
 H196 H -0.03564 0.53417 0.47017
 H197 H 0.00633 0.44712 0.45799
 H198 H 0.00867 0.52700 0.52553
 H199 H -0.12384 0.49155 0.49593
 H200 H 0.09648 0.48330 0.48890
 C201 C 0.46264 -0.03119 0.54194
 C202 C 0.47801 -0.00748 0.52382
 C203 C 0.45997 0.01695 0.50829
 C204 C 0.42644 0.01743 0.50984
 C205 C 0.41136 -0.00626 0.52873
 C206 C 0.42933 -0.03073 0.54481
 C207 C 0.51303 -0.00851 0.52057
 C208 C 0.52835 -0.03212 0.50071
 C209 C 0.56155 -0.03316 0.49679
 C210 C 0.57950 -0.01098 0.51439
 C211 C 0.56458 0.01261 0.53482
 C212 C 0.53110 0.01389 0.53743
 H213 H 0.47676 -0.04993 0.55417
 H214 H 0.47235 0.03536 0.49513
 H215 H 0.51427 -0.04934 0.48765
 H216 H 0.51883 0.03139 0.55347
 H217 H 0.38564 -0.00531 0.53118
 H218 H 0.60528 -0.01238 0.51302
 C219 C 0.47101 0.48821 0.02289
 C220 C 0.48818 0.51074 0.00457
 C221 C 0.47173 0.53508 -0.01347
 C222 C 0.43833 0.53662 -0.01424
 C223 C 0.42138 0.51419 0.00470
 C224 C 0.43746 0.48995 0.02345
 C225 C 0.52339 0.50897 0.00451
 C226 C 0.53967 0.48310 -0.00968
 C227 C 0.57317 0.48162 -0.01067
 C228 C 0.59010 0.50572 0.00403
 C229 C 0.57424 0.53153 0.01872
 C230 C 0.54073 0.53325 0.01830
 H231 H 0.48408 0.47022 0.03781
 H232 H 0.48499 0.55245 -0.02769
 H233 H 0.52608 0.46444 -0.02002
 H234 H 0.52792 0.55329 0.02852
 H235 H 0.39557 0.51588 0.00553
 H236 H 0.61596 0.50452 0.00365
 C237 C 0.14964 -0.17565 -0.15605
 C238 C 0.15948 -0.14653 -0.14692
 C239 C 0.14188 -0.12559 -0.12143
 C240 C 0.15798 -0.10113 -0.10615
 C241 C 0.14213 -0.08014 -0.08302
 C242 C 0.10955 -0.08295 -0.07504
 C243 C 0.09356 -0.10765 -0.08994
 C244 C 0.10942 -0.12865 -0.11309
 C245 C 0.09147 -0.06089 -0.05137
 C246 C 0.10091 -0.03113 -0.04490
 H247 H 0.18201 -0.13904 -0.15764
 H248 H 0.18301 -0.09828 -0.11204
 H249 H 0.15570 -0.06207 -0.07127
 H250 H 0.06848 -0.11038 -0.08423
 H251 H 0.09591 -0.14673 -0.12494
 H252 H 0.06930 -0.06835 -0.03971
 H253 H 0.12931 -0.18491 -0.14201
 H254 H 0.12322 -0.02375 -0.05624
 C255 C 0.18199 0.34583 0.32111
 C256 C 0.16752 0.34287 0.35597
 C257 C 0.14931 0.36807 0.37423
 C258 C 0.12667 0.36108 0.40145
 C259 C 0.10986 0.38429 0.42027
 C260 C 0.11558 0.41506 0.41237
 C261 C 0.13858 0.42204 0.38559
 C262 C 0.15523 0.39884 0.36658
 C263 C 0.09918 0.44027 0.43269
 C264 C 0.06931 0.43769 0.44930
 H265 H 0.16849 0.32090 0.36998
 H266 H 0.12208 0.33756 0.40831
 H267 H 0.09307 0.37798 0.44158
 H268 H 0.14379 0.44555 0.37943
 H269 H 0.17325 0.40514 0.34671
 H270 H 0.11034 0.46213 0.43279
 H271 H 0.17753 0.36648 0.30490
 H272 H 0.05619 0.41721 0.44506
 C273 C 0.68079 -0.14482 0.33452
 C274 C 0.67068 -0.14896 0.37124
 C275 C 0.65383 -0.12462 0.39247
 C276 C 0.63323 -0.13266 0.42141
 C277 C 0.61716 -0.11017 0.44219
 C278 C 0.62167 -0.07913 0.43455
 C279 C 0.64288 -0.07114 0.40622
 C280 C 0.65874 -0.09360 0.38528
 C281 C 0.60580 -0.05462 0.45643
 C282 C 0.57698 -0.05806 0.47509
 H283 H 0.67347 -0.17127 0.38422
 H284 H 0.62949 -0.15642 0.42788
 H285 H 0.60180 -0.11719 0.46464
 H286 H 0.64717 -0.04740 0.40024
 H287 H 0.67530 -0.08657 0.36405
 H288 H 0.61633 -0.03246 0.45587
 H289 H 0.67423 -0.12379 0.31996
 H290 H 0.56416 -0.07882 0.47169
 C291 C 0.65380 0.32650 -0.15355
 C292 C 0.66077 0.35607 -0.14296
 C293 C 0.63971 0.37567 -0.11953
 C294 C 0.65291 0.40061 -0.10176
 C295 C 0.63393 0.42045 -0.08042
 C296 C 0.60112 0.41577 -0.07629
 C297 C 0.58776 0.39107 -0.09449
 C298 C 0.60683 0.37111 -0.11583
 C299 C 0.58014 0.43733 -0.05530
 C300 C 0.59164 0.45575 -0.02705
 H301 H 0.68364 0.36492 -0.15054
 H302 H 0.67804 0.40496 -0.10468
 H303 H 0.64498 0.43990 -0.06824
 H304 H 0.56245 0.38732 -0.09236
 H305 H 0.59555 0.35271 -0.13003
 H306 H 0.55527 0.43923 -0.06332
 H307 H 0.63290 0.31596 -0.14240
 H308 H 0.61631 0.45279 -0.01845
 C309 C -0.16406 0.16522 -0.15686
 C310 C -0.16200 0.16185 -0.11799
 C311 C -0.13840 0.14066 -0.09963
 C312 C -0.14509 0.12890 -0.06407
 C313 C -0.12377 0.10818 -0.04639
 C314 C -0.09521 0.09880 -0.06406
 C315 C -0.08798 0.11153 -0.09895
 C316 C -0.10923 0.13227 -0.11655
 C317 C -0.07219 0.07622 -0.04719
 C318 C -0.07987 0.05590 -0.01858
 H319 H -0.17913 0.17335 -0.10010
 H320 H -0.16709 0.13550 -0.05009
 H321 H -0.12978 0.09988 -0.01891
 H322 H -0.06586 0.10522 -0.11285
 H323 H -0.10246 0.14184 -0.14316
 H324 H -0.04896 0.07408 -0.06007
 H325 H -0.14804 0.15117 -0.17358
 H326 H -0.10406 0.05585 -0.00832
 C327 C -0.16279 0.67122 0.33345
 C328 C -0.17313 0.65062 0.36060
 C329 C -0.15148 0.62873 0.38093
 C330 C -0.16458 0.60292 0.39740
 C331 C -0.14525 0.58136 0.41646
 C332 C -0.11226 0.58537 0.41996
 C333 C -0.09912 0.61125 0.40371
 C334 C -0.11850 0.63289 0.38466
 C335 C -0.09086 0.56234 0.43865
 C336 C -0.10155 0.54194 0.46563
 H337 H -0.19820 0.64892 0.36642
 H338 H -0.18986 0.59909 0.39494
 H339 H -0.15623 0.56127 0.42744
 H340 H -0.07378 0.61484 0.40596
 H341 H -0.10750 0.65287 0.37342
 H342 H -0.06616 0.56127 0.43012
 H343 H -0.13756 0.67124 0.32734
 H344 H -0.12611 0.54389 0.47468
 C345 C 0.35095 0.17211 0.35735
 C346 C 0.33942 0.15233 0.38470
 C347 C 0.36022 0.12995 0.40534
 C348 C 0.35038 0.11921 0.44032
 C349 C 0.36872 0.09707 0.45985
 C350 C 0.39711 0.08480 0.44437
 C351 C 0.40703 0.09576 0.40952
 C352 C 0.38876 0.11794 0.39008
 C353 C 0.41717 0.06086 0.46346
 C354 C 0.40649 0.04238 0.49255
 H355 H 0.31458 0.15350 0.39251
 H356 H 0.32845 0.12807 0.45265
 H357 H 0.36058 0.08995 0.48704
 H358 H 0.42877 0.08673 0.39692
 H359 H 0.39669 0.12494 0.36272
 H360 H 0.44070 0.05633 0.45213
 H361 H 0.37655 0.17292 0.35402
 H362 H 0.38189 0.04456 0.50128
 C363 C 0.31623 0.65409 -0.17032
 C364 C 0.32310 0.65515 -0.13210
 C365 C 0.34171 0.63049 -0.11268
 C366 C 0.36085 0.63752 -0.08199
 C367 C 0.37800 0.61446 -0.06257
 C368 C 0.37582 0.58385 -0.07320
 C369 C 0.35614 0.57679 -0.10338
 C370 C 0.33940 0.59986 -0.12314
 C371 C 0.39258 0.55877 -0.05245
 C372 C 0.42166 0.56218 -0.03422
 H373 H 0.31637 0.67503 -0.11600
 H374 H 0.36257 0.66091 -0.07307
 H375 H 0.39226 0.62057 -0.03875
 H376 H 0.35373 0.55332 -0.11173
 H377 H 0.32407 0.59359 -0.14595
 H378 H 0.38271 0.53633 -0.05374
 H379 H 0.32761 0.63585 -0.18617
 H380 H 0.43379 0.58344 -0.03710
 C381 C -0.17068 -0.16197 0.13715
 C382 C -0.14781 -0.14105 0.14752
 C383 C -0.13335 -0.11959 0.12083
 C384 C -0.10433 -0.10672 0.13034
 C385 C -0.09064 -0.08520 0.10694
 C386 C -0.10577 -0.07607 0.07335
 C387 C -0.13493 -0.08875 0.06398
 C388 C -0.14864 -0.11026 0.08741
 C389 C -0.09301 -0.05211 0.04874
 C390 C -0.06130 -0.04343 0.04970
 H391 H -0.13896 -0.14048 0.17581
 H392 H -0.09234 -0.11309 0.15623
 H393 H -0.06875 -0.07525 0.11596
 H394 H -0.14737 -0.08170 0.03863
 H395 H -0.17161 -0.11870 0.07968
 H396 H -0.10923 -0.04150 0.02859
 H397 H -0.17577 -0.16389 0.10762
 H398 H -0.04417 -0.05669 0.06629
 C399 C -0.16495 0.32323 0.65911
 C400 C -0.16625 0.32897 0.62067
 C401 C -0.14478 0.35011 0.60142
 C402 C -0.15449 0.36302 0.56708
 C403 C -0.13570 0.38413 0.54881
 C404 C -0.10670 0.39285 0.56463
 C405 C -0.09625 0.37881 0.59803
 C406 C -0.11501 0.35765 0.61628
 C407 C -0.08691 0.41640 0.54728
 C408 C -0.09958 0.43920 0.52350
 H409 H -0.18521 0.31974 0.60426
 H410 H -0.17696 0.35712 0.55459
 H411 H -0.14399 0.39340 0.52230
 H412 H -0.07369 0.38461 0.61041
 H413 H -0.10595 0.34725 0.64184
 H414 H -0.06237 0.41734 0.55639
 H415 H -0.14771 0.33489 0.67574
 H416 H -0.12493 0.43995 0.51782
 C417 C 0.30525 -0.17907 0.63834
 C418 C 0.32216 -0.15452 0.65175
 C419 C 0.33802 -0.13228 0.62738
 C420 C 0.36284 -0.11560 0.64240
 C421 C 0.37783 -0.09363 0.62093
 C422 C 0.36814 -0.08771 0.58389
 C423 C 0.34291 -0.10394 0.56903
 C424 C 0.32804 -0.12612 0.59046
 C425 C 0.38296 -0.06393 0.56083
 C426 C 0.41436 -0.05537 0.56625
 H427 H 0.32429 -0.15117 0.68146
 H428 H 0.37060 -0.11952 0.67097
 H429 H 0.39643 -0.08084 0.63379
 H430 H 0.33466 -0.09942 0.54077
 H431 H 0.30827 -0.13771 0.57828
 H432 H 0.36921 -0.05406 0.53783
 H433 H 0.30372 -0.18246 0.60853
 H434 H 0.42928 -0.06820 0.58596
 C435 C 0.35585 0.32880 0.14806
 C436 C 0.35952 0.35991 0.15391
 C437 C 0.37763 0.37971 0.12855
 C438 C 0.37105 0.41126 0.12898
 C439 C 0.38768 0.43086 0.10576
 C440 C 0.41139 0.41927 0.08158
 C441 C 0.41852 0.38780 0.08177
 C442 C 0.40179 0.36815 0.10492
 C443 C 0.43001 0.43949 0.05726
 C444 C 0.41845 0.46817 0.04516
 H445 H 0.34676 0.37084 0.17662
 H446 H 0.35294 0.42082 0.14737
 H447 H 0.38230 0.45508 0.10751
 H448 H 0.43711 0.37837 0.06393
 H449 H 0.40832 0.34411 0.10468
 H450 H 0.45293 0.43084 0.04750
 H451 H 0.36537 0.31851 0.12295
 H452 H 0.39394 0.47491 0.05107
 C453 C 0.20682 0.15806 0.14820
 C454 C 0.18436 0.16382 0.11973
 C455 C 0.17068 0.13924 0.09719
 C456 C 0.14113 0.14471 0.07948
 C457 C 0.12701 0.12187 0.05885
 C458 C 0.14222 0.09291 0.05557
 C459 C 0.17239 0.08790 0.07196
 C460 C 0.18655 0.11076 0.09244
 C461 C 0.12770 0.06746 0.03541
 C462 C 0.09507 0.06633 0.02767
 H463 H 0.17497 0.18667 0.11450
 H464 H 0.12872 0.16665 0.08196
 H465 H 0.10437 0.12723 0.04545
 H466 H 0.18497 0.06606 0.06923
 H467 H 0.21001 0.10598 0.10408
 H468 H 0.14306 0.04785 0.02938
 H469 H 0.21395 0.13454 0.15393
 H470 H 0.07931 0.08470 0.03699
 C471 C 0.13815 0.66089 0.64775
 C472 C 0.13916 0.62894 0.64595
 C473 C 0.11938 0.61111 0.62024
 C474 C 0.12857 0.58056 0.61380
 C475 C 0.11072 0.56252 0.59027
 C476 C 0.08316 0.57467 0.57237
 C477 C 0.07355 0.60504 0.57933
 C478 C 0.09142 0.62314 0.60297
 C479 C 0.06319 0.55593 0.54793
 C480 C 0.07487 0.52946 0.53042
 H481 H 0.15635 0.61582 0.66245
 H482 H 0.14966 0.57049 0.62717
 H483 H 0.11833 0.53891 0.58697
 H484 H 0.05207 0.61480 0.56649
 H485 H 0.08280 0.64620 0.60805
 H486 H 0.03889 0.56394 0.54297
 H487 H 0.12215 0.67341 0.62897
 H488 H 0.10014 0.52383 0.53217
 C489 C 0.65752 0.16677 0.65932
 C490 C 0.65655 0.13488 0.66056
 C491 C 0.63510 0.11681 0.63722
 C492 C 0.64245 0.08560 0.63311
 C493 C 0.62296 0.06732 0.61191
 C494 C 0.59556 0.07989 0.59408
 C495 C 0.58768 0.11093 0.59888
 C496 C 0.60723 0.12929 0.62019
 C497 C 0.57426 0.06091 0.57171
 C498 C 0.58514 0.03405 0.55458
 H499 H 0.67307 0.12182 0.67801
 H500 H 0.66341 0.07524 0.64646
 H501 H 0.62917 0.04325 0.61027
 H502 H 0.56635 0.12102 0.58606
 H503 H 0.60000 0.15296 0.62370
 H504 H 0.54988 0.06908 0.56771
 H505 H 0.64199 0.17896 0.63970
 H506 H 0.61045 0.02839 0.55521
 C507 C 0.66102 0.68139 0.15603
 C508 C 0.66897 0.66088 0.12757
 C509 C 0.64550 0.64126 0.10963
 C510 C 0.65188 0.63033 0.07368
 C511 C 0.63129 0.61042 0.05651
 C512 C 0.60410 0.60053 0.07531
 C513 C 0.59728 0.61202 0.11091
 C514 C 0.61786 0.63203 0.12808
 C515 C 0.58283 0.57796 0.05889
 C516 C 0.59376 0.55627 0.03322
 H517 H 0.69280 0.65989 0.11626
 H518 H 0.67293 0.63720 0.05882
 H519 H 0.63680 0.60294 0.02852
 H520 H 0.57646 0.60480 0.12593
 H521 H 0.61251 0.63938 0.15616
 H522 H 0.55900 0.57661 0.07007
 H523 H 0.63606 0.68450 0.16315
 H524 H 0.61870 0.55567 0.02560
   
