data_POSCAR
  _audit_creation_date              2014-09-24
  _audit_creation_method            'ToBaCCo'
  _symmetry_space_group_name_H-M    'P1'
  _symmetry_Int_Tables_number       1
  _symmetry_cell_setting            triclinic
  loop_
  _symmetry_equiv_pos_as_xyz
 x,y,z
_cell_length_a 13.6615
_cell_length_b 14.3173
_cell_length_c 20.7337
_cell_angle_alpha 90.507000
_cell_angle_beta 89.628600
_cell_angle_gamma 89.957800
loop_
  _atom_site_label
  _atom_site_type_symbol
  _atom_site_fract_x
  _atom_site_fract_y
  _atom_site_fract_z
O1 O 0.19362 0.11690 0.03452
 O2 O -0.18321 -0.10179 0.04936
 O3 O -0.10309 0.18352 0.03795
 O4 O 0.11711 -0.16707 0.05794
 O5 O -0.16457 0.06040 0.07753
 O6 O 0.17146 -0.03247 0.08342
 O7 O -0.04670 -0.14721 0.08628
 O8 O 0.06157 0.16977 0.07126
 C9 C 0.14936 0.15650 0.07940
 C10 C -0.13601 -0.14291 0.09237
 C11 C -0.14504 0.14439 0.08432
 C12 C 0.16099 -0.11522 0.09713
 O13 O 0.19452 -0.11362 -0.03359
 O14 O -0.18150 0.10751 -0.04967
 O15 O 0.11932 0.17024 -0.05856
 O16 O -0.10334 -0.17802 -0.03772
 O17 O -0.16197 -0.05465 -0.07818
 O18 O 0.17540 0.03523 -0.08134
 O19 O 0.06228 -0.16431 -0.07097
 O20 O -0.04422 0.15286 -0.08638
 Co21 Co 0.16677 0.00160 0.00086
 Co22 Co -0.15504 0.00277 -0.00023
 Co23 Co 0.00882 0.15360 -0.00768
 Co24 Co 0.00776 -0.14857 0.00768
 O25 O 0.00677 0.00239 0.00014
 C26 C 0.15080 -0.15356 -0.07826
 C27 C -0.13334 0.14799 -0.09284
 C28 C 0.16398 0.11711 -0.09732
 C29 C -0.14277 -0.13865 -0.08438
 O30 O 0.37845 0.32257 0.45158
 O31 O 0.60840 0.67845 0.46315
 O32 O 0.31001 0.60836 0.45918
 O33 O 0.68036 0.39451 0.44740
 O34 O 0.44424 0.66093 0.42397
 O35 O 0.54245 0.34050 0.41582
 O36 O 0.66451 0.55518 0.42120
 O37 O 0.32887 0.45487 0.42054
 C38 C 0.33596 0.37064 0.41038
 C39 C 0.64611 0.63906 0.41547
 C40 C 0.35658 0.64645 0.41494
 C41 C 0.63112 0.34998 0.40634
 O42 O 0.60773 0.31845 0.53649
 O43 O 0.37952 0.67589 0.54927
 O44 O 0.30959 0.39074 0.54321
 O45 O 0.68062 0.60271 0.55137
 O46 O 0.54219 0.65562 0.58379
 O47 O 0.44334 0.33565 0.57645
 O48 O 0.66500 0.44209 0.57719
 O49 O 0.33019 0.54427 0.58170
 Co50 Co 0.49263 0.34560 0.49593
 Co51 Co 0.49320 0.65135 0.50413
 Co52 Co 0.33619 0.49948 0.50108
 Co53 Co 0.65579 0.49870 0.49933
 O54 O 0.49467 0.49870 0.50010
 C55 C 0.64613 0.35836 0.58352
 C56 C 0.33755 0.62852 0.59126
 C57 C 0.35629 0.35238 0.58690
 C58 C 0.63082 0.64713 0.59268
 C59 C 0.29504 0.15848 0.15193
 C60 C 0.19890 0.18727 0.13875
 C61 C 0.14833 0.24280 0.18396
 C62 C 0.19323 0.27013 0.24149
 C63 C 0.28962 0.23994 0.25501
 C64 C 0.33983 0.18394 0.20990
 C65 C 0.33471 0.26846 0.31256
 C66 C 0.28559 0.32944 0.35499
 C67 C 0.19011 0.35894 0.34113
 C68 C 0.14366 0.32851 0.28523
 H69 H 0.07418 0.26546 0.17417
 H70 H 0.41383 0.16055 0.21919
 H71 H 0.40914 0.24710 0.32284
 H72 H 0.06993 0.35237 0.27550
 H73 H 0.33521 0.11538 0.11771
 H74 H 0.15171 0.40631 0.37355
 C75 C 0.85298 0.71079 0.15444
 C76 C 0.81782 0.80169 0.14404
 C77 C 0.74972 0.84066 0.18769
 C78 C 0.72131 0.79060 0.24312
 C79 C 0.75853 0.69958 0.25316
 C80 C 0.82279 0.65980 0.20789
 C81 C 0.73308 0.65044 0.30910
 C82 C 0.67245 0.69137 0.35638
 C83 C 0.63591 0.78199 0.34627
 C84 C 0.65929 0.83079 0.28992
 H85 H 0.72325 0.91104 0.18039
 H86 H 0.85220 0.59033 0.21485
 H87 H 0.76233 0.58106 0.31645
 H88 H 0.63002 0.90040 0.28343
 H89 H 0.90586 0.67965 0.12159
 H90 H 0.58865 0.81503 0.38185
 C91 C 0.85714 0.29177 0.84217
 C92 C 0.82143 0.20157 0.85449
 C93 C 0.75278 0.16164 0.81218
 C94 C 0.72379 0.21028 0.75645
 C95 C 0.76137 0.30072 0.74462
 C96 C 0.82659 0.34130 0.78837
 C97 C 0.73511 0.34857 0.68850
 C98 C 0.67318 0.30699 0.64273
 C99 C 0.63592 0.21711 0.65472
 C100 C 0.66044 0.16945 0.71121
 H101 H 0.72608 0.09161 0.82085
 H102 H 0.85620 0.41040 0.78005
 H103 H 0.76452 0.41765 0.67989
 H104 H 0.63080 0.10029 0.71911
 H105 H 0.91044 0.32361 0.87394
 H106 H 0.58721 0.18383 0.62054
 C107 C 0.30167 0.83057 0.85347
 C108 C 0.20179 0.81197 0.86359
 C109 C 0.14898 0.76332 0.81632
 C110 C 0.19484 0.73364 0.75942
 C111 C 0.29494 0.75423 0.74874
 C112 C 0.34779 0.80266 0.79612
 C113 C 0.34064 0.72407 0.69153
 C114 C 0.28799 0.67093 0.64662
 C115 C 0.18900 0.65053 0.65764
 C116 C 0.14223 0.68270 0.71333
 H117 H 0.07202 0.74842 0.82376
 H118 H 0.42463 0.81853 0.78895
 H119 H 0.41766 0.73817 0.68323
 H120 H 0.06562 0.66617 0.72098
 H121 H 0.34363 0.86825 0.88937
 H122 H 0.14815 0.60896 0.62319
 C123 C 0.26961 0.08932 0.81230
 C124 C 0.20434 0.14769 0.84729
 C125 C 0.18236 0.23667 0.82262
 C126 C 0.22329 0.26534 0.76367
 C127 C 0.29158 0.20706 0.73112
 C128 C 0.31423 0.11948 0.75584
 C129 C 0.33548 0.23665 0.67378
 C130 C 0.30833 0.32165 0.64647
 C131 C 0.23717 0.37760 0.67711
 C132 C 0.19626 0.35054 0.73603
 H133 H 0.13098 0.28219 0.84775
 H134 H 0.36566 0.07368 0.73111
 H135 H 0.38935 0.19272 0.64962
 H136 H 0.14304 0.39569 0.75960
 H137 H 0.28901 0.02066 0.82940
 H138 H 0.21493 0.44322 0.65631
 C139 C 0.86375 0.71785 0.84474
 C140 C 0.82798 0.80854 0.85698
 C141 C 0.76507 0.84956 0.81206
 C142 C 0.73702 0.80071 0.75626
 C143 C 0.77390 0.70983 0.74381
 C144 C 0.83773 0.66927 0.78839
 C145 C 0.74396 0.66062 0.68803
 C146 C 0.67495 0.70040 0.64641
 C147 C 0.63952 0.79085 0.65948
 C148 C 0.67101 0.84093 0.71334
 H149 H 0.73644 0.91910 0.82102
 H150 H 0.86666 0.59969 0.78005
 H151 H 0.77057 0.59049 0.67865
 H152 H 0.64188 0.91033 0.72221
 H153 H 0.91273 0.68481 0.87850
 H154 H 0.58616 0.82266 0.62808
 C155 C 0.29792 0.88822 0.17469
 C156 C 0.20987 0.84759 0.15403
 C157 C 0.16888 0.77334 0.18850
 C158 C 0.21478 0.74116 0.24433
 C159 C 0.30410 0.78195 0.26433
 C160 C 0.34529 0.85503 0.22906
 C161 C 0.35041 0.74983 0.31972
 C162 C 0.30754 0.67919 0.35661
 C163 C 0.21816 0.63977 0.33725
 C164 C 0.17248 0.66992 0.28109
 H165 H 0.10038 0.74261 0.17285
 H166 H 0.41353 0.88706 0.24385
 H167 H 0.41885 0.78108 0.33481
 H168 H 0.10391 0.63816 0.26674
 H169 H 0.33081 0.94511 0.14821
 H170 H 0.18422 0.58493 0.36520
 C171 C 0.85390 0.28690 0.14746
 C172 C 0.82748 0.19234 0.13817
 C173 C 0.77238 0.14831 0.18704
 C174 C 0.74252 0.19746 0.24263
 C175 C 0.77040 0.29174 0.25163
 C176 C 0.82671 0.33551 0.20383
 C177 C 0.73896 0.34094 0.30734
 C178 C 0.67669 0.29764 0.35228
 C179 C 0.64947 0.20404 0.34244
 C180 C 0.68315 0.15400 0.28875
 H181 H 0.75036 0.07603 0.18146
 H182 H 0.84865 0.40778 0.20959
 H183 H 0.75897 0.41347 0.31421
 H184 H 0.66067 0.08194 0.28249
 H185 H 0.89683 0.32349 0.11156
 H186 H 0.60111 0.16965 0.37635
   
