data_POSCAR
  _audit_creation_date              2014-09-24
  _audit_creation_method            'ToBaCCo'
  _symmetry_space_group_name_H-M    'P1'
  _symmetry_Int_Tables_number       1
  _symmetry_cell_setting            triclinic
  loop_
  _symmetry_equiv_pos_as_xyz
 x,y,z
_cell_length_a 49.5564
_cell_length_b 49.5485
_cell_length_c 39.9309
_cell_angle_alpha 89.950000
_cell_angle_beta 89.949400
_cell_angle_gamma 89.421900
loop_
  _atom_site_label
  _atom_site_type_symbol
  _atom_site_fract_x
  _atom_site_fract_y
  _atom_site_fract_z
O1 O -0.03806 0.32352 0.03736
 O2 O 0.01349 0.32665 -0.02965
 O3 O -0.03963 0.32379 -0.02764
 O4 O 0.01496 0.32629 0.03548
 O5 O 0.01740 0.28170 0.03478
 O6 O -0.03651 0.27923 -0.02773
 O7 O 0.01593 0.28206 -0.02972
 O8 O -0.03497 0.27896 0.03667
 Cu9 Cu -0.01257 0.32962 0.00389
 Cu10 Cu -0.00923 0.27604 0.00343
 C11 C -0.04546 0.30056 0.04788
 C12 C 0.02368 0.30475 -0.04056
 C13 C -0.04756 0.30092 -0.03781
 C14 C 0.02559 0.30427 0.04540
 O15 O 0.48486 0.80201 0.52068
 O16 O 0.53804 0.79695 0.45580
 O17 O 0.48519 0.79913 0.45542
 O18 O 0.53787 0.80069 0.52082
 O19 O 0.53668 0.75616 0.52405
 O20 O 0.48426 0.75461 0.45911
 O21 O 0.53667 0.75244 0.45948
 O22 O 0.48411 0.75747 0.52393
 Cu23 Cu 0.51157 0.80422 0.48785
 Cu24 Cu 0.51030 0.75072 0.49203
 C25 C 0.47539 0.78045 0.53303
 C26 C 0.54644 0.77372 0.44696
 C27 C 0.47577 0.77655 0.44638
 C28 C 0.54637 0.77857 0.53315
 O29 O 1.04095 0.67832 0.02059
 O30 O 0.98777 0.68040 -0.04451
 O31 O 1.04074 0.68136 -0.04426
 O32 O 0.98779 0.67655 0.02076
 O33 O 0.98636 0.72109 0.02397
 O34 O 1.03888 0.72587 -0.04040
 O35 O 0.98650 0.72492 -0.04065
 O36 O 1.03886 0.72285 0.02390
 Cu37 Cu 1.01439 0.67461 -0.01217
 Cu38 Cu 1.01242 0.72812 -0.00789
 C39 C 1.04919 0.70046 0.03270
 C40 C 0.97812 0.70315 -0.05338
 C41 C 1.04899 0.70453 -0.05287
 C42 C 0.97798 0.69813 0.03306
 O43 O 0.51532 0.20235 0.53816
 O44 O 0.46408 0.20474 0.47099
 O45 O 0.51693 0.20196 0.47285
 O46 O 0.46258 0.20537 0.53629
 O47 O 0.46478 0.24993 0.53557
 O48 O 0.51868 0.24654 0.47256
 O49 O 0.46623 0.24929 0.47068
 O50 O 0.51713 0.24692 0.53745
 Cu51 Cu 0.48952 0.19908 0.50459
 Cu52 Cu 0.49191 0.25263 0.50399
 C53 C 0.52493 0.22432 0.54901
 C54 C 0.45639 0.22750 0.45971
 C55 C 0.52708 0.22378 0.46221
 C56 C 0.45446 0.22832 0.54648
 O57 O 0.69797 0.01426 -0.01963
 O58 O 0.70320 -0.03892 0.04529
 O59 O 0.70101 0.01395 0.04561
 O60 O 0.69918 -0.03875 -0.01972
 O61 O 0.74370 -0.03759 -0.02318
 O62 O 0.74550 0.01484 0.04169
 O63 O 0.74768 -0.03758 0.04136
 O64 O 0.74249 0.01496 -0.02309
 Cu65 Cu 0.69581 -0.01244 0.01324
 Cu66 Cu 0.74929 -0.01121 0.00879
 C67 C 0.71950 0.02370 -0.03209
 C68 C 0.72644 -0.04734 0.05402
 C69 C 0.72361 0.02337 0.05451
 C70 C 0.72124 -0.04726 -0.03216
 O71 O 0.17312 0.48682 0.52871
 O72 O 0.17662 0.53824 0.46163
 O73 O 0.17398 0.48521 0.46358
 O74 O 0.17605 0.53994 0.52662
 O75 O 0.22060 0.53685 0.52715
 O76 O 0.21856 0.48282 0.46470
 O77 O 0.22117 0.53521 0.46273
 O78 O 0.21771 0.48439 0.52921
 Cu79 Cu 0.17039 0.51281 0.49509
 Cu80 Cu 0.22395 0.50952 0.49606
 C81 C 0.19496 0.47666 0.53985
 C82 C 0.19963 0.54566 0.45130
 C83 C 0.19607 0.47460 0.45387
 C84 C 0.19884 0.54790 0.53699
 O85 O 0.29406 1.03691 0.02881
 O86 O 0.29634 0.98549 -0.03821
 O87 O 0.29327 1.03824 -0.03647
 O88 O 0.29697 0.98404 0.02712
 O89 O 0.25241 0.98220 0.02764
 O90 O 0.24873 1.03596 -0.03553
 O91 O 0.25178 0.98360 -0.03727
 O92 O 0.24952 1.03467 0.02934
 Cu93 Cu 0.29968 1.01137 -0.00473
 Cu94 Cu 0.24616 1.00889 -0.00385
 C95 C 0.27132 1.04461 0.04017
 C96 C 0.27435 0.97581 -0.04892
 C97 C 0.27028 1.04631 -0.04658
 C98 C 0.27521 0.97387 0.03790
 O99 O 0.82373 0.45968 0.47961
 O100 O 0.82114 0.51266 0.54491
 O101 O 0.82044 0.45968 0.54445
 O102 O 0.82511 0.51286 0.47966
 O103 O 0.78058 0.51403 0.47627
 O104 O 0.77594 0.46128 0.54040
 O105 O 0.77664 0.51367 0.54086
 O106 O 0.77921 0.46151 0.47612
 Cu107 Cu 0.82716 0.48617 0.51249
 Cu108 Cu 0.77365 0.48783 0.50799
 C109 C 0.80169 0.45135 0.46738
 C110 C 0.79831 0.52214 0.55371
 C111 C 0.79730 0.45128 0.55292
 C112 C 0.80351 0.52257 0.46731
 C113 C 0.21138 0.23077 0.17595
 C114 C 0.23196 0.21688 0.19261
 C115 C 0.24325 0.22774 0.22177
 C116 C 0.23482 0.25341 0.23374
 C117 C 0.21447 0.26742 0.21564
 C118 C 0.20240 0.25579 0.18758
 C119 C 0.24690 0.26548 0.26483
 C120 C 0.23296 0.28591 0.28290
 C121 C 0.24464 0.29799 0.31095
 C122 C 0.26962 0.28892 0.32258
 C123 C 0.28342 0.26826 0.30594
 C124 C 0.27252 0.25697 0.27681
 H125 H 0.20220 0.22200 0.15387
 H126 H 0.25828 0.21585 0.23489
 H127 H 0.20775 0.28738 0.22289
 H128 H 0.21302 0.29269 0.27565
 H129 H 0.27843 0.29808 0.34464
 H130 H 0.28435 0.24188 0.26371
 C131 C 0.79771 0.76359 0.17846
 C132 C 0.77710 0.77698 0.19565
 C133 C 0.76585 0.76536 0.22433
 C134 C 0.77418 0.73938 0.23527
 C135 C 0.79480 0.72595 0.21696
 C136 C 0.80684 0.73833 0.18924
 C137 C 0.76139 0.72648 0.26538
 C138 C 0.77494 0.70592 0.28367
 C139 C 0.76262 0.69378 0.31137
 C140 C 0.73730 0.70273 0.32213
 C141 C 0.72379 0.72327 0.30494
 C142 C 0.73535 0.73462 0.27630
 H143 H 0.80673 0.77290 0.15658
 H144 H 0.75079 0.77691 0.23786
 H145 H 0.80158 0.70587 0.22373
 H146 H 0.79506 0.69928 0.27691
 H147 H 0.72804 0.69363 0.34398
 H148 H 0.72370 0.74961 0.26276
 C149 C 0.77817 0.21403 0.18600
 C150 C 0.78631 0.23923 0.19743
 C151 C 0.77455 0.25035 0.22617
 C152 C 0.75535 0.23574 0.24493
 C153 C 0.74764 0.21002 0.23315
 C154 C 0.75869 0.19954 0.20350
 C155 C 0.74376 0.24727 0.27659
 C156 C 0.71794 0.23967 0.28826
 C157 C 0.70734 0.25082 0.31779
 C158 C 0.72182 0.27028 0.33526
 C159 C 0.74711 0.27831 0.32391
 C160 C 0.75834 0.26644 0.29533
 H161 H 0.78713 0.20559 0.16347
 H162 H 0.78053 0.27042 0.23355
 H163 H 0.73340 0.19787 0.24692
 H164 H 0.70578 0.22551 0.27443
 H165 H 0.71324 0.27943 0.35759
 H166 H 0.77842 0.27241 0.28796
 C167 C 0.22916 0.77905 0.16458
 C168 C 0.22115 0.75372 0.17581
 C169 C 0.23315 0.74235 0.20424
 C170 C 0.25242 0.75685 0.22296
 C171 C 0.25998 0.78271 0.21139
 C172 C 0.24871 0.79344 0.18201
 C173 C 0.26408 0.74515 0.25450
 C174 C 0.28979 0.75293 0.26630
 C175 C 0.30033 0.74183 0.29590
 C176 C 0.28593 0.72223 0.31329
 C177 C 0.26077 0.71402 0.30184
 C178 C 0.24957 0.72582 0.27318
 H179 H 0.21993 0.78774 0.14236
 H180 H 0.22720 0.72224 0.21150
 H181 H 0.27419 0.79482 0.22520
 H182 H 0.30186 0.76727 0.25260
 H183 H 0.29441 0.71324 0.33579
 H184 H 0.22953 0.71979 0.26582
 C185 C 0.71229 0.27242 0.68787
 C186 C 0.69783 0.25279 0.70513
 C187 C 0.70821 0.24171 0.73483
 C188 C 0.73386 0.24949 0.74683
 C189 C 0.74847 0.26880 0.72819
 C190 C 0.73738 0.28063 0.69949
 C191 C 0.74535 0.23791 0.77859
 C192 C 0.76488 0.25228 0.79704
 C193 C 0.77679 0.24103 0.82559
 C194 C 0.76837 0.21599 0.83733
 C195 C 0.74849 0.20176 0.82026
 C196 C 0.73737 0.21233 0.79068
 H197 H 0.70389 0.28145 0.66535
 H198 H 0.69603 0.22740 0.74843
 H199 H 0.76849 0.27485 0.73560
 H200 H 0.77113 0.27223 0.78952
 H201 H 0.77752 0.20742 0.85967
 H202 H 0.72292 0.20029 0.77716
 C203 C 0.28267 0.73190 0.66287
 C204 C 0.29689 0.75181 0.67990
 C205 C 0.28627 0.76307 0.70936
 C206 C 0.26064 0.75519 0.72139
 C207 C 0.24628 0.73560 0.70300
 C208 C 0.25759 0.72356 0.67455
 C209 C 0.24905 0.76683 0.75306
 C210 C 0.22971 0.75231 0.77175
 C211 C 0.21792 0.76349 0.80043
 C212 C 0.22618 0.78860 0.81196
 C213 C 0.24582 0.80299 0.79465
 C214 C 0.25689 0.79251 0.76498
 H215 H 0.29129 0.72267 0.64061
 H216 H 0.29830 0.77755 0.72284
 H217 H 0.22631 0.72941 0.71050
 H218 H 0.22362 0.73229 0.76442
 H219 H 0.21718 0.79705 0.83446
 H220 H 0.27122 0.80463 0.75134
 C221 C 0.26508 0.29365 0.67767
 C222 C 0.24002 0.30277 0.68902
 C223 C 0.22802 0.29067 0.71690
 C224 C 0.24169 0.27009 0.73502
 C225 C 0.26744 0.26160 0.72338
 C226 C 0.27865 0.27291 0.69444
 C227 C 0.22923 0.25775 0.76574
 C228 C 0.23760 0.23200 0.77748
 C229 C 0.22618 0.22087 0.80640
 C230 C 0.20545 0.23454 0.82307
 C231 C 0.19644 0.25962 0.81161
 C232 C 0.20865 0.27153 0.78375
 H233 H 0.27412 0.30279 0.65570
 H234 H 0.20804 0.29749 0.72394
 H235 H 0.27913 0.24646 0.73659
 H236 H 0.25273 0.22023 0.76436
 H237 H 0.19623 0.22557 0.84503
 H238 H 0.20192 0.29152 0.77662
 C239 C 0.72633 0.71156 0.67925
 C240 C 0.74714 0.69837 0.69629
 C241 C 0.75858 0.71021 0.72461
 C242 C 0.75033 0.73627 0.73530
 C243 C 0.72946 0.74950 0.71720
 C244 C 0.71720 0.73686 0.68984
 C245 C 0.76351 0.74940 0.76494
 C246 C 0.75023 0.77014 0.78319
 C247 C 0.76286 0.78236 0.81057
 C248 C 0.78821 0.77331 0.82105
 C249 C 0.80146 0.75261 0.80388
 C250 C 0.78962 0.74121 0.77551
 H251 H 0.71720 0.70208 0.65760
 H252 H 0.77378 0.69878 0.73804
 H253 H 0.72270 0.76960 0.72380
 H254 H 0.73009 0.77685 0.77668
 H255 H 0.79768 0.78241 0.84272
 H256 H 0.80109 0.72610 0.76198
 C257 C 0.26297 0.10590 0.10558
 C258 C 0.28547 0.11106 0.13120
 C259 C 0.28057 0.13289 0.15129
 C260 C 0.25367 0.14732 0.14370
 C261 C 0.23219 0.12534 0.14649
 C262 C 0.23708 0.10357 0.12647
 C263 C 0.25982 0.13251 0.08628
 C264 C 0.25495 0.15422 0.10626
 C265 C 0.26756 0.08278 0.08324
 C266 C 0.26997 0.06449 0.06351
 C267 C 0.24770 0.17120 0.16425
 C268 C 0.24129 0.19166 0.17868
 H269 H 0.30357 0.09867 0.13339
 H270 H 0.29447 0.13922 0.17069
 H271 H 0.21473 0.12668 0.16287
 H272 H 0.22380 0.08629 0.12572
 H273 H 0.26136 0.13418 0.05923
 H274 H 0.25232 0.17448 0.09628
 C275 C 0.78625 0.58604 0.61688
 C276 C 0.80625 0.59229 0.64514
 C277 C 0.79925 0.61458 0.66348
 C278 C 0.77298 0.62829 0.65164
 C279 C 0.75172 0.60601 0.65247
 C280 C 0.75869 0.58381 0.63421
 C281 C 0.78444 0.61205 0.59611
 C282 C 0.77748 0.63421 0.61435
 C283 C 0.79292 0.56242 0.59630
 C284 C 0.79650 0.54362 0.57764
 C285 C 0.76487 0.65252 0.67029
 C286 C 0.75719 0.67310 0.68339
 H287 H 0.82423 0.58031 0.65030
 H288 H 0.81123 0.62170 0.68436
 H289 H 0.73289 0.60748 0.66630
 H290 H 0.74582 0.56627 0.63242
 H291 H 0.78838 0.61300 0.56939
 H292 H 0.77545 0.65413 0.60322
 C293 C 0.73927 0.88960 0.11558
 C294 C 0.75478 0.86799 0.09569
 C295 C 0.76146 0.84580 0.11403
 C296 C 0.75201 0.84726 0.15058
 C297 C 0.72146 0.85264 0.14861
 C298 C 0.71475 0.87494 0.13017
 C299 C 0.75729 0.89576 0.14585
 C300 C 0.76399 0.87348 0.16427
 C301 C 0.73276 0.91328 0.09493
 C302 C 0.72898 0.93213 0.07635
 C303 C 0.75978 0.82296 0.16940
 C304 C 0.76721 0.80232 0.18264
 H305 H 0.76006 0.86993 0.06940
 H306 H 0.77245 0.82877 0.10343
 H307 H 0.70646 0.84011 0.16069
 H308 H 0.69401 0.88152 0.12645
 H309 H 0.76409 0.91585 0.15233
 H310 H 0.77653 0.87448 0.18650
 C311 C 0.20125 0.41184 0.60283
 C312 C 0.18756 0.41189 0.63737
 C313 C 0.19326 0.38937 0.65596
 C314 C 0.21205 0.36914 0.63808
 C315 C 0.23706 0.38544 0.62856
 C316 C 0.23140 0.40782 0.61009
 C317 C 0.19238 0.38545 0.58618
 C318 C 0.19806 0.36300 0.60472
 C319 C 0.19624 0.43585 0.58216
 C320 C 0.19444 0.45499 0.56363
 C321 C 0.21929 0.34500 0.65749
 C322 C 0.22756 0.32545 0.67239
 H323 H 0.17454 0.42808 0.64636
 H324 H 0.18512 0.38625 0.68089
 H325 H 0.25751 0.37991 0.63578
 H326 H 0.24700 0.42143 0.60152
 H327 H 0.18239 0.38450 0.56203
 H328 H 0.19295 0.34282 0.59646
 C329 C 0.89080 0.28691 0.11052
 C330 C 0.87544 0.26320 0.09522
 C331 C 0.85383 0.25533 0.11361
 C332 C 0.84956 0.27191 0.14561
 C333 C 0.84771 0.30138 0.13377
 C334 C 0.86945 0.30929 0.11527
 C335 C 0.89815 0.27767 0.14608
 C336 C 0.87646 0.26978 0.16454
 C337 C 0.91410 0.29440 0.08998
 C338 C 0.93293 0.29840 0.07157
 C339 C 0.82636 0.26248 0.16502
 C340 C 0.80774 0.25283 0.18016
 H341 H 0.88104 0.25343 0.07185
 H342 H 0.84093 0.23885 0.10600
 H343 H 0.83089 0.31482 0.13945
 H344 H 0.87127 0.32951 0.10510
 H345 H 0.91856 0.27746 0.15594
 H346 H 0.87829 0.26281 0.19023
 C347 C 0.41075 0.77761 0.59692
 C348 C 0.40817 0.74885 0.61078
 C349 C 0.38570 0.74513 0.62977
 C350 C 0.36793 0.77051 0.63312
 C351 C 0.36183 0.77924 0.59700
 C352 C 0.38430 0.78296 0.57800
 C353 C 0.40934 0.79604 0.62783
 C354 C 0.38675 0.79230 0.64692
 C355 C 0.43469 0.78078 0.57565
 C356 C 0.45368 0.78161 0.55679
 C357 C 0.34333 0.76571 0.65264
 C358 C 0.32244 0.76017 0.66642
 H359 H 0.42279 0.73281 0.60618
 H360 H 0.38110 0.72591 0.64142
 H361 H 0.34160 0.78233 0.58721
 H362 H 0.38330 0.78924 0.55197
 H363 H 0.42466 0.81069 0.63413
 H364 H 0.38272 0.80374 0.66958
 C365 C 0.11386 0.70967 0.09173
 C366 C 0.13677 0.72086 0.07004
 C367 C 0.15907 0.72776 0.08779
 C368 C 0.15636 0.72281 0.12555
 C369 C 0.14902 0.69286 0.12889
 C370 C 0.12660 0.68592 0.11103
 C371 C 0.10847 0.73147 0.11822
 C372 C 0.13077 0.73837 0.13598
 C373 C 0.08983 0.70341 0.07192
 C374 C 0.07037 0.70079 0.05417
 C375 C 0.18024 0.73134 0.14428
 C376 C 0.19931 0.74048 0.15896
 H377 H 0.13562 0.72307 0.04302
 H378 H 0.17700 0.73586 0.07598
 H379 H 0.16038 0.67843 0.14388
 H380 H 0.11874 0.66556 0.11073
 H381 H 0.08880 0.74061 0.12277
 H382 H 0.13020 0.75342 0.15572
 C383 C 0.58676 0.22792 0.61693
 C384 C 0.61290 0.21516 0.60337
 C385 C 0.63457 0.21861 0.62379
 C386 C 0.62804 0.23450 0.65582
 C387 C 0.60488 0.21908 0.67250
 C388 C 0.58311 0.21561 0.65198
 C389 C 0.59361 0.25760 0.62321
 C390 C 0.61525 0.26106 0.64360
 C391 C 0.56378 0.22491 0.59414
 C392 C 0.54564 0.22389 0.57408
 C393 C 0.65189 0.23902 0.67674
 C394 C 0.67244 0.24443 0.69130
 H395 H 0.61425 0.20425 0.57984
 H396 H 0.65448 0.21066 0.61774
 H397 H 0.60552 0.21156 0.69802
 H398 H 0.56508 0.20510 0.65995
 H399 H 0.58235 0.27449 0.61264
 H400 H 0.62252 0.28090 0.65048
 C401 C 0.72237 0.08821 0.90378
 C402 C 0.75211 0.09575 0.89937
 C403 C 0.75588 0.11812 0.88028
 C404 C 0.72956 0.13090 0.86734
 C405 C 0.71249 0.13610 0.89883
 C406 C 0.70871 0.11368 0.91796
 C407 C 0.71134 0.08556 0.86797
 C408 C 0.71513 0.10806 0.84877
 C409 C 0.71914 0.06434 0.92517
 C410 C 0.71830 0.04539 0.94410
 C411 C 0.73443 0.15543 0.84769
 C412 C 0.74004 0.17626 0.83382
 H413 H 0.76881 0.08442 0.91025
 H414 H 0.77580 0.12594 0.87482
 H415 H 0.70400 0.15567 0.90544
 H416 H 0.69699 0.11405 0.94095
 H417 H 0.70142 0.06766 0.85859
 H418 H 0.70846 0.10945 0.82293
 C419 C 0.21334 0.60934 0.38861
 C420 C 0.23876 0.60406 0.36757
 C421 C 0.24660 0.62573 0.34916
 C422 C 0.22827 0.65062 0.35354
 C423 C 0.22774 0.65594 0.39137
 C424 C 0.21991 0.63427 0.40978
 C425 C 0.19189 0.61907 0.36347
 C426 C 0.19977 0.64084 0.34497
 C427 C 0.20589 0.58604 0.40915
 C428 C 0.20187 0.56723 0.42758
 C429 C 0.23766 0.67385 0.33417
 C430 C 0.24725 0.69251 0.31906
 H431 H 0.24961 0.58492 0.36706
 H432 H 0.26417 0.62513 0.33290
 H433 H 0.23296 0.67510 0.40270
 H434 H 0.21842 0.63488 0.43690
 H435 H 0.17233 0.60972 0.36048
 H436 H 0.18695 0.65017 0.32612
 C437 C 0.27069 0.91397 0.88309
 C438 C 0.26568 0.92168 0.84630
 C439 C 0.26223 0.89997 0.82575
 C440 C 0.26414 0.87275 0.84406
 C441 C 0.24327 0.87472 0.87237
 C442 C 0.24670 0.89631 0.89281
 C443 C 0.29509 0.89462 0.88229
 C444 C 0.29164 0.87293 0.86176
 C445 C 0.27370 0.93694 0.90594
 C446 C 0.27473 0.95507 0.92602
 C447 C 0.25965 0.84892 0.82305
 C448 C 0.25424 0.82838 0.80845
 H449 H 0.26500 0.94233 0.83721
 H450 H 0.25860 0.90200 0.79906
 H451 H 0.22711 0.86037 0.87604
 H452 H 0.23349 0.90042 0.91395
 H453 H 0.31347 0.89774 0.89648
 H454 H 0.30708 0.85747 0.85836
 C455 C 0.79212 0.38549 0.40736
 C456 C 0.79579 0.38856 0.36937
 C457 C 0.78863 0.36616 0.35173
 C458 C 0.77852 0.34298 0.37387
 C459 C 0.75539 0.35529 0.39450
 C460 C 0.76252 0.37756 0.41205
 C461 C 0.80846 0.36009 0.41680
 C462 C 0.80130 0.33770 0.39916
 C463 C 0.79865 0.40954 0.42699
 C464 C 0.80145 0.42901 0.44464
 C465 C 0.76976 0.31911 0.35532
 C466 C 0.76045 0.30008 0.34074
 H467 H 0.80343 0.40663 0.35742
 H468 H 0.79013 0.36504 0.32464
 H469 H 0.73511 0.34720 0.39528
 H470 H 0.74832 0.38853 0.42783
 H471 H 0.82431 0.35976 0.43555
 H472 H 0.81099 0.31817 0.40279
 C473 C 0.08735 0.29845 0.89770
 C474 C 0.08716 0.31194 0.86304
 C475 C 0.10968 0.30626 0.84444
 C476 C 0.13005 0.28769 0.86242
 C477 C 0.11392 0.26264 0.87222
 C478 C 0.09155 0.26827 0.89070
 C479 C 0.11371 0.30757 0.91420
 C480 C 0.13616 0.30192 0.89564
 C481 C 0.06335 0.30341 0.91841
 C482 C 0.04423 0.30514 0.93699
 C483 C 0.15419 0.28047 0.84301
 C484 C 0.17376 0.27217 0.82814
 H485 H 0.07088 0.32481 0.85399
 H486 H 0.11270 0.31428 0.81942
 H487 H 0.11956 0.24218 0.86517
 H488 H 0.07805 0.25264 0.89945
 H489 H 0.11465 0.31771 0.93826
 H490 H 0.15632 0.30720 0.90380
 C491 C 0.61082 0.76074 0.38443
 C492 C 0.63299 0.74662 0.40493
 C493 C 0.65526 0.73997 0.38674
 C494 C 0.65331 0.74805 0.34972
 C495 C 0.64701 0.77847 0.35006
 C496 C 0.62462 0.78516 0.36834
 C497 C 0.60505 0.74146 0.35526
 C498 C 0.62740 0.73479 0.33700
 C499 C 0.58705 0.76725 0.40492
 C500 C 0.56813 0.77108 0.42337
 C501 C 0.67768 0.74032 0.33106
 C502 C 0.69839 0.73299 0.31790
 H503 H 0.63136 0.74225 0.43151
 H504 H 0.67268 0.72988 0.39775
 H505 H 0.65900 0.79340 0.33703
 H506 H 0.61743 0.80581 0.37099
 H507 H 0.58515 0.73382 0.34939
 H508 H 0.62666 0.72143 0.31549
 C509 C 0.91406 0.71453 0.88344
 C510 C 0.90426 0.69160 0.86077
 C511 C 0.88194 0.69833 0.84237
 C512 C 0.87174 0.72730 0.84854
 C513 C 0.89610 0.74532 0.84150
 C514 C 0.91835 0.73860 0.85984
 C515 C 0.88949 0.72241 0.90479
 C516 C 0.86730 0.72910 0.88650
 C517 C 0.93774 0.70813 0.90408
 C518 C 0.95658 0.70476 0.92274
 C519 C 0.84745 0.73514 0.82981
 C520 C 0.82681 0.74266 0.81670
 H521 H 0.91397 0.67191 0.85926
 H522 H 0.87253 0.68441 0.82508
 H523 H 0.89594 0.76181 0.82358
 H524 H 0.93726 0.74935 0.85762
 H525 H 0.88948 0.72263 0.93199
 H526 H 0.84831 0.73507 0.89804
 C527 C 0.39416 0.23641 0.39288
 C528 C 0.40177 0.24407 0.35681
 C529 C 0.37999 0.24917 0.33676
 C530 C 0.35282 0.24609 0.35480
 C531 C 0.35452 0.26477 0.38532
 C532 C 0.37618 0.25970 0.40527
 C533 C 0.37515 0.21229 0.38939
 C534 C 0.35339 0.21738 0.36935
 C535 C 0.41722 0.23159 0.41521
 C536 C 0.43548 0.22900 0.43493
 C537 C 0.32900 0.25226 0.33428
 C538 C 0.30858 0.25880 0.31987
 H539 H 0.42240 0.24528 0.34780
 H540 H 0.38196 0.25475 0.31058
 H541 H 0.33994 0.28068 0.39080
 H542 H 0.38013 0.27126 0.42780
 H543 H 0.37853 0.19291 0.40146
 H544 H 0.33814 0.20237 0.36426
 C545 C 0.72725 0.88896 0.90296
 C546 C 0.72333 0.89478 0.86548
 C547 C 0.72823 0.87292 0.84551
 C548 C 0.73655 0.84745 0.86503
 C549 C 0.71378 0.84304 0.89051
 C550 C 0.70889 0.86490 0.91048
 C551 C 0.75607 0.87767 0.90590
 C552 C 0.76094 0.85592 0.88603
 C553 C 0.72293 0.91232 0.92493
 C554 C 0.72124 0.93110 0.94402
 C555 C 0.74294 0.82393 0.84409
 C556 C 0.75068 0.80475 0.82808
 H557 H 0.71717 0.91429 0.85553
 H558 H 0.72626 0.87369 0.81845
 H559 H 0.70247 0.82447 0.89260
 H560 H 0.69336 0.86505 0.92968
 H561 H 0.77137 0.88605 0.92221
 H562 H 0.78042 0.84569 0.88536
 C563 C 0.20398 0.40799 0.39409
 C564 C 0.20344 0.38207 0.41515
 C565 C 0.20961 0.35935 0.39744
 C566 C 0.21572 0.36475 0.36037
 C567 C 0.23832 0.38568 0.36054
 C568 C 0.23216 0.40835 0.37822
 C569 C 0.18458 0.40280 0.36485
 C570 C 0.19077 0.37999 0.34706
 C571 C 0.19842 0.43240 0.41381
 C572 C 0.19613 0.45205 0.43139
 C573 C 0.22343 0.34036 0.34174
 C574 C 0.23198 0.32070 0.32728
 H575 H 0.19852 0.38158 0.44165
 H576 H 0.20997 0.33942 0.40875
 H577 H 0.25751 0.38296 0.34777
 H578 H 0.24608 0.42503 0.38056
 H579 H 0.16753 0.41581 0.35870
 H580 H 0.17903 0.37345 0.32568
 C581 C 0.25998 0.10912 0.89067
 C582 C 0.24088 0.10324 0.86135
 C583 C 0.23523 0.12529 0.84204
 C584 C 0.24925 0.15105 0.85395
 C585 C 0.27942 0.14371 0.85517
 C586 C 0.28508 0.12162 0.87451
 C587 C 0.24640 0.13231 0.90995
 C588 C 0.24077 0.15429 0.89071
 C589 C 0.26537 0.08565 0.91216
 C590 C 0.26837 0.06689 0.93109
 C591 C 0.24253 0.17513 0.83413
 C592 C 0.23572 0.19565 0.82011
 H593 H 0.23260 0.08348 0.85615
 H594 H 0.22213 0.12443 0.82031
 H595 H 0.29493 0.15480 0.84196
 H596 H 0.30543 0.11379 0.87789
 H597 H 0.24163 0.13156 0.93648
 H598 H 0.23119 0.17234 0.90078
 C599 C 0.79893 0.58680 0.40290
 C600 C 0.81318 0.61245 0.41479
 C601 C 0.80821 0.63443 0.39504
 C602 C 0.78948 0.62857 0.36537
 C603 C 0.76403 0.61656 0.38112
 C604 C 0.76898 0.59469 0.40078
 C605 C 0.80797 0.58297 0.36639
 C606 C 0.80299 0.60498 0.34662
 C607 C 0.80319 0.56327 0.42469
 C608 C 0.80448 0.54435 0.44365
 C609 C 0.78294 0.65220 0.34464
 C610 C 0.77503 0.67142 0.32877
 H611 H 0.82613 0.61325 0.43667
 H612 H 0.81689 0.65405 0.40000
 H613 H 0.74380 0.62456 0.37716
 H614 H 0.75298 0.58399 0.41360
 H615 H 0.81751 0.56468 0.35695
 H616 H 0.80827 0.60554 0.32024
 C617 C 0.11233 0.71773 0.88674
 C618 C 0.10601 0.73931 0.86023
 C619 C 0.12789 0.74671 0.84191
 C620 C 0.15399 0.73184 0.85185
 C621 C 0.14739 0.70170 0.84889
 C622 C 0.12541 0.69426 0.86730
 C623 C 0.13521 0.72957 0.90783
 C624 C 0.15708 0.73697 0.88952
 C625 C 0.08879 0.71071 0.90710
 C626 C 0.06977 0.70689 0.92526
 C627 C 0.17744 0.74078 0.83256
 C628 C 0.19626 0.75012 0.81752
 H629 H 0.08606 0.74793 0.85610
 H630 H 0.12667 0.76169 0.82209
 H631 H 0.15890 0.68751 0.83374
 H632 H 0.11808 0.67369 0.86791
 H633 H 0.13436 0.73184 0.93485
 H634 H 0.17494 0.74558 0.90085
 C635 C 0.59243 0.22684 0.39935
 C636 C 0.58707 0.24023 0.36525
 C637 C 0.60980 0.24363 0.34646
 C638 C 0.63562 0.23329 0.36363
 C639 C 0.62999 0.20367 0.37234
 C640 C 0.60725 0.20027 0.39115
 C641 C 0.61368 0.24455 0.41616
 C642 C 0.63630 0.24793 0.39745
 C643 C 0.56828 0.22392 0.42031
 C644 C 0.54910 0.22304 0.43886
 C645 C 0.66043 0.23770 0.34438
 C646 C 0.68153 0.24287 0.33087
 H647 H 0.56718 0.24639 0.35659
 H648 H 0.60938 0.25269 0.32170
 H649 H 0.64267 0.18688 0.36435
 H650 H 0.60044 0.18057 0.39928
 H651 H 0.61119 0.25366 0.44071
 H652 H 0.65316 0.25994 0.40600
 C653 C 0.88543 0.28769 0.90507
 C654 C 0.89106 0.27720 0.86958
 C655 C 0.86843 0.26942 0.85296
 C656 C 0.84239 0.27288 0.87346
 C657 C 0.84184 0.30271 0.88394
 C658 C 0.86453 0.31052 0.90061
 C659 C 0.87007 0.26490 0.92252
 C660 C 0.84751 0.25713 0.90595
 C661 C 0.90980 0.29507 0.92360
 C662 C 0.92960 0.29895 0.94037
 C663 C 0.81823 0.26359 0.85590
 C664 C 0.79893 0.25418 0.84194
 H665 H 0.91102 0.27611 0.85842
 H666 H 0.86902 0.26164 0.82755
 H667 H 0.82517 0.31645 0.87870
 H668 H 0.86731 0.33096 0.90963
 H669 H 0.87636 0.25567 0.94597
 H670 H 0.83449 0.24128 0.91520
 C671 C 0.41253 0.76954 0.38091
 C672 C 0.41955 0.75977 0.34542
 C673 C 0.39747 0.75547 0.32579
 C674 C 0.37059 0.76138 0.34362
 C675 C 0.37281 0.79057 0.35616
 C676 C 0.39488 0.79486 0.37578
 C677 C 0.39333 0.74823 0.39493
 C678 C 0.37136 0.74395 0.37539
 C679 C 0.43593 0.77354 0.40278
 C680 C 0.45449 0.77557 0.42209
 C681 C 0.34644 0.75609 0.32353
 C682 C 0.32577 0.75033 0.30946
 H683 H 0.44003 0.75660 0.33648
 H684 H 0.39902 0.74863 0.30003
 H685 H 0.35839 0.80646 0.35006
 H686 H 0.39937 0.81443 0.38650
 H687 H 0.39671 0.73740 0.41823
 H688 H 0.35594 0.72946 0.38199
 C689 C 0.27243 0.90853 0.10076
 C690 C 0.26636 0.91427 0.13784
 C691 C 0.26302 0.89149 0.15661
 C692 C 0.26610 0.86528 0.13641
 C693 C 0.29398 0.86704 0.11977
 C694 C 0.29731 0.88981 0.10101
 C695 C 0.24917 0.89076 0.08888
 C696 C 0.24585 0.86810 0.10755
 C697 C 0.27527 0.93269 0.07983
 C698 C 0.27607 0.95188 0.06128
 C699 C 0.26177 0.84043 0.15559
 C700 C 0.25663 0.81929 0.16904
 H701 H 0.26490 0.93441 0.14842
 H702 H 0.25872 0.89211 0.18326
 H703 H 0.30974 0.85183 0.12258
 H704 H 0.31592 0.89409 0.08775
 H705 H 0.23636 0.89557 0.06760
 H706 H 0.23021 0.85353 0.10223
 C707 C 0.78366 0.38652 0.61406
 C708 C 0.75762 0.39093 0.63419
 C709 C 0.75008 0.36899 0.65228
 C710 C 0.76930 0.34470 0.64854
 C711 C 0.79724 0.35540 0.65813
 C712 C 0.80482 0.37746 0.63995
 C713 C 0.77842 0.36141 0.59263
 C714 C 0.77087 0.33945 0.61073
 C715 C 0.79085 0.41014 0.59392
 C716 C 0.79482 0.42924 0.57596
 C717 C 0.76022 0.32118 0.66761
 C718 C 0.75081 0.30232 0.68251
 H719 H 0.74613 0.40971 0.63433
 H720 H 0.73213 0.36899 0.66791
 H721 H 0.80992 0.34647 0.67742
 H722 H 0.82399 0.38743 0.64365
 H723 H 0.78056 0.36089 0.56557
 H724 H 0.76655 0.32014 0.59919
 C725 C 0.73087 0.08688 0.11948
 C726 C 0.74889 0.08121 0.15001
 C727 C 0.75326 0.10339 0.16938
 C728 C 0.73917 0.12904 0.15631
 C729 C 0.70925 0.12162 0.15332
 C730 C 0.70487 0.09941 0.13392
 C731 C 0.74468 0.10999 0.10079
 C732 C 0.74904 0.13208 0.12009
 C733 C 0.72678 0.06335 0.09786
 C734 C 0.72468 0.04471 0.07869
 C735 C 0.74452 0.15330 0.17614
 C736 C 0.75028 0.17404 0.19005
 H737 H 0.75738 0.06149 0.15595
 H738 H 0.76549 0.10269 0.19192
 H739 H 0.69298 0.13275 0.16542
 H740 H 0.68485 0.09151 0.12939
 H741 H 0.75053 0.10909 0.07459
 H742 H 0.75862 0.15010 0.11040
 C743 C 0.21156 0.61490 0.59443
 C744 C 0.23578 0.61036 0.61773
 C745 C 0.24337 0.63293 0.63450
 C746 C 0.22603 0.65792 0.62639
 C747 C 0.19688 0.64942 0.63380
 C748 C 0.18925 0.62674 0.61694
 C749 C 0.21985 0.63823 0.57141
 C750 C 0.22745 0.66081 0.58818
 C751 C 0.20438 0.59054 0.57571
 C752 C 0.20065 0.57076 0.55886
 C753 C 0.23514 0.68208 0.64413
 C754 C 0.24446 0.70139 0.65819
 H755 H 0.24603 0.59105 0.62089
 H756 H 0.26013 0.63294 0.65200
 H757 H 0.18346 0.66023 0.65071
 H758 H 0.16930 0.61811 0.61942
 H759 H 0.21967 0.63715 0.54425
 H760 H 0.23377 0.67904 0.57541
 C761 C 0.91388 0.70248 0.09761
 C762 C 0.90641 0.73249 0.10064
 C763 C 0.88455 0.73735 0.12032
 C764 C 0.87212 0.71177 0.13519
 C765 C 0.89543 0.69753 0.15365
 C766 C 0.91744 0.69263 0.13385
 C767 C 0.88806 0.68885 0.08514
 C768 C 0.86609 0.69374 0.10491
 C769 C 0.93739 0.69831 0.07579
 C770 C 0.95628 0.69709 0.05679
 C771 C 0.84848 0.71822 0.15594
 C772 C 0.82924 0.72605 0.17182
 H773 H 0.91740 0.74858 0.08839
 H774 H 0.87683 0.75761 0.12488
 H775 H 0.89469 0.69173 0.17985
 H776 H 0.93555 0.68264 0.14308
 H777 H 0.88716 0.67637 0.06284
 H778 H 0.84637 0.68545 0.09956
 C779 C 0.39042 0.23878 0.61041
 C780 C 0.37216 0.26106 0.59591
 C781 C 0.35019 0.26673 0.61511
 C782 C 0.34848 0.24961 0.64706
 C783 C 0.37538 0.25412 0.66517
 C784 C 0.39746 0.24841 0.64588
 C785 C 0.37182 0.21453 0.61558
 C786 C 0.34974 0.22023 0.63488
 C787 C 0.41390 0.23332 0.58895
 C788 C 0.43270 0.23026 0.57009
 C789 C 0.32439 0.25638 0.66685
 C790 C 0.30387 0.26326 0.68081
 H791 H 0.37615 0.27150 0.57252
 H792 H 0.33538 0.28203 0.60816
 H793 H 0.37694 0.26107 0.69086
 H794 H 0.41794 0.25048 0.65505
 H795 H 0.37568 0.19464 0.60513
 H796 H 0.33469 0.20522 0.64096
 C797 C 0.09228 0.29660 0.10495
 C798 C 0.09324 0.30995 0.13963
 C799 C 0.11610 0.30375 0.15728
 C800 C 0.13562 0.28485 0.13842
 C801 C 0.14119 0.29908 0.10500
 C802 C 0.11839 0.30526 0.08739
 C803 C 0.09604 0.26633 0.11169
 C804 C 0.11875 0.26017 0.12922
 C805 C 0.06783 0.30215 0.08536
 C806 C 0.04814 0.30437 0.06784
 C807 C 0.16005 0.27710 0.15691
 C808 C 0.17971 0.26851 0.17129
 H809 H 0.07747 0.32311 0.14939
 H810 H 0.11991 0.31161 0.18217
 H811 H 0.16124 0.30398 0.09603
 H812 H 0.11892 0.31546 0.06333
 H813 H 0.08201 0.25100 0.10344
 H814 H 0.12416 0.23957 0.13596
 C815 C 0.61028 0.77240 0.59788
 C816 C 0.62381 0.79819 0.61072
 C817 C 0.64574 0.79327 0.63064
 C818 C 0.65187 0.76309 0.63567
 C819 C 0.65470 0.75154 0.60019
 C820 C 0.63289 0.75643 0.58038
 C821 C 0.60373 0.75607 0.62947
 C822 C 0.62558 0.75117 0.64932
 C823 C 0.58686 0.77674 0.57597
 C824 C 0.56805 0.77848 0.55693
 C825 C 0.67545 0.75669 0.65653
 C826 C 0.69470 0.74898 0.67246
 H827 H 0.61678 0.81844 0.60474
 H828 H 0.65751 0.80931 0.64174
 H829 H 0.67236 0.74053 0.59133
 H830 H 0.63190 0.74959 0.55458
 H831 H 0.58367 0.74905 0.63578
 H832 H 0.62422 0.73997 0.67263
   
