data_POSCAR
  _audit_creation_date              2014-09-24
  _audit_creation_method            'ToBaCCo'
  _symmetry_space_group_name_H-M    'P1'
  _symmetry_Int_Tables_number       1
  _symmetry_cell_setting            triclinic
  loop_
  _symmetry_equiv_pos_as_xyz
 x,y,z
_cell_length_a 24.2897
_cell_length_b 24.3842
_cell_length_c 24.1367
_cell_angle_alpha 90.122700
_cell_angle_beta 90.091700
_cell_angle_gamma 90.021900
loop_
  _atom_site_label
  _atom_site_type_symbol
  _atom_site_fract_x
  _atom_site_fract_y
  _atom_site_fract_z
C1 C 0.37632 1.01526 -0.54965
 C2 C 0.34959 1.01898 -0.49825
 C3 C 0.37866 1.01975 -0.44840
 C4 C 0.43669 1.01898 -0.44891
 C5 C 0.46508 1.01555 -0.50008
 C6 C 0.43497 1.01395 -0.55066
 C7 C 0.46454 1.01396 -0.60066
 C8 C 0.52147 1.01066 -0.60124
 C9 C 0.55235 1.01221 -0.55192
 C10 C 0.52376 1.01388 -0.50060
 C11 C 0.46698 1.02180 -0.39949
 C12 C 0.52404 1.02080 -0.40002
 C13 C 0.55350 1.01395 -0.44974
 C14 C 0.61192 1.01045 -0.45036
 C15 C 0.63902 1.00839 -0.50160
 C16 C 0.61078 1.00968 -0.55228
 H17 H 0.44438 1.01696 -0.64041
 H18 H 0.54054 1.00647 -0.64136
 H19 H 0.44695 1.02555 -0.35969
 H20 H 0.54450 1.02639 -0.36068
 H21 H 0.30494 1.01821 -0.49652
 H22 H 0.68361 1.00565 -0.50211
 C23 C -0.55486 1.38174 0.00573
 C24 C -0.50448 1.35387 0.00521
 C25 C -0.45437 1.38178 0.00022
 C26 C -0.45434 1.43967 -0.00469
 C27 C -0.50484 1.46883 -0.00224
 C28 C -0.55522 1.43979 0.00348
 C29 C -0.60446 1.46959 0.00836
 C30 C -0.60467 1.52651 0.00547
 C31 C -0.55561 1.55608 -0.00233
 C32 C -0.50495 1.52721 -0.00496
 C33 C -0.40522 1.46921 -0.01157
 C34 C -0.40552 1.52603 -0.01614
 C35 C -0.45449 1.55643 -0.01038
 C36 C -0.45499 1.61489 -0.01311
 C37 C -0.50611 1.64206 -0.01248
 C38 C -0.55587 1.61386 -0.00649
 H39 H -0.64345 1.44928 0.01519
 H40 H -0.64388 1.54706 0.00978
 H41 H -0.36583 1.44878 -0.01413
 H42 H -0.36661 1.54551 -0.02505
 H43 H -0.50425 1.30946 0.00777
 H44 H -0.50740 1.68651 -0.01385
 C45 C 0.02620 0.37975 0.45038
 C46 C 0.03081 0.35292 0.50164
 C47 C 0.03015 0.38109 0.55248
 C48 C 0.02781 0.43938 0.55191
 C49 C 0.02360 0.46774 0.50068
 C50 C 0.02396 0.43806 0.44985
 C51 C 0.02740 0.46776 0.40001
 C52 C 0.02543 0.52460 0.39950
 C53 C 0.02147 0.55466 0.44892
 C54 C 0.02186 0.52627 0.50017
 C55 C 0.03539 0.47034 0.60059
 C56 C 0.03303 0.52720 0.60007
 C57 C 0.02329 0.55627 0.55079
 C58 C 0.02075 0.61469 0.55002
 C59 C 0.02029 0.64138 0.49845
 C60 C 0.02055 0.61256 0.44841
 H61 H 0.03379 0.44767 0.36062
 H62 H 0.02876 0.54474 0.35976
 H63 H 0.04550 0.45113 0.63961
 H64 H 0.04144 0.54805 0.63872
 H65 H 0.02978 0.30845 0.50217
 H66 H 0.01725 0.68573 0.49674
 O67 O -0.07778 0.99674 -0.14231
 O68 O -0.08016 0.99937 0.14079
 O69 O -0.14763 0.92506 -0.00395
 O70 O -0.14638 1.07269 0.00172
 O71 O -0.07954 1.14005 0.00180
 O72 O -0.08212 0.85657 -0.00384
 O73 O -0.14777 1.00064 0.07395
 O74 O -0.14644 0.99718 -0.07670
 Zr75 Zr -0.10229 0.99847 -0.00094
 O76 O -0.05540 1.04794 0.04974
 O77 O -0.05539 0.94824 -0.05078
 C78 C -0.12903 0.99606 -0.12758
 C79 C -0.13112 1.00115 0.12516
 C80 C -0.13281 0.87395 -0.00527
 C81 C -0.13049 1.12349 0.00297
 H82 H -0.07991 0.92451 0.07236
 O83 O -0.05616 0.94767 0.04877
 H84 H -0.07737 1.07181 -0.07383
 O85 O -0.05435 1.04830 -0.04982
 O86 O 0.06653 0.99428 0.14245
 O87 O 0.06952 0.99938 -0.14085
 O88 O -0.00474 0.85546 0.07437
 O89 O -0.00638 1.13884 0.07692
 O90 O -0.00100 1.13968 -0.07465
 O91 O -0.00751 0.85639 -0.07687
 O92 O 0.13546 0.92273 0.00326
 O93 O 0.13683 1.07044 0.00130
 O94 O 0.06875 0.85531 0.00119
 O95 O 0.07114 1.13881 0.00037
 O96 O -0.00431 0.92326 0.14105
 O97 O -0.00654 0.92498 -0.14236
 O98 O -0.00109 1.07175 -0.14115
 O99 O -0.00767 1.07012 0.14230
 O100 O 0.13537 0.99410 0.07708
 O101 O 0.13688 0.99968 -0.07355
 Zr102 Zr -0.00638 0.99699 0.09608
 Zr103 Zr -0.00453 0.99815 -0.09616
 Zr104 Zr -0.00630 0.90007 -0.00086
 Zr105 Zr -0.00461 1.09524 0.00072
 Zr106 Zr 0.09140 0.99694 0.00117
 O107 O 0.04544 1.04765 -0.04889
 O108 O 0.04358 0.94685 0.04990
 C109 C 0.11778 0.99316 0.12790
 C110 C 0.12042 1.00040 -0.12479
 C111 C -0.00298 0.87235 0.12547
 C112 C -0.00739 1.12129 0.12779
 C113 C 0.00072 1.12270 -0.12575
 C114 C -0.00764 0.87384 -0.12775
 C115 C 0.11970 0.87188 0.00338
 C116 C 0.12187 1.12153 0.00084
 H117 H 0.06800 0.92448 -0.07321
 O118 O 0.04439 0.94765 -0.04942
 H119 H 0.06762 1.06956 0.07496
 O120 O 0.04415 1.04683 0.05054
 C121 C 0.27257 1.00240 0.30945
 C122 C 0.26304 1.04246 0.35011
 C123 C 0.29751 1.04677 0.39607
 C124 C 0.34301 1.01155 0.40232
 C125 C 0.35191 0.97078 0.36175
 C126 C 0.31748 0.96677 0.31541
 C127 C 0.23392 0.99674 0.26245
 C128 C 0.25289 0.99189 0.20767
 C129 C 0.21540 0.98994 0.16351
 C130 C 0.15844 0.99231 0.17365
 C131 C 0.13991 0.99540 0.22880
 C132 C 0.17715 0.99771 0.27252
 H133 H 0.28921 1.07864 0.42627
 H134 H 0.38451 0.94087 0.36665
 H135 H 0.23099 0.98732 0.12158
 H136 H 0.09641 0.99691 0.23847
 H137 H 0.32484 0.93473 0.28517
 H138 H 0.29661 0.99112 0.19901
 H139 H 0.22882 1.07069 0.34623
 H140 H 0.16150 1.00048 0.31443
 C141 C -0.28843 1.00482 0.30461
 C142 C -0.28212 0.96604 0.34702
 C143 C -0.31577 0.96754 0.39362
 C144 C -0.35746 1.00727 0.39873
 C145 C -0.36385 1.04611 0.35600
 C146 C -0.32999 1.04454 0.30915
 C147 C -0.24915 1.00538 0.25782
 C148 C -0.26696 1.01190 0.20276
 C149 C -0.22892 1.01053 0.15913
 C150 C -0.17251 1.00309 0.17009
 C151 C -0.15508 0.99757 0.22542
 C152 C -0.19285 0.99872 0.26857
 H153 H -0.30972 0.93686 0.42547
 H154 H -0.39377 1.07885 0.35970
 H155 H -0.24361 1.01521 0.11702
 H156 H -0.11204 0.99206 0.23573
 H157 H -0.33491 1.07557 0.27749
 H158 H -0.31028 1.01704 0.19348
 H159 H -0.25076 0.93458 0.34428
 H160 H -0.17785 0.99465 0.31065
 C161 C -0.28492 1.00240 -0.30860
 C162 C -0.27325 1.03869 -0.35206
 C163 C -0.30763 1.04158 -0.39815
 C164 C -0.35522 1.00877 -0.40187
 C165 C -0.36678 0.97226 -0.35815
 C166 C -0.33227 0.96954 -0.31173
 C167 C -0.24608 0.99773 -0.26156
 C168 C -0.26473 0.99670 -0.20647
 C169 C -0.22697 0.99551 -0.16251
 C170 C -0.17002 0.99498 -0.17309
 C171 C -0.15185 0.99433 -0.22841
 C172 C -0.18936 0.99574 -0.27196
 H173 H -0.29746 1.07048 -0.43062
 H174 H -0.40147 0.94443 -0.36066
 H175 H -0.24233 0.99574 -0.12042
 H176 H -0.10841 0.99333 -0.23838
 H177 H -0.34154 0.94049 -0.27918
 H178 H -0.30836 0.99828 -0.19746
 H179 H -0.23734 1.06500 -0.35035
 H180 H -0.17391 0.99540 -0.31404
 C181 C 0.27897 1.00890 -0.30242
 C182 C 0.28453 0.96385 -0.33834
 C183 C 0.31794 0.96741 -0.38505
 C184 C 0.34639 1.01600 -0.39669
 C185 C 0.34178 1.06089 -0.36055
 C186 C 0.30856 1.05722 -0.31338
 C187 C 0.23948 1.00625 -0.25595
 C188 C 0.25384 1.02457 -0.20260
 C189 C 0.21563 1.02183 -0.15928
 C190 C 0.16228 1.00159 -0.16905
 C191 C 0.14821 0.98341 -0.22251
 C192 C 0.18641 0.98553 -0.26535
 H193 H 0.32110 0.93246 -0.41266
 H194 H 0.36323 1.09883 -0.36937
 H195 H 0.22743 1.03636 -0.11852
 H196 H 0.10752 0.96737 -0.23134
 H197 H 0.30442 1.09265 -0.28658
 H198 H 0.29467 1.04054 -0.19442
 H199 H 0.26249 0.92603 -0.33052
 H200 H 0.17411 0.97175 -0.30623
 C201 C 0.30081 1.27898 0.00805
 C202 C 0.30864 1.31700 -0.03492
 C203 C 0.35504 1.35108 -0.03526
 C204 C 0.39394 1.34839 0.00781
 C205 C 0.38564 1.31116 0.05122
 C206 C 0.33954 1.27687 0.05140
 C207 C 0.25425 1.23949 0.00634
 C208 C 0.26357 1.18406 0.01870
 C209 C 0.22060 1.14619 0.01663
 C210 C 0.16690 1.16270 0.00243
 C211 C 0.15735 1.21827 -0.00981
 C212 C 0.20073 1.25625 -0.00822
 H213 H 0.36120 1.37889 -0.06963
 H214 H 0.41522 1.30831 0.08472
 H215 H 0.22960 1.10382 0.02653
 H216 H 0.11653 1.23230 -0.02098
 H217 H 0.33431 1.24834 0.08531
 H218 H 0.30446 1.16975 0.02925
 H219 H 0.27990 1.31902 -0.06919
 H220 H 0.19236 1.29882 -0.01775
 C221 C 0.29890 0.71465 0.00392
 C222 C 0.30575 0.67807 -0.04070
 C223 C 0.35255 0.64464 -0.04390
 C224 C 0.39295 0.64687 -0.00228
 C225 C 0.38571 0.68255 0.04272
 C226 C 0.33913 0.71596 0.04591
 C227 C 0.25188 0.75369 0.00532
 C228 C 0.26088 0.80847 0.02091
 C229 C 0.21776 0.84616 0.02094
 C230 C 0.16422 0.83023 0.00545
 C231 C 0.15479 0.77520 -0.00939
 C232 C 0.19831 0.73735 -0.00975
 H233 H 0.35776 0.61765 -0.07920
 H234 H 0.41644 0.68477 0.07522
 H235 H 0.22662 0.88809 0.03289
 H236 H 0.11408 0.76164 -0.02163
 H237 H 0.33473 0.74316 0.08114
 H238 H 0.30172 0.82260 0.03198
 H239 H 0.27585 0.67662 -0.07399
 H240 H 0.19006 0.69528 -0.02159
 C241 C -0.31338 0.71793 -0.01440
 C242 C -0.35734 0.72697 -0.05117
 C243 C -0.40340 0.69270 -0.05103
 C244 C -0.40658 0.64755 -0.01483
 C245 C -0.36234 0.63859 0.02202
 C246 C -0.31618 0.67307 0.02190
 C247 C -0.26636 0.75703 -0.01227
 C248 C -0.21177 0.73874 -0.00576
 C249 C -0.16803 0.77635 -0.00383
 C250 C -0.17812 0.83301 -0.00801
 C251 C -0.23284 0.85097 -0.01438
 C252 C -0.27621 0.81359 -0.01642
 H253 H -0.43624 0.70099 -0.08026
 H254 H -0.36431 0.60619 0.05258
 H255 H -0.12647 0.76107 0.00114
 H256 H -0.24250 0.89419 -0.01771
 H257 H -0.28358 0.66578 0.05163
 H258 H -0.20286 0.69534 -0.00279
 H259 H -0.35617 0.76073 -0.08022
 H260 H -0.31776 0.82917 -0.02045
 C261 C -0.30928 1.28050 0.00540
 C262 C -0.32174 1.31083 -0.04250
 C263 C -0.36861 1.34424 -0.04429
 C264 C -0.40311 1.34869 0.00214
 C265 C -0.39027 1.31902 0.05016
 C266 C -0.34385 1.28528 0.05181
 C267 C -0.26231 1.24156 0.00616
 C268 C -0.26979 1.18842 0.02710
 C269 C -0.22670 1.15065 0.02652
 C270 C -0.17477 1.16517 0.00545
 C271 C -0.16676 1.21869 -0.01453
 C272 C -0.21034 1.25643 -0.01463
 H273 H -0.37839 1.36616 -0.08203
 H274 H -0.41658 1.32169 0.08627
 H275 H -0.23415 1.10986 0.04254
 H276 H -0.12726 1.23095 -0.03118
 H277 H -0.33507 1.26263 0.08935
 H278 H -0.30948 1.17563 0.04287
 H279 H -0.29623 1.30729 -0.07908
 H280 H -0.20344 1.29727 -0.03072
 C281 C 0.01022 1.27637 0.30903
 C282 C 0.05004 1.26568 0.34980
 C283 C 0.05569 1.30014 0.39564
 C284 C 0.02202 1.34681 0.40192
 C285 C -0.01809 1.35724 0.36086
 C286 C -0.02347 1.32277 0.31469
 C287 C 0.00278 1.23759 0.26219
 C288 C -0.00310 1.25627 0.20741
 C289 C -0.00726 1.21878 0.16343
 C290 C -0.00616 1.16199 0.17362
 C291 C -0.00187 1.14373 0.22875
 C292 C 0.00265 1.18100 0.27232
 H293 H 0.08736 1.29072 0.42581
 H294 H -0.04678 1.39093 0.36540
 H295 H -0.01062 1.23425 0.12154
 H296 H -0.00110 1.10041 0.23850
 H297 H -0.05524 1.33130 0.28439
 H298 H -0.00301 1.29978 0.19852
 H299 H 0.07703 1.23051 0.34615
 H300 H 0.00614 1.16545 0.31419
 C301 C 0.02226 1.27971 -0.30454
 C302 C 0.06003 1.26870 -0.34710
 C303 C 0.06332 1.30272 -0.39335
 C304 C 0.02945 1.34939 -0.39820
 C305 C -0.00789 1.36075 -0.35491
 C306 C -0.01113 1.32653 -0.30849
 C307 C 0.01586 1.24044 -0.25804
 C308 C 0.00970 1.25853 -0.20301
 C309 C 0.00459 1.22059 -0.15969
 C310 C 0.00509 1.16390 -0.17075
 C311 C 0.01053 1.14621 -0.22602
 C312 C 0.01582 1.18390 -0.26894
 H313 H 0.09308 1.29276 -0.42521
 H314 H -0.03650 1.39466 -0.35804
 H315 H 0.00047 1.23564 -0.11766
 H316 H 0.01096 1.10299 -0.23642
 H317 H -0.04135 1.33544 -0.27679
 H318 H 0.00978 1.30193 -0.19343
 H319 H 0.08696 1.23339 -0.34480
 H320 H 0.01941 1.16867 -0.31096
 C321 C 0.00691 0.71820 -0.30862
 C322 C -0.02301 0.66900 -0.31134
 C323 C -0.01810 0.63435 -0.35743
 C324 C 0.01763 0.64763 -0.40149
 C325 C 0.04776 0.69695 -0.39798
 C326 C 0.04267 0.73146 -0.35218
 C327 C -0.00015 0.75697 -0.26172
 C328 C -0.00462 0.81335 -0.27223
 C329 C -0.00826 0.85078 -0.22873
 C330 C -0.00743 0.83290 -0.17334
 C331 C -0.00451 0.77625 -0.16270
 C332 C -0.00107 0.73859 -0.20655
 H333 H -0.04402 0.59824 -0.35953
 H334 H 0.07633 0.70851 -0.43034
 H335 H -0.01100 0.89396 -0.23877
 H336 H -0.00387 0.76105 -0.12058
 H337 H 0.06696 0.76871 -0.35078
 H338 H -0.00513 0.82862 -0.31433
 H339 H -0.05160 0.65827 -0.27874
 H340 H 0.00245 0.69529 -0.19733
 C341 C 0.01476 0.71408 0.30308
 C342 C -0.02707 0.67545 0.31288
 C343 C -0.02479 0.64150 0.35953
 C344 C 0.01972 0.64512 0.39655
 C345 C 0.06209 0.68274 0.38606
 C346 C 0.05969 0.71682 0.33975
 C347 C 0.01022 0.75378 0.25684
 C348 C 0.02189 0.80936 0.26634
 C349 C 0.01735 0.84747 0.22366
 C350 C 0.00123 0.83099 0.17015
 C351 C -0.01029 0.77526 0.16041
 C352 C -0.00620 0.73703 0.20352
 H353 H -0.05825 0.61322 0.36743
 H354 H 0.09667 0.68619 0.41426
 H355 H 0.02687 0.88997 0.23267
 H356 H -0.02283 0.76131 0.11968
 H357 H 0.09276 0.74581 0.33288
 H358 H 0.03388 0.82358 0.30715
 H359 H -0.06245 0.67295 0.28564
 H360 H -0.01522 0.69432 0.19509
   
