data_POSCAR
  _audit_creation_date              2014-09-24
  _audit_creation_method            'ToBaCCo'
  _symmetry_space_group_name_H-M    'P1'
  _symmetry_Int_Tables_number       1
  _symmetry_cell_setting            triclinic
  loop_
  _symmetry_equiv_pos_as_xyz
 x,y,z
_cell_length_a 19.5140
_cell_length_b 19.5140
_cell_length_c 44.9713
_cell_angle_alpha 90.102900
_cell_angle_beta 89.897100
_cell_angle_gamma 120.233100
loop_
  _atom_site_label
  _atom_site_type_symbol
  _atom_site_fract_x
  _atom_site_fract_y
  _atom_site_fract_z
C1 C -0.00147 -0.00174 0.50115
 C2 C 0.99826 -0.00146 0.16551
 C3 C 0.00596 1.00597 0.83333
 O4 O 0.45979 0.05813 0.02710
 O5 O 0.59814 0.05939 -0.02936
 O6 O 0.47182 0.07376 -0.03042
 O7 O 0.60106 0.07300 0.02830
 O8 O 0.53968 -0.05785 0.02658
 O9 O 0.40130 -0.05714 -0.02928
 O10 O 0.52817 -0.07147 -0.03106
 O11 O 0.39846 -0.07277 0.02817
 Cu12 Cu 0.53916 0.07884 -0.00105
 Cu13 Cu 0.46054 -0.07760 -0.00145
 C14 C 0.40521 -0.00815 0.03716
 C15 C 0.58638 -0.00645 -0.03977
 C16 C 0.41334 0.00913 -0.03926
 C17 C 0.59419 0.00811 0.03691
 O18 O -0.05786 0.53969 0.64008
 O19 O -0.05715 0.40131 0.69594
 O20 O -0.07148 0.52817 0.69773
 O21 O -0.07278 0.39847 0.63850
 O22 O 0.05812 0.45980 0.63957
 O23 O 0.05938 0.59815 0.69603
 O24 O 0.07375 0.47183 0.69709
 O25 O 0.07299 0.60106 0.63837
 Cu26 Cu -0.07761 0.46055 0.66812
 Cu27 Cu 0.07883 0.53917 0.66772
 C28 C 0.00811 0.59420 0.62976
 C29 C 0.00912 0.41334 0.70593
 C30 C -0.00646 0.58639 0.70644
 C31 C -0.00816 0.40522 0.62951
 O32 O 0.40027 0.45799 0.36153
 O33 O 0.53869 0.59649 0.30524
 O34 O 0.39706 0.46979 0.30396
 O35 O 0.52701 0.59966 0.36285
 O36 O 0.59648 0.53870 0.36143
 O37 O 0.45798 0.40028 0.30514
 O38 O 0.59965 0.52702 0.30382
 O39 O 0.46978 0.39706 0.36271
 Cu40 Cu 0.45941 0.53735 0.33341
 Cu41 Cu 0.53734 0.45942 0.33326
 C42 C 0.41181 0.40363 0.37163
 C43 C 0.59303 0.58497 0.29500
 C44 C 0.40362 0.41182 0.29503
 C45 C 0.58496 0.59304 0.37167
 C46 C -0.01739 0.16757 0.55509
 N47 N 0.04574 0.15672 0.55626
 N48 N 0.04768 0.10116 0.53987
 C49 C -0.01327 0.05379 0.52149
 N50 N -0.07723 0.06406 0.52040
 N51 N -0.07944 0.11973 0.53710
 C52 C -0.01584 0.23143 0.57295
 N53 N -0.08220 0.23579 0.57780
 N54 N -0.07948 0.29239 0.59532
 C55 C -0.01025 0.34697 0.60829
 N56 N 0.05610 0.34309 0.60307
 N57 N 0.05326 0.28632 0.58578
 C58 C 0.82903 0.81327 0.21974
 N59 N 0.87677 0.79898 0.20180
 N60 N 0.93223 0.85682 0.18494
 C61 C 0.94235 0.93109 0.18581
 N62 N 0.89505 0.94475 0.20412
 N63 N 0.83968 0.88727 0.22066
 C64 C 0.76564 0.75104 0.23787
 N65 N 0.71114 0.76525 0.25089
 N66 N 0.65482 0.71139 0.26841
 C67 C 0.65100 0.64122 0.27368
 N68 N 0.70519 0.62658 0.26053
 N69 N 0.76135 0.68038 0.24279
 C70 C 0.18567 0.02217 -0.11246
 N71 N 0.20325 0.07898 -0.13338
 N72 N 0.14602 0.07724 -0.15023
 C73 C 0.06888 0.01955 -0.14631
 N74 N 0.05224 -0.03620 -0.12503
 N75 N 0.10913 -0.03489 -0.10849
 C76 C 0.24728 0.01906 -0.09482
 N77 N 0.22982 -0.04901 -0.08045
 N78 N 0.28363 -0.05288 -0.06352
 C79 C 0.35693 0.01144 -0.06018
 N80 N 0.37472 0.07959 -0.07466
 N81 N 0.32103 0.08322 -0.09187
 C82 C 0.01539 0.83028 0.55529
 N83 N 0.07716 0.87777 0.53711
 N84 N 0.07462 0.93299 0.52033
 C85 C 0.01060 0.94316 0.52153
 N86 N -0.05008 0.89614 0.54009
 N87 N -0.04781 0.84101 0.55656
 C88 C 0.01428 0.76693 0.57325
 N89 N -0.05446 0.71240 0.58643
 N90 N -0.05685 0.65601 0.60374
 C91 C 0.00962 0.65216 0.60863
 N92 N 0.07847 0.70639 0.59532
 N93 N 0.08074 0.76260 0.57779
 C94 C 0.16709 0.18349 0.21996
 N95 N 0.15583 0.10927 0.22099
 N96 N 0.10048 0.05187 0.20441
 C97 C 0.05378 0.06581 0.18597
 N98 N 0.06448 0.14029 0.18501
 N99 N 0.11992 0.19806 0.20190
 C100 C 0.23061 0.24568 0.23806
 N101 N 0.23529 0.31658 0.24294
 N102 N 0.29159 0.37040 0.26063
 C103 C 0.34554 0.35554 0.27375
 N104 N 0.34134 0.28513 0.26852
 N105 N 0.28486 0.23125 0.25105
 C106 C 0.81658 -0.01039 -0.11474
 N107 N 0.88936 0.05534 -0.11470
 N108 N 0.94786 0.05802 -0.13066
 C109 C 0.93650 -0.00471 -0.14755
 N110 N 0.86344 -0.07117 -0.14753
 N111 N 0.80457 -0.07407 -0.13126
 C112 C 0.75352 -0.01037 -0.09687
 N113 N 0.68396 -0.07802 -0.09133
 N114 N 0.62968 -0.07658 -0.07365
 C115 C 0.64280 -0.00747 -0.06114
 N116 N 0.71185 0.06010 -0.06703
 N117 N 0.76613 0.05859 -0.08451
 C118 C 0.16756 -0.01739 0.11158
 N119 N 0.11972 -0.07943 0.12957
 N120 N 0.06405 -0.07722 0.14627
 C121 C 0.05379 -0.01326 0.14518
 N122 N 0.10115 0.04769 0.12680
 N123 N 0.15672 0.04575 0.11041
 C124 C 0.23142 -0.01583 0.09372
 N125 N 0.28632 0.05327 0.08089
 N126 N 0.34308 0.05611 0.06360
 C127 C 0.34697 -0.01024 0.05838
 N128 N 0.29238 -0.07947 0.07135
 N129 N 0.23578 -0.08220 0.08886
 C130 C 0.81326 0.82904 0.44693
 N131 N 0.79898 0.87678 0.46487
 N132 N 0.85682 0.93224 0.48173
 C133 C 0.93108 0.94236 0.48086
 N134 N 0.94474 0.89505 0.46255
 N135 N 0.88726 0.83969 0.44600
 C136 C 0.75103 0.76564 0.42880
 N137 N 0.76524 0.71115 0.41578
 N138 N 0.71138 0.65482 0.39826
 C139 C 0.64121 0.65101 0.39299
 N140 N 0.62657 0.70520 0.40614
 N141 N 0.68038 0.76136 0.42387
 C142 C 0.02217 0.18568 0.77913
 N143 N 0.07897 0.20326 0.80005
 N144 N 0.07723 0.14603 0.81690
 C145 C 0.01954 0.06888 0.81298
 N146 N -0.03621 0.05225 0.79169
 N147 N -0.03490 0.10913 0.77516
 C148 C 0.01905 0.24729 0.76149
 N149 N -0.04902 0.22983 0.74711
 N150 N -0.05289 0.28364 0.73018
 C151 C 0.01143 0.35694 0.72685
 N152 N 0.07958 0.37472 0.74133
 N153 N 0.08322 0.32103 0.75854
 C154 C 0.83027 0.01540 0.11137
 N155 N 0.84100 -0.04781 0.11011
 N156 N 0.89613 -0.05007 0.12658
 C157 C 0.94316 0.01061 0.14514
 N158 N 0.93298 0.07462 0.14634
 N159 N 0.87776 0.07716 0.12956
 C160 C 0.76692 0.01429 0.09342
 N161 N 0.76260 0.08075 0.08888
 N162 N 0.70638 0.07848 0.07135
 C163 C 0.65215 0.00963 0.05804
 N164 N 0.65600 -0.05684 0.06293
 N165 N 0.71239 -0.05445 0.08024
 C166 C 0.18348 0.16710 0.44671
 N167 N 0.10927 0.15584 0.44568
 N168 N 0.05186 0.10049 0.46226
 C169 C 0.06580 0.05378 0.48070
 N170 N 0.14028 0.06449 0.48166
 N171 N 0.19805 0.11993 0.46477
 C172 C 0.24568 0.23061 0.42861
 N173 N 0.31657 0.23530 0.42372
 N174 N 0.37039 0.29160 0.40604
 C175 C 0.35553 0.34555 0.39291
 N176 N 0.28512 0.34134 0.39815
 N177 N 0.23124 0.28487 0.41561
 C178 C -0.01040 0.81659 0.78141
 N179 N -0.07408 0.80457 0.79792
 N180 N -0.07118 0.86344 0.81420
 C181 C -0.00472 0.93651 0.81422
 N182 N 0.05801 0.94786 0.79733
 N183 N 0.05533 0.88936 0.78137
 C184 C -0.01038 0.75353 0.76353
 N185 N 0.05859 0.76614 0.75118
 N186 N 0.06010 0.71186 0.73369
 C187 C -0.00748 0.64281 0.72780
 N188 N -0.07659 0.62969 0.74032
 N189 N -0.07803 0.68397 0.75800
   
