data_POSCAR
  _audit_creation_date              2014-09-24
  _audit_creation_method            'ToBaCCo'
  _symmetry_space_group_name_H-M    'P1'
  _symmetry_Int_Tables_number       1
  _symmetry_cell_setting            triclinic
  loop_
  _symmetry_equiv_pos_as_xyz
 x,y,z
_cell_length_a 26.6067
_cell_length_b 26.8580
_cell_length_c 33.2807
_cell_angle_alpha 89.635800
_cell_angle_beta 90.295000
_cell_angle_gamma 90.736400
loop_
  _atom_site_label
  _atom_site_type_symbol
  _atom_site_fract_x
  _atom_site_fract_y
  _atom_site_fract_z
C1 C 1.19083 0.28813 0.31679
 H2 H 1.18104 0.24927 0.32125
 C3 C 1.17275 0.32397 0.34316
 H4 H 1.14858 0.31237 0.36762
 C5 C 1.23462 0.35019 0.27950
 H6 H 1.25918 0.36033 0.25499
 C7 C 1.21712 0.38718 0.30487
 H8 H 1.22831 0.42551 0.29934
 N9 N 1.22098 0.30179 0.28560
 C10 C 1.20855 0.19821 0.18571
 H11 H 1.24787 0.19096 0.18045
 C12 C 1.17202 0.17879 0.15968
 H13 H 1.18370 0.15625 0.13466
 C14 C 1.14601 0.23662 0.22485
 H15 H 1.13600 0.25950 0.25006
 C16 C 1.10825 0.21766 0.19976
 H17 H 1.06941 0.22609 0.20612
 Zn18 Zn 1.24656 0.25203 0.25150
 N19 N 1.19503 0.22621 0.21772
 C20 C 1.26528 0.15226 0.27491
 N21 N 1.27345 0.20090 0.28414
 C22 C 1.30032 0.21422 0.31729
 C23 C 1.32040 0.17792 0.34273
 C24 C 1.28519 0.11470 0.29912
 C25 C 1.28337 0.30889 0.18695
 C26 C 1.31951 0.33080 0.16200
 C27 C 1.38420 0.29240 0.20241
 C28 C 1.34678 0.27092 0.22642
 N29 N 1.29750 0.27984 0.21855
 H30 H 1.24346 0.14237 0.24865
 H31 H 1.30607 0.25324 0.32402
 H32 H 1.34156 0.19015 0.36875
 H33 H 1.27819 0.07632 0.29070
 H34 H 1.24388 0.31527 0.18135
 H35 H 1.30732 0.35417 0.13732
 H36 H 1.42326 0.28516 0.20929
 H37 H 1.35722 0.24748 0.25152
 C38 C 1.12104 0.18831 0.16669
 C39 C 1.18586 0.37429 0.33722
 C40 C 1.37073 0.32280 0.16973
 C41 C 1.31323 0.12705 0.33380
 C42 C 0.69019 -0.21256 0.31701
 H43 H 0.67914 -0.25109 0.32151
 C44 C 0.67186 -0.17586 0.34246
 H45 H 0.64638 -0.18656 0.36631
 C46 C 0.73686 -0.15216 0.28019
 H47 H 0.76257 -0.14306 0.25617
 C48 C 0.71912 -0.11426 0.30469
 H49 H 0.73129 -0.07624 0.29904
 N50 N 0.72179 -0.20015 0.28643
 C51 C 0.70507 -0.31230 0.19328
 H52 H 0.74393 -0.32283 0.18989
 C53 C 0.66799 -0.33446 0.16939
 H54 H 0.67894 -0.36164 0.14737
 C55 C 0.64437 -0.26303 0.22571
 H56 H 0.63541 -0.23501 0.24758
 C57 C 0.60607 -0.28378 0.20199
 H58 H 0.56779 -0.27153 0.20583
 Zn59 Zn 0.74560 -0.25175 0.25317
 N60 N 0.69267 -0.27802 0.22127
 C61 C 0.75605 -0.35085 0.28229
 N62 N 0.77189 -0.30279 0.28675
 C63 C 0.80634 -0.29017 0.31538
 C64 C 0.82739 -0.32677 0.34008
 C65 C 0.77652 -0.38862 0.30595
 C66 C 0.78231 -0.19584 0.18731
 C67 C 0.81822 -0.17708 0.16041
 C68 C 0.88171 -0.22308 0.19642
 C69 C 0.84462 -0.24127 0.22234
 N70 N 0.79608 -0.22694 0.21778
 H71 H 0.72765 -0.36028 0.26032
 H72 H 0.81783 -0.25162 0.31872
 H73 H 0.85532 -0.31600 0.36222
 H74 H 0.76382 -0.42668 0.30158
 H75 H 0.74334 -0.18548 0.18402
 H76 H 0.80655 -0.15191 0.13673
 H77 H 0.92020 -0.23462 0.20088
 H78 H 0.85484 -0.26675 0.24613
 C79 C 0.61769 -0.32035 0.17369
 C80 C 0.68617 -0.12588 0.33629
 C81 C 0.86879 -0.19046 0.16502
 C82 C 0.81278 -0.37683 0.33517
 C83 C 0.67939 0.29740 -0.19101
 H84 H 0.66393 0.25994 -0.19135
 C85 C 0.65816 0.33331 -0.16633
 H86 H 0.62646 0.32278 -0.14779
 C87 C 0.74022 0.35566 -0.21438
 H88 H 0.77279 0.36409 -0.23254
 C89 C 0.72033 0.39268 -0.18995
 H90 H 0.73770 0.42937 -0.18993
 N91 N 0.71930 0.30915 -0.21478
 C92 C 0.70834 0.19337 -0.30632
 H93 H 0.74572 0.17816 -0.30409
 C94 C 0.67390 0.17357 -0.33391
 H95 H 0.68535 0.14315 -0.35278
 C96 C 0.64908 0.25262 -0.28502
 H97 H 0.63985 0.28409 -0.26654
 C98 C 0.61360 0.23424 -0.31247
 H99 H 0.57710 0.25150 -0.31442
 Zn100 Zn 0.74566 0.25750 -0.24717
 N101 N 0.69535 0.23186 -0.28229
 C102 C 0.74512 0.16113 -0.21079
 N103 N 0.76883 0.20632 -0.21209
 C104 C 0.80816 0.21683 -0.18715
 C105 C 0.82592 0.18081 -0.16028
 C106 C 0.76133 0.12420 -0.18410
 C107 C 0.78764 0.32065 -0.30550
 C108 C 0.82359 0.33913 -0.33235
 C109 C 0.88094 0.27646 -0.30837
 C110 C 0.84403 0.25978 -0.28149
 N111 N 0.79845 0.28206 -0.28045
 H112 H 0.71300 0.15382 -0.22994
 H113 H 0.82576 0.25335 -0.18817
 H114 H 0.85719 0.19021 -0.14074
 H115 H 0.74180 0.08858 -0.18343
 H116 H 0.75069 0.33697 -0.30476
 H117 H 0.81317 0.36990 -0.35163
 H118 H 0.91663 0.25751 -0.30871
 H119 H 0.85151 0.22817 -0.26223
 C120 C 0.62582 0.19419 -0.33737
 C121 C 0.67869 0.38178 -0.16551
 C122 C 0.87116 0.31672 -0.33458
 C123 C 0.80234 0.13372 -0.15847
 C124 C 1.18161 -0.19999 -0.19185
 H125 H 1.16445 -0.23666 -0.19363
 C126 C 1.16431 -0.16586 -0.16393
 H127 H 1.13364 -0.17680 -0.14446
 C128 C 1.24415 -0.14268 -0.21407
 H129 H 1.27610 -0.13433 -0.23294
 C130 C 1.22837 -0.10751 -0.18624
 H131 H 1.24790 -0.07197 -0.18439
 N132 N 1.22059 -0.18785 -0.21636
 C133 C 1.20753 -0.29935 -0.31012
 H134 H 1.24571 -0.31273 -0.30917
 C135 C 1.17312 -0.31988 -0.33716
 H136 H 1.18543 -0.34891 -0.35706
 C137 C 1.14622 -0.24401 -0.28575
 H138 H 1.13622 -0.21392 -0.26608
 C139 C 1.11059 -0.26318 -0.31272
 H140 H 1.07312 -0.24792 -0.31333
 Zn141 Zn 1.24429 -0.23836 -0.25017
 N142 N 1.19348 -0.26271 -0.28474
 C143 C 1.24702 -0.33639 -0.21776
 N144 N 1.26782 -0.28989 -0.21681
 C145 C 1.30600 -0.27832 -0.19114
 C146 C 1.32608 -0.31472 -0.16599
 C147 C 1.26585 -0.37394 -0.19302
 C148 C 1.28595 -0.17572 -0.30812
 C149 C 1.32167 -0.15842 -0.33547
 C150 C 1.37842 -0.22174 -0.31153
 C151 C 1.34170 -0.23758 -0.28436
 N152 N 1.29657 -0.21441 -0.28316
 H153 H 1.21566 -0.34447 -0.23748
 H154 H 1.32118 -0.24077 -0.19062
 H155 H 1.35671 -0.30457 -0.14608
 H156 H 1.24902 -0.41082 -0.19427
 H157 H 1.24929 -0.15882 -0.30711
 H158 H 1.31196 -0.12800 -0.35536
 H159 H 1.41389 -0.24102 -0.31254
 H160 H 1.34883 -0.26931 -0.26519
 C161 C 1.12389 -0.30180 -0.33868
 C162 C 1.18807 -0.11903 -0.16065
 C163 C 1.36847 -0.18185 -0.33764
 C164 C 1.30610 -0.36336 -0.16692
 C165 C 0.31859 0.20567 0.69607
 H166 H 0.33933 0.23984 0.70143
 C167 C 0.33696 0.17127 0.66866
 H168 H 0.37138 0.18001 0.65284
 C169 C 0.24916 0.15281 0.71088
 H170 H 0.21501 0.14557 0.72739
 C171 C 0.26607 0.11745 0.68361
 H172 H 0.24446 0.08342 0.67941
 N173 N 0.27499 0.19637 0.71611
 C174 C 0.20877 0.21176 0.82395
 H175 H 0.24541 0.22142 0.83578
 C176 C 0.17271 0.19175 0.84985
 H177 H 0.18264 0.18697 0.88118
 C178 C 0.15220 0.20615 0.76903
 H179 H 0.14486 0.21038 0.73721
 C180 C 0.11409 0.18816 0.79432
 H181 H 0.07756 0.17922 0.78158
 Zn182 Zn 0.25056 0.24602 0.75133
 N183 N 0.19820 0.21873 0.78429
 C184 C 0.17801 0.31453 0.71889
 N185 N 0.22732 0.30133 0.71978
 C186 C 0.26171 0.32600 0.69667
 C187 C 0.24672 0.36356 0.67009
 C188 C 0.16120 0.35100 0.69195
 C189 C 0.33838 0.23397 0.79893
 C190 C 0.37354 0.24750 0.82848
 C191 C 0.33784 0.32970 0.82926
 C192 C 0.30331 0.31457 0.79990
 N193 N 0.30384 0.26731 0.78564
 H194 H 0.15124 0.29661 0.73854
 H195 H 0.30088 0.31622 0.69850
 H196 H 0.27460 0.38196 0.65140
 H197 H 0.12165 0.35998 0.69092
 H198 H 0.33744 0.19628 0.78766
 H199 H 0.39995 0.22014 0.83937
 H200 H 0.33576 0.36728 0.84049
 H201 H 0.27496 0.34013 0.78938
 C202 C 0.12426 0.18021 0.83535
 C203 C 0.31023 0.12668 0.66173
 C204 C 0.37307 0.29572 0.84452
 C205 C 0.19569 0.37545 0.66671
 C206 C 0.75474 0.65526 0.71231
 H207 H 0.72560 0.64544 0.73352
 C208 C 0.77142 0.61952 0.68545
 H209 H 0.75525 0.58233 0.68657
 C210 C 0.81001 0.71584 0.68425
 H211 H 0.82442 0.75369 0.68381
 C212 C 0.82825 0.68104 0.65709
 H213 H 0.85659 0.69261 0.63567
 N214 N 0.77456 0.70221 0.71159
 C215 C 0.66168 0.72114 0.79541
 H216 H 0.63924 0.74606 0.77728
 C217 C 0.63961 0.69447 0.82747
 H218 H 0.60009 0.69923 0.83367
 C219 C 0.74073 0.68549 0.81001
 H220 H 0.78019 0.68208 0.80304
 C221 C 0.72080 0.65911 0.84220
 H222 H 0.74574 0.63560 0.85952
 Zn223 Zn 0.75114 0.74962 0.74863
 N224 N 0.71154 0.71612 0.78759
 C225 C 0.67527 0.78995 0.69788
 N226 N 0.71751 0.80044 0.71960
 C227 C 0.74031 0.84600 0.71723
 C228 C 0.72128 0.88285 0.69199
 C229 C 0.65489 0.82593 0.67206
 C230 C 0.85336 0.76267 0.77549
 C231 C 0.89015 0.78160 0.80163
 C232 C 0.82680 0.83224 0.83249
 C233 C 0.79130 0.81196 0.80625
 N234 N 0.80499 0.77807 0.77835
 H235 H 0.65845 0.75312 0.69955
 H236 H 0.77480 0.85334 0.73346
 H237 H 0.74095 0.91832 0.68996
 H238 H 0.62202 0.81640 0.65432
 H239 H 0.86320 0.73448 0.75401
 H240 H 0.92831 0.76834 0.79961
 H241 H 0.81452 0.85847 0.85479
 H242 H 0.75232 0.82254 0.80849
 C243 C 0.66971 0.66350 0.85182
 C244 C 0.80893 0.63209 0.65763
 C245 C 0.87689 0.81666 0.83071
 C246 C 0.67864 0.87285 0.66837
 C247 C 0.77106 0.14222 0.22820
 H248 H 0.74428 0.13350 0.25156
 C249 C 0.78867 0.10429 0.20369
 H250 H 0.77565 0.06640 0.20871
 C251 C 0.81902 0.20227 0.19193
 H252 H 0.83002 0.24079 0.18729
 C253 C 0.83721 0.16572 0.16662
 H254 H 0.86294 0.17646 0.14295
 N255 N 0.78650 0.19007 0.22187
 C256 C 0.65901 0.23701 0.27695
 H257 H 0.65043 0.26187 0.25231
 C258 C 0.62033 0.21965 0.30166
 H259 H 0.58215 0.23108 0.29553
 C260 C 0.71906 0.19256 0.31534
 H261 H 0.75777 0.18220 0.32029
 C262 C 0.68158 0.17460 0.34098
 H263 H 0.69188 0.15008 0.36550
 Zn264 Zn 0.75975 0.24407 0.24986
 N265 N 0.70711 0.22252 0.28373
 C266 C 0.70313 0.26746 0.18238
 N267 N 0.73591 0.28740 0.20955
 C268 C 0.75514 0.33415 0.20480
 C269 C 0.74133 0.36285 0.17148
 C270 C 0.68796 0.29499 0.14890
 C271 C 0.85800 0.25767 0.28082
 C272 C 0.89476 0.27764 0.30622
 C273 C 0.83220 0.33136 0.33456
 C274 C 0.79668 0.31084 0.30809
 N275 N 0.81007 0.27456 0.28205
 H276 H 0.68964 0.22959 0.18637
 H277 H 0.78217 0.34867 0.22622
 H278 H 0.75720 0.39994 0.16797
 H279 H 0.66219 0.27822 0.12751
 H280 H 0.86780 0.22811 0.26062
 H281 H 0.93265 0.26350 0.30488
 H282 H 0.82085 0.36004 0.35520
 H283 H 0.75814 0.32317 0.30876
 C284 C 0.63138 0.18780 0.33400
 C285 C 0.82157 0.11609 0.17211
 C286 C 0.88194 0.31454 0.33381
 C287 C 0.70743 0.34320 0.14300
 C288 C 0.25889 0.65699 0.21301
 H289 H 0.23288 0.64582 0.23629
 C290 C 0.27293 0.62257 0.18408
 H291 H 0.25793 0.58496 0.18583
 C292 C 0.30852 0.71981 0.18167
 H293 H 0.32121 0.75822 0.18047
 C294 C 0.32379 0.68645 0.15217
 H295 H 0.34869 0.69946 0.12863
 N296 N 0.27676 0.70459 0.21137
 C297 C 0.21565 0.69103 0.31063
 H298 H 0.25478 0.68137 0.31421
 C299 C 0.17950 0.67029 0.33635
 H300 H 0.19110 0.64429 0.35946
 C301 C 0.15317 0.73690 0.27612
 H302 H 0.14299 0.76333 0.25302
 C303 C 0.11584 0.71662 0.30077
 H304 H 0.07720 0.72760 0.29612
 Zn305 Zn 0.25245 0.75228 0.24795
 N306 N 0.20195 0.72357 0.28117
 C307 C 0.23577 0.85309 0.22535
 N308 N 0.22489 0.80459 0.21712
 C309 C 0.19438 0.79175 0.18588
 C310 C 0.17287 0.82840 0.16170
 C311 C 0.21473 0.89101 0.20209
 C312 C 0.35359 0.76859 0.27373
 C313 C 0.39117 0.78842 0.29858
 C314 C 0.32669 0.82393 0.34006
 C315 C 0.29049 0.80393 0.31408
 N316 N 0.30440 0.77721 0.28155
 H317 H 0.26059 0.86252 0.25000
 H318 H 0.18663 0.75285 0.17989
 H319 H 0.14833 0.81720 0.13729
 H320 H 0.22357 0.92945 0.20915
 H321 H 0.36391 0.74662 0.24808
 H322 H 0.43003 0.78127 0.29125
 H323 H 0.31388 0.84519 0.36542
 H324 H 0.25103 0.80990 0.31974
 C325 C 0.12880 0.68302 0.33143
 C326 C 0.30559 0.63716 0.15302
 C327 C 0.37818 0.81677 0.33241
 C328 C 0.18290 0.87882 0.16977
 O329 O 1.05655 0.09547 0.02943
 O330 O 0.93498 -0.09587 0.02721
 O331 O 0.90355 0.05758 0.03101
 O332 O 1.08806 -0.05829 0.03418
 O333 O 0.90677 -0.01780 0.05099
 O334 O 1.08343 0.01618 0.05519
 O335 O 1.00781 -0.08835 0.05218
 O336 O 0.98267 0.08851 0.05164
 C337 C 1.02614 0.10304 0.05690
 C338 C 0.96436 -0.10370 0.05576
 C339 C 0.89526 0.02557 0.05771
 C340 C 1.09570 -0.02729 0.06146
 O341 O 1.11036 -0.00916 -0.02071
 O342 O 0.88341 0.00954 -0.02540
 O343 O 1.00650 0.10908 -0.02777
 O344 O 0.98752 -0.10858 -0.02744
 O345 O 0.93118 -0.05942 -0.04918
 O346 O 1.06539 0.06077 -0.04575
 O347 O 1.05992 -0.06254 -0.04530
 O348 O 0.93446 0.06399 -0.04767
 Co349 Co 1.07084 0.03674 0.00447
 Co350 Co 0.92229 -0.03681 0.00099
 Co351 Co 0.96055 0.07242 0.00192
 Co352 Co 1.03209 -0.07201 0.00333
 O353 O 0.99643 0.00013 0.00262
 C354 C 1.09939 -0.03855 -0.04829
 C355 C 0.89457 0.04098 -0.05171
 C356 C 1.03872 0.09696 -0.05309
 C357 C 0.95741 -0.09630 -0.05460
 O358 O 1.06736 0.56268 0.54919
 O359 O 0.93374 0.44047 0.54974
 O360 O 0.94111 0.56709 0.54679
 O361 O 1.06249 0.43686 0.55315
 O362 O 0.89031 0.51102 0.52582
 O363 O 1.11342 0.49118 0.52981
 O364 O 0.99018 0.39039 0.53107
 O365 O 1.01349 0.61159 0.52414
 C366 C 1.04273 0.60102 0.55214
 C367 C 0.95803 0.40251 0.55629
 C368 C 0.90188 0.54289 0.55155
 C369 C 1.10197 0.46096 0.55703
 O370 O 1.09204 0.51254 0.45141
 O371 O 0.91398 0.48494 0.44850
 O372 O 0.98999 0.58548 0.44718
 O373 O 1.01690 0.40959 0.45339
 O374 O 0.94131 0.40615 0.47324
 O375 O 1.06424 0.59217 0.47011
 O376 O 1.09627 0.43932 0.47538
 O377 O 0.90928 0.55893 0.46952
 Co378 Co 1.07629 0.53583 0.50024
 Co379 Co 0.92774 0.46450 0.49931
 Co380 Co 0.96732 0.57297 0.49721
 Co381 Co 1.03763 0.42687 0.50305
 O382 O 1.00223 0.49998 0.50006
 C383 C 1.10490 0.46907 0.44720
 C384 C 0.90115 0.52823 0.44234
 C385 C 1.03389 0.59886 0.44195
 C386 C 0.97296 0.39720 0.44683
 O387 O 0.56560 0.06252 0.54755
 O388 O 0.43091 -0.05786 0.54423
 O389 O 0.43926 0.06858 0.54551
 O390 O 0.55598 -0.06576 0.54721
 O391 O 0.38790 0.01414 0.52291
 O392 O 0.60855 -0.01017 0.52795
 O393 O 0.48394 -0.10896 0.52217
 O394 O 0.51249 0.11320 0.52373
 C395 C 0.54211 0.10144 0.55124
 C396 C 0.45410 -0.09680 0.54895
 C397 C 0.40000 0.04432 0.54981
 C398 C 0.59461 -0.04132 0.55383
 O399 O 0.59052 0.01435 0.44877
 O400 O 0.41132 -0.00847 0.44482
 O401 O 0.48822 0.09135 0.44645
 O402 O 0.51237 -0.08476 0.44591
 O403 O 0.43667 -0.08829 0.46583
 O404 O 0.56319 0.09384 0.46907
 O405 O 0.59269 -0.05928 0.47150
 O406 O 0.40693 0.06462 0.46776
 Co407 Co 0.57414 0.03649 0.49814
 Co408 Co 0.42458 -0.03151 0.49466
 Co409 Co 0.46538 0.07637 0.49596
 Co410 Co 0.53258 -0.07171 0.49662
 O411 O 0.49920 0.00243 0.49640
 C412 C 0.60264 -0.02924 0.44395
 C413 C 0.39838 0.03490 0.43989
 C414 C 0.53263 0.10329 0.44151
 C415 C 0.46835 -0.09702 0.43932
 O416 O 0.55193 0.54303 0.06486
 O417 O 0.43019 0.41752 0.03302
 O418 O 0.41872 0.57739 0.02543
 O419 O 0.58061 0.39399 0.01292
 O420 O 0.38998 0.50023 0.03396
 O421 O 0.58536 0.46269 0.04668
 O422 O 0.50683 0.42289 0.05296
 O423 O 0.50778 0.60213 0.03680
 C424 C 0.53124 0.58462 0.06683
 C425 C 0.46275 0.41023 0.05970
 C426 C 0.38888 0.54609 0.04182
 C427 C 0.60677 0.42295 0.03666
 O428 O 0.60161 0.49620 -0.02924
 O429 O 0.39348 0.50508 -0.04347
 O430 O 0.52275 0.59068 -0.04636
 O431 O 0.48847 0.38188 -0.01701
 O432 O 0.44042 0.43038 -0.04870
 O433 O 0.57857 0.57993 -0.00321
 O434 O 0.54939 0.43976 -0.04949
 O435 O 0.43611 0.57278 -0.05315
 Co436 Co 0.57202 0.51831 0.01741
 Co437 Co 0.42119 0.46591 -0.00571
 Co438 Co 0.47406 0.57859 -0.00827
 Co439 Co 0.52773 0.43409 0.00145
 O440 O 0.49404 0.50135 -0.00039
 C441 C 0.58768 0.46561 -0.05568
 C442 C 0.40092 0.54442 -0.06227
 C443 C 0.56760 0.59246 -0.03762
 C444 C 0.45822 0.38837 -0.04519
 N445 N 1.00756 0.14560 0.11927
 N446 N 1.03155 0.16853 0.14896
 C447 C 1.08106 0.16756 0.14034
 C448 C 1.08658 0.14335 0.10408
 N449 N 1.03994 0.13040 0.09206
 H450 H 1.12084 0.13537 0.08811
 N451 N 1.02369 0.67420 0.59186
 N452 N 1.04421 0.70102 0.62109
 C453 C 1.08723 0.67827 0.63187
 C454 C 1.09210 0.63629 0.60854
 N455 N 1.05193 0.63528 0.58404
 H456 H 1.12245 0.60985 0.60829
 N457 N 0.52560 0.17431 0.59207
 N458 N 0.54677 0.19982 0.62177
 C459 C 0.58919 0.17581 0.63230
 C460 C 0.59302 0.13430 0.60814
 N461 N 0.55279 0.13489 0.58355
 H462 H 0.62266 0.10710 0.60752
 N463 N 0.51134 0.65358 0.11093
 N464 N 0.53368 0.68015 0.13949
 C465 C 0.57796 0.65813 0.14762
 C466 C 0.58151 0.61662 0.12360
 N467 N 0.53940 0.61519 0.10125
 H468 H 0.61296 0.59179 0.12051
 N469 N 0.98222 -0.14997 0.11694
 N470 N 0.95816 -0.17334 0.14638
 C471 C 0.90853 -0.17017 0.13828
 C472 C 0.90300 -0.14411 0.10249
 N473 N 0.94985 -0.13235 0.09029
 H474 H 0.86865 -0.13401 0.08710
 N475 N 0.97372 0.33369 0.60280
 N476 N 0.95084 0.30989 0.63273
 C477 C 0.90611 0.33217 0.63842
 C478 C 0.90289 0.37110 0.61093
 N479 N 0.94553 0.37052 0.58944
 H480 H 0.87251 0.39689 0.60612
 N481 N 0.46798 -0.17008 0.59099
 N482 N 0.44621 -0.19359 0.62156
 C483 C 0.40573 -0.16666 0.63179
 C484 C 0.40366 -0.12570 0.60671
 N485 N 0.44284 -0.12937 0.58178
 H486 H 0.37584 -0.09667 0.60569
 N487 N 0.48289 0.37053 0.12371
 N488 N 0.45963 0.34680 0.15345
 C489 C 0.41011 0.34603 0.14429
 C490 C 0.40383 0.37008 0.10783
 N491 N 0.44999 0.38469 0.09612
 H492 H 0.36942 0.37604 0.09110
 N493 N 0.81787 0.02978 -0.09149
 N494 N 0.79242 0.05355 -0.11994
 C495 C 0.81905 0.09515 -0.12937
 C496 C 0.86203 0.09576 -0.10586
 N497 N 0.85978 0.05454 -0.08274
 H498 H 0.89158 0.12380 -0.10485
 N499 N 0.85633 0.51001 0.37995
 N500 N 0.83225 0.53417 0.35099
 C501 C 0.83505 0.58313 0.35993
 C502 C 0.86157 0.58816 0.39545
 N503 N 0.87401 0.54184 0.40688
 H504 H 0.87062 0.62192 0.41170
 N505 N 0.35217 0.01737 0.37831
 N506 N 0.32859 0.04154 0.34915
 C507 C 0.33249 0.09070 0.35735
 C508 C 0.35937 0.09564 0.39301
 N509 N 0.37069 0.04918 0.40487
 H510 H 0.36998 0.12917 0.40897
 N511 N 0.33246 0.52733 -0.10917
 N512 N 0.30619 0.55089 -0.13716
 C513 C 0.32610 0.59723 -0.14042
 C514 C 0.36575 0.60115 -0.11368
 N515 N 0.36833 0.55694 -0.09487
 H516 H 0.38957 0.63316 -0.10743
 N517 N 1.17537 -0.02284 -0.08754
 N518 N 1.19985 -0.04326 -0.11776
 C519 C 1.17250 -0.08333 -0.12961
 C520 C 1.13028 -0.08654 -0.10585
 N521 N 1.13360 -0.04844 -0.08008
 H522 H 1.10048 -0.11434 -0.10640
 N523 N 1.14937 0.48678 0.38520
 N524 N 1.17111 0.46287 0.35545
 C525 C 1.16706 0.41375 0.36383
 C526 C 1.14219 0.40834 0.40007
 N527 N 1.13199 0.45474 0.41226
 H528 H 1.13193 0.37436 0.41583
 N529 N 0.64873 -0.01216 0.38231
 N530 N 0.67132 -0.03664 0.35322
 C531 C 0.66675 -0.08566 0.36197
 C532 C 0.64065 -0.09036 0.39768
 N533 N 0.63026 -0.04375 0.40927
 H534 H 0.62988 -0.12406 0.41361
 N535 N 0.65559 0.48641 -0.10212
 N536 N 0.68098 0.46481 -0.13129
 C537 C 0.65860 0.42021 -0.13822
 C538 C 0.61807 0.41566 -0.11254
 N539 N 0.61758 0.45755 -0.09063
 H540 H 0.59318 0.38391 -0.10825
 N541 N 1.01496 0.13693 -0.11619
 N542 N 1.03746 0.15785 -0.14767
 C543 C 1.08706 0.16099 -0.13882
 C544 C 1.09407 0.14101 -0.10086
 N545 N 1.04843 0.12680 -0.08786
 H546 H 1.12896 0.13493 -0.08480
 N547 N 1.01559 0.64045 0.37862
 N548 N 1.03953 0.66310 0.34876
 C549 C 1.08909 0.66157 0.35750
 C550 C 1.09474 0.63728 0.39400
 N551 N 1.04803 0.62489 0.40606
 H552 H 1.12909 0.62946 0.41029
 N553 N 0.51596 0.14862 0.37949
 N554 N 0.54105 0.17165 0.35040
 C555 C 0.59038 0.16808 0.35953
 C556 C 0.59471 0.14218 0.39535
 N557 N 0.54756 0.13085 0.40667
 H558 H 0.62848 0.13214 0.41156
 N559 N 0.65372 0.59627 -0.05880
 N560 N 0.68202 0.61411 -0.08809
 C561 C 0.65149 0.63819 -0.11403
 C562 C 0.60265 0.63404 -0.09949
 N563 N 0.60613 0.60760 -0.06500
 H564 H 0.56839 0.64884 -0.11220
 N565 N 0.97805 -0.16448 -0.09957
 N566 N 0.95780 -0.18831 -0.13059
 C567 C 0.91417 -0.16540 -0.13946
 C568 C 0.90866 -0.12646 -0.11306
 N569 N 0.94898 -0.12734 -0.08873
 H570 H 0.87766 -0.10097 -0.11064
 N571 N 0.99349 0.35177 0.38640
 N572 N 0.97061 0.32963 0.35582
 C573 C 0.92073 0.33462 0.36144
 C574 C 0.91373 0.36039 0.39678
 N575 N 0.96002 0.37018 0.41133
 H576 H 0.87876 0.37098 0.41061
 N577 N 0.48796 -0.14330 0.37886
 N578 N 0.46428 -0.16731 0.34956
 C579 C 0.41440 -0.16356 0.35640
 C580 C 0.40852 -0.13629 0.39132
 N581 N 0.45512 -0.12460 0.40416
 H582 H 0.37426 -0.12577 0.40624
 N583 N 0.46197 0.30435 -0.07386
 N584 N 0.44007 0.27879 -0.10336
 C585 C 0.40754 0.30975 -0.12199
 C586 C 0.41039 0.35506 -0.10282
 N587 N 0.44444 0.35020 -0.07316
 H588 H 0.38932 0.38842 -0.10917
 N589 N 1.13733 -0.00881 0.12513
 N590 N 1.16097 -0.03263 0.15450
 C591 C 1.16042 -0.08141 0.14488
 C592 C 1.13574 -0.08667 0.10853
 N593 N 1.12207 -0.04068 0.09733
 H594 H 1.12858 -0.12031 0.09160
 N595 N 1.18269 0.46962 0.59105
 N596 N 1.20903 0.44754 0.61982
 C597 C 1.17894 0.41217 0.63626
 C598 C 1.13305 0.41336 0.61650
 N599 N 1.13708 0.44960 0.58850
 H600 H 1.10111 0.38844 0.62037
 N601 N 0.66447 -0.02512 0.59963
 N602 N 0.68738 -0.04681 0.63040
 C603 C 0.66199 -0.08960 0.63845
 C604 C 0.62238 -0.09321 0.61155
 N605 N 0.62544 -0.05244 0.58794
 H606 H 0.59516 -0.12322 0.60825
 N607 N 0.68756 0.43632 0.06801
 N608 N 0.71480 0.41691 0.09741
 C609 C 0.69258 0.37329 0.10767
 C610 C 0.65106 0.36625 0.08299
 N611 N 0.64952 0.40631 0.05866
 H612 H 0.62203 0.33778 0.08524
 N613 N 0.85382 0.00475 0.12069
 N614 N 0.83404 0.02762 0.15190
 C615 C 0.83859 0.07697 0.14466
 C616 C 0.86142 0.08363 0.10784
 N617 N 0.87017 0.03783 0.09400
 H618 H 0.87108 0.11809 0.09253
 N619 N 0.82778 0.52829 0.59283
 N620 N 0.80204 0.55109 0.62113
 C621 C 0.82652 0.59435 0.62897
 C622 C 0.86846 0.59706 0.60478
 N623 N 0.86775 0.55529 0.58279
 H624 H 0.89627 0.62672 0.60265
 N625 N 0.32521 0.02877 0.59027
 N626 N 0.30044 0.04966 0.62009
 C627 C 0.32697 0.09060 0.63116
 C628 C 0.36917 0.09384 0.60713
 N629 N 0.36652 0.05477 0.58211
 H630 H 0.39817 0.12245 0.60675
 N631 N 0.32120 0.53206 0.08917
 N632 N 0.29870 0.55476 0.11916
 C633 C 0.31934 0.60077 0.12182
 C634 C 0.35532 0.60563 0.09202
 N635 N 0.35516 0.56192 0.07244
 H636 H 0.38046 0.63679 0.08611
   
