data_POSCAR
  _audit_creation_date              2014-09-24
  _audit_creation_method            'ToBaCCo'
  _symmetry_space_group_name_H-M    'P1'
  _symmetry_Int_Tables_number       1
  _symmetry_cell_setting            triclinic
  loop_
  _symmetry_equiv_pos_as_xyz
 x,y,z
_cell_length_a 16.9073
_cell_length_b 16.9103
_cell_length_c 17.5881
_cell_angle_alpha 92.027500
_cell_angle_beta 92.012700
_cell_angle_gamma 88.703900
loop_
  _atom_site_label
  _atom_site_type_symbol
  _atom_site_fract_x
  _atom_site_fract_y
  _atom_site_fract_z
C1 C 0.27949 1.05031 -0.40018
 C2 C 0.25925 1.06145 -0.47484
 C3 C 0.32872 1.05690 -0.51485
 N4 N 0.39016 1.03869 -0.46679
 C5 C 0.36023 1.03471 -0.39660
 C6 C 0.33440 1.06920 -0.59412
 C7 C 0.40568 1.05652 -0.63426
 C8 C 0.41751 1.08644 -0.70539
 C9 C 0.49235 1.06438 -0.72520
 C10 C 0.52555 1.02082 -0.66629
 N11 N 0.47254 1.01717 -0.61014
 C12 C 0.60551 0.99170 -0.66549
 C13 C 0.65066 0.98305 -0.59649
 C14 C 0.73284 0.98033 -0.58865
 C15 C 0.75126 0.96843 -0.51358
 C16 C 0.68033 0.96228 -0.47761
 N17 N 0.61904 0.97272 -0.52801
 C18 C 0.67318 0.94200 -0.40086
 C19 C 0.60090 0.94691 -0.36276
 C20 C 0.58922 0.91418 -0.29292
 C21 C 0.51415 0.93569 -0.27260
 C22 C 0.48139 0.98066 -0.33064
 N23 N 0.53452 0.98700 -0.38584
 C24 C 0.40397 1.01418 -0.32990
 H25 H 0.23767 1.05054 -0.35525
 H26 H 0.19908 1.06945 -0.49627
 H27 H 0.52888 1.02327 -0.43233
 H28 H 0.37773 1.12367 -0.73868
 H29 H 0.52056 1.08219 -0.77598
 H30 H 0.77672 0.98859 -0.63045
 H31 H 0.81060 0.96527 -0.48869
 H32 H 0.48628 0.91871 -0.22134
 H33 H 0.47935 0.98465 -0.56119
 H34 H 0.63022 0.87798 -0.25987
 C35 C -0.55185 1.26762 -0.08793
 C36 C -0.62601 1.29569 -0.07092
 C37 C -0.61615 1.36617 -0.02898
 N38 N -0.53824 1.38257 -0.02172
 C39 C -0.49885 1.32267 -0.05810
 C40 C -0.67732 1.41305 0.00450
 C41 C -0.66226 1.48970 0.03634
 C42 C -0.70634 1.52847 0.09212
 C43 C -0.67610 1.60283 0.10307
 C44 C -0.61352 1.60706 0.05476
 N45 N -0.60456 1.53759 0.01509
 C46 C -0.57076 1.67590 0.04309
 C47 C -0.49546 1.67190 0.01153
 C48 C -0.45779 1.73380 -0.02057
 C49 C -0.38368 1.70589 -0.03832
 C50 C -0.37863 1.62792 -0.01596
 N51 N -0.44748 1.60714 0.01360
 C52 C -0.31088 1.57754 -0.01811
 C53 C -0.31923 1.49484 -0.01265
 C54 C -0.26100 1.44243 0.01293
 C55 C -0.28942 1.36802 -0.00046
 C56 C -0.36631 1.37645 -0.02993
 N57 N -0.38434 1.45433 -0.03628
 C58 C -0.41554 1.31421 -0.05705
 H59 H -0.53934 1.21229 -0.11783
 H60 H -0.68041 1.26679 -0.08829
 H61 H -0.43474 1.47791 -0.06381
 H62 H -0.75512 1.50562 0.12228
 H63 H -0.69771 1.64852 0.14221
 H64 H -0.48138 1.79252 -0.03123
 H65 H -0.33961 1.73914 -0.06586
 H66 H -0.25561 1.31494 0.01106
 H67 H -0.56712 1.52695 -0.03018
 H68 H -0.20361 1.45566 0.03876
 C69 C -0.01174 0.25514 0.48536
 C70 C -0.02649 0.27255 0.41093
 C71 C -0.04684 0.35262 0.40937
 N72 N -0.04776 0.38330 0.48160
 C73 C -0.02757 0.32357 0.52809
 C74 C -0.07298 0.39475 0.34414
 C75 C -0.07271 0.47943 0.34411
 C76 C -0.09430 0.52567 0.28242
 C77 C -0.07133 0.60153 0.30037
 C78 C -0.03534 0.60084 0.37224
 N79 N -0.03683 0.52658 0.39852
 C80 C 0.00857 0.66409 0.40611
 C81 C 0.03530 0.66706 0.48350
 C82 C 0.08258 0.72581 0.51634
 C83 C 0.09661 0.70714 0.59069
 C84 C 0.05613 0.63826 0.60188
 N85 N 0.01810 0.61419 0.53630
 C86 C 0.05475 0.59861 0.67150
 C87 C 0.02039 0.52308 0.67611
 C88 C -0.01346 0.49537 0.74057
 C89 C -0.03730 0.41963 0.72313
 C90 C -0.01758 0.40266 0.64830
 N91 N 0.01649 0.46664 0.61960
 C92 C -0.02948 0.32916 0.60863
 H93 H 0.00757 0.19789 0.50547
 H94 H -0.02302 0.22926 0.36480
 H95 H 0.04241 0.46909 0.56685
 H96 H -0.11771 0.50735 0.22691
 H97 H -0.07676 0.65021 0.26223
 H98 H 0.10532 0.77692 0.48975
 H99 H 0.13401 0.74016 0.63090
 H100 H -0.06745 0.38242 0.76108
 H101 H -0.00402 0.50732 0.44548
 H102 H -0.02185 0.52709 0.79432
 O103 O -0.16222 0.92515 -0.13598
 O104 O 0.21785 1.04285 -0.05337
 O105 O 0.00965 1.06501 -0.20280
 O106 O 0.07736 0.86340 -0.16637
 O107 O 0.08832 0.78936 -0.05868
 O108 O -0.03835 1.17088 -0.13008
 O109 O 0.15116 0.99658 -0.16211
 O110 O -0.04996 0.93621 -0.20578
 Zr111 Zr 0.03576 0.97578 -0.12452
 O112 O 0.10919 0.94096 -0.03585
 O113 O -0.06691 1.03066 -0.08740
 C114 C -0.12437 0.92238 -0.19907
 C115 C 0.21378 1.02253 -0.12507
 C116 C -0.02059 1.13584 -0.19432
 C117 C 0.09267 0.79811 -0.13121
 H118 H 0.09324 1.11303 -0.09137
 O119 O 0.06522 1.07568 -0.06029
 H120 H -0.04042 0.85107 -0.09568
 O121 O -0.02494 0.89740 -0.06325
 O122 O 0.17213 1.07434 0.14330
 O123 O -0.20696 0.94697 0.06393
 O124 O 0.04173 1.22168 -0.00701
 O125 O 0.16695 0.83888 0.05197
 O126 O -0.03306 0.77184 0.01785
 O127 O -0.15632 1.15227 -0.05060
 O128 O -0.06366 1.12793 0.17738
 O129 O -0.00593 0.92283 0.21249
 O130 O -0.07629 1.20362 0.07055
 O131 O 0.04547 0.82040 0.13760
 O132 O 0.16071 1.16135 0.02758
 O133 O -0.21662 1.03098 -0.05642
 O134 O -0.15227 0.83269 -0.01550
 O135 O 0.22740 0.96002 0.05812
 O136 O 0.06088 1.06080 0.21404
 O137 O -0.13951 0.99099 0.17323
 Zr138 Zr 0.13395 1.04017 0.03170
 Zr139 Zr -0.12431 0.95307 -0.02223
 Zr140 Zr -0.03701 1.12696 -0.01867
 Zr141 Zr 0.04651 0.86608 0.02803
 Zr142 Zr -0.02510 1.01553 0.13481
 O143 O -0.05619 0.91596 0.07013
 O144 O 0.03441 1.09607 0.07346
 C145 C 0.13441 1.07862 0.20625
 C146 C -0.20219 0.96494 0.13621
 C147 C 0.11660 1.22267 0.01141
 C148 C 0.22818 0.88350 0.06071
 C149 C -0.10800 0.77126 -0.00039
 C150 C -0.21663 1.10689 -0.06316
 C151 C -0.07986 1.19343 0.14317
 C152 C 0.02420 0.85196 0.20209
 H153 H -0.14647 1.07778 0.06477
 O154 O -0.09804 1.05126 0.04560
 H155 H 0.11285 0.94511 0.13914
 O156 O 0.07733 0.96184 0.09660
 C157 C 0.26656 1.09563 0.36348
 C158 C 0.21095 1.15177 0.38748
 C159 C 0.15429 1.15418 0.33055
 C160 C 0.18009 1.10123 0.27536
 O161 O 0.24835 1.06652 0.29432
 H162 H 0.21183 1.18756 0.43975
 H163 H 0.10110 1.19055 0.32880
 C164 C -0.35930 0.97412 0.26328
 C165 C -0.40062 0.94552 0.19899
 C166 C -0.34667 0.93579 0.14384
 C167 C -0.27579 0.95874 0.17780
 O168 O -0.28301 0.98103 0.25015
 H169 H -0.46286 0.93224 0.19324
 H170 H -0.35795 0.91560 0.08545
 C171 C -0.25533 0.91356 -0.35723
 C172 C -0.20053 0.85809 -0.38349
 C173 C -0.14380 0.85304 -0.32674
 C174 C -0.16962 0.90380 -0.26941
 O175 O -0.23700 0.94052 -0.28750
 H176 H -0.20122 0.82628 -0.43799
 H177 H -0.09000 0.81708 -0.32705
 C178 C 0.36761 1.02695 -0.25439
 C179 C 0.40644 1.06326 -0.19277
 C180 C 0.35399 1.06568 -0.13594
 C181 C 0.28663 1.03101 -0.16701
 O182 O 0.29473 1.00708 -0.23880
 H183 H 0.46600 1.08556 -0.19012
 H184 H 0.36338 1.09052 -0.07885
 C185 C 0.24601 1.38174 0.00829
 C186 C 0.17558 1.42534 0.00485
 C187 C 0.11697 1.37149 0.00666
 C188 C 0.15561 1.29918 0.01159
 O189 O 0.23333 1.30512 0.01238
 H190 H 0.16753 1.48841 -0.00196
 H191 H 0.05378 1.38331 0.00327
 C192 C 0.39184 0.75379 0.06271
 C193 C 0.43040 0.81919 0.09360
 C194 C 0.37367 0.87771 0.09856
 C195 C 0.30478 0.84291 0.07154
 O196 O 0.31557 0.76806 0.05011
 H197 H 0.49252 0.82369 0.10956
 H198 H 0.38160 0.93833 0.11872
 C199 C -0.23494 0.61093 -0.02105
 C200 C -0.16626 0.57252 -0.04511
 C201 C -0.10801 0.62666 -0.03612
 C202 C -0.14537 0.69451 -0.00920
 O203 O -0.22174 0.68563 -0.00073
 H204 H -0.15934 0.51345 -0.06995
 H205 H -0.04681 0.61906 -0.05156
 C206 C -0.37753 1.23736 -0.08050
 C207 C -0.38871 1.19790 -0.15021
 C208 C -0.33312 1.13777 -0.15117
 C209 C -0.29163 1.14649 -0.08277
 O210 O -0.31861 1.20580 -0.04018
 H211 H -0.42877 1.21408 -0.19670
 H212 H -0.32039 1.09686 -0.19811
 C213 C -0.09845 1.35095 0.27774
 C214 C -0.16599 1.36734 0.23371
 C215 C -0.16817 1.31021 0.17706
 C216 C -0.10294 1.26237 0.19094
 O217 O -0.06115 1.28620 0.25197
 H218 H -0.21056 1.41314 0.24359
 H219 H -0.21354 1.30229 0.13309
 C220 C -0.04458 1.26041 -0.35028
 C221 C -0.08700 1.19601 -0.37908
 C222 C -0.08276 1.14167 -0.32414
 C223 C -0.04028 1.17687 -0.26468
 O224 O -0.01780 1.24914 -0.27940
 H225 H -0.11868 1.18938 -0.43337
 H226 H -0.10845 1.08351 -0.32654
 C227 C 0.08519 0.63668 -0.26100
 C228 C 0.12075 0.59822 -0.20014
 C229 C 0.13520 0.65562 -0.14566
 C230 C 0.10783 0.72523 -0.17681
 O231 O 0.07819 0.71407 -0.24688
 H232 H 0.13340 0.53551 -0.19540
 H233 H 0.15852 0.64710 -0.08834
 C234 C 0.03874 0.72397 0.35498
 C235 C 0.11825 0.73005 0.34161
 C236 C 0.12224 0.78282 0.28563
 C237 C 0.04504 0.80533 0.26875
 O238 O -0.00633 0.76923 0.31009
 H239 H 0.16709 0.69703 0.36748
 H240 H 0.17485 0.80026 0.25768
   
