data_POSCAR
  _audit_creation_date              2014-09-24
  _audit_creation_method            'ToBaCCo'
  _symmetry_space_group_name_H-M    'P1'
  _symmetry_Int_Tables_number       1
  _symmetry_cell_setting            triclinic
  loop_
  _symmetry_equiv_pos_as_xyz
 x,y,z
_cell_length_a 40.4427
_cell_length_b 40.4427
_cell_length_c 40.4427
_cell_angle_alpha 90.000000
_cell_angle_beta 89.999900
_cell_angle_gamma 90.000200
loop_
  _atom_site_label
  _atom_site_type_symbol
  _atom_site_fract_x
  _atom_site_fract_y
  _atom_site_fract_z
O1 O 0.54505 0.49991 0.02728
 O2 O 0.45393 0.49991 0.02725
 O3 O 0.49949 0.45442 0.02728
 O4 O 0.49949 0.54540 0.02728
 O5 O 0.49949 0.54539 -0.02725
 O6 O 0.49949 0.45442 -0.02725
 O7 O 0.45393 0.49991 -0.02722
 O8 O 0.54504 0.49991 -0.02725
 Cu9 Cu 0.49949 0.49991 0.03273
 Cu10 Cu 0.49949 0.49991 -0.03270
 C11 C 0.56066 0.49991 0.00001
 C12 C 0.43822 0.49991 0.00001
 C13 C 0.49950 0.43883 0.00002
 C14 C 0.49950 0.56099 0.00002
 O15 O -0.02719 0.54603 0.50001
 O16 O -0.02722 0.45491 0.50001
 O17 O -0.02722 0.50046 0.54550
 O18 O -0.02722 0.50047 0.45452
 O19 O 0.02731 0.50047 0.45452
 O20 O 0.02731 0.50047 0.54550
 O21 O 0.02731 0.45491 0.50001
 O22 O 0.02729 0.54603 0.50001
 Cu23 Cu -0.03267 0.50047 0.50001
 Cu24 Cu 0.03276 0.50047 0.50001
 C25 C 0.00005 0.56174 0.50001
 C26 C 0.00005 0.43929 0.50001
 C27 C 0.00004 0.50045 0.56109
 C28 C 0.00004 0.50046 0.43893
 O29 O 0.50006 0.02716 0.54612
 O30 O 0.50006 0.02718 0.45501
 O31 O 0.45457 0.02719 0.50056
 O32 O 0.54555 0.02719 0.50056
 O33 O 0.54555 -0.02735 0.50056
 O34 O 0.45458 -0.02735 0.50056
 O35 O 0.50006 -0.02735 0.45501
 O36 O 0.50006 -0.02732 0.54612
 Cu37 Cu 0.50006 0.03264 0.50057
 Cu38 Cu 0.50006 -0.03280 0.50056
 C39 C 0.50006 -0.00009 0.56183
 C40 C 0.50006 -0.00008 0.43939
 C41 C 0.43898 -0.00008 0.50055
 C42 C 0.56114 -0.00008 0.50055
 O43 O 0.47283 -0.00009 -0.04580
 O44 O 0.47283 -0.00010 0.04531
 O45 O 0.47282 0.04539 -0.00024
 O46 O 0.47282 -0.04558 -0.00024
 O47 O 0.52736 -0.04558 -0.00024
 O48 O 0.52735 0.04540 -0.00024
 O49 O 0.52736 -0.00010 0.04531
 O50 O 0.52736 -0.00009 -0.04581
 Cu51 Cu 0.46736 -0.00009 -0.00024
 Cu52 Cu 0.53282 -0.00009 -0.00025
 C53 C 0.50009 -0.00009 -0.06142
 C54 C 0.50009 -0.00010 0.06093
 C55 C 0.50008 0.06099 -0.00023
 C56 C 0.50008 -0.06117 -0.00023
 O57 O -0.04526 0.52713 1.00001
 O58 O 0.04585 0.52713 1.00001
 O59 O 0.00029 0.52714 0.95453
 O60 O 0.00029 0.52714 1.04549
 O61 O 0.00029 0.47260 1.04550
 O62 O 0.00029 0.47260 0.95452
 O63 O 0.04585 0.47260 1.00001
 O64 O -0.04526 0.47259 1.00001
 Cu65 Cu 0.00030 0.53259 1.00001
 Cu66 Cu 0.00030 0.46713 1.00001
 C67 C -0.06088 0.49986 1.00001
 C68 C 0.06147 0.49986 1.00001
 C69 C 0.00028 0.49987 0.93893
 C70 C 0.00029 0.49987 1.06109
 O71 O 0.00006 -0.04589 0.47269
 O72 O 0.00006 0.04522 0.47269
 O73 O 0.04555 -0.00033 0.47270
 O74 O -0.04543 -0.00033 0.47270
 O75 O -0.04542 -0.00033 0.52724
 O76 O 0.04554 -0.00033 0.52724
 O77 O 0.00006 0.04522 0.52723
 O78 O 0.00006 -0.04589 0.52722
 Cu79 Cu 0.00006 -0.00034 0.46723
 Cu80 Cu 0.00006 -0.00034 0.53269
 C81 C 0.00006 -0.06151 0.49996
 C82 C 0.00006 0.06084 0.49996
 C83 C 0.06114 -0.00032 0.49997
 C84 C -0.06102 -0.00032 0.49997
 C85 C -0.35040 0.49991 0.97007
 C86 C -0.33302 0.49991 1.00000
 C87 C -0.35039 0.49991 1.02993
 C88 C -0.38498 0.49991 1.02997
 C89 C -0.40269 0.49991 1.00001
 C90 C -0.38499 0.49991 0.97004
 C91 C -0.29740 0.49990 0.99999
 C92 C -0.26757 0.49989 0.99998
 C93 C -0.23264 0.49988 0.99998
 C94 C -0.20282 0.49987 0.99998
 C95 C -0.16720 0.49987 1.00000
 C96 C -0.14982 0.52980 1.00000
 C97 C -0.11523 0.52983 1.00001
 C98 C -0.09753 0.49986 1.00001
 C99 C -0.11524 0.46990 1.00001
 C100 C -0.14983 0.46994 1.00001
 H101 H -0.33722 0.49991 0.94675
 H102 H -0.33720 0.49991 1.05325
 H103 H -0.39782 0.49991 1.05347
 H104 H -0.39784 0.49991 0.94655
 H105 H -0.16301 0.55312 1.00000
 H106 H -0.10238 0.55332 1.00001
 H107 H -0.10239 0.44641 1.00001
 H108 H -0.16301 0.44662 1.00000
 C109 C 0.35098 0.49991 1.02992
 C110 C 0.33362 0.49991 1.00001
 C111 C 0.35099 0.49991 0.97009
 C112 C 0.38557 0.49991 0.97003
 C113 C 0.40342 0.49991 1.00001
 C114 C 0.38557 0.49991 1.02999
 C115 C 0.29800 0.49990 1.00000
 C116 C 0.26817 0.49989 0.99999
 C117 C 0.23324 0.49988 0.99997
 C118 C 0.20341 0.49987 0.99997
 C119 C 0.16779 0.49987 0.99999
 C120 C 0.15042 0.46994 0.99999
 C121 C 0.11583 0.46990 1.00000
 C122 C 0.09812 0.49987 1.00001
 C123 C 0.11583 0.52983 1.00001
 C124 C 0.15041 0.52980 1.00000
 H125 H 0.33778 0.49991 1.05323
 H126 H 0.33779 0.49991 0.94678
 H127 H 0.39824 0.49991 0.94643
 H128 H 0.39823 0.49991 1.05359
 H129 H 0.16361 0.44662 0.99999
 H130 H 0.10298 0.44641 1.00000
 H131 H 0.10298 0.55332 1.00001
 H132 H 0.16360 0.55312 0.99999
 C133 C 0.02996 -0.35102 0.50001
 C134 C 0.00004 -0.33366 0.50001
 C135 C -0.02987 -0.35103 0.50001
 C136 C -0.02993 -0.38561 0.50001
 C137 C 0.00005 -0.40346 0.50001
 C138 C 0.03002 -0.38561 0.50001
 C139 C 0.00004 -0.29804 0.50001
 C140 C 0.00003 -0.26821 0.50000
 C141 C 0.00004 -0.23328 0.49998
 C142 C 0.00004 -0.20345 0.49997
 C143 C 0.00006 -0.16783 0.49997
 C144 C 0.00006 -0.15045 0.52989
 C145 C 0.00006 -0.11587 0.52993
 C146 C 0.00007 -0.09816 0.49996
 C147 C 0.00006 -0.11587 0.46999
 C148 C 0.00006 -0.15046 0.47003
 H149 H 0.05327 -0.33783 0.50001
 H150 H -0.05318 -0.33783 0.50001
 H151 H -0.05353 -0.39828 0.50001
 H152 H 0.05363 -0.39827 0.50001
 H153 H 0.00006 -0.16364 0.55322
 H154 H 0.00007 -0.10302 0.55342
 H155 H 0.00007 -0.10303 0.44650
 H156 H 0.00006 -0.16365 0.44671
 C157 C -0.02989 0.35035 0.50001
 C158 C 0.00004 0.33298 0.50001
 C159 C 0.02998 0.35035 0.50001
 C160 C 0.03001 0.38494 0.50001
 C161 C 0.00005 0.40264 0.50001
 C162 C -0.02992 0.38494 0.50001
 C163 C 0.00004 0.29736 0.50001
 C164 C 0.00003 0.26753 0.49999
 C165 C 0.00003 0.23260 0.49998
 C166 C 0.00005 0.20278 0.49997
 C167 C 0.00006 0.16715 0.49997
 C168 C 0.00006 0.14978 0.52990
 C169 C 0.00006 0.11519 0.52993
 C170 C 0.00006 0.09749 0.49996
 C171 C 0.00006 0.11520 0.47000
 C172 C 0.00006 0.14978 0.47004
 H173 H -0.05321 0.33717 0.50002
 H174 H 0.05330 0.33716 0.50001
 H175 H 0.05350 0.39779 0.50001
 H176 H -0.05341 0.39779 0.50002
 H177 H 0.00006 0.16297 0.55322
 H178 H 0.00006 0.10234 0.55342
 H179 H 0.00006 0.10235 0.44651
 H180 H 0.00006 0.16297 0.44672
 C181 C 0.50006 0.02981 -0.35093
 C182 C 0.50006 -0.00010 -0.33357
 C183 C 0.50006 -0.03001 -0.35094
 C184 C 0.50006 -0.03007 -0.38552
 C185 C 0.50006 -0.00009 -0.40337
 C186 C 0.50006 0.02989 -0.38551
 C187 C 0.50005 -0.00011 -0.29795
 C188 C 0.50004 -0.00012 -0.26812
 C189 C 0.50005 -0.00012 -0.23319
 C190 C 0.50005 -0.00011 -0.20336
 C191 C 0.50006 -0.00010 -0.16774
 C192 C 0.47014 -0.00010 -0.15036
 C193 C 0.47011 -0.00010 -0.11577
 C194 C 0.50008 -0.00010 -0.09807
 C195 C 0.53004 -0.00010 -0.11579
 C196 C 0.53000 -0.00010 -0.15038
 H197 H 0.50006 0.05313 -0.33773
 H198 H 0.50006 -0.05333 -0.33775
 H199 H 0.50006 -0.05367 -0.39819
 H200 H 0.50007 0.05349 -0.39817
 H201 H 0.44681 -0.00010 -0.16353
 H202 H 0.44662 -0.00010 -0.10291
 H203 H 0.55354 -0.00010 -0.10295
 H204 H 0.55331 -0.00010 -0.16357
 C205 C 0.50006 -0.03002 0.35045
 C206 C 0.50006 -0.00010 0.33307
 C207 C 0.50006 0.02984 0.35044
 C208 C 0.50006 0.02988 0.38503
 C209 C 0.50006 -0.00009 0.40274
 C210 C 0.50006 -0.03006 0.38503
 C211 C 0.50005 -0.00010 0.29745
 C212 C 0.50004 -0.00011 0.26762
 C213 C 0.50005 -0.00012 0.23269
 C214 C 0.50007 -0.00012 0.20287
 C215 C 0.50008 -0.00011 0.16725
 C216 C 0.47015 -0.00011 0.14987
 C217 C 0.47012 -0.00010 0.11528
 C218 C 0.50009 -0.00010 0.09758
 C219 C 0.53006 -0.00010 0.11529
 C220 C 0.53001 -0.00011 0.14988
 H221 H 0.50006 -0.05335 0.33727
 H222 H 0.50006 0.05316 0.33725
 H223 H 0.50006 0.05337 0.39787
 H224 H 0.50006 -0.05354 0.39789
 H225 H 0.44683 -0.00011 0.16305
 H226 H 0.44663 -0.00010 0.10243
 H227 H 0.55355 -0.00010 0.10245
 H228 H 0.55333 -0.00011 0.16307
 C229 C 0.49966 -0.35020 -0.02995
 C230 C 0.49971 -0.33286 -0.00001
 C231 C 0.49966 -0.35018 0.02993
 C232 C 0.49958 -0.38474 0.02998
 C233 C 0.49955 -0.40242 0.00001
 C234 C 0.49958 -0.38476 -0.02997
 C235 C 0.49981 -0.29731 -0.00003
 C236 C 0.49989 -0.26752 -0.00005
 C237 C 0.49996 -0.23266 -0.00007
 C238 C 0.50000 -0.20288 -0.00009
 C239 C 0.50003 -0.16732 -0.00013
 C240 C 0.47010 -0.14998 -0.00015
 C241 C 0.47008 -0.11542 -0.00019
 C242 C 0.50007 -0.09776 -0.00021
 C243 C 0.53004 -0.11545 -0.00019
 C244 C 0.52998 -0.15001 -0.00015
 H245 H 0.49970 -0.33701 -0.05327
 H246 H 0.49970 -0.33698 0.05325
 H247 H 0.49956 -0.39759 0.05347
 H248 H 0.49956 -0.39762 -0.05346
 H249 H 0.44678 -0.16316 -0.00013
 H250 H 0.44660 -0.10256 -0.00020
 H251 H 0.55354 -0.10261 -0.00020
 H252 H 0.55329 -0.16322 -0.00014
 C253 C 0.49966 0.35001 -0.02994
 C254 C 0.49971 0.33268 -0.00001
 C255 C 0.49966 0.35000 0.02994
 C256 C 0.49958 0.38456 0.02998
 C257 C 0.49955 0.40224 0.00001
 C258 C 0.49958 0.38457 -0.02997
 C259 C 0.49981 0.29712 -0.00003
 C260 C 0.49989 0.26734 -0.00005
 C261 C 0.49996 0.23248 -0.00007
 C262 C 0.50000 0.20269 -0.00009
 C263 C 0.50003 0.16714 -0.00013
 C264 C 0.52998 0.14982 -0.00015
 C265 C 0.53004 0.11526 -0.00019
 C266 C 0.50007 0.09758 -0.00021
 C267 C 0.47008 0.11523 -0.00019
 C268 C 0.47010 0.14979 -0.00015
 H269 H 0.49970 0.33682 -0.05326
 H270 H 0.49970 0.33679 0.05325
 H271 H 0.49956 0.39740 0.05348
 H272 H 0.49956 0.39743 -0.05346
 H273 H 0.55329 0.16304 -0.00014
 H274 H 0.55354 0.10242 -0.00020
 H275 H 0.44660 0.10237 -0.00020
 H276 H 0.44678 0.16297 -0.00013
 C277 C -0.35005 -0.03004 0.50039
 C278 C -0.33271 -0.00011 0.50035
 C279 C -0.35003 0.02984 0.50039
 C280 C -0.38459 0.02989 0.50047
 C281 C -0.40227 -0.00009 0.50051
 C282 C -0.38460 -0.03007 0.50047
 C283 C -0.29715 -0.00012 0.50025
 C284 C -0.26737 -0.00015 0.50017
 C285 C -0.23251 -0.00017 0.50010
 C286 C -0.20272 -0.00019 0.50006
 C287 C -0.16717 -0.00022 0.50003
 C288 C -0.14982 -0.00024 0.52996
 C289 C -0.11526 -0.00028 0.52997
 C290 C -0.09761 -0.00030 0.49999
 C291 C -0.11530 -0.00028 0.47002
 C292 C -0.14986 -0.00024 0.47008
 H293 H -0.33686 -0.05336 0.50036
 H294 H -0.33682 0.05315 0.50036
 H295 H -0.39743 0.05338 0.50049
 H296 H -0.39746 -0.05356 0.50050
 H297 H -0.16300 -0.00023 0.55328
 H298 H -0.10240 -0.00029 0.55346
 H299 H -0.10246 -0.00029 0.44652
 H300 H -0.16307 -0.00023 0.44677
 C301 C 0.35015 0.02984 0.50039
 C302 C 0.33283 -0.00011 0.50035
 C303 C 0.35017 -0.03004 0.50039
 C304 C 0.38473 -0.03007 0.50047
 C305 C 0.40239 -0.00009 0.50051
 C306 C 0.38471 0.02988 0.50047
 C307 C 0.29728 -0.00012 0.50024
 C308 C 0.26749 -0.00015 0.50017
 C309 C 0.23263 -0.00017 0.50010
 C310 C 0.20285 -0.00019 0.50005
 C311 C 0.16729 -0.00022 0.50003
 C312 C 0.14998 -0.00024 0.47007
 C313 C 0.11542 -0.00028 0.47002
 C314 C 0.09773 -0.00030 0.49999
 C315 C 0.11539 -0.00028 0.52997
 C316 C 0.14994 -0.00024 0.52995
 H317 H 0.33695 0.05315 0.50036
 H318 H 0.33698 -0.05336 0.50036
 H319 H 0.39759 -0.05356 0.50049
 H320 H 0.39756 0.05338 0.50049
 H321 H 0.16319 -0.00023 0.44677
 H322 H 0.10258 -0.00029 0.44652
 H323 H 0.10252 -0.00029 0.55346
 H324 H 0.16313 -0.00023 0.55328
 C325 C 0.02999 0.50030 1.35011
 C326 C 0.00005 0.50026 1.33278
 C327 C -0.02989 0.50030 1.35011
 C328 C -0.02993 0.50038 1.38467
 C329 C 0.00005 0.50041 1.40234
 C330 C 0.03002 0.50038 1.38467
 C331 C 0.00005 0.50016 1.29723
 C332 C 0.00008 0.50009 1.26744
 C333 C 0.00011 0.50001 1.23258
 C334 C 0.00015 0.49996 1.20280
 C335 C 0.00020 0.49993 1.16724
 C336 C 0.00021 0.52986 1.14989
 C337 C 0.00025 0.52987 1.11534
 C338 C 0.00027 0.49988 1.09768
 C339 C 0.00025 0.46992 1.11537
 C340 C 0.00021 0.46998 1.14993
 H341 H 0.05331 0.50027 1.33692
 H342 H -0.05321 0.50027 1.33691
 H343 H -0.05342 0.50040 1.39752
 H344 H 0.05351 0.50040 1.39752
 H345 H 0.00020 0.55318 1.16308
 H346 H 0.00026 0.55336 1.10247
 H347 H 0.00026 0.44642 1.10253
 H348 H 0.00020 0.44667 1.16314
 C349 C 0.02999 0.50030 0.64991
 C350 C 0.00005 0.50026 0.66724
 C351 C -0.02989 0.50030 0.64991
 C352 C -0.02993 0.50038 0.61536
 C353 C 0.00005 0.50041 0.59768
 C354 C 0.03002 0.50038 0.61535
 C355 C 0.00006 0.50016 0.70280
 C356 C 0.00008 0.50008 0.73258
 C357 C 0.00012 0.50001 0.76744
 C358 C 0.00015 0.49996 0.79723
 C359 C 0.00020 0.49993 0.83278
 C360 C 0.00022 0.46998 0.85009
 C361 C 0.00025 0.46992 0.88465
 C362 C 0.00026 0.49988 0.90234
 C363 C 0.00025 0.52987 0.88469
 C364 C 0.00021 0.52986 0.85013
 H365 H 0.05331 0.50027 0.66310
 H366 H -0.05321 0.50027 0.66311
 H367 H -0.05342 0.50040 0.60251
 H368 H 0.05351 0.50040 0.60250
 H369 H 0.00020 0.44667 0.83688
 H370 H 0.00026 0.44642 0.89749
 H371 H 0.00026 0.55336 0.89755
 H372 H 0.00020 0.55318 0.83695
   
