data_POSCAR
  _audit_creation_date              2014-09-24
  _audit_creation_method            'ToBaCCo'
  _symmetry_space_group_name_H-M    'P1'
  _symmetry_Int_Tables_number       1
  _symmetry_cell_setting            triclinic
  loop_
  _symmetry_equiv_pos_as_xyz
 x,y,z
_cell_length_a 26.4749
_cell_length_b 26.4749
_cell_length_c 58.8540
_cell_angle_alpha 90.205100
_cell_angle_beta 89.794900
_cell_angle_gamma 120.335000
loop_
  _atom_site_label
  _atom_site_type_symbol
  _atom_site_fract_x
  _atom_site_fract_y
  _atom_site_fract_z
C1 C -0.00011 -0.00118 0.50195
 C2 C 1.00017 -0.00146 0.16568
 C3 C 0.00972 1.00837 0.83381
 O4 O 0.47432 0.04547 0.02103
 O5 O 0.57609 0.04664 -0.02236
 O6 O 0.48060 0.05257 -0.02302
 O7 O 0.57623 0.05196 0.02175
 O8 O 0.53029 -0.04462 0.02054
 O9 O 0.42910 -0.04406 -0.02245
 O10 O 0.52494 -0.04996 -0.02357
 O11 O 0.42838 -0.05115 0.02156
 Cu12 Cu 0.53166 0.05877 -0.00061
 Cu13 Cu 0.47337 -0.05707 -0.00103
 C14 C 0.43387 -0.00336 0.02863
 C15 C 0.56762 -0.00179 -0.03032
 C16 C 0.43787 0.00473 -0.03000
 C17 C 0.57059 0.00393 0.02843
 O18 O -0.04271 0.42775 0.69008
 O19 O -0.04328 0.52894 0.64709
 O20 O -0.04980 0.42703 0.64607
 O21 O -0.04861 0.52359 0.69120
 O22 O 0.04799 0.57474 0.68999
 O23 O 0.04682 0.47297 0.64660
 O24 O 0.05331 0.57489 0.64588
 O25 O 0.05392 0.47925 0.69065
 Cu26 Cu -0.05572 0.47202 0.66865
 Cu27 Cu 0.06011 0.53031 0.66823
 C28 C 0.00607 0.43652 0.69763
 C29 C 0.00527 0.56924 0.63920
 C30 C -0.00201 0.43253 0.63900
 C31 C -0.00044 0.56627 0.69795
 O32 O 0.52845 0.57191 0.31222
 O33 O 0.42672 0.47027 0.35551
 O34 O 0.52261 0.57259 0.35632
 O35 O 0.42615 0.47603 0.31144
 O36 O 0.47162 0.42537 0.31212
 O37 O 0.57325 0.52710 0.35541
 O38 O 0.47738 0.42480 0.35619
 O39 O 0.57394 0.52126 0.31131
 Cu40 Cu 0.47121 0.52748 0.33389
 Cu41 Cu 0.52883 0.46986 0.33374
 C42 C 0.56861 0.56363 0.30443
 C43 C 0.43498 0.43013 0.36318
 C44 C 0.56498 0.56726 0.36320
 C45 C 0.43147 0.43363 0.30445
 C46 C -0.01455 0.12299 0.54271
 N47 N 0.03116 0.11390 0.54470
 N48 N 0.03359 0.07318 0.53231
 C49 C -0.00957 0.03955 0.51738
 N50 N -0.05576 0.04837 0.51543
 N51 N -0.05836 0.08918 0.52799
 C52 C -0.01410 0.17051 0.55584
 N53 N -0.06161 0.17727 0.55694
 N54 N -0.05981 0.22079 0.56912
 C55 C -0.01030 0.25928 0.58042
 N56 N 0.03710 0.25258 0.57915
 N57 N 0.03518 0.20900 0.56714
 C58 C -0.00795 0.30641 0.59445
 N59 N 0.04355 0.34755 0.60373
 N60 N 0.04576 0.38873 0.61745
 C61 C -0.00355 0.39016 0.62246
 N62 N -0.05504 0.34927 0.61305
 N63 N -0.05719 0.30824 0.59923
 C64 C 0.87563 0.86002 0.20662
 N65 N 0.88474 0.91499 0.20841
 N66 N 0.92543 0.95808 0.19591
 C67 C 0.95898 0.94831 0.18105
 N68 N 0.95011 0.89313 0.17930
 N69 N 0.90933 0.84978 0.19196
 C70 C 0.82840 0.81304 0.21998
 N71 N 0.82166 0.75875 0.22126
 N72 N 0.77852 0.71716 0.23370
 C73 C 0.74041 0.72832 0.24509
 N74 N 0.74707 0.78244 0.24365
 N75 N 0.79026 0.82396 0.23138
 C76 C 0.69374 0.68370 0.25940
 N77 N 0.65306 0.69414 0.26891
 N78 N 0.61224 0.65525 0.28283
 C79 C 0.61075 0.60453 0.28781
 N80 N 0.65119 0.59387 0.27818
 N81 N 0.69185 0.63266 0.26417
 C82 C 0.14388 0.02308 -0.12512
 N83 N 0.08720 -0.01694 -0.12083
 N84 N 0.04468 -0.01893 -0.13340
 C85 C 0.05666 0.01923 -0.15080
 N86 N 0.11379 0.05945 -0.15512
 N87 N 0.15654 0.06169 -0.14238
 C88 C 0.19000 0.02132 -0.11197
 N89 N 0.24663 0.06537 -0.11296
 N90 N 0.28768 0.06241 -0.10092
 C91 C 0.27361 0.01503 -0.08772
 N92 N 0.21711 -0.02900 -0.08688
 N93 N 0.17612 -0.02582 -0.09873
 C94 C 0.31796 0.01168 -0.07394
 N95 N 0.30521 -0.03930 -0.06367
 N96 N 0.34407 -0.04202 -0.05019
 C97 C 0.39702 0.00629 -0.04638
 N98 N 0.40994 0.05721 -0.05676
 N99 N 0.37123 0.05981 -0.07039
 C100 C 0.01489 0.87576 0.54278
 N101 N -0.03095 0.88467 0.54483
 N102 N -0.03360 0.92502 0.53240
 C103 C 0.00948 0.95842 0.51736
 N104 N 0.05578 0.94975 0.51535
 N105 N 0.05859 0.90932 0.52794
 C106 C 0.01478 0.82872 0.55598
 N107 N 0.06237 0.82209 0.55689
 N108 N 0.06091 0.77901 0.56913
 C109 C 0.01169 0.74084 0.58068
 N110 N -0.03580 0.74742 0.57962
 N111 N -0.03422 0.79055 0.56755
 C112 C 0.00976 0.69419 0.59475
 N113 N -0.04143 0.65334 0.60437
 N114 N -0.04320 0.61255 0.61807
 C115 C 0.00626 0.61123 0.62273
 N116 N 0.05743 0.65183 0.61300
 N117 N 0.05914 0.69247 0.59919
 C118 C 0.12425 0.13696 0.20682
 N119 N 0.09100 0.14733 0.19211
 N120 N 0.05032 0.10401 0.17941
 C121 C 0.04106 0.04871 0.18117
 N122 N 0.07415 0.03881 0.19608
 N123 N 0.11475 0.08188 0.20862
 C124 C 0.17148 0.18393 0.22018
 N125 N 0.20932 0.17287 0.23157
 N126 N 0.25256 0.21442 0.24382
 C127 C 0.25955 0.26870 0.24524
 N128 N 0.22172 0.27998 0.23386
 N129 N 0.17854 0.23838 0.22144
 C130 C 0.30627 0.31337 0.25951
 N131 N 0.30834 0.36455 0.26432
 N132 N 0.34904 0.40340 0.27830
 C133 C 0.38934 0.39266 0.28784
 N134 N 0.38767 0.34180 0.28282
 N135 N 0.34681 0.30284 0.26894
 C136 C 0.86774 -0.00600 -0.12729
 N137 N 0.92191 0.04181 -0.12604
 N138 N 0.96593 0.04465 -0.13796
 C139 C 0.95792 -0.00013 -0.15174
 N140 N 0.90350 -0.04836 -0.15294
 N141 N 0.85924 -0.05135 -0.14085
 C142 C 0.81985 -0.00673 -0.11434
 N143 N 0.76645 -0.05586 -0.11246
 N144 N 0.72420 -0.05530 -0.10021
 C145 C 0.73380 -0.00551 -0.08958
 N146 N 0.78702 0.04351 -0.09163
 N147 N 0.82919 0.04286 -0.10373
 C148 C 0.68864 -0.00451 -0.07535
 N149 N 0.69811 0.04668 -0.06615
 N150 N 0.65888 0.04778 -0.05224
 C151 C 0.60875 -0.00235 -0.04697
 N152 N 0.59902 -0.05352 -0.05630
 N153 N 0.63818 -0.05459 -0.07029
 C154 C 0.12433 -0.01590 0.12492
 N155 N 0.09053 -0.05971 0.13964
 N156 N 0.04972 -0.05711 0.15220
 C157 C 0.04089 -0.01092 0.15025
 N158 N 0.07453 0.03224 0.13532
 N159 N 0.11525 0.02981 0.12293
 C160 C 0.17186 -0.01545 0.11179
 N161 N 0.21035 0.03383 0.10049
 N162 N 0.25392 0.03575 0.08848
 C163 C 0.26063 -0.01165 0.08721
 N164 N 0.22214 -0.06116 0.09851
 N165 N 0.17862 -0.06296 0.11069
 C166 C 0.30776 -0.00930 0.07318
 N167 N 0.30959 -0.05854 0.06840
 N168 N 0.35062 -0.05638 0.05458
 C169 C 0.39151 -0.00490 0.04517
 N170 N 0.39008 0.04441 0.05018
 N171 N 0.34890 0.04220 0.06390
 C172 C 0.86137 0.87428 0.46100
 N173 N 0.85113 0.90798 0.47567
 N174 N 0.89447 0.94876 0.48833
 C175 C 0.94966 0.95764 0.48657
 N176 N 0.95942 0.92408 0.47172
 N177 N 0.91633 0.88339 0.45922
 C178 C 0.81439 0.82705 0.44765
 N179 N 0.82531 0.78891 0.43625
 N180 N 0.78379 0.74572 0.42398
 C181 C 0.72967 0.73906 0.42254
 N182 N 0.71851 0.77717 0.43393
 N183 N 0.76010 0.82032 0.44637
 C184 C 0.68504 0.69239 0.40823
 N185 N 0.63401 0.69050 0.40346
 N186 N 0.59522 0.64984 0.38945
 C187 C 0.60588 0.60940 0.37982
 N188 N 0.65660 0.61089 0.38480
 N189 N 0.69549 0.65171 0.39872
 C190 C 0.02443 0.14254 0.79275
 N191 N -0.01559 0.08585 0.78846
 N192 N -0.01758 0.04333 0.80103
 C193 C 0.02058 0.05531 0.81843
 N194 N 0.06080 0.11245 0.82275
 N195 N 0.06304 0.15519 0.81001
 C196 C 0.02267 0.18866 0.77960
 N197 N 0.06672 0.24528 0.78059
 N198 N 0.06376 0.28633 0.76855
 C199 C 0.01638 0.27226 0.75535
 N200 N -0.02765 0.21576 0.75451
 N201 N -0.02447 0.17477 0.76636
 C202 C 0.01303 0.31662 0.74157
 N203 N -0.03795 0.30386 0.73130
 N204 N -0.04067 0.34272 0.71782
 C205 C 0.00764 0.39567 0.71401
 N206 N 0.05856 0.40859 0.72439
 N207 N 0.06116 0.36988 0.73802
 C208 C 0.87711 0.01355 0.12485
 N209 N 0.88602 -0.03230 0.12280
 N210 N 0.92637 -0.03495 0.13523
 C211 C 0.95977 0.00813 0.15026
 N212 N 0.95110 0.05443 0.15228
 N213 N 0.91067 0.05724 0.13969
 C214 C 0.83007 0.01343 0.11165
 N215 N 0.82343 0.06102 0.11074
 N216 N 0.78035 0.05957 0.09850
 C217 C 0.74219 0.01034 0.08694
 N218 N 0.74877 -0.03715 0.08801
 N219 N 0.79190 -0.03557 0.10008
 C220 C 0.69553 0.00842 0.07288
 N221 N 0.65469 -0.04278 0.06326
 N222 N 0.61390 -0.04455 0.04956
 C223 C 0.61258 0.00491 0.04490
 N224 N 0.65318 0.05608 0.05463
 N225 N 0.69382 0.05779 0.06844
 C226 C 0.13831 0.12290 0.46081
 N227 N 0.08323 0.11341 0.45901
 N228 N 0.04016 0.07280 0.47155
 C229 C 0.05006 0.03971 0.48646
 N230 N 0.10536 0.04897 0.48822
 N231 N 0.14868 0.08966 0.47552
 C232 C 0.18528 0.17013 0.44745
 N233 N 0.23972 0.17719 0.44619
 N234 N 0.28133 0.22037 0.43377
 C235 C 0.27004 0.25820 0.42239
 N236 N 0.21577 0.25121 0.42381
 N237 N 0.17422 0.20798 0.43606
 C238 C 0.31472 0.30493 0.40812
 N239 N 0.30419 0.34546 0.39869
 N240 N 0.34315 0.38632 0.38481
 C241 C 0.39401 0.38799 0.37979
 N242 N 0.40475 0.34769 0.38933
 N243 N 0.36590 0.30699 0.40331
 C244 C -0.00466 0.86639 0.79492
 N245 N 0.04316 0.92057 0.79367
 N246 N 0.04600 0.96458 0.80559
 C247 C 0.00122 0.95657 0.81937
 N248 N -0.04701 0.90215 0.82057
 N249 N -0.05000 0.85789 0.80848
 C250 C -0.00538 0.81851 0.78196
 N251 N -0.05452 0.76510 0.78009
 N252 N -0.05395 0.72285 0.76784
 C253 C -0.00416 0.73245 0.75721
 N254 N 0.04486 0.78567 0.75926
 N255 N 0.04421 0.82785 0.77136
 C256 C -0.00316 0.68729 0.74298
 N257 N 0.04803 0.69676 0.73378
 N258 N 0.04913 0.65753 0.71987
 C259 C -0.00100 0.60740 0.71460
 N260 N -0.05218 0.59767 0.72392
 N261 N -0.05324 0.63683 0.73791
   
