data_POSCAR
  _audit_creation_date              2014-09-24
  _audit_creation_method            'ToBaCCo'
  _symmetry_space_group_name_H-M    'P1'
  _symmetry_Int_Tables_number       1
  _symmetry_cell_setting            triclinic
  loop_
  _symmetry_equiv_pos_as_xyz
 x,y,z
_cell_length_a 52.5981
_cell_length_b 52.6649
_cell_length_c 52.4264
_cell_angle_alpha 89.627100
_cell_angle_beta 89.410800
_cell_angle_gamma 90.188500
loop_
  _atom_site_label
  _atom_site_type_symbol
  _atom_site_fract_x
  _atom_site_fract_y
  _atom_site_fract_z
C1 C 0.17755 1.21304 0.20331
 C2 C 0.16549 1.23393 0.19193
 C3 C 0.17655 1.24691 0.17082
 C4 C 0.20024 1.23810 0.16146
 C5 C 0.21226 1.21702 0.17244
 C6 C 0.20094 1.20453 0.19352
 C7 C 0.16612 1.20025 0.22405
 C8 C 0.17797 1.17920 0.23594
 C9 C 0.20167 1.17118 0.22579
 C10 C 0.21290 1.18336 0.20461
 C11 C 0.23583 1.17440 0.19415
 C12 C 0.24706 1.18640 0.17275
 C13 C 0.23535 1.20806 0.16238
 H14 H 0.14691 1.23919 0.19911
 H15 H 0.21002 1.24794 0.14605
 H16 H 0.14745 1.20646 0.23002
 H17 H 0.21218 1.15591 0.23458
 H18 H 0.24443 1.15752 0.20216
 H19 H 0.24407 1.21785 0.14627
 C20 C 0.81450 0.78607 0.22256
 C21 C 0.82506 0.76400 0.21203
 C22 C 0.81513 0.75302 0.18963
 C23 C 0.79364 0.76463 0.17852
 C24 C 0.78280 0.78658 0.18897
 C25 C 0.79338 0.79743 0.21097
 C26 C 0.82524 0.79721 0.24423
 C27 C 0.81539 0.81995 0.25460
 C28 C 0.79385 0.83077 0.24283
 C29 C 0.78305 0.81986 0.22115
 C30 C 0.76227 0.83138 0.20923
 C31 C 0.75179 0.82089 0.18711
 C32 C 0.76200 0.79833 0.17723
 H33 H 0.84068 0.75518 0.22196
 H34 H 0.78589 0.75763 0.16086
 H35 H 0.84223 0.78869 0.25190
 H36 H 0.78482 0.84743 0.25072
 H37 H 0.75434 0.84868 0.21704
 H38 H 0.75419 0.79035 0.15998
 C39 C 0.82482 1.21294 -0.21496
 C40 C 0.83435 1.23549 -0.20458
 C41 C 0.82352 1.24584 -0.18231
 C42 C 0.80232 1.23372 -0.17097
 C43 C 0.79235 1.21136 -0.18137
 C44 C 0.80378 1.20082 -0.20334
 C45 C 0.83634 1.20219 -0.23658
 C46 C 0.82749 1.17903 -0.24683
 C47 C 0.80613 1.16733 -0.23499
 C48 C 0.79437 1.17799 -0.21346
 C49 C 0.77365 1.16578 -0.20155
 C50 C 0.76213 1.17615 -0.17968
 C51 C 0.77150 1.19904 -0.16978
 H52 H 0.85039 1.24489 -0.21376
 H53 H 0.79401 1.24125 -0.15361
 H54 H 0.85187 1.21246 -0.24561
 H55 H 0.79922 1.14913 -0.24147
 H56 H 0.76637 1.14821 -0.20934
 H57 H 0.76294 1.20691 -0.15268
 C58 C 0.18041 0.78943 -0.20997
 C59 C 0.16806 0.76830 -0.19904
 C60 C 0.17703 0.75677 -0.17640
 C61 C 0.19921 0.76701 -0.16530
 C62 C 0.21178 0.78808 -0.17611
 C63 C 0.20234 0.79937 -0.19849
 C64 C 0.17096 0.80090 -0.23215
 C65 C 0.18315 0.82221 -0.24314
 C66 C 0.20514 0.83191 -0.23156
 C67 C 0.21469 0.82076 -0.20926
 C68 C 0.23617 0.83093 -0.19736
 C69 C 0.24565 0.81994 -0.17485
 C70 C 0.23342 0.79833 -0.16454
 H71 H 0.15188 0.76053 -0.20893
 H72 H 0.20627 0.75961 -0.14744
 H73 H 0.15370 0.79355 -0.24051
 H74 H 0.21497 0.84808 -0.23997
 H75 H 0.24510 0.84782 -0.20532
 H76 H 0.24078 0.78939 -0.14748
 C77 C 0.52398 1.04419 -0.02070
 H78 H 0.51049 1.05441 -0.00901
 C79 C 0.54215 1.05763 -0.03503
 H80 H 0.54241 1.07816 -0.03414
 C81 C 0.54116 1.00505 -0.03459
 H82 H 0.54090 0.98451 -0.03389
 C83 C 0.55950 1.01770 -0.04933
 H84 H 0.57293 1.00666 -0.06039
 N85 N 0.52385 1.01836 -0.02071
 C86 C 0.46298 1.03507 0.00712
 H87 H 0.46184 1.03327 -0.01339
 C88 C 0.44599 1.05081 0.02011
 H89 H 0.43165 1.06083 0.00937
 C90 C 0.48230 1.02299 0.04594
 H91 H 0.49615 1.01178 0.05602
 C92 C 0.46587 1.03871 0.05967
 H93 H 0.46778 1.03981 0.08017
 Zn94 Zn 0.50171 0.99955 0.00091
 N95 N 0.48068 1.02158 0.02011
 C96 C 0.54021 0.99289 0.03629
 N97 N 0.52267 0.98004 0.02251
 C98 C 0.52180 0.95423 0.02266
 C99 C 0.53919 0.94031 0.03707
 C100 C 0.55776 0.97979 0.05110
 C101 C 0.48212 0.97681 -0.04405
 C102 C 0.46511 0.96191 -0.05778
 C103 C 0.44388 0.95071 -0.01820
 C104 C 0.46147 0.96558 -0.00521
 N105 N 0.48009 0.97828 -0.01822
 H106 H 0.54073 1.01342 0.03547
 H107 H 0.50812 0.94437 0.01107
 H108 H 0.53869 0.91978 0.03633
 H109 H 0.57136 0.99048 0.06209
 H110 H 0.49673 0.98738 -0.05414
 H111 H 0.46735 0.96075 -0.07828
 H112 H 0.42881 0.94139 -0.00745
 H113 H 0.46004 0.96743 0.01530
 C114 C 0.44725 1.05280 0.04679
 C115 C 0.56041 1.04437 -0.04944
 C116 C 0.44548 0.94874 -0.04490
 C117 C 0.55767 0.95310 0.05137
 C118 C -0.01683 0.54146 1.03741
 H119 H 0.00366 0.54283 1.03600
 C120 C -0.03028 0.55821 1.05300
 H121 H -0.01991 0.57256 1.06336
 C122 C -0.05515 0.52187 1.02444
 H123 H -0.06482 0.50799 1.01296
 C124 C -0.06935 0.53814 1.03993
 H125 H -0.08984 0.53614 1.04056
 N126 N -0.02935 0.52371 1.02359
 C127 C 0.02411 0.46278 1.00753
 H128 H 0.02258 0.46205 0.98698
 C129 C 0.03900 0.44502 1.02033
 H130 H 0.04870 0.43052 1.00943
 C131 C 0.01226 0.48197 1.04661
 H132 H 0.00155 0.49620 1.05681
 C133 C 0.02704 0.46463 1.06020
 H134 H 0.02789 0.46606 1.08076
 Zn135 Zn -0.00952 0.50311 1.00168
 N136 N 0.01121 0.48083 1.02074
 C137 C 0.03651 0.52277 0.98025
 N138 N 0.01078 0.52513 0.98128
 C139 C -0.00125 0.54416 0.96866
 C140 C 0.01267 0.56179 0.95420
 C141 C 0.05117 0.53989 0.96587
 C142 C -0.04505 0.46462 0.99245
 C143 C -0.05931 0.44777 0.97790
 C144 C -0.04291 0.46822 0.93973
 C145 C -0.02911 0.48482 0.95502
 N146 N -0.03038 0.48271 0.98087
 H147 H 0.04577 0.50775 0.99070
 H148 H -0.02171 0.54581 0.97014
 H149 H 0.00272 0.57712 0.94479
 H150 H 0.07159 0.53747 0.96504
 H151 H -0.04525 0.46300 1.01303
 H152 H -0.07048 0.43315 0.98742
 H153 H -0.04156 0.47004 0.91918
 H154 H -0.01695 0.49897 0.94616
 C155 C 0.04063 0.44577 1.04705
 C156 C -0.05694 0.55673 1.05439
 C157 C -0.05812 0.44928 0.95117
 C158 C 0.03929 0.55984 0.95268
 C159 C 1.04352 -0.01062 0.53524
 H160 H 1.04338 0.00991 0.53569
 C161 C 1.05878 -0.02418 0.55211
 H162 H 1.07011 -0.01379 0.56567
 C163 C 1.02751 -0.04885 0.51796
 H164 H 1.01489 -0.05842 0.50503
 C165 C 1.04272 -0.06318 0.53429
 H166 H 1.04204 -0.08368 0.53319
 N167 N 1.02820 -0.02305 0.51871
 C168 C 1.01285 0.03466 0.46107
 H169 H 0.99258 0.03700 0.46386
 C170 C 1.02567 0.04923 0.44270
 H171 H 1.01507 0.06324 0.43207
 C172 C 1.05097 0.01369 0.47211
 H173 H 1.06062 -0.00056 0.48331
 C174 C 1.06446 0.02739 0.45345
 H175 H 1.08440 0.02326 0.45050
 Zn176 Zn 1.00648 -0.00264 0.49872
 N177 N 1.02563 0.01756 0.47554
 C178 C 0.99017 0.04357 0.52170
 N179 N 0.98770 0.01785 0.52172
 C180 C 0.97265 0.00571 0.53920
 C181 C 0.95869 0.01954 0.55709
 C182 C 0.97663 0.05815 0.53934
 C183 C 0.95877 -0.02078 0.48096
 C184 C 0.94298 -0.03489 0.46510
 C185 C 0.98034 -0.05287 0.44514
 C186 C 0.99540 -0.03831 0.46126
 N187 N 0.98448 -0.02285 0.47889
 H188 H 1.00286 0.05288 0.50828
 H189 H 0.97154 -0.01481 0.53921
 H190 H 0.94692 0.00951 0.57093
 H191 H 0.97860 0.07862 0.53885
 H192 H 0.95041 -0.00786 0.49455
 H193 H 0.92255 -0.03306 0.46705
 H194 H 0.98940 -0.06481 0.43101
 H195 H 1.01590 -0.03912 0.45959
 C196 C 1.05184 0.04552 0.43835
 C197 C 1.05845 -0.05087 0.55192
 C198 C 0.95375 -0.05117 0.44687
 C199 C 0.96056 0.04614 0.55729
 C200 C 0.13844 0.30931 1.13561
 C201 C 0.13369 0.30305 1.16127
 C202 C 0.14630 0.28280 1.17289
 C203 C 0.16407 0.26793 1.15918
 C204 C 0.16878 0.27458 1.13337
 C205 C 0.15624 0.29493 1.12186
 C206 C 0.12469 0.33048 1.12313
 N207 N 0.13148 0.33860 1.09938
 N208 N 0.11885 0.35730 1.08797
 C209 C 0.09883 0.36864 1.09978
 N210 N 0.09206 0.36056 1.12357
 N211 N 0.10475 0.34190 1.13502
 C212 C 0.08437 0.38899 1.08677
 C213 C 0.06138 0.39794 1.09720
 C214 C 0.04732 0.41650 1.08445
 C215 C 0.05599 0.42666 1.06106
 C216 C 0.07920 0.41801 1.05087
 C217 C 0.09318 0.39936 1.06353
 H218 H 0.12032 0.31397 1.17254
 H219 H 0.14255 0.27963 1.19297
 H220 H 0.18128 0.26352 1.12134
 H221 H 0.16018 0.29905 1.10194
 H222 H 0.05397 0.39030 1.11501
 H223 H 0.02936 0.42245 1.09267
 H224 H 0.08666 0.42575 1.03312
 H225 H 0.11091 0.39307 1.05505
 C226 C -0.14926 0.68949 1.15389
 C227 C -0.13555 0.70522 1.17031
 C228 C -0.14723 0.72584 1.18222
 C229 C -0.17320 0.73140 1.17826
 C230 C -0.18693 0.71499 1.16211
 C231 C -0.17512 0.69450 1.15008
 C232 C -0.13646 0.66840 1.14032
 N233 N -0.14805 0.65637 1.12074
 N234 N -0.13617 0.63804 1.10796
 C235 C -0.11225 0.63088 1.11428
 N236 N -0.10075 0.64276 1.13400
 N237 N -0.11259 0.66115 1.14672
 C238 C -0.09868 0.61110 1.09952
 C239 C -0.07554 0.60115 1.10822
 C240 C -0.06225 0.58321 1.09383
 C241 C -0.07167 0.57493 1.07028
 C242 C -0.09497 0.58465 1.06175
 C243 C -0.10836 0.60245 1.07624
 H244 H -0.11549 0.70206 1.17349
 H245 H -0.13519 0.73801 1.19344
 H246 H -0.20710 0.71726 1.15913
 H247 H -0.18636 0.68249 1.13783
 H248 H -0.06764 0.60724 1.12617
 H249 H -0.04460 0.57579 1.10120
 H250 H -0.10261 0.57901 1.04354
 H251 H -0.12606 0.60981 1.06890
 C252 C -0.14282 0.31116 0.85367
 C253 C -0.12751 0.29280 0.84178
 C254 C -0.13846 0.27177 0.83004
 C255 C -0.16501 0.26868 0.82962
 C256 C -0.18036 0.28724 0.84122
 C257 C -0.16938 0.30818 0.85320
 C258 C -0.13101 0.33296 0.86686
 N259 N -0.14485 0.34771 0.88297
 N260 N -0.13395 0.36679 0.89542
 C261 C -0.10879 0.37199 0.89218
 N262 N -0.09504 0.35735 0.87592
 N263 N -0.10590 0.33822 0.86357
 C264 C -0.09638 0.39266 0.90657
 C265 C -0.07147 0.40040 0.90030
 C266 C -0.05930 0.41914 0.91447
 C267 C -0.07167 0.43043 0.93535
 C268 C -0.09667 0.42296 0.94147
 C269 C -0.10896 0.40436 0.92715
 H270 H -0.10699 0.29438 0.84195
 H271 H -0.12603 0.25763 0.82177
 H272 H -0.20088 0.28565 0.84093
 H273 H -0.18172 0.32208 0.86204
 H274 H -0.06125 0.39184 0.88454
 H275 H -0.03992 0.42432 0.90949
 H276 H -0.10671 0.43152 0.95735
 H277 H -0.12814 0.39885 0.93250
 C278 C 0.13742 0.69470 0.85902
 C279 C 0.12475 0.71147 0.84265
 C280 C 0.13770 0.73169 0.83094
 C281 C 0.16393 0.73580 0.83508
 C282 C 0.17654 0.71848 0.85133
 C283 C 0.16348 0.69839 0.86313
 C284 C 0.12343 0.67377 0.87205
 N285 N 0.13432 0.66039 0.89127
 N286 N 0.12152 0.64199 0.90339
 C287 C 0.09732 0.63612 0.89675
 N288 N 0.08649 0.64939 0.87742
 N289 N 0.09925 0.66785 0.86536
 C290 C 0.08286 0.61604 0.91062
 C291 C 0.05935 0.60744 0.90147
 C292 C 0.04540 0.58899 0.91490
 C293 C 0.05454 0.57882 0.93790
 C294 C 0.07816 0.58729 0.94693
 C295 C 0.09219 0.60560 0.93340
 H296 H 0.10458 0.70935 0.83926
 H297 H 0.12650 0.74465 0.81965
 H298 H 0.19678 0.71966 0.85448
 H299 H 0.17393 0.68558 0.87537
 H300 H 0.05168 0.61493 0.88388
 H301 H 0.02750 0.58260 0.90716
 H302 H 0.08560 0.58018 0.96477
 H303 H 0.11016 0.61189 0.94108
 C304 C 1.14233 0.14067 0.29897
 C305 C 1.13529 0.16547 0.29250
 C306 C 1.14726 0.17828 0.27226
 C307 C 1.16630 0.16641 0.25722
 C308 C 1.17311 0.14127 0.26408
 C309 C 1.16153 0.12880 0.28478
 C310 C 1.12934 0.12708 0.32011
 N311 N 1.14182 0.10945 0.33422
 N312 N 1.12994 0.09703 0.35312
 C313 C 1.10503 0.10154 0.35842
 N314 N 1.09255 0.11911 0.34425
 N315 N 1.10451 0.13174 0.32557
 C316 C 1.09161 0.08734 0.37887
 C317 C 1.06566 0.08173 0.37663
 C318 C 1.05291 0.06794 0.39570
 C319 C 1.06564 0.06002 0.41788
 C320 C 1.09166 0.06597 0.42013
 C321 C 1.10456 0.07919 0.40069
 H322 H 1.12078 0.17522 0.30347
 H323 H 1.14185 0.19782 0.26929
 H324 H 1.18659 0.13037 0.25305
 H325 H 1.16706 0.10948 0.28918
 H326 H 1.05532 0.08752 0.35982
 H327 H 1.03314 0.06320 0.39276
 H328 H 1.10208 0.06073 0.43704
 H329 H 1.12456 0.08349 0.40295
 C330 C 1.15083 -0.14158 0.69059
 C331 C 1.16269 -0.12706 0.70948
 C332 C 1.17326 -0.13878 0.73086
 C333 C 1.17255 -0.16536 0.73370
 C334 C 1.16115 -0.17989 0.71449
 C335 C 1.15026 -0.16813 0.69328
 C336 C 1.13857 -0.12904 0.66857
 N337 N 1.12086 -0.14150 0.65468
 N338 N 1.10914 -0.12993 0.63545
 C339 C 1.11478 -0.10547 0.62919
 N340 N 1.13268 -0.09309 0.64293
 N341 N 1.14427 -0.10460 0.66226
 C342 C 1.10110 -0.09227 0.60845
 C343 C 1.11089 -0.06976 0.59764
 C344 C 1.09741 -0.05671 0.57886
 C345 C 1.07363 -0.06566 0.57068
 C346 C 1.06406 -0.08841 0.58128
 C347 C 1.07771 -0.10164 0.59980
 H348 H 1.16326 -0.10654 0.70807
 H349 H 1.18145 -0.12693 0.74545
 H350 H 1.16070 -0.20041 0.71575
 H351 H 1.14147 -0.17986 0.67893
 H352 H 1.12900 -0.06220 0.60371
 H353 H 1.10566 -0.03957 0.57077
 H354 H 1.04564 -0.09568 0.57584
 H355 H 1.06956 -0.11885 0.60788
 C356 C 0.85222 -0.14355 0.31677
 C357 C 0.83710 -0.12964 0.29984
 C358 C 0.82486 -0.14160 0.27968
 C359 C 0.82719 -0.16804 0.27573
 C360 C 0.84211 -0.18192 0.29323
 C361 C 0.85445 -0.16985 0.31333
 C362 C 0.86603 -0.13053 0.33747
 N363 N 0.88368 -0.14303 0.35148
 N364 N 0.89667 -0.13104 0.36950
 C365 C 0.89252 -0.10606 0.37431
 N366 N 0.87473 -0.09364 0.36044
 N367 N 0.86180 -0.10560 0.34239
 C368 C 0.90754 -0.09244 0.39374
 C369 C 0.90167 -0.06722 0.40014
 C370 C 0.91641 -0.05400 0.41769
 C371 C 0.93743 -0.06563 0.42916
 C372 C 0.94314 -0.09093 0.42304
 C373 C 0.92831 -0.10422 0.40559
 H374 H 0.83515 -0.10928 0.30176
 H375 H 0.81468 -0.12952 0.26656
 H376 H 0.84384 -0.20233 0.29214
 H377 H 0.86569 -0.18122 0.32625
 H378 H 0.88581 -0.05756 0.39141
 H379 H 0.91172 -0.03444 0.42182
 H380 H 0.95907 -0.10046 0.43180
 H381 H 0.93336 -0.12362 0.40114
 C382 C 0.86575 0.14298 0.69100
 C383 C 0.87867 0.16014 0.70665
 C384 C 0.86610 0.17219 0.72678
 C385 C 0.84006 0.16751 0.73201
 C386 C 0.82715 0.15055 0.71578
 C387 C 0.83981 0.13850 0.69568
 C388 C 0.87941 0.12946 0.67028
 N389 N 0.86761 0.11109 0.65665
 N390 N 0.88008 0.09850 0.63850
 C391 C 0.90488 0.10375 0.63315
 N392 N 0.91664 0.12221 0.64669
 N393 N 0.90418 0.13477 0.66487
 C394 C 0.91894 0.08935 0.61333
 C395 C 0.94421 0.09572 0.60694
 C396 C 0.95763 0.08184 0.58864
 C397 C 0.94614 0.06120 0.57635
 C398 C 0.92085 0.05490 0.58261
 C399 C 0.90738 0.06884 0.60084
 H400 H 0.89874 0.16392 0.70372
 H401 H 0.87747 0.18415 0.73890
 H402 H 0.80699 0.14697 0.71786
 H403 H 0.82915 0.12565 0.68377
 H404 H 0.95373 0.11138 0.61618
 H405 H 0.97719 0.08697 0.58443
 H406 H 0.91139 0.03928 0.57324
 H407 H 0.88794 0.06342 0.60525
 C408 C 0.31284 1.15255 0.13685
 C409 C 0.31033 1.15269 0.16356
 C410 C 0.28937 1.16423 0.17526
 C411 C 0.27027 1.17560 0.16052
 C412 C 0.27302 1.17570 0.13379
 C413 C 0.29412 1.16447 0.12212
 C414 C 0.33435 1.13931 0.12431
 N415 N 0.33997 1.14360 0.09930
 N416 N 0.35865 1.13097 0.08773
 C417 C 0.37242 1.11340 0.10063
 N418 N 0.36689 1.10919 0.12568
 N419 N 0.34829 1.12193 0.13730
 C420 C 0.39240 1.09854 0.08742
 C421 C 0.40159 1.07593 0.09823
 C422 C 0.41948 1.06122 0.08517
 C423 C 0.42886 1.06892 0.06109
 C424 C 0.42005 1.09186 0.05057
 C425 C 0.40193 1.10641 0.06350
 H426 H 0.32455 1.14386 0.17544
 H427 H 0.28812 1.16419 0.19589
 H428 H 0.25850 1.18381 0.12177
 H429 H 0.29538 1.16453 0.10149
 H430 H 0.39449 1.06924 0.11654
 H431 H 0.42546 1.04348 0.09370
 H432 H 0.42720 1.09865 0.03232
 H433 H 0.39541 1.12386 0.05475
 C434 C 0.70024 1.13685 -0.14195
 C435 C 0.69898 1.16318 -0.14637
 C436 C 0.71908 1.17598 -0.15857
 C437 C 0.74072 1.16268 -0.16682
 C438 C 0.74191 1.13636 -0.16257
 C439 C 0.72195 1.12360 -0.15019
 C440 C 0.67920 1.12323 -0.12865
 N441 N 0.68221 1.09886 -0.12066
 N442 N 0.66347 1.08660 -0.10852
 C443 C 0.64084 1.09813 -0.10391
 N444 N 0.63777 1.12249 -0.11197
 N445 N 0.65657 1.13480 -0.12405
 C446 C 0.62013 1.08443 -0.09020
 C447 C 0.59540 1.09446 -0.08903
 C448 C 0.57596 1.08142 -0.07600
 C449 C 0.58085 1.05815 -0.06371
 C450 C 0.60562 1.04823 -0.06484
 C451 C 0.62497 1.06114 -0.07800
 H452 H 0.68255 1.17397 -0.14024
 H453 H 0.71760 1.19625 -0.16179
 H454 H 0.75850 1.12568 -0.16848
 H455 H 0.72356 1.10332 -0.14713
 H456 H 0.59099 1.11230 -0.09834
 H457 H 0.55704 1.08945 -0.07579
 H458 H 0.61023 1.03065 -0.05515
 H459 H 0.64383 1.05296 -0.07832
 C460 C 0.30929 0.85457 -0.13679
 C461 C 0.28933 0.84339 -0.12265
 C462 C 0.26880 0.83211 -0.13498
 C463 C 0.26788 0.83141 -0.16177
 C464 C 0.28811 0.84223 -0.17590
 C465 C 0.30849 0.85381 -0.16356
 C466 C 0.33053 0.86740 -0.12368
 N467 N 0.34590 0.88403 -0.13645
 N468 N 0.36452 0.89614 -0.12447
 C469 C 0.36866 0.89201 -0.09925
 N470 N 0.35343 0.87523 -0.08653
 N471 N 0.33471 0.86323 -0.09847
 C472 C 0.38892 0.90597 -0.08576
 C473 C 0.39733 0.89766 -0.06177
 C474 C 0.41596 0.91124 -0.04874
 C475 C 0.42641 0.93366 -0.05923
 C476 C 0.41806 0.94185 -0.08332
 C477 C 0.39967 0.92809 -0.09649
 H478 H 0.28927 0.84384 -0.10200
 H479 H 0.25337 0.82443 -0.12346
 H480 H 0.28829 0.84164 -0.19654
 H481 H 0.32369 0.86206 -0.17501
 H482 H 0.38959 0.88056 -0.05308
 H483 H 0.42225 0.90407 -0.03047
 H484 H 0.42528 0.95925 -0.09182
 H485 H 0.39347 0.93512 -0.11485
 C486 C 0.69182 0.85970 0.14753
 C487 C 0.71304 0.87309 0.15654
 C488 C 0.73231 0.86048 0.16957
 C489 C 0.73093 0.83415 0.17375
 C490 C 0.70977 0.82069 0.16477
 C491 C 0.69032 0.83335 0.15191
 C492 C 0.67162 0.87322 0.13344
 N493 N 0.64907 0.86174 0.12835
 N494 N 0.63103 0.87403 0.11560
 C495 C 0.63485 0.89826 0.10731
 N496 N 0.65740 0.90969 0.11239
 N497 N 0.67536 0.89745 0.12521
 C498 C 0.61500 0.91203 0.09296
 C499 C 0.62092 0.93496 0.08037
 C500 C 0.60237 0.94812 0.06685
 C501 C 0.57731 0.93884 0.06574
 C502 C 0.57137 0.91585 0.07829
 C503 C 0.59002 0.90255 0.09168
 H504 H 0.71481 0.89339 0.15354
 H505 H 0.74856 0.87128 0.17602
 H506 H 0.70819 0.80039 0.16789
 H507 H 0.67426 0.82247 0.14519
 H508 H 0.64001 0.94270 0.08074
 H509 H 0.60781 0.96543 0.05694
 H510 H 0.55220 0.90831 0.07807
 H511 H 0.58481 0.88499 0.10126
   
