data_POSCAR
  _audit_creation_date              2014-09-24
  _audit_creation_method            'ToBaCCo'
  _symmetry_space_group_name_H-M    'P1'
  _symmetry_Int_Tables_number       1
  _symmetry_cell_setting            triclinic
  loop_
  _symmetry_equiv_pos_as_xyz
 x,y,z
_cell_length_a 27.9173
_cell_length_b 27.8588
_cell_length_c 27.8765
_cell_angle_alpha 90.181900
_cell_angle_beta 90.046200
_cell_angle_gamma 90.034800
loop_
  _atom_site_label
  _atom_site_type_symbol
  _atom_site_fract_x
  _atom_site_fract_y
  _atom_site_fract_z
C1 C 0.49715 0.98005 -0.63323
 C2 C 0.45396 0.97481 -0.60786
 C3 C 0.45577 0.97586 -0.55738
 C4 C 0.49886 0.98515 -0.53239
 C5 C 0.54101 0.99238 -0.55954
 C6 C 0.54124 0.98749 -0.60991
 C7 C 0.50004 0.98591 -0.47825
 C8 C 0.54331 0.97829 -0.45287
 C9 C 0.54467 0.97925 -0.40255
 C10 C 0.50196 0.98486 -0.37700
 C11 C 0.45827 0.99079 -0.40085
 C12 C 0.45777 0.99327 -0.45116
 H13 H 0.49602 0.98271 -0.67187
 H14 H 0.42365 0.96713 -0.53779
 H15 H 0.57418 0.99999 -0.54139
 H16 H 0.57632 0.97051 -0.47144
 H17 H 0.50275 0.98568 -0.33814
 H18 H 0.42395 1.00025 -0.46859
 C19 C -0.62951 1.50234 0.01802
 C20 C -0.60452 1.45911 0.02510
 C21 C -0.55410 1.46042 0.02387
 C22 C -0.52890 1.50304 0.01315
 C23 C -0.55560 1.54521 0.00438
 C24 C -0.60590 1.54601 0.00893
 C25 C -0.47493 1.50377 0.01262
 C26 C -0.44932 1.54682 0.02114
 C27 C -0.39906 1.54773 0.02072
 C28 C -0.37391 1.50477 0.01433
 C29 C -0.39808 1.46129 0.00732
 C30 C -0.44832 1.46125 0.00468
 H31 H -0.66810 1.50135 0.01524
 H32 H -0.53456 1.42849 0.03362
 H33 H -0.53702 1.57796 -0.00419
 H34 H -0.46783 1.57989 0.02927
 H35 H -0.33510 1.50524 0.01376
 H36 H -0.46621 1.42766 -0.00287
 C37 C -0.01477 0.37686 0.50163
 C38 C -0.00410 0.39860 0.45735
 C39 C 0.00390 0.44872 0.45702
 C40 C -0.00229 0.47711 0.49872
 C41 C -0.01481 0.45383 0.54181
 C42 C -0.01956 0.40384 0.54377
 C43 C 0.00427 0.53073 0.49738
 C44 C 0.01654 0.55662 0.53935
 C45 C 0.02187 0.60703 0.53917
 C46 C 0.01811 0.63087 0.49485
 C47 C 0.00727 0.60604 0.45249
 C48 C -0.00132 0.55653 0.45424
 H49 H -0.01647 0.33816 0.50437
 H50 H 0.01355 0.46591 0.42388
 H51 H -0.02138 0.47415 0.57424
 H52 H 0.02401 0.53734 0.57203
 H53 H 0.02049 0.66957 0.49299
 H54 H -0.01200 0.53859 0.42154
 O55 O -0.12269 1.00473 -0.06969
 O56 O 0.12337 1.00358 -0.06770
 O57 O -0.00222 1.06998 -0.12600
 O58 O 0.00379 0.93987 -0.12762
 O59 O 0.00281 0.88078 -0.06997
 O60 O -0.00204 1.12795 -0.06683
 O61 O 0.06548 1.00419 -0.12668
 O62 O -0.06396 1.00511 -0.12774
 Zr63 Zr 0.00049 1.00455 -0.08803
 O64 O 0.04363 0.96076 -0.04734
 O65 O -0.04324 1.04760 -0.04697
 C66 C -0.10841 1.00510 -0.11403
 C67 C 0.10971 1.00353 -0.11227
 C68 C -0.00362 1.11429 -0.11138
 C69 C 0.00501 0.89529 -0.11412
 H70 H 0.06391 1.06872 -0.06606
 O71 O 0.04347 1.04772 -0.04615
 H72 H -0.06313 0.93985 -0.06864
 O73 O -0.04303 0.96057 -0.04793
 O74 O 0.12238 1.00382 0.06245
 O75 O -0.12361 1.00205 0.06027
 O76 O 0.06482 1.12706 0.00080
 O77 O 0.06492 0.88059 -0.00688
 O78 O -0.06492 0.88031 -0.00334
 O79 O -0.06502 1.12700 -0.00470
 O80 O 0.00145 1.06750 0.12026
 O81 O -0.00351 0.93758 0.11855
 O82 O 0.00127 1.12672 0.06274
 O83 O -0.00232 0.87949 0.05954
 O84 O 0.12312 1.06856 0.00093
 O85 O -0.12339 1.06847 -0.00633
 O86 O -0.12332 0.93873 -0.00264
 O87 O 0.12325 0.93916 -0.00593
 O88 O 0.06352 1.00309 0.12036
 O89 O -0.06570 1.00153 0.11922
 Zr90 Zr 0.08408 1.00385 -0.00299
 Zr91 Zr -0.08432 1.00363 -0.00441
 Zr92 Zr -0.00012 1.08816 -0.00259
 Zr93 Zr -0.00005 0.91932 -0.00475
 Zr94 Zr -0.00076 1.00292 0.08056
 O95 O -0.04384 0.95977 0.03886
 O96 O 0.04299 1.04687 0.04075
 C97 C 0.10798 1.00338 0.10677
 C98 C -0.10993 1.00115 0.10481
 C99 C 0.10913 1.11294 0.00272
 C100 C 0.10927 0.89474 -0.00768
 C101 C -0.10927 0.89432 -0.00170
 C102 C -0.10936 1.11292 -0.00664
 C103 C 0.00244 1.11211 0.10692
 C104 C -0.00414 0.89324 0.10405
 H105 H -0.06424 1.06721 0.06029
 O106 O -0.04374 1.04673 0.03980
 H107 H 0.06300 0.93897 0.05962
 O108 O 0.04283 0.95992 0.03939
 C109 C 0.32519 0.97316 0.31131
 C110 C 0.36663 0.95223 0.29276
 C111 C 0.40839 0.95070 0.32015
 C112 C 0.40987 0.97051 0.36692
 C113 C 0.36669 0.98879 0.38626
 C114 C 0.32490 0.99049 0.35844
 C115 C 0.28447 0.97948 0.28032
 C116 C 0.25225 0.98508 0.25209
 C117 C 0.21577 0.99164 0.21624
 C118 C 0.22904 0.99655 0.16811
 C119 C 0.19407 1.00135 0.13260
 C120 C 0.14515 1.00128 0.14474
 C121 C 0.13218 0.99714 0.19342
 C122 C 0.16731 0.99231 0.22890
 H123 H 0.36704 0.93803 0.25651
 H124 H 0.43942 0.93361 0.30435
 H125 H 0.36560 1.00508 0.42152
 H126 H 0.29290 1.00686 0.37314
 H127 H 0.26650 0.99614 0.15795
 H128 H 0.20543 1.00449 0.09561
 H129 H 0.09490 0.99690 0.20412
 H130 H 0.15666 0.98858 0.26606
 C131 C -0.33158 0.99442 0.30644
 C132 C -0.37064 0.96729 0.29096
 C133 C -0.41204 0.96482 0.31868
 C134 C -0.41569 0.98974 0.36287
 C135 C -0.37526 1.01623 0.37853
 C136 C -0.33375 1.01869 0.35037
 C137 C -0.29020 0.99775 0.27595
 C138 C -0.25727 0.99942 0.24809
 C139 C -0.21992 1.00043 0.21261
 C140 C -0.23218 1.00097 0.16395
 C141 C -0.19646 1.00103 0.12893
 C142 C -0.14778 1.00054 0.14209
 C143 C -0.13579 0.99994 0.19121
 C144 C -0.17168 0.99987 0.22622
 H145 H -0.36916 0.94791 0.25722
 H146 H -0.44054 0.94184 0.30574
 H147 H -0.37598 1.03713 0.41126
 H148 H -0.30367 1.04010 0.36254
 H149 H -0.26944 1.00122 0.15305
 H150 H -0.20709 1.00149 0.09156
 H151 H -0.09873 0.99954 0.20268
 H152 H -0.16182 0.99925 0.26381
 C153 C -0.32610 0.97949 -0.31925
 C154 C -0.36457 0.95027 -0.30585
 C155 C -0.40587 0.94848 -0.33411
 C156 C -0.40927 0.97603 -0.37616
 C157 C -0.36966 1.00376 -0.39046
 C158 C -0.32835 1.00559 -0.36203
 C159 C -0.28603 0.98503 -0.28721
 C160 C -0.25389 0.98993 -0.25870
 C161 C -0.21711 0.99564 -0.22295
 C162 C -0.22996 0.99993 -0.17465
 C163 C -0.19467 1.00396 -0.13933
 C164 C -0.14582 1.00371 -0.15183
 C165 C -0.13325 1.00017 -0.20067
 C166 C -0.16872 0.99611 -0.23596
 H167 H -0.36320 0.92989 -0.27283
 H168 H -0.43560 0.92638 -0.32254
 H169 H -0.37148 1.02568 -0.42243
 H170 H -0.29883 1.02847 -0.37263
 H171 H -0.26734 0.99967 -0.16420
 H172 H -0.20574 1.00668 -0.10220
 H173 H -0.09605 0.99981 -0.21163
 H174 H -0.15838 0.99285 -0.27328
 C175 C 0.33053 0.99783 -0.31527
 C176 C 0.36536 0.96300 -0.30619
 C177 C 0.40637 0.96047 -0.33459
 C178 C 0.41331 0.99287 -0.37256
 C179 C 0.37768 1.02721 -0.38223
 C180 C 0.33652 1.02977 -0.35355
 C181 C 0.28987 1.00132 -0.28377
 C182 C 0.25724 1.00304 -0.25553
 C183 C 0.21989 1.00401 -0.21999
 C184 C 0.17166 1.00318 -0.23363
 C185 C 0.13572 1.00298 -0.19866
 C186 C 0.14763 1.00354 -0.14952
 C187 C 0.19631 1.00437 -0.13632
 C188 C 0.23209 1.00460 -0.17131
 H189 H 0.36107 0.93807 -0.27674
 H190 H 0.43283 0.93316 -0.32680
 H191 H 0.38224 1.05275 -0.41106
 H192 H 0.30981 1.05699 -0.36079
 H193 H 0.16183 1.00251 -0.27123
 H194 H 0.09867 1.00230 -0.21018
 H195 H 0.20690 1.00483 -0.09894
 H196 H 0.26934 1.00504 -0.16036
 C197 C 0.31355 1.33104 0.03325
 C198 C 0.29557 1.37381 0.05214
 C199 C 0.32332 1.41543 0.05151
 C200 C 0.36989 1.41543 0.03153
 C201 C 0.38867 1.37106 0.01538
 C202 C 0.36049 1.32941 0.01583
 C203 C 0.28215 1.29027 0.02887
 C204 C 0.25371 1.25797 0.02454
 C205 C 0.21781 1.22128 0.01890
 C206 C 0.16943 1.23426 0.01689
 C207 C 0.13412 1.19914 0.01125
 C208 C 0.14670 1.15035 0.00751
 C209 C 0.19554 1.13768 0.00945
 C210 C 0.23082 1.17295 0.01508
 H211 H 0.25948 1.37534 0.06637
 H212 H 0.30795 1.44753 0.06709
 H213 H 0.42376 1.36877 -0.00092
 H214 H 0.37475 1.29639 0.00101
 H215 H 0.15897 1.27161 0.01975
 H216 H 0.09698 1.21027 0.01007
 H217 H 0.20659 1.10051 0.00679
 H218 H 0.26817 1.16252 0.01652
 C219 C 0.31121 0.67347 -0.00385
 C220 C 0.35522 0.67006 -0.02755
 C221 C 0.38316 0.62848 -0.02313
 C222 C 0.36719 0.58922 0.00479
 C223 C 0.32296 0.59419 0.02911
 C224 C 0.29547 0.63563 0.02469
 C225 C 0.28098 0.71497 -0.00886
 C226 C 0.25321 0.74796 -0.01148
 C227 C 0.21771 0.78535 -0.01298
 C228 C 0.23091 0.83358 -0.00820
 C229 C 0.19572 0.86932 -0.00695
 C230 C 0.14681 0.85717 -0.01024
 C231 C 0.13408 0.80855 -0.01562
 C232 C 0.16929 0.77299 -0.01694
 H233 H 0.36765 0.69920 -0.04998
 H234 H 0.41599 0.62669 -0.04360
 H235 H 0.30980 0.56676 0.05313
 H236 H 0.26171 0.63813 0.04371
 H237 H 0.26829 0.84352 -0.00486
 H238 H 0.20684 0.90635 -0.00282
 H239 H 0.09689 0.79783 -0.01851
 H240 H 0.15868 0.73573 -0.02046
 C241 C -0.31443 0.67629 0.02479
 C242 C -0.35704 0.67513 -0.00174
 C243 C -0.38591 0.63403 -0.00130
 C244 C -0.37224 0.59353 0.02543
 C245 C -0.33036 0.59583 0.05345
 C246 C -0.30166 0.63691 0.05305
 C247 C -0.28194 0.71619 0.02055
 C248 C -0.25322 0.74827 0.01650
 C249 C -0.21746 0.78515 0.01138
 C250 C -0.23068 0.83352 0.00906
 C251 C -0.19560 0.86908 0.00432
 C252 C -0.14672 0.85667 0.00181
 C253 C -0.13394 0.80784 0.00394
 C254 C -0.16907 0.77243 0.00868
 H255 H -0.36717 0.70535 -0.02389
 H256 H -0.41773 0.63309 -0.02355
 H257 H -0.31926 0.56540 0.07482
 H258 H -0.26879 0.63742 0.07374
 H259 H -0.26806 0.84377 0.01107
 H260 H -0.20679 0.90626 0.00292
 H261 H -0.09677 0.79688 0.00227
 H262 H -0.15843 0.73507 0.01041
 C263 C -0.31303 1.33317 -0.00310
 C264 C -0.30388 1.36715 0.03276
 C265 C -0.33217 1.40822 0.03644
 C266 C -0.37013 1.41608 0.00420
 C267 C -0.37994 1.38125 -0.03113
 C268 C -0.35136 1.34003 -0.03486
 C269 C -0.28157 1.29250 -0.00768
 C270 C -0.25329 1.25988 -0.01001
 C271 C -0.21764 1.22258 -0.01127
 C272 C -0.16912 1.23500 -0.01324
 C273 C -0.13396 1.19937 -0.01207
 C274 C -0.14682 1.15061 -0.00884
 C275 C -0.19581 1.13844 -0.00745
 C276 C -0.23094 1.17424 -0.00857
 H277 H -0.27442 1.36219 0.05759
 H278 H -0.32427 1.43403 0.06449
 H279 H -0.40878 1.38653 -0.05657
 H280 H -0.35868 1.31397 -0.06284
 H281 H -0.15841 1.27234 -0.01518
 H282 H -0.09671 1.21014 -0.01343
 H283 H -0.20705 1.10132 -0.00501
 H284 H -0.26841 1.16423 -0.00682
 C285 C 0.00328 1.31258 0.33111
 C286 C 0.02954 1.35524 0.33389
 C287 C 0.02707 1.38401 0.37513
 C288 C -0.00158 1.37037 0.41474
 C289 C -0.02825 1.32731 0.41061
 C290 C -0.02571 1.29892 0.36943
 C291 C 0.00623 1.28180 0.28968
 C292 C 0.00749 1.25406 0.25643
 C293 C 0.00776 1.21894 0.21848
 C294 C 0.00643 1.23304 0.17037
 C295 C 0.00493 1.19839 0.13393
 C296 C 0.00462 1.14912 0.14524
 C297 C 0.00635 1.13546 0.19380
 C298 C 0.00787 1.17013 0.23005
 H299 H 0.05243 1.36598 0.30444
 H300 H 0.04951 1.41562 0.37631
 H301 H -0.05273 1.31589 0.43839
 H302 H -0.04661 1.26617 0.36747
 H303 H 0.00618 1.27076 0.16103
 H304 H 0.00374 1.21022 0.09698
 H305 H 0.00630 1.09797 0.20394
 H306 H 0.00876 1.15882 0.26720
 C307 C -0.02890 1.32199 -0.32662
 C308 C 0.00084 1.36243 -0.32854
 C309 C 0.00194 1.39081 -0.36986
 C310 C -0.02648 1.37878 -0.40983
 C311 C -0.05789 1.33941 -0.40665
 C312 C -0.05900 1.31119 -0.36533
 C313 C -0.02565 1.28915 -0.28700
 C314 C -0.02213 1.26007 -0.25526
 C315 C -0.01733 1.22383 -0.21888
 C316 C -0.01611 1.23648 -0.17029
 C317 C -0.01126 1.20095 -0.13526
 C318 C -0.00753 1.15221 -0.14844
 C319 C -0.00867 1.13999 -0.19748
 C320 C -0.01351 1.17557 -0.23235
 H321 H 0.02447 1.37097 -0.29887
 H322 H 0.02680 1.42061 -0.37150
 H323 H -0.08050 1.32962 -0.43671
 H324 H -0.08213 1.27996 -0.36425
 H325 H -0.01897 1.27375 -0.15947
 H326 H -0.01070 1.21170 -0.09790
 H327 H -0.00600 1.10294 -0.20901
 H328 H -0.01434 1.16539 -0.26990
 C329 C 0.03178 0.69160 -0.33419
 C330 C 0.01167 0.64569 -0.33227
 C331 C 0.01043 0.61672 -0.37338
 C332 C 0.02869 0.63354 -0.41763
 C333 C 0.05111 0.67911 -0.41794
 C334 C 0.05242 0.70773 -0.37678
 C335 C 0.02847 0.72372 -0.29380
 C336 C 0.02485 0.75223 -0.26138
 C337 C 0.01989 0.78780 -0.22416
 C338 C 0.01775 0.77421 -0.17594
 C339 C 0.01257 0.80909 -0.14010
 C340 C 0.00941 0.85810 -0.15207
 C341 C 0.01153 0.87127 -0.20074
 C342 C 0.01670 0.83635 -0.23644
 H343 H -0.00459 0.63290 -0.29943
 H344 H -0.00802 0.58268 -0.37079
 H345 H 0.06823 0.69300 -0.44980
 H346 H 0.06867 0.74302 -0.37851
 H347 H 0.02012 0.73671 -0.16605
 H348 H 0.01126 0.79761 -0.10304
 H349 H 0.00933 0.90856 -0.21136
 H350 H 0.01824 0.84725 -0.27369
 C351 C -0.00128 0.68859 0.32294
 C352 C -0.03649 0.65414 0.33277
 C353 C -0.03333 0.62617 0.37434
 C354 C 0.00493 0.63273 0.40658
 C355 C 0.04062 0.66662 0.39569
 C356 C 0.03749 0.69432 0.35422
 C357 C -0.00553 0.72009 0.28237
 C358 C -0.00774 0.74843 0.24986
 C359 C -0.00894 0.78424 0.21280
 C360 C -0.00645 0.77109 0.16438
 C361 C -0.00532 0.80645 0.12884
 C362 C -0.00650 0.85548 0.14138
 C363 C -0.00954 0.86816 0.19022
 C364 C -0.01071 0.83279 0.22556
 H365 H -0.06678 0.64958 0.30886
 H366 H -0.06147 0.60056 0.38205
 H367 H 0.07080 0.67196 0.41957
 H368 H 0.06493 0.72085 0.34699
 H369 H -0.00489 0.73358 0.15412
 H370 H -0.00308 0.79536 0.09165
 H371 H -0.01067 0.90544 0.20128
 H372 H -0.01248 0.84337 0.26296
   
