data_POSCAR
  _audit_creation_date              2014-09-24
  _audit_creation_method            'ToBaCCo'
  _symmetry_space_group_name_H-M    'P1'
  _symmetry_Int_Tables_number       1
  _symmetry_cell_setting            triclinic
  loop_
  _symmetry_equiv_pos_as_xyz
 x,y,z
_cell_length_a 51.0455
_cell_length_b 49.9457
_cell_length_c 20.3092
_cell_angle_alpha 89.816800
_cell_angle_beta 90.001100
_cell_angle_gamma 89.944000
loop_
  _atom_site_label
  _atom_site_type_symbol
  _atom_site_fract_x
  _atom_site_fract_y
  _atom_site_fract_z
O1 O 0.26560 0.27546 0.32515
 O2 O 0.21857 0.22339 0.27588
 O3 O 0.26582 0.22338 0.32444
 O4 O 0.21838 0.27548 0.27650
 O5 O 0.23474 0.27586 0.17599
 O6 O 0.28217 0.22376 0.22404
 O7 O 0.23494 0.22377 0.17539
 O8 O 0.28197 0.27584 0.22466
 Cu9 Cu 0.24045 0.24938 0.31055
 Cu10 Cu 0.26010 0.24984 0.18997
 C11 C 0.28188 0.28454 0.28338
 C12 C 0.21865 0.21471 0.21715
 C13 C 0.28222 0.21464 0.28256
 C14 C 0.21840 0.28457 0.21799
 O15 O 0.78140 0.27531 0.27610
 O16 O 0.73408 0.22327 0.32474
 O17 O 0.78138 0.22321 0.27654
 O18 O 0.73412 0.27537 0.32443
 O19 O 0.71787 0.27541 0.22381
 O20 O 0.76513 0.22324 0.17592
 O21 O 0.71784 0.22331 0.22422
 O22 O 0.76514 0.27534 0.17549
 Cu23 Cu 0.75937 0.24928 0.31053
 Cu24 Cu 0.73987 0.24932 0.18980
 C25 C 0.78141 0.28421 0.21741
 C26 C 0.71776 0.21436 0.28290
 C27 C 0.78140 0.21433 0.21798
 C28 C 0.71786 0.28430 0.28235
 O29 O 0.71841 0.72373 0.77504
 O30 O 0.76556 0.77572 0.82409
 O31 O 0.71836 0.77582 0.77526
 O32 O 0.76562 0.72363 0.82375
 O33 O 0.78202 0.72384 0.72339
 O34 O 0.73477 0.77604 0.67480
 O35 O 0.78198 0.77593 0.72365
 O36 O 0.73482 0.72393 0.67460
 Cu37 Cu 0.74034 0.74971 0.80958
 Cu38 Cu 0.76004 0.74995 0.68906
 C39 C 0.71849 0.71496 0.71639
 C40 C 0.78190 0.78469 0.78231
 C41 C 0.71843 0.78484 0.71668
 C42 C 0.78202 0.71478 0.78198
 O43 O 0.23430 0.72455 0.82507
 O44 O 0.28160 0.77653 0.77604
 O45 O 0.23433 0.77663 0.82441
 O46 O 0.28157 0.72443 0.77665
 O47 O 0.26528 0.72439 0.67608
 O48 O 0.21806 0.77658 0.72392
 O49 O 0.26532 0.77648 0.67545
 O50 O 0.21802 0.72450 0.72449
 Cu51 Cu 0.25959 0.75054 0.81061
 Cu52 Cu 0.24004 0.75048 0.68992
 C53 C 0.21801 0.71566 0.78322
 C54 C 0.28160 0.78537 0.71732
 C55 C 0.21801 0.78555 0.78244
 C56 C 0.28156 0.71551 0.71814
 C57 C 0.98696 0.07674 0.08269
 C58 C 1.01375 0.07733 0.07915
 C59 C 1.02154 0.05311 0.05226
 N60 N 1.00033 0.03791 0.03884
 C61 C 0.97914 0.05229 0.05723
 C62 C 1.04794 0.04542 0.04233
 C63 C 1.05608 0.02032 0.01701
 C64 C 1.08186 0.01149 0.01708
 C65 C 1.08186 -0.01380 -0.00905
 C66 C 1.05608 -0.01991 -0.02457
 N67 N 1.04054 0.00121 -0.00955
 C68 C 1.04795 -0.04481 -0.05096
 C69 C 1.02156 -0.05304 -0.05759
 C70 C 1.01377 -0.07777 -0.08146
 C71 C 0.98697 -0.07834 -0.07800
 C72 C 0.97915 -0.05384 -0.05273
 N73 N 1.00034 -0.03848 -0.04023
 C74 C 0.95275 -0.04599 -0.04372
 C75 C 0.94466 -0.02073 -0.01931
 C76 C 0.91899 -0.01162 -0.02097
 C77 C 0.91898 0.01366 0.00524
 C78 C 0.94466 0.01948 0.02238
 N79 N 0.96014 -0.00179 0.00822
 C80 C 0.95275 0.04421 0.04979
 H81 H 0.97467 0.09263 0.10156
 H82 H 1.02605 0.09373 0.09498
 H83 H 0.97966 -0.00402 0.02105
 H84 H 1.09893 0.02196 0.03529
 H85 H 1.09893 -0.02645 -0.01472
 H86 H 1.02608 -0.09385 -0.09926
 H87 H 0.97469 -0.09490 -0.09284
 H88 H 0.90198 0.02648 0.00997
 H89 H 1.02085 0.00316 -0.02079
 H90 H 0.90199 -0.02191 -0.04020
 C91 C 0.48661 0.57730 0.58248
 C92 C 0.51340 0.57783 0.57888
 C93 C 0.52115 0.55349 0.55262
 N94 N 0.49991 0.53826 0.53965
 C95 C 0.47875 0.55275 0.55769
 C96 C 0.54753 0.54568 0.54295
 C97 C 0.55560 0.52050 0.51803
 C98 C 0.58133 0.51152 0.51865
 C99 C 0.58128 0.48622 0.49259
 C100 C 0.55552 0.48025 0.47656
 N101 N 0.54004 0.50146 0.49121
 C102 C 0.54735 0.45540 0.44994
 C103 C 0.52094 0.44728 0.44305
 C104 C 0.51309 0.42266 0.41870
 C105 C 0.48629 0.42214 0.42222
 C106 C 0.47853 0.44656 0.44801
 N107 N 0.49976 0.46183 0.46076
 C108 C 0.45215 0.45442 0.45739
 C109 C 0.44409 0.47964 0.48211
 C110 C 0.41839 0.48869 0.48108
 C111 C 0.41844 0.51398 0.50722
 C112 C 0.44417 0.51987 0.52368
 N113 N 0.45964 0.49862 0.50920
 C114 C 0.45233 0.54466 0.55062
 H115 H 0.47435 0.59329 0.60095
 H116 H 0.52573 0.59428 0.59426
 H117 H 0.47922 0.49647 0.52138
 H118 H 0.59840 0.52190 0.53716
 H119 H 0.59830 0.47347 0.48728
 H120 H 0.52535 0.40661 0.40055
 H121 H 0.47397 0.40564 0.40709
 H122 H 0.40144 0.52677 0.51232
 H123 H 0.52041 0.50354 0.47942
 H124 H 0.40134 0.47836 0.46230
 C125 C 0.01290 0.57823 -0.07777
 C126 C -0.01389 0.57764 -0.08125
 C127 C -0.02167 0.55295 -0.05672
 N128 N -0.00046 0.53843 -0.03897
 C129 C 0.02073 0.55377 -0.05186
 C130 C -0.04807 0.54476 -0.04973
 C131 C -0.05616 0.51986 -0.02287
 C132 C -0.08189 0.51382 -0.00661
 C133 C -0.08186 0.48848 0.01966
 C134 C -0.05612 0.47955 0.01891
 N135 N -0.04062 0.49865 -0.00816
 C136 C -0.04798 0.45434 0.04395
 C137 C -0.02157 0.44656 0.05342
 C138 C -0.01375 0.42216 0.07968
 C139 C 0.01305 0.42273 0.08302
 C140 C 0.02084 0.44735 0.05811
 N141 N -0.00038 0.46184 0.04022
 C142 C 0.04723 0.45550 0.05079
 C143 C 0.05531 0.48036 0.02374
 C144 C 0.08101 0.48634 0.00708
 C145 C 0.08098 0.51170 -0.01906
 C146 C 0.05527 0.52070 -0.01787
 N147 N 0.03979 0.50162 0.00935
 C148 C 0.04714 0.54596 -0.04257
 H149 H 0.02518 0.59477 -0.09303
 H150 H -0.02620 0.59368 -0.09950
 H151 H 0.02021 0.50371 0.02165
 H152 H -0.09894 0.52654 -0.01189
 H153 H -0.09889 0.47805 0.03838
 H154 H -0.02603 0.40566 0.09521
 H155 H 0.02536 0.40672 0.10142
 H156 H 0.09800 0.52211 -0.03797
 H157 H -0.02101 0.49662 -0.02010
 H158 H 0.09804 0.47357 0.01207
 C159 C 0.48657 1.08109 0.44980
 C160 C 0.51345 1.08108 0.44993
 C161 C 0.52121 1.05459 0.45622
 N162 N 0.50003 1.03844 0.45974
 C163 C 0.47883 1.05461 0.45603
 C164 C 0.54743 1.04557 0.45452
 C165 C 0.55481 1.01898 0.46982
 C166 C 0.57904 1.00780 0.45559
 C167 C 0.57902 0.98240 0.48186
 C168 C 0.55479 0.97874 0.51143
 N169 N 0.54017 1.00115 0.50400
 C170 C 0.54739 0.95569 0.54747
 C171 C 0.52118 0.94994 0.56461
 C172 C 0.51342 0.92957 0.60679
 C173 C 0.48654 0.92959 0.60675
 C174 C 0.47880 0.94998 0.56454
 N175 N 0.50000 0.96234 0.53871
 C176 C 0.45260 0.95577 0.54727
 C177 C 0.44522 0.97882 0.51114
 C178 C 0.42103 0.98250 0.48134
 C179 C 0.42105 1.00789 0.45498
 C180 C 0.44524 1.01903 0.46940
 N181 N 0.45984 1.00121 0.50378
 C182 C 0.45263 1.04561 0.45410
 H183 H 0.47417 1.09859 0.44537
 H184 H 0.52584 1.09857 0.44562
 H185 H 0.47748 1.00520 0.52733
 H186 H 0.59513 1.01705 0.42934
 H187 H 0.59511 0.96829 0.47975
 H188 H 0.52581 0.91601 0.63446
 H189 H 0.47414 0.91606 0.63438
 H190 H 0.40499 1.01714 0.42853
 H191 H 0.52250 1.00515 0.52738
 H192 H 0.40496 0.96841 0.47911
 C193 C 1.16248 0.15542 0.15839
 C194 C 1.16275 0.16480 0.22323
 C195 C 1.18113 0.18397 0.24253
 C196 C 1.19950 0.19403 0.19710
 C197 C 1.19915 0.18435 0.13209
 C198 C 1.18075 0.16517 0.11292
 C199 C 1.14325 0.13604 0.13835
 C200 C 1.12699 0.11995 0.12158
 C201 C 1.10743 0.10091 0.10163
 C202 C 1.10158 0.09761 0.03475
 C203 C 1.08226 0.07944 0.01543
 C204 C 1.06863 0.06448 0.06289
 C205 C 1.07466 0.06769 0.12982
 C206 C 1.09397 0.08588 0.14910
 H207 H 1.14867 0.15739 0.25880
 H208 H 1.18086 0.19100 0.29291
 H209 H 1.21301 0.19167 0.09592
 H210 H 1.18070 0.15806 0.06258
 H211 H 1.11187 0.10915 -0.00235
 H212 H 1.07782 0.07709 -0.03638
 H213 H 1.06432 0.05620 0.16689
 H214 H 1.09834 0.08828 0.20094
 C215 C 0.66228 0.65561 0.65814
 C216 C 0.66254 0.66512 0.72287
 C217 C 0.68092 0.68431 0.74200
 C218 C 0.69931 0.69428 0.69650
 C219 C 0.69899 0.68447 0.63160
 C220 C 0.68058 0.66527 0.61261
 C221 C 0.64303 0.63623 0.63825
 C222 C 0.62675 0.62014 0.62162
 C223 C 0.60716 0.60111 0.60182
 C224 C 0.60148 0.59754 0.53494
 C225 C 0.58212 0.57939 0.51576
 C226 C 0.56827 0.56472 0.56337
 C227 C 0.57413 0.56818 0.63031
 C228 C 0.59349 0.58635 0.64944
 H229 H 0.64845 0.65779 0.75850
 H230 H 0.68064 0.69143 0.79230
 H231 H 0.71287 0.69172 0.59539
 H232 H 0.68054 0.65806 0.56235
 H233 H 0.61194 0.60886 0.49772
 H234 H 0.57780 0.57684 0.46395
 H235 H 0.56363 0.55691 0.66750
 H236 H 0.59773 0.58895 0.70129
 C237 C -0.16241 0.34380 0.15956
 C238 C -0.18063 0.33422 0.11391
 C239 C -0.19902 0.31493 0.13276
 C240 C -0.19939 0.30495 0.19765
 C241 C -0.18105 0.31481 0.24326
 C242 C -0.16269 0.33410 0.22427
 C243 C -0.14320 0.36332 0.13982
 C244 C -0.12698 0.37951 0.12322
 C245 C -0.10745 0.39866 0.10333
 C246 C -0.10197 0.40252 0.03639
 C247 C -0.08266 0.42076 0.01706
 C248 C -0.06867 0.43522 0.06457
 C249 C -0.07436 0.43147 0.13158
 C250 C -0.09366 0.41322 0.15087
 H251 H -0.18057 0.34158 0.06366
 H252 H -0.21285 0.30776 0.09645
 H253 H -0.18080 0.30755 0.29355
 H254 H -0.14865 0.34137 0.25999
 H255 H -0.11252 0.39137 -0.00077
 H256 H -0.07849 0.42353 -0.03481
 H257 H -0.06374 0.44258 0.16871
 H258 H -0.09775 0.41038 0.20277
 C259 C 0.33792 0.84477 0.65913
 C260 C 0.31968 0.83518 0.61351
 C261 C 0.30124 0.81596 0.63247
 C262 C 0.30083 0.80606 0.69743
 C263 C 0.31917 0.81595 0.74302
 C264 C 0.33758 0.83517 0.72392
 C265 C 0.35718 0.86420 0.63929
 C266 C 0.37346 0.88034 0.62270
 C267 C 0.39308 0.89942 0.60302
 C268 C 0.41285 0.89187 0.55899
 C269 C 0.43216 0.91025 0.54057
 C270 C 0.43190 0.93633 0.56618
 C271 C 0.41194 0.94387 0.60996
 C272 C 0.39262 0.92547 0.62832
 H273 H 0.31979 0.84247 0.56321
 H274 H 0.28741 0.80877 0.59620
 H275 H 0.31938 0.80875 0.79337
 H276 H 0.35163 0.84244 0.75962
 H277 H 0.41338 0.87178 0.53910
 H278 H 0.44735 0.90417 0.50651
 H279 H 0.41146 0.96392 0.63009
 H280 H 0.37741 0.93151 0.66239
 C281 C -0.16268 0.65603 -0.16131
 C282 C -0.18095 0.66555 -0.11569
 C283 C -0.19935 0.68488 -0.13442
 C284 C -0.19975 0.69505 -0.19931
 C285 C -0.18130 0.68513 -0.24487
 C286 C -0.16294 0.66581 -0.22590
 C287 C -0.14346 0.63647 -0.14167
 C288 C -0.12721 0.62024 -0.12527
 C289 C -0.10763 0.60103 -0.10577
 C290 C -0.10217 0.57898 -0.14597
 C291 C -0.08283 0.56058 -0.12755
 C292 C -0.06879 0.56414 -0.06885
 C293 C -0.07445 0.58614 -0.02843
 C294 C -0.09377 0.60454 -0.04690
 H295 H -0.18090 0.65812 -0.06551
 H296 H -0.21316 0.69190 -0.09782
 H297 H -0.18089 0.69235 -0.29521
 H298 H -0.14885 0.65858 -0.26161
 H299 H -0.11277 0.57609 -0.19160
 H300 H -0.07869 0.54364 -0.15908
 H301 H -0.06379 0.58906 0.01710
 H302 H -0.09784 0.62152 -0.01545
 C303 C 0.33781 1.15610 0.33880
 C304 C 0.33750 1.16594 0.27427
 C305 C 0.31903 1.18519 0.25544
 C306 C 0.30054 1.19496 0.30109
 C307 C 0.30100 1.18472 0.36592
 C308 C 0.31950 1.16547 0.38450
 C309 C 0.35713 1.13664 0.35834
 C310 C 0.37345 1.12048 0.37476
 C311 C 0.39308 1.10136 0.39436
 C312 C 0.41280 1.09390 0.35012
 C313 C 0.43212 1.07564 0.36942
 C314 C 0.43192 1.06475 0.43325
 C315 C 0.41202 1.07217 0.47731
 C316 C 0.39269 1.09041 0.45793
 H317 H 0.35161 1.15882 0.23851
 H318 H 0.31940 1.19247 0.20515
 H319 H 0.28716 1.19163 0.40258
 H320 H 0.31959 1.15798 0.43463
 H321 H 0.41328 1.10225 0.30083
 H322 H 0.44728 1.07003 0.33478
 H323 H 0.41160 1.06394 0.52671
 H324 H 0.37753 1.09607 0.49256
 C325 C 1.16267 -0.15576 -0.16173
 C326 C 1.16301 -0.16542 -0.22626
 C327 C 1.18139 -0.18473 -0.24494
 C328 C 1.19977 -0.19472 -0.19914
 C329 C 1.19929 -0.18466 -0.13432
 C330 C 1.18087 -0.16535 -0.11588
 C331 C 1.14340 -0.13626 -0.14235
 C332 C 1.12711 -0.12008 -0.12614
 C333 C 1.10751 -0.10095 -0.10681
 C334 C 1.10175 -0.07905 -0.14760
 C335 C 1.08240 -0.06069 -0.12926
 C336 C 1.06865 -0.06416 -0.07005
 C337 C 1.07459 -0.08600 -0.02906
 C338 C 1.09393 -0.10435 -0.04745
 H339 H 1.14898 -0.15813 -0.26213
 H340 H 1.18106 -0.19186 -0.29525
 H341 H 1.21304 -0.19174 -0.09755
 H342 H 1.18075 -0.15800 -0.06574
 H343 H 1.11214 -0.07624 -0.19362
 H344 H 1.07803 -0.04388 -0.16123
 H345 H 1.06416 -0.08884 0.01687
 H346 H 1.09824 -0.12121 -0.01554
 C347 C 0.66171 0.34404 0.33918
 C348 C 0.66204 0.33438 0.27458
 C349 C 0.68040 0.31505 0.25593
 C350 C 0.69868 0.30509 0.30177
 C351 C 0.69827 0.31504 0.36653
 C352 C 0.67989 0.33438 0.38504
 C353 C 0.64250 0.36360 0.35858
 C354 C 0.62628 0.37984 0.37485
 C355 C 0.60675 0.39905 0.39422
 C356 C 0.60127 0.42113 0.35376
 C357 C 0.58199 0.43956 0.37207
 C358 C 0.56801 0.43599 0.43093
 C359 C 0.57368 0.41397 0.47161
 C360 C 0.59296 0.39555 0.45324
 H361 H 0.64804 0.34171 0.23869
 H362 H 0.68019 0.30782 0.20572
 H363 H 0.71207 0.30781 0.40299
 H364 H 0.67979 0.34171 0.43520
 H365 H 0.61183 0.42402 0.30801
 H366 H 0.57783 0.45651 0.34035
 H367 H 0.56308 0.41105 0.51726
 H368 H 0.59705 0.37855 0.48489
 C369 C 0.83810 -0.15597 -0.15933
 C370 C 0.81979 -0.16563 -0.11384
 C371 C 0.80138 -0.18482 -0.13287
 C372 C 0.80107 -0.19463 -0.19776
 C373 C 0.81948 -0.18467 -0.24323
 C374 C 0.83787 -0.16548 -0.22407
 C375 C 0.85734 -0.13658 -0.13942
 C376 C 0.87361 -0.12049 -0.12276
 C377 C 0.89319 -0.10144 -0.10291
 C378 C 0.89840 -0.09741 -0.03595
 C379 C 0.91774 -0.07925 -0.01668
 C380 C 0.93204 -0.06504 -0.06427
 C381 C 0.92665 -0.06896 -0.13131
 C382 C 0.90731 -0.08714 -0.15054
 H383 H 0.81981 -0.15842 -0.06358
 H384 H 0.78749 -0.19206 -0.09668
 H385 H 0.81978 -0.19179 -0.29353
 H386 H 0.85197 -0.15815 -0.25966
 H387 H 0.88759 -0.10838 0.00127
 H388 H 0.92168 -0.07635 0.03521
 H389 H 0.93750 -0.05804 -0.16850
 H390 H 0.90344 -0.09011 -0.20245
 C391 C 0.33782 0.34409 0.34188
 C392 C 0.31960 0.33429 0.38739
 C393 C 0.30128 0.31501 0.36833
 C394 C 0.30098 0.30527 0.30337
 C395 C 0.31932 0.31537 0.25789
 C396 C 0.33761 0.33465 0.27709
 C397 C 0.35696 0.36358 0.36183
 C398 C 0.37314 0.37976 0.37851
 C399 C 0.39264 0.39889 0.39835
 C400 C 0.39802 0.40275 0.46529
 C401 C 0.41733 0.42095 0.48453
 C402 C 0.43141 0.43539 0.43692
 C403 C 0.42581 0.43166 0.36992
 C404 C 0.40652 0.41344 0.35072
 H405 H 0.31962 0.34145 0.43770
 H406 H 0.28745 0.30766 0.40453
 H407 H 0.31961 0.30831 0.20754
 H408 H 0.35165 0.34209 0.24147
 H409 H 0.38740 0.39159 0.50251
 H410 H 0.42143 0.42371 0.53639
 H411 H 0.43649 0.44276 0.33272
 H412 H 0.40250 0.41061 0.29883
 C413 C 0.16171 0.65626 -0.15853
 C414 C 0.16202 0.66588 -0.22331
 C415 C 0.18042 0.68510 -0.24243
 C416 C 0.19878 0.69498 -0.19688
 C417 C 0.19838 0.68508 -0.13192
 C418 C 0.17995 0.66585 -0.11294
 C419 C 0.14246 0.63682 -0.13866
 C420 C 0.12621 0.62067 -0.12198
 C421 C 0.10665 0.60157 -0.10204
 C422 C 0.09265 0.58723 -0.14958
 C423 C 0.07333 0.56900 -0.13025
 C424 C 0.06783 0.56507 -0.06320
 C425 C 0.08202 0.57933 -0.01569
 C426 C 0.10135 0.59753 -0.03506
 H427 H 0.14796 0.65861 -0.25899
 H428 H 0.18019 0.69230 -0.29278
 H429 H 0.21223 0.69225 -0.09565
 H430 H 0.17987 0.65856 -0.06263
 H431 H 0.09660 0.59020 -0.20150
 H432 H 0.06257 0.55805 -0.16738
 H433 H 0.07800 0.57641 0.03621
 H434 H 0.11207 0.60853 0.00209
 C435 C 0.66232 1.15586 0.33968
 C436 C 0.66270 1.16551 0.27497
 C437 C 0.68111 1.18475 0.25598
 C438 C 0.69949 1.19470 0.30163
 C439 C 0.69898 1.18465 0.36663
 C440 C 0.68052 1.16541 0.38538
 C441 C 0.64302 1.13643 0.35936
 C442 C 0.62670 1.12031 0.37578
 C443 C 0.60704 1.10124 0.39527
 C444 C 0.58733 1.09387 0.35094
 C445 C 0.56799 1.07565 0.37009
 C446 C 0.56815 1.06469 0.43386
 C447 C 0.58804 1.07202 0.47801
 C448 C 0.60740 1.09023 0.45879
 H449 H 0.64867 1.15825 0.23921
 H450 H 0.68079 1.19187 0.20555
 H451 H 0.71273 1.19170 0.40329
 H452 H 0.68039 1.15807 0.43564
 H453 H 0.58688 1.10226 0.30170
 H454 H 0.55284 1.07011 0.33536
 H455 H 0.58843 1.06375 0.52737
 H456 H 0.62255 1.09581 0.49348
 C457 C 0.16203 0.34423 0.16108
 C458 C 0.18029 0.33482 0.11527
 C459 C 0.19874 0.31550 0.13381
 C460 C 0.19913 0.30532 0.19852
 C461 C 0.18075 0.31502 0.24428
 C462 C 0.16233 0.33434 0.22561
 C463 C 0.14277 0.36379 0.14171
 C464 C 0.12649 0.38003 0.12553
 C465 C 0.10687 0.39922 0.10626
 C466 C 0.10159 0.42136 0.14631
 C467 C 0.08221 0.43976 0.12810
 C468 C 0.06796 0.43610 0.06975
 C469 C 0.07344 0.41401 0.02948
 C470 C 0.09280 0.39562 0.04774
 H471 H 0.18021 0.34232 0.06515
 H472 H 0.21261 0.30846 0.09740
 H473 H 0.18050 0.30761 0.29444
 H474 H 0.14825 0.34147 0.26144
 H475 H 0.11236 0.42433 0.19166
 H476 H 0.07821 0.45677 0.15949
 H477 H 0.06263 0.41102 -0.01579
 H478 H 0.09674 0.37857 0.01642
 C479 C 0.66214 0.84448 0.65906
 C480 C 0.68045 0.83500 0.61343
 C481 C 0.69888 0.81571 0.63221
 C482 C 0.69922 0.80562 0.69700
 C483 C 0.68081 0.81540 0.74261
 C484 C 0.66240 0.83469 0.72369
 C485 C 0.64286 0.86396 0.63937
 C486 C 0.62656 0.88012 0.62288
 C487 C 0.60692 0.89923 0.60327
 C488 C 0.60734 0.92527 0.62868
 C489 C 0.58801 0.94369 0.61033
 C490 C 0.56808 0.93621 0.56644
 C491 C 0.56786 0.91014 0.54075
 C492 C 0.58718 0.89173 0.55916
 H493 H 0.68040 0.84243 0.56325
 H494 H 0.71277 0.80862 0.59592
 H495 H 0.68053 0.80806 0.79284
 H496 H 0.64830 0.84188 0.75940
 H497 H 0.62253 0.93128 0.66282
 H498 H 0.58846 0.96373 0.63054
 H499 H 0.55268 0.90410 0.50661
 H500 H 0.58668 0.87165 0.53918
 C501 C 0.83779 0.15487 0.16092
 C502 C 0.83741 0.16446 0.22557
 C503 C 0.81896 0.18369 0.24432
 C504 C 0.80063 0.19360 0.19851
 C505 C 0.80109 0.18370 0.13371
 C506 C 0.81957 0.16447 0.11510
 C507 C 0.85712 0.13545 0.14144
 C508 C 0.87345 0.11933 0.12515
 C509 C 0.89311 0.10025 0.10577
 C510 C 0.89824 0.07782 0.14532
 C511 C 0.91761 0.05951 0.12694
 C512 C 0.93203 0.06354 0.06894
 C513 C 0.92672 0.08593 0.02919
 C514 C 0.90735 0.10424 0.04762
 H515 H 0.85145 0.15718 0.26142
 H516 H 0.81914 0.19088 0.29456
 H517 H 0.78727 0.19090 0.09727
 H518 H 0.81971 0.15719 0.06489
 H519 H 0.88733 0.07456 0.19040
 H520 H 0.92149 0.04227 0.15794
 H521 H 0.93766 0.08922 -0.01581
 H522 H 0.90354 0.12153 0.01669
 C523 C 0.33782 0.65587 0.66135
 C524 C 0.33750 0.66556 0.72591
 C525 C 0.31910 0.68486 0.74455
 C526 C 0.30077 0.69474 0.69874
 C527 C 0.30118 0.68475 0.63401
 C528 C 0.31960 0.66545 0.61550
 C529 C 0.35707 0.63635 0.64198
 C530 C 0.37332 0.62014 0.62576
 C531 C 0.39289 0.60096 0.60642
 C532 C 0.39818 0.57872 0.64649
 C533 C 0.41748 0.56031 0.62816
 C534 C 0.43166 0.56406 0.56968
 C535 C 0.42618 0.58626 0.52940
 C536 C 0.40689 0.60465 0.54778
 H537 H 0.35154 0.65829 0.76178
 H538 H 0.31933 0.69212 0.79473
 H539 H 0.28735 0.69193 0.59756
 H540 H 0.31970 0.65810 0.56537
 H541 H 0.38746 0.57567 0.69194
 H542 H 0.42149 0.54323 0.65957
 H543 H 0.43694 0.58932 0.48404
 H544 H 0.40295 0.62178 0.51645
   
