data_POSCAR
  _audit_creation_date              2014-09-24
  _audit_creation_method            'ToBaCCo'
  _symmetry_space_group_name_H-M    'P1'
  _symmetry_Int_Tables_number       1
  _symmetry_cell_setting            triclinic
  loop_
  _symmetry_equiv_pos_as_xyz
 x,y,z
_cell_length_a 23.1064
_cell_length_b 23.4849
_cell_length_c 23.7363
_cell_angle_alpha 90.338200
_cell_angle_beta 89.941300
_cell_angle_gamma 90.632600
loop_
  _atom_site_label
  _atom_site_type_symbol
  _atom_site_fract_x
  _atom_site_fract_y
  _atom_site_fract_z
N1 N 0.20786 0.21951 0.19934
 N2 N -0.19682 0.81447 0.20056
 N3 N -0.18020 0.17912 -0.19106
 N4 N 0.20665 0.78629 -0.20824
 N5 N 0.18432 1.19750 0.81993
 N6 N 0.80185 0.80233 0.78799
 N7 N 0.20543 0.79586 1.19402
 N8 N 0.80878 1.19203 1.20163
 N9 N 0.56992 1.09947 0.93186
 N10 N 0.61152 1.13591 0.91836
 N11 N 0.44043 1.06929 0.89633
 N12 N 0.38948 1.07600 0.87160
 N13 N 0.45005 1.11064 0.93282
 N14 N 0.40624 1.14569 0.93448
 N15 N 0.56224 1.06192 0.89126
 N16 N 0.59980 1.07022 0.85023
 C17 C 0.63034 1.11605 0.86798
 C18 C 0.36925 1.12443 0.89598
 N19 N 0.43962 0.90078 0.93043
 N20 N 0.39385 0.86674 0.92683
 N21 N 0.55694 0.94240 0.89083
 N22 N 0.60172 0.94101 0.85664
 N23 N 0.56188 0.90416 0.93078
 N24 N 0.60993 0.87442 0.92328
 N25 N 0.43472 0.94376 0.89559
 N26 N 0.38528 0.94025 0.86775
 Mn27 Mn 0.49747 1.00420 0.89277
 C28 C 0.36067 0.89157 0.88735
 C29 C 0.63406 0.89832 0.87648
 N30 N 0.44782 1.11174 1.05087
 N31 N 0.41281 1.15493 1.05797
 N32 N 0.55716 1.06193 1.09647
 N33 N 0.60000 1.06104 1.13293
 N34 N 0.56793 1.09900 1.05643
 N35 N 0.61783 1.12576 1.06587
 N36 N 0.43558 1.07062 1.08619
 N37 N 0.39155 1.08520 1.11891
 Mn38 Mn 0.51019 1.10559 0.99293
 C39 C 0.37765 1.13783 1.09989
 C40 C 0.63710 1.10116 1.11394
 N41 N 0.55784 0.90485 1.05665
 N42 N 0.60391 0.87377 1.06897
 N43 N 0.42877 0.94546 1.08476
 N44 N 0.37804 0.94244 1.11019
 N45 N 0.43565 0.90198 1.05025
 N46 N 0.38971 0.86807 1.05164
 N47 N 0.54877 0.94251 1.09674
 N48 N 0.58780 0.93875 1.13645
 Mn49 Mn 0.50000 0.90185 0.99204
 Mn50 Mn 0.49135 1.00513 1.09153
 Cl51 Cl 0.49999 1.00409 0.99227
 C52 C 0.62182 0.89614 1.11931
 C53 C 0.35454 0.89368 1.08930
 N54 N -0.12939 0.44434 0.06239
 N55 N -0.16837 0.40397 0.07142
 N56 N -0.08654 0.56319 0.09992
 N57 N -0.08723 0.61151 0.12868
 N58 N -0.12547 0.56372 0.05959
 N59 N -0.15282 0.61265 0.05916
 N60 N -0.08839 0.44297 0.10040
 N61 N -0.09759 0.40081 0.13594
 C62 C -0.14759 0.37707 0.11707
 C63 C -0.12927 0.64143 0.10305
 N64 N 0.07772 0.56342 0.06154
 N65 N 0.11751 0.60260 0.07343
 N66 N 0.03550 0.44252 0.10048
 N67 N 0.03886 0.39760 0.13327
 N68 N 0.07744 0.44296 0.06300
 N69 N 0.11123 0.39839 0.07019
 N70 N 0.03795 0.56182 0.10111
 N71 N 0.04998 0.59904 0.14125
 Mn72 Mn -0.02540 0.50252 0.10106
 C73 C 0.09899 0.62475 0.12299
 C74 C 0.08640 0.37072 0.11427
 N75 N -0.12691 0.55939 -0.06100
 N76 N -0.16589 0.59852 -0.07128
 N77 N -0.08744 0.43881 -0.09700
 N78 N -0.08796 0.38884 -0.12290
 N79 N -0.12756 0.44022 -0.05771
 N80 N -0.15584 0.39129 -0.05551
 N81 N -0.08640 0.55952 -0.09974
 N82 N -0.09609 0.59996 -0.13702
 Mn83 Mn -0.12785 0.50205 0.00078
 C84 C -0.14569 0.62394 -0.11823
 C85 C -0.13134 0.36014 -0.09687
 N86 N 0.07856 0.44190 -0.05940
 N87 N 0.11926 0.40461 -0.07095
 N88 N 0.03834 0.55901 -0.10021
 N89 N 0.05026 0.59491 -0.14111
 N90 N 0.07829 0.56186 -0.06082
 N91 N 0.11822 0.60053 -0.07396
 N92 N 0.03746 0.43935 -0.09762
 N93 N 0.04881 0.39963 -0.13568
 Mn94 Mn 0.07881 0.50272 0.00114
 Mn95 Mn -0.02464 0.49913 -0.09931
 Cl96 Cl -0.02452 0.50169 0.00083
 C97 C 0.09954 0.37784 -0.11789
 C98 C 0.09943 0.62125 -0.12388
 N99 N 0.96253 -0.10035 0.55148
 N100 N 0.95710 -0.13810 0.59182
 N101 N 0.92140 -0.05763 0.43629
 N102 N 0.87990 -0.07051 0.40003
 N103 N 0.96316 -0.09517 0.43312
 N104 N 0.95125 -0.13407 0.39417
 N105 N 0.92179 -0.06183 0.55517
 N106 N 0.88722 -0.07299 0.59863
 C107 C 0.91016 -0.12101 0.62091
 C108 C 0.89975 -0.11741 0.37318
 N109 N 0.96311 0.10516 0.44187
 N110 N 0.96018 0.13967 0.39871
 N111 N 0.92155 0.06257 0.55947
 N112 N 0.89127 0.06474 0.60688
 N113 N 0.96202 0.10236 0.55954
 N114 N 0.96076 0.13199 0.60668
 N115 N 0.92184 0.06620 0.43964
 N116 N 0.88958 0.07361 0.39400
 Mn117 Mn 0.92058 0.00244 0.49779
 C118 C 0.91422 0.12010 0.36931
 C119 C 0.91625 0.10880 0.63542
 N120 N 1.08877 -0.09244 0.43459
 N121 N 1.10035 -0.12740 0.39231
 N122 N 1.12630 -0.05745 0.55550
 N123 N 1.16605 -0.06827 0.59343
 N124 N 1.08710 -0.09823 0.55355
 N125 N 1.09881 -0.13780 0.59133
 N126 N 1.12877 -0.05247 0.43850
 N127 N 1.16870 -0.05910 0.39953
 Mn128 Mn 1.02529 -0.09718 0.49293
 C129 C 1.15027 -0.10565 0.37093
 C130 C 1.14817 -0.11797 0.61589
 N131 N 1.08574 0.10468 0.56130
 N132 N 1.08610 0.13302 0.60954
 N133 N 1.12829 0.06887 0.44393
 N134 N 1.16820 0.07916 0.40570
 N135 N 1.08771 0.10739 0.44242
 N136 N 1.09877 0.14505 0.40238
 N137 N 1.12429 0.06408 0.56204
 N138 N 1.15097 0.06289 0.61106
 Mn139 Mn 1.02444 0.10546 0.50104
 Mn140 Mn 1.12721 0.00589 0.50010
 Cl141 Cl 1.02418 0.00398 0.49786
 C142 C 1.12745 0.10679 0.63971
 C143 C 1.14925 0.12644 0.37995
 N144 N 1.23752 0.14147 0.32364
 N145 N 1.25313 0.16576 0.27606
 C146 C 1.20699 0.19250 0.25405
 C147 C 1.16034 0.18693 0.29109
 C148 C 1.18164 0.15306 0.33383
 H149 H 1.11684 0.20277 0.28752
 H150 H 1.26472 0.11648 0.34817
 H151 H 1.29482 0.16325 0.25939
 N152 N 0.81106 -0.17164 0.34780
 N153 N 0.78601 -0.19197 0.30183
 C154 C 0.82262 -0.18551 0.25809
 C155 C 0.87360 -0.16002 0.27710
 C156 C 0.86416 -0.15188 0.33438
 H157 H 0.90895 -0.14337 0.25196
 H158 H 0.79077 -0.16844 0.38702
 H159 H 0.74295 -0.20581 0.29971
 N160 N 0.94426 0.14685 0.72860
 N161 N 0.91899 0.16564 0.77481
 C162 C 0.86147 0.15764 0.76947
 C163 C 0.84942 0.13124 0.71816
 C164 C 0.90344 0.12583 0.69347
 H165 H 0.80759 0.12154 0.69981
 H166 H 0.98869 0.14981 0.72075
 H167 H 0.94098 0.18493 0.80839
 N168 N 1.23774 -0.13450 0.66955
 N169 N 1.25380 -0.16063 0.71586
 C170 C 1.20817 -0.19021 0.73602
 C171 C 1.16065 -0.18266 0.70110
 C172 C 1.18159 -0.14676 0.65949
 H173 H 1.11640 -0.19654 0.70795
 H174 H 1.26432 -0.10680 0.64661
 H175 H 1.29449 -0.15601 0.73455
 N176 N 0.33877 1.23274 1.12289
 N177 N 0.29358 1.25494 1.14856
 C178 C 0.25815 1.21215 1.16448
 C179 C 0.28237 1.16024 1.14968
 C180 C 0.33368 1.17553 1.12357
 H181 H 0.26589 1.11784 1.15822
 H182 H 0.37366 1.25647 1.10719
 H183 H 0.28950 1.29817 1.15779
 N184 N 0.25727 0.90604 0.86421
 N185 N 0.21401 0.87603 0.84249
 C186 C 0.23051 0.82148 0.83581
 C187 C 0.28699 0.81656 0.85512
 C188 C 0.30236 0.87135 0.87206
 H189 H 0.31557 0.78081 0.84926
 H190 H 0.25694 0.95014 0.87019
 H191 H 0.17611 0.89387 0.82683
 N192 N 0.69046 0.91489 1.19638
 N193 N 0.73876 0.89479 1.21728
 C194 C 0.75417 0.84907 1.18666
 C195 C 0.71359 0.83948 1.14389
 C196 C 0.67412 0.88286 1.15167
 H197 H 0.71191 0.80551 1.11295
 H198 H 0.66889 0.95006 1.21299
 H199 H 0.76031 0.91223 1.25209
 N200 N 0.67100 1.19740 0.81517
 N201 N 0.72215 1.21297 0.79551
 C202 C 0.75915 1.16946 0.80169
 C203 C 0.73012 1.12389 0.82575
 C204 C 0.67472 1.14376 0.83401
 H205 H 0.74874 1.08568 0.84301
 H206 H 0.63559 1.22438 0.81917
 H207 H 0.73305 1.25454 0.78383
 N208 N 0.07192 0.27651 0.15971
 N209 N 0.10396 0.23643 0.18242
 C210 C 0.16007 0.25209 0.17800
 C211 C 0.16396 0.30325 0.14889
 C212 C 0.10703 0.31741 0.13881
 H213 H 0.20174 0.32848 0.13862
 H214 H 0.02673 0.27550 0.15817
 H215 H 0.08730 0.19850 0.19876
 N216 N -0.17861 0.26869 -0.07203
 N217 N -0.18956 0.21912 -0.09636
 C218 C -0.16394 0.21849 -0.14737
 C219 C -0.13543 0.26986 -0.15614
 C220 C -0.14633 0.30046 -0.10740
 H221 H -0.11522 0.28494 -0.19449
 H222 H -0.19510 0.28122 -0.03294
 H223 H -0.21693 0.18781 -0.07966
 N224 N 0.13189 0.65401 -0.21725
 N225 N 0.16059 0.69701 -0.23976
 C226 C 0.17905 0.73195 -0.19812
 C227 C 0.16258 0.70937 -0.14627
 C228 C 0.13218 0.65994 -0.16083
 H229 H 0.16864 0.72776 -0.10476
 H230 H 0.11178 0.62144 -0.24042
 H231 H 0.16632 0.70232 -0.28305
 N232 N -0.15715 0.73924 0.07747
 N233 N -0.17353 0.78619 0.10343
 C234 C -0.17127 0.77739 0.15943
 C235 C -0.15080 0.72325 0.16985
 C236 C -0.14331 0.70040 0.11652
 H237 H -0.14726 0.70185 0.20994
 H238 H -0.15678 0.73360 0.03378
 H239 H -0.18753 0.82272 0.08287
 N240 N 1.15117 0.07681 0.73637
 N241 N 1.16409 0.10087 0.78513
 C242 C 1.16094 0.15784 0.77946
 C243 C 1.14359 0.17080 0.72518
 C244 C 1.13884 0.11796 0.69924
 H245 H 1.14029 0.21233 0.70600
 H246 H 1.15214 0.03301 0.72848
 H247 H 1.17702 0.07849 0.82078
 N248 N 0.91710 -0.19953 0.68822
 N249 N 0.88751 -0.22141 0.73430
 C250 C 0.84303 -0.18629 0.74676
 C251 C 0.84243 -0.14273 0.70595
 C252 C 0.88994 -0.15254 0.67102
 H253 H 0.80989 -0.11088 0.69886
 H254 H 0.95321 -0.21840 0.66970
 H255 H 0.89826 -0.26034 0.75184
 N256 N 1.23608 -0.11255 0.30898
 N257 N 1.25131 -0.13966 0.26256
 C258 C 1.20755 -0.17474 0.24719
 C259 C 1.16213 -0.16954 0.28499
 C260 C 1.18233 -0.12970 0.32352
 H261 H 1.11949 -0.18895 0.28281
 H262 H 1.26168 -0.08190 0.32945
 H263 H 1.29029 -0.13292 0.24119
 N264 N 0.93056 0.18782 0.29259
 N265 N 0.90169 0.20866 0.24595
 C266 C 0.85174 0.17859 0.23970
 C267 C 0.84751 0.13920 0.28408
 C268 C 0.89775 0.14662 0.31571
 H269 H 0.81079 0.11278 0.29561
 H270 H 0.96992 0.20399 0.30770
 H271 H 0.91781 0.24277 0.22290
 N272 N 0.18996 0.34585 -0.16309
 N273 N 0.21210 0.29784 -0.18197
 C274 C 0.17070 0.25701 -0.18116
 C275 C 0.11953 0.28019 -0.16113
 C276 C 0.13400 0.33673 -0.14997
 H277 H 0.08033 0.25768 -0.14919
 H278 H 0.21380 0.38329 -0.15613
 H279 H 0.25596 0.29206 -0.19072
 N280 N -0.22991 0.32998 0.16583
 N281 N -0.24090 0.28026 0.18952
 C282 C -0.19443 0.24668 0.18226
 C283 C -0.15230 0.27600 0.15217
 C284 C -0.17639 0.32867 0.14356
 H285 H -0.11102 0.26105 0.13681
 H286 H -0.25798 0.36454 0.16636
 H287 H -0.27877 0.27036 0.21162
 N288 N -0.23233 0.66370 -0.16438
 N289 N -0.24699 0.71422 -0.19117
 C290 C -0.20026 0.74903 -0.18889
 C291 C -0.15535 0.72210 -0.16092
 C292 C -0.17698 0.66879 -0.14734
 H293 H -0.11280 0.73918 -0.15114
 H294 H -0.25943 0.62809 -0.16023
 H295 H -0.28594 0.72134 -0.21212
 N296 N 0.13290 0.66385 0.21398
 N297 N 0.16195 0.70857 0.23303
 C298 C 0.17838 0.74062 0.18876
 C299 C 0.16057 0.71433 0.13904
 C300 C 0.13133 0.66600 0.15738
 H301 H 0.16513 0.72967 0.09634
 H302 H 0.11415 0.63260 0.23951
 H303 H 0.16956 0.71672 0.27566
 N304 N 0.28863 1.18476 0.92743
 N305 N 0.23922 1.20390 0.90785
 C306 C 0.22977 1.18006 0.85703
 C307 C 0.27510 1.14398 0.84333
 C308 C 0.31152 1.14858 0.88933
 H309 H 0.28256 1.12129 0.80422
 H310 H 0.30700 1.19758 0.96573
 H311 H 0.21357 1.23400 0.92829
 N312 N 0.25039 0.90720 1.10821
 N313 N 0.20849 0.87889 1.13389
 C314 C 0.22716 0.82623 1.14622
 C315 C 0.28330 0.82049 1.12653
 C316 C 0.29644 0.87306 1.10344
 H317 H 0.31335 0.78703 1.13657
 H318 H 0.24888 0.95043 1.09824
 H319 H 0.17037 0.89742 1.14846
 N320 N 0.72393 1.07234 1.16739
 N321 N 0.76929 1.09643 1.19202
 C322 C 0.76696 1.15338 1.18429
 C323 C 0.71908 1.16489 1.15005
 C324 C 0.69282 1.11259 1.14161
 H325 H 0.70441 1.20507 1.13368
 H326 H 0.71542 1.02862 1.16692
 H327 H 0.80231 1.07296 1.21026
 N328 N 0.72453 0.92429 0.82625
 N329 N 0.76852 0.89906 0.80122
 C330 C 0.76252 0.84205 0.80710
 C331 C 0.71362 0.83161 0.84109
 C332 C 0.69050 0.88478 0.85093
 H333 H 0.69568 0.79168 0.85566
 H334 H 0.71848 0.96831 0.82713
 H335 H 0.80347 0.92171 0.78449
   
