data_POSCAR
  _audit_creation_date              2014-09-24
  _audit_creation_method            'ToBaCCo'
  _symmetry_space_group_name_H-M    'P1'
  _symmetry_Int_Tables_number       1
  _symmetry_cell_setting            triclinic
  loop_
  _symmetry_equiv_pos_as_xyz
 x,y,z
_cell_length_a 40.1406
_cell_length_b 39.8581
_cell_length_c 40.2457
_cell_angle_alpha 91.142000
_cell_angle_beta 91.294800
_cell_angle_gamma 89.919900
loop_
  _atom_site_label
  _atom_site_type_symbol
  _atom_site_fract_x
  _atom_site_fract_y
  _atom_site_fract_z
N1 N 0.29846 0.21782 0.21281
 N2 N 0.28764 0.24641 0.20090
 C3 C 0.30924 0.25689 0.17803
 C4 C 0.33489 0.23354 0.17610
 C5 C 0.32724 0.20934 0.19856
 H6 H 0.30683 0.27994 0.16445
 H7 H 0.34166 0.18713 0.20415
 Cu8 Cu 0.24700 0.26770 0.21767
 Cu9 Cu 0.27465 0.19379 0.24581
 Cu10 Cu 0.21296 0.23090 0.28698
 N11 N 0.20606 0.28469 0.23912
 N12 N 0.19337 0.27071 0.26552
 C13 C 0.16533 0.28718 0.27372
 C14 C 0.16004 0.31272 0.25160
 C15 C 0.18636 0.31052 0.22994
 H16 H 0.14955 0.28088 0.29411
 H17 H 0.19066 0.32622 0.20888
 N18 N 0.23612 0.19141 0.30413
 N19 N 0.26006 0.17676 0.28747
 C20 C 0.27131 0.15002 0.30412
 C21 C 0.25351 0.14763 0.33282
 C22 C 0.23128 0.17432 0.33220
 H23 H 0.29105 0.13350 0.29600
 H24 H 0.21283 0.18065 0.35046
 H25 H 0.22393 0.22624 0.23685
 H26 H 0.25523 0.24855 0.26428
 N27 N 0.69782 -0.23807 0.21522
 N28 N 0.71130 -0.25999 0.19473
 C29 C 0.69184 -0.26291 0.16708
 C30 C 0.66478 -0.24150 0.17067
 C31 C 0.66944 -0.22626 0.20146
 H32 H 0.69701 -0.27936 0.14615
 H33 H 0.65350 -0.20758 0.21281
 Cu34 Cu 0.75271 -0.28290 0.20638
 Cu35 Cu 0.71875 -0.22471 0.25722
 Cu36 Cu 0.79633 -0.25867 0.27538
 N37 N 0.79090 -0.30833 0.22292
 N38 N 0.80810 -0.29854 0.24954
 C39 C 0.83381 -0.31972 0.25449
 C40 C 0.83249 -0.34435 0.22963
 C41 C 0.80489 -0.33635 0.21016
 H42 H 0.85193 -0.31718 0.27467
 H43 H 0.79596 -0.34974 0.18808
 N44 N 0.77426 -0.22572 0.30470
 N45 N 0.74420 -0.21382 0.29815
 C46 C 0.73594 -0.19171 0.32224
 C47 C 0.76205 -0.18954 0.34516
 C48 C 0.78591 -0.21151 0.33334
 H49 H 0.71303 -0.17748 0.32241
 H50 H 0.81020 -0.21621 0.34447
 H51 H 0.76601 -0.23323 0.24122
 H52 H 0.74701 -0.26805 0.26480
 N53 N 0.68966 0.22059 0.79532
 N54 N 0.70059 0.24863 0.80934
 C55 C 0.68243 0.25541 0.83650
 C56 C 0.65899 0.23013 0.83926
 C57 C 0.66425 0.20867 0.81271
 H58 H 0.68563 0.27723 0.85262
 H59 H 0.65051 0.18599 0.80653
 Cu60 Cu 0.73685 0.27336 0.78960
 Cu61 Cu 0.70912 0.20105 0.75598
 Cu62 Cu 0.77383 0.24368 0.72011
 N63 N 0.77309 0.29740 0.76926
 N64 N 0.78747 0.28587 0.74226
 C65 C 0.81176 0.30729 0.73394
 C66 C 0.81254 0.33365 0.75704
 C67 C 0.78765 0.32651 0.77894
 H68 H 0.82768 0.30371 0.71284
 H69 H 0.78090 0.34145 0.80049
 N70 N 0.75594 0.20046 0.70196
 N71 N 0.73142 0.18453 0.71621
 C72 C 0.72511 0.15570 0.69949
 C73 C 0.74637 0.15312 0.67334
 C74 C 0.76574 0.18195 0.67536
 H75 H 0.70645 0.13753 0.70583
 H76 H 0.78566 0.18862 0.65912
 H77 H 0.75655 0.22234 0.76221
 H78 H 0.72587 0.24579 0.73586
 N79 N 0.30099 -0.24307 0.77916
 N80 N 0.28758 -0.26468 0.79916
 C81 C 0.30666 -0.26643 0.82710
 C82 C 0.33335 -0.24468 0.82414
 C83 C 0.32893 -0.23042 0.79345
 H84 H 0.30170 -0.28251 0.84772
 H85 H 0.34500 -0.21226 0.78225
 Cu86 Cu 0.24689 -0.28855 0.78573
 Cu87 Cu 0.28219 -0.23357 0.73558
 Cu88 Cu 0.20155 -0.26168 0.72035
 N89 N 0.20793 -0.31337 0.76897
 N90 N 0.18994 -0.30224 0.74378
 C91 C 0.16351 -0.32251 0.73840
 C92 C 0.16519 -0.34805 0.76133
 C93 C 0.19377 -0.34148 0.78023
 H94 H 0.14470 -0.31878 0.71916
 H95 H 0.20316 -0.35578 0.80101
 N96 N 0.22297 -0.22766 0.69308
 N97 N 0.25387 -0.21750 0.69884
 C98 C 0.26129 -0.19347 0.67728
 C99 C 0.23376 -0.18832 0.65672
 C100 C 0.20996 -0.21051 0.66731
 H101 H 0.28479 -0.18029 0.67719
 H102 H 0.18481 -0.21335 0.65743
 H103 H 0.23538 -0.23836 0.75361
 H104 H 0.24977 -0.27437 0.72722
 N105 N 0.69417 -0.23785 0.78861
 N106 N 0.71028 -0.26530 0.79692
 C107 C 0.69506 -0.27943 0.82259
 C108 C 0.66789 -0.26006 0.83076
 C109 C 0.66795 -0.23375 0.80871
 H110 H 0.70320 -0.30202 0.83482
 H111 H 0.65077 -0.21287 0.80780
 Cu112 Cu 0.74975 -0.27994 0.77378
 Cu113 Cu 0.70958 -0.20905 0.75316
 Cu114 Cu 0.78104 -0.23490 0.71250
 N115 N 0.78925 -0.29458 0.75061
 N116 N 0.80164 -0.27662 0.72682
 C117 C 0.82890 -0.29213 0.71507
 C118 C 0.83373 -0.32144 0.73229
 C119 C 0.80808 -0.32223 0.75475
 H120 H 0.84403 -0.28291 0.69531
 H121 H 0.80347 -0.34130 0.77278
 N122 N 0.75669 -0.19349 0.70150
 N123 N 0.72945 -0.18358 0.71670
 C124 C 0.71870 -0.15475 0.70305
 C125 C 0.74012 -0.14624 0.67812
 C126 C 0.76391 -0.17138 0.67787
 H127 H 0.69670 -0.14104 0.71037
 H128 H 0.78480 -0.17362 0.66153
 H129 H 0.73297 -0.24641 0.72615
 H130 H 0.75909 -0.22233 0.75716
 N131 N 0.29932 0.25257 0.80022
 N132 N 0.28301 0.27720 0.81480
 C133 C 0.29925 0.28674 0.84290
 C134 C 0.32732 0.26719 0.84639
 C135 C 0.32679 0.24559 0.81886
 H136 H 0.29135 0.30666 0.85959
 H137 H 0.34476 0.22627 0.81294
 Cu138 Cu 0.24264 0.29586 0.79606
 Cu139 Cu 0.28255 0.23145 0.75861
 Cu140 Cu 0.20975 0.26593 0.72504
 N141 N 0.21208 0.32250 0.76972
 N142 N 0.19905 0.31053 0.74174
 C143 C 0.17683 0.33267 0.72964
 C144 C 0.17608 0.36012 0.75129
 C145 C 0.19885 0.35287 0.77636
 H146 H 0.16176 0.32846 0.70735
 H147 H 0.20435 0.36795 0.79845
 N148 N 0.23259 0.22739 0.70491
 N149 N 0.26042 0.21419 0.71700
 C150 C 0.26925 0.18819 0.69701
 C151 C 0.24579 0.18532 0.67124
 C152 C 0.22313 0.21053 0.67707
 H153 H 0.29092 0.17253 0.70097
 H154 H 0.20123 0.21611 0.66203
 H155 H 0.25796 0.27381 0.74183
 H156 H 0.23382 0.24263 0.76530
 N157 N 0.30857 -0.23484 0.20972
 N158 N 0.29214 -0.26217 0.20069
 C159 C 0.30669 -0.27647 0.17415
 C160 C 0.33373 -0.25728 0.16610
 C161 C 0.33434 -0.23095 0.18919
 H162 H 0.29817 -0.29906 0.16125
 H163 H 0.35170 -0.21023 0.19059
 Cu164 Cu 0.25297 -0.27637 0.22392
 Cu165 Cu 0.29422 -0.20602 0.24680
 Cu166 Cu 0.22371 -0.23168 0.28811
 N167 N 0.21379 -0.29058 0.24719
 N168 N 0.20236 -0.27293 0.27239
 C169 C 0.17494 -0.28795 0.28371
 C170 C 0.16888 -0.31648 0.26453
 C171 C 0.19405 -0.31744 0.24157
 H172 H 0.16032 -0.27871 0.30420
 H173 H 0.19764 -0.33610 0.22212
 N174 N 0.24862 -0.19072 0.30046
 N175 N 0.27538 -0.18067 0.28496
 C176 C 0.28641 -0.15191 0.29969
 C177 C 0.26566 -0.14370 0.32563
 C178 C 0.24199 -0.16886 0.32531
 H179 H 0.30809 -0.13804 0.29236
 H180 H 0.22141 -0.17118 0.34193
 H181 H 0.27131 -0.24329 0.27246
 H182 H 0.24453 -0.21873 0.24331
 N183 N 0.70670 0.25048 0.21830
 N184 N 0.72304 0.27612 0.20660
 C185 C 0.70501 0.28987 0.18184
 C186 C 0.67588 0.27190 0.17747
 C187 C 0.67766 0.24690 0.20100
 H188 H 0.71288 0.31086 0.16733
 H189 H 0.65973 0.22718 0.20476
 Cu190 Cu 0.76764 0.28777 0.22246
 Cu191 Cu 0.72602 0.22317 0.25399
 Cu192 Cu 0.78815 0.26543 0.29942
 N193 N 0.80981 0.30131 0.24314
 N194 N 0.81797 0.29195 0.27335
 C195 C 0.84753 0.30553 0.28243
 C196 C 0.85838 0.32456 0.25655
 C197 C 0.83388 0.32132 0.23189
 H198 H 0.85972 0.30256 0.30644
 H199 H 0.83335 0.33290 0.20783
 N200 N 0.76458 0.22640 0.31605
 N201 N 0.74198 0.20911 0.29861
 C202 C 0.73330 0.18206 0.31617
 C203 C 0.75151 0.18270 0.34592
 C204 C 0.77093 0.21104 0.34488
 H205 H 0.71578 0.16303 0.30762
 H206 H 0.78946 0.21911 0.36327
 H207 H 0.74244 0.26699 0.27274
 H208 H 0.77596 0.23879 0.25696
 C209 C 0.21750 -0.01235 0.41931
 C210 C 0.21645 0.02202 0.42173
 C211 C 0.23322 0.03102 0.45107
 N212 N 0.24425 0.00331 0.46672
 C213 C 0.23455 -0.02321 0.44740
 C214 C 0.24004 0.06434 0.46191
 C215 C 0.25376 0.07251 0.49367
 C216 C 0.26839 0.10303 0.50233
 C217 C 0.27741 0.10151 0.53541
 C218 C 0.26773 0.07022 0.54621
 N219 N 0.25338 0.05267 0.52055
 C220 C 0.27054 0.05948 0.57951
 C221 C 0.26728 0.02563 0.58859
 C222 C 0.26564 0.01474 0.62100
 C223 C 0.26372 -0.01958 0.61924
 C224 C 0.26439 -0.02856 0.58581
 N225 N 0.26670 -0.00089 0.56710
 C226 C 0.26464 -0.06191 0.57334
 C227 C 0.26311 -0.07031 0.53905
 C228 C 0.27186 -0.10128 0.52554
 C229 C 0.26568 -0.09979 0.49190
 C230 C 0.25329 -0.06795 0.48573
 N231 N 0.25172 -0.05016 0.51464
 C232 C 0.24197 -0.05704 0.45425
 H233 H 0.20674 -0.02759 0.39929
 H234 H 0.20476 0.03846 0.40384
 H235 H 0.24012 -0.02708 0.51807
 H236 H 0.27228 0.12418 0.48642
 H237 H 0.28953 0.12136 0.54987
 H238 H 0.26573 0.02991 0.64360
 H239 H 0.26212 -0.03602 0.64022
 H240 H 0.26968 -0.11996 0.47402
 H241 H 0.24066 0.03009 0.52210
 H242 H 0.28169 -0.12278 0.53853
 C243 C 0.79025 -0.01218 0.58789
 C244 C 0.79163 0.02210 0.58543
 C245 C 0.77352 0.03025 0.55696
 N246 N 0.76131 0.00211 0.54190
 C247 C 0.77163 -0.02384 0.56069
 C248 C 0.76642 0.06326 0.54655
 C249 C 0.75087 0.07035 0.51562
 C250 C 0.73567 0.10060 0.50808
 C251 C 0.72466 0.09801 0.47557
 C252 C 0.73377 0.06640 0.46394
 N253 N 0.74963 0.04960 0.48860
 C254 C 0.72918 0.05471 0.43067
 C255 C 0.73061 0.02038 0.42151
 C256 C 0.72998 0.00800 0.38908
 C257 C 0.73063 -0.02629 0.39095
 C258 C 0.73158 -0.03376 0.42447
 N259 N 0.73139 -0.00518 0.44312
 C260 C 0.73112 -0.06655 0.43713
 C261 C 0.73498 -0.07366 0.47128
 C262 C 0.72707 -0.10404 0.48533
 C263 C 0.73609 -0.10150 0.51843
 C264 C 0.74927 -0.06963 0.52372
 N265 N 0.74854 -0.05285 0.49481
 C266 C 0.76337 -0.05781 0.55424
 H267 H 0.80174 -0.02686 0.60738
 H268 H 0.80434 0.03907 0.60277
 H269 H 0.76009 -0.03010 0.49051
 H270 H 0.73267 0.12228 0.52435
 H271 H 0.71156 0.11735 0.46202
 H272 H 0.72923 0.02213 0.36638
 H273 H 0.73037 -0.04371 0.36997
 H274 H 0.73351 -0.12104 0.53649
 H275 H 0.76224 0.02691 0.48608
 H276 H 0.71609 -0.12588 0.47302
 C277 C 0.40301 0.23154 -0.01968
 C278 C 0.39809 0.23667 0.01367
 C279 C 0.42773 0.24920 0.02707
 N280 N 0.45040 0.25242 0.00304
 C281 C 0.43531 0.24177 -0.02563
 C282 C 0.43300 0.25876 0.06070
 C283 C 0.46519 0.26360 0.07517
 C284 C 0.47169 0.27753 0.10655
 C285 C 0.50537 0.27430 0.11272
 C286 C 0.51864 0.25928 0.08465
 N287 N 0.49406 0.25276 0.06192
 C288 C 0.55254 0.25094 0.08108
 C289 C 0.56712 0.24636 0.04962
 C290 C 0.59964 0.23611 0.04433
 C291 C 0.60454 0.23789 0.01077
 C292 C 0.57465 0.24845 -0.00337
 N293 N 0.55188 0.25381 0.02038
 C294 C 0.56916 0.25420 -0.03750
 C295 C 0.53690 0.25737 -0.05215
 C296 C 0.53020 0.26855 -0.08409
 C297 C 0.49657 0.26456 -0.09004
 C298 C 0.48351 0.25181 -0.06135
 N299 N 0.50820 0.24738 -0.03841
 C300 C 0.44966 0.24376 -0.05731
 H301 H 0.38471 0.22176 -0.03747
 H302 H 0.37542 0.23140 0.02665
 H303 H 0.50601 0.23475 -0.01620
 H304 H 0.45400 0.28845 0.12353
 H305 H 0.51864 0.28236 0.13519
 H306 H 0.61811 0.22846 0.06265
 H307 H 0.62735 0.23172 -0.00183
 H308 H 0.48319 0.27074 -0.11276
 H309 H 0.49648 0.23824 0.04035
 H310 H 0.54770 0.27825 -0.10155
 C311 C 0.59741 0.76866 -0.03232
 C312 C 0.60321 0.76527 0.00118
 C313 C 0.57386 0.75357 0.01418
 N314 N 0.55057 0.74908 -0.01024
 C315 C 0.56493 0.75818 -0.03876
 C316 C 0.56944 0.74587 0.04783
 C317 C 0.53760 0.74200 0.06180
 C318 C 0.53177 0.72942 0.09308
 C319 C 0.49829 0.73329 0.09865
 C320 C 0.48445 0.74729 0.07032
 N321 N 0.50847 0.75258 0.04800
 C322 C 0.45057 0.75594 0.06615
 C323 C 0.43514 0.75861 0.03437
 C324 C 0.40259 0.76886 0.02821
 C325 C 0.39679 0.76493 -0.00537
 C326 C 0.42621 0.75316 -0.01869
 N327 N 0.44954 0.74911 0.00561
 C328 C 0.43065 0.74499 -0.05254
 C329 C 0.46250 0.74109 -0.06668
 C330 C 0.46836 0.72814 -0.09832
 C331 C 0.50183 0.73196 -0.10379
 C332 C 0.51566 0.74630 -0.07507
 N333 N 0.49161 0.75187 -0.05260
 C334 C 0.54956 0.75491 -0.07064
 H335 H 0.61526 0.77758 -0.04983
 H336 H 0.62624 0.77117 0.01453
 H337 H 0.49442 0.76571 -0.03053
 H338 H 0.54974 0.71892 0.11041
 H339 H 0.48551 0.72624 0.12086
 H340 H 0.38469 0.77794 0.04595
 H341 H 0.37372 0.77053 -0.01857
 H342 H 0.51461 0.72461 -0.12619
 H343 H 0.50562 0.76619 0.02632
 H344 H 0.45041 0.71741 -0.11592
 C345 C -0.00739 0.40161 0.20269
 C346 C 0.02674 0.40012 0.20170
 C347 C 0.03850 0.43014 0.21531
 N348 N 0.01277 0.44974 0.22490
 C349 C -0.01533 0.43238 0.21713
 C350 C 0.07250 0.43869 0.21959
 C351 C 0.08349 0.47153 0.22785
 C352 C 0.11587 0.47973 0.23765
 C353 C 0.11711 0.51405 0.24108
 C354 C 0.08542 0.52592 0.23340
 N355 N 0.06507 0.49988 0.22532
 C356 C 0.07679 0.56022 0.23204
 C357 C 0.04352 0.57194 0.23181
 C358 C 0.03379 0.60486 0.22653
 C359 C -0.00005 0.60599 0.23029
 C360 C -0.00997 0.57365 0.23722
 N361 N 0.01669 0.55291 0.23834
 C362 C -0.04299 0.56412 0.24368
 C363 C -0.05329 0.53020 0.24457
 C364 C -0.08333 0.51937 0.25691
 C365 C -0.08483 0.48529 0.25115
 C366 C -0.05548 0.47613 0.23582
 N367 N -0.03644 0.50363 0.23181
 C368 C -0.04792 0.44329 0.22448
 H369 H -0.02437 0.38221 0.19376
 H370 H 0.04119 0.37943 0.19182
 H371 H -0.01505 0.50463 0.21781
 H372 H 0.13660 0.46278 0.24163
 H373 H 0.13893 0.52864 0.24827
 H374 H 0.04934 0.62594 0.22055
 H375 H -0.01564 0.62802 0.22777
 H376 H -0.10519 0.46906 0.25761
 H377 H 0.04128 0.50174 0.21483
 H378 H -0.10236 0.53441 0.26868
 C379 C -0.03742 0.59398 0.76783
 C380 C -0.00367 0.59721 0.76444
 C381 C 0.00710 0.56810 0.74867
 N382 N -0.01892 0.54731 0.74204
 C383 C -0.04622 0.56315 0.75363
 C384 C 0.04003 0.56218 0.73857
 C385 C 0.05106 0.53046 0.72690
 C386 C 0.08022 0.52486 0.70978
 C387 C 0.08255 0.49082 0.70425
 C388 C 0.05467 0.47657 0.71794
 N389 N 0.03563 0.50085 0.73179
 C390 C 0.04832 0.44176 0.71880
 C391 C 0.01648 0.42816 0.72407
 C392 C 0.01002 0.39431 0.72797
 C393 C -0.02383 0.39122 0.73024
 C394 C -0.03696 0.42328 0.72783
 N395 N -0.01229 0.44585 0.72393
 C396 C -0.07132 0.43086 0.72744
 C397 C -0.08369 0.46413 0.72939
 C398 C -0.11616 0.47350 0.72153
 C399 C -0.11837 0.50746 0.72779
 C400 C -0.08715 0.51800 0.73914
 N401 N -0.06619 0.49141 0.74023
 C402 C -0.07925 0.55128 0.74925
 H403 H -0.05363 0.61242 0.77916
 H404 H 0.01125 0.61857 0.77256
 H405 H -0.04237 0.49137 0.75091
 H406 H 0.09802 0.54331 0.70199
 H407 H 0.10248 0.47804 0.69146
 H408 H 0.02779 0.37389 0.72895
 H409 H -0.03722 0.36799 0.73332
 H410 H -0.14045 0.52269 0.72415
 H411 H 0.01522 0.49699 0.74672
 H412 H -0.13621 0.45763 0.71207
 C413 C 0.36494 0.23303 0.15588
 C414 C 0.36910 0.25226 0.12956
 C415 C 0.39948 0.24846 0.10998
 C416 C 0.40307 0.26405 0.08125
 H417 H 0.34995 0.26988 0.12198
 H418 H 0.41910 0.23189 0.11879
 H419 H 0.38398 0.21479 0.16230
 H420 H 0.38273 0.27898 0.07127
 C421 C 0.63791 0.76439 0.14893
 C422 C 0.63430 0.74943 0.11905
 C423 C 0.60456 0.75609 0.09816
 C424 C 0.59990 0.74060 0.06871
 H425 H 0.65277 0.73181 0.11009
 H426 H 0.58580 0.77340 0.10720
 H427 H 0.61899 0.78200 0.15709
 H428 H 0.61937 0.72461 0.05887
 C429 C 0.63265 0.22607 -0.13636
 C430 C 0.63028 0.24482 -0.10869
 C431 C 0.60208 0.23980 -0.08663
 C432 C 0.59883 0.25772 -0.05854
 H433 H 0.64856 0.26409 -0.10261
 H434 H 0.58297 0.22168 -0.09390
 H435 H 0.61438 0.20653 -0.14153
 H436 H 0.61860 0.27457 -0.05016
 C437 C 0.36168 0.76207 -0.15284
 C438 C 0.36536 0.74757 -0.12337
 C439 C 0.39525 0.75439 -0.10249
 C440 C 0.40015 0.73927 -0.07349
 H441 H 0.34683 0.73015 -0.11493
 H442 H 0.41392 0.77158 -0.11117
 H443 H 0.38058 0.77936 -0.16086
 H444 H 0.38077 0.72343 -0.06395
 C445 C 0.13165 0.33630 0.25195
 C446 C 0.12820 0.36151 0.23074
 C447 C 0.09990 0.38503 0.23315
 C448 C 0.09849 0.41257 0.21479
 H449 H 0.14670 0.36545 0.21203
 H450 H 0.08072 0.38063 0.25110
 H451 H 0.11317 0.33301 0.27085
 H452 H 0.11872 0.41799 0.19832
 C453 C 0.14329 0.62508 0.76530
 C454 C 0.11481 0.62155 0.74758
 C455 C 0.09282 0.59239 0.75156
 C456 C 0.06260 0.59158 0.73689
 H457 H 0.10731 0.64026 0.72975
 H458 H 0.10142 0.57130 0.76607
 H459 H 0.14971 0.60660 0.78380
 H460 H 0.05347 0.61344 0.72390
 C461 C -0.14597 0.62859 0.22406
 C462 C -0.11856 0.62302 0.24273
 C463 C -0.09620 0.59461 0.23524
 C464 C -0.06706 0.59134 0.25160
 H465 H -0.11197 0.63972 0.26339
 H466 H -0.10318 0.57662 0.21576
 H467 H -0.15167 0.61176 0.20321
 H468 H -0.05935 0.61046 0.26970
 C469 C -0.16645 0.36164 0.75935
 C470 C -0.14206 0.36747 0.73807
 C471 C -0.12048 0.39728 0.74244
 C472 C -0.09492 0.40232 0.72240
 H473 H -0.13755 0.35019 0.71755
 H474 H -0.12502 0.41497 0.76265
 H475 H -0.17016 0.37928 0.77981
 H476 H -0.08950 0.38373 0.70324
 C477 C 0.25790 0.12104 0.35733
 C478 C 0.24204 0.12062 0.38609
 C479 C 0.24762 0.09270 0.40892
 C480 C 0.23380 0.09231 0.43875
 H481 H 0.22506 0.14066 0.39279
 H482 H 0.26348 0.07200 0.40130
 H483 H 0.27518 0.10097 0.35135
 H484 H 0.21949 0.11374 0.44735
 C485 C 0.74681 0.12433 0.64997
 C486 C 0.76393 0.12312 0.62197
 C487 C 0.76054 0.09332 0.59993
 C488 C 0.77337 0.09209 0.56966
 H489 H 0.77926 0.14406 0.61492
 H490 H 0.74592 0.07225 0.60809
 H491 H 0.73104 0.10327 0.65582
 H492 H 0.78604 0.11387 0.56037
 C493 C 0.22968 -0.16360 0.63013
 C494 C 0.25251 -0.13993 0.62518
 C495 C 0.24788 -0.11459 0.59944
 C496 C 0.26928 -0.08907 0.59765
 H497 H 0.27478 -0.13852 0.64082
 H498 H 0.22663 -0.11626 0.58236
 H499 H 0.20707 -0.16440 0.61490
 H500 H 0.28952 -0.08666 0.61585
 C501 C 0.76536 -0.16682 0.37443
 C502 C 0.74167 -0.14458 0.38220
 C503 C 0.74652 -0.11970 0.40931
 C504 C 0.72479 -0.09458 0.41313
 H505 H 0.71879 -0.14349 0.36750
 H506 H 0.76874 -0.12076 0.42509
 H507 H 0.78835 -0.16749 0.38906
 H508 H 0.70356 -0.09259 0.39613
 C509 C 0.64567 0.73352 -0.14141
 C510 C 0.61777 0.75085 -0.13593
 C511 C 0.59775 0.74393 -0.10658
 C512 C 0.56924 0.76020 -0.10096
 H513 H 0.60992 0.77042 -0.15270
 H514 H 0.60676 0.72571 -0.08884
 H515 H 0.65273 0.71356 -0.12472
 H516 H 0.55917 0.77694 -0.11957
 C517 C 0.35117 0.27014 -0.12542
 C518 C 0.37897 0.25197 -0.12238
 C519 C 0.40051 0.25669 -0.09253
 C520 C 0.42846 0.23906 -0.08782
 H521 H 0.38556 0.23368 -0.14140
 H522 H 0.39320 0.27490 -0.07366
 H523 H 0.34531 0.28843 -0.10609
 H524 H 0.43705 0.22222 -0.10730
 C525 C 0.35532 0.73605 0.13759
 C526 C 0.38308 0.75328 0.13205
 C527 C 0.40261 0.74590 0.10219
 C528 C 0.43104 0.76200 0.09664
 H529 H 0.39121 0.77305 0.14923
 H530 H 0.39343 0.72732 0.08418
 H531 H 0.34787 0.71601 0.12039
 H532 H 0.44127 0.77912 0.11549
 C533 C 0.65086 0.27772 0.15084
 C534 C 0.62306 0.25967 0.14647
 C535 C 0.60117 0.26525 0.11719
 C536 C 0.57331 0.24751 0.11185
 H537 H 0.61706 0.24004 0.16357
 H538 H 0.60852 0.28336 0.09897
 H539 H 0.65624 0.29729 0.13341
 H540 H 0.56481 0.23071 0.13073
 C541 C -0.14060 0.65541 0.72736
 C542 C -0.13774 0.62694 0.74430
 C543 C -0.10974 0.60386 0.73865
 C544 C -0.10738 0.57483 0.75460
 H545 H -0.15589 0.62045 0.76260
 H546 H -0.09064 0.61068 0.72139
 H547 H -0.12230 0.66099 0.70884
 H548 H -0.12734 0.56711 0.77047
 C549 C -0.11117 0.34505 0.25682
 C550 C -0.10675 0.36949 0.23518
 C551 C -0.07715 0.39111 0.23754
 C552 C -0.07604 0.41945 0.22051
 H553 H -0.12576 0.37468 0.21644
 H554 H -0.05662 0.38459 0.25418
 H555 H -0.09270 0.34101 0.27641
 H556 H -0.09754 0.42705 0.20568
 C557 C 0.15364 0.38932 0.75063
 C558 C 0.12871 0.39192 0.72832
 C559 C 0.10402 0.41897 0.73113
 C560 C 0.07597 0.41795 0.71270
 H561 H 0.12516 0.37291 0.70897
 H562 H 0.10760 0.43862 0.74991
 H563 H 0.15657 0.40823 0.77021
 H564 H 0.07167 0.39718 0.69532
 C565 C 0.14097 0.66001 0.26800
 C566 C 0.13681 0.63332 0.24781
 C567 C 0.10843 0.61049 0.25098
 C568 C 0.10455 0.58447 0.22986
 H569 H 0.15430 0.62825 0.22825
 H570 H 0.09066 0.61485 0.27052
 H571 H 0.12325 0.66505 0.28742
 H572 H 0.12337 0.57937 0.21149
 C573 C 0.73705 -0.11704 0.65615
 C574 C 0.75768 -0.11217 0.63100
 C575 C 0.75300 -0.08411 0.60800
 C576 C 0.77044 -0.08296 0.58013
 H577 H 0.77770 -0.12976 0.62638
 H578 H 0.73416 -0.06523 0.61289
 H579 H 0.71672 -0.09963 0.66025
 H580 H 0.78784 -0.10293 0.57430
 C581 C 0.26886 -0.11468 0.34893
 C582 C 0.24934 -0.11111 0.37531
 C583 C 0.25330 -0.08299 0.39935
 C584 C 0.23670 -0.08304 0.42780
 H585 H 0.23050 -0.12972 0.38001
 H586 H 0.27054 -0.06284 0.39450
 H587 H 0.28818 -0.09638 0.34474
 H588 H 0.22104 -0.10426 0.43335
 C589 C 0.75334 0.15823 0.37280
 C590 C 0.73511 0.13029 0.37349
 C591 C 0.74056 0.10671 0.40082
 C592 C 0.72196 0.07926 0.40401
 H593 H 0.71684 0.12461 0.35398
 H594 H 0.76078 0.11163 0.41857
 H595 H 0.77122 0.16341 0.39285
 H596 H 0.70258 0.07354 0.38559
 C597 C 0.24343 0.16117 0.64314
 C598 C 0.26428 0.13542 0.63888
 C599 C 0.25890 0.11184 0.61062
 C600 C 0.27784 0.08458 0.60652
 H601 H 0.28472 0.13135 0.65638
 H602 H 0.23839 0.11629 0.59324
 H603 H 0.22297 0.16452 0.62544
 H604 H 0.29724 0.07906 0.62478
   
