data_POSCAR
  _audit_creation_date              2014-09-24
  _audit_creation_method            'ToBaCCo'
  _symmetry_space_group_name_H-M    'P1'
  _symmetry_Int_Tables_number       1
  _symmetry_cell_setting            triclinic
  loop_
  _symmetry_equiv_pos_as_xyz
 x,y,z
_cell_length_a 19.3826
_cell_length_b 19.4241
_cell_length_c 19.6745
_cell_angle_alpha 91.226900
_cell_angle_beta 87.987200
_cell_angle_gamma 89.116900
loop_
  _atom_site_label
  _atom_site_type_symbol
  _atom_site_fract_x
  _atom_site_fract_y
  _atom_site_fract_z
C1 C 1.22345 0.18686 0.20448
 C2 C 1.26202 0.24098 0.16412
 C3 C 1.29453 0.28778 0.20350
 C4 C 1.28438 0.27675 0.28051
 C5 C 1.27747 0.15443 0.24971
 C6 C 1.30904 0.20169 0.29030
 C7 C 1.17405 0.22637 0.25328
 C8 C 1.20526 0.27393 0.29209
 H9 H 1.26668 0.23964 0.10908
 H10 H 1.31000 0.31529 0.31317
 H11 H 1.28478 0.09936 0.25412
 H12 H 1.11940 0.21593 0.25846
 C13 C 0.72929 -0.30783 0.20192
 C14 C 0.77628 -0.26246 0.15996
 C15 C 0.81415 -0.21885 0.19745
 C16 C 0.80277 -0.22432 0.27433
 C17 C 0.77642 -0.34447 0.25057
 C18 C 0.81392 -0.30034 0.28951
 C19 C 0.68538 -0.25721 0.24792
 C20 C 0.72497 -0.21381 0.28602
 H21 H 0.77838 -0.26379 0.10484
 H22 H 0.83437 -0.18875 0.30484
 H23 H 0.77455 -0.39944 0.25829
 H24 H 0.62970 -0.25903 0.25357
 C25 C 0.70282 0.19761 -0.28424
 C26 C 0.74899 0.23359 -0.33058
 C27 C 0.79076 0.28333 -0.29712
 C28 C 0.77909 0.28630 -0.22006
 C29 C 0.74573 0.16538 -0.23483
 C30 C 0.78828 0.21175 -0.19888
 C31 C 0.66139 0.24996 -0.24693
 C32 C 0.70147 0.29881 -0.21032
 H33 H 0.74907 0.22628 -0.38535
 H34 H 0.81145 0.32380 -0.19270
 H35 H 0.74508 0.11054 -0.22553
 H36 H 0.60555 0.24839 -0.24225
 C37 C 1.21090 -0.28952 -0.30554
 C38 C 1.27561 -0.26147 -0.34017
 C39 C 1.32072 -0.23306 -0.29639
 C40 C 1.29713 -0.23553 -0.22157
 C41 C 1.23743 -0.34075 -0.25300
 C42 C 1.28305 -0.31200 -0.20983
 C43 C 1.18040 -0.22947 -0.26338
 C44 C 1.22482 -0.20198 -0.21811
 H45 H 1.28250 -0.25908 -0.39495
 H46 H 1.33348 -0.21155 -0.18603
 H47 H 1.22220 -0.39402 -0.25018
 H48 H 1.12598 -0.21603 -0.26364
 C49 C 0.20794 0.22250 0.79496
 C50 C 0.25069 0.26731 0.83578
 C51 C 0.29622 0.30889 0.79577
 C52 C 0.28831 0.29782 0.71900
 C53 C 0.16940 0.27037 0.74808
 C54 C 0.21130 0.30929 0.70788
 C55 C 0.25785 0.18048 0.74685
 C56 C 0.29982 0.22069 0.70719
 H57 H 0.24127 0.27636 0.89001
 H58 H 0.32262 0.32987 0.68661
 H59 H 0.11379 0.26995 0.74433
 H60 H 0.25785 0.12481 0.74290
 C61 C 0.69579 0.71233 0.79799
 C62 C 0.73410 0.75105 0.84721
 C63 C 0.78415 0.79544 0.81799
 C64 C 0.78898 0.79040 0.73972
 C65 C 0.66559 0.76206 0.75299
 C66 C 0.71451 0.80564 0.71976
 C67 C 0.74597 0.67227 0.75695
 C68 C 0.79789 0.71215 0.72366
 H69 H 0.72443 0.74824 0.90169
 H70 H 0.82851 0.82325 0.71498
 H71 H 0.61105 0.76325 0.74249
 H72 H 0.74207 0.61706 0.74913
 C73 C 0.69579 0.21318 0.28424
 C74 C 0.73665 0.26023 0.32972
 C75 C 0.78046 0.30178 0.29596
 C76 C 0.77905 0.29423 0.21788
 C77 C 0.65860 0.26136 0.23674
 C78 C 0.70177 0.30406 0.20177
 C79 C 0.74993 0.17411 0.23864
 C80 C 0.79384 0.21664 0.20372
 H81 H 0.73116 0.26076 0.38473
 H82 H 0.81440 0.32909 0.18999
 H83 H 0.60322 0.26127 0.23120
 H84 H 0.75106 0.11861 0.23226
 C85 C 0.20421 0.71967 0.31306
 C86 C 0.23868 0.77921 0.34924
 C87 C 0.27256 0.82228 0.30631
 C88 C 0.27044 0.80155 0.23176
 C89 C 0.15742 0.75412 0.26090
 C90 C 0.19365 0.79761 0.21937
 C91 C 0.26163 0.68387 0.27061
 C92 C 0.29581 0.72650 0.22743
 H93 H 0.23924 0.78488 0.40412
 H94 H 0.29911 0.83633 0.19712
 H95 H 0.10203 0.74833 0.25963
 H96 H 0.26947 0.62854 0.27005
 O97 O 1.12326 0.05189 0.07865
 O98 O 0.85916 -0.06217 0.02829
 O99 O 0.93553 0.13220 0.05087
 O100 O 1.06528 -0.14964 0.03375
 O101 O 0.89834 0.03567 0.08008
 O102 O 1.10823 -0.06734 0.08719
 O103 O 0.94624 -0.11196 0.07235
 O104 O 1.06315 0.13632 0.03923
 C105 C 1.10695 0.11366 0.07859
 C106 C 0.88262 -0.10155 0.07210
 C107 C 0.90141 0.09756 0.09248
 C108 C 1.09286 -0.12833 0.08486
 O109 O 1.13639 -0.08385 -0.05208
 O110 O 0.83661 0.06130 -0.03107
 O111 O 1.06237 0.10932 -0.09100
 O112 O 0.91716 -0.12079 -0.05964
 O113 O 0.90948 -0.02182 -0.09891
 O114 O 1.14808 0.04634 -0.05302
 O115 O 1.03880 -0.12417 -0.08877
 O116 O 0.93031 0.10233 -0.08353
 Co117 Co 1.11832 -0.01348 0.01296
 Co118 Co 0.90868 0.00916 -0.00832
 Co119 Co 0.99845 0.10754 -0.01950
 Co120 Co 0.99281 -0.11433 -0.00885
 O121 O 1.00912 -0.00531 -0.00311
 C122 C 1.10258 -0.11747 -0.09561
 C123 C 0.86432 0.10410 -0.07449
 C124 C 1.12577 0.09250 -0.09129
 C125 C 0.89960 -0.08421 -0.10669
 O126 O 1.10300 0.53181 0.58595
 O127 O 0.88417 0.42833 0.57978
 O128 O 0.94537 0.60540 0.59665
 O129 O 1.03294 0.37169 0.57196
 O130 O 0.85791 0.54867 0.56331
 O131 O 1.12777 0.42140 0.54704
 O132 O 0.92591 0.34510 0.52085
 O133 O 1.06357 0.62815 0.55630
 C134 C 1.09802 0.59370 0.59672
 C135 C 0.89002 0.36555 0.57066
 C136 C 0.88401 0.58959 0.60503
 C137 C 1.09285 0.38410 0.58610
 O138 O 1.11731 0.46816 0.41317
 O139 O 0.87200 0.52395 0.42664
 O140 O 1.01720 0.61996 0.42694
 O141 O 0.97918 0.38086 0.39890
 O142 O 0.87801 0.40914 0.43829
 O143 O 1.11632 0.58294 0.45481
 O144 O 1.09312 0.36948 0.44737
 O145 O 0.90018 0.61985 0.46984
 Co146 Co 1.10498 0.50009 0.49992
 Co147 Co 0.88437 0.47873 0.50264
 Co148 Co 0.98316 0.60566 0.51123
 Co149 Co 1.00661 0.38044 0.48630
 O150 O 0.99465 0.49176 0.49989
 C151 C 1.12287 0.40561 0.40465
 C152 C 0.87418 0.58630 0.42264
 C153 C 1.07974 0.61730 0.41568
 C154 C 0.91606 0.38410 0.39065
 O155 O 0.64043 0.07032 0.54881
 O156 O 0.37631 -0.07444 0.54943
 O157 O 0.42964 0.13200 0.54754
 O158 O 0.58577 -0.13797 0.54682
 O159 O 0.39362 0.03677 0.58344
 O160 O 0.62853 -0.04686 0.58583
 O161 O 0.46735 -0.11667 0.59072
 O162 O 0.54489 0.11594 0.58442
 C163 C 0.60486 0.09859 0.59609
 C164 C 0.40376 -0.10834 0.59407
 C165 C 0.39657 0.09898 0.59158
 C166 C 0.61503 -0.10813 0.59347
 O167 O 0.64093 -0.09152 0.45025
 O168 O 0.38380 0.07797 0.45266
 O169 O 0.59449 0.12296 0.45314
 O170 O 0.42926 -0.13439 0.46117
 O171 O 0.39672 -0.04163 0.41614
 O172 O 0.63513 0.02567 0.41722
 O173 O 0.54255 -0.12734 0.42046
 O174 O 0.47987 0.11199 0.41380
 Co175 Co 0.62469 -0.01023 0.50092
 Co176 Co 0.39997 -0.00052 0.49993
 Co177 Co 0.51196 0.10879 0.49971
 Co178 Co 0.50677 -0.11637 0.50498
 O179 O 0.51114 -0.00445 0.50121
 C180 C 0.60493 -0.12403 0.40873
 C181 C 0.41793 0.10325 0.40518
 C182 C 0.62911 0.08822 0.40934
 C183 C 0.39939 -0.10531 0.41529
 O184 O 0.62624 0.57369 0.05447
 O185 O 0.34466 0.44157 0.03316
 O186 O 0.41805 0.64294 0.06540
 O187 O 0.54844 0.36940 0.03812
 O188 O 0.37401 0.54670 0.09007
 O189 O 0.60636 0.45359 0.07850
 O190 O 0.43139 0.39401 0.07376
 O191 O 0.53111 0.61530 0.09610
 C192 C 0.59367 0.60705 0.10119
 C193 C 0.36861 0.40358 0.07649
 C194 C 0.38379 0.60708 0.10591
 C195 C 0.58899 0.39243 0.08105
 O196 O 0.61442 0.42026 -0.05476
 O197 O 0.36505 0.60956 -0.03227
 O198 O 0.57906 0.63424 -0.03398
 O199 O 0.39782 0.39637 -0.06509
 O200 O 0.37322 0.50065 -0.08664
 O201 O 0.61338 0.54136 -0.08247
 O202 O 0.51608 0.39413 -0.09259
 O203 O 0.46318 0.63785 -0.06992
 Co204 Co 0.60288 0.49909 -0.00102
 Co205 Co 0.37718 0.52336 0.00158
 Co206 Co 0.49659 0.62169 0.01286
 Co207 Co 0.47446 0.40037 -0.00971
 O208 O 0.48834 0.51092 0.00098
 C209 C 0.57925 0.39237 -0.09956
 C210 C 0.40070 0.63709 -0.07735
 C211 C 0.60113 0.60358 -0.08682
 C212 C 0.37334 0.43977 -0.10449
 N213 N 1.18810 0.13848 0.16098
 N214 N 1.14026 0.15978 0.12346
 N215 N 1.16236 0.68422 0.64504
 N216 N 1.14037 0.62312 0.64730
 N217 N 0.66426 0.15025 0.68534
 N218 N 0.62906 0.10284 0.66358
 N219 N 0.69286 0.64497 0.15696
 N220 N 0.62769 0.64636 0.15215
 N221 N 0.85816 -0.17030 0.16598
 N222 N 0.83751 -0.14060 0.11338
 N223 N 0.83373 0.32682 0.67032
 N224 N 0.84853 0.31841 0.60737
 N225 N 0.37575 -0.19125 0.67923
 N226 N 0.35902 -0.14848 0.63480
 N227 N 0.33899 0.33792 0.17375
 N228 N 0.32393 0.36170 0.11628
 N229 N 0.82908 0.19193 -0.14823
 N230 N 0.82142 0.13237 -0.12399
 N231 N 0.84920 0.67817 0.34828
 N232 N 0.84258 0.61638 0.36636
 N233 N 0.35074 0.18237 0.34597
 N234 N 0.38467 0.12565 0.34558
 N235 N 0.31394 0.65068 -0.15678
 N236 N 0.37047 0.67079 -0.13279
 N237 N 1.20047 -0.16018 -0.16121
 N238 N 1.13567 -0.15236 -0.15197
 N239 N 1.16633 0.31010 0.34439
 N240 N 1.16618 0.37520 0.35175
 N241 N 0.69829 -0.16902 0.33973
 N242 N 0.63396 -0.16440 0.35323
 N243 N 0.67465 0.34391 -0.16275
 N244 N 0.60978 0.35038 -0.15298
 N245 N 1.15853 0.18192 -0.16491
 N246 N 1.17505 0.12753 -0.13391
 N247 N 1.17278 0.67284 0.36181
 N248 N 1.10871 0.66073 0.36488
 N249 N 0.64894 0.17117 0.32523
 N250 N 0.67155 0.12114 0.35924
 N251 N 0.64752 0.67253 -0.17334
 N252 N 0.60094 0.63555 -0.15158
 N253 N 0.82174 -0.16389 -0.14128
 N254 N 0.85930 -0.11364 -0.15931
 N255 N 0.81972 0.34911 0.33434
 N256 N 0.88521 0.34667 0.33648
 N257 N 0.31685 -0.12624 0.33096
 N258 N 0.35729 -0.14682 0.37534
 N259 N 0.32015 0.36444 -0.18207
 N260 N 0.34128 0.42189 -0.16649
 N261 N 1.16464 -0.15800 0.17122
 N262 N 1.11507 -0.17503 0.13457
 N263 N 1.18610 0.34974 0.65369
 N264 N 1.12226 0.34890 0.64107
 N265 N 0.69792 -0.15096 0.66931
 N266 N 0.63589 -0.14677 0.65033
 N267 N 0.67715 0.35266 0.15349
 N268 N 0.61739 0.34627 0.12907
 N269 N 0.84441 0.19164 0.15317
 N270 N 0.85843 0.12745 0.14658
 N271 N 0.84359 0.68469 0.67578
 N272 N 0.84054 0.62122 0.65772
 N273 N 0.34640 0.19450 0.65426
 N274 N 0.35482 0.13008 0.64523
 N275 N 0.33997 0.70093 0.17279
 N276 N 0.34655 0.63635 0.16286
   
