data_POSCAR
  _audit_creation_date              2014-09-24
  _audit_creation_method            'ToBaCCo'
  _symmetry_space_group_name_H-M    'P1'
  _symmetry_Int_Tables_number       1
  _symmetry_cell_setting            triclinic
  loop_
  _symmetry_equiv_pos_as_xyz
 x,y,z
_cell_length_a 56.6694
_cell_length_b 56.8605
_cell_length_c 21.9026
_cell_angle_alpha 90.028800
_cell_angle_beta 90.002200
_cell_angle_gamma 119.911600
loop_
  _atom_site_label
  _atom_site_type_symbol
  _atom_site_fract_x
  _atom_site_fract_y
  _atom_site_fract_z
C1 C 0.20114 0.50460 0.44444
 C2 C 0.18913 0.50463 0.50008
 C3 C 0.20131 0.50461 0.55549
 C4 C 0.22624 0.50457 0.55595
 C5 C 0.23861 0.50446 0.49968
 C6 C 0.22601 0.50443 0.44361
 C7 C 0.23860 0.50420 0.38840
 C8 C 0.26309 0.50408 0.38822
 C9 C 0.27594 0.50421 0.44320
 C10 C 0.26361 0.50438 0.49948
 C11 C 0.23911 0.50461 0.61096
 C12 C 0.26367 0.50460 0.61075
 C13 C 0.27629 0.50449 0.55552
 C14 C 0.30127 0.50454 0.55451
 C15 C 0.31314 0.50436 0.49877
 C16 C 0.30084 0.50419 0.44351
 H17 H 0.22957 0.50411 0.34476
 H18 H 0.27191 0.50391 0.34449
 H19 H 0.23028 0.50469 0.65475
 H20 H 0.27272 0.50466 0.65435
 H21 H 0.16992 0.50459 0.50026
 H22 H 0.33233 0.50439 0.49826
 C23 C 0.49592 -0.20277 0.44449
 C24 C 0.49597 -0.19064 0.49993
 C25 C 0.49602 -0.20263 0.55546
 C26 C 0.49616 -0.22740 0.55616
 C27 C 0.49608 -0.23995 0.50006
 C28 C 0.49594 -0.22760 0.44389
 C29 C 0.49583 -0.24036 0.38881
 C30 C 0.49582 -0.26486 0.38882
 C31 C 0.49596 -0.27749 0.44396
 C32 C 0.49614 -0.26489 0.50012
 C33 C 0.49639 -0.23991 0.61129
 C34 C 0.49650 -0.26434 0.61142
 C35 C 0.49635 -0.27720 0.55637
 C36 C 0.49639 -0.30205 0.55585
 C37 C 0.49615 -0.31427 0.50036
 C38 C 0.49588 -0.30240 0.44473
 H39 H 0.49571 -0.23150 0.34514
 H40 H 0.49572 -0.27385 0.34514
 H41 H 0.49650 -0.23088 0.65490
 H42 H 0.49668 -0.27311 0.65516
 H43 H 0.49603 -0.17151 0.49985
 H44 H 0.49612 -0.33341 0.50046
 C45 C 1.20045 0.70026 0.44564
 C46 C 1.18832 0.68825 0.50106
 C47 C 1.20042 0.70019 0.55667
 C48 C 1.22526 0.72511 0.55740
 C49 C 1.23765 0.73765 0.50119
 C50 C 1.22524 0.72512 0.44502
 C51 C 1.23798 0.73764 0.38988
 C52 C 1.26248 0.76211 0.38979
 C53 C 1.27514 0.77496 0.44486
 C54 C 1.26264 0.76260 0.50113
 C55 C 1.23811 0.73772 0.61249
 C56 C 1.26262 0.76219 0.61245
 C57 C 1.27522 0.77499 0.55731
 C58 C 1.30016 0.79979 0.55656
 C59 C 1.31211 0.81188 0.50098
 C60 C 1.30008 0.79977 0.44545
 H61 H 1.22909 0.72857 0.34627
 H62 H 1.27147 0.77090 0.34607
 H63 H 1.22928 0.72871 0.65617
 H64 H 1.27168 0.77103 0.65612
 H65 H 1.16928 0.66905 0.50077
 H66 H 1.33134 0.83091 0.50093
 C67 C 0.69845 0.49828 0.44570
 C68 C 0.68630 0.49818 0.50123
 C69 C 0.69851 0.49831 0.55679
 C70 C 0.72354 0.49843 0.55729
 C71 C 0.73609 0.49861 0.50106
 C72 C 0.72350 0.49855 0.44501
 C73 C 0.73630 0.49881 0.38981
 C74 C 0.76099 0.49906 0.38960
 C75 C 0.77379 0.49905 0.44457
 C76 C 0.76126 0.49885 0.50085
 C77 C 0.73639 0.49843 0.61230
 C78 C 0.76105 0.49861 0.61209
 C79 C 0.77384 0.49882 0.55687
 C80 C 0.79887 0.49896 0.55591
 C81 C 0.81101 0.49924 0.50017
 C82 C 0.79878 0.49922 0.44485
 H83 H 0.72731 0.49881 0.34620
 H84 H 0.76997 0.49926 0.34585
 H85 H 0.72743 0.49825 0.65610
 H86 H 0.77005 0.49860 0.65571
 H87 H 0.66710 0.49811 0.50107
 H88 H 0.83023 0.49934 0.49967
 C89 C 0.49701 0.19955 0.55706
 C90 C 0.49682 0.18735 0.50162
 C91 C 0.49697 0.19944 0.44607
 C92 C 0.49698 0.22426 0.44528
 C93 C 0.49685 0.23670 0.50136
 C94 C 0.49698 0.22436 0.55758
 C95 C 0.49726 0.23722 0.61263
 C96 C 0.49729 0.26171 0.61252
 C97 C 0.49705 0.27426 0.55732
 C98 C 0.49689 0.26166 0.50122
 C99 C 0.49732 0.23703 0.39009
 C100 C 0.49738 0.26154 0.38993
 C101 C 0.49708 0.27414 0.44496
 C102 C 0.49716 0.29899 0.44536
 C103 C 0.49701 0.31107 0.50073
 C104 C 0.49713 0.29917 0.55643
 H105 H 0.49748 0.22842 0.65631
 H106 H 0.49752 0.27078 0.65617
 H107 H 0.49759 0.22818 0.34650
 H108 H 0.49770 0.27058 0.34620
 H109 H 0.49693 0.16831 0.50168
 H110 H 0.49719 0.33027 0.50032
 C111 C 0.69959 0.20073 0.44537
 C112 C 0.68737 0.18861 0.50076
 C113 C 0.69938 0.20057 0.55644
 C114 C 0.72434 0.22533 0.55737
 C115 C 0.73693 0.23787 0.50142
 C116 C 0.72449 0.22555 0.44511
 C117 C 0.73729 0.23833 0.39018
 C118 C 0.76184 0.26279 0.39048
 C119 C 0.77451 0.27534 0.44574
 C120 C 0.76199 0.26278 0.50176
 C121 C 0.73703 0.23783 0.61264
 C122 C 0.76163 0.26224 0.61301
 C123 C 0.77446 0.27510 0.55809
 C124 C 0.79942 0.29996 0.55774
 C125 C 0.81149 0.31209 0.50222
 C126 C 0.79936 0.30017 0.44661
 H127 H 0.72838 0.22952 0.34640
 H128 H 0.77084 0.27180 0.34692
 H129 H 0.72803 0.22880 0.65617
 H130 H 0.77052 0.27099 0.65684
 H131 H 0.66827 0.16952 0.50052
 H132 H 0.83062 0.33119 0.50218
 O133 O 1.03675 0.55864 0.11307
 O134 O 1.06715 0.55329 0.05370
 C135 C 1.06120 0.56469 0.09764
 O136 O 0.96135 0.43874 0.10737
 O137 O 0.93100 0.44535 0.05076
 C138 C 0.93686 0.43277 0.09208
 O139 O 1.03743 0.47939 0.11359
 O140 O 1.06752 0.51471 0.05325
 C141 C 1.06183 0.49759 0.09746
 O142 O 0.96084 0.52267 0.10746
 O143 O 0.93085 0.48543 0.05149
 C144 C 0.93648 0.50401 0.09235
 Zr145 Zr 0.99897 0.52936 0.07566
 O146 O 0.99611 0.52955 0.17198
 O147 O 1.00173 0.56786 0.07094
 Zr148 Zr 0.99950 0.46982 0.07465
 O149 O 0.99776 0.46442 0.17023
 O150 O 1.00281 0.43452 0.06465
 O151 O 1.02322 0.51165 0.08749
 O152 O 0.97589 0.48782 0.08686
 O153 O 0.96077 0.52243 -0.10992
 O154 O 0.93089 0.48556 -0.05317
 C155 C 0.93644 0.50386 -0.09453
 O156 O 1.03750 0.47872 -0.11450
 O157 O 1.06750 0.51474 -0.05560
 C158 C 1.06185 0.49727 -0.09896
 O159 O 0.96133 0.43837 -0.10939
 O160 O 0.93109 0.44531 -0.05313
 C161 C 0.93687 0.43246 -0.09398
 O162 O 1.03658 0.55795 -0.11650
 O163 O 1.06711 0.55333 -0.05594
 C164 C 1.06110 0.56438 -0.10051
 Zr165 Zr 0.99893 0.52963 -0.07702
 O166 O 0.99698 0.53303 -0.17267
 O167 O 1.00174 0.56803 -0.06743
 Zr168 Zr 0.99940 0.47009 -0.07807
 O169 O 0.99691 0.46753 -0.17454
 O170 O 1.00264 0.43461 -0.07392
 Zr171 Zr 1.04004 0.52032 -0.00118
 Zr172 Zr 0.95850 0.47925 -0.00102
 O173 O 0.97578 0.48809 -0.08910
 O174 O 1.02314 0.51193 -0.08985
 O175 O 0.97422 0.52160 -0.00064
 O176 O 1.02362 0.47796 -0.00170
 O177 O 1.02307 0.54585 -0.00072
 O178 O 0.97482 0.45303 -0.00163
 H179 H 0.96414 0.48195 0.12360
 H180 H 1.03648 0.47092 -0.00163
 H181 H 0.96395 0.48204 -0.12574
 H182 H 1.03572 0.56572 -0.00078
 H183 H 0.98456 0.41924 0.05432
 H184 H 0.98592 0.42024 -0.05425
 H185 H 1.01028 0.48560 -0.19072
 H186 H 0.99899 0.51821 -0.19072
 H187 H 0.98347 0.56495 -0.05650
 H188 H 0.98481 0.56534 0.05177
 H189 H 1.00907 0.52433 0.18862
 H190 H 0.99975 0.48122 0.18826
 O191 O 0.44049 0.47895 0.11165
 O192 O 0.44634 0.51481 0.05250
 C193 C 0.43454 0.49735 0.09593
 O194 O 0.56124 0.52297 0.10675
 O195 O 0.55421 0.48595 0.05038
 C196 C 0.56710 0.50445 0.09129
 O197 O 0.52055 0.55829 0.11395
 O198 O 0.48531 0.55348 0.05344
 C199 C 0.50235 0.56456 0.09807
 O200 O 0.47679 0.43912 0.10722
 O201 O 0.51389 0.44595 0.05087
 C202 C 0.49543 0.43331 0.09209
 Zr203 Zr 0.47011 0.47052 0.07537
 O204 O 0.47008 0.46801 0.17180
 O205 O 0.43145 0.43488 0.07126
 Zr206 Zr 0.53006 0.53009 0.07446
 O207 O 0.53537 0.53338 0.17012
 O208 O 0.56561 0.56858 0.06548
 O209 O 0.48810 0.51233 0.08714
 O210 O 0.51175 0.48862 0.08661
 O211 O 0.47665 0.43894 -0.10985
 O212 O 0.51363 0.44574 -0.05322
 C213 C 0.49516 0.43304 -0.09439
 O214 O 0.52152 0.55939 -0.11469
 O215 O 0.48556 0.55375 -0.05571
 C216 C 0.50311 0.56543 -0.09910
 O217 O 0.56141 0.52311 -0.10946
 O218 O 0.55419 0.48600 -0.05320
 C219 C 0.56718 0.50453 -0.09397
 O220 O 0.44158 0.47970 -0.11684
 O221 O 0.44663 0.51499 -0.05658
 C222 C 0.43540 0.49795 -0.10107
 Zr223 Zr 0.46982 0.47015 -0.07742
 O224 O 0.46637 0.46500 -0.17319
 O225 O 0.43113 0.43480 -0.06823
 Zr226 Zr 0.52976 0.52971 -0.07839
 O227 O 0.53203 0.52938 -0.17482
 O228 O 0.56558 0.56822 -0.07499
 Zr229 Zr 0.47957 0.52059 -0.00157
 Zr230 Zr 0.52024 0.47972 -0.00134
 O231 O 0.51148 0.48818 -0.08939
 O232 O 0.48784 0.51197 -0.09022
 O233 O 0.47768 0.45342 -0.00095
 O234 O 0.52212 0.54618 -0.00191
 O235 O 0.45372 0.47823 -0.00119
 O236 O 0.54675 0.52209 -0.00189
 H237 H 0.51766 0.48277 0.12334
 H238 H 0.52936 0.56605 -0.00165
 H239 H 0.51745 0.48225 -0.12590
 H240 H 0.43380 0.47110 -0.00147
 H241 H 0.58076 0.56557 0.05370
 H242 H 0.57976 0.56589 -0.05410
 H243 H 0.51413 0.52547 -0.19096
 H244 H 0.48209 0.48116 -0.19105
 H245 H 0.43408 0.41973 -0.05577
 H246 H 0.43391 0.42043 0.05237
 H247 H 0.47457 0.48602 0.18799
 H248 H 0.51861 0.51837 0.18792
 O249 O 0.52107 -0.03768 0.11458
 O250 O 0.48530 -0.06778 0.05503
 C251 C 0.50273 -0.06203 0.09872
 O252 O 0.47675 0.03818 0.11024
 O253 O 0.51370 0.06823 0.05362
 C254 C 0.49528 0.06250 0.09498
 O255 O 0.44094 -0.03755 0.11585
 O256 O 0.44640 -0.06772 0.05614
 C257 C 0.43497 -0.06189 0.10029
 O258 O 0.56142 0.03799 0.10879
 O259 O 0.55415 0.06808 0.05314
 C260 C 0.56714 0.06235 0.09378
 Zr261 Zr 0.52998 0.00008 0.07655
 O262 O 0.53492 0.00085 0.17232
 O263 O 0.56642 -0.00092 0.06347
 Zr264 Zr 0.47009 0.00018 0.07835
 O265 O 0.47000 0.00270 0.17477
 O266 O 0.43141 -0.00264 0.07371
 O267 O 0.48809 -0.02378 0.08963
 O268 O 0.51177 0.02347 0.08913
 O269 O 0.56100 0.03818 -0.10751
 O270 O 0.55392 0.06818 -0.05101
 C271 C 0.56681 0.06252 -0.09202
 O272 O 0.44116 -0.03741 -0.11378
 O273 O 0.44617 -0.06770 -0.05358
 C274 C 0.43493 -0.06180 -0.09798
 O275 O 0.47639 0.03813 -0.10721
 O276 O 0.51342 0.06812 -0.05069
 C277 C 0.49495 0.06245 -0.09191
 O278 O 0.52086 -0.03778 -0.11303
 O279 O 0.48501 -0.06782 -0.05372
 C280 C 0.50242 -0.06212 -0.09741
 Zr281 Zr 0.52939 0.00012 -0.07618
 O282 O 0.53182 0.00265 -0.17266
 O283 O 0.56531 -0.00262 -0.07241
 Zr284 Zr 0.46946 0.00018 -0.07432
 O285 O 0.46563 0.00191 -0.16989
 O286 O 0.43087 -0.00281 -0.06385
 Zr287 Zr 0.47930 -0.04058 0.00100
 Zr288 Zr 0.52007 0.04075 0.00126
 O289 O 0.51110 0.02349 -0.08673
 O290 O 0.48741 -0.02376 -0.08764
 O291 O 0.54650 0.02467 0.00026
 O292 O 0.45347 -0.02391 0.00198
 O293 O 0.52182 -0.02398 0.00017
 O294 O 0.47753 0.02479 0.00213
 H295 H 0.51780 0.03537 0.12558
 H296 H 0.43355 -0.03664 0.00212
 H297 H 0.51701 0.03523 -0.12340
 H298 H 0.52912 -0.03660 0.00000
 H299 H 0.43401 0.01448 0.05583
 H300 H 0.43397 0.01538 -0.05263
 H301 H 0.48127 0.00135 -0.18817
 H302 H 0.51362 -0.01057 -0.18868
 H303 H 0.57929 0.01359 -0.05044
 H304 H 0.57308 -0.00161 0.10485
 H305 H 0.52083 0.00412 0.19023
 H306 H 0.47592 -0.00978 0.19094
 C307 C 1.12297 0.50173 0.20407
 C308 C 1.14388 0.52710 0.22573
 C309 C 1.16192 0.52804 0.27204
 C310 C 1.15924 0.50362 0.29544
 C311 C 1.13955 0.47834 0.27074
 C312 C 1.12124 0.47738 0.22517
 C313 C 1.10128 0.45183 0.20219
 C314 C 1.09959 0.42792 0.22335
 C315 C 1.11761 0.42888 0.26765
 C316 C 1.13739 0.45374 0.29129
 C317 C 1.18212 0.55360 0.29440
 C318 C 1.18472 0.57757 0.27099
 C319 C 1.16739 0.57665 0.22496
 C320 C 1.14706 0.55175 0.20264
 C321 C 1.17540 0.50431 0.34750
 C322 C 1.18790 0.50455 0.39226
 C323 C 1.10208 0.50054 0.16371
 C324 C 1.08401 0.49927 0.13234
 H325 H 1.08690 0.45007 0.16746
 H326 H 1.08423 0.40855 0.20518
 H327 H 1.11627 0.41026 0.28379
 H328 H 1.15102 0.45347 0.32553
 H329 H 1.19621 0.55533 0.32986
 H330 H 1.20029 0.59697 0.28858
 H331 H 1.16953 0.59533 0.20683
 H332 H 1.13395 0.55204 0.16706
 C333 C 0.49553 0.61802 0.21094
 C334 C 0.47848 0.60700 0.26265
 C335 C 0.47715 0.62457 0.30689
 C336 C 0.49335 0.65305 0.29991
 C337 C 0.50980 0.66407 0.24740
 C338 C 0.51085 0.64648 0.20267
 C339 C 0.52766 0.65792 0.15085
 C340 C 0.54299 0.68596 0.14339
 C341 C 0.54195 0.70316 0.18712
 C342 C 0.52558 0.69244 0.23867
 C343 C 0.45977 0.61309 0.35796
 C344 C 0.44438 0.58507 0.36542
 C345 C 0.44601 0.56788 0.32265
 C346 C 0.46282 0.57860 0.27178
 C347 C 0.49444 0.67066 0.34914
 C348 C 0.49522 0.68399 0.39273
 C349 C 0.49811 0.60000 0.16801
 C350 C 0.50018 0.58429 0.13459
 H351 H 0.52912 0.64535 0.11563
 H352 H 0.55576 0.69439 0.10347
 H353 H 0.55389 0.72492 0.18107
 H354 H 0.52534 0.70659 0.27140
 H355 H 0.45781 0.62562 0.39252
 H356 H 0.43116 0.57666 0.40466
 H357 H 0.43401 0.54612 0.32864
 H358 H 0.46319 0.56436 0.23954
 C359 C 0.38082 -0.12208 0.21218
 C360 C 0.39163 -0.12706 0.26576
 C361 C 0.37383 -0.14586 0.30979
 C362 C 0.34530 -0.15901 0.30082
 C363 C 0.33454 -0.15485 0.24621
 C364 C 0.35239 -0.13636 0.20161
 C365 C 0.34120 -0.13243 0.14743
 C366 C 0.31317 -0.14645 0.13749
 C367 C 0.29573 -0.16450 0.18114
 C368 C 0.30618 -0.16869 0.23507
 C369 C 0.38511 -0.15089 0.36250
 C370 C 0.41317 -0.13752 0.37171
 C371 C 0.43057 -0.11876 0.32917
 C372 C 0.42004 -0.11347 0.27678
 C373 C 0.32732 -0.17523 0.34984
 C374 C 0.31379 -0.18752 0.39339
 C375 C 0.39902 -0.10152 0.16942
 C376 C 0.41496 -0.08377 0.13632
 H377 H 0.35399 -0.11860 0.11218
 H378 H 0.30495 -0.14329 0.09567
 H379 H 0.27398 -0.17536 0.17314
 H380 H 0.29186 -0.18299 0.26764
 H381 H 0.37242 -0.16531 0.39692
 H382 H 0.42143 -0.14173 0.41211
 H383 H 0.45235 -0.10840 0.33653
 H384 H 0.43445 -0.09888 0.24480
 C385 C 0.87595 0.50155 0.19809
 C386 C 0.87862 0.52606 0.22090
 C387 C 0.86084 0.52534 0.26754
 C388 C 0.84066 0.50011 0.29142
 C389 C 0.83703 0.47557 0.26627
 C390 C 0.85462 0.47630 0.21911
 C391 C 0.85064 0.45155 0.19460
 C392 C 0.82992 0.42674 0.21628
 C393 C 0.81295 0.42601 0.26297
 C394 C 0.81635 0.45009 0.28781
 C395 C 0.86405 0.55012 0.29000
 C396 C 0.88432 0.57491 0.26715
 C397 C 0.90178 0.57561 0.22169
 C398 C 0.89906 0.55153 0.19870
 C399 C 0.82488 0.49951 0.34422
 C400 C 0.81261 0.49930 0.38938
 C401 C 0.89652 0.50239 0.15725
 C402 C 0.91439 0.50316 0.12598
 H403 H 0.86346 0.45114 0.15850
 H404 H 0.82719 0.40799 0.19713
 H405 H 0.79703 0.40668 0.27993
 H406 H 0.80254 0.44850 0.32378
 H407 H 0.85088 0.55060 0.32520
 H408 H 0.88644 0.59367 0.28471
 H409 H 0.91749 0.59492 0.20405
 H410 H 0.91307 0.55312 0.16322
 C411 C 0.50078 0.37894 0.20430
 C412 C 0.51682 0.39009 0.25745
 C413 C 0.51742 0.37263 0.30300
 C414 C 0.50151 0.34414 0.29583
 C415 C 0.48631 0.33301 0.24173
 C416 C 0.48594 0.35048 0.19576
 C417 C 0.47035 0.33891 0.14236
 C418 C 0.45562 0.31086 0.13445
 C419 C 0.45605 0.29378 0.17933
 C420 C 0.47117 0.30462 0.23252
 C421 C 0.53383 0.38422 0.35544
 C422 C 0.54895 0.41226 0.36300
 C423 C 0.54802 0.42934 0.31895
 C424 C 0.53220 0.41851 0.26668
 C425 C 0.49959 0.32663 0.34604
 C426 C 0.49825 0.31335 0.39013
 C427 C 0.49856 0.39686 0.16044
 C428 C 0.49688 0.41281 0.12710
 H429 H 0.46945 0.35141 0.10620
 H430 H 0.44381 0.30232 0.09327
 H431 H 0.44461 0.27200 0.17290
 H432 H 0.47098 0.29057 0.26611
 H433 H 0.53526 0.37178 0.39100
 H434 H 0.56145 0.42075 0.40328
 H435 H 0.55981 0.45111 0.32499
 H436 H 0.53238 0.43268 0.23348
 C437 C 0.62495 0.12310 0.19926
 C438 C 0.62009 0.14366 0.22175
 C439 C 0.63688 0.16134 0.26877
 C440 C 0.65870 0.15864 0.29220
 C441 C 0.66468 0.13930 0.26669
 C442 C 0.64772 0.12146 0.22012
 C443 C 0.65377 0.10197 0.19604
 C444 C 0.67598 0.10016 0.21733
 C445 C 0.69259 0.11761 0.26285
 C446 C 0.68709 0.13699 0.28746
 C447 C 0.63109 0.18115 0.29196
 C448 C 0.60957 0.18370 0.26872
 C449 C 0.59342 0.16669 0.22208
 C450 C 0.59844 0.14677 0.19889
 C451 C 0.67391 0.17450 0.34482
 C452 C 0.68593 0.18686 0.38989
 C453 C 0.60536 0.10237 0.15855
 C454 C 0.58835 0.08442 0.12739
 H455 H 0.64153 0.08806 0.16027
 H456 H 0.68033 0.08514 0.19839
 H457 H 0.70981 0.11611 0.27927
 H458 H 0.70064 0.15018 0.32263
 H459 H 0.64320 0.19496 0.32795
 H460 H 0.60538 0.19893 0.28701
 H461 H 0.57675 0.16877 0.20414
 H462 H 0.58531 0.13397 0.16268
 C463 C 0.50025 0.12235 -0.20344
 C464 C 0.51632 0.12727 -0.25656
 C465 C 0.51701 0.14550 -0.30177
 C466 C 0.50121 0.15828 -0.29418
 C467 C 0.48608 0.15427 -0.23996
 C468 C 0.48563 0.13625 -0.19436
 C469 C 0.47020 0.13235 -0.14073
 C470 C 0.45573 0.14600 -0.13221
 C471 C 0.45620 0.16365 -0.17676
 C472 C 0.47113 0.16776 -0.23022
 C473 C 0.53340 0.15029 -0.35425
 C474 C 0.54851 0.13729 -0.36205
 C475 C 0.54753 0.11915 -0.31827
 C476 C 0.53165 0.11411 -0.26607
 C477 C 0.49938 0.17409 -0.34402
 C478 C 0.49809 0.18620 -0.38786
 C479 C 0.49797 0.10208 -0.15989
 C480 C 0.49632 0.08440 -0.12679
 H481 H 0.46926 0.11885 -0.10479
 H482 H 0.44412 0.14289 -0.09077
 H483 H 0.44496 0.17422 -0.16987
 H484 H 0.47099 0.18175 -0.26354
 H485 H 0.53486 0.16425 -0.38959
 H486 H 0.56102 0.14129 -0.40231
 H487 H 0.55931 0.10911 -0.32448
 H488 H 0.53177 0.10001 -0.23310
 C489 C 0.62495 0.50130 -0.19911
 C490 C 0.64757 0.52566 -0.22009
 C491 C 0.66456 0.52478 -0.26670
 C492 C 0.65861 0.49958 -0.29248
 C493 C 0.63684 0.47512 -0.26924
 C494 C 0.62004 0.47598 -0.22214
 C495 C 0.59833 0.45128 -0.19977
 C496 C 0.59334 0.42644 -0.22334
 C497 C 0.60960 0.42562 -0.26987
 C498 C 0.63113 0.44962 -0.29274
 C499 C 0.68696 0.54941 -0.28727
 C500 C 0.69234 0.57422 -0.26269
 C501 C 0.67560 0.57509 -0.21742
 C502 C 0.65346 0.55115 -0.19614
 C503 C 0.67368 0.49895 -0.34544
 C504 C 0.68559 0.49857 -0.39074
 C505 C 0.60540 0.50245 -0.15824
 C506 C 0.58841 0.50352 -0.12720
 H507 H 0.58505 0.45090 -0.16378
 H508 H 0.57661 0.40772 -0.20584
 H509 H 0.60552 0.40629 -0.28838
 H510 H 0.64332 0.44797 -0.32874
 H511 H 0.70058 0.54975 -0.32232
 H512 H 0.70957 0.59286 -0.27892
 H513 H 0.67980 0.59441 -0.19865
 H514 H 0.64110 0.55283 -0.16063
 C515 C 0.87623 0.37421 -0.19892
 C516 C 0.87910 0.35250 -0.22188
 C517 C 0.86136 0.33547 -0.26854
 C518 C 0.84092 0.34034 -0.29216
 C519 C 0.83707 0.36109 -0.26675
 C520 C 0.85467 0.37797 -0.21967
 C521 C 0.85040 0.39854 -0.19492
 C522 C 0.82933 0.40234 -0.21608
 C523 C 0.81232 0.38603 -0.26256
 C524 C 0.81608 0.36564 -0.28783
 C525 C 0.86479 0.31405 -0.29117
 C526 C 0.88513 0.30953 -0.26824
 C527 C 0.90254 0.32623 -0.22273
 C528 C 0.89968 0.34753 -0.19973
 C529 C 0.82499 0.32504 -0.34475
 C530 C 0.81260 0.31295 -0.38979
 C531 C 0.89682 0.39397 -0.15818
 C532 C 0.91476 0.41110 -0.12720
 H533 H 0.86318 0.41178 -0.15885
 H534 H 0.82631 0.41817 -0.19665
 H535 H 0.79609 0.38917 -0.27908
 H536 H 0.80226 0.35337 -0.32369
 H537 H 0.85171 0.30049 -0.32647
 H538 H 0.88739 0.29297 -0.28584
 H539 H 0.91831 0.32264 -0.20506
 H540 H 0.91363 0.35990 -0.16417
 C541 C 0.49865 -0.12324 -0.20290
 C542 C 0.52313 -0.12150 -0.22370
 C543 C 0.52225 -0.13986 -0.26889
 C544 C 0.49693 -0.15969 -0.29338
 C545 C 0.47238 -0.16234 -0.27027
 C546 C 0.47324 -0.14421 -0.22444
 C547 C 0.44846 -0.14734 -0.20171
 C548 C 0.42351 -0.16771 -0.22391
 C549 C 0.42267 -0.18515 -0.26944
 C550 C 0.44677 -0.18261 -0.29249
 C551 C 0.54700 -0.13762 -0.28930
 C552 C 0.57191 -0.11775 -0.26583
 C553 C 0.57277 -0.09972 -0.22181
 C554 C 0.54872 -0.10148 -0.20082
 C555 C 0.49630 -0.17602 -0.34498
 C556 C 0.49608 -0.18864 -0.38944
 C557 C 0.49975 -0.10230 -0.16302
 C558 C 0.50093 -0.08422 -0.13199
 H559 H 0.44810 -0.13416 -0.16649
 H560 H 0.40474 -0.16981 -0.20608
 H561 H 0.40325 -0.20076 -0.28694
 H562 H 0.44510 -0.19676 -0.32758
 H563 H 0.54735 -0.15125 -0.32334
 H564 H 0.59064 -0.11633 -0.28193
 H565 H 0.59217 -0.08431 -0.20377
 H566 H 0.55042 -0.08709 -0.16629
 C567 C 0.38154 0.50464 -0.21332
 C568 C 0.39246 0.52166 -0.26504
 C569 C 0.37471 0.52304 -0.30883
 C570 C 0.34616 0.50691 -0.30142
 C571 C 0.33524 0.49049 -0.24891
 C572 C 0.35301 0.48938 -0.20462
 C573 C 0.34167 0.47261 -0.15278
 C574 C 0.31356 0.45737 -0.14487
 C575 C 0.29618 0.45847 -0.18815
 C576 C 0.30679 0.47480 -0.23973
 C577 C 0.38609 0.54039 -0.35988
 C578 C 0.41418 0.55570 -0.36780
 C579 C 0.43155 0.55401 -0.32549
 C580 C 0.42093 0.53723 -0.27461
 C581 C 0.32837 0.50585 -0.35028
 C582 C 0.31494 0.50512 -0.39366
 C583 C 0.39974 0.50210 -0.17070
 C584 C 0.41558 0.50009 -0.13746
 H585 H 0.35439 0.47111 -0.11790
 H586 H 0.30522 0.44464 -0.10493
 H587 H 0.27437 0.44660 -0.18174
 H588 H 0.29251 0.47508 -0.27211
 H589 H 0.37343 0.54241 -0.39409
 H590 H 0.42251 0.56890 -0.40703
 H591 H 0.45337 0.56592 -0.33185
 H592 H 0.43530 0.53680 -0.24275
 C593 C 1.12150 0.61871 -0.21194
 C594 C 1.13570 0.64700 -0.20074
 C595 C 1.15436 0.66502 -0.24486
 C596 C 1.15881 0.65458 -0.29960
 C597 C 1.14569 0.62619 -0.30927
 C598 C 1.12670 0.60822 -0.26574
 C599 C 1.11311 0.57996 -0.27750
 C600 C 1.11858 0.56974 -0.33015
 C601 C 1.13753 0.58730 -0.37220
 C602 C 1.15092 0.61521 -0.36224
 C603 C 1.16806 0.69324 -0.23315
 C604 C 1.16355 0.70339 -0.17915
 C605 C 1.14533 0.68577 -0.13596
 C606 C 1.13147 0.65788 -0.14644
 C607 C 1.17523 0.67273 -0.34813
 C608 C 1.18765 0.68640 -0.39141
 C609 C 1.10081 0.60035 -0.16957
 C610 C 1.08300 0.58436 -0.13663
 H611 H 1.09836 0.56544 -0.24593
 H612 H 1.10821 0.54807 -0.33809
 H613 H 1.14189 0.57927 -0.41279
 H614 H 1.16550 0.62803 -0.39631
 H615 H 1.18249 0.70769 -0.26535
 H616 H 1.17427 0.72504 -0.17073
 H617 H 1.14191 0.69375 -0.09409
 H618 H 1.11750 0.64495 -0.11154
 C619 C 0.87623 0.49800 -0.20623
 C620 C 0.86342 0.51379 -0.19969
 C621 C 0.84525 0.51291 -0.24556
 C622 C 0.84003 0.49623 -0.29758
 C623 C 0.85190 0.47952 -0.30273
 C624 C 0.87024 0.48057 -0.25720
 C625 C 0.88251 0.46429 -0.26431
 C626 C 0.87661 0.44726 -0.31466
 C627 C 0.85838 0.44595 -0.35877
 C628 C 0.84614 0.46187 -0.35319
 C629 C 0.83288 0.52907 -0.23842
 C630 C 0.83833 0.54565 -0.18734
 C631 C 0.85616 0.54654 -0.14256
 C632 C 0.86864 0.53085 -0.14844
 C633 C 0.82408 0.49748 -0.34794
 C634 C 0.81183 0.49832 -0.39207
 C635 C 0.89661 0.50053 -0.16258
 C636 C 0.91436 0.50229 -0.12939
 H637 H 0.89665 0.46439 -0.23097
 H638 H 0.88607 0.43486 -0.31916
 H639 H 0.85370 0.43255 -0.39759
 H640 H 0.83210 0.46013 -0.38873
 H641 H 0.81883 0.52896 -0.27203
 H642 H 0.82869 0.55788 -0.18250
 H643 H 0.86036 0.55948 -0.10304
 H644 H 0.88234 0.53217 -0.11241
 C645 C 0.50042 0.37848 -0.20604
 C646 C 0.48572 0.35003 -0.19731
 C647 C 0.48617 0.33254 -0.24315
 C648 C 0.50135 0.34366 -0.29725
 C649 C 0.51723 0.37214 -0.30445
 C650 C 0.51652 0.38962 -0.25909
 C651 C 0.53182 0.41804 -0.26843
 C652 C 0.54774 0.42884 -0.32056
 C653 C 0.54882 0.41172 -0.36437
 C654 C 0.53373 0.38370 -0.35674
 C655 C 0.47116 0.30417 -0.23379
 C656 C 0.45614 0.29336 -0.18050
 C657 C 0.45563 0.31046 -0.13574
 C658 C 0.47018 0.33850 -0.14386
 C659 C 0.49944 0.32615 -0.34744
 C660 C 0.49815 0.31288 -0.39152
 C661 C 0.49815 0.39641 -0.16231
 C662 C 0.49652 0.41243 -0.12914
 H663 H 0.53187 0.43222 -0.23541
 H664 H 0.55952 0.45061 -0.32667
 H665 H 0.56142 0.42019 -0.40450
 H666 H 0.53531 0.37124 -0.39206
 H667 H 0.47108 0.29012 -0.26726
 H668 H 0.44487 0.27160 -0.17388
 H669 H 0.44394 0.30196 -0.09443
 H670 H 0.46922 0.35101 -0.10778
 C671 C 0.62458 0.12327 -0.19728
 C672 C 0.61969 0.14376 -0.22001
 C673 C 0.63645 0.16136 -0.26712
 C674 C 0.65822 0.15858 -0.29059
 C675 C 0.66426 0.13935 -0.26485
 C676 C 0.64734 0.12158 -0.21817
 C677 C 0.65346 0.10218 -0.19393
 C678 C 0.67575 0.10044 -0.21502
 C679 C 0.69234 0.11786 -0.26056
 C680 C 0.68674 0.13711 -0.28542
 C681 C 0.63073 0.18122 -0.29026
 C682 C 0.60928 0.18386 -0.26694
 C683 C 0.59311 0.16689 -0.22032
 C684 C 0.59807 0.14693 -0.19718
 C685 C 0.67338 0.17433 -0.34336
 C686 C 0.68548 0.18664 -0.38838
 C687 C 0.60499 0.10258 -0.15658
 C688 C 0.58800 0.08462 -0.12547
 H689 H 0.64123 0.08830 -0.15820
 H690 H 0.68017 0.08551 -0.19588
 H691 H 0.70963 0.11643 -0.27677
 H692 H 0.70029 0.15028 -0.32062
 H693 H 0.64286 0.19501 -0.32625
 H694 H 0.60516 0.19916 -0.28513
 H695 H 0.57649 0.16903 -0.20234
 H696 H 0.58491 0.13413 -0.16106
 C697 C 1.12315 0.50129 -0.20431
 C698 C 1.12149 0.47695 -0.22530
 C699 C 1.13991 0.47797 -0.27058
 C700 C 1.15959 0.50327 -0.29512
 C701 C 1.16216 0.52767 -0.27184
 C702 C 1.14401 0.52668 -0.22587
 C703 C 1.14698 0.55131 -0.20307
 C704 C 1.16728 0.57623 -0.22528
 C705 C 1.18479 0.57719 -0.27088
 C706 C 1.18237 0.55325 -0.29406
 C707 C 1.13786 0.45339 -0.29105
 C708 C 1.11806 0.42850 -0.26763
 C709 C 1.09988 0.42750 -0.22367
 C710 C 1.10148 0.45138 -0.20257
 C711 C 1.17570 0.50402 -0.34724
 C712 C 1.18814 0.50439 -0.39215
 C713 C 1.10219 0.50006 -0.16429
 C714 C 1.08405 0.49881 -0.13330
 H715 H 1.13371 0.55156 -0.16784
 H716 H 1.16926 0.59489 -0.20741
 H717 H 1.20036 0.59659 -0.28836
 H718 H 1.19657 0.55500 -0.32923
 H719 H 1.15160 0.45317 -0.32506
 H720 H 1.11680 0.40990 -0.28371
 H721 H 1.08448 0.40811 -0.20574
 H722 H 1.08698 0.44958 -0.16812
 C723 C 0.49990 0.62302 -0.20450
 C724 C 0.52442 0.64478 -0.22762
 C725 C 0.52351 0.66219 -0.27291
 C726 C 0.49808 0.65755 -0.29520
 C727 C 0.47357 0.63668 -0.26975
 C728 C 0.47449 0.61948 -0.22390
 C729 C 0.44976 0.59876 -0.19903
 C730 C 0.42479 0.59507 -0.21912
 C731 C 0.42388 0.61169 -0.26447
 C732 C 0.44793 0.63231 -0.28965
 C733 C 0.54828 0.68373 -0.29563
 C734 C 0.57325 0.68788 -0.27433
 C735 C 0.57414 0.67075 -0.23029
 C736 C 0.55007 0.64941 -0.20704
 C737 C 0.49721 0.67294 -0.34710
 C738 C 0.49674 0.68504 -0.39185
 C739 C 0.50083 0.60318 -0.16444
 C740 C 0.50183 0.58621 -0.13341
 H741 H 0.44946 0.58525 -0.16386
 H742 H 0.40605 0.57907 -0.19976
 H743 H 0.40443 0.60862 -0.28020
 H744 H 0.44622 0.64485 -0.32454
 H745 H 0.54861 0.69763 -0.32980
 H746 H 0.59200 0.70448 -0.29212
 H747 H 0.59359 0.67403 -0.21396
 H748 H 0.55180 0.63670 -0.17263
 C749 C 0.38106 -0.12189 -0.21044
 C750 C 0.35264 -0.13625 -0.19979
 C751 C 0.33480 -0.15478 -0.24435
 C752 C 0.34555 -0.15891 -0.29901
 C753 C 0.37407 -0.14566 -0.30812
 C754 C 0.39187 -0.12681 -0.26411
 C755 C 0.42027 -0.11309 -0.27529
 C756 C 0.43079 -0.11832 -0.32779
 C757 C 0.41339 -0.13714 -0.37029
 C758 C 0.38534 -0.15062 -0.36095
 C759 C 0.30644 -0.16869 -0.23313
 C760 C 0.29600 -0.16451 -0.17918
 C761 C 0.31344 -0.14638 -0.13559
 C762 C 0.34146 -0.13230 -0.14560
 C763 C 0.32755 -0.17516 -0.34799
 C764 C 0.31396 -0.18747 -0.39148
 C765 C 0.39922 -0.10136 -0.16761
 C766 C 0.41506 -0.08364 -0.13431
 H767 H 0.43467 -0.09844 -0.24335
 H768 H 0.45256 -0.10786 -0.33528
 H769 H 0.42165 -0.14130 -0.41078
 H770 H 0.37266 -0.16508 -0.39537
 H771 H 0.29212 -0.18305 -0.26567
 H772 H 0.27425 -0.17541 -0.17112
 H773 H 0.30523 -0.14320 -0.09377
 H774 H 0.35424 -0.11842 -0.11040
 C775 C 0.49887 -0.12317 0.20369
 C776 C 0.52333 -0.12146 0.22445
 C777 C 0.52241 -0.13995 0.26926
 C778 C 0.49705 -0.15984 0.29343
 C779 C 0.47252 -0.16244 0.27035
 C780 C 0.47343 -0.14418 0.22488
 C781 C 0.44867 -0.14723 0.20222
 C782 C 0.42370 -0.16766 0.22414
 C783 C 0.42282 -0.18524 0.26930
 C784 C 0.44689 -0.18278 0.29228
 C785 C 0.54714 -0.13776 0.28964
 C786 C 0.57207 -0.11779 0.26653
 C787 C 0.57297 -0.09961 0.22291
 C788 C 0.54895 -0.10133 0.20195
 C789 C 0.49637 -0.17621 0.34490
 C790 C 0.49606 -0.18883 0.38935
 C791 C 0.50002 -0.10219 0.16408
 C792 C 0.50125 -0.08410 0.13319
 H793 H 0.44835 -0.13394 0.16728
 H794 H 0.40494 -0.16970 0.20635
 H795 H 0.40338 -0.20091 0.28658
 H796 H 0.44519 -0.19706 0.32706
 H797 H 0.54746 -0.15150 0.32335
 H798 H 0.59080 -0.11640 0.28257
 H799 H 0.59239 -0.08411 0.20513
 H800 H 0.55067 -0.08683 0.16774
 C801 C 0.37681 0.50067 0.20119
 C802 C 0.38053 0.52602 0.22087
 C803 C 0.36325 0.52697 0.26663
 C804 C 0.34216 0.50255 0.29174
 C805 C 0.33737 0.47720 0.26925
 C806 C 0.35484 0.47625 0.22402
 C807 C 0.35006 0.45067 0.20320
 C808 C 0.32851 0.42670 0.22619
 C809 C 0.31134 0.42763 0.27022
 C810 C 0.31563 0.45254 0.29172
 C811 C 0.36778 0.55254 0.28682
 C812 C 0.38865 0.57651 0.26203
 C813 C 0.40535 0.57557 0.21676
 C814 C 0.40149 0.55066 0.19638
 C815 C 0.32668 0.50343 0.34354
 C816 C 0.31451 0.50389 0.38821
 C817 C 0.39669 0.49970 0.16115
 C818 C 0.41372 0.49869 0.13014
 H819 H 0.36280 0.44891 0.16879
 H820 H 0.32511 0.40730 0.20968
 H821 H 0.29459 0.40896 0.28784
 H822 H 0.30167 0.45224 0.32585
 H823 H 0.35518 0.55428 0.32163
 H824 H 0.39186 0.59591 0.27800
 H825 H 0.42155 0.59423 0.19772
 H826 H 0.41508 0.55094 0.16132
 C827 C 1.12147 0.61874 0.20961
 C828 C 1.13592 0.64705 0.19880
 C829 C 1.15440 0.66488 0.24348
 C830 C 1.15841 0.65420 0.29833
 C831 C 1.14508 0.62579 0.30761
 C832 C 1.12626 0.60802 0.26352
 C833 C 1.11244 0.57972 0.27482
 C834 C 1.11751 0.56928 0.32760
 C835 C 1.13628 0.58665 0.37024
 C836 C 1.14990 0.61459 0.36070
 C837 C 1.16835 0.69313 0.23218
 C838 C 1.16425 0.70349 0.17804
 C839 C 1.14624 0.68605 0.13426
 C840 C 1.13214 0.65813 0.14433
 C841 C 1.17465 0.67217 0.34730
 C842 C 1.18699 0.68576 0.39072
 C843 C 1.10088 0.60059 0.16681
 C844 C 1.08310 0.58469 0.13369
 H845 H 1.09783 0.56534 0.24278
 H846 H 1.10696 0.54758 0.33521
 H847 H 1.14032 0.57844 0.41094
 H848 H 1.16433 0.62726 0.39522
 H849 H 1.18263 0.70744 0.26484
 H850 H 1.17515 0.72515 0.16996
 H851 H 1.14315 0.69419 0.09227
 H852 H 1.11835 0.64535 0.10898
 C853 C 0.50044 0.12229 0.20670
 C854 C 0.48581 0.13615 0.19751
 C855 C 0.48620 0.15418 0.24305
 C856 C 0.50129 0.15822 0.29734
 C857 C 0.51719 0.14556 0.30496
 C858 C 0.51656 0.12732 0.25981
 C859 C 0.53199 0.11427 0.26939
 C860 C 0.54793 0.11946 0.32157
 C861 C 0.54886 0.13761 0.36529
 C862 C 0.53365 0.15051 0.35742
 C863 C 0.47125 0.16766 0.23316
 C864 C 0.45637 0.16350 0.17960
 C865 C 0.45595 0.14584 0.13509
 C866 C 0.47041 0.13222 0.14379
 C867 C 0.49935 0.17395 0.34722
 C868 C 0.49803 0.18601 0.39111
 C869 C 0.49815 0.10198 0.16325
 C870 C 0.49656 0.08436 0.13002
 H871 H 0.53212 0.10013 0.23650
 H872 H 0.55979 0.10949 0.32789
 H873 H 0.56143 0.14175 0.40554
 H874 H 0.53509 0.16449 0.39271
 H875 H 0.47109 0.18167 0.26644
 H876 H 0.44514 0.17408 0.17255
 H877 H 0.44437 0.14268 0.09358
 H878 H 0.46950 0.11869 0.10792
 C879 C 0.62460 0.50129 0.19760
 C880 C 0.61959 0.47593 0.22051
 C881 C 0.63616 0.47499 0.26809
 C882 C 0.65780 0.49940 0.29189
 C883 C 0.66387 0.52466 0.26622
 C884 C 0.64713 0.52561 0.21910
 C885 C 0.65319 0.55114 0.19511
 C886 C 0.67529 0.57503 0.21682
 C887 C 0.69176 0.57408 0.26266
 C888 C 0.68619 0.54924 0.28729
 C889 C 0.63037 0.44944 0.29135
 C890 C 0.60898 0.42548 0.26783
 C891 C 0.59296 0.42639 0.22086
 C892 C 0.59802 0.45128 0.19750
 C893 C 0.67274 0.49871 0.34504
 C894 C 0.68466 0.49840 0.39034
 C895 C 0.60521 0.50248 0.15628
 C896 C 0.58828 0.50348 0.12485
 H897 H 0.64105 0.55288 0.15917
 H898 H 0.67968 0.59438 0.19789
 H899 H 0.70894 0.59269 0.27924
 H900 H 0.69963 0.54951 0.32273
 H901 H 0.64239 0.44772 0.32762
 H902 H 0.60484 0.40611 0.28613
 H903 H 0.57636 0.40772 0.20280
 H904 H 0.58493 0.45097 0.16115
 C905 C 0.87718 0.37870 0.20497
 C906 C 0.86446 0.35017 0.19885
 C907 C 0.84656 0.33306 0.24521
 C908 C 0.84142 0.34463 0.29719
 C909 C 0.85322 0.37315 0.30201
 C910 C 0.87135 0.39024 0.25607
 C911 C 0.88354 0.41873 0.26287
 C912 C 0.87773 0.42997 0.31322
 C913 C 0.85968 0.41323 0.35767
 C914 C 0.84756 0.38514 0.35244
 C915 C 0.83434 0.30461 0.23851
 C916 C 0.83961 0.29335 0.18737
 C917 C 0.85709 0.31008 0.14202
 C918 C 0.86947 0.33819 0.14750
 C919 C 0.82541 0.32755 0.34761
 C920 C 0.81305 0.31447 0.39160
 C921 C 0.89733 0.39639 0.16079
 C922 C 0.91495 0.41226 0.12727
 H923 H 0.89748 0.43263 0.22920
 H924 H 0.88704 0.45177 0.31738
 H925 H 0.85505 0.42204 0.39644
 H926 H 0.83362 0.37298 0.38817
 H927 H 0.82049 0.29081 0.27248
 H928 H 0.83006 0.27154 0.18287
 H929 H 0.86108 0.30124 0.10234
 H930 H 0.88287 0.35040 0.11103
   
