data_POSCAR
  _audit_creation_date              2014-09-24
  _audit_creation_method            'ToBaCCo'
  _symmetry_space_group_name_H-M    'P1'
  _symmetry_Int_Tables_number       1
  _symmetry_cell_setting            triclinic
  loop_
  _symmetry_equiv_pos_as_xyz
 x,y,z
_cell_length_a 52.0587
_cell_length_b 52.6850
_cell_length_c 18.4380
_cell_angle_alpha 90.014000
_cell_angle_beta 90.008900
_cell_angle_gamma 120.245300
loop_
  _atom_site_label
  _atom_site_type_symbol
  _atom_site_fract_x
  _atom_site_fract_y
  _atom_site_fract_z
C1 C 0.21370 0.47886 0.46149
 C2 C 0.21264 0.47720 0.53906
 C3 C 0.23516 0.47496 0.57651
 C4 C 0.25854 0.47408 0.54030
 C5 C 0.25812 0.47365 0.46347
 C6 C 0.23609 0.47607 0.42562
 H7 H 0.23706 0.47585 0.36729
 H8 H 0.23322 0.47188 0.63428
 C9 C 0.50955 -0.26151 0.46176
 C10 C 0.50883 -0.26255 0.53868
 C11 C 0.50852 -0.23995 0.57840
 C12 C 0.50896 -0.21581 0.54413
 C13 C 0.50850 -0.21537 0.46701
 C14 C 0.50869 -0.23809 0.42731
 H15 H 0.50858 -0.23697 0.36894
 H16 H 0.50813 -0.24155 0.63664
 C17 C 1.27793 0.77556 0.45318
 C18 C 1.28096 0.77656 0.52978
 C19 C 1.26110 0.75199 0.57107
 C20 C 1.23731 0.72720 0.53911
 C21 C 1.23239 0.72706 0.46366
 C22 C 1.25340 0.75082 0.42156
 H23 H 1.25145 0.74898 0.36326
 H24 H 1.26310 0.75238 0.62955
 C25 C 0.77283 0.49991 0.46185
 C26 C 0.77708 0.50967 0.53497
 C27 C 0.75642 0.51600 0.56679
 C28 C 0.73042 0.51107 0.53060
 C29 C 0.72705 0.50265 0.45641
 C30 C 0.74803 0.49693 0.42371
 H31 H 0.74621 0.49224 0.36618
 H32 H 0.76103 0.52469 0.62123
 C33 C 0.47514 0.26494 0.46823
 C34 C 0.47785 0.26578 0.54499
 C35 C 0.47936 0.24268 0.57984
 C36 C 0.47736 0.21860 0.54106
 C37 C 0.47460 0.21832 0.46445
 C38 C 0.47396 0.24153 0.42928
 H39 H 0.47065 0.24042 0.37105
 H40 H 0.48363 0.24420 0.63694
 C41 C 0.73810 0.22289 0.46280
 C42 C 0.74030 0.21982 0.53824
 C43 C 0.76415 0.24225 0.57702
 C44 C 0.78611 0.26805 0.54254
 C45 C 0.78396 0.27077 0.46630
 C46 C 0.75993 0.24832 0.42781
 H47 H 0.75758 0.25137 0.37065
 H48 H 0.76620 0.23843 0.63371
 O49 O 0.96219 0.44339 0.13762
 O50 O 0.92761 0.44731 0.06863
 C51 C 0.93494 0.43529 0.11961
 O52 O 1.04258 0.57443 0.12435
 O53 O 1.07500 0.56821 0.05258
 C54 C 1.06918 0.58184 0.10259
 O55 O 0.96010 0.52886 0.13898
 O56 O 0.92656 0.48904 0.07232
 C57 C 0.93329 0.50822 0.12382
 O58 O 1.04568 0.48498 0.12447
 O59 O 1.07661 0.52519 0.05520
 C60 C 1.07189 0.50542 0.10363
 Zr61 Zr 1.00309 0.47652 0.09204
 O62 O 1.00737 0.47813 0.20640
 O63 O 1.00329 0.43656 0.08612
 Zr64 Zr 1.00077 0.53968 0.08882
 O65 O 1.00416 0.54634 0.20222
 O66 O 0.99596 0.57705 0.07643
 O67 O 0.97588 0.49446 0.10753
 O68 O 1.02780 0.52169 0.10136
 O69 O 1.04227 0.48147 -0.12721
 O70 O 1.07497 0.52374 -0.06688
 C71 C 1.06899 0.50250 -0.11160
 O72 O 0.95522 0.52531 -0.13410
 O73 O 0.92430 0.48702 -0.06007
 C74 C 0.92908 0.50470 -0.11390
 O75 O 1.03767 0.57233 -0.13212
 O76 O 1.07300 0.56636 -0.07228
 C77 C 1.06498 0.57973 -0.11852
 O78 O 0.95871 0.44000 -0.12771
 O79 O 0.92610 0.44616 -0.05641
 C80 C 0.93204 0.43276 -0.10685
 Zr81 Zr 1.00043 0.47406 -0.08995
 O82 O 1.00204 0.47338 -0.20457
 O83 O 0.99917 0.43329 -0.08484
 Zr84 Zr 0.99758 0.53691 -0.09274
 O85 O 0.99947 0.53845 -0.20745
 O86 O 0.99198 0.57402 -0.09049
 Zr87 Zr 0.95599 0.48341 0.00391
 Zr88 Zr 1.04488 0.53019 -0.00498
 O89 O 1.02446 0.51882 -0.10763
 O90 O 0.97247 0.49137 -0.10320
 O91 O 1.02865 0.48461 -0.00111
 O92 O 0.97265 0.52896 0.00056
 O93 O 0.97589 0.45713 0.00366
 O94 O 1.02583 0.55730 -0.00483
 H95 H 1.04149 0.52884 0.14344
 H96 H 0.95803 0.53575 0.00130
 H97 H 1.03702 0.52510 -0.15177
 H98 H 0.96308 0.43546 0.00531
 H99 H 1.01558 0.59382 0.06260
 H100 H 1.00937 0.58999 -0.06511
 H101 H 0.98504 0.51860 -0.22552
 H102 H 0.98586 0.47626 -0.22302
 H103 H 1.01536 0.43588 -0.05199
 H104 H 1.00389 0.43076 0.13693
 H105 H 0.99157 0.48130 0.22639
 H106 H 1.00500 0.52958 0.22355
 O107 O 0.43571 0.47978 0.13400
 O108 O 0.44191 0.51775 0.06102
 C109 C 0.42872 0.49908 0.11292
 O110 O 0.56903 0.53119 0.12872
 O111 O 0.56117 0.49000 0.06709
 C112 C 0.57559 0.51109 0.11343
 O113 O 0.52485 0.56897 0.13169
 O114 O 0.48349 0.55994 0.05964
 C115 C 0.50355 0.57577 0.11236
 O116 O 0.47626 0.43734 0.13199
 O117 O 0.51721 0.44560 0.06630
 C118 C 0.49664 0.43117 0.11388
 Zr119 Zr 0.46892 0.47130 0.09438
 O120 O 0.47020 0.47033 0.20906
 O121 O 0.42688 0.43227 0.09431
 Zr122 Zr 0.53369 0.53653 0.09102
 O123 O 0.53706 0.53829 0.20548
 O124 O 0.57323 0.57745 0.07879
 O125 O 0.48782 0.51674 0.10568
 O126 O 0.51445 0.49176 0.10772
 O127 O 0.47576 0.43486 -0.12052
 O128 O 0.51722 0.44467 -0.05470
 C129 C 0.49637 0.42922 -0.10105
 O130 O 0.52488 0.56653 -0.13608
 O131 O 0.48414 0.55957 -0.06409
 C132 C 0.50433 0.57442 -0.11758
 O133 O 0.56877 0.52834 -0.12563
 O134 O 0.56101 0.48876 -0.05688
 C135 C 0.57543 0.50871 -0.10553
 O136 O 0.43484 0.47680 -0.13073
 O137 O 0.44195 0.51673 -0.06460
 C138 C 0.42815 0.49671 -0.11344
 Zr139 Zr 0.46874 0.46960 -0.08885
 O140 O 0.47085 0.46750 -0.20328
 O141 O 0.42679 0.43051 -0.08815
 Zr142 Zr 0.53343 0.53455 -0.09141
 O143 O 0.53503 0.53217 -0.20579
 O144 O 0.57246 0.57644 -0.09064
 Zr145 Zr 0.47850 0.52400 -0.00095
 Zr146 Zr 0.52383 0.48177 0.00410
 O147 O 0.51424 0.48958 -0.10181
 O148 O 0.48752 0.51473 -0.10590
 O149 O 0.47744 0.45272 0.00440
 O150 O 0.52471 0.55260 -0.00167
 O151 O 0.45090 0.47805 0.00167
 O152 O 0.55217 0.52768 0.00120
 H153 H 0.52118 0.48578 0.15137
 H154 H 0.53248 0.57406 -0.00267
 H155 H 0.52094 0.48274 -0.14395
 H156 H 0.42903 0.46946 0.00168
 H157 H 0.58024 0.58479 0.12855
 H158 H 0.58675 0.57536 -0.05721
 H159 H 0.51540 0.52765 -0.22469
 H160 H 0.47048 0.48469 -0.22361
 H161 H 0.42842 0.41640 -0.05586
 H162 H 0.42911 0.41704 0.06841
 H163 H 0.47256 0.48908 0.22702
 H164 H 0.51691 0.53149 0.22475
 O165 O 0.47735 0.04905 0.12832
 O166 O 0.51756 0.07972 0.05815
 C167 C 0.49802 0.07497 0.10774
 O168 O 0.52388 -0.03563 0.13796
 O169 O 0.48320 -0.06838 0.07172
 C170 C 0.50361 -0.06214 0.11993
 O171 O 0.56535 0.04705 0.13620
 O172 O 0.55991 0.07862 0.06059
 C173 C 0.57291 0.07322 0.11327
 O174 O 0.43078 -0.03308 0.12744
 O175 O 0.43913 -0.06701 0.07053
 C176 C 0.42404 -0.05986 0.11352
 Zr177 Zr 0.46741 0.00693 0.09158
 O178 O 0.46429 0.00567 0.20612
 O179 O 0.42837 0.00948 0.08033
 Zr180 Zr 0.53164 0.00544 0.09832
 O181 O 0.52951 0.00404 0.21302
 O182 O 0.57339 0.00768 0.10142
 O183 O 0.51326 0.03253 0.10690
 O184 O 0.48603 -0.01907 0.11086
 O185 O 0.43221 -0.03784 -0.12302
 O186 O 0.43939 -0.06923 -0.05057
 C187 C 0.42520 -0.06396 -0.10044
 O188 O 0.56636 0.04327 -0.12838
 O189 O 0.55979 0.07679 -0.06366
 C190 C 0.57339 0.07001 -0.11185
 O191 O 0.52500 -0.03938 -0.11502
 O192 O 0.48343 -0.06992 -0.04859
 C193 C 0.50411 -0.06528 -0.09469
 O194 O 0.47789 0.04488 -0.13666
 O195 O 0.51766 0.07760 -0.06774
 C196 C 0.49834 0.07138 -0.11891
 Zr197 Zr 0.46807 0.00390 -0.09119
 O198 O 0.46701 -0.00096 -0.20532
 O199 O 0.42926 0.00724 -0.09488
 Zr200 Zr 0.53234 0.00270 -0.08512
 O201 O 0.53053 -0.00231 -0.19931
 O202 O 0.57414 0.00506 -0.08227
 Zr203 Zr 0.52286 0.04835 -0.00039
 Zr204 Zr 0.47694 -0.03892 0.00794
 O205 O 0.48682 -0.02242 -0.09870
 O206 O 0.51404 0.02928 -0.10466
 O207 O 0.44908 -0.02072 0.00235
 O208 O 0.55003 0.02939 0.00471
 O209 O 0.47661 0.03113 -0.00254
 O210 O 0.52324 -0.02219 0.00949
 H211 H 0.47883 -0.03166 0.15463
 H212 H 0.57194 0.04229 0.00473
 H213 H 0.47994 -0.03633 -0.14003
 H214 H 0.46881 0.04482 -0.00501
 H215 H 0.57136 -0.00942 0.07423
 H216 H 0.57215 -0.01078 -0.04988
 H217 H 0.53024 0.01476 -0.22070
 H218 H 0.48621 0.01483 -0.22445
 H219 H 0.41574 -0.00583 -0.05662
 H220 H 0.42203 0.01080 0.13020
 H221 H 0.48399 0.02051 0.22510
 H222 H 0.52814 0.02119 0.22945
 C223 C 1.19345 0.48419 0.42155
 C224 C 1.19019 0.48328 0.34576
 C225 C 1.16635 0.48625 0.30969
 C226 C 1.17041 0.49655 0.23799
 C227 C 1.14779 0.49839 0.20152
 C228 C 1.12048 0.48964 0.23609
 C229 C 1.11635 0.47903 0.30745
 C230 C 1.13895 0.47733 0.34392
 C231 C 1.09527 0.48969 0.19894
 C232 C 1.09806 0.50655 0.13772
 H233 H 1.20490 0.48026 0.31031
 H234 H 1.19111 0.50306 0.20998
 H235 H 1.15156 0.50590 0.14590
 H236 H 1.09539 0.47174 0.33498
 H237 H 1.13448 0.46820 0.39808
 H238 H 1.07341 0.47648 0.22277
 H239 H 1.17962 0.49052 0.45062
 H240 H 1.11978 0.52170 0.11581
 C241 C 0.51263 0.71724 0.42147
 C242 C 0.50852 0.71259 0.34650
 C243 C 0.51256 0.68988 0.30945
 C244 C 0.49510 0.67546 0.24857
 C245 C 0.49765 0.65317 0.21419
 C246 C 0.51805 0.64510 0.23963
 C247 C 0.53618 0.66018 0.29905
 C248 C 0.53353 0.68237 0.33362
 C249 C 0.52078 0.62112 0.20560
 C250 C 0.50140 0.60354 0.15164
 H251 H 0.49927 0.72333 0.31485
 H252 H 0.47903 0.68106 0.22844
 H253 H 0.48353 0.64221 0.16796
 H254 H 0.55231 0.65465 0.31913
 H255 H 0.54810 0.69373 0.37885
 H256 H 0.53798 0.61682 0.22429
 H257 H 0.51812 0.70278 0.45033
 H258 H 0.50334 0.59003 0.13381
 C259 C 0.30016 -0.20204 0.40955
 C260 C 0.29669 -0.19724 0.33641
 C261 C 0.32179 -0.17513 0.29255
 C262 C 0.31670 -0.15873 0.24052
 C263 C 0.34019 -0.13762 0.19869
 C264 C 0.36904 -0.13311 0.20706
 C265 C 0.37391 -0.15025 0.25722
 C266 C 0.35057 -0.17086 0.30024
 C267 C 0.39425 -0.11079 0.16401
 C268 C 0.39759 -0.08331 0.14984
 H269 H 0.27484 -0.20789 0.31190
 H270 H 0.29460 -0.16198 0.23299
 H271 H 0.33572 -0.12512 0.15921
 H272 H 0.39592 -0.14730 0.26398
 H273 H 0.35495 -0.18376 0.33866
 H274 H 0.41206 -0.11486 0.14975
 H275 H 0.32146 -0.18707 0.43393
 H276 H 0.38158 -0.07796 0.17169
 C277 C 0.79653 0.49843 0.42048
 C278 C 0.79049 0.47881 0.36310
 C279 C 0.81385 0.47942 0.31578
 C280 C 0.84369 0.49228 0.33790
 C281 C 0.86526 0.49360 0.29042
 C282 C 0.85750 0.48205 0.21978
 C283 C 0.82753 0.46799 0.19895
 C284 C 0.80594 0.46675 0.24640
 C285 C 0.88013 0.48397 0.16771
 C286 C 0.90965 0.50674 0.17043
 H287 H 0.76753 0.46331 0.34969
 H288 H 0.85056 0.50106 0.39196
 H289 H 0.88790 0.50332 0.30973
 H290 H 0.82090 0.45848 0.14532
 H291 H 0.78304 0.45633 0.22833
 H292 H 0.87320 0.46765 0.12509
 H293 H 0.81930 0.51424 0.43413
 H294 H 0.91618 0.52409 0.21005
 C295 C 0.47080 0.28690 0.42818
 C296 C 0.48557 0.29953 0.36336
 C297 C 0.48285 0.32260 0.32398
 C298 C 0.49220 0.32841 0.25147
 C299 C 0.49066 0.35040 0.21267
 C300 C 0.47998 0.36730 0.24604
 C301 C 0.47038 0.36134 0.31827
 C302 C 0.47202 0.33945 0.35718
 C303 C 0.47844 0.39110 0.20731
 C304 C 0.49711 0.40647 0.14951
 H305 H 0.49983 0.29214 0.34030
 H306 H 0.50061 0.31578 0.22455
 H307 H 0.49751 0.35377 0.15645
 H308 H 0.46212 0.37410 0.34521
 H309 H 0.46535 0.33641 0.41346
 H310 H 0.46348 0.39805 0.22810
 H311 H 0.45574 0.29319 0.45126
 H312 H 0.51377 0.40132 0.13164
 C313 C 0.71199 0.20020 0.42205
 C314 C 0.71297 0.19315 0.34957
 C315 C 0.68714 0.16827 0.31381
 C316 C 0.68250 0.16969 0.23939
 C317 C 0.65815 0.14641 0.20457
 C318 C 0.63823 0.12109 0.24366
 C319 C 0.64346 0.11932 0.31755
 C320 C 0.66757 0.14270 0.35247
 C321 C 0.61248 0.09583 0.20872
 C322 C 0.59824 0.09867 0.14782
 H323 H 0.73295 0.20601 0.31793
 H324 H 0.69761 0.18896 0.20832
 H325 H 0.65536 0.14810 0.14697
 H326 H 0.62874 0.09984 0.34848
 H327 H 0.67115 0.14044 0.40938
 H328 H 0.60355 0.07445 0.23399
 H329 H 0.69124 0.18782 0.45121
 H330 H 0.60536 0.12019 0.12537
 C331 C 0.47898 0.19554 -0.42345
 C332 C 0.47755 0.19087 -0.34834
 C333 C 0.47857 0.16576 -0.31538
 C334 C 0.48911 0.16850 -0.24417
 C335 C 0.48996 0.14519 -0.21057
 C336 C 0.48013 0.11849 -0.24761
 C337 C 0.46888 0.11547 -0.31816
 C338 C 0.46814 0.13885 -0.35193
 C339 C 0.48017 0.09316 -0.21305
 C340 C 0.49970 0.09645 -0.15727
 H341 H 0.47581 0.20568 -0.31095
 H342 H 0.49673 0.18879 -0.21440
 H343 H 0.49771 0.14801 -0.15512
 H344 H 0.46065 0.09494 -0.34726
 H345 H 0.45874 0.13546 -0.40580
 H346 H 0.46483 0.07134 -0.23334
 H347 H 0.48161 0.18006 -0.45640
 H348 H 0.51664 0.11821 -0.14031
 C349 C 0.70801 0.51391 -0.43246
 C350 C 0.70721 0.51754 -0.35714
 C351 C 0.68311 0.51941 -0.31941
 C352 C 0.67839 0.51209 -0.24554
 C353 C 0.65622 0.51378 -0.20711
 C354 C 0.63819 0.52290 -0.24186
 C355 C 0.64339 0.53099 -0.31529
 C356 C 0.66561 0.52924 -0.35388
 C357 C 0.61424 0.52467 -0.20296
 C358 C 0.60048 0.50825 -0.14084
 H359 H 0.72322 0.51651 -0.32204
 H360 H 0.69192 0.50495 -0.21735
 H361 H 0.65370 0.50837 -0.15002
 H362 H 0.63012 0.53854 -0.34300
 H363 H 0.66927 0.53608 -0.41005
 H364 H 0.60592 0.53797 -0.22662
 H365 H 0.68890 0.51090 -0.46256
 H366 H 0.60676 0.49298 -0.11978
 C367 C 0.81045 0.29016 -0.41791
 C368 C 0.81168 0.29303 -0.34224
 C369 C 0.83727 0.31749 -0.30426
 C370 C 0.83254 0.32678 -0.23684
 C371 C 0.85590 0.35035 -0.20034
 C372 C 0.88461 0.36515 -0.23071
 C373 C 0.88956 0.35516 -0.29687
 C374 C 0.86619 0.33156 -0.33333
 C375 C 0.90995 0.39053 -0.19454
 C376 C 0.90654 0.40761 -0.14178
 H377 H 0.79231 0.27918 -0.30972
 H378 H 0.81059 0.31596 -0.21264
 H379 H 0.85131 0.35654 -0.14816
 H380 H 0.91157 0.36578 -0.32075
 H381 H 0.87102 0.32430 -0.38374
 H382 H 0.93219 0.39667 -0.21224
 H383 H 0.82909 0.30704 -0.44756
 H384 H 0.88460 0.40298 -0.12593
 C385 C 0.51122 -0.19187 -0.41513
 C386 C 0.50845 -0.19117 -0.33952
 C387 C 0.51244 -0.16489 -0.29981
 C388 C 0.49963 -0.16866 -0.23081
 C389 C 0.50267 -0.14457 -0.19164
 C390 C 0.51860 -0.11604 -0.22088
 C391 C 0.53221 -0.11217 -0.28885
 C392 C 0.52929 -0.13624 -0.32789
 C393 C 0.52167 -0.08987 -0.18256
 C394 C 0.50278 -0.09149 -0.12677
 H395 H 0.50106 -0.21081 -0.30762
 H396 H 0.48706 -0.19039 -0.20721
 H397 H 0.49272 -0.14855 -0.13838
 H398 H 0.54504 -0.09041 -0.31215
 H399 H 0.54062 -0.13211 -0.37939
 H400 H 0.53822 -0.06839 -0.20239
 H401 H 0.51523 -0.17242 -0.44393
 H402 H 0.48500 -0.11258 -0.10859
 C403 C 0.28201 0.47364 -0.42123
 C404 C 0.28634 0.47629 -0.34585
 C405 C 0.31163 0.47584 -0.30980
 C406 C 0.32150 0.48977 -0.24238
 C407 C 0.34530 0.49000 -0.20668
 C408 C 0.35984 0.47621 -0.23777
 C409 C 0.34938 0.46148 -0.30412
 C410 C 0.32555 0.46126 -0.33987
 C411 C 0.38533 0.47614 -0.20185
 C412 C 0.40316 0.49695 -0.15007
 H413 H 0.27249 0.48100 -0.31146
 H414 H 0.31083 0.50068 -0.21731
 H415 H 0.35181 0.50062 -0.15433
 H416 H 0.35977 0.45020 -0.32860
 H417 H 0.31787 0.44925 -0.39031
 H418 H 0.39088 0.45976 -0.21864
 H419 H 0.29919 0.47280 -0.45191
 H420 H 0.39907 0.51451 -0.13573
 C421 C 1.21904 0.70205 -0.41242
 C422 C 1.18849 0.69030 -0.40390
 C423 C 1.17028 0.66851 -0.34706
 C424 C 1.13937 0.65663 -0.34841
 C425 C 1.12125 0.63696 -0.29489
 C426 C 1.13367 0.62884 -0.23787
 C427 C 1.16446 0.64012 -0.23723
 C428 C 1.18265 0.65987 -0.29077
 C429 C 1.11487 0.60796 -0.18037
 C430 C 1.08741 0.60456 -0.16125
 H431 H 1.17746 0.69824 -0.43940
 H432 H 1.12910 0.66257 -0.39120
 H433 H 1.09748 0.62784 -0.29928
 H434 H 1.17454 0.63396 -0.19447
 H435 H 1.20627 0.66840 -0.28652
 H436 H 1.12250 0.59461 -0.15380
 H437 H 1.23111 0.69561 -0.37646
 H438 H 1.08040 0.61881 -0.18540
 C439 C 0.80118 0.51413 -0.42103
 C440 C 0.81553 0.49779 -0.42437
 C441 C 0.83899 0.50304 -0.37131
 C442 C 0.83959 0.47923 -0.33909
 C443 C 0.86094 0.48405 -0.28629
 C444 C 0.88238 0.51285 -0.26610
 C445 C 0.88224 0.53660 -0.30004
 C446 C 0.86060 0.53178 -0.35161
 C447 C 0.90635 0.51892 -0.21393
 C448 C 0.90325 0.50016 -0.15687
 H449 H 0.80694 0.47861 -0.45896
 H450 H 0.82324 0.45691 -0.35393
 H451 H 0.86102 0.46529 -0.26263
 H452 H 0.89886 0.55896 -0.28627
 H453 H 0.86093 0.55053 -0.37669
 H454 H 0.92732 0.53922 -0.22066
 H455 H 0.80651 0.52855 -0.37447
 H456 H 0.88180 0.48103 -0.14563
 C457 C 0.47979 0.28981 -0.41540
 C458 C 0.47828 0.29152 -0.33968
 C459 C 0.47864 0.31670 -0.30291
 C460 C 0.48925 0.32359 -0.23149
 C461 C 0.48939 0.34689 -0.19470
 C462 C 0.47867 0.36364 -0.22871
 C463 C 0.46739 0.35626 -0.29947
 C464 C 0.46737 0.33308 -0.33631
 C465 C 0.47802 0.38827 -0.19177
 C466 C 0.49669 0.40396 -0.13410
 H467 H 0.47672 0.27437 -0.30479
 H468 H 0.49751 0.31093 -0.20411
 H469 H 0.49736 0.35124 -0.13937
 H470 H 0.45856 0.36851 -0.32644
 H471 H 0.45786 0.32770 -0.39018
 H472 H 0.46335 0.39539 -0.21364
 H473 H 0.48264 0.30865 -0.44536
 H474 H 0.51307 0.39870 -0.11469
 C475 C 0.71865 0.19237 -0.42405
 C476 C 0.70780 0.19238 -0.35481
 C477 C 0.68438 0.16568 -0.31784
 C478 C 0.67983 0.16729 -0.24337
 C479 C 0.65727 0.14318 -0.20656
 C480 C 0.63848 0.11691 -0.24375
 C481 C 0.64333 0.11500 -0.31782
 C482 C 0.66583 0.13918 -0.35481
 C483 C 0.61368 0.09138 -0.20677
 C484 C 0.59863 0.09478 -0.14848
 H485 H 0.71659 0.21312 -0.32640
 H486 H 0.69381 0.18733 -0.21345
 H487 H 0.65476 0.14516 -0.14893
 H488 H 0.62913 0.09499 -0.34758
 H489 H 0.66792 0.13701 -0.41244
 H490 H 0.60577 0.06965 -0.22905
 H491 H 0.71044 0.17196 -0.45329
 H492 H 0.60481 0.11664 -0.13009
 C493 C 1.18850 0.47567 -0.42141
 C494 C 1.18957 0.48285 -0.34778
 C495 C 1.16404 0.48152 -0.30853
 C496 C 1.16965 0.49872 -0.24602
 C497 C 1.14637 0.49869 -0.20821
 C498 C 1.11682 0.48140 -0.23234
 C499 C 1.11112 0.46343 -0.29342
 C500 C 1.13440 0.46337 -0.33107
 C501 C 1.09141 0.48109 -0.19502
 C502 C 1.09454 0.50288 -0.14671
 H503 H 1.21058 0.49283 -0.31925
 H504 H 1.19220 0.51247 -0.22661
 H505 H 1.15181 0.51203 -0.15990
 H506 H 1.08854 0.44947 -0.31242
 H507 H 1.12891 0.44883 -0.37713
 H508 H 1.06921 0.46357 -0.20844
 H509 H 1.16797 0.46928 -0.44935
 H510 H 1.11628 0.52138 -0.13483
 C511 C 0.50653 0.71183 -0.42184
 C512 C 0.52104 0.71423 -0.35651
 C513 C 0.52032 0.68851 -0.32299
 C514 C 0.51844 0.68542 -0.24744
 C515 C 0.51735 0.66096 -0.21486
 C516 C 0.51893 0.63963 -0.25746
 C517 C 0.52177 0.64324 -0.33286
 C518 C 0.52218 0.66734 -0.36554
 C519 C 0.51820 0.61386 -0.22424
 C520 C 0.50409 0.60284 -0.15852
 H521 H 0.53296 0.73515 -0.32880
 H522 H 0.51735 0.70170 -0.21376
 H523 H 0.51567 0.65895 -0.15637
 H524 H 0.52332 0.62721 -0.36653
 H525 H 0.52442 0.66965 -0.42391
 H526 H 0.52789 0.60274 -0.25302
 H527 H 0.49340 0.69025 -0.44585
 H528 H 0.50462 0.58885 -0.13909
 C529 C 0.30256 -0.19577 -0.43272
 C530 C 0.31448 -0.19498 -0.36436
 C531 C 0.33278 -0.16739 -0.32370
 C532 C 0.33291 -0.16850 -0.24775
 C533 C 0.35011 -0.14304 -0.20719
 C534 C 0.36810 -0.11594 -0.24202
 C535 C 0.36759 -0.11474 -0.31798
 C536 C 0.35024 -0.14021 -0.35858
 C537 C 0.38843 -0.08892 -0.20120
 C538 C 0.40022 -0.08988 -0.13408
 H539 H 0.30912 -0.21533 -0.33757
 H540 H 0.31945 -0.18913 -0.21964
 H541 H 0.34911 -0.14477 -0.14870
 H542 H 0.38129 -0.09417 -0.34610
 H543 H 0.35125 -0.13858 -0.41709
 H544 H 0.39711 -0.06794 -0.22837
 H545 H 0.30774 -0.17530 -0.45846
 H546 H 0.39361 -0.11084 -0.10897
 C547 C 0.50641 -0.19200 0.42703
 C548 C 0.52131 -0.17999 0.36203
 C549 C 0.52035 -0.15547 0.32621
 C550 C 0.52038 -0.15416 0.25030
 C551 C 0.51950 -0.13110 0.21525
 C552 C 0.51920 -0.10864 0.25580
 C553 C 0.52010 -0.10949 0.33169
 C554 C 0.52039 -0.13284 0.36674
 C555 C 0.51891 -0.08372 0.22020
 C556 C 0.50363 -0.08700 0.15569
 H557 H 0.53376 -0.18884 0.33600
 H558 H 0.52078 -0.17117 0.21816
 H559 H 0.51963 -0.13058 0.15655
 H560 H 0.52029 -0.09219 0.36388
 H561 H 0.52124 -0.13286 0.42541
 H562 H 0.52942 -0.06269 0.24776
 H563 H 0.49286 -0.18376 0.44980
 H564 H 0.49034 -0.10863 0.13200
 C565 C 0.28006 0.46969 0.42116
 C566 C 0.29531 0.48759 0.36231
 C567 C 0.31890 0.48545 0.32304
 C568 C 0.32525 0.49536 0.25116
 C569 C 0.34773 0.49413 0.21276
 C570 C 0.36468 0.48339 0.24616
 C571 C 0.35829 0.47344 0.31801
 C572 C 0.33579 0.47464 0.35638
 C573 C 0.38887 0.48198 0.20775
 C574 C 0.40421 0.50014 0.14936
 H575 H 0.28964 0.50370 0.34400
 H576 H 0.31255 0.50379 0.22439
 H577 H 0.35139 0.50123 0.15680
 H578 H 0.37110 0.46518 0.34501
 H579 H 0.33224 0.46771 0.41247
 H580 H 0.39586 0.46718 0.22865
 H581 H 0.28454 0.45264 0.43799
 H582 H 0.39893 0.51645 0.13077
 C583 C 1.20655 0.70186 0.42763
 C584 C 1.19364 0.70555 0.36493
 C585 C 1.16820 0.68132 0.32643
 C586 C 1.16516 0.68429 0.25178
 C587 C 1.14101 0.66241 0.21341
 C588 C 1.11913 0.63727 0.24935
 C589 C 1.12179 0.63453 0.32433
 C590 C 1.14626 0.65624 0.36260
 C591 C 1.09306 0.61409 0.21023
 C592 C 1.09464 0.60664 0.13842
 H593 H 1.20287 0.72722 0.34135
 H594 H 1.18159 0.70364 0.22301
 H595 H 1.13918 0.66552 0.15601
 H596 H 1.10498 0.61546 0.35324
 H597 H 1.14749 0.65368 0.42050
 H598 H 1.07271 0.60090 0.24051
 H599 H 1.19727 0.68024 0.45145
 H600 H 1.11578 0.61722 0.11034
 C601 C 0.46953 0.19260 0.42078
 C602 C 0.48564 0.19542 0.35781
 C603 C 0.48328 0.17008 0.31669
 C604 C 0.49698 0.17518 0.24843
 C605 C 0.49601 0.15210 0.20861
 C606 C 0.48142 0.12336 0.23667
 C607 C 0.46749 0.11821 0.30447
 C608 C 0.46858 0.14123 0.34439
 C609 C 0.47984 0.09814 0.19723
 C610 C 0.49963 0.10086 0.14260
 H611 H 0.50123 0.21734 0.33856
 H612 H 0.50846 0.19712 0.22570
 H613 H 0.50639 0.15690 0.15574
 H614 H 0.45609 0.09627 0.32729
 H615 H 0.45826 0.13609 0.39723
 H616 H 0.46321 0.07630 0.21481
 H617 H 0.45338 0.17119 0.44109
 H618 H 0.51740 0.12229 0.12628
 C619 C 0.70378 0.50296 0.41024
 C620 C 0.68953 0.48317 0.35335
 C621 C 0.66790 0.48488 0.30399
 C622 C 0.65271 0.49967 0.32338
 C623 C 0.63302 0.50138 0.27491
 C624 C 0.62789 0.48826 0.20595
 C625 C 0.64218 0.47259 0.18758
 C626 C 0.66204 0.47099 0.23602
 C627 C 0.60671 0.48940 0.15414
 C628 C 0.60025 0.51210 0.15480
 H629 H 0.69518 0.46634 0.34289
 H630 H 0.65538 0.50947 0.37636
 H631 H 0.62132 0.51242 0.29252
 H632 H 0.63820 0.46182 0.13536
 H633 H 0.67309 0.45909 0.22005
 H634 H 0.59580 0.47182 0.11488
 H635 H 0.69903 0.52041 0.41961
 H636 H 0.61250 0.53069 0.19060
 C637 C 0.80566 0.29771 0.42680
 C638 C 0.81689 0.29685 0.35876
 C639 C 0.84143 0.32332 0.32433
 C640 C 0.84292 0.32534 0.24850
 C641 C 0.86623 0.34985 0.21452
 C642 C 0.88879 0.37258 0.25596
 C643 C 0.88775 0.37018 0.33174
 C644 C 0.86418 0.34589 0.36577
 C645 C 0.91392 0.39845 0.22114
 C646 C 0.91029 0.41028 0.15706
 H647 H 0.80765 0.27618 0.32986
 H648 H 0.82593 0.30798 0.21551
 H649 H 0.86687 0.35068 0.15586
 H650 H 0.90511 0.38723 0.36466
 H651 H 0.86419 0.34452 0.42435
 H652 H 0.93526 0.40932 0.24844
 H653 H 0.81384 0.31877 0.45308
 H654 H 0.88826 0.40131 0.13396
   
