data_POSCAR
  _audit_creation_date              2014-09-24
  _audit_creation_method            'ToBaCCo'
  _symmetry_space_group_name_H-M    'P1'
  _symmetry_Int_Tables_number       1
  _symmetry_cell_setting            triclinic
  loop_
  _symmetry_equiv_pos_as_xyz
 x,y,z
_cell_length_a 45.7144
_cell_length_b 45.7192
_cell_length_c 45.7511
_cell_angle_alpha 90.014900
_cell_angle_beta 90.015800
_cell_angle_gamma 90.016700
loop_
  _atom_site_label
  _atom_site_type_symbol
  _atom_site_fract_x
  _atom_site_fract_y
  _atom_site_fract_z
O1 O 0.32445 0.36511 0.02808
 O2 O 0.36456 0.32510 -0.02887
 O3 O 0.32433 0.36542 -0.02861
 O4 O 0.36479 0.32495 0.02783
 O5 O 0.33080 0.29072 0.02786
 O6 O 0.29015 0.33144 -0.02875
 O7 O 0.33055 0.29088 -0.02899
 O8 O 0.29025 0.33108 0.02809
 Cu9 Cu 0.34793 0.34855 -0.00040
 Cu10 Cu 0.30701 0.30760 -0.00047
 C11 C 0.30039 0.35512 0.03770
 C12 C 0.35460 0.30103 -0.03853
 C13 C 0.30016 0.35560 -0.03824
 C14 C 0.35489 0.30082 0.03738
 O15 O 0.67562 0.63494 0.02799
 O16 O 0.63553 0.67500 -0.02893
 O17 O 0.67568 0.63461 -0.02869
 O18 O 0.63537 0.67518 0.02776
 O19 O 0.66943 0.70935 0.02777
 O20 O 0.70993 0.66852 -0.02887
 O21 O 0.66960 0.70915 -0.02908
 O22 O 0.70989 0.66891 0.02798
 Cu23 Cu 0.65214 0.65154 -0.00047
 Cu24 Cu 0.69315 0.69241 -0.00057
 C25 C 0.69972 0.64490 0.03760
 C26 C 0.64552 0.69905 -0.03859
 C27 C 0.69985 0.64437 -0.03834
 C28 C 0.64532 0.69930 0.03731
 O29 O 0.63541 0.32509 1.02887
 O30 O 0.67556 0.36517 0.97201
 O31 O 0.63524 0.32498 0.97218
 O32 O 0.67560 0.36545 1.02869
 O33 O 0.70981 0.33152 1.02884
 O34 O 0.66925 0.29078 0.97216
 O35 O 0.70978 0.33117 0.97200
 O36 O 0.66945 0.29091 1.02901
 Cu37 Cu 0.65205 0.34857 1.00044
 Cu38 Cu 0.69300 0.30767 1.00052
 C39 C 0.64538 0.30103 1.03853
 C40 C 0.69964 0.35519 0.96240
 C41 C 0.64516 0.30087 0.96261
 C42 C 0.69976 0.35566 1.03834
 O43 O 0.32454 0.63473 0.97217
 O44 O 0.36478 0.67488 1.02900
 O45 O 0.32458 0.63450 1.02886
 O46 O 0.36487 0.67493 0.97230
 O47 O 0.33086 0.70913 0.97230
 O48 O 0.29036 0.66843 1.02902
 O49 O 0.33074 0.70905 1.02915
 O50 O 0.29032 0.66873 0.97218
 Cu51 Cu 0.34809 0.65137 1.00059
 Cu52 Cu 0.30714 0.69226 1.00068
 C53 C 0.30044 0.64469 0.96258
 C54 C 0.35483 0.69896 1.03864
 C55 C 0.30042 0.64429 1.03851
 C56 C 0.35494 0.69905 0.96274
 O57 O -0.02880 0.36455 0.32477
 O58 O 0.02823 0.32465 0.36489
 O59 O 0.02794 0.36494 0.32469
 O60 O -0.02850 0.32437 0.36508
 O61 O -0.02850 0.29015 0.33115
 O62 O 0.02812 0.33090 0.29052
 O63 O 0.02838 0.29041 0.33093
 O64 O -0.02877 0.33051 0.29061
 Cu65 Cu -0.00029 0.34803 0.34825
 Cu66 Cu -0.00018 0.30706 0.30738
 C67 C -0.03841 0.35453 0.30072
 C68 C 0.03792 0.30059 0.35496
 C69 C 0.03756 0.35504 0.30060
 C70 C -0.03807 0.30017 0.35527
 O71 O 0.02834 0.67508 0.63498
 O72 O -0.02874 0.63525 0.67511
 O73 O -0.02839 0.67534 0.63472
 O74 O 0.02800 0.63485 0.67526
 O75 O 0.02817 0.66894 0.70936
 O76 O -0.02840 0.70962 0.66858
 O77 O -0.02872 0.66935 0.70921
 O78 O 0.02849 0.70938 0.66889
 Cu79 Cu -0.00021 0.65172 0.65163
 Cu80 Cu -0.00011 0.69276 0.69243
 C81 C 0.03803 0.69916 0.64489
 C82 C -0.03837 0.64531 0.69913
 C83 C -0.03795 0.69956 0.64447
 C84 C 0.03761 0.64479 0.69935
 O85 O 1.02872 0.63533 0.32480
 O86 O 0.97177 0.67528 0.36498
 O87 O 0.97198 0.63502 0.32474
 O88 O 1.02849 0.67543 0.36519
 O89 O 1.02853 0.70969 0.33133
 O90 O 0.97184 0.66908 0.29062
 O91 O 0.97165 0.70955 0.33106
 O92 O 1.02874 0.66942 0.29070
 Cu93 Cu 1.00024 0.65186 0.34831
 Cu94 Cu 1.00019 0.69287 0.30751
 C95 C 1.03834 0.64536 0.30077
 C96 C 0.96210 0.69936 0.35508
 C97 C 0.96237 0.64495 0.30066
 C98 C 1.03809 0.69962 0.35542
 O99 O 0.97151 0.32473 0.63471
 O100 O 1.02846 0.36466 0.67500
 O101 O 1.02823 0.32455 0.63458
 O102 O 0.97172 0.36499 0.67499
 O103 O 0.97153 0.33091 0.70909
 O104 O 1.02821 0.29028 0.66843
 O105 O 1.02843 0.33055 0.70908
 O106 O 0.97133 0.29045 0.66861
 Cu107 Cu 0.99999 0.34814 0.65144
 Cu108 Cu 0.99986 0.30711 0.69222
 C109 C 0.96182 0.30064 0.64458
 C110 C 1.03806 0.35461 0.69905
 C111 C 1.03780 0.30035 0.64435
 C112 C 0.96209 0.35505 0.69906
 O113 O 0.36467 0.02868 0.32475
 O114 O 0.32456 -0.02831 0.36475
 O115 O 0.36494 -0.02805 0.32464
 O116 O 0.32451 0.02842 0.36508
 O117 O 0.29027 0.02852 0.33111
 O118 O 0.33096 -0.02811 0.29042
 O119 O 0.29037 -0.02837 0.33072
 O120 O 0.33064 0.02877 0.29057
 Cu121 Cu 0.34807 0.00019 0.34821
 Cu122 Cu 0.30713 0.00021 0.30727
 C123 C 0.35470 0.03834 0.30070
 C124 C 0.30050 -0.03796 0.35475
 C125 C 0.35506 -0.03762 0.30052
 C126 C 0.30037 0.03800 0.35521
 O127 O 0.63533 0.02862 0.67527
 O128 O 0.67551 -0.02835 0.63530
 O129 O 0.63512 -0.02811 0.67539
 O130 O 0.67547 0.02838 0.63489
 O131 O 0.70972 0.02858 0.66885
 O132 O 0.66911 -0.02806 0.70961
 O133 O 0.70971 -0.02830 0.66932
 O134 O 0.66938 0.02882 0.70943
 Cu135 Cu 0.65196 0.00012 0.65181
 Cu136 Cu 0.69291 0.00028 0.69273
 C137 C 0.64530 0.03833 0.69930
 C138 C 0.69959 -0.03795 0.64531
 C139 C 0.64503 -0.03763 0.69952
 C140 C 0.69960 0.03801 0.64475
 O141 O 0.32427 1.02823 0.63539
 O142 O 0.36451 0.97142 0.67552
 O143 O 0.32437 0.97150 0.63514
 O144 O 0.36466 1.02815 0.67548
 O145 O 0.33068 1.02818 0.70970
 O146 O 0.29013 0.97137 0.66909
 O147 O 0.33047 0.97129 0.70967
 O148 O 0.29009 1.02826 0.66940
 Cu149 Cu 0.34785 0.99983 0.65198
 Cu150 Cu 0.30691 0.99977 0.69289
 C151 C 0.30019 1.03785 0.64537
 C152 C 0.35454 0.96178 0.69957
 C153 C 0.30026 0.96188 0.64501
 C154 C 0.35475 1.03774 0.69958
 O155 O 0.63557 0.97185 0.32487
 O156 O 0.67580 1.02863 0.36515
 O157 O 0.63542 1.02859 0.32500
 O158 O 0.67570 0.97190 0.36528
 O159 O 0.70997 0.97185 0.33135
 O160 O 0.66943 1.02869 0.29082
 O161 O 0.70998 1.02873 0.33121
 O162 O 0.66964 0.97180 0.29075
 Cu163 Cu 0.65222 1.00024 0.34847
 Cu164 Cu 0.69318 1.00027 0.30761
 C165 C 0.64555 0.96225 0.30081
 C166 C 0.69993 1.03830 0.35530
 C167 C 0.64533 1.03821 0.30092
 C168 C 0.69983 0.96231 0.35541
 O169 O 0.86168 0.82085 0.47217
 O170 O 0.82146 0.86111 0.52906
 O171 O 0.86194 0.82077 0.52886
 O172 O 0.82141 0.86134 0.47236
 O173 O 0.78714 0.82719 0.47231
 O174 O 0.82775 0.78654 0.52887
 O175 O 0.78722 0.82693 0.52906
 O176 O 0.82746 0.78665 0.47212
 Cu177 Cu 0.84507 0.84446 0.50062
 Cu178 Cu 0.80393 0.80337 0.50060
 C179 C 0.85150 0.79683 0.46273
 C180 C 0.79741 0.85097 0.53845
 C181 C 0.85186 0.79667 0.53820
 C182 C 0.79731 0.85127 0.46299
 O183 O 0.13830 0.17912 0.47205
 O184 O 0.17844 0.13881 0.52896
 O185 O 0.13798 0.17917 0.52876
 O186 O 0.17857 0.13863 0.47226
 O187 O 0.21284 0.17278 0.47232
 O188 O 0.17218 0.21339 0.52887
 O189 O 0.21269 0.17298 0.52907
 O190 O 0.17252 0.21332 0.47211
 Cu191 Cu 0.15487 0.15549 0.50051
 Cu192 Cu 0.19602 0.19657 0.50061
 C193 C 0.14849 0.20315 0.46267
 C194 C 0.20248 0.14893 0.53840
 C195 C 0.14806 0.20326 0.53814
 C196 C 0.20268 0.14871 0.46294
 O197 O 0.13852 0.82060 0.52785
 O198 O 0.17877 0.86098 0.47108
 O199 O 0.13831 0.82063 0.47115
 O200 O 0.17879 0.86109 0.52778
 O201 O 0.21306 0.82696 0.52776
 O202 O 0.17249 0.78641 0.47107
 O203 O 0.21302 0.82682 0.47100
 O204 O 0.17274 0.78641 0.52783
 Cu205 Cu 0.15515 0.84427 0.49946
 Cu206 Cu 0.19628 0.80320 0.49940
 C207 C 0.14870 0.79656 0.53723
 C208 C 0.20283 0.85087 0.46167
 C209 C 0.14840 0.79656 0.46176
 C210 C 0.20287 0.85101 0.53715
 O211 O 0.86147 0.17897 0.52739
 O212 O 0.82119 0.13851 0.47063
 O213 O 0.86168 0.17889 0.47069
 O214 O 0.82119 0.13847 0.52733
 O215 O 0.78693 0.17260 0.52729
 O216 O 0.82750 0.21310 0.47059
 O217 O 0.78696 0.17268 0.47053
 O218 O 0.82726 0.21316 0.52735
 Cu219 Cu 0.84483 0.15527 0.49901
 Cu220 Cu 0.80370 0.19633 0.49892
 C221 C 0.85131 0.20302 0.53676
 C222 C 0.79713 0.14860 0.46122
 C223 C 0.85160 0.20296 0.46130
 C224 C 0.79711 0.14856 0.53669
 O225 O 0.47141 0.86119 0.82127
 O226 O 0.52837 0.82088 0.86138
 O227 O 0.52815 0.86141 0.82119
 O228 O 0.47162 0.82085 0.86170
 O229 O 0.47152 0.78664 0.82752
 O230 O 0.52812 0.82729 0.78692
 O231 O 0.52833 0.78670 0.82716
 O232 O 0.47132 0.82702 0.78704
 Cu233 Cu 0.49989 0.84452 0.84484
 Cu234 Cu 0.49981 0.80346 0.80371
 C235 C 0.46196 0.85106 0.79724
 C236 C 0.53777 0.79685 0.85118
 C237 C 0.53749 0.85136 0.79709
 C238 C 0.46223 0.79676 0.85162
 O239 O 0.52845 0.17927 0.13891
 O240 O 0.47153 0.13898 0.17911
 O241 O 0.47170 0.17922 0.13858
 O242 O 0.52828 0.13885 0.17923
 O243 O 0.52822 0.17307 0.21341
 O244 O 0.47158 0.21352 0.17268
 O245 O 0.47142 0.17323 0.21325
 O246 O 0.52839 0.21354 0.17304
 Cu247 Cu 0.50000 0.15563 0.15552
 Cu248 Cu 0.49989 0.19680 0.19654
 C249 C 0.53782 0.20333 0.14904
 C250 C 0.46207 0.14916 0.20311
 C251 C 0.46230 0.20332 0.14860
 C252 C 0.53761 0.14898 0.20330
 O253 O 0.52850 0.13896 0.82096
 O254 O 0.47167 0.17929 0.86122
 O255 O 0.47176 0.13879 0.82098
 O256 O 0.52841 0.17925 0.86145
 O257 O 0.52847 0.21349 0.82731
 O258 O 0.47175 0.17294 0.78676
 O259 O 0.47166 0.21350 0.82705
 O260 O 0.52856 0.17315 0.78678
 Cu261 Cu 0.50009 0.15563 0.84460
 Cu262 Cu 0.50012 0.19673 0.80352
 C263 C 0.53791 0.14910 0.79694
 C264 C 0.46226 0.20333 0.85107
 C265 C 0.46238 0.14888 0.79692
 C266 C 0.53780 0.20333 0.85138
 O267 O 0.47197 0.82107 0.13864
 O268 O 0.52884 0.86153 0.17882
 O269 O 0.52872 0.82117 0.13837
 O270 O 0.47209 0.86161 0.17886
 O271 O 0.47216 0.82749 0.21312
 O272 O 0.52885 0.78696 0.17253
 O273 O 0.52896 0.82737 0.21304
 O274 O 0.47204 0.78689 0.17284
 Cu275 Cu 0.50040 0.84479 0.15523
 Cu276 Cu 0.50052 0.80373 0.19634
 C277 C 0.46260 0.79702 0.14882
 C278 C 0.53828 0.85143 0.20285
 C279 C 0.53813 0.79710 0.14844
 C280 C 0.46276 0.85153 0.20295
 O281 O 0.86113 0.52880 0.82098
 O282 O 0.82110 0.47183 0.86134
 O283 O 0.86145 0.47206 0.82093
 O284 O 0.82091 0.52856 0.86153
 O285 O 0.78657 0.52849 0.82748
 O286 O 0.82718 0.47193 0.78681
 O287 O 0.78678 0.47170 0.82726
 O288 O 0.82683 0.52873 0.78688
 Cu289 Cu 0.84461 0.50032 0.84463
 Cu290 Cu 0.80338 0.50020 0.80366
 C291 C 0.85088 0.53817 0.79698
 C292 C 0.79705 0.46236 0.85127
 C293 C 0.85132 0.46265 0.79689
 C294 C 0.79677 0.53786 0.85152
 O295 O 0.13887 0.52881 0.17892
 O296 O 0.17892 0.47182 0.13862
 O297 O 0.13848 0.47207 0.17894
 O298 O 0.17917 0.52855 0.13846
 O299 O 0.21344 0.52846 0.17258
 O300 O 0.17268 0.47192 0.21314
 O301 O 0.21317 0.47167 0.17277
 O302 O 0.17309 0.52872 0.21310
 Cu303 Cu 0.15541 0.50032 0.15529
 Cu304 Cu 0.19655 0.50018 0.19635
 C305 C 0.14907 0.53817 0.20295
 C306 C 0.20294 0.46233 0.14874
 C307 C 0.14855 0.46266 0.20300
 C308 C 0.20330 0.53784 0.14852
 O309 O 0.86117 0.47121 0.17892
 O310 O 0.82112 0.52815 0.13856
 O311 O 0.86152 0.52795 0.17893
 O312 O 0.82091 0.47141 0.13842
 O313 O 0.78661 0.47150 0.17250
 O314 O 0.82729 0.52810 0.21308
 O315 O 0.78684 0.52829 0.17267
 O316 O 0.82692 0.47130 0.21306
 Cu317 Cu 0.84464 0.49967 0.15527
 Cu318 Cu 0.80346 0.49981 0.19627
 C319 C 0.85095 0.46184 0.20293
 C320 C 0.79708 0.53763 0.14865
 C321 C 0.85141 0.53738 0.20297
 C322 C 0.79678 0.46212 0.14846
 O323 O 0.17870 0.52799 0.86165
 O324 O 0.13857 0.47108 0.82123
 O325 O 0.17884 0.47125 0.86176
 O326 O 0.13829 0.52782 0.82126
 O327 O 0.17252 0.52796 0.78711
 O328 O 0.21314 0.47133 0.82768
 O329 O 0.17282 0.47116 0.78710
 O330 O 0.21298 0.52812 0.82754
 Cu331 Cu 0.15515 0.49952 0.84491
 Cu332 Cu 0.19632 0.49965 0.80391
 C333 C 0.20275 0.53745 0.85157
 C334 C 0.14877 0.46172 0.79720
 C335 C 0.20297 0.46195 0.85172
 C336 C 0.14840 0.53724 0.79722
 C337 C 0.25099 0.40620 0.09900
 C338 C 0.23973 0.37967 0.08869
 C339 C 0.25605 0.36262 0.06922
 C340 C 0.28381 0.37202 0.05977
 C341 C 0.29514 0.39845 0.07075
 C342 C 0.27881 0.41540 0.09021
 C343 C 0.23360 0.42488 0.11739
 C344 C 0.21938 0.44147 0.13210
 H345 H 0.21816 0.37241 0.09528
 H346 H 0.24671 0.34240 0.06114
 H347 H 0.31642 0.40630 0.06395
 H348 H 0.28769 0.43595 0.09799
 C349 C 0.74908 0.59377 0.09889
 C350 C 0.76038 0.62027 0.08856
 C351 C 0.74407 0.63734 0.06910
 C352 C 0.71629 0.62798 0.05966
 C353 C 0.70492 0.60158 0.07065
 C354 C 0.72123 0.58461 0.09010
 C355 C 0.76645 0.57508 0.11728
 C356 C 0.78066 0.55848 0.13199
 H357 H 0.78197 0.62750 0.09515
 H358 H 0.75344 0.65753 0.06102
 H359 H 0.68362 0.59376 0.06386
 H360 H 0.71232 0.56408 0.09789
 C361 C 0.74902 0.40627 0.90108
 C362 C 0.72121 0.41547 0.90990
 C363 C 0.70490 0.39853 0.92937
 C364 C 0.71622 0.37210 0.94034
 C365 C 0.74397 0.36271 0.93087
 C366 C 0.76028 0.37975 0.91139
 C367 C 0.76640 0.42493 0.88267
 C368 C 0.78062 0.44151 0.86794
 H369 H 0.71234 0.43602 0.90213
 H370 H 0.68362 0.40638 0.93619
 H371 H 0.75330 0.34249 0.93894
 H372 H 0.78185 0.37249 0.90478
 C373 C 0.25090 0.59351 0.90139
 C374 C 0.23969 0.62008 0.91167
 C375 C 0.25606 0.63715 0.93111
 C376 C 0.28381 0.62774 0.94056
 C377 C 0.29508 0.60128 0.92963
 C378 C 0.27871 0.58431 0.91021
 C379 C 0.23348 0.57485 0.88299
 C380 C 0.21923 0.55827 0.86826
 H381 H 0.21813 0.62735 0.90506
 H382 H 0.24676 0.65739 0.93914
 H383 H 0.31636 0.59341 0.93644
 H384 H 0.28756 0.56373 0.90246
 C385 C 0.09905 0.25127 0.40634
 C386 C 0.08885 0.23998 0.37979
 C387 C 0.06945 0.25628 0.36264
 C388 C 0.05997 0.28405 0.37195
 C389 C 0.07085 0.29541 0.39839
 C390 C 0.09023 0.27911 0.41544
 C391 C 0.11733 0.23388 0.42511
 C392 C 0.13195 0.21964 0.44178
 H393 H 0.09547 0.21839 0.37260
 H394 H 0.06146 0.24692 0.34241
 H395 H 0.06402 0.31671 0.40618
 H396 H 0.09793 0.28801 0.43601
 C397 C 0.09920 0.74843 0.59350
 C398 C 0.09035 0.72059 0.58441
 C399 C 0.07096 0.70429 0.60147
 C400 C 0.06009 0.71567 0.62790
 C401 C 0.06960 0.74345 0.63720
 C402 C 0.08901 0.75974 0.62004
 C403 C 0.11749 0.76581 0.57473
 C404 C 0.13213 0.78006 0.55809
 H405 H 0.09804 0.71167 0.56385
 H406 H 0.06411 0.68300 0.59369
 H407 H 0.06161 0.75283 0.65741
 H408 H 0.09564 0.78133 0.62722
 C409 C 0.90100 0.74872 0.40645
 C410 C 0.91121 0.76000 0.37991
 C411 C 0.93060 0.74368 0.36276
 C412 C 0.94008 0.71591 0.37207
 C413 C 0.92920 0.70457 0.39851
 C414 C 0.90982 0.72088 0.41555
 C415 C 0.88271 0.76611 0.42521
 C416 C 0.86807 0.78035 0.44186
 H417 H 0.90459 0.78159 0.37272
 H418 H 0.93859 0.75304 0.34254
 H419 H 0.93603 0.68327 0.40629
 H420 H 0.90213 0.71199 0.43611
 C421 C 0.90080 0.25124 0.59305
 C422 C 0.90967 0.27906 0.58395
 C423 C 0.92902 0.29540 0.60104
 C424 C 0.93982 0.28408 0.62753
 C425 C 0.93029 0.25632 0.63683
 C426 C 0.91093 0.23999 0.61964
 C427 C 0.88252 0.23383 0.57426
 C428 C 0.86789 0.21956 0.55761
 H429 H 0.90204 0.28794 0.56335
 H430 H 0.93589 0.31668 0.59325
 H431 H 0.93822 0.24698 0.65708
 H432 H 0.90428 0.21841 0.62683
 C433 C 0.40593 0.09952 0.25127
 C434 C 0.37933 0.08930 0.24007
 C435 C 0.36224 0.06988 0.25641
 C436 C 0.37165 0.06039 0.28413
 C437 C 0.39814 0.07128 0.29540
 C438 C 0.41514 0.09069 0.27906
 C439 C 0.42463 0.11786 0.23386
 C440 C 0.44123 0.13254 0.21960
 H441 H 0.37206 0.09593 0.21853
 H442 H 0.34197 0.06187 0.24711
 H443 H 0.40601 0.06444 0.31665
 H444 H 0.43574 0.09840 0.28789
 C445 C 0.59402 0.09946 0.74874
 C446 C 0.58478 0.09055 0.72098
 C447 C 0.60180 0.07116 0.70463
 C448 C 0.62833 0.06036 0.71587
 C449 C 0.63777 0.06992 0.74356
 C450 C 0.62066 0.08933 0.75991
 C451 C 0.57532 0.11779 0.76616
 C452 C 0.55873 0.13247 0.78043
 H453 H 0.56415 0.09819 0.71217
 H454 H 0.59391 0.06426 0.68340
 H455 H 0.65806 0.06199 0.75284
 H456 H 0.62796 0.09601 0.78143
 C457 C 0.40582 0.90071 0.74909
 C458 C 0.41505 0.90957 0.72132
 C459 C 0.39805 0.92895 0.70495
 C460 C 0.37153 0.93979 0.71618
 C461 C 0.36210 0.93028 0.74389
 C462 C 0.37920 0.91089 0.76025
 C463 C 0.42452 0.88238 0.76652
 C464 C 0.44112 0.86770 0.78077
 H465 H 0.43567 0.90190 0.71251
 H466 H 0.40593 0.93580 0.68371
 H467 H 0.34182 0.93824 0.75316
 H468 H 0.37192 0.90424 0.78178
 C469 C 0.59431 0.90121 0.25111
 C470 C 0.58505 0.91004 0.27888
 C471 C 0.60204 0.92941 0.29530
 C472 C 0.62858 0.94028 0.28413
 C473 C 0.63803 0.93080 0.25641
 C474 C 0.62094 0.91141 0.24000
 C475 C 0.57565 0.88285 0.23364
 C476 C 0.55908 0.86813 0.21936
 H477 H 0.56442 0.90234 0.28766
 H478 H 0.59413 0.93624 0.31654
 H479 H 0.65833 0.93878 0.24718
 H480 H 0.62826 0.90479 0.21847
 C481 C 0.40598 0.25154 0.90050
 C482 C 0.37940 0.24029 0.91069
 C483 C 0.36224 0.25666 0.93003
 C484 C 0.37159 0.28444 0.93948
 C485 C 0.39807 0.29575 0.92861
 C486 C 0.41512 0.27938 0.90928
 C487 C 0.42475 0.23410 0.88225
 C488 C 0.44139 0.21983 0.86763
 H489 H 0.37218 0.21870 0.90410
 H490 H 0.34199 0.24733 0.93802
 H491 H 0.40588 0.31705 0.93542
 H492 H 0.43571 0.28825 0.90159
 C493 C 0.59412 0.74860 0.90049
 C494 C 0.58497 0.72076 0.90926
 C495 C 0.60203 0.70438 0.92856
 C496 C 0.62853 0.71566 0.93943
 C497 C 0.63789 0.74343 0.93000
 C498 C 0.62073 0.75982 0.91068
 C499 C 0.57534 0.76606 0.88228
 C500 C 0.55868 0.78035 0.86770
 H501 H 0.56436 0.71192 0.90158
 H502 H 0.59420 0.68308 0.93536
 H503 H 0.65816 0.75274 0.93798
 H504 H 0.62796 0.78141 0.90410
 C505 C 0.40632 0.74864 0.09945
 C506 C 0.41549 0.72081 0.09065
 C507 C 0.39841 0.70439 0.07138
 C508 C 0.37186 0.71561 0.06058
 C509 C 0.36249 0.74337 0.07004
 C510 C 0.37967 0.75980 0.08933
 C511 C 0.42510 0.76613 0.11767
 C512 C 0.44174 0.78045 0.13227
 H513 H 0.43613 0.71201 0.09829
 H514 H 0.40625 0.68311 0.06456
 H515 H 0.34219 0.75264 0.06210
 H516 H 0.37242 0.78137 0.09593
 C517 C 0.59406 0.25153 0.09956
 C518 C 0.58489 0.27935 0.09075
 C519 C 0.60192 0.29571 0.07139
 C520 C 0.62841 0.28443 0.06053
 C521 C 0.63778 0.25668 0.07000
 C522 C 0.62066 0.24032 0.08937
 C523 C 0.57532 0.23410 0.11784
 C524 C 0.55869 0.21983 0.13247
 H525 H 0.56429 0.28820 0.09843
 H526 H 0.59408 0.31699 0.06457
 H527 H 0.65804 0.24737 0.06202
 H528 H 0.62790 0.21875 0.09598
 C529 C 0.25068 0.09913 0.59435
 C530 C 0.27845 0.09027 0.58509
 C531 C 0.29482 0.07081 0.60201
 C532 C 0.28357 0.05989 0.62847
 C533 C 0.25585 0.06938 0.63792
 C534 C 0.23949 0.08886 0.62091
 C535 C 0.23325 0.11753 0.57573
 C536 C 0.21898 0.13227 0.55919
 H537 H 0.28727 0.09802 0.56452
 H538 H 0.31607 0.06398 0.59411
 H539 H 0.24657 0.06136 0.65816
 H540 H 0.21795 0.09549 0.62822
 C541 C 0.74875 0.09860 0.40551
 C542 C 0.75946 0.08904 0.37852
 C543 C 0.74309 0.06954 0.36153
 C544 C 0.71574 0.05918 0.37142
 C545 C 0.70498 0.06954 0.39840
 C546 C 0.72139 0.08903 0.41526
 C547 C 0.76624 0.11708 0.42404
 C548 C 0.78057 0.13187 0.44050
 H549 H 0.78067 0.09627 0.37081
 H550 H 0.75216 0.06221 0.34092
 H551 H 0.68407 0.06227 0.40683
 H552 H 0.71292 0.09626 0.43617
 C553 C 0.74914 0.90072 0.59437
 C554 C 0.76032 0.91105 0.62092
 C555 C 0.74395 0.93053 0.63791
 C556 C 0.71621 0.93998 0.62845
 C557 C 0.70496 0.92898 0.60201
 C558 C 0.72134 0.90952 0.58511
 C559 C 0.76659 0.88233 0.57577
 C560 C 0.78088 0.86762 0.55923
 H561 H 0.78188 0.90446 0.62824
 H562 H 0.75323 0.93860 0.65814
 H563 H 0.68370 0.93579 0.59410
 H564 H 0.71252 0.90173 0.56454
 C565 C 0.25104 0.90069 0.40575
 C566 C 0.27883 0.90955 0.41500
 C567 C 0.29518 0.92902 0.39808
 C568 C 0.28391 0.93995 0.37163
 C569 C 0.25618 0.93044 0.36218
 C570 C 0.23984 0.91095 0.37919
 C571 C 0.23361 0.88228 0.42437
 C572 C 0.21934 0.86755 0.44090
 H573 H 0.28766 0.90181 0.43557
 H574 H 0.31643 0.93588 0.40598
 H575 H 0.24689 0.93847 0.34194
 H576 H 0.21829 0.90431 0.37188
 C577 C 0.09922 0.40566 0.74877
 C578 C 0.09047 0.41492 0.72097
 C579 C 0.07108 0.39798 0.70454
 C580 C 0.06010 0.37150 0.71572
 C581 C 0.06950 0.36204 0.74346
 C582 C 0.08891 0.37907 0.75990
 C583 C 0.11753 0.42432 0.76628
 C584 C 0.13219 0.44090 0.78062
 H585 H 0.09825 0.43551 0.71220
 H586 H 0.06431 0.40589 0.68327
 H587 H 0.06142 0.34178 0.75270
 H588 H 0.09546 0.37177 0.78145
 C589 C 0.09956 0.59431 0.25123
 C590 C 0.09080 0.58509 0.27903
 C591 C 0.07138 0.60203 0.29540
 C592 C 0.06040 0.62848 0.28415
 C593 C 0.06983 0.63791 0.25642
 C594 C 0.08926 0.62087 0.24004
 C595 C 0.11788 0.57563 0.23377
 C596 C 0.13252 0.55903 0.21948
 H597 H 0.09857 0.56451 0.28784
 H598 H 0.06460 0.59415 0.31667
 H599 H 0.06176 0.65815 0.24714
 H600 H 0.09583 0.62815 0.21849
 C601 C 0.90039 0.40564 0.25121
 C602 C 0.90910 0.41481 0.27905
 C603 C 0.92851 0.39784 0.29542
 C604 C 0.93952 0.37142 0.28412
 C605 C 0.93014 0.36204 0.25634
 C606 C 0.91073 0.37911 0.23997
 C607 C 0.88210 0.42435 0.23376
 C608 C 0.86748 0.44097 0.21947
 H609 H 0.90130 0.43536 0.28791
 H610 H 0.93525 0.40568 0.31672
 H611 H 0.93825 0.34184 0.24702
 H612 H 0.90420 0.37188 0.21838
 C613 C 0.90036 0.59431 0.74867
 C614 C 0.91070 0.62087 0.75986
 C615 C 0.93014 0.63790 0.74348
 C616 C 0.93954 0.62846 0.71574
 C617 C 0.92852 0.60202 0.70448
 C618 C 0.90908 0.58509 0.72086
 C619 C 0.88205 0.57563 0.76614
 C620 C 0.86742 0.55903 0.78044
 H621 H 0.90416 0.62815 0.78143
 H622 H 0.93825 0.65812 0.75277
 H623 H 0.93528 0.59413 0.68321
 H624 H 0.90128 0.56452 0.71203
 C625 C 0.74854 0.59371 0.90160
 C626 C 0.75935 0.62073 0.91109
 C627 C 0.74304 0.63785 0.93052
 C628 C 0.71566 0.62809 0.94089
 C629 C 0.70481 0.60107 0.93063
 C630 C 0.72115 0.58408 0.91121
 C631 C 0.76594 0.57508 0.88311
 C632 C 0.78020 0.55857 0.86829
 H633 H 0.78058 0.62836 0.90382
 H634 H 0.75218 0.65848 0.93777
 H635 H 0.68387 0.59272 0.93792
 H636 H 0.71260 0.56316 0.90405
 C637 C 0.25131 0.40615 0.90173
 C638 C 0.27869 0.41583 0.91133
 C639 C 0.29509 0.39888 0.93073
 C640 C 0.28431 0.37185 0.94100
 C641 C 0.25692 0.36203 0.93066
 C642 C 0.24056 0.37912 0.91123
 C643 C 0.23386 0.42474 0.88326
 C644 C 0.21956 0.44124 0.86846
 H645 H 0.28720 0.43676 0.90416
 H646 H 0.31603 0.40726 0.93800
 H647 H 0.24783 0.34139 0.93792
 H648 H 0.21933 0.37145 0.90399
 C649 C 0.25166 0.59368 0.09857
 C650 C 0.27905 0.58404 0.08897
 C651 C 0.29541 0.60102 0.06957
 C652 C 0.28460 0.62803 0.05930
 C653 C 0.25722 0.63782 0.06966
 C654 C 0.24088 0.62071 0.08908
 C655 C 0.23422 0.57506 0.11702
 C656 C 0.21992 0.55855 0.13180
 H657 H 0.28757 0.56312 0.09613
 H658 H 0.31635 0.59266 0.06229
 H659 H 0.24811 0.65844 0.06240
 H660 H 0.21966 0.62835 0.09632
 C661 C 0.74849 0.40624 0.09845
 C662 C 0.72111 0.41588 0.08885
 C663 C 0.70475 0.39891 0.06942
 C664 C 0.71558 0.37191 0.05913
 C665 C 0.74296 0.36213 0.06949
 C666 C 0.75928 0.37923 0.08894
 C667 C 0.76591 0.42487 0.11693
 C668 C 0.78019 0.44139 0.13172
 H669 H 0.71257 0.43680 0.09603
 H670 H 0.68381 0.40727 0.06214
 H671 H 0.75208 0.34151 0.06222
 H672 H 0.78051 0.37160 0.09620
 C673 C 0.90195 0.74836 0.59394
 C674 C 0.91154 0.75916 0.62091
 C675 C 0.93099 0.74282 0.63799
 C676 C 0.94128 0.71541 0.62823
 C677 C 0.93092 0.70457 0.60126
 C678 C 0.91149 0.72095 0.58432
 C679 C 0.88344 0.76578 0.57536
 C680 C 0.86862 0.78007 0.55888
 H681 H 0.90434 0.78041 0.62854
 H682 H 0.93832 0.75195 0.65858
 H683 H 0.93814 0.68361 0.59292
 H684 H 0.90425 0.71240 0.56344
 C685 C 0.90175 0.25129 0.40562
 C686 C 0.91130 0.27868 0.41531
 C687 C 0.93076 0.29508 0.39842
 C688 C 0.94113 0.28430 0.37145
 C689 C 0.93084 0.25690 0.36163
 C690 C 0.91136 0.24053 0.37865
 C691 C 0.88322 0.23384 0.42415
 C692 C 0.86838 0.21954 0.44061
 H693 H 0.90405 0.28720 0.43619
 H694 H 0.93799 0.31603 0.40681
 H695 H 0.93818 0.24780 0.34104
 H696 H 0.90416 0.21929 0.37098
 C697 C 0.09795 0.25156 0.59388
 C698 C 0.08842 0.27897 0.58426
 C699 C 0.06898 0.29535 0.60119
 C700 C 0.05860 0.28451 0.62813
 C701 C 0.06887 0.25709 0.63789
 C702 C 0.08833 0.24075 0.62083
 C703 C 0.11646 0.23413 0.57530
 C704 C 0.13128 0.21984 0.55882
 H705 H 0.09568 0.28752 0.56339
 H706 H 0.06177 0.31631 0.59285
 H707 H 0.06152 0.24795 0.65846
 H708 H 0.09552 0.21950 0.62845
 C709 C 0.09832 0.74833 0.40591
 C710 C 0.08875 0.72092 0.41553
 C711 C 0.06928 0.70458 0.39859
 C712 C 0.05891 0.71544 0.37165
 C713 C 0.06924 0.74284 0.36189
 C714 C 0.08873 0.75915 0.37896
 C715 C 0.11683 0.76573 0.42451
 C716 C 0.13165 0.78000 0.44102
 H717 H 0.09599 0.71236 0.43640
 H718 H 0.06203 0.68362 0.40692
 H719 H 0.06190 0.75199 0.34132
 H720 H 0.09595 0.78040 0.37135
 C721 C 0.59355 0.90131 0.74901
 C722 C 0.62010 0.91161 0.76029
 C723 C 0.63725 0.93103 0.74397
 C724 C 0.62796 0.94044 0.71618
 C725 C 0.60149 0.92952 0.70486
 C726 C 0.58444 0.91012 0.72118
 C727 C 0.57483 0.88287 0.76635
 C728 C 0.55825 0.86809 0.78057
 H729 H 0.62731 0.90502 0.78186
 H730 H 0.65748 0.93905 0.75332
 H731 H 0.59370 0.93629 0.68356
 H732 H 0.56389 0.90237 0.71227
 C733 C 0.40662 0.90139 0.25104
 C734 C 0.41573 0.91025 0.27886
 C735 C 0.39865 0.92963 0.29518
 C736 C 0.37216 0.94047 0.28387
 C737 C 0.36286 0.93100 0.25609
 C738 C 0.38004 0.91161 0.23977
 C739 C 0.42536 0.88298 0.23370
 C740 C 0.44196 0.86823 0.21948
 H741 H 0.43630 0.90256 0.28776
 H742 H 0.40644 0.93645 0.31647
 H743 H 0.34261 0.93896 0.24675
 H744 H 0.37283 0.90497 0.21821
 C745 C 0.59379 0.09923 0.25148
 C746 C 0.62037 0.08903 0.24022
 C747 C 0.63755 0.06964 0.25654
 C748 C 0.62826 0.06016 0.28430
 C749 C 0.60177 0.07100 0.29561
 C750 C 0.58468 0.09037 0.27929
 C751 C 0.57502 0.11761 0.23412
 C752 C 0.55841 0.13233 0.21987
 H753 H 0.62758 0.09566 0.21866
 H754 H 0.65780 0.06168 0.24720
 H755 H 0.59397 0.06418 0.31689
 H756 H 0.56410 0.09806 0.28818
 C757 C 0.40620 0.09896 0.74891
 C758 C 0.37969 0.08865 0.76024
 C759 C 0.36254 0.06919 0.74396
 C760 C 0.37180 0.05973 0.71618
 C761 C 0.39823 0.07068 0.70481
 C762 C 0.41528 0.09012 0.72108
 C763 C 0.42495 0.11741 0.76622
 C764 C 0.44156 0.13218 0.78041
 H765 H 0.37251 0.09527 0.78181
 H766 H 0.34233 0.06115 0.75335
 H767 H 0.40599 0.06388 0.68351
 H768 H 0.43581 0.09788 0.71214
 C769 C 0.59405 0.74891 0.09842
 C770 C 0.62063 0.76012 0.08816
 C771 C 0.63771 0.74376 0.06872
 C772 C 0.62831 0.71601 0.05924
 C773 C 0.60180 0.70476 0.07013
 C774 C 0.58482 0.72112 0.08955
 C775 C 0.57540 0.76631 0.11690
 C776 C 0.55887 0.78056 0.13170
 H777 H 0.62793 0.78167 0.09480
 H778 H 0.65798 0.75305 0.06073
 H779 H 0.59393 0.68348 0.06331
 H780 H 0.56424 0.71226 0.09727
 C781 C 0.40633 0.25136 0.09849
 C782 C 0.41550 0.27916 0.08959
 C783 C 0.39847 0.29547 0.07016
 C784 C 0.37197 0.28417 0.05931
 C785 C 0.36262 0.25641 0.06882
 C786 C 0.37975 0.24010 0.08826
 C787 C 0.42501 0.23403 0.11698
 C788 C 0.44155 0.21982 0.13181
 H789 H 0.43608 0.28805 0.09729
 H790 H 0.40631 0.31674 0.06332
 H791 H 0.34236 0.24708 0.06085
 H792 H 0.37249 0.21856 0.09492
 C793 C 0.59382 0.25143 0.90139
 C794 C 0.58467 0.27924 0.91027
 C795 C 0.60167 0.29554 0.92973
 C796 C 0.62813 0.28423 0.94064
 C797 C 0.63748 0.25647 0.93115
 C798 C 0.62037 0.24016 0.91167
 C799 C 0.57514 0.23409 0.88291
 C800 C 0.55857 0.21986 0.86811
 H801 H 0.56411 0.28814 0.90253
 H802 H 0.59385 0.31683 0.93655
 H803 H 0.65771 0.24712 0.93916
 H804 H 0.62761 0.21860 0.90502
 C805 C 0.40628 0.74857 0.90161
 C806 C 0.41546 0.72077 0.91048
 C807 C 0.39846 0.70443 0.92990
 C808 C 0.37197 0.71571 0.94079
 C809 C 0.36261 0.74347 0.93131
 C810 C 0.37971 0.75980 0.91187
 C811 C 0.42496 0.76594 0.88315
 C812 C 0.44150 0.78019 0.86836
 H813 H 0.43604 0.71189 0.90276
 H814 H 0.40630 0.68316 0.93673
 H815 H 0.34236 0.75278 0.93930
 H816 H 0.37245 0.78135 0.90523
 C817 C 0.74923 0.90121 0.40690
 C818 C 0.72139 0.91007 0.41598
 C819 C 0.70510 0.92947 0.39892
 C820 C 0.71645 0.94035 0.37247
 C821 C 0.74424 0.93086 0.36321
 C822 C 0.76054 0.91144 0.38037
 C823 C 0.76657 0.88277 0.42563
 C824 C 0.78078 0.86800 0.44222
 H825 H 0.71246 0.90236 0.43652
 H826 H 0.68379 0.93630 0.40669
 H827 H 0.75361 0.93885 0.34299
 H828 H 0.78212 0.90481 0.37318
 C829 C 0.25089 0.90081 0.59341
 C830 C 0.23956 0.91104 0.61993
 C831 C 0.25585 0.93044 0.63714
 C832 C 0.28365 0.93992 0.62792
 C833 C 0.29504 0.92905 0.60148
 C834 C 0.27875 0.90967 0.58438
 C835 C 0.23357 0.88242 0.57462
 C836 C 0.21937 0.86768 0.55798
 H837 H 0.21796 0.90440 0.62708
 H838 H 0.24645 0.93842 0.65735
 H839 H 0.31636 0.93588 0.59375
 H840 H 0.28771 0.90197 0.56384
 C841 C 0.25083 0.09888 0.40683
 C842 C 0.23957 0.08871 0.38024
 C843 C 0.25591 0.06936 0.36305
 C844 C 0.28370 0.05988 0.37233
 C845 C 0.29500 0.07069 0.39883
 C846 C 0.27866 0.09002 0.41593
 C847 C 0.23346 0.11727 0.42558
 C848 C 0.21922 0.13201 0.44217
 H849 H 0.21799 0.09535 0.37303
 H850 H 0.24658 0.06142 0.34278
 H851 H 0.31631 0.06386 0.40662
 H852 H 0.28756 0.09768 0.43651
 C853 C 0.74905 0.09885 0.59298
 C854 C 0.72120 0.08996 0.58394
 C855 C 0.70489 0.07064 0.60109
 C856 C 0.71623 0.05988 0.62759
 C857 C 0.74404 0.06939 0.63681
 C858 C 0.76035 0.08872 0.61956
 C859 C 0.76639 0.11720 0.57417
 C860 C 0.78060 0.13190 0.55752
 H861 H 0.71227 0.09758 0.56337
 H862 H 0.68357 0.06380 0.59335
 H863 H 0.75341 0.06150 0.65706
 H864 H 0.78194 0.09538 0.62672
 C865 C 0.90135 0.59344 0.25112
 C866 C 0.91153 0.62005 0.23991
 C867 C 0.93093 0.63721 0.25625
 C868 C 0.94045 0.62787 0.28399
 C869 C 0.92963 0.60134 0.29524
 C870 C 0.91025 0.58428 0.27890
 C871 C 0.88292 0.57472 0.23374
 C872 C 0.86815 0.55814 0.21951
 H873 H 0.90486 0.62731 0.21837
 H874 H 0.93887 0.65750 0.24696
 H875 H 0.93648 0.59350 0.31650
 H876 H 0.90258 0.56367 0.28775
 C877 C 0.90118 0.40661 0.74865
 C878 C 0.91011 0.41580 0.72089
 C879 C 0.92945 0.39873 0.70453
 C880 C 0.94020 0.37215 0.71574
 C881 C 0.93065 0.36278 0.74345
 C882 C 0.91129 0.37995 0.75981
 C883 C 0.88278 0.42533 0.76605
 C884 C 0.86803 0.44190 0.78031
 H885 H 0.90250 0.43643 0.71207
 H886 H 0.93633 0.40658 0.68329
 H887 H 0.93853 0.34246 0.75272
 H888 H 0.90460 0.37267 0.78133
 C889 C 0.09849 0.59325 0.74901
 C890 C 0.08955 0.58403 0.72124
 C891 C 0.07021 0.60110 0.70487
 C892 C 0.05947 0.62768 0.71606
 C893 C 0.06901 0.63707 0.74378
 C894 C 0.08837 0.61991 0.76016
 C895 C 0.11690 0.57455 0.76641
 C896 C 0.13166 0.55799 0.78067
 H897 H 0.09717 0.56340 0.71243
 H898 H 0.06334 0.59323 0.68362
 H899 H 0.06113 0.65740 0.75303
 H900 H 0.09506 0.62721 0.78168
 C901 C 0.09853 0.40664 0.25111
 C902 C 0.08956 0.41583 0.27886
 C903 C 0.07019 0.39875 0.29518
 C904 C 0.05945 0.37217 0.28394
 C905 C 0.06903 0.36281 0.25623
 C906 C 0.08842 0.37999 0.23991
 C907 C 0.11698 0.42536 0.23376
 C908 C 0.13177 0.44192 0.21953
 H909 H 0.09717 0.43646 0.28771
 H910 H 0.06329 0.40660 0.31642
 H911 H 0.06116 0.34250 0.24694
 H912 H 0.09514 0.37272 0.21840
   
