data_POSCAR
  _audit_creation_date              2014-09-24
  _audit_creation_method            'ToBaCCo'
  _symmetry_space_group_name_H-M    'P1'
  _symmetry_Int_Tables_number       1
  _symmetry_cell_setting            triclinic
  loop_
  _symmetry_equiv_pos_as_xyz
 x,y,z
_cell_length_a 44.2264
_cell_length_b 25.7919
_cell_length_c 15.7227
_cell_angle_alpha 90.054000
_cell_angle_beta 89.902000
_cell_angle_gamma 90.212500
loop_
  _atom_site_label
  _atom_site_type_symbol
  _atom_site_fract_x
  _atom_site_fract_y
  _atom_site_fract_z
C1 C 0.74926 0.24967 0.45856
 C2 C 0.74906 0.25018 0.54512
 C3 C 0.72376 0.27363 0.59389
 C4 C 0.77425 0.22727 0.59441
 C5 C 0.77545 0.22995 0.41008
 C6 C 0.72337 0.26882 0.40861
 C7 C 0.71527 0.32522 0.58004
 C8 C 0.69025 0.34609 0.62182
 C9 C 0.67344 0.31625 0.68075
 C10 C 0.68324 0.26518 0.69768
 C11 C 0.70802 0.24419 0.65445
 C12 C 0.79144 0.25838 0.64941
 C13 C 0.81629 0.23761 0.69231
 C14 C 0.82434 0.18536 0.68073
 C15 C 0.80637 0.15395 0.62778
 C16 C 0.78139 0.17460 0.58578
 C17 C 0.77450 0.18011 0.37461
 C18 C 0.79997 0.15986 0.33394
 C19 C 0.82633 0.18993 0.32550
 C20 C 0.82681 0.24064 0.35820
 C21 C 0.80163 0.26028 0.40124
 C22 C 0.69651 0.23992 0.40414
 C23 C 0.67152 0.25951 0.36046
 C24 C 0.67291 0.30882 0.32279
 C25 C 0.69996 0.33736 0.32656
 C26 C 0.72522 0.31703 0.36781
 H27 H 0.72790 0.34935 0.53623
 H28 H 0.68423 0.38580 0.60745
 H29 H 0.67143 0.24067 0.74283
 H30 H 0.71453 0.20448 0.66695
 H31 H 0.78604 0.29902 0.65746
 H32 H 0.82959 0.26279 0.73287
 H33 H 0.76779 0.14959 0.54576
 H34 H 0.75435 0.15640 0.38079
 H35 H 0.79904 0.12079 0.30874
 H36 H 0.84695 0.26442 0.35268
 H37 H 0.80258 0.29891 0.42823
 H38 H 0.69486 0.20255 0.43521
 H39 H 0.65082 0.23697 0.35852
 H40 H 0.70155 0.37532 0.29748
 H41 H 0.74588 0.33965 0.37068
 H42 H 0.81164 0.11337 0.61850
 C43 C 0.25008 0.75044 0.45527
 C44 C 0.25021 0.75041 0.54176
 C45 C 0.22503 0.77344 0.59114
 C46 C 0.27552 0.72739 0.59037
 C47 C 0.27597 0.73064 0.40579
 C48 C 0.22408 0.77037 0.40661
 C49 C 0.21803 0.82617 0.58283
 C50 C 0.19309 0.84696 0.62513
 C51 C 0.17503 0.81562 0.67804
 C52 C 0.18294 0.76329 0.68923
 C53 C 0.20774 0.74239 0.64603
 C54 C 0.29276 0.75835 0.64546
 C55 C 0.31760 0.73746 0.68823
 C56 C 0.32561 0.68520 0.67646
 C57 C 0.30763 0.65394 0.62326
 C58 C 0.28265 0.67473 0.58138
 C59 C 0.27491 0.68062 0.37104
 C60 C 0.30027 0.66011 0.33024
 C61 C 0.32664 0.69011 0.32098
 C62 C 0.32719 0.74103 0.35273
 C63 C 0.30211 0.76094 0.39588
 C64 C 0.19797 0.74002 0.39669
 C65 C 0.17287 0.75994 0.35388
 C66 C 0.17337 0.81091 0.32246
 C67 C 0.19969 0.84098 0.33186
 C68 C 0.22508 0.82048 0.37231
 H69 H 0.23173 0.85112 0.54293
 H70 H 0.18793 0.88759 0.61615
 H71 H 0.16956 0.73817 0.72974
 H72 H 0.21304 0.70171 0.65383
 H73 H 0.28738 0.79898 0.65381
 H74 H 0.33091 0.76252 0.72897
 H75 H 0.26900 0.64980 0.54139
 H76 H 0.25479 0.65693 0.37808
 H77 H 0.29930 0.62088 0.30575
 H78 H 0.34732 0.76475 0.34656
 H79 H 0.30314 0.79969 0.42236
 H80 H 0.19698 0.70120 0.42277
 H81 H 0.15277 0.73614 0.34761
 H82 H 0.20064 0.88025 0.30764
 H83 H 0.24518 0.84421 0.37932
 H84 H 0.31286 0.61337 0.61381
 C85 C 0.24972 0.24932 -0.45724
 C86 C 0.24998 0.24965 -0.54381
 C87 C 0.27544 0.27284 -0.59244
 C88 C 0.22463 0.22729 -0.59344
 C89 C 0.22368 0.22892 -0.40858
 C90 C 0.27563 0.26888 -0.40741
 C91 C 0.28359 0.32492 -0.58067
 C92 C 0.30871 0.34569 -0.62249
 C93 C 0.32584 0.31521 -0.67925
 C94 C 0.31653 0.26363 -0.69416
 C95 C 0.29166 0.24270 -0.65091
 C96 C 0.20671 0.25931 -0.64447
 C97 C 0.18191 0.23879 -0.68842
 C98 C 0.17436 0.18577 -0.68123
 C99 C 0.19324 0.15363 -0.63213
 C100 C 0.21835 0.17407 -0.59008
 C101 C 0.22250 0.17644 -0.38621
 C102 C 0.19704 0.15620 -0.34523
 C103 C 0.17284 0.18870 -0.32178
 C104 C 0.17503 0.24209 -0.34037
 C105 C 0.20001 0.26178 -0.38467
 C106 C 0.30175 0.23874 -0.39874
 C107 C 0.32686 0.25840 -0.35526
 C108 C 0.32636 0.30893 -0.32190
 C109 C 0.30001 0.33872 -0.32978
 C110 C 0.27461 0.31844 -0.37089
 H111 H 0.27060 0.34950 -0.53859
 H112 H 0.31458 0.38580 -0.61013
 H113 H 0.32882 0.23885 -0.73769
 H114 H 0.28543 0.20258 -0.66176
 H115 H 0.21159 0.30041 -0.64892
 H116 H 0.16824 0.26489 -0.72599
 H117 H 0.23280 0.14832 -0.55434
 H118 H 0.24101 0.15088 -0.40243
 H119 H 0.19660 0.11512 -0.33104
 H120 H 0.15702 0.26852 -0.32344
 H121 H 0.20079 0.30257 -0.40085
 H122 H 0.30275 0.20032 -0.42646
 H123 H 0.34700 0.23484 -0.35014
 H124 H 0.29908 0.37765 -0.30404
 H125 H 0.25454 0.34206 -0.37694
 H126 H 0.18879 0.11247 -0.62618
 C127 C -0.24988 0.74850 -0.45754
 C128 C -0.24983 0.74896 -0.54411
 C129 C -0.22455 0.77248 -0.59296
 C130 C -0.27524 0.72648 -0.59349
 C131 C -0.27581 0.72802 -0.40859
 C132 C -0.22395 0.76834 -0.40798
 C133 C -0.21659 0.82464 -0.58107
 C134 C -0.19153 0.84568 -0.62278
 C135 C -0.17428 0.81539 -0.67952
 C136 C -0.18344 0.76375 -0.69466
 C137 C -0.20825 0.74255 -0.65152
 C138 C -0.29308 0.75836 -0.64501
 C139 C -0.31788 0.73776 -0.68888
 C140 C -0.32552 0.68481 -0.68118
 C141 C -0.30674 0.65281 -0.63153
 C142 C -0.28162 0.67331 -0.58954
 C143 C -0.27677 0.67564 -0.38560
 C144 C -0.30219 0.65526 -0.34468
 C145 C -0.32657 0.68755 -0.32194
 C146 C -0.32458 0.74089 -0.34107
 C147 C -0.29964 0.76069 -0.38533
 C148 C -0.19768 0.73853 -0.39964
 C149 C -0.17265 0.75840 -0.35604
 C150 C -0.17336 0.80881 -0.32222
 C151 C -0.19985 0.83828 -0.32988
 C152 C -0.22516 0.81779 -0.37110
 H153 H -0.22966 0.84903 -0.53887
 H154 H -0.18578 0.88582 -0.61028
 H155 H -0.17106 0.73912 -0.73822
 H156 H -0.21435 0.70238 -0.66244
 H157 H -0.28813 0.79941 -0.64994
 H158 H -0.33147 0.76376 -0.72687
 H159 H -0.26724 0.64763 -0.55347
 H160 H -0.25813 0.65024 -0.40143
 H161 H -0.30249 0.61423 -0.33004
 H162 H -0.34273 0.76716 -0.32468
 H163 H -0.29902 0.80141 -0.40204
 H164 H -0.19653 0.70019 -0.42762
 H165 H -0.15241 0.73508 -0.35111
 H166 H -0.20095 0.87711 -0.30381
 H167 H -0.24535 0.84116 -0.37687
 H168 H -0.31125 0.61169 -0.62515
 N169 N -0.03200 1.05641 -0.14884
 N170 N -0.05528 1.06167 -0.20041
 N171 N 0.03140 1.09372 -0.09155
 N172 N 0.05420 1.12617 -0.10342
 N173 N 0.03180 1.05668 -0.14891
 N174 N 0.05518 1.06227 -0.20033
 N175 N -0.03210 1.09284 -0.09042
 N176 N -0.05539 1.12411 -0.10096
 C177 C -0.06957 1.10407 -0.16990
 C178 C 0.06880 1.10586 -0.17139
 N179 N 0.03181 1.05696 0.15017
 N180 N 0.05530 1.06231 0.20102
 N181 N -0.03183 1.09314 0.09316
 N182 N -0.05461 1.12531 0.10528
 N183 N -0.03200 1.05639 0.15090
 N184 N -0.05514 1.06206 0.20315
 N185 N 0.03165 1.09362 0.09225
 N186 N 0.05488 1.12533 0.10278
 Mn187 Mn -0.00023 1.09399 0.00085
 C188 C 0.06936 1.10517 0.17092
 C189 C -0.06893 1.10526 0.17402
 N190 N 0.03170 0.94531 -0.14927
 N191 N 0.05493 0.93992 -0.20118
 N192 N -0.03175 0.90823 -0.09104
 N193 N -0.05446 0.87562 -0.10287
 N194 N -0.03205 0.94499 -0.14876
 N195 N -0.05520 0.93888 -0.20069
 N196 N 0.03177 0.90891 -0.09093
 N197 N 0.05500 0.87753 -0.10184
 Mn198 Mn -0.00014 1.00086 -0.14994
 C199 C 0.06918 0.89748 -0.17093
 C200 C -0.06887 0.89541 -0.17138
 N201 N -0.03187 0.94501 0.15083
 N202 N -0.05525 0.93958 0.20230
 N203 N 0.03163 0.90876 0.09254
 N204 N 0.05436 0.87648 0.10425
 N205 N 0.03193 0.94556 0.15028
 N206 N 0.05509 0.93980 0.20216
 N207 N -0.03187 0.90847 0.09260
 N208 N -0.05513 0.87684 0.10336
 Mn209 Mn -0.00003 1.00099 0.15155
 Mn210 Mn -0.00006 0.90794 0.00079
 Cl211 Cl -0.00012 1.00094 0.00082
 C212 C -0.06944 0.89686 0.17209
 C213 C 0.06878 0.89650 0.17275
 N214 N 0.53171 0.40734 0.09161
 N215 N 0.55433 0.37488 0.10362
 N216 N 0.46827 0.44403 0.14942
 N217 N 0.44491 0.43872 0.20098
 N218 N 0.46822 0.40742 0.09130
 N219 N 0.44494 0.37586 0.10225
 N220 N 0.53207 0.44425 0.14918
 N221 N 0.55519 0.43840 0.20120
 C222 C 0.56875 0.39493 0.17207
 C223 C 0.43066 0.39601 0.17096
 N224 N 0.46861 0.59205 0.09125
 N225 N 0.44585 0.62429 0.10293
 N226 N 0.53215 0.55566 0.14887
 N227 N 0.55556 0.56105 0.20001
 N228 N 0.53209 0.59228 0.09087
 N229 N 0.55531 0.62400 0.10162
 N230 N 0.46833 0.55541 0.14916
 N231 N 0.44512 0.56122 0.20111
 Mn232 Mn 0.50021 0.49984 0.15017
 C233 C 0.43142 0.60441 0.17158
 C234 C 0.56969 0.60389 0.16998
 N235 N 0.46854 0.40701 -0.09238
 N236 N 0.44570 0.37467 -0.10400
 N237 N 0.53217 0.44379 -0.15012
 N238 N 0.55557 0.43851 -0.20146
 N239 N 0.53206 0.40728 -0.09194
 N240 N 0.55529 0.37584 -0.10261
 N241 N 0.46839 0.44370 -0.15023
 N242 N 0.44519 0.43780 -0.20207
 Mn243 Mn 0.50013 0.40660 -0.00036
 C244 C 0.43136 0.39452 -0.17256
 C245 C 0.56969 0.39594 -0.17125
 N246 N 0.53196 0.59221 -0.09285
 N247 N 0.55476 0.62464 -0.10464
 N248 N 0.46859 0.55511 -0.15063
 N249 N 0.44544 0.56052 -0.20260
 N250 N 0.46848 0.59158 -0.09229
 N251 N 0.44530 0.62304 -0.10330
 N252 N 0.53239 0.55513 -0.15012
 N253 N 0.55582 0.56067 -0.20142
 Mn254 Mn 0.50028 0.59269 -0.00076
 Mn255 Mn 0.50039 0.49943 -0.15128
 Cl256 Cl 0.50025 0.49964 -0.00055
 C257 C 0.56942 0.60427 -0.17245
 C258 C 0.43119 0.60306 -0.17241
 N259 N 0.36756 0.30789 0.22239
 C260 C 0.35185 0.33574 0.28119
 N261 N 0.36229 0.38371 0.30226
 N262 N 0.38733 0.40278 0.26693
 C263 C 0.40288 0.37485 0.20846
 N264 N 0.39250 0.32714 0.18644
 N265 N -0.13246 0.80844 0.22250
 C266 C -0.14828 0.83613 0.28124
 N267 N -0.13795 0.88411 0.30265
 N268 N -0.11288 0.90334 0.26769
 C269 C -0.09722 0.87557 0.20928
 N270 N -0.10750 0.82786 0.18691
 N271 N 0.63927 0.61500 0.29574
 C272 C 0.64850 0.66434 0.27929
 N273 N 0.63160 0.69352 0.22530
 N274 N 0.60668 0.67421 0.18946
 C275 C 0.59748 0.62512 0.20700
 N276 N 0.61421 0.59589 0.26074
 N277 N 0.13918 1.11597 0.29556
 C278 C 0.14834 1.16538 0.27938
 N279 N 0.13133 1.19471 0.22590
 N280 N 0.10635 1.17547 0.19029
 C281 C 0.09722 1.12632 0.20759
 N282 N 0.11406 1.09694 0.26080
 N283 N 0.63807 0.38385 -0.30230
 C284 C 0.64846 0.33595 -0.28122
 N285 N 0.63266 0.30820 -0.22220
 N286 N 0.60775 0.32735 -0.18632
 C287 C 0.59746 0.37491 -0.20852
 N288 N 0.61307 0.40281 -0.26703
 N289 N 0.13617 0.88324 -0.30706
 C290 C 0.14772 0.83727 -0.28069
 N291 N 0.13328 0.81125 -0.21725
 N292 N 0.10835 0.83050 -0.18165
 C293 C 0.09683 0.87631 -0.20859
 N294 N 0.11119 0.90234 -0.27184
 N295 N 0.36445 0.61752 -0.30887
 C296 C 0.35288 0.66351 -0.28238
 N297 N 0.36724 0.68948 -0.21879
 N298 N 0.39210 0.67017 -0.18315
 C299 C 0.40363 0.62432 -0.21019
 N300 N 0.38936 0.59835 -0.27360
 N301 N -0.13387 1.18995 -0.21509
 C302 C -0.14829 1.16387 -0.27842
 N303 N -0.13665 1.11796 -0.30511
 N304 N -0.11162 1.09900 -0.27028
 C305 C -0.09728 1.12510 -0.20713
 N306 N -0.10888 1.17085 -0.17988
 N307 N 0.64290 0.61460 -0.27999
 C308 C 0.64754 0.66675 -0.28245
 N309 N 0.62623 0.69813 -0.24727
 N310 N 0.60155 0.67825 -0.21089
 C311 C 0.59692 0.62625 -0.20978
 N312 N 0.61796 0.59478 -0.24514
 N313 N 0.14214 1.11593 -0.27990
 C314 C 0.14693 1.16803 -0.28207
 N315 N 0.12579 1.19950 -0.24631
 N316 N 0.10111 1.17974 -0.20968
 C317 C 0.09633 1.12778 -0.20886
 N318 N 0.11721 1.09623 -0.24479
 N319 N 0.37195 0.30144 -0.23302
 C320 C 0.35350 0.33121 -0.28155
 N321 N 0.36076 0.38187 -0.29360
 N322 N 0.38566 0.40195 -0.25901
 C323 C 0.40397 0.37227 -0.21016
 N324 N 0.39664 0.32173 -0.19740
 N325 N -0.12779 0.80165 -0.23310
 C326 C -0.14634 0.83131 -0.28153
 N327 N -0.13931 0.88212 -0.29305
 N328 N -0.11455 0.90243 -0.25807
 C329 C -0.09614 0.87287 -0.20930
 N330 N -0.10324 0.82218 -0.19707
 N331 N 0.36088 0.61719 0.29336
 C332 C 0.35372 0.66774 0.28067
 N333 N 0.37222 0.69737 0.23151
 N334 N 0.39685 0.67706 0.19590
 C335 C 0.40409 0.62664 0.20929
 N336 N 0.38573 0.59709 0.25876
 N337 N -0.13933 1.11730 0.29667
 C338 C -0.14655 1.16790 0.28480
 N339 N -0.12813 1.19783 0.23587
 N340 N -0.10353 1.17777 0.19970
 C341 C -0.09624 1.12728 0.21225
 N342 N -0.11452 1.09744 0.26151
 N343 N 0.63943 0.38222 0.29249
 C344 C 0.64599 0.33121 0.28215
 N345 N 0.62705 0.30123 0.23501
 N346 N 0.60257 0.32165 0.19901
 C347 C 0.59593 0.37255 0.21007
 N348 N 0.61473 0.40244 0.25758
 N349 N 0.13916 0.88382 0.29468
 C350 C 0.14631 0.83322 0.28217
 N351 N 0.12785 0.80352 0.23306
 N352 N 0.10328 0.82380 0.19734
 C353 C 0.09606 0.87427 0.21054
 N354 N 0.11438 0.90389 0.25997
   
