data_POSCAR
  _audit_creation_date              2014-09-24
  _audit_creation_method            'ToBaCCo'
  _symmetry_space_group_name_H-M    'P1'
  _symmetry_Int_Tables_number       1
  _symmetry_cell_setting            triclinic
  loop_
  _symmetry_equiv_pos_as_xyz
 x,y,z
_cell_length_a 43.7791
_cell_length_b 43.1401
_cell_length_c 20.2409
_cell_angle_alpha 89.935400
_cell_angle_beta 90.019400
_cell_angle_gamma 119.727900
loop_
  _atom_site_label
  _atom_site_type_symbol
  _atom_site_fract_x
  _atom_site_fract_y
  _atom_site_fract_z
C1 C 0.49890 0.99973 0.46559
 C2 C 0.49848 0.99964 0.53282
 C3 C 0.48092 0.96599 0.57157
 C4 C 0.51548 1.03315 0.57189
 C5 C 0.51721 1.03340 0.42704
 C6 C 0.48098 0.96616 0.42682
 C7 C 0.45490 0.96085 0.61718
 C8 C 0.43904 0.93027 0.65645
 C9 C 0.44900 0.90362 0.65225
 C10 C 0.47519 0.90921 0.60477
 C11 C 0.49095 0.93997 0.56554
 C12 C 0.50564 1.05938 0.56432
 C13 C 0.52084 1.08994 0.60401
 C14 C 0.54585 1.09456 0.65237
 C15 C 0.55578 1.06834 0.65927
 C16 C 0.54064 1.03791 0.61964
 C17 C 0.55327 1.05736 0.43554
 C18 C 0.57001 1.08880 0.39832
 C19 C 0.55099 1.09673 0.35176
 C20 C 0.51497 1.07246 0.34305
 C21 C 0.49832 1.04107 0.38013
 C22 C 0.50035 0.95851 0.38103
 C23 C 0.48402 0.92726 0.34365
 C24 C 0.44787 0.90310 0.35093
 C25 C 0.42839 0.91100 0.39640
 C26 C 0.44479 0.94231 0.43390
 H27 H 0.44653 0.98055 0.62199
 H28 H 0.41790 0.92750 0.68782
 H29 H 0.48562 0.89131 0.59971
 H30 H 0.51164 0.94388 0.53148
 H31 H 0.48576 1.05586 0.52857
 H32 H 0.51234 1.10946 0.59815
 H33 H 0.54854 1.01795 0.62624
 H34 H 0.56842 1.05162 0.47081
 H35 H 0.59774 1.10704 0.40627
 H36 H 0.49977 1.07746 0.30671
 H37 H 0.47055 1.02276 0.37247
 H38 H 0.52822 0.97675 0.37446
 H39 H 0.49959 0.92229 0.30817
 H40 H 0.40054 0.89284 0.40327
 H41 H 0.42928 0.94804 0.46824
 H42 H 0.57533 1.07137 0.69536
 C43 C 0.00026 0.49889 0.46384
 C44 C -0.00025 0.49918 0.53104
 C45 C 0.03262 0.51600 0.57070
 C46 C -0.03364 0.48260 0.56910
 C47 C -0.03255 0.48264 0.42406
 C48 C 0.03370 0.51488 0.42603
 C49 C 0.03800 0.49559 0.61837
 C50 C 0.06807 0.51101 0.65783
 C51 C 0.09331 0.54730 0.65083
 C52 C 0.08798 0.56773 0.60275
 C53 C 0.05778 0.55224 0.56325
 C54 C -0.05857 0.44624 0.56233
 C55 C -0.08903 0.43085 0.60118
 C56 C -0.09485 0.45150 0.64790
 C57 C -0.06994 0.48795 0.65392
 C58 C -0.03961 0.50326 0.61514
 C59 C -0.05717 0.49426 0.42972
 C60 C -0.08727 0.47944 0.38999
 C61 C -0.09337 0.45280 0.34271
 C62 C -0.06829 0.44129 0.33821
 C63 C -0.03836 0.45613 0.37800
 C64 C 0.04057 0.54153 0.37924
 C65 C 0.07147 0.55647 0.34208
 C66 C 0.09606 0.54484 0.35059
 C67 C 0.08904 0.51792 0.39725
 C68 C 0.05806 0.50300 0.43457
 H69 H 0.01887 0.46760 0.62487
 H70 H 0.07165 0.49445 0.69373
 H71 H 0.10672 0.59585 0.59684
 H72 H 0.05377 0.56860 0.52756
 H73 H -0.05411 0.42969 0.52790
 H74 H -0.10751 0.40262 0.59604
 H75 H -0.02067 0.53134 0.62109
 H76 H -0.05273 0.51533 0.46405
 H77 H -0.10462 0.49043 0.39461
 H78 H -0.07196 0.41989 0.30558
 H79 H -0.01972 0.44663 0.37324
 H80 H 0.02192 0.55080 0.37154
 H81 H 0.07579 0.57667 0.30568
 H82 H 0.10756 0.50852 0.40506
 H83 H 0.05296 0.48204 0.46975
 H84 H -0.07391 0.50467 0.68871
 C85 C 0.50120 0.50119 0.46538
 C86 C 0.50102 0.50113 0.53259
 C87 C 0.48306 0.51666 0.57124
 C88 C 0.51871 0.48546 0.57176
 C89 C 0.51900 0.48543 0.42693
 C90 C 0.48351 0.51694 0.42640
 C91 C 0.49258 0.55270 0.56521
 C92 C 0.47618 0.56702 0.60408
 C93 C 0.45001 0.54570 0.65079
 C94 C 0.44056 0.50930 0.65548
 C95 C 0.45698 0.49517 0.61660
 C96 C 0.54450 0.50678 0.61764
 C97 C 0.56063 0.49250 0.65702
 C98 C 0.55117 0.45610 0.65231
 C99 C 0.52528 0.43494 0.60510
 C100 C 0.50916 0.44942 0.56574
 C101 C 0.49949 0.45824 0.38134
 C102 C 0.51560 0.44312 0.34423
 C103 C 0.55169 0.45507 0.35158
 C104 C 0.57133 0.48263 0.39683
 C105 C 0.55512 0.49774 0.43410
 C106 C 0.44734 0.50454 0.43301
 C107 C 0.43123 0.51957 0.39518
 C108 C 0.45099 0.54713 0.34989
 C109 C 0.48713 0.55918 0.34314
 C110 C 0.50316 0.54413 0.38083
 H111 H 0.51323 0.56991 0.53130
 H112 H 0.48559 0.59529 0.59932
 H113 H 0.41963 0.49097 0.68758
 H114 H 0.44909 0.46718 0.62155
 H115 H 0.55239 0.53477 0.62262
 H116 H 0.58136 0.51072 0.68955
 H117 H 0.48871 0.43232 0.53146
 H118 H 0.47165 0.44863 0.37472
 H119 H 0.49992 0.42244 0.30890
 H120 H 0.59914 0.49230 0.40371
 H121 H 0.57074 0.51909 0.46835
 H122 H 0.43162 0.48316 0.46721
 H123 H 0.40337 0.50983 0.40163
 H124 H 0.50292 0.57986 0.30781
 H125 H 0.53103 0.55381 0.37463
 H126 H 0.51585 0.40668 0.60029
 O127 O 0.38431 0.65719 -0.05662
 O128 O 0.38260 0.71625 -0.07587
 C129 C 0.36599 0.73275 -0.08720
 O130 O 0.33867 0.72724 -0.05561
 O131 O 0.28079 0.66710 -0.07730
 C132 C 0.26459 0.63399 -0.08945
 O133 O 0.27001 0.61154 -0.05855
 O134 O 0.32989 0.61341 -0.07913
 C135 C 0.36271 0.63007 -0.08958
 O136 O 0.38196 0.66595 0.07479
 O137 O 0.38333 0.72655 0.05553
 C138 C 0.36117 0.73154 0.08740
 O139 O 0.32852 0.71503 0.07546
 O140 O 0.26939 0.65623 0.05384
 C141 C 0.26438 0.62850 0.08496
 O142 O 0.28071 0.61184 0.07259
 O143 O 0.33901 0.61065 0.05209
 C144 C 0.36565 0.63263 0.08519
 Cr145 Cr 0.38108 0.69047 -0.00059
 Cr146 Cr 0.30535 0.69040 -0.00095
 Cr147 Cr 0.30589 0.61387 -0.00323
 O148 O 0.33076 0.66492 -0.00164
 O149 O 0.61589 0.34397 -0.05370
 O150 O 0.61627 0.28432 -0.07362
 C151 C 0.63226 0.26728 -0.08573
 O152 O 0.65973 0.27237 -0.05523
 O153 O 0.71793 0.33201 -0.07869
 C154 C 0.73454 0.36513 -0.09083
 O155 O 0.72991 0.38788 -0.05924
 O156 O 0.67042 0.38718 -0.07750
 C157 C 0.63753 0.37090 -0.08711
 O158 O 0.61917 0.33519 0.07754
 O159 O 0.61661 0.27409 0.05770
 C160 C 0.63877 0.26864 0.08857
 O161 O 0.67130 0.28465 0.07549
 O162 O 0.73077 0.34286 0.05199
 C163 C 0.73662 0.37078 0.08333
 O164 O 0.72050 0.38781 0.07228
 O165 O 0.66258 0.39016 0.05408
 C166 C 0.63600 0.36850 0.08773
 Cr167 Cr 0.61896 0.31037 0.00188
 Cr168 Cr 0.69395 0.30900 -0.00159
 Cr169 Cr 0.69484 0.38625 -0.00256
 O170 O 0.66925 0.33520 -0.00078
 C171 C 0.40507 0.81402 -0.22122
 C172 C 0.40276 0.84421 -0.20541
 C173 C 0.41706 0.87378 -0.24737
 C174 C 0.43434 0.87417 -0.30709
 C175 C 0.43608 0.84288 -0.32202
 C176 C 0.42164 0.81334 -0.27961
 C177 C 0.39111 0.78428 -0.17618
 C178 C 0.37952 0.76025 -0.13652
 H179 H 0.39037 0.84520 -0.15971
 H180 H 0.41599 0.89682 -0.22969
 H181 H 0.44711 0.83988 -0.36765
 H182 H 0.42333 0.78988 -0.29261
 C183 C 0.18356 0.59394 -0.22121
 C184 C 0.18740 0.60324 -0.28822
 C185 C 0.15805 0.58828 -0.33003
 C186 C 0.12456 0.56377 -0.30521
 C187 C 0.12105 0.55483 -0.23771
 C188 C 0.15033 0.56980 -0.19613
 C189 C 0.21340 0.60897 -0.17747
 C190 C 0.23738 0.62078 -0.13851
 H191 H 0.21303 0.62191 -0.30815
 H192 H 0.16162 0.59543 -0.38188
 H193 H 0.09556 0.53653 -0.21686
 H194 H 0.14702 0.56255 -0.14428
 C195 C 0.40336 0.58961 -0.22304
 C196 C 0.40434 0.55899 -0.20428
 C197 C 0.41947 0.54449 -0.24573
 C198 C 0.43414 0.56033 -0.30750
 C199 C 0.43278 0.59136 -0.32562
 C200 C 0.41753 0.60574 -0.28380
 C201 C 0.38860 0.60471 -0.17857
 C202 C 0.37653 0.61663 -0.13909
 H203 H 0.39384 0.54653 -0.15688
 H204 H 0.42092 0.52177 -0.22712
 H205 H 0.44232 0.60414 -0.37298
 H206 H 0.41677 0.62945 -0.29895
 C207 C 0.59015 0.18535 -0.21791
 C208 C 0.58012 0.15130 -0.19337
 C209 C 0.56560 0.12185 -0.23554
 C210 C 0.56090 0.12601 -0.30308
 C211 C 0.57080 0.16032 -0.32735
 C212 C 0.58540 0.18983 -0.28495
 C213 C 0.60527 0.21538 -0.17367
 C214 C 0.61775 0.23961 -0.13456
 H215 H 0.58351 0.14750 -0.14151
 H216 H 0.55769 0.09573 -0.21513
 H217 H 0.56777 0.16438 -0.37920
 H218 H 0.59310 0.21610 -0.30446
 C219 C 0.81495 0.40481 -0.22391
 C220 C 0.84805 0.42962 -0.19932
 C221 C 0.87729 0.44463 -0.24100
 C222 C 0.87388 0.43507 -0.30814
 C223 C 0.84053 0.40990 -0.33249
 C224 C 0.81121 0.39490 -0.29056
 C225 C 0.78520 0.38974 -0.17995
 C226 C 0.76140 0.37803 -0.14058
 H227 H 0.85129 0.43734 -0.14775
 H228 H 0.90268 0.46343 -0.22047
 H229 H 0.83706 0.40225 -0.38405
 H230 H 0.78569 0.37570 -0.31011
 C231 C 0.59709 0.41177 -0.22045
 C232 C 0.58326 0.39585 -0.28144
 C233 C 0.56823 0.41036 -0.32359
 C234 C 0.56676 0.44132 -0.30558
 C235 C 0.58106 0.45694 -0.24354
 C236 C 0.59597 0.44231 -0.20175
 C237 C 0.61172 0.39659 -0.17580
 C238 C 0.62372 0.38454 -0.13635
 H239 H 0.58414 0.37221 -0.29655
 H240 H 0.55898 0.39774 -0.37112
 H241 H 0.57950 0.47960 -0.22503
 H242 H 0.60622 0.45462 -0.15419
 C243 C 0.81755 0.41012 0.21533
 C244 C 0.81637 0.42467 0.27626
 C245 C 0.84555 0.43870 0.31839
 C246 C 0.87668 0.43841 0.30044
 C247 C 0.87713 0.42349 0.23841
 C248 C 0.84795 0.40958 0.19663
 C249 C 0.78798 0.39617 0.17100
 C250 C 0.76405 0.38450 0.13196
 H251 H 0.79282 0.42505 0.29140
 H252 H 0.84287 0.44851 0.36591
 H253 H 0.90042 0.42376 0.21996
 H254 H 0.84930 0.39875 0.14912
 C255 C 0.59985 0.18964 0.22726
 C256 C 0.56701 0.17904 0.25574
 C257 C 0.55148 0.14931 0.29746
 C258 C 0.56859 0.12971 0.31114
 C259 C 0.60200 0.14109 0.28355
 C260 C 0.61747 0.17083 0.24174
 C261 C 0.61444 0.21848 0.18024
 C262 C 0.62592 0.24186 0.13925
 H263 H 0.55312 0.19338 0.24482
 H264 H 0.52597 0.14150 0.31870
 H265 H 0.61564 0.12633 0.29256
 H266 H 0.64282 0.17867 0.21960
 C267 C 0.59866 0.40976 0.22642
 C268 C 0.56619 0.38769 0.25661
 C269 C 0.55131 0.40231 0.29857
 C270 C 0.56870 0.43928 0.31081
 C271 C 0.60174 0.46114 0.28152
 C272 C 0.61657 0.44645 0.23947
 C273 C 0.61256 0.39502 0.17927
 C274 C 0.62356 0.38278 0.13827
 H275 H 0.55209 0.35926 0.24683
 H276 H 0.52608 0.38473 0.32113
 H277 H 0.61557 0.48972 0.28940
 H278 H 0.64162 0.46381 0.21604
 C279 C 0.18677 0.58869 0.22398
 C280 C 0.16901 0.55220 0.23898
 C281 C 0.14002 0.53802 0.28153
 C282 C 0.12835 0.56019 0.30938
 C283 C 0.14689 0.59696 0.29516
 C284 C 0.17587 0.61108 0.25270
 C285 C 0.21495 0.60286 0.17651
 C286 C 0.23789 0.61467 0.13539
 H287 H 0.17712 0.53459 0.21672
 H288 H 0.12606 0.50956 0.29093
 H289 H 0.13882 0.61477 0.31655
 H290 H 0.18942 0.63936 0.24142
 C291 C 0.39987 0.81056 0.22572
 C292 C 0.43242 0.82094 0.25536
 C293 C 0.44767 0.85057 0.29723
 C294 C 0.43059 0.87029 0.30992
 C295 C 0.39750 0.85916 0.28108
 C296 C 0.38230 0.82953 0.23914
 C297 C 0.38551 0.78174 0.17877
 C298 C 0.37409 0.75836 0.13789
 H299 H 0.44627 0.80648 0.24527
 H300 H 0.47293 0.85818 0.31943
 H301 H 0.38389 0.87402 0.28928
 H302 H 0.35720 0.82186 0.21612
 C303 C 0.40405 0.59207 0.22345
 C304 C 0.38623 0.55539 0.23674
 C305 C 0.40108 0.54082 0.27910
 C306 C 0.43405 0.56280 0.30850
 C307 C 0.45138 0.59974 0.29592
 C308 C 0.43647 0.61425 0.25362
 C309 C 0.38997 0.60668 0.17630
 C310 C 0.37867 0.61872 0.13543
 H311 H 0.36120 0.53795 0.21333
 H312 H 0.38730 0.51225 0.28722
 H313 H 0.47655 0.61740 0.31854
 H314 H 0.45049 0.64267 0.24368
   
