data_POSCAR
  _audit_creation_date              2014-09-24
  _audit_creation_method            'ToBaCCo'
  _symmetry_space_group_name_H-M    'P1'
  _symmetry_Int_Tables_number       1
  _symmetry_cell_setting            triclinic
  loop_
  _symmetry_equiv_pos_as_xyz
 x,y,z
_cell_length_a 38.0553
_cell_length_b 38.0322
_cell_length_c 34.6429
_cell_angle_alpha 89.954400
_cell_angle_beta 89.906100
_cell_angle_gamma 97.321100
loop_
  _atom_site_label
  _atom_site_type_symbol
  _atom_site_fract_x
  _atom_site_fract_y
  _atom_site_fract_z
O1 O -0.03252 0.27946 0.04025
 O2 O 0.03180 0.28405 -0.03920
 O3 O -0.03641 0.27782 -0.03423
 O4 O 0.03602 0.28469 0.03650
 O5 O 0.03299 0.22637 0.03809
 O6 O -0.03781 0.21974 -0.03511
 O7 O 0.03111 0.22619 -0.03748
 O8 O -0.03563 0.22118 0.04061
 Cu9 Cu 0.00021 0.28734 0.00077
 Cu10 Cu -0.00250 0.21752 0.00157
 C11 C -0.04550 0.24955 0.05374
 C12 C 0.04193 0.25605 -0.05279
 C13 C -0.04956 0.24764 -0.04686
 C14 C 0.04606 0.25669 0.05031
 O15 O 0.46622 0.77924 0.52949
 O16 O 0.53564 0.77858 0.45563
 O17 O 0.46711 0.77503 0.45478
 O18 O 0.53486 0.78305 0.53082
 O19 O 0.53020 0.72480 0.53562
 O20 O 0.46353 0.71684 0.45762
 O21 O 0.53216 0.72033 0.46023
 O22 O 0.46149 0.72095 0.53326
 Cu23 Cu 0.50152 0.78479 0.49229
 Cu24 Cu 0.49643 0.71487 0.49711
 C25 C 0.45168 0.75020 0.54376
 C26 C 0.54536 0.74939 0.44490
 C27 C 0.45362 0.74463 0.44309
 C28 C 0.54351 0.75540 0.54689
 O29 O 1.03522 0.71390 0.02626
 O30 O 0.95780 0.71600 -0.03707
 O31 O 1.02513 0.71332 -0.04806
 O32 O 0.96768 0.71508 0.03681
 O33 O 0.97571 0.77359 0.03604
 O34 O 1.03546 0.77146 -0.04774
 O35 O 0.96803 0.77453 -0.03868
 O36 O 1.04359 0.77205 0.02671
 Cu37 Cu 0.99559 0.70873 -0.00551
 Cu38 Cu 1.00663 0.77878 -0.00589
 C39 C 1.05307 0.74274 0.03722
 C40 C 0.94987 0.74568 -0.04862
 C41 C 1.04019 0.74190 -0.06278
 C42 C 0.96180 0.74453 0.05092
 O43 O 0.52633 0.20653 0.54100
 O44 O 0.46239 0.20612 0.46160
 O45 O 0.53051 0.20711 0.46549
 O46 O 0.45803 0.20576 0.53607
 O47 O 0.46406 0.26424 0.53582
 O48 O 0.53729 0.26559 0.46639
 O49 O 0.46928 0.26465 0.46139
 O50 O 0.53259 0.26499 0.54144
 Cu51 Cu 0.49383 0.20048 0.50112
 Cu52 Cu 0.50164 0.27076 0.50145
 C53 C 0.53999 0.23588 0.55521
 C54 C 0.45513 0.23525 0.44772
 C55 C 0.54577 0.23667 0.45325
 C56 C 0.44806 0.23471 0.54724
 O57 O 0.70985 0.03151 -0.02633
 O58 O 0.71142 -0.03394 0.05173
 O59 O 0.71430 0.03401 0.04904
 O60 O 0.70553 -0.03700 -0.02342
 O61 O 0.76369 -0.03223 -0.02926
 O62 O 0.77247 0.03778 0.04489
 O63 O 0.76925 -0.03095 0.04604
 O64 O 0.76809 0.03649 -0.02990
 Cu65 Cu 0.70444 -0.00181 0.01316
 Cu66 Cu 0.77421 0.00311 0.00747
 C67 C 0.73879 0.04493 -0.04182
 C68 C 0.74062 -0.04318 0.06300
 C69 C 0.74487 0.04745 0.06013
 C70 C 0.73298 -0.04611 -0.03946
 O71 O 0.21842 0.53372 0.45814
 O72 O 0.21936 0.46828 0.53623
 O73 O 0.21824 0.53607 0.53341
 O74 O 0.21947 0.46614 0.46040
 O75 O 0.27801 0.47384 0.46056
 O76 O 0.27666 0.54433 0.53326
 O77 O 0.27789 0.47609 0.53620
 O78 O 0.27687 0.54177 0.45817
 Cu79 Cu 0.21300 0.50010 0.49712
 Cu80 Cu 0.28324 0.50977 0.49713
 C81 C 0.24756 0.54836 0.44422
 C82 C 0.24868 0.46160 0.55005
 C83 C 0.24728 0.55184 0.54624
 C84 C 0.24884 0.45877 0.44729
 O85 O 0.29839 1.04282 0.03430
 O86 O 0.29487 0.97939 -0.04582
 O87 O 0.29203 1.04703 -0.03973
 O88 O 0.29981 0.97489 0.02948
 O89 O 0.24151 0.96472 0.03378
 O90 O 0.23411 1.03818 -0.03362
 O91 O 0.23657 0.97031 -0.04144
 O92 O 0.24058 1.03282 0.04021
 Cu93 Cu 0.30210 1.01174 -0.00602
 Cu94 Cu 0.23235 1.00032 0.00019
 C95 C 0.27027 1.04881 0.05136
 C96 C 0.26515 0.96470 -0.05796
 C97 C 0.26170 1.05579 -0.04776
 C98 C 0.27195 0.95794 0.04393
 O99 O 0.79389 0.54018 0.55029
 O100 O 0.79733 0.47282 0.47475
 O101 O 0.79966 0.54139 0.47533
 O102 O 0.79166 0.47177 0.54953
 O103 O 0.73327 0.46665 0.54495
 O104 O 0.74144 0.53597 0.46995
 O105 O 0.73899 0.46758 0.46942
 O106 O 0.73565 0.53503 0.54501
 Cu107 Cu 0.80149 0.50712 0.51297
 Cu108 Cu 0.73144 0.50072 0.50680
 C109 C 0.76417 0.54862 0.56103
 C110 C 0.76876 0.45905 0.45903
 C111 C 0.77200 0.55010 0.45943
 C112 C 0.76115 0.45776 0.56020
 C113 C 0.24143 0.26582 0.24744
 C114 C 0.26478 0.24153 0.24732
 C115 C 0.26381 0.21316 0.21779
 C116 C 0.29264 0.24161 0.27710
 C117 C 0.24378 0.29498 0.27628
 C118 C 0.21208 0.26430 0.21905
 C119 C 0.26254 0.17772 0.22975
 C120 C 0.26352 0.15076 0.20266
 C121 C 0.26594 0.15886 0.16324
 C122 C 0.26692 0.19412 0.15103
 C123 C 0.26607 0.22120 0.17819
 C124 C 0.28376 0.23577 0.31611
 C125 C 0.31037 0.23377 0.34350
 C126 C 0.34608 0.23741 0.33212
 C127 C 0.35490 0.24423 0.29325
 C128 C 0.32834 0.24580 0.26586
 C129 C 0.27520 0.31834 0.28116
 C130 C 0.27683 0.34566 0.30834
 C131 C 0.24690 0.35041 0.33043
 C132 C 0.21547 0.32730 0.32544
 C133 C 0.21389 0.29986 0.29849
 C134 C 0.20828 0.29418 0.19638
 C135 C 0.18079 0.29325 0.16961
 C136 C 0.15648 0.26254 0.16544
 C137 C 0.16016 0.23263 0.18806
 C138 C 0.18760 0.23359 0.21495
 H139 H 0.26099 0.17100 0.26015
 H140 H 0.26292 0.12362 0.21240
 H141 H 0.26907 0.20067 0.12061
 H142 H 0.26778 0.24842 0.16842
 H143 H 0.25628 0.23217 0.32515
 H144 H 0.30312 0.22882 0.37344
 H145 H 0.33556 0.25034 0.23584
 H146 H 0.29833 0.31558 0.26373
 H147 H 0.30121 0.36346 0.31174
 H148 H 0.19214 0.33070 0.34230
 H149 H 0.18938 0.28228 0.29506
 H150 H 0.22680 0.31813 0.19924
 H151 H 0.17831 0.31649 0.15223
 H152 H 0.14151 0.20877 0.18521
 H153 H 0.18970 0.21047 0.23265
 H154 H 0.38236 0.24782 0.28410
 C155 C 0.77304 0.73940 0.25576
 C156 C 0.74726 0.76103 0.25515
 C157 C 0.74764 0.78987 0.22632
 C158 C 0.71761 0.75749 0.28342
 C159 C 0.77435 0.71210 0.28603
 C160 C 0.80120 0.74170 0.22594
 C161 C 0.77546 0.81789 0.22544
 C162 C 0.77443 0.84607 0.19972
 C163 C 0.74552 0.84662 0.17471
 C164 C 0.71827 0.81802 0.17482
 C165 C 0.71910 0.79008 0.20082
 C166 C 0.71045 0.78730 0.30449
 C167 C 0.68179 0.78494 0.32995
 C168 C 0.65962 0.75282 0.33449
 C169 C 0.66687 0.72284 0.31387
 C170 C 0.69551 0.72523 0.28822
 C171 C 0.77183 0.67628 0.27554
 C172 C 0.77300 0.65021 0.30369
 C173 C 0.77783 0.65965 0.34268
 C174 C 0.78020 0.69553 0.35321
 C175 C 0.77853 0.72162 0.32505
 C176 C 0.79275 0.73512 0.18696
 C177 C 0.81967 0.73572 0.15936
 C178 C 0.85535 0.74276 0.17042
 C179 C 0.86369 0.75031 0.20925
 C180 C 0.83682 0.74931 0.23687
 H181 H 0.79753 0.81825 0.24520
 H182 H 0.79578 0.86782 0.19986
 H183 H 0.69603 0.81778 0.15530
 H184 H 0.69745 0.76862 0.20116
 H185 H 0.72707 0.81244 0.30112
 H186 H 0.67657 0.80827 0.34581
 H187 H 0.70008 0.70210 0.27166
 H188 H 0.76843 0.66852 0.24556
 H189 H 0.77032 0.62262 0.29510
 H190 H 0.78358 0.70329 0.38318
 H191 H 0.78070 0.74920 0.33357
 H192 H 0.76539 0.72894 0.17809
 H193 H 0.81274 0.73009 0.12949
 H194 H 0.89105 0.75640 0.21818
 H195 H 0.84376 0.75455 0.26682
 H196 H 0.64991 0.69789 0.31702
 C197 C 0.74746 0.23695 0.26399
 C198 C 0.77517 0.26357 0.26485
 C199 C 0.80592 0.26291 0.23855
 C200 C 0.77541 0.29489 0.29054
 C201 C 0.71795 0.23471 0.29242
 C202 C 0.74528 0.20913 0.23368
 C203 C 0.82528 0.23381 0.23834
 C204 C 0.85056 0.23079 0.20966
 C205 C 0.85679 0.25686 0.18093
 C206 C 0.83911 0.28702 0.18261
 C207 C 0.81387 0.29007 0.21131
 C208 C 0.80501 0.30545 0.31385
 C209 C 0.80504 0.33405 0.33916
 C210 C 0.77560 0.35277 0.34130
 C211 C 0.74618 0.34253 0.31761
 C212 C 0.74632 0.31422 0.29198
 C213 C 0.68276 0.22970 0.27938
 C214 C 0.65478 0.22981 0.30543
 C215 C 0.66152 0.23543 0.34492
 C216 C 0.69656 0.23861 0.35829
 C217 C 0.72457 0.23797 0.33227
 C218 C 0.74637 0.21838 0.19436
 C219 C 0.74742 0.19239 0.16610
 C220 C 0.74705 0.15676 0.17672
 C221 C 0.74388 0.14728 0.21588
 C222 C 0.74312 0.17331 0.24419
 H223 H 0.81977 0.21282 0.25947
 H224 H 0.86441 0.20762 0.20906
 H225 H 0.84393 0.30753 0.16084
 H226 H 0.79928 0.31273 0.21114
 H227 H 0.82780 0.29107 0.31302
 H228 H 0.82793 0.34146 0.35732
 H229 H 0.72349 0.30703 0.27369
 H230 H 0.67698 0.22661 0.24888
 H231 H 0.62783 0.22642 0.29473
 H232 H 0.70222 0.24227 0.38876
 H233 H 0.75145 0.24076 0.34312
 H234 H 0.74718 0.24583 0.18567
 H235 H 0.74926 0.20012 0.13599
 H236 H 0.74267 0.11977 0.22451
 H237 H 0.74180 0.16565 0.27432
 H238 H 0.72302 0.35635 0.31918
 C239 C 0.27197 0.75725 0.23370
 C240 C 0.24343 0.73153 0.23452
 C241 C 0.21527 0.72967 0.20467
 C242 C 0.23954 0.70408 0.26533
 C243 C 0.30219 0.75599 0.26052
 C244 C 0.27370 0.78811 0.20704
 C245 C 0.17963 0.72856 0.21572
 C246 C 0.15334 0.73002 0.18783
 C247 C 0.16241 0.73253 0.14861
 C248 C 0.19774 0.73191 0.13739
 C249 C 0.22397 0.73024 0.16521
 C250 C 0.24161 0.71381 0.30448
 C251 C 0.24259 0.68807 0.33307
 C252 C 0.24089 0.65220 0.32300
 C253 C 0.23605 0.64224 0.28414
 C254 C 0.23559 0.66803 0.25546
 C255 C 0.32062 0.72624 0.26157
 C256 C 0.34589 0.72319 0.29019
 C257 C 0.35292 0.74975 0.31824
 C258 C 0.33596 0.78037 0.31585
 C259 C 0.31084 0.78352 0.28710
 C260 C 0.30374 0.79714 0.18374
 C261 C 0.30502 0.82536 0.15766
 C262 C 0.27636 0.84499 0.15473
 C263 C 0.24658 0.83643 0.17836
 C264 C 0.24542 0.80847 0.20466
 H265 H 0.17235 0.72784 0.24598
 H266 H 0.12609 0.73024 0.19683
 H267 H 0.20503 0.73345 0.10714
 H268 H 0.25121 0.73032 0.15605
 H269 H 0.24369 0.74144 0.31275
 H270 H 0.24571 0.69621 0.36296
 H271 H 0.23347 0.65997 0.22549
 H272 H 0.31459 0.70494 0.24095
 H273 H 0.35925 0.69970 0.29117
 H274 H 0.34140 0.80132 0.33697
 H275 H 0.29699 0.80669 0.28662
 H276 H 0.32591 0.78194 0.18528
 H277 H 0.32822 0.83180 0.13961
 H278 H 0.22435 0.85153 0.17652
 H279 H 0.22233 0.80252 0.22296
 H280 H 0.23378 0.61456 0.27597
 C281 C 0.75829 0.26210 0.75630
 C282 C 0.73078 0.23525 0.75658
 C283 C 0.70227 0.23274 0.72709
 C284 C 0.72852 0.20686 0.78637
 C285 C 0.78932 0.26071 0.78188
 C286 C 0.75880 0.29363 0.73069
 C287 C 0.66663 0.22797 0.73869
 C288 C 0.63969 0.22818 0.71140
 C289 C 0.64802 0.23355 0.67217
 C290 C 0.68354 0.23641 0.66032
 C291 C 0.71046 0.23571 0.68754
 C292 C 0.73078 0.21539 0.82586
 C293 C 0.73261 0.18889 0.85342
 C294 C 0.73160 0.15343 0.84198
 C295 C 0.72688 0.14462 0.80280
 C296 C 0.72554 0.17118 0.77516
 C297 C 0.80898 0.23188 0.78012
 C298 C 0.83562 0.22867 0.80707
 C299 C 0.84284 0.25418 0.83618
 C300 C 0.82449 0.28394 0.83666
 C301 C 0.79796 0.28725 0.80958
 C302 C 0.78931 0.30534 0.70909
 C303 C 0.78966 0.33390 0.68366
 C304 C 0.75952 0.35133 0.67938
 C305 C 0.72912 0.33993 0.70129
 C306 C 0.72903 0.31188 0.72737
 H307 H 0.65972 0.22508 0.76897
 H308 H 0.61234 0.22498 0.72092
 H309 H 0.69042 0.23986 0.63009
 H310 H 0.73774 0.23834 0.67786
 H311 H 0.73214 0.24270 0.83519
 H312 H 0.73567 0.19611 0.88358
 H313 H 0.72333 0.16401 0.74493
 H314 H 0.80297 0.21143 0.75852
 H315 H 0.85002 0.20589 0.80588
 H316 H 0.83009 0.30408 0.85867
 H317 H 0.78318 0.30973 0.81117
 H318 H 0.81265 0.29187 0.71128
 H319 H 0.81335 0.34219 0.66694
 H320 H 0.70539 0.35264 0.69803
 H321 H 0.70546 0.30396 0.74438
 H322 H 0.72520 0.11725 0.79358
 C323 C 0.23455 0.74630 0.74146
 C324 C 0.26280 0.77226 0.74302
 C325 C 0.29432 0.77057 0.71807
 C326 C 0.26343 0.80324 0.76927
 C327 C 0.20494 0.74450 0.76967
 C328 C 0.23280 0.71762 0.71214
 C329 C 0.31311 0.74110 0.71956
 C330 C 0.33961 0.73734 0.69248
 C331 C 0.34765 0.76301 0.66360
 C332 C 0.33042 0.79351 0.66361
 C333 C 0.30396 0.79732 0.69075
 C334 C 0.29271 0.81251 0.79347
 C335 C 0.29292 0.84057 0.81950
 C336 C 0.26393 0.85983 0.82158
 C337 C 0.23496 0.85118 0.79695
 C338 C 0.23488 0.82335 0.77062
 C339 C 0.16987 0.74201 0.75646
 C340 C 0.14183 0.74067 0.78271
 C341 C 0.14845 0.74126 0.82254
 C342 C 0.18345 0.74354 0.83583
 C343 C 0.21150 0.74483 0.80959
 C344 C 0.23606 0.72563 0.67258
 C345 C 0.23850 0.69872 0.64565
 C346 C 0.23743 0.66344 0.65788
 C347 C 0.23181 0.65518 0.69710
 C348 C 0.22963 0.68210 0.72406
 H349 H 0.30634 0.72044 0.74082
 H350 H 0.35304 0.71389 0.69319
 H351 H 0.33660 0.81373 0.64173
 H352 H 0.28987 0.82029 0.68933
 H353 H 0.31507 0.79751 0.79277
 H354 H 0.31548 0.84704 0.83838
 H355 H 0.21239 0.81723 0.75160
 H356 H 0.16428 0.74161 0.72580
 H357 H 0.11494 0.73914 0.77204
 H358 H 0.18896 0.74403 0.86651
 H359 H 0.23833 0.74612 0.82037
 H360 H 0.23775 0.75283 0.66274
 H361 H 0.24224 0.70550 0.61542
 H362 H 0.23012 0.62796 0.70690
 H363 H 0.22673 0.67535 0.75438
 H364 H 0.21249 0.86600 0.79812
 C365 C 0.25957 0.24429 0.75059
 C366 C 0.23685 0.26926 0.75103
 C367 C 0.23987 0.29938 0.72330
 C368 C 0.20710 0.26705 0.77905
 C369 C 0.25839 0.21676 0.78122
 C370 C 0.28646 0.24279 0.71963
 C371 C 0.27212 0.32136 0.71784
 C372 C 0.27453 0.34921 0.69118
 C373 C 0.24458 0.35592 0.67022
 C374 C 0.21231 0.33426 0.67593
 C375 C 0.20994 0.30634 0.70237
 C376 C 0.20475 0.29485 0.80511
 C377 C 0.17685 0.29292 0.83159
 C378 C 0.15033 0.26362 0.83165
 C379 C 0.15285 0.23569 0.80574
 C380 C 0.18098 0.23742 0.77956
 C381 C 0.25551 0.18077 0.77105
 C382 C 0.25471 0.15472 0.79960
 C383 C 0.25668 0.16434 0.83865
 C384 C 0.26015 0.20028 0.84889
 C385 C 0.26120 0.22634 0.82036
 C386 C 0.27710 0.24348 0.68042
 C387 C 0.30260 0.24132 0.65177
 C388 C 0.33754 0.23703 0.66181
 C389 C 0.34687 0.23621 0.70092
 C390 C 0.32155 0.23901 0.72956
 H391 H 0.29539 0.31689 0.73417
 H392 H 0.29962 0.36574 0.68711
 H393 H 0.18901 0.33900 0.65981
 H394 H 0.18480 0.28981 0.70615
 H395 H 0.22475 0.31782 0.80517
 H396 H 0.17563 0.31447 0.85178
 H397 H 0.18230 0.21582 0.75946
 H398 H 0.25366 0.17289 0.74101
 H399 H 0.25234 0.12706 0.79132
 H400 H 0.26221 0.20806 0.87896
 H401 H 0.26436 0.25398 0.82876
 H402 H 0.25006 0.24554 0.67200
 H403 H 0.29503 0.24258 0.62172
 H404 H 0.37375 0.23317 0.70924
 H405 H 0.32934 0.23824 0.75958
 H406 H 0.13277 0.21278 0.80549
 C407 C 0.72774 0.76419 0.75705
 C408 C 0.75258 0.74140 0.75791
 C409 C 0.75313 0.71275 0.72890
 C410 C 0.78049 0.74372 0.78812
 C411 C 0.72603 0.79141 0.78738
 C412 C 0.70119 0.76340 0.72564
 C413 C 0.72323 0.68768 0.72265
 C414 C 0.72467 0.66022 0.69613
 C415 C 0.75618 0.65712 0.67610
 C416 C 0.78599 0.68216 0.68222
 C417 C 0.78453 0.70968 0.70856
 C418 C 0.78508 0.71354 0.80996
 C419 C 0.81138 0.71508 0.83817
 C420 C 0.83340 0.74691 0.84522
 C421 C 0.82936 0.77693 0.82285
 C422 C 0.80321 0.77532 0.79440
 C423 C 0.73007 0.82736 0.77709
 C424 C 0.72942 0.85341 0.80534
 C425 C 0.72377 0.84388 0.84424
 C426 C 0.71966 0.80788 0.85457
 C427 C 0.72064 0.78179 0.82630
 C428 C 0.71169 0.76854 0.68694
 C429 C 0.68624 0.76855 0.65782
 C430 C 0.65000 0.76371 0.66707
 C431 C 0.63959 0.75794 0.70570
 C432 C 0.66498 0.75825 0.73478
 H433 H 0.69898 0.68914 0.73863
 H434 H 0.70146 0.64102 0.69170
 H435 H 0.81044 0.68016 0.66679
 H436 H 0.80790 0.72864 0.71311
 H437 H 0.76817 0.68879 0.80521
 H438 H 0.81465 0.69143 0.85451
 H439 H 0.80079 0.79864 0.77714
 H440 H 0.73442 0.83524 0.74724
 H441 H 0.73332 0.88106 0.79691
 H442 H 0.71555 0.80004 0.88447
 H443 H 0.71726 0.75412 0.83470
 H444 H 0.73953 0.77286 0.67939
 H445 H 0.69476 0.77278 0.62815
 H446 H 0.61176 0.75352 0.71332
 H447 H 0.65641 0.75416 0.76446
 H448 H 0.84651 0.80156 0.82743
 C449 C 0.30297 0.08850 0.10161
 C450 C 0.27134 0.07412 0.08154
 C451 C 0.23932 0.08717 0.09101
 C452 C 0.23828 0.11476 0.11702
 C453 C 0.26902 0.13037 0.13504
 C454 C 0.30161 0.11741 0.12774
 C455 C 0.33557 0.07429 0.09826
 C456 C 0.36587 0.08947 0.11758
 C457 C 0.36463 0.11873 0.14120
 C458 C 0.33285 0.13251 0.14654
 H459 H 0.33850 0.05072 0.08215
 H460 H 0.39044 0.07819 0.11443
 H461 H 0.38829 0.13042 0.15603
 H462 H 0.33294 0.15492 0.16579
 H463 H 0.21463 0.07690 0.07714
 H464 H 0.21313 0.12421 0.12303
 C465 C 0.78172 0.57361 0.62745
 C466 C 0.76253 0.57472 0.59236
 C467 C 0.74058 0.60121 0.58695
 C468 C 0.73847 0.62730 0.61466
 C469 C 0.75812 0.62763 0.64876
 C470 C 0.77945 0.60036 0.65584
 C471 C 0.80211 0.54594 0.63569
 C472 C 0.82006 0.54493 0.67064
 C473 C 0.81800 0.57119 0.69816
 C474 C 0.79783 0.59860 0.69104
 H475 H 0.80381 0.52430 0.61592
 H476 H 0.83538 0.52343 0.67655
 H477 H 0.83181 0.57011 0.72534
 H478 H 0.79634 0.61801 0.71360
 H479 H 0.72547 0.60218 0.56057
 H480 H 0.72183 0.64785 0.60916
 C481 C 0.71478 0.92675 0.12304
 C482 C 0.74150 0.93245 0.09372
 C483 C 0.77011 0.91238 0.09508
 C484 C 0.77101 0.88517 0.12169
 C485 C 0.74372 0.87717 0.14850
 C486 C 0.71582 0.89855 0.15019
 C487 C 0.68857 0.94973 0.12814
 C488 C 0.66300 0.94370 0.15704
 C489 C 0.66343 0.91552 0.18243
 C490 C 0.68981 0.89346 0.17955
 H491 H 0.68809 0.97357 0.11142
 H492 H 0.64316 0.96152 0.16028
 H493 H 0.64379 0.91130 0.20516
 H494 H 0.69002 0.87302 0.20121
 H495 H 0.79136 0.91643 0.07404
 H496 H 0.79286 0.86950 0.12065
 C497 C 0.22929 0.44109 0.61728
 C498 C 0.24870 0.43688 0.58292
 C499 C 0.26828 0.40826 0.57957
 C500 C 0.26733 0.38281 0.60862
 C501 C 0.24688 0.38530 0.64191
 C502 C 0.22826 0.41498 0.64694
 C503 C 0.21171 0.47119 0.62336
 C504 C 0.19303 0.47508 0.65742
 C505 C 0.19175 0.44940 0.68619
 C506 C 0.20930 0.41969 0.68123
 H507 H 0.21270 0.49229 0.60232
 H508 H 0.17974 0.49831 0.66165
 H509 H 0.17740 0.45270 0.71267
 H510 H 0.20830 0.40083 0.70472
 H511 H 0.28359 0.40502 0.55371
 H512 H 0.28192 0.36040 0.60463
 C513 C 0.89757 0.22335 0.08873
 C514 C 0.92855 0.24854 0.08592
 C515 C 0.93472 0.27508 0.11409
 C516 C 0.91152 0.27690 0.14480
 C517 C 0.88108 0.25239 0.14842
 C518 C 0.87360 0.22546 0.12020
 C519 C 0.88886 0.19710 0.06030
 C520 C 0.85775 0.17351 0.06280
 C521 C 0.83440 0.17576 0.09329
 C522 C 0.84206 0.20143 0.12173
 H523 H 0.90543 0.19469 0.03556
 H524 H 0.85151 0.15363 0.04068
 H525 H 0.81001 0.15778 0.09459
 H526 H 0.82277 0.20256 0.14447
 H527 H 0.95787 0.29477 0.11240
 H528 H 0.91729 0.29782 0.16594
 C529 C 0.39223 0.72667 0.57530
 C530 C 0.42385 0.75110 0.57374
 C531 C 0.42907 0.77836 0.60119
 C532 C 0.40430 0.78152 0.63011
 C533 C 0.37328 0.75762 0.63263
 C534 C 0.36674 0.73009 0.60494
 C535 C 0.38449 0.69982 0.54731
 C536 C 0.35290 0.67684 0.54859
 C537 C 0.32810 0.68032 0.57733
 C538 C 0.33475 0.70667 0.60522
 H539 H 0.40222 0.69652 0.52381
 H540 H 0.34744 0.65646 0.52686
 H541 H 0.30339 0.66279 0.57768
 H542 H 0.31435 0.70878 0.62651
 H543 H 0.45280 0.79740 0.60044
 H544 H 0.40941 0.80287 0.65086
 C545 C 0.10879 0.77160 0.06940
 C546 C 0.08253 0.74178 0.06205
 C547 C 0.08511 0.70991 0.08208
 C548 C 0.11084 0.70763 0.11006
 C549 C 0.13518 0.73696 0.11926
 C550 C 0.13420 0.76935 0.09938
 C551 C 0.11193 0.80305 0.04693
 C552 C 0.13632 0.83229 0.05640
 C553 C 0.15880 0.83084 0.08771
 C554 C 0.15825 0.79959 0.10872
 H555 H 0.09693 0.80549 0.02095
 H556 H 0.13792 0.85619 0.03914
 H557 H 0.17727 0.85383 0.09524
 H558 H 0.17684 0.79937 0.13230
 H559 H 0.06626 0.68650 0.07717
 H560 H 0.11164 0.68266 0.12493
 C561 C 0.56784 0.26087 0.61805
 C562 C 0.56568 0.23596 0.58728
 C563 C 0.58974 0.21098 0.58590
 C564 C 0.61614 0.21078 0.61353
 C565 C 0.61963 0.23572 0.64339
 C566 C 0.59582 0.26152 0.64550
 C567 C 0.54253 0.28472 0.62278
 C568 C 0.54616 0.31013 0.65197
 C569 C 0.57482 0.31228 0.67707
 C570 C 0.59946 0.28827 0.67403
 H571 H 0.51936 0.28371 0.60467
 H572 H 0.52667 0.32834 0.65503
 H573 H 0.57779 0.33243 0.69929
 H574 H 0.62138 0.29107 0.69407
 H575 H 0.58849 0.19171 0.56276
 H576 H 0.63411 0.19092 0.61158
 C577 C 0.76321 0.07509 0.89580
 C578 C 0.73814 0.07127 0.92660
 C579 C 0.71200 0.09411 0.92830
 C580 C 0.71055 0.12060 0.90090
 C581 C 0.73543 0.12555 0.87101
 C582 C 0.76265 0.10339 0.86882
 C583 C 0.78841 0.05120 0.89047
 C584 C 0.81419 0.05689 0.86171
 C585 C 0.81527 0.08612 0.83743
 C586 C 0.78974 0.10913 0.84071
 H587 H 0.78828 0.02751 0.90764
 H588 H 0.83350 0.03854 0.85832
 H589 H 0.83571 0.09072 0.81558
 H590 H 0.79167 0.13155 0.82126
 H591 H 0.69260 0.09171 0.95140
 H592 H 0.68967 0.13740 0.90296
 C593 C 0.27175 0.57558 0.38061
 C594 C 0.24707 0.57359 0.41167
 C595 C 0.22123 0.59675 0.41228
 C596 C 0.21980 0.62199 0.38346
 C597 C 0.24435 0.62520 0.35315
 C598 C 0.27118 0.60249 0.35198
 C599 C 0.29661 0.55115 0.37674
 C600 C 0.32200 0.55495 0.34747
 C601 C 0.32309 0.58287 0.32138
 C602 C 0.29795 0.60642 0.32342
 H603 H 0.29651 0.52855 0.39563
 H604 H 0.34106 0.53622 0.34515
 H605 H 0.34327 0.58605 0.29915
 H606 H 0.29998 0.62782 0.30266
 H607 H 0.20208 0.59555 0.43558
 H608 H 0.19923 0.63920 0.38477
 C609 C 0.28485 0.94803 0.87501
 C610 C 0.26392 0.94029 0.90872
 C611 C 0.24200 0.90786 0.91144
 C612 C 0.24187 0.88246 0.88253
 C613 C 0.26372 0.88867 0.85008
 C614 C 0.28506 0.92176 0.84571
 C615 C 0.30478 0.98160 0.86913
 C616 C 0.32530 0.98859 0.83596
 C617 C 0.32611 0.96260 0.80783
 C618 C 0.30607 0.92954 0.81241
 H619 H 0.30419 1.00303 0.88947
 H620 H 0.34043 1.01442 0.83191
 H621 H 0.34199 0.96826 0.78209
 H622 H 0.30685 0.91036 0.78947
 H623 H 0.22561 0.90169 0.93677
 H624 H 0.22522 0.85732 0.88593
 C625 C 0.76631 0.44241 0.38850
 C626 C 0.77034 0.43323 0.42773
 C627 C 0.77722 0.39910 0.43740
 C628 C 0.77917 0.37365 0.40891
 C629 C 0.77486 0.38173 0.36983
 C630 C 0.76920 0.41664 0.35920
 C631 C 0.76025 0.47693 0.37771
 C632 C 0.75797 0.48614 0.33893
 C633 C 0.76167 0.46126 0.31025
 C634 C 0.76731 0.42686 0.32012
 H635 H 0.75751 0.49711 0.39905
 H636 H 0.75364 0.51282 0.33110
 H637 H 0.76029 0.46870 0.28018
 H638 H 0.77073 0.40865 0.29687
 H639 H 0.78063 0.39198 0.46733
 H640 H 0.78365 0.34718 0.41748
 C641 C 0.06875 0.28591 0.88764
 C642 C 0.06570 0.25797 0.91567
 C643 C 0.08788 0.23124 0.91209
 C644 C 0.11470 0.23346 0.88456
 C645 C 0.12009 0.26206 0.85895
 C646 C 0.09643 0.28802 0.85945
 C647 C 0.04354 0.31024 0.88479
 C648 C 0.04686 0.33698 0.85701
 C649 C 0.07450 0.33959 0.83057
 C650 C 0.09875 0.31513 0.83126
 H651 H 0.02004 0.30829 0.90246
 H652 H 0.02736 0.35532 0.85547
 H653 H 0.07661 0.36010 0.80870
 H654 H 0.11866 0.31723 0.80881
 H655 H 0.08584 0.20917 0.93213
 H656 H 0.13213 0.21305 0.88392
 C657 C 0.57082 0.76831 0.37917
 C658 C 0.57247 0.74931 0.41430
 C659 C 0.60096 0.73010 0.42082
 C660 C 0.62856 0.73093 0.39424
 C661 C 0.62846 0.75094 0.36033
 C662 C 0.59916 0.76928 0.35208
 C663 C 0.54114 0.78549 0.36972
 C664 C 0.53983 0.80381 0.33500
 C665 C 0.56771 0.80511 0.30881
 C666 C 0.59704 0.78788 0.31702
 H667 H 0.51839 0.78439 0.38854
 H668 H 0.51688 0.81680 0.32822
 H669 H 0.56642 0.81918 0.28178
 H670 H 0.61769 0.78885 0.29541
 H671 H 0.60238 0.71513 0.44728
 H672 H 0.65067 0.71654 0.40062
 C673 C 0.88384 0.73854 0.93989
 C674 C 0.91900 0.74671 0.92616
 C675 C 0.92509 0.75656 0.88761
 C676 C 0.89695 0.75711 0.86211
 C677 C 0.86187 0.74821 0.87453
 C678 C 0.85496 0.73968 0.91397
 C679 C 0.87676 0.73006 0.97906
 C680 C 0.84201 0.72322 0.99249
 C681 C 0.81377 0.72487 0.96734
 C682 C 0.82004 0.73315 0.92849
 H683 H 0.89793 0.72901 0.99966
 H684 H 0.83697 0.71693 1.02264
 H685 H 0.78685 0.71993 0.97804
 H686 H 0.79732 0.73492 0.91021
 H687 H 0.95192 0.76317 0.87698
 H688 H 0.90263 0.76385 0.83216
 C689 C 0.42723 0.21082 0.38488
 C690 C 0.42898 0.23507 0.41620
 C691 C 0.40406 0.25909 0.41876
 C692 C 0.37725 0.25905 0.39156
 C693 C 0.37431 0.23486 0.36098
 C694 C 0.39898 0.20998 0.35776
 C695 C 0.45325 0.18788 0.37928
 C696 C 0.45021 0.16320 0.34936
 C697 C 0.42143 0.16090 0.32439
 C698 C 0.39601 0.18399 0.32842
 H699 H 0.47647 0.18906 0.39735
 H700 H 0.47024 0.14567 0.34560
 H701 H 0.41894 0.14133 0.30156
 H702 H 0.37401 0.18108 0.30848
 H703 H 0.40502 0.27780 0.44243
 H704 H 0.35867 0.27826 0.39429
 C705 C 0.70344 0.92607 0.89999
 C706 C 0.72919 0.92669 0.92977
 C707 C 0.75173 0.90031 0.93079
 C708 C 0.74896 0.87334 0.90342
 C709 C 0.72347 0.87173 0.87415
 C710 C 0.69985 0.89773 0.87276
 C711 C 0.68177 0.95340 0.89586
 C712 C 0.65571 0.95159 0.86744
 C713 C 0.65076 0.92278 0.84249
 C714 C 0.67255 0.89607 0.84498
 H715 H 0.68495 0.97673 0.91390
 H716 H 0.63919 0.97264 0.86485
 H717 H 0.63015 0.92128 0.82084
 H718 H 0.66763 0.87410 0.82509
 H719 H 0.77159 0.90045 0.95319
 H720 H 0.76727 0.85377 0.90475
 C721 C 0.23027 0.43635 0.38063
 C722 C 0.24897 0.43289 0.41559
 C723 C 0.26819 0.40417 0.42047
 C724 C 0.26772 0.37803 0.39225
 C725 C 0.24810 0.37993 0.35833
 C726 C 0.22967 0.40951 0.35188
 C727 C 0.21304 0.46641 0.37305
 C728 C 0.19506 0.46954 0.33844
 C729 C 0.19408 0.44307 0.31062
 C730 C 0.21130 0.41338 0.31705
 H731 H 0.21376 0.48806 0.39331
 H732 H 0.18203 0.49276 0.33306
 H733 H 0.18021 0.44574 0.28372
 H734 H 0.21050 0.39382 0.29430
 H735 H 0.28299 0.40151 0.44679
 H736 H 0.28220 0.35569 0.39724
 C737 C 0.22890 0.10343 0.92455
 C738 C 0.25906 0.08440 0.92672
 C739 C 0.28753 0.09389 0.90116
 C740 C 0.28591 0.11937 0.87273
 C741 C 0.25604 0.13682 0.86884
 C742 C 0.22716 0.12899 0.89454
 C743 C 0.20134 0.09958 0.95243
 C744 C 0.17184 0.11763 0.94875
 C745 C 0.16923 0.14048 0.91789
 C746 C 0.19667 0.14642 0.89115
 H747 H 0.20244 0.08395 0.97824
 H748 H 0.15099 0.11409 0.97023
 H749 H 0.14615 0.15423 0.91512
 H750 H 0.19384 0.16495 0.86798
 H751 H 0.31106 0.08058 0.90203
 H752 H 0.30829 0.12553 0.85342
 C753 C 0.80104 0.57859 0.39868
 C754 C 0.77520 0.57723 0.42855
 C755 C 0.75168 0.60271 0.42944
 C756 C 0.75350 0.62949 0.40190
 C757 C 0.77900 0.63185 0.37253
 C758 C 0.80359 0.60675 0.37118
 C759 C 0.82383 0.55220 0.39475
 C760 C 0.84973 0.55464 0.36604
 C761 C 0.85359 0.58329 0.34077
 C762 C 0.83087 0.60917 0.34323
 H763 H 0.82166 0.52908 0.41311
 H764 H 0.86702 0.53425 0.36352
 H765 H 0.87413 0.58532 0.31893
 H766 H 0.83506 0.63110 0.32316
 H767 H 0.73173 0.60201 0.45189
 H768 H 0.73445 0.64835 0.40321
 C769 C 0.06430 0.71073 0.88095
 C770 C 0.06345 0.74101 0.90538
 C771 C 0.08876 0.77088 0.89909
 C772 C 0.11591 0.77025 0.87232
 C773 C 0.11879 0.73998 0.85039
 C774 C 0.09303 0.70989 0.85448
 C775 C 0.03672 0.68191 0.88053
 C776 C 0.03919 0.65201 0.85792
 C777 C 0.06867 0.65022 0.83466
 C778 C 0.09526 0.67889 0.83263
 H779 H 0.01226 0.68233 0.89616
 H780 H 0.01796 0.63017 0.85828
 H781 H 0.07057 0.62679 0.81744
 H782 H 0.11745 0.67656 0.81366
 H783 H 0.08878 0.79466 0.91630
 H784 H 0.13521 0.79360 0.86899
 C785 C 0.57810 0.26223 0.39301
 C786 C 0.57413 0.23734 0.42387
 C787 C 0.59849 0.21286 0.42767
 C788 C 0.62679 0.21300 0.40218
 C789 C 0.63186 0.23779 0.37217
 C790 C 0.60793 0.26327 0.36789
 C791 C 0.55277 0.28561 0.38585
 C792 C 0.55806 0.31101 0.35667
 C793 C 0.58844 0.31359 0.33396
 C794 C 0.61317 0.29001 0.33935
 H795 H 0.52835 0.28427 0.40201
 H796 H 0.53854 0.32888 0.35176
 H797 H 0.59267 0.33374 0.31175
 H798 H 0.63645 0.29313 0.32111
 H799 H 0.59583 0.19362 0.45092
 H800 H 0.64483 0.19338 0.40575
 C801 C 0.89238 0.21912 0.92166
 C802 C 0.92215 0.24598 0.92339
 C803 C 0.92479 0.27381 0.89649
 C804 C 0.89908 0.27568 0.86845
 C805 C 0.86954 0.24991 0.86627
 C806 C 0.86568 0.22147 0.89311
 C807 C 0.88761 0.19068 0.94824
 C808 C 0.85757 0.16555 0.94697
 C809 C 0.83137 0.16832 0.91967
 C810 C 0.83519 0.19598 0.89303
 H811 H 0.90655 0.18733 0.97045
 H812 H 0.85442 0.14397 0.96757
 H813 H 0.80786 0.14907 0.91936
 H814 H 0.81377 0.19736 0.87284
 H815 H 0.94720 0.29448 0.89705
 H816 H 0.90226 0.29759 0.84819
 C817 C 0.39686 0.71622 0.40870
 C818 C 0.42708 0.74251 0.41131
 C819 C 0.43178 0.76944 0.38335
 C820 C 0.40784 0.77089 0.35337
 C821 C 0.37788 0.74572 0.35029
 C822 C 0.37183 0.71829 0.37825
 C823 C 0.38993 0.68870 0.43619
 C824 C 0.35933 0.66437 0.43415
 C825 C 0.33470 0.66703 0.40513
 C826 C 0.34071 0.69365 0.37742
 H827 H 0.40753 0.68545 0.45973
 H828 H 0.35451 0.64352 0.45551
 H829 H 0.31066 0.64853 0.40433
 H830 H 0.32045 0.69497 0.35584
 H831 H 0.45440 0.78981 0.38461
 H832 H 0.41266 0.79211 0.33238
 C833 C 0.29597 0.93607 0.10675
 C834 C 0.27481 0.93004 0.07307
 C835 C 0.25500 0.89682 0.06735
 C836 C 0.25636 0.86949 0.09384
 C837 C 0.27732 0.87461 0.12698
 C838 C 0.29741 0.90799 0.13377
 C839 C 0.31462 0.96972 0.11506
 C840 C 0.33499 0.97530 0.14843
 C841 C 0.33688 0.94769 0.17441
 C842 C 0.31815 0.91437 0.16741
 H843 H 0.31320 0.99216 0.09635
 H844 H 0.34916 1.00127 0.15429
 H845 H 0.35262 0.95222 0.20035
 H846 H 0.31982 0.89383 0.18871
 H847 H 0.23850 0.89192 0.04197
 H848 H 0.24090 0.84402 0.08848
 C849 C 0.74922 0.43977 0.62960
 C850 C 0.75836 0.43131 0.59137
 C851 C 0.76783 0.39782 0.58316
 C852 C 0.76788 0.37243 0.61207
 C853 C 0.75931 0.38002 0.65032
 C854 C 0.75056 0.41426 0.65956
 C855 C 0.73977 0.47346 0.63889
 C856 C 0.73297 0.48230 0.67697
 C857 C 0.73551 0.45788 0.70644
 C858 C 0.74430 0.42422 0.69800
 H859 H 0.73785 0.49332 0.61692
 H860 H 0.72613 0.50839 0.68369
 H861 H 0.73076 0.46509 0.73604
 H862 H 0.74674 0.40646 0.72194
 H863 H 0.77519 0.39126 0.55405
 H864 H 0.77468 0.34649 0.60449
 C865 C 0.77479 0.07847 0.11942
 C866 C 0.74783 0.07500 0.09068
 C867 C 0.72234 0.09859 0.09084
 C868 C 0.72293 0.12511 0.11847
 C869 C 0.74924 0.12931 0.14680
 C870 C 0.77613 0.10667 0.14678
 C871 C 0.79996 0.05427 0.12249
 C872 C 0.82726 0.05943 0.14949
 C873 C 0.82996 0.08842 0.17420
 C874 C 0.80465 0.11181 0.17308
 H875 H 0.79875 0.03081 0.10484
 H876 H 0.84651 0.04083 0.15116
 H877 H 0.85155 0.09257 0.19467
 H878 H 0.80785 0.13405 0.19275
 H879 H 0.70158 0.09648 0.06928
 H880 H 0.70232 0.14231 0.11803
 C881 C 0.27134 0.58479 0.60694
 C882 C 0.24651 0.57962 0.57614
 C883 C 0.22001 0.60195 0.57319
 C884 C 0.21783 0.62913 0.59957
 C885 C 0.24224 0.63516 0.62971
 C886 C 0.26989 0.61359 0.63303
 C887 C 0.29710 0.56168 0.61316
 C888 C 0.32242 0.56845 0.64215
 C889 C 0.32251 0.59804 0.66571
 C890 C 0.29650 0.62040 0.66141
 H891 H 0.29779 0.53787 0.59642
 H892 H 0.34217 0.55068 0.64627
 H893 H 0.34259 0.60346 0.68776
 H894 H 0.29767 0.64315 0.68029
 H895 H 0.20080 0.59847 0.55000
 H896 H 0.19666 0.64547 0.59662
 C897 C 0.93774 0.72112 0.11576
 C898 C 0.93734 0.74480 0.08410
 C899 C 0.91115 0.76749 0.08230
 C900 C 0.88489 0.76632 0.11046
 C901 C 0.88390 0.74238 0.14130
 C902 C 0.91024 0.71918 0.14398
 C903 C 0.96513 0.69961 0.12038
 C904 C 0.96430 0.67535 0.15065
 C905 C 0.93635 0.67202 0.17687
 C906 C 0.90953 0.69361 0.17368
 H907 H 0.98770 0.70163 0.10116
 H908 H 0.98538 0.65895 0.15368
 H909 H 0.93558 0.65276 0.19998
 H910 H 0.88823 0.68984 0.19455
 H911 H 0.91039 0.78563 0.05827
 H912 H 0.86499 0.78420 0.10807
 C913 C 0.38717 0.20901 0.57261
 C914 C 0.41808 0.23426 0.57457
 C915 C 0.42119 0.25953 0.60417
 C916 C 0.39493 0.25977 0.63205
 C917 C 0.36474 0.23455 0.63157
 C918 C 0.36092 0.20840 0.60214
 C919 C 0.38124 0.18480 0.54163
 C920 C 0.35163 0.15911 0.54123
 C921 C 0.32732 0.15703 0.57141
 C922 C 0.33179 0.18136 0.60161
 H923 H 0.39883 0.18570 0.51707
 H924 H 0.34761 0.14063 0.51742
 H925 H 0.30469 0.13667 0.57123
 H926 H 0.31232 0.17857 0.62453
 H927 H 0.44447 0.27909 0.60607
 H928 H 0.39819 0.27996 0.65427
 C929 C 0.07165 0.28113 0.11417
 C930 C 0.07315 0.25922 0.08111
 C931 C 0.10072 0.23827 0.07763
 C932 C 0.12726 0.23955 0.10536
 C933 C 0.12705 0.26177 0.13751
 C934 C 0.09895 0.28249 0.14248
 C935 C 0.04299 0.30069 0.12062
 C936 C 0.04171 0.32160 0.15349
 C937 C 0.06857 0.32321 0.18083
 C938 C 0.09684 0.30372 0.17565
 H939 H 0.02097 0.29964 0.10094
 H940 H 0.01954 0.33639 0.15795
 H941 H 0.06728 0.33930 0.20643
 H942 H 0.11666 0.30508 0.19813
 H943 H 0.10200 0.22109 0.05286
 H944 H 0.14846 0.22336 0.10149
 C945 C 0.56953 0.78448 0.60861
 C946 C 0.56964 0.75882 0.57878
 C947 C 0.59587 0.73607 0.57872
 C948 C 0.62199 0.73858 0.60704
 C949 C 0.62287 0.76399 0.63637
 C950 C 0.59699 0.78777 0.63688
 C951 C 0.54231 0.80641 0.61174
 C952 C 0.54338 0.83235 0.64027
 C953 C 0.57134 0.83696 0.66631
 C954 C 0.59793 0.81497 0.66476
 H955 H 0.51965 0.80354 0.59280
 H956 H 0.52242 0.84904 0.64210
 H957 H 0.57228 0.85748 0.68805
 H958 H 0.61924 0.81967 0.68546
 H959 H 0.59633 0.71629 0.55629
 H960 H 0.64151 0.72019 0.60634
   
