data_POSCAR
  _audit_creation_date              2014-09-24
  _audit_creation_method            'ToBaCCo'
  _symmetry_space_group_name_H-M    'P1'
  _symmetry_Int_Tables_number       1
  _symmetry_cell_setting            triclinic
  loop_
  _symmetry_equiv_pos_as_xyz
 x,y,z
_cell_length_a 27.7445
_cell_length_b 27.6952
_cell_length_c 46.1148
_cell_angle_alpha 79.915300
_cell_angle_beta 97.232900
_cell_angle_gamma 87.872400
loop_
  _atom_site_label
  _atom_site_type_symbol
  _atom_site_fract_x
  _atom_site_fract_y
  _atom_site_fract_z
O1 O -0.05013 0.44105 1.01860
 O2 O -0.04105 0.55351 0.96362
 O3 O -0.04133 0.45895 0.96204
 O4 O -0.05075 0.53432 1.01979
 O5 O 0.02916 0.52774 1.03106
 O6 O 0.03856 0.45313 0.97323
 O7 O 0.03872 0.54683 0.97505
 O8 O 0.02988 0.43469 1.02936
 Cu9 Cu -0.05384 0.49759 0.98970
 Cu10 Cu 0.04205 0.49000 1.00318
 C11 C -0.01152 0.41880 1.03349
 C12 C 0.00050 0.56993 0.96025
 C13 C 0.00027 0.44268 0.95798
 C14 C -0.01236 0.54371 1.03542
 O15 O 0.55972 -0.01423 0.53048
 O16 O 0.45686 -0.03419 0.47623
 O17 O 0.55100 -0.03272 0.47655
 O18 O 0.46639 -0.01608 0.52961
 O19 O 0.45907 0.06366 0.51220
 O20 O 0.54304 0.04664 0.45819
 O21 O 0.44845 0.04537 0.45843
 O22 O 0.55275 0.06510 0.51218
 Cu23 Cu 0.50947 -0.03227 0.50489
 Cu24 Cu 0.50016 0.06316 0.48332
 C25 C 0.57376 0.02886 0.53087
 C26 C 0.43434 0.00222 0.45847
 C27 C 0.56167 0.00396 0.45831
 C28 C 0.44819 0.02650 0.53004
 C29 C -0.04097 -0.12384 0.23813
 C30 C -0.08545 -0.11836 0.25431
 C31 C -0.08638 -0.07786 0.26741
 C32 C -0.04252 -0.04612 0.26297
 C33 C -0.04093 -0.07523 0.21650
 C34 C -0.04153 -0.03468 0.22929
 C35 C 0.00244 -0.12277 0.26222
 C36 C 0.00219 -0.08188 0.27492
 H37 H -0.11234 -0.14551 0.25677
 H38 H -0.04293 -0.01309 0.27352
 H39 H -0.03906 -0.07331 0.19299
 H40 H 0.03166 -0.15116 0.26798
 C41 C 0.09021 0.06644 0.72466
 C42 C 0.08929 0.01858 0.74708
 C43 C 0.05153 0.01672 0.76343
 C44 C 0.01748 0.06374 0.75568
 C45 C 0.04009 0.07265 0.70596
 C46 C 0.00210 0.07120 0.72190
 C47 C 0.08956 0.10662 0.74381
 C48 C 0.05153 0.10537 0.76001
 H49 H 0.11655 -0.01135 0.74951
 H50 H -0.01352 0.06298 0.76872
 H51 H 0.03522 0.07689 0.68194
 H52 H 0.11688 0.13315 0.74518
 C53 C -0.02217 -0.36805 0.10288
 C54 C -0.06457 -0.38100 0.08663
 C55 C -0.06144 -0.40981 0.06480
 C56 C -0.01587 -0.42640 0.05880
 C57 C 0.02646 -0.41393 0.07528
 C58 C 0.02336 -0.38506 0.09703
 C59 C -0.02520 -0.33605 0.12529
 N60 N 0.01582 -0.32027 0.13909
 N61 N 0.01325 -0.29016 0.15847
 C62 C -0.03046 -0.27458 0.16496
 N63 N -0.07153 -0.29071 0.15137
 N64 N -0.06895 -0.32080 0.13194
 C65 C -0.03317 -0.23911 0.18541
 C66 C -0.07800 -0.22453 0.19338
 C67 C -0.08070 -0.18873 0.21117
 C68 C -0.03846 -0.16710 0.22189
 C69 C 0.00624 -0.18164 0.21357
 C70 C 0.00896 -0.21753 0.19597
 H71 H -0.10022 -0.36852 0.09054
 H72 H -0.09476 -0.41889 0.05254
 H73 H 0.06214 -0.42618 0.07125
 H74 H 0.05677 -0.37589 0.10913
 H75 H -0.11130 -0.23992 0.18528
 H76 H -0.11628 -0.17698 0.21544
 H77 H 0.03919 -0.16417 0.21995
 H78 H 0.04403 -0.22723 0.18991
 C79 C -0.01908 0.28792 0.09829
 C80 C -0.06137 0.31796 0.08632
 C81 C -0.05911 0.36042 0.06514
 C82 C -0.01442 0.37396 0.05580
 C83 C 0.02788 0.34423 0.06807
 C84 C 0.02554 0.30162 0.08894
 C85 C -0.02130 0.24188 0.11982
 N86 N 0.01645 0.20748 0.12555
 N87 N 0.01428 0.16535 0.14417
 C88 C -0.02561 0.15588 0.15803
 N89 N -0.06326 0.19046 0.15257
 N90 N -0.06119 0.23258 0.13377
 C91 C -0.02853 0.10793 0.17758
 C92 C -0.06293 0.10124 0.19768
 C93 C -0.06640 0.05509 0.21521
 C94 C -0.03627 0.01484 0.21243
 C95 C -0.00144 0.02170 0.19274
 C96 C 0.00262 0.06777 0.17566
 H97 H -0.09634 0.30830 0.09299
 H98 H -0.09229 0.38272 0.05617
 H99 H 0.06287 0.35363 0.06134
 H100 H 0.05884 0.27942 0.09778
 H101 H -0.08725 0.13157 0.19977
 H102 H -0.09354 0.05054 0.23023
 H103 H 0.02268 -0.00873 0.19054
 H104 H 0.02951 0.07161 0.16044
 C105 C 0.34583 0.04243 0.59108
 C106 C 0.36265 -0.00433 0.58742
 C107 C 0.39625 -0.00930 0.56789
 C108 C 0.41364 0.03237 0.55132
 C109 C 0.39715 0.07921 0.55506
 C110 C 0.36373 0.08420 0.57486
 C111 C 0.30915 0.04713 0.61130
 N112 N 0.29819 0.09092 0.61913
 N113 N 0.26474 0.09477 0.63712
 C114 C 0.24074 0.05502 0.64788
 N115 N 0.25178 0.01133 0.64004
 N116 N 0.28529 0.00745 0.62220
 C117 C 0.20292 0.05892 0.66747
 C118 C 0.17152 0.02080 0.67298
 C119 C 0.13566 0.02404 0.69128
 C120 C 0.13069 0.06492 0.70525
 C121 C 0.16170 0.10360 0.69926
 C122 C 0.19741 0.10053 0.68062
 H123 H 0.34983 -0.03730 0.59965
 H124 H 0.40818 -0.04592 0.56553
 H125 H 0.40999 0.11201 0.54265
 H126 H 0.35143 0.12074 0.57713
 H127 H 0.17416 -0.01148 0.66286
 H128 H 0.11149 -0.00569 0.69454
 H129 H 0.15838 0.13675 0.70830
 H130 H 0.22076 0.13078 0.67655
 C131 C -0.30932 0.05106 0.59481
 C132 C -0.33127 0.09060 0.57326
 C133 C -0.37003 0.08342 0.55226
 C134 C -0.38752 0.03634 0.55208
 C135 C -0.36545 -0.00316 0.57377
 C136 C -0.32706 0.00419 0.59492
 C137 C -0.26727 0.05825 0.61652
 N138 N -0.25090 0.02227 0.64011
 N139 N -0.21172 0.02775 0.65886
 C140 C -0.18717 0.06940 0.65479
 N141 N -0.20383 0.10560 0.63137
 N142 N -0.24314 0.10020 0.61269
 C143 C -0.14127 0.07367 0.67417
 C144 C -0.10957 0.11037 0.66559
 C145 C -0.06366 0.11075 0.68190
 C146 C -0.04876 0.07489 0.70732
 C147 C -0.08125 0.03985 0.71682
 C148 C -0.12703 0.03906 0.70035
 H149 H -0.31853 0.12721 0.57260
 H150 H -0.38597 0.11485 0.53602
 H151 H -0.37778 -0.03996 0.57454
 H152 H -0.31085 -0.02713 0.61113
 H153 H -0.11935 0.13764 0.64560
 H154 H -0.03919 0.13833 0.67423
 H155 H -0.07035 0.01140 0.73599
 H156 H -0.15064 0.01041 0.70765
 C157 C 0.01305 -0.29500 0.90278
 C158 C 0.05464 -0.32289 0.91835
 C159 C 0.05043 -0.36760 0.93696
 C160 C 0.00444 -0.38589 0.94056
 C161 C -0.03723 -0.35824 0.92461
 C162 C -0.03294 -0.31332 0.90601
 C163 C 0.01802 -0.24714 0.88343
 N164 N -0.02177 -0.21854 0.86917
 N165 N -0.01691 -0.17569 0.85174
 C166 C 0.02793 -0.15961 0.84784
 N167 N 0.06762 -0.18817 0.86216
 N168 N 0.06277 -0.23092 0.87959
 C169 C 0.03376 -0.11273 0.82775
 C170 C 0.08033 -0.09890 0.82202
 C171 C 0.08603 -0.05635 0.80183
 C172 C 0.04532 -0.02640 0.78669
 C173 C -0.00112 -0.03902 0.79347
 C174 C -0.00689 -0.08186 0.81360
 H175 H 0.09067 -0.31005 0.91638
 H176 H 0.08350 -0.38759 0.94872
 H177 H -0.07331 -0.37094 0.92670
 H178 H -0.06573 -0.29288 0.89425
 H179 H 0.11258 -0.12133 0.83280
 H180 H 0.12258 -0.04707 0.79815
 H181 H -0.03328 -0.01669 0.78281
 H182 H -0.04328 -0.09106 0.81776
 C183 C 0.01291 0.34519 0.89560
 C184 C 0.05459 0.36074 0.91122
 C185 C 0.05038 0.39293 0.93105
 C186 C 0.00439 0.41049 0.93578
 C187 C -0.03736 0.39564 0.91985
 C188 C -0.03315 0.36333 0.89999
 C189 C 0.01777 0.30973 0.87529
 N190 N -0.02207 0.29368 0.86032
 N191 N -0.01736 0.26132 0.84243
 C192 C 0.02740 0.24360 0.83879
 N193 N 0.06715 0.25973 0.85374
 N194 N 0.06245 0.29203 0.87159
 C195 C 0.03310 0.20756 0.81894
 C196 C 0.07978 0.18946 0.81572
 C197 C 0.08563 0.15609 0.79681
 C198 C 0.04499 0.13995 0.78059
 C199 C -0.00174 0.15744 0.78400
 C200 C -0.00766 0.19098 0.80295
 H201 H 0.09067 0.34769 0.90838
 H202 H 0.08330 0.40364 0.94292
 H203 H -0.07334 0.40848 0.92301
 H204 H -0.06602 0.35222 0.88829
 H205 H 0.11201 0.20107 0.82780
 H206 H 0.12211 0.14256 0.79515
 H207 H -0.03373 0.14604 0.77156
 H208 H -0.04414 0.20414 0.80488
 C209 C -0.33529 -0.01797 0.39848
 C210 C -0.35444 0.02956 0.39904
 C211 C -0.38827 0.03678 0.41823
 C212 C -0.40356 -0.00335 0.43733
 C213 C -0.38465 -0.05082 0.43659
 C214 C -0.35102 -0.05805 0.41741
 C215 C -0.29884 -0.02603 0.37858
 N216 N -0.28173 -0.07223 0.37766
 N217 N -0.24871 -0.07981 0.36011
 C218 C -0.23122 -0.04153 0.34267
 N219 N -0.24833 0.00477 0.34352
 N220 N -0.28145 0.01236 0.36110
 C221 C -0.19420 -0.05040 0.32329
 C222 C -0.17456 -0.01111 0.30579
 C223 C -0.13953 -0.01998 0.28768
 C224 C -0.12361 -0.06825 0.28652
 C225 C -0.14307 -0.10746 0.30414
 C226 C -0.17790 -0.09866 0.32225
 H227 H -0.34321 0.06126 0.38474
 H228 H -0.40213 0.07384 0.41827
 H229 H -0.39567 -0.08257 0.45097
 H230 H -0.33714 -0.09517 0.41761
 H231 H -0.18623 0.02653 0.30606
 H232 H -0.12546 0.01100 0.27431
 H233 H -0.13083 -0.14511 0.30438
 H234 H -0.19192 -0.12986 0.33552
 C235 C 0.30379 -0.02093 0.40259
 C236 C 0.33139 -0.06076 0.42114
 C237 C 0.37423 -0.05327 0.43876
 C238 C 0.39059 -0.00576 0.43829
 C239 C 0.36352 0.03403 0.41938
 C240 C 0.32060 0.02653 0.40171
 C241 C 0.25754 -0.02902 0.38462
 N242 N 0.23082 0.00897 0.36622
 N243 N 0.18926 0.00146 0.35018
 C244 C 0.17258 -0.04434 0.35192
 N245 N 0.19926 -0.08225 0.37036
 N246 N 0.24077 -0.07475 0.38636
 C247 C 0.12700 -0.05319 0.33355
 C248 C 0.11049 -0.10089 0.33541
 C249 C 0.06918 -0.10996 0.31699
 C250 C 0.04332 -0.07156 0.29629
 C251 C 0.05882 -0.02363 0.29499
 C252 C 0.10027 -0.01452 0.31341
 H253 H 0.31972 -0.09784 0.42232
 H254 H 0.39418 -0.08475 0.45307
 H255 H 0.37511 0.07110 0.41853
 H256 H 0.30035 0.05803 0.38762
 H257 H 0.12987 -0.13152 0.35082
 H258 H 0.05766 -0.14717 0.31882
 H259 H 0.04003 0.00661 0.27898
 H260 H 0.11188 0.02267 0.31140
   
