data_POSCAR
  _audit_creation_date              2014-09-24
  _audit_creation_method            'ToBaCCo'
  _symmetry_space_group_name_H-M    'P1'
  _symmetry_Int_Tables_number       1
  _symmetry_cell_setting            triclinic
  loop_
  _symmetry_equiv_pos_as_xyz
 x,y,z
_cell_length_a 46.9859
_cell_length_b 46.5739
_cell_length_c 42.6939
_cell_angle_alpha 89.995400
_cell_angle_beta 89.960900
_cell_angle_gamma 93.178600
loop_
  _atom_site_label
  _atom_site_type_symbol
  _atom_site_fract_x
  _atom_site_fract_y
  _atom_site_fract_z
C1 C -0.08408 0.26949 0.01981
 C2 C -0.08463 0.26853 -0.01226
 C3 C -0.05826 0.27977 -0.02252
 N4 N -0.04147 0.28705 0.00224
 C5 C -0.05729 0.28084 0.02810
 C6 C -0.05026 0.28423 -0.05423
 C7 C -0.02118 0.28855 -0.06292
 C8 C -0.01152 0.30176 -0.09035
 C9 C 0.01758 0.30028 -0.09076
 C10 C 0.02501 0.28617 -0.06358
 N11 N 0.00128 0.27951 -0.04645
 C12 C 0.05305 0.27882 -0.05577
 C13 C 0.06083 0.27358 -0.02429
 C14 C 0.08482 0.25980 -0.01480
 C15 C 0.08520 0.26064 0.01728
 C16 C 0.06123 0.27451 0.02638
 N17 N 0.04629 0.28236 0.00098
 C18 C 0.05411 0.28094 0.05763
 C19 C 0.02678 0.28929 0.06624
 C20 C 0.01990 0.30125 0.09482
 C21 C -0.00927 0.30286 0.09525
 C22 C -0.01927 0.29183 0.06691
 N23 N 0.00283 0.28383 0.04930
 C24 C -0.04825 0.28665 0.05907
 H25 H -0.10133 0.26236 0.03525
 H26 H -0.10238 0.26030 -0.02636
 H27 H 0.00130 0.27175 0.02881
 H28 H -0.02413 0.31159 -0.10819
 H29 H 0.03170 0.30876 -0.10898
 H30 H 0.10037 0.24994 -0.02943
 H31 H 0.10113 0.25178 0.03220
 H32 H -0.02174 0.31057 0.11451
 H33 H 0.00017 0.26684 -0.02631
 H34 H 0.03431 0.30750 0.11370
 C35 C 0.58391 0.76499 0.48151
 C36 C 0.58413 0.76528 0.51366
 C37 C 0.55874 0.77643 0.52304
 N38 N 0.54310 0.78306 0.49775
 C39 C 0.55839 0.77598 0.47234
 C40 C 0.55091 0.78163 0.55442
 C41 C 0.52312 0.78872 0.56311
 C42 C 0.51581 0.79998 0.59190
 C43 C 0.48662 0.80118 0.59213
 C44 C 0.47693 0.79062 0.56347
 N45 N 0.49931 0.78318 0.54588
 C46 C 0.44793 0.78586 0.55519
 C47 C 0.43892 0.78108 0.52397
 C48 C 0.41164 0.77162 0.51502
 C49 C 0.41142 0.77137 0.48290
 C50 C 0.43858 0.78069 0.47332
 N51 N 0.45533 0.78669 0.49846
 C52 C 0.44716 0.78495 0.44188
 C53 C 0.47605 0.78955 0.43303
 C54 C 0.48535 0.79963 0.40401
 C55 C 0.51454 0.79839 0.40376
 C56 C 0.52223 0.78761 0.43264
 N57 N 0.49866 0.78237 0.45037
 C58 C 0.55013 0.78065 0.44100
 H59 H 0.60060 0.75748 0.46663
 H60 H 0.60103 0.75802 0.52839
 H61 H 0.49772 0.77106 0.47137
 H62 H 0.53000 0.80625 0.61097
 H63 H 0.47394 0.80854 0.61140
 H64 H 0.39377 0.76544 0.53003
 H65 H 0.39334 0.76497 0.46830
 H66 H 0.52847 0.80434 0.38434
 H67 H 0.49809 0.77152 0.52512
 H68 H 0.47242 0.80669 0.38482
 C69 C 1.08368 0.73058 -0.01773
 C70 C 1.08367 0.73034 0.01430
 C71 C 1.05752 0.71785 0.02354
 N72 N 1.04135 0.71079 -0.00186
 C73 C 1.05753 0.71826 -0.02715
 C74 C 1.04910 0.71268 0.05502
 C75 C 1.01990 0.70881 0.06322
 C76 C 1.00946 0.69647 0.09082
 C77 C 0.98046 0.69915 0.09078
 C78 C 0.97394 0.71268 0.06300
 N79 N 0.99804 0.71828 0.04619
 C80 C 0.94662 0.72143 0.05484
 C81 C 0.93919 0.72804 0.02376
 C82 C 0.91442 0.74062 0.01477
 C83 C 0.91448 0.74120 -0.01737
 C84 C 0.93928 0.72893 -0.02686
 N85 N 0.95434 0.72090 -0.00171
 C86 C 0.94679 0.72334 -0.05818
 C87 C 0.97404 0.71460 -0.06666
 C88 C 0.98047 0.70165 -0.09481
 C89 C 1.00941 0.69861 -0.09491
 C90 C 1.01992 0.71023 -0.06700
 N91 N 0.99813 0.71955 -0.04971
 C92 C 1.04913 0.71361 -0.05872
 H93 H 1.10081 0.73940 -0.03241
 H94 H 1.10079 0.73894 0.02910
 H95 H 1.00008 0.73165 -0.02924
 H96 H 1.02151 0.68680 0.10925
 H97 H 0.96586 0.69210 0.10921
 H98 H 0.89794 0.74840 0.02977
 H99 H 0.89806 0.74949 -0.03205
 H100 H 1.02137 0.68919 -0.11359
 H101 H 0.99992 0.73089 0.02607
 H102 H 0.96583 0.69518 -0.11340
 C103 C 0.58770 0.22835 0.48600
 C104 C 0.58763 0.22862 0.51813
 C105 C 0.56040 0.21927 0.52743
 N106 N 0.54389 0.21324 0.50211
 C107 C 0.56051 0.21886 0.47676
 C108 C 0.55154 0.21496 0.55878
 C109 C 0.52261 0.21006 0.56732
 C110 C 0.51313 0.19979 0.59619
 C111 C 0.48391 0.20062 0.59609
 C112 C 0.47636 0.21140 0.56716
 N113 N 0.50006 0.21700 0.54973
 C114 C 0.44845 0.21809 0.55851
 C115 C 0.44050 0.22293 0.52712
 C116 C 0.41509 0.23400 0.51772
 C117 C 0.41518 0.23390 0.48558
 C118 C 0.44065 0.22277 0.47643
 N119 N 0.45604 0.21599 0.50184
 C120 C 0.44877 0.21771 0.44513
 C121 C 0.47667 0.21076 0.43673
 C122 C 0.48430 0.19960 0.40800
 C123 C 0.51350 0.19858 0.40809
 C124 C 0.52288 0.20916 0.43686
 N125 N 0.50029 0.21642 0.45422
 C126 C 0.55178 0.21408 0.44545
 H127 H 0.60571 0.23451 0.47118
 H128 H 0.60557 0.23502 0.53292
 H129 H 0.50125 0.22806 0.47500
 H130 H 0.52598 0.19283 0.61551
 H131 H 0.46985 0.19444 0.61532
 H132 H 0.39826 0.24147 0.53244
 H133 H 0.39844 0.24128 0.47070
 H134 H 0.52640 0.19133 0.38894
 H135 H 0.50108 0.22837 0.52877
 H136 H 0.47031 0.19328 0.38878
 C137 C 0.68349 -0.08306 -0.01650
 C138 C 0.68457 -0.08362 0.01561
 C139 C 0.70121 -0.05954 0.02471
 N140 N 0.70983 -0.04399 -0.00063
 C141 C 0.69957 -0.05870 -0.02586
 C142 C 0.71045 -0.05307 0.05560
 C143 C 0.71727 -0.02398 0.06377
 C144 C 0.73453 -0.01424 0.08841
 C145 C 0.73375 0.01530 0.08888
 C146 C 0.71648 0.02274 0.06421
 N147 N 0.70689 -0.00121 0.04881
 C148 C 0.70828 0.05072 0.05720
 C149 C 0.69916 0.05753 0.02678
 C150 C 0.68406 0.08113 0.01869
 C151 C 0.68322 0.08176 -0.01347
 C152 C 0.69826 0.05876 -0.02385
 N153 N 0.70744 0.04364 0.00082
 C154 C 0.70579 0.05295 -0.05526
 C155 C 0.71323 0.02481 -0.06344
 C156 C 0.73074 0.01772 -0.08815
 C157 C 0.73111 -0.01179 -0.08867
 C158 C 0.71381 -0.02194 -0.06427
 N159 N 0.70360 0.00053 -0.04855
 C160 C 0.70697 -0.05121 -0.05704
 H161 H 0.67248 -0.09893 -0.03131
 H162 H 0.67455 -0.10001 0.03058
 H163 H 0.68875 -0.00079 -0.03032
 H164 H 0.74659 -0.02695 0.10431
 H165 H 0.74479 0.02962 0.10535
 H166 H 0.67501 0.09649 0.03432
 H167 H 0.67316 0.09762 -0.02759
 H168 H 0.74306 -0.02428 -0.10491
 H169 H 0.69180 -0.00212 0.03085
 H170 H 0.74238 0.03228 -0.10393
 C171 C 0.22370 0.40998 0.51508
 C172 C 0.22361 0.41009 0.48293
 C173 C 0.21183 0.43543 0.47382
 N174 N 0.20464 0.45069 0.49926
 C175 C 0.21201 0.43525 0.52450
 C176 C 0.20680 0.44366 0.44255
 C177 C 0.19937 0.47168 0.43435
 C178 C 0.18827 0.47935 0.40565
 C179 C 0.18710 0.50881 0.40580
 C180 C 0.19755 0.51829 0.43458
 N181 N 0.20480 0.49551 0.45191
 C182 C 0.20279 0.54744 0.44305
 C183 C 0.20775 0.55626 0.47431
 C184 C 0.21815 0.58341 0.48346
 C185 C 0.21878 0.58331 0.51559
 C186 C 0.20866 0.55613 0.52497
 N187 N 0.20183 0.53968 0.49971
 C188 C 0.20475 0.54711 0.55633
 C189 C 0.19897 0.51799 0.56455
 C190 C 0.18876 0.50847 0.59343
 C191 C 0.18945 0.47898 0.59328
 C192 C 0.20010 0.47135 0.56433
 N193 N 0.20560 0.49523 0.54687
 C194 C 0.20729 0.44333 0.55589
 H195 H 0.23169 0.39329 0.52978
 H196 H 0.23151 0.39350 0.46803
 H197 H 0.21709 0.49625 0.52604
 H198 H 0.18222 0.46524 0.38635
 H199 H 0.17999 0.52183 0.38664
 H200 H 0.22485 0.60134 0.46857
 H201 H 0.22606 0.60116 0.53028
 H202 H 0.18350 0.46482 0.61259
 H203 H 0.21646 0.49652 0.47260
 H204 H 0.18217 0.52149 0.61285
 C205 C 0.27145 0.91354 -0.01666
 C206 C 0.27250 0.91337 0.01543
 C207 C 0.28583 0.93936 0.02429
 N208 N 0.29317 0.95533 -0.00118
 C209 C 0.28465 0.93945 -0.02632
 C210 C 0.29257 0.94745 0.05531
 C211 C 0.29981 0.97623 0.06359
 C212 C 0.31302 0.98493 0.09126
 C213 C 0.31321 1.01447 0.09185
 C214 C 0.29969 1.02292 0.06471
 N215 N 0.29210 0.99947 0.04733
 C216 C 0.29265 1.05137 0.05747
 C217 C 0.28652 1.05931 0.02622
 C218 C 0.27153 1.08288 0.01754
 C219 C 0.27083 1.08312 -0.01452
 C220 C 0.28542 1.05970 -0.02447
 N221 N 0.29471 1.04493 0.00048
 C222 C 0.29039 1.05231 -0.05612
 C223 C 0.29720 1.02402 -0.06421
 C224 C 0.31116 1.01643 -0.09138
 C225 C 0.31074 0.98692 -0.09195
 C226 C 0.29658 0.97728 -0.06509
 N227 N 0.28897 1.00006 -0.04792
 C228 C 0.28957 0.94807 -0.05776
 H229 H 0.26182 0.89658 -0.03113
 H230 H 0.26414 0.89623 0.03051
 H231 H 0.27587 0.99926 -0.02818
 H232 H 0.32122 0.97138 0.10936
 H233 H 0.32181 1.02814 0.11045
 H234 H 0.26150 1.09796 0.03271
 H235 H 0.26018 1.09843 -0.02881
 H236 H 0.31965 0.97400 -0.11019
 H237 H 0.27913 0.99911 0.02753
 H238 H 0.32037 1.03069 -0.10915
 C239 C 0.78107 0.41646 0.51894
 C240 C 0.78097 0.41596 0.48682
 C241 C 0.79079 0.44310 0.47702
 N242 N 0.79697 0.46011 0.50203
 C243 C 0.79096 0.44389 0.52769
 C244 C 0.79519 0.45145 0.44550
 C245 C 0.80025 0.48047 0.43642
 C246 C 0.81030 0.48951 0.40730
 C247 C 0.80935 0.51899 0.40676
 C248 C 0.79877 0.52711 0.43557
 N249 N 0.79342 0.50353 0.45355
 C250 C 0.79185 0.55533 0.44359
 C251 C 0.78739 0.56394 0.47486
 C252 C 0.77625 0.58963 0.48387
 C253 C 0.77680 0.59018 0.51599
 C254 C 0.78816 0.56477 0.52553
 N255 N 0.79472 0.54882 0.50037
 C256 C 0.79354 0.55724 0.55695
 C257 C 0.79994 0.52913 0.56604
 C258 C 0.81072 0.52178 0.59502
 C259 C 0.81127 0.49226 0.59558
 C260 C 0.80085 0.48243 0.56692
 N261 N 0.79408 0.50502 0.54904
 C262 C 0.79564 0.45317 0.55886
 H263 H 0.77449 0.39867 0.53409
 H264 H 0.77428 0.39772 0.47238
 H265 H 0.78268 0.50383 0.52818
 H266 H 0.81707 0.47621 0.38821
 H267 H 0.81525 0.53283 0.38717
 H268 H 0.76842 0.60621 0.46892
 H269 H 0.76948 0.60726 0.53062
 H270 H 0.81812 0.47948 0.61506
 H271 H 0.78214 0.50287 0.47452
 H272 H 0.81706 0.53615 0.61399
 O273 O 0.24776 0.20244 0.23927
 O274 O 0.22942 0.26311 0.28934
 O275 O 0.20815 0.23921 0.23863
 O276 O 0.26906 0.22631 0.28999
 O277 O 0.29653 0.25570 0.26108
 O278 O 0.23556 0.26887 0.20997
 O279 O 0.25711 0.29248 0.26065
 O280 O 0.27502 0.23196 0.21029
 Cu281 Cu 0.23585 0.22981 0.26720
 Cu282 Cu 0.26882 0.26518 0.23260
 C283 C 0.26431 0.20686 0.21601
 C284 C 0.24033 0.28816 0.28372
 C285 C 0.21144 0.25614 0.21541
 C286 C 0.29319 0.23897 0.28447
 O287 O 0.75123 0.79386 0.23510
 O288 O 0.76981 0.73453 0.28743
 O289 O 0.79164 0.75788 0.23648
 O290 O 0.72982 0.77103 0.28632
 O291 O 0.70302 0.74099 0.25751
 O292 O 0.76536 0.72658 0.20864
 O293 O 0.74257 0.70428 0.25934
 O294 O 0.72587 0.76274 0.20596
 Cu295 Cu 0.76328 0.76738 0.26421
 Cu296 Cu 0.73145 0.73061 0.23009
 C297 C 0.73591 0.78815 0.21114
 C298 C 0.75905 0.70928 0.28248
 C299 C 0.78909 0.74015 0.21390
 C300 C 0.70586 0.75817 0.28058
 O301 O 0.79581 0.24513 0.24064
 O302 O 0.73442 0.22671 0.29184
 O303 O 0.75453 0.20545 0.24061
 O304 O 0.77563 0.26639 0.29225
 O305 O 0.74839 0.29437 0.26510
 O306 O 0.72975 0.23436 0.21155
 O307 O 0.70785 0.25429 0.26337
 O308 O 0.76986 0.27454 0.21377
 Cu309 Cu 0.76776 0.23310 0.26914
 Cu310 Cu 0.73624 0.26718 0.23568
 C311 C 0.79334 0.26294 0.21838
 C312 C 0.71063 0.23742 0.28643
 C313 C 0.73904 0.20975 0.21689
 C314 C 0.76527 0.29070 0.28780
 O315 O 0.27162 0.76312 0.20907
 O316 O 0.25027 0.70249 0.26082
 O317 O 0.23064 0.72327 0.20884
 O318 O 0.29113 0.74213 0.26094
 O319 O 0.26429 0.77059 0.28799
 O320 O 0.20358 0.75137 0.23607
 O321 O 0.22325 0.73068 0.28800
 O322 O 0.24443 0.79127 0.23607
 Cu323 Cu 0.26360 0.72993 0.23216
 Cu324 Cu 0.23119 0.76381 0.26478
 C325 C 0.26152 0.78753 0.21354
 C326 C 0.23331 0.70626 0.28346
 C327 C 0.20680 0.73419 0.21338
 C328 C 0.28803 0.75942 0.28353
 O329 O 0.76819 0.27697 0.79190
 O330 O 0.70683 0.25759 0.74104
 O331 O 0.72761 0.23730 0.79314
 O332 O 0.74760 0.29755 0.74036
 O333 O 0.77485 0.26948 0.71331
 O334 O 0.75293 0.20850 0.76454
 O335 O 0.73360 0.22981 0.71303
 O336 O 0.79447 0.24792 0.76495
 Cu337 Cu 0.73483 0.27018 0.76933
 Cu338 Cu 0.76665 0.23612 0.73618
 C339 C 0.79172 0.26542 0.78744
 C340 C 0.70980 0.24065 0.71808
 C341 C 0.73695 0.21269 0.78792
 C342 C 0.76467 0.29387 0.71782
 O343 O 0.24408 0.79279 0.75979
 O344 O 0.22568 0.73002 0.70980
 O345 O 0.20438 0.75171 0.76048
 O346 O 0.26534 0.77131 0.70903
 O347 O 0.29276 0.74479 0.73774
 O348 O 0.23187 0.72528 0.78919
 O349 O 0.25329 0.70377 0.73857
 O350 O 0.27151 0.76635 0.78856
 Cu351 Cu 0.23211 0.76410 0.73187
 Cu352 Cu 0.26511 0.73242 0.76642
 C353 C 0.26075 0.79024 0.78292
 C354 C 0.23655 0.70619 0.71549
 C355 C 0.20774 0.73531 0.78382
 C356 C 0.28942 0.76119 0.71440
 O357 O 0.20578 0.24084 0.76239
 O358 O 0.26715 0.22720 0.71175
 O359 O 0.24519 0.20379 0.76244
 O360 O 0.22763 0.26411 0.71157
 O361 O 0.25512 0.29359 0.74030
 O362 O 0.27248 0.23332 0.79132
 O363 O 0.29445 0.25675 0.74061
 O364 O 0.23323 0.27032 0.79116
 Cu365 Cu 0.23369 0.23102 0.73415
 Cu366 Cu 0.26655 0.26645 0.76874
 C367 C 0.20907 0.25775 0.78562
 C368 C 0.29127 0.23986 0.71736
 C369 C 0.26164 0.20825 0.78575
 C370 C 0.23860 0.28915 0.71704
 O371 O 0.73129 0.77572 0.70904
 O372 O 0.79257 0.76423 0.76046
 O373 O 0.77249 0.74067 0.70893
 O374 O 0.75135 0.79945 0.76027
 O375 O 0.72634 0.76795 0.78934
 O376 O 0.74525 0.70974 0.73624
 O377 O 0.76643 0.73224 0.78758
 O378 O 0.70464 0.74534 0.73765
 Cu379 Cu 0.76458 0.77313 0.73187
 Cu380 Cu 0.73293 0.73574 0.76546
 C381 C 0.70747 0.76240 0.71449
 C382 C 0.78999 0.74628 0.78286
 C383 C 0.76218 0.71521 0.71354
 C384 C 0.73573 0.79357 0.78395
 C385 C 0.28402 0.11376 0.12939
 C386 C 0.29851 0.12123 0.10123
 C387 C 0.30186 0.10043 0.07793
 C388 C 0.29085 0.07192 0.08190
 C389 C 0.27721 0.06450 0.11036
 C390 C 0.27384 0.08501 0.13371
 C391 C 0.27972 0.13696 0.15304
 C392 C 0.26461 0.13203 0.18125
 C393 C 0.26010 0.15463 0.20184
 C394 C 0.27063 0.18270 0.19502
 C395 C 0.28629 0.18771 0.16735
 C396 C 0.29071 0.16521 0.14632
 C397 C 0.30929 0.14950 0.09627
 C398 C 0.30554 0.17100 0.11836
 H399 H 0.32056 0.15520 0.07480
 H400 H 0.31404 0.19260 0.11324
 H401 H 0.31326 0.10643 0.05660
 H402 H 0.26797 0.04295 0.11414
 H403 H 0.24801 0.15009 0.22305
 H404 H 0.29451 0.20932 0.16174
 H405 H 0.26279 0.07794 0.15470
 H406 H 0.25573 0.11103 0.18771
 C407 C 0.78640 0.62439 0.62562
 C408 C 0.76912 0.59855 0.62780
 C409 C 0.77200 0.57655 0.60573
 C410 C 0.79200 0.57978 0.58147
 C411 C 0.80977 0.60490 0.57989
 C412 C 0.80705 0.62698 0.60163
 C413 C 0.78158 0.64796 0.64868
 C414 C 0.79649 0.67506 0.64752
 C415 C 0.79042 0.69667 0.66881
 C416 C 0.76949 0.69183 0.69195
 C417 C 0.75487 0.66475 0.69363
 C418 C 0.76053 0.64300 0.67210
 C419 C 0.74885 0.59494 0.65172
 C420 C 0.74477 0.61660 0.67351
 H421 H 0.73578 0.57509 0.65352
 H422 H 0.72868 0.61279 0.69146
 H423 H 0.75829 0.55707 0.60699
 H424 H 0.82552 0.60757 0.56142
 H425 H 0.80206 0.71733 0.66697
 H426 H 0.73852 0.66077 0.71128
 H427 H 0.82115 0.64589 0.59907
 H428 H 0.81261 0.68021 0.63013
 C429 C 0.72065 0.87802 0.11995
 C430 C 0.71291 0.90509 0.13102
 C431 C 0.70877 0.92756 0.10976
 C432 C 0.71395 0.92418 0.07742
 C433 C 0.72327 0.89750 0.06712
 C434 C 0.72627 0.87479 0.08786
 C435 C 0.72356 0.85420 0.14306
 C436 C 0.72722 0.82561 0.13386
 C437 C 0.73049 0.80424 0.15621
 C438 C 0.73067 0.81088 0.18820
 C439 C 0.72630 0.83912 0.19775
 C440 C 0.72190 0.86062 0.17539
 C441 C 0.71004 0.90974 0.16330
 C442 C 0.71526 0.88823 0.18504
 H443 H 0.70444 0.93057 0.17193
 H444 H 0.71351 0.89311 0.20976
 H445 H 0.70107 0.94753 0.11852
 H446 H 0.72909 0.89424 0.04289
 H447 H 0.73359 0.78249 0.14841
 H448 H 0.72572 0.84415 0.22253
 H449 H 0.73382 0.85512 0.07840
 H450 H 0.72729 0.81925 0.10957
 C451 C 0.21976 0.38096 0.62861
 C452 C 0.19923 0.37515 0.60481
 C453 C 0.19480 0.39575 0.58155
 C454 C 0.21100 0.42194 0.58121
 C455 C 0.23134 0.42766 0.60466
 C456 C 0.23566 0.40754 0.62814
 C457 C 0.22414 0.35823 0.65274
 C458 C 0.24353 0.36213 0.67776
 C459 C 0.24769 0.33990 0.69890
 C460 C 0.23267 0.31318 0.69573
 C461 C 0.21272 0.30933 0.67142
 C462 C 0.20828 0.33160 0.65008
 C463 C 0.18366 0.34864 0.60402
 C464 C 0.18824 0.32725 0.62602
 H465 H 0.16798 0.34417 0.58581
 H466 H 0.17595 0.30694 0.62409
 H467 H 0.17905 0.39133 0.56337
 H468 H 0.24416 0.44773 0.60458
 H469 H 0.26311 0.34354 0.71752
 H470 H 0.20077 0.28887 0.66888
 H471 H 0.25180 0.41310 0.64536
 H472 H 0.25584 0.38207 0.68138
 C473 C 0.88607 0.28359 0.12971
 C474 C 0.90905 0.26522 0.13168
 C475 C 0.93076 0.26687 0.10904
 C476 C 0.92997 0.28660 0.08433
 C477 C 0.90776 0.30539 0.08290
 C478 C 0.88605 0.30398 0.10527
 C479 C 0.86247 0.27999 0.15333
 C480 C 0.83803 0.29620 0.15255
 C481 C 0.81596 0.29101 0.17407
 C482 C 0.81769 0.26969 0.19709
 C483 C 0.84229 0.25395 0.19862
 C484 C 0.86447 0.25874 0.17684
 C485 C 0.90997 0.24498 0.15585
 C486 C 0.88823 0.24189 0.17802
 H487 H 0.92765 0.23106 0.15748
 H488 H 0.88981 0.22569 0.19606
 H489 H 0.94798 0.25232 0.11012
 H490 H 0.90701 0.32089 0.06404
 H491 H 0.79728 0.30354 0.17238
 H492 H 0.84387 0.23734 0.21623
 H493 H 0.86938 0.31880 0.10275
 H494 H 0.83524 0.31265 0.13524
 C495 C 0.38199 0.78226 0.62560
 C496 C 0.40481 0.76366 0.62726
 C497 C 0.42651 0.76539 0.60462
 C498 C 0.42601 0.78559 0.58034
 C499 C 0.40410 0.80478 0.57940
 C500 C 0.38231 0.80317 0.60169
 C501 C 0.35831 0.77846 0.64909
 C502 C 0.33372 0.79446 0.64822
 C503 C 0.31165 0.78915 0.66973
 C504 C 0.31357 0.76797 0.69286
 C505 C 0.33824 0.75234 0.69437
 C506 C 0.36034 0.75715 0.67252
 C507 C 0.40566 0.74321 0.65122
 C508 C 0.38403 0.74019 0.67352
 H509 H 0.42324 0.72916 0.65265
 H510 H 0.38559 0.72389 0.69146
 H511 H 0.44356 0.75064 0.60543
 H512 H 0.40364 0.82075 0.56098
 H513 H 0.29287 0.80154 0.66805
 H514 H 0.33989 0.73574 0.71197
 H515 H 0.36588 0.81832 0.59959
 H516 H 0.33082 0.81079 0.63080
 C517 C 0.11480 0.71412 0.12379
 C518 C 0.08934 0.72814 0.12945
 C519 C 0.06731 0.72676 0.10717
 C520 C 0.07030 0.71198 0.07869
 C521 C 0.09538 0.69746 0.07368
 C522 C 0.11723 0.69842 0.09582
 C523 C 0.13840 0.71740 0.14741
 C524 C 0.16475 0.70473 0.14371
 C525 C 0.18661 0.70973 0.16549
 C526 C 0.18283 0.72740 0.19160
 C527 C 0.15636 0.73941 0.19602
 C528 C 0.13425 0.73461 0.17418
 C529 C 0.08630 0.74418 0.15688
 C530 C 0.10828 0.74739 0.17873
 H531 H 0.06676 0.75485 0.16130
 H532 H 0.10501 0.76042 0.19932
 H533 H 0.04842 0.73858 0.11133
 H534 H 0.09809 0.68515 0.05245
 H535 H 0.20673 0.70005 0.16153
 H536 H 0.15309 0.75300 0.21617
 H537 H 0.13593 0.68702 0.09029
 H538 H 0.16914 0.69121 0.12400
 C539 C 0.61747 0.21947 0.62912
 C540 C 0.59485 0.23832 0.63030
 C541 C 0.57317 0.23634 0.60766
 C542 C 0.57356 0.21570 0.58381
 C543 C 0.59535 0.19638 0.58327
 C544 C 0.61708 0.19820 0.60558
 C545 C 0.64105 0.22337 0.65270
 C546 C 0.66533 0.20691 0.65241
 C547 C 0.68731 0.21226 0.67397
 C548 C 0.68563 0.23397 0.69657
 C549 C 0.66126 0.25006 0.69751
 C550 C 0.63921 0.24517 0.67562
 C551 C 0.59416 0.25924 0.65380
 C552 C 0.61575 0.26246 0.67609
 H553 H 0.57672 0.27351 0.65485
 H554 H 0.61432 0.27913 0.69365
 H555 H 0.55621 0.25121 0.60816
 H556 H 0.59573 0.18010 0.56517
 H557 H 0.70584 0.19947 0.67274
 H558 H 0.65979 0.26704 0.71472
 H559 H 0.63340 0.18290 0.60379
 H560 H 0.66806 0.19015 0.63545
 C561 C 0.71405 0.11948 0.87589
 C562 C 0.71952 0.12571 0.90779
 C563 C 0.71708 0.10372 0.93026
 C564 C 0.70764 0.07544 0.92200
 C565 C 0.70054 0.06998 0.89039
 C566 C 0.70392 0.09150 0.86769
 C567 C 0.71905 0.14311 0.85234
 C568 C 0.71838 0.13827 0.81973
 C569 C 0.72413 0.16092 0.79878
 C570 C 0.72991 0.18894 0.80983
 C571 C 0.73053 0.19406 0.84216
 C572 C 0.72604 0.17128 0.86342
 C573 C 0.72724 0.15390 0.91716
 C574 C 0.72968 0.17633 0.89554
 H575 H 0.73106 0.15878 0.94167
 H576 H 0.73535 0.19782 0.90402
 H577 H 0.72353 0.10865 0.95410
 H578 H 0.69195 0.04898 0.88312
 H579 H 0.72394 0.15658 0.77385
 H580 H 0.73582 0.21562 0.85073
 H581 H 0.69807 0.08592 0.84393
 H582 H 0.71422 0.11707 0.81001
 C583 C 0.20910 0.61388 0.37267
 C584 C 0.22678 0.59025 0.37125
 C585 C 0.22416 0.56843 0.39389
 C586 C 0.20399 0.56961 0.41797
 C587 C 0.18579 0.59242 0.41877
 C588 C 0.18827 0.61433 0.39645
 C589 C 0.21375 0.63758 0.34908
 C590 C 0.19854 0.66283 0.34956
 C591 C 0.20460 0.68484 0.32795
 C592 C 0.22579 0.68221 0.30513
 C593 C 0.24062 0.65689 0.30403
 C594 C 0.23502 0.63481 0.32593
 C595 C 0.24722 0.58869 0.34753
 C596 C 0.25111 0.61039 0.32523
 H597 H 0.26058 0.57049 0.34631
 H598 H 0.26737 0.60826 0.30749
 H599 H 0.23820 0.55072 0.39324
 H600 H 0.16990 0.59345 0.43708
 H601 H 0.19279 0.70412 0.32932
 H602 H 0.25719 0.65465 0.28664
 H603 H 0.17384 0.63145 0.39842
 H604 H 0.18224 0.66627 0.36672
 C605 C 0.28065 0.88514 0.86996
 C606 C 0.29566 0.87927 0.89775
 C607 C 0.29908 0.90029 0.92119
 C608 C 0.28756 0.92738 0.91777
 C609 C 0.27353 0.93336 0.88960
 C610 C 0.27007 0.91263 0.86610
 C611 C 0.27629 0.86160 0.84615
 C612 C 0.26068 0.86483 0.81830
 C613 C 0.25614 0.84184 0.79758
 C614 C 0.26713 0.81506 0.80394
 C615 C 0.28329 0.81183 0.83123
 C616 C 0.28776 0.83471 0.85237
 C617 C 0.30691 0.85236 0.90219
 C618 C 0.30311 0.83059 0.87996
 H619 H 0.31859 0.84792 0.92337
 H620 H 0.31198 0.81003 0.88468
 H621 H 0.31102 0.89560 0.94214
 H622 H 0.26411 0.95384 0.88616
 H623 H 0.24365 0.84499 0.77668
 H624 H 0.29189 0.79124 0.83647
 H625 H 0.25870 0.91850 0.84535
 H626 H 0.25141 0.88475 0.81225
 C627 C 0.78867 0.38386 0.37635
 C628 C 0.77074 0.40730 0.37479
 C629 C 0.77339 0.42947 0.39705
 C630 C 0.79385 0.42884 0.42085
 C631 C 0.81229 0.40623 0.42176
 C632 C 0.80976 0.38396 0.39986
 C633 C 0.78405 0.35985 0.35314
 C634 C 0.79950 0.33474 0.35380
 C635 C 0.79362 0.31252 0.33238
 C636 C 0.77239 0.31480 0.30958
 C637 C 0.75721 0.33990 0.30841
 C638 C 0.76263 0.36218 0.33011
 C639 C 0.75008 0.40836 0.35128
 C640 C 0.74626 0.38640 0.32928
 H641 H 0.73652 0.42640 0.34995
 H642 H 0.72987 0.38818 0.31164
 H643 H 0.75918 0.44703 0.39627
 H644 H 0.82842 0.40563 0.43984
 H645 H 0.80567 0.29340 0.33382
 H646 H 0.74059 0.34186 0.29106
 H647 H 0.82439 0.36703 0.40189
 H648 H 0.81588 0.33160 0.37093
 C649 C 0.11575 0.27191 0.87280
 C650 C 0.12247 0.28687 0.90091
 C651 C 0.10162 0.28942 0.92414
 C652 C 0.07378 0.27720 0.92012
 C653 C 0.06705 0.26312 0.89171
 C654 C 0.08765 0.26044 0.86845
 C655 C 0.13900 0.26873 0.84911
 C656 C 0.13491 0.25323 0.82096
 C657 C 0.15753 0.25007 0.80021
 C658 C 0.18479 0.26237 0.80684
 C659 C 0.18895 0.27828 0.83455
 C660 C 0.16645 0.28135 0.85572
 C661 C 0.15000 0.29912 0.90582
 C662 C 0.17147 0.29651 0.88367
 H663 H 0.15509 0.31075 0.92727
 H664 H 0.19247 0.30621 0.88871
 H665 H 0.10701 0.30134 0.94535
 H666 H 0.04594 0.25318 0.88784
 H667 H 0.15368 0.23769 0.77901
 H668 H 0.20993 0.28782 0.84005
 H669 H 0.08115 0.24905 0.84743
 H670 H 0.11455 0.24305 0.81466
 C671 C 0.61287 0.77167 0.36828
 C672 C 0.61741 0.79254 0.39218
 C673 C 0.59669 0.79573 0.41544
 C674 C 0.57159 0.77803 0.41568
 C675 C 0.56702 0.75744 0.39205
 C676 C 0.58731 0.75429 0.36858
 C677 C 0.63581 0.76859 0.34422
 C678 C 0.63332 0.74876 0.31928
 C679 C 0.65579 0.74590 0.29826
 C680 C 0.68132 0.76270 0.30149
 C681 C 0.68370 0.78309 0.32571
 C682 C 0.66124 0.78618 0.34694
 C683 C 0.64278 0.80977 0.39303
 C684 C 0.66428 0.80655 0.37102
 H685 H 0.64625 0.82574 0.41129
 H686 H 0.68368 0.82014 0.37299
 H687 H 0.60018 0.81172 0.43371
 H688 H 0.54774 0.74356 0.39198
 H689 H 0.65330 0.73007 0.27974
 H690 H 0.70323 0.79639 0.32834
 H691 H 0.58270 0.73791 0.35119
 H692 H 0.61434 0.73507 0.31570
 C693 C 0.88331 0.73284 0.87013
 C694 C 0.87843 0.71276 0.89475
 C695 C 0.89935 0.70945 0.91773
 C696 C 0.92508 0.72613 0.91684
 C697 C 0.93008 0.74578 0.89237
 C698 C 0.90952 0.74913 0.86925
 C699 C 0.86012 0.73614 0.84644
 C700 C 0.86271 0.75556 0.82112
 C701 C 0.84014 0.75847 0.80028
 C702 C 0.81440 0.74210 0.80404
 C703 C 0.81181 0.72229 0.82881
 C704 C 0.83433 0.71922 0.84993
 C705 C 0.85260 0.69635 0.89653
 C706 C 0.83101 0.69955 0.87465
 H707 H 0.84889 0.68096 0.91534
 H708 H 0.81131 0.68653 0.87726
 H709 H 0.89558 0.69409 0.93658
 H710 H 0.94989 0.75880 0.89138
 H711 H 0.84279 0.77387 0.78136
 H712 H 0.79207 0.70942 0.83196
 H713 H 0.91451 0.76474 0.85114
 H714 H 0.88186 0.76888 0.81709
 C715 C 0.38582 0.22621 0.37267
 C716 C 0.38116 0.20573 0.39694
 C717 C 0.40197 0.20264 0.42011
 C718 C 0.42725 0.22009 0.41987
 C719 C 0.43188 0.24031 0.39589
 C720 C 0.41153 0.24334 0.37251
 C721 C 0.36285 0.22916 0.34867
 C722 C 0.36555 0.24851 0.32332
 C723 C 0.34314 0.25121 0.30225
 C724 C 0.31744 0.23474 0.30583
 C725 C 0.31479 0.21487 0.33055
 C726 C 0.33723 0.21192 0.35183
 C727 C 0.35559 0.18883 0.39827
 C728 C 0.33404 0.19198 0.37633
 H729 H 0.35202 0.17318 0.41684
 H730 H 0.31450 0.17866 0.37865
 H731 H 0.39840 0.18695 0.43867
 H732 H 0.45127 0.25403 0.39548
 H733 H 0.34586 0.26662 0.28334
 H734 H 0.29512 0.20183 0.33345
 H735 H 0.41623 0.25945 0.35484
 H736 H 0.38466 0.26190 0.31938
 C737 C 0.71498 0.88415 0.87287
 C738 C 0.72018 0.87802 0.90471
 C739 C 0.71798 0.89949 0.92748
 C740 C 0.70903 0.92701 0.91965
 C741 C 0.70235 0.93228 0.88804
 C742 C 0.70552 0.91137 0.86501
 C743 C 0.71947 0.86116 0.84905
 C744 C 0.71887 0.86621 0.81649
 C745 C 0.72406 0.84421 0.79530
 C746 C 0.72922 0.81657 0.80606
 C747 C 0.72976 0.81126 0.83833
 C748 C 0.72582 0.83348 0.85983
 C749 C 0.72729 0.85041 0.91376
 C750 C 0.72931 0.82842 0.89188
 H751 H 0.73091 0.84559 0.93822
 H752 H 0.73450 0.80732 0.90012
 H753 H 0.72410 0.89477 0.95132
 H754 H 0.69407 0.95254 0.88101
 H755 H 0.72393 0.84875 0.77041
 H756 H 0.73457 0.79007 0.84671
 H757 H 0.69996 0.91673 0.84129
 H758 H 0.71515 0.88714 0.80699
 C759 C 0.21957 0.38103 0.37018
 C760 C 0.19901 0.37527 0.39399
 C761 C 0.19432 0.39606 0.41698
 C762 C 0.21033 0.42236 0.41709
 C763 C 0.23055 0.42812 0.39349
 C764 C 0.23510 0.40783 0.37024
 C765 C 0.22444 0.35800 0.34653
 C766 C 0.24406 0.36172 0.32169
 C767 C 0.24871 0.33922 0.30106
 C768 C 0.23397 0.31239 0.30458
 C769 C 0.21380 0.30869 0.32873
 C770 C 0.20888 0.33123 0.34957
 C771 C 0.18374 0.34861 0.39512
 C772 C 0.18870 0.32700 0.37353
 H773 H 0.16801 0.34420 0.41333
 H774 H 0.17663 0.30658 0.37573
 H775 H 0.17865 0.39161 0.43525
 H776 H 0.24319 0.44830 0.39336
 H777 H 0.26429 0.34276 0.28255
 H778 H 0.20206 0.28814 0.33154
 H779 H 0.25117 0.41341 0.35294
 H780 H 0.25620 0.38173 0.31783
 C781 C 0.28068 0.11526 0.87273
 C782 C 0.29521 0.12267 0.90085
 C783 C 0.29877 0.10176 0.92401
 C784 C 0.28794 0.07321 0.91989
 C785 C 0.27412 0.06592 0.89151
 C786 C 0.27052 0.08653 0.86834
 C787 C 0.27641 0.13848 0.84910
 C788 C 0.26142 0.13355 0.82084
 C789 C 0.25709 0.15610 0.80016
 C790 C 0.26768 0.18416 0.80695
 C791 C 0.28315 0.18920 0.83471
 C792 C 0.28742 0.16672 0.85582
 C793 C 0.30594 0.15096 0.90586
 C794 C 0.30218 0.17248 0.88381
 H795 H 0.31722 0.15662 0.92732
 H796 H 0.31068 0.19408 0.88894
 H797 H 0.31037 0.10769 0.94521
 H798 H 0.26501 0.04434 0.88760
 H799 H 0.24513 0.15155 0.77889
 H800 H 0.29141 0.21080 0.84029
 H801 H 0.25940 0.07951 0.84740
 H802 H 0.25254 0.11255 0.81437
 C803 C 0.77912 0.61755 0.37072
 C804 C 0.79985 0.62336 0.39429
 C805 C 0.80456 0.60270 0.41742
 C806 C 0.78833 0.57650 0.41796
 C807 C 0.76787 0.57076 0.39464
 C808 C 0.76334 0.59089 0.37124
 C809 C 0.77435 0.64038 0.34681
 C810 C 0.75474 0.63645 0.32203
 C811 C 0.75027 0.65868 0.30103
 C812 C 0.76516 0.68549 0.30408
 C813 C 0.78527 0.68945 0.32823
 C814 C 0.79006 0.66712 0.34943
 C815 C 0.81528 0.64996 0.39504
 C816 C 0.81033 0.67145 0.37326
 H817 H 0.83112 0.65444 0.41309
 H818 H 0.82252 0.69182 0.37517
 H819 H 0.82042 0.60716 0.43548
 H820 H 0.75503 0.55070 0.39485
 H821 H 0.73473 0.65492 0.28255
 H822 H 0.79712 0.70997 0.33067
 H823 H 0.74707 0.58531 0.35418
 H824 H 0.74253 0.61644 0.31844
 C825 C 0.11515 0.71509 0.87276
 C826 C 0.08984 0.72938 0.86713
 C827 C 0.06772 0.72804 0.88933
 C828 C 0.07042 0.71295 0.91766
 C829 C 0.09532 0.69812 0.92259
 C830 C 0.11728 0.69909 0.90057
 C831 C 0.13890 0.71839 0.84929
 C832 C 0.16522 0.70571 0.85314
 C833 C 0.18722 0.71074 0.83152
 C834 C 0.18362 0.72843 0.80540
 C835 C 0.15718 0.74046 0.80083
 C836 C 0.13495 0.73570 0.82255
 C837 C 0.08703 0.74558 0.83977
 C838 C 0.10908 0.74867 0.81797
 H839 H 0.06760 0.75642 0.83535
 H840 H 0.10598 0.76179 0.79742
 H841 H 0.04899 0.74011 0.88524
 H842 H 0.09781 0.68556 0.94368
 H843 H 0.20732 0.70105 0.83560
 H844 H 0.15406 0.75413 0.78070
 H845 H 0.13582 0.68742 0.90602
 H846 H 0.16948 0.69217 0.87288
 C847 C 0.61788 0.21735 0.37519
 C848 C 0.59531 0.23625 0.37363
 C849 C 0.57360 0.23468 0.39627
 C850 C 0.57390 0.21442 0.42051
 C851 C 0.59565 0.19507 0.42147
 C852 C 0.61742 0.19647 0.39915
 C853 C 0.64149 0.22083 0.35157
 C854 C 0.66572 0.20430 0.35217
 C855 C 0.68780 0.20935 0.33062
 C856 C 0.68626 0.23081 0.30773
 C857 C 0.66190 0.24691 0.30642
 C858 C 0.63977 0.24233 0.32829
 C859 C 0.59471 0.25681 0.34975
 C860 C 0.61635 0.25966 0.32746
 H861 H 0.57731 0.27111 0.34842
 H862 H 0.61500 0.27609 0.30962
 H863 H 0.55668 0.24958 0.39547
 H864 H 0.59597 0.17907 0.43987
 H865 H 0.70632 0.19657 0.33215
 H866 H 0.66054 0.26369 0.28898
 H867 H 0.63371 0.18117 0.40126
 H868 H 0.66835 0.18773 0.36939
 C869 C 0.88379 0.28347 0.87728
 C870 C 0.90901 0.26903 0.87161
 C871 C 0.93104 0.27007 0.89387
 C872 C 0.92827 0.28486 0.92239
 C873 C 0.90343 0.29975 0.92743
 C874 C 0.88158 0.29913 0.90531
 C875 C 0.86024 0.28074 0.85357
 C876 C 0.83418 0.29397 0.85720
 C877 C 0.81233 0.28950 0.83533
 C878 C 0.81581 0.27179 0.80919
 C879 C 0.84201 0.25923 0.80481
 C880 C 0.86412 0.26352 0.82674
 C881 C 0.91182 0.25300 0.84413
 C882 C 0.88984 0.25024 0.82223
 H883 H 0.93116 0.24201 0.83970
 H884 H 0.89291 0.23721 0.80160
 H885 H 0.94984 0.25812 0.88964
 H886 H 0.90096 0.31223 0.94858
 H887 H 0.79241 0.29959 0.83927
 H888 H 0.84505 0.24561 0.78463
 H889 H 0.86308 0.31084 0.91084
 H890 H 0.83002 0.30755 0.87694
 C891 C 0.38059 0.78047 0.37227
 C892 C 0.40326 0.76169 0.37080
 C893 C 0.42512 0.76366 0.39322
 C894 C 0.42492 0.78427 0.41710
 C895 C 0.40309 0.80355 0.41793
 C896 C 0.38114 0.80171 0.39585
 C897 C 0.35684 0.77656 0.34891
 C898 C 0.33247 0.79291 0.34946
 C899 C 0.31040 0.78760 0.32797
 C900 C 0.31209 0.76605 0.30521
 C901 C 0.33651 0.75002 0.30409
 C902 C 0.35863 0.75487 0.32587
 C903 C 0.40385 0.74084 0.34724
 C904 C 0.38212 0.73764 0.32512
 H905 H 0.42131 0.72662 0.34597
 H906 H 0.38349 0.72105 0.30746
 H907 H 0.44210 0.74882 0.39251
 H908 H 0.40284 0.81980 0.43606
 H909 H 0.29181 0.80031 0.32936
 H910 H 0.33801 0.73315 0.28677
 H911 H 0.36480 0.81696 0.39783
 H912 H 0.32977 0.80956 0.36657
 C913 C 0.28621 0.88023 0.12481
 C914 C 0.27030 0.90503 0.12801
 C915 C 0.27305 0.92716 0.10571
 C916 C 0.29146 0.92500 0.08009
 C917 C 0.30786 0.90092 0.07740
 C918 C 0.30533 0.87878 0.09944
 C919 C 0.28147 0.85640 0.14821
 C920 C 0.29527 0.83033 0.14638
 C921 C 0.28912 0.80828 0.16791
 C922 C 0.26920 0.81161 0.19193
 C923 C 0.25584 0.83774 0.19440
 C924 C 0.26163 0.85996 0.17269
 C925 C 0.25136 0.90739 0.15309
 C926 C 0.24720 0.88539 0.17501
 H927 H 0.23933 0.92645 0.15564
 H928 H 0.23208 0.88815 0.19381
 H929 H 0.26036 0.94582 0.10779
 H930 H 0.32236 0.89908 0.05785
 H931 H 0.29982 0.78839 0.16547
 H932 H 0.24034 0.84060 0.21281
 H933 H 0.31829 0.86066 0.09595
 H934 H 0.31056 0.82632 0.12829
 C935 C 0.78939 0.38686 0.62941
 C936 C 0.77149 0.41033 0.63062
 C937 C 0.77418 0.43222 0.60804
 C938 C 0.79461 0.43124 0.58422
 C939 C 0.81313 0.40869 0.58375
 C940 C 0.81060 0.38672 0.60601
 C941 C 0.78456 0.36299 0.65276
 C942 C 0.79988 0.33779 0.65230
 C943 C 0.79367 0.31562 0.67369
 C944 C 0.77223 0.31801 0.69625
 C945 C 0.75724 0.34325 0.69729
 C946 C 0.76298 0.36548 0.67560
 C947 C 0.75073 0.41162 0.65404
 C948 C 0.74672 0.38979 0.67619
 H949 H 0.73720 0.42970 0.65513
 H950 H 0.73022 0.39171 0.69370
 H951 H 0.75992 0.44976 0.60848
 H952 H 0.82925 0.40783 0.56567
 H953 H 0.80559 0.29641 0.67236
 H954 H 0.74046 0.34530 0.71447
 H955 H 0.82524 0.36978 0.60427
 H956 H 0.81638 0.33453 0.63533
 C957 C 0.71781 0.11714 0.12790
 C958 C 0.72615 0.12286 0.09656
 C959 C 0.72359 0.10100 0.07398
 C960 C 0.71110 0.07378 0.08152
 C961 C 0.70142 0.06866 0.11223
 C962 C 0.70497 0.08990 0.13524
 C963 C 0.72256 0.14060 0.15168
 C964 C 0.71900 0.13602 0.18415
 C965 C 0.72438 0.15852 0.20539
 C966 C 0.73260 0.18616 0.19468
 C967 C 0.73622 0.19099 0.16252
 C968 C 0.73216 0.16829 0.14110
 C969 C 0.73650 0.15048 0.08780
 C970 C 0.73870 0.17290 0.10943
 H971 H 0.74250 0.15497 0.06370
 H972 H 0.74640 0.19400 0.10138
 H973 H 0.73118 0.10526 0.05036
 H974 H 0.69115 0.04805 0.11847
 H975 H 0.72190 0.15441 0.23025
 H976 H 0.74343 0.21222 0.15433
 H977 H 0.69713 0.08479 0.15845
 H978 H 0.71279 0.11511 0.19358
 C979 C 0.21670 0.61105 0.62891
 C980 C 0.19563 0.61400 0.60559
 C981 C 0.19116 0.59269 0.58256
 C982 C 0.20800 0.56878 0.58185
 C983 C 0.22881 0.56585 0.60490
 C984 C 0.23309 0.58659 0.62823
 C985 C 0.22126 0.63456 0.65266
 C986 C 0.24117 0.63334 0.67721
 C987 C 0.24558 0.65634 0.69788
 C988 C 0.23031 0.68121 0.69469
 C989 C 0.20978 0.68231 0.67090
 C990 C 0.20506 0.65920 0.65004
 C991 C 0.17964 0.63850 0.60494
 C992 C 0.18444 0.66072 0.62651
 H993 H 0.16353 0.64078 0.58710
 H994 H 0.17186 0.67946 0.62465
 H995 H 0.17504 0.59496 0.56470
 H996 H 0.24212 0.54758 0.60454
 H997 H 0.26143 0.65481 0.71613
 H998 H 0.19760 0.70128 0.66839
 H999 H 0.24967 0.58327 0.64507
 H1000 H 0.25372 0.61494 0.68083
 C1001 C 0.88296 0.72837 0.12692
 C1002 C 0.87813 0.70917 0.10149
 C1003 C 0.89911 0.70665 0.07838
 C1004 C 0.92483 0.72332 0.07991
 C1005 C 0.92975 0.74214 0.10514
 C1006 C 0.90915 0.74465 0.12841
 C1007 C 0.85970 0.73090 0.15072
 C1008 C 0.86231 0.74937 0.17683
 C1009 C 0.83961 0.75183 0.19761
 C1010 C 0.81372 0.73592 0.19302
 C1011 C 0.81116 0.71687 0.16756
 C1012 C 0.83384 0.71428 0.14646
 C1013 C 0.85226 0.69289 0.09903
 C1014 C 0.83057 0.69546 0.12097
 H1015 H 0.84859 0.67817 0.07962
 H1016 H 0.81082 0.68264 0.11778
 H1017 H 0.89539 0.69196 0.05891
 H1018 H 0.94954 0.75516 0.10662
 H1019 H 0.84226 0.76662 0.21710
 H1020 H 0.79131 0.70436 0.16378
 H1021 H 0.91408 0.75966 0.14711
 H1022 H 0.88155 0.76234 0.18153
 C1023 C 0.38480 0.22670 0.63029
 C1024 C 0.38042 0.20610 0.60611
 C1025 C 0.40148 0.20295 0.58319
 C1026 C 0.42671 0.22047 0.58357
 C1027 C 0.43106 0.24083 0.60747
 C1028 C 0.41047 0.24390 0.63061
 C1029 C 0.36158 0.22971 0.65401
 C1030 C 0.36401 0.24915 0.67929
 C1031 C 0.34139 0.25194 0.70007
 C1032 C 0.31571 0.23547 0.69629
 C1033 C 0.31332 0.21550 0.67166
 C1034 C 0.33599 0.21245 0.65066
 C1035 C 0.35489 0.18916 0.60459
 C1036 C 0.33309 0.19240 0.62626
 H1037 H 0.35154 0.17341 0.58608
 H1038 H 0.31358 0.17905 0.62378
 H1039 H 0.39813 0.18716 0.56469
 H1040 H 0.45039 0.25462 0.60798
 H1041 H 0.34392 0.26742 0.71893
 H1042 H 0.29368 0.20246 0.66861
 H1043 H 0.41494 0.26012 0.64821
 H1044 H 0.38309 0.26255 0.68339
 C1045 C 0.11799 0.27088 0.12874
 C1046 C 0.12314 0.29045 0.10370
 C1047 C 0.10206 0.29403 0.08095
 C1048 C 0.07592 0.27808 0.08249
 C1049 C 0.07075 0.25881 0.10728
 C1050 C 0.09143 0.25526 0.13020
 C1051 C 0.14128 0.26729 0.15222
 C1052 C 0.13830 0.24851 0.17805
 C1053 C 0.16092 0.24528 0.19870
 C1054 C 0.18713 0.26068 0.19424
 C1055 C 0.19014 0.27987 0.16894
 C1056 C 0.16752 0.28329 0.14802
 C1057 C 0.14940 0.30602 0.10124
 C1058 C 0.17114 0.30244 0.12285
 H1059 H 0.15334 0.32100 0.08209
 H1060 H 0.19118 0.31479 0.11971
 H1061 H 0.10604 0.30897 0.06175
 H1062 H 0.05069 0.24623 0.10868
 H1063 H 0.15793 0.23039 0.21806
 H1064 H 0.21022 0.29202 0.16530
 H1065 H 0.08626 0.23996 0.14856
 H1066 H 0.11879 0.23596 0.18268
 C1067 C 0.61437 0.77373 0.62650
 C1068 C 0.61874 0.79417 0.60214
 C1069 C 0.59782 0.79699 0.57903
 C1070 C 0.57267 0.77935 0.57945
 C1071 C 0.56832 0.75914 0.60351
 C1072 C 0.58881 0.75636 0.62681
 C1073 C 0.63744 0.77112 0.65046
 C1074 C 0.63508 0.75176 0.67583
 C1075 C 0.65758 0.74941 0.69687
 C1076 C 0.68305 0.76628 0.69325
 C1077 C 0.68534 0.78614 0.66851
 C1078 C 0.66283 0.78872 0.64724
 C1079 C 0.64411 0.81138 0.60072
 C1080 C 0.66573 0.80861 0.62267
 H1081 H 0.64746 0.82702 0.58210
 H1082 H 0.68510 0.82219 0.62029
 H1083 H 0.60116 0.81267 0.56042
 H1084 H 0.54902 0.74529 0.60407
 H1085 H 0.65514 0.73398 0.71579
 H1086 H 0.70483 0.79946 0.66554
 H1087 H 0.58432 0.74028 0.64456
 H1088 H 0.61616 0.73807 0.67979
   
