data_POSCAR
  _audit_creation_date              2014-09-24
  _audit_creation_method            'ToBaCCo'
  _symmetry_space_group_name_H-M    'P1'
  _symmetry_Int_Tables_number       1
  _symmetry_cell_setting            triclinic
  loop_
  _symmetry_equiv_pos_as_xyz
 x,y,z
_cell_length_a 35.7848
_cell_length_b 35.6051
_cell_length_c 35.8410
_cell_angle_alpha 92.077400
_cell_angle_beta 92.079700
_cell_angle_gamma 85.781200
loop_
  _atom_site_label
  _atom_site_type_symbol
  _atom_site_fract_x
  _atom_site_fract_y
  _atom_site_fract_z
N1 N 0.63933 0.62085 0.63086
 N2 N 0.88070 0.38019 0.11196
 N3 N 0.36994 0.13286 -0.11466
 N4 N 0.11304 0.87158 0.38507
 N5 N 0.08508 0.17367 0.12180
 N6 N 0.07226 0.15968 0.15185
 C7 C 0.04199 0.18144 0.16289
 C8 C 0.03538 0.21048 0.13828
 C9 C 0.06329 0.20457 0.11253
 H10 H 0.02569 0.17633 0.18675
 H11 H 0.06781 0.22183 0.08914
 Cu12 Cu 0.09617 0.11419 0.17336
 Cu13 Cu 0.12945 0.15130 0.09732
 Cu14 Cu 0.17182 0.06948 0.13414
 N15 N 0.11970 0.06765 0.19306
 N16 N 0.14951 0.05060 0.17784
 C17 C 0.16060 0.01983 0.19719
 C18 C 0.13633 0.01724 0.22605
 C19 C 0.11064 0.04806 0.22249
 H20 H 0.18441 0.00060 0.19055
 H21 H 0.08752 0.05598 0.24042
 N22 N 0.19027 0.09297 0.09009
 N23 N 0.17456 0.12451 0.07649
 C24 C 0.19407 0.13386 0.04719
 C25 C 0.22330 0.10676 0.04190
 C26 C 0.21997 0.08124 0.06956
 H27 H 0.18726 0.15830 0.03055
 H28 H 0.23824 0.05629 0.07469
 H29 H 0.12307 0.09692 0.11307
 H30 H 0.15436 0.12554 0.14362
 N31 N 0.42677 0.82301 0.60156
 N32 N 0.44352 0.83616 0.63201
 C33 C 0.47465 0.81380 0.63971
 C34 C 0.47766 0.78521 0.61251
 C35 C 0.44676 0.79204 0.58871
 H36 H 0.49394 0.81818 0.66311
 H37 H 0.43903 0.77537 0.56421
 Cu38 Cu 0.42307 0.88134 0.65844
 Cu39 Cu 0.37995 0.84652 0.58118
 Cu40 Cu 0.34353 0.92775 0.62701
 N41 N 0.40276 0.92747 0.68335
 N42 N 0.37141 0.94517 0.67116
 C43 C 0.36318 0.97544 0.69374
 C44 C 0.39097 0.97698 0.72154
 C45 C 0.41570 0.94610 0.71398
 H46 H 0.33892 0.99505 0.69000
 H47 H 0.44084 0.93750 0.73001
 N48 N 0.31942 0.90567 0.58191
 N49 N 0.33292 0.87436 0.56487
 C50 C 0.30972 0.86597 0.53582
 C51 C 0.28034 0.89344 0.53431
 C52 C 0.28746 0.91819 0.56391
 H53 H 0.31406 0.84187 0.51685
 H54 H 0.27022 0.94312 0.57211
 H55 H 0.38909 0.90036 0.60123
 H56 H 0.36116 0.87139 0.63071
 N57 N 0.91208 0.69078 0.38190
 N58 N 0.92386 0.67383 0.35087
 C59 C 0.95231 0.69211 0.33830
 C60 C 0.95888 0.72195 0.36294
 C61 C 0.93280 0.72018 0.39030
 H62 H 0.96752 0.68400 0.31343
 H63 H 0.92888 0.73912 0.41432
 Cu64 Cu 0.90130 0.62916 0.33029
 Cu65 Cu 0.87053 0.67381 0.40886
 Cu66 Cu 0.82818 0.59571 0.37157
 N67 N 0.87691 0.58565 0.30949
 N68 N 0.84793 0.57313 0.32537
 C69 C 0.83615 0.54344 0.30508
 C70 C 0.85914 0.53678 0.27495
 C71 C 0.88472 0.56413 0.27869
 H72 H 0.81294 0.52751 0.31206
 H73 H 0.90702 0.56830 0.26005
 N74 N 0.81227 0.62243 0.41810
 N75 N 0.82811 0.65242 0.43205
 C76 C 0.81085 0.66445 0.46351
 C77 C 0.78293 0.64078 0.46986
 C78 C 0.78470 0.61443 0.44051
 H79 H 0.81836 0.68837 0.48088
 H80 H 0.76688 0.59141 0.43561
 H81 H 0.87718 0.61781 0.39136
 H82 H 0.84421 0.64922 0.36284
 N83 N 0.57248 0.31143 -0.12018
 N84 N 0.55682 0.32824 -0.14946
 C85 C 0.52633 0.31042 -0.16096
 C86 C 0.52251 0.28101 -0.13747
 C87 C 0.55232 0.28257 -0.11186
 H88 H 0.50796 0.31849 -0.18436
 H89 H 0.55916 0.26379 -0.08919
 Cu90 Cu 0.57750 0.37204 -0.16948
 Cu91 Cu 0.61813 0.32782 -0.09545
 Cu92 Cu 0.65692 0.40444 -0.13192
 N93 N 0.59993 0.41465 -0.18989
 N94 N 0.63132 0.42677 -0.17551
 C95 C 0.64090 0.45590 -0.19515
 C96 C 0.61392 0.46261 -0.22325
 C97 C 0.58833 0.43588 -0.21902
 H98 H 0.66534 0.47147 -0.18903
 H99 H 0.56338 0.43194 -0.23620
 N100 N 0.67867 0.37807 -0.08793
 N101 N 0.66420 0.34859 -0.07435
 C102 C 0.68560 0.33666 -0.04480
 C103 C 0.71479 0.35989 -0.03932
 C104 C 0.70945 0.38585 -0.06718
 H105 H 0.68007 0.31314 -0.02809
 H106 H 0.72701 0.40844 -0.07222
 H107 H 0.61036 0.38362 -0.10980
 H108 H 0.63845 0.35119 -0.14194
 C109 C -0.07447 0.33791 0.07663
 C110 C -0.09089 0.34930 0.11058
 C111 C -0.07917 0.33056 0.14326
 C112 C -0.05127 0.30077 0.14211
 C113 C -0.03453 0.28982 0.10789
 C114 C -0.04641 0.30851 0.07529
 C115 C -0.00623 0.26039 0.10683
 C116 C 0.00532 0.24136 0.13945
 C117 C -0.01190 0.25214 0.17320
 C118 C -0.03981 0.28170 0.17456
 H119 H -0.09204 0.33910 0.16944
 H120 H -0.03397 0.30044 0.04881
 H121 H 0.00643 0.25206 0.08051
 H122 H -0.05237 0.28967 0.20101
 H123 H -0.08308 0.35221 0.05124
 H124 H -0.00337 0.23817 0.19877
 C125 C 0.60444 0.67062 0.66802
 C126 C 0.61135 0.65205 0.63345
 C127 C 0.59052 0.66393 0.60149
 C128 C 0.56291 0.69391 0.60403
 C129 C 0.55631 0.71258 0.63892
 C130 C 0.57726 0.70073 0.67073
 C131 C 0.52871 0.74258 0.64145
 C132 C 0.50719 0.75392 0.60966
 C133 C 0.51387 0.73499 0.57518
 C134 C 0.54159 0.70537 0.57235
 H135 H 0.59552 0.64941 0.57484
 H136 H 0.57255 0.71467 0.69771
 H137 H 0.52358 0.75658 0.66831
 H138 H 0.54626 0.69137 0.54540
 H139 H 0.62037 0.66188 0.69287
 H140 H 0.49796 0.74332 0.55020
 C141 C 1.06904 0.83862 0.42147
 C142 C 1.08401 0.84576 0.38696
 C143 C 1.07079 0.82716 0.35442
 C144 C 1.04308 0.80145 0.35633
 C145 C 1.02801 0.79463 0.39116
 C146 C 1.04115 0.81340 0.42356
 C147 C 1.00029 0.76893 0.39308
 C148 C 0.98774 0.74947 0.36072
 C149 C 1.00312 0.75630 0.32627
 C150 C 1.03040 0.78218 0.32406
 H151 H 1.08257 0.83234 0.32781
 H152 H 1.02997 0.80848 0.45050
 H153 H 0.98906 0.76362 0.41990
 H154 H 1.04166 0.78704 0.29713
 H155 H 1.07887 0.85285 0.44676
 H156 H 0.99376 0.74195 0.30087
 C157 C 0.41868 0.16598 -0.07897
 C158 C 0.39912 0.15882 -0.11286
 C159 C 0.40816 0.17727 -0.14496
 C160 C 0.43635 0.20271 -0.14325
 C161 C 0.45611 0.20949 -0.10908
 C162 C 0.44705 0.19098 -0.07710
 C163 C 0.48442 0.23483 -0.10742
 C164 C 0.49295 0.25392 -0.13936
 C165 C 0.47291 0.24713 -0.17310
 C166 C 0.44499 0.22164 -0.17508
 H167 H 0.39286 0.17210 -0.17107
 H168 H 0.46184 0.19588 -0.05066
 H169 H 0.49931 0.24011 -0.08111
 H170 H 0.43011 0.21678 -0.20149
 H171 H 0.41215 0.15184 -0.05402
 H172 H 0.47910 0.26118 -0.19819
 C173 C 0.07705 -0.08015 0.34786
 C174 C 0.11108 -0.10070 0.35654
 C175 C 0.14328 -0.09383 0.33732
 C176 C 0.14160 -0.06670 0.30979
 C177 C 0.10732 -0.04585 0.30153
 C178 C 0.07519 -0.05287 0.32067
 C179 C 0.10576 -0.01841 0.27425
 C180 C 0.13794 -0.01177 0.25478
 C181 C 0.17175 -0.03298 0.26300
 C182 C 0.17360 -0.06008 0.29034
 H183 H 0.16951 -0.10989 0.34367
 H184 H 0.04866 -0.03722 0.31466
 H185 H 0.07939 -0.00263 0.26792
 H186 H 0.20009 -0.07582 0.29631
 H187 H 0.05202 -0.08497 0.36254
 H188 H 0.19703 -0.02827 0.24871
 C189 C 0.67545 0.57882 -0.32547
 C190 C 0.64094 0.59188 -0.34191
 C191 C 0.60794 0.57654 -0.33153
 C192 C 0.60933 0.54843 -0.30500
 C193 C 0.64415 0.53576 -0.28824
 C194 C 0.67706 0.55110 -0.29872
 C195 C 0.64547 0.50789 -0.26141
 C196 C 0.61251 0.49210 -0.25146
 C197 C 0.57813 0.50465 -0.26863
 C198 C 0.57652 0.53269 -0.29502
 H199 H 0.58131 0.58632 -0.34447
 H200 H 0.70400 0.54168 -0.28625
 H201 H 0.67223 0.49816 -0.24875
 H202 H 0.54962 0.54204 -0.30762
 H203 H 0.70109 0.59050 -0.33310
 H204 H 0.55229 0.49321 -0.26127
 C205 C 0.33304 1.09956 0.83673
 C206 C 0.36775 1.10571 0.85460
 C207 C 0.40026 1.08513 0.84230
 C208 C 0.39815 1.05856 0.81255
 C209 C 0.36312 1.05278 0.79458
 C210 C 0.33074 1.07342 0.80689
 C211 C 0.36101 1.02633 0.76474
 C212 C 0.39339 1.00515 0.75282
 C213 C 0.42802 1.01095 0.77109
 C214 C 0.43042 1.03752 0.80058
 H215 H 0.42704 1.08956 0.85625
 H216 H 0.30365 1.06932 0.79348
 H217 H 0.33403 1.02186 0.75127
 H218 H 0.45749 1.04157 0.81405
 H219 H 0.30776 1.11535 0.84575
 H220 H 0.45344 0.99526 0.76232
 C221 C 0.91692 0.42493 0.14997
 C222 C 0.88276 0.40919 0.14095
 C223 C 0.85063 0.42197 0.16040
 C224 C 0.85259 0.45014 0.18867
 C225 C 0.88702 0.46611 0.19726
 C226 C 0.91902 0.45328 0.17777
 C227 C 0.88892 0.49453 0.22528
 C228 C 0.85698 0.50690 0.24529
 C229 C 0.82300 0.49050 0.23681
 C230 C 0.82077 0.46252 0.20862
 H231 H 0.82432 0.40961 0.15370
 H232 H 0.94566 0.46513 0.18404
 H233 H 0.91542 0.50655 0.23186
 H234 H 0.79417 0.45055 0.20244
 H235 H 0.94187 0.41548 0.13510
 H236 H 0.79794 0.49969 0.25160
 C237 C 0.32501 0.16905 -0.07405
 C238 C 0.34259 0.13436 -0.08598
 C239 C 0.33307 0.10108 -0.06998
 C240 C 0.30623 0.10237 -0.04231
 C241 C 0.28829 0.13738 -0.03081
 C242 C 0.29795 0.17056 -0.04680
 C243 C 0.26108 0.13862 -0.00348
 C244 C 0.25192 0.10538 0.01298
 C245 C 0.27029 0.07082 0.00167
 C246 C 0.29706 0.06929 -0.02587
 H247 H 0.34687 0.07431 -0.07893
 H248 H 0.28457 0.19764 -0.03826
 H249 H 0.24750 0.16552 0.00534
 H250 H 0.31058 0.04224 -0.03431
 H251 H 0.33195 0.19490 -0.08627
 H252 H 0.26358 0.04479 0.01370
 C253 C 0.67325 0.58379 0.58143
 C254 C 0.66519 0.61830 0.60075
 C255 C 0.68231 0.65039 0.59026
 C256 C 0.70718 0.64811 0.56076
 C257 C 0.71481 0.61334 0.54122
 C258 C 0.69775 0.58133 0.55183
 C259 C 0.73941 0.61115 0.51147
 C260 C 0.75688 0.64316 0.50119
 C261 C 0.74933 0.67749 0.52107
 C262 C 0.72460 0.67998 0.55048
 H263 H 0.67642 0.67699 0.60532
 H264 H 0.70331 0.55444 0.53722
 H265 H 0.74529 0.58438 0.49673
 H266 H 0.71908 0.70685 0.56516
 H267 H 0.66011 0.55884 0.58902
 H268 H 0.76213 0.70265 0.51359
 C269 C 0.84027 0.41701 0.06712
 C270 C 0.85080 0.38259 0.08385
 C271 C 0.83205 0.35048 0.07283
 C272 C 0.80307 0.35270 0.04538
 C273 C 0.79297 0.38738 0.02840
 C274 C 0.81170 0.41938 0.03952
 C275 C 0.76426 0.38951 0.00067
 C276 C 0.74511 0.35754 -0.01007
 C277 C 0.75512 0.32331 0.00732
 C278 C 0.78396 0.32086 0.03467
 H279 H 0.83988 0.32396 0.08594
 H280 H 0.80428 0.44621 0.02687
 H281 H 0.75653 0.41621 -0.01212
 H282 H 0.79130 0.29407 0.04742
 H283 H 0.85458 0.44196 0.07516
 H284 H 0.74105 0.29819 -0.00060
 C285 C 0.16311 0.83442 0.41948
 C286 C 0.14434 0.86940 0.41160
 C287 C 0.15636 0.90225 0.42968
 C288 C 0.18682 0.90022 0.45548
 C289 C 0.20584 0.86492 0.46292
 C290 C 0.19373 0.83218 0.44481
 C291 C 0.23651 0.86292 0.48847
 C292 C 0.24815 0.89567 0.50716
 C293 C 0.22877 0.93055 0.49985
 C294 C 0.19850 0.93284 0.47408
 H295 H 0.14168 0.92923 0.42387
 H296 H 0.20791 0.80488 0.45023
 H297 H 0.25088 0.83578 0.49421
 H298 H 0.18422 0.96011 0.46875
 H299 H 0.15425 0.80889 0.40561
 H300 H 0.23732 0.95622 0.51365
   
