data_POSCAR
  _audit_creation_date              2014-09-24
  _audit_creation_method            'ToBaCCo'
  _symmetry_space_group_name_H-M    'P1'
  _symmetry_Int_Tables_number       1
  _symmetry_cell_setting            triclinic
  loop_
  _symmetry_equiv_pos_as_xyz
 x,y,z
_cell_length_a 24.8286
_cell_length_b 24.8196
_cell_length_c 31.8040
_cell_angle_alpha 89.953300
_cell_angle_beta 90.059900
_cell_angle_gamma 120.201100
loop_
  _atom_site_label
  _atom_site_type_symbol
  _atom_site_fract_x
  _atom_site_fract_y
  _atom_site_fract_z
C1 C -0.00193 0.50111 1.36226
 C2 C 0.05102 0.50875 1.34069
 C3 C 0.04963 0.50599 1.29652
 C4 C -0.00181 0.49981 1.27400
 C5 C -0.05345 0.49398 1.29599
 C6 C -0.05498 0.49250 1.34019
 C7 C -0.00146 0.49969 1.22740
 C8 C -0.05333 0.45442 1.20491
 C9 C -0.05351 0.45468 1.16081
 C10 C -0.00067 0.49966 1.13914
 C11 C 0.05178 0.54466 1.16116
 C12 C 0.05079 0.54494 1.20524
 H13 H -0.00191 0.50166 1.39626
 H14 H 0.08938 0.51048 1.27935
 H15 H -0.09313 0.48899 1.27841
 H16 H -0.09378 0.41934 1.22176
 H17 H -0.00036 0.49965 1.10508
 H18 H 0.09093 0.58005 1.22234
 C19 C 0.49854 0.49673 1.36235
 C20 C 0.49018 0.54151 1.34059
 C21 C 0.49304 0.54284 1.29642
 C22 C 0.49983 0.49792 1.27403
 C23 C 0.50624 0.45255 1.29620
 C24 C 0.50782 0.45269 1.34042
 C25 C 0.50000 0.49833 1.22739
 C26 C 0.54506 0.49162 1.20497
 C27 C 0.54488 0.49119 1.16086
 C28 C 0.50027 0.49932 1.13910
 C29 C 0.45551 0.50691 1.16101
 C30 C 0.45506 0.50549 1.20510
 H31 H 0.49800 0.49629 1.39635
 H32 H 0.48814 0.57779 1.27914
 H33 H 0.51165 0.41808 1.27874
 H34 H 0.57994 0.48615 1.22188
 H35 H 0.50037 0.49971 1.10504
 H36 H 0.42005 0.51054 1.22210
 C37 C 0.50189 1.00523 1.36232
 C38 C 0.45729 0.95195 1.34092
 C39 C 0.45697 0.95100 1.29692
 C40 C 0.50249 1.00218 1.27416
 C41 C 0.54806 1.05473 1.29594
 C42 C 0.54731 1.05750 1.34010
 C43 C 0.50192 1.00134 1.22761
 C44 C 0.50791 1.05279 1.20506
 C45 C 0.50817 1.05281 1.16100
 C46 C 0.50075 1.00025 1.13942
 C47 C 0.49375 0.94813 1.16149
 C48 C 0.49515 0.94921 1.20558
 H49 H 0.50114 1.00522 1.39636
 H50 H 0.42170 0.91019 1.28045
 H51 H 0.58313 1.09410 1.27821
 H52 H 0.51296 1.09308 1.22182
 H53 H 0.50036 0.99989 1.10537
 H54 H 0.49037 0.90931 1.22275
 C55 C 1.00506 0.50329 0.63794
 C56 C 0.95203 0.49481 0.65932
 C57 C 0.95125 0.49453 0.70331
 C58 C 1.00234 0.50026 0.72611
 C59 C 1.05469 0.50710 0.70434
 C60 C 1.05726 0.51028 0.66015
 C61 C 1.00144 0.49996 0.77268
 C62 C 1.05327 0.54508 0.79536
 C63 C 1.05294 0.54445 0.83940
 C64 C 0.99990 0.49994 0.86084
 C65 C 0.94755 0.45549 0.83872
 C66 C 0.94874 0.45487 0.79467
 H67 H 1.00487 0.50372 0.60390
 H68 H 0.91060 0.48914 0.71974
 H69 H 1.09400 0.51143 0.72205
 H70 H 1.09409 0.58016 0.77882
 H71 H 0.99936 0.49993 0.89494
 H72 H 0.90847 0.41992 0.77759
 C73 C 0.50177 0.50329 0.63812
 C74 C 0.50858 0.45791 0.65976
 C75 C 0.50640 0.45629 0.70376
 C76 C 0.49928 0.50103 0.72630
 C77 C 0.49284 0.54658 0.70419
 C78 C 0.49307 0.54726 0.66010
 C79 C 0.49899 0.50044 0.77286
 C80 C 0.45392 0.50724 0.79528
 C81 C 0.45457 0.50802 0.83933
 C82 C 0.49902 0.49986 0.86103
 C83 C 0.54346 0.49204 0.83915
 C84 C 0.54407 0.49337 0.79512
 H85 H 0.50296 0.50411 0.60406
 H86 H 0.51109 0.42076 0.72043
 H87 H 0.48713 0.58114 0.72128
 H88 H 0.41897 0.51277 0.77852
 H89 H 0.49905 0.49967 0.89512
 H90 H 0.57911 0.48821 0.77825
 C91 C 0.49960 -0.00466 0.63747
 C92 C 0.54369 0.04881 0.65899
 C93 C 0.54408 0.04940 0.70305
 C94 C 0.49901 -0.00228 0.72574
 C95 C 0.45383 -0.05488 0.70375
 C96 C 0.45461 -0.05733 0.65956
 C97 C 0.49906 -0.00185 0.77241
 C98 C 0.49151 -0.05406 0.79492
 C99 C 0.48799 -0.05581 0.83910
 C100 C 0.49560 -0.00297 0.86061
 C101 C 0.50541 0.05016 0.83864
 C102 C 0.50580 0.05016 0.79460
 H103 H 0.50034 -0.00447 0.60343
 H104 H 0.57901 0.09032 0.71960
 H105 H 0.41890 -0.09454 0.72133
 H106 H 0.48672 -0.09399 0.77780
 H107 H 0.49493 -0.00227 0.89464
 H108 H 0.51201 0.09082 0.77768
 O109 O 0.40529 0.63684 0.95341
 O110 O 0.44426 0.75439 0.96384
 C111 C 0.41721 0.77872 0.94413
 O112 O 0.36377 0.76947 0.95379
 O113 O 0.24628 0.69036 0.96493
 C114 C 0.22155 0.63905 0.94498
 O115 O 0.23125 0.59493 0.95395
 O116 O 0.30982 0.55619 0.96454
 C117 C 0.36100 0.58288 0.94450
 O118 O 0.40226 0.61918 1.03687
 O119 O 0.43686 0.73598 1.04865
 C120 C 0.42286 0.77719 1.05745
 O121 O 0.38246 0.78366 1.03711
 O122 O 0.26579 0.70090 1.04948
 C123 C 0.22414 0.64544 1.05793
 O124 O 0.21742 0.59868 1.03732
 O125 O 0.30004 0.56479 1.04913
 C126 C 0.35550 0.57884 1.05752
 Cr127 Cr 0.41879 0.68600 1.00075
 Cr128 Cr 0.31521 0.73334 1.00135
 Cr129 Cr 0.26742 0.58205 1.00127
 O130 O 0.33382 0.66714 1.00090
 O131 O 0.59400 0.36267 0.95224
 O132 O 0.55483 0.24499 0.96317
 C133 C 0.58139 0.22039 0.94324
 O134 O 0.63536 0.23039 0.95220
 O135 O 0.75303 0.30941 0.96318
 C136 C 0.77760 0.36075 0.94324
 O137 O 0.76791 0.40484 0.95229
 O138 O 0.68937 0.44355 0.96347
 C139 C 0.63812 0.41679 0.94344
 O140 O 0.59791 0.38095 1.03560
 O141 O 0.56352 0.26424 1.04775
 C142 C 0.57729 0.22276 1.05626
 O143 O 0.61718 0.21598 1.03556
 O144 O 0.73395 0.29861 1.04780
 C145 C 0.77566 0.35402 1.05630
 O146 O 0.78257 0.40083 1.03561
 O147 O 0.70010 0.43466 1.04800
 C148 C 0.64474 0.42083 1.05643
 Cr149 Cr 0.58093 0.31382 0.99971
 Cr150 Cr 0.68429 0.26635 0.99971
 Cr151 Cr 0.73223 0.41760 0.99986
 O152 O 0.66581 0.33258 0.99950
 O153 O 0.63847 0.40621 0.54790
 O154 O 0.75621 0.44562 0.53540
 C155 C 0.78020 0.41883 0.55593
 O156 O 0.76879 0.36407 0.54796
 O157 O 0.69017 0.24612 0.53545
 C158 C 0.63918 0.22162 0.55585
 O159 O 0.59571 0.23273 0.54785
 O160 O 0.55686 0.31142 0.53582
 C161 C 0.58390 0.36246 0.55620
 O162 O 0.61747 0.40165 0.46499
 O163 O 0.73387 0.43542 0.45103
 C164 C 0.77659 0.42315 0.44325
 O165 O 0.78497 0.38509 0.46505
 O166 O 0.70213 0.26855 0.45109
 C167 C 0.64689 0.22596 0.44309
 O168 O 0.60029 0.21739 0.46477
 O169 O 0.56643 0.29982 0.45134
 C170 C 0.57893 0.35496 0.44345
 Cr171 Cr 0.68601 0.41905 0.49984
 Cr172 Cr 0.73384 0.31643 0.49990
 Cr173 Cr 0.58299 0.26802 0.49995
 O174 O 0.66758 0.33449 0.50039
 O175 O 0.38224 0.59861 0.53456
 O176 O 0.26635 0.56499 0.54822
 C177 C 0.22425 0.57788 0.55640
 O178 O 0.21585 0.61594 0.53468
 O179 O 0.29929 0.73227 0.54817
 C180 C 0.35469 0.77468 0.55595
 O181 O 0.40095 0.78314 0.53391
 O182 O 0.43502 0.70085 0.54685
 C183 C 0.42171 0.64569 0.55541
 O184 O 0.36178 0.59309 0.45150
 O185 O 0.24407 0.55466 0.46361
 C186 C 0.21994 0.58161 0.44337
 O187 O 0.23082 0.63608 0.45175
 O188 O 0.31004 0.75417 0.46380
 C189 C 0.36083 0.77856 0.44319
 O190 O 0.40416 0.76711 0.45076
 O191 O 0.44314 0.68848 0.46236
 C192 C 0.41605 0.63689 0.44262
 Cr193 Cr 0.31409 0.58101 0.49944
 Cr194 Cr 0.26670 0.68411 0.49956
 Cr195 Cr 0.41758 0.73216 0.49848
 O196 O 0.33282 0.66573 0.49860
 N197 N 0.46400 0.66136 0.37356
 N198 N 0.48250 0.63560 0.34475
 C199 C 0.47811 0.58380 0.36211
 C200 C 0.45587 0.57865 0.40270
 N201 N 0.44788 0.62784 0.40845
 H202 H 0.44301 0.54116 0.42501
 N203 N 0.32580 0.81889 0.38575
 N204 N 0.35009 0.86415 0.35731
 C205 C 0.41198 0.89688 0.36475
 C206 C 0.42505 0.87018 0.39824
 N207 N 0.37019 0.82177 0.41038
 H208 H 0.47000 0.88428 0.41225
 N209 N 0.19625 0.53310 0.37447
 N210 N 0.15220 0.51509 0.34540
 C211 C 0.10503 0.52004 0.36247
 C212 C 0.12203 0.54206 0.40312
 N213 N 0.17888 0.54936 0.40924
 H214 H 0.09769 0.55544 0.42521
 N215 N 0.53518 0.33331 0.37289
 N216 N 0.51725 0.35953 0.34398
 C217 C 0.51972 0.41013 0.36184
 C218 C 0.54009 0.41400 0.40287
 N219 N 0.54932 0.36548 0.40833
 H220 H 0.55084 0.45029 0.42577
 N221 N 0.66852 0.20391 0.37251
 N222 N 0.64173 0.15980 0.34354
 C223 C 0.59044 0.11204 0.36130
 C224 C 0.58677 0.12867 0.40224
 N225 N 0.63604 0.18607 0.40783
 H226 H 0.55025 0.10345 0.42509
 N227 N 0.79867 0.46649 0.37255
 N228 N 0.84274 0.48392 0.34360
 C229 C 0.89073 0.48124 0.36153
 C230 C 0.87426 0.46133 0.40262
 N231 N 0.81668 0.45253 0.40807
 H232 H 0.89962 0.45048 0.42558
 N233 N 0.67398 0.47967 1.12215
 N234 N 0.64854 0.49843 1.15109
 C235 C 0.59054 0.48127 1.13754
 C236 C 0.58113 0.45114 1.09953
 N237 N 0.63413 0.45112 1.09106
 H238 H 0.53928 0.42971 1.08049
 N239 N 0.80560 0.32490 1.12192
 N240 N 0.84997 0.35056 1.15087
 C241 C 0.89082 0.40871 1.13740
 C242 C 0.86995 0.41799 1.09941
 N243 N 0.81682 0.36476 1.09088
 H244 H 0.89029 0.45991 1.08045
 N245 N 0.51826 0.19272 1.12187
 N246 N 0.49981 0.14854 1.15092
 C247 C 0.51737 0.10807 1.13753
 C248 C 0.54739 0.12894 1.09953
 N249 N 0.54697 0.18170 1.09088
 H250 H 0.56917 0.10889 1.08064
 N251 N 0.32638 0.51895 1.12282
 N252 N 0.35183 0.49970 1.15147
 C253 C 0.40989 0.51725 1.13792
 C254 C 0.41934 0.54816 1.10021
 N255 N 0.36629 0.54823 1.09191
 H256 H 0.46120 0.56998 1.08123
 N257 N 0.19349 0.67436 1.12326
 N258 N 0.14864 0.64867 1.15185
 C259 C 0.10790 0.59060 1.13818
 C260 C 0.12936 0.58139 1.10047
 N261 N 0.18270 0.63457 1.09229
 H262 H 0.10920 0.53956 1.08143
 N263 N 0.48256 0.80749 1.12290
 N264 N 0.50142 0.85189 1.15181
 C265 C 0.48375 0.89232 1.13839
 C266 C 0.45326 0.87117 1.10054
 N267 N 0.45352 0.81834 1.09198
 H268 H 0.43142 0.89119 1.08163
 N269 N 0.51023 0.32706 0.61468
 N270 N 0.48992 0.35114 0.64357
 C271 C 0.51888 0.41302 0.63612
 C272 C 0.55776 0.42628 0.60210
 N273 N 0.55102 0.37157 0.58968
 H274 H 0.58797 0.47122 0.58776
 N275 N 0.67439 0.18260 0.61399
 N276 N 0.65039 0.13769 0.64268
 C277 C 0.58855 0.10427 0.63516
 C278 C 0.57525 0.13024 0.60129
 N279 N 0.62992 0.17888 0.58904
 H280 H 0.53030 0.11539 0.58703
 N281 N 0.81969 0.49334 0.61395
 N282 N 0.86444 0.51396 0.64274
 C283 C 0.89710 0.48491 0.63538
 C284 C 0.87090 0.44562 0.60156
 N285 N 0.82286 0.45221 0.58915
 H286 H 0.88518 0.41507 0.58745
 N287 N 0.48010 0.67553 0.62134
 N288 N 0.49911 0.65045 0.65043
 C289 C 0.48273 0.59268 0.63686
 C290 C 0.45284 0.58300 0.59874
 N291 N 0.45218 0.63563 0.59018
 H292 H 0.43196 0.54119 0.57967
 N293 N 0.33372 0.79624 0.62683
 N294 N 0.36056 0.84014 0.65593
 C295 C 0.41173 0.88811 0.63822
 C296 C 0.41529 0.87179 0.59714
 N297 N 0.36603 0.81436 0.59145
 H298 H 0.45163 0.89730 0.57424
 N299 N 0.20287 0.53488 0.62727
 N300 N 0.15919 0.51798 0.65647
 C301 C 0.11146 0.52142 0.63882
 C302 C 0.12766 0.54122 0.59772
 N303 N 0.18476 0.54913 0.59191
 H304 H 0.10239 0.55238 0.57488
 N305 N 0.32476 0.51078 0.88507
 N306 N 0.34835 0.49075 0.85563
 C307 C 0.41014 0.51877 0.86311
 C308 C 0.42384 0.55672 0.89771
 N309 N 0.36950 0.55041 0.91046
 H310 H 0.46884 0.58597 0.91226
 N311 N 0.18556 0.67483 0.88546
 N312 N 0.14193 0.65098 0.85591
 C313 C 0.10804 0.58916 0.86341
 C314 C 0.13223 0.57571 0.89815
 N315 N 0.18036 0.63024 0.91095
 H316 H 0.11646 0.53074 0.91270
 N317 N 0.46343 0.79952 0.87446
 N318 N 0.48076 0.84257 0.84470
 C319 C 0.47627 0.89032 0.86121
 C320 C 0.45521 0.87472 0.90214
 N321 N 0.44811 0.81817 0.90907
 H322 H 0.44263 0.89990 0.92407
 N323 N 0.67379 0.48937 0.88426
 N324 N 0.64991 0.50955 0.85506
 C325 C 0.58815 0.48130 0.86269
 C326 C 0.57477 0.44304 0.89711
 N327 N 0.62927 0.44941 0.90961
 H328 H 0.52989 0.41355 0.91170
 N329 N 0.81373 0.32517 0.88374
 N330 N 0.85773 0.34908 0.85447
 C331 C 0.89165 0.41086 0.86209
 C332 C 0.86708 0.42421 0.89662
 N333 N 0.81873 0.36969 0.90917
 H334 H 0.88295 0.46908 0.91132
 N335 N 0.50932 0.18383 0.88373
 N336 N 0.48900 0.13976 0.85447
 C337 C 0.51660 0.10582 0.86223
 C338 C 0.55464 0.13049 0.89683
 N339 N 0.54877 0.17892 0.90929
 H340 H 0.58363 0.11474 0.91157
   
