data_POSCAR
  _audit_creation_date              2014-09-24
  _audit_creation_method            'ToBaCCo'
  _symmetry_space_group_name_H-M    'P1'
  _symmetry_Int_Tables_number       1
  _symmetry_cell_setting            triclinic
  loop_
  _symmetry_equiv_pos_as_xyz
 x,y,z
_cell_length_a 42.0686
_cell_length_b 41.8606
_cell_length_c 41.8475
_cell_angle_alpha 89.995300
_cell_angle_beta 89.954000
_cell_angle_gamma 90.010000
loop_
  _atom_site_label
  _atom_site_type_symbol
  _atom_site_fract_x
  _atom_site_fract_y
  _atom_site_fract_z
C1 C 0.20177 0.52567 1.03916
 H2 H 0.20201 0.54415 1.02108
 C3 C 0.17981 0.52710 1.06411
 H4 H 0.16344 0.54704 1.06489
 C5 C 0.22253 0.47699 1.05902
 H6 H 0.23876 0.45716 1.05655
 C7 C 0.20085 0.47734 1.08436
 H8 H 0.20113 0.45776 1.10126
 N9 N 0.22262 0.50099 1.03711
 C10 C 0.29741 0.53820 0.97534
 H11 H 0.29733 0.52001 0.95697
 C12 C 0.31930 0.56319 0.97387
 H13 H 0.33589 0.56405 0.95410
 C14 C 0.27632 0.55832 1.02384
 H15 H 0.26000 0.55595 1.04363
 C16 C 0.29792 0.58371 1.02338
 H17 H 0.29764 0.60084 1.04276
 Zn18 Zn 0.24952 0.50005 1.00087
 N19 N 0.27641 0.53627 0.99995
 C20 C 0.22296 0.52300 0.94249
 N21 N 0.22276 0.49914 0.96457
 C22 C 0.20176 0.47455 0.96260
 C23 C 0.17999 0.47307 0.93752
 C24 C 0.20148 0.52253 0.91702
 C25 C 0.29720 0.46170 1.02646
 C26 C 0.31904 0.43666 1.02787
 C27 C 0.29775 0.41635 0.97827
 C28 C 0.27621 0.44177 0.97787
 N29 N 0.27629 0.46375 1.00181
 H30 H 0.23928 0.54276 0.94490
 H31 H 0.20177 0.45620 0.98081
 H32 H 0.16340 0.45332 0.93662
 H33 H 0.20184 0.54189 0.89986
 H34 H 0.29711 0.47983 1.04488
 H35 H 0.33558 0.43571 1.04765
 H36 H 0.29750 0.39929 0.95882
 H37 H 0.25996 0.44424 0.95806
 C38 C 0.31991 0.58630 0.99822
 C39 C 0.17884 0.50255 1.08713
 C40 C 0.31968 0.41364 1.00344
 C41 C 0.17950 0.49739 0.91437
 C42 C 0.79780 0.52571 -0.03789
 H43 H 0.79778 0.54404 -0.01966
 C44 C 0.81965 0.52715 -0.06293
 H45 H 0.83629 0.54687 -0.06379
 C46 C 0.77658 0.47731 -0.05805
 H47 H 0.76022 0.45757 -0.05566
 C48 C 0.79814 0.47774 -0.08348
 H49 H 0.79781 0.45839 -0.10064
 N50 N 0.77676 0.50115 -0.03595
 C51 C 0.70219 0.53840 0.02602
 H52 H 0.70223 0.52018 0.04436
 C53 C 0.68035 0.56343 0.02752
 H54 H 0.66375 0.56429 0.04728
 C55 C 0.72333 0.55856 -0.02245
 H56 H 0.73965 0.55618 -0.04224
 C57 C 0.70179 0.58398 -0.02197
 H58 H 0.70209 0.60113 -0.04133
 Zn59 Zn 0.74994 0.50017 0.00035
 N60 N 0.72318 0.53647 0.00140
 C61 C 0.77669 0.52288 0.05872
 N62 N 0.77678 0.49908 0.03659
 C63 C 0.79774 0.47446 0.03844
 C64 C 0.81959 0.47290 0.06345
 C65 C 0.79824 0.52234 0.08412
 C66 C 0.70204 0.46211 -0.02523
 C67 C 0.68016 0.43711 -0.02673
 C68 C 0.70159 0.41644 0.02267
 C69 C 0.72317 0.44183 0.02315
 N70 N 0.72306 0.46396 -0.00066
 H71 H 0.76039 0.54268 0.05640
 H72 H 0.79765 0.45615 0.02019
 H73 H 0.83616 0.45313 0.06425
 H74 H 0.79798 0.54166 0.10131
 H75 H 0.70211 0.48036 -0.04355
 H76 H 0.66355 0.43632 -0.04646
 H77 H 0.70188 0.39925 0.04199
 H78 H 0.73952 0.44414 0.04291
 C79 C 0.67978 0.58656 0.00319
 C80 C 0.82019 0.50284 -0.08607
 C81 C 0.67957 0.41393 -0.00245
 C82 C 0.82021 0.49717 0.08663
 C83 C -0.02562 0.29799 0.46120
 H84 H -0.04377 0.29799 0.47953
 C85 C -0.02716 0.31997 0.43619
 H86 H -0.04686 0.33660 0.43560
 C87 C 0.02239 0.27663 0.44075
 H88 H 0.04201 0.26015 0.44300
 C89 C 0.02191 0.29831 0.41535
 H90 H 0.04119 0.29777 0.39819
 N91 N -0.00121 0.27683 0.46298
 C92 C -0.03732 0.20146 0.52512
 H93 H -0.01873 0.20121 0.54297
 C94 C -0.06235 0.17968 0.52708
 H95 H -0.06282 0.16281 0.54669
 C96 C -0.05852 0.22338 0.47748
 H97 H -0.05660 0.24000 0.45784
 C98 C -0.08399 0.20195 0.47848
 H99 H -0.10159 0.20263 0.45963
 Zn100 Zn 0.00013 0.24983 0.49923
 N101 N -0.03592 0.22283 0.50070
 C102 C -0.02206 0.27623 0.55793
 N103 N 0.00141 0.27671 0.53555
 C104 C 0.02570 0.29805 0.53729
 C105 C 0.02724 0.31988 0.56244
 C106 C -0.02152 0.29774 0.58347
 C107 C 0.03779 0.20166 0.47326
 C108 C 0.06286 0.17993 0.47135
 C109 C 0.08430 0.20217 0.52005
 C110 C 0.05880 0.22354 0.52100
 N111 N 0.03626 0.22297 0.49771
 H112 H -0.04160 0.25965 0.55572
 H113 H 0.04373 0.29829 0.51885
 H114 H 0.04673 0.33675 0.56316
 H115 H -0.04058 0.29713 0.60086
 H116 H 0.01925 0.20140 0.45535
 H117 H 0.06342 0.16308 0.45173
 H118 H 0.10183 0.20285 0.53897
 H119 H 0.05678 0.24013 0.54066
 C120 C -0.08607 0.17961 0.50347
 C121 C -0.00301 0.32064 0.41284
 C122 C 0.08649 0.17985 0.49506
 C123 C 0.00331 0.32007 0.58588
 C124 C 0.97447 0.70234 0.53791
 H125 H 0.95646 0.70212 0.51947
 C126 C 0.97292 0.68046 0.56301
 H127 H 0.95345 0.66356 0.56370
 C128 C 1.02219 0.72416 0.55857
 H129 H 1.04172 0.74076 0.55638
 C130 C 1.02164 0.70260 0.58406
 H131 H 1.04068 0.70318 0.60144
 N132 N 0.99875 0.72370 0.53620
 C133 C 0.96265 0.79888 0.47393
 H134 H 0.98128 0.79917 0.45610
 C135 C 0.93761 0.82063 0.47198
 H136 H 0.93717 0.83752 0.45239
 C137 C 0.94138 0.77690 0.52154
 H138 H 0.94328 0.76026 0.54117
 C139 C 0.91589 0.79829 0.52055
 H140 H 0.89826 0.79758 0.53940
 Zn141 Zn 1.00013 0.75060 0.49989
 N142 N 0.96403 0.77750 0.49834
 C143 C 0.97813 0.72405 0.44124
 N144 N 1.00156 0.72365 0.46362
 C145 C 1.02586 0.70233 0.46196
 C146 C 1.02746 0.68041 0.43689
 C147 C 0.97873 0.70245 0.41577
 C148 C 1.03753 0.79898 0.52577
 C149 C 1.06256 0.82076 0.52772
 C150 C 1.08433 0.79837 0.47919
 C151 C 1.05886 0.77695 0.47822
 N152 N 1.03619 0.77756 0.50140
 H153 H 0.95858 0.74062 0.44339
 H154 H 1.04386 0.70216 0.48041
 H155 H 1.04695 0.66354 0.43624
 H156 H 0.95970 0.70298 0.39838
 H157 H 1.01889 0.79927 0.54360
 H158 H 1.06298 0.83767 0.54728
 H159 H 1.10198 0.79765 0.46037
 H160 H 1.05699 0.76028 0.45862
 C161 C 0.91385 0.82066 0.49559
 C162 C 0.99684 0.68023 0.58643
 C163 C 1.08634 0.82078 0.50412
 C164 C 1.00355 0.68012 0.41345
 C165 C 0.46255 -0.02664 0.29844
 H166 H 0.48109 -0.04455 0.29872
 C167 C 0.43747 -0.02850 0.32020
 H168 H 0.43691 -0.04808 0.33708
 C169 C 0.44155 0.02105 0.27648
 H170 H 0.44357 0.04068 0.25985
 C171 C 0.41604 0.02017 0.29787
 H172 H 0.39850 0.03908 0.29717
 N173 N 0.46408 -0.00224 0.27707
 C174 C 0.52599 -0.03885 0.20204
 H175 H 0.54413 -0.02053 0.20200
 C176 C 0.52752 -0.06386 0.18006
 H177 H 0.54722 -0.06447 0.16340
 C178 C 0.47799 -0.05925 0.22348
 H179 H 0.45837 -0.05698 0.23998
 C180 C 0.47846 -0.08465 0.20182
 H181 H 0.45919 -0.10179 0.20238
 Zn182 Zn 0.50022 -0.00077 0.25018
 N183 N 0.50159 -0.03704 0.22324
 C184 C 0.55890 -0.02244 0.27662
 N185 N 0.53626 0.00076 0.27716
 C186 C 0.53762 0.02518 0.29851
 C187 C 0.56264 0.02720 0.32027
 C188 C 0.58436 -0.02140 0.29803
 C189 C 0.47464 0.03720 0.20190
 C190 C 0.47306 0.06232 0.18005
 C191 C 0.52176 0.08342 0.20216
 C192 C 0.52235 0.05790 0.22369
 N193 N 0.49892 0.03550 0.22324
 H194 H 0.55700 -0.04209 0.26001
 H195 H 0.51900 0.04301 0.29875
 H196 H 0.56308 0.04681 0.33712
 H197 H 0.60199 -0.04022 0.29736
 H198 H 0.45663 0.01874 0.20169
 H199 H 0.45357 0.06300 0.16318
 H200 H 0.54079 0.10083 0.20274
 H201 H 0.54188 0.05573 0.24027
 C202 C 0.50338 -0.08718 0.17944
 C203 C 0.41384 -0.00478 0.32024
 C204 C 0.49694 0.08579 0.17983
 C205 C 0.58640 0.00361 0.32035
 C206 C 0.53751 -0.02594 0.70104
 H207 H 0.51891 -0.04379 0.70074
 C208 C 0.56258 -0.02786 0.67928
 H209 H 0.56308 -0.04744 0.66238
 C210 C 0.55868 0.02167 0.72303
 H211 H 0.55673 0.04128 0.73968
 C212 C 0.58419 0.02072 0.70164
 H213 H 0.60179 0.03957 0.70235
 N214 N 0.53607 -0.00155 0.72243
 C215 C 0.47421 -0.03798 0.79763
 H216 H 0.45620 -0.01953 0.79781
 C217 C 0.47262 -0.06305 0.81955
 H218 H 0.45312 -0.06371 0.83644
 C219 C 0.52196 -0.05869 0.77589
 H220 H 0.54152 -0.05653 0.75930
 C221 C 0.52137 -0.08415 0.79748
 H222 H 0.54042 -0.10153 0.79695
 Zn223 Zn 0.49994 -0.00004 0.74934
 N224 N 0.49852 -0.03631 0.77630
 C225 C 0.44122 -0.02167 0.72301
 N226 N 0.46389 0.00149 0.72239
 C227 C 0.46254 0.02587 0.70098
 C228 C 0.43750 0.02785 0.67924
 C229 C 0.41574 -0.02066 0.70162
 C230 C 0.52554 0.03796 0.79761
 C231 C 0.52708 0.06306 0.81949
 C232 C 0.47836 0.08411 0.79737
 C233 C 0.47782 0.05861 0.77581
 N234 N 0.50127 0.03625 0.77627
 H235 H 0.44309 -0.04128 0.73968
 H236 H 0.48118 0.04368 0.70068
 H237 H 0.43708 0.04742 0.66233
 H238 H 0.39809 -0.03947 0.70236
 H239 H 0.54356 0.01953 0.79783
 H240 H 0.54654 0.06376 0.83638
 H241 H 0.45931 0.10148 0.79679
 H242 H 0.45829 0.05642 0.75922
 C243 C 0.49654 -0.08648 0.81984
 C244 C 0.58630 -0.00423 0.67925
 C245 C 0.50315 0.08649 0.81972
 C246 C 0.41372 0.00428 0.67923
 Si247 Si 0.25005 0.00028 0.49981
 Si248 Si 0.75016 0.00014 0.49972
 Si249 Si 0.49971 0.25039 1.00007
 Si250 Si 0.49977 0.74987 0.00048
 Si251 Si 1.00029 0.49954 0.24978
 Si252 Si 0.00018 0.49989 0.75038
 C253 C 0.15864 0.11053 0.49382
 N254 N 0.13678 0.11188 0.47004
 N255 N 0.11419 0.13416 0.47024
 C256 C 0.11251 0.15597 0.49423
 N257 N 0.13459 0.15471 0.51789
 N258 N 0.15721 0.13242 0.51771
 C259 C 0.18245 0.08487 0.49437
 N260 N 0.20361 0.08252 0.51875
 N261 N 0.22405 0.05822 0.52000
 C262 C 0.22402 0.03550 0.49690
 N263 N 0.20307 0.03793 0.47243
 N264 N 0.18266 0.06221 0.47116
 C265 C 0.60990 0.65821 0.00358
 N266 N 0.63079 0.65593 -0.02105
 N267 N 0.65327 0.63348 -0.02101
 C268 C 0.65570 0.61243 0.00361
 N269 N 0.63486 0.61496 0.02830
 N270 N 0.61243 0.63738 0.02829
 C271 C 0.58415 0.68189 0.00315
 N272 N 0.56290 0.68305 0.02754
 N273 N 0.53867 0.70348 0.02677
 C274 C 0.53481 0.72350 0.00163
 N275 N 0.55609 0.72257 -0.02272
 N276 N 0.58038 0.70211 -0.02198
 C277 C 0.84171 -0.11001 0.49415
 N278 N 0.86365 -0.11138 0.47042
 N279 N 0.88625 -0.13365 0.47069
 C280 C 0.88784 -0.15544 0.49470
 N281 N 0.86567 -0.15417 0.51831
 N282 N 0.84305 -0.13188 0.51806
 C283 C 0.81789 -0.08437 0.49461
 N284 N 0.79664 -0.08199 0.51895
 N285 N 0.77618 -0.05770 0.52011
 C286 C 0.77626 -0.03504 0.49695
 N287 N 0.79729 -0.03750 0.47252
 N288 N 0.81773 -0.06176 0.47134
 C289 C 0.38956 0.34200 1.00357
 N290 N 0.36868 0.34435 0.97897
 N291 N 0.34620 0.36680 0.97909
 C292 C 0.34376 0.38778 1.00377
 N293 N 0.36459 0.38518 1.02843
 N294 N 0.38702 0.36276 1.02833
 C295 C 0.41532 0.31832 1.00305
 N296 N 0.43658 0.31713 1.02739
 N297 N 0.46082 0.29672 1.02653
 C298 C 0.46466 0.27673 1.00135
 N299 N 0.44336 0.27769 0.97705
 N300 N 0.41907 0.29815 0.97788
 C301 C 0.84171 0.11032 0.50508
 N302 N 0.86365 0.11172 0.52879
 N303 N 0.88627 0.13397 0.52846
 C304 C 0.88791 0.15572 0.50441
 N305 N 0.86575 0.15442 0.48081
 N306 N 0.84311 0.13214 0.48112
 C307 C 0.81787 0.08469 0.50469
 N308 N 0.79664 0.08227 0.48036
 N309 N 0.77616 0.05799 0.47926
 C310 C 0.77621 0.03536 0.50245
 N311 N 0.79722 0.03786 0.52686
 N312 N 0.81767 0.06212 0.52798
 C313 C 0.38979 0.65798 -0.00228
 N314 N 0.38727 0.63711 -0.02694
 N315 N 0.36485 0.61467 -0.02691
 C316 C 0.34401 0.61216 -0.00223
 N317 N 0.34643 0.63325 0.02236
 N318 N 0.36890 0.65572 0.02236
 C319 C 0.41552 0.68171 -0.00192
 N320 N 0.41925 0.70202 0.02313
 N321 N 0.44350 0.72254 0.02380
 C322 C 0.46478 0.72342 -0.00056
 N323 N 0.46096 0.70329 -0.02562
 N324 N 0.43676 0.68282 -0.02631
 C325 C 0.15848 -0.10987 0.50553
 N326 N 0.15718 -0.13179 0.48167
 N327 N 0.13456 -0.15409 0.48143
 C328 C 0.11234 -0.15531 0.50501
 N329 N 0.11389 -0.13347 0.52896
 N330 N 0.13648 -0.11119 0.52922
 C331 C 0.18230 -0.08422 0.50505
 N332 N 0.18242 -0.06155 0.52825
 N333 N 0.20286 -0.03729 0.52704
 C334 C 0.22394 -0.03489 0.50264
 N335 N 0.22406 -0.05762 0.47955
 N336 N 0.20359 -0.08190 0.48074
 C337 C 0.60969 0.34226 0.99708
 N338 N 0.61218 0.36320 0.97246
 N339 N 0.63460 0.38564 0.97247
 C340 C 0.65548 0.38807 0.99710
 N341 N 0.65309 0.36692 1.02165
 N342 N 0.63062 0.34445 1.02166
 C343 C 0.58396 0.31855 0.99748
 N344 N 0.58026 0.29820 1.02251
 N345 N 0.55601 0.27769 1.02323
 C346 C 0.53469 0.27684 0.99894
 N347 N 0.53848 0.29701 0.97389
 N348 N 0.56268 0.31747 0.97315
 C349 C 0.49635 0.15800 1.11015
 N350 N 0.52069 0.15582 1.13132
 N351 N 0.52070 0.13318 1.15373
 C352 C 0.49643 0.11182 1.15581
 N353 N 0.47204 0.11425 1.13470
 N354 N 0.47200 0.13686 1.11233
 C355 C 0.49678 0.18190 1.08446
 N356 N 0.47268 0.18303 1.06296
 N357 N 0.47349 0.20363 1.03874
 C358 C 0.49839 0.22387 1.03517
 N359 N 0.52244 0.22297 1.05672
 N360 N 0.52165 0.20233 1.08099
 C361 C -0.00349 0.61028 0.65839
 N362 N 0.02080 0.63152 0.65622
 N363 N 0.02073 0.65402 0.63367
 C364 C -0.00359 0.65612 0.61239
 N365 N -0.02795 0.63494 0.61481
 N366 N -0.02790 0.61249 0.63734
 C367 C -0.00298 0.58450 0.68218
 N368 N -0.02704 0.56293 0.68329
 N369 N -0.02615 0.53864 0.70380
 C370 C -0.00121 0.53505 0.72396
 N371 N 0.02281 0.55666 0.72308
 N372 N 0.02194 0.58100 0.70253
 C373 C 0.49609 0.84165 -0.11011
 N374 N 0.52040 0.84376 -0.13136
 N375 N 0.52036 0.86628 -0.15389
 C376 C 0.49606 0.88759 -0.15601
 N377 N 0.47169 0.88523 -0.13483
 N378 N 0.47170 0.86274 -0.11234
 C379 C 0.49658 0.81790 -0.08429
 N380 N 0.47252 0.81684 -0.06269
 N381 N 0.47341 0.79638 -0.03837
 C382 C 0.49834 0.77621 -0.03476
 N383 N 0.52236 0.77703 -0.05640
 N384 N 0.52149 0.79753 -0.08078
 C385 C 0.99664 0.38939 0.34209
 N386 N 0.97261 0.38766 0.36365
 N387 N 0.97259 0.36525 0.38622
 C388 C 0.99658 0.34359 0.38823
 N389 N 1.02049 0.34524 0.36636
 N390 N 1.02055 0.36770 0.34377
 C391 C 0.99715 0.41511 0.31822
 N392 N 1.02187 0.41834 0.29755
 N393 N 1.02275 0.44264 0.27694
 C394 C 0.99891 0.46445 0.27631
 N395 N 0.97416 0.46112 0.29678
 N396 N 0.97327 0.43689 0.31736
 C397 C 0.50364 0.84211 0.11067
 N398 N 0.47975 0.84381 0.13240
 N399 N 0.47984 0.86638 0.15488
 C400 C 0.50376 0.88822 0.15648
 N401 N 0.52773 0.88619 0.13477
 N402 N 0.52768 0.86363 0.11235
 C403 C 0.50309 0.81827 0.08492
 N404 N 0.52694 0.81737 0.06309
 N405 N 0.52601 0.79681 0.03885
 C406 C 0.50123 0.77639 0.03557
 N407 N 0.47741 0.77705 0.05744
 N408 N 0.47833 0.79765 0.08174
 C409 C 0.00375 0.38974 0.65811
 N410 N -0.02059 0.36856 0.65589
 N411 N -0.02056 0.34616 0.63325
 C412 C 0.00377 0.34409 0.61193
 N413 N 0.02817 0.36520 0.61440
 N414 N 0.02817 0.38756 0.63702
 C415 C 0.00328 0.41543 0.68200
 N416 N 0.02738 0.43695 0.68316
 N417 N 0.02652 0.46117 0.70374
 C418 C 0.00157 0.46475 0.72392
 N419 N -0.02249 0.44320 0.72299
 N420 N -0.02165 0.41892 0.70238
 C421 C 0.50347 0.15849 0.88961
 N422 N 0.47916 0.15629 0.86842
 N423 N 0.47923 0.13372 0.84594
 C424 C 0.50358 0.11246 0.84381
 N425 N 0.52795 0.11491 0.86494
 N426 N 0.52790 0.13745 0.88738
 C427 C 0.50294 0.18229 0.91539
 N428 N 0.52703 0.18343 0.93691
 N429 N 0.52612 0.20392 0.96121
 C430 C 0.50115 0.22404 0.96486
 N431 N 0.47710 0.22313 0.94329
 N432 N 0.47799 0.20260 0.91894
 C433 C 1.00400 0.61009 0.34158
 N434 N 0.97969 0.63130 0.34370
 N435 N 0.97973 0.65382 0.36623
 C436 C 1.00403 0.65598 0.38752
 N437 N 1.02840 0.63483 0.38515
 N438 N 1.02839 0.61234 0.36265
 C439 C 1.00350 0.58427 0.31783
 N440 N 1.02757 0.56272 0.31674
 N441 N 1.02668 0.53840 0.29627
 C442 C 1.00173 0.53476 0.27613
 N443 N 0.97770 0.55635 0.27699
 N444 N 0.97858 0.58073 0.29750
 C445 C 1.11012 0.50278 0.15763
 N446 N 1.13149 0.47856 0.15576
 N447 N 1.15394 0.47865 0.13325
 C448 C 1.15589 0.50289 0.11165
 N449 N 1.13455 0.52717 0.11386
 N450 N 1.11215 0.52712 0.13634
 C451 C 1.08443 0.50230 0.18141
 N452 N 1.06294 0.52645 0.18238
 N453 N 1.03878 0.52566 0.20291
 C454 C 1.03523 0.50072 0.22324
 N455 N 1.05675 0.47659 0.22251
 N456 N 1.08097 0.47737 0.20194
 C457 C 0.65854 -0.00557 0.60993
 N458 N 0.65712 0.01834 0.63180
 N459 N 0.63447 0.01855 0.65409
 C460 C 0.61234 -0.00509 0.65536
 N461 N 0.61401 -0.02908 0.63357
 N462 N 0.63664 -0.02932 0.61129
 C463 C 0.68239 -0.00508 0.58428
 N464 N 0.68262 -0.02833 0.56167
 N465 N 0.70308 -0.02712 0.53740
 C466 C 0.72406 -0.00267 0.53493
 N467 N 0.72407 0.02048 0.55760
 N468 N 0.70359 0.01929 0.58189
 C469 C -0.10992 0.50311 0.84219
 N470 N -0.11241 0.52780 0.86304
 N471 N -0.13484 0.52784 0.88550
 C472 C -0.15572 0.50322 0.88804
 N473 N -0.15334 0.47861 0.86696
 N474 N -0.13086 0.47853 0.84448
 C475 C -0.08418 0.50264 0.81847
 N476 N -0.08046 0.47754 0.79822
 N477 N -0.05618 0.47677 0.77772
 C478 C -0.03486 0.50107 0.77679
 N479 N -0.03866 0.52618 0.79686
 N480 N -0.06289 0.52698 0.81732
 C481 C 0.34165 -0.00585 0.38962
 N482 N 0.34310 0.01799 0.36768
 N483 N 0.36573 0.01812 0.34537
 C484 C 0.38782 -0.00555 0.34415
 N485 N 0.38612 -0.02949 0.36601
 N486 N 0.36351 -0.02964 0.38830
 C487 C 0.31783 -0.00525 0.41528
 N488 N 0.31758 -0.02842 0.43798
 N489 N 0.29713 -0.02712 0.46225
 C490 C 0.27617 -0.00265 0.46463
 N491 N 0.27617 0.02043 0.44188
 N492 N 0.29665 0.01914 0.41758
 C493 C 0.10996 0.49690 0.84241
 N494 N 0.13081 0.52153 0.84476
 N495 N 0.15318 0.52154 0.86731
 C496 C 0.15552 0.49694 0.88841
 N497 N 0.13473 0.47225 0.88581
 N498 N 0.11241 0.47223 0.86329
 C499 C 0.08432 0.49728 0.81861
 N500 N 0.06310 0.47289 0.81741
 N501 N 0.03895 0.47363 0.79690
 C502 C 0.03516 0.49873 0.77681
 N503 N 0.05642 0.52308 0.77778
 N504 N 0.08062 0.52237 0.79834
 C505 C 0.65860 0.00536 0.38959
 N506 N 0.63662 0.02903 0.38819
 N507 N 0.61401 0.02866 0.36595
 C508 C 0.61242 0.00460 0.34422
 N509 N 0.63462 -0.01896 0.34552
 N510 N 0.65726 -0.01861 0.36778
 C511 C 0.68244 0.00501 0.41520
 N512 N 0.70372 -0.01928 0.41761
 N513 N 0.72419 -0.02036 0.44188
 C514 C 0.72410 0.00284 0.46451
 N515 N 0.70304 0.02721 0.46202
 N516 N 0.68259 0.02830 0.43777
 C517 C 0.89009 0.49656 0.15826
 N518 N 0.86923 0.52119 0.15605
 N519 N 0.84675 0.52123 0.13361
 C520 C 0.84429 0.49667 0.11249
 N521 N 0.86510 0.47197 0.11495
 N522 N 0.88753 0.47192 0.13737
 C523 C 0.91584 0.49693 0.18193
 N524 N 0.93707 0.47255 0.18302
 N525 N 0.96132 0.47328 0.20342
 C526 C 0.96520 0.49837 0.22349
 N527 N 0.94394 0.52271 0.22264
 N528 N 0.91964 0.52200 0.20220
 C529 C 0.34152 0.00586 0.60999
 N530 N 0.36352 0.02953 0.61131
 N531 N 0.38613 0.02922 0.63355
 C532 C 0.38770 0.00522 0.65536
 N533 N 0.36548 -0.01833 0.65414
 N534 N 0.34284 -0.01804 0.63188
 C535 C 0.31769 0.00543 0.58437
 N536 N 0.29641 -0.01886 0.58202
 N537 N 0.27595 -0.02001 0.55774
 C538 C 0.27607 0.00310 0.53503
 N539 N 0.29714 0.02748 0.53745
 N540 N 0.31757 0.02866 0.56171
   
