data_POSCAR
  _audit_creation_date              2014-09-24
  _audit_creation_method            'ToBaCCo'
  _symmetry_space_group_name_H-M    'P1'
  _symmetry_Int_Tables_number       1
  _symmetry_cell_setting            triclinic
  loop_
  _symmetry_equiv_pos_as_xyz
 x,y,z
_cell_length_a 58.1441
_cell_length_b 58.2074
_cell_length_c 20.3264
_cell_angle_alpha 89.935700
_cell_angle_beta 90.057400
_cell_angle_gamma 123.073700
loop_
  _atom_site_label
  _atom_site_type_symbol
  _atom_site_fract_x
  _atom_site_fract_y
  _atom_site_fract_z
C1 C 0.16303 0.45174 0.49459
 C2 C 0.17436 0.44993 0.43538
 C3 C 0.19308 0.44178 0.43785
 C4 C 0.20014 0.43506 0.49832
 C5 C 0.18569 0.43393 0.55555
 C6 C 0.16830 0.44376 0.55504
 C7 C 0.22474 0.43288 0.50314
 C8 C 0.23922 0.43863 0.56324
 C9 C 0.26434 0.44081 0.56625
 C10 C 0.27585 0.43817 0.50888
 C11 C 0.26194 0.43186 0.44850
 C12 C 0.23595 0.42827 0.44665
 H13 H 0.14789 0.45710 0.49287
 H14 H 0.20359 0.44299 0.39295
 H15 H 0.18943 0.42736 0.60172
 H16 H 0.23221 0.44307 0.60768
 H17 H 0.29615 0.44173 0.51170
 H18 H 0.22489 0.42237 0.40063
 C19 C 0.53767 -0.29667 0.52478
 C20 C 0.52954 -0.29248 0.46282
 C21 C 0.52272 -0.27259 0.45839
 C22 C 0.52512 -0.25652 0.51329
 C23 C 0.53405 -0.26106 0.57353
 C24 C 0.53928 -0.28174 0.58076
 C25 C 0.51809 -0.23522 0.50911
 C26 C 0.51021 -0.22744 0.56641
 C27 C 0.50598 -0.20599 0.56540
 C28 C 0.50747 -0.19347 0.50547
 C29 C 0.51365 -0.20167 0.44680
 C30 C 0.51974 -0.22199 0.44917
 H31 H 0.53962 -0.31395 0.53153
 H32 H 0.51596 -0.26925 0.41207
 H33 H 0.53771 -0.24804 0.61534
 H34 H 0.50734 -0.23785 0.61269
 H35 H 0.50486 -0.17641 0.50488
 H36 H 0.52589 -0.22714 0.40432
 C37 C 1.27280 0.86502 0.53473
 C38 C 1.26339 0.86012 0.46922
 C39 C 1.23657 0.83725 0.45678
 C40 C 1.22149 0.81742 0.50641
 C41 C 1.23362 0.82155 0.56920
 C42 C 1.25865 0.84558 0.58378
 C43 C 1.19480 0.79099 0.49191
 C44 C 1.17650 0.77561 0.54382
 C45 C 1.15506 0.74800 0.53493
 C46 C 1.14957 0.73733 0.47077
 C47 C 1.16586 0.75289 0.41759
 C48 C 1.18876 0.77940 0.42818
 H49 H 1.29223 0.88347 0.54766
 H50 H 1.22830 0.83379 0.40765
 H51 H 1.22436 0.80589 0.60681
 H52 H 1.18041 0.78434 0.59255
 H53 H 1.13219 0.71670 0.46140
 H54 H 1.20228 0.79002 0.38709
 C55 C 0.84788 0.56937 0.50564
 C56 C 0.83921 0.57297 0.44464
 C57 C 0.81613 0.57469 0.44113
 C58 C 0.79986 0.57008 0.49761
 C59 C 0.80918 0.56639 0.55880
 C60 C 0.83328 0.56649 0.56282
 C61 C 0.77205 0.56610 0.49158
 C62 C 0.75829 0.56750 0.54750
 C63 C 0.73042 0.55887 0.54444
 C64 C 0.71748 0.55189 0.48259
 C65 C 0.73103 0.55192 0.42600
 C66 C 0.75792 0.55842 0.43070
 H67 H 0.86579 0.56809 0.50837
 H68 H 0.81046 0.57822 0.39340
 H69 H 0.79730 0.56183 0.60326
 H70 H 0.76864 0.57372 0.59432
 H71 H 0.69686 0.54737 0.47734
 H72 H 0.76695 0.55627 0.38669
 C73 C 0.44851 0.28152 0.47154
 C74 C 0.44988 0.26793 0.41679
 C75 C 0.45518 0.24751 0.42566
 C76 C 0.46232 0.24244 0.48791
 C77 C 0.46171 0.25712 0.54273
 C78 C 0.45485 0.27692 0.53532
 C79 C 0.47231 0.22345 0.49338
 C80 C 0.47122 0.21039 0.55324
 C81 C 0.48116 0.19297 0.55718
 C82 C 0.48970 0.18688 0.49849
 C83 C 0.49040 0.19902 0.43867
 C84 C 0.48320 0.21829 0.43738
 H85 H 0.44292 0.29622 0.46318
 H86 H 0.45446 0.23634 0.38245
 H87 H 0.46860 0.25475 0.59009
 H88 H 0.46340 0.21438 0.59690
 H89 H 0.49409 0.17105 0.49807
 H90 H 0.48615 0.22899 0.39161
 C91 C 0.73258 0.13942 0.48255
 C92 C 0.74491 0.15726 0.42960
 C93 C 0.76952 0.18253 0.43906
 C94 C 0.78292 0.18994 0.50091
 C95 C 0.76982 0.17144 0.55413
 C96 C 0.74401 0.14697 0.54559
 C97 C 0.80811 0.21832 0.51048
 C98 C 0.81509 0.23121 0.57295
 C99 C 0.83461 0.25955 0.57888
 C100 C 0.84745 0.27491 0.52184
 C101 C 0.84239 0.26239 0.46030
 C102 C 0.82363 0.23404 0.45535
 H103 H 0.71250 0.12074 0.47600
 H104 H 0.77700 0.19673 0.39828
 H105 H 0.77843 0.17646 0.60308
 H106 H 0.80395 0.22014 0.61658
 H107 H 0.86266 0.29674 0.52557
 H108 H 0.82043 0.22472 0.40744
 N109 N 0.97384 0.53187 0.06979
 N110 N 0.95426 0.53625 0.08331
 N111 N 1.03244 0.54835 0.10844
 N112 N 1.05351 0.56319 0.14777
 N113 N 1.03148 0.56372 0.06259
 N114 N 1.05180 0.58967 0.07030
 N115 N 0.97477 0.51632 0.11511
 N116 N 0.95578 0.50939 0.16002
 C117 C 0.94303 0.52178 0.13957
 C118 C 1.06550 0.58887 0.12351
 N119 N 1.03302 0.48240 0.07268
 N120 N 1.05341 0.47912 0.08587
 N121 N 0.97562 0.46752 0.12106
 N122 N 0.95724 0.45446 0.16772
 N123 N 0.97531 0.45009 0.07951
 N124 N 0.95679 0.42457 0.09742
 N125 N 1.03321 0.49972 0.11437
 N126 N 1.05364 0.50886 0.15613
 Mn127 Mn 1.00397 0.50797 0.11522
 C128 C 1.06627 0.49613 0.13792
 C129 C 0.94549 0.42772 0.15227
 N130 N 1.02829 0.56015 -0.08019
 N131 N 1.04531 0.58551 -0.10193
 N132 N 0.96999 0.51049 -0.11390
 N133 N 0.94958 0.50176 -0.15574
 N134 N 0.97068 0.52811 -0.07239
 N135 N 0.95076 0.53205 -0.08555
 N136 N 1.02753 0.54242 -0.12145
 N137 N 1.04406 0.55505 -0.17141
 Mn138 Mn 1.00110 0.54633 -0.00501
 C139 C 1.05534 0.58188 -0.15860
 C140 C 0.93758 0.51513 -0.13740
 N141 N 0.97203 0.44644 -0.06292
 N142 N 0.95137 0.42056 -0.07078
 N143 N 1.02848 0.49395 -0.11538
 N144 N 1.04755 0.50138 -0.16024
 N145 N 1.02991 0.47867 -0.07012
 N146 N 1.05000 0.47502 -0.08374
 N147 N 0.97101 0.46204 -0.10795
 N148 N 0.94981 0.44757 -0.14686
 Mn149 Mn 1.00260 0.46402 0.00481
 Mn150 Mn 0.99924 0.50218 -0.11497
 Cl151 Cl 1.00175 0.50514 0.00004
 C152 C 0.93758 0.42180 -0.12340
 C153 C 1.06094 0.48963 -0.14007
 N154 N 0.45963 0.43394 0.03806
 N155 N 0.44539 0.40688 0.04145
 N156 N 0.45832 0.47825 0.11730
 N157 N 0.44551 0.47613 0.17268
 N158 N 0.44071 0.46779 0.06820
 N159 N 0.41560 0.45862 0.08933
 N160 N 0.47768 0.44475 0.08606
 N161 N 0.47658 0.42535 0.12222
 C162 C 0.45681 0.40190 0.09300
 C163 C 0.41907 0.46451 0.15439
 N164 N 0.53341 0.54377 0.09401
 N165 N 0.54313 0.56841 0.11852
 N166 N 0.53326 0.49045 0.10230
 N167 N 0.54369 0.48012 0.14074
 N168 N 0.55235 0.50969 0.06440
 N169 N 0.57638 0.51315 0.07688
 N170 N 0.51444 0.52474 0.13269
 N171 N 0.51086 0.53596 0.18486
 Mn172 Mn 0.49596 0.48458 0.11005
 C173 C 0.52870 0.56318 0.17479
 C174 C 0.57052 0.49414 0.12385
 N175 N 0.44290 0.48139 -0.06995
 N176 N 0.41877 0.47757 -0.08336
 N177 N 0.48093 0.46740 -0.13817
 N178 N 0.48505 0.45734 -0.19142
 N179 N 0.46255 0.44765 -0.10008
 N180 N 0.45379 0.42339 -0.12653
 N181 N 0.46212 0.50125 -0.10638
 N182 N 0.45169 0.51154 -0.14487
 Mn183 Mn 0.45119 0.45748 -0.01615
 C184 C 0.42471 0.49695 -0.12944
 C185 C 0.46815 0.42994 -0.18373
 N186 N 0.55431 0.52296 -0.07383
 N187 N 0.57740 0.52524 -0.09135
 N188 N 0.51778 0.54676 -0.09033
 N189 N 0.51961 0.56617 -0.12782
 N190 N 0.53617 0.55750 -0.04312
 N191 N 0.55120 0.58454 -0.04814
 N192 N 0.53634 0.51246 -0.12190
 N193 N 0.54641 0.50689 -0.17286
 Mn194 Mn 0.54435 0.53366 0.01054
 Mn195 Mn 0.49926 0.50704 -0.11444
 Cl196 Cl 0.49763 0.49568 -0.00235
 C197 C 0.57195 0.51487 -0.15332
 C198 C 0.53993 0.58961 -0.09987
 N199 N 0.45788 -0.00874 0.10159
 N200 N 0.43323 -0.02114 0.12878
 N201 N 0.51750 0.04265 0.11226
 N202 N 0.53114 0.06345 0.15317
 N203 N 0.50073 0.04573 0.07566
 N204 N 0.50249 0.06869 0.09117
 N205 N 0.47468 -0.01160 0.13855
 N206 N 0.46207 -0.02586 0.19174
 C207 C 0.43620 -0.03186 0.18501
 C208 C 0.52195 0.07980 0.13884
 N209 N 0.56207 0.01595 0.04282
 N210 N 0.58900 0.02787 0.04328
 N211 N 0.51127 -0.02967 0.11826
 N212 N 0.50173 -0.04772 0.16649
 N213 N 0.51916 -0.03820 0.06863
 N214 N 0.51563 -0.06215 0.08232
 N215 N 0.55434 0.02489 0.09185
 N216 N 0.57576 0.04349 0.12607
 Mn217 Mn 0.51454 0.00661 0.11570
 C218 C 0.59724 0.04540 0.09479
 C219 C 0.50459 -0.06782 0.14354
 N220 N 0.48666 0.03736 -0.06269
 N221 N 0.48938 0.06090 -0.07711
 N222 N 0.45148 -0.02570 -0.08578
 N223 N 0.42989 -0.04441 -0.11950
 N224 N 0.44390 -0.01679 -0.03635
 N225 N 0.41698 -0.02884 -0.03586
 N226 N 0.49452 0.02883 -0.11234
 N227 N 0.50322 0.04646 -0.16135
 Mn228 Mn 0.47210 0.01449 0.01964
 C229 C 0.49997 0.06636 -0.13879
 C230 C 0.40851 -0.04640 -0.08731
 N231 N 0.50528 -0.04644 -0.07005
 N232 N 0.50324 -0.06956 -0.08548
 N233 N 0.53138 0.01111 -0.13226
 N234 N 0.54487 0.02848 -0.18050
 N235 N 0.54816 0.00817 -0.09535
 N236 N 0.57360 0.02351 -0.11779
 N237 N 0.48847 -0.04330 -0.10629
 N238 N 0.47449 -0.06419 -0.14671
 Mn239 Mn 0.53387 -0.01526 -0.01363
 Mn240 Mn 0.49138 -0.00733 -0.10971
 Cl241 Cl 0.50297 -0.00038 0.00301
 C242 C 0.48354 -0.08066 -0.13266
 C243 C 0.57114 0.03601 -0.17123
 C244 C 1.16129 0.47696 0.37265
 C245 C 1.14861 0.47999 0.31789
 C246 C 1.14058 0.46177 0.26427
 C247 C 1.14793 0.44243 0.26405
 C248 C 1.16123 0.43990 0.31860
 C249 C 1.16651 0.45603 0.37527
 C250 C 1.12456 0.46263 0.21342
 C251 C 1.11669 0.48161 0.21602
 C252 C 1.12683 0.50116 0.26750
 C253 C 1.14274 0.50028 0.31774
 C254 C 1.11987 0.52061 0.26995
 C255 C 1.10143 0.51963 0.22476
 C256 C 1.08942 0.49913 0.17620
 C257 C 1.09795 0.48075 0.17021
 H258 H 1.16669 0.49073 0.41409
 H259 H 1.14249 0.42859 0.22283
 H260 H 1.16516 0.42372 0.31837
 H261 H 1.11740 0.44795 0.17346
 H262 H 1.14950 0.51464 0.35838
 H263 H 1.12786 0.53598 0.30842
 H264 H 1.09571 0.53441 0.22969
 H265 H 1.08901 0.46503 0.13256
 C266 C 0.54227 0.67849 0.40626
 C267 C 0.53753 0.65922 0.35796
 C268 C 0.51799 0.65266 0.30811
 C269 C 0.50386 0.66594 0.30707
 C270 C 0.50818 0.68468 0.35647
 C271 C 0.52691 0.69076 0.40835
 C272 C 0.51265 0.63267 0.26090
 C273 C 0.52635 0.61889 0.26391
 C274 C 0.54600 0.62566 0.31397
 C275 C 0.55167 0.64597 0.36008
 C276 C 0.55949 0.61177 0.31765
 C277 C 0.55352 0.59123 0.27235
 C278 C 0.53412 0.58439 0.22267
 C279 C 0.52062 0.59828 0.21818
 H280 H 0.55826 0.68390 0.44205
 H281 H 0.48880 0.66121 0.26910
 H282 H 0.49545 0.69294 0.35537
 H283 H 0.49757 0.62754 0.22264
 H284 H 0.56666 0.65101 0.39856
 H285 H 0.57457 0.61671 0.35572
 H286 H 0.56412 0.58069 0.27585
 H287 H 0.50568 0.59296 0.17944
 C288 C 0.31025 -0.11286 0.42606
 C289 C 0.32913 -0.09848 0.37583
 C290 C 0.32023 -0.09451 0.31487
 C291 C 0.29212 -0.10547 0.30551
 C292 C 0.27313 -0.12033 0.35596
 C293 C 0.28192 -0.12402 0.41763
 C294 C 0.33956 -0.08008 0.26448
 C295 C 0.36749 -0.07013 0.27460
 C296 C 0.37593 -0.07470 0.33589
 C297 C 0.35681 -0.08860 0.38596
 C298 C 0.40342 -0.06549 0.34642
 C299 C 0.42263 -0.05182 0.29680
 C300 C 0.41487 -0.04677 0.23575
 C301 C 0.38719 -0.05592 0.22476
 H302 H 0.31787 -0.11671 0.47059
 H303 H 0.28479 -0.10272 0.25902
 H304 H 0.25175 -0.12813 0.34685
 H305 H 0.33287 -0.07688 0.21749
 H306 H 0.36348 -0.09193 0.43286
 H307 H 0.41008 -0.06896 0.39310
 H308 H 0.44375 -0.04498 0.30662
 H309 H 0.38102 -0.05222 0.17767
 C310 C 0.85254 0.54715 0.37547
 C311 C 0.86685 0.54522 0.32286
 C312 C 0.88096 0.56720 0.27792
 C313 C 0.87947 0.59038 0.28536
 C314 C 0.86507 0.59213 0.33839
 C315 C 0.85215 0.57080 0.38455
 C316 C 0.89694 0.56591 0.22789
 C317 C 0.89930 0.54314 0.22344
 C318 C 0.88438 0.52092 0.26761
 C319 C 0.86802 0.52197 0.31630
 C320 C 0.88692 0.49840 0.26440
 C321 C 0.90525 0.49844 0.22039
 C322 C 0.92097 0.52072 0.17786
 C323 C 0.91728 0.54268 0.17785
 H324 H 0.84223 0.53050 0.41073
 H325 H 0.88997 0.60738 0.25121
 H326 H 0.86477 0.61045 0.34465
 H327 H 0.90826 0.58296 0.19411
 H328 H 0.85704 0.50511 0.35080
 H329 H 0.87550 0.48119 0.29766
 H330 H 0.90766 0.48125 0.22075
 H331 H 0.92952 0.56000 0.14539
 C332 C 0.43217 0.28535 0.33017
 C333 C 0.43766 0.30231 0.27529
 C334 C 0.46260 0.31313 0.24053
 C335 C 0.48044 0.30494 0.25752
 C336 C 0.47479 0.28802 0.31189
 C337 C 0.45128 0.27909 0.35032
 C338 C 0.47007 0.33312 0.19195
 C339 C 0.45296 0.34251 0.17785
 C340 C 0.42698 0.33007 0.20856
 C341 C 0.41947 0.30999 0.25710
 C342 C 0.40959 0.33899 0.19260
 C343 C 0.41863 0.36125 0.15017
 C344 C 0.44520 0.37499 0.12386
 C345 C 0.46204 0.36514 0.13626
 H346 H 0.41392 0.27837 0.35948
 H347 H 0.49946 0.31276 0.23088
 H348 H 0.48986 0.28357 0.32678
 H349 H 0.48975 0.34228 0.16742
 H350 H 0.40009 0.30134 0.28280
 H351 H 0.38950 0.32952 0.21504
 H352 H 0.40555 0.36886 0.14127
 H353 H 0.48260 0.37587 0.11587
 C354 C 0.72263 0.12886 0.32933
 C355 C 0.70300 0.12007 0.27904
 C356 C 0.68945 0.13391 0.26880
 C357 C 0.69721 0.15745 0.30549
 C358 C 0.71693 0.16618 0.35493
 C359 C 0.72904 0.15145 0.36850
 C360 C 0.66746 0.12324 0.22457
 C361 C 0.65876 0.09886 0.19066
 C362 C 0.67359 0.08616 0.19695
 C363 C 0.69567 0.09688 0.24115
 C364 C 0.66517 0.06217 0.16126
 C365 C 0.64121 0.04987 0.12337
 C366 C 0.62527 0.06123 0.12147
 C367 C 0.63460 0.08619 0.15330
 H368 H 0.73199 0.11748 0.34012
 H369 H 0.68723 0.16843 0.29781
 H370 H 0.72160 0.18353 0.38521
 H371 H 0.65636 0.13323 0.21875
 H372 H 0.70636 0.08653 0.24806
 H373 H 0.67647 0.05234 0.16479
 H374 H 0.63422 0.03057 0.09909
 H375 H 0.62237 0.09508 0.15135
 C376 C 0.50152 0.17379 -0.37452
 C377 C 0.50027 0.15795 -0.32126
 C378 C 0.47976 0.14947 -0.27298
 C379 C 0.46159 0.15822 -0.27772
 C380 C 0.46265 0.17374 -0.33196
 C381 C 0.48188 0.18070 -0.38295
 C382 C 0.47729 0.13171 -0.22237
 C383 C 0.49461 0.12178 -0.22115
 C384 C 0.51554 0.13102 -0.26904
 C385 C 0.51859 0.14945 -0.31774
 C386 C 0.53235 0.12068 -0.26962
 C387 C 0.52763 0.10026 -0.22544
 C388 C 0.50654 0.09034 -0.17872
 C389 C 0.49060 0.10178 -0.17516
 H390 H 0.51788 0.18046 -0.41005
 H391 H 0.44583 0.15216 -0.24083
 H392 H 0.44712 0.17848 -0.33557
 H393 H 0.46123 0.12473 -0.18581
 H394 H 0.53436 0.15607 -0.35499
 H395 H 0.54848 0.12762 -0.30594
 H396 H 0.54020 0.09180 -0.22858
 H397 H 0.47413 0.09396 -0.13948
 C398 C 0.68677 0.53574 -0.39603
 C399 C 0.67060 0.53357 -0.34262
 C400 C 0.68253 0.55189 -0.28926
 C401 C 0.71093 0.57146 -0.28948
 C402 C 0.72710 0.57346 -0.34317
 C403 C 0.71508 0.55620 -0.39845
 C404 C 0.66574 0.55059 -0.23757
 C405 C 0.63719 0.53135 -0.23951
 C406 C 0.62567 0.51253 -0.29243
 C407 C 0.64245 0.51358 -0.34302
 C408 C 0.59732 0.49350 -0.29545
 C409 C 0.58022 0.49387 -0.24834
 C410 C 0.59112 0.51295 -0.19668
 C411 C 0.61974 0.53117 -0.19113
 H412 H 0.67708 0.52089 -0.43543
 H413 H 0.72057 0.58562 -0.24879
 H414 H 0.74868 0.58960 -0.34250
 H415 H 0.67474 0.56497 -0.19703
 H416 H 0.63341 0.49939 -0.38398
 H417 H 0.58827 0.47889 -0.33548
 H418 H 0.55826 0.47950 -0.25312
 H419 H 0.62823 0.54601 -0.15150
 C420 C 0.84466 0.29877 -0.35490
 C421 C 0.85643 0.31505 -0.29901
 C422 C 0.86591 0.30609 -0.24728
 C423 C 0.86037 0.27937 -0.24945
 C424 C 0.84756 0.26269 -0.30478
 C425 C 0.84130 0.27303 -0.35986
 C426 C 0.88169 0.32443 -0.19625
 C427 C 0.88770 0.35139 -0.19672
 C428 C 0.87562 0.35897 -0.24550
 C429 C 0.86010 0.34080 -0.29606
 C430 C 0.88051 0.38525 -0.24550
 C431 C 0.89917 0.40480 -0.20151
 C432 C 0.91347 0.39858 -0.15676
 C433 C 0.90668 0.37141 -0.15206
 H434 H 0.83863 0.30646 -0.39562
 H435 H 0.86685 0.27178 -0.20961
 H436 H 0.84492 0.24279 -0.30675
 H437 H 0.89022 0.31815 -0.15814
 H438 H 0.85206 0.34726 -0.33504
 H439 H 0.87091 0.39112 -0.28168
 H440 H 0.90349 0.42538 -0.20502
 H441 H 0.91741 0.36637 -0.11724
 C442 C 0.48338 -0.18703 -0.36941
 C443 C 0.48336 -0.17196 -0.31560
 C444 C 0.50231 -0.16492 -0.26371
 C445 C 0.51998 -0.17430 -0.26502
 C446 C 0.52004 -0.18907 -0.31912
 C447 C 0.50236 -0.19482 -0.37266
 C448 C 0.50413 -0.14763 -0.21300
 C449 C 0.48766 -0.13683 -0.21441
 C450 C 0.46789 -0.14490 -0.26487
 C451 C 0.46565 -0.16266 -0.31464
 C452 C 0.45151 -0.13407 -0.26650
 C453 C 0.45578 -0.11416 -0.22108
 C454 C 0.47634 -0.10486 -0.17285
 C455 C 0.49156 -0.11702 -0.16822
 H456 H 0.46943 -0.19170 -0.41014
 H457 H 0.53452 -0.16926 -0.22551
 H458 H 0.53494 -0.19475 -0.32063
 H459 H 0.51918 -0.14163 -0.17415
 H460 H 0.45098 -0.16822 -0.35422
 H461 H 0.43611 -0.14021 -0.30444
 H462 H 0.44359 -0.10531 -0.22524
 H463 H 0.50741 -0.11004 -0.13109
 C464 C 0.30630 0.47020 -0.36647
 C465 C 0.32281 0.47376 -0.31217
 C466 C 0.31241 0.45375 -0.26178
 C467 C 0.28505 0.43134 -0.26487
 C468 C 0.26871 0.42796 -0.31929
 C469 C 0.27955 0.44690 -0.37124
 C470 C 0.32988 0.45587 -0.21095
 C471 C 0.35766 0.47750 -0.21067
 C472 C 0.36751 0.49820 -0.25935
 C473 C 0.34997 0.49633 -0.30933
 C474 C 0.39513 0.51983 -0.25921
 C475 C 0.41331 0.52006 -0.21411
 C476 C 0.40421 0.49878 -0.16801
 C477 C 0.37610 0.47807 -0.16476
 H478 H 0.31460 0.48489 -0.40655
 H479 H 0.27662 0.41591 -0.22649
 H480 H 0.24808 0.40987 -0.32246
 H481 H 0.32217 0.44010 -0.17340
 H482 H 0.35782 0.51180 -0.34767
 H483 H 0.40292 0.53599 -0.29570
 H484 H 0.43480 0.53642 -0.21708
 H485 H 0.36888 0.46162 -0.12923
 C486 C 1.13339 0.70298 -0.41301
 C487 C 1.12089 0.68545 -0.35927
 C488 C 1.11474 0.69482 -0.30209
 C489 C 1.12232 0.72219 -0.29916
 C490 C 1.13577 0.73999 -0.35239
 C491 C 1.14107 0.73051 -0.41076
 C492 C 1.10130 0.67665 -0.24910
 C493 C 1.09455 0.64948 -0.25257
 C494 C 1.10198 0.64082 -0.30921
 C495 C 1.11484 0.65872 -0.36209
 C496 C 1.09611 0.61418 -0.31283
 C497 C 1.08204 0.59575 -0.26204
 C498 C 1.07331 0.60342 -0.20660
 C499 C 1.08015 0.63059 -0.20126
 H500 H 1.13850 0.69534 -0.45542
 H501 H 1.11796 0.72990 -0.25562
 H502 H 1.14100 0.76086 -0.34847
 H503 H 1.09607 0.68360 -0.20553
 H504 H 1.12003 0.65175 -0.40575
 H505 H 1.10198 0.60741 -0.35558
 H506 H 1.07736 0.57510 -0.26718
 H507 H 1.07361 0.63673 -0.15858
 C508 C 0.84414 0.53828 -0.36875
 C509 C 0.85776 0.53561 -0.31537
 C510 C 0.86986 0.55625 -0.26659
 C511 C 0.86667 0.57847 -0.27041
 C512 C 0.85310 0.58102 -0.32415
 C513 C 0.84255 0.56137 -0.37449
 C514 C 0.88594 0.55494 -0.21683
 C515 C 0.89043 0.53352 -0.21626
 C516 C 0.87716 0.51230 -0.26355
 C517 C 0.86069 0.51332 -0.31217
 C518 C 0.88159 0.49098 -0.26356
 C519 C 0.90032 0.49146 -0.21995
 C520 C 0.91478 0.51310 -0.17497
 C521 C 0.90901 0.53361 -0.17155
 H522 H 0.83593 0.52310 -0.40774
 H523 H 0.87560 0.59441 -0.23331
 H524 H 0.85207 0.59899 -0.32819
 H525 H 0.89589 0.57115 -0.18047
 H526 H 0.85119 0.49741 -0.34939
 H527 H 0.87137 0.47446 -0.29903
 H528 H 0.90414 0.47524 -0.22290
 H529 H 0.92008 0.55036 -0.13696
 C530 C 0.46163 0.31973 -0.42215
 C531 C 0.46083 0.33542 -0.37132
 C532 C 0.45468 0.32508 -0.30657
 C533 C 0.44979 0.29903 -0.29407
 C534 C 0.45043 0.28326 -0.34548
 C535 C 0.45569 0.29306 -0.41095
 C536 C 0.45372 0.34107 -0.25586
 C537 C 0.45907 0.36731 -0.26969
 C538 C 0.46540 0.37738 -0.33502
 C539 C 0.46618 0.36143 -0.38508
 C540 C 0.47123 0.40350 -0.34963
 C541 C 0.47142 0.41994 -0.29994
 C542 C 0.46540 0.41055 -0.23469
 C543 C 0.45876 0.38396 -0.21966
 H544 H 0.46790 0.32909 -0.47032
 H545 H 0.44514 0.29068 -0.24466
 H546 H 0.44552 0.26290 -0.33394
 H547 H 0.44903 0.33323 -0.20595
 H548 H 0.47100 0.36932 -0.43500
 H549 H 0.47607 0.41141 -0.39945
 H550 H 0.47646 0.44027 -0.31268
 H551 H 0.45436 0.37672 -0.16926
 C552 C 0.70043 0.12947 -0.39498
 C553 C 0.68120 0.11341 -0.34665
 C554 C 0.68746 0.09998 -0.29887
 C555 C 0.71350 0.10368 -0.29975
 C556 C 0.73265 0.11972 -0.34893
 C557 C 0.72589 0.13215 -0.39770
 C558 C 0.66738 0.08276 -0.25231
 C559 C 0.64114 0.07867 -0.25395
 C560 C 0.63541 0.09266 -0.30155
 C561 C 0.65549 0.11005 -0.34700
 C562 C 0.60943 0.08866 -0.30411
 C563 C 0.58892 0.07046 -0.26103
 C564 C 0.59395 0.05599 -0.21406
 C565 C 0.62030 0.06046 -0.20997
 H566 H 0.69534 0.13945 -0.43199
 H567 H 0.71881 0.09371 -0.26336
 H568 H 0.75229 0.12173 -0.35014
 H569 H 0.67194 0.07215 -0.21593
 H570 H 0.65085 0.12048 -0.38380
 H571 H 0.60483 0.09933 -0.34018
 H572 H 0.56893 0.06760 -0.26487
 H573 H 0.62437 0.04941 -0.17383
 C574 C 1.15310 0.46838 -0.37999
 C575 C 1.13947 0.47033 -0.32584
 C576 C 1.12875 0.44996 -0.27656
 C577 C 1.13360 0.42885 -0.28058
 C578 C 1.14777 0.42730 -0.33451
 C579 C 1.15666 0.44641 -0.38651
 C580 C 1.11288 0.45077 -0.22537
 C581 C 1.10770 0.47175 -0.22351
 C582 C 1.11993 0.49286 -0.27134
 C583 C 1.13581 0.49210 -0.32170
 C584 C 1.11517 0.51393 -0.27003
 C585 C 1.09704 0.51330 -0.22447
 C586 C 1.08346 0.49175 -0.17889
 C587 C 1.08961 0.47148 -0.17679
 H588 H 1.16121 0.48437 -0.41706
 H589 H 1.12587 0.41318 -0.24286
 H590 H 1.15006 0.41008 -0.33723
 H591 H 1.10391 0.43472 -0.18844
 H592 H 1.14448 0.50795 -0.35921
 H593 H 1.12465 0.53037 -0.30590
 H594 H 1.09292 0.52934 -0.22641
 H595 H 1.07920 0.45479 -0.14174
 C596 C 0.55935 0.69927 -0.34857
 C597 C 0.55839 0.68595 -0.29019
 C598 C 0.54113 0.68367 -0.23830
 C599 C 0.52736 0.69722 -0.24312
 C600 C 0.52866 0.71078 -0.30116
 C601 C 0.54326 0.71048 -0.35629
 C602 C 0.53677 0.66671 -0.18427
 C603 C 0.54937 0.65191 -0.18203
 C604 C 0.56861 0.65625 -0.23114
 C605 C 0.57314 0.67340 -0.28468
 C606 C 0.58160 0.64187 -0.22829
 C607 C 0.57387 0.62167 -0.18061
 C608 C 0.55323 0.61572 -0.13515
 C609 C 0.54169 0.63149 -0.13429
 H610 H 0.57204 0.70015 -0.38880
 H611 H 0.51443 0.69614 -0.20327
 H612 H 0.51601 0.71914 -0.30445
 H613 H 0.52247 0.66388 -0.14594
 H614 H 0.58687 0.67565 -0.32391
 H615 H 0.59657 0.64513 -0.26512
 H616 H 0.58264 0.60935 -0.18205
 H617 H 0.52550 0.62659 -0.09948
 C618 C 0.27955 -0.12906 -0.31191
 C619 C 0.29964 -0.12082 -0.26304
 C620 C 0.31327 -0.13475 -0.25633
 C621 C 0.30492 -0.15806 -0.29462
 C622 C 0.28487 -0.16613 -0.34302
 C623 C 0.27294 -0.15102 -0.35364
 C624 C 0.33607 -0.12418 -0.21457
 C625 C 0.34548 -0.09979 -0.17989
 C626 C 0.33050 -0.08715 -0.18239
 C627 C 0.30759 -0.09781 -0.22388
 C628 C 0.33954 -0.06324 -0.14586
 C629 C 0.36418 -0.05093 -0.11082
 C630 C 0.38026 -0.06215 -0.11270
 C631 C 0.37043 -0.08703 -0.14551
 H632 H 0.27043 -0.11731 -0.32060
 H633 H 0.31493 -0.16914 -0.28963
 H634 H 0.28012 -0.18294 -0.37543
 H635 H 0.34726 -0.13415 -0.21164
 H636 H 0.29683 -0.08742 -0.22810
 H637 H 0.32813 -0.05348 -0.14648
 H638 H 0.37149 -0.03175 -0.08559
 H639 H 0.38272 -0.09586 -0.14635
 C640 C 0.49498 -0.18115 0.37339
 C641 C 0.49806 -0.16380 0.32163
 C642 C 0.52040 -0.15381 0.27780
 C643 C 0.53887 -0.16208 0.28585
 C644 C 0.53611 -0.17875 0.33909
 C645 C 0.51457 -0.18778 0.38442
 C646 C 0.52450 -0.13487 0.22869
 C647 C 0.50720 -0.12499 0.22499
 C648 C 0.48474 -0.13532 0.26885
 C649 C 0.47995 -0.15512 0.31565
 C650 C 0.46812 -0.12476 0.26743
 C651 C 0.47438 -0.10324 0.22517
 C652 C 0.49679 -0.09249 0.18209
 C653 C 0.51270 -0.10396 0.18062
 H654 H 0.47793 -0.18848 0.40721
 H655 H 0.55610 -0.15471 0.25268
 H656 H 0.55154 -0.18348 0.34646
 H657 H 0.54184 -0.12689 0.19552
 H658 H 0.46293 -0.16271 0.34970
 H659 H 0.45089 -0.13244 0.30075
 H660 H 0.46187 -0.09467 0.22673
 H661 H 0.53023 -0.09545 0.14793
 C662 C 0.29507 0.42382 0.39027
 C663 C 0.31324 0.42964 0.33822
 C664 C 0.31114 0.44149 0.27970
 C665 C 0.29055 0.44702 0.27434
 C666 C 0.27349 0.44260 0.32801
 C667 C 0.27608 0.43167 0.38735
 C668 C 0.33039 0.44873 0.22900
 C669 C 0.35256 0.44565 0.23786
 C670 C 0.35468 0.43409 0.29709
 C671 C 0.33459 0.42540 0.34583
 C672 C 0.37745 0.43233 0.30789
 C673 C 0.39834 0.44254 0.26129
 C674 C 0.39645 0.45385 0.20213
 C675 C 0.37324 0.45487 0.18983
 H676 H 0.29682 0.41453 0.43460
 H677 H 0.28859 0.45613 0.22992
 H678 H 0.25930 0.44910 0.32396
 H679 H 0.32885 0.45790 0.18412
 H680 H 0.33640 0.41667 0.39122
 H681 H 0.37943 0.42365 0.35309
 H682 H 0.41597 0.44134 0.27122
 H683 H 0.37185 0.46376 0.14430
 C684 C 1.16031 0.71659 0.34303
 C685 C 1.14687 0.69905 0.28963
 C686 C 1.13258 0.70512 0.24381
 C687 C 1.13359 0.72969 0.25015
 C688 C 1.14669 0.74686 0.30437
 C689 C 1.15921 0.73983 0.35221
 C690 C 1.11618 0.68576 0.19529
 C691 C 1.11324 0.66013 0.19371
 C692 C 1.12869 0.65483 0.23779
 C693 C 1.14578 0.67450 0.28449
 C694 C 1.12558 0.62924 0.23734
 C695 C 1.10589 0.60834 0.19717
 C696 C 1.08931 0.61275 0.15575
 C697 C 1.09386 0.63906 0.15195
 H698 H 1.16981 0.71108 0.38042
 H699 H 1.12294 0.73483 0.21536
 H700 H 1.14549 0.76463 0.31126
 H701 H 1.10450 0.68999 0.16146
 H702 H 1.15688 0.66997 0.31953
 H703 H 1.13743 0.62495 0.27039
 H704 H 1.10296 0.58832 0.20022
 H705 H 1.08106 0.64256 0.12020
 C706 C 0.51586 0.18270 0.37475
 C707 C 0.51734 0.16850 0.32087
 C708 C 0.49912 0.16141 0.26729
 C709 C 0.48065 0.16980 0.26716
 C710 C 0.47896 0.18348 0.32150
 C711 C 0.49592 0.18929 0.37667
 C712 C 0.49869 0.14492 0.21639
 C713 C 0.51568 0.13475 0.21943
 C714 C 0.53467 0.14276 0.27169
 C715 C 0.53568 0.15993 0.32152
 C716 C 0.55142 0.13235 0.27502
 C717 C 0.54819 0.11286 0.22950
 C718 C 0.52839 0.10366 0.17942
 C719 C 0.51292 0.11549 0.17311
 H720 H 0.52933 0.18746 0.41657
 H721 H 0.46664 0.16469 0.22637
 H722 H 0.46332 0.18816 0.32178
 H723 H 0.48421 0.13890 0.17619
 H724 H 0.54975 0.16546 0.36245
 H725 H 0.56623 0.13844 0.31440
 H726 H 0.56054 0.10424 0.23498
 H727 H 0.49763 0.10858 0.13455
 C728 C 0.68996 0.52128 0.35694
 C729 C 0.67335 0.51741 0.30264
 C730 C 0.68345 0.53740 0.25227
 C731 C 0.71068 0.56009 0.25533
 C732 C 0.72704 0.56392 0.31009
 C733 C 0.71641 0.54506 0.36226
 C734 C 0.66577 0.53508 0.20178
 C735 C 0.63800 0.51338 0.20216
 C736 C 0.62843 0.49273 0.25087
 C737 C 0.64625 0.49468 0.30017
 C738 C 0.60077 0.47115 0.25165
 C739 C 0.58230 0.47096 0.20756
 C740 C 0.59116 0.49218 0.16142
 C741 C 0.61929 0.51278 0.15710
 H742 H 0.68179 0.50660 0.39705
 H743 H 0.71889 0.57552 0.21695
 H744 H 0.74741 0.58238 0.31351
 H745 H 0.67324 0.55084 0.16425
 H746 H 0.63861 0.47926 0.33861
 H747 H 0.59318 0.45503 0.28822
 H748 H 0.56080 0.45470 0.21131
 H749 H 0.62632 0.52920 0.12156
 C750 C 0.85663 0.30400 0.39319
 C751 C 0.87119 0.32189 0.34108
 C752 C 0.88497 0.31527 0.29528
 C753 C 0.88319 0.29031 0.30168
 C754 C 0.86872 0.27260 0.35426
 C755 C 0.85582 0.27960 0.40117
 C756 C 0.90079 0.33400 0.24510
 C757 C 0.90335 0.35944 0.24119
 C758 C 0.88901 0.36561 0.28656
 C759 C 0.87280 0.34671 0.33555
 C760 C 0.89180 0.39104 0.28376
 C761 C 0.90956 0.41074 0.23837
 C762 C 0.92452 0.40527 0.19415
 C763 C 0.92079 0.37926 0.19445
 H764 H 0.84628 0.30931 0.42849
 H765 H 0.89350 0.28477 0.26694
 H766 H 0.86833 0.25387 0.35945
 H767 H 0.91171 0.32914 0.21046
 H768 H 0.86216 0.35170 0.37075
 H769 H 0.88086 0.39602 0.31799
 H770 H 0.91197 0.43056 0.23866
 H771 H 0.93241 0.37496 0.16070
   
