data_POSCAR
  _audit_creation_date              2014-09-24
  _audit_creation_method            'ToBaCCo'
  _symmetry_space_group_name_H-M    'P1'
  _symmetry_Int_Tables_number       1
  _symmetry_cell_setting            triclinic
  loop_
  _symmetry_equiv_pos_as_xyz
 x,y,z
_cell_length_a 33.0865
_cell_length_b 32.6582
_cell_length_c 33.0629
_cell_angle_alpha 90.006900
_cell_angle_beta 90.045300
_cell_angle_gamma 89.937700
loop_
  _atom_site_label
  _atom_site_type_symbol
  _atom_site_fract_x
  _atom_site_fract_y
  _atom_site_fract_z
C1 C 0.28843 0.34224 0.01917
 C2 C 0.28770 0.34208 -0.02454
 C3 C 0.30950 0.31069 -0.04417
 C4 C 0.34038 0.28769 -0.02550
 C5 C 0.34155 0.28801 0.01829
 C6 C 0.31728 0.31717 0.03839
 H7 H 0.32171 0.32122 0.07052
 H8 H 0.30345 0.30529 -0.07589
 C9 C 0.70381 0.65514 0.02244
 C10 C 0.70886 0.65865 -0.02073
 C11 C 0.68141 0.68408 -0.04167
 C12 C 0.65121 0.70817 -0.02296
 C13 C 0.65384 0.71242 0.02052
 C14 C 0.67876 0.68434 0.04134
 H15 H 0.67826 0.68497 0.07387
 H16 H 0.68307 0.68445 -0.07418
 C17 C 0.71039 0.34364 0.97974
 C18 C 0.70966 0.34365 1.02349
 C19 C 0.68027 0.31893 1.04249
 C20 C 0.65656 0.28954 1.02234
 C21 C 0.65795 0.28923 0.97873
 C22 C 0.68800 0.31298 0.95988
 H23 H 0.69319 0.30838 0.92793
 H24 H 0.67498 0.32327 1.07446
 C25 C 0.29592 0.65222 0.98192
 C26 C 0.29548 0.65253 1.02565
 C27 C 0.31862 0.68306 1.04512
 C28 C 0.34882 0.70650 1.02583
 C29 C 0.34908 0.70604 0.98212
 C30 C 0.32536 0.67623 0.96254
 H31 H 0.32998 0.67155 0.93053
 H32 H 0.31334 0.68836 1.07698
 C33 C 0.02375 0.28614 0.33679
 C34 C -0.01956 0.28053 0.33558
 C35 C -0.04167 0.30666 0.30975
 C36 C -0.02412 0.33682 0.28484
 C37 C 0.01919 0.33557 0.27961
 C38 C 0.04125 0.31040 0.30633
 H39 H 0.07369 0.31094 0.30442
 H40 H -0.07407 0.30443 0.31017
 C41 C 0.01827 0.71474 0.66062
 C42 C -0.02512 0.70995 0.65719
 C43 C -0.04426 0.68618 0.68730
 C44 C -0.02380 0.66100 0.71546
 C45 C 0.01961 0.65796 0.71118
 C46 C 0.03872 0.68759 0.68676
 H47 H 0.07120 0.68884 0.68734
 H48 H -0.07680 0.68642 0.68797
 C49 C 0.97772 0.71298 0.33764
 C50 C 1.02125 0.71258 0.34020
 C51 C 1.04206 0.68378 0.31612
 C52 C 1.02348 0.65894 0.28641
 C53 C 0.97975 0.65924 0.28482
 C54 C 0.95967 0.69019 0.30649
 H55 H 0.92789 0.69491 0.30043
 H56 H 1.07402 0.67978 0.32158
 C57 C 0.97998 0.28801 0.65908
 C58 C 1.02344 0.29281 0.65648
 C59 C 1.04200 0.31698 0.68656
 C60 C 1.02103 0.34235 0.71387
 C61 C 0.97777 0.34518 0.70913
 C62 C 0.95897 0.31555 0.68438
 H63 H 0.92649 0.31436 0.68425
 H64 H 1.07450 0.31691 0.68801
 C65 C 0.34287 0.02115 0.29321
 C66 C 0.34315 -0.02323 0.29323
 C67 C 0.31922 -0.04310 0.32267
 C68 C 0.29038 -0.02316 0.34727
 C69 C 0.29072 0.02112 0.34733
 C70 C 0.31343 0.04076 0.31702
 H71 H 0.30878 0.07321 0.31256
 H72 H 0.32382 -0.07554 0.32724
 C73 C 0.66030 0.01964 0.71291
 C74 C 0.66135 -0.02459 0.71406
 C75 C 0.69204 -0.04438 0.69220
 C76 C 0.71436 -0.02538 0.66139
 C77 C 0.71382 0.01883 0.65981
 C78 C 0.68529 0.03934 0.68429
 H79 H 0.68143 0.07188 0.67993
 H80 H 0.69727 -0.07653 0.69789
 C81 C 0.34056 0.98117 0.71101
 C82 C 0.34175 1.02550 0.71113
 C83 C 0.31824 1.04591 0.68170
 C84 C 0.28894 1.02676 0.65704
 C85 C 0.28812 0.98247 0.65706
 C86 C 0.31050 0.96226 0.68736
 H87 H 0.30522 0.92994 0.69185
 H88 H 0.32368 1.07822 0.67712
 C89 C 0.66323 0.98281 0.28377
 C90 C 0.66200 1.02682 0.28811
 C91 C 0.69223 1.04526 0.31192
 C92 C 0.71915 1.02353 0.33733
 C93 C 0.71340 0.97957 0.34005
 C94 C 0.68847 0.96110 0.31065
 H95 H 0.68766 0.92819 0.30959
 H96 H 0.69385 1.07813 0.31165
 O97 O 0.83139 0.88579 0.53830
 O98 O 0.88723 0.83053 0.45949
 O99 O 0.83136 0.88649 0.45982
 O100 O 0.88733 0.82981 0.53785
 O101 O 0.84098 0.78122 0.53693
 O102 O 0.78368 0.83924 0.45969
 O103 O 0.83999 0.78284 0.45793
 O104 O 0.78464 0.83758 0.53879
 Cu105 Cu 0.86396 0.86294 0.49890
 Cu106 Cu 0.80759 0.80539 0.49828
 C107 C 0.79851 0.87134 0.55197
 C108 C 0.87339 0.79722 0.44537
 C109 C 0.79780 0.87298 0.44679
 C110 C 0.87409 0.79559 0.55034
 O111 O 0.16591 0.11500 0.54029
 O112 O 0.11330 0.17120 0.46046
 O113 O 0.16881 0.11466 0.46274
 O114 O 0.11178 0.17246 0.53891
 O115 O 0.15925 0.21992 0.53974
 O116 O 0.21671 0.16172 0.46323
 O117 O 0.16072 0.21873 0.46057
 O118 O 0.21414 0.16163 0.54157
 Cu119 Cu 0.13510 0.13877 0.50046
 Cu120 Cu 0.19244 0.19539 0.50138
 C121 C 0.19931 0.12801 0.55406
 C122 C 0.12756 0.20458 0.44703
 C123 C 0.20284 0.12776 0.45066
 C124 C 0.12552 0.20621 0.55211
 O125 O 0.10578 0.84093 0.54103
 O126 O 0.16225 0.89391 0.46182
 O127 O 0.10575 0.83876 0.46265
 O128 O 0.16424 0.89426 0.53951
 O129 O 0.20995 0.84493 0.53999
 O130 O 0.15118 0.78927 0.46234
 O131 O 0.20847 0.84514 0.46158
 O132 O 0.15100 0.79125 0.54177
 Cu133 Cu 0.12990 0.87174 0.50128
 Cu134 Cu 0.18461 0.81250 0.50143
 C135 C 0.11826 0.80694 0.55476
 C136 C 0.19530 0.87936 0.44870
 C137 C 0.11827 0.80451 0.44938
 C138 C 0.19745 0.87956 0.55227
 O139 O 0.89720 0.15737 0.54056
 O140 O 0.84282 0.10171 0.46113
 O141 O 0.89914 0.15649 0.46231
 O142 O 0.84101 0.10177 0.53957
 O143 O 0.79394 0.14964 0.53868
 O144 O 0.85289 0.20520 0.46064
 O145 O 0.79614 0.15000 0.45940
 O146 O 0.85071 0.20585 0.54000
 Cu147 Cu 0.87460 0.12451 0.50115
 Cu148 Cu 0.81873 0.18259 0.49968
 C149 C 0.88369 0.19129 0.55359
 C150 C 0.81029 0.11621 0.44659
 C151 C 0.88610 0.19013 0.44815
 C152 C 0.80754 0.11586 0.55221
 O153 O 0.45955 0.88980 0.83195
 O154 O 0.53700 0.83187 0.88790
 O155 O 0.53841 0.88881 0.83236
 O156 O 0.45985 0.83570 0.88953
 O157 O 0.45782 0.78657 0.84370
 O158 O 0.53738 0.84043 0.78573
 O159 O 0.53553 0.78329 0.84144
 O160 O 0.45778 0.84141 0.78538
 Cu161 Cu 0.49894 0.86657 0.86481
 Cu162 Cu 0.49688 0.80826 0.80912
 C163 C 0.44550 0.87559 0.79903
 C164 C 0.54858 0.79717 0.87486
 C165 C 0.55138 0.87399 0.79937
 C166 C 0.44630 0.80159 0.87727
 O167 O 0.53796 0.16333 0.11136
 O168 O 0.45906 0.11008 0.16878
 O169 O 0.46003 0.16337 0.11033
 O170 O 0.53752 0.11117 0.17063
 O171 O 0.53755 0.16171 0.21499
 O172 O 0.45824 0.21387 0.15462
 O173 O 0.45838 0.15988 0.21393
 O174 O 0.53720 0.21429 0.15519
 Cu175 Cu 0.49869 0.13194 0.13598
 Cu176 Cu 0.49760 0.19253 0.18917
 C177 C 0.55073 0.19805 0.12294
 C178 C 0.44572 0.12532 0.20148
 C179 C 0.44625 0.19777 0.12171
 C180 C 0.55085 0.12727 0.20296
 O181 O 0.46123 0.16737 0.89019
 O182 O 0.53880 0.10849 0.83578
 O183 O 0.53975 0.16592 0.89012
 O184 O 0.46050 0.10974 0.83585
 O185 O 0.46093 0.15578 0.78701
 O186 O 0.54035 0.21286 0.84208
 O187 O 0.54002 0.15472 0.78717
 O188 O 0.46107 0.21385 0.84172
 Cu189 Cu 0.50001 0.13329 0.86774
 Cu190 Cu 0.50070 0.18901 0.80965
 C191 C 0.44792 0.20068 0.87546
 C192 C 0.55257 0.12117 0.80219
 C193 C 0.55327 0.19923 0.87573
 C194 C 0.44741 0.12272 0.80208
 O195 O 0.45969 0.83575 0.11058
 O196 O 0.53640 0.89731 0.16305
 O197 O 0.53690 0.84104 0.10786
 O198 O 0.45796 0.89359 0.16515
 O199 O 0.46163 0.84729 0.21359
 O200 O 0.54111 0.79356 0.15523
 O201 O 0.54089 0.85044 0.21092
 O202 O 0.46306 0.78888 0.15860
 Cu203 Cu 0.49716 0.87175 0.13210
 Cu204 Cu 0.50197 0.81544 0.18959
 C205 C 0.44907 0.80135 0.12498
 C206 C 0.55197 0.88440 0.19579
 C207 C 0.55193 0.80793 0.12116
 C208 C 0.44653 0.88004 0.19923
 O209 O 0.89241 0.54000 0.83886
 O210 O 0.83451 0.46039 0.89086
 O211 O 0.88969 0.46138 0.83392
 O212 O 0.83656 0.53916 0.89366
 O213 O 0.78922 0.54312 0.84670
 O214 O 0.84245 0.46458 0.78680
 O215 O 0.78689 0.46370 0.84412
 O216 O 0.84549 0.54394 0.79149
 Cu217 Cu 0.86800 0.49963 0.86900
 Cu218 Cu 0.81123 0.50403 0.81249
 C219 C 0.87919 0.55534 0.80617
 C220 C 0.80042 0.44922 0.87717
 C221 C 0.87579 0.45043 0.79979
 C222 C 0.80363 0.55418 0.88061
 O223 O 0.16323 0.46158 0.10658
 O224 O 0.10950 0.54221 0.16128
 O225 O 0.16757 0.54004 0.10815
 O226 O 0.10524 0.46305 0.15916
 O227 O 0.15045 0.45854 0.20808
 O228 O 0.21262 0.53711 0.15740
 O229 O 0.15381 0.53883 0.21106
 O230 O 0.20913 0.45789 0.15492
 Cu231 Cu 0.13184 0.50221 0.12902
 Cu232 Cu 0.18590 0.49783 0.18803
 C233 C 0.19565 0.44644 0.12071
 C234 C 0.12187 0.55402 0.19569
 C235 C 0.20105 0.55103 0.12342
 C236 C 0.11716 0.44749 0.19226
 O237 O 0.88682 0.46172 0.16867
 O238 O 0.82826 0.53834 0.11169
 O239 O 0.88680 0.54121 0.16460
 O240 O 0.83376 0.45996 0.11078
 O241 O 0.78560 0.45919 0.15693
 O242 O 0.84096 0.53992 0.21308
 O243 O 0.78177 0.53836 0.15958
 O244 O 0.83925 0.45986 0.21542
 Cu245 Cu 0.86364 0.50051 0.13440
 Cu246 Cu 0.80726 0.49936 0.19112
 C247 C 0.87297 0.44758 0.20172
 C248 C 0.79453 0.55068 0.12551
 C249 C 0.87377 0.55385 0.19837
 C250 C 0.80031 0.44638 0.12368
 O251 O 0.16467 0.54188 0.89195
 O252 O 0.10815 0.46246 0.83933
 O253 O 0.16700 0.46302 0.89127
 O254 O 0.11033 0.54090 0.83438
 O255 O 0.15727 0.54046 0.78694
 O256 O 0.21318 0.46155 0.84308
 O257 O 0.15392 0.46100 0.79080
 O258 O 0.21223 0.54085 0.84522
 Cu259 Cu 0.13299 0.50237 0.86899
 Cu260 Cu 0.18878 0.50104 0.81163
 C261 C 0.19851 0.55410 0.87875
 C262 C 0.12071 0.44853 0.80588
 C263 C 0.20001 0.44928 0.87698
 C264 C 0.12366 0.55318 0.80043
 C265 C 0.26164 0.36847 0.04779
 C266 C 0.21901 0.37856 0.03220
 C267 C 0.19769 0.40465 0.05584
 C268 C 0.21945 0.41683 0.09508
 C269 C 0.23015 0.37560 0.11488
 C270 C 0.25188 0.35007 0.09010
 C271 C 0.28221 0.40934 0.05824
 C272 C 0.26004 0.43472 0.08190
 H273 H 0.20329 0.36049 0.01001
 H274 H 0.16575 0.41001 0.05041
 H275 H 0.21979 0.36644 0.14467
 H276 H 0.25891 0.31888 0.09901
 H277 H 0.31276 0.41699 0.04896
 H278 H 0.27150 0.46404 0.09228
 C279 C 0.72646 0.62522 0.05117
 C280 C 0.76753 0.64308 0.06409
 C281 C 0.78985 0.61857 0.08861
 C282 C 0.76896 0.57844 0.09973
 C283 C 0.72794 0.59141 0.11760
 C284 C 0.70550 0.61533 0.09213
 C285 C 0.73463 0.58181 0.03498
 C286 C 0.75780 0.55807 0.05950
 H287 H 0.77779 0.67337 0.05530
 H288 H 0.81904 0.62782 0.10051
 H289 H 0.71619 0.58040 0.14623
 H290 H 0.67432 0.62274 0.09920
 H291 H 0.71764 0.56771 0.01097
 H292 H 0.76235 0.52568 0.05353
 C293 C 0.73339 0.37365 0.95128
 C294 C 0.73988 0.41765 0.96667
 C295 C 0.76268 0.44157 0.94213
 C296 C 0.77522 0.42082 0.90255
 C297 C 0.79721 0.38155 0.91493
 C298 C 0.77530 0.35687 0.93962
 C299 C 0.71299 0.38199 0.90963
 C300 C 0.73505 0.40618 0.88412
 H301 H 0.72178 0.43196 0.98965
 H302 H 0.76579 0.47426 0.94740
 H303 H 0.82683 0.37292 0.90367
 H304 H 0.78633 0.32705 0.94912
 H305 H 0.68260 0.37244 0.90180
 H306 H 0.72381 0.41571 0.85474
 C307 C 0.26788 0.62749 0.95316
 C308 C 0.28647 0.58573 0.94236
 C309 C 0.26323 0.56189 0.91816
 C310 C 0.22362 0.58205 0.90494
 C311 C 0.20232 0.59479 0.94430
 C312 C 0.22480 0.61936 0.96846
 C313 C 0.25906 0.64692 0.91101
 C314 C 0.23634 0.62287 0.88576
 H315 H 0.31646 0.57627 0.95193
 H316 H 0.27325 0.53208 0.90758
 H317 H 0.17018 0.59088 0.94963
 H318 H 0.20995 0.63763 0.99108
 H319 H 0.26730 0.67791 0.90261
 H320 H 0.22646 0.63301 0.85609
 C321 C 0.05372 0.26627 0.36707
 C322 C 0.09495 0.28827 0.37422
 C323 C 0.12063 0.26794 0.39983
 C324 C 0.10268 0.22803 0.41675
 C325 C 0.06269 0.24152 0.43564
 C326 C 0.03813 0.26263 0.41048
 C327 C 0.06638 0.22310 0.35334
 C328 C 0.09120 0.20301 0.37937
 H329 H 0.10214 0.31886 0.36368
 H330 H 0.14949 0.28057 0.40918
 H331 H 0.05721 0.24097 0.46764
 H332 H 0.01496 0.28197 0.42304
 H333 H 0.05741 0.20989 0.32456
 H334 H 0.10317 0.17274 0.37293
 C335 C 0.04606 0.74238 0.63430
 C336 C 0.05871 0.71935 0.59574
 C337 C 0.08178 0.74114 0.56973
 C338 C 0.09258 0.78395 0.58483
 C339 C 0.05198 0.80484 0.59434
 C340 C 0.02865 0.78393 0.62101
 C341 C 0.08726 0.75582 0.65281
 C342 C 0.11169 0.77704 0.62668
 H343 H 0.05063 0.68768 0.58979
 H344 H 0.09306 0.72815 0.54170
 H345 H 0.04462 0.83603 0.58569
 H346 H 0.00387 0.79910 0.63596
 H347 H 0.09530 0.75235 0.68444
 H348 H 0.14043 0.79007 0.63587
 C349 C 0.94797 0.73452 0.36696
 C350 C 0.96221 0.73691 0.41099
 C351 C 0.93749 0.75837 0.43570
 C352 C 0.89881 0.77381 0.41556
 C353 C 0.91261 0.79905 0.37910
 C354 C 0.93754 0.77841 0.35355
 C355 C 0.90569 0.71418 0.37219
 C356 C 0.87997 0.73501 0.39719
 H357 H 0.98391 0.71620 0.42403
 H358 H 0.94132 0.75727 0.46795
 H359 H 0.90196 0.82985 0.37276
 H360 H 0.94785 0.79164 0.32525
 H361 H 0.89745 0.68446 0.36024
 H362 H 0.85016 0.72356 0.40485
 C363 C 0.95297 0.25938 0.63293
 C364 C 0.97119 0.21762 0.62143
 C365 C 0.94884 0.19554 0.59482
 C366 C 0.90830 0.21555 0.58359
 C367 C 0.88803 0.22360 0.62470
 C368 C 0.91149 0.24606 0.65076
 C369 C 0.94097 0.28099 0.59337
 C370 C 0.91890 0.25802 0.56743
 H371 H 0.99532 0.20301 0.63791
 H372 H 0.95662 0.16407 0.58764
 H373 H 0.85919 0.21055 0.63351
 H374 H 0.90254 0.25063 0.68200
 H375 H 0.94854 0.31265 0.58676
 H376 H 0.90813 0.26994 0.53872
 C377 C 0.37152 0.05059 0.26965
 C378 C 0.38048 0.09253 0.29008
 C379 C 0.40401 0.11831 0.26751
 C380 C 0.41725 0.09991 0.22671
 C381 C 0.43725 0.05936 0.23807
 C382 C 0.41457 0.03497 0.26192
 C383 C 0.35387 0.06289 0.22815
 C384 C 0.37782 0.08800 0.20567
 H385 H 0.37177 0.10038 0.32073
 H386 H 0.41377 0.14796 0.27865
 H387 H 0.46826 0.05213 0.23133
 H388 H 0.42942 0.01180 0.27945
 H389 H 0.32414 0.05347 0.21784
 H390 H 0.36867 0.09967 0.17631
 C391 C 0.63284 0.04805 0.73878
 C392 C 0.62185 0.03220 0.78115
 C393 C 0.59496 0.05574 0.80162
 C394 C 0.58271 0.09513 0.77931
 C395 C 0.62330 0.11592 0.76969
 C396 C 0.64969 0.09129 0.74888
 C397 C 0.59284 0.05754 0.71695
 C398 C 0.56659 0.08109 0.73823
 H399 H 0.63927 0.00959 0.79722
 H400 H 0.58840 0.05002 0.83328
 H401 H 0.63137 0.14635 0.78011
 H402 H 0.68043 0.10098 0.74271
 H403 H 0.58632 0.04761 0.68628
 H404 H 0.53775 0.09078 0.72584
 C405 C 0.36950 0.95127 0.73363
 C406 C 0.37721 0.90919 0.71298
 C407 C 0.40135 0.88320 0.73470
 C408 C 0.41641 0.90152 0.77493
 C409 C 0.43634 0.94175 0.76269
 C410 C 0.41296 0.96638 0.73967
 C411 C 0.35333 0.93928 0.77577
 C412 C 0.37792 0.91396 0.79741
 H413 H 0.36728 0.90136 0.68270
 H414 H 0.41036 0.85341 0.72326
 H415 H 0.46769 0.94846 0.76789
 H416 H 0.42720 0.98953 0.72163
 H417 H 0.32410 0.94909 0.78713
 H418 H 0.36982 0.90247 0.82712
 C419 C 0.63490 0.95588 0.25719
 C420 C 0.65161 0.91348 0.24377
 C421 C 0.62423 0.88955 0.22361
 C422 C 0.58286 0.91020 0.21763
 C423 C 0.56917 0.92198 0.26017
 C424 C 0.59640 0.94479 0.28086
 C425 C 0.62106 0.97367 0.21635
 C426 C 0.59308 0.95078 0.19649
 H427 H 0.68300 0.90426 0.24652
 H428 H 0.63217 0.86005 0.21072
 H429 H 0.54118 0.91149 0.27376
 H430 H 0.59161 0.95318 0.31229
 H431 H 0.63770 0.99645 0.19983
 H432 H 0.58470 0.95765 0.16547
 C433 C 0.36862 0.26636 0.94732
 C434 C 0.41228 0.26343 0.96265
 C435 C 0.43720 0.24095 0.93901
 C436 C 0.41794 0.22528 0.89995
 C437 C 0.38062 0.20105 0.91318
 C438 C 0.35475 0.22255 0.93710
 C439 C 0.37553 0.28594 0.90478
 C440 C 0.40081 0.26416 0.88005
 H441 H 0.42515 0.28415 0.98445
 H442 H 0.46924 0.24123 0.94397
 H443 H 0.37408 0.17016 0.90297
 H444 H 0.32610 0.20986 0.94702
 H445 H 0.36461 0.31587 0.89577
 H446 H 0.40962 0.27507 0.85033
 C447 C 0.62295 0.72959 0.94987
 C448 C 0.57991 0.73744 0.96586
 C449 C 0.55630 0.76060 0.94120
 C450 C 0.57627 0.77178 0.90089
 C451 C 0.61569 0.79342 0.91188
 C452 C 0.64011 0.77133 0.93664
 C453 C 0.61320 0.70789 0.90901
 C454 C 0.58943 0.73021 0.88334
 H455 H 0.56597 0.71997 0.98965
 H456 H 0.52426 0.76483 0.94704
 H457 H 0.62446 0.82304 0.89986
 H458 H 0.66979 0.78231 0.94555
 H459 H 0.62078 0.67630 0.90215
 H460 H 0.57867 0.71797 0.85478
 C461 C 0.37608 0.72978 0.05243
 C462 C 0.41938 0.73688 0.03689
 C463 C 0.44246 0.76128 0.06077
 C464 C 0.42172 0.77454 0.10005
 C465 C 0.38241 0.79552 0.08720
 C466 C 0.35850 0.77210 0.06313
 C467 C 0.38496 0.71035 0.09458
 C468 C 0.40828 0.73398 0.11950
 H469 H 0.43381 0.71819 0.01431
 H470 H 0.47460 0.76516 0.05536
 H471 H 0.37327 0.82567 0.09762
 H472 H 0.32888 0.78245 0.05324
 H473 H 0.37649 0.67947 0.10320
 H474 H 0.41809 0.72355 0.14908
 C475 C 0.62971 0.26256 0.05010
 C476 C 0.64712 0.25232 0.09265
 C477 C 0.62116 0.23109 0.11718
 C478 C 0.58050 0.22110 0.09694
 C479 C 0.56387 0.26255 0.08326
 C480 C 0.58965 0.28433 0.05985
 C481 C 0.61899 0.21960 0.03440
 C482 C 0.59251 0.19861 0.05789
 H483 H 0.67794 0.25872 0.10192
 H484 H 0.62964 0.22051 0.14713
 H485 H 0.53494 0.27476 0.09288
 H486 H 0.58253 0.31513 0.04969
 H487 H 0.63555 0.20394 0.01099
 H488 H 0.58561 0.16669 0.05194
 C489 C 0.26396 0.05394 0.63200
 C490 C 0.22103 0.03876 0.62238
 C491 C 0.20009 0.06266 0.59617
 C492 C 0.22253 0.10179 0.58349
 C493 C 0.23348 0.12233 0.62383
 C494 C 0.25463 0.09730 0.64950
 C495 C 0.28466 0.06339 0.59143
 C496 C 0.26286 0.08734 0.56601
 H497 H 0.20504 0.01674 0.64055
 H498 H 0.16809 0.05762 0.59085
 H499 H 0.22330 0.15269 0.63249
 H500 H 0.26115 0.10664 0.68032
 H501 H 0.31480 0.05274 0.58368
 H502 H 0.27423 0.09669 0.53663
 C503 C 0.74535 0.04852 0.36341
 C504 C 0.75952 0.09094 0.34707
 C505 C 0.78089 0.11382 0.37451
 C506 C 0.78727 0.09209 0.41531
 C507 C 0.74482 0.08129 0.42978
 C508 C 0.72285 0.05980 0.40259
 C509 C 0.78619 0.02957 0.37557
 C510 C 0.80719 0.05124 0.40362
 H511 H 0.75673 0.10072 0.31583
 H512 H 0.79456 0.14299 0.36681
 H513 H 0.73225 0.09145 0.45839
 H514 H 0.69143 0.05197 0.40818
 H515 H 0.80132 0.00610 0.35835
 H516 H 0.83811 0.04322 0.41128
 C517 C 0.73588 0.94510 0.63156
 C518 C 0.71603 0.90230 0.62541
 C519 C 0.73680 0.87681 0.59996
 C520 C 0.77508 0.89643 0.58212
 C521 C 0.75971 0.93591 0.56268
 C522 C 0.73828 0.96033 0.58780
 C523 C 0.77920 0.93444 0.64494
 C524 C 0.79979 0.90982 0.61897
 H525 H 0.68669 0.89364 0.63707
 H526 H 0.72566 0.84672 0.59165
 H527 H 0.75827 0.94016 0.53046
 H528 H 0.71718 0.98177 0.57495
 H529 H 0.79198 0.94403 0.67367
 H530 H 0.83013 0.89888 0.62534
 C531 C 0.26418 0.95049 0.37185
 C532 C 0.22159 0.96727 0.38042
 C533 C 0.19930 0.94431 0.40624
 C534 C 0.22011 0.90444 0.41961
 C535 C 0.23122 0.88330 0.37961
 C536 C 0.25380 0.90740 0.35433
 C537 C 0.28371 0.94045 0.41289
 C538 C 0.26056 0.91747 0.43793
 H539 H 0.20681 0.98991 0.36190
 H540 H 0.16741 0.95061 0.41085
 H541 H 0.22025 0.85327 0.37087
 H542 H 0.26073 0.89762 0.32373
 H543 H 0.31405 0.94995 0.42124
 H544 H 0.27101 0.90780 0.46758
 C545 C 0.04819 0.36909 0.74154
 C546 C 0.05991 0.40878 0.71942
 C547 C 0.08325 0.43480 0.74109
 C548 C 0.09474 0.41873 0.78293
 C549 C 0.05443 0.40849 0.80381
 C550 C 0.03099 0.38175 0.78286
 C551 C 0.08968 0.35050 0.75423
 C552 C 0.11410 0.37673 0.77526
 H553 H 0.05094 0.41553 0.68852
 H554 H 0.09379 0.46375 0.72886
 H555 H 0.04761 0.41627 0.83499
 H556 H 0.00718 0.36560 0.79821
 H557 H 0.09778 0.31849 0.75070
 H558 H 0.14293 0.36735 0.78794
 C559 C 0.05035 0.63376 0.26139
 C560 C 0.03507 0.62475 0.21837
 C561 C 0.05818 0.59805 0.19713
 C562 C 0.09672 0.58428 0.21936
 C563 C 0.11763 0.62472 0.23072
 C564 C 0.09334 0.65092 0.25225
 C565 C 0.05938 0.59245 0.28184
 C566 C 0.08239 0.56649 0.25965
 H567 H 0.01171 0.64222 0.20340
 H568 H 0.05227 0.59207 0.16537
 H569 H 0.14776 0.63303 0.22073
 H570 H 0.10310 0.68181 0.25937
 H571 H 0.04863 0.58439 0.31184
 H572 H 0.09113 0.53647 0.27073
 C573 C 0.94628 0.36723 0.26433
 C574 C 0.90447 0.37419 0.28491
 C575 C 0.87926 0.39999 0.26417
 C576 C 0.89817 0.41743 0.22530
 C577 C 0.93758 0.43688 0.23992
 C578 C 0.96181 0.41133 0.26120
 C579 C 0.93488 0.35336 0.22136
 C580 C 0.91060 0.37972 0.20084
 H581 H 0.89652 0.36372 0.31499
 H582 H 0.85009 0.40934 0.27603
 H583 H 0.94248 0.46943 0.24046
 H584 H 0.98473 0.42389 0.28074
 H585 H 0.94433 0.32428 0.20853
 H586 H 0.89957 0.37324 0.17057
 C587 C 0.95058 0.63562 0.74165
 C588 C 0.90879 0.65370 0.75425
 C589 C 0.88477 0.62720 0.77542
 C590 C 0.90480 0.58552 0.78337
 C591 C 0.91648 0.56940 0.74163
 C592 C 0.93934 0.59561 0.71978
 C593 C 0.96777 0.62369 0.78330
 C594 C 0.94483 0.59655 0.80431
 H595 H 0.90022 0.68559 0.75071
 H596 H 0.85587 0.63625 0.78814
 H597 H 0.90634 0.54022 0.72957
 H598 H 0.94832 0.58871 0.68892
 H599 H 0.99075 0.64087 0.79890
 H600 H 0.95144 0.58942 0.83570
 C601 C 0.73726 0.63254 0.95234
 C602 C 0.71606 0.59248 0.94031
 C603 C 0.73853 0.56681 0.91737
 C604 C 0.78020 0.58361 0.90649
 C605 C 0.77196 0.62548 0.88697
 C606 C 0.75003 0.65133 0.91104
 C607 C 0.77865 0.62069 0.97011
 C608 C 0.80040 0.59423 0.94702
 H609 H 0.68517 0.58522 0.94876
 H610 H 0.72698 0.53764 0.90664
 H611 H 0.78481 0.63506 0.85830
 H612 H 0.74585 0.68321 0.90281
 H613 H 0.79344 0.63731 0.99402
 H614 H 0.83165 0.58708 0.95415
 C615 C 0.26612 0.37104 0.94911
 C616 C 0.22345 0.35572 0.93825
 C617 C 0.20164 0.38146 0.91448
 C618 C 0.22454 0.42005 0.90198
 C619 C 0.23874 0.44006 0.94134
 C620 C 0.26162 0.41518 0.96493
 C621 C 0.28576 0.37919 0.90708
 C622 C 0.26375 0.40424 0.88239
 H623 H 0.21179 0.32610 0.94754
 H624 H 0.17149 0.37397 0.90383
 H625 H 0.23715 0.47283 0.94670
 H626 H 0.28175 0.42886 0.98660
 H627 H 0.31581 0.36927 0.89849
 H628 H 0.27472 0.41389 0.85297
 C629 C 0.27240 0.62501 0.05210
 C630 C 0.29131 0.61584 0.09435
 C631 C 0.26775 0.59215 0.11896
 C632 C 0.22783 0.57875 0.09909
 C633 C 0.20729 0.61867 0.08632
 C634 C 0.23064 0.64293 0.06261
 C635 C 0.26545 0.58123 0.03632
 C636 C 0.24113 0.55785 0.05984
 H637 H 0.32174 0.62435 0.10324
 H638 H 0.27779 0.58206 0.14859
 H639 H 0.17757 0.62803 0.09671
 H640 H 0.22070 0.67314 0.05307
 H641 H 0.28454 0.56647 0.01438
 H642 H 0.23753 0.52526 0.05439
 C643 C 0.73493 0.36860 0.05029
 C644 C 0.74443 0.35043 0.09290
 C645 C 0.76583 0.37605 0.11773
 C646 C 0.77683 0.41696 0.09772
 C647 C 0.79900 0.40433 0.05880
 C648 C 0.77778 0.37818 0.03507
 C649 C 0.71447 0.40973 0.06007
 C650 C 0.73651 0.43508 0.08384
 H651 H 0.73783 0.31919 0.10189
 H652 H 0.77613 0.36696 0.14758
 H653 H 0.83094 0.40969 0.05357
 H654 H 0.79343 0.36013 0.01275
 H655 H 0.68437 0.41792 0.04968
 H656 H 0.72534 0.46483 0.09339
 C657 C 0.94794 0.73050 0.62810
 C658 C 0.90787 0.70791 0.61734
 C659 C 0.88253 0.72949 0.59256
 C660 C 0.89955 0.77134 0.57961
 C661 C 0.90876 0.79358 0.61921
 C662 C 0.93343 0.77226 0.64451
 C663 C 0.96486 0.73819 0.58555
 C664 C 0.94084 0.76120 0.56144
 H665 H 0.90137 0.67631 0.62514
 H666 H 0.85452 0.71664 0.58115
 H667 H 0.89597 0.82310 0.62727
 H668 H 0.94152 0.78384 0.67423
 H669 H 0.98919 0.72120 0.57212
 H670 H 0.94903 0.76790 0.53067
 C671 C 0.95462 0.25337 0.36431
 C672 C 0.97337 0.21271 0.37848
 C673 C 0.95142 0.19231 0.40674
 C674 C 0.91082 0.21278 0.41701
 C675 C 0.92141 0.25627 0.43027
 C676 C 0.94322 0.27749 0.40266
 C677 C 0.91305 0.23852 0.34795
 C678 C 0.89009 0.21787 0.37569
 H679 H 0.99695 0.19685 0.36244
 H680 H 0.95938 0.16139 0.41580
 H681 H 0.91104 0.26997 0.45833
 H682 H 0.95094 0.30948 0.40720
 H683 H 0.90377 0.24057 0.31654
 H684 H 0.86130 0.20395 0.36801
 C685 C 0.05091 0.27204 0.62818
 C686 C 0.03458 0.26408 0.58546
 C687 C 0.05891 0.24090 0.56192
 C688 C 0.09988 0.23076 0.58083
 C689 C 0.11683 0.27268 0.59371
 C690 C 0.09117 0.29451 0.61791
 C691 C 0.06520 0.23046 0.64520
 C692 C 0.09011 0.20886 0.62043
 H693 H 0.01096 0.28158 0.57136
 H694 H 0.05149 0.23471 0.53086
 H695 H 0.14503 0.28537 0.58263
 H696 H 0.09761 0.32617 0.62557
 H697 H 0.05694 0.21929 0.67501
 H698 H 0.10288 0.17947 0.62898
 C699 C 0.04800 0.73940 0.36832
 C700 C 0.05709 0.71744 0.40849
 C701 C 0.07962 0.73933 0.43509
 C702 C 0.09304 0.78111 0.41913
 C703 C 0.11427 0.77175 0.37881
 C704 C 0.09072 0.75038 0.35207
 C705 C 0.03142 0.78201 0.37920
 C706 C 0.05397 0.80311 0.40645
 H707 H 0.04759 0.68630 0.41491
 H708 H 0.08877 0.72705 0.46419
 H709 H 0.14422 0.78283 0.37112
 H710 H 0.10079 0.74441 0.32140
 H711 H 0.00930 0.79807 0.36137
 H712 H 0.04777 0.83509 0.41296
 C713 C 0.63122 0.94653 0.73587
 C714 C 0.58773 0.96233 0.73865
 C715 C 0.56261 0.93833 0.76044
 C716 C 0.58165 0.89856 0.77561
 C717 C 0.59888 0.87863 0.73717
 C718 C 0.62441 0.90375 0.71614
 C719 C 0.64483 0.93592 0.77916
 C720 C 0.61885 0.91156 0.79999
 H721 H 0.57500 0.98443 0.71817
 H722 H 0.53059 0.94359 0.76020
 H723 H 0.59013 0.84863 0.72614
 H724 H 0.63569 0.89490 0.68667
 H725 H 0.67349 0.94572 0.79189
 H726 H 0.62521 0.90088 0.83043
 C727 C 0.36793 0.95027 0.26727
 C728 C 0.40913 0.94127 0.28695
 C729 C 0.43472 0.91872 0.26401
 C730 C 0.41674 0.90469 0.22374
 C731 C 0.37728 0.88276 0.23525
 C732 C 0.35142 0.90663 0.25757
 C733 C 0.37594 0.96649 0.22438
 C734 C 0.40233 0.94387 0.20239
 H735 H 0.41720 0.95123 0.31726
 H736 H 0.46448 0.90977 0.27467
 H737 H 0.36928 0.85234 0.22474
 H738 H 0.32111 0.89627 0.26474
 H739 H 0.35699 0.98869 0.20942
 H740 H 0.40686 0.94990 0.17042
 C741 C 0.63162 0.05633 0.26736
 C742 C 0.62437 0.09915 0.28700
 C743 C 0.59836 0.12387 0.26579
 C744 C 0.58124 0.10346 0.22746
 C745 C 0.61853 0.09081 0.20316
 C746 C 0.64496 0.06710 0.22412
 C747 C 0.58829 0.04007 0.26490
 C748 C 0.56272 0.06365 0.24308
 H749 H 0.63513 0.10815 0.31668
 H750 H 0.58889 0.15367 0.27682
 H751 H 0.62479 0.10156 0.17273
 H752 H 0.67389 0.05794 0.21151
 H753 H 0.57611 0.01783 0.28560
 H754 H 0.53070 0.05829 0.24396
 C755 C 0.36737 0.05158 0.73672
 C756 C 0.37715 0.03523 0.77927
 C757 C 0.40410 0.05806 0.80045
 C758 C 0.41722 0.09745 0.77874
 C759 C 0.43391 0.08372 0.73784
 C760 C 0.40781 0.06093 0.71574
 C761 C 0.35076 0.09500 0.74720
 C762 C 0.37711 0.11901 0.76868
 H763 H 0.35900 0.01289 0.79486
 H764 H 0.40993 0.05203 0.83221
 H765 H 0.46314 0.09299 0.72619
 H766 H 0.41497 0.05108 0.68518
 H767 H 0.32013 0.10513 0.74095
 H768 H 0.36916 0.14934 0.77952
 C769 C 0.62829 0.74101 0.04797
 C770 C 0.64761 0.75389 0.08900
 C771 C 0.62250 0.77593 0.11369
 C772 C 0.58079 0.78418 0.09499
 C773 C 0.59042 0.80478 0.05431
 C774 C 0.61610 0.78295 0.03063
 C775 C 0.58907 0.71934 0.06071
 C776 C 0.56415 0.74193 0.08428
 H777 H 0.67919 0.74939 0.09669
 H778 H 0.63242 0.78872 0.14233
 H779 H 0.58306 0.83641 0.04735
 H780 H 0.63171 0.79802 0.00628
 H781 H 0.58190 0.68800 0.05240
 H782 H 0.53573 0.73000 0.09569
 C783 C 0.36838 0.26121 0.04649
 C784 C 0.40779 0.28359 0.05745
 C785 C 0.43324 0.26225 0.08172
 C786 C 0.41699 0.22050 0.09479
 C787 C 0.37557 0.22968 0.11374
 C788 C 0.34996 0.25048 0.08846
 C789 C 0.38050 0.21850 0.03103
 C790 C 0.40665 0.19793 0.05532
 H791 H 0.41447 0.31468 0.04792
 H792 H 0.46150 0.27504 0.09249
 H793 H 0.36639 0.21882 0.14336
 H794 H 0.31873 0.25618 0.09675
 H795 H 0.36420 0.20197 0.00813
 H796 H 0.41379 0.16595 0.04986
 C797 C 0.62914 0.26606 0.94964
 C798 C 0.64549 0.22334 0.93818
 C799 C 0.62101 0.20124 0.91327
 C800 C 0.58237 0.22382 0.90097
 C801 C 0.56253 0.23632 0.94077
 C802 C 0.58585 0.25985 0.96488
 C803 C 0.62118 0.28668 0.90799
 C804 C 0.59710 0.26445 0.88255
 H805 H 0.67457 0.21181 0.94833
 H806 H 0.62909 0.17100 0.90230
 H807 H 0.53155 0.22989 0.94811
 H808 H 0.57196 0.27741 0.98852
 H809 H 0.63093 0.31732 0.90003
 H810 H 0.58793 0.27579 0.85309
 C811 C 0.37369 0.73408 0.95341
 C812 C 0.35400 0.74333 0.91159
 C813 C 0.37783 0.76554 0.88589
 C814 C 0.41873 0.77745 0.90436
 C815 C 0.40747 0.79963 0.94378
 C816 C 0.38308 0.77759 0.96849
 C817 C 0.41428 0.71418 0.94218
 C818 C 0.43791 0.73694 0.91747
 H819 H 0.32303 0.73582 0.90377
 H820 H 0.36752 0.77574 0.85638
 H821 H 0.41256 0.83205 0.94896
 H822 H 0.36619 0.79306 0.99170
 H823 H 0.42325 0.68381 0.95215
 H824 H 0.46705 0.72615 0.90674
 C825 C 0.73425 0.94938 0.37006
 C826 C 0.71172 0.90868 0.37950
 C827 C 0.73268 0.88237 0.40403
 C828 C 0.77401 0.89913 0.41773
 C829 C 0.79624 0.90916 0.37848
 C830 C 0.77539 0.93469 0.35356
 C831 C 0.74172 0.96551 0.41302
 C832 C 0.76408 0.94055 0.43673
 H833 H 0.68065 0.90237 0.37105
 H834 H 0.71986 0.85373 0.41459
 H835 H 0.82518 0.89593 0.37018
 H836 H 0.78667 0.94296 0.32383
 H837 H 0.72497 0.98990 0.42692
 H838 H 0.77035 0.94805 0.46782
 C839 C 0.26498 0.95383 0.62732
 C840 C 0.28472 0.91130 0.61947
 C841 C 0.26245 0.88580 0.59541
 C842 C 0.22275 0.90514 0.58037
 C843 C 0.20059 0.91820 0.61883
 C844 C 0.22271 0.94281 0.64344
 C845 C 0.25922 0.96935 0.58370
 C846 C 0.23620 0.94486 0.55987
 H847 H 0.31493 0.90289 0.62913
 H848 H 0.27335 0.85588 0.58614
 H849 H 0.17071 0.90732 0.62705
 H850 H 0.21164 0.95255 0.67281
 H851 H 0.27808 0.99202 0.56966
 H852 H 0.23359 0.95007 0.52752
 C853 C 0.26828 0.05048 0.37687
 C854 C 0.22681 0.06346 0.35998
 C855 C 0.20538 0.08908 0.38418
 C856 C 0.22744 0.10105 0.42305
 C857 C 0.23877 0.06071 0.44375
 C858 C 0.26109 0.03518 0.42033
 C859 C 0.28974 0.09202 0.38518
 C860 C 0.26819 0.11852 0.40883
 H861 H 0.21579 0.05421 0.33041
 H862 H 0.17613 0.10133 0.37543
 H863 H 0.23543 0.05565 0.47606
 H864 H 0.27878 0.01175 0.43474
 H865 H 0.32042 0.09902 0.37599
 H866 H 0.28020 0.14791 0.41829
 C867 C 0.74058 0.04631 0.63240
 C868 C 0.75099 0.08977 0.64853
 C869 C 0.77295 0.11328 0.62211
 C870 C 0.78325 0.09123 0.58227
 C871 C 0.80446 0.05176 0.59607
 C872 C 0.78288 0.02939 0.62297
 C873 C 0.71998 0.05524 0.59161
 C874 C 0.74239 0.07763 0.56534
 H875 H 0.74419 0.10038 0.67886
 H876 H 0.78371 0.14370 0.62974
 H877 H 0.83627 0.04548 0.59093
 H878 H 0.79833 0.00764 0.64194
 H879 H 0.68919 0.04612 0.58465
 H880 H 0.73095 0.08690 0.53596
 C881 C 0.95095 0.62920 0.26228
 C882 C 0.96643 0.58585 0.25305
 C883 C 0.94100 0.56277 0.23066
 C884 C 0.90010 0.58273 0.22209
 C885 C 0.88443 0.59558 0.26398
 C886 C 0.91103 0.61939 0.28509
 C887 C 0.93637 0.64712 0.22157
 C888 C 0.91023 0.62290 0.20061
 H889 H 0.99129 0.57111 0.26779
 H890 H 0.94837 0.53175 0.22229
 H891 H 0.85605 0.58527 0.27686
 H892 H 0.90526 0.62784 0.31625
 H893 H 0.94554 0.67698 0.21048
 H894 H 0.89722 0.63201 0.17183
 C895 C 0.94904 0.37511 0.73161
 C896 C 0.93701 0.35785 0.77319
 C897 C 0.91268 0.38256 0.79546
 C898 C 0.90094 0.42231 0.77406
 C899 C 0.94079 0.44270 0.76190
 C900 C 0.96504 0.41873 0.73874
 C901 C 0.90764 0.38434 0.71113
 C902 C 0.88242 0.40856 0.73357
 H903 H 0.94625 0.32781 0.78385
 H904 H 0.90135 0.37370 0.82500
 H905 H 0.94661 0.47520 0.76577
 H906 H 0.98874 0.43260 0.72119
 H907 H 0.90001 0.37619 0.68025
 H908 H 0.85345 0.41912 0.72219
 C909 C 0.04853 0.62788 0.73352
 C910 C 0.03285 0.58419 0.74123
 C911 C 0.05764 0.56047 0.76408
 C912 C 0.09766 0.58107 0.77532
 C913 C 0.11525 0.59460 0.73436
 C914 C 0.08948 0.61852 0.71227
 C915 C 0.06149 0.64541 0.77477
 C916 C 0.08629 0.62088 0.79673
 H917 H 0.00915 0.56989 0.72402
 H918 H 0.05211 0.52793 0.76811
 H919 H 0.14395 0.58401 0.72239
 H920 H 0.09636 0.62639 0.68115
 H921 H 0.05261 0.67559 0.78535
 H922 H 0.09830 0.62997 0.82595
 C923 C 0.04537 0.36426 0.25279
 C924 C 0.05722 0.40272 0.27694
 C925 C 0.08013 0.43010 0.25652
 C926 C 0.09107 0.41660 0.21368
 C927 C 0.11066 0.37425 0.21871
 C928 C 0.08669 0.34670 0.23854
 C929 C 0.02751 0.37935 0.21245
 C930 C 0.05054 0.40748 0.19276
 H931 H 0.04890 0.40752 0.30837
 H932 H 0.09092 0.45819 0.27035
 H933 H 0.13941 0.36578 0.20530
 H934 H 0.09508 0.31463 0.24047
 H935 H 0.00399 0.36372 0.19617
 H936 H 0.04342 0.41696 0.16211
   
