data_POSCAR
  _audit_creation_date              2014-09-24
  _audit_creation_method            'ToBaCCo'
  _symmetry_space_group_name_H-M    'P1'
  _symmetry_Int_Tables_number       1
  _symmetry_cell_setting            triclinic
  loop_
  _symmetry_equiv_pos_as_xyz
 x,y,z
_cell_length_a 41.6493
_cell_length_b 41.6493
_cell_length_c 41.6493
_cell_angle_alpha 90.000000
_cell_angle_beta 90.000000
_cell_angle_gamma 90.000000
loop_
  _atom_site_label
  _atom_site_type_symbol
  _atom_site_fract_x
  _atom_site_fract_y
  _atom_site_fract_z
N1 N 0.15825 1.23411 0.13981
 N2 N 0.13763 1.23375 0.16395
 C3 C 0.11729 1.25963 0.16030
 C4 C 0.12402 1.27837 0.13215
 C5 C 0.15071 1.26011 0.12019
 H6 H 0.09809 1.26449 0.17703
 H7 H 0.16397 1.26591 0.09863
 Cu8 Cu 0.13987 1.19679 0.19842
 Cu9 Cu 0.19367 1.19788 0.13848
 Cu10 Cu 0.19500 1.13702 0.19823
 N11 N 0.13853 1.16179 0.23481
 N12 N 0.15939 1.13783 0.23443
 C13 C 0.15279 1.11812 0.26057
 C14 C 0.12645 1.12966 0.27953
 C15 C 0.11895 1.15780 0.26127
 H16 H 0.16675 1.09698 0.26626
 H17 H 0.09994 1.17441 0.26732
 N18 N 0.23002 1.13832 0.16070
 N19 N 0.23001 1.16190 0.13912
 C20 C 0.25633 1.15747 0.11938
 C21 C 0.27458 1.12946 0.12719
 C22 C 0.25609 1.11854 0.15404
 H23 H 0.26240 1.17372 0.10007
 H24 H 0.26227 1.09785 0.16846
 H25 H 0.17090 1.16032 0.16199
 H26 H 0.19754 1.18513 0.18640
 N27 N 0.84127 0.77016 0.13109
 N28 N 0.86289 0.77053 0.15442
 C29 C 0.88387 0.74537 0.14921
 C30 C 0.87632 0.72675 0.12124
 C31 C 0.84843 0.74437 0.11100
 H32 H 0.90395 0.74056 0.16492
 H33 H 0.83478 0.73890 0.08960
 Cu34 Cu 0.86103 0.80631 0.19035
 Cu35 Cu 0.80611 0.80712 0.13033
 Cu36 Cu 0.80556 0.86476 0.19278
 N37 N 0.86270 0.84026 0.22814
 N38 N 0.84171 0.86411 0.22838
 C39 C 0.84825 0.88333 0.25488
 C40 C 0.87467 0.87162 0.27363
 C41 C 0.88221 0.84374 0.25485
 H42 H 0.83400 0.90411 0.26115
 H43 H 0.90110 0.82695 0.26080
 N44 N 0.77036 0.86552 0.15552
 N45 N 0.76978 0.84377 0.13211
 C46 C 0.74371 0.85104 0.11234
 C47 C 0.72606 0.87883 0.12283
 C48 C 0.74500 0.88632 0.15060
 H49 H 0.73771 0.83723 0.09118
 H50 H 0.74020 0.90618 0.16656
 H51 H 0.82930 0.84333 0.15508
 H52 H 0.80309 0.81717 0.17847
 N53 N 0.84109 1.23180 -0.13884
 N54 N 0.86202 1.23121 -0.16279
 C55 C 0.88175 1.25782 -0.15948
 C56 C 0.87443 1.27693 -0.13170
 C57 C 0.84793 1.25840 -0.11981
 H58 H 0.90078 1.26338 -0.17624
 H59 H 0.83399 1.26473 -0.09884
 Cu60 Cu 0.86031 1.19301 -0.19654
 Cu61 Cu 0.80498 1.19606 -0.13654
 Cu62 Cu 0.80566 1.13292 -0.19305
 N63 N 0.86165 1.15634 -0.23205
 N64 N 0.84007 1.13313 -0.22990
 C65 C 0.84543 1.11169 -0.25455
 C66 C 0.87185 1.12044 -0.27476
 C67 C 0.88096 1.14961 -0.25858
 H68 H 0.83079 1.09053 -0.25782
 H69 H 0.90086 1.16465 -0.26579
 N70 N 0.77011 1.13463 -0.15648
 N71 N 0.76929 1.15897 -0.13585
 C72 C 0.74268 1.15450 -0.11635
 C73 C 0.72532 1.12555 -0.12328
 C74 C 0.74450 1.11436 -0.14950
 H75 H 0.73570 1.17141 -0.09793
 H76 H 0.73905 1.09310 -0.16337
 H77 H 0.82941 1.15874 -0.15773
 H78 H 0.80253 1.18162 -0.18389
 N79 N 0.16006 0.76837 -0.13602
 N80 N 0.13645 0.76885 -0.15732
 C81 C 0.11619 0.74307 -0.15059
 C82 C 0.12690 0.72422 -0.12371
 C83 C 0.15534 0.74214 -0.11619
 H84 H 0.09532 0.73735 -0.16493
 H85 H 0.17177 0.73592 -0.09707
 Cu86 Cu 0.13773 0.80486 -0.19338
 Cu87 Cu 0.19638 0.80393 -0.13684
 Cu88 Cu 0.19474 0.86243 -0.19828
 N89 N 0.13556 0.83915 -0.23104
 N90 N 0.15802 0.86153 -0.23335
 C91 C 0.15094 0.88059 -0.25990
 C92 C 0.12231 0.87059 -0.27631
 C93 C 0.11418 0.84384 -0.25602
 H94 H 0.16551 0.90086 -0.26703
 H95 H 0.09349 0.82860 -0.25955
 N96 N 0.23223 0.86193 -0.16319
 N97 N 0.23229 0.84072 -0.13930
 C98 C 0.25872 0.84738 -0.11992
 C99 C 0.27757 0.87384 -0.13141
 C100 C 0.25896 0.88140 -0.15937
 H101 H 0.26481 0.83331 -0.09897
 H102 H 0.26496 0.90048 -0.17592
 H103 H 0.17242 0.84067 -0.15949
 H104 H 0.19661 0.81460 -0.18516
 C105 C 0.47455 1.02349 0.02078
 C106 C 0.49878 1.00121 0.03962
 C107 C 0.52101 0.98273 0.02208
 C108 C 0.51281 0.98675 -0.01565
 C109 C 0.49843 1.04175 -0.00262
 C110 C 0.52023 1.02425 -0.02128
 C111 C 0.45657 1.00053 -0.00125
 C112 C 0.47336 0.98057 -0.02082
 H113 H 0.50055 1.00344 0.06543
 H114 H 0.52790 0.97109 -0.03101
 H115 H 0.50048 1.06742 -0.00141
 H116 H 0.43060 1.00140 -0.00226
 C117 C 0.01953 0.47517 1.02318
 C118 C 0.04060 0.49760 1.00100
 C119 C 0.02508 0.51954 0.98032
 C120 C -0.01305 0.51309 0.98288
 C121 C -0.00335 0.50101 1.03929
 C122 C -0.02013 0.52260 1.01979
 C123 C -0.00218 0.45713 1.00005
 C124 C -0.02000 0.47371 0.97844
 H125 H 0.06610 0.49846 1.00539
 H126 H -0.02698 0.52803 0.96580
 H127 H -0.00158 0.50579 1.06472
 H128 H -0.00227 0.43111 1.00033
 C129 C 1.02057 0.02222 0.47862
 C130 C 0.99655 0.03849 0.50378
 C131 C 0.97746 0.01843 0.52266
 C132 C 0.98348 -0.01806 0.51148
 C133 C 1.03918 -0.00205 0.50181
 C134 C 1.02060 -0.02271 0.52096
 C135 C 0.99883 0.00089 0.45794
 C136 C 0.97911 -0.02064 0.47216
 H137 H 0.99768 0.06375 0.50933
 H138 H 0.96759 -0.03520 0.52398
 H139 H 1.06478 0.00013 0.50551
 H140 H 1.00011 0.00233 0.43201
 C141 C 0.09267 0.35503 1.08176
 C142 C 0.07108 0.36729 1.10343
 C143 C 0.06610 0.35185 1.13296
 C144 C 0.08342 0.32325 1.14097
 C145 C 0.10698 0.30858 1.12053
 C146 C 0.11134 0.32583 1.08982
 O147 O 0.09281 0.37339 1.05449
 C148 C 0.07115 0.39766 1.05928
 C149 C 0.05747 0.39490 1.08910
 C150 C 0.03433 0.41724 1.09927
 C151 C 0.02442 0.44297 1.07868
 C152 C 0.03688 0.44813 1.04698
 C153 C 0.06105 0.42389 1.03757
 H154 H 0.04887 0.36157 1.14980
 H155 H 0.07830 0.31287 1.16417
 H156 H 0.12839 0.31667 1.07251
 H157 H 0.02347 0.41468 1.12274
 H158 H 0.00555 0.45826 1.08768
 H159 H 0.07120 0.42497 1.01369
 C160 C -0.09258 0.64559 1.07250
 C161 C -0.06208 0.64333 1.08476
 C162 C -0.05115 0.66595 1.10728
 C163 C -0.07153 0.69160 1.11782
 C164 C -0.10367 0.69654 1.10660
 C165 C -0.11394 0.67220 1.08284
 O166 O -0.09807 0.62084 1.05150
 C167 C -0.07053 0.60282 1.05050
 C168 C -0.04786 0.61593 1.07052
 C169 C -0.01750 0.60152 1.07348
 C170 C -0.00987 0.57285 1.05607
 C171 C -0.03169 0.55673 1.03491
 C172 C -0.06309 0.57310 1.03227
 H173 H -0.02708 0.66393 1.11687
 H174 H -0.06152 0.70819 1.13509
 H175 H -0.13790 0.67364 1.07293
 H176 H 0.00027 0.61209 1.08922
 H177 H 0.01389 0.56287 1.05949
 H178 H -0.08145 0.56270 1.01714
 C179 C -0.09010 0.35418 0.91956
 C180 C -0.07969 0.37366 0.89498
 C181 C -0.08314 0.36309 0.86298
 C182 C -0.09743 0.33238 0.85580
 C183 C -0.10976 0.31082 0.87965
 C184 C -0.10565 0.32299 0.91262
 O185 O -0.08348 0.36806 0.94848
 C186 C -0.06896 0.39677 0.94211
 C187 C -0.06630 0.40164 0.90967
 C188 C -0.05200 0.43040 0.89828
 C189 C -0.03963 0.45439 0.92025
 C190 C -0.04049 0.45081 0.95439
 C191 C -0.05610 0.42063 0.96470
 H192 H -0.07466 0.37813 0.84357
 H193 H -0.09925 0.32553 0.83080
 H194 H -0.11378 0.30836 0.93247
 H195 H -0.04988 0.43428 0.87268
 H196 H -0.02788 0.47532 0.91030
 H197 H -0.05760 0.41536 0.99009
 C198 C 0.07514 0.64748 0.91333
 C199 C 0.10014 0.62791 0.92210
 C200 C 0.13204 0.63784 0.91701
 C201 C 0.13899 0.66841 0.90269
 C202 C 0.11495 0.69046 0.89193
 C203 C 0.08183 0.67882 0.89768
 O204 O 0.04648 0.63333 0.92141
 C205 C 0.05361 0.60431 0.93529
 C206 C 0.08628 0.60006 0.93586
 C207 C 0.09934 0.57161 0.94828
 C208 C 0.07903 0.54686 0.96084
 C209 C 0.04462 0.54889 0.96278
 C210 C 0.03210 0.57917 0.94884
 H211 H 0.15161 0.62236 0.92426
 H212 H 0.16399 0.67476 0.89959
 H213 H 0.06186 0.69390 0.89075
 H214 H 0.12510 0.56819 0.94808
 H215 H 0.09115 0.52548 0.96899
 H216 H 0.00646 0.58327 0.94881
 C217 C 1.09233 0.07835 0.35707
 C218 C 1.07895 0.10288 0.37460
 C219 C 1.08019 0.13455 0.36297
 C220 C 1.09535 0.14163 0.33286
 C221 C 1.11046 0.11800 0.31299
 C222 C 1.10863 0.08525 0.32629
 O223 O 1.08753 0.04968 0.37232
 C224 C 1.07107 0.05633 0.39994
 C225 C 1.06547 0.08867 0.40242
 C226 C 1.04876 0.10090 0.42913
 C227 C 1.03683 0.07984 0.45371
 C228 C 1.04065 0.04561 0.45313
 C229 C 1.05892 0.03431 0.42487
 H230 H 1.06940 0.15375 0.37676
 H231 H 1.09551 0.16644 0.32517
 H232 H 1.11908 0.06561 0.31290
 H233 H 1.04447 0.12646 0.43095
 H234 H 1.02362 0.09098 0.47296
 H235 H 1.06260 0.00879 0.42176
 C236 C 1.09161 -0.08028 0.64259
 C237 C 1.06361 -0.09655 0.63649
 C238 C 1.05417 -0.12196 0.65661
 C239 C 1.07348 -0.13127 0.68360
 C240 C 1.10310 -0.11605 0.69231
 C241 C 1.11188 -0.08948 0.67043
 O242 O 1.09598 -0.05669 0.62007
 C243 C 1.07030 -0.05818 0.59953
 C244 C 1.04985 -0.08228 0.60879
 C245 C 1.02162 -0.08816 0.59117
 C246 C 1.01369 -0.06911 0.56355
 C247 C 1.03314 -0.04331 0.55176
 C248 C 1.06262 -0.03835 0.57098
 H249 H 1.03206 -0.13469 0.65168
 H250 H 1.06471 -0.15098 0.69800
 H251 H 1.13385 -0.07634 0.67482
 H252 H 1.00566 -0.10729 0.59855
 H253 H 0.99181 -0.07518 0.55101
 H254 H 1.07893 -0.01930 0.56426
 C255 C 0.91117 -0.07750 0.35036
 C256 C 0.91801 -0.10210 0.37134
 C257 C 0.91185 -0.13404 0.36196
 C258 C 0.89848 -0.14116 0.33085
 C259 C 0.88971 -0.11718 0.30779
 C260 C 0.89653 -0.08426 0.31875
 O261 O 0.92005 -0.04879 0.36335
 C262 C 0.93241 -0.05528 0.39302
 C263 C 0.93141 -0.08757 0.39934
 C264 C 0.94280 -0.09907 0.42930
 C265 C 0.95592 -0.07740 0.45309
 C266 C 0.95886 -0.04358 0.44805
 C267 C 0.94623 -0.03304 0.41664
 H268 H 0.91757 -0.15349 0.37822
 H269 H 0.89450 -0.16613 0.32486
 H270 H 0.89120 -0.06440 0.30288
 H271 H 0.94192 -0.12455 0.43434
 H272 H 0.96510 -0.08748 0.47521
 H273 H 0.94749 -0.00786 0.41039
 C274 C 0.91979 0.08978 0.64361
 C275 C 0.90647 0.05980 0.64030
 C276 C 0.88344 0.04905 0.66248
 C277 C 0.87352 0.06908 0.68866
 C278 C 0.88578 0.10071 0.69453
 C279 C 0.90999 0.11079 0.67063
 O280 O 0.94136 0.09517 0.61941
 C281 C 0.94158 0.06815 0.60066
 C282 C 0.92058 0.04582 0.61267
 C283 C 0.91699 0.01596 0.59723
 C284 C 0.93517 0.00837 0.56892
 C285 C 0.95769 0.02986 0.55433
 C286 C 0.96037 0.06086 0.57143
 H287 H 0.87305 0.02539 0.65975
 H288 H 0.85582 0.05917 0.70482
 H289 H 0.92078 0.13431 0.67281
 H290 H 0.90034 -0.00153 0.60683
 H291 H 0.93109 -0.01488 0.55820
 H292 H 0.97688 0.07881 0.56253
 C293 C 0.35072 1.07794 0.09071
 C294 C 0.37076 1.10273 0.08227
 C295 C 0.36118 1.13471 0.08742
 C296 C 0.33054 1.14183 0.10148
 C297 C 0.30826 1.11783 0.11183
 C298 C 0.31946 1.08476 0.10604
 O299 O 0.36427 1.04918 0.08255
 C300 C 0.39339 1.05598 0.06899
 C301 C 0.39846 1.08850 0.06860
 C302 C 0.42730 1.10090 0.05617
 C303 C 0.45141 1.07995 0.04317
 C304 C 0.44805 1.04570 0.04110
 C305 C 0.41766 1.03409 0.05531
 H306 H 0.37693 1.15415 0.08042
 H307 H 0.32431 1.16685 0.10470
 H308 H 0.30408 1.06491 0.11267
 H309 H 0.43139 1.12656 0.05643
 H310 H 0.47295 1.09139 0.03458
 H311 H 0.41262 1.00862 0.05507
 C312 C 0.64967 1.07398 -0.08475
 C313 C 0.62710 1.09790 -0.08307
 C314 C 0.63478 1.12926 -0.09311
 C315 C 0.66615 1.13674 -0.10525
 C316 C 0.69116 1.11355 -0.10896
 C317 C 0.68188 1.08101 -0.09817
 O318 O 0.63732 1.04593 -0.07268
 C319 C 0.60635 1.05227 -0.06349
 C320 C 0.59915 1.08381 -0.06981
 C321 C 0.56836 1.09571 -0.06326
 C322 C 0.54426 1.07548 -0.04945
 C323 C 0.54928 1.04258 -0.04031
 C324 C 0.58189 1.03102 -0.04846
 H325 H 0.61691 1.14805 -0.09134
 H326 H 0.67082 1.16129 -0.11238
 H327 H 0.69934 1.06185 -0.09961
 H328 H 0.56265 1.12041 -0.06897
 H329 H 0.52093 1.08626 -0.04607
 H330 H 0.58831 1.00651 -0.04277
 C331 C 0.35400 0.91013 -0.07955
 C332 C 0.37463 0.91845 -0.10399
 C333 C 0.36510 0.91333 -0.13609
 C334 C 0.33424 0.89949 -0.14351
 C335 C 0.31153 0.88924 -0.11977
 C336 C 0.32263 0.89503 -0.08668
 O337 O 0.36701 0.91821 -0.05061
 C338 C 0.39635 0.93151 -0.05678
 C339 C 0.40245 0.93197 -0.08913
 C340 C 0.43201 0.94471 -0.10032
 C341 C 0.45555 0.95778 -0.07829
 C342 C 0.45072 0.95921 -0.04432
 C343 C 0.41974 0.94516 -0.03417
 H344 H 0.38105 0.92019 -0.15542
 H345 H 0.32819 0.89636 -0.16859
 H346 H 0.30706 0.88857 -0.06693
 H347 H 0.43685 0.94508 -0.12584
 H348 H 0.47717 0.96828 -0.08817
 H349 H 0.41353 0.94549 -0.00895
 C350 C 0.64527 0.91063 0.07351
 C351 C 0.63938 0.93833 0.09032
 C352 C 0.65942 0.94723 0.11593
 C353 C 0.68622 0.92766 0.12496
 C354 C 0.69485 0.89825 0.10931
 C355 C 0.67301 0.89003 0.08245
 O356 O 0.62262 0.90691 0.04986
 C357 C 0.60223 0.93272 0.05191
 C358 C 0.61180 0.95249 0.07647
 C359 C 0.59459 0.98065 0.08324
 C360 C 0.56671 0.98904 0.06499
 C361 C 0.55401 0.97017 0.03912
 C362 C 0.57338 0.94106 0.03258
 H363 H 0.65456 0.96914 0.12902
 H364 H 0.70056 0.93615 0.14482
 H365 H 0.67733 0.86825 0.06898
 H366 H 0.60250 0.99623 0.10248
 H367 H 0.55502 1.01135 0.07131
 H368 H 0.56600 0.92510 0.01348
   
