data_POSCAR
  _audit_creation_date              2014-09-24
  _audit_creation_method            'ToBaCCo'
  _symmetry_space_group_name_H-M    'P1'
  _symmetry_Int_Tables_number       1
  _symmetry_cell_setting            triclinic
  loop_
  _symmetry_equiv_pos_as_xyz
 x,y,z
_cell_length_a 17.7323
_cell_length_b 16.8759
_cell_length_c 44.0266
_cell_angle_alpha 80.633400
_cell_angle_beta 94.479600
_cell_angle_gamma 118.555800
loop_
  _atom_site_label
  _atom_site_type_symbol
  _atom_site_fract_x
  _atom_site_fract_y
  _atom_site_fract_z
C1 C -0.02671 0.20722 0.51527
 H2 H 0.02667 0.24895 0.49985
 C3 C -0.04167 0.24665 0.53805
 H4 H -0.00061 0.31835 0.53953
 C5 C -0.13857 0.06193 0.53487
 H6 H -0.17272 -0.01085 0.53470
 C7 C -0.15527 0.09869 0.55818
 H8 H -0.20330 0.05425 0.57549
 N9 N -0.07401 0.11598 0.51432
 C10 C -0.05721 -0.11769 0.51320
 H11 H -0.09266 -0.13801 0.49229
 C12 C -0.05653 -0.18407 0.53660
 H13 H -0.09168 -0.25536 0.53367
 C14 C 0.02759 -0.00108 0.54354
 H15 H 0.05774 0.07014 0.54640
 C16 C 0.02980 -0.06526 0.56751
 H17 H 0.06217 -0.04339 0.58884
 Zn18 Zn -0.03658 0.05833 0.48982
 N19 N -0.01746 -0.02849 0.51742
 C20 C 0.13819 0.13576 0.47114
 N21 N 0.06615 0.14591 0.46878
 C22 C 0.06132 0.21314 0.44833
 C23 C 0.12935 0.27142 0.42846
 C24 C 0.20782 0.19254 0.45143
 C25 C -0.20199 -0.06525 0.46719
 C26 C -0.25636 -0.11888 0.44544
 C27 C -0.14041 -0.04016 0.40857
 C28 C -0.08845 0.01076 0.43092
 N29 N -0.11911 -0.00271 0.45975
 H30 H 0.13998 0.08085 0.48715
 H31 H 0.00253 0.21822 0.44638
 H32 H 0.12320 0.32205 0.41139
 H33 H 0.26338 0.18152 0.45235
 H34 H -0.22489 -0.07685 0.49033
 H35 H -0.32100 -0.17097 0.45196
 H36 H -0.11344 -0.03019 0.38611
 H37 H -0.02208 0.05750 0.42542
 C38 C -0.01441 -0.15776 0.56427
 C39 C -0.10496 0.19157 0.56016
 C40 C -0.22456 -0.10685 0.41594
 C41 C 0.20246 0.25984 0.42954
 C42 C 1.23242 0.09047 0.13079
 H43 H 1.24859 0.15930 0.13361
 C44 C 1.28126 0.07596 0.11119
 H45 H 1.33532 0.13374 0.09900
 C46 C 1.13849 -0.06848 0.14143
 H47 H 1.08151 -0.12414 0.15269
 C48 C 1.18556 -0.08600 0.12183
 H49 H 1.16469 -0.15526 0.11796
 N50 N 1.16178 0.01887 0.14504
 C51 C 0.94520 0.06886 0.14758
 H52 H 0.93341 0.05861 0.17200
 C53 C 0.88163 0.06811 0.12646
 H54 H 0.82111 0.05782 0.13463
 C55 C 1.03459 0.08560 0.10705
 H56 H 1.09265 0.08901 0.09951
 C57 C 0.97333 0.08604 0.08527
 H58 H 0.98486 0.09000 0.06112
 Zn59 Zn 1.09114 0.04706 0.16647
 N60 N 1.01882 0.07481 0.13761
 C61 C 1.13716 0.20841 0.19239
 N62 N 1.16185 0.14621 0.18789
 C63 C 1.23378 0.14691 0.20145
 C64 C 1.28269 0.21016 0.22116
 C65 C 1.18424 0.27281 0.21212
 C66 C 0.94530 -0.12125 0.18552
 C67 C 0.88205 -0.18424 0.20673
 C68 C 0.97451 -0.10992 0.24779
 C69 C 1.03545 -0.04806 0.22590
 N70 N 1.01912 -0.05322 0.19537
 H71 H 1.07909 0.20565 0.18173
 H72 H 1.25098 0.09554 0.19802
 H73 H 1.33784 0.20769 0.23279
 H74 H 1.16232 0.31964 0.21668
 H75 H 0.93314 -0.12295 0.16111
 H76 H 0.82136 -0.23477 0.19866
 H77 H 0.98646 -0.10223 0.27193
 H78 H 1.09374 0.00684 0.23335
 C79 C 0.89520 0.07455 0.09507
 C80 C 1.25678 -0.01283 0.10621
 C81 C 0.89615 -0.17692 0.23811
 C82 C 1.25689 0.27257 0.22700
 C83 C 0.05955 0.84640 0.88515
 H84 H 0.00076 0.78227 0.88707
 C85 C 0.12754 0.85644 0.90506
 H86 H 0.12136 0.79963 0.92214
 C87 C 0.13648 1.00097 0.86236
 H88 H 0.13833 1.05768 0.84633
 C89 C 0.20608 1.01412 0.88210
 H90 H 0.26165 1.08093 0.88119
 N91 N 0.06443 0.91847 0.86469
 C92 C -0.20373 0.86051 0.86587
 H93 H -0.22636 0.84933 0.84269
 C94 C -0.25828 0.85958 0.88753
 H95 H -0.32277 0.84707 0.88094
 C96 C -0.09066 0.89803 0.90237
 H97 H -0.02438 0.91775 0.90799
 C98 C -0.14286 0.89678 0.92461
 H99 H -0.11633 0.91375 0.94712
 Zn100 Zn -0.03816 0.90291 0.84353
 N101 N -0.12097 0.88096 0.87347
 C102 C -0.13970 0.79712 0.79833
 N103 N -0.07535 0.80777 0.81898
 C104 C -0.02806 0.76401 0.81811
 C105 C -0.04278 0.70968 0.79531
 C106 C -0.15616 0.74371 0.77500
 C107 C -0.05855 1.05836 0.82012
 C108 C -0.05767 1.12552 0.79672
 C109 C 0.02877 1.09338 0.76590
 C110 C 0.02636 1.02688 0.78987
 N111 N -0.01884 1.00902 0.81594
 H112 H -0.17385 0.83562 0.79845
 H113 H 0.02516 0.77577 0.83362
 H114 H -0.00170 0.67921 0.79390
 H115 H -0.20401 0.74004 0.75761
 H116 H -0.09411 1.04306 0.84100
 H117 H -0.09278 1.16157 0.79961
 H118 H 0.06126 1.10405 0.74460
 H119 H 0.05648 0.98590 0.78704
 C120 C -0.22680 0.87924 0.91706
 C121 C 0.20067 0.94143 0.90400
 C122 C -0.01540 1.14154 0.76909
 C123 C -0.10582 0.70136 0.77310
 C124 C 0.32420 -0.03573 0.00528
 C125 C 0.35974 -0.03317 -0.02226
 C126 C 0.43989 -0.03039 -0.02221
 C127 C 0.48420 -0.03349 0.00572
 C128 C 0.44637 -0.03750 0.03344
 C129 C 0.36752 -0.03703 0.03305
 C130 C 0.56917 -0.03243 0.00587
 C131 C 0.63057 0.00406 0.02914
 C132 C 0.70963 0.00420 0.02924
 C133 C 0.72940 -0.02913 0.00574
 C134 C 0.67042 -0.06411 -0.01768
 C135 C 0.59012 -0.06743 -0.01741
 H136 H 0.26258 -0.03658 0.00509
 H137 H 0.46719 -0.02526 -0.04403
 H138 H 0.47729 -0.04146 0.05539
 H139 H 0.61800 0.03317 0.04704
 H140 H 0.79130 -0.02757 0.00562
 H141 H 0.54461 -0.09761 -0.03531
 C142 C -0.07417 0.67297 0.66763
 C143 C -0.09444 0.60964 0.69442
 C144 C -0.09768 0.52531 0.69393
 C145 C -0.07788 0.50453 0.66678
 C146 C -0.05635 0.57000 0.64005
 C147 C -0.05565 0.65314 0.64044
 C148 C -0.07790 0.41604 0.66650
 C149 C -0.09750 0.37549 0.63932
 C150 C -0.09430 0.29438 0.63884
 C151 C -0.07429 0.25128 0.66566
 C152 C -0.05597 0.28959 0.69287
 C153 C -0.05663 0.37205 0.69326
 H154 H -0.07187 0.73820 0.66804
 H155 H -0.11532 0.47659 0.71481
 H156 H -0.03884 0.55755 0.61899
 H157 H -0.11493 0.40661 0.61842
 H158 H -0.07202 0.18833 0.66526
 H159 H -0.03927 0.40200 0.71435
 C160 C 0.73194 0.76024 0.32785
 C161 C 0.71158 0.70724 0.30426
 C162 C 0.63226 0.62829 0.30436
 C163 C 0.57119 0.60324 0.32771
 C164 C 0.59273 0.65908 0.35109
 C165 C 0.67329 0.73610 0.35136
 C166 C 0.48592 0.51934 0.32784
 C167 C 0.44172 0.47164 0.35577
 C168 C 0.36131 0.39428 0.35580
 C169 C 0.32537 0.36156 0.32822
 C170 C 0.36856 0.40647 0.30045
 C171 C 0.44768 0.48581 0.30009
 H172 H 0.79402 0.82061 0.32797
 H173 H 0.61924 0.58670 0.28637
 H174 H 0.54749 0.64365 0.36907
 H175 H 0.46931 0.49359 0.37761
 H176 H 0.26354 0.30078 0.32838
 H177 H 0.47850 0.52092 0.27813
 C178 C -0.10827 0.22769 0.58717
 C179 C -0.10488 0.25821 0.61046
 C180 C 0.82758 0.77213 0.26015
 C181 C 0.77272 0.73782 0.27973
 C182 C 0.26385 -0.04483 -0.07205
 C183 C 0.31084 -0.03743 -0.05017
 C184 C -0.02489 0.77440 0.59041
 C185 C -0.03732 0.71843 0.61292
 C186 C 0.29885 0.32750 0.25105
 C187 C 0.33209 0.36715 0.27278
 C188 C 0.72777 -0.10877 -0.06219
 C189 C 0.69639 -0.09179 -0.04248
 C190 C 0.29849 -0.02647 0.08231
 C191 C 0.33146 -0.03347 0.06066
 C192 C 0.73179 0.83809 0.39595
 C193 C 0.69984 0.78968 0.37622
 C194 C -0.02565 0.19898 0.74295
 C195 C -0.03788 0.24258 0.72042
 C196 C 0.82628 0.05637 0.07314
 C197 C 0.77113 0.03535 0.05366
 C198 C 0.26562 0.30955 0.40560
 C199 C 0.31254 0.34936 0.38372
 C200 C -0.10887 0.66206 0.74608
 C201 C -0.10526 0.63506 0.72279
   
