data_POSCAR
  _audit_creation_date              2014-09-24
  _audit_creation_method            'ToBaCCo'
  _symmetry_space_group_name_H-M    'P1'
  _symmetry_Int_Tables_number       1
  _symmetry_cell_setting            triclinic
  loop_
  _symmetry_equiv_pos_as_xyz
 x,y,z
_cell_length_a 33.8782
_cell_length_b 30.8076
_cell_length_c 6.5581
_cell_angle_alpha 89.099600
_cell_angle_beta 93.206700
_cell_angle_gamma 89.552700
loop_
  _atom_site_label
  _atom_site_type_symbol
  _atom_site_fract_x
  _atom_site_fract_y
  _atom_site_fract_z
C1 C 0.25392 0.27220 0.14018
 C2 C 0.24943 0.22847 0.15555
 C3 C 0.21559 0.20652 0.04667
 C4 C 0.27933 0.20118 0.27453
 C5 C 0.29344 0.29221 0.16854
 C6 C 0.22033 0.30101 0.07382
 C7 C 0.19460 0.17422 0.14536
 C8 C 0.16361 0.15280 0.04110
 C9 C 0.15270 0.16310 -0.16546
 C10 C 0.17435 0.19532 -0.26438
 C11 C 0.20566 0.21620 -0.16013
 C12 C 0.29195 0.21243 0.47442
 C13 C 0.32077 0.18759 0.58457
 C14 C 0.33783 0.15119 0.49704
 C15 C 0.32458 0.13950 0.29844
 C16 C 0.29546 0.16408 0.18871
 C17 C 0.32474 0.27622 0.05994
 C18 C 0.36137 0.29642 0.07075
 C19 C 0.36741 0.33343 0.19020
 C20 C 0.33635 0.34887 0.30398
 C21 C 0.29945 0.32868 0.29133
 C22 C 0.22084 0.32481 -0.11025
 C23 C 0.18843 0.35071 -0.17600
 C24 C 0.15570 0.35438 -0.05475
 C25 C 0.15574 0.33151 0.13204
 C26 C 0.18761 0.30454 0.19473
 H27 H 0.20223 0.16550 0.30340
 H28 H 0.14820 0.12806 0.12398
 H29 H 0.16779 0.20448 -0.42256
 H30 H 0.22246 0.23973 -0.24234
 H31 H 0.27973 0.24076 0.54453
 H32 H 0.33022 0.19737 0.73636
 H33 H 0.28624 0.15477 0.03481
 H34 H 0.32039 0.24858 -0.03717
 H35 H 0.38471 0.28309 -0.01590
 H36 H 0.34030 0.37719 0.39860
 H37 H 0.27555 0.34161 0.37584
 H38 H 0.24594 0.32243 -0.20486
 H39 H 0.18918 0.36835 -0.31982
 H40 H 0.13072 0.33379 0.22715
 H41 H 0.18695 0.28659 0.33799
 H42 H 0.33710 0.11157 0.22652
 C43 C 0.75004 0.22898 0.31713
 C44 C 0.75399 0.27023 0.38490
 C45 C 0.79269 0.29232 0.39713
 C46 C 0.72087 0.29359 0.47224
 C47 C 0.71101 0.20768 0.29106
 C48 C 0.78500 0.20286 0.26866
 C49 C 0.82209 0.27998 0.54614
 C50 C 0.85782 0.30247 0.56314
 C51 C 0.86472 0.33774 0.43074
 C52 C 0.83540 0.34927 0.27898
 C53 C 0.79967 0.32691 0.26302
 C54 C 0.71315 0.28610 0.67693
 C55 C 0.68214 0.30774 0.76492
 C56 C 0.65966 0.33925 0.65169
 C57 C 0.66863 0.34792 0.44801
 C58 C 0.69897 0.32521 0.35902
 C59 C 0.69444 0.20156 0.09363
 C60 C 0.65850 0.18028 0.06189
 C61 C 0.63886 0.16320 0.22791
 C62 C 0.65599 0.16832 0.42636
 C63 C 0.69173 0.19055 0.45784
 C64 C 0.80776 0.21366 0.10278
 C65 C 0.84314 0.19122 0.07430
 C66 C 0.85609 0.15831 0.21318
 C67 C 0.83256 0.14664 0.37402
 C68 C 0.79707 0.16847 0.40036
 H69 H 0.81720 0.25315 0.64993
 H70 H 0.87979 0.29212 0.68010
 H71 H 0.83984 0.37609 0.17424
 H72 H 0.77740 0.33666 0.14605
 H73 H 0.73178 0.26384 0.76822
 H74 H 0.67627 0.30006 0.92147
 H75 H 0.70578 0.33283 0.20358
 H76 H 0.70983 0.21247 -0.03646
 H77 H 0.64692 0.17609 -0.09329
 H78 H 0.64184 0.15479 0.55663
 H79 H 0.70482 0.19341 0.61108
 H80 H 0.79870 0.24024 0.00026
 H81 H 0.86124 0.20084 -0.04947
 H82 H 0.84224 0.12128 0.48217
 H83 H 0.77982 0.15980 0.52882
 H84 H 0.65222 0.37235 0.35711
 C85 C 0.75079 0.77236 0.79481
 C86 C 0.74499 0.73376 0.89357
 C87 C 0.70579 0.71316 0.89211
 C88 C 0.77709 0.70864 1.00543
 C89 C 0.78962 0.79506 0.80863
 C90 C 0.71737 0.79560 0.68149
 C91 C 0.68623 0.71038 1.07435
 C92 C 0.65045 0.68854 1.08074
 C93 C 0.63401 0.66834 0.90529
 C94 C 0.65359 0.67152 0.72223
 C95 C 0.68917 0.69403 0.71527
 C96 C 0.79707 0.72438 1.18224
 C97 C 0.82800 0.70016 1.28023
 C98 C 0.83933 0.65994 1.20211
 C99 C 0.81872 0.64412 1.02746
 C100 C 0.78770 0.66799 0.93142
 C101 C 0.82560 0.77279 0.79127
 C102 C 0.86146 0.79314 0.84035
 C103 C 0.86232 0.83738 0.89129
 C104 C 0.82660 0.86095 0.88351
 C105 C 0.79061 0.83980 0.84780
 C106 C 0.72082 0.80894 0.47726
 C107 C 0.69012 0.83214 0.37210
 C108 C 0.65586 0.84288 0.47135
 C109 C 0.65262 0.83010 0.67485
 C110 C 0.68301 0.80674 0.77960
 H111 H 0.69893 0.72494 1.21197
 H112 H 0.63652 0.68639 1.22481
 H113 H 0.64164 0.65606 0.58539
 H114 H 0.70430 0.69554 0.57422
 H115 H 0.78939 0.75573 1.24070
 H116 H 0.84377 0.71355 1.41225
 H117 H 0.77259 0.65527 0.79536
 H118 H 0.82609 0.73915 0.74707
 H119 H 0.88842 0.77429 0.83353
 H120 H 0.82619 0.89522 0.91806
 H121 H 0.76345 0.85822 0.85793
 H122 H 0.74743 0.80184 0.40028
 H123 H 0.69363 0.84294 0.21643
 H124 H 0.62613 0.83810 0.75064
 H125 H 0.67983 0.79769 0.93759
 H126 H 0.82680 0.61329 0.96372
 C127 C 0.24708 0.72201 0.66076
 C128 C 0.24829 0.76577 0.68322
 C129 C 0.28643 0.78904 0.71022
 C130 C 0.21169 0.79222 0.65650
 C131 C 0.20949 0.69817 0.67415
 C132 C 0.28134 0.69785 0.58664
 C133 C 0.31485 0.77517 0.86140
 C134 C 0.35051 0.79726 0.89106
 C135 C 0.35851 0.83377 0.76890
 C136 C 0.33012 0.84737 0.61626
 C137 C 0.29429 0.82547 0.58829
 C138 C 0.19780 0.81666 0.81634
 C139 C 0.16384 0.84268 0.78369
 C140 C 0.14319 0.84443 0.59074
 C141 C 0.15798 0.82014 0.43087
 C142 C 0.19209 0.79497 0.46316
 C143 C 0.18536 0.69132 0.49791
 C144 C 0.14853 0.67192 0.51126
 C145 C 0.13576 0.65677 0.70077
 C146 C 0.16134 0.66133 0.87580
 C147 C 0.19753 0.68273 0.86311
 C148 C 0.29850 0.71188 0.40728
 C149 C 0.32943 0.68841 0.32886
 C150 C 0.34367 0.65016 0.42712
 C151 C 0.32657 0.63621 0.60736
 C152 C 0.29542 0.65968 0.68562
 H153 H 0.30908 0.74738 0.95754
 H154 H 0.37171 0.78550 1.00891
 H155 H 0.33542 0.87535 0.51983
 H156 H 0.27286 0.83673 0.47020
 H157 H 0.21321 0.81556 0.96566
 H158 H 0.15363 0.86109 0.91018
 H159 H 0.20362 0.77795 0.33583
 H160 H 0.19468 0.70185 0.35007
 H161 H 0.13079 0.66791 0.37086
 H162 H 0.15286 0.64965 1.02352
 H163 H 0.21629 0.68722 1.00019
 H164 H 0.28760 0.74090 0.32682
 H165 H 0.34233 0.70047 0.19240
 H166 H 0.33710 0.60695 0.68717
 H167 H 0.28248 0.64821 0.82370
 H168 H 0.14419 0.82108 0.27831
 O169 O 1.01839 0.05416 -0.36735
 O170 O 0.95066 -0.03034 -0.19362
 O171 O 0.95489 0.05430 -0.15534
 O172 O 1.01364 -0.03045 -0.39345
 O173 O 1.05208 -0.03847 -0.11157
 O174 O 0.99214 0.04429 0.12879
 O175 O 0.98934 -0.04165 0.08464
 O176 O 1.05444 0.04468 -0.07893
 Cu177 Cu 0.98051 0.01303 -0.30499
 Cu178 Cu 1.02533 0.00185 0.03573
 C179 C 1.04804 0.06376 -0.24994
 C180 C 0.96000 -0.05216 -0.03253
 C181 C 0.96399 0.06389 0.02860
 C182 C 1.04252 -0.04901 -0.29367
 O183 O 0.49671 0.45752 0.29377
 O184 O 0.54671 0.54760 0.55944
 O185 O 0.55859 0.46398 0.53280
 O186 O 0.48378 0.54094 0.31497
 O187 O 0.44878 0.52985 0.58499
 O188 O 0.52324 0.45172 0.80046
 O189 O 0.51074 0.53608 0.82545
 O190 O 0.45993 0.44693 0.55751
 Cu191 Cu 0.52519 0.50375 0.39936
 Cu192 Cu 0.48218 0.48999 0.71912
 C193 C 0.46974 0.43703 0.38026
 C194 C 0.53696 0.55740 0.73705
 C195 C 0.55334 0.44394 0.69907
 C196 C 0.45358 0.54876 0.41527
 O197 O 0.00227 0.54696 -0.15315
 O198 O -0.04729 0.45684 0.10133
 O199 O -0.05816 0.54055 0.06885
 O200 O 0.01278 0.46379 -0.13158
 O201 O 0.05186 0.47089 0.14661
 O202 O -0.01880 0.54958 0.34442
 O203 O -0.00767 0.46552 0.37646
 O204 O 0.04318 0.55501 0.11744
 Cu205 Cu -0.02665 0.50112 -0.05544
 Cu206 Cu 0.02105 0.51125 0.27426
 C207 C 0.03144 0.56587 -0.06374
 C208 C -0.03583 0.44580 0.28260
 C209 C -0.05052 0.55847 0.23898
 C210 C 0.04441 0.45429 -0.02704
 O211 O 0.50799 1.03856 0.23322
 O212 O 0.45361 0.94936 0.46895
 O213 O 0.44388 1.03262 0.42510
 O214 O 0.51725 0.95389 0.26239
 O215 O 0.55189 0.96371 0.55318
 O216 O 0.47794 1.04209 0.71791
 O217 O 0.48932 0.95801 0.75732
 O218 O 0.54307 1.04764 0.52315
 Cu219 Cu 0.47722 0.99271 0.31869
 Cu220 Cu 0.51910 1.00379 0.66654
 C221 C 0.53477 1.05827 0.33802
 C222 C 0.46227 0.93856 0.65378
 C223 C 0.44823 1.05081 0.59653
 C224 C 0.54705 0.94513 0.38256
 C225 C 1.12232 0.14189 -0.26162
 C226 C 1.10714 0.14844 -0.46136
 C227 C 1.07670 0.11970 -0.48749
 C228 C 1.07565 0.09785 -0.30326
 O229 O 1.10297 0.11111 -0.16789
 H230 H 1.11644 0.17131 -0.57537
 H231 H 1.05776 0.11523 -0.62381
 C232 C 0.59797 0.64180 0.91404
 C233 C 0.57182 0.64254 1.06854
 C234 C 0.54484 0.61124 1.02102
 C235 C 0.55651 0.59370 0.84186
 O236 O 0.58848 0.61230 0.77578
 H237 H 0.57225 0.66310 1.20079
 H238 H 0.51983 0.60213 1.10714
 C239 C -0.09831 0.36331 0.44960
 C240 C -0.07001 0.36039 0.60990
 C241 C -0.04240 0.39071 0.56751
 C242 C -0.05576 0.41000 0.38534
 O243 O -0.08954 0.39347 0.31341
 H244 H -0.06960 0.33944 0.74390
 H245 H -0.01578 0.39792 0.65862
 C246 C 0.39580 0.85830 0.79955
 C247 C 0.42171 0.85522 0.96996
 C248 C 0.45055 0.88472 0.93728
 C249 C 0.44027 0.90354 0.74956
 O250 O 0.40715 0.88767 0.66584
 H251 H 0.41957 0.83482 1.10451
 H252 H 0.47582 0.89195 1.03885
 C253 C -0.12634 0.63485 0.29137
 C254 C -0.10896 0.63883 0.48599
 C255 C -0.07803 0.60985 0.49674
 C256 C -0.07889 0.59066 0.30783
 O257 O -0.10818 0.60552 0.18462
 H258 H -0.11781 0.65995 0.60596
 H259 H -0.05757 0.60348 0.62645
 C260 C 0.37057 1.12626 0.60504
 C261 C 0.38549 1.13220 0.80376
 C262 C 0.41677 1.10396 0.83102
 C263 C 0.41846 1.08297 0.64780
 O264 O 0.39060 1.09628 0.51180
 H265 H 0.37542 1.15462 0.91540
 H266 H 0.43623 1.09960 0.96655
 C267 C 1.10904 -0.12946 -0.44096
 C268 C 1.08414 -0.12864 -0.61620
 C269 C 1.05563 -0.09888 -0.58153
 C270 C 1.06507 -0.08318 -0.39025
 O271 O 1.09714 -0.10191 -0.30309
 H272 H 1.08563 -0.14769 -0.75259
 H273 H 1.03081 -0.08972 -0.68310
 C274 C 0.62749 0.36406 0.74228
 C275 C 0.61215 0.35637 0.93073
 C276 C 0.58248 0.38636 0.94501
 C277 C 0.58205 0.41002 0.76490
 O278 O 0.60914 0.39661 0.64272
 H279 H 0.62070 0.33144 1.04275
 H280 H 0.56309 0.38994 1.06937
 C281 C 0.89783 -0.14203 -0.04960
 C282 C 0.93205 -0.16291 0.02535
 C283 C 0.95875 -0.13080 0.06216
 C284 C 0.93925 -0.09279 0.00417
 O285 O 0.90231 -0.09941 -0.06302
 H286 H 0.93718 -0.19733 0.05094
 H287 H 0.98962 -0.13504 0.10975
 C288 C 0.40529 0.35692 0.19195
 C289 C 0.43331 0.35301 0.04748
 C290 C 0.46179 0.38229 0.10072
 C291 C 0.44913 0.40179 0.27322
 O292 O 0.41498 0.38657 0.32899
 H293 H 0.43273 0.33237 -0.08446
 H294 H 0.48831 0.38900 0.02194
 C295 C 0.09848 0.63723 -0.28531
 C296 C 0.06825 0.63966 -0.43618
 C297 C 0.03852 0.61555 -0.36521
 C298 C 0.05241 0.59938 -0.17777
 O299 O 0.08862 0.61301 -0.12655
 H300 H 0.06729 0.65717 -0.58057
 H301 H 0.01035 0.60965 -0.44373
 C302 C 0.60184 1.13823 0.19469
 C303 C 0.57780 1.13901 0.01692
 C304 C 0.54871 1.10977 0.04879
 C305 C 0.55707 1.09321 0.24298
 O306 O 0.58907 1.11055 0.33236
 H307 H 0.58098 1.15829 -0.12038
 H308 H 0.52461 1.10113 -0.05770
 C309 C 0.12156 0.38205 -0.12112
 C310 C 0.10698 0.38741 -0.32085
 C311 C 0.07518 0.41454 -0.31207
 C312 C 0.07313 0.42416 -0.10828
 O313 O 0.10108 0.40438 0.00812
 H314 H 0.11793 0.37291 -0.45606
 H315 H 0.05621 0.42643 -0.43906
 C316 C 0.62358 0.86857 0.36905
 C317 C 0.60697 0.86098 0.17691
 C318 C 0.57606 0.88971 0.15056
 C319 C 0.57624 0.91236 0.33040
 O320 O 0.60478 0.89935 0.46326
 H321 H 0.61494 0.83547 0.07614
 H322 H 0.55513 0.89269 0.02010
 C323 C 0.89566 0.13881 0.20588
 C324 C 0.92447 0.14307 0.36079
 C325 C 0.95460 0.11674 0.30985
 C326 C 0.94175 0.09786 0.12904
 O327 O 0.90595 0.11143 0.06415
 H328 H 0.92312 0.16234 0.49687
 H329 H 0.98230 0.11123 0.39636
 C330 C 0.37677 0.62510 0.34677
 C331 C 0.39216 0.63074 0.15683
 C332 C 0.42306 0.60205 0.15372
 C333 C 0.42402 0.58103 0.34090
 O334 O 0.39605 0.59474 0.45719
 H335 H 0.38238 0.65300 0.03481
 H336 H 0.44266 0.59733 0.03100
   
