data_POSCAR
  _audit_creation_date              2014-09-24
  _audit_creation_method            'ToBaCCo'
  _symmetry_space_group_name_H-M    'P1'
  _symmetry_Int_Tables_number       1
  _symmetry_cell_setting            triclinic
  loop_
  _symmetry_equiv_pos_as_xyz
 x,y,z
_cell_length_a 29.2738
_cell_length_b 29.3405
_cell_length_c 29.2070
_cell_angle_alpha 89.908300
_cell_angle_beta 89.982500
_cell_angle_gamma 90.021400
loop_
  _atom_site_label
  _atom_site_type_symbol
  _atom_site_fract_x
  _atom_site_fract_y
  _atom_site_fract_z
N1 N 0.54909 0.09248 0.02168
 N2 N 0.58217 0.11882 0.03727
 N3 N 0.45296 0.09203 -0.02302
 N4 N 0.41985 0.11804 -0.03915
 N5 N 0.45301 0.09237 0.02196
 N6 N 0.41995 0.11863 0.03770
 N7 N 0.54904 0.09205 -0.02329
 N8 N 0.58206 0.11810 -0.03958
 C9 C 0.60247 0.13419 -0.00136
 C10 C 0.39952 0.13404 -0.00084
 N11 N 0.45277 -0.02279 -0.09154
 N12 N 0.41948 -0.03888 -0.11737
 N13 N 0.54891 0.02196 -0.09239
 N14 N 0.58164 0.03759 -0.11934
 N15 N 0.54889 -0.02277 -0.09165
 N16 N 0.58363 -0.03930 -0.11972
 N17 N 0.45281 0.02198 -0.09204
 N18 N 0.41954 0.03762 -0.11821
 Mn19 Mn 0.50094 0.05736 -0.05805
 C20 C 0.39903 -0.00076 -0.13342
 C21 C 0.60261 -0.00028 -0.13544
 N22 N 0.45322 0.02349 0.09248
 N23 N 0.41998 0.03949 0.11847
 N24 N 0.54939 -0.02109 0.09277
 N25 N 0.58213 -0.03670 0.11969
 N26 N 0.54936 0.02365 0.09205
 N27 N 0.58410 0.04020 0.12011
 N28 N 0.45331 -0.02128 0.09295
 N29 N 0.42016 -0.03702 0.11924
 Mn30 Mn 0.50115 0.05836 0.05742
 C31 C 0.39965 0.00130 0.13458
 C32 C 0.60310 0.00117 0.13579
 N33 N 0.54907 -0.09155 -0.02133
 N34 N 0.58217 -0.11770 -0.03716
 N35 N 0.45317 -0.09132 0.02392
 N36 N 0.42017 -0.11741 0.04021
 N37 N 0.45301 -0.09163 -0.02105
 N38 N 0.41992 -0.11794 -0.03664
 N39 N 0.54927 -0.09115 0.02364
 N40 N 0.58251 -0.11704 0.03969
 Mn41 Mn 0.50092 -0.05754 -0.05676
 Mn42 Mn 0.50130 -0.05657 0.05868
 Cl43 Cl 0.50106 0.00041 0.00033
 C44 C 0.60276 -0.13300 0.00133
 C45 C 0.39969 -0.13342 0.00198
 N46 N 0.09271 0.45200 0.02176
 N47 N 0.11879 0.41881 0.03752
 N48 N 0.09329 0.54820 -0.02249
 N49 N 0.11954 0.58135 -0.03807
 N50 N 0.09313 0.54782 0.02245
 N51 N 0.11927 0.58070 0.03867
 N52 N 0.09285 0.45236 -0.02318
 N53 N 0.11903 0.41943 -0.03922
 C54 C 0.13483 0.39861 -0.00094
 C55 C 0.13540 0.60149 0.00050
 N56 N -0.02092 0.54936 -0.09271
 N57 N -0.03662 0.58229 -0.11930
 N58 N 0.02343 0.45325 -0.09317
 N59 N 0.03922 0.42004 -0.11921
 N60 N -0.02144 0.45348 -0.09330
 N61 N -0.03746 0.42046 -0.11942
 N62 N 0.02392 0.54918 -0.09234
 N63 N 0.04045 0.58401 -0.12032
 Mn64 Mn 0.05873 0.50073 -0.05818
 C65 C 0.00130 0.60322 -0.13557
 C66 C 0.00080 0.39989 -0.13502
 N67 N 0.02332 0.54757 0.09203
 N68 N 0.03924 0.58054 0.11829
 N69 N -0.02196 0.45185 0.09120
 N70 N -0.03809 0.41860 0.11708
 N71 N 0.02291 0.45168 0.09134
 N72 N 0.03858 0.41831 0.11732
 N73 N -0.02155 0.54773 0.09187
 N74 N -0.03744 0.58079 0.11801
 Mn75 Mn 0.05838 0.49976 0.05726
 C76 C 0.00091 0.60098 0.13392
 C77 C 0.00011 0.39795 0.13278
 N78 N -0.09122 0.45321 -0.02372
 N79 N -0.11740 0.42033 -0.03990
 N80 N -0.09086 0.54861 0.02191
 N81 N -0.11692 0.58159 0.03801
 N82 N -0.09072 0.54905 -0.02304
 N83 N -0.11669 0.58236 -0.03873
 N84 N -0.09129 0.45280 0.02122
 N85 N -0.11751 0.41964 0.03684
 Mn86 Mn -0.05644 0.50129 -0.05856
 Mn87 Mn -0.05678 0.50024 0.05691
 Cl88 Cl 0.00098 0.50050 -0.00064
 C89 C -0.13344 0.39952 -0.00169
 C90 C -0.13266 0.60253 -0.00022
 N91 N 0.02141 0.09119 0.45206
 N92 N 0.03735 0.11711 0.41872
 N93 N -0.02356 0.09136 0.54828
 N94 N -0.03941 0.11757 0.58136
 N95 N 0.02128 0.09126 0.54834
 N96 N 0.03716 0.11739 0.58145
 N97 N -0.02343 0.09118 0.45197
 N98 N -0.03922 0.11711 0.41857
 C99 C -0.00088 0.13292 0.39796
 C100 C -0.00110 0.13344 0.60193
 N101 N -0.09328 -0.02279 0.54855
 N102 N -0.11953 -0.03848 0.58179
 N103 N -0.09310 0.02177 0.45209
 N104 N -0.11925 0.03754 0.41885
 N105 N -0.09314 -0.02297 0.45225
 N106 N -0.11932 -0.03885 0.41913
 N107 N -0.09320 0.02195 0.54836
 N108 N -0.11936 0.03791 0.58146
 Mn109 Mn -0.05869 0.05693 0.50017
 C110 C -0.13542 -0.00019 0.60219
 C111 C -0.13524 -0.00069 0.39841
 N112 N 0.09080 0.02180 0.54862
 N113 N 0.11689 0.03762 0.58185
 N114 N 0.09093 -0.02296 0.45240
 N115 N 0.11715 -0.03875 0.41924
 N116 N 0.09092 0.02177 0.45235
 N117 N 0.11708 0.03765 0.41916
 N118 N 0.09076 -0.02294 0.54870
 N119 N 0.11681 -0.03878 0.58198
 Mn120 Mn 0.05646 0.05687 0.50035
 C121 C 0.13274 -0.00060 0.60253
 C122 C 0.13309 -0.00050 0.39863
 N123 N -0.02357 -0.09244 0.45249
 N124 N -0.03936 -0.11850 0.41926
 N125 N 0.02113 -0.09235 0.54881
 N126 N 0.03695 -0.11853 0.58200
 N127 N -0.02371 -0.09232 0.54880
 N128 N -0.03962 -0.11850 0.58197
 N129 N 0.02127 -0.09238 0.45253
 N130 N 0.03721 -0.11838 0.41935
 Mn131 Mn -0.05880 -0.05800 0.50053
 Mn132 Mn 0.05639 -0.05802 0.50061
 Cl133 Cl -0.00117 -0.00056 0.50042
 C134 C -0.00102 -0.13432 0.39872
 C135 C -0.00136 -0.13447 0.60257
 C136 C -0.21397 0.30707 0.03925
 C137 C -0.23044 0.28994 -0.00228
 C138 C -0.21427 0.30788 -0.04367
 C139 C -0.18216 0.34318 -0.04354
 C140 C -0.36042 0.16615 -0.00177
 C141 C -0.18188 0.34236 0.03946
 C142 C -0.26499 0.25504 -0.00237
 C143 C -0.29453 0.22642 -0.00229
 C144 C -0.32978 0.19359 -0.00206
 C145 C -0.16594 0.36099 -0.00195
 H146 H -0.22632 0.29349 0.07149
 H147 H -0.22686 0.29493 -0.07602
 H148 H -0.17045 0.35686 -0.07594
 H149 H -0.16994 0.35538 0.07200
 C150 C 0.21631 0.69384 -0.03999
 C151 C 0.23247 0.71098 0.00167
 C152 C 0.21597 0.69311 0.04294
 C153 C 0.18383 0.65784 0.04259
 C154 C 0.36256 0.83464 0.00232
 C155 C 0.18418 0.65857 -0.04041
 C156 C 0.26706 0.74585 0.00205
 C157 C 0.29663 0.77444 0.00227
 C158 C 0.33190 0.80723 0.00239
 C159 C 0.16791 0.64000 0.00089
 H160 H 0.22893 0.70737 -0.07213
 H161 H 0.22831 0.70607 0.07538
 H162 H 0.17186 0.64421 0.07492
 H163 H 0.17248 0.64551 -0.07302
 C164 C 0.21543 0.30637 0.04024
 C165 C 0.23199 0.28924 -0.00127
 C166 C 0.21584 0.30707 -0.04269
 C167 C 0.18366 0.34228 -0.04263
 C168 C 0.36234 0.16590 -0.00106
 C169 C 0.18325 0.34158 0.04037
 C170 C 0.26665 0.25446 -0.00132
 C171 C 0.29628 0.22594 -0.00130
 C172 C 0.33162 0.19324 -0.00120
 C173 C 0.16734 0.36011 -0.00108
 H174 H 0.22777 0.29288 0.07250
 H175 H 0.22849 0.29412 -0.07501
 H176 H 0.17197 0.35588 -0.07506
 H177 H 0.17125 0.35462 0.07288
 C178 C -0.21317 0.69502 -0.04097
 C179 C -0.22952 0.71212 0.00064
 C180 C -0.21322 0.69421 0.04196
 C181 C -0.18113 0.65893 0.04171
 C182 C -0.35996 0.83527 0.00142
 C183 C -0.18107 0.65975 -0.04130
 C184 C -0.26416 0.74689 0.00093
 C185 C -0.29380 0.77538 0.00115
 C186 C -0.32919 0.80801 0.00135
 C187 C -0.16504 0.64112 0.00006
 H188 H -0.22563 0.70858 -0.07315
 H189 H -0.22572 0.70713 0.07436
 H190 H -0.16934 0.64526 0.07408
 H191 H -0.16924 0.64671 -0.07387
 C192 C 0.04091 -0.21465 0.30653
 C193 C -0.00033 -0.23131 0.28901
 C194 C -0.04183 -0.21524 0.30650
 C195 C -0.04212 -0.18309 0.34180
 C196 C 0.00085 -0.36182 0.16576
 C197 C 0.04069 -0.18251 0.34182
 C198 C -0.00002 -0.26600 0.25422
 C199 C 0.00029 -0.29567 0.22572
 C200 C 0.00064 -0.33106 0.19306
 C201 C -0.00083 -0.16672 0.36006
 H202 H 0.07322 -0.22690 0.29330
 H203 H -0.07395 -0.22797 0.29324
 H204 H -0.07460 -0.17149 0.35515
 H205 H 0.07301 -0.17044 0.35518
 C206 C 0.04067 0.21433 0.69370
 C207 C -0.00059 0.23115 0.71100
 C208 C -0.04207 0.21500 0.69352
 C209 C -0.04230 0.18260 0.65845
 C210 C 0.00062 0.36250 0.83336
 C211 C 0.04051 0.18194 0.65863
 C212 C -0.00032 0.26609 0.74553
 C213 C -0.00002 0.29596 0.77383
 C214 C 0.00035 0.33158 0.80625
 C215 C -0.00098 0.16607 0.64040
 H216 H 0.07297 0.22664 0.70692
 H217 H -0.07420 0.22784 0.70662
 H218 H -0.07476 0.17093 0.64509
 H219 H 0.07285 0.16977 0.64543
 C220 C -0.04204 0.21335 0.30526
 C221 C -0.00062 0.22968 0.28775
 C222 C 0.04071 0.21333 0.30539
 C223 C 0.04066 0.18124 0.34084
 C224 C -0.00014 0.36052 0.16446
 C225 C -0.04216 0.18126 0.34071
 C226 C -0.00054 0.26439 0.25288
 C227 C -0.00044 0.29412 0.22435
 C228 C -0.00030 0.32963 0.19171
 C229 C -0.00079 0.16521 0.35911
 H230 H -0.07422 0.22583 0.29192
 H231 H 0.07296 0.22580 0.29215
 H232 H 0.07303 0.16943 0.35431
 H233 H -0.07459 0.16946 0.35408
 C234 C -0.04275 -0.21580 0.69448
 C235 C -0.00137 -0.23215 0.71201
 C236 C 0.03999 -0.21555 0.69462
 C237 C 0.04002 -0.18319 0.65942
 C238 C 0.00026 -0.36307 0.83531
 C239 C -0.04279 -0.18342 0.65927
 C240 C -0.00129 -0.26702 0.74675
 C241 C -0.00103 -0.29679 0.77524
 C242 C -0.00046 -0.33228 0.80793
 C243 C -0.00139 -0.16711 0.64115
 H244 H -0.07496 -0.22846 0.70763
 H245 H 0.07222 -0.22801 0.70789
 H246 H 0.07242 -0.17118 0.64617
 H247 H -0.07519 -0.17160 0.64589
 C248 C 0.21383 0.04050 0.69462
 C249 C 0.23014 -0.00083 0.71217
 C250 C 0.21356 -0.04206 0.69477
 C251 C 0.18126 -0.04201 0.65952
 C252 C 0.36154 -0.00098 0.83493
 C253 C 0.18153 0.04062 0.65936
 C254 C 0.26505 -0.00093 0.74686
 C255 C 0.29492 -0.00101 0.77525
 C256 C 0.33057 -0.00104 0.80777
 C257 C 0.16525 -0.00065 0.64120
 H258 H 0.22650 0.07261 0.70778
 H259 H 0.22602 -0.07424 0.70806
 H260 H 0.16927 -0.07431 0.64623
 H261 H 0.16975 0.07297 0.64595
 C262 C -0.21627 0.04039 0.30614
 C263 C -0.23277 -0.00092 0.28884
 C264 C -0.21639 -0.04216 0.30652
 C265 C -0.18407 -0.04212 0.34177
 C266 C -0.36333 0.00022 0.16509
 C267 C -0.18395 0.04050 0.34139
 C268 C -0.26756 -0.00094 0.25401
 C269 C -0.29726 -0.00080 0.22543
 C270 C -0.33264 -0.00039 0.19260
 C271 C -0.16784 -0.00077 0.35980
 H272 H -0.22876 0.07251 0.29276
 H273 H -0.22898 -0.07433 0.29342
 H274 H -0.17222 -0.07442 0.35525
 H275 H -0.17201 0.07285 0.35458
 C276 C 0.21465 -0.04122 0.30673
 C277 C 0.23080 0.00019 0.28919
 C278 C 0.21398 0.04133 0.30656
 C279 C 0.18160 0.04110 0.34174
 C280 C 0.36222 0.00137 0.16633
 C281 C 0.18225 -0.04152 0.34193
 C282 C 0.26576 0.00052 0.25452
 C283 C 0.29563 0.00085 0.22611
 C284 C 0.33127 0.00120 0.19355
 C285 C 0.16572 -0.00033 0.36004
 H286 H 0.22750 -0.07326 0.29359
 H287 H 0.22630 0.07357 0.29328
 H288 H 0.16942 0.07334 0.35499
 H289 H 0.17058 -0.07393 0.35533
 C290 C -0.21688 -0.04072 0.69439
 C291 C -0.23306 0.00072 0.71169
 C292 C -0.21632 0.04183 0.69403
 C293 C -0.18397 0.04155 0.65880
 C294 C -0.36378 0.00064 0.83529
 C295 C -0.18452 -0.04108 0.65916
 C296 C -0.26789 0.00104 0.74647
 C297 C -0.29763 0.00119 0.77502
 C298 C -0.33306 0.00108 0.80781
 C299 C -0.16806 0.00008 0.64077
 H300 H -0.22966 -0.07275 0.70777
 H301 H -0.22865 0.07409 0.70711
 H302 H -0.17184 0.07376 0.64533
 H303 H -0.17283 -0.07351 0.64597
   
