data_POSCAR
  _audit_creation_date              2014-09-24
  _audit_creation_method            'ToBaCCo'
  _symmetry_space_group_name_H-M    'P1'
  _symmetry_Int_Tables_number       1
  _symmetry_cell_setting            triclinic
  loop_
  _symmetry_equiv_pos_as_xyz
 x,y,z
_cell_length_a 44.0473
_cell_length_b 45.6407
_cell_length_c 41.3105
_cell_angle_alpha 88.571100
_cell_angle_beta 90.220200
_cell_angle_gamma 90.074300
loop_
  _atom_site_label
  _atom_site_type_symbol
  _atom_site_fract_x
  _atom_site_fract_y
  _atom_site_fract_z
C1 C 0.21084 0.18440 0.20787
 C2 C 0.19529 0.17315 0.23493
 C3 C 0.16875 0.18678 0.24632
 C4 C 0.15899 0.21303 0.23064
 C5 C 0.17494 0.22503 0.20406
 C6 C 0.20062 0.21031 0.19231
 C7 C 0.23563 0.16922 0.19529
 C8 C 0.25003 0.17909 0.16655
 C9 C 0.24008 0.20559 0.15182
 C10 C 0.21574 0.22118 0.16455
 C11 C 0.20593 0.24720 0.14939
 C12 C 0.18066 0.26229 0.16106
 C13 C 0.16523 0.25112 0.18848
 H14 H 0.20283 0.15243 0.24546
 H15 H 0.13934 0.22462 0.23942
 H16 H 0.24212 0.14858 0.20681
 H17 H 0.25157 0.21457 0.13066
 H18 H 0.21799 0.25575 0.12835
 H19 H 0.14530 0.26235 0.19718
 C20 C -0.21058 0.81364 0.22330
 C21 C -0.19512 0.82436 0.25018
 C22 C -0.16689 0.81254 0.26019
 C23 C -0.15520 0.78850 0.24325
 C24 C -0.17097 0.77700 0.21678
 C25 C -0.19844 0.79005 0.20639
 C26 C -0.23735 0.82719 0.21229
 C27 C -0.25185 0.81825 0.18366
 C28 C -0.23978 0.79412 0.16735
 C29 C -0.21351 0.77988 0.17871
 C30 C -0.20183 0.75591 0.16240
 C31 C -0.17487 0.74223 0.17295
 C32 C -0.15946 0.75300 0.20011
 H33 H -0.20428 0.84348 0.26167
 H34 H -0.13417 0.77819 0.25097
 H35 H -0.24547 0.84615 0.22492
 H36 H -0.25110 0.78590 0.14608
 H37 H -0.21388 0.74773 0.14155
 H38 H -0.13825 0.74303 0.20789
 C39 C -0.21835 0.19081 -0.21006
 C40 C -0.20173 0.17819 -0.23494
 C41 C -0.17350 0.18977 -0.24433
 C42 C -0.16195 0.21454 -0.22894
 C43 C -0.17861 0.22780 -0.20435
 C44 C -0.20683 0.21571 -0.19474
 C45 C -0.24582 0.17825 -0.19968
 C46 C -0.26235 0.19005 -0.17378
 C47 C -0.25089 0.21569 -0.15948
 C48 C -0.22330 0.22824 -0.16946
 C49 C -0.21165 0.25284 -0.15400
 C50 C -0.18365 0.26501 -0.16337
 C51 C -0.16733 0.25255 -0.18876
 H52 H -0.21039 0.15882 -0.24658
 H53 H -0.14013 0.22348 -0.23625
 H54 H -0.25300 0.15816 -0.21077
 H55 H -0.26349 0.22652 -0.14081
 H56 H -0.22423 0.26247 -0.13442
 H57 H -0.14550 0.26168 -0.19574
 C58 C 0.24491 0.80437 -0.23195
 C59 C 0.23332 0.81680 -0.26075
 C60 C 0.20738 0.80508 -0.27609
 C61 C 0.19385 0.77971 -0.26175
 C62 C 0.20508 0.76720 -0.23266
 C63 C 0.23077 0.77957 -0.21778
 C64 C 0.26955 0.81744 -0.21623
 C65 C 0.28052 0.80593 -0.18654
 C66 C 0.26682 0.78062 -0.17305
 C67 C 0.24174 0.76776 -0.18812
 C68 C 0.22660 0.74415 -0.17314
 C69 C 0.20043 0.73225 -0.18717
 C70 C 0.19023 0.74329 -0.21740
 H71 H 0.24368 0.83689 -0.26969
 H72 H 0.17468 0.76922 -0.27311
 H73 H 0.27939 0.83733 -0.22655
 H74 H 0.27523 0.77124 -0.15040
 H75 H 0.23462 0.73552 -0.14995
 H76 H 0.16987 0.73428 -0.22814
 C77 C 0.18354 1.22309 0.78636
 C78 C 0.16812 1.20611 0.76362
 C79 C 0.17835 1.17779 0.75593
 C80 C 0.20508 1.16722 0.77127
 C81 C 0.22096 1.18419 0.79362
 C82 C 0.21015 1.21222 0.80123
 C83 C 0.17182 1.25026 0.79535
 C84 C 0.18616 1.26717 0.81928
 C85 C 0.21374 1.25639 0.83281
 C86 C 0.22562 1.22912 0.82419
 C87 C 0.25227 1.21805 0.83891
 C88 C 0.26293 1.18992 0.83173
 C89 C 0.24721 1.17323 0.80894
 H90 H 0.14709 1.21452 0.75345
 H91 H 0.21432 1.14609 0.76524
 H92 H 0.15029 1.25697 0.78493
 H93 H 0.22647 1.26918 0.84990
 H94 H 0.26407 1.23077 0.85686
 H95 H 0.25540 1.15155 0.80332
 C96 C 0.78575 0.76450 0.77349
 C97 C 0.79806 0.77895 0.74623
 C98 C 0.78583 0.80565 0.73401
 C99 C 0.75939 0.81646 0.74895
 C100 C 0.74665 0.80198 0.77609
 C101 C 0.76017 0.77614 0.78871
 C102 C 0.79957 0.73910 0.78627
 C103 C 0.78865 0.72487 0.81472
 C104 C 0.76261 0.73681 0.82958
 C105 C 0.74849 0.76228 0.81691
 C106 C 0.72326 0.77450 0.83238
 C107 C 0.70959 0.80026 0.81988
 C108 C 0.72130 0.81370 0.79160
 H109 H 0.81708 0.76880 0.73441
 H110 H 0.74953 0.83714 0.74109
 H111 H 0.82020 0.73184 0.77486
 H112 H 0.75262 0.72617 0.85067
 H113 H 0.71433 0.76412 0.85424
 H114 H 0.71125 0.83389 0.78228
 C115 C 0.17179 0.78617 1.22187
 C116 C 0.16011 0.79841 1.25000
 C117 C 0.17554 0.82114 1.26557
 C118 C 0.20339 0.83123 1.25277
 C119 C 0.21562 0.81887 1.22483
 C120 C 0.19978 0.79613 1.20947
 C121 C 0.15554 0.76444 1.20574
 C122 C 0.16686 0.75199 1.17723
 C123 C 0.19553 0.76150 1.16582
 C124 C 0.21171 0.78363 1.18142
 C125 C 0.23920 0.79408 1.16867
 C126 C 0.25475 0.81741 1.18302
 C127 C 0.24297 0.82942 1.21144
 H128 H 0.13887 0.79016 1.25977
 H129 H 0.21521 0.84913 1.26409
 H130 H 0.13433 0.75679 1.21611
 H131 H 0.20463 0.75319 1.14354
 H132 H 0.24835 0.78422 1.14719
 H133 H 0.25453 0.84758 1.22258
 C134 C 0.82793 1.22084 1.21468
 C135 C 0.84139 1.20906 1.24293
 C136 C 0.82767 1.18572 1.26066
 C137 C 0.79962 1.17477 1.24921
 C138 C 0.78596 1.18635 1.22091
 C139 C 0.80020 1.20940 1.20351
 C140 C 0.84200 1.24384 1.19730
 C141 C 0.82903 1.25523 1.16855
 C142 C 0.80144 1.24364 1.15738
 C143 C 0.78682 1.22090 1.17479
 C144 C 0.75916 1.20936 1.16385
 C145 C 0.74480 1.18614 1.18094
 C146 C 0.75851 1.17478 1.20944
 H147 H 0.86216 1.21899 1.25147
 H148 H 0.78881 1.15621 1.26125
 H149 H 0.86348 1.25250 1.20574
 H150 H 0.79130 1.25249 1.13527
 H151 H 0.74875 1.21862 1.14212
 H152 H 0.74811 1.15649 1.22246
 O153 O 0.51884 0.96879 0.95704
 O154 O 0.47689 0.97202 1.07550
 O155 O 0.56542 0.99606 1.03568
 O156 O 0.46504 0.95934 0.97670
 O157 O 0.53334 0.97198 1.06664
 O158 O 0.46882 0.98971 0.93858
 O159 O 0.46397 0.95142 1.03199
 O160 O 0.55934 0.98491 0.97891
 C161 C 0.54628 0.96563 0.96300
 C162 C 0.46453 0.95115 1.06180
 C163 C 0.55965 0.97561 1.05604
 C164 C 0.45853 0.96587 0.94827
 O165 O 0.48034 1.03923 0.96242
 O166 O 0.53352 1.02904 1.06929
 O167 O 0.53558 1.03971 0.96748
 O168 O 0.44074 1.00610 1.04197
 O169 O 0.47605 1.02805 1.07051
 O170 O 0.51994 1.01731 0.92527
 O171 O 0.44201 1.01548 0.98338
 O172 O 0.53976 1.04970 1.02293
 Co173 Co 0.50085 1.00421 0.96176
 Co174 Co 0.50473 1.00024 1.06469
 Co175 Co 0.54604 1.01609 1.00193
 Co176 Co 0.45657 0.98447 1.00846
 O177 O 0.50095 1.00012 1.01131
 C178 C 0.45253 1.03821 0.96915
 C179 C 0.54265 1.05049 1.05263
 C180 C 0.53907 1.03559 0.93756
 C181 C 0.44871 1.02486 1.06263
 O182 O 0.03491 0.47931 0.05333
 O183 O 0.03843 0.52180 -0.05885
 O184 O 0.03876 0.46921 -0.04785
 O185 O 0.01108 0.56706 0.01803
 O186 O 0.01259 0.48174 -0.09016
 O187 O 0.03591 0.53450 0.04787
 O188 O 0.01746 0.56122 -0.04050
 O189 O 0.05289 0.46834 0.00732
 C190 C 0.05573 0.46868 0.03706
 C191 C 0.03924 0.54892 -0.05487
 C192 C 0.03231 0.46396 -0.07702
 C193 C 0.03240 0.56039 0.03764
 O194 O -0.02196 0.53521 0.05621
 O195 O -0.03548 0.48678 -0.05639
 O196 O -0.00265 0.44656 0.02507
 O197 O -0.04182 0.53954 -0.04179
 O198 O -0.01399 0.53342 -0.08128
 O199 O -0.02395 0.48025 0.05420
 O200 O -0.04646 0.54483 0.01284
 O201 O -0.01771 0.44880 -0.03175
 Co202 Co 0.00576 0.50719 0.04715
 Co203 Co 0.00184 0.50340 -0.05555
 Co204 Co 0.01636 0.46223 -0.01143
 Co205 Co -0.01358 0.54971 -0.01265
 O206 O 0.00166 0.50681 -0.00607
 C207 C -0.04490 0.54546 0.04259
 C208 C -0.03842 0.46064 -0.04818
 C209 C -0.02180 0.45404 0.04616
 C210 C -0.03741 0.54473 -0.07085
 O211 O 1.04224 0.03110 0.47252
 O212 O 0.94490 0.03102 0.54352
 O213 O 0.98913 0.03907 0.46485
 O214 O 1.02876 0.01007 0.57378
 O215 O 0.94382 0.03041 0.48168
 O216 O 1.04180 0.03684 0.53188
 O217 O 0.97368 0.00811 0.58020
 O218 O 1.02198 0.01032 0.42989
 C219 C 1.04313 0.02732 0.44194
 C220 C 0.95510 0.02845 0.57202
 C221 C 0.96200 0.04642 0.46611
 C222 C 1.03911 0.03381 0.56190
 O223 O 1.06171 -0.01745 0.54056
 O224 O 0.93911 -0.02759 0.48584
 O225 O 1.01181 -0.03760 0.46112
 O226 O 0.97460 -0.04851 0.56015
 O227 O 0.93530 -0.02409 0.54581
 O228 O 1.05440 -0.02659 0.48220
 O229 O 1.02602 -0.04658 0.54964
 O230 O 0.96576 -0.01030 0.44585
 Co231 Co 1.04490 0.00485 0.50729
 Co232 Co 0.94609 0.00201 0.51374
 Co233 Co 1.00101 0.00036 0.46581
 Co234 Co 1.00084 -0.01795 0.56188
 O235 O 0.99579 -0.00372 0.51393
 C236 C 1.05344 -0.04244 0.54908
 C237 C 0.94580 -0.02759 0.45649
 C238 C 1.03880 -0.04386 0.46590
 C239 C 0.94671 -0.04632 0.55892
 C240 C 1.11966 0.17551 0.27232
 C241 C 1.10267 0.15894 0.29471
 C242 C 1.11710 0.14052 0.31748
 C243 C 1.14890 0.13948 0.31836
 C244 C 1.16593 0.15550 0.29567
 C245 C 1.15165 0.17327 0.27162
 N246 N 1.09917 0.12180 0.33812
 N247 N 1.11068 0.10801 0.36234
 C248 C 1.09338 0.08782 0.38185
 C249 C 1.10402 0.07993 0.41280
 C250 C 1.08771 0.06011 0.43234
 C251 C 1.06097 0.04721 0.42075
 C252 C 1.05066 0.05466 0.38939
 C253 C 1.06658 0.07506 0.37019
 H254 H 1.10738 0.18830 0.25418
 H255 H 1.07811 0.15988 0.29378
 H256 H 1.16062 0.12559 0.33596
 H257 H 1.19041 0.15404 0.29734
 H258 H 1.12477 0.08949 0.42194
 H259 H 1.09607 0.05483 0.45644
 H260 H 1.02995 0.04526 0.37998
 H261 H 1.05815 0.08062 0.34616
 C262 C 0.88184 -0.17367 0.28534
 C263 C 0.89792 -0.15711 0.30776
 C264 C 0.88252 -0.14143 0.33123
 C265 C 0.85079 -0.14336 0.33291
 C266 C 0.83465 -0.15946 0.31034
 C267 C 0.84975 -0.17424 0.28545
 N268 N 0.89920 -0.12244 0.35192
 N269 N 0.88638 -0.10964 0.37522
 C270 C 0.90194 -0.08930 0.39519
 C271 C 0.93011 -0.07714 0.38625
 C272 C 0.94411 -0.05647 0.40582
 C273 C 0.93035 -0.04804 0.43478
 C274 C 0.90225 -0.06037 0.44362
 C275 C 0.88806 -0.08059 0.42376
 H276 H 0.89469 -0.18413 0.26660
 H277 H 0.92243 -0.15580 0.30623
 H278 H 0.83833 -0.13179 0.35115
 H279 H 0.81021 -0.16041 0.31278
 H280 H 0.94110 -0.08340 0.36408
 H281 H 0.96591 -0.04751 0.39863
 H282 H 0.89117 -0.05426 0.46582
 H283 H 0.86625 -0.08967 0.43074
 C284 C 0.82992 0.16939 0.70042
 C285 C 0.84503 0.15309 0.67737
 C286 C 0.87405 0.14195 0.68381
 C287 C 0.88852 0.14838 0.71318
 C288 C 0.87357 0.16517 0.73613
 C289 C 0.84390 0.17525 0.73014
 N290 N 0.88749 0.12329 0.66056
 N291 N 0.91153 0.10849 0.66597
 C292 C 0.92331 0.08945 0.64195
 C293 C 0.94754 0.07066 0.64974
 C294 C 0.95816 0.05076 0.62710
 C295 C 0.94472 0.04958 0.59621
 C296 C 0.92083 0.06892 0.58834
 C297 C 0.91020 0.08856 0.61094
 H298 H 0.80709 0.17705 0.69531
 H299 H 0.83373 0.14831 0.65477
 H300 H 0.91103 0.14006 0.71857
 H301 H 0.88464 0.16932 0.75902
 H302 H 0.95787 0.07113 0.67355
 H303 H 0.97676 0.03631 0.63376
 H304 H 0.90999 0.06867 0.56477
 H305 H 0.89152 0.10286 0.60419
 C306 C 1.21191 -0.16121 0.67611
 C307 C 1.19838 -0.14415 0.65147
 C308 C 1.16728 -0.14612 0.64551
 C309 C 1.14988 -0.16629 0.66376
 C310 C 1.16320 -0.18315 0.68869
 C311 C 1.19444 -0.18038 0.69616
 N312 N 1.15342 -0.12608 0.62263
 N313 N 1.12581 -0.12900 0.61418
 C314 C 1.11015 -0.10823 0.59370
 C315 C 1.08040 -0.11469 0.58457
 C316 C 1.06263 -0.09363 0.56856
 C317 C 1.07427 -0.06549 0.56151
 C318 C 1.10471 -0.05940 0.56915
 C319 C 1.12260 -0.08067 0.58524
 H320 H 1.23622 -0.15928 0.67895
 H321 H 1.21217 -0.12899 0.63727
 H322 H 1.12566 -0.16812 0.65976
 H323 H 1.14816 -0.19669 0.70325
 H324 H 1.07058 -0.13580 0.59099
 H325 H 1.03932 -0.09908 0.56279
 H326 H 1.11422 -0.03790 0.56399
 H327 H 1.14559 -0.07519 0.59221
 C328 C 0.29249 1.14416 1.17112
 C329 C 0.31452 1.12695 1.15664
 C330 C 0.31727 1.12695 1.12283
 C331 C 0.29817 1.14461 1.10375
 C332 C 0.27656 1.16236 1.11813
 C333 C 0.27305 1.16224 1.15213
 N334 N 0.33900 1.10889 1.10733
 N335 N 0.36115 1.09746 1.12285
 C336 C 0.38247 1.07884 1.10756
 C337 C 0.41067 1.07406 1.12230
 C338 C 0.43229 1.05657 1.10757
 C339 C 0.42563 1.04301 1.07819
 C340 C 0.39695 1.04716 1.06389
 C341 C 0.37561 1.06526 1.07827
 H342 H 0.29154 1.14390 1.19730
 H343 H 0.32918 1.11342 1.17185
 H344 H 0.29999 1.14456 1.07762
 H345 H 0.26163 1.17492 1.10225
 H346 H 0.41607 1.08431 1.14497
 H347 H 0.45413 1.05350 1.11929
 H348 H 0.39117 1.03672 1.04147
 H349 H 0.35372 1.06844 1.06669
 C350 C 0.30348 0.82306 0.86538
 C351 C 0.32499 0.83920 0.88225
 C352 C 0.34775 0.85460 0.86562
 C353 C 0.34954 0.85292 0.83180
 C354 C 0.32832 0.83633 0.81487
 C355 C 0.30471 0.82155 0.83142
 N356 N 0.36810 0.87233 0.88373
 N357 N 0.38568 0.89123 0.87054
 C358 C 0.40527 0.90889 0.88975
 C359 C 0.41964 0.93335 0.87552
 C360 C 0.43728 0.95197 0.89438
 C361 C 0.44104 0.94602 0.92768
 C362 C 0.42729 0.92102 0.94168
 C363 C 0.40946 0.90269 0.92295
 H364 H 0.28534 0.81257 0.87895
 H365 H 0.32338 0.84046 0.90833
 H366 H 0.36721 0.86446 0.81852
 H367 H 0.33032 0.83522 0.78882
 H368 H 0.41658 0.93834 0.84995
 H369 H 0.44775 0.97108 0.88303
 H370 H 0.42986 0.91588 0.96729
 H371 H 0.39875 0.88383 0.93451
 C372 C 0.70261 0.84843 1.19143
 C373 C 0.67910 0.86564 1.17863
 C374 C 0.67592 0.86965 1.14519
 C375 C 0.69558 0.85511 1.12440
 C376 C 0.71861 0.83718 1.13706
 C377 C 0.72306 0.83409 1.17087
 N378 N 0.65272 0.88879 1.13297
 N379 N 0.65388 0.90034 1.10466
 C380 C 0.63018 0.91908 1.09268
 C381 C 0.63564 0.93755 1.06577
 C382 C 0.61294 0.95647 1.05408
 C383 C 0.58418 0.95649 1.06869
 C384 C 0.57876 0.93768 1.09552
 C385 C 0.60160 0.91931 1.10756
 H386 H 0.70419 0.84588 1.21749
 H387 H 0.66371 0.87646 1.19485
 H388 H 0.69327 0.85778 1.09839
 H389 H 0.73398 0.82730 1.12013
 H390 H 0.65764 0.93756 1.05416
 H391 H 0.61781 0.97086 1.03352
 H392 H 0.55686 0.93724 1.10737
 H393 H 0.59683 0.90509 1.12828
 C394 C 0.70203 1.17920 0.87098
 C395 C 0.67734 1.16374 0.88373
 C396 C 0.66104 1.14435 0.86475
 C397 C 0.66900 1.14115 0.83225
 C398 C 0.69362 1.15678 0.81920
 C399 C 0.71112 1.17580 0.83847
 N400 N 0.63746 1.12742 0.87980
 N401 N 0.62265 1.10746 0.86563
 C402 C 0.60018 1.09061 0.88290
 C403 C 0.58531 1.06744 0.86775
 C404 C 0.56479 1.04962 0.88515
 C405 C 0.55907 1.05484 0.91793
 C406 C 0.57350 1.07849 0.93273
 C407 C 0.59378 1.09618 0.91545
 H408 H 0.71483 1.19238 0.88760
 H409 H 0.67147 1.16617 0.90896
 H410 H 0.65636 1.12648 0.81700
 H411 H 0.69827 1.15416 0.79377
 H412 H 0.59007 1.06287 0.84269
 H413 H 0.55394 1.03149 0.87324
 H414 H 0.56940 1.08321 0.95790
 H415 H 0.60481 1.11395 0.92781
 C416 C 0.16927 0.29038 0.10970
 C417 C 0.15993 0.31579 0.09313
 C418 C 0.15121 0.34044 0.11013
 C419 C 0.15198 0.33952 0.14418
 C420 C 0.16135 0.31405 0.16086
 C421 C 0.17012 0.28923 0.14375
 N422 N 0.13994 0.36534 0.09222
 N423 N 0.13105 0.38848 0.10580
 C424 C 0.11761 0.41214 0.08750
 C425 C 0.10280 0.43429 0.10404
 C426 C 0.08433 0.45435 0.08722
 C427 C 0.08066 0.45262 0.05349
 C428 C 0.09777 0.43207 0.03660
 C429 C 0.11600 0.41184 0.05350
 H430 H 0.17544 0.27145 0.09588
 H431 H 0.15904 0.31615 0.06691
 H432 H 0.14511 0.35832 0.15783
 H433 H 0.16206 0.31383 0.18707
 H434 H 0.10399 0.43481 0.13021
 H435 H 0.07156 0.47012 0.10082
 H436 H 0.09544 0.43026 0.01062
 H437 H 0.12751 0.39507 0.04015
 C438 C -0.16955 0.28875 -0.11157
 C439 C -0.15657 0.31172 -0.09460
 C440 C -0.14526 0.33646 -0.11120
 C441 C -0.14708 0.33805 -0.14519
 C442 C -0.15963 0.31483 -0.16225
 C443 C -0.17091 0.28995 -0.14556
 N444 N -0.13015 0.35857 -0.09318
 N445 N -0.12337 0.38356 -0.10549
 C446 C -0.10589 0.40442 -0.08796
 C447 C -0.10111 0.43242 -0.10161
 C448 C -0.08069 0.45177 -0.08730
 C449 C -0.06439 0.44308 -0.05937
 C450 C -0.07043 0.41558 -0.04479
 C451 C -0.09113 0.39645 -0.05883
 H452 H -0.17784 0.26967 -0.09820
 H453 H -0.15500 0.31013 -0.06845
 H454 H -0.13817 0.35685 -0.15854
 H455 H -0.16056 0.31626 -0.18845
 H456 H -0.11231 0.43881 -0.12407
 H457 H -0.07632 0.47279 -0.09915
 H458 H -0.05821 0.40836 -0.02326
 H459 H -0.09441 0.37493 -0.04778
 C460 C 0.17503 0.71519 -0.13624
 C461 C 0.15796 0.69477 -0.11838
 C462 C 0.14843 0.66872 -0.13232
 C463 C 0.15589 0.66336 -0.16473
 C464 C 0.17264 0.68408 -0.18287
 C465 C 0.18251 0.71009 -0.16866
 N466 N 0.13034 0.64876 -0.11328
 N467 N 0.12445 0.62277 -0.12185
 C468 C 0.10515 0.60381 -0.10285
 C469 C 0.10181 0.57451 -0.11145
 C470 C 0.08144 0.55611 -0.09477
 C471 C 0.06375 0.56695 -0.06946
 C472 C 0.06782 0.59612 -0.06023
 C473 C 0.08843 0.61436 -0.07665
 H474 H 0.18202 0.73524 -0.12486
 H475 H 0.15212 0.69924 -0.09355
 H476 H 0.14848 0.64345 -0.17608
 H477 H 0.17815 0.67971 -0.20781
 H478 H 0.11455 0.56610 -0.13156
 H479 H 0.07865 0.53377 -0.10253
 H480 H 0.05455 0.60502 -0.04076
 H481 H 0.09060 0.63692 -0.06948
 C482 C -0.16361 0.71710 0.12110
 C483 C -0.15273 0.69320 0.10424
 C484 C -0.14074 0.66884 0.12096
 C485 C -0.13981 0.66852 0.15498
 C486 C -0.15076 0.69242 0.17193
 C487 C -0.16278 0.71697 0.15515
 N488 N -0.12851 0.64542 0.10272
 N489 N -0.11609 0.62306 0.11613
 C490 C -0.10242 0.60066 0.09746
 C491 C -0.08422 0.57965 0.11325
 C492 C -0.06678 0.56033 0.09538
 C493 C -0.06760 0.56160 0.06135
 C494 C -0.08760 0.58127 0.04559
 C495 C -0.10476 0.60079 0.06350
 H496 H -0.17229 0.73587 0.10747
 H497 H -0.15327 0.69380 0.07802
 H498 H -0.13053 0.64992 0.16843
 H499 H -0.15016 0.69157 0.19815
 H500 H -0.08233 0.57927 0.13941
 H501 H -0.05167 0.54529 0.10815
 H502 H -0.08869 0.58275 0.01940
 H503 H -0.11890 0.61670 0.05076
 C504 C 1.16213 0.12926 0.73720
 C505 C 1.14510 0.11197 0.71639
 C506 C 1.12780 0.12481 0.69148
 C507 C 1.12744 0.15542 0.68763
 C508 C 1.14401 0.17290 0.70879
 C509 C 1.16179 0.16017 0.73405
 N510 N 1.11064 0.10618 0.67082
 N511 N 1.09831 0.11524 0.64449
 C512 C 1.08123 0.09577 0.62466
 C513 C 1.07082 0.06862 0.63696
 C514 C 1.05593 0.04913 0.61677
 C515 C 1.05158 0.05614 0.58373
 C516 C 1.06115 0.08372 0.57170
 C517 C 1.07561 0.10347 0.59215
 H518 H 1.17430 0.11815 0.75669
 H519 H 1.14534 0.08836 0.71976
 H520 H 1.11426 0.16584 0.66841
 H521 H 1.14360 0.19635 0.70437
 H522 H 1.07454 0.06231 0.66210
 H523 H 1.04876 0.02812 0.62685
 H524 H 1.05799 0.08978 0.54640
 H525 H 1.08336 0.12440 0.58239
 C526 C 0.78476 -0.15780 0.68848
 C527 C 0.79994 -0.14105 0.66472
 C528 C 0.83114 -0.14437 0.66011
 C529 C 0.84702 -0.16506 0.67921
 C530 C 0.83206 -0.18170 0.70300
 C531 C 0.80057 -0.17834 0.70848
 N532 N 0.84659 -0.12558 0.63723
 N533 N 0.87490 -0.12838 0.63206
 C534 C 0.89163 -0.10909 0.61091
 C535 C 0.92284 -0.11363 0.60766
 C536 C 0.94061 -0.09375 0.58984
 C537 C 0.92736 -0.06886 0.57489
 C538 C 0.89577 -0.06490 0.57714
 C539 C 0.87801 -0.08484 0.59509
 H540 H 0.76049 -0.15487 0.69037
 H541 H 0.78736 -0.12525 0.65000
 H542 H 0.87127 -0.16783 0.67645
 H543 H 0.84602 -0.19589 0.71816
 H544 H 0.93356 -0.13224 0.61978
 H545 H 0.96485 -0.09747 0.58849
 H546 H 0.88492 -0.04595 0.56586
 H547 H 0.85389 -0.08090 0.59728
 C548 C 1.18024 -0.15637 0.32060
 C549 C 1.16720 -0.14354 0.34769
 C550 C 1.13573 -0.13960 0.34945
 C551 C 1.11737 -0.14856 0.32362
 C552 C 1.13036 -0.16110 0.29647
 C553 C 1.16196 -0.16528 0.29459
 N554 N 1.12302 -0.12520 0.37674
 N555 N 1.09443 -0.12338 0.38071
 C556 C 1.08096 -0.10732 0.40633
 C557 C 1.04929 -0.10532 0.40757
 C558 C 1.03532 -0.08621 0.42882
 C559 C 1.05291 -0.06873 0.44927
 C560 C 1.08463 -0.07234 0.44965
 C561 C 1.09859 -0.09143 0.42827
 H562 H 1.20459 -0.15954 0.32016
 H563 H 1.18164 -0.13659 0.36733
 H564 H 1.09303 -0.14539 0.32412
 H565 H 1.11561 -0.16704 0.27666
 H566 H 1.03545 -0.11749 0.39085
 H567 H 1.01085 -0.08395 0.42793
 H568 H 1.09879 -0.05917 0.46511
 H569 H 1.12312 -0.09271 0.42786
 C570 C 0.82464 0.15924 0.31354
 C571 C 0.83873 0.14621 0.34061
 C572 C 0.87028 0.14664 0.34390
 C573 C 0.88778 0.16094 0.32002
 C574 C 0.87380 0.17421 0.29296
 C575 C 0.84187 0.17333 0.28885
 N576 N 0.88388 0.13113 0.37082
 N577 N 0.91250 0.12889 0.37461
 C578 C 0.92538 0.11178 0.40080
 C579 C 0.95666 0.10627 0.40121
 C580 C 0.96916 0.08631 0.42384
 C581 C 0.95044 0.07162 0.44650
 C582 C 0.91939 0.07869 0.44734
 C583 C 0.90695 0.09850 0.42468
 H584 H 0.80011 0.15886 0.31272
 H585 H 0.82496 0.13539 0.35901
 H586 H 0.91230 0.16134 0.32190
 H587 H 0.88849 0.18369 0.27458
 H588 H 0.97114 0.11640 0.38299
 H589 H 0.99315 0.08131 0.42254
 H590 H 0.90436 0.06786 0.46455
 H591 H 0.88275 0.10256 0.42510
 C592 C 0.17824 0.30342 -0.13795
 C593 C 0.16274 0.32747 -0.12588
 C594 C 0.14091 0.34224 -0.14463
 C595 C 0.13542 0.33334 -0.17633
 C596 C 0.15101 0.30935 -0.18866
 C597 C 0.17233 0.29332 -0.16948
 N598 N 0.12406 0.36536 -0.13024
 N599 N 0.10233 0.37897 -0.14440
 C600 C 0.08566 0.40127 -0.12815
 C601 C 0.06112 0.41530 -0.14378
 C602 C 0.04376 0.43614 -0.12758
 C603 C 0.05079 0.44312 -0.09547
 C604 C 0.07569 0.42931 -0.08015
 C605 C 0.09291 0.40868 -0.09625
 H606 H 0.19342 0.29192 -0.12143
 H607 H 0.16709 0.33409 -0.10129
 H608 H 0.11895 0.34477 -0.19150
 H609 H 0.14648 0.30398 -0.21354
 H610 H 0.05520 0.40979 -0.16835
 H611 H 0.02468 0.44643 -0.13992
 H612 H 0.08183 0.43427 -0.05547
 H613 H 0.11170 0.39829 -0.08353
 C614 C -0.15020 0.27655 0.11665
 C615 C -0.13360 0.29809 0.09969
 C616 C -0.12222 0.32249 0.11569
 C617 C -0.12777 0.32521 0.14897
 C618 C -0.14397 0.30352 0.16601
 C619 C -0.15521 0.27892 0.15005
 N620 N -0.10445 0.34372 0.09798
 N621 N -0.09708 0.36812 0.11007
 C622 C -0.07850 0.38925 0.09326
 C623 C -0.07597 0.41740 0.10560
 C624 C -0.05772 0.43850 0.09018
 C625 C -0.04117 0.43160 0.06233
 C626 C -0.04348 0.40318 0.05014
 C627 C -0.06219 0.38222 0.06532
 H628 H -0.15841 0.25766 0.10388
 H629 H -0.12942 0.29568 0.07408
 H630 H -0.11915 0.34382 0.16192
 H631 H -0.14769 0.30591 0.19171
 H632 H -0.08830 0.42302 0.12720
 H633 H -0.05635 0.46014 0.10025
 H634 H -0.03093 0.39718 0.02882
 H635 H -0.06361 0.36049 0.05550
 C636 C -0.19728 0.69324 -0.13794
 C637 C -0.17961 0.67078 -0.12404
 C638 C -0.15969 0.65471 -0.14290
 C639 C -0.15853 0.66043 -0.17632
 C640 C -0.17637 0.68266 -0.19044
 C641 C -0.19556 0.70025 -0.17145
 N642 N -0.14034 0.63346 -0.12724
 N643 N -0.11898 0.62035 -0.14171
 C644 C -0.09963 0.59985 -0.12468
 C645 C -0.07412 0.58836 -0.14016
 C646 C -0.05389 0.56982 -0.12312
 C647 C -0.05911 0.56249 -0.09039
 C648 C -0.08517 0.57344 -0.07531
 C649 C -0.10516 0.59191 -0.09219
 H650 H -0.21074 0.70603 -0.12168
 H651 H -0.18069 0.66655 -0.09815
 H652 H -0.14374 0.64783 -0.19154
 H653 H -0.17524 0.68544 -0.21646
 H654 H -0.06957 0.59429 -0.16521
 H655 H -0.03398 0.56169 -0.13529
 H656 H -0.08990 0.56817 -0.05011
 H657 H -0.12470 0.60031 -0.07963
 C658 C 0.11747 0.73152 0.16072
 C659 C 0.10043 0.71153 0.14312
 C660 C 0.11476 0.69021 0.12500
 C661 C 0.14659 0.68926 0.12425
 C662 C 0.16377 0.70958 0.14129
 C663 C 0.14957 0.73110 0.16006
 N664 N 0.09651 0.66969 0.10787
 N665 N 0.10762 0.64654 0.09612
 C666 C 0.08922 0.62597 0.07926
 C667 C 0.10008 0.59748 0.07551
 C668 C 0.08178 0.57624 0.06141
 C669 C 0.05254 0.58342 0.05006
 C670 C 0.04217 0.61238 0.05248
 C671 C 0.06024 0.63345 0.06730
 H672 H 0.10519 0.74810 0.17357
 H673 H 0.07587 0.71259 0.14371
 H674 H 0.15819 0.67284 0.11045
 H675 H 0.18821 0.70748 0.14064
 H676 H 0.12241 0.59150 0.08450
 H677 H 0.09036 0.55410 0.05965
 H678 H 0.01968 0.61843 0.04399
 H679 H 0.05150 0.65545 0.06970
 C680 C 0.31721 1.19215 0.85120
 C681 C 0.34229 1.17912 0.86692
 C682 C 0.33978 1.15115 0.88151
 C683 C 0.31183 1.13628 0.87990
 C684 C 0.28705 1.14900 0.86377
 C685 C 0.28944 1.17703 0.84922
 N686 N 0.36566 1.13779 0.89725
 N687 N 0.36212 1.11559 0.91613
 C688 C 0.38630 1.09953 0.93165
 C689 C 0.37835 1.07762 0.95420
 C690 C 0.40026 1.05884 0.96738
 C691 C 0.43091 1.06142 0.95825
 C692 C 0.43926 1.08429 0.93652
 C693 C 0.41704 1.10329 0.92324
 H694 H 0.31963 1.21375 0.84004
 H695 H 0.36365 1.19086 0.86783
 H696 H 0.30922 1.11459 0.89074
 H697 H 0.26586 1.13698 0.86280
 H698 H 0.35478 1.07444 0.96079
 H699 H 0.39285 1.04145 0.98378
 H700 H 0.46263 1.08673 0.92885
 H701 H 0.42365 1.12006 0.90565
 C702 C 0.28389 0.83252 1.13323
 C703 C 0.30947 0.84444 1.11804
 C704 C 0.33400 0.85438 1.13630
 C705 C 0.33283 0.85199 1.17027
 C706 C 0.30723 0.83979 1.18559
 C707 C 0.28240 0.82996 1.16722
 N708 N 0.35906 0.86774 1.11954
 N709 N 0.38135 0.87964 1.13387
 C710 C 0.40520 0.89393 1.11590
 C711 C 0.42586 0.91177 1.13211
 C712 C 0.44660 0.92918 1.11465
 C713 C 0.44716 0.92877 1.08061
 C714 C 0.42779 0.90932 1.06458
 C715 C 0.40691 0.89218 1.08202
 H716 H 0.26500 0.82584 1.11828
 H717 H 0.30999 0.84643 1.09187
 H718 H 0.35156 0.85957 1.18490
 H719 H 0.30697 0.83789 1.21177
 H720 H 0.42488 0.91327 1.15821
 H721 H 0.46123 0.94392 1.12770
 H722 H 0.42764 0.90846 1.03840
 H723 H 0.39140 0.87835 1.06890
 C724 C 0.69339 1.16311 1.19038
 C725 C 0.66702 1.14964 1.17893
 C726 C 0.66234 1.14644 1.14570
 C727 C 0.68435 1.15715 1.12387
 C728 C 0.71089 1.17030 1.13527
 C729 C 0.71590 1.17328 1.16871
 N730 N 0.63606 1.13083 1.13482
 N731 N 0.62876 1.13010 1.10501
 C732 C 0.60388 1.11291 1.09345
 C733 C 0.59667 1.11442 1.06045
 C734 C 0.57525 1.09534 1.04748
 C735 C 0.56078 1.07412 1.06735
 C736 C 0.56691 1.07364 1.10081
 C737 C 0.58826 1.09290 1.11379
 H738 H 0.69613 1.16549 1.21623
 H739 H 0.65027 1.14147 1.19604
 H740 H 0.68143 1.15465 1.09805
 H741 H 0.72786 1.17737 1.11787
 H742 H 0.60854 1.12972 1.04452
 H743 H 0.57112 1.09629 1.02161
 H744 H 0.55619 1.05755 1.11674
 H745 H 0.59345 1.09130 1.13941
 C746 C 0.65860 0.82477 0.81985
 C747 C 0.63603 0.84062 0.83547
 C748 C 0.63876 0.84669 0.86840
 C749 C 0.66378 0.83550 0.88598
 C750 C 0.68616 0.81928 0.87047
 C751 C 0.68412 0.81431 0.83709
 N752 N 0.61696 0.86568 0.88283
 N753 N 0.62105 0.87604 0.91084
 C754 C 0.60038 0.89624 0.92506
 C755 C 0.60962 0.91085 0.95277
 C756 C 0.59160 0.93286 0.96555
 C757 C 0.56360 0.94031 0.95118
 C758 C 0.55359 0.92468 0.92423
 C759 C 0.57198 0.90296 0.91104
 H760 H 0.65639 0.82106 0.79415
 H761 H 0.61689 0.84907 0.82163
 H762 H 0.66639 0.83982 0.91149
 H763 H 0.70570 0.81168 0.88427
 H764 H 0.63141 0.90588 0.96383
 H765 H 0.59983 0.94444 0.98634
 H766 H 0.53214 0.93004 0.91263
 H767 H 0.56430 0.89186 0.88965
   
