data_POSCAR
  _audit_creation_date              2014-09-24
  _audit_creation_method            'ToBaCCo'
  _symmetry_space_group_name_H-M    'P1'
  _symmetry_Int_Tables_number       1
  _symmetry_cell_setting            triclinic
  loop_
  _symmetry_equiv_pos_as_xyz
 x,y,z
_cell_length_a 25.6743
_cell_length_b 25.6675
_cell_length_c 25.7470
_cell_angle_alpha 90.015400
_cell_angle_beta 90.003000
_cell_angle_gamma 90.028100
loop_
  _atom_site_label
  _atom_site_type_symbol
  _atom_site_fract_x
  _atom_site_fract_y
  _atom_site_fract_z
C1 C 0.38789 0.32310 0.32391
 N2 N 0.36611 0.36622 0.30248
 C3 C 0.32321 0.38819 0.32415
 N4 N 0.30164 0.36638 0.36713
 C5 C 0.32321 0.32325 0.38884
 N6 N 0.36612 0.30153 0.36690
 C7 C 0.38844 0.82317 -0.17797
 N8 N 0.36626 0.86605 -0.19966
 C9 C 0.32300 0.88777 -0.17825
 N10 N 0.30190 0.86621 -0.13488
 C11 C 0.32388 0.82353 -0.11278
 N12 N 0.36693 0.80195 -0.13461
 C13 C 0.88718 0.32398 -0.17753
 N14 N 0.86548 0.30262 -0.13444
 C15 C 0.82258 0.32435 -0.11255
 N16 N 0.80090 0.36732 -0.13444
 C17 C 0.82223 0.38894 -0.17770
 N18 N 0.86532 0.36699 -0.19919
 C19 C 0.88882 0.82219 0.32263
 N20 N 0.86688 0.86525 0.30112
 C21 C 0.82402 0.88726 0.32282
 N22 N 0.80274 0.86575 0.36606
 C23 C 0.82448 0.82287 0.38802
 N24 N 0.86733 0.80102 0.36604
 C25 C 0.61231 0.67712 0.32360
 N26 N 0.63412 0.63408 0.30197
 C27 C 0.67701 0.61202 0.32361
 N28 N 0.69849 0.63363 0.36676
 C29 C 0.67688 0.67665 0.38865
 N30 N 0.63401 0.69848 0.36674
 C31 C 0.61163 0.17702 -0.17838
 N32 N 0.63319 0.19833 -0.13507
 C33 C 0.67625 0.17678 -0.11324
 N34 N 0.69818 0.13404 -0.13529
 C35 C 0.67705 0.11239 -0.17860
 N36 N 0.63378 0.13407 -0.20002
 C37 C 0.11296 0.67591 -0.17699
 N38 N 0.13475 0.69735 -0.13397
 C39 C 0.17772 0.67570 -0.11214
 N40 N 0.19938 0.63269 -0.13403
 C41 C 0.17796 0.61097 -0.17723
 N42 N 0.13480 0.63289 -0.19864
 C43 C 0.11188 0.17717 0.32158
 N44 N 0.13393 0.13416 0.30001
 C45 C 0.17698 0.11223 0.32160
 N46 N 0.19799 0.13368 0.36507
 C47 C 0.17610 0.17647 0.38711
 N48 N 0.13327 0.19828 0.36507
 C49 C 0.61193 0.32289 0.67618
 N50 N 0.63379 0.36592 0.69779
 C51 C 0.67676 0.38790 0.67622
 N52 N 0.69829 0.36621 0.63316
 C53 C 0.67666 0.32318 0.61127
 N54 N 0.63368 0.30143 0.63312
 C55 C 0.61178 0.82330 1.17805
 N56 N 0.63333 0.80197 1.13476
 C57 C 0.67631 0.82363 1.11284
 N58 N 0.69815 0.86651 1.13476
 C59 C 0.67699 0.88819 1.17803
 N60 N 0.63382 0.86638 1.19955
 C61 C 0.11158 0.32205 1.17754
 N62 N 0.13322 0.30078 1.13428
 C63 C 0.17600 0.32269 1.11223
 N64 N 0.19753 0.36583 1.13396
 C65 C 0.17608 0.38753 1.17705
 N66 N 0.13329 0.36538 1.19886
 C67 C 0.11184 0.82274 0.67827
 N68 N 0.13393 0.86570 0.69994
 C69 C 0.17705 0.88762 0.67846
 N70 N 0.19811 0.86619 0.63502
 C71 C 0.17621 0.82344 0.61291
 N72 N 0.13329 0.80164 0.63482
 C73 C 0.38798 0.67700 0.67672
 N74 N 0.36613 0.63393 0.69826
 C75 C 0.32317 0.61195 0.67662
 N76 N 0.30166 0.63369 0.63358
 C77 C 0.32329 0.67676 0.61178
 N78 N 0.36624 0.69848 0.63368
 C79 C 0.38796 0.17711 1.17814
 N80 N 0.36639 0.19826 1.13479
 C81 C 0.32343 0.17649 1.11292
 N82 N 0.30159 0.13371 1.13500
 C83 C 0.32274 0.11223 1.17837
 N84 N 0.36592 0.13412 1.19980
 C85 C 0.88733 0.67595 1.17718
 N86 N 0.86558 0.69745 1.13418
 C87 C 0.82257 0.67585 1.11233
 N88 N 0.80083 0.63285 1.13418
 C89 C 0.82221 0.61110 1.17736
 N90 N 0.86541 0.63294 1.19879
 C91 C 0.88803 0.17704 0.67769
 N92 N 0.86590 0.13412 0.69935
 C93 C 0.82275 0.11223 0.67790
 N94 N 0.80169 0.13366 0.63445
 C95 C 0.82364 0.17639 0.61233
 N96 N 0.86659 0.19814 0.63425
 C97 C 0.32284 0.38734 0.67746
 N98 N 0.36588 0.36541 0.69898
 C99 C 0.38763 0.32229 0.67741
 N100 N 0.36571 0.30072 0.63447
 C101 C 0.32267 0.32238 0.61272
 N102 N 0.30116 0.36550 0.63453
 C103 C 0.32362 0.88991 0.17623
 N104 N 0.30207 0.86792 0.13330
 C105 C 0.32388 0.82496 0.11148
 N106 N 0.36707 0.80361 0.13323
 C107 C 0.38886 0.82534 0.17614
 N108 N 0.36682 0.86828 0.19773
 C109 C 0.82445 0.38812 0.17587
 N110 N 0.86748 0.36618 0.19738
 C111 C 0.88914 0.32298 0.17590
 N112 N 0.86709 0.30131 0.13305
 C113 C 0.82403 0.32301 0.11132
 N114 N 0.80266 0.36620 0.13306
 C115 C 0.82413 0.88977 0.67686
 N116 N 0.86722 0.86798 0.69843
 C117 C 0.88911 0.82493 0.67687
 N118 N 0.86726 0.80327 0.63395
 C119 C 0.82419 0.82478 0.61216
 N120 N 0.80255 0.86783 0.63393
 C121 C 0.67674 0.61236 0.67758
 N122 N 0.63379 0.63437 0.69919
 C123 C 0.61205 0.67751 0.67765
 N124 N 0.63391 0.69899 0.63465
 C125 C 0.67685 0.67722 0.61281
 N126 N 0.69833 0.63411 0.63459
 C127 C 0.67586 0.11063 0.17534
 N128 N 0.63271 0.13229 0.19684
 C129 C 0.61076 0.17530 0.17535
 N130 N 0.63263 0.19709 0.13252
 C131 C 0.67579 0.17568 0.11076
 N132 N 0.69749 0.13264 0.13249
 C133 C 0.17628 0.61219 0.17643
 N134 N 0.13329 0.63411 0.19798
 C135 C 0.11157 0.67724 0.17651
 N136 N 0.13348 0.69887 0.13359
 C137 C 0.17650 0.67717 0.11179
 N138 N 0.19798 0.63403 0.13354
 C139 C 0.17587 0.10985 0.67661
 N140 N 0.13274 0.13165 0.69811
 C141 C 0.11077 0.17457 0.67639
 N142 N 0.13257 0.19608 0.63339
 C143 C 0.17566 0.17456 0.61166
 N144 N 0.19740 0.13164 0.63359
 C145 C 0.32351 0.61277 0.32315
 N146 N 0.36648 0.63475 0.30152
 C147 C 0.38826 0.67791 0.32301
 N148 N 0.36642 0.69948 0.36599
 C149 C 0.32344 0.67774 0.38784
 N150 N 0.30194 0.63459 0.36610
 C151 C 0.32352 0.11001 0.82396
 N152 N 0.30189 0.13193 0.86686
 C153 C 0.32357 0.17497 0.88868
 N154 N 0.36673 0.19647 0.86696
 C155 C 0.38861 0.17477 0.82409
 N156 N 0.36668 0.13175 0.80250
 C157 C 0.82417 0.61193 0.82394
 N158 N 0.80245 0.63385 0.86679
 C159 C 0.82385 0.67709 0.88845
 N160 N 0.86684 0.69884 0.86661
 C161 C 0.88879 0.67718 0.82372
 N162 N 0.86712 0.63393 0.80233
 C163 C 0.82380 0.11107 0.32254
 N164 N 0.86697 0.13280 0.30107
 C165 C 0.88910 0.17564 0.32284
 N166 N 0.86741 0.19714 0.36592
 C167 C 0.82427 0.17563 0.38766
 N168 N 0.80240 0.13280 0.36564
 C169 C 0.67696 0.38752 0.32241
 N170 N 0.63390 0.36560 0.30086
 C171 C 0.61206 0.32251 0.32242
 N172 N 0.63391 0.30098 0.36540
 C173 C 0.67696 0.32265 0.38720
 N174 N 0.69855 0.36573 0.36538
 C175 C 0.67663 0.89001 0.82406
 N176 N 0.69829 0.86805 0.86694
 C177 C 0.67653 0.82504 0.88875
 N178 N 0.63332 0.80364 0.86706
 C179 C 0.61144 0.82535 0.82421
 N180 N 0.63342 0.86832 0.80262
 C181 C 0.17562 0.38777 0.82388
 N182 N 0.19727 0.36582 0.86673
 C183 C 0.17589 0.32250 0.88825
 N184 N 0.13299 0.30072 0.86626
 C185 C 0.11111 0.32241 0.82337
 N186 N 0.13275 0.36573 0.80212
 C187 C 0.17614 0.88976 0.32361
 N188 N 0.13310 0.86783 0.30205
 C189 C 0.11123 0.82480 0.32366
 N190 N 0.13303 0.80330 0.36666
 C191 C 0.17605 0.82496 0.38847
 N192 N 0.19769 0.86799 0.36662
 O193 O 0.25565 1.05295 0.18436
 O194 O 0.18388 0.95104 0.25527
 O195 O 0.18351 1.05300 0.25472
 O196 O 0.25505 0.95105 0.18380
 O197 O 0.31577 0.95114 0.24460
 O198 O 0.24405 1.05296 0.31565
 O199 O 0.24461 0.95106 0.31607
 O200 O 0.31621 1.05306 0.24527
 Cu201 Cu 0.21344 1.00199 0.21344
 Cu202 Cu 0.28623 1.00204 0.28650
 C203 C 0.29774 1.07100 0.20315
 C204 C 0.20246 0.93319 0.29739
 C205 C 0.20198 1.07099 0.29685
 C206 C 0.29721 0.93326 0.20247
 O207 O 0.24465 0.55128 0.81668
 O208 O 0.31554 0.44892 0.74557
 O209 O 0.31552 0.55083 0.74501
 O210 O 0.24398 0.44924 0.81649
 O211 O 0.18303 0.44935 0.75591
 O212 O 0.25461 0.55080 0.68439
 O213 O 0.25458 0.44892 0.68499
 O214 O 0.18378 0.55140 0.75608
 Cu215 Cu 0.28602 0.50007 0.78703
 Cu216 Cu 0.21286 0.50013 0.71429
 C217 C 0.20260 0.56947 0.79805
 C218 C 0.29674 0.43097 0.70359
 C219 C 0.29685 0.56860 0.70292
 C220 C 0.20177 0.43141 0.79788
 O221 O 0.75540 -0.05172 0.31520
 O222 O 0.68370 0.04964 0.24378
 O223 O 0.68345 -0.05228 0.24466
 O224 O 0.75509 0.05004 0.31502
 O225 O 0.81577 0.04985 0.25417
 O226 O 0.74400 -0.05242 0.18374
 O227 O 0.74438 0.04949 0.18293
 O228 O 0.81600 -0.05193 0.25427
 Cu229 Cu 0.71330 -0.00103 0.28576
 Cu230 Cu 0.78610 -0.00127 0.21263
 C231 C 0.79754 -0.06956 0.29650
 C232 C 0.70224 0.06734 0.20160
 C233 C 0.70195 -0.07043 0.20262
 C234 C 0.79727 0.06778 0.29628
 O235 O 0.68418 0.55075 0.74560
 O236 O 0.75543 0.44848 0.81633
 O237 O 0.75584 0.55046 0.81640
 O238 O 0.68443 0.44887 0.74477
 O239 O 0.74528 0.44909 0.68409
 O240 O 0.81675 0.55052 0.75579
 O241 O 0.81623 0.44850 0.75565
 O242 O 0.74508 0.55092 0.68497
 Cu243 Cu 0.71388 0.49960 0.78688
 Cu244 Cu 0.78697 0.49978 0.71406
 C245 C 0.70291 0.56876 0.70364
 C246 C 0.79750 0.43039 0.79762
 C247 C 0.79803 0.56836 0.79782
 C248 C 0.70308 0.43120 0.70261
 O249 O 0.31599 0.55112 0.25514
 O250 O 0.24449 0.44894 0.18442
 O251 O 0.24458 0.55081 0.18410
 O252 O 0.31569 0.44924 0.25576
 O253 O 0.25483 0.44949 0.31644
 O254 O 0.18369 0.55102 0.24474
 O255 O 0.18364 0.44912 0.24511
 O256 O 0.25511 0.55136 0.31580
 Cu257 Cu 0.28631 0.49998 0.21376
 Cu258 Cu 0.21319 0.50028 0.28661
 C259 C 0.29729 0.56917 0.29711
 C260 C 0.20231 0.43112 0.20310
 C261 C 0.20243 0.56875 0.20266
 C262 C 0.29699 0.43157 0.29789
 O263 O 0.74428 1.05331 0.81551
 O264 O 0.81630 0.95130 0.74500
 O265 O 0.81630 1.05326 0.74496
 O266 O 0.74507 0.95140 0.81637
 O267 O 0.68433 0.95109 0.75558
 O268 O 0.75570 1.05288 0.68409
 O269 O 0.75558 0.95095 0.68420
 O270 O 0.68369 1.05301 0.75463
 Cu271 Cu 0.78657 1.00237 0.78656
 Cu272 Cu 0.71375 1.00192 0.71352
 C273 C 0.70214 1.07117 0.79670
 C274 C 0.79775 0.93325 0.70295
 C275 C 0.79777 1.07105 0.70279
 C276 C 0.70295 0.93341 0.79775
 O277 O 0.75542 0.55146 0.18339
 O278 O 0.68439 0.44909 0.25434
 O279 O 0.68461 0.55098 0.25511
 O280 O 0.75607 0.44946 0.18351
 O281 O 0.81703 0.44950 0.24408
 O282 O 0.74551 0.55087 0.31574
 O283 O 0.74535 0.44901 0.31492
 O284 O 0.81628 0.55152 0.24400
 Cu285 Cu 0.71402 0.50025 0.21299
 Cu286 Cu 0.78718 0.50022 0.28574
 C287 C 0.79750 0.56961 0.20204
 C288 C 0.70316 0.43111 0.29630
 C289 C 0.70329 0.56871 0.29724
 C290 C 0.79829 0.43163 0.20206
 O291 O 0.18378 0.04864 0.74500
 O292 O 0.25576 -0.05317 0.81578
 O293 O 0.25505 0.04871 0.81638
 O294 O 0.18358 -0.05327 0.74542
 O295 O 0.24413 -0.05310 0.68450
 O296 O 0.31574 0.04883 0.75555
 O297 O 0.31631 -0.05307 0.75486
 O298 O 0.24447 0.04878 0.68417
 Cu299 Cu 0.21347 -0.00228 0.78676
 Cu300 Cu 0.28623 -0.00210 0.71366
 C301 C 0.20230 0.06653 0.70287
 C302 C 0.29788 -0.07109 0.79697
 C303 C 0.29717 0.06661 0.79770
 C304 C 0.20206 -0.07118 0.70328
 O305 O 0.24439 0.31510 0.94932
 O306 O 0.31602 0.24443 1.05118
 O307 O 0.31583 0.24370 0.94955
 O308 O 0.24430 0.31531 1.05090
 O309 O 0.18357 0.25429 1.05104
 O310 O 0.25510 0.18269 0.94975
 O311 O 0.25529 0.18342 1.05139
 O312 O 0.18368 0.25407 0.94944
 Cu313 Cu 0.28624 0.28576 1.00017
 Cu314 Cu 0.21332 0.21247 1.00040
 C315 C 0.20224 0.29628 0.93157
 C316 C 0.29737 0.20234 1.06922
 C317 C 0.29725 0.20138 0.93190
 C318 C 0.20219 0.29653 1.06879
 O319 O 0.18348 0.75557 0.55103
 O320 O 0.25501 0.68500 0.44899
 O321 O 0.25493 0.68440 0.55056
 O322 O 0.18362 0.75636 0.44938
 O323 O 0.24442 0.81730 0.44969
 O324 O 0.31575 0.74534 0.55085
 O325 O 0.31580 0.74596 0.44928
 O326 O 0.24429 0.81651 0.55135
 Cu327 Cu 0.21314 0.71422 0.49992
 Cu328 Cu 0.28616 0.78742 0.50033
 C329 C 0.20220 0.79762 0.56915
 C330 C 0.29717 0.70383 0.43127
 C331 C 0.29708 0.70306 0.56847
 C332 C 0.20228 0.79864 0.43177
 O333 O 0.31672 0.75557 -0.05099
 O334 O 0.24517 0.68468 0.05089
 O335 O 0.24594 0.68364 -0.05071
 O336 O 0.31659 0.75617 0.05066
 O337 O 0.25555 0.81682 0.05021
 O338 O 0.18492 0.74430 -0.05116
 O339 O 0.18418 0.74538 0.05041
 O340 O 0.25568 0.81622 -0.05142
 Cu341 Cu 0.28725 0.71394 0.00007
 Cu342 Cu 0.21396 0.78677 -0.00054
 C343 C 0.29789 0.79754 -0.06912
 C344 C 0.20288 0.70334 0.06847
 C345 C 0.20379 0.70209 -0.06874
 C346 C 0.29775 0.79840 0.06821
 O347 O 0.31557 0.25461 0.44968
 O348 O 0.24410 0.18242 0.55057
 O349 O 0.24405 0.18345 0.44889
 O350 O 0.31516 0.25417 0.55124
 O351 O 0.25428 0.31498 0.55146
 O352 O 0.18318 0.24427 0.44911
 O353 O 0.18321 0.24321 0.55079
 O354 O 0.25471 0.31544 0.44989
 Cu355 Cu 0.28582 0.21254 0.50008
 Cu356 Cu 0.21271 0.28556 0.50037
 C357 C 0.29692 0.29686 0.43206
 C358 C 0.20190 0.20096 0.56841
 C359 C 0.20198 0.20228 0.43098
 C360 C 0.29643 0.29625 0.56924
 O361 O 0.74492 0.81692 0.94997
 O362 O 0.81545 0.74445 1.05138
 O363 O 0.81616 0.74538 0.94980
 O364 O 0.74461 0.81626 1.05158
 O365 O 0.68355 0.75557 1.05113
 O366 O 0.75513 0.68466 0.94929
 O367 O 0.75438 0.68377 1.05089
 O368 O 0.68385 0.75624 0.94950
 Cu369 Cu 0.78641 0.78684 1.00074
 Cu370 Cu 0.71308 0.71398 1.00008
 C371 C 0.70270 0.79848 0.93197
 C372 C 0.79654 0.70225 1.06894
 C373 C 0.79744 0.70331 0.93174
 C374 C 0.70237 0.79758 1.06925
 O375 O 0.81649 0.24437 0.55058
 O376 O 0.74529 0.31532 0.44852
 O377 O 0.74511 0.31566 0.55014
 O378 O 0.81677 0.24406 0.44888
 O379 O 0.75593 0.18315 0.44890
 O380 O 0.68430 0.25472 0.55015
 O381 O 0.68447 0.25438 0.44856
 O382 O 0.75567 0.18345 0.55060
 Cu383 Cu 0.78703 0.28596 0.49951
 Cu384 Cu 0.71401 0.21279 0.49954
 C385 C 0.79773 0.20229 0.56855
 C386 C 0.70316 0.29653 0.43066
 C387 C 0.70293 0.29695 0.56792
 C388 C 0.79809 0.20185 0.43107
 O389 O 0.75528 0.31557 0.05046
 O390 O 0.68355 0.24485 -0.05151
 O391 O 0.68339 0.24450 0.05010
 O392 O 0.75442 0.31666 -0.05113
 O393 O 0.81528 0.25583 -0.05155
 O394 O 0.74427 0.18369 0.04972
 O395 O 0.74443 0.18404 -0.05186
 O396 O 0.81610 0.25472 0.05000
 Cu397 Cu 0.71304 0.28651 -0.00041
 Cu398 Cu 0.78613 0.21346 -0.00095
 C399 C 0.79753 0.29683 0.06804
 C400 C 0.70229 0.20280 -0.06960
 C401 C 0.70208 0.20222 0.06763
 C402 C 0.79652 0.29807 -0.06914
 O403 O 0.81699 0.75495 0.44975
 O404 O 0.74527 0.68442 0.55165
 O405 O 0.74517 0.68410 0.45003
 O406 O 0.81654 0.75600 0.55135
 O407 O 0.75581 0.81696 0.55100
 O408 O 0.68445 0.74508 0.44978
 O409 O 0.68457 0.74541 0.55138
 O410 O 0.75627 0.81592 0.44942
 Cu411 Cu 0.78709 0.71373 0.50078
 Cu412 Cu 0.71418 0.78697 0.50037
 C413 C 0.79837 0.79702 0.43167
 C414 C 0.70315 0.70327 0.56937
 C415 C 0.70308 0.70283 0.43209
 C416 C 0.79793 0.79832 0.56893
 O417 O 1.05240 0.31562 0.24444
 O418 O 0.95049 0.24406 0.31542
 O419 O 1.05241 0.24408 0.31547
 O420 O 0.95049 0.31539 0.24416
 O421 O 0.95051 0.25452 0.18347
 O422 O 1.05261 0.18337 0.25469
 O423 O 0.95060 0.18320 0.25472
 O424 O 1.05242 0.25488 0.18368
 Cu425 Cu 1.00143 0.28588 0.28596
 Cu426 Cu 1.00155 0.21288 0.21307
 C427 C 1.07040 0.29705 0.20236
 C428 C 0.93266 0.20187 0.29675
 C429 C 1.07056 0.20201 0.29678
 C430 C 0.93263 0.29670 0.20209
 O431 O 0.44907 0.25389 0.68472
 O432 O 0.55185 0.18290 0.75513
 O433 O 0.44982 0.18237 0.75577
 O434 O 0.55090 0.25420 0.68395
 O435 O 0.55109 0.31497 0.74475
 O436 O 0.44987 0.24326 0.81644
 O437 O 0.55182 0.24362 0.81591
 O438 O 0.44927 0.31475 0.74542
 Cu439 Cu 0.50038 0.21220 0.71383
 Cu440 Cu 0.50053 0.28523 0.78675
 C441 C 0.43122 0.29604 0.70344
 C442 C 0.57002 0.20163 0.79709
 C443 C 0.43204 0.20103 0.79787
 C444 C 0.56872 0.29642 0.70254
 O445 O -0.05266 0.18319 0.74450
 O446 O 0.04969 0.25402 0.81562
 O447 O -0.05206 0.25512 0.81511
 O448 O 0.04932 0.18253 0.74451
 O449 O 0.04978 0.24322 0.68367
 O450 O -0.05167 0.31571 0.75417
 O451 O 0.05011 0.31474 0.75481
 O452 O -0.05216 0.24373 0.68358
 Cu453 Cu -0.00149 0.21260 0.78602
 Cu454 Cu -0.00090 0.28540 0.71291
 C455 C -0.07051 0.20179 0.70238
 C456 C 0.06775 0.29611 0.79699
 C457 C -0.06961 0.29736 0.79631
 C458 C 0.06736 0.20100 0.70245
 O459 O 0.55059 0.25410 0.31504
 O460 O 0.44772 0.18315 0.24463
 O461 O 0.54970 0.18277 0.24378
 O462 O 0.44879 0.25441 0.31589
 O463 O 0.44854 0.31526 0.25520
 O464 O 0.54956 0.24373 0.18320
 O465 O 0.44764 0.24392 0.18393
 O466 O 0.55035 0.31503 0.25444
 Cu467 Cu 0.49923 0.21246 0.28589
 Cu468 Cu 0.49899 0.28558 0.21309
 C469 C 0.56844 0.29628 0.29637
 C470 C 0.42952 0.20186 0.20270
 C471 C 0.56740 0.20150 0.20168
 C472 C 0.43098 0.29666 0.29741
 O473 O 0.95019 0.75635 0.68420
 O474 O 1.05173 0.68404 0.75475
 O475 O 0.94992 0.68485 0.75530
 O476 O 1.05212 0.75598 0.68415
 O477 O 1.05253 0.81655 0.74508
 O478 O 0.95023 0.74558 0.81613
 O479 O 1.05204 0.74466 0.81570
 O480 O 0.95055 0.81707 0.74504
 Cu481 Cu 1.00092 0.71425 0.71346
 Cu482 Cu 1.00139 0.78707 0.78658
 C483 C 0.93254 0.79856 0.70297
 C484 C 1.06966 0.70245 0.79689
 C485 C 0.93221 0.70348 0.79745
 C486 C 1.07042 0.79795 0.70296
 O487 O 0.55222 0.81734 0.24471
 O488 O 0.44967 0.74636 0.31549
 O489 O 0.55147 0.74592 0.31585
 O490 O 0.45020 0.81781 0.24439
 O491 O 0.45012 0.75693 0.18371
 O492 O 0.55143 0.68513 0.25507
 O493 O 0.44964 0.68549 0.25480
 O494 O 0.55206 0.75657 0.18397
 Cu495 Cu 0.50090 0.78800 0.28617
 Cu496 Cu 0.50080 0.71496 0.21327
 C497 C 0.57027 0.79861 0.20271
 C498 C 0.43175 0.70420 0.29683
 C499 C 0.56917 0.70366 0.29725
 C500 C 0.43233 0.79914 0.20232
 O501 O 0.05026 0.75605 0.31618
 O502 O -0.05136 0.68389 0.24540
 O503 O 0.05046 0.68470 0.24491
 O504 O -0.05162 0.75540 0.31645
 O505 O -0.05205 0.81613 0.25571
 O506 O 0.05012 0.74556 0.18423
 O507 O -0.05168 0.74467 0.18465
 O508 O 0.04985 0.81689 0.25549
 Cu509 Cu -0.00048 0.71391 0.28684
 Cu510 Cu -0.00100 0.78694 0.21394
 C511 C 0.06786 0.79833 0.29752
 C512 C -0.06932 0.70241 0.20334
 C513 C 0.06815 0.70344 0.20280
 C514 C -0.06987 0.79742 0.29780
 O515 O 0.44812 0.81715 0.75549
 O516 O 0.55075 0.74600 0.68503
 O517 O 0.44897 0.74569 0.68444
 O518 O 0.55015 0.81769 0.75595
 O519 O 0.55015 0.75690 0.81669
 O520 O 0.44882 0.68501 0.74529
 O521 O 0.55060 0.68523 0.74579
 O522 O 0.44820 0.75654 0.81634
 Cu523 Cu 0.49952 0.78777 0.71415
 Cu524 Cu 0.49944 0.71486 0.78716
 C525 C 0.43001 0.79850 0.79749
 C526 C 0.56858 0.70385 0.70376
 C527 C 0.43116 0.70349 0.70307
 C528 C 0.56797 0.79909 0.79805
   
