data_POSCAR
  _audit_creation_date              2014-09-24
  _audit_creation_method            'ToBaCCo'
  _symmetry_space_group_name_H-M    'P1'
  _symmetry_Int_Tables_number       1
  _symmetry_cell_setting            triclinic
  loop_
  _symmetry_equiv_pos_as_xyz
 x,y,z
_cell_length_a 39.5995
_cell_length_b 39.5909
_cell_length_c 39.4771
_cell_angle_alpha 90.267300
_cell_angle_beta 89.914900
_cell_angle_gamma 90.137700
loop_
  _atom_site_label
  _atom_site_type_symbol
  _atom_site_fract_x
  _atom_site_fract_y
  _atom_site_fract_z
N1 N 0.14943 0.22807 0.23848
 N2 N 0.16117 0.20424 0.25833
 C3 C 0.14139 0.20198 0.28601
 C4 C 0.11599 0.22562 0.28319
 C5 C 0.12176 0.24175 0.25280
 H6 H 0.14477 0.18408 0.30631
 H7 H 0.10653 0.26139 0.24160
 Cu8 Cu 0.19982 0.17713 0.24474
 Cu9 Cu 0.16967 0.23771 0.19454
 Cu10 Cu 0.25199 0.20871 0.18591
 N11 N 0.24085 0.15357 0.23166
 N12 N 0.26108 0.16586 0.20828
 C13 C 0.28759 0.14496 0.20426
 C14 C 0.28358 0.11823 0.22628
 C15 C 0.25379 0.12445 0.24333
 H16 H 0.30825 0.14903 0.18680
 H17 H 0.24250 0.10887 0.26273
 N18 N 0.23250 0.24401 0.15679
 N19 N 0.20087 0.25422 0.15943
 C20 C 0.19481 0.27747 0.13542
 C21 C 0.22400 0.28199 0.11684
 C22 C 0.24739 0.26047 0.13096
 H23 H 0.17102 0.29030 0.13185
 H24 H 0.27319 0.25682 0.12272
 H25 H 0.20227 0.19662 0.18610
 H26 H 0.21471 0.23010 0.21709
 N27 N 0.65759 0.73404 0.74601
 N28 N 0.66300 0.70420 0.75945
 C29 C 0.63850 0.69755 0.78215
 C30 C 0.61686 0.72481 0.78310
 C31 C 0.62970 0.74761 0.76004
 H32 H 0.63693 0.67494 0.79735
 H33 H 0.61959 0.77221 0.75399
 Cu34 Cu 0.70289 0.67818 0.74767
 Cu35 Cu 0.68772 0.75292 0.71177
 Cu36 Cu 0.73699 0.69224 0.67155
 N37 N 0.74066 0.65146 0.73132
 N38 N 0.75421 0.65727 0.70147
 C39 C 0.77947 0.63518 0.69607
 C40 C 0.78182 0.61463 0.72412
 C41 C 0.75684 0.62550 0.74598
 H42 H 0.79477 0.63406 0.67337
 H43 H 0.75094 0.61517 0.77060
 N44 N 0.72706 0.73663 0.65163
 N45 N 0.70963 0.76029 0.66754
 C46 C 0.70835 0.78799 0.64789
 C47 C 0.72571 0.78126 0.61830
 C48 C 0.73728 0.74859 0.62144
 H49 H 0.69528 0.81110 0.65434
 H50 H 0.75229 0.73468 0.60325
 H51 H 0.69067 0.70529 0.69377
 H52 H 0.73047 0.72147 0.71325
 N53 N 0.33064 0.75937 0.75478
 N54 N 0.32632 0.78939 0.76851
 C55 C 0.35113 0.79518 0.79109
 C56 C 0.37183 0.76717 0.79154
 C57 C 0.35808 0.74483 0.76844
 H58 H 0.35392 0.81801 0.80598
 H59 H 0.36770 0.72018 0.76155
 Cu60 Cu 0.28820 0.81751 0.75599
 Cu61 Cu 0.30095 0.74236 0.71923
 Cu62 Cu 0.26027 0.80703 0.67671
 N63 N 0.25351 0.84661 0.73740
 N64 N 0.24286 0.84261 0.70609
 C65 C 0.21980 0.86649 0.69910
 C66 C 0.21565 0.88621 0.72775
 C67 C 0.23737 0.87302 0.75159
 H68 H 0.20702 0.86914 0.67507
 H69 H 0.24126 0.88214 0.77716
 N70 N 0.26806 0.76204 0.65675
 N71 N 0.28190 0.73690 0.67361
 C72 C 0.28243 0.70921 0.65371
 C73 C 0.26838 0.71751 0.62292
 C74 C 0.25948 0.75107 0.62562
 H75 H 0.29293 0.68506 0.66079
 H76 H 0.24741 0.76628 0.60647
 H77 H 0.30306 0.79029 0.70251
 H78 H 0.26056 0.77703 0.71807
 N79 N 0.84224 0.26370 0.24623
 N80 N 0.82948 0.28581 0.26763
 C81 C 0.85027 0.28897 0.29442
 C82 C 0.87734 0.26757 0.28940
 C83 C 0.87152 0.25188 0.25867
 H84 H 0.84627 0.30584 0.31566
 H85 H 0.88768 0.23380 0.24599
 Cu86 Cu 0.78784 0.30956 0.25763
 Cu87 Cu 0.82118 0.25386 0.20281
 Cu88 Cu 0.73833 0.28089 0.19496
 N89 N 0.74938 0.33537 0.24168
 N90 N 0.72993 0.32405 0.21713
 C91 C 0.70500 0.34639 0.21157
 C92 C 0.70928 0.37308 0.23378
 C93 C 0.73755 0.36535 0.25256
 H94 H 0.68529 0.34338 0.19286
 H95 H 0.74860 0.38045 0.27258
 N96 N 0.75856 0.24672 0.16500
 N97 N 0.79042 0.23725 0.16731
 C98 C 0.79710 0.21478 0.14252
 C99 C 0.76809 0.21011 0.12377
 C100 C 0.74412 0.23063 0.13860
 H101 H 0.82124 0.20274 0.13841
 H102 H 0.71831 0.23402 0.13040
 H103 H 0.78747 0.29416 0.19775
 H104 H 0.77542 0.25799 0.22545
 N105 N 0.83699 0.74126 0.24836
 N106 N 0.83235 0.71131 0.23453
 C107 C 0.85688 0.70554 0.21161
 C108 C 0.87775 0.73348 0.21091
 C109 C 0.86442 0.75577 0.23436
 H110 H 0.85921 0.68288 0.19639
 H111 H 0.87412 0.78050 0.24097
 Cu112 Cu 0.79376 0.68350 0.24666
 Cu113 Cu 0.80699 0.75865 0.28364
 Cu114 Cu 0.76128 0.69551 0.32392
 N115 N 0.75765 0.65492 0.26363
 N116 N 0.74469 0.66005 0.29390
 C117 C 0.72048 0.63688 0.29970
 C118 C 0.71819 0.61629 0.27149
 C119 C 0.74213 0.62826 0.24910
 H120 H 0.70586 0.63507 0.32279
 H121 H 0.74774 0.61827 0.22418
 N122 N 0.76973 0.74015 0.34433
 N123 N 0.78578 0.76474 0.32849
 C124 C 0.78617 0.79235 0.34860
 C125 C 0.76964 0.78454 0.37840
 C126 C 0.75953 0.75136 0.37488
 H127 H 0.79802 0.81615 0.34231
 H128 H 0.74546 0.73659 0.39305
 H129 H 0.80641 0.71079 0.30067
 H130 H 0.76549 0.72534 0.28257
 N131 N 0.34966 0.23504 -0.24493
 N132 N 0.33784 0.21225 -0.26619
 C133 C 0.35927 0.20910 -0.29250
 C134 C 0.38587 0.23112 -0.28732
 C135 C 0.37910 0.24720 -0.25694
 H136 H 0.35583 0.19204 -0.31368
 H137 H 0.39451 0.26608 -0.24442
 Cu138 Cu 0.29602 0.18838 -0.25701
 Cu139 Cu 0.32650 0.24576 -0.20260
 Cu140 Cu 0.24249 0.22016 -0.19966
 N141 N 0.25598 0.16362 -0.24323
 N142 N 0.23432 0.17668 -0.22159
 C143 C 0.20809 0.15530 -0.21789
 C144 C 0.21407 0.12724 -0.23788
 C145 C 0.24461 0.13325 -0.25362
 H146 H 0.18659 0.15960 -0.20150
 H147 H 0.25739 0.11689 -0.27149
 N148 N 0.26174 0.25421 -0.16863
 N149 N 0.29391 0.26311 -0.16903
 C150 C 0.29963 0.28515 -0.14358
 C151 C 0.26968 0.29012 -0.12637
 C152 C 0.24617 0.27023 -0.14284
 H153 H 0.32382 0.29649 -0.13780
 H154 H 0.21991 0.26701 -0.13597
 H155 H 0.29155 0.20618 -0.19804
 H156 H 0.28238 0.24135 -0.22789
 N157 N 0.66088 0.26205 -0.24607
 N158 N 0.67363 0.28498 -0.26646
 C159 C 0.65270 0.28931 -0.29290
 C160 C 0.62543 0.26794 -0.28871
 C161 C 0.63136 0.25092 -0.25887
 H162 H 0.65705 0.30671 -0.31350
 H163 H 0.61524 0.23211 -0.24734
 Cu164 Cu 0.71680 0.30686 -0.25762
 Cu165 Cu 0.68427 0.24907 -0.20490
 Cu166 Cu 0.74787 0.29701 -0.17611
 N167 N 0.75303 0.33524 -0.23853
 N168 N 0.76461 0.33174 -0.20740
 C169 C 0.78826 0.35554 -0.20153
 C170 C 0.79135 0.37502 -0.23023
 C171 C 0.76871 0.36163 -0.25317
 H172 H 0.80175 0.35886 -0.17795
 H173 H 0.76359 0.37089 -0.27837
 N174 N 0.73628 0.25410 -0.15520
 N175 N 0.71099 0.23539 -0.16604
 C176 C 0.70722 0.20873 -0.14529
 C177 C 0.73152 0.21098 -0.12035
 C178 C 0.74954 0.23999 -0.12732
 H179 H 0.68790 0.18952 -0.14767
 H180 H 0.77003 0.25059 -0.11259
 H181 H 0.70608 0.30676 -0.20731
 H182 H 0.73792 0.27482 -0.22111
 N183 N 0.15771 0.76712 0.25673
 N184 N 0.17147 0.78759 0.23447
 C185 C 0.15012 0.79146 0.20825
 C186 C 0.12150 0.77256 0.21472
 C187 C 0.12708 0.75744 0.24559
 H188 H 0.15493 0.80689 0.18622
 H189 H 0.11046 0.74004 0.25853
 Cu190 Cu 0.21552 0.80779 0.24226
 Cu191 Cu 0.18158 0.75208 0.29689
 Cu192 Cu 0.26120 0.78615 0.31024
 N193 N 0.25205 0.83628 0.25892
 N194 N 0.26986 0.82773 0.28561
 C195 C 0.29372 0.85135 0.29130
 C196 C 0.29044 0.87606 0.26694
 C197 C 0.26383 0.86578 0.24676
 H198 H 0.31205 0.85048 0.31156
 H199 H 0.25391 0.87871 0.22484
 N200 N 0.24103 0.75182 0.33998
 N201 N 0.21024 0.73970 0.33556
 C202 C 0.20361 0.71709 0.36008
 C203 C 0.23151 0.71501 0.38077
 C204 C 0.25477 0.73728 0.36746
 H205 H 0.18047 0.70275 0.36244
 H206 H 0.27981 0.74246 0.37711
 H207 H 0.21112 0.79517 0.30226
 H208 H 0.22915 0.75891 0.27797
 N209 N 0.49542 0.41833 0.50520
 N210 N 0.46568 0.42357 0.51911
 C211 C 0.45918 0.39883 0.54148
 C212 C 0.48646 0.37720 0.54169
 C213 C 0.50912 0.39033 0.51860
 H214 H 0.43647 0.39683 0.55658
 H215 H 0.53346 0.38001 0.51169
 Cu216 Cu 0.43901 0.46299 0.50765
 Cu217 Cu 0.51339 0.44800 0.47017
 Cu218 Cu 0.45077 0.49401 0.42995
 N219 N 0.41135 0.49960 0.49066
 N220 N 0.41631 0.51193 0.46018
 C221 C 0.39339 0.53619 0.45419
 C222 C 0.37316 0.53919 0.48251
 C223 C 0.38506 0.51561 0.50516
 H224 H 0.39128 0.55012 0.43078
 H225 H 0.37501 0.51028 0.53006
 N226 N 0.49491 0.48442 0.40927
 N227 N 0.51939 0.46840 0.42515
 C228 C 0.54663 0.46690 0.40472
 C229 C 0.53866 0.48261 0.37465
 C230 C 0.50581 0.49347 0.37833
 H231 H 0.57017 0.45458 0.41090
 H232 H 0.49101 0.50710 0.35993
 H233 H 0.48093 0.49010 0.47108
 H234 H 0.46535 0.44910 0.45354
 N235 N -0.00422 -0.08229 1.00150
 N236 N -0.02996 -0.07182 1.01979
 C237 C -0.03673 -0.09480 1.04391
 C238 C -0.01387 -0.12085 1.04052
 C239 C 0.00643 -0.11219 1.01347
 H240 H -0.05667 -0.09266 1.06255
 H241 H 0.02740 -0.12653 1.00339
 Cu242 Cu -0.05214 -0.02923 1.01042
 Cu243 Cu 0.01400 -0.05586 0.96428
 Cu244 Cu -0.03369 0.01297 0.93925
 N245 N -0.08245 0.00464 0.99235
 N246 N -0.07528 0.02089 0.96425
 C247 C -0.10009 0.04307 0.95771
 C248 C -0.12401 0.04039 0.98301
 C249 C -0.11217 0.01581 1.00458
 H250 H -0.10051 0.06009 0.93637
 H251 H -0.12414 0.00697 1.02754
 N252 N 0.00516 -0.00402 0.91307
 N253 N 0.02337 -0.03021 0.92262
 C254 C 0.04759 -0.03593 0.89931
 C255 C 0.04434 -0.01221 0.87407
 C256 C 0.01730 0.00759 0.88345
 H257 H 0.06601 -0.05600 0.90040
 H258 H 0.00714 0.02868 0.86949
 H259 H -0.00426 -0.00864 0.97618
 H260 H -0.03318 -0.03739 0.95254
 N261 N 1.02005 0.60148 0.98901
 N262 N 1.04374 0.58979 1.00909
 C263 C 1.04644 0.61022 1.03634
 C264 C 1.02324 0.63597 1.03297
 C265 C 1.00692 0.62974 1.00271
 H266 H 1.06423 0.60693 1.05681
 H267 H 0.98737 0.64492 0.99128
 Cu268 Cu 1.06992 0.55014 0.99644
 Cu269 Cu 1.00953 0.58014 0.94571
 Cu270 Cu 1.03683 0.49707 0.93905
 N271 N 1.09250 0.50819 0.98434
 N272 N 1.07961 0.48768 0.96144
 C273 C 1.09998 0.46073 0.95771
 C274 C 1.12702 0.46470 0.97940
 C275 C 1.12152 0.49496 0.99601
 H276 H 1.09541 0.43987 0.94052
 H277 H 1.13762 0.50648 1.01493
 N278 N 1.00182 0.51645 0.90956
 N279 N 0.99210 0.54829 0.91149
 C280 C 0.96893 0.55411 0.88728
 C281 C 0.96406 0.52455 0.86929
 C282 C 0.98522 0.50120 0.88395
 H283 H 0.95661 0.57805 0.88301
 H284 H 0.98863 0.47521 0.87615
 H285 H 1.01644 0.53564 0.96939
 H286 H 1.04993 0.54655 0.93797
 N287 N 0.51922 0.09846 0.48785
 N288 N 0.54059 0.08530 0.50957
 C289 C 0.54250 0.10545 0.53709
 C290 C 0.52154 0.13276 0.53202
 C291 C 0.50721 0.12766 0.50054
 H292 H 0.55873 0.10126 0.55867
 H293 H 0.48964 0.14407 0.48768
 Cu294 Cu 0.56624 0.04515 0.49766
 Cu295 Cu 0.50972 0.07720 0.44420
 Cu296 Cu 0.53458 -0.00688 0.43886
 N297 N 0.58906 0.00333 0.48579
 N298 N 0.57682 -0.01680 0.46220
 C299 C 0.59761 -0.04339 0.45820
 C300 C 0.62428 -0.03949 0.48039
 C301 C 0.61810 -0.00971 0.49758
 H302 H 0.59374 -0.06381 0.44032
 H303 H 0.63390 0.00176 0.51678
 N304 N 0.50064 0.01323 0.40859
 N305 N 0.49195 0.04540 0.41000
 C306 C 0.46908 0.05159 0.38561
 C307 C 0.46329 0.02192 0.36805
 C308 C 0.48365 -0.00187 0.38315
 H309 H 0.45744 0.07581 0.38103
 H310 H 0.48616 -0.02810 0.37584
 H311 H 0.51379 0.03235 0.46812
 H312 H 0.54903 0.04208 0.43830
 N313 N -0.01625 0.08879 0.50314
 N314 N -0.04700 0.08492 0.49117
 C315 C -0.05291 0.10898 0.46795
 C316 C -0.02426 0.12872 0.46522
 C317 C -0.00142 0.11521 0.48774
 H318 H -0.07613 0.11177 0.45386
 H319 H 0.02397 0.12407 0.49269
 Cu320 Cu -0.07571 0.04794 0.50603
 Cu321 Cu 0.00221 0.05907 0.53752
 Cu322 Cu -0.05594 0.00667 0.57712
 N323 N -0.09965 0.00713 0.51928
 N324 N -0.09182 -0.00905 0.54720
 C325 C -0.11312 -0.03529 0.55120
 C326 C -0.13531 -0.03551 0.52426
 C327 C -0.12614 -0.00834 0.50448
 H328 H -0.11285 -0.05247 0.57242
 H329 H -0.13827 -0.00018 0.48140
 N330 N -0.01113 0.01670 0.59615
 N331 N 0.01113 0.03631 0.58086
 C332 C 0.03880 0.03905 0.60046
 C333 C 0.03371 0.02002 0.62921
 C334 C 0.00196 0.00606 0.62569
 H335 H 0.06077 0.05420 0.59453
 H336 H -0.01081 -0.01018 0.64358
 H337 H -0.03045 0.01734 0.53438
 H338 H -0.04446 0.05526 0.55888
 N339 N 0.48038 0.59324 0.00972
 N340 N 0.45264 0.58451 -0.00641
 C341 C 0.44898 0.60439 -0.03374
 C342 C 0.47581 0.62670 -0.03457
 C343 C 0.49528 0.61898 -0.00673
 H344 H 0.42793 0.60336 -0.05114
 H345 H 0.51795 0.63188 0.00151
 Cu346 Cu 0.42285 0.54945 0.01080
 Cu347 Cu 0.49338 0.57251 0.05228
 Cu348 Cu 0.44948 0.50018 0.07427
 N349 N 0.40120 0.50648 0.02075
 N350 N 0.41191 0.48695 0.04535
 C351 C 0.39153 0.45978 0.04762
 C352 C 0.36690 0.46252 0.02307
 C353 C 0.37377 0.49230 0.00639
 H354 H 0.39383 0.44005 0.06631
 H355 H 0.35933 0.50320 -0.01405
 N356 N 0.49131 0.51453 0.09732
 N357 N 0.50745 0.54268 0.08948
 C358 C 0.53373 0.54677 0.11073
 C359 C 0.53413 0.51989 0.13279
 C360 C 0.50710 0.49984 0.12360
 H361 H 0.55112 0.56785 0.11043
 H362 H 0.49910 0.47679 0.13586
 H363 H 0.47370 0.52707 0.03643
 H364 H 0.44826 0.55161 0.06767
 N365 N 0.51862 -0.10074 0.00779
 N366 N 0.54297 -0.08965 -0.01197
 C367 C 0.54540 -0.11000 -0.03928
 C368 C 0.52129 -0.13505 -0.03628
 C369 C 0.50474 -0.12851 -0.00621
 H370 H 0.56371 -0.10724 -0.05944
 H371 H 0.48465 -0.14329 0.00502
 Cu372 Cu 0.57041 -0.05106 0.00134
 Cu373 Cu 0.50853 -0.07965 0.05126
 Cu374 Cu 0.53790 0.00276 0.05838
 N375 N 0.59408 -0.00991 0.01405
 N376 N 0.58144 0.01090 0.03680
 C377 C 0.60260 0.03724 0.04092
 C378 C 0.62989 0.03252 0.01963
 C379 C 0.62372 0.00251 0.00285
 H380 H 0.59835 0.05827 0.05797
 H381 H 0.63971 -0.00934 -0.01596
 N382 N 0.50190 -0.01586 0.08738
 N383 N 0.49161 -0.04755 0.08538
 C384 C 0.46816 -0.05309 0.10943
 C385 C 0.46360 -0.02348 0.12737
 C386 C 0.48527 -0.00036 0.11284
 H387 H 0.45540 -0.07689 0.11360
 H388 H 0.48913 0.02556 0.12072
 H389 H 0.51697 -0.03529 0.02774
 H390 H 0.54968 -0.04693 0.05956
 N391 N 1.01217 0.41240 0.49915
 N392 N 1.04250 0.41651 0.48616
 C393 C 1.04830 0.39192 0.46323
 C394 C 1.01999 0.37158 0.46171
 C395 C 0.99744 0.38530 0.48462
 H396 H 1.07128 0.38909 0.44867
 H397 H 0.97243 0.37602 0.49059
 Cu398 Cu 1.07095 0.45425 0.49970
 Cu399 Cu 0.99451 0.44247 0.53419
 Cu400 Cu 1.05670 0.48839 0.57590
 N401 N 1.09723 0.49259 0.51585
 N402 N 1.09145 0.50597 0.54585
 C403 C 1.11350 0.53130 0.55135
 C404 C 1.13401 0.53392 0.52321
 C405 C 1.12317 0.50902 0.50116
 H406 H 1.11472 0.54635 0.57426
 H407 H 1.13362 0.50318 0.47651
 N408 N 1.01196 0.47949 0.59550
 N409 N 0.98767 0.46351 0.57902
 C410 C 0.95984 0.46271 0.59867
 C411 C 0.96720 0.47885 0.62884
 C412 C 1.00034 0.48921 0.62605
 H413 H 0.93623 0.45071 0.59185
 H414 H 1.01483 0.50307 0.64471
 H415 H 1.02835 0.48339 0.53373
 H416 H 1.04192 0.44266 0.55298
 Si417 Si 0.37380 -0.00119 0.24771
 Si418 Si 0.12662 0.00428 0.74780
 Si419 Si 0.62574 0.49784 0.25135
 Si420 Si 0.87588 0.49887 0.74846
 Si421 Si 0.24642 0.37381 -0.00156
 Si422 Si 0.75029 0.12252 0.00088
 Si423 Si 0.25164 0.62696 0.50208
 Si424 Si 0.74618 0.87321 0.49970
 Si425 Si -0.00220 0.24852 0.37553
 Si426 Si 0.00081 0.75479 0.12494
 Si427 Si 0.50485 0.25216 0.62449
 Si428 Si 0.49690 0.74513 0.87369
 C429 C 0.04304 0.26257 0.31585
 C430 C 0.08055 0.26410 0.32664
 C431 C 0.08702 0.23123 0.30683
 C432 C 0.04986 0.22966 0.29574
 C433 C 0.07910 0.21003 0.33842
 C434 C 0.07222 0.24297 0.35851
 C435 C 0.03501 0.24142 0.34746
 C436 C 0.04160 0.20858 0.32757
 H437 H 0.02792 0.28426 0.30670
 H438 H 0.09685 0.28694 0.32608
 H439 H 0.04082 0.22415 0.26969
 H440 H 0.09403 0.18829 0.34773
 H441 H 0.08121 0.24849 0.38456
 H442 H 0.02542 0.18567 0.32804
 C443 C 0.56941 0.72878 0.85759
 C444 C 0.57176 0.70222 0.82885
 C445 C 0.58673 0.72938 0.80545
 C446 C 0.58474 0.75587 0.83396
 C447 C 0.55129 0.73901 0.79301
 C448 C 0.53596 0.71195 0.81672
 C449 C 0.53390 0.73843 0.84528
 C450 C 0.54894 0.76553 0.82183
 H451 H 0.57675 0.72437 0.88431
 H452 H 0.58121 0.67602 0.83171
 H453 H 0.60507 0.77394 0.84092
 H454 H 0.54405 0.74319 0.76621
 H455 H 0.51561 0.69391 0.80973
 H456 H 0.53939 0.79171 0.81917
 C457 C 0.42369 0.76230 0.86289
 C458 C 0.41986 0.78899 0.83469
 C459 C 0.40301 0.76212 0.81209
 C460 C 0.40645 0.73550 0.84006
 C461 C 0.43741 0.75202 0.79712
 C462 C 0.45463 0.77878 0.82000
 C463 C 0.45817 0.75217 0.84803
 C464 C 0.44124 0.72536 0.82537
 H465 H 0.41817 0.76676 0.89010
 H466 H 0.41098 0.81531 0.83851
 H467 H 0.38633 0.71771 0.84819
 H468 H 0.44281 0.74783 0.76982
 H469 H 0.47469 0.79654 0.81173
 H470 H 0.45027 0.69908 0.82174
 C471 C -0.07709 0.25237 0.36142
 C472 C -0.08551 0.28502 0.34178
 C473 C -0.09412 0.26339 0.31050
 C474 C -0.08616 0.23082 0.32987
 C475 C -0.05750 0.26576 0.29778
 C476 C -0.04849 0.28724 0.32934
 C477 C -0.04038 0.25469 0.34881
 C478 C -0.04914 0.23314 0.31749
 H479 H -0.08503 0.24684 0.38778
 H480 H -0.10049 0.30650 0.35186
 H481 H -0.10191 0.20759 0.32995
 H482 H -0.04960 0.27132 0.27139
 H483 H -0.03282 0.31050 0.32918
 H484 H -0.03393 0.21173 0.30762
 C485 C -0.07247 0.73797 0.13782
 C486 C -0.07560 0.71151 0.16636
 C487 C -0.09165 0.73857 0.18933
 C488 C -0.08892 0.76495 0.16101
 C489 C -0.05678 0.74877 0.20306
 C490 C -0.04037 0.72182 0.17984
 C491 C -0.03754 0.74818 0.15148
 C492 C -0.05366 0.77519 0.17446
 H493 H -0.07863 0.73348 0.11075
 H494 H -0.08467 0.68516 0.16305
 H495 H -0.10917 0.78269 0.15342
 H496 H -0.05052 0.75319 0.23012
 H497 H -0.02005 0.70419 0.18751
 H498 H -0.04450 0.80153 0.17752
 C499 C 0.43048 0.24889 0.64062
 C500 C 0.42201 0.21557 0.65913
 C501 C 0.41430 0.23602 0.69145
 C502 C 0.42235 0.26927 0.67318
 C503 C 0.45113 0.23284 0.70322
 C504 C 0.45921 0.21253 0.67062
 C505 C 0.46738 0.24574 0.65225
 C506 C 0.45958 0.26614 0.68459
 H507 H 0.42215 0.25555 0.61468
 H508 H 0.40661 0.19462 0.64849
 H509 H 0.40693 0.29263 0.67439
 H510 H 0.45944 0.22619 0.72918
 H511 H 0.47468 0.18921 0.66930
 H512 H 0.47537 0.28700 0.69485
 C513 C 0.57975 0.25412 0.63881
 C514 C 0.58896 0.28645 0.65901
 C515 C 0.59692 0.26443 0.68997
 C516 C 0.58820 0.23216 0.67004
 C517 C 0.56034 0.26745 0.70263
 C518 C 0.55198 0.28934 0.67141
 C519 C 0.54310 0.25711 0.65139
 C520 C 0.55121 0.23515 0.68237
 H521 H 0.58737 0.24853 0.61230
 H522 H 0.60450 0.30769 0.64933
 H523 H 0.60337 0.20862 0.66962
 H524 H 0.55251 0.27298 0.72909
 H525 H 0.53689 0.31291 0.67193
 H526 H 0.53540 0.21401 0.69180
 C527 C 0.03861 0.78125 0.18581
 C528 C 0.05770 0.75226 0.20357
 C529 C 0.09134 0.76826 0.19246
 C530 C 0.07258 0.79730 0.17502
 C531 C 0.09116 0.74743 0.15952
 C532 C 0.05714 0.73142 0.17036
 C533 C 0.03829 0.76040 0.15284
 C534 C 0.07200 0.77638 0.14180
 H535 H 0.01681 0.79521 0.19659
 H536 H 0.05180 0.74235 0.22916
 H537 H 0.07918 0.82449 0.17709
 H538 H 0.11307 0.73353 0.14886
 H539 H 0.05054 0.70423 0.16825
 H540 H 0.07771 0.78629 0.11617
 C541 C 0.31469 0.04449 0.26223
 C542 C 0.32613 0.08183 0.26389
 C543 C 0.30651 0.08873 0.23108
 C544 C 0.29477 0.05172 0.22938
 C545 C 0.33785 0.08044 0.20959
 C546 C 0.35773 0.07315 0.24246
 C547 C 0.34605 0.03609 0.24079
 C548 C 0.32637 0.04306 0.20800
 H549 H 0.30529 0.02946 0.28396
 H550 H 0.32589 0.09806 0.28689
 H551 H 0.26863 0.04309 0.22394
 H552 H 0.34736 0.09534 0.18781
 H553 H 0.38385 0.08178 0.24792
 H554 H 0.32660 0.02686 0.18498
 C555 C 0.81800 0.54566 0.76440
 C556 C 0.82884 0.58303 0.76082
 C557 C 0.80578 0.58614 0.72971
 C558 C 0.79464 0.54912 0.73325
 C559 C 0.83489 0.57583 0.70604
 C560 C 0.85822 0.57231 0.73725
 C561 C 0.84715 0.53523 0.74079
 C562 C 0.82403 0.53846 0.70969
 H563 H 0.81109 0.53313 0.78852
 H564 H 0.83065 0.60164 0.78186
 H565 H 0.76826 0.53974 0.73155
 H566 H 0.84182 0.58837 0.68191
 H567 H 0.88456 0.58174 0.73912
 H568 H 0.82228 0.51998 0.68855
 C569 C 0.82288 0.44709 0.73080
 C570 C 0.83683 0.41087 0.73467
 C571 C 0.81305 0.40550 0.76497
 C572 C 0.79884 0.44136 0.76112
 C573 C 0.84026 0.41836 0.78964
 C574 C 0.86428 0.42416 0.75924
 C575 C 0.85013 0.46009 0.75538
 C576 C 0.82631 0.45460 0.78568
 H577 H 0.81564 0.45904 0.70652
 H578 H 0.84102 0.39260 0.71368
 H579 H 0.77169 0.44823 0.76194
 H580 H 0.84740 0.40638 0.81395
 H581 H 0.89140 0.41724 0.75824
 H582 H 0.82216 0.47275 0.80677
 C583 C 0.31799 -0.05059 0.23114
 C584 C 0.33166 -0.08717 0.23113
 C585 C 0.31048 -0.09452 0.26290
 C586 C 0.29647 -0.05835 0.26295
 C587 C 0.33988 -0.08376 0.28600
 C588 C 0.36129 -0.07598 0.25415
 C589 C 0.34743 -0.03971 0.25416
 C590 C 0.32618 -0.04717 0.28592
 H591 H 0.30910 -0.03662 0.20855
 H592 H 0.33382 -0.10386 0.20856
 H593 H 0.26960 -0.05129 0.26662
 H594 H 0.34902 -0.09738 0.30871
 H595 H 0.38811 -0.08316 0.25045
 H596 H 0.32413 -0.03045 0.30846
 C597 C 0.18329 -0.03472 0.71543
 C598 C 0.20626 -0.05044 0.74281
 C599 C 0.19398 -0.08571 0.73197
 C600 C 0.17132 -0.07037 0.70445
 C601 C 0.16499 -0.08428 0.75785
 C602 C 0.17695 -0.04861 0.76871
 C603 C 0.15424 -0.03315 0.74129
 C604 C 0.14206 -0.06848 0.73044
 H605 H 0.19068 -0.01398 0.69809
 H606 H 0.23288 -0.04318 0.74786
 H607 H 0.16896 -0.07930 0.67787
 H608 H 0.15760 -0.10493 0.77530
 H609 H 0.17902 -0.03951 0.79525
 H610 H 0.11539 -0.07554 0.72537
 C611 C 0.63738 0.42270 0.24671
 C612 C 0.65797 0.41361 0.21460
 C613 C 0.68793 0.40389 0.23727
 C614 C 0.66757 0.41255 0.26929
 C615 C 0.70195 0.44007 0.23567
 C616 C 0.67174 0.45021 0.21312
 C617 C 0.65134 0.45895 0.24516
 C618 C 0.68133 0.44907 0.26773
 H619 H 0.61059 0.41582 0.25135
 H620 H 0.64841 0.39884 0.19264
 H621 H 0.66600 0.39678 0.29241
 H622 H 0.72874 0.44700 0.23109
 H623 H 0.67334 0.46598 0.19001
 H624 H 0.69098 0.46373 0.28970
 C625 C 0.67753 0.53980 0.28802
 C626 C 0.70668 0.55001 0.26400
 C627 C 0.69499 0.58693 0.26637
 C628 C 0.66612 0.57704 0.29047
 C629 C 0.67188 0.58208 0.23547
 C630 C 0.68325 0.54476 0.23308
 C631 C 0.65435 0.53480 0.25715
 C632 C 0.64276 0.57180 0.25951
 H633 H 0.67960 0.52233 0.30981
 H634 H 0.73321 0.54125 0.26591
 H635 H 0.65901 0.59040 0.31420
 H636 H 0.66974 0.59976 0.21385
 H637 H 0.69011 0.53117 0.20941
 H638 H 0.61633 0.58077 0.25749
 C639 C 0.18696 0.04388 0.77196
 C640 C 0.20347 0.06314 0.74220
 C641 C 0.19223 0.09665 0.75847
 C642 C 0.17602 0.07772 0.78826
 C643 C 0.15882 0.09560 0.73873
 C644 C 0.16980 0.06169 0.72246
 C645 C 0.15352 0.04267 0.75221
 C646 C 0.14234 0.07624 0.76845
 H647 H 0.19850 0.02243 0.78570
 H648 H 0.22879 0.05773 0.73140
 H649 H 0.17874 0.08456 0.81542
 H650 H 0.14741 0.11716 0.72506
 H651 H 0.16701 0.05480 0.69532
 H652 H 0.11697 0.08142 0.77924
 C653 C 0.21399 0.31591 0.03584
 C654 C 0.24118 0.29327 0.05223
 C655 C 0.22924 0.30505 0.08741
 C656 C 0.20194 0.32741 0.07135
 C657 C 0.25461 0.33449 0.08698
 C658 C 0.26659 0.32300 0.05144
 C659 C 0.23935 0.34540 0.03531
 C660 C 0.22740 0.35710 0.07054
 H661 H 0.19733 0.30836 0.01451
 H662 H 0.24682 0.26678 0.04488
 H663 H 0.17519 0.32922 0.07959
 H664 H 0.27132 0.34199 0.10829
 H665 H 0.29331 0.32144 0.04307
 H666 H 0.22167 0.38359 0.07780
 C667 C 0.72363 0.85562 0.57094
 C668 C 0.70212 0.82291 0.57041
 C669 C 0.73071 0.80437 0.58888
 C670 C 0.75212 0.83679 0.58983
 C671 C 0.74668 0.79390 0.55489
 C672 C 0.71817 0.81273 0.53612
 C673 C 0.73961 0.84517 0.53693
 C674 C 0.76812 0.82657 0.55549
 H675 H 0.71418 0.88127 0.57722
 H676 H 0.67486 0.82122 0.57679
 H677 H 0.76610 0.84653 0.61220
 H678 H 0.75619 0.76839 0.54818
 H679 H 0.70418 0.80297 0.51378
 H680 H 0.79539 0.82823 0.54920
 C681 C 0.77650 0.81502 0.46127
 C682 C 0.74865 0.79529 0.44214
 C683 C 0.76398 0.80707 0.40836
 C684 C 0.79192 0.82653 0.42719
 C685 C 0.74128 0.83851 0.40843
 C686 C 0.72592 0.82696 0.44256
 C687 C 0.75377 0.84647 0.46149
 C688 C 0.76911 0.85825 0.42770
 H689 H 0.79100 0.80549 0.48327
 H690 H 0.74019 0.76927 0.44824
 H691 H 0.81918 0.82618 0.42062
 H692 H 0.72679 0.84801 0.38641
 H693 H 0.69865 0.82737 0.44910
 H694 H 0.77749 0.88440 0.42206
 C695 C 0.27841 0.31828 -0.04286
 C696 C 0.25121 0.29719 -0.06154
 C697 C 0.26407 0.31126 -0.09543
 C698 C 0.29137 0.33208 -0.07709
 C699 C 0.23914 0.34088 -0.09316
 C700 C 0.22625 0.32709 -0.05886
 C701 C 0.25350 0.34794 -0.04046
 C702 C 0.26635 0.36193 -0.07442
 H703 H 0.29454 0.30901 -0.02192
 H704 H 0.24502 0.27033 -0.05645
 H705 H 0.31830 0.33417 -0.08464
 H706 H 0.22300 0.35006 -0.11414
 H707 H 0.19936 0.32530 -0.05108
 H708 H 0.27263 0.38877 -0.07949
 C709 C 0.77107 0.17391 -0.05122
 C710 C 0.76307 0.16116 -0.08742
 C711 C 0.73580 0.18850 -0.09043
 C712 C 0.74376 0.20153 -0.05458
 C713 C 0.70887 0.16427 -0.07635
 C714 C 0.73623 0.13665 -0.07292
 C715 C 0.74422 0.14963 -0.03702
 C716 C 0.71696 0.17704 -0.04015
 H717 H 0.79683 0.17777 -0.04088
 H718 H 0.78204 0.15478 -0.10715
 H719 H 0.74684 0.22845 -0.04717
 H720 H 0.68316 0.16039 -0.08684
 H721 H 0.73303 0.10973 -0.08021
 H722 H 0.69808 0.18368 -0.02044
 C723 C 0.23596 0.64096 0.42850
 C724 C 0.20903 0.66906 0.42569
 C725 C 0.23601 0.69279 0.41086
 C726 C 0.26284 0.66494 0.41324
 C727 C 0.24514 0.70579 0.44642
 C728 C 0.21827 0.68179 0.46162
 C729 C 0.24511 0.65389 0.46413
 C730 C 0.27201 0.67766 0.44917
 H731 H 0.23218 0.61410 0.42128
 H732 H 0.18297 0.66555 0.41596
 H733 H 0.28119 0.65817 0.39306
 H734 H 0.24888 0.73267 0.45360
 H735 H 0.19993 0.68862 0.48178
 H736 H 0.29810 0.68106 0.45879
 C737 C 0.22847 0.67560 0.55599
 C738 C 0.24035 0.66432 0.59151
 C739 C 0.26422 0.69494 0.59284
 C740 C 0.25237 0.70649 0.55770
 C741 C 0.29286 0.67412 0.57686
 C742 C 0.26890 0.64322 0.57508
 C743 C 0.25704 0.65470 0.53988
 C744 C 0.28093 0.68536 0.54138
 H745 H 0.20185 0.67614 0.54733
 H746 H 0.22362 0.65585 0.61241
 H747 H 0.24555 0.73266 0.55049
 H748 H 0.31945 0.67370 0.58570
 H749 H 0.27570 0.61701 0.58212
 H750 H 0.29778 0.69397 0.52065
 C751 C 0.72766 0.17144 0.05533
 C752 C 0.73847 0.15870 0.09069
 C753 C 0.76368 0.18816 0.09326
 C754 C 0.75289 0.20120 0.05831
 C755 C 0.79162 0.16652 0.07707
 C756 C 0.76634 0.13683 0.07411
 C757 C 0.75557 0.14976 0.03908
 C758 C 0.78075 0.17929 0.04178
 H759 H 0.70126 0.17323 0.04613
 H760 H 0.72108 0.15038 0.11111
 H761 H 0.74739 0.22793 0.05204
 H762 H 0.81808 0.16446 0.08603
 H763 H 0.77196 0.11017 0.08052
 H764 H 0.79819 0.18786 0.02155
 C765 C 0.48876 0.32565 0.61326
 C766 C 0.51638 0.34250 0.59126
 C767 C 0.49065 0.34605 0.56240
 C768 C 0.46296 0.32959 0.58418
 C769 C 0.50082 0.31145 0.54786
 C770 C 0.52658 0.30753 0.57699
 C771 C 0.49895 0.29100 0.59880
 C772 C 0.47323 0.29463 0.56990
 H773 H 0.48367 0.33123 0.64037
 H774 H 0.53413 0.36248 0.59991
 H775 H 0.43664 0.33875 0.58711
 H776 H 0.50576 0.30584 0.52073
 H777 H 0.55288 0.29825 0.57432
 H778 H 0.45561 0.27456 0.56121
 C779 C 0.01879 0.80303 0.06912
 C780 C -0.01265 0.81202 0.04781
 C781 C -0.01101 0.84827 0.06183
 C782 C 0.02040 0.83963 0.08286
 C783 C -0.03433 0.83874 0.09149
 C784 C -0.03586 0.80209 0.07774
 C785 C -0.00445 0.79338 0.09881
 C786 C -0.00285 0.82969 0.11274
 H787 H 0.04066 0.78805 0.06000
 H788 H -0.01671 0.80499 0.02087
 H789 H 0.04357 0.85535 0.08482
 H790 H -0.05628 0.85357 0.10067
 H791 H -0.05902 0.78637 0.07579
 H792 H 0.00129 0.83665 0.13969
 C793 C -0.01318 0.70974 0.06460
 C794 C 0.01997 0.70240 0.04516
 C795 C 0.01775 0.66529 0.05628
 C796 C -0.01535 0.67228 0.07541
 C797 C 0.03851 0.67309 0.08828
 C798 C 0.04061 0.71054 0.07742
 C799 C 0.00753 0.71762 0.09663
 C800 C 0.00534 0.68047 0.10768
 H801 H -0.03451 0.72511 0.05504
 H802 H 0.02606 0.71123 0.01921
 H803 H -0.03837 0.65627 0.07442
 H804 H 0.05989 0.65793 0.09805
 H805 H 0.06364 0.72654 0.07847
 H806 H -0.00076 0.67161 0.13360
 C807 C 0.52625 0.18131 0.60584
 C808 C 0.49701 0.16209 0.58829
 C809 C 0.51707 0.16255 0.55495
 C810 C 0.54640 0.18139 0.57223
 C811 C 0.50069 0.19620 0.54482
 C812 C 0.48061 0.19612 0.57845
 C813 C 0.50990 0.21501 0.59579
 C814 C 0.52997 0.21534 0.56241
 H815 H 0.53676 0.17545 0.63119
 H816 H 0.48342 0.13991 0.59877
 H817 H 0.57357 0.17510 0.56951
 H818 H 0.49016 0.20232 0.51955
 H819 H 0.45345 0.20243 0.58120
 H820 H 0.54361 0.23742 0.55182
 C821 C 0.01834 0.19500 0.42578
 C822 C -0.00736 0.19343 0.45531
 C823 C -0.01891 0.15847 0.44272
 C824 C 0.00676 0.15965 0.41350
 C825 C -0.04611 0.17463 0.42031
 C826 C -0.03446 0.20992 0.43262
 C827 C -0.00882 0.21122 0.40334
 C828 C -0.02037 0.17620 0.39084
 H829 H 0.04496 0.20360 0.42776
 H830 H -0.00205 0.20031 0.48207
 H831 H 0.02370 0.13867 0.40579
 H832 H -0.07277 0.16622 0.41806
 H833 H -0.05138 0.23082 0.44053
 H834 H -0.02583 0.16935 0.36411
 C835 C 0.51417 0.69772 0.93055
 C836 C 0.48299 0.69238 0.95354
 C837 C 0.48110 0.65542 0.94161
 C838 C 0.51226 0.66039 0.91890
 C839 C 0.45748 0.66515 0.91238
 C840 C 0.45948 0.70243 0.92408
 C841 C 0.49060 0.70758 0.90129
 C842 C 0.48871 0.67057 0.88938
 H843 H 0.53756 0.71135 0.93794
 H844 H 0.48059 0.70121 0.98016
 H845 H 0.53397 0.64280 0.91695
 H846 H 0.43404 0.65165 0.90489
 H847 H 0.43759 0.71973 0.92626
 H848 H 0.49113 0.66182 0.86274
 C849 C 0.48313 0.79215 0.93221
 C850 C 0.51583 0.79872 0.95257
 C851 C 0.51552 0.83559 0.94059
 C852 C 0.48287 0.82937 0.92052
 C853 C 0.53708 0.82638 0.90949
 C854 C 0.53726 0.78914 0.92122
 C855 C 0.50462 0.78278 0.90107
 C856 C 0.50434 0.81972 0.88914
 H857 H 0.46083 0.77793 0.94155
 H858 H 0.52061 0.79026 0.97889
 H859 H 0.46049 0.84620 0.92040
 H860 H 0.55940 0.84058 0.90016
 H861 H 0.55973 0.77248 0.92152
 H862 H 0.49957 0.82822 0.86284
 C863 C 0.03109 0.28948 0.43079
 C864 C 0.04184 0.32456 0.41738
 C865 C 0.01481 0.34097 0.44007
 C866 C 0.00418 0.30625 0.45375
 C867 C -0.01142 0.33839 0.41153
 C868 C 0.01552 0.32158 0.38860
 C869 C 0.00487 0.28679 0.40220
 C870 C -0.02209 0.30328 0.42492
 H871 H 0.04855 0.26909 0.43865
 H872 H 0.06828 0.33337 0.41429
 H873 H -0.00045 0.30015 0.48078
 H874 H -0.02891 0.35879 0.40375
 H875 H 0.02031 0.32763 0.36160
 H876 H -0.04853 0.29435 0.42775
 C877 C 0.29521 0.57632 0.46579
 C878 C 0.33193 0.58926 0.46229
 C879 C 0.34340 0.56178 0.48712
 C880 C 0.30705 0.54860 0.49052
 C881 C 0.33828 0.58583 0.51734
 C882 C 0.32634 0.61357 0.49261
 C883 C 0.28992 0.60042 0.49600
 C884 C 0.30154 0.57291 0.52076
 H885 H 0.27743 0.57254 0.44442
 H886 H 0.34456 0.59597 0.43813
 H887 H 0.29930 0.52165 0.48961
 H888 H 0.35629 0.58956 0.53856
 H889 H 0.33408 0.64051 0.49365
 H890 H 0.28897 0.56613 0.54492
 C891 C 0.80048 0.06820 0.01894
 C892 C 0.80860 0.04580 -0.01224
 C893 C 0.84449 0.06065 -0.01298
 C894 C 0.83677 0.08275 0.01817
 C895 C 0.83308 0.08896 -0.03687
 C896 C 0.79681 0.07439 -0.03604
 C897 C 0.78901 0.09656 -0.00491
 C898 C 0.82499 0.11126 -0.00566
 H899 H 0.78674 0.05971 0.04190
 H900 H 0.80212 0.01864 -0.01500
 H901 H 0.85348 0.08606 0.04049
 H902 H 0.84656 0.09755 -0.05995
 H903 H 0.78017 0.07105 -0.05840
 H904 H 0.83170 0.13835 -0.00286
 C905 C 0.67596 0.10643 0.00510
 C906 C 0.66723 0.07527 -0.01706
 C907 C 0.65979 0.05511 0.01528
 C908 C 0.66814 0.08601 0.03748
 C909 C 0.69664 0.04312 0.01693
 C910 C 0.70445 0.06361 -0.01545
 C911 C 0.71288 0.09455 0.00671
 C912 C 0.70536 0.07430 0.03903
 H913 H 0.66747 0.13263 0.00022
 H914 H 0.65126 0.07551 -0.04013
 H915 H 0.65311 0.09521 0.05939
 H916 H 0.70493 0.01684 0.02186
 H917 H 0.71962 0.05454 -0.03731
 H918 H 0.72125 0.07397 0.06214
 C919 C 0.21028 0.57526 0.53912
 C920 C 0.17303 0.58646 0.54234
 C921 C 0.16283 0.55771 0.51808
 C922 C 0.19974 0.54625 0.51496
 C923 C 0.16691 0.58110 0.48739
 C924 C 0.17755 0.61011 0.51155
 C925 C 0.21453 0.59871 0.50843
 C926 C 0.20420 0.56993 0.48423
 H927 H 0.22821 0.57307 0.56056
 H928 H 0.16009 0.59326 0.56637
 H929 H 0.20870 0.51976 0.51641
 H930 H 0.14878 0.58330 0.46610
 H931 H 0.16851 0.63656 0.50994
 H932 H 0.21708 0.56316 0.46018
 C933 C 0.20102 0.43278 0.01438
 C934 C 0.19345 0.45306 -0.01812
 C935 C 0.15641 0.44153 -0.01615
 C936 C 0.16364 0.42154 0.01632
 C937 C 0.16421 0.41033 -0.03813
 C938 C 0.20160 0.42161 -0.03999
 C939 C 0.20894 0.40155 -0.00755
 C940 C 0.17184 0.39007 -0.00560
 H941 H 0.21638 0.44190 0.03607
 H942 H 0.20218 0.47920 -0.02331
 H943 H 0.14775 0.42167 0.03951
 H944 H 0.14896 0.40110 -0.05986
 H945 H 0.21742 0.42153 -0.06322
 H946 H 0.16316 0.36394 -0.00039
 C947 C 0.69917 0.93090 0.51501
 C948 C 0.69092 0.95069 0.48239
 C949 C 0.65424 0.93805 0.48456
 C950 C 0.66217 0.91854 0.51715
 C951 C 0.66290 0.90695 0.46276
 C952 C 0.69996 0.91934 0.46071
 C953 C 0.70797 0.89978 0.49329
 C954 C 0.67125 0.88718 0.49542
 H955 H 0.71425 0.94070 0.53661
 H956 H 0.69882 0.97703 0.47698
 H957 H 0.64635 0.91835 0.54038
 H958 H 0.64783 0.89714 0.44116
 H959 H 0.71584 0.91944 0.43751
 H960 H 0.66347 0.86081 0.50090
 C961 C 0.79286 0.93163 0.48539
 C962 C 0.79861 0.95277 0.51792
 C963 C 0.83560 0.94110 0.51843
 C964 C 0.83020 0.92024 0.48593
 C965 C 0.82624 0.91053 0.54045
 C966 C 0.78891 0.92194 0.53983
 C967 C 0.78339 0.90104 0.50736
 C968 C 0.82042 0.88942 0.50787
 H969 H 0.77881 0.94014 0.46268
 H970 H 0.78983 0.97906 0.52211
 H971 H 0.84747 0.91971 0.46377
 H972 H 0.84010 0.90185 0.56321
 H973 H 0.77169 0.92236 0.56205
 H974 H 0.82912 0.86311 0.50355
 C975 C 0.29123 0.42009 0.03944
 C976 C 0.32842 0.40823 0.03818
 C977 C 0.33740 0.43965 0.01722
 C978 C 0.30056 0.45175 0.01861
 C979 C 0.33057 0.42036 -0.01594
 C980 C 0.32117 0.38867 0.00493
 C981 C 0.28429 0.40073 0.00629
 C982 C 0.29339 0.43218 -0.01460
 H983 H 0.27484 0.41984 0.06226
 H984 H 0.34296 0.39837 0.06000
 H985 H 0.29225 0.47793 0.02429
 H986 H 0.34702 0.42062 -0.03873
 H987 H 0.32943 0.36249 -0.00078
 H988 H 0.27869 0.44192 -0.03637
 C989 C 0.58021 0.52209 0.30753
 C990 C 0.54832 0.49961 0.30972
 C991 C 0.56059 0.48636 0.34411
 C992 C 0.59223 0.50883 0.34229
 C993 C 0.57939 0.45717 0.32663
 C994 C 0.56741 0.47049 0.29192
 C995 C 0.59907 0.49297 0.28992
 C996 C 0.61131 0.47972 0.32436
 H997 H 0.58056 0.54892 0.29956
 H998 H 0.52227 0.50783 0.30357
 H999 H 0.60228 0.52461 0.36330
 H1000 H 0.57890 0.43038 0.33476
 H1001 H 0.55716 0.45458 0.27113
 H1002 H 0.63743 0.47151 0.33015
 C1003 C 0.08124 -0.03328 0.79627
 C1004 C 0.09532 -0.03112 0.83277
 C1005 C 0.06524 -0.00869 0.84279
 C1006 C 0.05091 -0.01094 0.80669
 C1007 C 0.08524 0.02333 0.83367
 C1008 C 0.11554 0.00096 0.82323
 C1009 C 0.10127 -0.00128 0.78708
 C1010 C 0.07118 0.02110 0.79720
 H1011 H 0.07980 -0.05658 0.78059
 H1012 H 0.10526 -0.05271 0.84753
 H1013 H 0.02410 -0.01589 0.80012
 H1014 H 0.08674 0.04663 0.84934
 H1015 H 0.14235 0.00600 0.82972
 H1016 H 0.06138 0.04259 0.78220
 C1017 C 0.10824 0.00395 0.67366
 C1018 C 0.07550 -0.01664 0.66757
 C1019 C 0.05708 0.01623 0.65861
 C1020 C 0.08955 0.03687 0.66431
 C1021 C 0.04659 0.02138 0.69578
 C1022 C 0.06534 -0.01154 0.70510
 C1023 C 0.09783 0.00906 0.71088
 C1024 C 0.07933 0.04191 0.70184
 H1025 H 0.13381 -0.00327 0.66472
 H1026 H 0.07376 -0.04074 0.65320
 H1027 H 0.09952 0.05691 0.64744
 H1028 H 0.02099 0.02859 0.70469
 H1029 H 0.05554 -0.03152 0.72213
 H1030 H 0.08113 0.06599 0.71625
 C1031 C 0.57074 0.53223 0.21226
 C1032 C 0.58252 0.54091 0.17594
 C1033 C 0.55753 0.51456 0.16190
 C1034 C 0.54550 0.50600 0.19790
 C1035 C 0.58463 0.48691 0.16351
 C1036 C 0.60990 0.51318 0.17797
 C1037 C 0.59791 0.50460 0.21401
 C1038 C 0.57290 0.47831 0.19986
 H1039 H 0.56501 0.55082 0.23258
 H1040 H 0.58644 0.56681 0.16603
 H1041 H 0.51879 0.50308 0.20594
 H1042 H 0.59018 0.46828 0.14318
 H1043 H 0.63661 0.51617 0.16999
 H1044 H 0.56922 0.45235 0.20969
 C1045 C 0.43109 -0.03267 0.20899
 C1046 C 0.41908 -0.04530 0.17389
 C1047 C 0.44089 -0.01788 0.15709
 C1048 C 0.45316 -0.00535 0.19187
 C1049 C 0.41125 0.00710 0.15797
 C1050 C 0.38919 -0.02024 0.17517
 C1051 C 0.40138 -0.00773 0.21002
 C1052 C 0.42322 0.01966 0.19316
 H1053 H 0.43930 -0.04901 0.23018
 H1054 H 0.41734 -0.07217 0.16596
 H1055 H 0.47972 0.00073 0.19855
 H1056 H 0.40326 0.02344 0.13669
 H1057 H 0.36266 -0.02640 0.16851
 H1058 H 0.42464 0.04650 0.20127
 C1059 C 0.89272 0.47827 0.67635
 C1060 C 0.91295 0.50660 0.65855
 C1061 C 0.94428 0.48378 0.65850
 C1062 C 0.92434 0.45536 0.67587
 C1063 C 0.95539 0.49803 0.69304
 C1064 C 0.92379 0.52087 0.69345
 C1065 C 0.90378 0.49252 0.71094
 C1066 C 0.93515 0.46968 0.71073
 H1067 H 0.86675 0.47016 0.66958
 H1068 H 0.90398 0.52179 0.63680
 H1069 H 0.92474 0.42830 0.66839
 H1070 H 0.98130 0.50618 0.70002
 H1071 H 0.92349 0.54795 0.70078
 H1072 H 0.94425 0.45440 0.73234
 C1073 C 0.88973 0.51868 0.82142
 C1074 C 0.91313 0.49237 0.83823
 C1075 C 0.94149 0.51892 0.83949
 C1076 C 0.91835 0.54535 0.82310
 C1077 C 0.95441 0.50759 0.80453
 C1078 C 0.92581 0.48100 0.80292
 C1079 C 0.90262 0.50734 0.78640
 C1080 C 0.93102 0.53390 0.78778
 H1081 H 0.86291 0.52320 0.82818
 H1082 H 0.90592 0.47529 0.85926
 H1083 H 0.91533 0.57196 0.83152
 H1084 H 0.98124 0.50307 0.79774
 H1085 H 0.92880 0.45437 0.79465
 H1086 H 0.93828 0.55095 0.76675
 C1087 C 0.38871 0.01842 0.32043
 C1088 C 0.41097 -0.00870 0.33750
 C1089 C 0.44046 0.01661 0.33840
 C1090 C 0.41845 0.04384 0.32175
 C1091 C 0.45281 0.00435 0.30354
 C1092 C 0.42306 -0.02100 0.30227
 C1093 C 0.40102 0.00616 0.28552
 C1094 C 0.43055 0.03146 0.28656
 H1095 H 0.36208 0.02419 0.32707
 H1096 H 0.40308 -0.02522 0.35874
 H1097 H 0.41657 0.07065 0.32984
 H1098 H 0.47940 -0.00141 0.29676
 H1099 H 0.42476 -0.04781 0.29415
 H1100 H 0.43858 0.04799 0.26539
   
