data_POSCAR
  _audit_creation_date              2014-09-24
  _audit_creation_method            'ToBaCCo'
  _symmetry_space_group_name_H-M    'P1'
  _symmetry_Int_Tables_number       1
  _symmetry_cell_setting            triclinic
  loop_
  _symmetry_equiv_pos_as_xyz
 x,y,z
_cell_length_a 32.8268
_cell_length_b 32.7884
_cell_length_c 43.3008
_cell_angle_alpha 89.999400
_cell_angle_beta 90.000000
_cell_angle_gamma 90.000000
loop_
  _atom_site_label
  _atom_site_type_symbol
  _atom_site_fract_x
  _atom_site_fract_y
  _atom_site_fract_z
B1 B 0.27009 0.23732 0.28230
 B2 B 0.22148 0.22794 0.27393
 B3 B 0.23696 0.27567 0.27946
 B4 B 0.28435 0.28124 0.26511
 B5 B 0.29764 0.23489 0.24985
 B6 B 0.25829 0.20160 0.25580
 B7 B 0.23085 0.26295 0.21870
 B8 B 0.27952 0.27230 0.22712
 B9 B 0.26394 0.22454 0.22156
 B10 B 0.21657 0.21901 0.23594
 B11 B 0.20328 0.26533 0.25118
 B12 B 0.24264 0.29867 0.24523
 B13 B 0.73608 0.77546 0.22155
 B14 B 0.72050 0.72770 0.22712
 B15 B 0.76917 0.73704 0.21869
 B16 B 0.78345 0.78099 0.23593
 B17 B 0.74173 0.79841 0.25579
 B18 B 0.70238 0.76511 0.24985
 B19 B 0.76306 0.72433 0.27945
 B20 B 0.77854 0.77206 0.27392
 B21 B 0.72994 0.76269 0.28229
 B22 B 0.71568 0.71877 0.26511
 B23 B 0.75738 0.70133 0.24523
 B24 B 0.79674 0.73467 0.25117
 B25 B 0.73608 0.22457 -0.22154
 B26 B 0.72050 0.27232 -0.22711
 B27 B 0.76917 0.26298 -0.21868
 B28 B 0.78345 0.21904 -0.23592
 B29 B 0.74173 0.20162 -0.25578
 B30 B 0.70238 0.23492 -0.24984
 B31 B 0.76306 0.27569 -0.27944
 B32 B 0.77854 0.22796 -0.27391
 B33 B 0.72994 0.23734 -0.28228
 B34 B 0.71567 0.28126 -0.26510
 B35 B 0.75738 0.29869 -0.24522
 B36 B 0.79674 0.26536 -0.25116
 B37 B 0.27009 0.76271 -0.28229
 B38 B 0.22148 0.77208 -0.27392
 B39 B 0.23696 0.72435 -0.27945
 B40 B 0.28435 0.71879 -0.26510
 B41 B 0.29764 0.76513 -0.24984
 B42 B 0.25829 0.79843 -0.25579
 B43 B 0.23085 0.73707 -0.21869
 B44 B 0.27952 0.72773 -0.22711
 B45 B 0.26394 0.77549 -0.22155
 B46 B 0.21657 0.78102 -0.23593
 B47 B 0.20329 0.73469 -0.25117
 B48 B 0.24265 0.70136 -0.24522
 B49 B 1.23727 1.27401 0.72058
 B50 B 1.21941 1.22756 0.72826
 B51 B 1.26841 1.23385 0.71942
 B52 B 1.28498 1.27827 0.73464
 B53 B 1.24430 1.29919 0.75374
 B54 B 1.20331 1.26748 0.74932
 B55 B 1.26210 1.22606 0.78061
 B56 B 1.27988 1.27248 0.77296
 B57 B 1.23094 1.26618 0.78174
 B58 B 1.21438 1.22177 0.76659
 B59 B 1.25506 1.20083 0.74747
 B60 B 1.29605 1.23257 0.75188
 B61 B 0.76909 0.73383 0.78174
 B62 B 0.72014 0.72753 0.77297
 B63 B 0.73792 0.77394 0.78061
 B64 B 0.78564 0.77823 0.76659
 B65 B 0.79671 0.73252 0.74932
 B66 B 0.75572 0.70081 0.75375
 B67 B 0.73161 0.76615 0.71943
 B68 B 0.78061 0.77244 0.72826
 B69 B 0.76275 0.72598 0.72058
 B70 B 0.71504 0.72173 0.73465
 B71 B 0.70397 0.76743 0.75189
 B72 B 0.74496 0.79917 0.74747
 B73 B 1.23094 0.73385 0.21827
 B74 B 1.27988 0.72755 0.22705
 B75 B 1.26210 0.77396 0.21940
 B76 B 1.21438 0.77825 0.23342
 B77 B 1.20330 0.73254 0.25069
 B78 B 1.24430 0.70084 0.24627
 B79 B 1.26840 0.76618 0.28059
 B80 B 1.21941 0.77246 0.27175
 B81 B 1.23727 0.72601 0.27943
 B82 B 1.28498 0.72175 0.26537
 B83 B 1.29605 0.76745 0.24813
 B84 B 1.25506 0.79920 0.25254
 B85 B 0.76275 1.27404 0.27943
 B86 B 0.78061 1.22759 0.27175
 B87 B 0.73161 1.23388 0.28058
 B88 B 0.71504 1.27830 0.26536
 B89 B 0.75572 1.29921 0.24626
 B90 B 0.79671 1.26751 0.25069
 B91 B 0.73792 1.22608 0.21940
 B92 B 0.72014 1.27250 0.22704
 B93 B 0.76909 1.26619 0.21827
 B94 B 0.78564 1.22180 0.23342
 B95 B 0.74496 1.20086 0.25254
 B96 B 0.70397 1.23260 0.24812
 O97 O 0.45642 1.07483 0.02609
 O98 O 0.54361 0.92519 0.02608
 O99 O 0.42047 0.95034 0.01614
 O100 O 0.57956 1.04968 0.01614
 O101 O 0.47429 0.93068 0.03718
 O102 O 0.52574 1.06933 0.03719
 O103 O 0.57016 0.98246 0.03939
 O104 O 0.42987 1.01756 0.03939
 C105 C 0.43550 1.05427 0.04482
 C106 C 0.56453 0.94575 0.04481
 C107 C 0.43691 0.93284 0.03810
 C108 C 0.56312 1.06718 0.03811
 O109 O 0.54361 1.07483 -0.02607
 O110 O 0.45642 0.92520 -0.02608
 O111 O 0.42048 1.04968 -0.01612
 O112 O 0.57956 0.95035 -0.01613
 O113 O 0.52574 0.93070 -0.03718
 O114 O 0.47429 1.06935 -0.03717
 O115 O 0.57016 1.01757 -0.03938
 O116 O 0.42987 0.98247 -0.03938
 Co117 Co 0.50002 1.06559 0.00001
 Co118 Co 0.50002 0.93443 0.00000
 Co119 Co 0.43300 1.00001 0.00001
 Co120 Co 0.56703 1.00001 0.00001
 O121 O 0.50002 1.00001 0.00001
 C122 C 0.56453 1.05428 -0.04480
 C123 C 0.43550 0.94575 -0.04481
 C124 C 0.43691 1.06719 -0.03809
 C125 C 0.56312 0.93285 -0.03810
 O126 O 0.95544 0.57583 0.52487
 O127 O 1.04459 0.42419 0.52486
 O128 O 0.92118 0.45102 0.51744
 O129 O 1.07885 0.54900 0.51744
 O130 O 0.97547 0.43047 0.53759
 O131 O 1.02456 0.56954 0.53760
 O132 O 1.07009 0.48128 0.53914
 O133 O 0.92995 0.51874 0.53914
 C134 C 0.93473 0.55569 0.54389
 C135 C 1.06530 0.44433 0.54388
 C136 C 0.93820 0.43381 0.53932
 C137 C 1.06184 0.56621 0.53933
 O138 O 1.04459 0.57584 0.47515
 O139 O 0.95544 0.42419 0.47514
 O140 O 0.92119 0.54900 0.48258
 O141 O 1.07885 0.45103 0.48257
 O142 O 1.02456 0.43048 0.46241
 O143 O 0.97547 0.56956 0.46242
 O144 O 1.07009 0.51875 0.46087
 O145 O 0.92994 0.48129 0.46087
 Co146 Co 1.00002 0.56595 0.50001
 Co147 Co 1.00002 0.43408 0.50000
 Co148 Co 0.93317 0.50001 0.50001
 Co149 Co 1.06686 0.50001 0.50001
 O150 O 1.00002 0.50001 0.50001
 C151 C 1.06530 0.55570 0.45613
 C152 C 0.93473 0.44434 0.45612
 C153 C 0.93820 0.56622 0.46069
 C154 C 1.06183 0.43382 0.46068
 O155 O 1.02483 0.45164 0.05987
 O156 O 1.02483 0.54839 -0.05986
 O157 O 1.03110 0.42361 -0.03429
 O158 O 1.03110 0.57641 0.03430
 O159 O 1.05149 0.48016 -0.05317
 O160 O 1.05149 0.51987 0.05318
 O161 O 1.04995 0.56989 -0.01815
 O162 O 1.04995 0.43014 0.01816
 C163 C 1.05239 0.43257 0.04653
 C164 C 1.05239 0.56746 -0.04652
 C165 C 1.05713 0.44313 -0.04934
 C166 C 1.05713 0.55690 0.04935
 O167 O 0.97522 0.54839 0.05987
 O168 O 0.97522 0.45164 -0.05986
 O169 O 0.96895 0.42361 0.03430
 O170 O 0.96895 0.57641 -0.03429
 O171 O 0.94856 0.51987 -0.05317
 O172 O 0.94856 0.48016 0.05318
 O173 O 0.95010 0.56988 0.01815
 O174 O 0.95010 0.43014 -0.01814
 Co175 Co 1.00003 0.50001 0.05065
 Co176 Co 1.00003 0.50001 -0.05064
 Co177 Co 1.00003 0.43390 0.00001
 Co178 Co 1.00003 0.56613 0.00000
 O179 O 1.00003 0.50001 0.00001
 C180 C 0.94766 0.56745 0.04652
 C181 C 0.94766 0.43257 -0.04651
 C182 C 0.94292 0.44313 0.04935
 C183 C 0.94292 0.55690 -0.04934
 O184 O 0.55104 0.97892 0.55304
 O185 O 0.55104 1.02111 0.44696
 O186 O 0.55045 0.92994 0.48283
 O187 O 0.55045 1.07009 0.51718
 O188 O 0.52678 0.95251 0.44074
 O189 O 0.52678 1.04752 0.55927
 O190 O 0.52924 1.07736 0.46492
 O191 O 0.52925 0.92267 0.53509
 C192 C 0.55576 0.94171 0.54989
 C193 C 0.55576 1.05832 0.45012
 C194 C 0.55385 0.93316 0.45454
 C195 C 0.55385 1.06687 0.54547
 O196 O 0.44901 1.02110 0.55305
 O197 O 0.44901 0.97893 0.44696
 O198 O 0.44960 0.92994 0.51717
 O199 O 0.44960 1.07009 0.48284
 O200 O 0.47327 1.04752 0.44074
 O201 O 0.47327 0.95250 0.55927
 O202 O 0.47080 1.07735 0.53510
 O203 O 0.47080 0.92267 0.46491
 Co204 Co 0.50002 1.00001 0.55045
 Co205 Co 0.50002 1.00002 0.44956
 Co206 Co 0.50002 0.93358 0.50000
 Co207 Co 0.50002 1.06644 0.50001
 O208 O 0.50002 1.00001 0.50000
 C209 C 0.44429 1.05831 0.54989
 C210 C 0.44429 0.94172 0.45012
 C211 C 0.44619 0.93315 0.54546
 C212 C 0.44619 1.06687 0.45455
 O213 O 1.06978 1.04939 0.48054
 O214 O 0.93021 1.04938 0.51948
 O215 O 0.98248 1.05203 0.44713
 O216 O 1.01751 1.05201 0.55289
 O217 O 0.92493 1.03482 0.46699
 O218 O 1.07506 1.03480 0.53303
 O219 O 0.95049 1.02085 0.55959
 O220 O 1.04950 1.02088 0.44043
 C221 C 1.06572 1.05082 0.45235
 C222 C 0.93427 1.05080 0.54767
 C223 C 0.94571 1.05919 0.45092
 C224 C 1.05427 1.05917 0.54910
 O225 O 1.06978 0.95064 0.51947
 O226 O 0.93021 0.95065 0.48053
 O227 O 1.01751 0.94802 0.44712
 O228 O 0.98248 0.94799 0.55288
 O229 O 0.92493 0.96521 0.53302
 O230 O 1.07506 0.96523 0.46698
 O231 O 1.04950 0.97915 0.55958
 O232 O 0.95049 0.97918 0.44042
 Co233 Co 1.06591 1.00001 0.50001
 Co234 Co 0.93407 1.00001 0.50000
 Co235 Co 0.99999 1.00002 0.44942
 Co236 Co 0.99999 1.00000 0.55059
 O237 O 0.99999 1.00001 0.50001
 C238 C 1.06572 0.94920 0.54766
 C239 C 0.93427 0.94922 0.45234
 C240 C 1.05427 0.94086 0.45091
 C241 C 0.94571 0.94083 0.54909
 O242 O 0.56976 0.54927 -0.01974
 O243 O 0.43023 0.54926 0.01977
 O244 O 0.48272 0.55216 -0.05293
 O245 O 0.51726 0.55214 0.05295
 O246 O 0.42519 0.53528 -0.03273
 O247 O 0.57479 0.53526 0.03275
 O248 O 0.45031 0.52027 0.05966
 O249 O 0.54967 0.52031 -0.05965
 C250 C 0.56575 0.55044 -0.04795
 C251 C 0.43423 0.55041 0.04797
 C252 C 0.44603 0.55961 -0.04881
 C253 C 0.55395 0.55958 0.04883
 O254 O 0.56976 0.45076 0.01975
 O255 O 0.43023 0.45077 -0.01976
 O256 O 0.51726 0.44789 -0.05294
 O257 O 0.48272 0.44787 0.05294
 O258 O 0.42519 0.46475 0.03274
 O259 O 0.57479 0.46476 -0.03274
 O260 O 0.54967 0.47972 0.05966
 O261 O 0.45031 0.47975 -0.05965
 Co262 Co 0.56583 0.50001 0.00001
 Co263 Co 0.43415 0.50001 0.00001
 Co264 Co 0.49999 0.50003 -0.05064
 Co265 Co 0.49999 0.50000 0.05065
 O266 O 0.49999 0.50001 0.00001
 C267 C 0.56575 0.44959 0.04796
 C268 C 0.43423 0.44961 -0.04796
 C269 C 0.55395 0.44044 -0.04882
 C270 C 0.44603 0.44042 0.04882
 C271 C 0.39424 1.13737 0.09652
 C272 C 0.36415 1.11634 0.11294
 C273 C 0.35929 1.07431 0.10866
 C274 C 0.38369 1.05357 0.08734
 C275 C 0.27965 1.19967 0.19402
 C276 C 0.41862 1.11676 0.07522
 C277 C 0.33847 1.13814 0.13415
 C278 C 0.31799 1.15714 0.15218
 C279 C 0.29598 1.17997 0.17411
 C280 C 0.41317 1.07477 0.07004
 H281 H 0.39846 1.16985 0.09987
 H282 H 0.33626 1.05770 0.12143
 H283 H 0.37873 1.02124 0.08379
 H284 H 0.44109 1.13389 0.06228
 C285 C 0.85755 0.57689 0.60699
 C286 C 0.86176 0.61914 0.61049
 C287 C 0.89155 0.64003 0.59365
 C288 C 0.91633 0.61904 0.57280
 C289 C 0.77772 0.70230 0.69214
 C290 C 0.88236 0.55577 0.58613
 C291 C 0.83601 0.64123 0.63157
 C292 C 0.81559 0.66033 0.64963
 C293 C 0.79375 0.68303 0.67181
 C294 C 0.91165 0.57677 0.56849
 H295 H 0.83480 0.56036 0.62011
 H296 H 0.89532 0.67266 0.59638
 H297 H 0.93861 0.63605 0.55960
 H298 H 0.87795 0.52325 0.58325
 C299 C 0.64074 0.92570 0.10865
 C300 C 0.63587 0.88366 0.11293
 C301 C 0.60579 0.86264 0.09651
 C302 C 0.58141 0.88325 0.07520
 C303 C 0.72037 0.80032 0.19401
 C304 C 0.61633 0.94644 0.08734
 C305 C 0.66155 0.86185 0.13414
 C306 C 0.68203 0.84285 0.15217
 C307 C 0.70404 0.82002 0.17410
 C308 C 0.58686 0.92524 0.07003
 H309 H 0.66377 0.94229 0.12143
 H310 H 0.60157 0.83015 0.09985
 H311 H 0.55894 0.86612 0.06226
 H312 H 0.62130 0.97877 0.08379
 C313 C 1.14247 0.42312 0.60699
 C314 C 1.13826 0.38086 0.61048
 C315 C 1.10848 0.35998 0.59364
 C316 C 1.08369 0.38097 0.57279
 C317 C 1.22230 0.29769 0.69213
 C318 C 1.11766 0.44424 0.58612
 C319 C 1.16401 0.35876 0.63156
 C320 C 1.18443 0.33966 0.64962
 C321 C 1.20626 0.31696 0.67180
 C322 C 1.08838 0.42324 0.56849
 H323 H 1.16523 0.43963 0.62010
 H324 H 1.10471 0.32734 0.59637
 H325 H 1.06142 0.36396 0.55958
 H326 H 1.12207 0.47676 0.58325
 C327 C 0.60578 1.13739 -0.09650
 C328 C 0.63587 1.11636 -0.11292
 C329 C 0.64074 1.07433 -0.10864
 C330 C 0.61633 1.05359 -0.08733
 C331 C 0.72037 1.19970 -0.19400
 C332 C 0.58141 1.11677 -0.07519
 C333 C 0.66155 1.13817 -0.13413
 C334 C 0.68203 1.15718 -0.15216
 C335 C 0.70404 1.18000 -0.17409
 C336 C 0.58686 1.07478 -0.07002
 H337 H 0.60157 1.16987 -0.09984
 H338 H 0.66376 1.05773 -0.12142
 H339 H 0.62130 1.02126 -0.08378
 H340 H 0.55894 1.13390 -0.06225
 C341 C 1.10848 0.64005 0.40637
 C342 C 1.13826 0.61916 0.38953
 C343 C 1.14247 0.57691 0.39302
 C344 C 1.11766 0.55578 0.41389
 C345 C 1.22230 0.70233 0.30788
 C346 C 1.08369 0.61905 0.42722
 C347 C 1.16401 0.64126 0.36845
 C348 C 1.18443 0.66036 0.35039
 C349 C 1.20626 0.68306 0.32821
 C350 C 1.08838 0.57678 0.43152
 H351 H 1.10471 0.67268 0.40364
 H352 H 1.16523 0.56039 0.37991
 H353 H 1.12207 0.52326 0.41676
 H354 H 1.06142 0.63606 0.44043
 C355 C 0.35928 0.92572 -0.10865
 C356 C 0.36415 0.88369 -0.11293
 C357 C 0.39424 0.86266 -0.09651
 C358 C 0.41862 0.88327 -0.07520
 C359 C 0.27965 0.80036 -0.19401
 C360 C 0.38369 0.94646 -0.08733
 C361 C 0.33847 0.86188 -0.13414
 C362 C 0.31799 0.84288 -0.15217
 C363 C 0.29598 0.82006 -0.17410
 C364 C 0.41317 0.92526 -0.07003
 H365 H 0.33626 0.94232 -0.12142
 H366 H 0.39846 0.83018 -0.09986
 H367 H 0.44109 0.86614 -0.06227
 H368 H 0.37873 0.97878 -0.08378
 C369 C 0.85755 0.42314 0.39302
 C370 C 0.86176 0.38089 0.38952
 C371 C 0.89155 0.36000 0.40636
 C372 C 0.91633 0.38099 0.42721
 C373 C 0.77772 0.29773 0.30787
 C374 C 0.88236 0.44426 0.41388
 C375 C 0.83601 0.35879 0.36844
 C376 C 0.81559 0.33969 0.35038
 C377 C 0.79375 0.31700 0.32820
 C378 C 0.91164 0.42326 0.43152
 H379 H 0.83479 0.43966 0.37991
 H380 H 0.89532 0.32736 0.40363
 H381 H 0.93861 0.36397 0.44041
 H382 H 0.87795 0.47678 0.41677
 C383 C 1.11219 0.39361 0.11510
 C384 C 1.13392 0.36098 0.10237
 C385 C 1.13122 0.35335 0.07054
 C386 C 1.10599 0.37763 0.05178
 C387 C 1.21168 0.27807 0.18809
 C388 C 1.08700 0.41764 0.09655
 C389 C 1.15742 0.33506 0.12275
 C390 C 1.17565 0.31500 0.14172
 C391 C 1.19563 0.29373 0.16591
 C392 C 1.08301 0.40957 0.06479
 H393 H 1.11403 0.40001 0.13962
 H394 H 1.14789 0.32822 0.06035
 H395 H 1.10342 0.37060 0.02742
 H396 H 1.06990 0.44210 0.10726
 C397 C 0.63625 0.91416 0.60924
 C398 C 0.63996 0.87204 0.60434
 C399 C 0.61897 0.85377 0.57987
 C400 C 0.59315 0.87704 0.56122
 C401 C 0.71344 0.78461 0.68969
 C402 C 0.61043 0.93759 0.59051
 C403 C 0.66234 0.84700 0.62589
 C404 C 0.67956 0.82613 0.64481
 C405 C 0.69833 0.80270 0.66828
 C406 C 0.58778 0.91901 0.56680
 H407 H 0.65222 0.92865 0.62819
 H408 H 0.62148 0.82125 0.57585
 H409 H 0.57629 0.86186 0.54305
 H410 H 0.60686 0.96979 0.59542
 C411 C 1.13122 0.64668 -0.07053
 C412 C 1.13392 0.63904 -0.10237
 C413 C 1.11219 0.60641 -0.11509
 C414 C 1.08699 0.58239 -0.09654
 C415 C 1.21168 0.72196 -0.18808
 C416 C 1.10599 0.62240 -0.05177
 C417 C 1.15742 0.66496 -0.12274
 C418 C 1.17565 0.68503 -0.14171
 C419 C 1.19563 0.70629 -0.16590
 C420 C 1.08301 0.59045 -0.06478
 H421 H 1.14789 0.67180 -0.06034
 H422 H 1.11403 0.60002 -0.13961
 H423 H 1.06990 0.55793 -0.10725
 H424 H 1.10342 0.62943 -0.02741
 C425 C 0.63625 1.08586 0.39077
 C426 C 0.63996 1.12799 0.39567
 C427 C 0.61897 1.14626 0.42013
 C428 C 0.59315 1.12299 0.43879
 C429 C 0.71344 1.21542 0.31032
 C430 C 0.61043 1.06243 0.40950
 C431 C 0.66234 1.15303 0.37412
 C432 C 0.67956 1.17390 0.35520
 C433 C 0.69833 1.19733 0.33173
 C434 C 0.58778 1.08102 0.43321
 H435 H 0.65222 1.07137 0.37182
 H436 H 0.62148 1.17878 0.42416
 H437 H 0.57629 1.13817 0.45696
 H438 H 0.60686 1.03024 0.40459
 C439 C 0.88785 0.60640 0.11510
 C440 C 0.86612 0.63902 0.10237
 C441 C 0.86882 0.64666 0.07054
 C442 C 0.89405 0.62238 0.05178
 C443 C 0.78834 0.72193 0.18808
 C444 C 0.91305 0.58238 0.09655
 C445 C 0.84261 0.66494 0.12275
 C446 C 0.82437 0.68500 0.14171
 C447 C 0.80439 0.70626 0.16591
 C448 C 0.91704 0.59044 0.06478
 H449 H 0.88601 0.60000 0.13962
 H450 H 0.85214 0.67178 0.06034
 H451 H 0.89662 0.62941 0.02742
 H452 H 0.93015 0.55792 0.10726
 C453 C 0.38106 1.14624 0.57988
 C454 C 0.36007 1.12797 0.60434
 C455 C 0.36379 1.08584 0.60924
 C456 C 0.38961 1.06241 0.59051
 C457 C 0.28657 1.21538 0.68969
 C458 C 0.40690 1.12298 0.56123
 C459 C 0.33769 1.15300 0.62589
 C460 C 0.32047 1.17387 0.64481
 C461 C 0.30169 1.19729 0.66828
 C462 C 0.41226 1.08101 0.56680
 H463 H 0.37856 1.17876 0.57586
 H464 H 0.34781 1.07135 0.62818
 H465 H 0.39318 1.03022 0.59541
 H466 H 0.42376 1.13816 0.54306
 C467 C 0.88785 0.39363 -0.11509
 C468 C 0.86612 0.36100 -0.10236
 C469 C 0.86882 0.35337 -0.07053
 C470 C 0.89405 0.37764 -0.05177
 C471 C 0.78834 0.27810 -0.18807
 C472 C 0.91305 0.41765 -0.09654
 C473 C 0.84261 0.33509 -0.12274
 C474 C 0.82437 0.31503 -0.14170
 C475 C 0.80439 0.29377 -0.16590
 C476 C 0.91704 0.40958 -0.06477
 H477 H 0.88601 0.40002 -0.13961
 H478 H 0.85214 0.32824 -0.06034
 H479 H 0.89662 0.37061 -0.02741
 H480 H 0.93015 0.44211 -0.10725
 C481 C 0.36379 0.91418 0.39077
 C482 C 0.36007 0.87206 0.39567
 C483 C 0.38107 0.85378 0.42013
 C484 C 0.40690 0.87705 0.43878
 C485 C 0.28657 0.78464 0.31032
 C486 C 0.38961 0.93761 0.40950
 C487 C 0.33769 0.84702 0.37412
 C488 C 0.32047 0.82615 0.35520
 C489 C 0.30169 0.80273 0.33173
 C490 C 0.41226 0.91902 0.43320
 H491 H 0.34781 0.92868 0.37183
 H492 H 0.37856 0.82126 0.42415
 H493 H 0.42376 0.86186 0.45695
 H494 H 0.39318 0.96981 0.40460
 C495 C 1.13281 1.13469 0.42024
 C496 C 1.11759 1.13707 0.39000
 C497 C 1.08338 1.11443 0.38160
 C498 C 1.06564 1.08789 0.40267
 C499 C 1.19489 1.20768 0.29865
 C500 C 1.11462 1.10825 0.44167
 C501 C 1.13874 1.15914 0.36631
 C502 C 1.15596 1.17540 0.34511
 C503 C 1.17634 1.19287 0.31979
 C504 C 1.08161 1.08374 0.43263
 H505 H 1.15950 1.15204 0.42687
 H506 H 1.07141 1.11599 0.35830
 H507 H 1.04008 1.06957 0.39513
 H508 H 1.12752 1.10539 0.46459
 C509 C 0.58198 0.61361 -0.11912
 C510 C 0.61620 0.63647 -0.11117
 C511 C 0.63195 0.63441 -0.08106
 C512 C 0.61423 0.60806 -0.05931
 C513 C 0.69264 0.70697 -0.20303
 C514 C 0.56473 0.58716 -0.09775
 C515 C 0.63683 0.65842 -0.13519
 C516 C 0.65369 0.67460 -0.15660
 C517 C 0.67388 0.69206 -0.18202
 C518 C 0.58120 0.58332 -0.06792
 H519 H 0.56960 0.61490 -0.14231
 H520 H 0.65867 0.65193 -0.07478
 H521 H 0.62753 0.60544 -0.03651
 H522 H 0.53915 0.56867 -0.10499
 C523 C 0.86721 1.13470 0.57979
 C524 C 0.88242 1.13706 0.61003
 C525 C 0.91660 1.11439 0.61843
 C526 C 0.93434 1.08784 0.59736
 C527 C 0.80513 1.20770 0.70138
 C528 C 0.88539 1.10825 0.55836
 C529 C 0.86128 1.15913 0.63372
 C530 C 0.84406 1.17540 0.65491
 C531 C 0.82368 1.19288 0.68024
 C532 C 0.91837 1.08371 0.56740
 H533 H 0.84053 1.15206 0.57316
 H534 H 0.92856 1.11593 0.64174
 H535 H 0.95988 1.06950 0.60491
 H536 H 0.87250 1.10541 0.53543
 C537 C 0.36807 0.63441 0.08109
 C538 C 0.38380 0.63645 0.11120
 C539 C 0.41800 0.61355 0.11916
 C540 C 0.43524 0.58710 0.09779
 C541 C 0.30738 0.70699 0.20305
 C542 C 0.38578 0.60806 0.05934
 C543 C 0.36318 0.65842 0.13522
 C544 C 0.34633 0.67460 0.15663
 C545 C 0.32614 0.69207 0.18205
 C546 C 0.41878 0.58329 0.06795
 H547 H 0.34137 0.65196 0.07480
 H548 H 0.43037 0.61483 0.14235
 H549 H 0.46080 0.56859 0.10503
 H550 H 0.37250 0.60547 0.03653
 C551 C 1.08338 0.88559 0.61841
 C552 C 1.11759 0.86295 0.61001
 C553 C 1.13281 0.86534 0.57977
 C554 C 1.11461 0.89178 0.55834
 C555 C 1.19490 0.79234 0.70136
 C556 C 1.06564 0.91214 0.59734
 C557 C 1.13874 0.84089 0.63370
 C558 C 1.15596 0.82463 0.65490
 C559 C 1.17634 0.80715 0.68022
 C560 C 1.08161 0.91629 0.56738
 H561 H 1.07141 0.88404 0.64171
 H562 H 1.15950 0.84799 0.57314
 H563 H 1.12752 0.89463 0.53542
 H564 H 1.04008 0.93046 0.60488
 C565 C 0.63195 0.36562 0.08107
 C566 C 0.61620 0.36356 0.11118
 C567 C 0.58198 0.38642 0.11913
 C568 C 0.56473 0.41287 0.09776
 C569 C 0.69264 0.29306 0.20304
 C570 C 0.61423 0.39197 0.05933
 C571 C 0.63683 0.34161 0.13520
 C572 C 0.65369 0.32543 0.15661
 C573 C 0.67389 0.30797 0.18203
 C574 C 0.58120 0.41671 0.06793
 H575 H 0.65867 0.34810 0.07479
 H576 H 0.56961 0.38512 0.14232
 H577 H 0.53916 0.43136 0.10500
 H578 H 0.62753 0.39458 0.03652
 C579 C 0.91660 0.88564 0.38158
 C580 C 0.88242 0.86297 0.38998
 C581 C 0.86721 0.86533 0.42022
 C582 C 0.88539 0.89178 0.44165
 C583 C 0.80513 0.79233 0.29863
 C584 C 0.93434 0.91219 0.40265
 C585 C 0.86128 0.84090 0.36629
 C586 C 0.84406 0.82463 0.34510
 C587 C 0.82369 0.80715 0.31977
 C588 C 0.91838 0.91632 0.43261
 H589 H 0.92856 0.88410 0.35827
 H590 H 0.84053 0.84796 0.42685
 H591 H 0.87250 0.89461 0.46458
 H592 H 0.95988 0.93053 0.39510
 C593 C 0.41801 0.38647 -0.11915
 C594 C 0.38381 0.36357 -0.11119
 C595 C 0.36807 0.36561 -0.08108
 C596 C 0.38578 0.39197 -0.05933
 C597 C 0.30738 0.29304 -0.20304
 C598 C 0.43524 0.41292 -0.09778
 C599 C 0.36318 0.34161 -0.13521
 C600 C 0.34633 0.32542 -0.15662
 C601 C 0.32614 0.30796 -0.18204
 C602 C 0.41878 0.41674 -0.06794
 H603 H 0.43037 0.38519 -0.14234
 H604 H 0.34137 0.34806 -0.07479
 H605 H 0.37249 0.39456 -0.03652
 H606 H 0.46080 0.43144 -0.10502
 C607 C 1.13679 0.41528 -0.10908
 C608 C 1.14183 0.37354 -0.10310
 C609 C 1.12241 0.35593 -0.07765
 C610 C 1.09660 0.37936 -0.05913
 C611 C 1.21298 0.28467 -0.18852
 C612 C 1.11100 0.43888 -0.09048
 C613 C 1.16362 0.34803 -0.12461
 C614 C 1.18026 0.32677 -0.14355
 C615 C 1.19834 0.30296 -0.16706
 C616 C 1.08971 0.42081 -0.06585
 H617 H 1.15157 0.42922 -0.12880
 H618 H 1.12597 0.32370 -0.07280
 H619 H 1.08081 0.36462 -0.04021
 H620 H 1.10620 0.47066 -0.09627
 C621 C 0.61582 0.89555 0.38677
 C622 C 0.63550 0.86144 0.39918
 C623 C 0.63111 0.85255 0.43071
 C624 C 0.60605 0.87701 0.44943
 C625 C 0.71095 0.77773 0.31293
 C626 C 0.59076 0.91975 0.40528
 C627 C 0.65831 0.83516 0.37868
 C628 C 0.67597 0.81485 0.35959
 C629 C 0.69531 0.79343 0.33523
 C630 C 0.58491 0.91035 0.43666
 H631 H 0.61900 0.90289 0.36249
 H632 H 0.64618 0.82624 0.44062
 H633 H 0.60197 0.86894 0.47348
 H634 H 0.57509 0.94531 0.39479
 C635 C 0.86325 0.58475 -0.10907
 C636 C 0.85821 0.62648 -0.10309
 C637 C 0.87764 0.64410 -0.07765
 C638 C 0.90345 0.62067 -0.05912
 C639 C 0.78705 0.71535 -0.18851
 C640 C 0.88905 0.56114 -0.09048
 C641 C 0.83641 0.65199 -0.12461
 C642 C 0.81977 0.67325 -0.14354
 C643 C 0.80169 0.69705 -0.16705
 C644 C 0.91034 0.57922 -0.06585
 H645 H 0.84847 0.57080 -0.12879
 H646 H 0.87407 0.67632 -0.07280
 H647 H 0.91925 0.63541 -0.04021
 H648 H 0.89384 0.52936 -0.09626
 C649 C 0.36893 1.14748 0.43071
 C650 C 0.36454 1.13858 0.39919
 C651 C 0.38422 1.10448 0.38678
 C652 C 0.40928 1.08028 0.40529
 C653 C 0.28907 1.22228 0.31294
 C654 C 0.39399 1.12302 0.44943
 C655 C 0.34172 1.16486 0.37869
 C656 C 0.32406 1.18517 0.35960
 C657 C 0.30472 1.20658 0.33524
 C658 C 0.41514 1.08968 0.43666
 H659 H 0.35386 1.17378 0.44063
 H660 H 0.38105 1.09713 0.36250
 H661 H 0.42496 1.05472 0.39480
 H662 H 0.39807 1.13109 0.47349
 C663 C 1.12241 0.64410 0.07766
 C664 C 1.14183 0.62649 0.10311
 C665 C 1.13679 0.58475 0.10909
 C666 C 1.11100 0.56114 0.09049
 C667 C 1.21298 0.71536 0.18853
 C668 C 1.09660 0.62067 0.05914
 C669 C 1.16362 0.65199 0.12462
 C670 C 1.18026 0.67326 0.14356
 C671 C 1.19833 0.69706 0.16707
 C672 C 1.08971 0.57922 0.06586
 H673 H 1.12597 0.67632 0.07281
 H674 H 1.15157 0.57080 0.12881
 H675 H 1.10620 0.52937 0.09628
 H676 H 1.08081 0.63541 0.04022
 C677 C 0.63110 1.14748 0.56930
 C678 C 0.63550 1.13859 0.60083
 C679 C 0.61581 1.10448 0.61324
 C680 C 0.59076 1.08028 0.59473
 C681 C 0.71095 1.22230 0.68708
 C682 C 0.60605 1.12302 0.55058
 C683 C 0.65831 1.16487 0.62133
 C684 C 0.67597 1.18517 0.64042
 C685 C 0.69531 1.20659 0.66478
 C686 C 0.58491 1.08968 0.56335
 H687 H 0.64618 1.17378 0.55939
 H688 H 0.61899 1.09713 0.63752
 H689 H 0.57508 1.05472 0.60522
 H690 H 0.60197 1.13109 0.52653
 C691 C 0.87764 0.35593 0.07766
 C692 C 0.85821 0.37354 0.10310
 C693 C 0.86325 0.41528 0.10908
 C694 C 0.88905 0.43888 0.09049
 C695 C 0.78705 0.28468 0.18853
 C696 C 0.90345 0.37936 0.05914
 C697 C 0.83641 0.34804 0.12462
 C698 C 0.81977 0.32677 0.14355
 C699 C 0.80169 0.30297 0.16706
 C700 C 0.91034 0.42081 0.06586
 H701 H 0.87408 0.32370 0.07281
 H702 H 0.84847 0.42923 0.12880
 H703 H 0.89384 0.47066 0.09627
 H704 H 0.91925 0.36462 0.04022
 C705 C 0.38422 0.89555 0.61323
 C706 C 0.36454 0.86144 0.60082
 C707 C 0.36894 0.85255 0.56930
 C708 C 0.39399 0.87700 0.55058
 C709 C 0.28907 0.77774 0.68707
 C710 C 0.40928 0.91975 0.59472
 C711 C 0.34173 0.83516 0.62132
 C712 C 0.32407 0.81486 0.64041
 C713 C 0.30472 0.79344 0.66477
 C714 C 0.41514 0.91035 0.56335
 H715 H 0.38104 0.90289 0.63751
 H716 H 0.35386 0.82624 0.55938
 H717 H 0.39808 0.86894 0.52652
 H718 H 0.42496 0.94531 0.60521
 C719 C 0.40563 1.13194 -0.10671
 C720 C 0.36319 1.12714 -0.10608
 C721 C 0.34528 1.10202 -0.08384
 C722 C 0.36953 1.08218 -0.06206
 C723 C 0.27752 1.20318 -0.19073
 C724 C 0.43005 1.11201 -0.08489
 C725 C 0.33790 1.14787 -0.12822
 C726 C 0.31710 1.16517 -0.14704
 C727 C 0.29434 1.18554 -0.16994
 C728 C 0.41213 1.08717 -0.06221
 H729 H 0.41980 1.15125 -0.12394
 H730 H 0.31254 1.09794 -0.08322
 H731 H 0.35484 1.06310 -0.04495
 H732 H 0.46274 1.11637 -0.08553
 C733 C 0.90762 0.63013 0.39154
 C734 C 0.86545 0.62343 0.39097
 C735 C 0.84762 0.59702 0.41235
 C736 C 0.87164 0.57791 0.43461
 C737 C 0.77926 0.70017 0.30716
 C738 C 0.93183 0.61091 0.41383
 C739 C 0.84024 0.64394 0.36874
 C740 C 0.81938 0.66127 0.35002
 C741 C 0.79642 0.68195 0.32746
 C742 C 0.91391 0.58498 0.43579
 H743 H 0.92170 0.65049 0.37497
 H744 H 0.81507 0.59151 0.41203
 H745 H 0.85701 0.55788 0.45111
 H746 H 0.96428 0.61685 0.41424
 C747 C 0.59440 1.13193 0.10673
 C748 C 0.63684 1.12713 0.10610
 C749 C 0.65475 1.10202 0.08386
 C750 C 0.63050 1.08218 0.06208
 C751 C 0.72251 1.20319 0.19074
 C752 C 0.56998 1.11200 0.08491
 C753 C 0.66213 1.14786 0.12823
 C754 C 0.68293 1.16517 0.14705
 C755 C 0.70568 1.18554 0.16996
 C756 C 0.58791 1.08716 0.06222
 H757 H 0.58023 1.15124 0.12396
 H758 H 0.68750 1.09794 0.08323
 H759 H 0.64519 1.06310 0.04497
 H760 H 0.53728 1.11635 0.08555
 C761 C 1.09241 0.63012 0.60848
 C762 C 1.13459 0.62342 0.60905
 C763 C 1.15241 0.59702 0.58766
 C764 C 1.12839 0.57790 0.56541
 C765 C 1.22077 0.70018 0.69284
 C766 C 1.06820 0.61090 0.58619
 C767 C 1.15979 0.64394 0.63128
 C768 C 1.18065 0.66127 0.64999
 C769 C 1.20361 0.68196 0.67255
 C770 C 1.08613 0.58496 0.56422
 H771 H 1.07834 0.65048 0.62505
 H772 H 1.18496 0.59150 0.58799
 H773 H 1.14303 0.55788 0.54891
 H774 H 1.03575 0.61683 0.58578
 C775 C 0.59440 0.86809 -0.10672
 C776 C 0.63684 0.87290 -0.10609
 C777 C 0.65475 0.89801 -0.08385
 C778 C 0.63050 0.91785 -0.06207
 C779 C 0.72251 0.79683 -0.19073
 C780 C 0.56998 0.88803 -0.08490
 C781 C 0.66213 0.85216 -0.12822
 C782 C 0.68293 0.83486 -0.14704
 C783 C 0.70568 0.81448 -0.16994
 C784 C 0.58790 0.91287 -0.06221
 H785 H 0.58023 0.84879 -0.12395
 H786 H 0.68749 0.90208 -0.08322
 H787 H 0.64519 0.93693 -0.04496
 H788 H 0.53728 0.88368 -0.08554
 C789 C 1.15241 0.40301 0.41235
 C790 C 1.13458 0.37661 0.39096
 C791 C 1.09241 0.36991 0.39153
 C792 C 1.06820 0.38913 0.41382
 C793 C 1.22077 0.29984 0.30717
 C794 C 1.12839 0.42212 0.43460
 C795 C 1.15979 0.35609 0.36873
 C796 C 1.18065 0.33875 0.35002
 C797 C 1.20361 0.31807 0.32746
 C798 C 1.08612 0.41506 0.43579
 H799 H 1.18496 0.40852 0.41202
 H800 H 1.07833 0.34955 0.37496
 H801 H 1.03575 0.38320 0.41423
 H802 H 1.14303 0.44215 0.45110
 C803 C 0.40563 0.86808 0.10672
 C804 C 0.36319 0.87289 0.10609
 C805 C 0.34528 0.89801 0.08385
 C806 C 0.36953 0.91785 0.06208
 C807 C 0.27752 0.79685 0.19074
 C808 C 0.43005 0.88801 0.08490
 C809 C 0.33790 0.85216 0.12823
 C810 C 0.31710 0.83486 0.14705
 C811 C 0.29434 0.81449 0.16995
 C812 C 0.41213 0.91286 0.06222
 H813 H 0.41980 0.84877 0.12395
 H814 H 0.31254 0.90209 0.08323
 H815 H 0.35484 0.93693 0.04497
 H816 H 0.46274 0.88366 0.08554
 C817 C 0.90762 0.36990 0.60847
 C818 C 0.86545 0.37660 0.60905
 C819 C 0.84762 0.40301 0.58766
 C820 C 0.87164 0.42212 0.56540
 C821 C 0.77926 0.29985 0.69285
 C822 C 0.93183 0.38911 0.58618
 C823 C 0.84024 0.35609 0.63127
 C824 C 0.81938 0.33876 0.64999
 C825 C 0.79642 0.31808 0.67255
 C826 C 0.91391 0.41505 0.56422
 H827 H 0.92169 0.34953 0.62504
 H828 H 0.81507 0.40852 0.58799
 H829 H 0.85701 0.44215 0.54890
 H830 H 0.96428 0.38318 0.58577
 C831 C 1.07041 1.13987 0.60997
 C832 C 1.11289 1.13973 0.61232
 C833 C 1.13621 1.11737 0.59122
 C834 C 1.11705 1.09327 0.56895
 C835 C 1.19126 1.20695 0.70472
 C836 C 1.05118 1.11583 0.58769
 C837 C 1.13254 1.15956 0.63785
 C838 C 1.14981 1.17484 0.65945
 C839 C 1.17134 1.19200 0.68435
 C840 C 1.07431 1.09112 0.56771
 H841 H 1.05212 1.15721 0.62614
 H842 H 1.16915 1.11717 0.59284
 H843 H 1.13567 1.07464 0.55387
 H844 H 1.01824 1.11508 0.58711
 C845 C 0.57097 0.64054 0.10937
 C846 C 0.61353 0.64121 0.11069
 C847 C 0.63638 0.61942 0.08898
 C848 C 0.61677 0.59500 0.06716
 C849 C 0.69320 0.70750 0.20283
 C850 C 0.55129 0.61617 0.08752
 C851 C 0.63384 0.66100 0.13592
 C852 C 0.65157 0.67610 0.15737
 C853 C 0.67339 0.69291 0.18226
 C854 C 0.57405 0.59194 0.06698
 H855 H 0.55304 0.65741 0.12604
 H856 H 0.66937 0.61983 0.08982
 H857 H 0.63513 0.57680 0.05159
 H858 H 0.51837 0.61474 0.08775
 C859 C 1.07041 0.86015 0.39004
 C860 C 1.11289 0.86030 0.38769
 C861 C 1.13621 0.88265 0.40879
 C862 C 1.11705 0.90676 0.43106
 C863 C 1.19126 0.79308 0.29529
 C864 C 1.05119 0.88419 0.41233
 C865 C 1.13254 0.84047 0.36216
 C866 C 1.14981 0.82519 0.34057
 C867 C 1.17134 0.80803 0.31566
 C868 C 1.07431 0.90891 0.43230
 H869 H 1.05212 0.84282 0.37387
 H870 H 1.16915 0.88286 0.40717
 H871 H 1.13567 0.92539 0.44614
 H872 H 1.01824 0.88495 0.41291
 C873 C 0.57098 0.35949 -0.10936
 C874 C 0.61353 0.35881 -0.11068
 C875 C 0.63638 0.38061 -0.08897
 C876 C 0.61677 0.40503 -0.06715
 C877 C 0.69320 0.29253 -0.20282
 C878 C 0.55129 0.38386 -0.08751
 C879 C 0.63384 0.33902 -0.13591
 C880 C 0.65158 0.32393 -0.15736
 C881 C 0.67339 0.30712 -0.18225
 C882 C 0.57405 0.40808 -0.06697
 H883 H 0.55304 0.34262 -0.12603
 H884 H 0.66937 0.38019 -0.08981
 H885 H 0.63513 0.42323 -0.05158
 H886 H 0.51837 0.38528 -0.08774
 C887 C 0.92957 1.13992 0.39008
 C888 C 0.88709 1.13976 0.38771
 C889 C 0.86378 1.11739 0.40880
 C890 C 0.88293 1.09328 0.43107
 C891 C 0.80875 1.20698 0.29530
 C892 C 0.94880 1.11588 0.41236
 C893 C 0.86746 1.15959 0.36218
 C894 C 0.85019 1.17487 0.34058
 C895 C 0.82867 1.19203 0.31567
 C896 C 0.92567 1.09114 0.43232
 H897 H 0.94787 1.15727 0.37391
 H898 H 0.83084 1.11717 0.40717
 H899 H 0.86430 1.07464 0.44614
 H900 H 0.98174 1.11514 0.41295
 C901 C 0.36360 0.61944 -0.08896
 C902 C 0.38645 0.64125 -0.11066
 C903 C 0.42901 0.64059 -0.10932
 C904 C 0.44869 0.61622 -0.08747
 C905 C 0.30681 0.70753 -0.20282
 C906 C 0.38320 0.59501 -0.06714
 C907 C 0.36616 0.66104 -0.13590
 C908 C 0.34843 0.67613 -0.15735
 C909 C 0.32662 0.69294 -0.18224
 C910 C 0.42593 0.59197 -0.06695
 H911 H 0.33061 0.61984 -0.08981
 H912 H 0.44695 0.65748 -0.12598
 H913 H 0.48161 0.61481 -0.08769
 H914 H 0.36485 0.57680 -0.05159
 C915 C 0.92957 0.86010 0.60993
 C916 C 0.88709 0.86026 0.61230
 C917 C 0.86378 0.88264 0.59121
 C918 C 0.88293 0.90674 0.56894
 C919 C 0.80875 0.79305 0.70472
 C920 C 0.94880 0.88415 0.58765
 C921 C 0.86746 0.84043 0.63783
 C922 C 0.85019 0.82516 0.65943
 C923 C 0.82867 0.80799 0.68435
 C924 C 0.92567 0.90888 0.56769
 H925 H 0.94787 0.84276 0.62610
 H926 H 0.83084 0.88286 0.59285
 H927 H 0.86430 0.92539 0.55387
 H928 H 0.98174 0.88489 0.58706
 C929 C 0.42901 0.35944 0.10933
 C930 C 0.38645 0.35878 0.11067
 C931 C 0.36360 0.38059 0.08897
 C932 C 0.38320 0.40502 0.06715
 C933 C 0.30681 0.29249 0.20283
 C934 C 0.44869 0.38380 0.08748
 C935 C 0.36616 0.33899 0.13591
 C936 C 0.34843 0.32389 0.15736
 C937 C 0.32662 0.30709 0.18225
 C938 C 0.42593 0.40805 0.06696
 H939 H 0.44695 0.34255 0.12599
 H940 H 0.33061 0.38019 0.08982
 H941 H 0.36485 0.42323 0.05160
 H942 H 0.48161 0.38522 0.08770
   
