data_POSCAR
  _audit_creation_date              2014-09-24
  _audit_creation_method            'ToBaCCo'
  _symmetry_space_group_name_H-M    'P1'
  _symmetry_Int_Tables_number       1
  _symmetry_cell_setting            triclinic
  loop_
  _symmetry_equiv_pos_as_xyz
 x,y,z
_cell_length_a 19.4664
_cell_length_b 19.6280
_cell_length_c 32.6687
_cell_angle_alpha 89.933300
_cell_angle_beta 92.280700
_cell_angle_gamma 89.916700
loop_
  _atom_site_label
  _atom_site_type_symbol
  _atom_site_fract_x
  _atom_site_fract_y
  _atom_site_fract_z
O1 O 0.04836 0.56464 1.04310
 O2 O 0.06126 0.42935 0.96535
 O3 O 0.06515 0.56245 0.96438
 O4 O 0.05164 0.43199 1.04400
 O5 O -0.06116 0.42982 1.03375
 O6 O -0.04780 0.56491 0.95575
 O7 O -0.05153 0.43220 0.95509
 O8 O -0.06466 0.56289 1.03445
 Cu9 Cu 0.06793 0.49734 1.00510
 Cu10 Cu -0.06761 0.49775 0.99385
 C11 C -0.01065 0.58650 1.05216
 C12 C 0.00665 0.40725 0.94731
 C13 C 0.01126 0.58652 0.94659
 C14 C -0.00663 0.40745 1.05186
 O15 O 0.43820 0.06720 0.54023
 O16 O 0.56314 0.06813 0.45893
 O17 O 0.42919 0.06701 0.46088
 O18 O 0.57210 0.06675 0.53830
 O19 O 0.57016 -0.04571 0.53936
 O20 O 0.43197 -0.04541 0.45938
 O21 O 0.56606 -0.04423 0.45980
 O22 O 0.43617 -0.04523 0.53892
 Cu23 Cu 0.50063 0.07856 0.49960
 Cu24 Cu 0.50114 -0.05645 0.49933
 C25 C 0.41497 0.01098 0.55302
 C26 C 0.58692 0.01227 0.44586
 C27 C 0.40601 0.01072 0.44707
 C28 C 0.59563 0.01036 0.55194
 C29 C 0.12367 -0.00039 0.26672
 H30 H 0.12730 -0.00199 0.23377
 C31 C 0.18350 0.00087 0.29184
 H32 H 0.23250 0.00148 0.27748
 C33 C 0.05449 0.00534 0.32455
 H34 H 0.00427 0.00873 0.33727
 C35 C 0.11279 0.00747 0.35071
 H36 H 0.10635 0.01259 0.38333
 N37 N 0.06079 -0.00025 0.28341
 C38 C -0.07688 -0.09742 0.19210
 H39 H -0.11862 -0.06093 0.19082
 C40 C -0.07948 -0.15449 0.16663
 H41 H -0.12299 -0.15999 0.14529
 C42 C 0.03233 -0.13073 0.21966
 H43 H 0.07602 -0.12138 0.24023
 C44 C 0.03182 -0.18855 0.19480
 H45 H 0.07636 -0.22162 0.19594
 Zn46 Zn -0.01898 -0.00395 0.24818
 N47 N -0.02092 -0.08580 0.21730
 C48 C -0.02245 0.06551 0.17160
 N49 N -0.01700 0.07276 0.21297
 C50 C -0.00893 0.13523 0.23042
 C51 C -0.00657 0.19369 0.20608
 C52 C -0.02095 0.12253 0.14616
 C53 C -0.10969 -0.05460 0.30526
 C54 C -0.16423 -0.05271 0.33173
 C55 C -0.19773 0.05632 0.30311
 C56 C -0.14261 0.05228 0.27714
 N57 N -0.09854 -0.00147 0.27968
 H58 H -0.02793 0.01560 0.15809
 H59 H -0.00482 0.13959 0.26344
 H60 H -0.00207 0.24236 0.22124
 H61 H -0.02665 0.11555 0.11332
 H62 H -0.07497 -0.09771 0.30583
 H63 H -0.17165 -0.09534 0.35212
 H64 H -0.23201 0.09950 0.30000
 H65 H -0.13473 0.09266 0.25535
 C66 C -0.02496 -0.20178 0.16800
 C67 C 0.17865 0.00261 0.33472
 C68 C -0.20731 0.00490 0.33242
 C69 C -0.01144 0.18788 0.16309
 C70 C 0.00851 0.13384 0.76978
 H71 H 0.00460 0.13806 0.73674
 C72 C 0.00616 0.19245 0.79393
 H73 H 0.00189 0.24107 0.77860
 C74 C 0.02155 0.06435 0.82884
 H75 H 0.02687 0.01448 0.84251
 C76 C 0.02005 0.12152 0.85409
 H77 H 0.02560 0.11468 0.88695
 N78 N 0.01636 0.07143 0.78744
 C79 C 0.10950 -0.05646 0.69564
 H80 H 0.07480 -0.09949 0.69515
 C81 C 0.16398 -0.05471 0.66913
 H82 H 0.17142 -0.09738 0.64882
 C83 C 0.14233 0.05041 0.72354
 H84 H 0.13441 0.09084 0.74523
 C85 C 0.19739 0.05431 0.69753
 H86 H 0.23162 0.09744 0.70050
 Zn87 Zn 0.01854 -0.00540 0.75242
 N88 N 0.09830 -0.00325 0.72110
 C89 C -0.05421 0.00432 0.67585
 N90 N -0.06094 -0.00148 0.71696
 C91 C -0.12401 -0.00167 0.73341
 C92 C -0.18359 -0.00026 0.70807
 C93 C -0.11224 0.00661 0.64948
 C94 C 0.07593 -0.09896 0.80889
 C95 C 0.07845 -0.15622 0.83429
 C96 C -0.03233 -0.19028 0.80555
 C97 C -0.03279 -0.13224 0.78078
 N98 N 0.02026 -0.08726 0.78343
 H99 H -0.00386 0.00777 0.66333
 H100 H -0.12799 -0.00344 0.76634
 H101 H -0.23275 0.00029 0.72224
 H102 H -0.10547 0.01187 0.61689
 H103 H 0.11753 -0.06244 0.81038
 H104 H 0.12173 -0.16191 0.85581
 H105 H -0.07674 -0.22337 0.80415
 H106 H -0.07625 -0.12283 0.76002
 C107 C 0.20694 0.00285 0.66828
 C108 C 0.01081 0.18684 0.83693
 C109 C 0.02421 -0.20366 0.83255
 C110 C -0.17828 0.00170 0.66521
 C111 C -0.01620 -0.35814 0.08367
 C112 C -0.09016 -0.33840 0.09390
 C113 C -0.09381 -0.28802 0.12233
 C114 C -0.02314 -0.26079 0.13780
 C115 C 0.01483 -0.32531 0.15368
 C116 C 0.01869 -0.37589 0.12531
 C117 C 0.01723 -0.29127 0.07065
 C118 C 0.01364 -0.24063 0.09883
 H119 H -0.13581 -0.36400 0.08156
 H120 H -0.14255 -0.27262 0.13439
 H121 H 0.03412 -0.33222 0.18503
 H122 H 0.04204 -0.42500 0.13237
 H123 H 0.04138 -0.28422 0.04155
 H124 H 0.03488 -0.19034 0.09376
 C125 C -0.00951 0.34997 0.08217
 C126 C -0.08076 0.31830 0.08754
 C127 C -0.08051 0.26580 0.11482
 C128 C -0.00930 0.24928 0.13453
 C129 C 0.03726 0.23785 0.09809
 C130 C 0.03656 0.28996 0.07067
 C131 C 0.01580 0.37004 0.12557
 C132 C 0.01631 0.31764 0.15297
 H133 H -0.12747 0.33552 0.07146
 H134 H -0.12704 0.23857 0.12198
 H135 H 0.06909 0.19297 0.09446
 H136 H 0.06703 0.28901 0.04354
 H137 H 0.03404 0.42068 0.13374
 H138 H 0.03699 0.32457 0.18394
 C139 C 0.36004 0.01063 0.58413
 C140 C 0.29205 -0.01926 0.56697
 C141 C 0.24130 -0.02054 0.59440
 C142 C 0.26301 0.00742 0.63709
 C143 C 0.32768 -0.03347 0.65014
 C144 C 0.37835 -0.03169 0.62258
 C145 C 0.34040 0.08125 0.60043
 C146 C 0.28956 0.07973 0.62781
 H147 H 0.28377 -0.03582 0.53547
 H148 H 0.18967 -0.03752 0.58584
 H149 H 0.33328 -0.06111 0.67888
 H150 H 0.42716 -0.05774 0.62779
 H151 H 0.36216 0.12883 0.59007
 H152 H 0.26772 0.12646 0.63927
 C153 C -0.34487 0.00898 0.58275
 C154 C -0.28618 -0.03737 0.56952
 C155 C -0.23243 -0.04116 0.59729
 C156 C -0.24107 0.00285 0.63582
 C157 C -0.25654 0.07487 0.61934
 C158 C -0.31063 0.07822 0.59173
 C159 C -0.36391 -0.01846 0.62482
 C160 C -0.30984 -0.02204 0.65257
 H161 H -0.28758 -0.06638 0.54123
 H162 H -0.18859 -0.07411 0.59266
 H163 H -0.22737 0.11966 0.62879
 H164 H -0.32721 0.12590 0.57765
 H165 H -0.41506 -0.03596 0.63173
 H166 H -0.31568 -0.04445 0.68255
 C167 C 0.01648 -0.36080 0.91671
 C168 C 0.09034 -0.34156 0.90572
 C169 C 0.09343 -0.29097 0.87734
 C170 C 0.02258 -0.26299 0.86262
 C171 C -0.01619 -0.32702 0.84697
 C172 C -0.01959 -0.37785 0.87528
 C173 C -0.01612 -0.29363 0.93016
 C174 C -0.01295 -0.24282 0.90200
 H175 H 0.13629 -0.36754 0.91747
 H176 H 0.14186 -0.27573 0.86483
 H177 H -0.03610 -0.33362 0.81574
 H178 H -0.04324 -0.42674 0.86820
 H179 H -0.03938 -0.28640 0.95952
 H180 H -0.03367 -0.19236 0.90735
 C181 C 0.00935 0.34954 0.91720
 C182 C 0.08051 0.31748 0.91190
 C183 C 0.08011 0.26477 0.88484
 C184 C 0.00882 0.24845 0.86526
 C185 C -0.03766 0.23752 0.90179
 C186 C -0.03680 0.28985 0.92899
 C187 C -0.01604 0.36940 0.87374
 C188 C -0.01672 0.31679 0.84656
 H189 H 0.12730 0.33459 0.92786
 H190 H 0.12657 0.23725 0.87775
 H191 H -0.06957 0.19284 0.90564
 H192 H -0.06721 0.28926 0.95615
 H193 H -0.03424 0.42006 0.86538
 H194 H -0.03751 0.32355 0.81559
 C195 C -0.36085 0.01248 0.41639
 C196 C -0.37864 -0.03014 0.37800
 C197 C -0.32783 -0.03181 0.35054
 C198 C -0.26355 0.00947 0.36351
 C199 C -0.29073 0.08170 0.37246
 C200 C -0.34168 0.08320 0.39976
 C201 C -0.29253 -0.01691 0.43371
 C202 C -0.24173 -0.01808 0.40632
 H203 H -0.42725 -0.05640 0.37270
 H204 H -0.33312 -0.05957 0.32186
 H205 H -0.26925 0.12845 0.36082
 H206 H -0.36376 0.13088 0.40978
 H207 H -0.28400 -0.03319 0.46528
 H208 H -0.18996 -0.03470 0.41498
 C209 C 0.34621 0.00952 0.41647
 C210 C 0.31183 0.07884 0.40754
 C211 C 0.25741 0.07561 0.38016
 C212 C 0.24177 0.00361 0.36386
 C213 C 0.31033 -0.02145 0.34684
 C214 C 0.36473 -0.01799 0.37435
 C215 C 0.28772 -0.03668 0.43004
 C216 C 0.23364 -0.04035 0.40251
 H217 H 0.32858 0.12649 0.42145
 H218 H 0.22811 0.12046 0.37076
 H219 H 0.31579 -0.04390 0.31686
 H220 H 0.41579 -0.03561 0.36724
 H221 H 0.28947 -0.06562 0.45840
 H222 H 0.18988 -0.07318 0.40740
   
