data_POSCAR
  _audit_creation_date              2014-09-24
  _audit_creation_method            'ToBaCCo'
  _symmetry_space_group_name_H-M    'P1'
  _symmetry_Int_Tables_number       1
  _symmetry_cell_setting            triclinic
  loop_
  _symmetry_equiv_pos_as_xyz
 x,y,z
_cell_length_a 41.8915
_cell_length_b 41.3220
_cell_length_c 37.4888
_cell_angle_alpha 86.612600
_cell_angle_beta 90.896000
_cell_angle_gamma 90.205300
loop_
  _atom_site_label
  _atom_site_type_symbol
  _atom_site_fract_x
  _atom_site_fract_y
  _atom_site_fract_z
C1 C 0.21084 0.19270 0.22825
 C2 C 0.20482 0.21655 0.20092
 C3 C 0.22693 0.22284 0.17436
 C4 C 0.25537 0.20486 0.17473
 C5 C 0.26122 0.18115 0.20174
 C6 C 0.23869 0.17492 0.22866
 C7 C 0.19264 0.18067 0.25616
 N8 N 0.20864 0.15570 0.27367
 C9 C 0.23680 0.15196 0.25686
 C10 C 0.28949 0.16635 0.19417
 N11 N 0.30090 0.18030 0.16305
 C12 C 0.28013 0.20384 0.15108
 C13 C 0.21365 0.24584 0.15035
 N14 N 0.18405 0.25319 0.16182
 C15 C 0.17847 0.23531 0.19255
 H16 H 0.16895 0.18896 0.26196
 H17 H 0.25440 0.13352 0.26422
 H18 H 0.29996 0.14608 0.20966
 H19 H 0.28241 0.21859 0.12638
 H20 H 0.22410 0.25532 0.12564
 H21 H 0.15640 0.23536 0.20722
 C22 C -0.14699 0.80733 0.19286
 C23 C -0.14777 0.77914 0.17356
 C24 C -0.17351 0.77334 0.15102
 C25 C -0.19850 0.79589 0.14698
 C26 C -0.19779 0.82330 0.16635
 C27 C -0.17184 0.82922 0.18896
 C28 C -0.12477 0.82021 0.21578
 N29 N -0.13564 0.84953 0.22522
 C30 C -0.16428 0.85515 0.20872
 C31 C -0.22434 0.84131 0.15682
 N32 N -0.24107 0.82586 0.13147
 C33 C -0.22527 0.79817 0.12502
 C34 C -0.16735 0.74501 0.13484
 N35 N -0.13844 0.73375 0.14664
 C36 C -0.12613 0.75454 0.16999
 H37 H -0.10210 0.80942 0.22386
 H38 H -0.17857 0.87673 0.21084
 H39 H -0.22994 0.86478 0.16641
 H40 H -0.23260 0.78109 0.10563
 H41 H -0.18208 0.73421 0.11471
 H42 H -0.10282 0.75229 0.18276
 C43 C -0.18261 0.19895 -0.22018
 C44 C -0.18630 0.22437 -0.19728
 C45 C -0.21484 0.22775 -0.17993
 C46 C -0.24001 0.20619 -0.18527
 C47 C -0.23663 0.18117 -0.20781
 C48 C -0.20764 0.17764 -0.22566
 C49 C -0.15705 0.18871 -0.23918
 N50 N -0.16592 0.16207 -0.25651
 C51 C -0.19689 0.15508 -0.24832
 C52 C -0.26439 0.16292 -0.20553
 N53 N -0.28419 0.17654 -0.18210
 C54 C -0.26942 0.20307 -0.16994
 C55 C -0.21134 0.25281 -0.15771
 N56 N -0.18151 0.26514 -0.16138
 C57 C -0.16586 0.24794 -0.18552
 H58 H -0.13360 0.19983 -0.24026
 H59 H -0.21055 0.13472 -0.25718
 H60 H -0.26909 0.14095 -0.21904
 H61 H -0.27895 0.21838 -0.15019
 H62 H -0.22902 0.26114 -0.13960
 H63 H -0.14117 0.25142 -0.19293
 C64 C 0.19044 0.79440 -0.22192
 C65 C 0.18543 0.76804 -0.19714
 C66 C 0.20184 0.76638 -0.16467
 C67 C 0.22346 0.79101 -0.15651
 C68 C 0.22885 0.81635 -0.18136
 C69 C 0.21228 0.81813 -0.21402
 C70 C 0.17664 0.80382 -0.25459
 N71 N 0.18971 0.83275 -0.26630
 C72 C 0.21177 0.84131 -0.24175
 C73 C 0.25065 0.83673 -0.16686
 N74 N 0.25877 0.82459 -0.13345
 C75 C 0.24198 0.79673 -0.12672
 C76 C 0.19238 0.73836 -0.14611
 N77 N 0.17072 0.72286 -0.16652
 C78 C 0.16621 0.74096 -0.19762
 H79 H 0.15798 0.79081 -0.26800
 H80 H 0.22554 0.86359 -0.24325
 H81 H 0.25899 0.85930 -0.17960
 H82 H 0.24337 0.78162 -0.10214
 H83 H 0.20091 0.73006 -0.11979
 H84 H 0.15026 0.73468 -0.21916
 C85 C 0.18996 1.16400 0.78920
 C86 C 0.21848 1.16609 0.80968
 C87 C 0.22014 1.18752 0.83684
 C88 C 0.19396 1.20680 0.84419
 C89 C 0.16636 1.20481 0.82411
 C90 C 0.16423 1.18323 0.79692
 C91 C 0.18004 1.14549 0.76132
 N92 N 0.14899 1.15308 0.75292
 C93 C 0.13941 1.17603 0.77466
 C94 C 0.14500 1.22644 0.83646
 N95 N 0.15903 1.24158 0.86391
 C96 C 0.18891 1.22939 0.86911
 C97 C 0.24976 1.18480 0.85253
 N98 N 0.26649 1.16213 0.83619
 C99 C 0.24769 1.15037 0.80984
 H100 H 0.19407 1.12739 0.74901
 H101 H 0.11579 1.18668 0.77442
 H102 H 0.12090 1.23021 0.82634
 H103 H 0.20592 1.23687 0.88909
 H104 H 0.25849 1.19811 0.87475
 H105 H 0.25456 1.13185 0.79225
 C106 C 0.79249 0.81912 0.77404
 C107 C 0.77777 0.82067 0.80723
 C108 C 0.78810 0.80083 0.83618
 C109 C 0.81307 0.77889 0.83212
 C110 C 0.82779 0.77774 0.79947
 C111 C 0.81732 0.79779 0.77027
 C112 C 0.78911 0.83712 0.74211
 N113 N 0.81136 0.82722 0.71915
 C114 C 0.82860 0.80292 0.73622
 C115 C 0.85254 0.75609 0.80371
 N116 N 0.85281 0.74345 0.83792
 C117 C 0.82873 0.75729 0.85562
 C118 C 0.77117 0.80928 0.86541
 N119 N 0.75065 0.83337 0.85471
 C120 C 0.75454 0.84055 0.81922
 H121 H 0.77255 0.85690 0.73648
 H122 H 0.84884 0.79067 0.72570
 H123 H 0.86914 0.74991 0.78334
 H124 H 0.82351 0.75296 0.88368
 H125 H 0.77390 0.79908 0.89255
 H126 H 0.74227 0.85966 0.80354
 C127 C 0.18589 0.82778 1.22655
 C128 C 0.21213 0.83122 1.20377
 C129 C 0.21714 0.80878 1.17844
 C130 C 0.19596 0.78270 1.17546
 C131 C 0.17017 0.77934 1.19797
 C132 C 0.16490 0.80219 1.22333
 C133 C 0.17368 0.84713 1.25171
 N134 N 0.14553 0.83404 1.26331
 C135 C 0.13999 0.80665 1.24593
 C136 C 0.15247 0.75340 1.18760
 N137 N 0.16681 0.74105 1.15919
 C138 C 0.19326 0.75894 1.15134
 C139 C 0.24265 0.81949 1.15827
 N140 N 0.25314 0.84794 1.17067
 C141 C 0.23455 0.85537 1.19833
 H142 H 0.18380 0.86990 1.25931
 H143 H 0.11897 0.79145 1.24896
 H144 H 0.12992 0.74524 1.19869
 H145 H 0.20877 0.75548 1.12905
 H146 H 0.25175 0.80821 1.13518
 H147 H 0.23656 0.87731 1.21264
 C148 C 0.75351 1.20635 1.24216
 C149 C 0.72983 1.20922 1.21526
 C150 C 0.73083 1.23477 1.18973
 C151 C 0.75539 1.25789 1.19088
 C152 C 0.77869 1.25508 1.21742
 C153 C 0.77780 1.22906 1.24317
 C154 C 0.76003 1.18267 1.26861
 N155 N 0.78776 1.19025 1.28548
 C156 C 0.79876 1.21876 1.27011
 C157 C 0.80074 1.27932 1.21034
 N158 N 0.79133 1.29678 1.18013
 C159 C 0.76368 1.28379 1.16809
 C160 C 0.70677 1.22978 1.16519
 N161 N 0.69116 1.20195 1.17519
 C162 C 0.70513 1.18917 1.20584
 H163 H 0.74617 1.16084 1.27431
 H164 H 0.82072 1.23089 1.27697
 H165 H 0.82253 1.28298 1.22543
 H166 H 0.75107 1.29197 1.14380
 H167 H 0.70174 1.24466 1.14101
 H168 H 0.69902 1.16622 1.21943
 O169 O 0.53252 0.94889 0.94769
 O170 O 0.47496 0.94949 1.04737
 O171 O 0.56924 0.98222 1.03695
 O172 O 0.43593 0.97923 0.97320
 O173 O 0.53214 0.94861 1.05177
 O174 O 0.47301 0.94605 0.95885
 O175 O 0.43861 0.98453 1.03684
 O176 O 0.56990 0.97823 0.97166
 C177 C 0.56121 0.95413 0.95470
 C178 C 0.44625 0.95617 1.04644
 C179 C 0.56092 0.95444 1.04838
 C180 C 0.44447 0.95144 0.96474
 O181 O 0.46739 1.00435 0.92644
 O182 O 0.53294 1.01016 1.07299
 O183 O 0.55292 1.03894 0.96085
 O184 O 0.46636 1.04366 1.02701
 O185 O 0.47546 1.01080 1.07214
 O186 O 0.52658 1.00942 0.92320
 O187 O 0.46073 1.04065 0.96329
 O188 O 0.54658 1.04278 1.02851
 Co189 Co 0.49995 0.97885 0.94511
 Co190 Co 0.50364 0.98109 1.05599
 Co191 Co 0.55414 1.00931 0.99994
 Co192 Co 0.45480 1.01057 1.00008
 O193 O 0.50346 0.99497 1.00001
 C194 C 0.45832 1.03213 0.93237
 C195 C 0.54314 1.03739 1.06127
 C196 C 0.54459 1.03310 0.92959
 C197 C 0.46782 1.03857 1.05989
 O198 O 0.04856 0.46766 0.05442
 O199 O 0.03686 0.52213 -0.06060
 O200 O 0.01491 0.42216 -0.02623
 O201 O 0.01905 0.56964 0.02936
 O202 O 0.03411 0.46115 -0.06336
 O203 O 0.04058 0.52629 0.05584
 O204 O 0.05000 0.53243 -0.00677
 O205 O 0.02119 0.42548 0.03916
 C206 C 0.04692 0.43786 0.05030
 C207 C 0.05679 0.53299 -0.03890
 C208 C 0.03309 0.43190 -0.05158
 C209 C 0.03608 0.55670 0.05598
 O210 O -0.02254 0.51552 0.06869
 O211 O -0.02661 0.46337 -0.06892
 O212 O -0.04213 0.44706 0.03929
 O213 O -0.00206 0.55827 -0.03509
 O214 O -0.02839 0.52193 -0.06073
 O215 O -0.00872 0.45677 0.07917
 O216 O -0.03278 0.54052 0.01800
 O217 O -0.04649 0.43905 -0.02199
 Co218 Co 0.01284 0.49140 0.05825
 Co219 Co 0.00392 0.49232 -0.05741
 Co220 Co -0.01175 0.43788 0.00768
 Co221 Co 0.00805 0.53444 0.00602
 O222 O 0.00189 0.48704 0.00078
 C223 C -0.04019 0.53425 0.04958
 C224 C -0.04685 0.44487 -0.05477
 C225 C -0.03568 0.44709 0.07121
 C226 C -0.02443 0.55099 -0.05534
 O227 O 1.06499 0.01674 0.46653
 O228 O 0.92963 0.03390 0.51945
 O229 O 0.97487 0.05836 0.44608
 O230 O 1.01523 0.02330 0.56636
 O231 O 0.93102 0.03289 0.45229
 O232 O 1.04120 0.04050 0.52046
 O233 O 0.95722 0.01140 0.56491
 O234 O 1.02858 0.04991 0.45546
 C235 C 1.05693 0.04299 0.45159
 C236 C 0.93602 0.03109 0.55233
 C237 C 0.94549 0.05836 0.44363
 C238 C 1.03390 0.04360 0.55189
 O239 O 1.07075 -0.01322 0.53084
 O240 O 0.93720 -0.02961 0.45756
 O241 O 1.02370 -0.01271 0.43127
 O242 O 0.97195 -0.04922 0.54467
 O243 O 0.92814 -0.02861 0.52403
 O244 O 1.03882 -0.03758 0.48164
 O245 O 1.02693 -0.03802 0.54614
 O246 O 0.96729 -0.00205 0.41936
 Co247 Co 1.03790 0.00118 0.50198
 Co248 Co 0.93710 0.00248 0.48887
 Co249 Co 0.99814 0.02194 0.44225
 Co250 Co 0.99265 -0.01132 0.55039
 O251 O 0.98952 0.00479 0.49451
 C252 C 1.05633 -0.03385 0.55253
 C253 C 0.94933 -0.02607 0.42730
 C254 C 1.03558 -0.03738 0.44838
 C255 C 0.94289 -0.05158 0.53960
 C256 C 1.19825 0.13637 0.30194
 C257 C 1.17022 0.14290 0.31994
 C258 C 1.15614 0.12082 0.34764
 N259 N 1.12931 0.13017 0.36387
 N260 N 1.11465 0.11018 0.38744
 C261 C 1.12615 0.07996 0.39575
 N262 N 1.15327 0.07063 0.37981
 N263 N 1.16802 0.09071 0.35614
 C264 C 1.10843 0.05720 0.42005
 C265 C 1.07843 0.06556 0.43214
 H266 H 1.15730 0.16509 0.31347
 H267 H 1.11787 0.03315 0.42644
 H268 H 1.21218 0.11527 0.31083
 H269 H 1.06880 0.08931 0.42458
 C270 C 0.87870 -0.12902 0.24655
 C271 C 0.90519 -0.13654 0.26847
 C272 C 0.91780 -0.11257 0.29258
 N273 N 0.92909 -0.12226 0.32560
 N274 N 0.93850 -0.10048 0.34845
 C275 C 0.93737 -0.06825 0.33892
 N276 N 0.92685 -0.05861 0.30559
 N277 N 0.91700 -0.08036 0.28294
 C278 C 0.94639 -0.04399 0.36444
 C279 C 0.94156 -0.04989 0.40089
 H280 H 0.91448 -0.16097 0.27101
 H281 H 0.95447 -0.02033 0.35426
 H282 H 0.86785 -0.10537 0.24829
 H283 H 0.93064 -0.07254 0.41042
 C284 C 0.85393 0.14573 0.72239
 C285 C 0.84339 0.12118 0.70090
 C286 C 0.86517 0.10424 0.67781
 N287 N 0.85326 0.08943 0.64912
 N288 N 0.87253 0.07401 0.62789
 C289 C 0.90444 0.07246 0.63476
 N290 N 0.91635 0.08689 0.66376
 N291 N 0.89710 0.10267 0.68479
 C292 C 0.92572 0.05507 0.61148
 C293 C 0.91698 0.05012 0.57619
 H294 H 0.81824 0.11549 0.69886
 H295 H 0.94878 0.04687 0.62183
 H296 H 0.87881 0.15296 0.72102
 H297 H 0.89514 0.06095 0.56527
 C298 C 1.18168 -0.14787 0.70433
 C299 C 1.15608 -0.15430 0.68155
 C300 C 1.14443 -0.12988 0.65429
 N301 N 1.11540 -0.13388 0.63873
 N302 N 1.10337 -0.11103 0.61593
 C303 C 1.11990 -0.08331 0.60767
 N304 N 1.14928 -0.07955 0.62265
 N305 N 1.16126 -0.10237 0.64567
 C306 C 1.10571 -0.05742 0.58379
 C307 C 1.07301 -0.05739 0.57683
 H308 H 1.14225 -0.17630 0.68564
 H309 H 1.12063 -0.03802 0.57265
 H310 H 1.19451 -0.12520 0.69971
 H311 H 1.05831 -0.07611 0.58976
 C312 C 0.32715 1.17161 1.14485
 C313 C 0.34850 1.14766 1.15799
 C314 C 0.37384 1.13489 1.13598
 N315 N 0.39347 1.11130 1.15018
 N316 N 0.41493 1.09761 1.13004
 C317 C 0.41761 1.10701 1.09487
 N318 N 0.39827 1.13091 1.08076
 N319 N 0.37680 1.14463 1.10093
 C320 C 0.43868 1.08962 1.07143
 C321 C 0.45604 1.06245 1.08404
 H322 H 0.34618 1.13680 1.18475
 H323 H 0.43754 1.09602 1.04299
 H324 H 0.33136 1.18337 1.11872
 H325 H 0.45718 1.05603 1.11246
 C326 C 0.27976 0.83784 0.88967
 C327 C 0.30133 0.86188 0.87812
 C328 C 0.32427 0.87693 0.90185
 N329 N 0.35300 0.88627 0.88876
 N330 N 0.37366 0.90200 0.90869
 C331 C 0.36620 0.90950 0.94230
 N332 N 0.33726 0.90046 0.95542
 N333 N 0.31667 0.88420 0.93558
 C334 C 0.38872 0.92868 0.96282
 C335 C 0.42115 0.92655 0.95613
 H336 H 0.30382 0.86812 0.84988
 H337 H 0.37982 0.94595 0.98087
 H338 H 0.28112 0.82825 0.91720
 H339 H 0.42959 0.90694 0.94078
 C340 C 0.73208 0.83682 1.11381
 C341 C 0.71334 0.86128 1.12676
 C342 C 0.68677 0.87645 1.10621
 N343 N 0.66127 0.88747 1.12366
 N344 N 0.63814 0.90381 1.10587
 C345 C 0.63998 0.91029 1.07005
 N346 N 0.66562 0.89948 1.05255
 N347 N 0.68854 0.88263 1.07030
 C348 C 0.61573 0.93057 1.05108
 C349 C 0.58437 0.93064 1.06265
 H350 H 0.71729 0.86888 1.15360
 H351 H 0.62270 0.94603 1.02820
 H352 H 0.72436 0.82557 1.08973
 H353 H 0.57679 0.91278 1.08313
 C354 C 0.68711 1.16575 0.83036
 C355 C 0.67236 1.13706 0.82075
 C356 C 0.64437 1.12413 0.84047
 N357 N 0.63067 1.09563 0.83216
 N358 N 0.60709 1.08267 0.85191
 C359 C 0.59639 1.09778 0.88066
 N360 N 0.60983 1.12639 0.88863
 N361 N 0.63325 1.13934 0.86889
 C362 C 0.57358 1.08221 0.90571
 C363 C 0.55776 1.05328 0.89961
 H364 H 0.68230 1.12284 0.80033
 H365 H 0.57147 1.09248 0.93150
 H366 H 0.67567 1.17958 0.85026
 H367 H 0.55772 1.04382 0.87327
 C368 C 0.16060 0.27365 0.14378
 C369 C 0.16868 0.30028 0.12112
 C370 C 0.14376 0.32169 0.10476
 N371 N 0.15080 0.35268 0.09346
 N372 N 0.12798 0.37247 0.07996
 C373 C 0.09737 0.36184 0.07697
 N374 N 0.09049 0.33072 0.08768
 N375 N 0.11321 0.31106 0.10146
 C376 C 0.07153 0.38332 0.06312
 C377 C 0.07432 0.41701 0.06082
 H378 H 0.19352 0.30671 0.11734
 H379 H 0.04881 0.37223 0.05685
 H380 H 0.13571 0.26946 0.15012
 H381 H 0.09650 0.42835 0.06864
 C382 C -0.16900 0.29038 -0.14045
 C383 C -0.14305 0.30953 -0.15120
 C384 C -0.13042 0.33504 -0.12900
 N385 N -0.10899 0.35693 -0.14267
 N386 N -0.09678 0.37957 -0.12250
 C387 C -0.10547 0.38111 -0.08786
 N388 N -0.12687 0.35920 -0.07419
 N389 N -0.13923 0.33669 -0.09442
 C390 C -0.09017 0.40420 -0.06446
 C391 C -0.06986 0.42864 -0.07780
 H392 H -0.13222 0.30630 -0.17676
 H393 H -0.09297 0.40021 -0.03586
 H394 H -0.18122 0.29556 -0.11618
 H395 H -0.06793 0.43325 -0.10644
 C396 C 0.15481 0.69254 -0.15798
 C397 C 0.16043 0.67414 -0.12603
 C398 C 0.14288 0.64393 -0.11680
 N399 N 0.14652 0.62901 -0.08376
 N400 N 0.12971 0.60250 -0.07438
 C401 C 0.10878 0.58978 -0.09783
 N402 N 0.10548 0.60443 -0.13104
 N403 N 0.12221 0.63099 -0.14037
 C404 C 0.08775 0.56245 -0.08696
 C405 C 0.08533 0.55077 -0.05143
 H406 H 0.17737 0.68238 -0.10651
 H407 H 0.07075 0.55433 -0.10663
 H408 H 0.13759 0.68390 -0.17709
 H409 H 0.10179 0.55938 -0.03150
 C410 C -0.12163 0.70700 0.13323
 C411 C -0.13731 0.67863 0.12456
 C412 C -0.12066 0.65328 0.10621
 N413 N -0.12927 0.62160 0.11125
 N414 N -0.11443 0.59878 0.09400
 C415 C -0.09093 0.60702 0.07057
 N416 N -0.08271 0.63869 0.06524
 N417 N -0.09713 0.66137 0.08288
 C418 C -0.07414 0.58282 0.05077
 C419 C -0.06666 0.55176 0.06512
 H420 H -0.16209 0.67497 0.13160
 H421 H -0.06253 0.59178 0.02647
 H422 H -0.09598 0.70882 0.13034
 H423 H -0.07552 0.54353 0.09109
 C424 C 1.12891 0.14035 0.72853
 C425 C 1.13839 0.12000 0.70231
 C426 C 1.11427 0.10726 0.67766
 N427 N 1.12228 0.09975 0.64420
 N428 N 1.10024 0.08869 0.62186
 C429 C 1.06945 0.08458 0.63223
 N430 N 1.06158 0.09170 0.66580
 N431 N 1.08349 0.10310 0.68796
 C432 C 1.04551 0.06981 0.60901
 C433 C 1.04967 0.06855 0.57235
 H434 H 1.16338 0.11499 0.69838
 H435 H 1.02545 0.05735 0.62158
 H436 H 1.10399 0.14746 0.72855
 H437 H 1.06860 0.08263 0.55953
 C438 C 0.81665 -0.15807 0.68630
 C439 C 0.84107 -0.16755 0.66421
 C440 C 0.85235 -0.14659 0.63399
 N441 N 0.88072 -0.15310 0.61907
 N442 N 0.89327 -0.13252 0.59445
 C443 C 0.87781 -0.10474 0.58368
 N444 N 0.84901 -0.09863 0.59788
 N445 N 0.83653 -0.11914 0.62269
 C446 C 0.89313 -0.08007 0.55984
 C447 C 0.92600 -0.08018 0.55474
 H448 H 0.85480 -0.18917 0.67104
 H449 H 0.87913 -0.05929 0.55009
 H450 H 0.80257 -0.13693 0.67788
 H451 H 0.94024 -0.10019 0.56605
 C452 C 1.12475 -0.15357 0.28641
 C453 C 1.13291 -0.12846 0.30809
 C454 C 1.10933 -0.11412 0.33092
 N455 N 1.11885 -0.10168 0.36200
 N456 N 1.09789 -0.08750 0.38232
 C457 C 1.06673 -0.08487 0.37207
 N458 N 1.05723 -0.09702 0.34077
 N459 N 1.07812 -0.11167 0.32069
 C460 C 1.04437 -0.06668 0.39295
 C461 C 1.04952 -0.06373 0.42935
 H462 H 1.15738 -0.12023 0.31003
 H463 H 1.02502 -0.05362 0.37912
 H464 H 1.10117 -0.16432 0.28901
 H465 H 1.06689 -0.07921 0.44358
 C466 C 0.80190 0.17085 0.31177
 C467 C 0.83176 0.17753 0.32697
 C468 C 0.84783 0.15432 0.35258
 N469 N 0.87858 0.15949 0.36279
 N470 N 0.89389 0.13790 0.38461
 C471 C 0.87893 0.11041 0.39715
 N472 N 0.84808 0.10545 0.38729
 N473 N 0.83282 0.12696 0.36540
 C474 C 0.89579 0.08530 0.41952
 C475 C 0.92851 0.08657 0.42687
 H476 H 0.84470 0.19932 0.31882
 H477 H 0.88231 0.06397 0.42840
 H478 H 0.78992 0.14851 0.32042
 H479 H 0.94228 0.10766 0.41793
 C480 C 0.14619 0.26504 -0.11681
 C481 C 0.11824 0.28130 -0.12767
 C482 C 0.10461 0.30696 -0.10741
 N483 N 0.08645 0.33016 -0.12471
 N484 N 0.07324 0.35339 -0.10682
 C485 C 0.07739 0.35401 -0.07089
 N486 N 0.09525 0.33056 -0.05344
 N487 N 0.10885 0.30752 -0.07144
 C488 C 0.06170 0.37891 -0.05118
 C489 C 0.05346 0.40859 -0.06820
 H490 H 0.10715 0.27718 -0.15323
 H491 H 0.05633 0.37381 -0.02323
 H492 H 0.15897 0.27265 -0.09334
 H493 H 0.06185 0.41479 -0.09495
 C494 C -0.19182 0.32279 0.16142
 C495 C -0.16339 0.33587 0.17432
 C496 C -0.14461 0.35978 0.15271
 N497 N -0.11633 0.37082 0.16547
 N498 N -0.09834 0.39114 0.14538
 C499 C -0.10804 0.40118 0.11179
 N500 N -0.13641 0.39036 0.09920
 N501 N -0.15438 0.37008 0.11926
 C502 C -0.08767 0.42157 0.08802
 C503 C -0.05757 0.43270 0.09810
 H504 H -0.15390 0.32771 0.20026
 H505 H -0.09597 0.42625 0.06068
 H506 H -0.20127 0.33190 0.13571
 H507 H -0.04919 0.42899 0.12551
 C508 C -0.12554 0.72126 -0.14894
 C509 C -0.12905 0.70381 -0.11627
 C510 C -0.10543 0.67935 -0.10415
 N511 N -0.11491 0.65148 -0.08647
 N512 N -0.09367 0.62868 -0.07648
 C513 C -0.06219 0.63317 -0.08342
 N514 N -0.05264 0.66131 -0.10046
 N515 N -0.07394 0.68390 -0.11096
 C516 C -0.03867 0.60839 -0.07207
 C517 C -0.04651 0.57563 -0.07062
 H518 H -0.15070 0.70556 -0.10116
 H519 H -0.01457 0.61596 -0.06568
 H520 H -0.10559 0.71542 -0.16550
 H521 H -0.06959 0.56789 -0.08048
 C522 C 0.15430 0.71602 0.13812
 C523 C 0.13413 0.69207 0.15275
 C524 C 0.11701 0.66956 0.13042
 N525 N 0.10326 0.64246 0.14562
 N526 N 0.08634 0.62267 0.12580
 C527 C 0.08227 0.62954 0.09015
 N528 N 0.09586 0.65672 0.07501
 N529 N 0.11303 0.67633 0.09476
 C530 C 0.06270 0.60878 0.06814
 C531 C 0.05538 0.57686 0.07892
 H532 H 0.13043 0.69007 0.18131
 H533 H 0.05491 0.61859 0.04202
 H534 H 0.16065 0.71596 0.11022
 H535 H 0.06541 0.56594 0.10355
 C536 C 0.29831 1.15310 0.84746
 C537 C 0.31420 1.12591 0.83644
 C538 C 0.34448 1.11519 0.85411
 N539 N 0.35933 1.08794 0.84453
 N540 N 0.38543 1.07705 0.86218
 C541 C 0.39764 1.09301 0.89005
 N542 N 0.38298 1.12038 0.89934
 N543 N 0.35699 1.13128 0.88167
 C544 C 0.42424 1.07962 0.91241
 C545 C 0.44006 1.05132 0.90479
 H546 H 0.30356 1.11126 0.81642
 H547 H 0.42933 1.09062 0.93742
 H548 H 0.30962 1.16717 0.86766
 H549 H 0.43566 1.04072 0.87942
 C550 C 0.27740 0.86881 1.15540
 C551 C 0.30076 0.85754 1.13315
 C552 C 0.32437 0.87948 1.11593
 N553 N 0.35068 0.86727 1.10093
 N554 N 0.37218 0.88699 1.08521
 C555 C 0.36793 0.91962 1.08362
 N556 N 0.34145 0.93177 1.09825
 N557 N 0.32010 0.91209 1.11419
 C558 C 0.39147 0.94190 1.06695
 C559 C 0.42236 0.93234 1.05933
 H560 H 0.30230 0.83194 1.12884
 H561 H 0.38486 0.96719 1.06271
 H562 H 0.27777 0.89399 1.16201
 H563 H 0.42973 0.90746 1.06511
 C564 C 0.66652 1.18763 1.15406
 C565 C 0.64908 1.16046 1.16633
 C566 C 0.62685 1.14344 1.14295
 N567 N 0.61075 1.11688 1.15610
 N568 N 0.59199 1.10010 1.13482
 C569 C 0.58860 1.10926 1.09956
 N570 N 0.60448 1.13597 1.08649
 N571 N 0.62321 1.15277 1.10777
 C572 C 0.57013 1.08953 1.07503
 C573 C 0.55471 1.06090 1.08654
 H574 H 0.65238 1.15062 1.19350
 H575 H 0.57080 1.09648 1.04673
 H576 H 0.66187 1.19808 1.12730
 H577 H 0.55357 1.05410 1.11484
 C578 C 0.72980 0.84957 0.87776
 C579 C 0.70155 0.86364 0.86463
 C580 C 0.67992 0.88124 0.88692
 N581 N 0.64927 0.88600 0.87590
 N582 N 0.62935 0.90266 0.89507
 C583 C 0.63940 0.91551 0.92582
 N584 N 0.67020 0.91105 0.93675
 N585 N 0.69009 0.89403 0.91772
 C586 C 0.61747 0.93492 0.94607
 C587 C 0.58464 0.93187 0.94109
 H588 H 0.69431 0.86055 0.83719
 H589 H 0.62714 0.95227 0.96389
 H590 H 0.73552 0.84951 0.90605
 H591 H 0.57554 0.91315 0.92456
   
