data_POSCAR
  _audit_creation_date              2014-09-24
  _audit_creation_method            'ToBaCCo'
  _symmetry_space_group_name_H-M    'P1'
  _symmetry_Int_Tables_number       1
  _symmetry_cell_setting            triclinic
  loop_
  _symmetry_equiv_pos_as_xyz
 x,y,z
_cell_length_a 30.5119
_cell_length_b 30.4146
_cell_length_c 36.6665
_cell_angle_alpha 89.998700
_cell_angle_beta 90.001500
_cell_angle_gamma 90.002100
loop_
  _atom_site_label
  _atom_site_type_symbol
  _atom_site_fract_x
  _atom_site_fract_y
  _atom_site_fract_z
C1 C 1.24998 0.25001 0.25004
 C2 C 0.74998 -0.24999 0.25004
 C3 C 0.74998 0.25001 -0.24996
 C4 C 1.24998 -0.24999 -0.24997
 C5 C 0.24999 0.24999 0.75003
 C6 C 0.75000 0.74999 0.75002
 C7 C 0.74999 0.24999 0.25002
 C8 C 0.25000 0.74999 0.25003
 O9 O 1.08385 0.05027 0.02569
 O10 O 0.91705 -0.05125 0.02538
 O11 O 0.94972 0.08330 0.02507
 O12 O 1.05113 -0.08438 0.02611
 O13 O 0.92534 0.02270 0.04539
 O14 O 1.07544 -0.02363 0.04621
 O15 O 0.97742 -0.07551 0.04595
 O16 O 1.02328 0.07504 0.04547
 C17 C 1.06290 0.06976 0.04994
 C18 C 0.93772 -0.07033 0.05001
 C19 C 0.93035 0.06254 0.04951
 C20 C 1.07053 -0.06349 0.05049
 O21 O 1.08410 -0.05165 -0.02422
 O22 O 0.91718 0.05017 -0.02525
 O23 O 1.05135 0.08299 -0.02492
 O24 O 0.95001 -0.08442 -0.02467
 O25 O 0.92591 -0.02378 -0.04517
 O26 O 1.07603 0.02220 -0.04469
 O27 O 1.02370 -0.07610 -0.04457
 O28 O 0.97772 0.07448 -0.04540
 Co29 Co 1.07215 -0.00069 0.00072
 Co30 Co 0.92909 -0.00055 0.00012
 Co31 Co 1.00052 0.07120 0.00008
 Co32 Co 1.00056 -0.07234 0.00068
 O33 O 1.00059 -0.00059 0.00040
 C34 C 1.06338 -0.07091 -0.04873
 C35 C 0.93802 0.06949 -0.04967
 C36 C 1.07084 0.06199 -0.04915
 C37 C 0.93088 -0.06364 -0.04924
 O38 O 1.08410 0.55165 0.52429
 O39 O 0.91718 0.44982 0.52531
 O40 O 0.95001 0.58442 0.52473
 O41 O 1.05135 0.41701 0.52498
 O42 O 0.92590 0.52377 0.54523
 O43 O 1.07602 0.47779 0.54476
 O44 O 0.97772 0.42551 0.54546
 O45 O 1.02371 0.57609 0.54463
 C46 C 1.06338 0.57091 0.54879
 C47 C 0.93801 0.43050 0.54973
 C48 C 0.93088 0.56363 0.54929
 C49 C 1.07084 0.43801 0.54922
 O50 O 1.08385 0.44972 0.47437
 O51 O 0.91705 0.55124 0.47468
 O52 O 1.05113 0.58438 0.47396
 O53 O 0.94972 0.41669 0.47499
 O54 O 0.92534 0.47730 0.45467
 O55 O 1.07544 0.52363 0.45386
 O56 O 1.02327 0.42495 0.45459
 O57 O 0.97742 0.57550 0.45411
 Co58 Co 1.07215 0.50069 0.49934
 Co59 Co 0.92909 0.50054 0.49994
 Co60 Co 1.00056 0.57233 0.49938
 Co61 Co 1.00052 0.42879 0.49998
 O62 O 1.00059 0.50058 0.49966
 C63 C 1.06290 0.43024 0.45012
 C64 C 0.93773 0.57033 0.45005
 C65 C 1.07053 0.56349 0.44958
 C66 C 0.93035 0.43745 0.45055
 O67 O 0.58280 0.05019 0.52531
 O68 O 0.41587 -0.05165 0.52429
 O69 O 0.44863 0.08300 0.52498
 O70 O 0.54996 -0.08441 0.52474
 O71 O 0.42395 0.02221 0.54476
 O72 O 0.57407 -0.02377 0.54523
 O73 O 0.47627 -0.07609 0.54464
 O74 O 0.52225 0.07449 0.54546
 C75 C 0.56196 0.06950 0.54973
 C76 C 0.43659 -0.07091 0.54880
 C77 C 0.42913 0.06200 0.54921
 C78 C 0.56910 -0.06363 0.54930
 O79 O 0.58292 -0.05124 0.47469
 O80 O 0.41612 0.05028 0.47437
 O81 O 0.55026 0.08331 0.47500
 O82 O 0.44884 -0.08437 0.47396
 O83 O 0.42454 -0.02362 0.45386
 O84 O 0.57463 0.02270 0.45467
 O85 O 0.52256 -0.07550 0.45412
 O86 O 0.47670 0.07505 0.45459
 Co87 Co 0.57088 -0.00054 0.49995
 Co88 Co 0.42782 -0.00069 0.49934
 Co89 Co 0.49946 0.07121 0.49998
 Co90 Co 0.49941 -0.07233 0.49939
 O91 O 0.49939 -0.00058 0.49966
 C92 C 0.56225 -0.07033 0.45006
 C93 C 0.43708 0.06976 0.45012
 C94 C 0.56963 0.06255 0.45055
 C95 C 0.42944 -0.06349 0.44958
 O96 O 0.58292 0.55125 0.02538
 O97 O 0.41612 0.44972 0.02569
 O98 O 0.44884 0.58438 0.02610
 O99 O 0.55025 0.41670 0.02507
 O100 O 0.42453 0.52363 0.04620
 O101 O 0.57463 0.47730 0.04540
 O102 O 0.47670 0.42496 0.04547
 O103 O 0.52256 0.57551 0.04594
 C104 C 0.56225 0.57033 0.05001
 C105 C 0.43707 0.43024 0.04994
 C106 C 0.42944 0.56349 0.05048
 C107 C 0.56962 0.43746 0.04952
 O108 O 0.58279 0.44982 -0.02524
 O109 O 0.41587 0.55165 -0.02423
 O110 O 0.54996 0.58442 -0.02467
 O111 O 0.44862 0.41701 -0.02492
 O112 O 0.42395 0.47779 -0.04470
 O113 O 0.57407 0.52378 -0.04517
 O114 O 0.52225 0.42552 -0.04539
 O115 O 0.47627 0.57609 -0.04458
 Co116 Co 0.57088 0.50055 0.00012
 Co117 Co 0.42782 0.50069 0.00072
 Co118 Co 0.49941 0.57233 0.00067
 Co119 Co 0.49945 0.42880 0.00008
 O120 O 0.49938 0.50059 0.00040
 C121 C 0.56196 0.43051 -0.04967
 C122 C 0.43659 0.57091 -0.04874
 C123 C 0.56910 0.56363 -0.04924
 C124 C 0.42913 0.43801 -0.04915
 C125 C 1.17469 0.17606 0.17950
 C126 C 1.12504 0.18335 0.18253
 C127 C 1.10142 0.16074 0.15714
 C128 C 1.12984 0.13312 0.13127
 C129 C 1.15727 0.10342 0.15629
 C130 C 1.18089 0.12603 0.18169
 C131 C 1.18624 0.18824 0.14005
 C132 C 1.16268 0.16569 0.11473
 C133 C 1.20044 0.20088 0.20615
 C134 C 1.22243 0.22247 0.22673
 C135 C 1.10488 0.10934 0.10345
 C136 C 1.08523 0.09076 0.07951
 H137 H 1.10979 0.20431 0.20286
 H138 H 1.06591 0.16232 0.15570
 H139 H 1.15800 0.06781 0.15428
 H140 H 1.20188 0.10982 0.20146
 H141 H 1.21082 0.21248 0.13265
 H142 H 1.16708 0.17061 0.08562
 C143 C 1.17496 0.67629 0.67909
 C144 C 1.12530 0.68360 0.68191
 C145 C 1.10184 0.66117 0.65630
 C146 C 1.13042 0.63369 0.63045
 C147 C 1.15766 0.60382 0.65547
 C148 C 1.18112 0.62625 0.68109
 C149 C 1.18680 0.68871 0.63975
 C150 C 1.16341 0.66634 0.61421
 C151 C 1.20055 0.70096 0.70598
 C152 C 1.22245 0.72247 0.72669
 C153 C 1.10559 0.61010 0.60241
 C154 C 1.08592 0.59170 0.57837
 H155 H 1.10991 0.70444 0.70226
 H156 H 1.06635 0.66279 0.65469
 H157 H 1.15838 0.56822 0.65331
 H158 H 1.20195 0.60990 0.70089
 H159 H 1.21144 0.71298 0.63258
 H160 H 1.16801 0.67144 0.58515
 C161 C 0.67445 0.17604 0.67927
 C162 C 0.62479 0.18335 0.68235
 C163 C 0.60109 0.16077 0.65697
 C164 C 0.62939 0.13313 0.63101
 C165 C 0.65687 0.10342 0.65600
 C166 C 0.68059 0.12600 0.68138
 C167 C 0.68589 0.18822 0.63979
 C168 C 0.66225 0.16570 0.61447
 C169 C 0.70033 0.20087 0.70599
 C170 C 0.72237 0.22243 0.72665
 C171 C 0.60426 0.10930 0.60317
 C172 C 0.58447 0.09065 0.57927
 H173 H 0.60960 0.20431 0.70271
 H174 H 0.56558 0.16240 0.65559
 H175 H 0.65758 0.06781 0.65397
 H176 H 0.70160 0.10974 0.70110
 H177 H 0.71047 0.21244 0.63236
 H178 H 0.66658 0.17065 0.58536
 C179 C 0.67466 0.67610 0.17950
 C180 C 0.62502 0.68349 0.18253
 C181 C 0.60136 0.66092 0.15715
 C182 C 0.62972 0.63325 0.13128
 C183 C 0.65709 0.60349 0.15629
 C184 C 0.68076 0.62606 0.18169
 C185 C 0.68623 0.68825 0.14005
 C186 C 0.66263 0.66575 0.11473
 C187 C 0.70044 0.70089 0.20615
 C188 C 0.72243 0.72247 0.22674
 C189 C 0.60468 0.60954 0.10346
 C190 C 0.58487 0.59109 0.07954
 H191 H 0.60981 0.70448 0.20286
 H192 H 0.56585 0.66257 0.15571
 H193 H 0.65776 0.56788 0.15428
 H194 H 0.70172 0.60981 0.20146
 H195 H 0.71085 0.71244 0.13265
 H196 H 0.66703 0.67065 0.08562
 C197 C 0.82530 -0.17608 0.17950
 C198 C 0.87495 -0.18339 0.18259
 C199 C 0.89861 -0.16084 0.15721
 C200 C 0.87025 -0.13324 0.13128
 C201 C 0.84280 -0.10348 0.15624
 C202 C 0.81912 -0.12605 0.18164
 C203 C 0.81380 -0.18830 0.14006
 C204 C 0.83741 -0.16580 0.11473
 C205 C 0.79952 -0.20086 0.20615
 C206 C 0.77752 -0.22244 0.22674
 C207 C 0.89529 -0.10953 0.10347
 C208 C 0.91510 -0.09109 0.07954
 H209 H 0.89016 -0.20434 0.20296
 H210 H 0.93412 -0.16244 0.15580
 H211 H 0.84209 -0.06788 0.15419
 H212 H 0.79811 -0.10980 0.20137
 H213 H 0.78922 -0.21254 0.13265
 H214 H 0.83305 -0.17076 0.08563
 C215 C 0.82551 0.32398 0.67927
 C216 C 0.87517 0.31663 0.68233
 C217 C 0.89887 0.33920 0.65695
 C218 C 0.87058 0.36688 0.63101
 C219 C 0.84314 0.39660 0.65602
 C220 C 0.81942 0.37403 0.68141
 C221 C 0.81404 0.31184 0.63979
 C222 C 0.83768 0.33435 0.61447
 C223 C 0.79963 0.29916 0.70599
 C224 C 0.77759 0.27760 0.72665
 C225 C 0.89571 0.39071 0.60317
 C226 C 0.91551 0.40936 0.57927
 H227 H 0.89036 0.29565 0.70267
 H228 H 0.93438 0.33755 0.65555
 H229 H 0.84245 0.43221 0.65401
 H230 H 0.79843 0.39029 0.70114
 H231 H 0.78943 0.28764 0.63236
 H232 H 0.83333 0.32942 0.58536
 C233 C 0.32500 -0.17627 0.67910
 C234 C 0.37467 -0.18355 0.68194
 C235 C 0.39812 -0.16112 0.65633
 C236 C 0.36954 -0.13368 0.63045
 C237 C 0.34228 -0.10380 0.65545
 C238 C 0.31881 -0.12623 0.68106
 C239 C 0.31320 -0.18872 0.63976
 C240 C 0.33659 -0.16636 0.61421
 C241 C 0.29941 -0.20094 0.70598
 C242 C 0.27751 -0.22245 0.72669
 C243 C 0.39438 -0.11009 0.60241
 C244 C 0.41405 -0.09170 0.57838
 H245 H 0.39005 -0.20437 0.70230
 H246 H 0.43362 -0.16272 0.65474
 H247 H 0.34153 -0.06821 0.65327
 H248 H 0.29796 -0.10988 0.70085
 H249 H 0.28857 -0.21301 0.63258
 H250 H 0.33200 -0.17148 0.58515
 C251 C 0.32527 0.32396 0.17950
 C252 C 0.37492 0.31667 0.18254
 C253 C 0.39855 0.33927 0.15715
 C254 C 0.37013 0.36688 0.13127
 C255 C 0.34269 0.39659 0.15628
 C256 C 0.31906 0.37398 0.18168
 C257 C 0.31373 0.31177 0.14005
 C258 C 0.33729 0.33431 0.11473
 C259 C 0.29952 0.29914 0.20615
 C260 C 0.27752 0.27755 0.22673
 C261 C 0.39509 0.39067 0.10345
 C262 C 0.41474 0.40924 0.07951
 H263 H 0.39017 0.29571 0.20288
 H264 H 0.43405 0.33770 0.15571
 H265 H 0.34195 0.43220 0.15426
 H266 H 0.29807 0.39019 0.20144
 H267 H 0.28916 0.28752 0.13265
 H268 H 0.33290 0.32939 0.08562
 C269 C 0.82551 0.17604 -0.17920
 C270 C 0.81406 0.18820 -0.13971
 C271 C 0.83771 0.16568 -0.11440
 C272 C 0.87058 0.13313 -0.13095
 C273 C 0.89888 0.16079 -0.15689
 C274 C 0.87517 0.18336 -0.18227
 C275 C 0.81939 0.12599 -0.18132
 C276 C 0.84311 0.10341 -0.15594
 C277 C 0.79963 0.20086 -0.20591
 C278 C 0.77759 0.22243 -0.22657
 C279 C 0.89571 0.10929 -0.10311
 C280 C 0.91551 0.09064 -0.07921
 H281 H 0.78948 0.21241 -0.13228
 H282 H 0.83337 0.17062 -0.08529
 H283 H 0.93438 0.16242 -0.15551
 H284 H 0.89037 0.20433 -0.20262
 H285 H 0.79838 0.10974 -0.20105
 H286 H 0.84241 0.06781 -0.15392
 C287 C 0.82530 0.67609 0.32057
 C288 C 0.81930 0.62605 0.31830
 C289 C 0.84298 0.60348 0.34370
 C290 C 0.87025 0.63324 0.36879
 C291 C 0.83724 0.66564 0.38534
 C292 C 0.81364 0.68814 0.36002
 C293 C 0.87493 0.68360 0.31760
 C294 C 0.89859 0.66103 0.34299
 C295 C 0.79951 0.70088 0.29392
 C296 C 0.77752 0.72247 0.27334
 C297 C 0.89529 0.60953 0.39660
 C298 C 0.91510 0.59109 0.42052
 H299 H 0.79841 0.60980 0.29849
 H300 H 0.84238 0.56786 0.34566
 H301 H 0.83278 0.67047 0.41445
 H302 H 0.78895 0.71226 0.36743
 H303 H 0.89013 0.70467 0.29732
 H304 H 0.93409 0.66276 0.34447
 C305 C 0.32528 0.17606 0.32057
 C306 C 0.31899 0.12604 0.31844
 C307 C 0.34262 0.10343 0.34383
 C308 C 0.37014 0.13313 0.36879
 C309 C 0.33736 0.16577 0.38534
 C310 C 0.31380 0.18831 0.36001
 C311 C 0.37494 0.18328 0.31748
 C312 C 0.39856 0.16067 0.34287
 C313 C 0.29952 0.20088 0.29392
 C314 C 0.27753 0.22247 0.27334
 C315 C 0.39510 0.10934 0.39661
 C316 C 0.41475 0.09077 0.42055
 H317 H 0.29795 0.10984 0.29870
 H318 H 0.34184 0.06783 0.34588
 H319 H 0.33302 0.17074 0.41444
 H320 H 0.28928 0.21260 0.36742
 H321 H 0.39019 0.20419 0.29711
 H322 H 0.43407 0.16220 0.34427
 C323 C 0.32500 0.67629 -0.17903
 C324 C 0.31321 0.68875 -0.13969
 C325 C 0.33660 0.66638 -0.11414
 C326 C 0.36955 0.63370 -0.13039
 C327 C 0.39812 0.66114 -0.15627
 C328 C 0.37467 0.68356 -0.18188
 C329 C 0.31881 0.62626 -0.18100
 C330 C 0.34227 0.60382 -0.15538
 C331 C 0.29941 0.70096 -0.20591
 C332 C 0.27751 0.72247 -0.22662
 C333 C 0.39438 0.61010 -0.10235
 C334 C 0.41405 0.59171 -0.07832
 H335 H 0.28858 0.71304 -0.13251
 H336 H 0.33202 0.67150 -0.08508
 H337 H 0.43362 0.66273 -0.15468
 H338 H 0.39005 0.70438 -0.20224
 H339 H 0.29794 0.60991 -0.20078
 H340 H 0.34152 0.56823 -0.15320
 C341 C 1.17496 -0.17628 -0.17903
 C342 C 1.18678 -0.18872 -0.13969
 C343 C 1.16339 -0.16635 -0.11414
 C344 C 1.13042 -0.13369 -0.13038
 C345 C 1.10184 -0.16114 -0.15625
 C346 C 1.12529 -0.18357 -0.18186
 C347 C 1.18114 -0.12624 -0.18100
 C348 C 1.15768 -0.10381 -0.15539
 C349 C 1.20055 -0.20094 -0.20591
 C350 C 1.22245 -0.22246 -0.22662
 C351 C 1.10559 -0.11010 -0.10234
 C352 C 1.08592 -0.09170 -0.07831
 H353 H 1.21141 -0.21300 -0.13251
 H354 H 1.16798 -0.17147 -0.08508
 H355 H 1.06635 -0.16275 -0.15466
 H356 H 1.10991 -0.20439 -0.20222
 H357 H 1.20199 -0.10989 -0.20079
 H358 H 1.15842 -0.06822 -0.15321
 C359 C 1.17469 0.32395 0.32057
 C360 C 1.18629 0.31182 0.36002
 C361 C 1.16273 0.33437 0.38534
 C362 C 1.12984 0.36688 0.36879
 C363 C 1.10142 0.33921 0.34296
 C364 C 1.12504 0.31660 0.31757
 C365 C 1.18084 0.37398 0.31835
 C366 C 1.15721 0.39659 0.34374
 C367 C 1.20044 0.29914 0.29392
 C368 C 1.22243 0.27755 0.27334
 C369 C 1.10487 0.39067 0.39661
 C370 C 1.08522 0.40924 0.42055
 H371 H 1.21089 0.28762 0.36742
 H372 H 1.16715 0.32948 0.41445
 H373 H 1.06592 0.33759 0.34442
 H374 H 1.10979 0.29560 0.29726
 H375 H 1.20179 0.39019 0.29855
 H376 H 1.15791 0.43220 0.34573
 C377 C 0.67466 -0.17608 0.32057
 C378 C 0.62500 -0.18327 0.31740
 C379 C 0.60134 -0.16071 0.34278
 C380 C 0.62972 -0.13323 0.36879
 C381 C 0.65730 -0.10349 0.34392
 C382 C 0.68097 -0.12606 0.31852
 C383 C 0.68604 -0.18842 0.36002
 C384 C 0.66244 -0.16592 0.38534
 C385 C 0.70044 -0.20087 0.29392
 C386 C 0.72243 -0.22245 0.27334
 C387 C 0.60468 -0.10952 0.39661
 C388 C 0.58487 -0.09108 0.42053
 H389 H 0.60978 -0.20413 0.29698
 H390 H 0.56583 -0.16222 0.34413
 H391 H 0.65809 -0.06789 0.34602
 H392 H 0.70206 -0.10982 0.29885
 H393 H 0.71055 -0.21273 0.36742
 H394 H 0.66672 -0.17095 0.41444
 C395 C 0.67446 0.32397 -0.17919
 C396 C 0.68057 0.37402 -0.18132
 C397 C 0.65686 0.39660 -0.15593
 C398 C 0.62939 0.36688 -0.13094
 C399 C 0.66226 0.33433 -0.11439
 C400 C 0.68591 0.31182 -0.13971
 C401 C 0.62480 0.31665 -0.18226
 C402 C 0.60109 0.33922 -0.15689
 C403 C 0.70034 0.29915 -0.20591
 C404 C 0.72237 0.27759 -0.22657
 C405 C 0.60426 0.39071 -0.10310
 C406 C 0.58446 0.40936 -0.07921
 H407 H 0.70158 0.39028 -0.20105
 H408 H 0.65755 0.43220 -0.15392
 H409 H 0.66661 0.32939 -0.08529
 H410 H 0.71050 0.28761 -0.13228
 H411 H 0.60960 0.29568 -0.20262
 H412 H 0.56559 0.33758 -0.15550
 C413 C 1.17648 0.17436 -0.17911
 C414 C 1.18380 0.12454 -0.18211
 C415 C 1.16142 0.10083 -0.15662
 C416 C 1.13396 0.12930 -0.13066
 C417 C 1.10421 0.15676 -0.15561
 C418 C 1.12659 0.18048 -0.18111
 C419 C 1.18878 0.18598 -0.13970
 C420 C 1.16646 0.16233 -0.11427
 C421 C 1.20109 0.20024 -0.20591
 C422 C 1.22253 0.22232 -0.22660
 C423 C 1.11035 0.10420 -0.10272
 C424 C 1.09186 0.08444 -0.07874
 H425 H 1.20462 0.10925 -0.20250
 H426 H 1.16306 0.06521 -0.15516
 H427 H 1.06873 0.15745 -0.15349
 H428 H 1.11030 0.20149 -0.20084
 H429 H 1.21295 0.21067 -0.13239
 H430 H 1.17151 0.16677 -0.08518
 C431 C 1.17737 0.67581 0.31973
 C432 C 1.18444 0.62594 0.31681
 C433 C 1.16185 0.60235 0.34227
 C434 C 1.13440 0.63093 0.36817
 C435 C 1.10490 0.65853 0.34310
 C436 C 1.12750 0.68213 0.31763
 C437 C 1.18955 0.68738 0.35919
 C438 C 1.16702 0.66385 0.38459
 C439 C 1.20224 0.70162 0.29290
 C440 C 1.22387 0.72371 0.27222
 C441 C 1.11050 0.60588 0.39613
 C442 C 1.09178 0.58609 0.42005
 H443 H 1.20526 0.61052 0.29649
 H444 H 1.16333 0.56673 0.34376
 H445 H 1.06942 0.65940 0.34513
 H446 H 1.11137 0.70319 0.29785
 H447 H 1.21380 0.71197 0.36654
 H448 H 1.17198 0.66831 0.41368
 C449 C 0.67613 0.17468 0.32089
 C450 C 0.68330 0.12483 0.31806
 C451 C 0.66071 0.10130 0.34353
 C452 C 0.63319 0.12996 0.36931
 C453 C 0.60366 0.15741 0.34416
 C454 C 0.62627 0.18095 0.31868
 C455 C 0.68824 0.18643 0.36032
 C456 C 0.66570 0.16295 0.38573
 C457 C 0.70096 0.20037 0.29409
 C458 C 0.72250 0.22234 0.27340
 C459 C 0.60936 0.10500 0.39721
 C460 C 0.59072 0.08523 0.42111
 H461 H 0.70419 0.10938 0.29780
 H462 H 0.66223 0.06568 0.34510
 H463 H 0.56817 0.15822 0.34615
 H464 H 0.61015 0.20192 0.29883
 H465 H 0.71244 0.21108 0.36765
 H466 H 0.67060 0.16751 0.41482
 C467 C 0.67590 0.67501 -0.17909
 C468 C 0.68276 0.62512 -0.18186
 C469 C 0.66002 0.60178 -0.15635
 C470 C 0.63269 0.63067 -0.13062
 C471 C 0.60333 0.65825 -0.15580
 C472 C 0.62607 0.68159 -0.18131
 C473 C 0.68809 0.68677 -0.13969
 C474 C 0.66541 0.66349 -0.11424
 C475 C 0.70086 0.70050 -0.20591
 C476 C 0.72249 0.72237 -0.22661
 C477 C 0.60874 0.60592 -0.10268
 C478 C 0.59009 0.58626 -0.07873
 H479 H 0.70355 0.60950 -0.20210
 H480 H 0.66133 0.56616 -0.15474
 H481 H 0.56784 0.65929 -0.15381
 H482 H 0.61008 0.70263 -0.20119
 H483 H 0.71244 0.71128 -0.13239
 H484 H 0.67033 0.66807 -0.08516
 C485 C 0.82409 -0.17503 -0.17910
 C486 C 0.87392 -0.18158 -0.18133
 C487 C 0.89666 -0.15823 -0.15581
 C488 C 0.86730 -0.13068 -0.13062
 C489 C 0.83460 -0.16353 -0.11424
 C490 C 0.81193 -0.18681 -0.13969
 C491 C 0.81720 -0.12514 -0.18185
 C492 C 0.83993 -0.10180 -0.15634
 C493 C 0.79913 -0.20052 -0.20591
 C494 C 0.77751 -0.22239 -0.22661
 C495 C 0.89124 -0.10593 -0.10268
 C496 C 0.90989 -0.08627 -0.07874
 H497 H 0.88991 -0.20260 -0.20121
 H498 H 0.93215 -0.15925 -0.15383
 H499 H 0.82969 -0.16812 -0.08516
 H500 H 0.78759 -0.21134 -0.13239
 H501 H 0.79639 -0.10952 -0.20208
 H502 H 0.83861 -0.06618 -0.15472
 C503 C 0.82386 0.32531 0.32089
 C504 C 0.87371 0.31889 0.31879
 C505 C 0.89631 0.34243 0.34427
 C506 C 0.86680 0.37004 0.36930
 C507 C 0.83414 0.33718 0.38573
 C508 C 0.81160 0.31370 0.36032
 C509 C 0.81684 0.37517 0.31795
 C510 C 0.83943 0.39871 0.34342
 C511 C 0.79904 0.29961 0.29409
 C512 C 0.77749 0.27764 0.27340
 C513 C 0.89062 0.39499 0.39721
 C514 C 0.90926 0.41477 0.42111
 H515 H 0.88982 0.29781 0.29901
 H516 H 0.93179 0.34152 0.34632
 H517 H 0.82915 0.33272 0.41482
 H518 H 0.78732 0.28914 0.36764
 H519 H 0.79605 0.39062 0.29762
 H520 H 0.83800 0.43433 0.34492
 C521 C 0.32262 -0.17582 0.31973
 C522 C 0.37250 -0.18202 0.31756
 C523 C 0.39510 -0.15843 0.34303
 C524 C 0.36559 -0.13094 0.36817
 C525 C 0.33307 -0.16396 0.38459
 C526 C 0.31054 -0.18749 0.35919
 C527 C 0.31544 -0.12596 0.31688
 C528 C 0.33803 -0.10237 0.34234
 C529 C 0.29775 -0.20164 0.29290
 C530 C 0.27612 -0.22373 0.27222
 C531 C 0.38948 -0.10588 0.39613
 C532 C 0.40820 -0.08609 0.42005
 H533 H 0.38865 -0.20302 0.29774
 H534 H 0.43059 -0.15922 0.34501
 H535 H 0.32817 -0.16848 0.41368
 H536 H 0.28637 -0.21215 0.36654
 H537 H 0.29455 -0.11055 0.29661
 H538 H 0.33647 -0.06675 0.34387
 C539 C 0.32350 0.32563 -0.17911
 C540 C 0.31618 0.37545 -0.18211
 C541 C 0.33856 0.39916 -0.15662
 C542 C 0.36602 0.37069 -0.13066
 C543 C 0.39577 0.34323 -0.15561
 C544 C 0.37339 0.31951 -0.18111
 C545 C 0.31121 0.31401 -0.13970
 C546 C 0.33352 0.33766 -0.11427
 C547 C 0.29889 0.29974 -0.20591
 C548 C 0.27746 0.27767 -0.22660
 C549 C 0.38962 0.39579 -0.10272
 C550 C 0.40812 0.41556 -0.07874
 H551 H 0.29536 0.39074 -0.20250
 H552 H 0.33691 0.43477 -0.15516
 H553 H 0.43126 0.34255 -0.15349
 H554 H 0.38969 0.29851 -0.20084
 H555 H 0.28705 0.28930 -0.13239
 H556 H 0.32848 0.33321 -0.08519
 C557 C 1.17737 -0.17582 0.18033
 C558 C 1.12750 -0.18210 0.18246
 C559 C 1.10490 -0.15850 0.15699
 C560 C 1.13440 -0.13094 0.13189
 C561 C 1.16697 -0.16389 0.11547
 C562 C 1.18951 -0.18743 0.14087
 C563 C 1.18448 -0.12595 0.18322
 C564 C 1.16189 -0.10236 0.15776
 C565 C 1.20224 -0.20164 0.20716
 C566 C 1.22387 -0.22373 0.22784
 C567 C 1.11050 -0.10589 0.10394
 C568 C 1.09178 -0.08610 0.08002
 H569 H 1.11136 -0.20314 0.20225
 H570 H 1.06941 -0.15934 0.15498
 H571 H 1.17192 -0.16837 0.08638
 H572 H 1.21373 -0.21204 0.13351
 H573 H 1.20533 -0.11054 0.20353
 H574 H 1.16341 -0.06674 0.15626
 C575 C 1.17648 0.32563 0.67917
 C576 C 1.12659 0.31948 0.68115
 C577 C 1.10421 0.34320 0.65565
 C578 C 1.13396 0.37069 0.63072
 C579 C 1.16649 0.33769 0.61433
 C580 C 1.18881 0.31404 0.63975
 C581 C 1.18377 0.37545 0.68219
 C582 C 1.16139 0.39916 0.65670
 C583 C 1.20109 0.29974 0.70597
 C584 C 1.22253 0.27767 0.72666
 C585 C 1.11035 0.39580 0.60278
 C586 C 1.09186 0.41556 0.57880
 H587 H 1.11030 0.29844 0.70086
 H588 H 1.06873 0.34249 0.65351
 H589 H 1.17155 0.33327 0.58524
 H590 H 1.21298 0.28936 0.63244
 H591 H 1.20457 0.39074 0.70259
 H592 H 1.16302 0.43478 0.65526
 C593 C 0.67590 -0.17502 0.67915
 C594 C 0.62607 -0.18157 0.68139
 C595 C 0.60332 -0.15822 0.65588
 C596 C 0.63269 -0.13067 0.63068
 C597 C 0.66537 -0.16352 0.61430
 C598 C 0.68805 -0.18680 0.63974
 C599 C 0.68280 -0.12513 0.68190
 C600 C 0.66006 -0.10179 0.65640
 C601 C 0.70086 -0.20052 0.70596
 C602 C 0.72249 -0.22239 0.72666
 C603 C 0.60874 -0.10592 0.60274
 C604 C 0.59009 -0.08626 0.57880
 H605 H 0.61008 -0.20259 0.70128
 H606 H 0.56784 -0.15924 0.65390
 H607 H 0.67028 -0.16812 0.58521
 H608 H 0.71238 -0.21134 0.63244
 H609 H 0.70361 -0.10952 0.70213
 H610 H 0.66139 -0.06617 0.65477
 C611 C 0.67613 0.32531 0.17916
 C612 C 0.68320 0.37517 0.18207
 C613 C 0.66060 0.39871 0.15660
 C614 C 0.63319 0.37004 0.13075
 C615 C 0.60367 0.34248 0.15582
 C616 C 0.62628 0.31893 0.18130
 C617 C 0.68834 0.31367 0.13973
 C618 C 0.66580 0.33715 0.11432
 C619 C 0.70096 0.29961 0.20596
 C620 C 0.72250 0.27764 0.22665
 C621 C 0.60935 0.39500 0.10285
 C622 C 0.59072 0.41478 0.07896
 H623 H 0.70401 0.39062 0.20238
 H624 H 0.66206 0.43433 0.15509
 H625 H 0.56818 0.34159 0.15379
 H626 H 0.61016 0.29788 0.20109
 H627 H 0.71260 0.28909 0.13240
 H628 H 0.67075 0.33267 0.08524
 C629 C 0.82385 0.17468 0.17916
 C630 C 0.81167 0.18635 0.13973
 C631 C 0.83421 0.16287 0.11432
 C632 C 0.86679 0.12995 0.13075
 C633 C 0.83936 0.10129 0.15658
 C634 C 0.81676 0.12482 0.18205
 C635 C 0.87371 0.18103 0.18131
 C636 C 0.89631 0.15749 0.15584
 C637 C 0.79903 0.20037 0.20595
 C638 C 0.77749 0.22234 0.22665
 C639 C 0.89062 0.10500 0.10285
 C640 C 0.90926 0.08522 0.07895
 H641 H 0.78742 0.21095 0.13240
 H642 H 0.82926 0.16737 0.08523
 H643 H 0.83788 0.06567 0.15505
 H644 H 0.79593 0.10937 0.20235
 H645 H 0.88983 0.20206 0.20112
 H646 H 0.93180 0.15835 0.15381
 C647 C 0.82409 0.67501 0.67915
 C648 C 0.81721 0.62512 0.68191
 C649 C 0.83994 0.60178 0.65640
 C650 C 0.86729 0.63067 0.63067
 C651 C 0.89666 0.65824 0.65586
 C652 C 0.87392 0.68158 0.68137
 C653 C 0.81191 0.68678 0.63974
 C654 C 0.83459 0.66350 0.61429
 C655 C 0.79913 0.70051 0.70596
 C656 C 0.77750 0.72237 0.72666
 C657 C 0.89124 0.60592 0.60273
 C658 C 0.90989 0.58626 0.57879
 H659 H 0.79641 0.60950 0.70215
 H660 H 0.83863 0.56616 0.65478
 H661 H 0.93215 0.65927 0.65387
 H662 H 0.88991 0.70261 0.70125
 H663 H 0.78756 0.71130 0.63244
 H664 H 0.82967 0.66809 0.58521
 C665 C 0.32350 0.17436 0.67917
 C666 C 0.31613 0.12455 0.68214
 C667 C 0.33851 0.10084 0.65665
 C668 C 0.36602 0.12930 0.63072
 C669 C 0.39578 0.15672 0.65570
 C670 C 0.37339 0.18044 0.68120
 C671 C 0.31125 0.18603 0.63975
 C672 C 0.33356 0.16238 0.61432
 C673 C 0.29889 0.20024 0.70597
 C674 C 0.27746 0.22232 0.72666
 C675 C 0.38962 0.10421 0.60278
 C676 C 0.40812 0.08445 0.57880
 H677 H 0.29528 0.10926 0.70250
 H678 H 0.33683 0.06523 0.65517
 H679 H 0.43126 0.15738 0.65360
 H680 H 0.38969 0.20142 0.70095
 H681 H 0.28712 0.21075 0.63244
 H682 H 0.32855 0.16685 0.58524
 C683 C 0.32262 0.67581 0.18033
 C684 C 0.31549 0.62595 0.18321
 C685 C 0.33807 0.60236 0.15774
 C686 C 0.36558 0.63093 0.13188
 C687 C 0.39509 0.65847 0.15700
 C688 C 0.37250 0.68207 0.18247
 C689 C 0.31050 0.68744 0.14087
 C690 C 0.33303 0.66391 0.11546
 C691 C 0.29775 0.70162 0.20716
 C692 C 0.27612 0.72371 0.22784
 C693 C 0.38948 0.60588 0.10393
 C694 C 0.40819 0.58609 0.08001
 H695 H 0.29462 0.61053 0.20350
 H696 H 0.33654 0.56674 0.15623
 H697 H 0.43058 0.65930 0.15499
 H698 H 0.38864 0.70309 0.20227
 H699 H 0.28629 0.71207 0.13351
 H700 H 0.32810 0.66840 0.08637
   
