data_POSCAR
  _audit_creation_date              2014-09-24
  _audit_creation_method            'ToBaCCo'
  _symmetry_space_group_name_H-M    'P1'
  _symmetry_Int_Tables_number       1
  _symmetry_cell_setting            triclinic
  loop_
  _symmetry_equiv_pos_as_xyz
 x,y,z
_cell_length_a 29.2709
_cell_length_b 29.2596
_cell_length_c 29.2475
_cell_angle_alpha 89.998600
_cell_angle_beta 89.942100
_cell_angle_gamma 90.000400
loop_
  _atom_site_label
  _atom_site_type_symbol
  _atom_site_fract_x
  _atom_site_fract_y
  _atom_site_fract_z
C1 C 0.21031 0.53099 1.08498
 H2 H 0.23393 0.55924 1.08236
 C3 C 0.17843 0.53015 1.12058
 H4 H 0.17856 0.55780 1.14519
 C5 C 0.18038 0.46215 1.05474
 H6 H 0.18091 0.43626 1.02833
 C7 C 0.14806 0.45980 1.08975
 H8 H 0.12415 0.43156 1.08983
 N9 N 0.21060 0.49735 1.05291
 C10 C 0.28783 0.58406 0.97017
 H11 H 0.26411 0.58144 0.94203
 C12 C 0.31960 0.61972 0.97093
 H13 H 0.31952 0.64449 0.94343
 C14 C 0.31824 0.55374 1.03882
 H15 H 0.31797 0.52728 1.06466
 C16 C 0.35048 0.58880 1.04098
 H17 H 0.37474 0.58907 1.06889
 Zn18 Zn 0.24932 0.50008 1.00118
 N19 N 0.28782 0.55193 1.00379
 C20 C 0.18025 0.53749 0.94758
 N21 N 0.21080 0.50256 0.94937
 C22 C 0.21099 0.46901 0.91717
 C23 C 0.17934 0.46977 0.88142
 C24 C 0.14814 0.53967 0.91243
 C25 C 0.28813 0.41618 1.03202
 C26 C 0.31994 0.38057 1.03105
 C27 C 0.35086 0.41190 0.96112
 C28 C 0.31859 0.44690 0.96351
 N29 N 0.28810 0.44846 0.99855
 H30 H 0.18037 0.56328 0.97409
 H31 H 0.23479 0.44093 0.91978
 H32 H 0.17960 0.44235 0.85657
 H33 H 0.12380 0.56753 0.91215
 H34 H 0.26436 0.41862 1.06019
 H35 H 0.31986 0.35565 1.05841
 H36 H 0.37515 0.41179 0.93318
 H37 H 0.31829 0.47348 0.93779
 C38 C 0.35185 0.62213 1.00642
 C39 C 0.14617 0.49448 1.12309
 C40 C 0.35221 0.37837 0.99549
 C41 C 0.14702 0.50521 0.87899
 C42 C 0.78848 0.53114 -0.08338
 H43 H 0.76469 0.55926 -0.08087
 C44 C 0.82023 0.53023 -0.11910
 H45 H 0.82009 0.55760 -0.14401
 C46 C 0.81901 0.46268 -0.05277
 H47 H 0.81877 0.43696 -0.02619
 C48 C 0.85122 0.46036 -0.08788
 H49 H 0.87552 0.43246 -0.08806
 N50 N 0.78853 0.49768 -0.05110
 C51 C 0.71127 0.58425 0.03162
 H52 H 0.73507 0.58176 0.05971
 C53 C 0.67943 0.61984 0.03082
 H54 H 0.67953 0.64471 0.05822
 C55 C 0.68076 0.55364 -0.03685
 H56 H 0.68102 0.52710 -0.06261
 C57 C 0.64845 0.58863 -0.03907
 H58 H 0.62413 0.58877 -0.06693
 Zn59 Zn 0.74989 0.50028 0.00067
 N60 N 0.71126 0.55202 -0.00189
 C61 C 0.81904 0.53771 0.05409
 N62 N 0.78850 0.50277 0.05240
 C63 C 0.78849 0.46915 0.08452
 C64 C 0.82038 0.46980 0.12005
 C65 C 0.85140 0.53977 0.08901
 C66 C 0.71132 0.41645 -0.03043
 C67 C 0.67953 0.38082 -0.02971
 C68 C 0.64847 0.41175 0.04032
 C69 C 0.68073 0.44678 0.03819
 N70 N 0.71126 0.44856 0.00320
 H71 H 0.81878 0.56355 0.02763
 H72 H 0.76467 0.44108 0.08197
 H73 H 0.82029 0.44230 0.14481
 H74 H 0.87577 0.56761 0.08920
 H75 H 0.73513 0.41905 -0.05855
 H76 H 0.67968 0.35605 -0.05721
 H77 H 0.62412 0.41149 0.06821
 H78 H 0.68096 0.47324 0.06404
 C79 C 0.64711 0.62208 -0.00463
 C80 C 0.85250 0.49473 -0.12140
 C81 C 0.64719 0.37843 0.00576
 C82 C 0.85276 0.50520 0.12233
 C83 C -0.03746 0.31962 0.44519
 H84 H -0.06347 0.31914 0.47150
 C85 C -0.03960 0.35195 0.41019
 H86 H -0.06780 0.37590 0.41001
 C87 C 0.03145 0.28958 0.41518
 H88 H 0.05964 0.26592 0.41789
 C89 C 0.03082 0.32146 0.37959
 H90 H 0.05857 0.32128 0.35508
 N91 N -0.00233 0.28935 0.44713
 C92 C -0.05323 0.18146 0.53643
 H93 H -0.02674 0.18177 0.56221
 C94 C -0.08823 0.14918 0.53874
 H95 H -0.08843 0.12491 0.56668
 C96 C -0.08370 0.21187 0.46786
 H97 H -0.08117 0.23562 0.43970
 C98 C -0.11931 0.18004 0.46874
 H99 H -0.14414 0.18010 0.44133
 Zn100 Zn 0.00013 0.25066 0.49888
 N101 N -0.05154 0.21193 0.50140
 C102 C -0.03101 0.28906 0.58293
 N103 N 0.00254 0.28924 0.55071
 C104 C 0.03753 0.31972 0.55256
 C105 C 0.03977 0.35177 0.58780
 C106 C -0.03018 0.32065 0.61877
 C107 C 0.05380 0.18164 0.46135
 C108 C 0.08883 0.14938 0.45923
 C109 C 0.11956 0.18030 0.52936
 C110 C 0.08392 0.21209 0.53006
 N111 N 0.05191 0.21209 0.49639
 H112 H -0.05911 0.26530 0.58028
 H113 H 0.06332 0.31959 0.52604
 H114 H 0.06767 0.37606 0.58814
 H115 H -0.05760 0.32040 0.64364
 H116 H 0.02742 0.18191 0.43546
 H117 H 0.08918 0.12509 0.43131
 H118 H 0.14424 0.18039 0.55690
 H119 H 0.08123 0.23583 0.55821
 C120 C -0.12164 0.14780 0.50430
 C121 C -0.00477 0.35378 0.37696
 C122 C 0.12206 0.14803 0.49385
 C123 C 0.00533 0.35289 0.62128
 C124 C 0.96269 0.68082 0.55345
 H125 H 0.93698 0.68101 0.52690
 C126 C 0.96044 0.64860 0.58853
 H127 H 0.93260 0.62424 0.58873
 C128 C 1.03110 0.71147 0.58399
 H129 H 1.05918 0.73529 0.58145
 C130 C 1.03026 0.67971 0.61967
 H131 H 1.05763 0.67988 0.64454
 N132 N 0.99764 0.71136 0.55175
 C133 C 0.94695 0.81901 0.46227
 H134 H 0.97351 0.81875 0.43651
 C135 C 0.91195 0.85129 0.46000
 H136 H 0.91182 0.87561 0.43210
 C137 C 0.91632 0.78851 0.53080
 H138 H 0.91879 0.76473 0.55893
 C139 C 0.88071 0.82032 0.52994
 H140 H 0.85583 0.82022 0.55735
 Zn141 Zn 1.00028 0.74991 0.49995
 N142 N 0.94856 0.78852 0.49728
 C143 C 0.96954 0.71123 0.41600
 N144 N 1.00298 0.71121 0.44826
 C145 C 1.03793 0.68067 0.44666
 C146 C 1.04022 0.64836 0.41166
 C147 C 0.97042 0.67939 0.38039
 C148 C 1.05351 0.81917 0.53745
 C149 C 1.08848 0.85149 0.53964
 C150 C 1.11979 0.82033 0.46981
 C151 C 1.08421 0.78849 0.46903
 N152 N 1.05195 0.78858 0.50253
 H153 H 0.94146 0.73505 0.41846
 H154 H 1.06363 0.68093 0.47323
 H155 H 1.06806 0.62401 0.41154
 H156 H 0.94307 0.67950 0.35550
 H157 H 1.02694 0.81896 0.56319
 H158 H 1.08857 0.87589 0.56747
 H159 H 1.14469 0.82017 0.44242
 H160 H 1.08178 0.76462 0.44097
 C161 C 0.87848 0.85263 0.49444
 C162 C 0.99483 0.64736 0.62198
 C163 C 1.12196 0.85275 0.50522
 C164 C 1.00586 0.64704 0.37818
 C165 C 0.44663 -0.03841 0.31849
 H166 H 0.47300 -0.06432 0.31825
 C167 C 0.41159 -0.04042 0.35080
 H168 H 0.41123 -0.06828 0.37515
 C169 C 0.41651 0.03026 0.28792
 H170 H 0.41922 0.05835 0.26411
 C171 C 0.38088 0.02966 0.31974
 H172 H 0.35620 0.05722 0.31962
 N173 N 0.44852 -0.00345 0.28796
 C174 C 0.53786 -0.05480 0.18034
 H175 H 0.56388 -0.02853 0.18077
 C176 C 0.53994 -0.08976 0.14797
 H177 H 0.56811 -0.08996 0.12394
 C178 C 0.46896 -0.08470 0.21052
 H179 H 0.44079 -0.08195 0.23424
 C180 C 0.46954 -0.12025 0.17861
 H181 H 0.44177 -0.14470 0.17882
 Zn182 Zn 0.50028 -0.00106 0.24932
 N183 N 0.50276 -0.05282 0.21069
 C184 C 0.58419 -0.03195 0.28803
 N185 N 0.55194 0.00153 0.28799
 C186 C 0.55355 0.03659 0.31843
 C187 C 0.58856 0.03898 0.35066
 C188 C 0.61981 -0.03097 0.31980
 C189 C 0.46284 0.05243 0.18019
 C190 C 0.46053 0.08762 0.14810
 C191 C 0.53040 0.11870 0.17917
 C192 C 0.53130 0.08291 0.21079
 N193 N 0.49781 0.05067 0.21067
 H194 H 0.58171 -0.06012 0.26430
 H195 H 0.52700 0.06231 0.31813
 H196 H 0.58870 0.06694 0.37491
 H197 H 0.64471 -0.05833 0.31973
 H198 H 0.43711 0.02589 0.18038
 H199 H 0.43264 0.08790 0.12383
 H200 H 0.55776 0.14360 0.17938
 H201 H 0.55940 0.08032 0.23456
 C202 C 0.50508 -0.12290 0.14618
 C203 C 0.37837 -0.00577 0.35210
 C204 C 0.49490 0.12113 0.14694
 C205 C 0.62206 0.00462 0.35201
 C206 C 0.55356 -0.03759 0.68076
 H207 H 0.52710 -0.06341 0.68101
 C208 C 0.58861 -0.03976 0.64847
 H209 H 0.58889 -0.06766 0.62415
 C210 C 0.58390 0.03100 0.71127
 H211 H 0.58128 0.05912 0.73504
 C212 C 0.61955 0.03024 0.67945
 H213 H 0.64433 0.05771 0.67955
 N214 N 0.55177 -0.00260 0.71125
 C215 C 0.46232 -0.05336 0.81911
 H216 H 0.43660 -0.02681 0.81885
 C217 C 0.46002 -0.08836 0.85142
 H218 H 0.43212 -0.08850 0.87576
 C219 C 0.53079 -0.08398 0.78858
 H220 H 0.55891 -0.08151 0.76477
 C221 C 0.52990 -0.11960 0.82042
 H222 H 0.55727 -0.14448 0.82031
 Zn223 Zn 0.49999 -0.00002 0.74989
 N224 N 0.49732 -0.05174 0.78859
 C225 C 0.41606 -0.03087 0.71132
 N226 N 0.44833 0.00258 0.71122
 C227 C 0.44672 0.03755 0.68068
 C228 C 0.41168 0.03986 0.64846
 C229 C 0.38041 -0.02997 0.67957
 C230 C 0.53745 0.05349 0.81900
 C231 C 0.53966 0.08859 0.85120
 C232 C 0.46978 0.11965 0.82014
 C233 C 0.46899 0.08395 0.78840
 N234 N 0.50251 0.05175 0.78849
 H235 H 0.41852 -0.05896 0.73515
 H236 H 0.47328 0.06326 0.68088
 H237 H 0.41154 0.06773 0.62412
 H238 H 0.35550 -0.05732 0.67975
 H239 H 0.56321 0.02698 0.81880
 H240 H 0.56751 0.08884 0.87552
 H241 H 0.44237 0.14449 0.81997
 H242 H 0.44091 0.08137 0.76460
 C243 C 0.49441 -0.12184 0.85276
 C244 C 0.62196 -0.00524 0.64714
 C245 C 0.50522 0.12202 0.85244
 C246 C 0.37817 0.00550 0.64724
 C247 C 0.25007 0.00035 0.49970
 C248 C 0.75026 0.00016 0.49949
 C249 C 0.49974 0.25019 1.00007
 C250 C 0.49949 0.75021 0.00063
 C251 C 1.00061 0.49933 0.25007
 C252 C 0.00005 0.49982 0.75026
 N253 N 0.15896 0.08005 0.46019
 C254 C 0.15745 0.11176 0.49406
 N255 N 0.18757 0.10808 0.52919
 N256 N 0.21758 0.07387 0.53061
 C257 C 0.21890 0.04195 0.49684
 N258 N 0.18895 0.04587 0.46158
 N259 N 0.57912 0.65874 -0.03839
 C260 C 0.61082 0.65745 -0.00455
 N261 N 0.60714 0.68780 0.03042
 N262 N 0.57294 0.71784 0.03170
 C263 C 0.54104 0.71894 -0.00205
 N264 N 0.54496 0.68874 -0.03715
 N265 N 0.84171 -0.07951 0.46051
 C266 C 0.84309 -0.11112 0.49447
 N267 N 0.81282 -0.10736 0.52952
 N268 N 0.78277 -0.07318 0.53076
 C269 C 0.78157 -0.04137 0.49688
 N270 N 0.81168 -0.04536 0.46171
 N271 N 0.41998 0.34157 0.96132
 C272 C 0.38842 0.34293 0.99536
 N273 N 0.39219 0.31259 1.03032
 N274 N 0.42636 0.28253 1.03144
 C275 C 0.45814 0.28137 0.99750
 N276 N 0.45412 0.31153 0.96240
 N277 N 0.84146 0.08005 0.53841
 C278 C 0.84294 0.11156 0.50435
 N279 N 0.81275 0.10771 0.46931
 N280 N 0.78270 0.07352 0.46814
 C281 C 0.78142 0.04179 0.50210
 N282 N 0.81144 0.04589 0.53728
 N283 N 0.39183 0.68771 -0.02887
 C284 C 0.38811 0.65753 0.00624
 N285 N 0.41977 0.65900 0.04012
 N286 N 0.45394 0.68899 0.03875
 C287 C 0.45790 0.71901 0.00349
 N288 N 0.42603 0.71774 -0.03028
 N289 N 0.15863 -0.07921 0.53892
 C290 C 0.15732 -0.11097 0.50508
 N291 N 0.18764 -0.10734 0.47007
 N292 N 0.21766 -0.07314 0.46872
 C293 C 0.21879 -0.04118 0.50246
 N294 N 0.18863 -0.04504 0.53761
 N295 N 0.57929 0.34147 1.03950
 C296 C 0.61096 0.34302 1.00557
 N297 N 0.60728 0.31290 0.97041
 N298 N 0.57312 0.28284 0.96902
 C299 C 0.54125 0.28148 1.00285
 N300 N 0.54516 0.31144 1.03815
 N301 N 0.52980 0.18711 1.10730
 C302 C 0.49482 0.15680 1.11093
 N303 N 0.46083 0.15841 1.07941
 N304 N 0.46197 0.18866 1.04544
 C305 C 0.49709 0.21879 1.04155
 N306 N 0.53098 0.21739 1.07329
 N307 N 0.02989 0.60744 0.68769
 C308 C -0.00511 0.61113 0.65744
 N309 N -0.03900 0.57947 0.65887
 N310 N -0.03776 0.54533 0.68891
 C311 C -0.00263 0.54139 0.71901
 N312 N 0.03117 0.57326 0.71776
 N313 N 0.52938 0.81248 -0.10720
 C314 C 0.49440 0.84277 -0.11094
 N315 N 0.46048 0.84143 -0.07927
 N316 N 0.46167 0.81145 -0.04505
 C317 C 0.49680 0.78133 -0.04106
 N318 N 0.53062 0.78248 -0.07295
 N319 N 0.96159 0.42005 0.34186
 C320 C 0.99535 0.38820 0.34329
 N321 N 1.03012 0.39163 0.31259
 N322 N 1.03142 0.42571 0.28240
 C323 C 0.99782 0.45778 0.28135
 N324 N 0.96283 0.45409 0.31169
 N325 N 0.53860 0.84201 0.07978
 C326 C 0.50488 0.84348 0.11172
 N327 N 0.47007 0.81287 0.10836
 N328 N 0.46872 0.78270 0.07426
 C329 C 0.50228 0.78159 0.04211
 N330 N 0.53730 0.81185 0.04573
 N331 N -0.02979 0.39253 0.68721
 C332 C 0.00531 0.38888 0.65699
 N333 N 0.03933 0.42039 0.65869
 N334 N 0.03810 0.45437 0.68893
 C335 C 0.00285 0.45828 0.71896
 N336 N -0.03106 0.42654 0.71747
 N337 N 0.47002 0.18767 0.89242
 C338 C 0.50512 0.15750 0.88864
 N339 N 0.53906 0.15903 0.92022
 N340 N 0.53777 0.18907 0.95438
 C341 C 0.50253 0.21905 0.95841
 N342 N 0.46869 0.21773 0.92661
 N343 N 0.97087 0.60706 0.31249
 C344 C 1.00582 0.61075 0.34280
 N345 N 1.03967 0.57903 0.34145
 N346 N 1.03843 0.54485 0.31145
 C347 C 1.00333 0.54093 0.28131
 N348 N 0.96958 0.57285 0.28246
 N349 N 1.10827 0.52910 0.18756
 C350 C 1.11176 0.49442 0.15679
 N351 N 1.07996 0.46059 0.15817
 N352 N 1.04592 0.46169 0.18837
 C353 C 1.04217 0.49661 0.21877
 N354 N 1.07419 0.53026 0.21776
 N355 N 0.68755 0.03000 0.60711
 C356 C 0.65740 -0.00511 0.61087
 N357 N 0.65893 -0.03906 0.57925
 N358 N 0.68898 -0.03778 0.54508
 C359 C 0.71898 -0.00254 0.54108
 N360 N 0.71763 0.03132 0.57290
 N361 N -0.10752 0.52975 0.81285
 C362 C -0.11131 0.49471 0.84309
 N363 N -0.07976 0.46071 0.84160
 N364 N -0.04562 0.46190 0.81152
 C365 C -0.04157 0.49709 0.78145
 N366 N -0.07334 0.53099 0.78275
 N367 N 0.31281 0.02968 0.39198
 C368 C 0.34296 -0.00545 0.38839
 N369 N 0.34144 -0.03924 0.42019
 N370 N 0.31140 -0.03778 0.45435
 C371 C 0.28140 -0.00252 0.45817
 N372 N 0.28274 0.03117 0.42618
 N373 N 0.07935 0.53904 0.84182
 C374 C 0.11096 0.50511 0.84341
 N375 N 0.10737 0.47005 0.81317
 N376 N 0.07334 0.46873 0.78298
 C377 C 0.04151 0.50257 0.78159
 N378 N 0.04535 0.53777 0.81166
 N379 N 0.65890 0.03884 0.41971
 C380 C 0.65750 0.00477 0.38820
 N381 N 0.68780 -0.03019 0.39202
 N382 N 0.71787 -0.03128 0.42618
 C383 C 0.71907 0.00268 0.45790
 N384 N 0.68894 0.03779 0.45383
 N385 N 0.92093 0.53870 0.15887
 C386 C 0.88913 0.50493 0.15759
 N387 N 0.89279 0.46988 0.18784
 N388 N 0.92704 0.46844 0.21777
 C389 C 0.95904 0.50212 0.21887
 N390 N 0.95516 0.53730 0.18877
 N391 N 0.34135 0.03943 0.57939
 C392 C 0.34273 0.00551 0.61104
 N393 N 0.31244 -0.02947 0.60737
 N394 N 0.28239 -0.03072 0.57320
 C395 C 0.28121 0.00309 0.54132
 N396 N 0.31133 0.03823 0.54525
   
