data_POSCAR
  _audit_creation_date              2014-09-24
  _audit_creation_method            'ToBaCCo'
  _symmetry_space_group_name_H-M    'P1'
  _symmetry_Int_Tables_number       1
  _symmetry_cell_setting            triclinic
  loop_
  _symmetry_equiv_pos_as_xyz
 x,y,z
_cell_length_a 61.5944
_cell_length_b 60.8002
_cell_length_c 61.4642
_cell_angle_alpha 89.725800
_cell_angle_beta 89.314800
_cell_angle_gamma 89.469200
loop_
  _atom_site_label
  _atom_site_type_symbol
  _atom_site_fract_x
  _atom_site_fract_y
  _atom_site_fract_z
C1 C 0.21351 0.51845 1.03319
 H2 H 0.21331 0.53081 1.02046
 C3 C 0.19912 0.52016 1.05081
 H4 H 0.18867 0.53452 1.05150
 C5 C 0.22833 0.48544 1.04738
 H6 H 0.23928 0.47157 1.04565
 C7 C 0.21425 0.48648 1.06535
 H8 H 0.21470 0.47293 1.07679
 N9 N 0.22775 0.50133 1.03179
 C10 C 0.27699 0.52538 0.98626
 H11 H 0.27632 0.51273 0.97397
 C12 C 0.29174 0.54255 0.98399
 H13 H 0.30245 0.54300 0.96990
 C14 C 0.26442 0.53957 1.02003
 H15 H 0.25402 0.53812 1.03423
 C16 C 0.27907 0.55693 1.01851
 H17 H 0.27953 0.56896 1.03142
 Zn18 Zn 0.24519 0.49965 1.00631
 N19 N 0.26360 0.52429 1.00397
 C20 C 0.22542 0.51479 0.96726
 N21 N 0.22596 0.49858 0.98258
 C22 C 0.21169 0.48167 0.98225
 C23 C 0.19626 0.48040 0.96588
 C24 C 0.21019 0.51422 0.95062
 C25 C 0.27810 0.47303 1.02315
 C26 C 0.29277 0.45543 1.02401
 C27 C 0.27717 0.44116 0.99114
 C28 C 0.26271 0.45900 0.99097
 N29 N 0.26337 0.47443 1.00690
 H30 H 0.23644 0.52846 0.96817
 H31 H 0.21226 0.46919 0.99484
 H32 H 0.18523 0.46664 0.96579
 H33 H 0.20971 0.52753 0.93887
 H34 H 0.27848 0.48572 1.03542
 H35 H 0.30416 0.45452 1.03727
 H36 H 0.27670 0.42933 0.97805
 H37 H 0.25134 0.46073 0.97782
 C38 C 0.29298 0.55854 1.00031
 C39 C 0.19903 0.50393 1.06735
 C40 C 0.29253 0.43924 1.00778
 C41 C 0.19527 0.49689 0.94982
 C42 C 0.78224 0.51917 -0.03230
 H43 H 0.78156 0.53182 -0.01998
 C44 C 0.79657 0.52116 -0.04995
 H45 H 0.80695 0.53540 -0.05109
 C46 C 0.77020 0.48473 -0.04515
 H47 H 0.76024 0.47034 -0.04298
 C48 C 0.78442 0.48597 -0.06297
 H49 H 0.78495 0.47268 -0.07463
 N50 N 0.76932 0.50124 -0.03029
 C51 C 0.71845 0.52347 0.01465
 H52 H 0.71983 0.51081 0.02699
 C53 C 0.70270 0.53997 0.01679
 H54 H 0.69228 0.54010 0.03109
 C55 C 0.73049 0.53850 -0.01897
 H56 H 0.74099 0.53755 -0.03314
 C57 C 0.71486 0.55526 -0.01755
 H58 H 0.71357 0.56708 -0.03071
 Zn59 Zn 0.75169 0.49907 -0.00497
 N60 N 0.73204 0.52309 -0.00293
 C61 C 0.77026 0.51464 0.03424
 N62 N 0.77063 0.49845 0.01904
 C63 C 0.78556 0.48186 0.01975
 C64 C 0.80075 0.48093 0.03640
 C65 C 0.78522 0.51440 0.05114
 C66 C 0.72031 0.47172 -0.02219
 C67 C 0.70623 0.45392 -0.02314
 C68 C 0.72165 0.43992 0.01019
 C69 C 0.73553 0.45796 0.01044
 N70 N 0.73464 0.47338 -0.00565
 H71 H 0.75871 0.52806 0.03303
 H72 H 0.78568 0.46938 0.00727
 H73 H 0.81232 0.46743 0.03679
 H74 H 0.78497 0.52769 0.06280
 H75 H 0.71974 0.48438 -0.03460
 H76 H 0.69512 0.45283 -0.03659
 H77 H 0.72223 0.42812 0.02342
 H78 H 0.74659 0.45990 0.02379
 C79 C 0.70063 0.55611 0.00048
 C80 C 0.79789 0.50434 -0.06549
 C81 C 0.70663 0.43779 -0.00669
 C82 C 0.80081 0.49742 0.05234
 C83 C -0.02160 0.28230 0.47772
 H84 H -0.03335 0.28169 0.49094
 C85 C -0.02385 0.29799 0.46127
 H86 H -0.03799 0.30862 0.46195
 C87 C 0.01035 0.26812 0.46110
 H88 H 0.02398 0.25683 0.46142
 C89 C 0.00875 0.28352 0.44422
 H90 H 0.02165 0.28375 0.43214
 N91 N -0.00477 0.26775 0.47736
 C92 C -0.02722 0.21410 0.51884
 H93 H -0.01461 0.21393 0.53095
 C94 C -0.04367 0.19849 0.51977
 H95 H -0.04380 0.18656 0.53291
 C96 C -0.04209 0.22979 0.48689
 H97 H -0.04110 0.24163 0.47378
 C98 C -0.05881 0.21442 0.48715
 H99 H -0.07053 0.21466 0.47417
 Zn100 Zn -0.00264 0.24839 0.50142
 N101 N -0.02674 0.22936 0.50261
 C102 C -0.01715 0.26507 0.54243
 N103 N -0.00162 0.26617 0.52655
 C104 C 0.01455 0.28119 0.52734
 C105 C 0.01564 0.29585 0.54468
 C106 C -0.01668 0.27944 0.56009
 C107 C 0.02365 0.21607 0.48223
 C108 C 0.04067 0.20082 0.48072
 C109 C 0.05493 0.21505 0.51423
 C110 C 0.03764 0.23007 0.51508
 N111 N 0.02242 0.23027 0.49923
 H112 H -0.03021 0.25342 0.54121
 H113 H 0.02651 0.28189 0.51433
 H114 H 0.02874 0.30759 0.54506
 H115 H -0.02943 0.27865 0.57234
 H116 H 0.01112 0.21635 0.47004
 H117 H 0.04134 0.18967 0.46704
 H118 H 0.06649 0.21470 0.52735
 H119 H 0.03606 0.24104 0.52878
 C120 C -0.05966 0.19836 0.50366
 C121 C -0.00847 0.29908 0.44405
 C122 C 0.05648 0.19998 0.49700
 C123 C -0.00020 0.29520 0.56129
 C124 C 0.98855 0.71969 0.52601
 H125 H 0.97615 0.71959 0.51369
 C126 C 0.98737 0.70504 0.54350
 H127 H 0.97406 0.69355 0.54442
 C128 C 1.02137 0.73433 0.53918
 H129 H 1.03476 0.74554 0.53727
 C130 C 1.02085 0.71991 0.55697
 H131 H 1.03369 0.72050 0.56882
 N132 N 1.00523 0.73410 0.52428
 C133 C 0.97807 0.78591 0.48325
 H134 H 0.98965 0.78589 0.46987
 C135 C 0.96060 0.80072 0.48323
 H136 H 0.95883 0.81213 0.46977
 C137 C 0.96679 0.77156 0.51743
 H138 H 0.96945 0.76044 0.53091
 C139 C 0.94922 0.78621 0.51816
 H140 H 0.93824 0.78591 0.53205
 Zn141 Zn 1.00532 0.75269 0.49950
 N142 N 0.98070 0.77156 0.50007
 C143 C 0.98842 0.73463 0.46046
 N144 N 1.00499 0.73408 0.47490
 C145 C 1.02147 0.71916 0.47298
 C146 C 1.02191 0.70419 0.45585
 C147 C 0.98820 0.71991 0.44308
 C148 C 1.03275 0.78513 0.51548
 C149 C 1.05021 0.79962 0.51536
 C150 C 1.06171 0.78479 0.48065
 C151 C 1.04413 0.77045 0.48151
 N152 N 1.03014 0.77080 0.49881
 H153 H 0.97519 0.74623 0.46254
 H154 H 1.03420 0.71880 0.48496
 H155 H 1.03501 0.69223 0.45483
 H156 H 0.97496 0.72069 0.43166
 H157 H 1.02111 0.78540 0.52879
 H158 H 1.05189 0.81108 0.52866
 H159 H 1.07271 0.78427 0.46678
 H160 H 1.04150 0.75934 0.46816
 C161 C 0.94595 0.80103 0.50090
 C162 C 1.00363 0.70505 0.55932
 C163 C 1.06489 0.79964 0.49772
 C164 C 1.00509 0.70440 0.44062
 C165 C 0.47893 -0.02093 0.28298
 H166 H 0.49197 -0.03298 0.28272
 C167 C 0.46279 -0.02204 0.29907
 H168 H 0.46332 -0.03527 0.31090
 C169 C 0.46267 0.01107 0.26793
 H170 H 0.46299 0.02428 0.25613
 C171 C 0.44624 0.01064 0.28379
 H172 H 0.43407 0.02360 0.28396
 N173 N 0.47856 -0.00462 0.26779
 C174 C 0.51912 -0.02880 0.21432
 H175 H 0.53000 -0.01501 0.21260
 C176 C 0.52069 -0.04635 0.19983
 H177 H 0.53260 -0.04512 0.18686
 C178 C 0.48941 -0.04533 0.23253
 H179 H 0.47707 -0.04476 0.24515
 C180 C 0.49041 -0.06331 0.21847
 H181 H 0.47917 -0.07655 0.22148
 Zn182 Zn 0.50223 -0.00322 0.24794
 N183 N 0.50373 -0.02860 0.23029
 C184 C 0.54351 -0.01641 0.26398
 N185 N 0.52759 -0.00078 0.26474
 C186 C 0.52855 0.01637 0.27879
 C187 C 0.54607 0.01834 0.29281
 C188 C 0.56132 -0.01513 0.27777
 C189 C 0.48199 0.02118 0.21532
 C190 C 0.47945 0.03790 0.19992
 C191 C 0.51255 0.05424 0.21264
 C192 C 0.51443 0.03720 0.22785
 N193 N 0.49922 0.02115 0.22894
 H194 H 0.54218 -0.03022 0.25309
 H195 H 0.51551 0.02841 0.27926
 H196 H 0.54656 0.03220 0.30377
 H197 H 0.57352 -0.02805 0.27733
 H198 H 0.47030 0.00803 0.21634
 H199 H 0.46552 0.03770 0.18935
 H200 H 0.52508 0.06658 0.21169
 H201 H 0.52833 0.03656 0.23839
 C202 C 0.50616 -0.06417 0.20154
 C203 C 0.44623 -0.00599 0.29975
 C204 C 0.49495 0.05466 0.19831
 C205 C 0.56267 0.00233 0.29258
 C206 C 0.52563 -0.01403 0.71496
 H207 H 0.51294 -0.02615 0.71389
 C208 C 0.54253 -0.01388 0.69963
 H209 H 0.54264 -0.02589 0.68669
 C210 C 0.54027 0.01691 0.73269
 H211 H 0.53916 0.02911 0.74537
 C212 C 0.55748 0.01765 0.71771
 H213 H 0.56971 0.03019 0.71936
 N214 N 0.52487 0.00112 0.73116
 C215 C 0.48522 -0.02863 0.78240
 H216 H 0.47281 -0.01605 0.78431
 C217 C 0.48522 -0.04703 0.79606
 H218 H 0.47276 -0.04845 0.80855
 C219 C 0.51716 -0.04137 0.76444
 H220 H 0.52981 -0.03891 0.75239
 C221 C 0.51781 -0.06002 0.77779
 H222 H 0.53077 -0.07197 0.77554
 Zn223 Zn 0.50079 0.00026 0.75055
 N224 N 0.50100 -0.02616 0.76694
 C225 C 0.46059 -0.01397 0.73338
 N226 N 0.47550 0.00239 0.73345
 C227 C 0.47354 0.02020 0.72013
 C228 C 0.45597 0.02213 0.70609
 C229 C 0.44278 -0.01272 0.71956
 C230 C 0.51883 0.02331 0.78483
 C231 C 0.52044 0.03946 0.80075
 C232 C 0.48715 0.05582 0.78766
 C233 C 0.48618 0.03934 0.77194
 N234 N 0.50199 0.02360 0.77073
 H235 H 0.46272 -0.02827 0.74365
 H236 H 0.48581 0.03282 0.72029
 H237 H 0.45466 0.03653 0.69575
 H238 H 0.43138 -0.02616 0.71937
 H239 H 0.53101 0.01042 0.78369
 H240 H 0.53415 0.03907 0.81161
 H241 H 0.47425 0.06801 0.78860
 H242 H 0.47262 0.03896 0.76098
 C243 C 0.50176 -0.06297 0.79395
 C244 C 0.55877 0.00212 0.70088
 C245 C 0.50443 0.05598 0.80238
 C246 C 0.44037 0.00545 0.70555
 C247 C 0.28604 0.01793 0.47338
 H248 H 0.28625 0.03140 0.48481
 C249 C 0.30033 0.01781 0.45559
 H250 H 0.31124 0.03151 0.45326
 C251 C 0.27149 -0.01625 0.46271
 H252 H 0.26062 -0.02976 0.46583
 C253 C 0.28558 -0.01708 0.44473
 H254 H 0.28531 -0.03127 0.43418
 N255 N 0.27189 0.00115 0.47652
 C256 C 0.22211 0.03014 0.51886
 H257 H 0.22247 0.01854 0.53226
 C258 C 0.20741 0.04774 0.51923
 H259 H 0.19671 0.04977 0.53319
 C260 C 0.23566 0.04139 0.48436
 H261 H 0.24631 0.03855 0.47056
 C262 C 0.22118 0.05921 0.48405
 H263 H 0.22091 0.06993 0.46994
 Zn264 Zn 0.25425 0.00218 0.50193
 N265 N 0.23594 0.02736 0.50167
 C266 C 0.27372 0.02007 0.53978
 N267 N 0.27334 0.00281 0.52579
 C268 C 0.28780 -0.01412 0.52746
 C269 C 0.30337 -0.01422 0.54375
 C270 C 0.28907 0.02066 0.55633
 C271 C 0.22153 -0.02543 0.48740
 C272 C 0.20709 -0.04298 0.48803
 C273 C 0.22219 -0.05416 0.52251
 C274 C 0.23649 -0.03650 0.52112
 N275 N 0.23600 -0.02265 0.50367
 H276 H 0.26248 0.03367 0.53784
 H277 H 0.28731 -0.02749 0.51593
 H278 H 0.31463 -0.02795 0.54485
 H279 H 0.28944 0.03477 0.56700
 H280 H 0.22118 -0.01390 0.47395
 H281 H 0.19557 -0.04484 0.47500
 H282 H 0.22284 -0.06509 0.53645
 H283 H 0.24773 -0.03370 0.53415
 C284 C 0.20673 0.06252 0.50160
 C285 C 0.30032 0.00008 0.44102
 C286 C 0.20726 -0.05759 0.50579
 C287 C 0.30428 0.00342 0.55837
 C288 C 0.71543 0.01328 0.52526
 H289 H 0.71409 0.02647 0.51346
 C290 C 0.70128 0.01262 0.54315
 H291 H 0.68897 0.02534 0.54491
 C292 C 0.73251 -0.01985 0.53660
 H293 H 0.74442 -0.03269 0.53379
 C294 C 0.71870 -0.02114 0.55475
 H295 H 0.72051 -0.03478 0.56599
 N296 N 0.73074 -0.00273 0.52238
 C297 C 0.77906 0.02783 0.47991
 H298 H 0.77916 0.01634 0.46652
 C299 C 0.79314 0.04568 0.47957
 H300 H 0.80381 0.04800 0.46564
 C301 C 0.76501 0.03855 0.51436
 H302 H 0.75440 0.03541 0.52812
 C303 C 0.77889 0.05659 0.51472
 H304 H 0.77877 0.06716 0.52885
 Zn305 Zn 0.74817 -0.00099 0.49688
 N306 N 0.76532 0.02465 0.49708
 C307 C 0.72788 0.01682 0.45917
 N308 N 0.72900 -0.00062 0.47308
 C309 C 0.71533 -0.01792 0.47130
 C310 C 0.69985 -0.01825 0.45493
 C311 C 0.71258 0.01720 0.44257
 C312 C 0.78244 -0.02755 0.51107
 C313 C 0.79774 -0.04460 0.51034
 C314 C 0.78268 -0.05623 0.47619
 C315 C 0.76752 -0.03905 0.47767
 N316 N 0.76758 -0.02523 0.49502
 H317 H 0.73847 0.03069 0.46122
 H318 H 0.71639 -0.03143 0.48277
 H319 H 0.68925 -0.03228 0.45370
 H320 H 0.71159 0.03144 0.43198
 H321 H 0.78243 -0.01601 0.52442
 H322 H 0.80955 -0.04609 0.52319
 H323 H 0.78236 -0.06716 0.46234
 H324 H 0.75596 -0.03661 0.46480
 C325 C 0.79332 0.06026 0.49723
 C326 C 0.70277 -0.00479 0.55818
 C327 C 0.79802 -0.05918 0.49270
 C328 C 0.69820 -0.00044 0.44037
 C329 C 0.48380 0.21845 1.02665
 H330 H 0.47125 0.21841 1.01449
 C331 C 0.48303 0.20348 1.04392
 H332 H 0.46962 0.19214 1.04511
 C333 C 0.51658 0.23331 1.03971
 H334 H 0.52990 0.24460 1.03774
 C335 C 0.51644 0.21863 1.05727
 H336 H 0.52970 0.21883 1.06867
 N337 N 0.50034 0.23303 1.02492
 C338 C 0.47473 0.28550 0.98382
 H339 H 0.48684 0.28536 0.97092
 C340 C 0.45798 0.30108 0.98358
 H341 H 0.45709 0.31265 0.97017
 C342 C 0.46146 0.27060 1.01704
 H343 H 0.46321 0.25906 1.03033
 C344 C 0.44447 0.28598 1.01750
 H345 H 0.43328 0.28607 1.03122
 Zn346 Zn 0.50067 0.25171 1.00022
 N347 N 0.47615 0.27063 1.00034
 C348 C 0.48447 0.23424 0.96077
 N349 N 0.50084 0.23340 0.97542
 C350 C 0.51725 0.21840 0.97354
 C351 C 0.51772 0.20352 0.95632
 C352 C 0.48432 0.21969 0.94326
 C353 C 0.52661 0.28465 1.01687
 C354 C 0.54332 0.29996 1.01724
 C355 C 0.55702 0.28509 0.98332
 C356 C 0.54005 0.26998 0.98365
 N357 N 0.52528 0.27006 1.00027
 H358 H 0.47125 0.24586 0.96286
 H359 H 0.52990 0.21790 0.98560
 H360 H 0.53100 0.19179 0.95504
 H361 H 0.47093 0.22032 0.93200
 H362 H 0.51445 0.28455 1.02971
 H363 H 0.54411 0.31135 1.03068
 H364 H 0.56826 0.28519 0.96964
 H365 H 0.53838 0.25864 0.97031
 C366 C 0.44266 0.30162 1.00069
 C367 C 0.49954 0.20340 1.05949
 C368 C 0.55868 0.30050 1.00017
 C369 C 0.50104 0.20398 0.94094
 C370 C 0.47902 0.77968 -0.02786
 H371 H 0.46653 0.77969 -0.01533
 C372 C 0.47762 0.79436 -0.04533
 H373 H 0.46403 0.80575 -0.04602
 C374 C 0.51236 0.76537 -0.04153
 H375 H 0.52608 0.75434 -0.03981
 C376 C 0.51162 0.77979 -0.05928
 H377 H 0.52460 0.77932 -0.07131
 N378 N 0.49610 0.76546 -0.02636
 C379 C 0.47141 0.71375 0.01635
 H380 H 0.48362 0.71396 0.02885
 C381 C 0.45416 0.69910 0.01795
 H382 H 0.45324 0.68794 0.03170
 C383 C 0.45815 0.72772 -0.01707
 H384 H 0.45991 0.73873 -0.03081
 C385 C 0.44073 0.71318 -0.01622
 H386 H 0.42898 0.71338 -0.02919
 Zn387 Zn 0.49699 0.74700 -0.00149
 N388 N 0.47292 0.72790 -0.00079
 C389 C 0.47939 0.76528 0.03746
 N390 N 0.49641 0.76561 0.02314
 C391 C 0.51290 0.78012 0.02537
 C392 C 0.51298 0.79470 0.04285
 C393 C 0.47872 0.77971 0.05507
 C394 C 0.52478 0.71476 -0.01864
 C395 C 0.54277 0.70065 -0.01965
 C396 C 0.55503 0.71571 0.01431
 C397 C 0.53687 0.72964 0.01461
 N398 N 0.52230 0.72907 -0.00184
 H399 H 0.46613 0.75410 0.03511
 H400 H 0.52598 0.78039 0.01346
 H401 H 0.52618 0.80622 0.04430
 H402 H 0.46512 0.77914 0.06637
 H403 H 0.51270 0.71430 -0.03125
 H404 H 0.54438 0.68927 -0.03309
 H405 H 0.56656 0.71651 0.02745
 H406 H 0.53433 0.74067 0.02813
 C407 C 0.43851 0.69873 0.00154
 C408 C 0.49408 0.79456 -0.06134
 C409 C 0.55818 0.70100 -0.00301
 C410 C 0.49569 0.79463 0.05794
 C411 C 1.01683 0.48527 0.21765
 H412 H 1.00479 0.47243 0.21750
 C413 C 1.03360 0.48527 0.20220
 H414 H 1.03455 0.47214 0.19038
 C415 C 1.02994 0.51811 0.23317
 H416 H 1.02815 0.53118 0.24491
 C417 C 1.04703 0.51873 0.21803
 H418 H 1.05827 0.53231 0.21831
 N419 N 1.01530 0.50151 0.23274
 C420 C 0.97516 0.47322 0.28442
 H421 H 0.96205 0.48517 0.28503
 C422 C 0.97531 0.45550 0.29895
 H423 H 0.96202 0.45375 0.31050
 C424 C 1.00844 0.46116 0.26861
 H425 H 1.02158 0.46370 0.25710
 C426 C 1.00925 0.44321 0.28286
 H427 H 1.02309 0.43211 0.28212
 Zn428 Zn 0.99080 0.50096 0.25156
 N429 N 0.99151 0.47567 0.26959
 C430 C 0.95182 0.48397 0.23379
 N431 N 0.96612 0.50089 0.23352
 C432 C 0.96416 0.51778 0.21910
 C433 C 0.94718 0.51824 0.20428
 C434 C 0.93462 0.48372 0.21918
 C435 C 1.00679 0.52776 0.28440
 C436 C 1.00708 0.54534 0.29892
 C437 C 0.97317 0.55832 0.28397
 C438 C 0.97356 0.54051 0.26971
 N439 N 0.99031 0.52578 0.27004
 H440 H 0.95400 0.47039 0.24497
 H441 H 0.97596 0.53085 0.21902
 H442 H 0.94582 0.53199 0.19311
 H443 H 0.92370 0.46987 0.21930
 H444 H 1.01968 0.51556 0.28461
 H445 H 1.02023 0.54648 0.31037
 H446 H 0.95983 0.57001 0.28329
 H447 H 0.96034 0.53840 0.25855
 C448 C 0.99258 0.44025 0.29837
 C449 C 1.04890 0.50224 0.20216
 C450 C 0.99010 0.56092 0.29883
 C451 C 0.93221 0.50096 0.20405
 C452 C -0.02271 0.48243 0.77963
 H453 H -0.01074 0.46929 0.77967
 C454 C -0.04088 0.48124 0.79333
 H455 H -0.04278 0.46714 0.80399
 C456 C -0.03423 0.51720 0.76626
 H457 H -0.03139 0.53134 0.75596
 C458 C -0.05257 0.51678 0.77987
 H459 H -0.06392 0.53048 0.77962
 N460 N -0.01983 0.50010 0.76630
 C461 C 0.02451 0.47537 0.71607
 H462 H 0.03725 0.48744 0.71712
 C463 C 0.02597 0.45871 0.70057
 H464 H 0.04010 0.45787 0.68994
 C465 C -0.00942 0.46199 0.72866
 H466 H -0.02344 0.46364 0.73926
 C467 C -0.00861 0.44504 0.71340
 H468 H -0.02208 0.43378 0.71247
 Zn469 Zn 0.00593 0.50070 0.74923
 N470 N 0.00708 0.47665 0.72980
 C471 C 0.04417 0.48275 0.76838
 N472 N 0.02941 0.49953 0.76875
 C473 C 0.03035 0.51570 0.78390
 C474 C 0.04686 0.51566 0.79923
 C475 C 0.06093 0.48202 0.78350
 C476 C -0.00851 0.52954 0.71688
 C477 C -0.00792 0.54766 0.70286
 C478 C 0.02512 0.55923 0.72004
 C479 C 0.02386 0.54091 0.73378
 N480 N 0.00716 0.52657 0.73203
 H481 H 0.04281 0.46972 0.75660
 H482 H 0.01822 0.52868 0.78399
 H483 H 0.04751 0.52894 0.81087
 H484 H 0.07232 0.46835 0.78316
 H485 H -0.02136 0.51762 0.71555
 H486 H -0.02036 0.54952 0.69067
 H487 H 0.03848 0.57052 0.72174
 H488 H 0.03646 0.53801 0.74554
 C489 C 0.00922 0.44330 0.69902
 C490 C -0.05606 0.49861 0.79362
 C491 C 0.00913 0.56275 0.70427
 C492 C 0.06243 0.49863 0.79921
 C493 C 0.06914 0.16127 0.49016
 C494 C 0.08516 0.14488 0.49052
 C495 C 0.10631 0.14962 0.49719
 C496 C 0.11108 0.17123 0.50363
 C497 C 0.09502 0.18765 0.50324
 C498 C 0.07384 0.18284 0.49657
 C499 C 0.12243 0.13133 0.49811
 C500 C 0.14399 0.13415 0.49882
 C501 C 0.15973 0.11555 0.49981
 C502 C 0.18110 0.11882 0.49237
 C503 C 0.19638 0.10167 0.49299
 C504 C 0.19066 0.08090 0.50126
 C505 C 0.16937 0.07774 0.50908
 C506 C 0.15411 0.09486 0.50847
 H507 H 0.05289 0.15689 0.48535
 H508 H 0.08095 0.12836 0.48571
 H509 H 0.12698 0.17552 0.50944
 H510 H 0.09919 0.20413 0.50821
 H511 H 0.11608 0.11482 0.49730
 H512 H 0.15061 0.15053 0.49759
 H513 H 0.18595 0.13466 0.48590
 H514 H 0.21274 0.10475 0.48717
 H515 H 0.16440 0.06191 0.51545
 H516 H 0.13805 0.09184 0.51506
 C517 C 0.66275 0.56823 0.01060
 C518 C 0.64651 0.58436 0.01208
 C519 C 0.65036 0.60587 0.00479
 C520 C 0.67104 0.61111 -0.00361
 C521 C 0.68735 0.59499 -0.00498
 C522 C 0.68339 0.57334 0.00205
 C523 C 0.63263 0.62241 0.00675
 C524 C 0.63093 0.64006 -0.00631
 C525 C 0.61251 0.65587 -0.00489
 C526 C 0.60624 0.66733 -0.02370
 C527 C 0.58865 0.68202 -0.02309
 C528 C 0.57716 0.68580 -0.00356
 C529 C 0.58379 0.67477 0.01541
 C530 C 0.60129 0.65997 0.01477
 H531 H 0.65902 0.55167 0.01588
 H532 H 0.63076 0.57992 0.01870
 H533 H 0.67483 0.62769 -0.00874
 H534 H 0.70319 0.59959 -0.01122
 H535 H 0.61981 0.61904 0.01847
 H536 H 0.64253 0.64229 -0.01949
 H537 H 0.61478 0.66466 -0.03898
 H538 H 0.58411 0.69055 -0.03789
 H539 H 0.57522 0.67732 0.03069
 H540 H 0.60608 0.65195 0.02974
 C541 C 0.92253 -0.17157 0.52075
 C542 C 0.90542 -0.15634 0.52132
 C543 C 0.89295 -0.15215 0.50274
 C544 C 0.89785 -0.16390 0.48355
 C545 C 0.91510 -0.17902 0.48296
 C546 C 0.92761 -0.18300 0.50153
 C547 C 0.87498 -0.13572 0.50441
 C548 C 0.86437 -0.12721 0.48731
 C549 C 0.84695 -0.11022 0.48923
 C550 C 0.84150 -0.09790 0.47067
 C551 C 0.82547 -0.08150 0.47170
 C552 C 0.81450 -0.07707 0.49138
 C553 C 0.81958 -0.08966 0.50987
 C554 C 0.83549 -0.10617 0.50881
 H555 H 0.93202 -0.17416 0.53528
 H556 H 0.90202 -0.14767 0.53635
 H557 H 0.88839 -0.16183 0.46899
 H558 H 0.91844 -0.18790 0.46803
 H559 H 0.87113 -0.12977 0.52056
 H560 H 0.86920 -0.13185 0.47100
 H561 H 0.84990 -0.10075 0.45534
 H562 H 0.82198 -0.07197 0.45721
 H563 H 0.81103 -0.08689 0.52513
 H564 H 0.83845 -0.11578 0.52332
 C565 C 0.30264 0.39957 1.00158
 C566 C 0.31795 0.38244 1.00125
 C567 C 0.33958 0.38621 1.00701
 C568 C 0.34544 0.40741 1.01377
 C569 C 0.33017 0.42453 1.01403
 C570 C 0.30861 0.42086 1.00785
 C571 C 0.35535 0.36761 1.00622
 C572 C 0.37688 0.37040 1.00427
 C573 C 0.39303 0.35215 1.00318
 C574 C 0.41409 0.35691 0.99572
 C575 C 0.43009 0.34053 0.99479
 C576 C 0.42544 0.31889 1.00137
 C577 C 0.40439 0.31408 1.00896
 C578 C 0.38836 0.33051 1.00995
 H579 H 0.28608 0.39609 0.99710
 H580 H 0.31291 0.36621 0.99628
 H581 H 0.36171 0.41091 1.01909
 H582 H 0.33536 0.44075 1.01883
 H583 H 0.34873 0.35120 1.00612
 H584 H 0.38316 0.38687 1.00243
 H585 H 0.41825 0.37345 0.99064
 H586 H 0.44625 0.34493 0.98930
 H587 H 0.40026 0.29756 1.01407
 H588 H 0.37256 0.32616 1.01637
 C589 C 0.92876 0.15925 0.50912
 C590 C 0.91311 0.14282 0.50845
 C591 C 0.89172 0.14774 0.50233
 C592 C 0.88635 0.16960 0.49673
 C593 C 0.90203 0.18607 0.49743
 C594 C 0.92343 0.18108 0.50359
 C595 C 0.87600 0.12944 0.50117
 C596 C 0.85436 0.13217 0.50068
 C597 C 0.83904 0.11352 0.49947
 C598 C 0.81760 0.11654 0.50695
 C599 C 0.80272 0.09934 0.50617
 C600 C 0.80892 0.07875 0.49770
 C601 C 0.83027 0.07586 0.48983
 C602 C 0.84512 0.09305 0.49057
 H603 H 0.94519 0.15474 0.51350
 H604 H 0.91779 0.12612 0.51262
 H605 H 0.87025 0.17408 0.49136
 H606 H 0.89738 0.20274 0.49316
 H607 H 0.88273 0.11294 0.50159
 H608 H 0.84737 0.14847 0.50226
 H609 H 0.81240 0.13222 0.51360
 H610 H 0.78630 0.10221 0.51203
 H611 H 0.83563 0.06018 0.48332
 H612 H 0.86123 0.09022 0.48392
 C613 C 0.31276 0.58742 -0.02118
 C614 C 0.32849 0.60378 -0.02288
 C615 C 0.34102 0.60949 -0.00484
 C616 C 0.33746 0.59831 0.01501
 C617 C 0.32160 0.58208 0.01673
 C618 C 0.30917 0.57639 -0.00136
 C619 C 0.35811 0.62639 -0.00781
 C620 C 0.36806 0.63644 0.00868
 C621 C 0.38571 0.65278 0.00589
 C622 C 0.39199 0.66488 0.02414
 C623 C 0.40900 0.67988 0.02270
 C624 C 0.42013 0.68318 0.00291
 C625 C 0.41387 0.67122 -0.01542
 C626 C 0.39696 0.65607 -0.01396
 H627 H 0.30332 0.58345 -0.03536
 H628 H 0.33092 0.61197 -0.03840
 H629 H 0.34713 0.60150 0.02917
 H630 H 0.31947 0.57352 0.03209
 H631 H 0.36209 0.63093 -0.02438
 H632 H 0.36288 0.63307 0.02521
 H633 H 0.38375 0.66267 0.03966
 H634 H 0.41337 0.68901 0.03706
 H635 H 0.42243 0.67318 -0.03079
 H636 H 0.39326 0.64676 -0.02834
 C637 C 0.08801 -0.17320 0.47748
 C638 C 0.10474 -0.15786 0.47679
 C639 C 0.11695 -0.15343 0.49540
 C640 C 0.11228 -0.16516 0.51471
 C641 C 0.09541 -0.18039 0.51543
 C642 C 0.08306 -0.18452 0.49686
 C643 C 0.13436 -0.13671 0.49369
 C644 C 0.14408 -0.12756 0.51084
 C645 C 0.16077 -0.11011 0.50899
 C646 C 0.16534 -0.09762 0.52752
 C647 C 0.18059 -0.08075 0.52657
 C648 C 0.19164 -0.07598 0.50702
 C649 C 0.18744 -0.08872 0.48857
 C650 C 0.17232 -0.10571 0.48954
 H651 H 0.07865 -0.17591 0.46295
 H652 H 0.10800 -0.14922 0.46166
 H653 H 0.12162 -0.16294 0.52928
 H654 H 0.09218 -0.18919 0.53047
 H655 H 0.13841 -0.13101 0.47747
 H656 H 0.13895 -0.13202 0.52713
 H657 H 0.15686 -0.10071 0.54275
 H658 H 0.18341 -0.07112 0.54102
 H659 H 0.19607 -0.08568 0.47341
 H660 H 0.17003 -0.11538 0.47506
 C661 C 0.69729 0.39808 0.99991
 C662 C 0.68233 0.38091 1.00024
 C663 C 0.66072 0.38459 0.99409
 C664 C 0.65453 0.40574 0.98693
 C665 C 0.66944 0.42290 0.98667
 C666 C 0.69097 0.41933 0.99323
 C667 C 0.64528 0.36599 0.99492
 C668 C 0.62370 0.36885 0.99677
 C669 C 0.60779 0.35067 0.99786
 C670 C 0.58664 0.35552 1.00522
 C671 C 0.57082 0.33924 1.00609
 C672 C 0.57575 0.31763 0.99956
 C673 C 0.59689 0.31272 0.99207
 C674 C 0.61275 0.32905 0.99115
 H675 H 0.71384 0.39469 1.00471
 H676 H 0.68762 0.36472 1.00552
 H677 H 0.63828 0.40916 0.98130
 H678 H 0.66398 0.43908 0.98157
 H679 H 0.65216 0.34957 0.99513
 H680 H 0.61718 0.38534 0.99851
 H681 H 0.58227 0.37205 1.01025
 H682 H 0.55459 0.34372 1.01150
 H683 H 0.60122 0.29621 0.98699
 H684 H 0.62864 0.32466 0.98483
 C685 C 0.48610 0.06683 1.16034
 C686 C 0.48475 0.08305 1.14424
 C687 C 0.49057 0.10482 1.14865
 C688 C 0.49727 0.11018 1.16978
 C689 C 0.49859 0.09394 1.18591
 C690 C 0.49312 0.07206 1.18135
 C691 C 0.48907 0.12130 1.13085
 C692 C 0.50043 0.14004 1.13025
 C693 C 0.49955 0.15598 1.11191
 C694 C 0.50570 0.17781 1.11558
 C695 C 0.50557 0.19325 1.09865
 C696 C 0.49941 0.18715 1.07760
 C697 C 0.49345 0.16525 1.07386
 C698 C 0.49360 0.14981 1.09076
 H699 H 0.48203 0.05010 1.15620
 H700 H 0.47945 0.07849 1.12815
 H701 H 0.50117 0.12689 1.17410
 H702 H 0.50361 0.09857 1.20207
 H703 H 0.47854 0.11735 1.11750
 H704 H 0.51089 0.14409 1.14363
 H705 H 0.51051 0.18297 1.13165
 H706 H 0.51011 0.21004 1.10208
 H707 H 0.48915 0.15991 1.05770
 H708 H 0.48959 0.13300 1.08695
 C709 C -0.01716 0.68449 0.58817
 C710 C -0.01816 0.66907 0.60505
 C711 C 0.00069 0.65826 0.61223
 C712 C 0.02067 0.66319 0.60202
 C713 C 0.02167 0.67863 0.58511
 C714 C 0.00275 0.68935 0.57790
 C715 C -0.00146 0.64124 0.62948
 C716 C 0.01501 0.63437 0.64199
 C717 C 0.01295 0.61656 0.65847
 C718 C 0.03176 0.60512 0.66477
 C719 C 0.03057 0.58782 0.67978
 C720 C 0.01051 0.58166 0.68895
 C721 C -0.00826 0.59347 0.68309
 C722 C -0.00708 0.61079 0.66811
 H723 H -0.03199 0.69266 0.58316
 H724 H -0.03376 0.66553 0.61254
 H725 H 0.03549 0.65474 0.60649
 H726 H 0.03717 0.68168 0.57723
 H727 H -0.01736 0.63413 0.63169
 H728 H 0.03092 0.64146 0.63977
 H729 H 0.04740 0.60931 0.65774
 H730 H 0.04531 0.57893 0.68381
 H731 H -0.02387 0.58943 0.69027
 H732 H -0.02185 0.61971 0.66441
 C733 C 0.52256 0.91069 -0.18242
 C734 C 0.52330 0.89330 -0.16750
 C735 C 0.50419 0.88282 -0.16061
 C736 C 0.48430 0.88963 -0.16961
 C737 C 0.48356 0.90704 -0.18453
 C738 C 0.50264 0.91791 -0.19095
 C739 C 0.50585 0.86493 -0.14417
 C740 C 0.48926 0.85862 -0.13129
 C741 C 0.49125 0.84162 -0.11402
 C742 C 0.47241 0.83097 -0.10666
 C743 C 0.47335 0.81549 -0.08980
 C744 C 0.49317 0.81045 -0.07977
 C745 C 0.51206 0.82112 -0.08710
 C746 C 0.51113 0.83658 -0.10398
 H747 H 0.53753 0.91884 -0.18687
 H748 H 0.53885 0.88832 -0.16095
 H749 H 0.46927 0.88149 -0.16544
 H750 H 0.46803 0.91191 -0.19120
 H751 H 0.52163 0.85726 -0.14226
 H752 H 0.47343 0.86618 -0.13319
 H753 H 0.45688 0.83463 -0.11400
 H754 H 0.45854 0.80741 -0.08468
 H755 H 0.52749 0.81797 -0.07938
 H756 H 0.52590 0.84496 -0.10857
 C757 C 0.97866 0.33545 0.43119
 C758 C 0.97726 0.35158 0.41503
 C759 C 0.98706 0.34847 0.39458
 C760 C 0.99805 0.32851 0.39049
 C761 C 0.99953 0.31232 0.40667
 C762 C 0.98990 0.31542 0.42745
 C763 C 0.98507 0.36639 0.37819
 C764 C 0.99748 0.36810 0.36017
 C765 C 0.99561 0.38671 0.34459
 C766 C 1.00221 0.38356 0.32289
 C767 C 1.00107 0.40083 0.30782
 C768 C 0.99349 0.42173 0.31421
 C769 C 0.98713 0.42496 0.33601
 C770 C 0.98824 0.40770 0.35105
 H771 H 0.97161 0.33939 0.44689
 H772 H 0.96873 0.36681 0.41869
 H773 H 1.00521 0.32499 0.37474
 H774 H 1.00755 0.29704 0.40234
 H775 H 0.97293 0.37895 0.38149
 H776 H 1.00941 0.35551 0.35634
 H777 H 1.00812 0.36762 0.31754
 H778 H 1.00594 0.39776 0.29112
 H779 H 0.98177 0.44100 0.34159
 H780 H 0.98384 0.41108 0.36780
 C781 C 0.52634 0.91315 0.17460
 C782 C 0.52701 0.89629 0.15924
 C783 C 0.50861 0.88368 0.15514
 C784 C 0.48960 0.88781 0.16738
 C785 C 0.48884 0.90474 0.18271
 C786 C 0.50712 0.91803 0.18652
 C787 C 0.51015 0.86637 0.13817
 C788 C 0.49285 0.85736 0.12868
 C789 C 0.49426 0.84091 0.11089
 C790 C 0.47547 0.83669 0.09893
 C791 C 0.47589 0.82159 0.08187
 C792 C 0.49516 0.81034 0.07633
 C793 C 0.51392 0.81426 0.08841
 C794 C 0.51348 0.82924 0.10561
 H795 H 0.54130 0.92178 0.17739
 H796 H 0.54205 0.89319 0.15041
 H797 H 0.47518 0.87810 0.16532
 H798 H 0.47341 0.90774 0.19075
 H799 H 0.52630 0.86200 0.13256
 H800 H 0.47673 0.86301 0.13319
 H801 H 0.46040 0.84529 0.10265
 H802 H 0.46121 0.81901 0.07273
 H803 H 0.52889 0.80548 0.08474
 H804 H 0.52819 0.83128 0.11474
 C805 C -0.00515 0.30491 0.60078
 C806 C -0.00501 0.32023 0.61768
 C807 C 0.00058 0.34221 0.61361
 C808 C 0.00558 0.34869 0.59213
 C809 C 0.00543 0.33339 0.57525
 C810 C 0.00013 0.31132 0.57937
 C811 C 0.00016 0.35802 0.63193
 C812 C 0.01180 0.37659 0.63195
 C813 C 0.01100 0.39308 0.64967
 C814 C 0.01826 0.41443 0.64506
 C815 C 0.01773 0.43067 0.66105
 C816 C 0.01006 0.42590 0.68215
 C817 C 0.00308 0.40445 0.68692
 C818 C 0.00361 0.38817 0.67091
 H819 H -0.00919 0.28800 0.60451
 H820 H -0.00912 0.31485 0.63403
 H821 H 0.00909 0.36563 0.58810
 H822 H 0.00900 0.33897 0.55885
 H823 H -0.01008 0.35396 0.64575
 H824 H 0.02219 0.38032 0.61813
 H825 H 0.02411 0.41867 0.62890
 H826 H 0.02299 0.44709 0.65677
 H827 H -0.00251 0.40016 0.70315
 H828 H -0.00145 0.37179 0.67543
 C829 C 0.51245 0.06740 0.84061
 C830 C 0.51361 0.08338 0.85679
 C831 C 0.50775 0.10530 0.85243
 C832 C 0.50104 0.11102 0.83131
 C833 C 0.49991 0.09502 0.81509
 C834 C 0.50558 0.07302 0.81956
 C835 C 0.50940 0.12158 0.87023
 C836 C 0.49838 0.14073 0.87076
 C837 C 0.49967 0.15660 0.88897
 C838 C 0.49383 0.17865 0.88517
 C839 C 0.49441 0.19408 0.90194
 C840 C 0.50074 0.18775 0.92297
 C841 C 0.50640 0.16565 0.92685
 C842 C 0.50578 0.15022 0.91010
 H843 H 0.51668 0.05057 0.84467
 H844 H 0.51891 0.07853 0.87287
 H845 H 0.49708 0.12783 0.82701
 H846 H 0.49498 0.09994 0.79892
 H847 H 0.51989 0.11718 0.88358
 H848 H 0.48797 0.14523 0.85739
 H849 H 0.48891 0.18399 0.86911
 H850 H 0.49009 0.21101 0.89841
 H851 H 0.51081 0.16016 0.94300
 H852 H 0.50958 0.13328 0.91403
 C853 C 1.02429 0.68226 0.41174
 C854 C 1.02425 0.66640 0.39536
 C855 C 1.00490 0.65617 0.38938
 C856 C 0.98549 0.66207 0.40030
 C857 C 0.98553 0.67794 0.41669
 C858 C 1.00494 0.68815 0.42265
 C859 C 1.00592 0.63880 0.37250
 C860 C 0.98871 0.63229 0.36105
 C861 C 0.98966 0.61432 0.34480
 C862 C 0.97037 0.60351 0.33965
 C863 C 0.97047 0.58627 0.32469
 C864 C 0.98989 0.57953 0.31440
 C865 C 1.00915 0.59064 0.31920
 C866 C 1.00906 0.60789 0.33415
 H867 H 1.03947 0.68998 0.41581
 H868 H 1.03944 0.66211 0.38731
 H869 H 0.97033 0.65409 0.39681
 H870 H 0.97044 0.68177 0.42512
 H871 H 1.02160 0.63114 0.36961
 H872 H 0.97302 0.63992 0.36394
 H873 H 0.95518 0.60820 0.34749
 H874 H 0.95539 0.57793 0.32150
 H875 H 1.02428 0.58616 0.31115
 H876 H 1.02415 0.61630 0.33697
 C877 C 1.18805 0.49404 0.10500
 C878 C 1.17280 0.49438 0.12203
 C879 C 1.15280 0.50520 0.11964
 C880 C 1.14865 0.51647 0.10011
 C881 C 1.16387 0.51624 0.08309
 C882 C 1.18386 0.50481 0.08501
 C883 C 1.13679 0.50466 0.13785
 C884 C 1.11531 0.50628 0.13477
 C885 C 1.09891 0.50505 0.15257
 C886 C 1.07763 0.49916 0.14737
 C887 C 1.06149 0.49810 0.16347
 C888 C 1.06622 0.50311 0.18519
 C889 C 1.08747 0.50927 0.19042
 C890 C 1.10366 0.51025 0.17429
 H891 H 1.20337 0.48584 0.10801
 H892 H 1.17658 0.48594 0.13710
 H893 H 1.13367 0.52557 0.09787
 H894 H 1.15923 0.52435 0.06814
 H895 H 1.14292 0.50142 0.15399
 H896 H 1.10922 0.50733 0.11835
 H897 H 1.07346 0.49532 0.13074
 H898 H 1.04519 0.49372 0.15885
 H899 H 1.09159 0.51320 0.20702
 H900 H 1.11970 0.51547 0.17887
 C901 C 0.58408 0.02310 0.67627
 C902 C 0.60058 0.02378 0.66049
 C903 C 0.61017 0.00432 0.65258
 C904 C 0.60271 -0.01598 0.66075
 C905 C 0.58621 -0.01665 0.67656
 C906 C 0.57667 0.00287 0.68447
 C907 C 0.62715 0.00607 0.63530
 C908 C 0.64081 -0.01033 0.62966
 C909 C 0.65706 -0.00839 0.61177
 C910 C 0.66392 -0.02753 0.60093
 C911 C 0.67884 -0.02641 0.58366
 C912 C 0.68745 -0.00610 0.57700
 C913 C 0.68103 0.01301 0.58824
 C914 C 0.66606 0.01190 0.60547
 H915 H 0.57683 0.03842 0.68174
 H916 H 0.60581 0.03963 0.65437
 H917 H 0.60912 -0.03144 0.65481
 H918 H 0.58095 -0.03250 0.68264
 H919 H 0.62819 0.02167 0.62681
 H920 H 0.63982 -0.02609 0.63777
 H921 H 0.65737 -0.04338 0.60555
 H922 H 0.68328 -0.04142 0.57523
 H923 H 0.68776 0.02883 0.58386
 H924 H 0.66186 0.02692 0.61397
 C925 C -0.18295 0.52543 0.90491
 C926 C -0.16742 0.52673 0.88820
 C927 C -0.15476 0.50828 0.88243
 C928 C -0.15798 0.48842 0.89388
 C929 C -0.17362 0.48710 0.91048
 C930 C -0.18619 0.50560 0.91625
 C931 C -0.13776 0.51083 0.86525
 C932 C -0.12806 0.49386 0.85499
 C933 C -0.11023 0.49615 0.83863
 C934 C -0.10424 0.47763 0.82629
 C935 C -0.08688 0.47849 0.81148
 C936 C -0.07508 0.49796 0.80863
 C937 C -0.08112 0.51659 0.82076
 C938 C -0.09839 0.51570 0.83571
 H939 H -0.19250 0.53993 0.90893
 H940 H -0.16522 0.54227 0.87980
 H941 H -0.14815 0.47397 0.89063
 H942 H -0.17545 0.47173 0.91926
 H943 H -0.13359 0.52747 0.86075
 H944 H -0.13353 0.47733 0.85830
 H945 H -0.11295 0.46232 0.82822
 H946 H -0.08269 0.46392 0.80223
 H947 H -0.07205 0.53170 0.81917
 H948 H -0.10187 0.53023 0.84522
 C949 C 0.43536 -0.01171 0.33883
 C950 C 0.41991 -0.01128 0.35563
 C951 C 0.39826 -0.00534 0.35153
 C952 C 0.39242 0.00032 0.33012
 C953 C 0.40790 -0.00017 0.31328
 C954 C 0.42957 -0.00613 0.31745
 C955 C 0.38275 -0.00441 0.37020
 C956 C 0.36106 -0.00388 0.36826
 C957 C 0.34590 -0.00275 0.38720
 C958 C 0.32444 -0.00979 0.38468
 C959 C 0.30964 -0.00889 0.40209
 C960 C 0.31593 -0.00075 0.42241
 C961 C 0.33734 0.00659 0.42484
 C962 C 0.35211 0.00574 0.40745
 H963 H 0.45199 -0.01595 0.34272
 H964 H 0.42495 -0.01548 0.37197
 H965 H 0.37610 0.00557 0.32624
 H966 H 0.40288 0.00412 0.29697
 H967 H 0.38971 -0.00498 0.38627
 H968 H 0.35389 -0.00529 0.35236
 H969 H 0.31913 -0.01612 0.36920
 H970 H 0.29317 -0.01432 0.39956
 H971 H 0.34278 0.01282 0.44031
 H972 H 0.36824 0.01206 0.40994
 C973 C 0.15722 0.48951 0.93785
 C974 C 0.14123 0.48934 0.92194
 C975 C 0.14600 0.49590 0.90050
 C976 C 0.16720 0.50289 0.89536
 C977 C 0.18322 0.50300 0.91129
 C978 C 0.17842 0.49634 0.93273
 C979 C 0.12818 0.49603 0.88444
 C980 C 0.13127 0.49683 0.86279
 C981 C 0.11323 0.49718 0.84698
 C982 C 0.11756 0.49093 0.82540
 C983 C 0.10111 0.49130 0.80991
 C984 C 0.07994 0.49809 0.81565
 C985 C 0.07564 0.50455 0.83721
 C986 C 0.09208 0.50424 0.85267
 H987 H 0.15284 0.48469 0.95430
 H988 H 0.12501 0.48413 0.92644
 H989 H 0.17151 0.50869 0.87924
 H990 H 0.19942 0.50825 0.90679
 H991 H 0.11185 0.49456 0.89093
 H992 H 0.14759 0.49631 0.85612
 H993 H 0.13374 0.48570 0.82049
 H994 H 0.10507 0.48659 0.79336
 H995 H 0.05948 0.50973 0.84222
 H996 H 0.08813 0.50991 0.86889
 C997 C 0.60207 -0.00265 0.30196
 C998 C 0.61895 -0.00226 0.31697
 C999 C 0.61496 0.00398 0.33862
 C1000 C 0.59380 0.01054 0.34479
 C1001 C 0.57694 0.01011 0.32981
 C1002 C 0.58082 0.00338 0.30825
 C1003 C 0.63325 0.00380 0.35413
 C1004 C 0.63040 0.00182 0.37574
 C1005 C 0.64837 0.00115 0.39161
 C1006 C 0.64403 -0.00710 0.41256
 C1007 C 0.66020 -0.00773 0.42828
 C1008 C 0.68115 -0.00000 0.42346
 C1009 C 0.68551 0.00844 0.40255
 C1010 C 0.66930 0.00909 0.38679
 H1011 H 0.60567 -0.00755 0.28539
 H1012 H 0.63514 -0.00709 0.31170
 H1013 H 0.59015 0.01622 0.36108
 H1014 H 0.56076 0.01473 0.33525
 H1015 H 0.64950 0.00409 0.34728
 H1016 H 0.61418 -0.00050 0.38226
 H1017 H 0.62801 -0.01308 0.41683
 H1018 H 0.65616 -0.01392 0.44436
 H1019 H 0.70151 0.01445 0.39831
 H1020 H 0.67323 0.01616 0.37108
 C1021 C 0.83895 0.49096 0.06495
 C1022 C 0.85469 0.49116 0.08110
 C1023 C 0.84934 0.49755 0.10243
 C1024 C 0.82778 0.50397 0.10721
 C1025 C 0.81200 0.50372 0.09103
 C1026 C 0.81741 0.49724 0.06970
 C1027 C 0.86692 0.49810 0.11873
 C1028 C 0.86354 0.49882 0.14034
 C1029 C 0.88143 0.49950 0.15629
 C1030 C 0.87737 0.49260 0.17777
 C1031 C 0.89378 0.49306 0.19329
 C1032 C 0.91462 0.50062 0.18770
 C1033 C 0.91860 0.50782 0.16627
 C1034 C 0.90220 0.50742 0.15078
 H1035 H 0.84378 0.48629 0.04860
 H1036 H 0.87119 0.48638 0.07687
 H1037 H 0.82299 0.50959 0.12323
 H1038 H 0.79552 0.50855 0.09525
 H1039 H 0.88338 0.49703 0.11247
 H1040 H 0.84718 0.49789 0.14685
 H1041 H 0.86146 0.48670 0.18254
 H1042 H 0.89008 0.48773 0.20975
 H1043 H 0.93450 0.51360 0.16136
 H1044 H 0.90588 0.51362 0.13466
 C1045 C 0.40127 -0.00056 0.69603
 C1046 C 0.38431 -0.00003 0.68110
 C1047 C 0.38784 0.00746 0.65972
 C1048 C 0.40859 0.01514 0.65379
 C1049 C 0.42552 0.01460 0.66870
 C1050 C 0.42212 0.00660 0.68995
 C1051 C 0.36952 0.00733 0.64425
 C1052 C 0.37238 0.00641 0.62258
 C1053 C 0.35437 0.00561 0.60678
 C1054 C 0.35897 -0.00200 0.58570
 C1055 C 0.34272 -0.00280 0.57008
 C1056 C 0.32143 0.00413 0.57514
 C1057 C 0.31682 0.01199 0.59619
 C1058 C 0.33310 0.01279 0.61184
 H1059 H 0.39801 -0.00645 0.71239
 H1060 H 0.36843 -0.00575 0.68619
 H1061 H 0.41184 0.02176 0.63773
 H1062 H 0.44141 0.02013 0.66344
 H1063 H 0.35330 0.00667 0.65113
 H1064 H 0.38868 0.00501 0.61594
 H1065 H 0.37524 -0.00738 0.58126
 H1066 H 0.34693 -0.00852 0.55391
 H1067 H 0.30056 0.01740 0.60060
 H1068 H 0.32896 0.01936 0.62768
   
