data_POSCAR
  _audit_creation_date              2014-09-24
  _audit_creation_method            'ToBaCCo'
  _symmetry_space_group_name_H-M    'P1'
  _symmetry_Int_Tables_number       1
  _symmetry_cell_setting            triclinic
  loop_
  _symmetry_equiv_pos_as_xyz
 x,y,z
_cell_length_a 45.1161
_cell_length_b 45.1131
_cell_length_c 45.0497
_cell_angle_alpha 89.992000
_cell_angle_beta 90.019900
_cell_angle_gamma 89.985500
loop_
  _atom_site_label
  _atom_site_type_symbol
  _atom_site_fract_x
  _atom_site_fract_y
  _atom_site_fract_z
C1 C 0.15966 0.18270 0.20080
 C2 C 0.15970 0.20425 0.17835
 C3 C 0.18132 0.20373 0.15663
 C4 C 0.20326 0.18170 0.15712
 C5 C 0.20318 0.16054 0.17918
 C6 C 0.18120 0.16106 0.20121
 C7 C 0.14116 0.17751 0.22446
 N8 N 0.15074 0.15303 0.23957
 C9 C 0.17545 0.14303 0.22513
 C10 C 0.22663 0.14183 0.17383
 N11 N 0.24128 0.15094 0.14888
 C12 C 0.22676 0.17554 0.13871
 C13 C 0.17564 0.22689 0.13758
 N14 N 0.15108 0.24150 0.14720
 C15 C 0.14123 0.22773 0.17218
 H16 H 0.12202 0.19090 0.22969
 H17 H 0.18865 0.12395 0.23102
 H18 H 0.23223 0.12306 0.18762
 H19 H 0.23216 0.18821 0.11911
 H20 H 0.18864 0.23277 0.11827
 H21 H 0.12172 0.23392 0.18469
 C22 C -0.15686 0.81968 0.20449
 C23 C -0.15727 0.79763 0.18253
 C24 C -0.17942 0.79755 0.16132
 C25 C -0.20150 0.81944 0.16183
 C26 C -0.20105 0.84107 0.18340
 C27 C -0.17854 0.84119 0.20492
 C28 C -0.13784 0.82552 0.22760
 N29 N -0.14726 0.85026 0.24238
 C30 C -0.17236 0.85978 0.22828
 C31 C -0.22473 0.85953 0.17816
 N32 N -0.23988 0.84979 0.15374
 C33 C -0.22544 0.82506 0.14381
 C34 C -0.17402 0.77404 0.14263
 N35 N -0.14912 0.75980 0.15197
 C36 C -0.13878 0.77415 0.17642
 H37 H -0.11848 0.81239 0.23267
 H38 H -0.18559 0.87887 0.23407
 H39 H -0.23013 0.87858 0.19162
 H40 H -0.23118 0.81194 0.12461
 H41 H -0.18744 0.76768 0.12376
 H42 H -0.11892 0.76836 0.18858
 C43 C -0.16159 0.17938 -0.20270
 C44 C -0.16214 0.20145 -0.18077
 C45 C -0.18376 0.20093 -0.15905
 C46 C -0.20518 0.17839 -0.15902
 C47 C -0.20463 0.15677 -0.18060
 C48 C -0.18265 0.15727 -0.20263
 C49 C -0.14294 0.17405 -0.22622
 N50 N -0.15201 0.14905 -0.24078
 C51 C -0.17650 0.13885 -0.22614
 C52 C -0.22766 0.13768 -0.17484
 N53 N -0.24249 0.14700 -0.15007
 C54 C -0.22851 0.17211 -0.14045
 C55 C -0.17861 0.22460 -0.14050
 N56 N -0.15436 0.23953 -0.15041
 C57 C -0.14420 0.22545 -0.17509
 H58 H -0.12427 0.18788 -0.23195
 H59 H -0.18911 0.11921 -0.23145
 H60 H -0.23262 0.11831 -0.18800
 H61 H -0.23439 0.18531 -0.12135
 H62 H -0.19173 0.23058 -0.12130
 H63 H -0.12478 0.23177 -0.18770
 C64 C 0.15975 0.82018 -0.20357
 C65 C 0.15898 0.79774 -0.18204
 C66 C 0.18031 0.79684 -0.16004
 C67 C 0.20265 0.81846 -0.15920
 C68 C 0.20336 0.84050 -0.18037
 C69 C 0.18169 0.84140 -0.20272
 C70 C 0.14172 0.82673 -0.22728
 N71 N 0.15201 0.85163 -0.24116
 C72 C 0.17665 0.86055 -0.22592
 C73 C 0.22711 0.85845 -0.17389
 N74 N 0.24115 0.84802 -0.14910
 C75 C 0.22596 0.82336 -0.14018
 C76 C 0.17389 0.77300 -0.14210
 N77 N 0.14914 0.75939 -0.15266
 C78 C 0.13991 0.77445 -0.17713
 H79 H 0.12223 0.81417 -0.23320
 H80 H 0.19046 0.87942 -0.23102
 H81 H 0.23298 0.87796 -0.18647
 H82 H 0.23114 0.80946 -0.12136
 H83 H 0.18606 0.76647 -0.12245
 H84 H 0.12086 0.76881 -0.19059
 C85 C 0.18349 1.16010 0.79867
 C86 C 0.20509 1.16008 0.82107
 C87 C 0.20464 1.18168 0.84282
 C88 C 0.18265 1.20365 0.84240
 C89 C 0.16145 1.20364 0.82038
 C90 C 0.16189 1.18168 0.79832
 C91 C 0.17819 1.14160 0.77502
 N92 N 0.15368 1.15123 0.75999
 C93 C 0.14377 1.17596 0.77447
 C94 C 0.14275 1.22707 0.82583
 N95 N 0.15192 1.24164 0.85080
 C96 C 0.17653 1.22710 0.86089
 C97 C 0.22777 1.17591 0.86187
 N98 N 0.24230 1.15132 0.85222
 C99 C 0.22851 1.14153 0.82722
 H100 H 0.19153 1.12244 0.76974
 H101 H 0.12467 1.18918 0.76868
 H102 H 0.12397 1.23272 0.81209
 H103 H 0.18921 1.23242 0.88051
 H104 H 0.23367 1.18886 0.88121
 H105 H 0.23463 1.12199 0.81471
 C106 C 0.81957 0.84282 0.79539
 C107 C 0.79753 0.84231 0.81733
 C108 C 0.79754 0.82016 0.83853
 C109 C 0.81952 0.79818 0.83801
 C110 C 0.84116 0.79872 0.81645
 C111 C 0.84119 0.82125 0.79496
 C112 C 0.82533 0.86190 0.77231
 N113 N 0.85014 0.85263 0.75757
 C114 C 0.85978 0.82756 0.77164
 C115 C 0.85973 0.77513 0.82171
 N116 N 0.85005 0.75996 0.84613
 C117 C 0.82525 0.77428 0.85604
 C118 C 0.77402 0.82545 0.85722
 N119 N 0.75969 0.85029 0.84789
 C120 C 0.77399 0.86070 0.82345
 H121 H 0.81223 0.88131 0.76735
 H122 H 0.87885 0.81435 0.76573
 H123 H 0.87886 0.76988 0.80831
 H124 H 0.81210 0.76846 0.87519
 H125 H 0.76772 0.81200 0.87608
 H126 H 0.76812 0.88056 0.81130
 C127 C 0.17949 0.83877 1.20379
 C128 C 0.20150 0.83833 1.18181
 C129 C 0.20118 0.81659 1.16019
 C130 C 0.17881 0.79502 1.16023
 C131 C 0.15711 0.79553 1.18187
 C132 C 0.15753 0.81756 1.20384
 C133 C 0.17401 0.85752 1.22719
 N134 N 0.14907 0.84837 1.24179
 C135 C 0.13905 0.82372 1.22729
 C136 C 0.13809 0.77239 1.17617
 N137 N 0.14770 0.75781 1.15157
 C138 C 0.17265 0.77156 1.14172
 C139 C 0.22480 0.82187 1.14162
 N140 N 0.23945 0.84634 1.15139
 C141 C 0.22527 0.85651 1.17601
 H142 H 0.18769 0.87635 1.23280
 H143 H 0.11946 0.81104 1.23263
 H144 H 0.11879 0.76653 1.18917
 H145 H 0.18514 0.76538 1.12217
 H146 H 0.23047 0.80915 1.12206
 H147 H 0.23183 0.87563 1.18895
 C148 C 0.81953 1.16002 1.20358
 C149 C 0.79713 1.15911 1.18201
 C150 C 0.79620 1.18035 1.15992
 C151 C 0.81774 1.20275 1.15903
 C152 C 0.83979 1.20361 1.18032
 C153 C 0.84070 1.18202 1.20272
 C154 C 0.82607 1.14208 1.22735
 N155 N 0.85092 1.15247 1.24126
 C156 C 0.85981 1.17709 1.22598
 C157 C 0.85772 1.22739 1.17380
 N158 N 0.84712 1.24101 1.14903
 C159 C 0.82262 1.22600 1.13989
 C160 C 0.77244 1.17378 1.14195
 N161 N 0.75890 1.14902 1.15256
 C162 C 0.77393 1.13994 1.17711
 H163 H 0.81356 1.12256 1.23329
 H164 H 0.87863 1.19097 1.23109
 H165 H 0.87740 1.23389 1.18590
 H166 H 0.80913 1.23166 1.12085
 H167 H 0.76591 1.18584 1.12223
 H168 H 0.76832 1.12091 1.19061
 O169 O 0.45840 0.94226 0.95113
 O170 O 0.42582 0.97120 0.97757
 C171 C 0.43185 0.95042 0.95867
 O172 O 0.54160 0.94544 1.05702
 O173 O 0.57417 0.97215 1.02834
 C174 C 0.56814 0.95319 1.04907
 O175 O 0.45827 0.94248 1.05386
 O176 O 0.42575 0.97114 1.02699
 C177 C 0.43174 0.95050 1.04607
 O178 O 0.54167 0.94512 0.94826
 O179 O 0.57420 0.97210 0.97674
 C180 C 0.56819 0.95300 0.95614
 Zr181 Zr 0.50002 0.95917 0.96500
 O182 O 0.50279 0.91235 0.96542
 O183 O 0.49675 0.95916 0.91812
 Zr184 Zr 0.49994 0.95917 1.03989
 O185 O 0.50143 0.91245 1.03677
 O186 O 0.49693 0.95767 1.08675
 O187 O 0.47350 0.95356 1.00244
 O188 O 0.52586 0.95379 1.00251
 O189 O 0.54174 1.04817 0.94815
 O190 O 0.57425 1.02132 0.97679
 C191 C 0.56826 1.04037 0.95613
 O192 O 0.45841 1.05101 1.05413
 O193 O 0.42590 1.02220 1.02755
 C194 C 0.43190 1.04293 1.04650
 O195 O 0.54165 1.04829 1.05672
 O196 O 0.57419 1.02135 1.02823
 C197 C 0.56817 1.04048 1.04880
 O198 O 0.45844 1.05107 0.95081
 O199 O 0.42585 1.02265 0.97773
 C200 C 0.43191 1.04322 0.95863
 Zr201 Zr 0.50005 1.03424 0.96486
 O202 O 0.50345 1.08104 0.96490
 O203 O 0.49672 1.03402 0.91798
 Zr204 Zr 0.50000 1.03425 1.03999
 O205 O 0.50333 1.08106 1.03983
 O206 O 0.49667 1.03403 1.08687
 Zr207 Zr 0.45594 0.99683 1.00237
 Zr208 Zr 0.54404 0.99672 1.00249
 O209 O 0.52574 1.03964 1.00245
 O210 O 0.47360 1.04010 1.00240
 O211 O 0.52643 0.99668 0.95913
 O212 O 0.47428 0.99672 1.04533
 O213 O 0.47432 0.99673 0.95945
 O214 O 0.52633 0.99670 1.04580
 H215 H 0.53935 0.93646 1.00255
 H216 H 0.46094 0.99664 1.06280
 H217 H 0.53919 1.05699 1.00244
 H218 H 0.46087 0.99671 0.94206
 H219 H 0.51166 0.97185 1.09464
 H220 H 0.51349 1.02229 1.09464
 H221 H 0.48671 1.08881 1.02780
 H222 H 0.48698 1.08883 0.97710
 H223 H 0.51336 1.02201 0.91025
 H224 H 0.51321 0.97138 0.91036
 H225 H 0.48870 0.90517 0.98063
 H226 H 0.50137 0.90498 1.05745
 O227 O 0.04885 0.54163 -0.05712
 O228 O 0.02234 0.57423 -0.02824
 C229 C 0.04128 0.56818 -0.04900
 O230 O -0.05691 0.45857 -0.05422
 O231 O -0.02838 0.42595 -0.02740
 C232 C -0.04902 0.43201 -0.04644
 O233 O -0.05372 0.54187 -0.05720
 O234 O -0.02701 0.57435 -0.02837
 C235 C -0.04596 0.56838 -0.04914
 O236 O 0.05166 0.45835 -0.05423
 O237 O 0.02312 0.42585 -0.02730
 C238 C 0.04375 0.43184 -0.04638
 Zr239 Zr 0.03500 0.50003 -0.04015
 O240 O 0.03490 0.49729 -0.08704
 O241 O 0.08182 0.50327 -0.03981
 Zr242 Zr -0.03985 0.50020 -0.04039
 O243 O -0.03668 0.49871 -0.08717
 O244 O -0.08663 0.50329 -0.04192
 O245 O -0.00239 0.52657 -0.04592
 O246 O -0.00249 0.47426 -0.04567
 O247 O 0.05155 0.45822 0.04894
 O248 O 0.02297 0.42577 0.02199
 C249 C 0.04358 0.43172 0.04110
 O250 O -0.05405 0.54178 0.05161
 O251 O -0.02708 0.57429 0.02313
 C252 C -0.04618 0.56830 0.04373
 O253 O -0.05691 0.45849 0.04879
 O254 O -0.02842 0.42592 0.02190
 C255 C -0.04901 0.43195 0.04099
 O256 O 0.04895 0.54152 0.05184
 O257 O 0.02219 0.57416 0.02327
 C258 C 0.04121 0.56807 0.04393
 Zr259 Zr 0.03489 0.49995 0.03497
 O260 O 0.03468 0.49652 0.08184
 O261 O 0.08170 0.50322 0.03493
 Zr262 Zr -0.04013 0.50013 0.03477
 O263 O -0.04027 0.49674 0.08164
 O264 O -0.08694 0.50359 0.03432
 Zr265 Zr -0.00246 0.54412 -0.00260
 Zr266 Zr -0.00262 0.45603 -0.00269
 O267 O -0.00268 0.47431 0.04028
 O268 O -0.00258 0.52643 0.04072
 O269 O 0.04070 0.47357 -0.00260
 O270 O -0.04537 0.52589 -0.00281
 O271 O 0.04041 0.52572 -0.00256
 O272 O -0.04585 0.47380 -0.00284
 H273 H -0.00250 0.46079 -0.06303
 H274 H -0.06273 0.53934 -0.00288
 H275 H -0.00272 0.46085 0.05766
 H276 H 0.05778 0.53915 -0.00254
 H277 H -0.09455 0.48843 -0.02786
 H278 H -0.09469 0.48670 0.02268
 H279 H -0.02797 0.51312 0.08947
 H280 H 0.02263 0.51312 0.08961
 H281 H 0.08945 0.48664 0.02283
 H282 H 0.08951 0.48654 -0.02789
 H283 H 0.01945 0.51108 -0.09429
 H284 H -0.05732 0.49880 -0.09469
 O285 O 0.94808 0.05457 0.54182
 O286 O 0.97698 0.02806 0.57444
 C287 C 0.95617 0.04692 0.56840
 O288 O 0.95116 -0.05093 0.45845
 O289 O 0.97791 -0.02235 0.42583
 C290 C 0.95891 -0.04300 0.43187
 O291 O 0.94823 -0.04794 0.54184
 O292 O 0.97696 -0.02127 0.57443
 C293 C 0.95627 -0.04025 0.56841
 O294 O 0.95096 0.05757 0.45842
 O295 O 0.97793 0.02914 0.42583
 C296 C 0.95880 0.04968 0.43185
 Zr297 Zr 0.96514 0.04093 0.50012
 O298 O 0.91832 0.04099 0.49737
 O299 O 0.96559 0.08774 0.50347
 Zr300 Zr 0.96497 -0.03394 0.50016
 O301 O 0.91826 -0.03080 0.49868
 O302 O 0.96350 -0.08074 0.50315
 O303 O 0.95940 0.00347 0.52663
 O304 O 0.95966 0.00346 0.47426
 O305 O 1.05414 0.05753 0.45833
 O306 O 1.02722 0.02901 0.42578
 C307 C 1.04633 0.04958 0.43177
 O308 O 1.05677 -0.04827 0.54182
 O309 O 1.02835 -0.02132 0.57440
 C310 C 1.04887 -0.04046 0.56838
 O311 O 1.05393 -0.05097 0.45840
 O312 O 1.02711 -0.02239 0.42581
 C313 C 1.04612 -0.04304 0.43184
 O314 O 1.05697 0.05483 0.54177
 O315 O 1.02845 0.02800 0.57437
 C316 C 1.04906 0.04704 0.56834
 Zr317 Zr 1.04013 0.04085 0.50009
 O318 O 1.08693 0.04074 0.49672
 O319 O 1.03993 0.08766 0.50342
 Zr320 Zr 1.04004 -0.03417 0.50013
 O321 O 1.08684 -0.03405 0.49675
 O322 O 1.03987 -0.08098 0.50349
 Zr323 Zr 1.00265 0.00339 0.54423
 Zr324 Zr 1.00256 0.00338 0.45601
 O325 O 1.04548 0.00332 0.47434
 O326 O 1.04592 0.00333 0.52655
 O327 O 1.00262 0.04668 0.47364
 O328 O 1.00251 -0.03949 0.52588
 O329 O 1.00265 0.04630 0.52590
 O330 O 1.00248 -0.03988 0.47374
 H331 H 0.94230 0.00346 0.46078
 H332 H 1.00245 -0.05690 0.53929
 H333 H 1.06282 0.00328 0.46086
 H334 H 1.00263 0.06363 0.53941
 H335 H 0.97748 -0.08862 0.48821
 H336 H 1.02790 -0.08873 0.48682
 H337 H 1.09462 -0.02213 0.51344
 H338 H 1.09469 0.02851 0.51320
 H339 H 1.02797 0.09540 0.48673
 H340 H 0.97725 0.09545 0.48656
 H341 H 0.91107 0.02527 0.51087
 H342 H 0.91078 -0.05145 0.49872
 C343 C 1.09885 0.14035 0.30230
 C344 C 1.11093 0.11487 0.31506
 C345 C 1.13639 0.10223 0.30283
 C346 C 1.14973 0.11489 0.27787
 C347 C 1.13783 0.14067 0.26439
 C348 C 1.11207 0.15315 0.27734
 C349 C 1.09703 0.10147 0.34050
 C350 C 1.08539 0.09002 0.36168
 C351 C 1.07176 0.07630 0.38631
 C352 C 1.06014 0.06429 0.40718
 H353 H 1.07909 0.15034 0.31162
 H354 H 1.14594 0.08244 0.31256
 H355 H 1.16929 0.10404 0.26946
 H356 H 1.10167 0.17279 0.26852
 C357 C 0.86817 -0.09746 0.30415
 C358 C 0.89379 -0.10985 0.31631
 C359 C 0.90567 -0.13561 0.30395
 C360 C 0.89207 -0.14896 0.27948
 C361 C 0.86610 -0.13677 0.26665
 C362 C 0.85445 -0.11067 0.27969
 C363 C 0.90797 -0.09599 0.34135
 C364 C 0.91977 -0.08419 0.36225
 C365 C 0.93351 -0.07013 0.38662
 C366 C 0.94516 -0.05789 0.40735
 H367 H 0.85877 -0.07745 0.31357
 H368 H 0.92555 -0.14543 0.31323
 H369 H 0.90230 -0.16883 0.27099
 H370 H 0.83478 -0.09997 0.27129
 C371 C 0.90128 0.13487 0.69804
 C372 C 0.88851 0.11014 0.68452
 C373 C 0.86215 0.09848 0.69574
 C374 C 0.84858 0.11138 0.72046
 C375 C 0.86116 0.13642 0.73468
 C376 C 0.88785 0.14791 0.72276
 C377 C 0.90262 0.09659 0.65927
 C378 C 0.91459 0.08523 0.63824
 C379 C 0.92882 0.07190 0.61374
 C380 C 0.94118 0.06051 0.59295
 H381 H 0.92177 0.14407 0.68953
 H382 H 0.85202 0.07931 0.68538
 H383 H 0.82815 0.10150 0.72794
 H384 H 0.89895 0.16677 0.73238
 C385 C 1.13804 -0.09349 0.69899
 C386 C 1.11410 -0.10654 0.68434
 C387 C 1.10293 -0.13359 0.69436
 C388 C 1.11551 -0.14758 0.71900
 C389 C 1.13973 -0.13476 0.73436
 C390 C 1.15076 -0.10736 0.72366
 C391 C 1.10078 -0.09207 0.65916
 C392 C 1.08934 -0.08007 0.63817
 C393 C 1.07562 -0.06614 0.61371
 C394 C 1.06359 -0.05436 0.59293
 H395 H 1.14684 -0.07245 0.69144
 H396 H 1.08440 -0.14394 0.68309
 H397 H 1.10610 -0.16858 0.72547
 H398 H 1.16895 -0.09603 0.73427
 C399 C 0.30231 1.09754 1.13475
 C400 C 0.31588 1.11031 1.11002
 C401 C 0.30472 1.13671 1.09834
 C402 C 0.28003 1.15031 1.11123
 C403 C 0.26578 1.13773 1.13627
 C404 C 0.27762 1.11100 1.14777
 C405 C 0.34110 1.09619 1.09650
 C406 C 0.36212 1.08423 1.08512
 C407 C 0.38660 1.07005 1.07174
 C408 C 0.40737 1.05777 1.06026
 H409 H 0.31076 1.07701 1.14396
 H410 H 0.31511 1.14685 1.07918
 H411 H 0.27260 1.17076 1.10132
 H412 H 0.26797 1.09990 1.16663
 C413 C 0.30153 0.86134 0.90533
 C414 C 0.31587 0.88557 0.89251
 C415 C 0.30547 0.89716 0.86573
 C416 C 0.28075 0.88469 0.85181
 C417 C 0.26570 0.86018 0.86442
 C418 C 0.27680 0.84873 0.89154
 C419 C 0.34109 0.89879 0.90694
 C420 C 0.36210 0.91012 0.91896
 C421 C 0.38658 0.92374 0.93292
 C422 C 0.40734 0.93571 0.94474
 H423 H 0.30938 0.85221 0.92616
 H424 H 0.31648 0.91593 0.85555
 H425 H 0.27396 0.89447 0.83105
 H426 H 0.26648 0.83028 0.90270
 C427 C 0.69862 0.90268 1.13952
 C428 C 0.68464 0.88929 1.11535
 C429 C 0.69563 0.86262 1.10414
 C430 C 0.72059 0.84939 1.11690
 C431 C 0.73530 0.86260 1.14133
 C432 C 0.72359 0.88957 1.15241
 C433 C 0.65923 0.90306 1.10179
 C434 C 0.63808 0.91457 1.09017
 C435 C 0.61349 0.92804 1.07624
 C436 C 0.59267 0.93953 1.06403
 H437 H 0.69031 0.92341 1.14837
 H438 H 0.68492 0.85201 1.08541
 H439 H 0.72787 0.82871 1.10736
 H440 H 0.73358 0.90114 1.17082
 C441 C 0.69595 1.09408 0.86365
 C442 C 0.68373 1.10569 0.88962
 C443 C 0.69597 1.13112 0.90229
 C444 C 0.72039 1.14493 0.88915
 C445 C 0.73329 1.13355 0.86284
 C446 C 0.72039 1.10776 0.85037
 C447 C 0.65873 1.09145 0.90340
 C448 C 0.63785 1.07959 0.91514
 C449 C 0.61349 1.06582 0.92913
 C450 C 0.59278 1.05415 0.94132
 H451 H 0.68661 1.07435 0.85361
 H452 H 0.68666 1.14031 0.92247
 H453 H 0.72888 1.16441 0.90009
 H454 H 0.72875 1.09777 0.83031
 C455 C 0.10801 0.31197 0.13643
 C456 C 0.11078 0.31621 0.10579
 C457 C 0.12700 0.29592 0.08882
 C458 C 0.14035 0.27145 0.10240
 C459 C 0.13761 0.26691 0.13320
 C460 C 0.12131 0.28751 0.15006
 C461 C 0.09675 0.34121 0.09176
 C462 C 0.08483 0.36208 0.08006
 C463 C 0.07069 0.38645 0.06642
 C464 C 0.05842 0.40717 0.05484
 H465 H 0.09556 0.32758 0.14980
 H466 H 0.12919 0.29892 0.06506
 H467 H 0.15236 0.25583 0.08872
 H468 H 0.11912 0.28491 0.17383
 C469 C -0.13139 0.29540 -0.09299
 C470 C -0.11548 0.31566 -0.11029
 C471 C -0.11259 0.31094 -0.14085
 C472 C -0.12544 0.28602 -0.15407
 C473 C -0.14140 0.26543 -0.13686
 C474 C -0.14428 0.27047 -0.10616
 C475 C -0.10179 0.34104 -0.09663
 C476 C -0.09011 0.36217 -0.08515
 C477 C -0.07615 0.38672 -0.07168
 C478 C -0.06394 0.40752 -0.06017
 H479 H -0.13366 0.29877 -0.06929
 H480 H -0.10036 0.32651 -0.15447
 H481 H -0.12314 0.28303 -0.17778
 H482 H -0.15603 0.25490 -0.09221
 C483 C 0.13764 0.68816 -0.11102
 C484 C 0.10709 0.68402 -0.11440
 C485 C 0.09043 0.70461 -0.13056
 C486 C 0.10423 0.72930 -0.14324
 C487 C 0.13493 0.73376 -0.13987
 C488 C 0.15149 0.71285 -0.12365
 C489 C 0.09280 0.65884 -0.10097
 C490 C 0.08087 0.63786 -0.08950
 C491 C 0.06697 0.61342 -0.07577
 C492 C 0.05518 0.59268 -0.06373
 H493 H 0.15076 0.67232 -0.09859
 H494 H 0.06674 0.70169 -0.13322
 H495 H 0.09078 0.74515 -0.15522
 H496 H 0.17518 0.71539 -0.12098
 C497 C -0.10590 0.68936 0.14147
 C498 C -0.10950 0.68451 0.11100
 C499 C -0.12624 0.70441 0.09407
 C500 C -0.13931 0.72909 0.10751
 C501 C -0.13580 0.73424 0.13813
 C502 C -0.11894 0.71405 0.15496
 C503 C -0.09592 0.65922 0.09704
 C504 C -0.08454 0.63816 0.08515
 C505 C -0.07120 0.61364 0.07099
 C506 C -0.05980 0.59284 0.05868
 H507 H -0.09304 0.67405 0.15481
 H508 H -0.12909 0.70093 0.07044
 H509 H -0.15177 0.74438 0.09384
 H510 H -0.11612 0.71713 0.17861
 C511 C 1.14046 0.09919 0.69750
 C512 C 1.11507 0.11144 0.68473
 C513 C 1.10268 0.13707 0.69685
 C514 C 1.11550 0.15040 0.72174
 C515 C 1.14117 0.13833 0.73524
 C516 C 1.15341 0.11240 0.72240
 C517 C 1.10151 0.09756 0.65937
 C518 C 1.08992 0.08594 0.63826
 C519 C 1.07604 0.07236 0.61370
 C520 C 1.06390 0.06078 0.59289
 H521 H 1.15026 0.07929 0.68826
 H522 H 1.08297 0.14676 0.68710
 H523 H 1.10485 0.17012 0.73005
 H524 H 1.17295 0.10184 0.73125
 C525 C 0.86331 -0.09504 0.69532
 C526 C 0.88988 -0.10595 0.68383
 C527 C 0.90314 -0.13073 0.69678
 C528 C 0.88998 -0.14459 0.72119
 C529 C 0.86307 -0.13390 0.73336
 C530 C 0.85001 -0.10877 0.71973
 C531 C 0.90367 -0.09163 0.65884
 C532 C 0.91539 -0.07971 0.63799
 C533 C 0.92935 -0.06584 0.61364
 C534 C 0.94151 -0.05409 0.59293
 H535 H 0.85280 -0.07584 0.68539
 H536 H 0.92380 -0.13935 0.68806
 H537 H 0.90144 -0.16347 0.73036
 H538 H 0.82939 -0.09944 0.72744
 C539 C 1.09836 -0.13742 0.30511
 C540 C 1.10976 -0.11084 0.31609
 C541 C 1.13436 -0.09794 0.30248
 C542 C 1.14753 -0.11146 0.27789
 C543 C 1.13632 -0.13837 0.26621
 C544 C 1.11141 -0.15108 0.28052
 C545 C 1.09608 -0.09666 0.34121
 C546 C 1.08462 -0.08463 0.36216
 C547 C 1.07119 -0.07037 0.38657
 C548 C 1.05974 -0.05800 0.40731
 H549 H 1.07931 -0.14766 0.31556
 H550 H 1.14335 -0.07727 0.31080
 H551 H 1.16627 -0.10025 0.26817
 H552 H 1.10175 -0.17169 0.27323
 C553 C 0.86567 0.10362 0.30590
 C554 C 0.89273 0.11481 0.31587
 C555 C 0.90578 0.13870 0.30115
 C556 C 0.89191 0.15135 0.27645
 C557 C 0.86452 0.14028 0.26578
 C558 C 0.85168 0.11613 0.28122
 C559 C 0.90720 0.10154 0.34106
 C560 C 0.91921 0.09013 0.36206
 C561 C 0.93313 0.07643 0.38653
 C562 C 0.94491 0.06440 0.40730
 H563 H 0.85531 0.08513 0.31722
 H564 H 0.92683 0.14750 0.30867
 H565 H 0.90326 0.16948 0.26577
 H566 H 0.83067 0.10671 0.27478
 C567 C 0.13789 0.30503 -0.09855
 C568 C 0.11131 0.31602 -0.10997
 C569 C 0.09835 0.30238 -0.13456
 C570 C 0.11181 0.27776 -0.14771
 C571 C 0.13872 0.26608 -0.13647
 C572 C 0.15149 0.28041 -0.11157
 C573 C 0.09719 0.34117 -0.09633
 C574 C 0.08521 0.36214 -0.08489
 C575 C 0.07099 0.38657 -0.07148
 C576 C 0.05866 0.40731 -0.06003
 H577 H 0.14817 0.31550 -0.07951
 H578 H 0.07768 0.31071 -0.14356
 H579 H 0.10055 0.26802 -0.16643
 H580 H 0.17211 0.27312 -0.10190
 C581 C -0.11123 0.31214 0.13738
 C582 C -0.11463 0.31626 0.10678
 C583 C -0.13084 0.29569 0.09014
 C584 C -0.14352 0.27104 0.10401
 C585 C -0.14012 0.26661 0.13475
 C586 C -0.12387 0.28750 0.15129
 C587 C -0.10117 0.34138 0.09243
 C588 C -0.08966 0.36233 0.08049
 C589 C -0.07586 0.38673 0.06660
 C590 C -0.06379 0.40746 0.05485
 H591 H -0.09877 0.32796 0.15048
 H592 H -0.13351 0.29860 0.06641
 H593 H -0.15553 0.25521 0.09057
 H594 H -0.12118 0.28498 0.17502
 C595 C -0.13648 0.69597 -0.10379
 C596 C -0.11008 0.68474 -0.11537
 C597 C -0.09708 0.69838 -0.13994
 C598 C -0.11031 0.72326 -0.15287
 C599 C -0.13701 0.73522 -0.14142
 C600 C -0.14984 0.72084 -0.11659
 C601 C -0.09620 0.65941 -0.10179
 C602 C -0.08463 0.63831 -0.09015
 C603 C -0.07112 0.61376 -0.07621
 C604 C -0.05962 0.59295 -0.06401
 H605 H -0.14678 0.68553 -0.08475
 H606 H -0.07656 0.68985 -0.14908
 H607 H -0.09908 0.73292 -0.17164
 H608 H -0.17026 0.72835 -0.10670
 C609 C 0.13683 0.68737 0.10848
 C610 C 0.10622 0.68324 0.11122
 C611 C 0.08930 0.70359 0.12740
 C612 C 0.10291 0.72803 0.14075
 C613 C 0.13368 0.73246 0.13805
 C614 C 0.15049 0.71180 0.12178
 C615 C 0.09214 0.65828 0.09720
 C616 C 0.08038 0.63746 0.08529
 C617 C 0.06665 0.61317 0.07114
 C618 C 0.05500 0.59252 0.05885
 H619 H 0.15015 0.67170 0.09605
 H620 H 0.06556 0.70067 0.12956
 H621 H 0.08927 0.74370 0.15274
 H622 H 0.17423 0.71433 0.11962
 C623 C 0.31262 1.10806 0.86305
 C624 C 0.31678 1.11074 0.89371
 C625 C 0.29648 1.12695 0.91067
 C626 C 0.27208 1.14038 0.89706
 C627 C 0.26762 1.13773 0.86625
 C628 C 0.28822 1.12144 0.84939
 C629 C 0.34170 1.09664 0.90778
 C630 C 0.36252 1.08468 0.91953
 C631 C 0.38679 1.07047 0.93322
 C632 C 0.40745 1.05815 0.94486
 H633 H 0.32824 1.09561 0.84969
 H634 H 0.29943 1.12907 0.93445
 H635 H 0.25645 1.15239 0.91073
 H636 H 0.28568 1.11932 0.82560
 C637 C 0.29549 0.90287 1.12700
 C638 C 0.31522 0.88530 1.11075
 C639 C 0.31005 0.85484 1.10798
 C640 C 0.28521 0.84201 1.12137
 C641 C 0.26519 0.85950 1.13774
 C642 C 0.27067 0.89010 1.14042
 C643 C 0.34063 0.89860 1.09679
 C644 C 0.36178 0.91002 1.08512
 C645 C 0.38636 0.92373 1.07148
 C646 C 0.40719 0.93576 1.05987
 H647 H 0.29923 0.92650 1.12919
 H648 H 0.32522 0.84101 1.09550
 H649 H 0.28186 0.81836 1.11920
 H650 H 0.25552 0.90426 1.15248
 C651 C 0.68781 1.13714 1.11080
 C652 C 0.68380 1.10658 1.11424
 C653 C 0.70442 1.09003 1.13048
 C654 C 0.72902 1.10396 1.14318
 C655 C 0.73335 1.13468 1.13976
 C656 C 0.71241 1.15111 1.12346
 C657 C 0.65871 1.09216 1.10079
 C658 C 0.63779 1.08016 1.08930
 C659 C 0.61340 1.06620 1.07555
 C660 C 0.59267 1.05438 1.06352
 H661 H 0.67194 1.15017 1.09831
 H662 H 0.70159 1.06634 1.13317
 H663 H 0.74490 1.09061 1.15522
 H664 H 0.71486 1.17481 1.12075
 C665 C 0.70430 0.87302 0.90582
 C666 C 0.68433 0.88967 0.88889
 C667 C 0.68912 0.89325 0.85842
 C668 C 0.71383 0.88028 0.84491
 C669 C 0.73409 0.86352 0.86174
 C670 C 0.72900 0.86001 0.89237
 C671 C 0.65905 0.90323 0.90286
 C672 C 0.63800 0.91460 0.91475
 C673 C 0.61350 0.92794 0.92890
 C674 C 0.59272 0.93936 0.94121
 H675 H 0.70086 0.87020 0.92945
 H676 H 0.67375 0.90605 0.84509
 H677 H 0.71687 0.88308 0.82126
 H678 H 0.74435 0.84763 0.90604
   
