data_POSCAR
  _audit_creation_date              2014-09-24
  _audit_creation_method            'ToBaCCo'
  _symmetry_space_group_name_H-M    'P1'
  _symmetry_Int_Tables_number       1
  _symmetry_cell_setting            triclinic
  loop_
  _symmetry_equiv_pos_as_xyz
 x,y,z
_cell_length_a 38.9847
_cell_length_b 28.9101
_cell_length_c 27.5697
_cell_angle_alpha 89.968800
_cell_angle_beta 90.033300
_cell_angle_gamma 90.072600
loop_
  _atom_site_label
  _atom_site_type_symbol
  _atom_site_fract_x
  _atom_site_fract_y
  _atom_site_fract_z
C1 C 0.22382 0.22624 0.22622
 C2 C 0.22135 0.27497 0.23297
 C3 C 0.24492 0.29768 0.26309
 C4 C 0.27177 0.27389 0.28567
 C5 C 0.27513 0.22542 0.27882
 C6 C 0.25147 0.20275 0.24830
 H7 H 0.25279 0.16541 0.24554
 H8 H 0.24355 0.33500 0.26675
 C9 C 0.77322 0.27532 0.21644
 C10 C 0.77205 0.22602 0.21505
 C11 C 0.74601 0.20226 0.23980
 C12 C 0.72127 0.22565 0.26724
 C13 C 0.72254 0.27445 0.26969
 C14 C 0.74815 0.29847 0.24427
 H15 H 0.74764 0.33593 0.24539
 H16 H 0.74539 0.16477 0.23831
 C17 C 0.72307 0.72579 0.72916
 C18 C 0.72439 0.77460 0.72682
 C19 C 0.74993 0.79850 0.75251
 C20 C 0.77485 0.77523 0.78057
 C21 C 0.77363 0.72592 0.78183
 C22 C 0.74769 0.70228 0.75674
 H23 H 0.74703 0.66479 0.75815
 H24 H 0.74946 0.83596 0.75149
 C25 C 0.27483 0.77484 0.72137
 C26 C 0.27706 0.72643 0.72649
 C27 C 0.25265 0.70296 0.75456
 C28 C 0.22522 0.72642 0.77719
 C29 C 0.22362 0.77555 0.77232
 C30 C 0.24810 0.79873 0.74395
 H31 H 0.24722 0.83614 0.74114
 H32 H 0.25407 0.66555 0.75596
 O33 O 0.96848 -0.00670 -0.06120
 O34 O 1.03317 0.06120 0.00534
 O35 O 1.03511 -0.00397 -0.05979
 O36 O 0.96641 0.05858 0.00374
 O37 O 0.96907 0.00838 0.06398
 O38 O 1.03371 -0.05837 -0.00368
 O39 O 1.03576 0.00664 0.06127
 O40 O 0.96669 -0.05692 -0.00089
 Cu41 Cu 1.00075 0.03257 -0.03380
 Cu42 Cu 1.00134 -0.03041 0.03596
 C43 C 0.95612 -0.04300 -0.04197
 C44 C 1.04590 0.04515 0.04430
 C45 C 1.04590 -0.04218 -0.04294
 C46 C 0.95633 0.04456 0.04502
 O47 O 0.53339 0.43816 0.49828
 O48 O 0.46798 0.50451 0.56506
 O49 O 0.46643 0.43975 0.49989
 O50 O 0.53481 0.50314 0.56382
 O51 O 0.53347 0.55744 0.50752
 O52 O 0.46780 0.49139 0.44093
 O53 O 0.46724 0.55651 0.50648
 O54 O 0.53471 0.49242 0.44204
 Cu55 Cu 0.50069 0.46602 0.53750
 Cu56 Cu 0.50082 0.52962 0.46833
 C57 C 0.54548 0.45420 0.45892
 C58 C 0.45636 0.54184 0.54710
 C59 C 0.45554 0.45462 0.45935
 C60 C 0.54538 0.54152 0.54702
 O61 O -0.03345 0.55862 -0.00386
 O62 O 0.03474 0.49625 0.06109
 O63 O 0.03331 0.56112 -0.00459
 O64 O -0.03190 0.49348 0.06128
 O65 O -0.03323 0.44306 0.00119
 O66 O 0.03620 0.50643 -0.06026
 O67 O 0.03378 0.44172 0.00517
 O68 O -0.03043 0.50821 -0.06380
 Cu69 Cu 0.00061 0.53268 0.03428
 Cu70 Cu 0.00167 0.46949 -0.03518
 C71 C -0.04328 0.54446 -0.04520
 C72 C 0.04564 0.45798 0.04460
 C73 C 0.04622 0.54500 -0.04336
 C74 C -0.04412 0.45713 0.04200
 O75 O 0.53375 1.00226 0.43374
 O76 O 0.46675 0.93820 0.49979
 O77 O 0.46679 1.00289 0.43454
 O78 O 0.53369 0.93742 0.49959
 O79 O 0.53536 0.99167 0.55579
 O80 O 0.46707 1.05538 0.49265
 O81 O 0.46848 0.99021 0.55831
 O82 O 0.53319 1.05645 0.49012
 Cu83 Cu 0.50024 0.96483 0.46117
 Cu84 Cu 0.50108 1.02861 0.53011
 C85 C 0.54453 1.04064 0.45028
 C86 C 0.45625 0.95318 0.54045
 C87 C 0.45551 1.04036 0.45255
 C88 C 0.54614 0.95357 0.53870
 C89 C 1.14918 0.14860 0.14808
 C90 C 1.18380 0.13573 0.14688
 C91 C 1.20836 0.16130 0.17237
 C92 C 1.19885 0.20032 0.20009
 C93 C 1.16366 0.21175 0.20231
 C94 C 1.13931 0.18676 0.17601
 C95 C 1.12320 0.12198 0.12077
 C96 C 1.12077 0.07385 0.12643
 C97 C 1.09548 0.04888 0.10176
 C98 C 1.07268 0.07152 0.07021
 C99 C 1.07554 0.11960 0.06396
 C100 C 1.10035 0.14468 0.08944
 H101 H 1.23498 0.15127 0.16877
 H102 H 1.15452 0.23905 0.22575
 H103 H 1.09392 0.01182 0.10707
 H104 H 1.05821 0.13791 0.03998
 H105 H 1.11255 0.19652 0.17843
 H106 H 1.13805 0.05573 0.15064
 H107 H 1.19195 0.10639 0.12537
 H108 H 1.10192 0.18180 0.08445
 C109 C 0.64684 0.64617 0.65288
 C110 C 0.68169 0.63468 0.64936
 C111 C 0.70635 0.66072 0.67400
 C112 C 0.69655 0.69829 0.70319
 C113 C 0.66152 0.70887 0.70776
 C114 C 0.63692 0.68350 0.68218
 C115 C 0.62088 0.61933 0.62585
 C116 C 0.59790 0.64183 0.59460
 C117 C 0.57368 0.61639 0.56839
 C118 C 0.57154 0.56815 0.57386
 C119 C 0.59434 0.54573 0.60556
 C120 C 0.61909 0.57108 0.63091
 H121 H 0.73317 0.65184 0.66989
 H122 H 0.65317 0.73676 0.73111
 H123 H 0.55627 0.63453 0.54439
 H124 H 0.59327 0.50857 0.61031
 H125 H 0.61008 0.69253 0.68580
 H126 H 0.59902 0.67902 0.59006
 H127 H 0.68983 0.60607 0.62680
 H128 H 0.63656 0.55314 0.65498
 C129 C -0.15100 0.35430 0.14094
 C130 C -0.16381 0.36905 0.18601
 C131 C -0.18863 0.34321 0.21061
 C132 C -0.20185 0.30183 0.19080
 C133 C -0.19003 0.28849 0.14453
 C134 C -0.16460 0.31368 0.12053
 C135 C -0.12362 0.38107 0.11543
 C136 C -0.12202 0.38208 0.06438
 C137 C -0.09592 0.40627 0.04059
 C138 C -0.07134 0.43106 0.06718
 C139 C -0.07305 0.43084 0.11799
 C140 C -0.09860 0.40565 0.14186
 H141 H -0.19643 0.35509 0.24615
 H142 H -0.20106 0.25926 0.12573
 H143 H -0.09535 0.40637 0.00131
 H144 H -0.05417 0.44938 0.13930
 H145 H -0.15555 0.30090 0.08596
 H146 H -0.14116 0.36469 0.04255
 H147 H -0.15474 0.40073 0.20254
 H148 H -0.09832 0.40497 0.18110
 C149 C 0.35186 0.85162 0.64446
 C150 C 0.36030 0.82734 0.68695
 C151 C 0.33523 0.80220 0.71182
 C152 C 0.30128 0.80151 0.69496
 C153 C 0.29266 0.82622 0.65291
 C154 C 0.31786 0.85071 0.62753
 C155 C 0.37850 0.87776 0.61783
 C156 C 0.38267 0.87159 0.56769
 C157 C 0.40816 0.89580 0.54262
 C158 C 0.42953 0.92728 0.56711
 C159 C 0.42510 0.93376 0.61722
 C160 C 0.40002 0.90888 0.64243
 H161 H 0.34224 0.78337 0.74432
 H162 H 0.26655 0.82599 0.63949
 H163 H 0.41092 0.89024 0.50398
 H164 H 0.44126 0.95769 0.63702
 H165 H 0.31077 0.86942 0.59500
 H166 H 0.36649 0.84754 0.54806
 H167 H 0.38639 0.82734 0.70047
 H168 H 0.39712 0.91434 0.68108
 C169 C -0.14826 0.64539 -0.14811
 C170 C -0.18255 0.64235 -0.13286
 C171 C -0.20804 0.66764 -0.15654
 C172 C -0.19948 0.69728 -0.19501
 C173 C -0.16532 0.69983 -0.21083
 C174 C -0.13990 0.67383 -0.18771
 C175 C -0.12124 0.61962 -0.12202
 C176 C -0.09833 0.59107 -0.14734
 C177 C -0.07314 0.56623 -0.12234
 C178 C -0.07000 0.57036 -0.07174
 C179 C -0.09268 0.59944 -0.04658
 C180 C -0.11829 0.62349 -0.07145
 H181 H -0.23432 0.66515 -0.14407
 H182 H -0.15838 0.72229 -0.24073
 H183 H -0.05589 0.54419 -0.14263
 H184 H -0.09090 0.60314 -0.00757
 H185 H -0.11358 0.67671 -0.19993
 H186 H -0.10028 0.58752 -0.18636
 H187 H -0.18955 0.62032 -0.10265
 H188 H -0.13559 0.64558 -0.05129
 C189 C 0.35099 1.14569 0.35187
 C190 C 0.34290 1.13692 0.30302
 C191 C 0.31767 1.16271 0.27920
 C192 C 0.30042 1.19891 0.30317
 C193 C 0.30823 1.20701 0.35234
 C194 C 0.33303 1.18076 0.37630
 C195 C 0.37796 1.11848 0.37737
 C196 C 0.39893 1.13953 0.41260
 C197 C 0.42386 1.11402 0.43719
 C198 C 0.42888 1.06701 0.42662
 C199 C 0.40834 1.04596 0.39105
 C200 C 0.38298 1.07130 0.36695
 H201 H 0.31273 1.15550 0.24128
 H202 H 0.29417 1.23242 0.37313
 H203 H 0.43959 1.13130 0.46406
 H204 H 0.41152 1.00968 0.38239
 H205 H 0.33762 1.18746 0.41438
 H206 H 0.39641 1.17597 0.42086
 H207 H 0.35651 1.11068 0.28274
 H208 H 0.36699 1.05368 0.34071
 C209 C 1.15061 -0.14336 -0.14744
 C210 C 1.17351 -0.17297 -0.12313
 C211 C 1.19762 -0.19873 -0.14907
 C212 C 1.19922 -0.19549 -0.19981
 C213 C 1.17711 -0.16504 -0.22409
 C214 C 1.15289 -0.13945 -0.19822
 C215 C 1.12414 -0.11715 -0.12011
 C216 C 1.11540 -0.07179 -0.13373
 C217 C 1.09000 -0.04753 -0.10871
 C218 C 1.07288 -0.06793 -0.06927
 C219 C 1.08177 -0.11311 -0.05534
 C220 C 1.10702 -0.13750 -0.08058
 H221 H 1.21484 -0.22156 -0.12966
 H222 H 1.17798 -0.16213 -0.26324
 H223 H 1.08391 -0.01264 -0.12013
 H224 H 1.06893 -0.12986 -0.02525
 H225 H 1.13539 -0.11744 -0.21814
 H226 H 1.12845 -0.05481 -0.16349
 H227 H 1.17290 -0.17611 -0.08401
 H228 H 1.11271 -0.17263 -0.06962
 C229 C 0.64880 0.35209 0.35237
 C230 C 0.67055 0.32007 0.37547
 C231 C 0.69470 0.29502 0.34876
 C232 C 0.69759 0.30155 0.29851
 C233 C 0.67630 0.33382 0.27542
 C234 C 0.65201 0.35862 0.30198
 C235 C 0.62276 0.37847 0.38047
 C236 C 0.61532 0.42471 0.36862
 C237 C 0.59026 0.44920 0.39408
 C238 C 0.57225 0.42823 0.43236
 C239 C 0.57993 0.38223 0.44473
 C240 C 0.60480 0.35756 0.41894
 H241 H 0.71117 0.27053 0.36724
 H242 H 0.67806 0.33911 0.23660
 H243 H 0.58515 0.48472 0.38394
 H244 H 0.56637 0.36504 0.47390
 H245 H 0.63533 0.38232 0.28283
 H246 H 0.62908 0.44221 0.33986
 H247 H 0.66918 0.31471 0.41428
 H248 H 0.60947 0.32182 0.42858
 C249 C 0.85014 -0.14601 -0.14266
 C250 C 0.83642 -0.18671 -0.12254
 C251 C 0.81116 -0.21185 -0.14698
 C252 C 0.79964 -0.19837 -0.19339
 C253 C 0.81298 -0.15693 -0.21292
 C254 C 0.83763 -0.13115 -0.18790
 C255 C 0.87731 -0.11927 -0.11668
 C256 C 0.90249 -0.09461 -0.14270
 C257 C 0.92782 -0.06938 -0.11840
 C258 C 0.92915 -0.06920 -0.06757
 C259 C 0.90443 -0.09410 -0.04139
 C260 C 0.87854 -0.11835 -0.06560
 H261 H 0.80002 -0.24114 -0.12840
 H262 H 0.80540 -0.14494 -0.24855
 H263 H 0.94683 -0.05076 -0.13940
 H264 H 0.90471 -0.09403 -0.00210
 H265 H 0.84679 -0.09941 -0.20422
 H266 H 0.90307 -0.09524 -0.18192
 H267 H 0.84524 -0.19957 -0.08786
 H268 H 0.85927 -0.13582 -0.04410
 C269 C 0.34939 0.35348 0.35850
 C270 C 0.31545 0.35353 0.37561
 C271 C 0.29004 0.32836 0.35140
 C272 C 0.29840 0.30184 0.31048
 C273 C 0.33225 0.30199 0.29318
 C274 C 0.35752 0.32783 0.31684
 C275 C 0.37637 0.37972 0.38432
 C276 C 0.39805 0.41001 0.35889
 C277 C 0.42358 0.43476 0.38334
 C278 C 0.42831 0.42892 0.43350
 C279 C 0.40676 0.39830 0.45882
 C280 C 0.38081 0.37426 0.43452
 H281 H 0.26400 0.32874 0.36508
 H282 H 0.33906 0.28198 0.26141
 H283 H 0.43988 0.45804 0.36291
 H284 H 0.40975 0.39326 0.49752
 H285 H 0.38355 0.32716 0.30315
 H286 H 0.39496 0.41487 0.32017
 H287 H 0.30860 0.37336 0.40748
 H288 H 0.36451 0.35082 0.45477
 C289 C 0.14974 0.64841 -0.14677
 C290 C 0.18421 0.63474 -0.14610
 C291 C 0.20899 0.66035 -0.17106
 C292 C 0.19990 0.70029 -0.19767
 C293 C 0.16485 0.71249 -0.19954
 C294 C 0.14026 0.68739 -0.17377
 C295 C 0.12359 0.62183 -0.11973
 C296 C 0.10095 0.64447 -0.08811
 C297 C 0.07611 0.61939 -0.06266
 C298 C 0.07305 0.57137 -0.06919
 C299 C 0.09563 0.54880 -0.10105
 C300 C 0.12091 0.57376 -0.12572
 H301 H 0.23550 0.64965 -0.16781
 H302 H 0.15600 0.74054 -0.22224
 H303 H 0.05896 0.63766 -0.03846
 H304 H 0.09391 0.51179 -0.10662
 H305 H 0.11362 0.69781 -0.17583
 H306 H 0.10271 0.68153 -0.08282
 H307 H 0.19209 0.60476 -0.12532
 H308 H 0.13802 0.55568 -0.15014
 C309 C 0.64510 1.14560 0.34314
 C310 C 0.67995 1.13414 0.34665
 C311 C 0.70459 1.16032 0.32213
 C312 C 0.69476 1.19800 0.29306
 C313 C 0.65972 1.20855 0.28849
 C314 C 0.63514 1.18304 0.31395
 C315 C 0.61920 1.11871 0.37021
 C316 C 0.59641 1.14113 0.40173
 C317 C 0.57241 1.11562 0.42824
 C318 C 0.57029 1.06737 0.42281
 C319 C 0.59283 1.04504 0.39074
 C320 C 0.61738 1.07047 0.36509
 H321 H 0.73142 1.15146 0.32626
 H322 H 0.65135 1.23653 0.26523
 H323 H 0.55519 1.13368 0.45253
 H324 H 0.59177 1.00788 0.38602
 H325 H 0.60830 1.19207 0.31038
 H326 H 0.59756 1.17831 0.40632
 H327 H 0.68813 1.10546 0.36914
 H328 H 0.63471 1.05259 0.34081
 C329 C 0.14918 0.35668 0.15158
 C330 C 0.17273 0.32782 0.12761
 C331 C 0.19656 0.30194 0.15397
 C332 C 0.19724 0.30426 0.20481
 C333 C 0.17449 0.33400 0.22881
 C334 C 0.15054 0.35976 0.20249
 C335 C 0.12298 0.38293 0.12370
 C336 C 0.11375 0.42801 0.13755
 C337 C 0.08865 0.45232 0.11188
 C338 C 0.07233 0.43223 0.07159
 C339 C 0.08171 0.38729 0.05748
 C340 C 0.10667 0.36287 0.08333
 H341 H 0.21429 0.27971 0.13477
 H342 H 0.17462 0.33622 0.26802
 H343 H 0.08217 0.48700 0.12350
 H344 H 0.06950 0.37076 0.02674
 H345 H 0.13254 0.38120 0.22212
 H346 H 0.12617 0.44474 0.16799
 H347 H 0.17283 0.32537 0.08843
 H348 H 0.11276 0.32793 0.07217
 C349 C 0.65055 0.85225 0.64416
 C350 C 0.67232 0.82032 0.62103
 C351 C 0.69655 0.79533 0.64771
 C352 C 0.69949 0.80181 0.69797
 C353 C 0.67821 0.83403 0.72107
 C354 C 0.65385 0.85878 0.69453
 C355 C 0.62436 0.87849 0.61614
 C356 C 0.61685 0.92470 0.62796
 C357 C 0.59153 0.94899 0.60275
 C358 C 0.57331 0.92786 0.56477
 C359 C 0.58111 0.88192 0.55235
 C360 C 0.60625 0.85744 0.57789
 H361 H 0.71300 0.77086 0.62922
 H362 H 0.68000 0.83927 0.75989
 H363 H 0.58635 0.98448 0.61292
 H364 H 0.56740 0.86461 0.52340
 H365 H 0.63716 0.88242 0.71370
 H366 H 0.63073 0.94230 0.65654
 H367 H 0.67086 0.81496 0.58223
 H368 H 0.61099 0.82172 0.56827
 C369 C 0.85065 0.14569 0.14605
 C370 C 0.85874 0.17406 0.18579
 C371 C 0.83315 0.20002 0.20855
 C372 C 0.79910 0.19748 0.19221
 C373 C 0.79082 0.16793 0.15358
 C374 C 0.81648 0.14268 0.13026
 C375 C 0.87785 0.11989 0.12043
 C376 C 0.88115 0.12368 0.06990
 C377 C 0.90693 0.09958 0.04548
 C378 C 0.92944 0.07053 0.07107
 C379 C 0.92595 0.06649 0.12163
 C380 C 0.90059 0.09137 0.14618
 H381 H 0.83989 0.22241 0.23858
 H382 H 0.76462 0.16544 0.14070
 H383 H 0.90897 0.10322 0.00649
 H384 H 0.94306 0.04447 0.14224
 H385 H 0.80968 0.12069 0.09994
 H386 H 0.86400 0.14574 0.04941
 H387 H 0.88497 0.17693 0.19843
 H388 H 0.89838 0.08787 0.18517
 C389 C 0.35367 0.64742 0.65090
 C390 C 0.35126 0.64540 0.70180
 C391 C 0.32627 0.67093 0.72637
 C392 C 0.30350 0.69927 0.70058
 C393 C 0.30567 0.70120 0.64985
 C394 C 0.33047 0.67554 0.62524
 C395 C 0.38018 0.62032 0.62456
 C396 C 0.39664 0.63901 0.58362
 C397 C 0.42121 0.61342 0.55840
 C398 C 0.43012 0.56867 0.57373
 C399 C 0.41389 0.55003 0.61484
 C400 C 0.38910 0.57550 0.63987
 H401 H 0.32495 0.66907 0.76557
 H402 H 0.28792 0.72230 0.62927
 H403 H 0.43346 0.62893 0.52711
 H404 H 0.42010 0.51555 0.62744
 H405 H 0.33113 0.67720 0.58602
 H406 H 0.39086 0.67371 0.57134
 H407 H 0.36898 0.62461 0.72272
 H408 H 0.37657 0.55979 0.67080
   
