data_POSCAR
  _audit_creation_date              2014-09-24
  _audit_creation_method            'ToBaCCo'
  _symmetry_space_group_name_H-M    'P1'
  _symmetry_Int_Tables_number       1
  _symmetry_cell_setting            triclinic
  loop_
  _symmetry_equiv_pos_as_xyz
 x,y,z
_cell_length_a 42.6684
_cell_length_b 41.9026
_cell_length_c 16.2553
_cell_angle_alpha 90.371700
_cell_angle_beta 89.734100
_cell_angle_gamma 118.642300
loop_
  _atom_site_label
  _atom_site_type_symbol
  _atom_site_fract_x
  _atom_site_fract_y
  _atom_site_fract_z
C1 C 0.16826 0.47863 0.57905
 C2 C 0.15535 0.48408 0.50435
 C3 C 0.16829 0.47937 0.42842
 C4 C 0.19765 0.47232 0.42703
 C5 C 0.21216 0.46825 0.50237
 C6 C 0.19727 0.47109 0.57855
 C7 C 0.21227 0.46721 0.65218
 C8 C 0.24074 0.45980 0.65127
 C9 C 0.25626 0.45721 0.57675
 C10 C 0.24165 0.46128 0.50150
 C11 C 0.21355 0.47036 0.35251
 C12 C 0.24227 0.46332 0.35166
 C13 C 0.25651 0.45848 0.42533
 C14 C 0.28526 0.45082 0.42485
 C15 C 0.29858 0.44567 0.49883
 C16 C 0.28500 0.44911 0.57505
 H17 H 0.20193 0.46967 0.71144
 H18 H 0.25024 0.45578 0.70984
 H19 H 0.20386 0.47429 0.29406
 H20 H 0.25317 0.46154 0.29259
 H21 H 0.13277 0.48934 0.50530
 H22 H 0.32142 0.44086 0.49684
 C23 C 0.56276 -0.15715 0.58053
 C24 C 0.56635 -0.13959 0.50562
 C25 C 0.56227 -0.15762 0.43053
 C26 C 0.55500 -0.19428 0.42967
 C27 C 0.55189 -0.21232 0.50527
 C28 C 0.55560 -0.19372 0.58098
 C29 C 0.55176 -0.21220 0.65517
 C30 C 0.54402 -0.24841 0.65528
 C31 C 0.54051 -0.26736 0.58116
 C32 C 0.54422 -0.24926 0.50528
 C33 C 0.55054 -0.21337 0.35548
 C34 C 0.54286 -0.24967 0.35542
 C35 C 0.53991 -0.26809 0.42954
 C36 C 0.53153 -0.30523 0.43031
 C37 C 0.52636 -0.32291 0.50592
 C38 C 0.53212 -0.30437 0.58091
 H39 H 0.55458 -0.19882 0.71398
 H40 H 0.54062 -0.26153 0.71425
 H41 H 0.55285 -0.20040 0.29674
 H42 H 0.53907 -0.26331 0.29663
 H43 H 0.57081 -0.11182 0.50579
 H44 H 0.52029 -0.35124 0.50642
 C45 C 1.17120 0.71890 0.42896
 C46 C 1.15337 0.70593 0.50368
 C47 C 1.17089 0.71867 0.57908
 C48 C 1.20662 0.74740 0.57969
 C49 C 1.22464 0.76161 0.50409
 C50 C 1.20693 0.74708 0.42854
 C51 C 1.22567 0.76012 0.35439
 C52 C 1.26140 0.78657 0.35427
 C53 C 1.27957 0.80183 0.42826
 C54 C 1.26092 0.78929 0.50402
 C55 C 1.22476 0.76211 0.65388
 C56 C 1.26013 0.78952 0.65394
 C57 C 1.27868 0.80365 0.57980
 C58 C 1.31500 0.83086 0.57947
 C59 C 1.33348 0.84100 0.50462
 C60 C 1.31647 0.82750 0.42903
 H61 H 1.21300 0.74946 0.29562
 H62 H 1.27478 0.79436 0.29537
 H63 H 1.21175 0.75233 0.71269
 H64 H 1.27303 0.79926 0.71287
 H65 H 1.12640 0.68326 0.50288
 H66 H 1.36133 0.86188 0.50474
 C67 C 0.83837 0.56113 0.57921
 C68 C 0.85635 0.56658 0.50395
 C69 C 0.83896 0.56319 0.42916
 C70 C 0.80344 0.55705 0.42852
 C71 C 0.78505 0.55259 0.50392
 C72 C 0.80248 0.55458 0.57955
 C73 C 0.78348 0.54952 0.65343
 C74 C 0.74772 0.54105 0.65305
 C75 C 0.72963 0.53809 0.57878
 C76 C 0.74855 0.54402 0.50336
 C77 C 0.78548 0.55371 0.35405
 C78 C 0.74969 0.54504 0.35337
 C79 C 0.73063 0.53966 0.42717
 C80 C 0.69379 0.52879 0.42680
 C81 C 0.67550 0.52278 0.50129
 C82 C 0.69257 0.52695 0.57720
 H83 H 0.79602 0.55140 0.71233
 H84 H 0.73422 0.53597 0.71179
 H85 H 0.79891 0.55731 0.29545
 H86 H 0.73692 0.54202 0.29431
 H87 H 0.88322 0.56995 0.50308
 H88 H 0.64717 0.51446 0.50002
 C89 C 0.44295 0.27257 0.40964
 C90 C 0.44758 0.29319 0.48097
 C91 C 0.44576 0.27875 0.55889
 C92 C 0.43880 0.24239 0.56632
 C93 C 0.43259 0.22055 0.49460
 C94 C 0.43546 0.23591 0.41585
 C95 C 0.43121 0.21443 0.34589
 C96 C 0.42293 0.17799 0.35293
 C97 C 0.41744 0.16104 0.43034
 C98 C 0.42370 0.18338 0.50199
 C99 C 0.43822 0.22751 0.64361
 C100 C 0.43222 0.19210 0.65052
 C101 C 0.42384 0.16939 0.58107
 C102 C 0.41595 0.13300 0.58821
 C103 C 0.40010 0.10969 0.52089
 C104 C 0.40633 0.12296 0.44006
 H105 H 0.43425 0.22573 0.28481
 H106 H 0.42050 0.16381 0.29617
 H107 H 0.44296 0.24325 0.69959
 H108 H 0.43298 0.18247 0.71151
 H109 H 0.45262 0.32106 0.47568
 H110 H 0.38808 0.08085 0.53126
 C111 C 0.70480 0.18435 0.58332
 C112 C 0.68965 0.16788 0.50839
 C113 C 0.70512 0.18395 0.43354
 C114 C 0.73680 0.21758 0.43244
 C115 C 0.75261 0.23476 0.50795
 C116 C 0.73648 0.21819 0.58382
 C117 C 0.75230 0.23591 0.65780
 C118 C 0.78358 0.26917 0.65746
 C119 C 0.80043 0.28573 0.58307
 C120 C 0.78453 0.26857 0.50752
 C121 C 0.75296 0.23440 0.35796
 C122 C 0.78419 0.26766 0.35750
 C123 C 0.80037 0.28518 0.43148
 C124 C 0.83190 0.31906 0.43156
 C125 C 0.84686 0.33597 0.50628
 C126 C 0.83223 0.31959 0.58190
 H127 H 0.74050 0.22421 0.71660
 H128 H 0.79445 0.28190 0.71620
 H129 H 0.74150 0.22197 0.29934
 H130 H 0.79555 0.27962 0.29858
 H131 H 0.66539 0.14185 0.50828
 H132 H 0.87126 0.36189 0.50543
 N133 N 0.96580 0.55947 0.09127
 N134 N 0.94107 0.56904 0.10825
 N135 N 1.04014 0.57189 0.14717
 N136 N 1.06556 0.58841 0.20191
 N137 N 1.04079 0.59501 0.09209
 N138 N 1.06661 0.62822 0.10892
 N139 N 0.96526 0.53639 0.14629
 N140 N 0.94006 0.52923 0.20118
 C141 C 0.92487 0.54928 0.17625
 C142 C 1.08215 0.62334 0.17693
 N143 N 1.03910 0.48033 0.09312
 N144 N 1.06292 0.46986 0.11179
 N145 N 0.96403 0.46740 0.14817
 N146 N 0.94023 0.45018 0.20613
 N147 N 0.96381 0.44439 0.09272
 N148 N 0.93971 0.41078 0.11178
 N149 N 1.03897 0.50296 0.14905
 N150 N 1.06244 0.50834 0.20711
 Mn151 Mn 1.00209 0.51973 0.14815
 C152 C 1.07738 0.48763 0.18331
 C153 C 0.92511 0.41488 0.18276
 N154 N 1.04119 0.59475 -0.08697
 N155 N 1.06605 0.62816 -0.10536
 N156 N 0.96583 0.53569 -0.14228
 N157 N 0.94114 0.52860 -0.19838
 N158 N 0.96616 0.55912 -0.08774
 N159 N 0.94190 0.56906 -0.10636
 N160 N 1.04104 0.57143 -0.14158
 N161 N 1.06600 0.58807 -0.19750
 Mn162 Mn 1.00350 0.57758 0.00221
 C163 C 1.08168 0.62328 -0.17367
 C164 C 0.92611 0.54916 -0.17479
 N165 N 0.96427 0.44421 -0.08512
 N166 N 0.93918 0.41075 -0.10223
 N167 N 1.03974 0.50243 -0.14086
 N168 N 1.06372 0.50782 -0.19793
 N169 N 1.03949 0.47997 -0.08468
 N170 N 1.06356 0.46959 -0.10225
 N171 N 0.96503 0.46687 -0.14140
 N172 N 0.94076 0.44953 -0.19815
 Mn173 Mn 1.00167 0.46182 0.00395
 Mn174 Mn 1.00290 0.51913 -0.14204
 Cl175 Cl 1.00253 0.51957 0.00306
 C176 C 0.92469 0.41451 -0.17318
 C177 C 1.07853 0.48729 -0.17327
 N178 N 0.54018 0.49623 0.14187
 N179 N 0.55764 0.48861 0.19831
 N180 N 0.52581 0.55969 0.09250
 N181 N 0.53626 0.59383 0.11334
 N182 N 0.50413 0.53746 0.14833
 N183 N 0.49952 0.55600 0.20876
 N184 N 0.56240 0.51900 0.08753
 N185 N 0.59571 0.52776 0.10640
 C186 C 0.59217 0.50783 0.17463
 C187 C 0.51968 0.59120 0.18619
 N188 N 0.50380 0.54095 -0.14181
 N189 N 0.49906 0.56057 -0.19831
 N190 N 0.56227 0.52099 -0.09086
 N191 N 0.59513 0.52739 -0.10787
 N192 N 0.54003 0.50029 -0.14795
 N193 N 0.55693 0.49195 -0.20486
 N194 N 0.52587 0.56195 -0.08481
 N195 N 0.53655 0.59651 -0.10120
 Mn196 Mn 0.54447 0.54076 0.00107
 C197 C 0.51947 0.59521 -0.17225
 C198 C 0.59112 0.50838 -0.17856
 N199 N 0.43660 0.47105 0.14405
 N200 N 0.41869 0.47668 0.20353
 N201 N 0.45124 0.40941 0.07989
 N202 N 0.44052 0.37476 0.09484
 N203 N 0.47288 0.43009 0.13798
 N204 N 0.47745 0.41001 0.19386
 N205 N 0.41474 0.45002 0.08667
 N206 N 0.38134 0.44070 0.10581
 Mn207 Mn 0.48843 0.48371 0.14374
 C208 C 0.38434 0.45779 0.17858
 C209 C 0.45726 0.37559 0.16597
 N210 N 0.47343 0.43439 -0.15178
 N211 N 0.47991 0.41653 -0.21060
 N212 N 0.41463 0.45240 -0.09058
 N213 N 0.38114 0.44217 -0.11045
 N214 N 0.43656 0.47497 -0.14561
 N215 N 0.41858 0.48085 -0.20398
 N216 N 0.45113 0.41179 -0.09741
 N217 N 0.44137 0.37778 -0.11853
 Mn218 Mn 0.48845 0.48770 -0.14731
 Mn219 Mn 0.43266 0.43063 -0.00531
 Cl220 Cl 0.48851 0.48573 -0.00185
 C221 C 0.46020 0.38138 -0.18835
 C222 C 0.38415 0.46080 -0.18034
 N223 N 0.43813 -0.03983 0.10171
 N224 N 0.40679 -0.06817 0.11839
 N225 N 0.49076 0.03976 0.15309
 N226 N 0.49124 0.06115 0.21338
 N227 N 0.46716 0.03641 0.09735
 N228 N 0.45114 0.05555 0.11893
 N229 N 0.46174 -0.03631 0.15739
 N230 N 0.44730 -0.06205 0.21308
 C231 C 0.41318 -0.08214 0.18746
 C232 C 0.46706 0.07167 0.19084
 N233 N 0.58455 0.04852 0.09643
 N234 N 0.61709 0.07428 0.11477
 N235 N 0.53210 -0.02894 0.15633
 N236 N 0.52841 -0.05257 0.21373
 N237 N 0.55486 -0.02742 0.09978
 N238 N 0.56753 -0.04979 0.11769
 N239 N 0.56160 0.04703 0.15243
 N240 N 0.57789 0.07161 0.21025
 Mn241 Mn 0.51157 0.00547 0.15541
 C242 C 0.61240 0.08853 0.18578
 C243 C 0.55056 -0.06541 0.18878
 N244 N 0.46582 0.03350 -0.08105
 N245 N 0.44792 0.04968 -0.10890
 N246 N 0.46036 -0.03941 -0.13305
 N247 N 0.44390 -0.06261 -0.19330
 N248 N 0.43740 -0.04193 -0.07596
 N249 N 0.40478 -0.06694 -0.09619
 N250 N 0.49032 0.03663 -0.13453
 N251 N 0.49027 0.05571 -0.19820
 Mn252 Mn 0.45181 -0.00301 0.01069
 C253 C 0.46374 0.06360 -0.18217
 C254 C 0.40929 -0.07978 -0.16942
 N255 N 0.55435 -0.02925 -0.07856
 N256 N 0.56792 -0.05088 -0.09780
 N257 N 0.56082 0.04405 -0.13646
 N258 N 0.57656 0.06803 -0.19548
 N259 N 0.58415 0.04687 -0.08069
 N260 N 0.61641 0.07291 -0.10032
 N261 N 0.53077 -0.03208 -0.13371
 N262 N 0.52738 -0.05576 -0.19127
 Mn263 Mn 0.56981 0.00966 0.00930
 Mn264 Mn 0.51059 0.00235 -0.13477
 Cl265 Cl 0.51096 0.00365 0.01015
 C266 C 0.55048 -0.06744 -0.16805
 C267 C 0.61123 0.08595 -0.17213
 C268 C 1.12642 0.51463 0.28273
 C269 C 1.14847 0.51295 0.34305
 C270 C 1.15022 0.48090 0.35707
 C271 C 1.12932 0.44983 0.30705
 C272 C 1.10654 0.45150 0.24505
 C273 C 1.10454 0.48424 0.23437
 C274 C 1.08516 0.41954 0.19984
 N275 N 1.08647 0.38849 0.21559
 N276 N 1.10723 0.38682 0.27427
 C277 C 1.12832 0.41618 0.32097
 H278 H 1.12544 0.53984 0.27611
 H279 H 1.16377 0.53686 0.38086
 H280 H 1.06708 0.41827 0.15263
 H281 H 1.14371 0.41264 0.36912
 C282 C 0.49451 0.61708 0.28592
 C283 C 0.49700 0.64231 0.34492
 C284 C 0.52917 0.67429 0.35888
 C285 C 0.55960 0.68094 0.31048
 C286 C 0.55715 0.65490 0.25022
 C287 C 0.52417 0.62230 0.23890
 C288 C 0.58858 0.66162 0.20759
 N289 N 0.61974 0.69209 0.22345
 N290 N 0.62201 0.71616 0.28002
 C291 C 0.59324 0.71146 0.32458
 H292 H 0.46918 0.59251 0.27877
 H293 H 0.47363 0.63629 0.38193
 H294 H 0.58939 0.64304 0.16287
 H295 H 0.59723 0.73148 0.37125
 C296 C 0.35181 -0.11514 0.24401
 C297 C 0.32781 -0.13751 0.30358
 C298 C 0.33705 -0.15788 0.35708
 C299 C 0.36982 -0.15830 0.34414
 C300 C 0.39394 -0.13595 0.28281
 C301 C 0.38568 -0.11251 0.23603
 C302 C 0.42550 -0.13816 0.26983
 N303 N 0.43249 -0.16077 0.31627
 N304 N 0.40998 -0.18155 0.37429
 C305 C 0.37887 -0.18125 0.38954
 H306 H 0.34484 -0.09773 0.20824
 H307 H 0.30311 -0.13648 0.31239
 H308 H 0.44422 -0.12297 0.22178
 H309 H 0.36117 -0.19946 0.43587
 C310 C 0.90349 0.58638 0.25216
 C311 C 0.88338 0.58977 0.31623
 C312 C 0.85631 0.55883 0.35400
 C313 C 0.84788 0.52383 0.32384
 C314 C 0.86810 0.52044 0.25851
 C315 C 0.89712 0.55196 0.22522
 C316 C 0.85888 0.48534 0.22922
 N317 N 0.83171 0.45578 0.26473
 N318 N 0.81324 0.45892 0.32758
 C319 C 0.82044 0.49185 0.35855
 H320 H 0.92578 0.61070 0.22769
 H321 H 0.88998 0.61662 0.33896
 H322 H 0.87272 0.48116 0.17783
 H323 H 0.80459 0.49263 0.40981
 C324 C 0.48182 0.34357 0.24725
 C325 C 0.47857 0.31774 0.30482
 C326 C 0.44490 0.29095 0.33082
 C327 C 0.41389 0.28862 0.29393
 C328 C 0.41705 0.31500 0.23529
 C329 C 0.45153 0.34333 0.21364
 C330 C 0.38536 0.31319 0.20487
 N331 N 0.35315 0.28633 0.22992
 N332 N 0.35032 0.26141 0.28409
 C333 C 0.37955 0.26176 0.31733
 H334 H 0.50829 0.36509 0.23185
 H335 H 0.50247 0.32022 0.33373
 H336 H 0.38551 0.33283 0.16225
 H337 H 0.37567 0.24107 0.36170
 C338 C 0.63458 0.14317 0.27199
 C339 C 0.65715 0.16669 0.33176
 C340 C 0.68692 0.16403 0.35802
 C341 C 0.69529 0.13850 0.32056
 C342 C 0.67222 0.11424 0.25981
 C343 C 0.64115 0.11633 0.23670
 C344 C 0.68025 0.08758 0.22832
 N345 N 0.70981 0.08633 0.25426
 N346 N 0.73169 0.10954 0.31024
 C347 C 0.72536 0.13546 0.34456
 H348 H 0.61088 0.14494 0.25556
 H349 H 0.65035 0.18593 0.36080
 H350 H 0.66345 0.06745 0.18410
 H351 H 0.74384 0.15341 0.39033
 C352 C 0.42981 0.09658 -0.21532
 C353 C 0.41866 0.11462 -0.27055
 C354 C 0.43234 0.12193 -0.35110
 C355 C 0.45760 0.11057 -0.37468
 C356 C 0.46185 0.08552 -0.32604
 C357 C 0.45148 0.08170 -0.24208
 C358 C 0.47417 0.06395 -0.36699
 N359 N 0.48022 0.06784 -0.44968
 N360 N 0.47572 0.09161 -0.49658
 C361 C 0.47583 0.11941 -0.45100
 H362 H 0.42027 0.09295 -0.15243
 H363 H 0.39871 0.12202 -0.25078
 H364 H 0.47612 0.04203 -0.33764
 H365 H 0.47820 0.14310 -0.48335
 C366 C 0.65262 0.54183 -0.23394
 C367 C 0.67767 0.54661 -0.29472
 C368 C 0.67129 0.51870 -0.35135
 C369 C 0.64069 0.48418 -0.34095
 C370 C 0.61543 0.47927 -0.27884
 C371 C 0.62055 0.50909 -0.22822
 C372 C 0.58586 0.44441 -0.26931
 N373 N 0.58179 0.41681 -0.31978
 N374 N 0.60553 0.42140 -0.37811
 C375 C 0.63495 0.45397 -0.38991
 H376 H 0.65713 0.56482 -0.19535
 H377 H 0.70082 0.57320 -0.30151
 H378 H 0.56642 0.43846 -0.22099
 H379 H 0.65392 0.45580 -0.43641
 C380 C 0.87537 0.39509 -0.27062
 C381 C 0.85318 0.37247 -0.33173
 C382 C 0.85028 0.33823 -0.34640
 C383 C 0.86967 0.32617 -0.29603
 C384 C 0.89281 0.34954 -0.23359
 C385 C 0.89639 0.38494 -0.22278
 C386 C 0.91279 0.33708 -0.18794
 N387 N 0.90971 0.30389 -0.20364
 N388 N 0.88843 0.28234 -0.26258
 C389 C 0.86862 0.29243 -0.30969
 H390 H 0.87736 0.42173 -0.26336
 H391 H 0.83876 0.38226 -0.36969
 H392 H 0.93100 0.35296 -0.14015
 H393 H 0.85250 0.27404 -0.35777
 C394 C 0.52699 -0.12453 -0.24605
 C395 C 0.52980 -0.14643 -0.30712
 C396 C 0.56278 -0.13723 -0.34360
 C397 C 0.59389 -0.10646 -0.31458
 C398 C 0.59113 -0.08405 -0.25213
 C399 C 0.55708 -0.09290 -0.21908
 C400 C 0.62243 -0.05260 -0.22839
 N401 N 0.65420 -0.04496 -0.26326
 N402 N 0.65679 -0.06637 -0.32074
 C403 C 0.62773 -0.09679 -0.34773
 H404 H 0.50073 -0.13147 -0.22219
 H405 H 0.50572 -0.16969 -0.32931
 H406 H 0.62215 -0.03391 -0.18284
 H407 H 0.63131 -0.11319 -0.39471
 C408 C 0.34568 0.48218 -0.24610
 C409 C 0.32045 0.47892 -0.30446
 C410 C 0.30317 0.44755 -0.35382
 C411 C 0.30994 0.41795 -0.33926
 C412 C 0.33554 0.42132 -0.27971
 C413 C 0.35395 0.45405 -0.23424
 C414 C 0.34261 0.39202 -0.26954
 N415 N 0.32419 0.36105 -0.31395
 N416 N 0.29932 0.35742 -0.36795
 C417 C 0.29148 0.38468 -0.38193
 H418 H 0.35985 0.50745 -0.21206
 H419 H 0.31644 0.50220 -0.31531
 H420 H 0.36250 0.39333 -0.22676
 H421 H 0.27069 0.38001 -0.42574
 C422 C 1.10065 0.67719 -0.26148
 C423 C 1.12190 0.69971 -0.32447
 C424 C 1.15320 0.69921 -0.34965
 C425 C 1.16325 0.67539 -0.30952
 C426 C 1.14122 0.65213 -0.24627
 C427 C 1.10933 0.65256 -0.22372
 C428 C 1.15140 0.62837 -0.20863
 N429 N 1.18122 0.62740 -0.23419
 N430 N 1.20140 0.64845 -0.29499
 C431 C 1.19338 0.67216 -0.33380
 H432 H 1.07597 0.67730 -0.24594
 H433 H 1.11342 0.71715 -0.35521
 H434 H 1.13598 0.61063 -0.15899
 H435 H 1.21052 0.68796 -0.38364
 C436 C 0.90757 0.58580 -0.25988
 C437 C 0.88668 0.58850 -0.32243
 C438 C 0.85565 0.55781 -0.35001
 C439 C 0.84555 0.52353 -0.31285
 C440 C 0.86715 0.52086 -0.24990
 C441 C 0.89881 0.55212 -0.22490
 C442 C 0.85674 0.48658 -0.21492
 N443 N 0.82724 0.45687 -0.24288
 N444 N 0.80756 0.45909 -0.30360
 C445 C 0.81576 0.49122 -0.33983
 H446 H 0.93204 0.60980 -0.24249
 H447 H 0.89525 0.61471 -0.35092
 H448 H 0.87170 0.48315 -0.16542
 H449 H 0.79905 0.49101 -0.38974
 C450 C 0.42461 0.33399 -0.28936
 C451 C 0.42159 0.30986 -0.35201
 C452 C 0.44957 0.30224 -0.36894
 C453 C 0.48073 0.31828 -0.31963
 C454 C 0.48354 0.34246 -0.25515
 C455 C 0.45567 0.35108 -0.24194
 C456 C 0.51426 0.35720 -0.20571
 N457 N 0.54051 0.34843 -0.22077
 N458 N 0.53828 0.32641 -0.28259
 C459 C 0.50946 0.31130 -0.33298
 H460 H 0.40319 0.34060 -0.28020
 H461 H 0.39762 0.29777 -0.38924
 H462 H 0.51745 0.37531 -0.15488
 H463 H 0.50911 0.29371 -0.38235
 C464 C 0.63152 0.13956 -0.26121
 C465 C 0.65444 0.16410 -0.31907
 C466 C 0.68628 0.16436 -0.34110
 C467 C 0.69600 0.14047 -0.30119
 C468 C 0.67258 0.11518 -0.24235
 C469 C 0.63963 0.11444 -0.22332
 C470 C 0.68233 0.09030 -0.20867
 N471 N 0.71361 0.09157 -0.23064
 N472 N 0.73568 0.11564 -0.28475
 C473 C 0.72786 0.13998 -0.32109
 H474 H 0.60650 0.13935 -0.24801
 H475 H 0.64639 0.18181 -0.35012
 H476 H 0.66550 0.06950 -0.16601
 H477 H 0.74660 0.15867 -0.36525
 C478 C 1.12911 0.51461 -0.26834
 C479 C 1.15070 0.51272 -0.33005
 C480 C 1.15057 0.47999 -0.34860
 C481 C 1.12847 0.44846 -0.30173
 C482 C 1.10610 0.45031 -0.23851
 C483 C 1.10582 0.48372 -0.22356
 C484 C 1.08340 0.41801 -0.19645
 N485 N 1.08320 0.38645 -0.21623
 N486 N 1.10370 0.38466 -0.27600
 C487 C 1.12598 0.41438 -0.31985
 H488 H 1.12944 0.54036 -0.25810
 H489 H 1.16706 0.53699 -0.36548
 H490 H 1.06554 0.41696 -0.14846
 H491 H 1.14120 0.41086 -0.36896
 C492 C 0.49432 0.62146 -0.26824
 C493 C 0.49720 0.64538 -0.32992
 C494 C 0.52985 0.67610 -0.34705
 C495 C 0.56028 0.68323 -0.29869
 C496 C 0.55739 0.65856 -0.23541
 C497 C 0.52408 0.62671 -0.22205
 C498 C 0.58860 0.66586 -0.19166
 N499 N 0.62009 0.69545 -0.21007
 N500 N 0.62284 0.71810 -0.27001
 C501 C 0.59421 0.71284 -0.31537
 H502 H 0.46867 0.59747 -0.25918
 H503 H 0.47376 0.63928 -0.36642
 H504 H 0.58886 0.64864 -0.14331
 H505 H 0.59846 0.73171 -0.36453
 C506 C 0.38799 -0.13001 -0.26860
 C507 C 0.36536 -0.15165 -0.33046
 C508 C 0.33379 -0.15065 -0.34905
 C509 C 0.32489 -0.12709 -0.30281
 C510 C 0.34819 -0.10478 -0.23936
 C511 C 0.38037 -0.10604 -0.22326
 C512 C 0.33939 -0.08036 -0.19838
 N513 N 0.30954 -0.07862 -0.21916
 N514 N 0.28808 -0.09908 -0.27907
 C515 C 0.29490 -0.12285 -0.32211
 H516 H 0.41250 -0.13113 -0.25788
 H517 H 0.37296 -0.16897 -0.36556
 H518 H 0.35586 -0.06211 -0.15096
 H519 H 0.27702 -0.13768 -0.37176
 C520 C 0.52654 -0.12334 0.26268
 C521 C 0.52928 -0.14622 0.32051
 C522 C 0.56231 -0.13772 0.35537
 C523 C 0.59348 -0.10672 0.32769
 C524 C 0.59074 -0.08331 0.26881
 C525 C 0.55668 -0.09142 0.23775
 C526 C 0.62211 -0.05165 0.24660
 N527 N 0.65392 -0.04474 0.27954
 N528 N 0.65648 -0.06709 0.33368
 C529 C 0.62736 -0.09777 0.35905
 H530 H 0.50039 -0.12985 0.23950
 H531 H 0.50515 -0.16960 0.34184
 H532 H 0.62182 -0.03220 0.20387
 H533 H 0.63091 -0.11495 0.40331
 C534 C 0.35520 0.48557 0.26044
 C535 C 0.33061 0.48400 0.31892
 C536 C 0.30447 0.45053 0.34907
 C537 C 0.30175 0.41792 0.31647
 C538 C 0.32675 0.41940 0.25677
 C539 C 0.35412 0.45373 0.22992
 C540 C 0.32446 0.38634 0.22973
 N541 N 0.29828 0.35432 0.25896
 N542 N 0.27447 0.35304 0.31392
 C543 C 0.27538 0.38373 0.34388
 H544 H 0.37613 0.51196 0.24106
 H545 H 0.33326 0.50913 0.34442
 H546 H 0.34322 0.38542 0.18636
 H547 H 0.25549 0.38119 0.38872
 C548 C 1.10625 0.68165 0.25257
 C549 C 1.12718 0.70420 0.31625
 C550 C 1.15334 0.69812 0.35365
 C551 C 1.16006 0.67022 0.32332
 C552 C 1.13898 0.64751 0.25843
 C553 C 1.11084 0.65234 0.22559
 C554 C 1.14652 0.62023 0.22908
 N555 N 1.17293 0.61573 0.26401
 N556 N 1.19220 0.63655 0.32634
 C557 C 1.18662 0.66352 0.35739
 H558 H 1.08468 0.68551 0.22847
 H559 H 1.12186 0.72549 0.33909
 H560 H 1.13198 0.60275 0.17808
 H561 H 1.20308 0.67949 0.40812
 C562 C 0.42089 0.09052 0.22995
 C563 C 0.40227 0.09858 0.29187
 C564 C 0.41167 0.09949 0.37525
 C565 C 0.43652 0.08699 0.39137
 C566 C 0.46231 0.09254 0.33310
 C567 C 0.45202 0.08814 0.24974
 C568 C 0.49660 0.10233 0.36329
 N569 N 0.50209 0.10447 0.44679
 C570 C 0.44090 0.07349 0.46579
 H571 H 0.41160 0.08712 0.16701
 H572 H 0.38102 0.10437 0.27476
 H573 H 0.51924 0.11120 0.32224
 H574 H 0.41805 0.05538 0.50221
 C575 C 0.64983 0.54605 0.24454
 C576 C 0.67446 0.55127 0.30641
 C577 C 0.67240 0.52167 0.35031
 C578 C 0.64657 0.48596 0.32755
 C579 C 0.62130 0.48063 0.26538
 C580 C 0.62214 0.51113 0.22601
 C581 C 0.59598 0.44474 0.24468
 N582 N 0.59595 0.41637 0.28445
 N583 N 0.61959 0.42143 0.34313
 C584 C 0.64491 0.45520 0.36591
 H585 H 0.65093 0.56968 0.21507
 H586 H 0.69406 0.57873 0.32324
 H587 H 0.57662 0.43889 0.19639
 H588 H 0.66382 0.45772 0.41293
 C589 C 0.87204 0.39205 0.27169
 C590 C 0.84911 0.36887 0.33145
 C591 C 0.85114 0.33794 0.35545
 C592 C 0.87568 0.32927 0.31543
 C593 C 0.89928 0.35296 0.25443
 C594 C 0.89784 0.38519 0.23376
 C595 C 0.92466 0.34430 0.22017
 N596 N 0.92558 0.31379 0.24392
 N597 N 0.90321 0.29151 0.30030
 C598 C 0.87846 0.29830 0.33717
 H599 H 0.87060 0.41651 0.25728
 H600 H 0.83078 0.37608 0.36222
 H601 H 0.94406 0.36132 0.17541
 H602 H 0.86123 0.27946 0.38318
   
