data_POSCAR
  _audit_creation_date              2014-09-24
  _audit_creation_method            'ToBaCCo'
  _symmetry_space_group_name_H-M    'P1'
  _symmetry_Int_Tables_number       1
  _symmetry_cell_setting            triclinic
  loop_
  _symmetry_equiv_pos_as_xyz
 x,y,z
_cell_length_a 44.3702
_cell_length_b 44.3128
_cell_length_c 44.6855
_cell_angle_alpha 89.813500
_cell_angle_beta 89.858600
_cell_angle_gamma 89.921100
loop_
  _atom_site_label
  _atom_site_type_symbol
  _atom_site_fract_x
  _atom_site_fract_y
  _atom_site_fract_z
N1 N 0.29915 0.38345 1.36124
 N2 N 0.29715 0.35909 1.37794
 C3 C 0.27228 0.36079 1.39509
 C4 C 0.25804 0.38813 1.38940
 C5 C 0.27604 0.40202 1.36784
 H6 H 0.26578 0.34376 1.41122
 H7 H 0.27225 0.42350 1.35694
 Cu8 Cu 0.32855 0.32861 1.37749
 Cu9 Cu 0.33119 0.38806 1.33141
 Cu10 Cu 0.36264 0.31887 1.31171
 N11 N 0.35742 0.29629 1.37161
 N12 N 0.36976 0.29154 1.34531
 C13 C 0.38711 0.26662 1.34676
 C14 C 0.38623 0.25550 1.37592
 C15 C 0.36704 0.27513 1.39097
 H16 H 0.40004 0.25797 1.32812
 H17 H 0.35977 0.27374 1.41402
 N18 N 0.36493 0.35523 1.28618
 N19 N 0.35410 0.38181 1.29405
 C20 C 0.36114 0.40221 1.27273
 C21 C 0.37743 0.38782 1.25038
 C22 C 0.37924 0.35801 1.25978
 H23 H 0.35519 0.42585 1.27373
 H24 H 0.39055 0.33961 1.24858
 H25 H 0.32481 0.34369 1.32508
 H26 H 0.36210 0.35330 1.34166
 N27 N 1.20638 0.62695 0.85990
 N28 N 1.20416 0.64662 0.88172
 C29 C 1.22756 0.64270 0.90059
 C30 C 1.24538 0.61932 0.88990
 C31 C 1.23108 0.60992 0.86406
 H32 H 1.23149 0.65601 0.92042
 H33 H 1.23779 0.59170 0.84948
 Cu34 Cu 1.17094 0.67541 0.88265
 Cu35 Cu 1.17693 0.62409 0.82793
 Cu36 Cu 1.11625 0.67337 0.83050
 N37 N 1.13747 0.70388 0.88300
 N38 N 1.11600 0.70278 0.86286
 C39 C 1.09642 0.72550 0.86769
 C40 C 1.10615 0.74208 0.89221
 C41 C 1.13233 0.72738 0.90131
 H42 H 1.07708 0.72998 0.85373
 H43 H 1.14701 0.73347 0.91953
 N44 N 1.12093 0.64214 0.79942
 N45 N 1.14479 0.62440 0.79775
 C46 C 1.14236 0.60678 0.77340
 C47 C 1.11555 0.61347 0.75924
 C48 C 1.10245 0.63591 0.77636
 H49 H 1.15857 0.58986 0.76670
 H50 H 1.08131 0.64723 0.77194
 H51 H 1.16242 0.66861 0.82922
 H52 H 1.14107 0.64083 0.85254
 N53 N 0.70641 -0.12936 0.13953
 N54 N 0.70429 -0.14905 0.11774
 C55 C 0.72788 -0.14535 0.09895
 C56 C 0.74573 -0.12212 0.10972
 C57 C 0.73124 -0.11256 0.13547
 H58 H 0.73194 -0.15872 0.07916
 H59 H 0.73792 -0.09436 0.15005
 Cu60 Cu 0.67090 -0.17756 0.11696
 Cu61 Cu 0.67676 -0.12615 0.17142
 Cu62 Cu 0.61560 -0.17466 0.16861
 N63 N 0.63701 -0.20541 0.11613
 N64 N 0.61534 -0.20399 0.13615
 C65 C 0.59552 -0.22639 0.13119
 C66 C 0.60529 -0.24309 0.10671
 C67 C 0.63175 -0.22879 0.09775
 H68 H 0.57599 -0.23058 0.14506
 H69 H 0.64656 -0.23514 0.07964
 N70 N 0.62037 -0.14355 0.19976
 N71 N 0.64438 -0.12610 0.20148
 C72 C 0.64198 -0.10850 0.22585
 C73 C 0.61505 -0.11490 0.23999
 C74 C 0.60182 -0.13714 0.22282
 H75 H 0.65833 -0.09180 0.23260
 H76 H 0.58056 -0.14822 0.22722
 H77 H 0.66174 -0.17045 0.17028
 H78 H 0.64098 -0.14252 0.14667
 N79 N -0.20347 1.11912 -0.35819
 N80 N -0.20212 1.14112 -0.37796
 C81 C -0.22503 1.13819 -0.39743
 C82 C -0.24132 1.11278 -0.38972
 C83 C -0.22695 1.10111 -0.36479
 H84 H -0.22957 1.15337 -0.41588
 H85 H -0.23377 1.08164 -0.35180
 Cu86 Cu -0.17083 1.17171 -0.37680
 Cu87 Cu -0.17649 1.11719 -0.32391
 Cu88 Cu -0.12556 1.17587 -0.31668
 N89 N -0.14159 1.20399 -0.37217
 N90 N -0.12537 1.20661 -0.34780
 C91 C -0.10808 1.23145 -0.34997
 C92 C -0.11326 1.24500 -0.37756
 C93 C -0.13475 1.22676 -0.39099
 H94 H -0.09196 1.23827 -0.33323
 H95 H -0.14519 1.23007 -0.41257
 N96 N -0.12869 1.14257 -0.28765
 N97 N -0.14745 1.11972 -0.29066
 C98 C -0.14341 1.10041 -0.26760
 C99 C -0.12103 1.11171 -0.24918
 C100 C -0.11225 1.13842 -0.26275
 H101 H -0.15608 1.07985 -0.26427
 H102 H -0.09474 1.15354 -0.25535
 H103 H -0.17026 1.16328 -0.32289
 H104 H -0.14093 1.14054 -0.34283
 N105 N 0.70553 0.62629 0.64087
 N106 N 0.70323 0.64578 0.61878
 C107 C 0.72676 0.64198 0.59997
 C108 C 0.74476 0.61886 0.61098
 C109 C 0.73041 0.60948 0.63694
 H110 H 0.73073 0.65528 0.58003
 H111 H 0.73725 0.59145 0.65179
 Cu112 Cu 0.66984 0.67434 0.61785
 Cu113 Cu 0.67606 0.62356 0.67307
 Cu114 Cu 0.61528 0.67288 0.67019
 N115 N 0.63640 0.70277 0.61690
 N116 N 0.61505 0.70204 0.63734
 C117 C 0.59572 0.72499 0.63245
 C118 C 0.60554 0.74115 0.60767
 C119 C 0.63139 0.72621 0.59836
 H120 H 0.57663 0.73019 0.64661
 H121 H 0.64585 0.73227 0.57982
 N122 N 0.62001 0.64183 0.70167
 N123 N 0.64386 0.62406 0.70340
 C124 C 0.64140 0.60653 0.72793
 C125 C 0.61460 0.61330 0.74216
 C126 C 0.60152 0.63570 0.72488
 H127 H 0.65757 0.58959 0.73471
 H128 H 0.58037 0.64701 0.72927
 H129 H 0.64003 0.64004 0.64867
 H130 H 0.66141 0.66798 0.67141
 N131 N 0.79618 0.38033 0.14481
 N132 N 0.79672 0.35774 0.12581
 C133 C 0.77334 0.36047 0.10683
 C134 C 0.75756 0.38635 0.11406
 C135 C 0.77274 0.39850 0.13820
 H136 H 0.76818 0.34493 0.08897
 H137 H 0.76658 0.41851 0.15060
 Cu138 Cu 0.82789 0.32694 0.12743
 Cu139 Cu 0.82439 0.38305 0.17813
 Cu140 Cu 0.87729 0.32562 0.18416
 N141 N 0.85847 0.29563 0.13059
 N142 N 0.87691 0.29450 0.15353
 C143 C 0.89512 0.27034 0.15068
 C144 C 0.88796 0.25580 0.12431
 C145 C 0.86464 0.27247 0.11210
 H146 H 0.91284 0.26427 0.16615
 H147 H 0.85292 0.26785 0.09144
 N148 N 0.87440 0.35916 0.21281
 N149 N 0.85474 0.38140 0.21037
 C150 C 0.85879 0.40070 0.23331
 C151 C 0.88210 0.39004 0.25107
 C152 C 0.89143 0.36372 0.23721
 H153 H 0.84540 0.42072 0.23713
 H154 H 0.90953 0.34901 0.24422
 H155 H 0.85925 0.35982 0.15800
 H156 H 0.83205 0.33724 0.18081
 N157 N 0.29547 0.12022 0.85490
 N158 N 0.29549 0.14310 0.87357
 C159 C 0.27216 0.14021 0.89268
 C160 C 0.25691 0.11397 0.88585
 C161 C 0.27238 0.10175 0.86183
 H162 H 0.26667 0.15588 0.91037
 H163 H 0.26665 0.08146 0.84973
 Cu164 Cu 0.32606 0.17438 0.87132
 Cu165 Cu 0.32388 0.11744 0.82159
 Cu166 Cu 0.37718 0.17443 0.81593
 N167 N 0.35757 0.20476 0.86918
 N168 N 0.37674 0.20537 0.84672
 C169 C 0.39548 0.22898 0.85008
 C170 C 0.38791 0.24370 0.87627
 C171 C 0.36380 0.22769 0.88788
 H172 H 0.41377 0.23458 0.83503
 H173 H 0.35157 0.23265 0.90825
 N174 N 0.37426 0.14109 0.78710
 N175 N 0.35445 0.11902 0.78938
 C176 C 0.35845 0.09990 0.76625
 C177 C 0.38187 0.11053 0.74854
 C178 C 0.39133 0.13662 0.76262
 H179 H 0.34492 0.08006 0.76223
 H180 H 0.40950 0.15125 0.75566
 H181 H 0.35820 0.14078 0.84220
 H182 H 0.33185 0.16307 0.81824
 N183 N 0.20616 0.87479 0.35994
 N184 N 0.20386 0.85536 0.38208
 C185 C 0.22737 0.85916 0.40079
 C186 C 0.24537 0.88222 0.38964
 C187 C 0.23102 0.89156 0.36372
 H188 H 0.23131 0.84593 0.42076
 H189 H 0.23787 0.90951 0.34878
 Cu190 Cu 0.17044 0.82692 0.38328
 Cu191 Cu 0.17675 0.87755 0.32785
 Cu192 Cu 0.11584 0.82864 0.33123
 N193 N 0.13680 0.79879 0.38451
 N194 N 0.11545 0.79968 0.36418
 C195 C 0.09597 0.77694 0.36921
 C196 C 0.10566 0.76074 0.39396
 C197 C 0.13162 0.77544 0.40312
 H198 H 0.07691 0.77185 0.35509
 H199 H 0.14606 0.76925 0.42158
 N200 N 0.12070 0.85945 0.29960
 N201 N 0.14458 0.87709 0.29766
 C202 C 0.14218 0.89447 0.27303
 C203 C 0.11537 0.88772 0.25897
 C204 C 0.10225 0.86550 0.27643
 H205 H 0.15840 0.91128 0.26606
 H206 H 0.08109 0.85423 0.27220
 H207 H 0.14077 0.86136 0.35258
 H208 H 0.16202 0.83323 0.32976
 Zn209 Zn -0.01529 1.00612 0.04120
 Zn210 Zn 0.03878 0.98514 0.00855
 Zn211 Zn -0.02232 0.97830 -0.01972
 Zn212 Zn 0.00601 1.03956 -0.01215
 O213 O 0.00168 1.00219 0.00434
 O214 O 0.00748 0.99131 0.07060
 O215 O 0.04126 0.95013 -0.01024
 O216 O -0.05578 0.96515 -0.00039
 O217 O 0.04861 0.97691 0.04662
 O218 O -0.04975 0.98622 0.04399
 O219 O -0.00293 0.94461 -0.03237
 O220 O -0.01425 1.04288 -0.04614
 O221 O 0.06844 1.00760 -0.00681
 O222 O -0.03533 0.99818 -0.05278
 O223 O 0.04433 1.04879 -0.02134
 O224 O -0.00821 1.06927 0.01102
 O225 O -0.02376 1.04433 0.05106
 C226 C 0.03357 0.97963 0.07064
 C227 C 0.02346 0.93503 -0.02649
 C228 C -0.06477 0.96983 0.02625
 C229 C -0.03065 1.02521 -0.06130
 C230 C 0.06845 1.03356 -0.01884
 C231 C -0.02031 1.06886 0.03677
 Zn232 Zn 0.48595 0.00752 0.45643
 Zn233 Zn 0.47862 -0.02064 0.51741
 Zn234 Zn 0.53979 -0.01393 0.48902
 Zn235 Zn 0.50730 0.04052 0.50976
 O236 O 0.50280 0.00328 0.49328
 O237 O 0.45125 -0.01197 0.45385
 O238 O 0.49783 -0.05444 0.53020
 O239 O 0.54945 -0.02254 0.45101
 O240 O 0.44510 -0.03341 0.49821
 O241 O 0.50857 -0.00761 0.42703
 O242 O 0.54226 -0.04871 0.50839
 O243 O 0.54570 0.04964 0.51860
 O244 O 0.46571 -0.00090 0.55052
 O245 O 0.56958 0.00846 0.50386
 O246 O 0.48717 0.04369 0.54394
 O247 O 0.49311 0.07036 0.48668
 O248 O 0.47787 0.04587 0.44645
 C249 C 0.43609 -0.02836 0.47165
 C250 C 0.52440 -0.06383 0.52474
 C251 C 0.53446 -0.01971 0.42702
 C252 C 0.56975 0.03435 0.51585
 C253 C 0.47065 0.02599 0.55914
 C254 C 0.48121 0.07023 0.46089
 Zn255 Zn 1.00692 0.46069 0.48905
 Zn256 Zn 1.03944 0.51489 0.50989
 Zn257 Zn 0.97825 0.52195 0.48175
 Zn258 Zn 0.98561 0.49353 0.54264
 O259 O 1.00243 0.49786 0.50570
 O260 O 1.04532 0.45135 0.48013
 O261 O 1.04181 0.54986 0.49095
 O262 O 0.96545 0.50244 0.44846
 O263 O 1.06916 0.49264 0.49445
 O264 O 0.98700 0.45784 0.45488
 O265 O 0.99746 0.55587 0.46923
 O266 O 0.95098 0.51324 0.54550
 O267 O 1.04928 0.52302 0.54793
 O268 O 0.94468 0.53466 0.50116
 O269 O 1.00833 0.50826 0.57204
 O270 O 0.97729 0.45518 0.55238
 O271 O 0.99233 0.43084 0.51186
 C272 C 1.06930 0.46672 0.48253
 C273 C 1.02397 0.56519 0.47481
 C274 C 0.97052 0.47558 0.43973
 C275 C 0.93575 0.52964 0.52780
 C276 C 1.03431 0.52012 0.57199
 C277 C 0.98037 0.43094 0.53766
 Zn278 Zn 0.48467 0.49227 0.95962
 Zn279 Zn 0.53843 0.51359 0.99201
 Zn280 Zn 0.47716 0.52036 1.02038
 Zn281 Zn 0.50600 0.45917 1.01320
 O282 O 0.50145 0.49644 0.99644
 O283 O 0.50731 0.50723 0.93006
 O284 O 0.54060 0.54867 1.01061
 O285 O 0.44352 0.53305 1.00110
 O286 O 0.54828 0.52183 0.95391
 O287 O 0.44996 0.51178 0.95683
 O288 O 0.49622 0.55433 1.03261
 O289 O 0.48604 0.45610 1.04752
 O290 O 0.56823 0.49133 1.00734
 O291 O 0.46448 0.50071 1.05377
 O292 O 0.54442 0.45007 1.02208
 O293 O 0.49182 0.42927 0.99030
 O294 O 0.47666 0.45398 0.94999
 C295 C 0.53328 0.51908 0.92994
 C296 C 0.52261 0.56390 1.02667
 C297 C 0.43465 0.52809 0.97450
 C298 C 0.46960 0.47387 1.06267
 C299 C 0.56843 0.46540 1.01942
 C300 C 0.48000 0.42954 0.96447
 C301 C 1.17853 0.42134 0.42978
 C302 C 1.19741 0.44124 0.41403
 C303 C 1.22348 0.43001 0.40012
 C304 C 1.23142 0.39923 0.40275
 C305 C 1.21223 0.37975 0.41914
 C306 C 1.18557 0.39058 0.43221
 C307 C 1.15077 0.43294 0.44392
 C308 C 1.13120 0.41282 0.45860
 C309 C 1.10439 0.42388 0.47127
 C310 C 1.09776 0.45492 0.47011
 C311 C 1.11795 0.47485 0.45589
 C312 C 1.14425 0.46390 0.44229
 C313 C 1.16569 0.37120 0.44748
 C314 C 1.13884 0.38208 0.46023
 C315 C 1.18995 0.47204 0.41266
 C316 C 1.16395 0.48322 0.42676
 H317 H 1.17080 0.34735 0.44940
 H318 H 1.12401 0.36632 0.47156
 H319 H 1.20440 0.48768 0.40070
 H320 H 1.15908 0.50715 0.42526
 H321 H 1.23792 0.44559 0.38811
 H322 H 1.21735 0.35594 0.42110
 H323 H 1.08889 0.40852 0.48228
 H324 H 1.11268 0.49872 0.45463
 C325 C 0.32617 0.58128 0.92692
 C326 C 0.31837 0.57530 0.89711
 C327 C 0.29217 0.58812 0.88523
 C328 C 0.27353 0.60674 0.90286
 C329 C 0.28184 0.61276 0.93273
 C330 C 0.30818 0.60001 0.94488
 C331 C 0.35372 0.56761 0.93951
 C332 C 0.36172 0.57351 0.96932
 C333 C 0.38812 0.56044 0.98108
 C334 C 0.40630 0.54162 0.96310
 C335 C 0.39766 0.53599 0.93328
 C336 C 0.37154 0.54890 0.92140
 C337 C 0.31686 0.60542 0.97464
 C338 C 0.34316 0.59242 0.98664
 C339 C 0.33687 0.55651 0.87970
 C340 C 0.36301 0.54351 0.89166
 H341 H 0.30321 0.61982 0.98879
 H342 H 0.34901 0.59722 1.00966
 H343 H 0.33106 0.55176 0.85666
 H344 H 0.37667 0.52912 0.87749
 H345 H 0.28652 0.58361 0.86213
 H346 H 0.26771 0.62693 0.94663
 H347 H 0.39454 0.56499 1.00401
 H348 H 0.41136 0.52164 0.91910
 C349 C -0.17305 0.91567 0.07333
 C350 C -0.18084 0.92103 0.10330
 C351 C -0.20714 0.90820 0.11498
 C352 C -0.22591 0.89022 0.09698
 C353 C -0.21759 0.88473 0.06698
 C354 C -0.19114 0.89750 0.05502
 C355 C -0.14547 0.92946 0.06092
 C356 C -0.13752 0.92425 0.03093
 C357 C -0.11114 0.93753 0.01931
 C358 C -0.09296 0.95591 0.03760
 C359 C -0.10152 0.96080 0.06761
 C360 C -0.12760 0.94766 0.07936
 C361 C -0.18247 0.89272 0.02510
 C362 C -0.15612 0.90584 0.01328
 C363 C -0.16227 0.93927 0.12105
 C364 C -0.13609 0.95239 0.10927
 H365 H -0.19618 0.87875 0.01069
 H366 H -0.15030 0.90157 -0.00989
 H367 H -0.16807 0.94353 0.14423
 H368 H -0.12240 0.96638 0.12369
 H369 H -0.21280 0.91224 0.13820
 H370 H -0.23183 0.87104 0.05284
 H371 H -0.10478 0.93355 -0.00378
 H372 H -0.08780 0.97478 0.08203
 C373 C 0.67899 0.07955 0.56811
 C374 C 0.70001 0.05902 0.57995
 C375 C 0.72593 0.07005 0.59407
 C376 C 0.73122 0.10129 0.59566
 C377 C 0.71016 0.12157 0.58328
 C378 C 0.68375 0.11081 0.56983
 C379 C 0.65135 0.06809 0.55386
 C380 C 0.62977 0.08860 0.54304
 C381 C 0.60307 0.07754 0.53036
 C382 C 0.59833 0.04624 0.52786
 C383 C 0.62053 0.02603 0.53822
 C384 C 0.64690 0.03682 0.55164
 C385 C 0.66189 0.13065 0.55831
 C386 C 0.63526 0.11973 0.54533
 C387 C 0.69468 0.02789 0.57740
 C388 C 0.66866 0.01698 0.56331
 H389 H 0.66527 0.15482 0.55958
 H390 H 0.61885 0.13580 0.53700
 H391 H 0.71077 0.01183 0.58633
 H392 H 0.66541 -0.00720 0.56180
 H393 H 0.74223 0.05438 0.60336
 H394 H 0.71401 0.14567 0.58473
 H395 H 0.58608 0.09319 0.52235
 H396 H 0.61685 0.00190 0.53670
 C397 C 0.42988 0.17865 0.41158
 C398 C 0.42872 0.18262 0.38044
 C399 C 0.41486 0.20855 0.36864
 C400 C 0.40120 0.23001 0.38773
 C401 C 0.40260 0.22535 0.41901
 C402 C 0.41718 0.20000 0.43099
 C403 C 0.44428 0.15139 0.42412
 C404 C 0.44581 0.14771 0.45531
 C405 C 0.45909 0.12158 0.46714
 C406 C 0.46990 0.09879 0.44802
 C407 C 0.46824 0.10281 0.41679
 C408 C 0.45575 0.12930 0.40470
 C409 C 0.41919 0.19554 0.46208
 C410 C 0.43344 0.16993 0.47403
 C411 C 0.44106 0.16033 0.36172
 C412 C 0.45414 0.13402 0.37363
 H413 H 0.40961 0.21195 0.47731
 H414 H 0.43442 0.16731 0.49813
 H415 H 0.44027 0.16305 0.33763
 H416 H 0.46300 0.11722 0.35839
 H417 H 0.41390 0.21128 0.34458
 H418 H 0.39297 0.24162 0.43430
 H419 H 0.45998 0.11845 0.49120
 H420 H 0.47662 0.08535 0.40198
 C421 C 0.92837 0.32278 0.58651
 C422 C 0.91243 0.30336 0.56754
 C423 C 0.89822 0.27786 0.57967
 C424 C 0.90062 0.27101 0.61049
 C425 C 0.91729 0.29064 0.62904
 C426 C 0.93071 0.31678 0.61725
 C427 C 0.94267 0.35006 0.57394
 C428 C 0.95744 0.37026 0.59312
 C429 C 0.97001 0.39676 0.58117
 C430 C 0.96864 0.40250 0.55021
 C431 C 0.95448 0.38162 0.53121
 C432 C 0.94097 0.35561 0.54304
 C433 C 0.94619 0.33721 0.63566
 C434 C 0.95910 0.36362 0.62384
 C435 C 0.91108 0.30978 0.53675
 C436 C 0.92531 0.33534 0.52467
 H437 H 0.94808 0.33290 0.65946
 H438 H 0.97052 0.37894 0.63887
 H439 H 0.89897 0.29488 0.52184
 H440 H 0.92375 0.33944 0.50081
 H441 H 0.88610 0.26303 0.56476
 H442 H 0.91914 0.28630 0.65281
 H443 H 0.98095 0.41281 0.59582
 H444 H 0.95303 0.38622 0.50741
 C445 C 0.06904 0.82240 -0.07228
 C446 C 0.05419 0.80784 -0.09581
 C447 C 0.06635 0.78099 -0.10741
 C448 C 0.09328 0.76857 -0.09562
 C449 C 0.10743 0.78357 -0.07159
 C450 C 0.09557 0.81041 -0.06003
 C451 C 0.05676 0.85091 -0.06038
 C452 C 0.07203 0.86560 -0.03717
 C453 C 0.06072 0.89290 -0.02628
 C454 C 0.03423 0.90569 -0.03825
 C455 C 0.01887 0.89047 -0.06129
 C456 C 0.03021 0.86307 -0.07257
 C457 C 0.10999 0.82566 -0.03659
 C458 C 0.09844 0.85282 -0.02538
 C459 C 0.02758 0.82058 -0.10740
 C460 C 0.01578 0.84768 -0.09596
 H461 H 0.13050 0.81662 -0.02694
 H462 H 0.11036 0.86397 -0.00741
 H463 H 0.01582 0.80957 -0.12556
 H464 H -0.00471 0.85674 -0.10562
 H465 H 0.05471 0.77007 -0.12565
 H466 H 0.12797 0.77489 -0.06185
 H467 H 0.07266 0.90419 -0.00839
 H468 H -0.00150 0.90011 -0.07067
 C469 C 0.56791 0.67681 1.07144
 C470 C 0.59449 0.68862 1.05906
 C471 C 0.60641 0.71542 1.07050
 C472 C 0.59227 0.73055 1.09455
 C473 C 0.56525 0.71836 1.10642
 C474 C 0.55305 0.69154 1.09495
 C475 C 0.55563 0.64828 1.05973
 C476 C 0.52907 0.63625 1.07210
 C477 C 0.51778 0.60879 1.06106
 C478 C 0.53321 0.59338 1.03810
 C479 C 0.55968 0.60606 1.02591
 C480 C 0.57093 0.63341 1.03657
 C481 C 0.52640 0.67896 1.10669
 C482 C 0.51461 0.65183 1.09544
 C483 C 0.60893 0.67321 1.03564
 C484 C 0.59737 0.64604 1.02460
 H485 H 0.51463 0.69010 1.12484
 H486 H 0.49411 0.64289 1.10523
 H487 H 0.62947 0.68211 1.02588
 H488 H 0.60931 0.63475 1.00666
 H489 H 0.62699 0.72396 1.06067
 H490 H 0.55362 0.72938 1.12467
 H491 H 0.49743 0.59923 1.07061
 H492 H 0.57166 0.59462 1.00807
 C493 C 0.41715 0.42590 1.17101
 C494 C 0.42544 0.39682 1.18041
 C495 C 0.41241 0.38467 1.20633
 C496 C 0.39107 0.40125 1.22296
 C497 C 0.38307 0.43053 1.21323
 C498 C 0.39605 0.44295 1.18722
 C499 C 0.43077 0.43867 1.14360
 C500 C 0.42249 0.46773 1.13398
 C501 C 0.43541 0.47959 1.10764
 C502 C 0.45633 0.46241 1.09103
 C503 C 0.46439 0.43338 1.10130
 C504 C 0.45173 0.42143 1.12745
 C505 C 0.38835 0.47200 1.17698
 C506 C 0.40133 0.48417 1.15084
 C507 C 0.44663 0.38035 1.16369
 C508 C 0.45954 0.39245 1.13765
 H509 H 0.37210 0.48544 1.18924
 H510 H 0.39469 0.50661 1.14374
 H511 H 0.45323 0.35789 1.17075
 H512 H 0.47573 0.37896 1.12534
 H513 H 0.41921 0.36235 1.21352
 H514 H 0.36662 0.44357 1.22561
 H515 H 0.42898 0.50191 1.09998
 H516 H 0.48049 0.41988 1.08889
 C517 C 0.58090 -0.07297 0.31918
 C518 C 0.61211 -0.07687 0.31572
 C519 C 0.62316 -0.09051 0.28964
 C520 C 0.60317 -0.10077 0.26747
 C521 C 0.57192 -0.09707 0.27146
 C522 C 0.56066 -0.08285 0.29716
 C523 C 0.56917 -0.05839 0.34644
 C524 C 0.53799 -0.05405 0.34966
 C525 C 0.52693 -0.04039 0.37571
 C526 C 0.54673 -0.03181 0.39875
 C527 C 0.57795 -0.03633 0.39517
 C528 C 0.58933 -0.04937 0.36889
 C529 C 0.52960 -0.07818 0.30125
 C530 C 0.51847 -0.06389 0.32699
 C531 C 0.63162 -0.06718 0.33847
 C532 C 0.62041 -0.05382 0.36468
 H533 H 0.51377 -0.08560 0.28439
 H534 H 0.49435 -0.06073 0.32928
 H535 H 0.65575 -0.07014 0.33608
 H536 H 0.63620 -0.04690 0.38179
 H537 H 0.64723 -0.09358 0.28681
 H538 H 0.55648 -0.10467 0.25432
 H539 H 0.50283 -0.03731 0.37844
 H540 H 0.59331 -0.02972 0.41279
 C541 C -0.08386 1.07405 -0.16866
 C542 C -0.10141 1.05564 -0.18724
 C543 C -0.11389 1.06800 -0.21348
 C544 C -0.10877 1.09851 -0.22112
 C545 C -0.09136 1.11658 -0.20188
 C546 C -0.07881 1.10450 -0.17577
 C547 C -0.07040 1.06123 -0.14126
 C548 C -0.05280 1.07975 -0.12289
 C549 C -0.03993 1.06760 -0.09700
 C550 C -0.04449 1.03709 -0.08915
 C551 C -0.06231 1.01873 -0.10781
 C552 C -0.07532 1.03076 -0.13399
 C553 C -0.06117 1.12232 -0.15671
 C554 C -0.04836 1.11014 -0.13071
 C555 C -0.10591 1.02525 -0.17925
 C556 C -0.09311 1.01303 -0.15308
 H557 H -0.05715 1.14586 -0.16198
 H558 H -0.03483 1.12464 -0.11663
 H559 H -0.11940 1.01075 -0.19335
 H560 H -0.09714 0.98950 -0.14780
 H561 H -0.12712 1.05377 -0.22806
 H562 H -0.08757 1.14015 -0.20701
 H563 H -0.02639 1.08208 -0.08290
 H564 H -0.06603 0.99526 -0.10202
 C565 C 1.08117 0.57210 0.68003
 C566 C 1.06099 0.58212 0.70217
 C567 C 1.07235 0.59611 0.72789
 C568 C 1.10362 0.59944 0.73179
 C569 C 1.12355 0.58901 0.70952
 C570 C 1.11241 0.57562 0.68340
 C571 C 1.06933 0.55783 0.65272
 C572 C 1.08943 0.54872 0.63013
 C573 C 1.07795 0.53599 0.60380
 C574 C 1.04669 0.53188 0.60030
 C575 C 1.02695 0.54054 0.62349
 C576 C 1.03812 0.55389 0.64959
 C577 C 1.13185 0.56582 0.66052
 C578 C 1.12054 0.55276 0.63426
 C579 C 1.02990 0.57784 0.69817
 C580 C 1.01866 0.56382 0.67239
 H581 H 1.15600 0.56847 0.66284
 H582 H 1.13629 0.54576 0.61705
 H583 H 1.01412 0.58536 0.71513
 H584 H 0.99452 0.56097 0.67017
 H585 H 1.05694 0.60383 0.74510
 H586 H 1.14764 0.59179 0.71228
 H587 H 1.09327 0.52933 0.58606
 H588 H 1.00283 0.53777 0.62083
 C589 C 0.82644 0.58190 0.57470
 C590 C 0.80825 0.60017 0.55643
 C591 C 0.78161 0.61255 0.56834
 C592 C 0.77319 0.60661 0.59827
 C593 C 0.79201 0.58845 0.61621
 C594 C 0.81852 0.57601 0.60457
 C595 C 0.85430 0.56861 0.56236
 C596 C 0.87231 0.55034 0.58075
 C597 C 0.89867 0.53769 0.56906
 C598 C 0.90734 0.54313 0.53915
 C599 C 0.88901 0.56157 0.52090
 C600 C 0.86238 0.57437 0.53246
 C601 C 0.83723 0.55769 0.62228
 C602 C 0.86367 0.54505 0.61056
 C603 C 0.81705 0.60550 0.52661
 C604 C 0.84364 0.59284 0.51484
 H605 H 0.83134 0.55302 0.64538
 H606 H 0.87746 0.53099 0.62495
 H607 H 0.80325 0.61955 0.51223
 H608 H 0.84954 0.59752 0.49176
 H609 H 0.76734 0.62636 0.55421
 H610 H 0.78625 0.58402 0.63936
 H611 H 0.91249 0.52364 0.58344
 H612 H 0.89544 0.56597 0.49789
 C613 C 0.67767 0.41986 1.07203
 C614 C 0.68222 0.38857 1.07432
 C615 C 0.70865 0.37773 1.08779
 C616 C 0.72998 0.39794 1.09958
 C617 C 0.72489 0.42922 1.09743
 C618 C 0.69892 0.44033 1.08332
 C619 C 0.65002 0.43140 1.05773
 C620 C 0.64575 0.46268 1.05495
 C621 C 0.61938 0.47356 1.04147
 C622 C 0.59700 0.45343 1.03158
 C623 C 0.60157 0.42211 1.03462
 C624 C 0.62825 0.41096 1.04740
 C625 C 0.69378 0.47147 1.08022
 C626 C 0.66773 0.48245 1.06611
 C627 C 0.66016 0.36881 1.06331
 C628 C 0.63354 0.37981 1.05025
 H629 H 0.71004 0.48748 1.08873
 H630 H 0.66463 0.50664 1.06417
 H631 H 0.66338 0.34462 1.06502
 H632 H 0.61698 0.36379 1.04231
 H633 H 0.71233 0.35361 1.08966
 H634 H 0.74139 0.44485 1.10625
 H635 H 0.61585 0.49770 1.03952
 H636 H 0.58445 0.40652 1.02698
 C637 C 0.17736 1.07987 -0.07173
 C638 C 0.18149 1.11118 -0.07426
 C639 C 0.20781 1.12222 -0.08783
 C640 C 0.22948 1.10216 -0.09949
 C641 C 0.22483 1.07084 -0.09709
 C642 C 0.19895 1.05955 -0.08288
 C643 C 0.14980 1.06812 -0.05735
 C644 C 0.14594 1.03682 -0.05436
 C645 C 0.11964 1.02576 -0.04083
 C646 C 0.09694 1.04572 -0.03106
 C647 C 0.10112 1.07706 -0.03430
 C648 C 0.12771 1.08841 -0.04715
 C649 C 0.19421 1.02838 -0.07956
 C650 C 0.16823 1.01721 -0.06538
 C651 C 0.15911 1.13079 -0.06338
 C652 C 0.13259 1.11959 -0.05023
 H653 H 0.21074 1.01248 -0.08796
 H654 H 0.16546 0.99301 -0.06327
 H655 H 0.16201 1.15499 -0.06526
 H656 H 0.11577 1.13548 -0.04239
 H657 H 0.21115 1.14636 -0.08990
 H658 H 0.24157 1.05533 -0.10581
 H659 H 0.11642 1.00159 -0.03872
 H660 H 0.08376 1.09253 -0.02676
 C661 C 0.32693 -0.08073 0.42544
 C662 C 0.31895 -0.07483 0.39562
 C663 C 0.29249 -0.08732 0.38414
 C664 C 0.27377 -0.10553 0.40218
 C665 C 0.28226 -0.11148 0.43205
 C666 C 0.30886 -0.09906 0.44381
 C667 C 0.35473 -0.06737 0.43762
 C668 C 0.36289 -0.07316 0.46745
 C669 C 0.38948 -0.06032 0.47885
 C670 C 0.40769 -0.04183 0.46050
 C671 C 0.39893 -0.03635 0.43065
 C672 C 0.37261 -0.04903 0.41913
 C673 C 0.31773 -0.10440 0.47356
 C674 C 0.34427 -0.09169 0.48517
 C675 C 0.33752 -0.05643 0.37782
 C676 C 0.36390 -0.04372 0.38938
 H677 H 0.30403 -0.11850 0.48801
 H678 H 0.35024 -0.09640 0.50821
 H679 H 0.33157 -0.05175 0.35476
 H680 H 0.37760 -0.02961 0.37492
 H681 H 0.28669 -0.08288 0.36103
 H682 H 0.26808 -0.12534 0.44626
 H683 H 0.39599 -0.06476 0.50181
 H684 H 0.41267 -0.02225 0.41620
 C685 C 0.56967 -0.17620 0.57211
 C686 C 0.55180 -0.19364 0.59149
 C687 C 0.56346 -0.22081 0.60300
 C688 C 0.59275 -0.23051 0.59516
 C689 C 0.61018 -0.21263 0.57557
 C690 C 0.59881 -0.18554 0.56404
 C691 C 0.55774 -0.14754 0.56011
 C692 C 0.57581 -0.13017 0.54090
 C693 C 0.56456 -0.10297 0.52961
 C694 C 0.53538 -0.09287 0.53725
 C695 C 0.51744 -0.11062 0.55655
 C696 C 0.52859 -0.13803 0.56809
 C697 C 0.61616 -0.16750 0.54472
 C698 C 0.60485 -0.14027 0.53334
 C699 C 0.52271 -0.18345 0.59899
 C700 C 0.51130 -0.15615 0.58748
 H701 H 0.63869 -0.17448 0.53836
 H702 H 0.61897 -0.12699 0.51851
 H703 H 0.50865 -0.19668 0.61391
 H704 H 0.48879 -0.14916 0.59386
 H705 H 0.54968 -0.23436 0.61787
 H706 H 0.63283 -0.21940 0.56956
 H707 H 0.57868 -0.08966 0.51478
 H708 H 0.49499 -0.10311 0.56261
 C709 C 1.06941 0.67807 0.42898
 C710 C 1.09845 0.68731 0.43731
 C711 C 1.10993 0.71446 0.42603
 C712 C 1.09271 0.73246 0.40641
 C713 C 1.06350 0.72289 0.39837
 C714 C 1.05174 0.69567 0.40962
 C715 C 1.05740 0.64931 0.44064
 C716 C 1.02838 0.63988 0.43235
 C717 C 1.01718 0.61233 0.44351
 C718 C 1.03496 0.59439 0.46272
 C719 C 1.06401 0.60442 0.47070
 C720 C 1.07529 0.63175 0.45979
 C721 C 1.02276 0.68558 0.40184
 C722 C 1.01128 0.65819 0.41302
 C723 C 1.11560 0.66910 0.45661
 C724 C 1.10421 0.64177 0.46766
 H725 H 1.00885 0.69895 0.38693
 H726 H 0.98886 0.65126 0.40641
 H727 H 1.13804 0.67599 0.46317
 H728 H 1.11819 0.62834 0.48246
 H729 H 1.13250 0.72115 0.43221
 H730 H 1.04987 0.73654 0.38349
 H731 H 0.99483 0.60487 0.43721
 H732 H 1.07799 0.59098 0.48548
 C733 C -0.07035 1.17719 0.08725
 C734 C -0.08113 1.19990 0.06805
 C735 C -0.09499 1.22549 0.08033
 C736 C -0.09748 1.22872 0.11157
 C737 C -0.08611 1.20600 0.13053
 C738 C -0.07286 1.17995 0.11846
 C739 C -0.05647 1.14987 0.07441
 C740 C -0.04675 1.12663 0.09356
 C741 C -0.03456 1.10023 0.08116
 C742 C -0.03153 1.09730 0.04992
 C743 C -0.04070 1.12115 0.03110
 C744 C -0.05359 1.14732 0.04322
 C745 C -0.06238 1.15646 0.13691
 C746 C -0.04972 1.13017 0.12467
 C747 C -0.07786 1.19652 0.03695
 C748 C -0.06417 1.17075 0.02476
 H749 H -0.06424 1.15828 0.16102
 H750 H -0.04222 1.11245 0.13968
 H751 H -0.08597 1.21394 0.02191
 H752 H -0.06214 1.16902 0.00065
 H753 H -0.10343 1.24307 0.06565
 H754 H -0.08820 1.20829 0.15459
 H755 H -0.02744 1.08198 0.09576
 H756 H -0.03874 1.11891 0.00702
 C757 C 0.43000 0.32162 0.91380
 C758 C 0.41818 0.29934 0.93291
 C759 C 0.40419 0.27396 0.92048
 C760 C 0.40261 0.27050 0.88922
 C761 C 0.41504 0.29278 0.87038
 C762 C 0.42841 0.31863 0.88256
 C763 C 0.44398 0.34876 0.92674
 C764 C 0.45471 0.37160 0.90765
 C765 C 0.46692 0.39789 0.92011
 C766 C 0.46896 0.40109 0.95138
 C767 C 0.45885 0.37761 0.97018
 C768 C 0.44591 0.35157 0.95798
 C769 C 0.43992 0.34170 0.86417
 C770 C 0.45267 0.36782 0.87651
 C771 C 0.42053 0.30295 0.96404
 C772 C 0.43432 0.32854 0.97636
 H773 H 0.43878 0.33968 0.84005
 H774 H 0.46096 0.38524 0.86154
 H775 H 0.41161 0.28586 0.97902
 H776 H 0.43561 0.33048 1.00049
 H777 H 0.39493 0.25671 0.93508
 H778 H 0.41364 0.29034 0.84629
 H779 H 0.47476 0.41586 0.90553
 H780 H 0.46006 0.38010 0.99428
 C781 C 0.58015 0.57173 0.82166
 C782 C 0.55999 0.58182 0.79958
 C783 C 0.57136 0.59592 0.77378
 C784 C 0.60263 0.59928 0.76974
 C785 C 0.62254 0.58881 0.79198
 C786 C 0.61140 0.57531 0.81817
 C787 C 0.56831 0.55730 0.84904
 C788 C 0.58839 0.54809 0.87155
 C789 C 0.57691 0.53519 0.89794
 C790 C 0.54566 0.53100 0.90156
 C791 C 0.52592 0.53977 0.87844
 C792 C 0.53710 0.55329 0.85229
 C793 C 0.63082 0.56543 0.84099
 C794 C 0.61951 0.55221 0.86731
 C795 C 0.52890 0.57748 0.80370
 C796 C 0.51765 0.56332 0.82955
 H797 H 0.65498 0.56812 0.83858
 H798 H 0.63524 0.54515 0.88447
 H799 H 0.51312 0.58506 0.78679
 H800 H 0.49351 0.56041 0.83186
 H801 H 0.55596 0.60368 0.75659
 H802 H 0.64664 0.59162 0.78912
 H803 H 0.59222 0.52845 0.91562
 H804 H 0.50180 0.53695 0.88120
 C805 C 0.41854 0.07370 0.66749
 C806 C 0.40044 0.05534 0.68580
 C807 C 0.38817 0.06742 0.71225
 C808 C 0.39407 0.09760 0.72037
 C809 C 0.41207 0.11562 0.70143
 C810 C 0.42438 0.10382 0.67510
 C811 C 0.43171 0.06118 0.63983
 C812 C 0.44981 0.07967 0.62169
 C813 C 0.46237 0.06780 0.59554
 C814 C 0.45705 0.03760 0.58722
 C815 C 0.43875 0.01928 0.60566
 C816 C 0.42602 0.03102 0.63207
 C817 C 0.44252 0.12162 0.65628
 C818 C 0.45504 0.10973 0.63002
 C819 C 0.39517 0.02526 0.67732
 C820 C 0.40773 0.01333 0.65093
 H821 H 0.44715 0.14491 0.66193
 H822 H 0.46896 0.12420 0.61613
 H823 H 0.38126 0.01081 0.69122
 H824 H 0.40310 -0.00996 0.64528
 H825 H 0.37447 0.05324 0.72661
 H826 H 0.41645 0.13897 0.70694
 H827 H 0.47631 0.08225 0.58163
 H828 H 0.43445 -0.00395 0.59950
 C829 C 0.08077 0.92838 0.17922
 C830 C 0.11204 0.92500 0.18263
 C831 C 0.12326 0.91185 0.20893
 C832 C 0.10339 0.90154 0.23135
 C833 C 0.07210 0.90475 0.22742
 C834 C 0.06066 0.91849 0.20151
 C835 C 0.06884 0.94240 0.15173
 C836 C 0.03760 0.94620 0.14855
 C837 C 0.02634 0.95934 0.12230
 C838 C 0.04603 0.96794 0.09902
 C839 C 0.07731 0.96395 0.10253
 C840 C 0.08887 0.95143 0.12902
 C841 C 0.02954 0.92261 0.19747
 C842 C 0.01821 0.93638 0.17149
 C843 C 0.13141 0.93469 0.15961
 C844 C 0.12001 0.94752 0.13318
 H845 H 0.01381 0.91517 0.21454
 H846 H -0.00595 0.93913 0.16925
 H847 H 0.15558 0.93214 0.16196
 H848 H 0.13571 0.95445 0.11587
 H849 H 0.14737 0.90916 0.21172
 H850 H 0.05674 0.89712 0.24474
 H851 H 0.00220 0.96203 0.11963
 H852 H 0.09258 0.97058 0.08472
 C853 C 0.91881 0.42745 0.33166
 C854 C 0.92491 0.39734 0.32409
 C855 C 0.91261 0.38536 0.29791
 C856 C 0.89435 0.40319 0.27907
 C857 C 0.88823 0.43337 0.28713
 C858 C 0.90048 0.44563 0.31344
 C859 C 0.93194 0.44013 0.35920
 C860 C 0.92596 0.47026 0.36695
 C861 C 0.93861 0.48214 0.39329
 C862 C 0.95709 0.46396 0.41165
 C863 C 0.96273 0.43380 0.40329
 C864 C 0.95025 0.42181 0.37723
 C865 C 0.89495 0.47569 0.32190
 C866 C 0.90745 0.48778 0.34817
 C867 C 0.94328 0.37973 0.34281
 C868 C 0.95576 0.39176 0.36894
 H869 H 0.88086 0.49001 0.30807
 H870 H 0.90260 0.51105 0.35381
 H871 H 0.94812 0.35645 0.33719
 H872 H 0.96985 0.37743 0.38275
 H873 H 0.91719 0.36203 0.29246
 H874 H 0.87434 0.44742 0.27286
 H875 H 0.93406 0.50534 0.39946
 H876 H 0.97682 0.41946 0.41711
   
