data_POSCAR
  _audit_creation_date              2014-09-24
  _audit_creation_method            'ToBaCCo'
  _symmetry_space_group_name_H-M    'P1'
  _symmetry_Int_Tables_number       1
  _symmetry_cell_setting            triclinic
  loop_
  _symmetry_equiv_pos_as_xyz
 x,y,z
_cell_length_a 51.3685
_cell_length_b 51.1449
_cell_length_c 51.5163
_cell_angle_alpha 89.883500
_cell_angle_beta 89.955100
_cell_angle_gamma 89.837300
loop_
  _atom_site_label
  _atom_site_type_symbol
  _atom_site_fract_x
  _atom_site_fract_y
  _atom_site_fract_z
C1 C 0.19079 1.22463 0.19376
 C2 C 0.21319 1.21345 0.18281
 C3 C 0.22443 1.19118 0.19409
 C4 C 0.21332 1.18009 0.21637
 C5 C 0.19093 1.19123 0.22737
 C6 C 0.17969 1.21353 0.21607
 H7 H 0.22168 1.22181 0.16539
 H8 H 0.22192 1.16267 0.22489
 H9 H 0.16218 1.22200 0.22441
 C10 C 0.80916 0.77311 0.19222
 C11 C 0.78682 0.78431 0.18116
 C12 C 0.77545 0.80649 0.19243
 C13 C 0.78638 0.81744 0.21480
 C14 C 0.80870 0.80628 0.22588
 C15 C 0.82007 0.78410 0.21461
 H16 H 0.77847 0.77604 0.16367
 H17 H 0.77776 0.83479 0.22335
 H18 H 0.83753 0.77567 0.22306
 C19 C 0.80634 1.22855 -0.19287
 C20 C 0.81728 1.21741 -0.21522
 C21 C 0.80601 1.19517 -0.22633
 C22 C 0.78375 1.18410 -0.21513
 C23 C 0.77278 1.19520 -0.19281
 C24 C 0.78406 1.21743 -0.18170
 H25 H 0.83470 1.22576 -0.22377
 H26 H 0.77521 1.16670 -0.22355
 H27 H 0.77570 1.22580 -0.16423
 C28 C 0.19415 0.77347 -0.19316
 C29 C 0.18295 0.78472 -0.21536
 C30 C 0.19395 0.80717 -0.22644
 C31 C 0.21619 0.81833 -0.21537
 C32 C 0.22741 0.80712 -0.19320
 C33 C 0.21642 0.78467 -0.18212
 H34 H 0.16555 0.77629 -0.22380
 H35 H 0.22452 0.83588 -0.22377
 H36 H 0.22498 0.77620 -0.16477
 C37 C 0.53970 1.03671 -0.00758
 H38 H 0.54038 1.03654 0.01341
 C39 C 0.55717 1.05210 -0.02161
 H40 H 0.57132 1.06393 -0.01143
 C41 C 0.52091 1.02095 -0.04657
 H42 H 0.50712 1.00840 -0.05622
 C43 C 0.53806 1.03607 -0.06134
 H44 H 0.53726 1.03529 -0.08234
 N45 N 0.52194 1.02166 -0.02016
 C46 C 0.46031 1.00806 0.03652
 H47 H 0.45981 0.98692 0.03644
 C48 C 0.44259 1.02209 0.05166
 H49 H 0.42842 1.01175 0.06338
 C50 C 0.47890 1.04745 0.02080
 H51 H 0.49271 1.05726 0.00835
 C52 C 0.46150 1.06223 0.03565
 H53 H 0.46213 1.08338 0.03478
 Zn54 Zn 0.50019 1.00023 0.00048
 N55 N 0.47809 1.02085 0.02161
 C56 C 0.52124 0.97969 0.04748
 N57 N 0.52229 0.97903 0.02107
 C58 C 0.54029 0.96419 0.00844
 C59 C 0.55800 0.94895 0.02243
 C60 C 0.53862 0.96474 0.06221
 C61 C 0.46046 0.99196 -0.03552
 C62 C 0.44298 0.97773 -0.05063
 C63 C 0.46253 0.93780 -0.03463
 C64 C 0.47968 0.95278 -0.01980
 N65 N 0.47844 0.97936 -0.02062
 H66 H 0.50724 0.99208 0.05717
 H67 H 0.54097 0.96439 -0.01255
 H68 H 0.57234 0.93728 0.01222
 H69 H 0.53780 0.96547 0.08321
 H70 H 0.45961 1.01309 -0.03544
 H71 H 0.42865 0.98791 -0.06234
 H72 H 0.46350 0.91666 -0.03375
 H73 H 0.49364 0.94312 -0.00737
 C74 C 0.44317 1.04941 0.05117
 C75 C 0.55636 1.05174 -0.04873
 C76 C 0.44401 0.95042 -0.05014
 C77 C 0.55718 0.94928 0.04956
 C78 C -0.00674 0.53968 1.03465
 H79 H 0.01431 0.54018 1.03482
 C80 C -0.02092 0.55741 1.04966
 H81 H -0.01080 0.57157 1.06153
 C82 C -0.04573 0.52110 1.01844
 H83 H -0.05533 0.50728 1.00587
 C84 C -0.06066 0.53850 1.03315
 H85 H -0.08171 0.53787 1.03206
 N86 N -0.01926 0.52189 1.01957
 C87 C 0.03735 0.45940 1.00737
 H88 H 0.03759 0.45875 0.98638
 C89 C 0.05221 0.44158 1.02166
 H90 H 0.06403 0.42718 1.01168
 C91 C 0.02109 0.47847 1.04609
 H92 H 0.00855 0.49251 1.05554
 C93 C 0.03565 0.46098 1.06112
 H94 H 0.03447 0.46177 1.08210
 Zn95 Zn 0.00160 0.49971 0.99875
 N96 N 0.02232 0.47747 1.01971
 C97 C 0.04919 0.52033 0.97908
 N98 N 0.02273 0.52158 0.97792
 C99 C 0.01043 0.53966 0.96286
 C100 C 0.02482 0.55725 0.94791
 C101 C 0.06433 0.53759 0.96443
 C102 C -0.03468 0.46013 0.99023
 C103 C -0.04985 0.44267 0.97600
 C104 C -0.03312 0.46186 0.93648
 C105 C -0.01825 0.47899 0.95145
 N106 N -0.01942 0.47793 0.97784
 H107 H 0.05861 0.50628 0.99164
 H108 H -0.01062 0.54051 0.96266
 H109 H 0.01486 0.57167 0.93607
 H110 H 0.08536 0.53662 0.96557
 H111 H -0.03488 0.45941 1.01122
 H112 H -0.06186 0.42849 0.98603
 H113 H -0.03199 0.46270 0.91550
 H114 H -0.00554 0.49281 0.94196
 C115 C 0.05131 0.44236 1.04877
 C116 C -0.04812 0.55683 1.04887
 C117 C -0.04902 0.44353 0.94889
 C118 C 0.05201 0.55623 0.94876
 C119 C 1.03429 -0.00827 0.54040
 H120 H 1.03421 0.01287 0.54102
 C121 C 1.04949 -0.02245 0.55796
 H122 H 1.06124 -0.01224 0.57212
 C123 C 1.01855 -0.04749 0.52165
 H124 H 1.00608 -0.05718 0.50784
 C125 C 1.03346 -0.06243 0.53888
 H126 H 1.03261 -0.08357 0.53813
 N127 N 1.01935 -0.02090 0.52262
 C128 C 1.00636 0.03614 0.46092
 H129 H 0.98531 0.03612 0.46025
 C130 C 1.02046 0.05131 0.44331
 H131 H 1.01028 0.06312 0.42907
 C132 C 1.04543 0.02022 0.47981
 H133 H 1.05509 0.00769 0.49369
 C134 C 1.06028 0.03510 0.46253
 H135 H 1.08134 0.03417 0.46332
 Zn136 Zn 0.99822 -0.00005 0.50070
 N137 N 1.01896 0.02112 0.47879
 C138 C 0.97785 0.04741 0.52140
 N139 N 0.97703 0.02082 0.52249
 C140 C 0.96205 0.00821 0.54033
 C141 C 0.94683 0.02242 0.55782
 C142 C 0.96292 0.06236 0.53856
 C143 C 0.99020 -0.03628 0.46108
 C144 C 0.97614 -0.05144 0.44351
 C145 C 0.93627 -0.03521 0.46259
 C146 C 0.95107 -0.02034 0.47984
 N147 N 0.97755 -0.02125 0.47887
 H148 H 0.99034 0.05708 0.50754
 H149 H 0.96212 -0.01293 0.54106
 H150 H 0.93505 0.01222 0.57203
 H151 H 0.96378 0.08351 0.53771
 H152 H 1.01125 -0.03627 0.46045
 H153 H 0.98637 -0.06324 0.42932
 H154 H 0.91521 -0.03425 0.46333
 H155 H 0.94137 -0.00780 0.49366
 C156 C 1.04766 0.05074 0.44410
 C157 C 1.04902 -0.04977 0.55721
 C158 C 0.94894 -0.05084 0.44424
 C159 C 0.94732 0.04973 0.55695
 C160 C 0.17934 0.24572 1.18226
 C161 C 0.16900 0.26417 1.17187
 C162 C 0.15640 0.28588 1.15920
 C163 C 0.17096 0.30340 1.14422
 C164 C 0.15857 0.32401 1.13126
 C165 C 0.13142 0.32734 1.13312
 C166 C 0.11701 0.30973 1.14843
 C167 C 0.12944 0.28914 1.16136
 C168 C 0.11809 0.34872 1.11874
 C169 C 0.09746 0.36269 1.13022
 C170 C 0.08441 0.38225 1.11634
 C171 C 0.09179 0.38810 1.09084
 C172 C 0.11244 0.37450 1.07933
 C173 C 0.12554 0.35495 1.09317
 C174 C 0.07776 0.40757 1.07623
 C175 C 0.06581 0.42359 1.06381
 H176 H 0.19185 0.30106 1.14245
 H177 H 0.17024 0.33742 1.11989
 H178 H 0.09606 0.31154 1.14996
 H179 H 0.11797 0.27561 1.17280
 H180 H 0.09149 0.35858 1.14997
 H181 H 0.06846 0.39268 1.12544
 H182 H 0.11824 0.37879 1.05954
 H183 H 0.14109 0.34431 1.08366
 C184 C -0.17924 0.75213 1.18073
 C185 C -0.16875 0.73379 1.17037
 C186 C -0.15595 0.71220 1.15776
 C187 C -0.12934 0.70788 1.16170
 C188 C -0.11666 0.68743 1.14886
 C189 C -0.13045 0.67103 1.13186
 C190 C -0.15727 0.67540 1.12821
 C191 C -0.16991 0.69586 1.14108
 C192 C -0.11678 0.64982 1.11761
 C193 C -0.12249 0.64495 1.09135
 C194 C -0.10905 0.62555 1.07770
 C195 C -0.08977 0.61073 1.09010
 C196 C -0.08412 0.61522 1.11628
 C197 C -0.09753 0.63463 1.12997
 C198 C -0.07534 0.59139 1.07576
 C199 C -0.06304 0.57548 1.06359
 H200 H -0.11832 0.72050 1.17448
 H201 H -0.09595 0.68481 1.15181
 H202 H -0.16848 0.66292 1.11550
 H203 H -0.19053 0.69903 1.13791
 H204 H -0.13694 0.65653 1.08120
 H205 H -0.11349 0.62231 1.05741
 H206 H -0.06924 0.60385 1.12606
 H207 H -0.09292 0.63768 1.15024
 C208 C -0.18214 0.24957 0.81849
 C209 C -0.17172 0.26793 0.82877
 C210 C -0.15903 0.28952 0.84133
 C211 C -0.14067 0.30446 0.82781
 C212 C -0.12765 0.32483 0.84031
 C213 C -0.13283 0.33052 0.86653
 C214 C -0.15152 0.31555 0.87986
 C215 C -0.16450 0.29518 0.86733
 C216 C -0.11838 0.35155 0.88013
 C217 C -0.13117 0.36812 0.89783
 C218 C -0.11734 0.38734 0.91123
 C219 C -0.09058 0.39027 0.90712
 C220 C -0.07772 0.37406 0.88937
 C221 C -0.09151 0.35484 0.87594
 C222 C -0.07614 0.40941 0.92159
 C223 C -0.06387 0.42513 0.93392
 H224 H -0.13630 0.30024 0.80767
 H225 H -0.11361 0.33620 0.82944
 H226 H -0.15568 0.31920 0.90014
 H227 H -0.17858 0.28365 0.87801
 H228 H -0.15189 0.36628 0.90124
 H229 H -0.12749 0.39980 0.92491
 H230 H -0.05698 0.37608 0.88614
 H231 H -0.08103 0.34217 0.86273
 C232 C 0.18288 0.75224 0.81817
 C233 C 0.17266 0.73369 0.82840
 C234 C 0.16015 0.71188 0.84086
 C235 C 0.13436 0.70569 0.83472
 C236 C 0.12184 0.68509 0.84745
 C237 C 0.13495 0.67042 0.86656
 C238 C 0.16096 0.67664 0.87241
 C239 C 0.17346 0.69724 0.85963
 C240 C 0.12131 0.64916 0.88074
 C241 C 0.12478 0.64601 0.90766
 C242 C 0.11128 0.62658 0.92118
 C243 C 0.09418 0.61002 0.90800
 C244 C 0.09079 0.61280 0.88119
 C245 C 0.10427 0.63223 0.86762
 C246 C 0.07959 0.59068 0.92214
 C247 C 0.06714 0.57480 0.93418
 H248 H 0.12384 0.71698 0.82031
 H249 H 0.10171 0.68104 0.84276
 H250 H 0.17167 0.66551 0.88679
 H251 H 0.19343 0.70186 0.86452
 H252 H 0.13748 0.65895 0.91837
 H253 H 0.11395 0.62469 0.94196
 H254 H 0.07761 0.60006 0.87079
 H255 H 0.10143 0.63395 0.84687
 C256 C 1.17960 0.17991 0.24849
 C257 C 1.16935 0.16970 0.26695
 C258 C 1.15683 0.15725 0.28868
 C259 C 1.16215 0.13103 0.29441
 C260 C 1.14933 0.11861 0.31494
 C261 C 1.13094 0.13228 0.33000
 C262 C 1.12592 0.15873 0.32424
 C263 C 1.13878 0.17111 0.30371
 C264 C 1.11663 0.11881 0.35120
 C265 C 1.08984 0.12334 0.35487
 C266 C 1.07617 0.11004 0.37427
 C267 C 1.08906 0.09208 0.39029
 C268 C 1.11575 0.08763 0.38700
 C269 C 1.12947 0.10090 0.36759
 C270 C 1.07473 0.07775 0.40963
 C271 C 1.06251 0.06554 0.42552
 H272 H 1.17600 0.12008 0.28282
 H273 H 1.15336 0.09815 0.31864
 H274 H 1.11211 0.16987 0.33567
 H275 H 1.13453 0.19143 0.29945
 H276 H 1.07933 0.13672 0.34235
 H277 H 1.05548 0.11354 0.37657
 H278 H 1.12592 0.07378 0.39931
 H279 H 1.15013 0.09723 0.36546
 C280 C 1.18185 -0.18070 0.75140
 C281 C 1.17147 -0.17031 0.73309
 C282 C 1.15881 -0.15764 0.71155
 C283 C 1.14087 -0.17137 0.69640
 C284 C 1.12789 -0.15878 0.67604
 C285 C 1.13270 -0.13226 0.67057
 C286 C 1.15098 -0.11871 0.68575
 C287 C 1.16392 -0.13134 0.70611
 C288 C 1.11830 -0.11859 0.64952
 C289 C 1.13102 -0.10047 0.63332
 C290 C 1.11722 -0.08703 0.61405
 C291 C 1.09057 -0.09152 0.61072
 C292 C 1.07780 -0.10966 0.62656
 C293 C 1.09155 -0.12313 0.64582
 C294 C 1.07616 -0.07704 0.59150
 C295 C 1.06390 -0.06471 0.57571
 H296 H 1.13678 -0.19175 0.70043
 H297 H 1.11418 -0.16982 0.66450
 H298 H 1.15485 -0.09821 0.68228
 H299 H 1.17768 -0.12049 0.71780
 H300 H 1.15164 -0.09678 0.63548
 H301 H 1.12730 -0.07303 0.60188
 H302 H 1.05715 -0.11319 0.62422
 H303 H 1.08113 -0.13667 0.65820
 C304 C 0.82050 -0.18186 0.24826
 C305 C 0.83061 -0.17168 0.26676
 C306 C 0.84296 -0.15926 0.28853
 C307 C 0.82913 -0.14123 0.30364
 C308 C 0.84142 -0.12846 0.32423
 C309 C 0.86774 -0.13357 0.32995
 C310 C 0.88138 -0.15194 0.31480
 C311 C 0.86905 -0.16467 0.29423
 C312 C 0.88111 -0.11937 0.35122
 C313 C 0.89891 -0.13239 0.36752
 C314 C 0.91210 -0.11877 0.38698
 C315 C 0.90769 -0.09198 0.39040
 C316 C 0.88984 -0.07891 0.37445
 C317 C 0.87662 -0.09248 0.35501
 C318 C 0.92197 -0.07774 0.40976
 C319 C 0.93415 -0.06559 0.42566
 H320 H 0.80891 -0.13692 0.29941
 H321 H 0.83032 -0.11468 0.33572
 H322 H 0.90174 -0.15603 0.31848
 H323 H 0.87997 -0.17849 0.28257
 H324 H 0.90255 -0.15313 0.36530
 H325 H 0.92587 -0.12909 0.39923
 H326 H 0.88637 -0.05815 0.37685
 H327 H 0.86333 -0.08182 0.34255
 C328 C 0.81787 0.18312 0.75136
 C329 C 0.82803 0.17276 0.73295
 C330 C 0.84044 0.16009 0.71129
 C331 C 0.82698 0.14128 0.69693
 C332 C 0.83937 0.12824 0.67651
 C333 C 0.86543 0.13386 0.67020
 C334 C 0.87868 0.15302 0.68458
 C335 C 0.86626 0.16602 0.70499
 C336 C 0.87894 0.11936 0.64916
 C337 C 0.89608 0.13234 0.63217
 C338 C 0.90941 0.11847 0.61291
 C339 C 0.90580 0.09148 0.61037
 C340 C 0.88862 0.07844 0.62700
 C341 C 0.87526 0.09227 0.64626
 C342 C 0.92019 0.07702 0.59117
 C343 C 0.93245 0.06469 0.57540
 H344 H 0.80697 0.13655 0.70163
 H345 H 0.82855 0.11383 0.66561
 H346 H 0.89885 0.15754 0.68044
 H347 H 0.87690 0.18046 0.71607
 H348 H 0.89909 0.15322 0.63370
 H349 H 0.92265 0.12875 0.60011
 H350 H 0.88578 0.05753 0.62529
 H351 H 0.86250 0.08165 0.65925
 C352 C 0.24683 1.17915 0.18225
 C353 C 0.26534 1.16886 0.17208
 C354 C 0.28713 1.15632 0.15965
 C355 C 0.29272 1.13004 0.16489
 C356 C 0.31331 1.11754 0.15215
 C357 C 0.32857 1.13118 0.13394
 C358 C 0.32295 1.15768 0.12900
 C359 C 0.30236 1.17014 0.14178
 C360 C 0.34984 1.11763 0.11973
 C361 C 0.35369 1.12223 0.09306
 C362 C 0.37316 1.10887 0.07948
 C363 C 0.38907 1.09078 0.09234
 C364 C 0.38559 1.08624 0.11891
 C365 C 0.36612 1.09957 0.13254
 C366 C 0.40850 1.07642 0.07810
 C367 C 0.42447 1.06420 0.06594
 H368 H 0.28098 1.11913 0.17860
 H369 H 0.31690 1.09705 0.15612
 H370 H 0.33454 1.16879 0.11534
 H371 H 0.29821 1.19050 0.13759
 H372 H 0.34126 1.13572 0.08256
 H373 H 0.37560 1.11244 0.05888
 H374 H 0.39782 1.07229 0.12907
 H375 H 0.36385 1.09585 0.15312
 C376 C 0.75055 1.18318 -0.18073
 C377 C 0.73218 1.17286 -0.17039
 C378 C 0.71058 1.16026 -0.15777
 C379 C 0.70414 1.13450 -0.16414
 C380 C 0.68376 1.12187 -0.15126
 C381 C 0.66957 1.13486 -0.13176
 C382 C 0.67603 1.16086 -0.12568
 C383 C 0.69641 1.17345 -0.13861
 C384 C 0.64854 1.12112 -0.11743
 C385 C 0.64588 1.12425 -0.09042
 C386 C 0.62663 1.11069 -0.07678
 C387 C 0.60976 1.09385 -0.08992
 C388 C 0.61206 1.09079 -0.11681
 C389 C 0.63132 1.10433 -0.13050
 C390 C 0.59056 1.07924 -0.07566
 C391 C 0.57480 1.06680 -0.06350
 H392 H 0.71506 1.12406 -0.17886
 H393 H 0.67950 1.10175 -0.15613
 H394 H 0.66527 1.17149 -0.11100
 H395 H 0.70123 1.19341 -0.13354
 H396 H 0.65905 1.13674 -0.07975
 H397 H 0.62510 1.11310 -0.05595
 H398 H 0.59909 1.07782 -0.12717
 H399 H 0.63267 1.10175 -0.15131
 C400 C 0.24963 0.81921 -0.18126
 C401 C 0.26799 0.82959 -0.17103
 C402 C 0.28958 0.84228 -0.15857
 C403 C 0.29470 0.86866 -0.16362
 C404 C 0.31511 0.88130 -0.15088
 C405 C 0.33067 0.86769 -0.13286
 C406 C 0.32552 0.84109 -0.12811
 C407 C 0.30510 0.82849 -0.14088
 C408 C 0.35176 0.88138 -0.11866
 C409 C 0.35578 0.87663 -0.09204
 C410 C 0.37506 0.89014 -0.07846
 C411 C 0.39059 0.90853 -0.09128
 C412 C 0.38694 0.91320 -0.11780
 C413 C 0.36766 0.89973 -0.13142
 C414 C 0.40979 0.92306 -0.07703
 C415 C 0.42556 0.93543 -0.06488
 H416 H 0.28272 0.87955 -0.17718
 H417 H 0.31833 0.90186 -0.15470
 H418 H 0.33735 0.83001 -0.11459
 H419 H 0.30132 0.80805 -0.13684
 H420 H 0.34364 0.86291 -0.08159
 H421 H 0.37763 0.88646 -0.05790
 H422 H 0.39888 0.92738 -0.12791
 H423 H 0.36526 0.90357 -0.15196
 C424 C 0.75313 0.81858 0.18050
 C425 C 0.73468 0.82896 0.17028
 C426 C 0.71298 0.84165 0.15784
 C427 C 0.70811 0.86819 0.16230
 C428 C 0.68757 0.88080 0.14959
 C429 C 0.67162 0.86700 0.13218
 C430 C 0.67653 0.84025 0.12800
 C431 C 0.69708 0.82767 0.14076
 C432 C 0.65035 0.88063 0.11802
 C433 C 0.64583 0.87538 0.09160
 C434 C 0.62637 0.88882 0.07804
 C435 C 0.61115 0.90763 0.09067
 C436 C 0.61530 0.91281 0.11701
 C437 C 0.63476 0.89940 0.13061
 C438 C 0.59177 0.92207 0.07643
 C439 C 0.57583 0.93437 0.06429
 H440 H 0.72038 0.87922 0.17539
 H441 H 0.68453 0.90147 0.15294
 H442 H 0.66441 0.82903 0.11497
 H443 H 0.70067 0.80711 0.13718
 H444 H 0.65772 0.86132 0.08126
 H445 H 0.62341 0.88475 0.05762
 H446 H 0.60362 0.92732 0.12698
 H447 H 0.63755 0.90365 0.15100
   
