data_POSCAR
  _audit_creation_date              2014-09-24
  _audit_creation_method            'ToBaCCo'
  _symmetry_space_group_name_H-M    'P1'
  _symmetry_Int_Tables_number       1
  _symmetry_cell_setting            triclinic
  loop_
  _symmetry_equiv_pos_as_xyz
 x,y,z
_cell_length_a 35.8932
_cell_length_b 34.7883
_cell_length_c 33.6614
_cell_angle_alpha 89.961600
_cell_angle_beta 89.067700
_cell_angle_gamma 89.829900
loop_
  _atom_site_label
  _atom_site_type_symbol
  _atom_site_fract_x
  _atom_site_fract_y
  _atom_site_fract_z
Si1 Si 0.25012 0.24854 0.24906
 Si2 Si 0.74984 0.74872 0.24927
 Si3 Si 0.75057 0.24863 0.74915
 Si4 Si 0.25034 0.74842 0.74907
 C5 C 0.04979 0.06210 0.01581
 H6 H 0.04891 0.06625 -0.01601
 C7 C 0.07169 0.08619 0.03891
 H8 H 0.08795 0.10864 0.02468
 C9 C 0.02982 0.02770 0.07305
 H10 H 0.01311 0.00531 0.08644
 C11 C 0.05175 0.05077 0.09719
 H12 H 0.05182 0.04578 0.12895
 N13 N 0.02971 0.03324 0.03302
 C14 C 0.01832 -0.06103 -0.05086
 H15 H -0.01098 -0.06735 -0.04684
 C16 C 0.04063 -0.08508 -0.07450
 H17 H 0.02808 -0.10933 -0.08927
 C18 C 0.07030 -0.02212 -0.03600
 H19 H 0.08202 0.00201 -0.02052
 C20 C 0.09359 -0.04532 -0.05946
 H21 H 0.12302 -0.03872 -0.06165
 Zn22 Zn 0.00118 0.00098 -0.00045
 N23 N 0.03327 -0.02996 -0.03255
 C24 C -0.04395 0.01760 -0.06675
 N25 N -0.02939 0.03222 -0.03292
 C26 C -0.03734 0.06874 -0.02101
 C27 C -0.06031 0.09225 -0.04372
 C28 C -0.06716 0.04008 -0.09028
 C29 C -0.01310 -0.05933 0.05353
 C30 C -0.03501 -0.08407 0.07672
 C31 C -0.09002 -0.05389 0.05019
 C32 C -0.06709 -0.02924 0.02813
 N33 N -0.02938 -0.03223 0.03032
 H34 H -0.03787 -0.01162 -0.07545
 H35 H -0.02616 0.07962 0.00637
 H36 H -0.06582 0.12140 -0.03396
 H37 H -0.07889 0.02767 -0.11677
 H38 H 0.01696 -0.06147 0.05423
 H39 H -0.02176 -0.10530 0.09537
 H40 H -0.12000 -0.05105 0.04839
 H41 H -0.07948 -0.00769 0.00931
 C42 C 0.07878 -0.07721 -0.07920
 C43 C 0.07316 0.08031 0.08008
 C44 C -0.07395 -0.08147 0.07507
 C45 C -0.07561 0.07799 -0.07888
 C46 C 0.04978 0.56469 0.51783
 H47 H 0.04908 0.56875 0.48599
 C48 C 0.07169 0.58872 0.54099
 H49 H 0.08812 0.61104 0.52678
 C50 C 0.02941 0.53049 0.57505
 H51 H 0.01256 0.50818 0.58840
 C52 C 0.05134 0.55351 0.59925
 H53 H 0.05126 0.54857 0.63102
 N54 N 0.02951 0.53594 0.53500
 C55 C 0.01841 0.44151 0.45130
 H56 H -0.01089 0.43520 0.45531
 C57 C 0.04073 0.41741 0.42776
 H58 H 0.02816 0.39315 0.41301
 C59 C 0.07040 0.48041 0.46619
 H60 H 0.08211 0.50455 0.48165
 C61 C 0.09372 0.45710 0.44286
 H62 H 0.12316 0.46365 0.44076
 Zn63 Zn 0.00112 0.50357 0.50148
 N64 N 0.03335 0.47262 0.46955
 C65 C -0.04434 0.51956 0.43533
 N66 N -0.02945 0.53461 0.46879
 C67 C -0.03706 0.57138 0.48010
 C68 C -0.06004 0.59468 0.45717
 C69 C -0.06756 0.54182 0.41158
 C70 C -0.01304 0.44318 0.55533
 C71 C -0.03487 0.41818 0.57830
 C72 C -0.08998 0.44820 0.55178
 C73 C -0.06713 0.47309 0.52993
 N74 N -0.02941 0.47028 0.53220
 H75 H -0.03855 0.49016 0.42711
 H76 H -0.02563 0.58263 0.50721
 H77 H -0.06532 0.62401 0.46647
 H78 H -0.07955 0.52907 0.38541
 H79 H 0.01702 0.44119 0.55609
 H80 H -0.02155 0.39691 0.59684
 H81 H -0.11997 0.45088 0.54990
 H82 H -0.07957 0.49466 0.51118
 C83 C 0.07891 0.42519 0.42316
 C84 C 0.07296 0.58290 0.58218
 C85 C -0.07382 0.42054 0.57652
 C86 C -0.07568 0.57995 0.42239
 C87 C 0.54751 0.06296 0.51800
 H88 H 0.54652 0.06697 0.48616
 C89 C 0.56956 0.08709 0.54088
 H90 H 0.58579 0.10944 0.52647
 C91 C 0.52780 0.02874 0.57545
 H92 H 0.51116 0.00637 0.58900
 C93 C 0.54989 0.05186 0.59938
 H94 H 0.55014 0.04695 0.63115
 N95 N 0.52753 0.03413 0.53540
 C96 C 0.51671 -0.06020 0.45155
 H97 H 0.48741 -0.06662 0.45541
 C98 C 0.53918 -0.08410 0.42794
 H99 H 0.52674 -0.10832 0.41299
 C100 C 0.56853 -0.02125 0.46688
 H101 H 0.58013 0.00282 0.48255
 C102 C 0.59199 -0.04433 0.44349
 H103 H 0.62142 -0.03769 0.44155
 Zn104 Zn 0.49916 0.00159 0.50207
 N105 N 0.53149 -0.02915 0.47005
 C106 C 0.45390 0.01779 0.43570
 N107 N 0.46840 0.03256 0.46950
 C108 C 0.46047 0.06916 0.48117
 C109 C 0.43763 0.09261 0.45823
 C110 C 0.43082 0.04020 0.41195
 C111 C 0.48545 -0.05865 0.55627
 C112 C 0.46380 -0.08373 0.57935
 C113 C 0.40849 -0.05456 0.55236
 C114 C 0.43115 -0.02953 0.53043
 N115 N 0.46889 -0.03188 0.53289
 H116 H 0.45996 -0.01147 0.42717
 H117 H 0.47161 0.08018 0.50851
 H118 H 0.43218 0.12182 0.46779
 H119 H 0.41917 0.02768 0.38547
 H120 H 0.51553 -0.06031 0.55715
 H121 H 0.47727 -0.10470 0.59813
 H122 H 0.37848 -0.05228 0.55031
 H123 H 0.41855 -0.00825 0.51146
 C124 C 0.57735 -0.07617 0.42352
 C125 C 0.57127 0.08130 0.58205
 C126 C 0.42485 -0.08183 0.57738
 C127 C 0.42245 0.07820 0.42307
 C128 C 0.54800 0.56423 0.01604
 H129 H 0.54723 0.56840 -0.01579
 C130 C 0.57001 0.58815 0.03921
 H131 H 0.58642 0.61051 0.02503
 C132 C 0.52777 0.52986 0.07319
 H133 H 0.51094 0.50751 0.08652
 C134 C 0.54981 0.55275 0.09740
 H135 H 0.54983 0.54770 0.12915
 N136 N 0.52776 0.53545 0.03317
 C137 C 0.51687 0.44136 -0.05097
 H138 H 0.48754 0.43505 -0.04725
 C139 C 0.53938 0.41728 -0.07434
 H140 H 0.52694 0.39306 -0.08928
 C141 C 0.56876 0.48011 -0.03539
 H142 H 0.58038 0.50415 -0.01969
 C143 C 0.59226 0.45686 -0.05855
 H144 H 0.62172 0.46337 -0.06031
 Zn145 Zn 0.49936 0.50318 -0.00043
 N146 N 0.53167 0.47237 -0.03243
 C147 C 0.45370 0.51944 -0.06644
 N148 N 0.46874 0.53434 -0.03298
 C149 C 0.46135 0.57114 -0.02160
 C150 C 0.43851 0.59464 -0.04447
 C151 C 0.43061 0.54190 -0.09013
 C152 C 0.48546 0.44267 0.05331
 C153 C 0.46377 0.41769 0.07643
 C154 C 0.40850 0.44759 0.05016
 C155 C 0.43122 0.47249 0.02815
 N156 N 0.46895 0.46975 0.03025
 H157 H 0.45933 0.49002 -0.07473
 H158 H 0.47286 0.58227 0.00551
 H159 H 0.43347 0.62399 -0.03513
 H160 H 0.41852 0.52928 -0.11632
 H161 H 0.51553 0.44074 0.05392
 H162 H 0.47720 0.39647 0.09495
 H163 H 0.37849 0.45022 0.04844
 H164 H 0.41867 0.49404 0.00945
 C165 C 0.57761 0.42502 -0.07850
 C166 C 0.57141 0.58218 0.08036
 C167 C 0.42480 0.42001 0.07488
 C168 C 0.42276 0.58009 -0.07928
 C169 C 0.17404 -0.17403 -0.17592
 C170 C 0.17011 -0.21412 -0.17382
 C171 C 0.19368 -0.23751 -0.19706
 C172 C 0.22124 -0.22107 -0.22196
 C173 C 0.22433 -0.18077 -0.22425
 C174 C 0.20094 -0.15713 -0.20107
 C175 C 0.14947 -0.14927 -0.15137
 C176 C 0.15349 -0.10919 -0.15339
 C177 C 0.13025 -0.08578 -0.12978
 C178 C 0.10308 -0.10219 -0.10433
 C179 C 0.09934 -0.14249 -0.10286
 C180 C 0.12251 -0.16618 -0.12629
 C181 C 0.20396 -0.11688 -0.20247
 C182 C 0.18067 -0.09332 -0.17900
 C183 C 0.14277 -0.22999 -0.14842
 C184 C 0.11937 -0.20642 -0.12504
 H185 H 0.22459 -0.10348 -0.22178
 H186 H 0.18399 -0.06242 -0.18088
 H187 H 0.13947 -0.26088 -0.14653
 H188 H 0.09869 -0.21982 -0.10581
 H189 H 0.19076 -0.26851 -0.19555
 H190 H 0.24465 -0.16751 -0.24394
 H191 H 0.13300 -0.05480 -0.13152
 H192 H 0.07882 -0.15540 -0.08304
 C193 C 0.17351 0.32782 0.32630
 C194 C 0.16910 0.28775 0.32813
 C195 C 0.19234 0.26424 0.30465
 C196 C 0.21987 0.28059 0.27983
 C197 C 0.22371 0.32074 0.27792
 C198 C 0.20065 0.34456 0.30128
 C199 C 0.14924 0.35272 0.35101
 C200 C 0.15370 0.39277 0.34922
 C201 C 0.13062 0.41632 0.37287
 C202 C 0.10320 0.40008 0.39815
 C203 C 0.09910 0.35981 0.39946
 C204 C 0.12207 0.33599 0.37596
 C205 C 0.20418 0.38476 0.30019
 C206 C 0.18111 0.40846 0.32377
 C207 C 0.14160 0.27207 0.35345
 C208 C 0.11848 0.29578 0.37698
 H209 H 0.22499 0.39801 0.28099
 H210 H 0.18478 0.43932 0.32209
 H211 H 0.13793 0.24120 0.35512
 H212 H 0.09763 0.28253 0.39612
 H213 H 0.18920 0.23327 0.30576
 H214 H 0.24447 0.33354 0.25840
 H215 H 0.13366 0.44727 0.37126
 H216 H 0.07842 0.34701 0.41917
 C217 C 0.67284 -0.17265 0.32674
 C218 C 0.66865 -0.21275 0.32843
 C219 C 0.69208 -0.23605 0.30495
 C220 C 0.71956 -0.21946 0.28023
 C221 C 0.72322 -0.17929 0.27849
 C222 C 0.69996 -0.15568 0.30187
 C223 C 0.64832 -0.14798 0.35141
 C224 C 0.65255 -0.10789 0.34976
 C225 C 0.62924 -0.08456 0.37338
 C226 C 0.60182 -0.10105 0.39848
 C227 C 0.59794 -0.14134 0.39964
 C228 C 0.62114 -0.16494 0.37618
 C229 C 0.70326 -0.11546 0.30092
 C230 C 0.67996 -0.09197 0.32448
 C231 C 0.64115 -0.22868 0.35358
 C232 C 0.61779 -0.20518 0.37706
 H233 H 0.72406 -0.10202 0.28185
 H234 H 0.68346 -0.06108 0.32291
 H235 H 0.63766 -0.25957 0.35513
 H236 H 0.59695 -0.21861 0.39607
 H237 H 0.68909 -0.26704 0.30593
 H238 H 0.74395 -0.16633 0.25906
 H239 H 0.63211 -0.05359 0.37189
 H240 H 0.57725 -0.15431 0.41921
 C241 C 0.67349 0.32773 -0.17396
 C242 C 0.66922 0.28765 -0.17205
 C243 C 0.69273 0.26417 -0.19526
 C244 C 0.72034 0.28058 -0.21995
 C245 C 0.72409 0.32073 -0.22188
 C246 C 0.70078 0.34452 -0.19876
 C247 C 0.64886 0.35261 -0.14963
 C248 C 0.65317 0.39267 -0.15152
 C249 C 0.62976 0.41620 -0.12823
 C250 C 0.60214 0.39992 -0.10323
 C251 C 0.59817 0.35964 -0.10183
 C252 C 0.62149 0.33585 -0.12495
 C253 C 0.70415 0.38472 -0.19996
 C254 C 0.68077 0.40840 -0.17671
 C255 C 0.64154 0.27193 -0.14699
 C256 C 0.61807 0.29562 -0.12383
 H257 H 0.72508 0.39801 -0.21898
 H258 H 0.68433 0.43927 -0.17846
 H259 H 0.63798 0.24105 -0.14526
 H260 H 0.59708 0.28234 -0.10489
 H261 H 0.68966 0.23319 -0.19415
 H262 H 0.74490 0.33357 -0.24130
 H263 H 0.63271 0.44716 -0.12990
 H264 H 0.57732 0.34684 -0.08233
 C265 C -0.17219 0.17243 -0.17358
 C266 C -0.19808 0.19694 -0.15464
 C267 C -0.22142 0.21993 -0.17781
 C268 C -0.21915 0.21809 -0.21948
 C269 C -0.19297 0.19364 -0.23803
 C270 C -0.16938 0.17064 -0.21520
 C271 C -0.14748 0.14829 -0.14937
 C272 C -0.12149 0.12393 -0.16830
 C273 C -0.09801 0.10108 -0.14513
 C274 C -0.10047 0.10236 -0.10330
 C275 C -0.12681 0.12698 -0.08488
 C276 C -0.15031 0.15007 -0.10777
 C277 C -0.14303 0.14593 -0.23308
 C278 C -0.11946 0.12298 -0.21002
 C279 C -0.20004 0.19796 -0.11294
 C280 C -0.17661 0.17487 -0.08989
 H281 H -0.14058 0.14432 -0.26516
 H282 H -0.09950 0.10432 -0.22498
 H283 H -0.21990 0.21674 -0.09798
 H284 H -0.17906 0.17649 -0.05781
 H285 H -0.24108 0.23918 -0.16334
 H286 H -0.19104 0.19257 -0.27019
 H287 H -0.07753 0.08268 -0.15964
 H288 H -0.12935 0.12781 -0.05277
 C289 C -0.17271 0.67318 0.32699
 C290 C -0.19846 0.69795 0.34575
 C291 C -0.22190 0.72066 0.32243
 C292 C -0.21987 0.71831 0.28077
 C293 C -0.19382 0.69360 0.26238
 C294 C -0.17014 0.67085 0.28538
 C295 C -0.14786 0.64936 0.35137
 C296 C -0.12201 0.62473 0.33262
 C297 C -0.09841 0.60217 0.35596
 C298 C -0.10060 0.60405 0.39778
 C299 C -0.12679 0.62895 0.41602
 C300 C -0.15042 0.65172 0.39296
 C301 C -0.14391 0.64587 0.26769
 C302 C -0.12023 0.62321 0.29091
 C303 C -0.20017 0.69956 0.38744
 C304 C -0.17660 0.67678 0.41065
 H305 H -0.14165 0.64384 0.23562
 H306 H -0.10038 0.60434 0.27609
 H307 H -0.21992 0.71855 0.40226
 H308 H -0.17885 0.67885 0.44272
 H309 H -0.24142 0.74015 0.33677
 H310 H -0.19204 0.69216 0.23023
 H311 H -0.07804 0.58353 0.34159
 H312 H -0.12913 0.63023 0.44813
 C313 C 0.32691 0.17264 0.32718
 C314 C 0.32992 0.17059 0.28559
 C315 C 0.30653 0.19357 0.26247
 C316 C 0.28034 0.21821 0.28073
 C317 C 0.27793 0.22034 0.32238
 C318 C 0.30106 0.19739 0.34582
 C319 C 0.35136 0.14850 0.35169
 C320 C 0.34831 0.15052 0.39327
 C321 C 0.37155 0.12742 0.41644
 C322 C 0.39785 0.10255 0.39833
 C323 C 0.40053 0.10102 0.35652
 C324 C 0.37731 0.12388 0.33307
 C325 C 0.29888 0.19867 0.38751
 C326 C 0.32206 0.17558 0.41083
 C327 C 0.35623 0.14564 0.26802
 C328 C 0.37956 0.12269 0.29136
 H329 H 0.27904 0.21764 0.40223
 H330 H 0.31945 0.17740 0.44289
 H331 H 0.35883 0.14382 0.23596
 H332 H 0.39948 0.10383 0.27663
 H333 H 0.30859 0.19228 0.23032
 H334 H 0.25830 0.23976 0.33664
 H335 H 0.36883 0.12845 0.44853
 H336 H 0.42099 0.08242 0.34225
 C337 C 0.32653 0.67441 -0.17455
 C338 C 0.30109 0.69946 -0.15576
 C339 C 0.27770 0.72231 -0.17902
 C340 C 0.27929 0.71974 -0.22076
 C341 C 0.30536 0.69485 -0.23911
 C342 C 0.32896 0.67200 -0.21613
 C343 C 0.35121 0.65035 -0.15020
 C344 C 0.37676 0.62540 -0.16899
 C345 C 0.40015 0.60257 -0.14569
 C346 C 0.39804 0.60446 -0.10386
 C347 C 0.37217 0.62969 -0.08559
 C348 C 0.34877 0.65275 -0.10861
 C349 C 0.35493 0.64676 -0.23387
 C350 C 0.37844 0.62386 -0.21069
 C351 C 0.29954 0.70116 -0.11406
 C352 C 0.32292 0.67814 -0.09088
 H353 H 0.35708 0.64465 -0.26594
 H354 H 0.39805 0.60476 -0.22556
 H355 H 0.28003 0.72038 -0.09920
 H356 H 0.32078 0.68028 -0.05882
 H357 H 0.25863 0.74202 -0.16434
 H358 H 0.30714 0.69313 -0.27126
 H359 H 0.42028 0.58369 -0.16009
 H360 H 0.36989 0.63101 -0.05348
 C361 C -0.16969 -0.17792 0.17044
 C362 C -0.19813 -0.19881 0.15219
 C363 C -0.22196 -0.22155 0.17571
 C364 C -0.21808 -0.22251 0.21717
 C365 C -0.18934 -0.20168 0.23501
 C366 C -0.16488 -0.17942 0.21173
 C367 C -0.14462 -0.15385 0.14587
 C368 C -0.11589 -0.13334 0.16407
 C369 C -0.09228 -0.11030 0.14057
 C370 C -0.09784 -0.10714 0.09940
 C371 C -0.12677 -0.12785 0.08164
 C372 C -0.15009 -0.15155 0.10472
 C373 C -0.13585 -0.15848 0.22887
 C374 C -0.11166 -0.13595 0.20541
 C375 C -0.20233 -0.19626 0.11084
 C376 C -0.17885 -0.17286 0.08753
 H377 H -0.13180 -0.15948 0.26068
 H378 H -0.08965 -0.12022 0.21980
 H379 H -0.22418 -0.21222 0.09643
 H380 H -0.18325 -0.17142 0.05580
 H381 H -0.24349 -0.23809 0.16163
 H382 H -0.18615 -0.20275 0.26696
 H383 H -0.07018 -0.09410 0.15432
 H384 H -0.13089 -0.12563 0.04988
 C385 C -0.16906 0.32263 0.67087
 C386 C -0.19753 0.30193 0.65245
 C387 C -0.22129 0.27889 0.67576
 C388 C -0.21729 0.27748 0.71719
 C389 C -0.18850 0.29810 0.73519
 C390 C -0.16413 0.32065 0.71212
 C391 C -0.14413 0.34708 0.64655
 C392 C -0.11541 0.36745 0.66493
 C393 C -0.09195 0.39087 0.64169
 C394 C -0.09762 0.39454 0.60058
 C395 C -0.12655 0.37396 0.58263
 C396 C -0.14973 0.34989 0.60545
 C397 C -0.13510 0.34144 0.72944
 C398 C -0.11105 0.36433 0.70622
 C399 C -0.20186 0.30498 0.61115
 C400 C -0.17849 0.32872 0.58808
 H401 H -0.13097 0.34006 0.76123
 H402 H -0.08904 0.37994 0.72075
 H403 H -0.22373 0.28917 0.59660
 H404 H -0.18299 0.33055 0.55639
 H405 H -0.24289 0.26255 0.66157
 H406 H -0.18524 0.29670 0.76712
 H407 H -0.06987 0.40696 0.65559
 H408 H -0.13075 0.37654 0.55091
 C409 C 0.32989 -0.17978 0.67199
 C410 C 0.30219 -0.20145 0.65347
 C411 C 0.27832 -0.22434 0.67680
 C412 C 0.28120 -0.22455 0.71848
 C413 C 0.30955 -0.20310 0.73648
 C414 C 0.33404 -0.18072 0.71337
 C415 C 0.35485 -0.15540 0.64762
 C416 C 0.38283 -0.13405 0.66611
 C417 C 0.40627 -0.11064 0.64281
 C418 C 0.40124 -0.10793 0.60153
 C419 C 0.37308 -0.12950 0.58345
 C420 C 0.34998 -0.15359 0.60634
 C421 C 0.36238 -0.15901 0.73081
 C422 C 0.38648 -0.13619 0.70755
 C423 C 0.29866 -0.19947 0.61200
 C424 C 0.32200 -0.17576 0.58886
 H425 H 0.36592 -0.15959 0.76271
 H426 H 0.40792 -0.11983 0.72218
 H427 H 0.27738 -0.21604 0.59735
 H428 H 0.31807 -0.17473 0.55703
 H429 H 0.25761 -0.24152 0.66220
 H430 H 0.31233 -0.20350 0.76852
 H431 H 0.42778 -0.09380 0.65678
 H432 H 0.36938 -0.12762 0.55160
 C433 C 0.33019 0.32228 0.17013
 C434 C 0.30177 0.30134 0.15192
 C435 C 0.27815 0.27836 0.17544
 C436 C 0.28221 0.27724 0.21688
 C437 C 0.31097 0.29808 0.23466
 C438 C 0.33522 0.32058 0.21138
 C439 C 0.35496 0.34669 0.14559
 C440 C 0.38364 0.36730 0.16375
 C441 C 0.40696 0.39067 0.14028
 C442 C 0.40117 0.39407 0.09917
 C443 C 0.37228 0.37326 0.08144
 C444 C 0.34925 0.34923 0.10448
 C445 C 0.36421 0.34160 0.22849
 C446 C 0.38812 0.36445 0.20505
 C447 C 0.29733 0.30411 0.11062
 C448 C 0.32055 0.32782 0.08733
 H449 H 0.36841 0.34044 0.26027
 H450 H 0.41010 0.38025 0.21941
 H451 H 0.27550 0.28811 0.09623
 H452 H 0.31596 0.32943 0.05564
 H453 H 0.25660 0.26184 0.16139
 H454 H 0.31428 0.29690 0.26660
 H455 H 0.42902 0.40694 0.15402
 H456 H 0.36798 0.37564 0.04972
 C457 C 0.16970 0.17330 0.17501
 C458 C 0.16886 0.21347 0.17097
 C459 C 0.19286 0.23585 0.19382
 C460 C 0.21819 0.21821 0.21954
 C461 C 0.21837 0.17801 0.22370
 C462 C 0.19411 0.15535 0.20147
 C463 C 0.14457 0.14956 0.15107
 C464 C 0.14510 0.10942 0.15550
 C465 C 0.12125 0.08698 0.13256
 C466 C 0.09744 0.10438 0.10496
 C467 C 0.09730 0.14467 0.10082
 C468 C 0.12066 0.16745 0.12405
 C469 C 0.19383 0.11512 0.20510
 C470 C 0.16966 0.09254 0.18257
 C471 C 0.14422 0.23037 0.14400
 C472 C 0.12064 0.20773 0.12080
 H473 H 0.21247 0.10095 0.22548
 H474 H 0.17034 0.06161 0.18622
 H475 H 0.14335 0.26133 0.14059
 H476 H 0.10225 0.22188 0.10015
 H477 H 0.19222 0.26692 0.19127
 H478 H 0.23708 0.16427 0.24423
 H479 H 0.12171 0.05594 0.13554
 H480 H 0.07876 0.15818 0.07985
 C481 C 0.17041 0.67509 0.67693
 C482 C 0.17000 0.71523 0.67278
 C483 C 0.19431 0.73741 0.69548
 C484 C 0.21975 0.71961 0.72112
 C485 C 0.21922 0.67934 0.72551
 C486 C 0.19464 0.65694 0.70341
 C487 C 0.14498 0.65158 0.65309
 C488 C 0.14506 0.61145 0.65767
 C489 C 0.12099 0.58921 0.63478
 C490 C 0.09738 0.60680 0.60710
 C491 C 0.09765 0.64708 0.60287
 C492 C 0.12124 0.66966 0.62603
 C493 C 0.19385 0.61673 0.70722
 C494 C 0.16942 0.59437 0.68479
 C495 C 0.14550 0.73234 0.64581
 C496 C 0.12165 0.70993 0.62269
 H497 H 0.21234 0.60239 0.72764
 H498 H 0.16976 0.56344 0.68857
 H499 H 0.14495 0.76330 0.64231
 H500 H 0.10339 0.72424 0.60202
 H501 H 0.19383 0.76848 0.69271
 H502 H 0.23749 0.66515 0.74616
 H503 H 0.12114 0.55818 0.63784
 H504 H 0.07927 0.66074 0.58183
 C505 C 0.66944 0.17380 0.67556
 C506 C 0.66888 0.21397 0.67138
 C507 C 0.69321 0.23623 0.69395
 C508 C 0.71856 0.21846 0.71957
 C509 C 0.71853 0.17827 0.72379
 C510 C 0.69395 0.15574 0.70184
 C511 C 0.64388 0.15020 0.65199
 C512 C 0.64412 0.11008 0.65660
 C513 C 0.61985 0.08776 0.63403
 C514 C 0.59590 0.10527 0.60664
 C515 C 0.59604 0.14554 0.60234
 C516 C 0.61984 0.16820 0.62518
 C517 C 0.69338 0.11552 0.70562
 C518 C 0.66881 0.09308 0.68344
 C519 C 0.64412 0.23098 0.64461
 C520 C 0.62013 0.20847 0.62177
 H521 H 0.71209 0.10127 0.72586
 H522 H 0.66928 0.06215 0.68722
 H523 H 0.64345 0.26193 0.64110
 H524 H 0.60164 0.22270 0.60128
 H525 H 0.69274 0.26729 0.69137
 H526 H 0.73726 0.16444 0.74425
 H527 H 0.62010 0.05673 0.63712
 H528 H 0.57742 0.15914 0.58151
 C529 C 0.66890 0.67417 0.17518
 C530 C 0.66830 0.71436 0.17126
 C531 C 0.69252 0.73650 0.19407
 C532 C 0.71781 0.71862 0.21966
 C533 C 0.71779 0.67840 0.22367
 C534 C 0.69331 0.65598 0.20148
 C535 C 0.64351 0.65069 0.15129
 C536 C 0.64378 0.61053 0.15562
 C537 C 0.61968 0.58833 0.13273
 C538 C 0.59588 0.60599 0.10528
 C539 C 0.59599 0.64628 0.10126
 C540 C 0.61960 0.66883 0.12444
 C541 C 0.69276 0.61574 0.20499
 C542 C 0.66834 0.59340 0.18251
 C543 C 0.64367 0.73151 0.14445
 C544 C 0.61984 0.70911 0.12130
 H545 H 0.71140 0.60138 0.22524
 H546 H 0.66883 0.56245 0.18608
 H547 H 0.64298 0.76248 0.14114
 H548 H 0.60146 0.72345 0.10078
 H549 H 0.69205 0.76758 0.19164
 H550 H 0.73649 0.66449 0.24411
 H551 H 0.61994 0.55729 0.13560
 H552 H 0.57748 0.65999 0.08039
   
