data_POSCAR
  _audit_creation_date              2014-09-24
  _audit_creation_method            'ToBaCCo'
  _symmetry_space_group_name_H-M    'P1'
  _symmetry_Int_Tables_number       1
  _symmetry_cell_setting            triclinic
  loop_
  _symmetry_equiv_pos_as_xyz
 x,y,z
_cell_length_a 38.0951
_cell_length_b 38.0341
_cell_length_c 38.1936
_cell_angle_alpha 90.939800
_cell_angle_beta 88.944900
_cell_angle_gamma 89.353200
loop_
  _atom_site_label
  _atom_site_type_symbol
  _atom_site_fract_x
  _atom_site_fract_y
  _atom_site_fract_z
N1 N 0.29871 0.22647 0.21134
 N2 N 0.28200 0.25424 0.19975
 C3 C 0.29785 0.26482 0.17002
 C4 C 0.32607 0.24245 0.16260
 C5 C 0.32583 0.21849 0.18940
 H6 H 0.28884 0.28659 0.15459
 H7 H 0.34363 0.19641 0.19221
 Cu8 Cu 0.24015 0.27349 0.22315
 Cu9 Cu 0.28297 0.20191 0.25299
 Cu10 Cu 0.20461 0.23025 0.29135
 N11 N 0.19423 0.28613 0.24286
 N12 N 0.18050 0.26909 0.26935
 C13 C 0.14846 0.28254 0.27706
 C14 C 0.14170 0.30944 0.25426
 C15 C 0.17131 0.31112 0.23282
 H16 H 0.13104 0.27320 0.29748
 H17 H 0.17563 0.32867 0.21123
 N18 N 0.23276 0.19139 0.30997
 N19 N 0.26269 0.18052 0.29536
 C20 C 0.27479 0.15264 0.31304
 C21 C 0.25123 0.14567 0.34004
 C22 C 0.22502 0.17076 0.33732
 H23 H 0.29841 0.13795 0.30609
 H24 H 0.20150 0.17304 0.35353
 H25 H 0.23081 0.21468 0.24546
 H26 H 0.25547 0.24315 0.27675
 N27 N 0.68882 -0.23255 0.20837
 N28 N 0.70658 -0.25923 0.19426
 C29 C 0.69030 -0.27019 0.16511
 C30 C 0.66091 -0.24925 0.16060
 C31 C 0.66071 -0.22557 0.18863
 H32 H 0.69940 -0.29143 0.14794
 H33 H 0.64209 -0.20443 0.19401
 Cu34 Cu 0.75005 -0.27615 0.21452
 Cu35 Cu 0.70387 -0.20825 0.25085
 Cu36 Cu 0.77937 -0.24006 0.28905
 N37 N 0.79280 -0.29343 0.23603
 N38 N 0.80364 -0.27924 0.26547
 C39 C 0.83402 -0.29463 0.27437
 C40 C 0.84287 -0.31982 0.24928
 C41 C 0.81607 -0.31857 0.22520
 H42 H 0.84913 -0.28749 0.29707
 H43 H 0.81409 -0.33404 0.20132
 N44 N 0.75157 -0.20045 0.30903
 N45 N 0.72338 -0.18755 0.29403
 C46 C 0.71243 -0.15858 0.31214
 C47 C 0.73466 -0.15321 0.33988
 C48 C 0.75915 -0.18025 0.33709
 H49 H 0.69054 -0.14193 0.30516
 H50 H 0.78190 -0.18382 0.35319
 H51 H 0.75662 -0.21963 0.24481
 H52 H 0.72969 -0.25111 0.27058
 N53 N 0.71171 0.24260 0.80591
 N54 N 0.72844 0.27020 0.81788
 C55 C 0.71415 0.28026 0.84892
 C56 C 0.68694 0.25802 0.85675
 C57 C 0.68595 0.23430 0.82891
 H58 H 0.72300 0.30197 0.86496
 H59 H 0.66825 0.21250 0.82580
 Cu60 Cu 0.76768 0.29028 0.79253
 Cu61 Cu 0.72577 0.21906 0.76214
 Cu62 Cu 0.79680 0.25377 0.71664
 N63 N 0.80768 0.30904 0.76726
 N64 N 0.81878 0.29498 0.73736
 C65 C 0.84730 0.31234 0.72605
 C66 C 0.85457 0.33858 0.75047
 C67 C 0.82886 0.33572 0.77616
 H68 H 0.86194 0.30567 0.70232
 H69 H 0.82635 0.35145 0.79994
 N70 N 0.77105 0.21222 0.70007
 N71 N 0.74404 0.19908 0.71739
 C72 C 0.73316 0.17003 0.70035
 C73 C 0.75442 0.16458 0.67092
 C74 C 0.77808 0.19179 0.67157
 H75 H 0.71209 0.15351 0.70938
 H76 H 0.79948 0.19570 0.65310
 H77 H 0.77806 0.23369 0.76344
 H78 H 0.74750 0.26263 0.73877
 N79 N 0.31434 -0.24009 0.79677
 N80 N 0.29931 -0.26773 0.81055
 C81 C 0.31663 -0.27675 0.83955
 C82 C 0.34403 -0.25374 0.84407
 C83 C 0.34179 -0.23070 0.81646
 H84 H 0.30965 -0.29811 0.85658
 H85 H 0.35818 -0.20823 0.81159
 Cu86 Cu 0.25784 -0.28822 0.78967
 Cu87 Cu 0.29626 -0.21749 0.75512
 Cu88 Cu 0.22260 -0.25422 0.71761
 N89 N 0.21629 -0.30869 0.76893
 N90 N 0.20283 -0.29515 0.74062
 C91 C 0.17378 -0.31294 0.73220
 C92 C 0.16862 -0.33898 0.75647
 C93 C 0.19617 -0.33566 0.77949
 H94 H 0.15704 -0.30685 0.71050
 H95 H 0.20075 -0.35103 0.80256
 N96 N 0.24642 -0.21274 0.69839
 N97 N 0.27417 -0.19847 0.71292
 C98 C 0.28302 -0.16955 0.69498
 C99 C 0.25993 -0.16553 0.66786
 C100 C 0.23703 -0.19335 0.67077
 H101 H 0.30425 -0.15213 0.70151
 H102 H 0.21446 -0.19836 0.65478
 H103 H 0.24455 -0.23268 0.76160
 H104 H 0.27340 -0.26199 0.73369
 N105 N 0.69961 -0.23207 0.79005
 N106 N 0.71593 -0.25883 0.80413
 C107 C 0.70059 -0.26562 0.83531
 C108 C 0.67306 -0.24183 0.84090
 C109 C 0.67325 -0.22103 0.81162
 H110 H 0.70915 -0.28609 0.85261
 H111 H 0.65570 -0.19922 0.80653
 Cu112 Cu 0.75555 -0.28248 0.78033
 Cu113 Cu 0.71373 -0.21358 0.74489
 Cu114 Cu 0.79587 -0.24077 0.71404
 N115 N 0.80110 -0.29826 0.76158
 N116 N 0.81667 -0.28157 0.73586
 C117 C 0.84799 -0.29686 0.72856
 C118 C 0.85251 -0.32471 0.75108
 C119 C 0.82215 -0.32487 0.77161
 H120 H 0.86608 -0.28795 0.70857
 H121 H 0.81623 -0.34256 0.79276
 N122 N 0.77055 -0.20020 0.69514
 N123 N 0.73905 -0.19018 0.70658
 C124 C 0.72934 -0.16093 0.68971
 C125 C 0.75610 -0.15221 0.66651
 C126 C 0.78166 -0.17769 0.67057
 H127 H 0.70511 -0.14656 0.69488
 H128 H 0.80693 -0.17902 0.65722
 H129 H 0.74489 -0.25439 0.72382
 H130 H 0.76483 -0.22430 0.75682
 N131 N 0.30887 0.24440 0.79578
 N132 N 0.29516 0.27541 0.80386
 C133 C 0.31287 0.28948 0.83081
 C134 C 0.33907 0.26611 0.83986
 C135 C 0.33577 0.23774 0.81709
 H136 H 0.30665 0.31438 0.84364
 H137 H 0.35067 0.21339 0.81702
 Cu138 Cu 0.25447 0.29331 0.77940
 Cu139 Cu 0.28896 0.21335 0.76070
 Cu140 Cu 0.21611 0.24410 0.71711
 N141 N 0.21379 0.31043 0.75442
 N142 N 0.19914 0.29111 0.72998
 C143 C 0.17119 0.30853 0.71762
 C144 C 0.16806 0.34041 0.73522
 C145 C 0.19553 0.34082 0.75848
 H146 H 0.15372 0.29836 0.69797
 H147 H 0.20131 0.36125 0.77743
 N148 N 0.23724 0.19725 0.70781
 N149 N 0.26505 0.18577 0.72450
 C150 C 0.27256 0.15268 0.71368
 C151 C 0.24851 0.14283 0.68902
 C152 C 0.22641 0.17167 0.68575
 H153 H 0.29375 0.13657 0.72329
 H154 H 0.20383 0.17363 0.66914
 H155 H 0.26775 0.25277 0.73063
 H156 H 0.23846 0.23316 0.76470
 N157 N 0.28894 -0.24161 0.19905
 N158 N 0.27296 -0.26927 0.18614
 C159 C 0.28770 -0.27803 0.15490
 C160 C 0.31425 -0.25473 0.14781
 C161 C 0.31445 -0.23185 0.17639
 H162 H 0.27938 -0.29934 0.13801
 H163 H 0.33103 -0.20923 0.17995
 Cu164 Cu 0.23340 -0.29017 0.21052
 Cu165 Cu 0.27369 -0.21916 0.24311
 Cu166 Cu 0.20191 -0.25565 0.28612
 N167 N 0.19392 -0.31110 0.23504
 N168 N 0.18126 -0.29711 0.26441
 C169 C 0.15283 -0.31523 0.27474
 C170 C 0.14759 -0.34213 0.25073
 C171 C 0.17415 -0.33875 0.22585
 H172 H 0.13660 -0.30881 0.29754
 H173 H 0.17799 -0.35440 0.20218
 N174 N 0.22645 -0.21388 0.30395
 N175 N 0.25403 -0.20040 0.28783
 C176 C 0.26418 -0.17161 0.30571
 C177 C 0.24186 -0.16665 0.33441
 C178 C 0.21829 -0.19388 0.33247
 H179 H 0.28551 -0.15491 0.29770
 H180 H 0.19633 -0.19821 0.35015
 H181 H 0.25211 -0.26325 0.26514
 H182 H 0.22198 -0.23407 0.24042
 N183 N 0.69468 0.23683 0.19746
 N184 N 0.70870 0.26616 0.18651
 C185 C 0.69139 0.27705 0.15813
 C186 C 0.66513 0.25314 0.15118
 C187 C 0.66795 0.22810 0.17665
 H188 H 0.69788 0.30015 0.14335
 H189 H 0.65235 0.20466 0.17913
 Cu190 Cu 0.74903 0.28634 0.20965
 Cu191 Cu 0.71336 0.21083 0.23626
 Cu192 Cu 0.78659 0.24445 0.27687
 N193 N 0.79052 0.30451 0.23225
 N194 N 0.80507 0.28814 0.25844
 C195 C 0.83407 0.30549 0.26795
 C196 C 0.83788 0.33423 0.24663
 C197 C 0.80979 0.33284 0.22422
 H198 H 0.85171 0.29730 0.28822
 H199 H 0.80439 0.35038 0.20296
 N200 N 0.76382 0.20057 0.29151
 N201 N 0.73584 0.18813 0.27585
 C202 C 0.72699 0.15749 0.29037
 C203 C 0.75036 0.15015 0.31632
 C204 C 0.77349 0.17796 0.31657
 H205 H 0.70550 0.14111 0.28225
 H206 H 0.79602 0.18107 0.33309
 H207 H 0.73553 0.25315 0.26219
 H208 H 0.76461 0.22808 0.23048
 C209 C 0.24960 -0.00951 0.41405
 C210 C 0.25068 0.02222 0.43315
 C211 C 0.24456 0.02189 0.46946
 C212 C 0.23623 -0.00957 0.48691
 C213 C 0.23470 -0.04097 0.46677
 C214 C 0.24269 -0.04132 0.43078
 C215 C 0.23014 -0.00967 0.52593
 C216 C 0.23662 -0.04023 0.54558
 C217 C 0.23254 -0.03977 0.58230
 C218 C 0.22380 -0.00809 0.59959
 C219 C 0.21801 0.02274 0.58083
 C220 C 0.21948 0.02135 0.54417
 H221 H 0.25281 -0.00937 0.38587
 H222 H 0.24694 0.04643 0.48385
 H223 H 0.22749 -0.06545 0.47882
 H224 H 0.24623 -0.06403 0.53273
 H225 H 0.22133 -0.00756 0.62790
 H226 H 0.21333 0.04507 0.53023
 C227 C 0.75576 0.00684 0.59479
 C228 C 0.75523 0.03856 0.57659
 C229 C 0.76011 0.03781 0.54010
 C230 C 0.76634 0.00582 0.52154
 C231 C 0.76748 -0.02557 0.54074
 C232 C 0.76072 -0.02537 0.57694
 C233 C 0.77014 0.00502 0.48233
 C234 C 0.76076 -0.02517 0.46267
 C235 C 0.76325 -0.02577 0.42588
 C236 C 0.77298 0.00480 0.40857
 C237 C 0.78101 0.03560 0.42736
 C238 C 0.78135 0.03497 0.46401
 H239 H 0.75338 0.00715 0.62305
 H240 H 0.75816 0.06240 0.52642
 H241 H 0.77314 -0.05053 0.52775
 H242 H 0.75024 -0.04782 0.47571
 H243 H 0.77438 0.00453 0.38021
 H244 H 0.78929 0.05845 0.47796
 C245 C 0.40046 0.25342 0.00234
 C246 C 0.41775 0.24732 0.03384
 C247 C 0.45422 0.24167 0.03309
 C248 C 0.47408 0.24518 0.00177
 C249 C 0.45606 0.25259 -0.02926
 C250 C 0.41926 0.25530 -0.02935
 C251 C 0.51339 0.24227 0.00152
 C252 C 0.53231 0.23275 -0.02945
 C253 C 0.56908 0.23308 -0.03058
 C254 C 0.58731 0.24006 0.00024
 C255 C 0.56931 0.24915 0.03143
 C256 C 0.53252 0.25040 0.03189
 H257 H 0.37210 0.25573 0.00215
 H258 H 0.46690 0.23505 0.05725
 H259 H 0.47048 0.25716 -0.05334
 H260 H 0.51876 0.22564 -0.05312
 H261 H 0.61565 0.23775 0.00003
 H262 H 0.51918 0.25868 0.05591
 C263 C 0.59759 0.76262 0.00117
 C264 C 0.57894 0.76237 0.03299
 C265 C 0.54211 0.76523 0.03287
 C266 C 0.52388 0.77121 0.00148
 C267 C 0.54387 0.77288 -0.03007
 C268 C 0.58030 0.76679 -0.03059
 C269 C 0.48433 0.77428 0.00160
 C270 C 0.46505 0.76759 -0.02913
 C271 C 0.42811 0.76934 -0.02868
 C272 C 0.41019 0.77543 0.00313
 C273 C 0.42845 0.78107 0.03419
 C274 C 0.46521 0.78239 0.03290
 H275 H 0.62595 0.76013 0.00133
 H276 H 0.52794 0.76166 0.05722
 H277 H 0.53144 0.77823 -0.05464
 H278 H 0.47829 0.75971 -0.05325
 H279 H 0.38174 0.77616 0.00356
 H280 H 0.47851 0.78883 0.05686
 C281 C -0.00296 0.40235 0.21915
 C282 C 0.02807 0.42099 0.21324
 C283 C 0.02625 0.45755 0.20929
 C284 C -0.00579 0.47617 0.21456
 C285 C -0.03638 0.45678 0.22187
 C286 C -0.03529 0.41986 0.22302
 C287 C -0.00706 0.51562 0.21435
 C288 C -0.03842 0.53398 0.20678
 C289 C -0.04066 0.57069 0.21046
 C290 C -0.01038 0.58962 0.21852
 C291 C 0.02148 0.57230 0.22437
 C292 C 0.02268 0.53535 0.22347
 H293 H -0.00211 0.37391 0.22040
 H294 H 0.05018 0.47132 0.20301
 H295 H -0.06085 0.47033 0.22795
 H296 H -0.06160 0.51991 0.19896
 H297 H -0.01144 0.61810 0.21978
 H298 H 0.04653 0.52216 0.23110
 C299 C 0.00851 0.60032 0.76461
 C300 C 0.03998 0.58182 0.76940
 C301 C 0.03985 0.54478 0.76773
 C302 C 0.00905 0.52628 0.75906
 C303 C -0.02190 0.54604 0.75325
 C304 C -0.02250 0.58277 0.75646
 C305 C 0.00931 0.48680 0.75476
 C306 C -0.02224 0.46755 0.75700
 C307 C -0.02265 0.43132 0.74967
 C308 C 0.00919 0.41330 0.74372
 C309 C 0.04104 0.43110 0.74326
 C310 C 0.04088 0.46793 0.74731
 H311 H 0.00832 0.62872 0.76730
 H312 H 0.06377 0.53053 0.77276
 H313 H -0.04569 0.53335 0.74505
 H314 H -0.04691 0.48042 0.76387
 H315 H 0.00938 0.38495 0.74032
 H316 H 0.06530 0.48160 0.74370
 C317 C 0.35011 0.24202 0.13182
 C318 C 0.34767 0.26592 0.10656
 C319 C 0.36893 0.26565 0.07380
 C320 C 0.39811 0.24620 0.06770
 H321 H 0.32780 0.28641 0.10877
 H322 H 0.36011 0.28361 0.05401
 H323 H 0.36922 0.22082 0.12977
 H324 H 0.40910 0.23057 0.08829
 C325 C 0.63822 0.74856 0.13231
 C326 C 0.61032 0.77003 0.12858
 C327 C 0.58801 0.77003 0.09719
 C328 C 0.59919 0.75828 0.06553
 H329 H 0.60305 0.78871 0.14919
 H330 H 0.56281 0.78329 0.09995
 H331 H 0.64415 0.72850 0.11260
 H332 H 0.62571 0.74811 0.06239
 C333 C 0.66529 0.26012 -0.11106
 C334 C 0.63744 0.23995 -0.10487
 C335 C 0.61795 0.24433 -0.07147
 C336 C 0.58826 0.22719 -0.06431
 H337 H 0.62912 0.22062 -0.12405
 H338 H 0.62794 0.26297 -0.05243
 H339 H 0.67267 0.27964 -0.09161
 H340 H 0.57684 0.21042 -0.08418
 C341 C 0.36802 0.74683 -0.12604
 C342 C 0.39524 0.76878 -0.12382
 C343 C 0.41813 0.77111 -0.09293
 C344 C 0.40698 0.76347 -0.06044
 H345 H 0.40165 0.78557 -0.14557
 H346 H 0.44378 0.78248 -0.09692
 H347 H 0.36287 0.72836 -0.10536
 H348 H 0.38005 0.75547 -0.05629
 C349 C 0.10884 0.33005 0.25335
 C350 C 0.10332 0.35634 0.23122
 C351 C 0.06910 0.37472 0.23174
 C352 C 0.06263 0.40266 0.21188
 H353 H 0.12362 0.36410 0.21278
 H354 H 0.04888 0.36541 0.24952
 H355 H 0.08820 0.32303 0.27179
 H356 H 0.08360 0.41343 0.19592
 C357 C 0.14005 0.63831 0.75733
 C358 C 0.13559 0.61298 0.78108
 C359 C 0.10419 0.59034 0.78142
 C360 C 0.07239 0.60290 0.77314
 H361 H 0.15587 0.60736 0.79971
 H362 H 0.10759 0.56356 0.78983
 H363 H 0.12060 0.64165 0.73726
 H364 H 0.06985 0.63076 0.76805
 C365 C -0.12642 0.65983 0.24919
 C366 C -0.11785 0.63523 0.22495
 C367 C -0.08386 0.61661 0.22729
 C368 C -0.07493 0.58899 0.20673
 H369 H -0.13530 0.62898 0.20371
 H370 H -0.06586 0.62541 0.24718
 H371 H -0.10841 0.66468 0.27038
 H372 H -0.09375 0.57843 0.18852
 C373 C -0.11753 0.36212 0.75114
 C374 C -0.09273 0.36286 0.72581
 C375 C -0.06092 0.38459 0.72724
 C376 C -0.05642 0.41237 0.74881
 H377 H -0.09403 0.34502 0.70353
 H378 H -0.04019 0.37708 0.70875
 H379 H -0.11582 0.37939 0.77381
 H380 H -0.07797 0.42246 0.76499
 C381 C 0.25120 0.11623 0.36477
 C382 C 0.27616 0.09110 0.36414
 C383 C 0.27406 0.05877 0.38500
 C384 C 0.25592 0.05621 0.41531
 H385 H 0.29756 0.09225 0.34521
 H386 H 0.28854 0.03617 0.37457
 H387 H 0.22877 0.11434 0.38242
 H388 H 0.24447 0.07960 0.42761
 C389 C 0.75476 0.13474 0.64573
 C390 C 0.73142 0.10871 0.64766
 C391 C 0.73340 0.07618 0.62603
 C392 C 0.75107 0.07282 0.59541
 H393 H 0.71121 0.10954 0.66791
 H394 H 0.71904 0.05405 0.63617
 H395 H 0.77591 0.13359 0.62644
 H396 H 0.76254 0.09566 0.58337
 C397 C 0.25878 -0.13571 0.64364
 C398 C 0.23781 -0.13501 0.61581
 C399 C 0.23463 -0.10435 0.59260
 C400 C 0.23893 -0.07115 0.60397
 H401 H 0.22270 -0.15797 0.60904
 H402 H 0.22536 -0.10937 0.56640
 H403 H 0.27591 -0.11384 0.64903
 H404 H 0.24468 -0.06640 0.63130
 C405 C 0.73456 -0.12260 0.36416
 C406 C 0.75467 -0.12160 0.39263
 C407 C 0.75817 -0.09029 0.41573
 C408 C 0.75481 -0.05729 0.40434
 H409 H 0.76933 -0.14482 0.39988
 H410 H 0.76758 -0.09490 0.44183
 H411 H 0.71776 -0.10046 0.35812
 H412 H 0.74877 -0.05309 0.37712
 C413 C 0.64895 0.76214 -0.12851
 C414 C 0.65022 0.74038 -0.10134
 C415 C 0.62854 0.74396 -0.06895
 C416 C 0.60004 0.76486 -0.06448
 H417 H 0.66937 0.71916 -0.10170
 H418 H 0.63646 0.72719 -0.04780
 H419 H 0.63053 0.78398 -0.12839
 H420 H 0.58974 0.77934 -0.08623
 C421 C 0.36244 0.26959 -0.13001
 C422 C 0.38890 0.24689 -0.12471
 C423 C 0.41074 0.24723 -0.09315
 C424 C 0.39946 0.26007 -0.06197
 H425 H 0.39528 0.22686 -0.14432
 H426 H 0.43542 0.23290 -0.09515
 H427 H 0.35730 0.29120 -0.11178
 H428 H 0.37323 0.27117 -0.05936
 C429 C 0.33520 0.74568 0.11509
 C430 C 0.36185 0.76751 0.10921
 C431 C 0.38049 0.76598 0.07507
 C432 C 0.40948 0.78447 0.06838
 H433 H 0.36987 0.78611 0.12922
 H434 H 0.37067 0.74820 0.05517
 H435 H 0.32809 0.72694 0.09480
 H436 H 0.42078 0.80035 0.08903
 C437 C 0.64054 0.25197 0.12194
 C438 C 0.64230 0.27425 0.09523
 C439 C 0.62071 0.27038 0.06380
 C440 C 0.58860 0.25623 0.06403
 H441 H 0.66251 0.29398 0.09450
 H442 H 0.63193 0.28005 0.03961
 H443 H 0.62194 0.23065 0.12156
 H444 H 0.57581 0.25001 0.08868
 C445 C -0.11843 0.65270 0.75399
 C446 C -0.08907 0.65609 0.73434
 C447 C -0.05679 0.63488 0.73860
 C448 C -0.05593 0.60234 0.75158
 H449 H -0.08701 0.67712 0.71574
 H450 H -0.03274 0.64654 0.72905
 H451 H -0.11964 0.63271 0.77383
 H452 H -0.08023 0.58906 0.75767
 C453 C -0.13230 0.35856 0.24640
 C454 C -0.13049 0.38605 0.22491
 C455 C -0.09961 0.40906 0.22185
 C456 C -0.06697 0.39846 0.22942
 H457 H -0.15258 0.39247 0.20871
 H458 H -0.10386 0.43432 0.20993
 H459 H -0.11129 0.35319 0.26429
 H460 H -0.06264 0.37182 0.23806
 C461 C 0.13932 0.36619 0.73120
 C462 C 0.13572 0.39526 0.75137
 C463 C 0.10489 0.41935 0.75071
 C464 C 0.07360 0.40979 0.73838
 H465 H 0.15577 0.40173 0.77002
 H466 H 0.10742 0.44437 0.76426
 H467 H 0.12030 0.36012 0.71141
 H468 H 0.07043 0.38354 0.72772
 C469 C 0.11773 0.63358 0.25036
 C470 C 0.11635 0.60627 0.22780
 C471 C 0.08562 0.58320 0.22432
 C472 C 0.05267 0.59379 0.23216
 H473 H 0.13881 0.59998 0.21101
 H474 H 0.09030 0.55792 0.21158
 H475 H 0.09645 0.63867 0.26898
 H476 H 0.04791 0.62043 0.24166
 C477 C 0.75905 -0.12132 0.64388
 C478 C 0.73443 -0.09593 0.64367
 C479 C 0.73754 -0.06324 0.62359
 C480 C 0.75910 -0.05905 0.59579
 H481 H 0.71150 -0.09777 0.66063
 H482 H 0.71989 -0.04201 0.63170
 H483 H 0.78289 -0.11902 0.62831
 H484 H 0.77423 -0.08111 0.58516
 C485 C 0.24092 -0.13736 0.36023
 C486 C 0.26537 -0.11232 0.36025
 C487 C 0.26438 -0.08045 0.38284
 C488 C 0.24288 -0.07501 0.41070
 H489 H 0.28685 -0.11382 0.34135
 H490 H 0.28318 -0.06047 0.37588
 H491 H 0.21896 -0.13613 0.37854
 H492 H 0.22615 -0.09577 0.42003
 C493 C 0.75006 0.11784 0.33680
 C494 C 0.77216 0.11081 0.36257
 C495 C 0.76903 0.07703 0.38050
 C496 C 0.78710 0.06909 0.40905
 H497 H 0.79190 0.12952 0.37033
 H498 H 0.75005 0.05850 0.37060
 H499 H 0.73025 0.09874 0.33006
 H500 H 0.80419 0.08849 0.42065
 C501 C 0.24749 0.10810 0.67163
 C502 C 0.22615 0.10015 0.64536
 C503 C 0.22845 0.06496 0.62885
 C504 C 0.21216 0.05706 0.59905
 H505 H 0.20801 0.11958 0.63547
 H506 H 0.24568 0.04567 0.64042
 H507 H 0.26597 0.08840 0.68048
 H508 H 0.19703 0.07722 0.58617
   
