data_POSCAR
  _audit_creation_date              2014-09-24
  _audit_creation_method            'ToBaCCo'
  _symmetry_space_group_name_H-M    'P1'
  _symmetry_Int_Tables_number       1
  _symmetry_cell_setting            triclinic
  loop_
  _symmetry_equiv_pos_as_xyz
 x,y,z
_cell_length_a 37.4775
_cell_length_b 44.1246
_cell_length_c 38.0883
_cell_angle_alpha 89.880100
_cell_angle_beta 88.139000
_cell_angle_gamma 89.980900
loop_
  _atom_site_label
  _atom_site_type_symbol
  _atom_site_fract_x
  _atom_site_fract_y
  _atom_site_fract_z
C1 C 1.24933 0.24328 0.25761
 C2 C 0.75282 -0.25856 0.24454
 C3 C 0.74879 0.24897 -0.24986
 C4 C 1.24566 -0.25381 -0.24976
 C5 C 0.25132 0.25602 0.74418
 C6 C 0.75181 0.75274 0.75553
 C7 C 0.74759 0.25678 0.25016
 C8 C 0.24956 0.75780 0.25117
 N9 N 1.06139 0.03557 0.03908
 N10 N 1.08537 0.05656 0.04492
 N11 N 1.03526 -0.02739 0.06448
 N12 N 1.03984 -0.04849 0.08851
 N13 N 1.06130 -0.02805 0.04062
 N14 N 1.08449 -0.04955 0.04795
 N15 N 1.03544 0.03643 0.06303
 N16 N 1.04135 0.05812 0.08610
 C17 C 1.07255 0.07066 0.07411
 C18 C 1.07056 -0.06229 0.07780
 N19 N 0.93613 -0.02896 0.03670
 N20 N 0.91345 -0.05154 0.04156
 N21 N 0.95821 0.03582 0.06073
 N22 N 0.95107 0.05841 0.08251
 N23 N 0.93467 0.03475 0.03598
 N24 N 0.91093 0.05665 0.04020
 N25 N 0.95879 -0.02790 0.06224
 N26 N 0.95217 -0.04984 0.08515
 Mn27 Mn 0.99686 0.00436 0.06305
 C28 C 0.92386 -0.06446 0.07183
 C29 C 0.92155 0.07130 0.06928
 N30 N 1.06579 -0.02840 -0.03516
 N31 N 1.08896 -0.05067 -0.03919
 N32 N 1.04270 0.03578 -0.06085
 N33 N 1.05057 0.05757 -0.08370
 N34 N 1.06607 0.03517 -0.03592
 N35 N 1.09035 0.05646 -0.04105
 N36 N 1.04328 -0.02813 -0.06086
 N37 N 1.05054 -0.05041 -0.08309
 Mn38 Mn 1.06394 0.00346 0.00214
 C39 C 1.07908 -0.06432 -0.06909
 C40 C 1.08029 0.07043 -0.07080
 N41 N 0.93926 0.03424 -0.03926
 N42 N 0.91543 0.05542 -0.04511
 N43 N 0.96668 -0.02862 -0.06326
 N44 N 0.96230 -0.04968 -0.08725
 N45 N 0.94067 -0.02956 -0.03934
 N46 N 0.91783 -0.05137 -0.04654
 N47 N 0.96527 0.03512 -0.06317
 N48 N 0.95950 0.05689 -0.08628
 Mn49 Mn 0.93730 0.00250 -0.00148
 Mn50 Mn 1.00453 0.00366 -0.06249
 Cl51 Cl 1.00063 0.00350 0.00029
 C52 C 0.92834 0.06952 -0.07438
 C53 C 0.93189 -0.06390 -0.07642
 N54 N 1.06555 0.53244 0.53136
 N55 N 1.09090 0.55267 0.53547
 N56 N 1.03851 0.47116 0.56219
 N57 N 1.04263 0.44967 0.58594
 N58 N 1.06334 0.46909 0.53718
 N59 N 1.08492 0.44616 0.54316
 N60 N 1.04075 0.53483 0.55637
 N61 N 1.04864 0.55693 0.57816
 C62 C 1.07988 0.56803 0.56452
 C63 C 1.07170 0.43420 0.57364
 N64 N 0.93700 0.47176 0.54009
 N65 N 0.91299 0.45079 0.54807
 N66 N 0.96349 0.53666 0.55830
 N67 N 0.95647 0.55854 0.58112
 N68 N 0.93856 0.53528 0.53486
 N69 N 0.91383 0.55603 0.54136
 N70 N 0.96126 0.47308 0.56417
 N71 N 0.95418 0.45315 0.58936
 Mn72 Mn 1.00102 0.50399 0.56070
 C73 C 0.92411 0.43926 0.57880
 C74 C 0.92559 0.57068 0.57000
 N75 N 1.06389 0.46413 0.46203
 N76 N 1.08557 0.44066 0.45864
 N77 N 1.04113 0.52652 0.43254
 N78 N 1.04737 0.54634 0.40718
 N79 N 1.06602 0.52776 0.45591
 N80 N 1.09001 0.54861 0.44701
 N81 N 1.03917 0.46314 0.43849
 N82 N 1.04325 0.43901 0.41842
 Mn83 Mn 1.06510 0.49837 0.49664
 C84 C 1.07226 0.42514 0.43134
 C85 C 1.07783 0.56012 0.41656
 N86 N 0.93943 0.53043 0.45899
 N87 N 0.91654 0.55194 0.45100
 N88 N 0.96290 0.46492 0.44021
 N89 N 0.95648 0.44273 0.41827
 N90 N 0.93742 0.46692 0.46453
 N91 N 0.91272 0.44610 0.45957
 N92 N 0.96478 0.52826 0.43452
 N93 N 0.96007 0.54829 0.40942
 Mn94 Mn 0.93768 0.50112 0.49965
 Mn95 Mn 1.00199 0.49570 0.43617
 Cl96 Cl 1.00141 0.49985 0.49836
 C97 C 0.93002 0.56303 0.42009
 C98 C 0.92529 0.43097 0.43075
 N99 N 0.56881 0.02844 0.53693
 N100 N 0.59342 0.04911 0.54237
 N101 N 0.54246 -0.03427 0.56291
 N102 N 0.54789 -0.05597 0.58613
 N103 N 0.56717 -0.03512 0.53768
 N104 N 0.59001 -0.05723 0.54302
 N105 N 0.54345 0.02968 0.56150
 N106 N 0.55024 0.05127 0.58437
 C107 C 0.58143 0.06338 0.57189
 C108 C 0.57761 -0.07020 0.57321
 N109 N 0.44135 -0.03410 0.53970
 N110 N 0.41707 -0.05505 0.54734
 N111 N 0.46585 0.03042 0.56246
 N112 N 0.45915 0.05284 0.58474
 N113 N 0.44164 0.02968 0.53829
 N114 N 0.41814 0.05157 0.54322
 N115 N 0.46540 -0.03323 0.56405
 N116 N 0.45803 -0.05335 0.58887
 Mn117 Mn 0.50428 -0.00175 0.56319
 C118 C 0.42806 -0.06704 0.57799
 C119 C 0.42936 0.06596 0.57215
 N120 N 0.56868 -0.03584 0.46177
 N121 N 0.59193 -0.05774 0.45467
 N122 N 0.54561 0.02839 0.43780
 N123 N 0.55253 0.04996 0.41453
 N124 N 0.57006 0.02780 0.46166
 N125 N 0.59423 0.04898 0.45542
 N126 N 0.54407 -0.03518 0.43807
 N127 N 0.54949 -0.05663 0.41456
 Mn128 Mn 0.56904 -0.00377 0.49954
 C129 C 0.57927 -0.07069 0.42525
 C130 C 0.58285 0.06273 0.42604
 N131 N 0.44311 0.02931 0.46285
 N132 N 0.42040 0.05155 0.45703
 N133 N 0.46805 -0.03435 0.43891
 N134 N 0.46217 -0.05510 0.41499
 N135 N 0.44261 -0.03453 0.46341
 N136 N 0.41842 -0.05530 0.45651
 N137 N 0.46889 0.02925 0.43870
 N138 N 0.46446 0.05126 0.41581
 Mn139 Mn 0.44174 -0.00252 0.50111
 Mn140 Mn 0.50666 -0.00289 0.43809
 Cl141 Cl 0.50540 -0.00276 0.50055
 C142 C 0.43421 0.06513 0.42762
 C143 C 0.43129 -0.06819 0.42636
 N144 N 0.55608 0.53205 0.03697
 N145 N 0.57902 0.55412 0.04258
 N146 N 0.53222 0.46814 0.06195
 N147 N 0.53892 0.44678 0.08521
 N148 N 0.55702 0.46840 0.03682
 N149 N 0.58109 0.44728 0.04211
 N150 N 0.53069 0.53185 0.06152
 N151 N 0.53554 0.55373 0.08439
 C152 C 0.56568 0.56758 0.07219
 C153 C 0.56941 0.43381 0.07224
 N154 N 0.43068 0.46663 0.03958
 N155 N 0.40677 0.44537 0.04728
 N156 N 0.45385 0.53091 0.06292
 N157 N 0.44719 0.55276 0.08584
 N158 N 0.42957 0.53055 0.03884
 N159 N 0.40579 0.55217 0.04467
 N160 N 0.45518 0.46732 0.06345
 N161 N 0.44849 0.44688 0.08806
 Mn162 Mn 0.49299 0.49955 0.06281
 C163 C 0.41847 0.43308 0.07751
 C164 C 0.41719 0.56595 0.07401
 N165 N 0.55833 0.46801 -0.03867
 N166 N 0.58140 0.44573 -0.04417
 N167 N 0.53323 0.53164 -0.06282
 N168 N 0.53882 0.55432 -0.08509
 N169 N 0.55731 0.53178 -0.03856
 N170 N 0.57981 0.55442 -0.04353
 N171 N 0.53387 0.46775 -0.06256
 N172 N 0.53960 0.44535 -0.08493
 Mn173 Mn 0.55755 0.50006 -0.00089
 C174 C 0.56931 0.43171 -0.07313
 C175 C 0.56799 0.56839 -0.07257
 N176 N 0.43084 0.53045 -0.03709
 N177 N 0.40767 0.55242 -0.04276
 N178 N 0.45686 0.46697 -0.06135
 N179 N 0.45159 0.44492 -0.08401
 N180 N 0.43207 0.46653 -0.03619
 N181 N 0.40952 0.44405 -0.04080
 N182 N 0.45634 0.53060 -0.06156
 N183 N 0.45132 0.55253 -0.08440
 Mn184 Mn 0.43034 0.49853 0.00127
 Mn185 Mn 0.49508 0.49924 -0.06248
 Cl186 Cl 0.49395 0.49933 0.00018
 C187 C 0.42097 0.56609 -0.07236
 C188 C 0.42208 0.43069 -0.07067
 C189 C 1.19423 0.24018 0.21943
 C190 C 1.17030 0.22423 0.19897
 C191 C 1.17666 0.19381 0.19044
 C192 C 1.20767 0.17974 0.20230
 C193 C 1.23130 0.19553 0.22306
 C194 C 1.22402 0.22559 0.23375
 C195 C 1.15035 0.17688 0.16999
 C196 C 1.16044 0.15516 0.14731
 C197 C 1.13534 0.13630 0.12771
 C198 C 1.14762 0.12342 0.09602
 C199 C 1.12648 0.10302 0.07819
 C200 C 1.09269 0.09458 0.09196
 C201 C 1.07983 0.10794 0.12332
 C202 C 1.10099 0.12874 0.14109
 H203 H 1.18886 0.26381 0.22507
 H204 H 1.14689 0.23571 0.18959
 H205 H 1.21345 0.15627 0.19618
 H206 H 1.25521 0.18391 0.23081
 H207 H 1.12246 0.18310 0.17294
 H208 H 1.18867 0.15137 0.14198
 H209 H 1.17400 0.12879 0.08527
 H210 H 1.13715 0.09319 0.05402
 H211 H 1.05391 0.10175 0.13452
 H212 H 1.09104 0.13782 0.16590
 C213 C 1.19883 0.74201 0.70302
 C214 C 1.17797 0.72552 0.68011
 C215 C 1.18367 0.69443 0.67542
 C216 C 1.21126 0.68024 0.69337
 C217 C 1.23178 0.69662 0.71665
 C218 C 1.22456 0.72749 0.72354
 C219 C 1.15933 0.67700 0.65333
 C220 C 1.16992 0.65236 0.63543
 C221 C 1.14523 0.63310 0.61585
 C222 C 1.15871 0.61672 0.58688
 C223 C 1.13698 0.59636 0.56949
 C224 C 1.10152 0.59153 0.58123
 C225 C 1.08779 0.60817 0.60998
 C226 C 1.10943 0.62889 0.62712
 H227 H 1.19390 0.76607 0.70588
 H228 H 1.15722 0.73706 0.66612
 H229 H 1.21645 0.65624 0.69030
 H230 H 1.25315 0.68477 0.72923
 H231 H 1.13214 0.68504 0.65143
 H232 H 1.19792 0.64620 0.63445
 H233 H 1.18626 0.61942 0.57794
 H234 H 1.14832 0.58376 0.54746
 H235 H 1.06058 0.60477 0.61961
 H236 H 1.09849 0.64064 0.64995
 C237 C 0.69443 0.24124 0.71171
 C238 C 0.67193 0.22341 0.69160
 C239 C 0.67956 0.19271 0.68572
 C240 C 0.71016 0.18019 0.70035
 C241 C 0.73236 0.19785 0.72076
 C242 C 0.72416 0.22851 0.72826
 C243 C 0.65495 0.17398 0.66506
 C244 C 0.66654 0.15078 0.64503
 C245 C 0.64280 0.13054 0.62532
 C246 C 0.65704 0.11544 0.59568
 C247 C 0.63666 0.09432 0.57784
 C248 C 0.60171 0.08738 0.58963
 C249 C 0.58717 0.10269 0.61908
 C250 C 0.60748 0.12416 0.63675
 H251 H 0.68825 0.26507 0.71497
 H252 H 0.64875 0.23372 0.68022
 H253 H 0.71688 0.15655 0.69646
 H254 H 0.75623 0.18720 0.73005
 H255 H 0.62698 0.18015 0.66552
 H256 H 0.69499 0.14678 0.64196
 H257 H 0.68422 0.11977 0.58649
 H258 H 0.64866 0.08288 0.55527
 H259 H 0.56032 0.09771 0.62879
 H260 H 0.59593 0.13486 0.66000
 C261 C 0.74590 0.70761 0.19111
 C262 C 0.72641 0.68904 0.16923
 C263 C 0.68969 0.68482 0.17526
 C264 C 0.67291 0.69941 0.20422
 C265 C 0.69247 0.71811 0.22617
 C266 C 0.72924 0.72326 0.21947
 C267 C 0.67085 0.66352 0.15208
 C268 C 0.63524 0.66172 0.15000
 C269 C 0.61741 0.63873 0.12830
 C270 C 0.58326 0.62865 0.13897
 C271 C 0.56626 0.60586 0.12038
 C272 C 0.58290 0.59294 0.09042
 C273 C 0.61645 0.60383 0.07882
 C274 C 0.63357 0.62654 0.09754
 H275 H 0.77439 0.70968 0.18602
 H276 H 0.74027 0.67759 0.14766
 H277 H 0.64504 0.69569 0.21098
 H278 H 0.67876 0.72751 0.24904
 H279 H 0.68744 0.64830 0.13641
 H280 H 0.61821 0.67641 0.16585
 H281 H 0.57006 0.63790 0.16230
 H282 H 0.54024 0.59810 0.12976
 H283 H 0.62969 0.59451 0.05556
 H284 H 0.65930 0.63452 0.08774
 C285 C 0.80529 -0.22132 0.24209
 C286 C 0.82674 -0.19948 0.22526
 C287 C 0.82051 -0.19076 0.19061
 C288 C 0.79143 -0.20355 0.17357
 C289 C 0.77002 -0.22540 0.19036
 C290 C 0.77741 -0.23575 0.22449
 C291 C 0.84345 -0.16705 0.17394
 C292 C 0.84731 -0.16347 0.13903
 C293 C 0.86832 -0.13864 0.12227
 C294 C 0.85920 -0.12897 0.08862
 C295 C 0.87746 -0.10502 0.07213
 C296 C 0.90557 -0.09050 0.08882
 C297 C 0.91552 -0.10072 0.12204
 C298 C 0.89710 -0.12459 0.13865
 H299 H 0.81056 -0.22709 0.26908
 H300 H 0.84825 -0.18928 0.23944
 H301 H 0.78420 -0.19607 0.14770
 H302 H 0.74706 -0.23342 0.17665
 H303 H 0.85736 -0.15207 0.19130
 H304 H 0.83350 -0.17851 0.12167
 H305 H 0.83740 -0.13960 0.07529
 H306 H 0.86939 -0.09776 0.04640
 H307 H 0.93735 -0.09011 0.13533
 H308 H 0.90574 -0.13209 0.16406
 C309 C 0.79002 0.25783 0.69605
 C310 C 0.80875 0.27646 0.67210
 C311 C 0.80490 0.30798 0.67375
 C312 C 0.77979 0.32041 0.69772
 C313 C 0.76053 0.30180 0.72116
 C314 C 0.76709 0.27026 0.72251
 C315 C 0.82697 0.32759 0.65023
 C316 C 0.84112 0.35349 0.66173
 C317 C 0.86371 0.37368 0.63937
 C318 C 0.89028 0.39098 0.65500
 C319 C 0.91076 0.41161 0.63506
 C320 C 0.90439 0.41587 0.59929
 C321 C 0.87789 0.39849 0.58356
 C322 C 0.85785 0.37744 0.60336
 H323 H 0.79444 0.23360 0.69483
 H324 H 0.82719 0.26630 0.65305
 H325 H 0.77486 0.34460 0.69816
 H326 H 0.74064 0.31254 0.73809
 H327 H 0.83364 0.31956 0.62398
 H328 H 0.83732 0.35957 0.68916
 H329 H 0.89508 0.38861 0.68277
 H330 H 0.93089 0.42484 0.64787
 H331 H 0.87240 0.40139 0.55601
 H332 H 0.83703 0.36491 0.59073
 C333 C 0.29758 -0.24642 0.70549
 C334 C 0.31866 -0.22880 0.68230
 C335 C 0.31280 -0.19754 0.67955
 C336 C 0.28444 -0.18446 0.69906
 C337 C 0.26294 -0.20211 0.72161
 C338 C 0.27004 -0.23328 0.72665
 C339 C 0.33552 -0.17895 0.65540
 C340 C 0.34588 -0.15100 0.66416
 C341 C 0.36831 -0.13147 0.64091
 C342 C 0.39331 -0.11232 0.65608
 C343 C 0.41340 -0.09209 0.63532
 C344 C 0.40810 -0.08993 0.59907
 C345 C 0.38303 -0.10905 0.58375
 C346 C 0.36351 -0.12993 0.60447
 H347 H 0.30272 -0.27054 0.70694
 H348 H 0.33982 -0.23953 0.66678
 H349 H 0.27819 -0.16065 0.69610
 H350 H 0.24022 -0.19110 0.73423
 H351 H 0.34527 -0.18894 0.63095
 H352 H 0.33908 -0.14250 0.69021
 H353 H 0.39721 -0.11296 0.68413
 H354 H 0.43240 -0.07750 0.64785
 H355 H 0.37845 -0.10776 0.55586
 H356 H 0.34387 -0.14407 0.59224
 C357 C 0.29679 0.25115 0.20824
 C358 C 0.31546 0.26918 0.18352
 C359 C 0.30857 0.30033 0.18131
 C360 C 0.28128 0.31281 0.20279
 C361 C 0.26221 0.29477 0.22696
 C362 C 0.27087 0.26386 0.23163
 C363 C 0.32941 0.31951 0.15613
 C364 C 0.33968 0.34753 0.16473
 C365 C 0.36108 0.36752 0.14104
 C366 C 0.38624 0.38678 0.15574
 C367 C 0.40547 0.40740 0.13475
 C368 C 0.39918 0.40985 0.09871
 C369 C 0.37392 0.39062 0.08383
 C370 C 0.35524 0.36934 0.10478
 H371 H 0.30272 0.22716 0.20929
 H372 H 0.33572 0.25887 0.16649
 H373 H 0.27411 0.33648 0.20038
 H374 H 0.24028 0.30525 0.24151
 H375 H 0.33821 0.30984 0.13119
 H376 H 0.33394 0.35569 0.19115
 H377 H 0.39096 0.38592 0.18364
 H378 H 0.42463 0.42203 0.14698
 H379 H 0.36859 0.39211 0.05610
 H380 H 0.33546 0.35509 0.09292
 C381 C 0.81342 0.23598 -0.23100
 C382 C 0.83713 0.21792 -0.21258
 C383 C 0.82459 0.19421 -0.19100
 C384 C 0.78758 0.18915 -0.18785
 C385 C 0.76387 0.20718 -0.20623
 C386 C 0.77630 0.23008 -0.22948
 C387 C 0.85080 0.17467 -0.17323
 C388 C 0.84267 0.15900 -0.14385
 C389 C 0.86740 0.13800 -0.12623
 C390 C 0.85806 0.12836 -0.09205
 C391 C 0.87854 0.10679 -0.07507
 C392 C 0.90895 0.09419 -0.09187
 C393 C 0.91907 0.10426 -0.12574
 C394 C 0.89840 0.12588 -0.14290
 H395 H 0.82458 0.25468 -0.24601
 H396 H 0.86546 0.22267 -0.21499
 H397 H 0.77668 0.17082 -0.17197
 H398 H 0.73554 0.20264 -0.20317
 H399 H 0.87771 0.17407 -0.18435
 H400 H 0.81658 0.16199 -0.13132
 H401 H 0.83438 0.13719 -0.07857
 H402 H 0.87012 0.09958 -0.04889
 H403 H 0.94229 0.09477 -0.13934
 H404 H 0.90623 0.13213 -0.16949
 C405 C 0.75475 0.69740 0.28779
 C406 C 0.77248 0.67553 0.30706
 C407 C 0.80934 0.67142 0.30230
 C408 C 0.82772 0.68812 0.27594
 C409 C 0.80994 0.71005 0.25659
 C410 C 0.77352 0.71641 0.26373
 C411 C 0.82727 0.64937 0.32514
 C412 C 0.86217 0.65037 0.33162
 C413 C 0.87922 0.62874 0.35548
 C414 C 0.91478 0.62033 0.34846
 C415 C 0.93142 0.59925 0.36983
 C416 C 0.91296 0.58664 0.39903
 C417 C 0.87783 0.59594 0.40695
 C418 C 0.86102 0.61679 0.38531
 H419 H 0.72632 0.70032 0.29258
 H420 H 0.75743 0.66227 0.32639
 H421 H 0.85570 0.68418 0.26980
 H422 H 0.82494 0.72178 0.23602
 H423 H 0.81067 0.63235 0.33808
 H424 H 0.87925 0.66702 0.31870
 H425 H 0.92944 0.62957 0.32591
 H426 H 0.95867 0.59264 0.36332
 H427 H 0.86314 0.58671 0.42947
 H428 H 0.83396 0.62366 0.39214
 C429 C 0.25602 0.19843 0.29908
 C430 C 0.27531 0.17986 0.32116
 C431 C 0.31194 0.18431 0.32503
 C432 C 0.32879 0.20841 0.30675
 C433 C 0.30940 0.22708 0.28445
 C434 C 0.27277 0.22184 0.27932
 C435 C 0.33080 0.16374 0.34914
 C436 C 0.36632 0.16004 0.34898
 C437 C 0.38397 0.13707 0.37105
 C438 C 0.41709 0.12540 0.35946
 C439 C 0.43365 0.10241 0.37823
 C440 C 0.41754 0.09075 0.40922
 C441 C 0.38512 0.10322 0.42171
 C442 C 0.36851 0.12625 0.40291
 H443 H 0.22760 0.19454 0.29746
 H444 H 0.26139 0.16192 0.33543
 H445 H 0.35665 0.21357 0.31022
 H446 H 0.32308 0.24610 0.27221
 H447 H 0.31420 0.14950 0.36609
 H448 H 0.38302 0.17222 0.33006
 H449 H 0.42979 0.13354 0.33528
 H450 H 0.45883 0.09343 0.36811
 H451 H 0.37237 0.09494 0.44579
 H452 H 0.34368 0.13547 0.41348
 C453 C 0.24785 0.70327 -0.20491
 C454 C 0.26514 0.68474 -0.18111
 C455 C 0.30159 0.68838 -0.17533
 C456 C 0.32010 0.71199 -0.19293
 C457 C 0.30277 0.73057 -0.21690
 C458 C 0.26656 0.72577 -0.22446
 C459 C 0.31882 0.66729 -0.15053
 C460 C 0.35411 0.66210 -0.15055
 C461 C 0.37089 0.63849 -0.12861
 C462 C 0.40446 0.62728 -0.13954
 C463 C 0.42078 0.60411 -0.12091
 C464 C 0.40404 0.59170 -0.09065
 C465 C 0.37099 0.60350 -0.07886
 C466 C 0.35456 0.62675 -0.09760
 H467 H 0.21960 0.69978 -0.20850
 H468 H 0.24992 0.66726 -0.16736
 H469 H 0.34776 0.71670 -0.18785
 H470 H 0.31782 0.74901 -0.22877
 H471 H 0.30125 0.65384 -0.13366
 H472 H 0.37141 0.67370 -0.16946
 H473 H 0.41784 0.63605 -0.16307
 H474 H 0.44641 0.59567 -0.13052
 H475 H 0.35769 0.59458 -0.05539
 H476 H 0.32926 0.63543 -0.08756
 C477 C 1.18378 -0.24106 -0.22039
 C478 C 1.16207 -0.22283 -0.19876
 C479 C 1.17668 -0.19911 -0.17953
 C480 C 1.21388 -0.19481 -0.18121
 C481 C 1.23559 -0.21311 -0.20278
 C482 C 1.22075 -0.23523 -0.22467
 C483 C 1.15210 -0.17839 -0.15999
 C484 C 1.16239 -0.16007 -0.13420
 C485 C 1.13870 -0.13720 -0.11715
 C486 C 1.14781 -0.12588 -0.08426
 C487 C 1.12788 -0.10269 -0.06835
 C488 C 1.09851 -0.09013 -0.08515
 C489 C 1.08895 -0.10165 -0.11783
 C490 C 1.10893 -0.12488 -0.13381
 H491 H 1.17121 -0.25966 -0.23363
 H492 H 1.13361 -0.22718 -0.19722
 H493 H 1.22643 -0.17674 -0.16701
 H494 H 1.26412 -0.20909 -0.20365
 H495 H 1.12442 -0.17852 -0.16724
 H496 H 1.18915 -0.16194 -0.12459
 H497 H 1.17073 -0.13478 -0.07101
 H498 H 1.13587 -0.09424 -0.04311
 H499 H 1.06656 -0.09221 -0.13143
 H500 H 1.10163 -0.13228 -0.15965
 C501 C 1.24738 0.28394 0.30538
 C502 C 1.22974 0.30133 0.33110
 C503 C 1.19357 0.29633 0.33953
 C504 C 1.17612 0.27199 0.32368
 C505 C 1.19371 0.25471 0.29781
 C506 C 1.22901 0.26171 0.28642
 C507 C 1.17496 0.31730 0.36428
 C508 C 1.13967 0.32231 0.36389
 C509 C 1.12169 0.34707 0.38375
 C510 C 1.08971 0.35866 0.37107
 C511 C 1.07323 0.38364 0.38705
 C512 C 1.08832 0.39740 0.41625
 C513 C 1.11939 0.38501 0.43006
 C514 C 1.13591 0.35997 0.41405
 H515 H 1.27532 0.28849 0.29943
 H516 H 1.24422 0.31925 0.34381
 H517 H 1.14897 0.26601 0.33126
 H518 H 1.17948 0.23574 0.28708
 H519 H 1.19148 0.33137 0.38036
 H520 H 1.12370 0.31013 0.34542
 H521 H 1.07799 0.34895 0.34802
 H522 H 1.04908 0.39256 0.37607
 H523 H 1.13125 0.39494 0.45289
 H524 H 1.15979 0.35098 0.42540
 C525 C 0.74086 -0.23593 0.30647
 C526 C 0.72334 -0.21577 0.32925
 C527 C 0.69649 -0.19669 0.31732
 C528 C 0.68808 -0.19767 0.28158
 C529 C 0.70556 -0.21798 0.25873
 C530 C 0.73143 -0.23836 0.27092
 C531 C 0.67963 -0.17507 0.34261
 C532 C 0.64804 -0.16173 0.33775
 C533 C 0.63098 -0.13968 0.36249
 C534 C 0.59560 -0.13112 0.35675
 C535 C 0.57867 -0.10928 0.37779
 C536 C 0.59672 -0.09546 0.40522
 C537 C 0.63182 -0.10434 0.41172
 C538 C 0.64896 -0.12609 0.39043
 H539 H 0.76260 -0.24888 0.31689
 H540 H 0.73124 -0.21481 0.35634
 H541 H 0.66888 -0.18224 0.27076
 H542 H 0.69919 -0.21756 0.23120
 H543 H 0.69350 -0.17115 0.36660
 H544 H 0.63319 -0.16762 0.31485
 H545 H 0.58105 -0.14108 0.33552
 H546 H 0.55151 -0.10293 0.37222
 H547 H 0.64638 -0.09382 0.43256
 H548 H 0.67642 -0.13137 0.39561
 C549 C 0.74687 0.28847 -0.20076
 C550 C 0.72915 0.30667 -0.17583
 C551 C 0.69237 0.30350 -0.16915
 C552 C 0.67425 0.27997 -0.18593
 C553 C 0.69202 0.26170 -0.21090
 C554 C 0.72821 0.26698 -0.22062
 C555 C 0.67405 0.32526 -0.14489
 C556 C 0.63925 0.33218 -0.14666
 C557 C 0.62150 0.35684 -0.12606
 C558 C 0.58957 0.36895 -0.13836
 C559 C 0.57250 0.39300 -0.12093
 C560 C 0.58685 0.40544 -0.09057
 C561 C 0.61822 0.39286 -0.07753
 C562 C 0.63536 0.36874 -0.09500
 H563 H 0.77517 0.29207 -0.20575
 H564 H 0.74411 0.32392 -0.16246
 H565 H 0.64639 0.27543 -0.17974
 H566 H 0.67707 0.24346 -0.22224
 H567 H 0.69070 0.33799 -0.12755
 H568 H 0.62348 0.32118 -0.16623
 H569 H 0.57808 0.36012 -0.16199
 H570 H 0.54822 0.40207 -0.13150
 H571 H 0.62964 0.40178 -0.05393
 H572 H 0.65923 0.35950 -0.08393
 C573 C 1.19763 0.24957 -0.21275
 C574 C 1.17496 0.23217 -0.19085
 C575 C 1.18255 0.20159 -0.18448
 C576 C 1.21354 0.18888 -0.20001
 C577 C 1.23588 0.20610 -0.22223
 C578 C 1.22736 0.23641 -0.23071
 C579 C 1.15722 0.18303 -0.16285
 C580 C 1.16807 0.15986 -0.14302
 C581 C 1.14347 0.13923 -0.12335
 C582 C 1.15599 0.12425 -0.09368
 C583 C 1.13493 0.10260 -0.07609
 C584 C 1.10109 0.09500 -0.08822
 C585 C 1.08824 0.11021 -0.11768
 C586 C 1.10920 0.13223 -0.13507
 H587 H 1.19133 0.27327 -0.21666
 H588 H 1.15152 0.24265 -0.17872
 H589 H 1.22031 0.16535 -0.19567
 H590 H 1.25992 0.19532 -0.23243
 H591 H 1.12920 0.18902 -0.16283
 H592 H 1.19642 0.15602 -0.14040
 H593 H 1.18237 0.12907 -0.08431
 H594 H 1.14559 0.09123 -0.05349
 H595 H 1.06228 0.10473 -0.12761
 H596 H 1.09907 0.14284 -0.15837
 C597 C 1.23804 0.72989 0.30855
 C598 C 1.21893 0.70901 0.32918
 C599 C 1.18967 0.69363 0.31599
 C600 C 1.17986 0.69962 0.28131
 C601 C 1.19898 0.72062 0.26054
 C602 C 1.22764 0.73747 0.27409
 C603 C 1.17065 0.67162 0.33946
 C604 C 1.14902 0.64973 0.32825
 C605 C 1.13104 0.62756 0.35218
 C606 C 1.09937 0.61398 0.34154
 C607 C 1.08193 0.59243 0.36277
 C608 C 1.09604 0.58368 0.39498
 C609 C 1.12783 0.59708 0.40569
 C610 C 1.14526 0.61879 0.38448
 H611 H 1.26153 0.73969 0.31979
 H612 H 1.22765 0.70437 0.35551
 H613 H 1.15740 0.68839 0.26992
 H614 H 1.19122 0.72373 0.23364
 H615 H 1.17537 0.67343 0.36726
 H616 H 1.14361 0.64786 0.30064
 H617 H 1.08801 0.62013 0.31672
 H618 H 1.05750 0.58242 0.35374
 H619 H 1.13944 0.59055 0.43025
 H620 H 1.17023 0.62799 0.39311
 C621 C 0.69134 0.22282 0.25508
 C622 C 0.67149 0.19973 0.27139
 C623 C 0.68480 0.18425 0.30026
 C624 C 0.71941 0.19078 0.31109
 C625 C 0.73936 0.21371 0.29465
 C626 C 0.72487 0.23145 0.26774
 C627 C 0.66233 0.16101 0.31797
 C628 C 0.66414 0.15519 0.35240
 C629 C 0.64201 0.13213 0.37097
 C630 C 0.65406 0.12039 0.40271
 C631 C 0.63456 0.09810 0.42086
 C632 C 0.60244 0.08728 0.40770
 C633 C 0.58973 0.09960 0.37651
 C634 C 0.60924 0.12191 0.35832
 H635 H 0.68026 0.23372 0.23243
 H636 H 0.64542 0.19422 0.26171
 H637 H 0.73135 0.17800 0.33195
 H638 H 0.76608 0.21801 0.30340
 H639 H 0.64328 0.14925 0.30220
 H640 H 0.68315 0.16743 0.36782
 H641 H 0.67898 0.12814 0.41321
 H642 H 0.64486 0.08911 0.44500
 H643 H 0.56479 0.09188 0.36604
 H644 H 0.59830 0.13119 0.33468
 C645 C 0.70467 0.71092 -0.24266
 C646 C 0.67932 0.69246 -0.22564
 C647 C 0.67188 0.69553 -0.18957
 C648 C 0.68896 0.71877 -0.17125
 C649 C 0.71448 0.73724 -0.18832
 C650 C 0.72433 0.73257 -0.22401
 C651 C 0.64620 0.67410 -0.17238
 C652 C 0.64555 0.66798 -0.13785
 C653 C 0.62354 0.64358 -0.12124
 C654 C 0.63430 0.63169 -0.08909
 C655 C 0.61585 0.60760 -0.07318
 C656 C 0.58596 0.59494 -0.08892
 C657 C 0.57425 0.60744 -0.12046
 C658 C 0.59280 0.63161 -0.13648
 H659 H 0.70953 0.70790 -0.27062
 H660 H 0.66582 0.67540 -0.24071
 H661 H 0.68235 0.72322 -0.14391
 H662 H 0.72574 0.75550 -0.17343
 H663 H 0.62963 0.66101 -0.18945
 H664 H 0.66428 0.67928 -0.12127
 H665 H 0.65761 0.64061 -0.07657
 H666 H 0.62535 0.59863 -0.04869
 H667 H 0.55102 0.59833 -0.13293
 H668 H 0.58286 0.64078 -0.16063
 C669 C 0.79307 -0.24192 -0.19207
 C670 C 0.81409 -0.22479 -0.16970
 C671 C 0.82023 -0.19392 -0.17626
 C672 C 0.80526 -0.18060 -0.20589
 C673 C 0.78392 -0.19754 -0.22787
 C674 C 0.77572 -0.22821 -0.22040
 C675 C 0.84111 -0.17571 -0.15143
 C676 C 0.86140 -0.15218 -0.16210
 C677 C 0.88060 -0.13196 -0.13807
 C678 C 0.91094 -0.11657 -0.15120
 C679 C 0.92810 -0.09521 -0.13068
 C680 C 0.91488 -0.08825 -0.09671
 C681 C 0.88476 -0.10389 -0.08324
 C682 C 0.86780 -0.12566 -0.10368
 H683 H 0.78950 -0.26585 -0.18668
 H684 H 0.82581 -0.23573 -0.14735
 H685 H 0.80937 -0.15683 -0.21183
 H686 H 0.77393 -0.18630 -0.25081
 H687 H 0.84028 -0.18230 -0.12401
 H688 H 0.86489 -0.14774 -0.18998
 H689 H 0.92117 -0.12084 -0.17766
 H690 H 0.95122 -0.08353 -0.14185
 H691 H 0.87397 -0.09893 -0.05716
 H692 H 0.84398 -0.13660 -0.09303
 C693 C 0.75196 0.28058 0.31203
 C694 C 0.76813 0.30006 0.33559
 C695 C 0.79807 0.31710 0.32502
 C696 C 0.81037 0.31567 0.28982
 C697 C 0.79403 0.29641 0.26618
 C698 C 0.76573 0.27722 0.27724
 C699 C 0.81499 0.33712 0.35075
 C700 C 0.85013 0.34282 0.34932
 C701 C 0.86873 0.36395 0.37285
 C702 C 0.90450 0.37087 0.36435
 C703 C 0.92300 0.39199 0.38388
 C704 C 0.90621 0.40667 0.41259
 C705 C 0.87089 0.39904 0.42217
 C706 C 0.85221 0.37786 0.40249
 H707 H 0.72831 0.26856 0.32120
 H708 H 0.75730 0.30170 0.36224
 H709 H 0.83216 0.32986 0.28025
 H710 H 0.80370 0.29628 0.23908
 H711 H 0.79797 0.34655 0.37138
 H712 H 0.86644 0.33182 0.32908
 H713 H 0.91805 0.36040 0.34192
 H714 H 0.95034 0.39724 0.37602
 H715 H 0.85742 0.40994 0.44434
 H716 H 0.82497 0.37288 0.41059
 C717 C 0.25120 -0.20331 0.29905
 C718 C 0.26899 -0.18227 0.31938
 C719 C 0.30515 -0.17605 0.31275
 C720 C 0.32261 -0.18973 0.28366
 C721 C 0.30479 -0.21074 0.26313
 C722 C 0.26926 -0.21972 0.27183
 C723 C 0.32326 -0.15454 0.33609
 C724 C 0.35853 -0.15490 0.34087
 C725 C 0.37661 -0.13344 0.36424
 C726 C 0.35937 -0.12049 0.39401
 C727 C 0.37737 -0.09979 0.41487
 C728 C 0.41280 -0.09168 0.40630
 C729 C 0.43027 -0.10532 0.37723
 C730 C 0.41242 -0.12615 0.35660
 H731 H 0.22322 -0.20741 0.30529
 H732 H 0.25449 -0.17116 0.34080
 H733 H 0.34983 -0.18388 0.27619
 H734 H 0.31909 -0.21979 0.24037
 H735 H 0.30660 -0.13845 0.35044
 H736 H 0.37526 -0.17093 0.32652
 H737 H 0.33215 -0.12640 0.40145
 H738 H 0.36340 -0.08977 0.43732
 H739 H 0.45770 -0.09968 0.37017
 H740 H 0.42642 -0.13611 0.33412
 C741 C 0.26260 0.31002 -0.23092
 C742 C 0.28214 0.32983 -0.21051
 C743 C 0.30808 0.31886 -0.18814
 C744 C 0.31319 0.28743 -0.18541
 C745 C 0.29398 0.26757 -0.20626
 C746 C 0.26991 0.27858 -0.23111
 C747 C 0.33053 0.34091 -0.16977
 C748 C 0.34461 0.33564 -0.13849
 C749 C 0.36620 0.35885 -0.12105
 C750 C 0.36129 0.36372 -0.08487
 C751 C 0.37978 0.38692 -0.06836
 C752 C 0.40425 0.40506 -0.08764
 C753 C 0.41041 0.39925 -0.12354
 C754 C 0.39134 0.37650 -0.14019
 H755 H 0.24202 0.31978 -0.24661
 H756 H 0.27700 0.35395 -0.21226
 H757 H 0.33297 0.27819 -0.16828
 H758 H 0.29912 0.24349 -0.20420
 H759 H 0.33427 0.36298 -0.18192
 H760 H 0.33806 0.31501 -0.12422
 H761 H 0.34228 0.35019 -0.06961
 H762 H 0.37479 0.39082 -0.04057
 H763 H 0.42922 0.41284 -0.13894
 H764 H 0.39617 0.37272 -0.16802
 C765 C 1.24561 -0.20830 0.19852
 C766 C 1.22736 -0.18818 0.17724
 C767 C 1.19153 -0.18099 0.18461
 C768 C 1.17455 -0.19382 0.21458
 C769 C 1.19281 -0.21401 0.23599
 C770 C 1.22847 -0.22291 0.22769
 C771 C 1.17389 -0.15869 0.16156
 C772 C 1.13839 -0.15518 0.16000
 C773 C 1.12142 -0.13201 0.13764
 C774 C 1.08729 -0.12137 0.14759
 C775 C 1.07067 -0.09896 0.12794
 C776 C 1.08766 -0.08693 0.09759
 C777 C 1.12132 -0.09819 0.08691
 C778 C 1.13806 -0.12054 0.10667
 H779 H 1.27356 -0.21242 0.19214
 H780 H 1.24152 -0.17796 0.15497
 H781 H 1.14758 -0.18761 0.22247
 H782 H 1.17897 -0.22193 0.25962
 H783 H 1.19128 -0.14458 0.14524
 H784 H 1.12078 -0.16896 0.17642
 H785 H 1.07370 -0.13003 0.17106
 H786 H 1.04458 -0.09088 0.13669
 H787 H 1.13487 -0.08956 0.06341
 H788 H 1.16377 -0.12891 0.09735
 C789 C 1.24797 0.29347 0.69310
 C790 C 1.22950 0.31081 0.66898
 C791 C 1.19256 0.30746 0.66598
 C792 C 1.17501 0.28451 0.68545
 C793 C 1.19357 0.26699 0.70950
 C794 C 1.22995 0.27268 0.71568
 C795 C 1.17352 0.32840 0.64250
 C796 C 1.13902 0.33596 0.64758
 C797 C 1.12118 0.35998 0.62713
 C798 C 1.09111 0.37459 0.64220
 C799 C 1.07463 0.39844 0.62467
 C800 C 1.08782 0.40805 0.59158
 C801 C 1.11711 0.39279 0.57592
 C802 C 1.13353 0.36892 0.59337
 H803 H 1.27635 0.29728 0.69536
 H804 H 1.24398 0.32762 0.65342
 H805 H 1.14698 0.27987 0.68207
 H806 H 1.17904 0.24908 0.72298
 H807 H 1.18957 0.34016 0.62267
 H808 H 1.12395 0.32622 0.66955
 H809 H 1.08080 0.36798 0.66799
 H810 H 1.05193 0.40964 0.63727
 H811 H 1.12752 0.39941 0.55017
 H812 H 1.15575 0.35756 0.58021
 C813 C 0.70604 -0.20480 0.75060
 C814 C 0.68274 -0.18656 0.73213
 C815 C 0.67941 -0.19005 0.69585
 C816 C 0.69908 -0.21314 0.67862
 C817 C 0.72262 -0.23137 0.69713
 C818 C 0.72761 -0.22679 0.73333
 C819 C 0.65477 -0.16942 0.67751
 C820 C 0.65599 -0.16466 0.64269
 C821 C 0.63393 -0.14158 0.62504
 C822 C 0.64591 -0.13059 0.59215
 C823 C 0.62722 -0.10780 0.57518
 C824 C 0.59590 -0.09554 0.59061
 C825 C 0.58305 -0.10717 0.62294
 C826 C 0.60178 -0.13007 0.63998
 H827 H 0.70753 -0.20157 0.77869
 H828 H 0.66734 -0.16950 0.74633
 H829 H 0.69595 -0.21778 0.65104
 H830 H 0.73607 -0.24950 0.68300
 H831 H 0.63677 -0.15602 0.69393
 H832 H 0.67593 -0.17619 0.62649
 H833 H 0.67032 -0.13922 0.57985
 H834 H 0.63766 -0.09946 0.55013
 H835 H 0.55872 -0.09838 0.63521
 H836 H 0.59086 -0.13865 0.66467
 C837 C 0.69391 0.29203 0.24642
 C838 C 0.67245 0.31262 0.22907
 C839 C 0.68115 0.32155 0.19460
 C840 C 0.71290 0.31072 0.17840
 C841 C 0.73455 0.29019 0.19589
 C842 C 0.72450 0.27926 0.22962
 C843 C 0.65720 0.34306 0.17706
 C844 C 0.65437 0.34448 0.14213
 C845 C 0.63092 0.36636 0.12454
 C846 C 0.64013 0.37539 0.09014
 C847 C 0.61969 0.39692 0.07299
 C848 C 0.58931 0.40960 0.08978
 C849 C 0.57916 0.39975 0.12370
 C850 C 0.59975 0.37827 0.14097
 H851 H 0.68625 0.28562 0.27306
 H852 H 0.64871 0.32135 0.24253
 H853 H 0.72160 0.31857 0.15260
 H854 H 0.75936 0.28335 0.18298
 H855 H 0.64098 0.35772 0.19380
 H856 H 0.67064 0.32979 0.12544
 H857 H 0.66371 0.36627 0.07677
 H858 H 0.62797 0.40391 0.04670
 H859 H 0.55564 0.40895 0.13707
 H860 H 0.59103 0.37101 0.16699
 C861 C 0.80927 0.23187 0.23804
 C862 C 0.83176 0.21248 0.21865
 C863 C 0.82037 0.19895 0.18772
 C864 C 0.78564 0.20499 0.17670
 C865 C 0.76310 0.22433 0.19614
 C866 C 0.77471 0.23894 0.22669
 C867 C 0.84429 0.17675 0.16962
 C868 C 0.84163 0.16887 0.13578
 C869 C 0.86378 0.14490 0.11852
 C870 C 0.85131 0.13129 0.08796
 C871 C 0.87033 0.10767 0.07164
 C872 C 0.90237 0.09725 0.08547
 C873 C 0.91554 0.11144 0.11534
 C874 C 0.89659 0.13512 0.13163
 H875 H 0.81875 0.24025 0.26270
 H876 H 0.85797 0.20746 0.22837
 H877 H 0.77507 0.19384 0.15403
 H878 H 0.73601 0.22734 0.18772
 H879 H 0.86442 0.16634 0.18538
 H880 H 0.82151 0.17946 0.12014
 H881 H 0.82636 0.13854 0.07706
 H882 H 0.85966 0.09729 0.04847
 H883 H 0.94045 0.10415 0.12627
 H884 H 0.90799 0.14566 0.15426
 C885 C 0.80125 0.74793 0.70750
 C886 C 0.82521 0.73109 0.68632
 C887 C 0.82737 0.69956 0.69010
 C888 C 0.80710 0.68544 0.71706
 C889 C 0.78382 0.70229 0.73871
 C890 C 0.77865 0.73364 0.73294
 C891 C 0.85130 0.68165 0.66640
 C892 C 0.84108 0.65487 0.65353
 C893 C 0.86400 0.63578 0.63017
 C894 C 0.84787 0.61767 0.60495
 C895 C 0.86819 0.59743 0.58440
 C896 C 0.90497 0.59426 0.58936
 C897 C 0.92128 0.61259 0.61436
 C898 C 0.90104 0.63338 0.63440
 H899 H 0.79974 0.77218 0.70349
 H900 H 0.84142 0.74260 0.66638
 H901 H 0.80967 0.66133 0.72176
 H902 H 0.77007 0.69044 0.75998
 H903 H 0.87672 0.69136 0.65798
 H904 H 0.81413 0.64698 0.65930
 H905 H 0.81934 0.61897 0.60141
 H906 H 0.85487 0.58348 0.56548
 H907 H 0.94959 0.61054 0.61875
 H908 H 0.91410 0.64663 0.65413
 C909 C 0.31556 0.24240 0.72064
 C910 C 0.33899 0.22333 0.70181
 C911 C 0.32617 0.19846 0.68322
 C912 C 0.28912 0.19338 0.68324
 C913 C 0.26571 0.21241 0.70203
 C914 C 0.27848 0.23639 0.72264
 C915 C 0.35213 0.17769 0.66542
 C916 C 0.34366 0.16001 0.63834
 C917 C 0.36826 0.13770 0.62130
 C918 C 0.35955 0.12649 0.58824
 C919 C 0.38004 0.10378 0.57207
 C920 C 0.40972 0.09156 0.58866
 C921 C 0.41908 0.10308 0.62143
 C922 C 0.39847 0.12589 0.63773
 H923 H 0.32690 0.26187 0.73327
 H924 H 0.36735 0.22813 0.70166
 H925 H 0.27799 0.17425 0.66969
 H926 H 0.23735 0.20776 0.70157
 H927 H 0.37916 0.17771 0.67456
 H928 H 0.31753 0.16224 0.62733
 H929 H 0.33643 0.13504 0.57502
 H930 H 0.37218 0.09543 0.54674
 H931 H 0.44173 0.09393 0.63487
 H932 H 0.40566 0.13333 0.66358
 C933 C 0.30238 0.72239 0.24752
 C934 C 0.32331 0.70063 0.22995
 C935 C 0.31518 0.69117 0.19606
 C936 C 0.28465 0.70309 0.18064
 C937 C 0.26373 0.72487 0.19810
 C938 C 0.27303 0.73641 0.23135
 C939 C 0.33781 0.66758 0.17866
 C940 C 0.33911 0.66291 0.14381
 C941 C 0.36028 0.63843 0.12647
 C942 C 0.34953 0.62775 0.09378
 C943 C 0.36815 0.60435 0.07667
 C944 C 0.39825 0.59134 0.09171
 C945 C 0.40968 0.60249 0.12397
 C946 C 0.39092 0.62583 0.14123
 H947 H 0.30926 0.72828 0.27403
 H948 H 0.34591 0.69100 0.24306
 H949 H 0.27591 0.69500 0.15557
 H950 H 0.23968 0.73212 0.18556
 H951 H 0.35382 0.65365 0.19547
 H952 H 0.32319 0.67686 0.12697
 H953 H 0.32626 0.63725 0.08167
 H954 H 0.35885 0.59635 0.05171
 H955 H 0.43302 0.59307 0.13600
 H956 H 0.40081 0.63409 0.16578
   
