data_POSCAR
  _audit_creation_date              2014-09-24
  _audit_creation_method            'ToBaCCo'
  _symmetry_space_group_name_H-M    'P1'
  _symmetry_Int_Tables_number       1
  _symmetry_cell_setting            triclinic
  loop_
  _symmetry_equiv_pos_as_xyz
 x,y,z
_cell_length_a 28.3651
_cell_length_b 27.8755
_cell_length_c 28.2247
_cell_angle_alpha 90.643800
_cell_angle_beta 89.576900
_cell_angle_gamma 90.814800
loop_
  _atom_site_label
  _atom_site_type_symbol
  _atom_site_fract_x
  _atom_site_fract_y
  _atom_site_fract_z
C1 C 0.22078 0.16943 0.23723
 C2 C 0.19013 0.13983 0.26342
 C3 C 0.14637 0.15672 0.28061
 C4 C 0.13307 0.20372 0.26847
 C5 C 0.16308 0.23343 0.24143
 C6 C 0.20747 0.21654 0.22671
 C7 C 0.26428 0.15213 0.22079
 C8 C 0.29489 0.18111 0.19316
 C9 C 0.28172 0.22896 0.18483
 C10 C 0.23827 0.24650 0.20080
 C11 C 0.22458 0.29313 0.18964
 C12 C 0.17917 0.30956 0.20126
 C13 C 0.14890 0.27941 0.22793
 H14 H 0.20174 0.10417 0.27213
 H15 H 0.09885 0.21717 0.27878
 H16 H 0.27244 0.11501 0.22735
 H17 H 0.30513 0.25284 0.16548
 H18 H 0.24900 0.31610 0.17050
 H19 H 0.11360 0.29071 0.23701
 C20 C -0.24132 0.83625 0.22249
 C21 C -0.23547 0.84516 0.27133
 C22 C -0.19692 0.82628 0.29637
 C23 C -0.16648 0.79497 0.27119
 C24 C -0.17292 0.78453 0.22294
 C25 C -0.20949 0.80639 0.19808
 C26 C -0.27823 0.85732 0.19754
 C27 C -0.28192 0.85168 0.14787
 C28 C -0.24897 0.82259 0.12381
 C29 C -0.21413 0.79836 0.14880
 C30 C -0.18416 0.76575 0.12550
 C31 C -0.14910 0.74216 0.15080
 C32 C -0.14284 0.75272 0.19908
 H33 H -0.26123 0.86701 0.28947
 H34 H -0.13597 0.77990 0.28776
 H35 H -0.30240 0.88046 0.21659
 H36 H -0.25189 0.81682 0.08588
 H37 H -0.18822 0.75852 0.08794
 H38 H -0.11523 0.73497 0.21833
 C39 C -0.22613 0.16722 -0.22190
 C40 C -0.20010 0.14602 -0.25901
 C41 C -0.15159 0.15578 -0.26404
 C42 C -0.12903 0.18716 -0.23204
 C43 C -0.15461 0.20910 -0.19523
 C44 C -0.20333 0.19905 -0.19009
 C45 C -0.27420 0.15604 -0.21537
 C46 C -0.30001 0.17451 -0.17621
 C47 C -0.27665 0.20787 -0.14588
 C48 C -0.22902 0.22028 -0.15267
 C49 C -0.20627 0.25249 -0.12146
 C50 C -0.15787 0.26247 -0.12632
 C51 C -0.13215 0.24046 -0.16309
 H52 H -0.21715 0.12078 -0.28307
 H53 H -0.09151 0.19426 -0.23582
 H54 H -0.29115 0.13264 -0.24107
 H55 H -0.29400 0.22261 -0.11492
 H56 H -0.22590 0.26911 -0.09270
 H57 H -0.09479 0.24832 -0.16701
 C58 C 0.22963 0.82266 -0.23600
 C59 C 0.21107 0.84322 -0.27709
 C60 C 0.17812 0.81769 -0.30571
 C61 C 0.16801 0.76938 -0.29424
 C62 C 0.18492 0.74909 -0.25272
 C63 C 0.21540 0.77583 -0.22316
 C64 C 0.26076 0.84874 -0.20646
 C65 C 0.27710 0.82857 -0.16433
 C66 C 0.26184 0.78251 -0.15125
 C67 C 0.23087 0.75602 -0.18029
 C68 C 0.21399 0.71067 -0.16645
 C69 C 0.18244 0.68422 -0.19535
 C70 C 0.16963 0.70316 -0.23926
 H71 H 0.22030 0.88015 -0.28476
 H72 H 0.14613 0.74702 -0.31689
 H73 H 0.27229 0.88461 -0.21605
 H74 H 0.27422 0.76740 -0.11844
 H75 H 0.22396 0.69714 -0.13219
 H76 H 0.14594 0.68292 -0.26215
 C77 C 0.16950 1.22879 0.75403
 C78 C 0.14384 1.20400 0.71894
 C79 C 0.15916 1.15928 0.70141
 C80 C 0.20327 1.14244 0.71630
 C81 C 0.22997 1.16791 0.74998
 C82 C 0.21202 1.21007 0.77049
 C83 C 0.15207 1.27110 0.77406
 C84 C 0.17405 1.29370 0.81338
 C85 C 0.21678 1.27401 0.82961
 C86 C 0.23617 1.23303 0.80790
 C87 C 0.27858 1.21370 0.82415
 C88 C 0.29852 1.17282 0.80206
 C89 C 0.27380 1.15100 0.76421
 H90 H 0.11005 1.21791 0.70855
 H91 H 0.21704 1.10930 0.70168
 H92 H 0.12093 1.28600 0.75850
 H93 H 0.23485 1.28898 0.86001
 H94 H 0.29523 1.23062 0.85442
 H95 H 0.28818 1.12046 0.74556
 C96 C 0.82768 0.76833 0.77989
 C97 C 0.83779 0.78158 0.73283
 C98 C 0.81099 0.81692 0.70974
 C99 C 0.77156 0.83543 0.73428
 C100 C 0.76252 0.82412 0.78163
 C101 C 0.79100 0.79103 0.80487
 C102 C 0.85472 0.73387 0.80288
 C103 C 0.84702 0.72335 0.85126
 C104 C 0.81186 0.74861 0.87634
 C105 C 0.78320 0.78134 0.85333
 C106 C 0.74716 0.80506 0.87816
 C107 C 0.71914 0.83818 0.85487
 C108 C 0.72645 0.84711 0.80665
 H109 H 0.86824 0.76587 0.71590
 H110 H 0.74785 0.85961 0.71705
 H111 H 0.88302 0.71675 0.78337
 H112 H 0.80499 0.74112 0.91339
 H113 H 0.74167 0.79882 0.91566
 H114 H 0.70497 0.87339 0.78913
 C115 C 0.19996 0.74393 1.25456
 C116 C 0.17901 0.76363 1.29528
 C117 C 0.18647 0.81218 1.30777
 C118 C 0.21583 0.84093 1.27896
 C119 C 0.23772 0.82146 1.23850
 C120 C 0.23057 0.77250 1.22700
 C121 C 0.18799 0.69724 1.23916
 C122 C 0.20730 0.67785 1.19674
 C123 C 0.24387 0.70446 1.17456
 C124 C 0.25290 0.75238 1.18705
 C125 C 0.28129 0.78132 1.15801
 C126 C 0.28593 0.83077 1.16715
 C127 C 0.26489 0.85051 1.20809
 H128 H 0.15592 0.74133 1.31677
 H129 H 0.22034 0.87882 1.28697
 H130 H 0.16122 0.67824 1.25912
 H131 H 0.26387 0.68927 1.14553
 H132 H 0.29728 0.76594 1.12640
 H133 H 0.26936 0.88844 1.21600
 C134 C 0.82912 1.22961 1.23507
 C135 C 0.84891 1.20581 1.27359
 C136 C 0.82651 1.16475 1.29212
 C137 C 0.78174 1.15114 1.27516
 C138 C 0.76042 1.17662 1.23898
 C139 C 0.78482 1.21478 1.21738
 C140 C 0.85420 1.26616 1.21229
 C141 C 0.83622 1.28765 1.17155
 C142 C 0.79151 1.27366 1.15464
 C143 C 0.76560 1.23701 1.17731
 C144 C 0.72198 1.22054 1.15940
 C145 C 0.69666 1.18300 1.18192
 C146 C 0.71592 1.16280 1.22280
 H147 H 0.88363 1.21652 1.28597
 H148 H 0.76343 1.12034 1.29015
 H149 H 0.88855 1.27713 1.22551
 H150 H 0.77781 1.29000 1.12301
 H151 H 0.70886 1.23620 1.12729
 H152 H 0.69683 1.13521 1.24190
 O153 O 0.53756 0.94781 0.94103
 O154 O 0.44582 0.95247 1.06990
 O155 O 0.58981 1.00137 1.03676
 O156 O 0.39680 0.99196 0.94525
 O157 O 0.53497 0.95201 1.06070
 O158 O 0.45320 0.94325 0.93372
 O159 O 0.39159 0.99212 1.03251
 O160 O 0.58968 1.00222 0.95138
 C161 C 0.57970 0.95966 0.94138
 C162 C 0.40393 0.95771 1.05821
 C163 C 0.57755 0.96173 1.05487
 C164 C 0.41031 0.95075 0.93430
 O165 O 0.45244 1.03135 0.89435
 O166 O 0.53755 1.04135 1.09192
 O167 O 0.54629 1.08811 0.95172
 O168 O 0.41512 1.08353 1.03637
 O169 O 0.44982 1.04406 1.09276
 O170 O 0.53764 1.03513 0.89735
 O171 O 0.43010 1.08280 0.94733
 O172 O 0.55108 1.09123 1.03688
 Co173 Co 0.49509 0.99187 0.92309
 Co174 Co 0.49231 0.99929 1.07057
 Co175 Co 0.56272 1.04331 0.99419
 Co176 Co 0.41656 1.03593 0.99021
 O177 O 0.49139 1.01744 0.99484
 C178 C 0.43604 1.07184 0.90495
 C179 C 0.55187 1.08179 1.07940
 C180 C 0.54884 1.07722 0.90914
 C181 C 0.42419 1.07802 1.07923
 O182 O 0.04081 0.46215 0.10951
 O183 O 0.03894 0.52946 -0.09430
 O184 O 0.08582 0.43231 -0.03114
 O185 O 0.09227 0.56423 0.04366
 O186 O 0.03301 0.44159 -0.08368
 O187 O 0.04740 0.54795 0.10389
 O188 O 0.08299 0.57148 -0.04500
 O189 O 0.08852 0.44754 0.05316
 C190 C 0.08074 0.44868 0.09627
 C191 C 0.07411 0.55639 -0.08582
 C192 C 0.07375 0.42920 -0.07310
 C193 C 0.08725 0.56016 0.08726
 O194 O -0.04427 0.55013 0.07114
 O195 O -0.05289 0.44972 -0.04596
 O196 O 0.00054 0.40708 0.06221
 O197 O -0.00514 0.59775 -0.03246
 O198 O -0.04769 0.53999 -0.06580
 O199 O -0.04777 0.46420 0.07214
 O200 O 0.00793 0.60225 0.05460
 O201 O -0.00344 0.39686 -0.02211
 Co202 Co 0.00075 0.50570 0.08259
 Co203 Co -0.00493 0.49073 -0.06421
 Co204 Co 0.04088 0.42757 0.01529
 Co205 Co 0.04217 0.57580 0.00598
 O206 O 0.01963 0.50036 0.00928
 C207 C -0.03252 0.59283 0.06932
 C208 C -0.04395 0.40719 -0.03655
 C209 C -0.03975 0.42078 0.07383
 C210 C -0.03965 0.58356 -0.05743
 O211 O 1.05434 0.04516 0.45125
 O212 O 0.92763 0.04857 0.54637
 O213 O 0.92893 -0.00214 0.40628
 O214 O 1.02670 -0.00058 0.59668
 O215 O 0.91817 0.04909 0.46183
 O216 O 1.04541 0.04893 0.54093
 O217 O 0.94168 -0.00266 0.59963
 O218 O 1.01615 0.00168 0.39834
 C219 C 1.04246 0.03697 0.40937
 C220 C 0.93128 0.03924 0.58896
 C221 C 0.91858 0.03946 0.41901
 C222 C 1.04277 0.03967 0.58379
 O223 O 1.08027 -0.03966 0.54442
 O224 O 0.88024 -0.04152 0.46388
 O225 O 1.02227 -0.08818 0.42267
 O226 O 0.94106 -0.09080 0.55671
 O227 O 0.88631 -0.04010 0.54979
 O228 O 1.07851 -0.04545 0.45658
 O229 O 1.02556 -0.09058 0.55767
 O230 O 0.93338 -0.09105 0.43960
 Co231 Co 1.05648 0.00024 0.49888
 Co232 Co 0.90962 0.00172 0.50512
 Co233 Co 0.97527 -0.04283 0.42490
 Co234 Co 0.98340 -0.04404 0.57135
 O235 O 0.98153 -0.02091 0.49977
 C236 C 1.06786 -0.08001 0.55929
 C237 C 0.89108 -0.08178 0.44626
 C238 C 1.06496 -0.08081 0.43134
 C239 C 0.89884 -0.08133 0.56084
 C240 C 1.12380 0.07753 0.31227
 C241 C 1.11793 0.12757 0.31078
 C242 C 1.08557 0.14731 0.34407
 C243 C 1.05936 0.11769 0.37508
 C244 C 1.06316 0.06750 0.37255
 C245 C 1.09721 0.04845 0.34222
 C246 C 1.09233 0.00952 0.30591
 C247 C 1.12136 0.04115 0.27295
 H248 H 1.08149 0.18565 0.34799
 H249 H 1.03606 0.13400 0.40102
 H250 H 1.05529 0.00394 0.29420
 H251 H 1.11082 -0.02358 0.31640
 H252 H 1.10123 0.05392 0.24199
 H253 H 1.15645 0.02596 0.26427
 C254 C 0.79281 -0.11886 0.36631
 C255 C 0.81261 -0.15988 0.34441
 C256 C 0.84613 -0.18415 0.37234
 C257 C 0.86772 -0.16126 0.41144
 C258 C 0.85519 -0.11436 0.42493
 C259 C 0.81319 -0.09712 0.40615
 C260 C 0.80047 -0.04807 0.39093
 C261 C 0.77891 -0.07122 0.34714
 H262 H 0.85893 -0.21920 0.36254
 H263 H 0.89785 -0.17804 0.42740
 H264 H 0.83181 -0.02531 0.38346
 H265 H 0.77396 -0.03153 0.41500
 H266 H 0.79793 -0.06202 0.31382
 H267 H 0.74002 -0.06710 0.34592
 C268 C 0.87348 0.14409 0.65116
 C269 C 0.87639 0.13139 0.69883
 C270 C 0.90708 0.09407 0.71040
 C271 C 0.92793 0.06577 0.67439
 C272 C 0.91882 0.07470 0.62617
 C273 C 0.89427 0.11651 0.61570
 C274 C 0.85454 0.12480 0.58247
 C275 C 0.83208 0.15540 0.62123
 H276 H 0.91214 0.08457 0.74710
 H277 H 0.94846 0.03507 0.68437
 H278 H 0.83390 0.09155 0.57455
 H279 H 0.86589 0.14577 0.55102
 H280 H 0.79842 0.13988 0.63490
 H281 H 0.83096 0.19409 0.61228
 C282 C 1.16705 -0.11382 0.64048
 C283 C 1.15296 -0.15908 0.65773
 C284 C 1.10921 -0.17752 0.64064
 C285 C 1.08324 -0.15320 0.60653
 C286 C 1.09952 -0.10940 0.58792
 C287 C 1.14108 -0.08976 0.60664
 C288 C 1.18421 -0.07255 0.58125
 C289 C 1.21270 -0.09874 0.61795
 H290 H 1.09301 -0.20972 0.65453
 H291 H 1.04964 -0.16838 0.59555
 H292 H 1.18841 -0.03288 0.58358
 H293 H 1.18746 -0.08810 0.54493
 H294 H 1.23354 -0.07399 0.64108
 H295 H 1.23261 -0.12956 0.60302
 C296 C 0.35515 1.18152 1.12978
 C297 C 0.33618 1.16203 1.17172
 C298 C 0.35848 1.12033 1.18870
 C299 C 0.39151 1.09530 1.16048
 C300 C 0.40250 1.11079 1.11433
 C301 C 0.38652 1.15609 1.10152
 C302 C 0.36550 1.17350 1.05665
 C303 C 0.33114 1.20143 1.08731
 H304 H 0.34913 1.10540 1.22275
 H305 H 0.40465 1.06147 1.17302
 H306 H 0.34784 1.14463 1.03555
 H307 H 0.39036 1.19687 1.03646
 H308 H 0.29402 1.18854 1.08389
 H309 H 0.33623 1.24091 1.08447
 C310 C 0.29651 0.88615 0.90182
 C311 C 0.31118 0.85482 0.86581
 C312 C 0.35997 0.84768 0.86044
 C313 C 0.39260 0.87676 0.88559
 C314 C 0.37692 0.91377 0.91628
 C315 C 0.32845 0.91505 0.92624
 C316 C 0.29420 0.95508 0.93071
 C317 C 0.25935 0.92341 0.90332
 H318 H 0.37283 0.82171 0.83479
 H319 H 0.42984 0.87269 0.87811
 H320 H 0.30518 0.98772 0.91120
 H321 H 0.28332 0.96151 0.96814
 H322 H 0.25108 0.93735 0.86760
 H323 H 0.22829 0.91210 0.92491
 C324 C 0.68929 0.89169 1.07656
 C325 C 0.68182 0.87421 1.12263
 C326 C 0.63647 0.88051 1.14263
 C327 C 0.60199 0.90664 1.11892
 C328 C 0.61233 0.92930 1.07560
 C329 C 0.65585 0.91968 1.05420
 C330 C 0.69237 0.95339 1.03514
 C331 C 0.72893 0.92271 1.05888
 H332 H 0.62745 0.86546 1.17677
 H333 H 0.56812 0.91164 1.13610
 H334 H 0.68988 0.99008 1.05075
 H335 H 0.69491 0.95188 0.99599
 H336 H 0.74800 0.94175 1.08797
 H337 H 0.75188 0.90328 1.03322
 C338 C 0.63446 1.11485 0.81456
 C339 C 0.65312 1.15791 0.83408
 C340 C 0.62353 1.18134 0.86778
 C341 C 0.58489 1.15710 0.88881
 C342 C 0.57368 1.10949 0.87567
 C343 C 0.59550 1.09156 0.83461
 C344 C 0.61442 1.04300 0.82394
 C345 C 0.65720 1.06797 0.80262
 H346 H 0.63137 1.21712 0.88078
 H347 H 0.56694 1.17396 0.91849
 H348 H 0.59275 1.02315 0.79734
 H349 H 0.62255 1.02267 0.85628
 H350 H 0.66031 1.06168 0.76376
 H351 H 0.69005 1.06218 0.82294
 C352 C 0.18154 0.37566 0.14043
 C353 C 0.16245 0.35627 0.18225
 C354 C 0.12370 0.38087 0.20241
 C355 C 0.09965 0.41578 0.17632
 C356 C 0.11404 0.42706 0.12972
 C357 C 0.15804 0.41002 0.11487
 C358 C 0.17533 0.39037 0.06853
 C359 C 0.20075 0.35250 0.09648
 H360 H 0.10942 0.37076 0.23655
 H361 H 0.06718 0.42999 0.19077
 H362 H 0.19974 0.41579 0.05028
 H363 H 0.14708 0.37483 0.04598
 H364 H 0.23975 0.35607 0.09380
 H365 H 0.18639 0.31559 0.09059
 C366 C -0.15162 0.34205 -0.08438
 C367 C -0.13409 0.29608 -0.09307
 C368 C -0.09105 0.28435 -0.07181
 C369 C -0.06353 0.31997 -0.04895
 C370 C -0.07804 0.36824 -0.04791
 C371 C -0.12401 0.37749 -0.06286
 C372 C -0.14253 0.41551 -0.09433
 C373 C -0.17288 0.37669 -0.11769
 H374 H -0.07714 0.24853 -0.07580
 H375 H -0.02900 0.31042 -0.03631
 H376 H -0.11515 0.43061 -0.11851
 H377 H -0.16343 0.44252 -0.07431
 H378 H -0.16304 0.36940 -0.15528
 H379 H -0.21122 0.38125 -0.11095
 C380 C 0.11270 0.62726 -0.19033
 C381 C 0.15943 0.63922 -0.17808
 C382 C 0.18111 0.60998 -0.14425
 C383 C 0.15395 0.57750 -0.11722
 C384 C 0.10500 0.57269 -0.12448
 C385 C 0.08614 0.59442 -0.16430
 C386 C 0.04225 0.62294 -0.16876
 C387 C 0.07118 0.65885 -0.19718
 H388 H 0.21789 0.61525 -0.13540
 H389 H 0.17022 0.55996 -0.08756
 H390 H 0.02951 0.63762 -0.13423
 H391 H 0.01501 0.60378 -0.19017
 H392 H 0.07528 0.69431 -0.17910
 H393 H 0.06045 0.66040 -0.23492
 C394 C -0.13865 0.66027 0.11549
 C395 C -0.11948 0.70516 0.12809
 C396 C -0.07006 0.71058 0.12661
 C397 C -0.04166 0.67391 0.10765
 C398 C -0.06202 0.63047 0.09093
 C399 C -0.11054 0.62363 0.09779
 C400 C -0.14726 0.60712 0.06353
 C401 C -0.17783 0.64754 0.08240
 H402 H -0.05355 0.74363 0.13899
 H403 H -0.00390 0.67987 0.10538
 H404 H -0.16144 0.57088 0.07222
 H405 H -0.13617 0.61175 0.02600
 H406 H -0.20985 0.63453 0.10151
 H407 H -0.18407 0.67577 0.05573
 C408 C 1.13414 0.08066 0.67049
 C409 C 1.13064 0.13091 0.67092
 C410 C 1.09715 0.15095 0.64007
 C411 C 1.06707 0.12133 0.61266
 C412 C 1.06811 0.07115 0.61700
 C413 C 1.10345 0.05166 0.64458
 C414 C 1.09935 0.01555 0.68304
 C415 C 1.13327 0.04693 0.71133
 H416 H 1.09461 0.18937 0.63605
 H417 H 1.04262 0.13760 0.58854
 H418 H 1.11450 -0.01950 0.67252
 H419 H 1.06331 0.01355 0.69875
 H420 H 1.16802 0.02994 0.71674
 H421 H 1.11711 0.06290 0.74377
 C422 C 0.80687 -0.12007 0.64868
 C423 C 0.82430 -0.16430 0.66463
 C424 C 0.85811 -0.18655 0.63449
 C425 C 0.87936 -0.16142 0.59662
 C426 C 0.86682 -0.11382 0.58710
 C427 C 0.82753 -0.09572 0.61099
 C428 C 0.82083 -0.04770 0.63371
 C429 C 0.79842 -0.07384 0.67503
 H430 H 0.87051 -0.22229 0.64106
 H431 H 0.90835 -0.17780 0.57753
 H432 H 0.79557 -0.02546 0.61394
 H433 H 0.85462 -0.02935 0.64307
 H434 H 0.76030 -0.06591 0.67912
 H435 H 0.81927 -0.07062 0.70817
 C436 C 1.11446 -0.18298 0.35933
 C437 C 1.16008 -0.16660 0.34840
 C438 C 1.17781 -0.12727 0.37527
 C439 C 1.14787 -0.10120 0.40606
 C440 C 1.09965 -0.11378 0.41009
 C441 C 1.08494 -0.15707 0.38887
 C442 C 1.04258 -0.16935 0.35966
 C443 C 1.07501 -0.19798 0.32743
 H444 H 1.21377 -0.11471 0.37028
 H445 H 1.16148 -0.06900 0.42323
 H446 H 1.02759 -0.13772 0.34182
 H447 H 1.01663 -0.19209 0.37918
 H448 H 1.07867 -0.18286 0.29127
 H449 H 1.06786 -0.23726 0.32860
 C450 C 0.84546 0.08537 0.31974
 C451 C 0.84926 0.13538 0.32460
 C452 C 0.87691 0.15408 0.36214
 C453 C 0.89990 0.12306 0.39325
 C454 C 0.89842 0.07307 0.38538
 C455 C 0.87063 0.05516 0.34851
 C456 C 0.88464 0.02358 0.30784
 C457 C 0.85601 0.05575 0.27654
 H458 H 0.87976 0.19244 0.36823
 H459 H 0.91969 0.13810 0.42268
 H460 H 0.86984 -0.01336 0.31032
 H461 H 0.92316 0.02550 0.30023
 H462 H 0.82381 0.03779 0.26223
 H463 H 0.87771 0.07542 0.24991
 C464 C 0.10548 0.34625 -0.17327
 C465 C 0.15260 0.33393 -0.16383
 C466 C 0.17628 0.36335 -0.12969
 C467 C 0.15162 0.39720 -0.10183
 C468 C 0.10304 0.40372 -0.10815
 C469 C 0.08172 0.38032 -0.14646
 C470 C 0.03620 0.35296 -0.14778
 C471 C 0.06178 0.31532 -0.17676
 H472 H 0.21338 0.35974 -0.12262
 H473 H 0.16999 0.41622 -0.07366
 H474 H 0.00881 0.37191 -0.16807
 H475 H 0.02473 0.34009 -0.11231
 H476 H 0.04818 0.31235 -0.21353
 H477 H 0.06520 0.28062 -0.15811
 C478 C -0.08562 0.31415 0.14064
 C479 C -0.13380 0.32270 0.14599
 C480 C -0.15101 0.36672 0.12960
 C481 C -0.12072 0.39921 0.10567
 C482 C -0.07313 0.38756 0.09694
 C483 C -0.05622 0.34551 0.11661
 C484 C -0.02890 0.30571 0.09434
 C485 C -0.06124 0.27118 0.12089
 H486 H -0.18763 0.37586 0.13509
 H487 H -0.13468 0.43269 0.09316
 H488 H 0.00815 0.30529 0.10689
 H489 H -0.03315 0.30377 0.05524
 H490 H -0.04283 0.25091 0.14877
 H491 H -0.08426 0.24912 0.09721
 C492 C -0.11919 0.68939 -0.07664
 C493 C -0.12707 0.68752 -0.12581
 C494 C -0.10984 0.64695 -0.15065
 C495 C -0.08293 0.61244 -0.12757
 C496 C -0.07075 0.61834 -0.07958
 C497 C -0.09102 0.65620 -0.05430
 C498 C -0.06895 0.69340 -0.02295
 C499 C -0.09971 0.72978 -0.04713
 H500 H -0.11738 0.64124 -0.18784
 H501 H -0.06968 0.58226 -0.14792
 H502 H -0.03065 0.69871 -0.03013
 H503 H -0.07872 0.68849 0.01477
 H504 H -0.07931 0.75637 -0.06839
 H505 H -0.12681 0.74539 -0.02307
 C506 C 0.19761 0.62461 0.12618
 C507 C 0.18745 0.63616 0.17408
 C508 C 0.15175 0.60709 0.19567
 C509 C 0.12113 0.57794 0.16807
 C510 C 0.12623 0.57593 0.11848
 C511 C 0.16786 0.59534 0.09943
 C512 C 0.17639 0.62278 0.05508
 C513 C 0.20863 0.65515 0.08381
 H514 H 0.14445 0.60887 0.23320
 H515 H 0.09118 0.56066 0.18511
 H516 H 0.14483 0.64179 0.04253
 H517 H 0.19527 0.60129 0.02769
 H518 H 0.19522 0.69233 0.08755
 H519 H 0.24608 0.65255 0.07223
 C520 C 0.35759 1.10496 0.80587
 C521 C 0.34365 1.15158 0.81930
 C522 C 0.37368 1.17619 0.85169
 C523 C 0.40845 1.15146 0.87673
 C524 C 0.41558 1.10222 0.86834
 C525 C 0.39338 1.08136 0.82905
 C526 C 0.36943 1.03364 0.82402
 C527 C 0.32987 1.05920 0.79938
 H528 H 0.36857 1.21347 0.86081
 H529 H 0.42668 1.16976 0.90543
 H530 H 0.35883 1.01813 0.85852
 H531 H 0.38927 1.00904 0.80016
 H532 H 0.29626 1.05887 0.81993
 H533 H 0.32667 1.04827 0.76153
 C534 C 0.35243 0.84497 1.11021
 C535 C 0.31165 0.86143 1.13279
 C536 C 0.29574 0.90746 1.12047
 C537 C 0.32393 0.93795 1.09193
 C538 C 0.36878 0.92315 1.07626
 C539 C 0.38067 0.87521 1.08347
 C540 C 0.42487 0.85262 1.10047
 C541 C 0.39365 0.81924 1.12968
 H542 H 0.26279 0.92072 1.13467
 H543 H 0.31257 0.97428 1.08588
 H544 H 0.44686 0.87711 1.12278
 H545 H 0.44409 0.83381 1.07144
 H546 H 0.39751 0.82468 1.16856
 H547 H 0.39476 0.78127 1.11731
 C548 C 0.63636 1.11593 1.17504
 C549 C 0.65193 1.16214 1.16209
 C550 C 0.62436 1.18610 1.12829
 C551 C 0.58827 1.16140 1.10336
 C552 C 0.57807 1.11279 1.11279
 C553 C 0.60022 1.09218 1.15139
 C554 C 0.62367 1.04469 1.15469
 C555 C 0.66332 1.07049 1.18053
 H556 H 0.63217 1.22281 1.11873
 H557 H 0.57079 1.17922 1.07462
 H558 H 0.63475 1.03001 1.11964
 H559 H 0.60348 1.01924 1.17741
 H560 H 0.69719 1.07076 1.16041
 H561 H 0.66596 1.05936 1.21810
 C562 C 0.64024 0.84945 0.89271
 C563 C 0.68503 0.86747 0.88099
 C564 C 0.69398 0.91683 0.88689
 C565 C 0.66010 0.94647 0.90781
 C566 C 0.61608 0.92757 0.92244
 C567 C 0.60630 0.87907 0.91299
 C568 C 0.59022 0.84123 0.94663
 C569 C 0.62731 0.80896 0.92467
 H570 H 0.72745 0.93232 0.87574
 H571 H 0.66868 0.98413 0.91293
 H572 H 0.55354 0.82882 0.93934
 H573 H 0.59736 0.85103 0.98424
 H574 H 0.61201 0.77785 0.90486
 H575 H 0.65602 0.80003 0.94957
   
