data_POSCAR
  _audit_creation_date              2014-09-24
  _audit_creation_method            'ToBaCCo'
  _symmetry_space_group_name_H-M    'P1'
  _symmetry_Int_Tables_number       1
  _symmetry_cell_setting            triclinic
  loop_
  _symmetry_equiv_pos_as_xyz
 x,y,z
_cell_length_a 56.0247
_cell_length_b 58.9149
_cell_length_c 52.8075
_cell_angle_alpha 90.178300
_cell_angle_beta 90.038200
_cell_angle_gamma 90.875900
loop_
  _atom_site_label
  _atom_site_type_symbol
  _atom_site_fract_x
  _atom_site_fract_y
  _atom_site_fract_z
N1 N 0.16546 0.17570 0.21044
 N2 N 0.18324 0.16136 0.21065
 C3 C 0.17919 0.14567 0.22874
 C4 C 0.15780 0.15059 0.24025
 C5 C 0.14948 0.16966 0.22832
 H6 H 0.19085 0.13178 0.23324
 H7 H 0.13312 0.17848 0.23236
 Cu8 Cu 0.20986 0.16472 0.18721
 Cu9 Cu 0.16438 0.20119 0.18717
 Cu10 Cu 0.21198 0.20799 0.14578
 N11 N 0.23668 0.16893 0.16420
 N12 N 0.23736 0.18587 0.14800
 C13 C 0.25740 0.18458 0.13402
 C14 C 0.26979 0.16590 0.14203
 C15 C 0.25629 0.15627 0.16109
 H16 H 0.26235 0.19610 0.11894
 H17 H 0.26029 0.14102 0.17153
 N18 N 0.18460 0.22858 0.14651
 N19 N 0.16647 0.22594 0.16229
 C20 C 0.15063 0.24250 0.15816
 C21 C 0.15928 0.25606 0.13898
 C22 C 0.18075 0.24690 0.13193
 H23 H 0.13400 0.24454 0.16823
 H24 H 0.19258 0.25310 0.11724
 H25 H 0.18501 0.18693 0.15893
 H26 H 0.20099 0.20490 0.18291
 N27 N -0.17329 0.81998 0.21862
 N28 N -0.19187 0.83334 0.21778
 C29 C -0.19013 0.84870 0.23669
 C30 C -0.16944 0.84459 0.24991
 C31 C -0.15912 0.82633 0.23807
 H32 H -0.20283 0.86191 0.24054
 H33 H -0.14255 0.81836 0.24318
 Cu34 Cu -0.21635 0.82948 0.19193
 Cu35 Cu -0.16874 0.79549 0.19437
 Cu36 Cu -0.21160 0.78886 0.14739
 N37 N -0.23998 0.82582 0.16516
 N38 N -0.23801 0.80991 0.14776
 C39 C -0.25643 0.81127 0.13146
 C40 C -0.27054 0.82892 0.13921
 C41 C -0.25973 0.83788 0.16051
 H42 H -0.25922 0.80040 0.11514
 H43 H -0.26568 0.85221 0.17157
 N44 N -0.18361 0.76922 0.15020
 N45 N -0.16730 0.77173 0.16812
 C46 C -0.15069 0.75563 0.16519
 C47 C -0.15696 0.74253 0.14454
 C48 C -0.17782 0.75146 0.13542
 H49 H -0.13528 0.75345 0.17723
 H50 H -0.18804 0.74532 0.11937
 H51 H -0.18733 0.81045 0.16515
 H52 H -0.20436 0.79022 0.18573
 N53 N -0.17243 0.18546 -0.22653
 N54 N -0.18823 0.16922 -0.22207
 C55 C -0.18532 0.15235 -0.23900
 C56 C -0.16670 0.15847 -0.25470
 C57 C -0.15885 0.17947 -0.24639
 H58 H -0.19609 0.13697 -0.23998
 H59 H -0.14456 0.18970 -0.25437
 Cu60 Cu -0.21139 0.17184 -0.19503
 Cu61 Cu -0.17116 0.21336 -0.20680
 Cu62 Cu -0.21743 0.22172 -0.16454
 N63 N -0.23944 0.17838 -0.17501
 N64 N -0.24181 0.19785 -0.16307
 C65 C -0.26282 0.19775 -0.15067
 C66 C -0.27401 0.17716 -0.15533
 C67 C -0.25884 0.16521 -0.17073
 H68 H -0.26938 0.21152 -0.13915
 H69 H -0.26166 0.14826 -0.17821
 N70 N -0.19091 0.24368 -0.16898
 N71 N -0.17324 0.24042 -0.18508
 C72 C -0.15781 0.25812 -0.18362
 C73 C -0.16627 0.27309 -0.16585
 C74 C -0.18717 0.26356 -0.15682
 H75 H -0.14151 0.25991 -0.19444
 H76 H -0.19860 0.27048 -0.14232
 H77 H -0.18850 0.20216 -0.17429
 H78 H -0.20766 0.21254 -0.20077
 N79 N 0.16662 0.82250 -0.21489
 N80 N 0.18493 0.83674 -0.21450
 C81 C 0.18063 0.85397 -0.23052
 C82 C 0.15851 0.85018 -0.24127
 C83 C 0.15006 0.83015 -0.23108
 H84 H 0.19275 0.86799 -0.23440
 H85 H 0.13332 0.82162 -0.23546
 Cu86 Cu 0.21283 0.83102 -0.19368
 Cu87 Cu 0.16594 0.79473 -0.19519
 Cu88 Cu 0.21589 0.78324 -0.15899
 N89 N 0.24094 0.82399 -0.17376
 N90 N 0.24205 0.80531 -0.16023
 C91 C 0.26316 0.80488 -0.14802
 C92 C 0.27579 0.82426 -0.15442
 C93 C 0.26134 0.83609 -0.17065
 H94 H 0.26870 0.79169 -0.13518
 H95 H 0.26524 0.85240 -0.17918
 N96 N 0.18759 0.76303 -0.16029
 N97 N 0.16855 0.76749 -0.17407
 C98 C 0.15240 0.75053 -0.17127
 C99 C 0.16179 0.73481 -0.15503
 C100 C 0.18403 0.74309 -0.14833
 H101 H 0.13514 0.74957 -0.18044
 H102 H 0.19664 0.73512 -0.13580
 H103 H 0.18905 0.80572 -0.16690
 H104 H 0.20262 0.79067 -0.19444
 N105 N 0.18025 1.17952 0.77397
 N106 N 0.16605 1.19711 0.77404
 C107 C 0.15145 1.19574 0.75373
 C108 C 0.15698 1.17634 0.74041
 C109 C 0.17525 1.16643 0.75364
 H110 H 0.13767 1.20771 0.74911
 H111 H 0.18405 1.15076 0.74897
 Cu112 Cu 0.16769 1.21964 0.80113
 Cu113 Cu 0.20400 1.17473 0.80031
 Cu114 Cu 0.20684 1.21435 0.84902
 N115 N 0.16912 1.24153 0.82883
 N116 N 0.18441 1.23930 0.84756
 C117 C 0.18159 1.25648 0.86414
 C118 C 0.16358 1.27003 0.85529
 C119 C 0.15599 1.26017 0.83293
 H120 H 0.19180 1.25891 0.88134
 H121 H 0.14190 1.26614 0.82077
 N122 N 0.22801 1.18792 0.84713
 N123 N 0.22686 1.17281 0.82860
 C124 C 0.24354 1.15695 0.83252
 C125 C 0.25565 1.16243 0.85444
 C126 C 0.24547 1.18205 0.86331
 H127 H 0.24674 1.14253 0.82035
 H128 H 0.25050 1.19133 0.88024
 H129 H 0.18589 1.19148 0.82884
 H130 H 0.20850 1.20826 0.81071
 N131 N 0.83054 0.82614 0.77668
 N132 N 0.84513 0.80887 0.77734
 C133 C 0.86084 0.81082 0.75808
 C134 C 0.85568 0.83030 0.74486
 C135 C 0.83644 0.83965 0.75707
 H136 H 0.87499 0.79907 0.75400
 H137 H 0.82748 0.85514 0.75208
 Cu138 Cu 0.84210 0.78561 0.80339
 Cu139 Cu 0.80508 0.82999 0.80133
 Cu140 Cu 0.79851 0.78839 0.84718
 N141 N 0.83779 0.76208 0.82893
 N142 N 0.82070 0.76323 0.84596
 C143 C 0.82182 0.74503 0.86128
 C144 C 0.84054 0.73187 0.85334
 C145 C 0.85034 0.74306 0.83285
 H146 H 0.81001 0.74167 0.87707
 H147 H 0.86554 0.73778 0.82181
 N148 N 0.77781 0.81515 0.84530
 N149 N 0.78037 0.83099 0.82782
 C150 C 0.76375 0.84696 0.83147
 C151 C 0.75019 0.84082 0.85214
 C152 C 0.75944 0.82064 0.86053
 H153 H 0.76160 0.86196 0.82000
 H154 H 0.75322 0.81076 0.87651
 H155 H 0.82080 0.81219 0.83045
 H156 H 0.80037 0.79577 0.80901
 N157 N 0.17983 0.81915 1.23618
 N158 N 0.16355 0.80295 1.23393
 C159 C 0.14772 0.80475 1.25303
 C160 C 0.15463 0.82301 1.26787
 C161 C 0.17496 0.83180 1.25674
 H162 H 0.13231 0.79376 1.25581
 H163 H 0.18529 0.84643 1.26302
 Cu164 Cu 0.16432 0.78136 1.20601
 Cu165 Cu 0.20583 0.82292 1.21212
 Cu166 Cu 0.21175 0.78107 1.16658
 N167 N 0.17010 0.75614 1.18309
 N168 N 0.18857 0.75606 1.16771
 C169 C 0.18798 0.73679 1.15389
 C170 C 0.16816 0.72426 1.16114
 C171 C 0.15716 0.73692 1.17963
 H172 H 0.20088 0.73229 1.13957
 H173 H 0.14093 0.73252 1.18967
 N174 N 0.23330 0.80783 1.16871
 N175 N 0.23097 0.82378 1.18613
 C176 C 0.24815 0.83972 1.18281
 C177 C 0.26186 0.83344 1.16242
 C178 C 0.25209 0.81322 1.15382
 H179 H 0.25057 0.85479 1.19432
 H180 H 0.25822 0.80325 1.13794
 H181 H 0.19060 0.80624 1.18131
 H182 H 0.20716 0.78840 1.20450
 N183 N 0.82747 1.17291 1.22927
 N184 N 0.84163 1.19089 1.22829
 C185 C 0.85762 1.18990 1.24733
 C186 C 0.85310 1.17024 1.26074
 C187 C 0.83397 1.15979 1.24883
 H188 H 0.87169 1.20229 1.25086
 H189 H 0.82564 1.14372 1.25376
 Cu190 Cu 0.83857 1.21319 1.20143
 Cu191 Cu 0.80254 1.16734 1.20429
 Cu192 Cu 0.78741 1.21389 1.16783
 N193 N 0.83020 1.23897 1.18059
 N194 N 0.81005 1.23938 1.16779
 C195 C 0.80904 1.25897 1.15474
 C196 C 0.82959 1.27136 1.15978
 C197 C 0.84268 1.25828 1.17616
 H198 H 0.79471 1.26362 1.14213
 H199 H 0.86008 1.26237 1.18397
 N200 N 0.76716 1.18624 1.17027
 N201 N 0.77323 1.16840 1.18379
 C202 C 0.75627 1.15210 1.18124
 C203 C 0.73883 1.16009 1.16535
 C204 C 0.74618 1.18169 1.15865
 H205 H 0.75658 1.13563 1.19021
 H206 H 0.73703 1.19309 1.14604
 H207 H 0.81188 1.18949 1.17496
 H208 H 0.79677 1.20161 1.20326
 O209 O 0.52448 0.97902 0.94982
 O210 O 0.48256 0.98714 1.06176
 O211 O 0.54621 0.98575 1.01995
 O212 O 0.47057 0.96169 0.98406
 O213 O 0.51362 0.96888 1.03338
 O214 O 0.47940 0.97758 0.94854
 O215 O 0.47060 0.96959 1.02814
 O216 O 0.55090 0.99535 0.97501
 C217 C 0.54546 0.98118 0.95784
 C218 C 0.46704 0.97366 1.05132
 C219 C 0.53561 0.96845 1.02904
 C220 C 0.47163 0.96085 0.96067
 O221 O 0.47885 1.02211 0.95209
 O222 O 0.52406 1.00586 1.05521
 O223 O 0.53362 1.03732 0.98470
 O224 O 0.45506 1.01251 1.01878
 O225 O 0.48665 1.02442 1.03806
 O226 O 0.52353 1.02292 0.94883
 O227 O 0.45231 1.00291 0.97380
 O228 O 0.52990 1.02988 1.02725
 Co229 Co 0.50148 1.00036 0.95423
 Co230 Co 0.49948 0.99653 1.03435
 Co231 Co 0.53720 1.01103 1.00152
 Co232 Co 0.46548 0.98788 1.00088
 O233 O 0.50188 0.99979 0.99599
 C234 C 0.45782 1.01903 0.95920
 C235 C 0.53402 1.02383 1.04914
 C236 C 0.53234 1.03881 0.96146
 C237 C 0.46546 1.02721 1.03211
 O238 O 0.02080 0.47596 0.04879
 O239 O 0.01033 0.51738 -0.06160
 O240 O 0.01032 0.45627 -0.02136
 O241 O 0.03921 0.52714 0.01568
 O242 O 0.02909 0.48673 -0.03461
 O243 O 0.02303 0.51890 0.05141
 O244 O 0.02999 0.52772 -0.02827
 O245 O 0.00190 0.45168 0.02384
 C246 C 0.01765 0.45622 0.04036
 C247 C 0.02519 0.53155 -0.05123
 C248 C 0.02863 0.46569 -0.03101
 C249 C 0.04028 0.52672 0.03905
 O250 O -0.02363 0.52012 0.04941
 O251 O -0.01083 0.47872 -0.05515
 O252 O -0.04206 0.46968 0.01645
 O253 O -0.01419 0.54398 -0.01755
 O254 O -0.02838 0.51468 -0.03686
 O255 O -0.02512 0.47740 0.05181
 O256 O -0.00363 0.54536 0.02727
 O257 O -0.03556 0.47352 -0.02643
 Co258 Co -0.00132 0.49824 0.04592
 Co259 Co 0.00054 0.50133 -0.03427
 Co260 Co -0.01518 0.46554 -0.00163
 Co261 Co 0.01152 0.53291 -0.00041
 O262 O -0.00199 0.49862 0.00410
 C263 C -0.02010 0.54018 0.04259
 C264 C -0.02992 0.46988 -0.04864
 C265 C -0.04239 0.46938 0.03977
 C266 C -0.03022 0.53495 -0.03079
 O267 O 1.04464 0.02308 0.47632
 O268 O 0.94722 0.00841 0.52506
 O269 O 0.98113 0.01481 0.45166
 O270 O 1.01500 0.03877 0.53470
 O271 O 0.96387 0.02692 0.48526
 O272 O 1.04813 0.02385 0.52368
 O273 O 0.97443 0.03208 0.53111
 O274 O 1.02311 0.00447 0.44849
 C275 C 1.03794 0.02000 0.45404
 C276 C 0.95357 0.02626 0.53542
 C277 C 0.96919 0.02965 0.46265
 C278 C 1.03699 0.03968 0.53361
 O279 O 1.04551 -0.01998 0.52519
 O280 O 0.94000 -0.00980 0.48167
 O281 O 1.01198 -0.03663 0.46834
 O282 O 0.97974 -0.01221 0.54873
 O283 O 0.96633 -0.02885 0.51444
 O284 O 1.04618 -0.02149 0.47734
 O285 O 1.02256 -0.00335 0.55319
 O286 O 0.97072 -0.02796 0.46862
 Co287 Co 1.04194 0.00139 0.50057
 Co288 Co 0.96640 -0.00109 0.49912
 Co289 Co 0.99713 -0.01014 0.46284
 Co290 Co 0.99806 0.01277 0.53877
 O291 O 1.00260 0.00154 0.50132
 C292 C 1.03845 -0.01748 0.54751
 C293 C 0.94902 -0.02334 0.46514
 C294 C 1.03401 -0.03782 0.46893
 C295 C 0.97030 -0.02931 0.53781
 C296 C 1.14709 0.13913 0.25955
 C297 C 1.13749 0.12907 0.27668
 C298 C 1.12595 0.11714 0.29713
 C299 C 1.13779 0.11440 0.32023
 C300 C 1.12660 0.10278 0.34009
 C301 C 1.10337 0.09373 0.33710
 C302 C 1.09159 0.09664 0.31381
 C303 C 1.10282 0.10826 0.29398
 C304 C 1.09157 0.08112 0.35808
 C305 C 1.06713 0.08394 0.36316
 C306 C 1.05603 0.07187 0.38277
 C307 C 1.06919 0.05685 0.39753
 C308 C 1.09351 0.05398 0.39266
 C309 C 1.10464 0.06602 0.37309
 C310 C 1.05781 0.04416 0.41750
 C311 C 1.04857 0.03327 0.43422
 H312 H 1.15566 0.12129 0.32290
 H313 H 1.13602 0.10108 0.35788
 H314 H 1.07384 0.08961 0.31080
 H315 H 1.09350 0.11026 0.27616
 H316 H 1.05665 0.09565 0.35216
 H317 H 1.03719 0.07425 0.38641
 H318 H 1.10384 0.04232 0.40391
 H319 H 1.12338 0.06323 0.36944
 C320 C 0.83970 -0.14304 0.27137
 C321 C 0.84756 -0.13270 0.28933
 C322 C 0.85723 -0.12043 0.31068
 C323 C 0.87708 -0.12877 0.32353
 C324 C 0.88677 -0.11675 0.34405
 C325 C 0.87673 -0.09616 0.35196
 C326 C 0.85669 -0.08796 0.33899
 C327 C 0.84702 -0.10003 0.31847
 C328 C 0.88751 -0.08309 0.37327
 C329 C 0.89005 -0.05934 0.37181
 C330 C 0.90131 -0.04713 0.39129
 C331 C 0.91009 -0.05848 0.41250
 C332 C 0.90727 -0.08206 0.41436
 C333 C 0.89604 -0.09430 0.39489
 C334 C 0.92307 -0.04608 0.43169
 C335 C 0.93457 -0.03570 0.44728
 H336 H 0.88519 -0.14449 0.31758
 H337 H 0.90239 -0.12334 0.35341
 H338 H 0.84841 -0.07231 0.34482
 H339 H 0.83163 -0.09344 0.30866
 H340 H 0.88396 -0.05026 0.35528
 H341 H 0.90356 -0.02890 0.38958
 H342 H 0.91405 -0.09100 0.43069
 H343 H 0.89406 -0.11253 0.39672
 C344 C 0.84239 0.14591 0.72421
 C345 C 0.85033 0.13563 0.70645
 C346 C 0.86022 0.12366 0.68527
 C347 C 0.88450 0.12622 0.67965
 C348 C 0.89429 0.11466 0.65912
 C349 C 0.87989 0.10035 0.64392
 C350 C 0.85549 0.09787 0.64972
 C351 C 0.84571 0.10950 0.67027
 C352 C 0.89051 0.08777 0.62245
 C353 C 0.88439 0.06484 0.61810
 C354 C 0.89564 0.05261 0.59891
 C355 C 0.91301 0.06318 0.58378
 C356 C 0.91876 0.08612 0.58755
 C357 C 0.90758 0.09837 0.60674
 C358 C 0.92627 0.05014 0.56573
 C359 C 0.93826 0.03923 0.55139
 H360 H 0.89589 0.13709 0.69121
 H361 H 0.91321 0.11660 0.65539
 H362 H 0.84395 0.08712 0.63822
 H363 H 0.82687 0.10746 0.67445
 H364 H 0.87152 0.05617 0.63008
 H365 H 0.89123 0.03478 0.59628
 H366 H 0.93226 0.09443 0.57601
 H367 H 0.91241 0.11608 0.60944
 C368 C 1.14708 -0.13644 0.73975
 C369 C 1.13735 -0.12553 0.72362
 C370 C 1.12564 -0.11285 0.70415
 C371 C 1.10189 -0.11793 0.69783
 C372 C 1.09064 -0.10603 0.67846
 C373 C 1.10304 -0.08888 0.66517
 C374 C 1.12687 -0.08381 0.67180
 C375 C 1.13808 -0.09574 0.69116
 C376 C 1.09124 -0.07646 0.64435
 C377 C 1.09486 -0.05292 0.64159
 C378 C 1.08396 -0.04127 0.62181
 C379 C 1.06932 -0.05298 0.60454
 C380 C 1.06553 -0.07638 0.60715
 C381 C 1.07641 -0.08807 0.62693
 C382 C 1.05825 -0.04091 0.58418
 C383 C 1.04912 -0.03044 0.56728
 H384 H 1.09210 -0.13114 0.70781
 H385 H 1.07220 -0.11011 0.67402
 H386 H 1.13696 -0.07090 0.66170
 H387 H 1.15651 -0.09176 0.69586
 H388 H 1.10592 -0.04348 0.65488
 H389 H 1.08694 -0.02314 0.62000
 H390 H 1.05426 -0.08560 0.59385
 H391 H 1.07354 -0.10623 0.62838
 C392 C 0.29034 1.15774 1.13211
 C393 C 0.30841 1.15013 1.12335
 C394 C 0.32971 1.14044 1.11297
 C395 C 0.33749 1.14647 1.08869
 C396 C 0.35732 1.13592 1.07803
 C397 C 0.36960 1.11918 1.09156
 C398 C 0.36193 1.11362 1.11618
 C399 C 0.34211 1.12417 1.12678
 C400 C 0.38938 1.10653 1.07961
 C401 C 0.40956 1.10047 1.09381
 C402 C 0.42694 1.08652 1.08328
 C403 C 0.42442 1.07852 1.05842
 C404 C 0.40486 1.08514 1.04385
 C405 C 0.38747 1.09909 1.05433
 C406 C 0.44034 1.06163 1.04880
 C407 C 0.45252 1.04644 1.04103
 H408 H 0.32801 1.15905 1.07785
 H409 H 0.36291 1.14068 1.05913
 H410 H 0.37072 1.10053 1.12690
 H411 H 0.33615 1.11928 1.14552
 H412 H 0.41165 1.10615 1.11321
 H413 H 0.44194 1.08140 1.09477
 H414 H 0.40260 1.07884 1.02468
 H415 H 0.37201 1.10319 1.04301
 C416 C 0.29732 0.83122 0.85481
 C417 C 0.31618 0.83793 0.86313
 C418 C 0.33828 0.84675 0.87326
 C419 C 0.34034 0.85101 0.89924
 C420 C 0.36093 0.86151 0.90892
 C421 C 0.37975 0.86795 0.89269
 C422 C 0.37781 0.86297 0.86669
 C423 C 0.35717 0.85246 0.85704
 C424 C 0.40036 0.88136 0.90266
 C425 C 0.40915 0.90027 0.88916
 C426 C 0.42646 0.91466 0.89988
 C427 C 0.43528 0.91031 0.92415
 C428 C 0.42743 0.89101 0.93728
 C429 C 0.41010 0.87657 0.92659
 C430 C 0.44995 0.92712 0.93671
 C431 C 0.46073 0.94209 0.94754
 H432 H 0.32575 0.84680 0.91193
 H433 H 0.36169 0.86544 0.92896
 H434 H 0.39209 0.86753 0.85378
 H435 H 0.35573 0.84926 0.83688
 H436 H 0.40177 0.90462 0.87089
 H437 H 0.43219 0.92972 0.88969
 H438 H 0.43402 0.88758 0.95616
 H439 H 0.40388 0.86201 0.93730
 C440 C 0.70951 0.83665 1.12767
 C441 C 0.69193 0.84398 1.11762
 C442 C 0.67115 0.85347 1.10597
 C443 C 0.66740 0.85120 1.07987
 C444 C 0.64804 0.86181 1.06839
 C445 C 0.63221 0.87482 1.08293
 C446 C 0.63587 0.87655 1.10923
 C447 C 0.65523 0.86597 1.12064
 C448 C 0.61286 0.88776 1.07068
 C449 C 0.59043 0.88969 1.08242
 C450 C 0.57322 0.90409 1.07243
 C451 C 0.57817 0.91663 1.05055
 C452 C 0.60005 0.91411 1.03816
 C453 C 0.61728 0.89973 1.04811
 C454 C 0.56197 0.93379 1.04230
 C455 C 0.54934 0.94913 1.03598
 H456 H 0.67964 0.84156 1.06835
 H457 H 0.64555 0.86001 1.04814
 H458 H 0.62427 0.88676 1.12087
 H459 H 0.65807 0.86795 1.14083
 H460 H 0.58640 0.88046 1.09963
 H461 H 0.55637 0.90599 1.08221
 H462 H 0.60415 0.92392 1.02135
 H463 H 0.63446 0.89883 1.03882
 C464 C 0.70468 1.16969 0.85388
 C465 C 0.68598 1.16239 0.86190
 C466 C 0.66406 1.15273 0.87137
 C467 C 0.65295 1.16208 0.89263
 C468 C 0.63269 1.15148 0.90293
 C469 C 0.62335 1.13138 0.89207
 C470 C 0.63430 1.12250 0.87029
 C471 C 0.65452 1.13311 0.86005
 C472 C 0.60348 1.11869 0.90438
 C473 C 0.58574 1.10766 0.88977
 C474 C 0.56881 1.09340 0.90127
 C475 C 0.56936 1.09010 0.92749
 C476 C 0.58632 1.10171 0.94228
 C477 C 0.60325 1.11596 0.93083
 C478 C 0.55451 1.07293 0.93899
 C479 C 0.54353 1.05772 0.94904
 H480 H 0.66023 1.17726 0.90154
 H481 H 0.62452 1.15880 0.91958
 H482 H 0.62781 1.10684 0.86177
 H483 H 0.66310 1.12566 0.84370
 H484 H 0.58534 1.10964 0.86939
 H485 H 0.55584 1.08437 0.88965
 H486 H 0.58707 1.09904 0.96255
 H487 H 0.61688 1.12391 0.94255
 C488 C 0.14790 0.27550 0.12838
 C489 C 0.13788 0.29168 0.11974
 C490 C 0.12537 0.31079 0.10970
 C491 C 0.13190 0.33289 0.11696
 C492 C 0.11903 0.35136 0.10801
 C493 C 0.09939 0.34791 0.09174
 C494 C 0.09317 0.32564 0.08431
 C495 C 0.10608 0.30722 0.09325
 C496 C 0.08516 0.36738 0.08290
 C497 C 0.06010 0.36568 0.08188
 C498 C 0.04662 0.38397 0.07357
 C499 C 0.05798 0.40419 0.06618
 C500 C 0.08289 0.40609 0.06714
 C501 C 0.09642 0.38781 0.07549
 C502 C 0.04400 0.42283 0.05735
 C503 C 0.03206 0.43822 0.04976
 H504 H 0.14674 0.33581 0.12979
 H505 H 0.12407 0.36828 0.11427
 H506 H 0.07837 0.32248 0.07152
 H507 H 0.10089 0.29017 0.08751
 H508 H 0.05090 0.35030 0.08781
 H509 H 0.02734 0.38234 0.07292
 H510 H 0.09186 0.42165 0.06135
 H511 H 0.11569 0.38954 0.07582
 C512 C -0.15493 0.29382 -0.15769
 C513 C -0.14496 0.31101 -0.15083
 C514 C -0.13253 0.33119 -0.14251
 C515 C -0.10830 0.33016 -0.13630
 C516 C -0.09616 0.34953 -0.12763
 C517 C -0.10812 0.37024 -0.12505
 C518 C -0.13245 0.37117 -0.13155
 C519 C -0.14457 0.35173 -0.14025
 C520 C -0.09538 0.39046 -0.11469
 C521 C -0.10645 0.40442 -0.09666
 C522 C -0.09372 0.42227 -0.08521
 C523 C -0.06986 0.42644 -0.09172
 C524 C -0.05892 0.41310 -0.11020
 C525 C -0.07160 0.39525 -0.12167
 C526 C -0.05598 0.44291 -0.07774
 C527 C -0.04414 0.45579 -0.06502
 H528 H -0.09886 0.31430 -0.13790
 H529 H -0.07756 0.34818 -0.12236
 H530 H -0.14206 0.38691 -0.12997
 H531 H -0.16332 0.35270 -0.14507
 H532 H -0.12462 0.40098 -0.09065
 H533 H -0.10225 0.43234 -0.07070
 H534 H -0.04040 0.41612 -0.11525
 H535 H -0.06272 0.38497 -0.13572
 C536 C 0.15059 0.71401 -0.14704
 C537 C 0.14076 0.69667 -0.14057
 C538 C 0.12857 0.67618 -0.13298
 C539 C 0.13551 0.66486 -0.11099
 C540 C 0.12311 0.64535 -0.10321
 C541 C 0.10354 0.63701 -0.11731
 C542 C 0.09683 0.64838 -0.13951
 C543 C 0.10931 0.66783 -0.14731
 C544 C 0.08969 0.61699 -0.10839
 C545 C 0.06459 0.61716 -0.10858
 C546 C 0.05149 0.59885 -0.09878
 C547 C 0.06330 0.58012 -0.08882
 C548 C 0.08825 0.57957 -0.08905
 C549 C 0.10140 0.59791 -0.09877
 C550 C 0.04986 0.56227 -0.07670
 C551 C 0.03858 0.54788 -0.06561
 H552 H 0.15031 0.67128 -0.09970
 H553 H 0.12843 0.63711 -0.08584
 H554 H 0.08197 0.64218 -0.15084
 H555 H 0.10383 0.67647 -0.16439
 H556 H 0.05513 0.63176 -0.11555
 H557 H 0.03217 0.59953 -0.09842
 H558 H 0.09755 0.56518 -0.08130
 H559 H 0.12071 0.59726 -0.09864
 C560 C -0.14461 0.72319 0.13491
 C561 C -0.13424 0.70690 0.12695
 C562 C -0.12181 0.68743 0.11761
 C563 C -0.13464 0.66850 0.10862
 C564 C -0.12254 0.64949 0.09973
 C565 C -0.09744 0.64920 0.09980
 C566 C -0.08471 0.66834 0.10885
 C567 C -0.09684 0.68733 0.11767
 C568 C -0.08453 0.62908 0.09038
 C569 C -0.06429 0.62124 0.10327
 C570 C -0.05178 0.60262 0.09405
 C571 C -0.05932 0.59162 0.07187
 C572 C -0.07955 0.59915 0.05903
 C573 C -0.09213 0.61774 0.06825
 C574 C -0.04582 0.57310 0.06185
 C575 C -0.03422 0.55788 0.05322
 H576 H -0.15398 0.66839 0.10856
 H577 H -0.13280 0.63491 0.09313
 H578 H -0.06538 0.66873 0.10878
 H579 H -0.08675 0.70194 0.12452
 H580 H -0.05822 0.62944 0.12054
 H581 H -0.03614 0.59691 0.10413
 H582 H -0.08545 0.59082 0.04175
 H583 H -0.10749 0.62355 0.05778
 C584 C 1.14556 0.16763 0.71794
 C585 C 1.13618 0.15985 0.69920
 C586 C 1.12516 0.14999 0.67700
 C587 C 1.13869 0.14623 0.65515
 C588 C 1.12837 0.13535 0.63415
 C589 C 1.10432 0.12811 0.63473
 C590 C 1.09076 0.13237 0.65664
 C591 C 1.10113 0.14321 0.67760
 C592 C 1.09365 0.11518 0.61320
 C593 C 1.06993 0.11888 0.60569
 C594 C 1.05918 0.10523 0.58706
 C595 C 1.07200 0.08777 0.57562
 C596 C 1.09586 0.08444 0.58236
 C597 C 1.10666 0.09809 0.60096
 C598 C 1.06001 0.07183 0.55904
 C599 C 1.04965 0.05763 0.54654
 H600 H 1.15733 0.15138 0.65449
 H601 H 1.13922 0.13246 0.61753
 H602 H 1.07234 0.12665 0.65790
 H603 H 1.09053 0.14589 0.69448
 H604 H 1.05957 0.13210 0.61451
 H605 H 1.04065 0.10787 0.58213
 H606 H 1.10587 0.07079 0.57385
 H607 H 1.12485 0.09462 0.60651
 C608 C 0.86792 -0.16061 0.72312
 C609 C 0.87787 -0.15244 0.70496
 C610 C 0.88936 -0.14203 0.68342
 C611 C 0.87633 -0.12788 0.66748
 C612 C 0.88756 -0.11684 0.64725
 C613 C 0.91207 -0.11975 0.64263
 C614 C 0.92497 -0.13426 0.65855
 C615 C 0.91367 -0.14532 0.67880
 C616 C 0.92420 -0.10690 0.62199
 C617 C 0.94689 -0.09690 0.62595
 C618 C 0.95739 -0.08315 0.60735
 C619 C 0.94544 -0.07927 0.58451
 C620 C 0.92321 -0.08970 0.58008
 C621 C 0.91268 -0.10345 0.59864
 C622 C 0.95489 -0.06289 0.56679
 C623 C 0.96225 -0.04815 0.55289
 H624 H 0.85753 -0.12510 0.67094
 H625 H 0.87719 -0.10550 0.63565
 H626 H 0.94379 -0.13704 0.65537
 H627 H 0.92395 -0.15624 0.69100
 H628 H 0.95610 -0.09895 0.64381
 H629 H 0.97448 -0.07496 0.61112
 H630 H 0.91373 -0.08672 0.56254
 H631 H 0.89536 -0.11114 0.59488
 C632 C 1.14279 -0.16809 0.28980
 C633 C 1.13334 -0.15986 0.30808
 C634 C 1.12259 -0.14914 0.32970
 C635 C 1.10252 -0.15887 0.34143
 C636 C 1.09176 -0.14785 0.36188
 C637 C 1.10098 -0.12697 0.37086
 C638 C 1.12131 -0.11749 0.35908
 C639 C 1.13200 -0.12850 0.33866
 C640 C 1.08896 -0.11452 0.39166
 C641 C 1.10246 -0.10274 0.41011
 C642 C 1.09121 -0.08921 0.42819
 C643 C 1.06634 -0.08734 0.42814
 C644 C 1.05271 -0.09961 0.41042
 C645 C 1.06392 -0.11317 0.39233
 C646 C 1.05503 -0.07100 0.44432
 C647 C 1.04549 -0.05636 0.45648
 H648 H 1.09509 -0.17485 0.33465
 H649 H 1.07624 -0.15565 0.37068
 H650 H 1.12859 -0.10125 0.36520
 H651 H 1.14745 -0.12075 0.32963
 H652 H 1.12174 -0.10367 0.41028
 H653 H 1.10195 -0.07967 0.44170
 H654 H 1.03346 -0.09808 0.41000
 H655 H 1.05305 -0.12178 0.37820
 C656 C 0.86635 0.16158 0.28183
 C657 C 0.87727 0.15378 0.29938
 C658 C 0.89005 0.14378 0.32011
 C659 C 0.88296 0.14780 0.34511
 C660 C 0.89439 0.13687 0.36513
 C661 C 0.91307 0.12172 0.36037
 C662 C 0.92039 0.11820 0.33519
 C663 C 0.90894 0.12913 0.31522
 C664 C 0.92401 0.10868 0.38133
 C665 C 0.94865 0.10432 0.38147
 C666 C 0.95849 0.09031 0.39995
 C667 C 0.94389 0.08054 0.41859
 C668 C 0.91950 0.08532 0.41906
 C669 C 0.90962 0.09933 0.40061
 C670 C 0.95337 0.06383 0.43555
 C671 C 0.96087 0.04880 0.44866
 H672 H 0.86835 0.15911 0.34912
 H673 H 0.88851 0.14013 0.38431
 H674 H 0.93444 0.10639 0.33083
 H675 H 0.91449 0.12579 0.29593
 H676 H 0.96024 0.11147 0.36706
 H677 H 0.97736 0.08659 0.39929
 H678 H 0.90796 0.07761 0.43319
 H679 H 0.89056 0.10205 0.40083
 C680 C 0.15440 0.29018 -0.13305
 C681 C 0.14641 0.30711 -0.12359
 C682 C 0.13646 0.32732 -0.11269
 C683 C 0.14477 0.33567 -0.08939
 C684 C 0.13461 0.35500 -0.07863
 C685 C 0.11601 0.36625 -0.09110
 C686 C 0.10796 0.35782 -0.11462
 C687 C 0.11809 0.33849 -0.12529
 C688 C 0.10432 0.38616 -0.07930
 C689 C 0.09740 0.40469 -0.09421
 C690 C 0.08442 0.42244 -0.08359
 C691 C 0.07827 0.42198 -0.05792
 C692 C 0.08573 0.40397 -0.04274
 C693 C 0.09875 0.38622 -0.05331
 C694 C 0.06228 0.43865 -0.04783
 C695 C 0.04764 0.45167 -0.03986
 H696 H 0.15897 0.32713 -0.07947
 H697 H 0.14131 0.36116 -0.06061
 H698 H 0.09338 0.36582 -0.12447
 H699 H 0.11140 0.33208 -0.14323
 H700 H 0.10168 0.40528 -0.11419
 H701 H 0.07859 0.43618 -0.09558
 H702 H 0.08079 0.40327 -0.02292
 H703 H 0.10356 0.37208 -0.04140
 C704 C -0.16324 0.29276 0.14895
 C705 C -0.15674 0.31055 0.13980
 C706 C -0.14832 0.33154 0.12880
 C707 C -0.14217 0.33233 0.10314
 C708 C -0.13258 0.35226 0.09272
 C709 C -0.12895 0.37172 0.10786
 C710 C -0.13565 0.37090 0.13353
 C711 C -0.14525 0.35094 0.14391
 C712 C -0.11700 0.39228 0.09718
 C713 C -0.09952 0.40417 0.11130
 C714 C -0.08655 0.42212 0.10044
 C715 C -0.09092 0.42852 0.07539
 C716 C -0.10883 0.41731 0.06145
 C717 C -0.12183 0.39935 0.07227
 C718 C -0.07518 0.44464 0.06317
 C719 C -0.06084 0.45683 0.05265
 H720 H -0.14434 0.31740 0.09128
 H721 H -0.12727 0.35218 0.07301
 H722 H -0.13332 0.38565 0.14561
 H723 H -0.14995 0.35053 0.16381
 H724 H -0.09510 0.39897 0.13036
 H725 H -0.07251 0.43044 0.11130
 H726 H -0.11223 0.42198 0.04196
 H727 H -0.13536 0.39072 0.06102
 C728 C -0.15130 0.71113 -0.13547
 C729 C -0.14411 0.69384 -0.12616
 C730 C -0.13501 0.67334 -0.11516
 C731 C -0.14383 0.66541 -0.09195
 C732 C -0.13429 0.64597 -0.08089
 C733 C -0.11582 0.63416 -0.09297
 C734 C -0.10730 0.64212 -0.11644
 C735 C -0.11681 0.66157 -0.12741
 C736 C -0.10475 0.61416 -0.08081
 C737 C -0.09817 0.59523 -0.09539
 C738 C -0.08575 0.57736 -0.08439
 C739 C -0.07979 0.57810 -0.05865
 C740 C -0.08693 0.59651 -0.04380
 C741 C -0.09941 0.61439 -0.05476
 C742 C -0.06401 0.56143 -0.04825
 C743 C -0.04939 0.54856 -0.03999
 H744 H -0.15794 0.67436 -0.08230
 H745 H -0.14135 0.64015 -0.06293
 H746 H -0.09283 0.63366 -0.12601
 H747 H -0.10975 0.66760 -0.14530
 H748 H -0.10228 0.59444 -0.11542
 H749 H -0.08014 0.56330 -0.09613
 H750 H -0.08212 0.59744 -0.02394
 H751 H -0.10394 0.62884 -0.04308
 C752 C 0.16010 0.70281 0.15097
 C753 C 0.15300 0.68492 0.14243
 C754 C 0.14406 0.66375 0.13218
 C755 C 0.12262 0.65439 0.14122
 C756 C 0.11333 0.63435 0.13063
 C757 C 0.12535 0.62337 0.11078
 C758 C 0.14709 0.63273 0.10205
 C759 C 0.15637 0.65279 0.11271
 C760 C 0.11453 0.60295 0.09844
 C761 C 0.11473 0.60072 0.07190
 C762 C 0.10232 0.58284 0.06008
 C763 C 0.08967 0.56687 0.07459
 C764 C 0.09015 0.56842 0.10104
 C765 C 0.10254 0.58630 0.11290
 C766 C 0.07378 0.55084 0.06230
 C767 C 0.05919 0.53886 0.05178
 H768 H 0.11286 0.66279 0.15618
 H769 H 0.09635 0.62783 0.13747
 H770 H 0.15686 0.62459 0.08695
 H771 H 0.17300 0.65987 0.10557
 H772 H 0.12352 0.61338 0.06020
 H773 H 0.10180 0.58200 0.03959
 H774 H 0.08028 0.55627 0.11247
 H775 H 0.10233 0.58739 0.13337
 C776 C 0.27498 1.15018 0.86558
 C777 C 0.29116 1.13967 0.87469
 C778 C 0.31040 1.12683 0.88531
 C779 C 0.33382 1.13046 0.87689
 C780 C 0.35239 1.11747 0.88660
 C781 C 0.34776 1.10062 0.90487
 C782 C 0.32417 1.09726 0.91338
 C783 C 0.30564 1.11028 0.90366
 C784 C 0.36737 1.08636 0.91467
 C785 C 0.36369 1.06294 0.91856
 C786 C 0.38220 1.04945 0.92746
 C787 C 0.40464 1.05913 0.93263
 C788 C 0.40849 1.08242 0.92893
 C789 C 0.39000 1.09595 0.92000
 C790 C 0.42364 1.04516 0.94181
 C791 C 0.43937 1.03330 0.94962
 H792 H 0.33770 1.14317 0.86263
 H793 H 0.37029 1.12029 0.87943
 H794 H 0.32007 1.08466 0.92767
 H795 H 0.28758 1.10736 0.91036
 H796 H 0.34659 1.05497 0.91433
 H797 H 0.37903 1.03143 0.93022
 H798 H 0.42577 1.09012 0.93297
 H799 H 0.39332 1.11396 0.91753
 C800 C 0.28212 0.84567 1.15238
 C801 C 0.29902 0.85634 1.14436
 C802 C 0.31906 0.86948 1.13512
 C803 C 0.34229 0.86136 1.13763
 C804 C 0.36175 0.87436 1.12904
 C805 C 0.35822 0.89571 1.11788
 C806 C 0.33478 0.90371 1.11545
 C807 C 0.31537 0.89067 1.12400
 C808 C 0.37879 0.90948 1.10844
 C809 C 0.37956 0.93317 1.11197
 C810 C 0.39840 0.94623 1.10207
 C811 C 0.41673 0.93580 1.08857
 C812 C 0.41633 0.91221 1.08533
 C813 C 0.39753 0.89911 1.09524
 C814 C 0.43511 0.94937 1.07665
 C815 C 0.45002 0.96059 1.06570
 H816 H 0.34537 0.84503 1.14632
 H817 H 0.37958 0.86785 1.13141
 H818 H 0.33144 0.91991 1.10660
 H819 H 0.29747 0.89712 1.12193
 H820 H 0.36556 0.94161 1.12234
 H821 H 0.39847 0.96448 1.10463
 H822 H 0.43030 0.90397 1.07470
 H823 H 0.39732 0.88096 1.09194
 C824 C 0.71777 1.14801 1.15693
 C825 C 0.70030 1.13756 1.14985
 C826 C 0.67971 1.12475 1.14125
 C827 C 0.68224 1.10223 1.13334
 C828 C 0.66243 1.08978 1.12459
 C829 C 0.63976 1.09971 1.12360
 C830 C 0.63736 1.12235 1.13171
 C831 C 0.65722 1.13476 1.14051
 C832 C 0.61894 1.08666 1.11341
 C833 C 0.60268 1.09699 1.09690
 C834 C 0.58407 1.08429 1.08590
 C835 C 0.58135 1.06115 1.09134
 C836 C 0.59706 1.05085 1.10824
 C837 C 0.61572 1.06351 1.11924
 C838 C 0.56369 1.04771 1.07796
 C839 C 0.54964 1.03663 1.06555
 H840 H 0.69957 1.09432 1.13373
 H841 H 0.66495 1.07254 1.11809
 H842 H 0.62012 1.13040 1.13139
 H843 H 0.65504 1.15217 1.14665
 H844 H 0.60485 1.11468 1.09178
 H845 H 0.57218 1.09240 1.07263
 H846 H 0.59521 1.03294 1.11251
 H847 H 0.62775 1.05515 1.13214
 C848 C 0.73041 0.85301 0.86256
 C849 C 0.71386 0.86353 0.87095
 C850 C 0.69415 0.87639 0.88059
 C851 C 0.68350 0.89280 0.86537
 C852 C 0.66456 0.90555 0.87470
 C853 C 0.65598 0.90207 0.89945
 C854 C 0.66672 0.88544 0.91457
 C855 C 0.68569 0.87271 0.90520
 C856 C 0.63607 0.91589 0.90949
 C857 C 0.61808 0.90592 0.92459
 C858 C 0.59945 0.91901 0.93408
 C859 C 0.59852 0.94222 0.92862
 C860 C 0.61631 0.95228 0.91362
 C861 C 0.63494 0.93924 0.90411
 C862 C 0.57955 0.95582 0.93869
 C863 C 0.56386 0.96735 0.94727
 H864 H 0.68985 0.89576 0.84627
 H865 H 0.65648 0.91798 0.86245
 H866 H 0.66074 0.88254 0.93380
 H867 H 0.69384 0.86011 0.91719
 H868 H 0.61827 0.88795 0.92882
 H869 H 0.58577 0.91103 0.94566
 H870 H 0.61585 0.97025 0.90938
 H871 H 0.64867 0.94750 0.89286
   
