data_POSCAR
  _audit_creation_date              2014-09-24
  _audit_creation_method            'ToBaCCo'
  _symmetry_space_group_name_H-M    'P1'
  _symmetry_Int_Tables_number       1
  _symmetry_cell_setting            triclinic
  loop_
  _symmetry_equiv_pos_as_xyz
 x,y,z
_cell_length_a 31.1993
_cell_length_b 37.9461
_cell_length_c 19.3381
_cell_angle_alpha 90.762300
_cell_angle_beta 91.512500
_cell_angle_gamma 90.935000
loop_
  _atom_site_label
  _atom_site_type_symbol
  _atom_site_fract_x
  _atom_site_fract_y
  _atom_site_fract_z
C1 C 0.69813 0.33750 0.49225
 C2 C 0.69785 0.31765 0.55317
 C3 C 0.71746 0.28444 0.55202
 C4 C 0.73987 0.27240 0.49381
 C5 C 0.73973 0.29345 0.43401
 C6 C 0.71820 0.32556 0.43277
 C7 C 0.76342 0.23814 0.49623
 C8 C 0.77165 0.21888 0.43505
 C9 C 0.79397 0.18678 0.43673
 C10 C 0.80541 0.17311 0.50202
 C11 C 0.79713 0.19140 0.56339
 C12 C 0.77780 0.22434 0.56006
 H13 H 0.68009 0.36158 0.48878
 H14 H 0.71639 0.26839 0.59746
 H15 H 0.75662 0.28555 0.38839
 H16 H 0.75920 0.22809 0.38604
 H17 H 0.82374 0.14925 0.50620
 H18 H 0.77399 0.23880 0.60793
 C19 C 0.17735 0.82501 0.48077
 C20 C 0.18184 0.80894 0.54574
 C21 C 0.20457 0.77702 0.54908
 C22 C 0.22593 0.76310 0.49102
 C23 C 0.22113 0.78089 0.42757
 C24 C 0.19613 0.81095 0.42196
 C25 C 0.25401 0.73102 0.49697
 C26 C 0.26849 0.71310 0.43717
 C27 C 0.29727 0.68518 0.44248
 C28 C 0.30873 0.67300 0.50805
 C29 C 0.29612 0.69013 0.56869
 C30 C 0.26875 0.71908 0.56256
 H31 H 0.15701 0.84763 0.47418
 H32 H 0.20688 0.76387 0.59785
 H33 H 0.23709 0.77244 0.38163
 H34 H 0.25854 0.72077 0.38591
 H35 H 0.32727 0.64918 0.51153
 H36 H 0.26174 0.73341 0.60926
 C37 C 0.28992 0.34123 -0.48808
 C38 C 0.29378 0.32031 -0.54763
 C39 C 0.27521 0.28640 -0.54940
 C40 C 0.25090 0.27360 -0.49391
 C41 C 0.24873 0.29523 -0.43370
 C42 C 0.26912 0.32848 -0.43013
 C43 C 0.22926 0.23769 -0.49907
 C44 C 0.21457 0.22003 -0.43967
 C45 C 0.19362 0.18672 -0.44488
 C46 C 0.19257 0.16956 -0.50990
 C47 C 0.20599 0.18639 -0.56940
 C48 C 0.22239 0.22081 -0.56431
 H49 H 0.30458 0.36729 -0.48561
 H50 H 0.28131 0.26991 -0.59380
 H51 H 0.23138 0.28707 -0.38902
 H52 H 0.21776 0.23269 -0.38980
 H53 H 0.18085 0.14266 -0.51539
 H54 H 0.22982 0.23381 -0.61194
 C55 C -0.19079 0.82600 -0.48619
 C56 C -0.18489 0.80534 -0.54621
 C57 C -0.20212 0.77059 -0.54753
 C58 C -0.22550 0.75709 -0.49150
 C59 C -0.23010 0.77895 -0.43257
 C60 C -0.21190 0.81275 -0.42911
 C61 C -0.24512 0.72054 -0.49410
 C62 C -0.25658 0.70326 -0.43259
 C63 C -0.27945 0.67105 -0.43452
 C64 C -0.28711 0.65423 -0.49862
 C65 C -0.27347 0.66935 -0.56003
 C66 C -0.25416 0.70299 -0.55794
 H67 H -0.17934 0.85302 -0.48285
 H68 H -0.19534 0.75348 -0.59070
 H69 H -0.24818 0.77045 -0.38879
 H70 H -0.24816 0.71459 -0.38250
 H71 H -0.30551 0.62979 -0.50168
 H72 H -0.24676 0.71515 -0.60647
 N73 N -0.05450 0.93223 -0.05521
 N74 N -0.08037 0.90439 -0.06269
 N75 N 0.02362 0.96186 -0.13245
 N76 N 0.04536 0.95621 -0.18884
 N77 N 0.03273 0.93820 -0.08558
 N78 N 0.06054 0.91536 -0.10967
 N79 N -0.06395 0.95589 -0.10190
 N80 N -0.09670 0.94506 -0.14139
 C81 C -0.10719 0.91318 -0.11584
 C82 C 0.06855 0.92739 -0.17397
 N83 N 0.02154 1.06349 -0.09420
 N84 N 0.04524 1.08884 -0.12105
 N85 N -0.07111 1.03107 -0.10829
 N86 N -0.10194 1.03681 -0.15445
 N87 N -0.06604 1.05838 -0.06613
 N88 N -0.09285 1.08356 -0.08408
 N89 N 0.01627 1.03706 -0.13832
 N90 N 0.03588 1.04373 -0.19621
 Mn91 Mn -0.02385 0.99641 -0.12044
 C92 C 0.05427 1.07582 -0.18459
 C93 C -0.11588 1.06929 -0.13816
 N94 N 0.05421 0.94331 0.06212
 N95 N 0.08269 0.91903 0.07810
 N96 N -0.02834 0.96409 0.13523
 N97 N -0.04518 0.95627 0.19494
 N98 N -0.03315 0.93750 0.09137
 N99 N -0.05360 0.91091 0.12045
 N100 N 0.05886 0.97059 0.10447
 N101 N 0.09091 0.96582 0.14878
 Mn102 Mn -0.00012 0.93744 0.00311
 C103 C 0.10613 0.93394 0.13124
 C104 C -0.06142 0.92331 0.18491
 N105 N -0.04550 1.06282 0.08135
 N106 N -0.07626 1.08369 0.10247
 N107 N 0.05145 1.04571 0.09901
 N108 N 0.08299 1.05734 0.14032
 N109 N 0.04189 1.06933 0.05234
 N110 N 0.06630 1.09792 0.06176
 N111 N -0.03633 1.03936 0.12860
 N112 N -0.06079 1.04327 0.18249
 Mn113 Mn -0.01205 1.06384 -0.00659
 Mn114 Mn 0.01144 1.00500 0.11705
 Cl115 Cl -0.00615 1.00066 -0.00171
 C116 C -0.08569 1.07085 0.16559
 C117 C 0.09254 1.08966 0.11589
 N118 N 0.56470 0.53720 0.10158
 N119 N 0.59722 0.54624 0.14330
 N120 N 0.47000 0.56296 0.08720
 N121 N 0.44546 0.58809 0.11151
 N122 N 0.47763 0.53926 0.13472
 N123 N 0.45893 0.54787 0.19275
 N124 N 0.55747 0.56204 0.05630
 N125 N 0.58470 0.58875 0.06692
 C126 C 0.61000 0.57812 0.12037
 C127 C 0.43830 0.57794 0.17712
 N128 N 0.43951 0.53641 -0.10394
 N129 N 0.41259 0.54713 -0.15258
 N130 N 0.53532 0.55983 -0.08933
 N131 N 0.56668 0.58059 -0.11031
 N132 N 0.52732 0.53426 -0.13441
 N133 N 0.55329 0.53663 -0.18690
 N134 N 0.44796 0.56213 -0.05911
 N135 N 0.42714 0.59077 -0.07749
 Mn136 Mn 0.50262 0.56197 -0.00116
 C137 C 0.40405 0.58072 -0.13469
 C138 C 0.57762 0.56565 -0.17128
 N139 N 0.47468 0.46328 0.13701
 N140 N 0.45738 0.45649 0.19683
 N141 N 0.55245 0.43551 0.05951
 N142 N 0.57815 0.40866 0.07037
 N143 N 0.56158 0.46124 0.10392
 N144 N 0.59383 0.45255 0.14545
 N145 N 0.46534 0.43797 0.09175
 N146 N 0.44115 0.41335 0.11996
 Mn147 Mn 0.51975 0.50026 0.11959
 C148 C 0.43603 0.42565 0.18533
 C149 C 0.60447 0.41996 0.12322
 N150 N 0.52358 0.45894 -0.13221
 N151 N 0.54840 0.45438 -0.18539
 N152 N 0.44229 0.43595 -0.05497
 N153 N 0.41378 0.41004 -0.06444
 N154 N 0.43603 0.46061 -0.10108
 N155 N 0.40286 0.45230 -0.14210
 N156 N 0.52963 0.43417 -0.08645
 N157 N 0.55860 0.41168 -0.10788
 Mn158 Mn 0.48152 0.49751 -0.11819
 Mn159 Mn 0.49732 0.43553 0.00244
 Cl160 Cl 0.50015 0.49880 0.00077
 C161 C 0.57005 0.42490 -0.16973
 C162 C 0.38871 0.42101 -0.11804
 C163 C 0.30425 0.32705 0.32423
 C164 C 0.31824 0.33392 0.39298
 C165 C 0.35486 0.35539 0.40515
 C166 C 0.37563 0.37146 0.35036
 C167 C 0.36108 0.36487 0.28146
 C168 C 0.32572 0.34214 0.26893
 C169 C 0.38159 0.38179 0.22676
 C170 C 0.41531 0.40604 0.24090
 C171 C 0.42934 0.41227 0.30964
 C172 C 0.41007 0.39482 0.36380
 H173 H 0.36692 0.36018 0.45756
 H174 H 0.31397 0.33680 0.21655
 H175 H 0.37054 0.37702 0.17379
 H176 H 0.42154 0.40017 0.41634
 H177 H 0.27598 0.31081 0.31323
 H178 H 0.45554 0.43061 0.32160
 C179 C -0.17024 0.80773 0.32815
 C180 C -0.16235 0.81966 0.39704
 C181 C -0.13237 0.84768 0.40780
 C182 C -0.11404 0.86516 0.35239
 C183 C -0.12341 0.85377 0.28384
 C184 C -0.15090 0.82452 0.27242
 C185 C -0.10558 0.87223 0.22835
 C186 C -0.07957 0.90240 0.24137
 C187 C -0.07050 0.91315 0.31005
 C188 C -0.08711 0.89451 0.36497
 H189 H -0.12243 0.85609 0.45953
 H190 H -0.15852 0.81527 0.22022
 H191 H -0.11272 0.86374 0.17550
 H192 H -0.07958 0.90354 0.41736
 H193 H -0.19314 0.78669 0.31618
 H194 H -0.05021 0.93602 0.32153
 C195 C 0.72704 0.61365 0.37057
 C196 C 0.71819 0.64982 0.37404
 C197 C 0.69703 0.66576 0.31781
 C198 C 0.68132 0.64501 0.26162
 C199 C 0.68779 0.60819 0.26137
 C200 C 0.71211 0.59302 0.31464
 C201 C 0.66734 0.58677 0.21065
 C202 C 0.63973 0.60146 0.16085
 C203 C 0.63605 0.63827 0.15795
 C204 C 0.65677 0.65993 0.20802
 H205 H 0.69001 0.69362 0.32017
 H206 H 0.71777 0.56492 0.31478
 H207 H 0.67061 0.55839 0.21278
 H208 H 0.65175 0.68811 0.20691
 H209 H 0.74399 0.60105 0.41289
 H210 H 0.61497 0.65015 0.11980
 C211 C 0.21381 1.13269 0.35683
 C212 C 0.20015 1.16766 0.36320
 C213 C 0.17517 1.18225 0.30953
 C214 C 0.16031 1.16091 0.25356
 C215 C 0.17149 1.12495 0.25088
 C216 C 0.19974 1.11153 0.30104
 C217 C 0.15183 1.10237 0.20123
 C218 C 0.12062 1.11504 0.15472
 C219 C 0.11221 1.15128 0.15386
 C220 C 0.13193 1.17410 0.20302
 H221 H 0.16441 1.20917 0.31426
 H222 H 0.20903 1.08414 0.29923
 H223 H 0.15872 1.07445 0.20173
 H224 H 0.12325 1.20163 0.20379
 H225 H 0.23352 1.12117 0.39728
 H226 H 0.08828 1.16159 0.11830
 C227 C 0.65922 0.30854 -0.33770
 C228 C 0.67780 0.33100 -0.38689
 C229 C 0.67522 0.36775 -0.37562
 C230 C 0.65248 0.38164 -0.32054
 C231 C 0.63260 0.35884 -0.27350
 C232 C 0.63693 0.32234 -0.28179
 C233 C 0.60755 0.37302 -0.22074
 C234 C 0.60140 0.40958 -0.21648
 C235 C 0.62253 0.43193 -0.26225
 C236 C 0.64823 0.41814 -0.31333
 H237 H 0.69127 0.38602 -0.40929
 H238 H 0.62190 0.30439 -0.24630
 H239 H 0.59110 0.35566 -0.18573
 H240 H 0.66352 0.43599 -0.34875
 H241 H 0.65942 0.28020 -0.34391
 H242 H 0.61843 0.46020 -0.25939
 C243 C 0.15099 0.80496 -0.33718
 C244 C 0.16396 0.82491 -0.39455
 C245 C 0.15855 0.86182 -0.39113
 C246 C 0.13914 0.87799 -0.33474
 C247 C 0.12525 0.85753 -0.27892
 C248 C 0.13187 0.82108 -0.28032
 C249 C 0.10402 0.87385 -0.22383
 C250 C 0.09586 0.91021 -0.22534
 C251 C 0.11095 0.93027 -0.28043
 C252 C 0.13268 0.91441 -0.33425
 H253 H 0.17025 0.87857 -0.43165
 H254 H 0.12135 0.80485 -0.23812
 H255 H 0.09227 0.85814 -0.18172
 H256 H 0.14338 0.93053 -0.37652
 H257 H 0.15332 0.77657 -0.33697
 H258 H 0.10527 0.95833 -0.28251
 C259 C 0.28674 0.67882 -0.30678
 C260 C 0.31185 0.67823 -0.36644
 C261 C 0.35290 0.66339 -0.36144
 C262 C 0.36674 0.64624 -0.30185
 C263 C 0.34000 0.64438 -0.24411
 C264 C 0.30058 0.66176 -0.24637
 C265 C 0.35273 0.62416 -0.18669
 C266 C 0.39146 0.60582 -0.18805
 C267 C 0.41844 0.60934 -0.24443
 C268 C 0.40635 0.62955 -0.30071
 H269 H 0.37432 0.66473 -0.40462
 H270 H 0.27978 0.66105 -0.20241
 H271 H 0.33201 0.62148 -0.14289
 H272 H 0.42731 0.63104 -0.34444
 H273 H 0.25510 0.69012 -0.30800
 H274 H 0.44859 0.59556 -0.24557
 C275 C -0.16652 1.19548 -0.31894
 C276 C -0.19021 1.17580 -0.36925
 C277 C -0.19978 1.14016 -0.35701
 C278 C -0.18379 1.12372 -0.29746
 C279 C -0.15831 1.14324 -0.24848
 C280 C -0.15073 1.17933 -0.25894
 C281 C -0.13900 1.12588 -0.19214
 C282 C -0.14393 1.08916 -0.18578
 C283 C -0.17110 1.07048 -0.23286
 C284 C -0.19116 1.08764 -0.28788
 H285 H -0.21857 1.12492 -0.39516
 H286 H -0.13138 1.19478 -0.22197
 H287 H -0.11779 1.14045 -0.15641
 H288 H -0.21084 1.07237 -0.32470
 H289 H -0.15874 1.22298 -0.32735
 H290 H -0.17541 1.04221 -0.22874
 C291 C 0.68377 0.67884 -0.32103
 C292 C 0.70111 0.65629 -0.37113
 C293 C 0.69517 0.61962 -0.36441
 C294 C 0.66916 0.60595 -0.31282
 C295 C 0.65069 0.62897 -0.26431
 C296 C 0.65927 0.66527 -0.26767
 C297 C 0.62242 0.61544 -0.21544
 C298 C 0.61111 0.57943 -0.21658
 C299 C 0.63025 0.55674 -0.26420
 C300 C 0.65951 0.56978 -0.31125
 H301 H 0.70917 0.60169 -0.40123
 H302 H 0.64536 0.68334 -0.23101
 H303 H 0.60755 0.63313 -0.17907
 H304 H 0.67336 0.55175 -0.34808
 H305 H 0.68723 0.70716 -0.32489
 H306 H 0.62218 0.52886 -0.26553
 C307 C 0.18397 1.17908 -0.31820
 C308 C 0.17260 1.17096 -0.38803
 C309 C 0.13823 1.14675 -0.40057
 C310 C 0.11755 1.13002 -0.34662
 C311 C 0.12945 1.13819 -0.27733
 C312 C 0.16254 1.16298 -0.26370
 C313 C 0.10816 1.12114 -0.22339
 C314 C 0.07622 1.09541 -0.23895
 C315 C 0.06506 1.08756 -0.30828
 C316 C 0.08512 1.10498 -0.36156
 H317 H 0.12589 1.14140 -0.45253
 H318 H 0.17238 1.16951 -0.21086
 H319 H 0.11702 1.12717 -0.16992
 H320 H 0.07565 1.09846 -0.41459
 H321 H 0.21041 1.19681 -0.30467
 H322 H 0.04035 1.06804 -0.32144
 C323 C 0.26743 0.38556 -0.36444
 C324 C 0.27366 0.34896 -0.36441
 C325 C 0.29297 0.33349 -0.30595
 C326 C 0.31040 0.35480 -0.25184
 C327 C 0.30718 0.39186 -0.25547
 C328 C 0.28383 0.40683 -0.31022
 C329 C 0.33011 0.41342 -0.20746
 C330 C 0.35687 0.39849 -0.15654
 C331 C 0.35715 0.36167 -0.14980
 C332 C 0.33404 0.33997 -0.19708
 H333 H 0.29820 0.30531 -0.30578
 H334 H 0.28061 0.43516 -0.31337
 H335 H 0.32936 0.44182 -0.21261
 H336 H 0.33659 0.31162 -0.19306
 H337 H 0.25234 0.39792 -0.40878
 H338 H 0.37736 0.34958 -0.11072
 C339 C -0.22072 0.86954 -0.36476
 C340 C -0.21062 0.83362 -0.36389
 C341 C -0.19128 0.81945 -0.30418
 C342 C -0.17741 0.84178 -0.24928
 C343 C -0.18456 0.87839 -0.25336
 C344 C -0.20812 0.89174 -0.30959
 C345 C -0.16487 0.90140 -0.20453
 C346 C -0.13697 0.88845 -0.15299
 C347 C -0.13294 0.85189 -0.14563
 C348 C -0.15321 0.82865 -0.19336
 H349 H -0.18316 0.79178 -0.30348
 H350 H -0.21424 0.91970 -0.31310
 H351 H -0.16851 0.92960 -0.21006
 H352 H -0.14771 0.80064 -0.18906
 H353 H -0.23596 0.88079 -0.41015
 H354 H -0.11180 0.84134 -0.10599
 C355 C 0.29563 0.66330 0.31761
 C356 C 0.31793 0.66919 0.38102
 C357 C 0.36081 0.65843 0.38736
 C358 C 0.38009 0.63983 0.33407
 C359 C 0.35745 0.63354 0.27077
 C360 C 0.31541 0.64594 0.26267
 C361 C 0.37703 0.61424 0.21780
 C362 C 0.41791 0.60001 0.22942
 C363 C 0.43972 0.60624 0.29277
 C364 C 0.42133 0.62650 0.34425
 H365 H 0.37916 0.66379 0.43484
 H366 H 0.29743 0.64131 0.21463
 H367 H 0.36005 0.60917 0.16896
 H368 H 0.43894 0.63101 0.39270
 H369 H 0.26261 0.67119 0.31103
 H370 H 0.47133 0.59558 0.30219
 C371 C -0.18418 1.18861 0.31471
 C372 C -0.19314 1.16946 0.37508
 C373 C -0.18539 1.13287 0.37413
 C374 C -0.16513 1.11677 0.31853
 C375 C -0.15367 1.13683 0.26070
 C376 C -0.16467 1.17246 0.25837
 C377 C -0.12983 1.12125 0.20791
 C378 C -0.11653 1.08615 0.21372
 C379 C -0.12992 1.06611 0.27000
 C380 C -0.15432 1.08115 0.32158
 H381 H -0.19452 1.11660 0.41709
 H382 H -0.15644 1.18828 0.21425
 H383 H -0.11967 1.13690 0.16462
 H384 H -0.16318 1.06530 0.36534
 H385 H -0.18907 1.21672 0.31230
 H386 H -0.12050 1.03890 0.27514
 C387 C 0.72091 0.38295 0.37160
 C388 C 0.71327 0.34635 0.36880
 C389 C 0.69322 0.33115 0.30939
 C390 C 0.67696 0.35274 0.25658
 C391 C 0.68204 0.38978 0.26260
 C392 C 0.70569 0.40448 0.31874
 C393 C 0.66086 0.41161 0.21523
 C394 C 0.63396 0.39702 0.16255
 C395 C 0.63156 0.36020 0.15388
 C396 C 0.65295 0.33822 0.20049
 H397 H 0.68690 0.30297 0.30722
 H398 H 0.71024 0.43277 0.32382
 H399 H 0.66324 0.44000 0.22198
 H400 H 0.64895 0.30991 0.19466
 H401 H 0.73648 0.39508 0.41687
 H402 H 0.61123 0.34833 0.11342
 C403 C 0.16941 0.80733 0.29890
 C404 C 0.18771 0.82736 0.35404
 C405 C 0.19335 0.86386 0.34676
 C406 C 0.17793 0.88065 0.28721
 C407 C 0.15688 0.86067 0.23372
 C408 C 0.15408 0.82386 0.23910
 C409 C 0.13659 0.87805 0.17832
 C410 C 0.13635 0.91508 0.17708
 C411 C 0.16011 0.93440 0.22785
 C412 C 0.18086 0.91735 0.28229
 H413 H 0.20780 0.87935 0.38905
 H414 H 0.13834 0.80805 0.19855
 H415 H 0.11832 0.86291 0.13944
 H416 H 0.19730 0.93301 0.32240
 H417 H 0.16481 0.77912 0.30372
 H418 H 0.16075 0.96295 0.22751
   
