data_POSCAR
  _audit_creation_date              2014-09-24
  _audit_creation_method            'ToBaCCo'
  _symmetry_space_group_name_H-M    'P1'
  _symmetry_Int_Tables_number       1
  _symmetry_cell_setting            triclinic
  loop_
  _symmetry_equiv_pos_as_xyz
 x,y,z
_cell_length_a 18.7681
_cell_length_b 16.3695
_cell_length_c 31.3810
_cell_angle_alpha 91.997900
_cell_angle_beta 91.971100
_cell_angle_gamma 89.080300
loop_
  _atom_site_label
  _atom_site_type_symbol
  _atom_site_fract_x
  _atom_site_fract_y
  _atom_site_fract_z
C1 C 0.04073 0.25942 0.98149
 C2 C 0.04074 0.26337 1.02514
 C3 C 0.01299 0.33985 1.03691
 N4 N -0.00248 0.38312 1.00177
 C5 C 0.01432 0.33387 0.96796
 C6 C -0.00369 0.36656 1.07890
 C7 C -0.02214 0.44981 1.08774
 C8 C -0.06941 0.47800 1.11813
 C9 C -0.06998 0.56195 1.11735
 C10 C -0.02327 0.58311 1.08637
 N11 N 0.00413 0.51423 1.06762
 C12 C -0.00588 0.66424 1.07625
 C13 C 0.01457 0.68247 1.03463
 C14 C 0.04433 0.75524 1.02293
 C15 C 0.05022 0.75030 0.97948
 C16 C 0.02450 0.67457 0.96604
 N17 N 0.00268 0.63320 0.99973
 C18 C 0.01512 0.64777 0.92305
 C19 C -0.00381 0.56691 0.91118
 C20 C -0.02994 0.54053 0.87124
 C21 C -0.03518 0.45701 0.87219
 C22 C -0.00993 0.43442 0.91219
 N23 N 0.00826 0.50184 0.93588
 C24 C 0.00177 0.35330 0.92495
 H25 H 0.05852 0.20778 0.96193
 H26 H 0.05919 0.21493 1.04554
 H27 H 0.03600 0.50265 0.96519
 H28 H -0.10180 0.44196 1.13802
 H29 H -0.10256 0.60260 1.13673
 H30 H 0.06022 0.80684 1.04335
 H31 H 0.07018 0.79758 0.95999
 H32 H -0.05387 0.41760 0.84590
 H33 H 0.04359 0.51145 1.04494
 H34 H -0.04312 0.57672 0.84385
 C35 C 0.70615 -0.08394 0.47150
 C36 C 0.71057 -0.08432 0.51518
 C37 C 0.65109 -0.04177 0.52980
 N38 N 0.60915 -0.01826 0.49636
 C39 C 0.64307 -0.04361 0.46081
 C40 C 0.63678 -0.02210 0.57317
 C41 C 0.56596 -0.00587 0.58606
 C42 C 0.54726 0.03072 0.62481
 C43 C 0.47398 0.03198 0.62537
 C44 C 0.44965 -0.00323 0.58690
 N45 N 0.50595 -0.02647 0.56322
 C46 C 0.37730 -0.01837 0.57583
 C47 C 0.35317 -0.03821 0.53371
 C48 C 0.28544 -0.06520 0.52188
 C49 C 0.28138 -0.06789 0.47815
 C50 C 0.34603 -0.04033 0.46466
 N51 N 0.38996 -0.02290 0.49868
 C52 C 0.36177 -0.02441 0.42197
 C53 C 0.43178 -0.01051 0.40920
 C54 C 0.44924 0.02024 0.37031
 C55 C 0.52248 0.02023 0.36949
 C56 C 0.54754 -0.01046 0.40790
 N57 N 0.49205 -0.02923 0.43184
 C58 C 0.61971 -0.02615 0.41886
 H59 H 0.74431 -0.11138 0.45000
 H60 H 0.75266 -0.11332 0.53393
 H61 H 0.49541 -0.06126 0.45992
 H62 H 0.58250 0.05453 0.65012
 H63 H 0.44231 0.05568 0.65133
 H64 H 0.24281 -0.08046 0.54236
 H65 H 0.23541 -0.08653 0.45866
 H66 H 0.55363 0.03988 0.34343
 H67 H 0.50374 -0.06169 0.53495
 H68 H 0.41307 0.04022 0.34503
 C69 C 0.13123 0.02800 0.29283
 H70 H 0.13784 0.03197 0.25891
 C71 C 0.19130 0.02632 0.32047
 H72 H 0.24393 0.03002 0.30765
 C73 C 0.05501 0.01807 0.35102
 H74 H 0.00232 0.01195 0.36301
 C75 C 0.11325 0.01830 0.37974
 H76 H 0.10460 0.01402 0.41354
 N77 N 0.06461 0.02448 0.30847
 C78 C -0.05789 -0.06894 0.19808
 H79 H -0.09222 -0.01697 0.19126
 C80 C -0.05660 -0.13651 0.16965
 H81 H -0.09108 -0.13638 0.14128
 C82 C 0.02758 -0.13241 0.24396
 H83 H 0.06021 -0.13046 0.27303
 C84 C 0.03004 -0.20156 0.21659
 H85 H 0.06499 -0.25241 0.22467
 Zn86 Zn -0.01632 0.02746 0.27035
 N87 N -0.01549 -0.06764 0.23410
 C88 C 0.03229 0.11539 0.20250
 N89 N -0.01195 0.12080 0.23596
 C90 C -0.05222 0.18947 0.24351
 C91 C -0.04817 0.25633 0.21719
 C92 C 0.03672 0.17999 0.17488
 C93 C -0.14710 -0.03249 0.29804
 C94 C -0.20429 -0.03676 0.32519
 C95 C -0.16523 0.08884 0.36061
 C96 C -0.10908 0.09087 0.33274
 N97 N -0.10032 0.03011 0.30258
 H98 H 0.06327 0.06009 0.19676
 H99 H -0.08805 0.19279 0.26961
 H100 H -0.08058 0.31049 0.22346
 H101 H 0.07197 0.17438 0.14829
 H102 H -0.13864 -0.08097 0.27442
 H103 H -0.23876 -0.08907 0.32202
 H104 H -0.16999 0.13640 0.38528
 H105 H -0.07011 0.13874 0.33670
 C106 C -0.01124 -0.20348 0.17849
 C107 C 0.18220 0.02193 0.36454
 C108 C -0.21332 0.02418 0.35734
 C109 C -0.00431 0.25131 0.18201
 C110 C -0.03436 0.09628 0.79231
 H111 H -0.07602 0.05184 0.79318
 C112 C -0.03291 0.16097 0.82232
 H113 H -0.07614 0.16731 0.84414
 C114 C 0.07341 0.13929 0.76377
 H115 H 0.11605 0.12954 0.74192
 C116 C 0.07711 0.20493 0.79345
 H117 H 0.12192 0.24583 0.79348
 N118 N 0.01796 0.08662 0.76357
 C119 C 0.14043 -0.09390 0.70218
 H120 H 0.12390 -0.14090 0.72291
 C121 C 0.20206 -0.10604 0.67881
 H122 H 0.23266 -0.16234 0.68183
 C123 C 0.11940 0.03475 0.67144
 H124 H 0.08584 0.08861 0.66790
 C125 C 0.18085 0.02546 0.64781
 H126 H 0.19326 0.07233 0.62588
 Zn127 Zn 0.01448 -0.01002 0.72828
 N128 N 0.10046 -0.02430 0.69814
 C129 C -0.05394 -0.01670 0.64624
 N130 N -0.06542 -0.00654 0.68870
 C131 C -0.13272 0.00517 0.70292
 C132 C -0.19128 0.00774 0.67419
 C133 C -0.11082 -0.01394 0.61643
 C134 C 0.05271 -0.09728 0.79963
 C135 C 0.04544 -0.15255 0.83194
 C136 C -0.05953 -0.20525 0.79433
 C137 C -0.05008 -0.14898 0.76258
 N138 N 0.00508 -0.09605 0.76604
 H139 H -0.00072 -0.02770 0.63521
 H140 H -0.14157 0.01173 0.73661
 H141 H -0.24378 0.01871 0.68653
 H142 H -0.10043 -0.02207 0.58279
 H143 H 0.09524 -0.05332 0.80191
 H144 H 0.08264 -0.14994 0.85902
 H145 H -0.10421 -0.24640 0.79155
 H146 H -0.08758 -0.14654 0.73573
 C147 C 0.22323 -0.04575 0.65145
 C148 C 0.02422 0.21553 0.82370
 C149 C -0.01151 -0.20743 0.82955
 C150 C -0.18060 -0.00226 0.63021
 C151 C -0.01335 -0.26959 0.10629
 C152 C -0.00615 -0.27575 0.14883
 H153 H -0.01995 -0.20869 0.09427
 H154 H 0.01040 -0.33337 0.16226
 C155 C -0.00673 0.30630 0.11024
 C156 C -0.00264 0.31997 0.15270
 H157 H -0.01042 0.24296 0.09946
 H158 H 0.00243 0.38093 0.16672
 C159 C 0.32304 -0.00171 0.60834
 C160 C 0.28564 -0.06156 0.62451
 H161 H 0.31326 0.06148 0.61799
 H162 H 0.29993 -0.12455 0.61650
 C163 C -0.30753 -0.01939 0.60501
 C164 C -0.23970 0.00000 0.59763
 H165 H -0.32121 -0.03081 0.63742
 H166 H -0.22559 0.01778 0.56615
 C167 C 0.02863 -0.29381 0.88938
 C168 C -0.02376 -0.26517 0.86373
 H169 H 0.08290 -0.27390 0.88670
 H170 H -0.07745 -0.28703 0.86703
 C171 C -0.00335 0.28438 0.89300
 C172 C 0.02991 0.28375 0.85586
 H173 H -0.03187 0.23111 0.90202
 H174 H 0.06416 0.33419 0.84930
 C175 C -0.32752 -0.02461 0.38477
 C176 C -0.26825 0.01962 0.38986
 H177 H -0.34061 -0.05536 0.35450
 H178 H -0.26014 0.05562 0.41926
 C179 C 0.30321 -0.02041 0.38892
 C180 C 0.24286 0.02200 0.39559
 H181 H 0.31104 -0.05147 0.35835
 H182 H 0.23544 0.05323 0.42618
   
