data_POSCAR
  _audit_creation_date              2014-09-24
  _audit_creation_method            'ToBaCCo'
  _symmetry_space_group_name_H-M    'P1'
  _symmetry_Int_Tables_number       1
  _symmetry_cell_setting            triclinic
  loop_
  _symmetry_equiv_pos_as_xyz
 x,y,z
_cell_length_a 29.1147
_cell_length_b 29.1123
_cell_length_c 29.1126
_cell_angle_alpha 89.916600
_cell_angle_beta 89.912500
_cell_angle_gamma 90.021900
loop_
  _atom_site_label
  _atom_site_type_symbol
  _atom_site_fract_x
  _atom_site_fract_y
  _atom_site_fract_z
C1 C 0.17239 0.17142 0.23185
 C2 C 0.21188 0.15251 0.21077
 C3 C 0.22937 0.16926 0.16860
 C4 C 0.20637 0.20657 0.14794
 C5 C 0.16878 0.22801 0.16919
 C6 C 0.15188 0.20993 0.21061
 H7 H 0.23127 0.12697 0.22927
 H8 H 0.21641 0.21846 0.11424
 H9 H 0.12196 0.22583 0.22549
 C10 C -0.17221 0.82739 0.23351
 C11 C -0.21231 0.84630 0.21366
 C12 C -0.22976 0.83036 0.17162
 C13 C -0.20718 0.79409 0.14937
 C14 C -0.16929 0.77218 0.16947
 C15 C -0.15186 0.78935 0.21112
 H16 H -0.23174 0.87211 0.23186
 H17 H -0.21905 0.78294 0.11600
 H18 H -0.12173 0.77319 0.22522
 C19 C -0.17207 0.17261 -0.23352
 C20 C -0.15180 0.21103 -0.21194
 C21 C -0.16906 0.22868 -0.17050
 C22 C -0.20678 0.20696 -0.14971
 C23 C -0.22961 0.16987 -0.17083
 C24 C -0.21181 0.15357 -0.21296
 H25 H -0.12179 0.22711 -0.22651
 H26 H -0.21705 0.21841 -0.11596
 H27 H -0.23112 0.12826 -0.23180
 C28 C 0.16982 0.83161 -0.22724
 C29 C 0.21166 0.84853 -0.21002
 C30 C 0.23376 0.82777 -0.17200
 C31 C 0.21333 0.78787 -0.15313
 C32 C 0.17106 0.77099 -0.16913
 C33 C 0.14916 0.79392 -0.20537
 H34 H 0.22615 0.87856 -0.22613
 H35 H 0.23124 0.76816 -0.12733
 H36 H 0.11565 0.78246 -0.21657
 C37 C 0.16818 1.16859 0.77230
 C38 C 0.20955 1.15080 0.78983
 C39 C 0.23200 1.17190 0.82702
 C40 C 0.21308 1.21222 0.84569
 C41 C 0.17106 1.22983 0.82985
 C42 C 0.14852 1.20709 0.79378
 H43 H 0.22444 1.12057 0.77435
 H44 H 0.23168 1.23052 0.87210
 H45 H 0.11525 1.21920 0.78257
 C46 C 0.83074 0.82985 0.77012
 C47 C 0.84724 0.78763 0.78758
 C48 C 0.82828 0.76675 0.82720
 C49 C 0.78990 0.78815 0.84777
 C50 C 0.77211 0.82965 0.83086
 C51 C 0.79367 0.85075 0.79323
 H52 H 0.87260 0.76898 0.76811
 H53 H 0.77393 0.77337 0.87776
 H54 H 0.78208 0.88454 0.78321
 C55 C 0.17165 0.82814 1.23305
 C56 C 0.21135 0.84707 1.21232
 C57 C 0.22811 0.83099 1.17000
 C58 C 0.20522 0.79459 1.14834
 C59 C 0.16765 0.77273 1.16926
 C60 C 0.15088 0.79006 1.21114
 H61 H 0.23106 0.87297 1.23006
 H62 H 0.21662 0.78326 1.11484
 H63 H 0.12096 0.77394 1.22584
 C64 C 0.83031 1.16959 1.22970
 C65 C 0.79314 1.14849 1.20696
 C66 C 0.77147 1.16930 1.16928
 C67 C 0.78916 1.21076 1.15205
 C68 C 0.82756 1.23237 1.17226
 C69 C 0.84666 1.21175 1.21189
 H70 H 0.78157 1.11475 1.21725
 H71 H 0.77308 1.22535 1.12209
 H72 H 0.87204 1.23059 1.23111
 N73 N 0.54912 1.08113 0.94978
 N74 N 0.58430 1.10923 0.94429
 N75 N 0.45314 1.04926 0.91729
 N76 N 0.41879 1.05528 0.88833
 N77 N 0.45247 1.08091 0.94939
 N78 N 0.41737 1.10893 0.94354
 N79 N 0.54975 1.04873 0.91847
 N80 N 0.58556 1.05370 0.89104
 C81 C 0.60673 1.09168 0.90750
 C82 C 0.39678 1.09262 0.90523
 N83 N 0.45262 0.91851 0.95072
 N84 N 0.41783 0.89005 0.94492
 N85 N 0.54933 0.94993 0.91921
 N86 N 0.58467 0.94433 0.89139
 N87 N 0.54960 0.91879 0.95188
 N88 N 0.58556 0.89149 0.94752
 N89 N 0.45305 0.94994 0.91830
 N90 N 0.41888 0.94340 0.88930
 Mn91 Mn 0.50128 0.99947 0.91775
 C92 C 0.39715 0.90593 0.90640
 C93 C 0.60697 0.90778 0.90950
 N94 N 0.45159 1.08202 1.04826
 N95 N 0.41609 1.10985 1.05307
 N96 N 0.54757 1.05051 1.08127
 N97 N 0.58279 1.05568 1.10927
 N98 N 0.54855 1.08165 1.04861
 N99 N 0.58482 1.10849 1.05314
 N100 N 0.45097 1.05003 1.08006
 N101 N 0.41495 1.05498 1.10715
 Mn102 Mn 0.50043 1.08202 0.99901
 C103 C 0.39355 1.09253 1.09001
 C104 C 0.60569 1.09200 1.09130
 N105 N 0.54800 0.91918 1.05072
 N106 N 0.58296 0.89104 1.05687
 N107 N 0.45098 0.95149 1.08089
 N108 N 0.41494 0.94677 1.10805
 N109 N 0.45167 0.91902 1.04966
 N110 N 0.41646 0.89095 1.05507
 N111 N 0.54804 0.95169 1.08192
 N112 N 0.58344 0.94689 1.10983
 Mn113 Mn 0.50047 0.91830 1.00071
 Mn114 Mn 0.49938 1.00092 1.08161
 Cl115 Cl 0.50036 1.00018 0.99976
 C116 C 0.60478 0.90876 1.09385
 C117 C 0.39385 0.90873 1.09163
 N118 N -0.04852 0.45091 -0.08068
 N119 N -0.05294 0.41487 -0.10779
 N120 N -0.08142 0.54771 -0.05027
 N121 N -0.11031 0.58194 -0.05712
 N122 N -0.04887 0.54791 -0.08153
 N123 N -0.05446 0.58260 -0.11023
 N124 N -0.08120 0.45141 -0.04952
 N125 N -0.10910 0.41611 -0.05499
 C126 C -0.09100 0.39362 -0.09144
 C127 C -0.09301 0.60345 -0.09461
 N128 N -0.05037 0.54897 0.08056
 N129 N -0.05495 0.58525 0.10731
 N130 N -0.08242 0.45203 0.04964
 N131 N -0.11114 0.41747 0.05595
 N132 N -0.05048 0.45203 0.08141
 N133 N -0.05628 0.41722 0.10992
 N134 N -0.08242 0.54849 0.04887
 N135 N -0.11008 0.58410 0.05361
 Mn136 Mn -0.08243 0.49991 -0.00033
 C137 C -0.09247 0.60670 0.09022
 C138 C -0.09433 0.39603 0.09367
 N139 N 0.05013 0.54797 -0.08084
 N140 N 0.05583 0.58306 -0.10902
 N141 N 0.08153 0.45141 -0.04781
 N142 N 0.10942 0.41600 -0.05278
 N143 N 0.05031 0.45166 -0.08029
 N144 N 0.05642 0.41683 -0.10858
 N145 N 0.08136 0.54844 -0.04836
 N146 N 0.10880 0.58423 -0.05320
 Mn147 Mn 0.00072 0.49962 -0.08141
 C148 C 0.09256 0.60538 -0.09130
 C149 C 0.09338 0.39486 -0.09095
 N150 N 0.04821 0.45181 0.08213
 N151 N 0.05254 0.41566 0.10926
 N152 N 0.08075 0.54856 0.05037
 N153 N 0.10844 0.58406 0.05550
 N154 N 0.04815 0.54907 0.08154
 N155 N 0.05239 0.58535 0.10838
 N156 N 0.08083 0.45225 0.05095
 N157 N 0.10861 0.41689 0.05637
 Mn158 Mn -0.00112 0.50046 0.08201
 Mn159 Mn 0.08168 0.50016 0.00126
 Cl160 Cl -0.00030 0.50003 0.00039
 C161 C 0.09056 0.39439 0.09288
 C162 C 0.09031 0.60670 0.09183
 N163 N 0.95131 0.08077 0.45038
 N164 N 0.94632 0.10815 0.41456
 N165 N 0.91865 0.04964 0.54763
 N166 N 0.89024 0.05548 0.58249
 N167 N 0.95006 0.08201 0.54702
 N168 N 0.94362 0.11101 0.58125
 N169 N 0.91913 0.04916 0.45093
 N170 N 0.89118 0.05438 0.41565
 C171 C 0.90857 0.09133 0.39325
 C172 C 0.90618 0.09398 0.60310
 N173 N 0.95071 -0.08100 0.54899
 N174 N 0.94568 -0.10827 0.58487
 N175 N 0.91933 -0.04976 0.45174
 N176 N 0.89107 -0.05573 0.41688
 N177 N 0.95087 -0.08198 0.45236
 N178 N 0.94464 -0.11102 0.41812
 N179 N 0.91859 -0.04937 0.54842
 N180 N 0.89058 -0.05451 0.58377
 Mn181 Mn 0.91835 -0.00008 0.49970
 C182 C 0.90793 -0.09144 0.60618
 C183 C 0.90722 -0.09412 0.39624
 N184 N 1.04914 0.08205 0.54792
 N185 N 1.05375 0.10975 0.58347
 N186 N 1.08174 0.04905 0.45176
 N187 N 1.11044 0.05456 0.41702
 N188 N 1.05021 0.08126 0.45151
 N189 N 1.05686 0.10986 0.41693
 N190 N 1.08058 0.04974 0.54877
 N191 N 1.10703 0.05418 0.58527
 Mn192 Mn 1.00016 0.08208 0.49918
 C193 C 1.09003 0.09190 0.60643
 C194 C 1.09452 0.09273 0.39566
 N195 N 1.05011 -0.08192 0.45292
 N196 N 1.05653 -0.11076 0.41858
 N197 N 1.08073 -0.04878 0.54969
 N198 N 1.10767 -0.05312 0.58587
 N199 N 1.04943 -0.08122 0.54930
 N200 N 1.05454 -0.10889 0.58486
 N201 N 1.08170 -0.04973 0.45271
 N202 N 1.11021 -0.05549 0.41790
 Mn203 Mn 1.00026 -0.08209 0.50084
 Mn204 Mn 1.08177 0.00007 0.50072
 Cl205 Cl 1.00013 -0.00000 0.50007
 C206 C 1.09415 -0.09380 0.39700
 C207 C 1.09100 -0.09089 0.60737
 C208 C 1.16287 0.10607 0.28585
 C209 C 1.15406 0.15230 0.27327
 C210 C 1.12562 0.17831 0.30298
 C211 C 1.10625 0.15882 0.34237
 C212 C 1.11537 0.11312 0.35415
 C213 C 1.14417 0.08704 0.32584
 H214 H 1.18255 0.08332 0.26411
 H215 H 1.11905 0.21438 0.29734
 H216 H 1.08466 0.17990 0.36413
 H217 H 1.15128 0.05142 0.33395
 C218 C 0.83772 -0.10775 0.28760
 C219 C 0.84697 -0.15369 0.27451
 C220 C 0.87667 -0.17945 0.30320
 C221 C 0.89646 -0.16002 0.34237
 C222 C 0.88664 -0.11464 0.35476
 C223 C 0.85690 -0.08882 0.32723
 H224 H 0.81725 -0.08506 0.26655
 H225 H 0.88389 -0.21528 0.29698
 H226 H 0.91888 -0.18089 0.36349
 H227 H 0.84923 -0.05342 0.33573
 C228 C 0.83790 0.10739 0.71277
 C229 C 0.84671 0.15358 0.72530
 C230 C 0.87553 0.17955 0.69582
 C231 C 0.89498 0.16010 0.65647
 C232 C 0.88563 0.11447 0.64464
 C233 C 0.85669 0.08842 0.67290
 H234 H 0.81809 0.08460 0.73443
 H235 H 0.88228 0.21555 0.70159
 H236 H 0.91677 0.18113 0.63479
 H237 H 0.84944 0.05283 0.66481
 C238 C 1.15223 -0.10041 0.72144
 C239 C 1.14821 -0.14769 0.73108
 C240 C 1.12431 -0.17564 0.69966
 C241 C 1.10494 -0.15691 0.66000
 C242 C 1.11012 -0.11010 0.65008
 C243 C 1.13394 -0.08197 0.68103
 H244 H 1.16927 -0.07745 0.74513
 H245 H 1.12131 -0.21230 0.70509
 H246 H 1.08695 -0.17932 0.63642
 H247 H 1.13786 -0.04558 0.67427
 C248 C 0.29698 1.17519 1.11689
 C249 C 0.26948 1.14977 1.14808
 C250 C 0.28373 1.10444 1.15854
 C251 C 0.32388 1.08606 1.13970
 C252 C 0.35076 1.11186 1.10919
 C253 C 0.33670 1.15635 1.09757
 H254 H 0.28957 1.21059 1.10854
 H255 H 0.26345 1.08203 1.18017
 H256 H 0.33357 1.05125 1.14863
 H257 H 0.35710 1.17714 1.07436
 C258 C 0.30412 0.87572 0.82107
 C259 C 0.27506 0.84634 0.84689
 C260 C 0.28808 0.83686 0.89282
 C261 C 0.32791 0.85569 0.91175
 C262 C 0.35570 0.88526 0.88590
 C263 C 0.34346 0.89514 0.84048
 H264 H 0.29800 0.88299 0.78522
 H265 H 0.26680 0.81654 0.91551
 H266 H 0.33633 0.84796 0.94716
 H267 H 0.36479 0.91741 0.81957
 C268 C 0.69686 0.82345 1.12633
 C269 C 0.72777 0.85083 1.15147
 C270 C 0.71744 0.89773 1.15743
 C271 C 0.67713 0.91648 1.13928
 C272 C 0.64688 0.88904 1.11382
 C273 C 0.65723 0.84250 1.10723
 H274 H 0.70280 0.78704 1.12187
 H275 H 0.74071 0.92021 1.17569
 H276 H 0.67004 0.95264 1.14440
 H277 H 0.63418 0.82057 1.08799
 C278 C 0.70249 1.17518 0.88038
 C279 C 0.73021 1.15007 0.84926
 C280 C 0.71618 1.10476 0.83853
 C281 C 0.67613 1.08598 0.85728
 C282 C 0.64916 1.11142 0.88791
 C283 C 0.66290 1.15597 0.89959
 H284 H 0.70969 1.21058 0.88883
 H285 H 0.73662 1.08262 0.81684
 H286 H 0.66663 1.05116 0.84827
 H287 H 0.64240 1.17651 0.92286
 C288 C 0.10056 0.27939 0.15270
 C289 C 0.14790 0.27009 0.14845
 C290 C 0.17572 0.30221 0.12521
 C291 C 0.15682 0.34218 0.10663
 C292 C 0.10994 0.35169 0.11193
 C293 C 0.08193 0.32009 0.13519
 H294 H 0.07768 0.25516 0.16924
 H295 H 0.21240 0.29702 0.12207
 H296 H 0.17914 0.36623 0.08901
 H297 H 0.04549 0.32650 0.13914
 C298 C -0.10092 0.27962 -0.15273
 C299 C -0.14831 0.27041 -0.14909
 C300 C -0.17624 0.30218 -0.12559
 C301 C -0.15738 0.34173 -0.10616
 C302 C -0.11042 0.35117 -0.11087
 C303 C -0.08232 0.31990 -0.13437
 H304 H -0.07797 0.25564 -0.16944
 H305 H -0.21297 0.29705 -0.12288
 H306 H -0.17977 0.36556 -0.08842
 H307 H -0.04583 0.32629 -0.13794
 C308 C 0.12499 0.69802 -0.17630
 C309 C 0.15034 0.72867 -0.14880
 C310 C 0.15609 0.71817 -0.10191
 C311 C 0.13769 0.67786 -0.08332
 C312 C 0.11219 0.64776 -0.11089
 C313 C 0.10564 0.65835 -0.15739
 H314 H 0.12064 0.70415 -0.21271
 H315 H 0.17447 0.74126 -0.07936
 H316 H 0.14278 0.67058 -0.04718
 H317 H 0.08636 0.63542 -0.17940
 C318 C -0.17696 0.69916 0.12375
 C319 C -0.14883 0.73058 0.14748
 C320 C -0.10154 0.72100 0.15101
 C321 C -0.08327 0.68060 0.13259
 C322 C -0.11158 0.64957 0.10907
 C323 C -0.15840 0.65948 0.10421
 H324 H -0.21363 0.70456 0.12107
 H325 H -0.07841 0.74470 0.16782
 H326 H -0.04687 0.67386 0.13625
 H327 H -0.18093 0.63583 0.08646
 C328 C 1.12264 0.17624 0.69918
 C329 C 1.14629 0.14812 0.73071
 C330 C 1.15009 0.10085 0.72111
 C331 C 1.13197 0.08262 0.68059
 C332 C 1.10856 0.11093 0.64944
 C333 C 1.10345 0.15771 0.65936
 H334 H 1.11982 0.21291 0.70453
 H335 H 1.16692 0.07775 0.74486
 H336 H 1.13583 0.04624 0.67383
 H337 H 1.08576 0.18026 0.63563
 C338 C 0.82498 -0.11859 0.70250
 C339 C 0.85030 -0.14978 0.72996
 C340 C 0.89559 -0.16033 0.71569
 C341 C 0.91410 -0.14146 0.67558
 C342 C 0.88843 -0.11085 0.64880
 C343 C 0.84394 -0.09924 0.66282
 H344 H 0.78959 -0.11024 0.70993
 H345 H 0.91789 -0.18202 0.73594
 H346 H 0.94889 -0.15039 0.66587
 H347 H 0.82324 -0.07597 0.64246
 C348 C 1.12423 -0.17895 0.30377
 C349 C 1.15328 -0.15302 0.27449
 C350 C 1.16266 -0.10706 0.28745
 C351 C 1.14401 -0.08821 0.32745
 C352 C 1.11472 -0.11417 0.35543
 C353 C 1.10497 -0.15962 0.34325
 H354 H 1.11710 -0.21483 0.29772
 H355 H 1.18275 -0.08431 0.26603
 H356 H 1.15161 -0.05277 0.33583
 H357 H 1.08293 -0.18061 0.36474
 C358 C 0.89544 0.16030 0.28381
 C359 C 0.85014 0.14946 0.26982
 C360 C 0.82509 0.11819 0.29754
 C361 C 0.84432 0.09900 0.33710
 C362 C 0.88883 0.11082 0.35081
 C363 C 0.91422 0.14158 0.32383
 H364 H 0.91756 0.18208 0.26338
 H365 H 0.78971 0.10962 0.29039
 H366 H 0.82381 0.07562 0.35760
 H367 H 0.94901 0.15071 0.33330
 C368 C 0.12564 0.30319 -0.17670
 C369 C 0.15104 0.27225 -0.14954
 C370 C 0.15728 0.28244 -0.10266
 C371 C 0.13911 0.32264 -0.08370
 C372 C 0.11337 0.35291 -0.11091
 C373 C 0.10654 0.34272 -0.15745
 H374 H 0.12096 0.29733 -0.21309
 H375 H 0.17572 0.25913 -0.08033
 H376 H 0.14443 0.32961 -0.04756
 H377 H 0.08709 0.36580 -0.17920
 C378 C -0.10732 0.28634 0.16209
 C379 C -0.15351 0.27365 0.15348
 C380 C -0.17961 0.30307 0.12480
 C381 C -0.16027 0.34244 0.10520
 C382 C -0.11464 0.35440 0.11430
 C383 C -0.08846 0.32626 0.14316
 H384 H -0.08447 0.26476 0.18182
 H385 H -0.21564 0.29724 0.11827
 H386 H -0.18140 0.36406 0.08353
 H387 H -0.05287 0.33448 0.15023
 C388 C -0.17870 0.69577 -0.12583
 C389 C -0.15266 0.72543 -0.15439
 C390 C -0.10644 0.71295 -0.16322
 C391 C -0.08741 0.67308 -0.14443
 C392 C -0.11349 0.64479 -0.11553
 C393 C -0.15922 0.65646 -0.10640
 H394 H -0.21476 0.70141 -0.11922
 H395 H -0.08368 0.73470 -0.18296
 H396 H -0.05178 0.66506 -0.15156
 H397 H -0.18029 0.63471 -0.08471
 C398 C 0.09974 0.72120 0.15233
 C399 C 0.14698 0.73090 0.14798
 C400 C 0.17491 0.69936 0.12417
 C401 C 0.15622 0.65950 0.10523
 C402 C 0.10945 0.64952 0.11073
 C403 C 0.08134 0.68060 0.13445
 H404 H 0.07678 0.74497 0.16931
 H405 H 0.21154 0.70485 0.12093
 H406 H 0.17863 0.63585 0.08729
 H407 H 0.04498 0.67381 0.13859
 C408 C 0.28414 1.15569 0.89405
 C409 C 0.27487 1.15183 0.84672
 C410 C 0.30654 1.12802 0.81890
 C411 C 0.34587 1.10815 0.83801
 C412 C 0.35504 1.11276 0.88503
 C413 C 0.32407 1.13695 0.91282
 H414 H 0.26022 1.17260 0.91694
 H415 H 0.30141 1.12509 0.78222
 H416 H 0.36958 1.08994 0.81586
 H417 H 0.33025 1.14054 0.94932
 C418 C 0.28073 0.89826 1.15473
 C419 C 0.27032 0.85135 1.14906
 C420 C 0.30103 0.82384 1.12372
 C421 C 0.34074 0.84273 1.10443
 C422 C 0.35131 0.88923 1.11100
 C423 C 0.32108 0.91684 1.13638
 H424 H 0.25758 0.92084 1.17307
 H425 H 0.29495 0.78743 1.11941
 H426 H 0.36375 0.82069 1.08523
 H427 H 0.32832 0.95297 1.14148
 C428 C 0.69770 1.12465 1.17644
 C429 C 0.72967 1.14801 1.14853
 C430 C 0.72050 1.15188 1.10116
 C431 C 0.67997 1.13406 1.08260
 C432 C 0.64841 1.11083 1.11069
 C433 C 0.65788 1.10573 1.15760
 H434 H 0.70285 1.12173 1.21314
 H435 H 0.74465 1.16843 1.07821
 H436 H 0.67361 1.13784 1.04614
 H437 H 0.63386 1.08813 1.17998
 C438 C 0.72114 0.84678 0.89922
 C439 C 0.73031 0.85073 0.85182
 C440 C 0.69839 0.87416 0.82404
 C441 C 0.65875 0.89328 0.84304
 C442 C 0.64937 0.88832 0.89000
 C443 C 0.68074 0.86483 0.91796
 H444 H 0.74523 0.83008 0.92204
 H445 H 0.70349 0.87707 0.78731
 H446 H 0.63484 0.91104 0.82076
 H447 H 0.67439 0.86110 0.95445
   
