data_POSCAR
  _audit_creation_date              2014-09-24
  _audit_creation_method            'ToBaCCo'
  _symmetry_space_group_name_H-M    'P1'
  _symmetry_Int_Tables_number       1
  _symmetry_cell_setting            triclinic
  loop_
  _symmetry_equiv_pos_as_xyz
 x,y,z
_cell_length_a 32.1246
_cell_length_b 34.1626
_cell_length_c 14.3463
_cell_angle_alpha 90.023000
_cell_angle_beta 90.166200
_cell_angle_gamma 114.384900
loop_
  _atom_site_label
  _atom_site_type_symbol
  _atom_site_fract_x
  _atom_site_fract_y
  _atom_site_fract_z
C1 C 0.47635 0.95598 0.54187
 C2 C 0.49437 0.96040 0.45035
 C3 C 0.52032 1.00163 0.41482
 C4 C 0.52618 1.03900 0.46490
 C5 C 0.50776 1.03477 0.55639
 C6 C 0.48142 0.99331 0.59121
 H7 H 0.46938 0.98991 0.66249
 H8 H 0.53202 1.00458 0.34326
 C9 C 0.03673 0.52490 0.54877
 C10 C 0.03755 0.54253 0.45939
 C11 C -0.00296 0.52896 0.40699
 C12 C -0.04456 0.49788 0.44086
 C13 C -0.04569 0.48218 0.53259
 C14 C -0.00507 0.49514 0.58443
 H15 H -0.00656 0.48385 0.65551
 H16 H -0.00082 0.54031 0.33589
 C17 C 0.47241 0.51224 0.55217
 C18 C 0.48421 0.52715 0.45966
 C19 C 0.51496 0.51579 0.40969
 C20 C 0.53418 0.48936 0.44848
 C21 C 0.52367 0.47499 0.54186
 C22 C 0.49129 0.48509 0.59049
 H23 H 0.48448 0.47534 0.66270
 H24 H 0.52121 0.52497 0.33696
 O25 O 0.40073 0.67421 -0.10024
 O26 O 0.38601 0.74326 -0.11691
 C27 C 0.36163 0.76431 -0.11952
 O28 O 0.32832 0.75688 -0.06462
 O29 O 0.25841 0.68297 -0.09045
 C30 C 0.24166 0.64319 -0.11034
 O31 O 0.25343 0.61621 -0.06893
 O32 O 0.33336 0.61762 -0.10993
 C33 C 0.37391 0.63895 -0.13716
 O34 O 0.40801 0.68596 0.08564
 O35 O 0.39639 0.75718 0.06934
 C36 C 0.36787 0.76193 0.12483
 O37 O 0.32500 0.74025 0.11830
 O38 O 0.25099 0.66935 0.09458
 C39 C 0.25077 0.63689 0.13775
 O40 O 0.27614 0.61850 0.11487
 O41 O 0.35433 0.61876 0.07239
 C42 C 0.39101 0.64653 0.10783
 Cr43 Cr 0.39526 0.71389 -0.01494
 Cr44 Cr 0.29215 0.71113 0.01386
 Cr45 Cr 0.30523 0.62020 0.00193
 O46 O 0.33099 0.68156 0.00011
 O47 O 0.59107 0.31851 -0.06667
 O48 O 0.60205 0.24683 -0.09032
 C49 C 0.62894 0.23026 -0.11681
 O50 O 0.66864 0.23980 -0.08245
 O51 O 0.73974 0.31160 -0.10712
 C52 C 0.75382 0.35024 -0.13273
 O53 O 0.73971 0.37642 -0.09724
 O54 O 0.65657 0.37039 -0.11349
 C55 C 0.61359 0.35033 -0.11846
 O56 O 0.60362 0.31321 0.11722
 O57 O 0.60879 0.23977 0.09378
 C58 C 0.64037 0.23127 0.12804
 O59 O 0.68158 0.25030 0.10380
 O60 O 0.75118 0.32332 0.07962
 C61 C 0.75637 0.35950 0.11403
 O62 O 0.73388 0.38063 0.08804
 O63 O 0.65182 0.37888 0.07280
 C64 C 0.62074 0.35372 0.12607
 Cr65 Cr 0.60420 0.28096 0.01279
 Cr66 Cr 0.70859 0.28257 -0.00150
 Cr67 Cr 0.69437 0.37391 -0.01194
 O68 O 0.66928 0.31235 -0.00024
 C69 C 0.40593 0.87335 -0.29403
 C70 C 0.42186 0.84125 -0.30737
 N71 N 0.45415 0.84676 -0.37280
 C72 C 0.47144 0.88300 -0.42552
 C73 C 0.45628 0.91597 -0.41149
 N74 N 0.42391 0.90995 -0.34500
 N75 N 0.37368 0.86796 -0.22848
 C76 C 0.35712 0.83213 -0.17442
 C77 C 0.37430 0.80058 -0.18501
 N78 N 0.40619 0.80593 -0.25196
 H79 H 0.49870 0.88686 -0.47363
 H80 H 0.33203 0.82913 -0.12153
 C81 C 0.13796 0.59825 -0.31668
 C82 C 0.14843 0.56923 -0.26264
 N83 N 0.12375 0.52635 -0.27429
 C84 C 0.08865 0.51117 -0.33662
 C85 C 0.07760 0.54016 -0.38993
 N86 N 0.10290 0.58313 -0.37879
 N87 N 0.16199 0.64111 -0.30392
 C88 C 0.19581 0.65638 -0.23896
 C89 C 0.20617 0.62747 -0.18368
 N90 N 0.18225 0.58443 -0.19763
 H91 H 0.06919 0.47683 -0.34382
 H92 H 0.21421 0.69077 -0.23030
 C93 C 0.43005 0.58590 -0.34075
 C94 C 0.40227 0.56042 -0.26945
 N95 N 0.39652 0.51898 -0.26071
 C96 C 0.41799 0.50194 -0.31894
 C97 C 0.44624 0.52730 -0.39083
 N98 N 0.45081 0.56867 -0.40015
 N99 N 0.43794 0.62809 -0.34608
 C100 C 0.41960 0.64605 -0.28258
 C101 C 0.39153 0.62047 -0.21146
 N102 N 0.38329 0.57810 -0.20722
 H103 H 0.41226 0.46866 -0.30994
 H104 H 0.42697 0.67990 -0.28722
 C105 C 0.58110 0.13339 -0.32237
 C106 C 0.55177 0.13633 -0.25327
 N107 N 0.50803 0.10632 -0.24945
 C108 C 0.49232 0.07307 -0.31102
 C109 C 0.52147 0.06999 -0.38139
 N110 N 0.56521 0.10076 -0.38503
 N111 N 0.62549 0.16221 -0.32350
 C112 C 0.64193 0.19385 -0.25817
 C113 C 0.61244 0.19720 -0.18961
 N114 N 0.56789 0.16841 -0.18927
 H115 H 0.45710 0.04997 -0.30626
 H116 H 0.67751 0.21632 -0.26010
 C117 C 0.86415 0.40152 -0.32101
 C118 C 0.83410 0.42147 -0.30821
 N119 N 0.84229 0.45904 -0.35232
 C120 C 0.87956 0.47795 -0.40759
 C121 C 0.91067 0.45894 -0.41778
 N122 N 0.90213 0.42100 -0.37414
 N123 N 0.85563 0.36371 -0.27757
 C124 C 0.81890 0.34531 -0.22054
 C125 C 0.78988 0.36619 -0.20415
 N126 N 0.79818 0.40377 -0.24917
 H127 H 0.88583 0.50836 -0.44056
 H128 H 0.81354 0.31559 -0.18540
 C129 C 0.54387 0.40364 -0.29134
 C130 C 0.59028 0.41353 -0.30556
 N131 N 0.61359 0.44253 -0.37180
 C132 C 0.59265 0.46215 -0.42469
 C133 C 0.54602 0.45295 -0.41000
 N134 N 0.52318 0.42398 -0.34244
 N135 N 0.52042 0.37451 -0.22533
 C136 C 0.54152 0.35524 -0.17180
 C137 C 0.58854 0.36628 -0.18336
 N138 N 0.61171 0.39517 -0.25058
 H139 H 0.61309 0.48647 -0.47372
 H140 H 0.52212 0.33273 -0.11852
 C141 C 0.85651 0.41748 0.32145
 C142 C 0.84856 0.44205 0.25111
 N143 N 0.87469 0.48490 0.24696
 C144 C 0.90913 0.50436 0.30904
 C145 C 0.91750 0.47999 0.38027
 N146 N 0.89021 0.43703 0.38487
 N147 N 0.83186 0.37420 0.32253
 C148 C 0.79963 0.35438 0.25608
 C149 C 0.79115 0.37910 0.18646
 N150 N 0.81573 0.42246 0.18624
 H151 H 0.92910 0.53866 0.30361
 H152 H 0.78043 0.31986 0.25825
 C153 C 0.59724 0.12321 0.30459
 C154 C 0.57762 0.15295 0.31163
 N155 N 0.54292 0.14553 0.37232
 C156 C 0.52670 0.10961 0.42611
 C157 C 0.54520 0.07874 0.41731
 N158 N 0.57997 0.08654 0.35562
 N159 N 0.63273 0.13111 0.24556
 C160 C 0.64901 0.16713 0.19202
 C161 C 0.62793 0.19591 0.19546
 N162 N 0.59267 0.18809 0.25558
 H163 H 0.49792 0.10418 0.47123
 H164 H 0.67674 0.17222 0.14410
 C165 C 0.56479 0.40921 0.32556
 C166 C 0.59763 0.43496 0.26165
 N167 N 0.61002 0.47807 0.26093
 C168 C 0.59078 0.49661 0.32095
 C169 C 0.55758 0.47086 0.38466
 N170 N 0.54552 0.42766 0.38521
 N171 N 0.55196 0.36606 0.32557
 C172 C 0.57015 0.34733 0.26377
 C173 C 0.60263 0.37294 0.19859
 N174 N 0.61572 0.41630 0.19975
 H175 H 0.60124 0.53105 0.31903
 H176 H 0.55890 0.31279 0.26484
 C177 C 0.15057 0.57888 0.34469
 C178 C 0.15257 0.61531 0.29613
 N179 N 0.11944 0.62965 0.30948
 C180 C 0.08367 0.60851 0.36720
 C181 C 0.08051 0.57098 0.41297
 N182 N 0.11453 0.55742 0.40144
 N183 N 0.18302 0.56388 0.32935
 C184 C 0.21686 0.58304 0.26617
 C185 C 0.21803 0.61860 0.21474
 N186 N 0.18602 0.63416 0.23224
 H187 H 0.05696 0.61984 0.37449
 H188 H 0.24178 0.56984 0.25443
 C189 C 0.41758 0.86188 0.32425
 C190 C 0.44729 0.85592 0.26004
 N191 N 0.49211 0.88369 0.25964
 C192 C 0.50854 0.91732 0.32037
 C193 C 0.47874 0.92353 0.38450
 N194 N 0.43388 0.89545 0.38440
 N195 N 0.37274 0.83443 0.32454
 C196 C 0.35601 0.80137 0.26274
 C197 C 0.38546 0.79553 0.19714
 N198 N 0.43060 0.82301 0.19791
 H199 H 0.54443 0.93887 0.31889
 H200 H 0.31998 0.78025 0.26417
 C201 C 0.46075 0.60146 0.30063
 C202 C 0.41326 0.57982 0.28825
 N203 N 0.38965 0.54327 0.33676
 C204 C 0.41147 0.52698 0.39622
 C205 C 0.45920 0.54779 0.40658
 N206 N 0.48273 0.58465 0.35825
 N207 N 0.48425 0.63826 0.25276
 C208 C 0.46249 0.65421 0.19224
 C209 C 0.41517 0.63180 0.17724
 N210 N 0.39171 0.59514 0.22619
 H211 H 0.39203 0.49721 0.43242
 H212 H 0.48215 0.68341 0.15435
   
