data_POSCAR
  _audit_creation_date              2014-09-24
  _audit_creation_method            'ToBaCCo'
  _symmetry_space_group_name_H-M    'P1'
  _symmetry_Int_Tables_number       1
  _symmetry_cell_setting            triclinic
  loop_
  _symmetry_equiv_pos_as_xyz
 x,y,z
_cell_length_a 33.9899
_cell_length_b 39.6866
_cell_length_c 36.1476
_cell_angle_alpha 91.224000
_cell_angle_beta 92.227700
_cell_angle_gamma 85.252900
loop_
  _atom_site_label
  _atom_site_type_symbol
  _atom_site_fract_x
  _atom_site_fract_y
  _atom_site_fract_z
C1 C 1.23158 0.21940 0.22137
 C2 C 1.25203 0.24330 0.19704
 C3 C 1.27202 0.26682 0.21589
 C4 C 1.27006 0.26440 0.25803
 C5 C 1.26406 0.20451 0.24809
 C6 C 1.28420 0.22773 0.26720
 C7 C 1.20504 0.24357 0.24592
 C8 C 1.22544 0.26738 0.26481
 H9 H 1.24667 0.24429 0.16729
 H10 H 1.28686 0.28334 0.27359
 H11 H 1.26861 0.17767 0.25346
 H12 H 1.17316 0.24441 0.24545
 C13 C 0.72074 -0.26970 0.19340
 C14 C 0.73905 -0.24316 0.17101
 C15 C 0.76497 -0.22486 0.19076
 C16 C 0.77054 -0.23482 0.23153
 C17 C 0.75614 -0.29131 0.21084
 C18 C 0.78203 -0.27329 0.23148
 C19 C 0.70291 -0.24989 0.22670
 C20 C 0.72868 -0.23141 0.24632
 H21 H 0.72960 -0.23734 0.14272
 H22 H 0.79092 -0.21898 0.24731
 H23 H 0.75834 -0.31858 0.20992
 H24 H 0.67294 -0.25169 0.23514
 C25 C 0.72372 0.24162 -0.30590
 C26 C 0.74968 0.26331 -0.32399
 C27 C 0.77308 0.28220 -0.29873
 C28 C 0.76780 0.27397 -0.26000
 C29 C 0.75121 0.21952 -0.28339
 C30 C 0.77469 0.23717 -0.25697
 C31 C 0.70160 0.26372 -0.27954
 C32 C 0.72569 0.28193 -0.25366
 H33 H 0.75158 0.26534 -0.35356
 H34 H 0.78940 0.28624 -0.24214
 H35 H 0.75199 0.19220 -0.28472
 H36 H 0.66969 0.26534 -0.27961
 C37 C 1.24404 -0.26844 -0.29037
 C38 C 1.26222 -0.23935 -0.30892
 C39 C 1.27891 -0.21743 -0.28489
 C40 C 1.27550 -0.22612 -0.24388
 C41 C 1.27710 -0.28456 -0.26512
 C42 C 1.29375 -0.26288 -0.24056
 C43 C 1.21443 -0.25033 -0.26391
 C44 C 1.23089 -0.22856 -0.23948
 H45 H 1.25900 -0.23459 -0.33832
 H46 H 1.28865 -0.20775 -0.22444
 H47 H 1.28362 -0.31172 -0.26441
 H48 H 1.18337 -0.25448 -0.26396
 C49 C 0.22506 0.20252 0.76801
 C50 C 0.24414 0.21935 0.79894
 C51 C 0.26617 0.24704 0.78952
 C52 C 0.26568 0.25203 0.74946
 C53 C 0.20001 0.23096 0.74721
 C54 C 0.22145 0.25703 0.73766
 C55 C 0.25816 0.19214 0.74147
 C56 C 0.27974 0.21766 0.73216
 H57 H 0.24335 0.20988 0.82671
 H58 H 0.28271 0.27260 0.74001
 H59 H 0.16864 0.23080 0.74100
 H60 H 0.26216 0.16724 0.72859
 C61 C 0.70460 0.71595 0.80001
 C62 C 0.72578 0.73433 0.82856
 C63 C 0.75621 0.75341 0.81528
 C64 C 0.75914 0.75019 0.77495
 C65 C 0.69000 0.74123 0.77292
 C66 C 0.71978 0.76041 0.75904
 C67 C 0.73507 0.69505 0.78055
 C68 C 0.76582 0.71373 0.76657
 H69 H 0.71661 0.73564 0.85694
 H70 H 0.78135 0.76540 0.76436
 H71 H 0.66218 0.74007 0.75754
 H72 H 0.73402 0.66803 0.77681
 C73 C 0.72348 0.23232 0.30731
 C74 C 0.75190 0.25847 0.32085
 C75 C 0.77179 0.27191 0.29368
 C76 C 0.76104 0.25839 0.25481
 C77 C 0.69614 0.25173 0.27857
 C78 C 0.71579 0.26519 0.25088
 C79 C 0.74864 0.20632 0.28431
 C80 C 0.76803 0.21980 0.25678
 H81 H 0.75191 0.26977 0.34828
 H82 H 0.77761 0.26923 0.23270
 H83 H 0.66422 0.25339 0.27931
 H84 H 0.74639 0.17932 0.28604
 C85 C 0.21952 0.73388 0.28773
 C86 C 0.25015 0.75190 0.31134
 C87 C 0.27573 0.76785 0.29125
 C88 C 0.26819 0.76483 0.24926
 C89 C 0.19932 0.76141 0.26248
 C90 C 0.22463 0.77783 0.24231
 C91 C 0.24373 0.71056 0.26087
 C92 C 0.26910 0.72686 0.24096
 H93 H 0.25220 0.75097 0.34128
 H94 H 0.28955 0.77781 0.23341
 H95 H 0.16753 0.76514 0.25854
 H96 H 0.23718 0.68506 0.25335
 N97 N 1.05815 0.03513 0.02847
 N98 N 1.08814 0.05355 0.03543
 N99 N 1.03356 -0.03235 0.05917
 N100 N 1.04557 -0.05342 0.08608
 N101 N 1.05847 -0.03525 0.03219
 N102 N 1.08745 -0.05831 0.03963
 N103 N 1.03331 0.03842 0.05557
 N104 N 1.04602 0.05941 0.08158
 C105 C 1.08004 0.06905 0.06822
 C106 C 1.07909 -0.06979 0.07300
 N107 N 0.91897 -0.02462 0.03411
 N108 N 0.88982 -0.04229 0.04309
 N109 N 0.94751 0.04470 0.05669
 N110 N 0.93735 0.06673 0.08340
 N111 N 0.92002 0.04568 0.03002
 N112 N 0.89078 0.06821 0.03794
 N113 N 0.94714 -0.02617 0.06012
 N114 N 0.93753 -0.04520 0.08762
 Mn115 Mn 0.99042 0.00607 0.05836
 C116 C 0.90182 -0.05549 0.07610
 C117 C 0.90211 0.08165 0.07092
 N118 N 1.05459 -0.04095 -0.04651
 N119 N 1.08174 -0.06615 -0.05137
 N120 N 1.02628 0.02959 -0.07771
 N121 N 1.03569 0.04695 -0.10650
 N122 N 1.05425 0.02974 -0.05157
 N123 N 1.08338 0.04682 -0.06210
 N124 N 1.02692 -0.04106 -0.07283
 N125 N 1.03507 -0.06605 -0.09692
 Mn126 Mn 1.05645 -0.00272 -0.00934
 C127 C 1.06914 -0.08176 -0.08268
 C128 C 1.07103 0.05823 -0.09590
 N129 N 0.91667 0.04040 -0.04980
 N130 N 0.89228 0.06748 -0.05599
 N131 N 0.94116 -0.03504 -0.07121
 N132 N 0.93549 -0.06327 -0.09015
 N133 N 0.91571 -0.03036 -0.04479
 N134 N 0.89264 -0.05539 -0.04452
 N135 N 0.94141 0.03533 -0.07672
 N136 N 0.93426 0.05850 -0.10228
 Mn137 Mn 0.91762 0.00795 -0.00775
 Mn138 Mn 0.98382 -0.00293 -0.07504
 Cl139 Cl 0.98710 0.00216 -0.00835
 C140 C 0.90362 0.07835 -0.08886
 C141 C 0.90496 -0.07552 -0.07306
 N142 N 0.95750 0.56865 0.54587
 N143 N 0.93554 0.59546 0.55751
 N144 N 1.04276 0.54194 0.57107
 N145 N 1.07328 0.54563 0.59428
 N146 N 1.04033 0.56535 0.54592
 N147 N 1.06933 0.58518 0.55053
 N148 N 0.95960 0.54485 0.57073
 N149 N 0.93853 0.55482 0.59955
 C150 C 0.92289 0.58613 0.59046
 C151 C 1.08955 0.57271 0.58073
 N152 N 1.04547 0.44504 0.54180
 N153 N 1.07030 0.41892 0.55147
 N154 N 0.96315 0.47253 0.56675
 N155 N 0.93835 0.46695 0.59247
 N156 N 0.96267 0.44910 0.54053
 N157 N 0.93757 0.42663 0.54820
 N158 N 1.04590 0.46905 0.56744
 N159 N 1.07138 0.46017 0.59458
 Mn160 Mn 1.00295 0.50701 0.56922
 C161 C 1.08683 0.42913 0.58417
 C162 C 0.92224 0.43853 0.58056
 N163 N 1.03787 0.56757 0.46791
 N164 N 1.05621 0.59419 0.46007
 N165 N 0.95583 0.54810 0.43861
 N166 N 0.93570 0.56045 0.40919
 N167 N 0.95542 0.57089 0.46563
 N168 N 0.93560 0.59920 0.45475
 N169 N 1.03864 0.54577 0.44003
 N170 N 1.05733 0.55774 0.41220
 Mn171 Mn 0.99758 0.56801 0.50643
 C172 C 1.06888 0.58768 0.42572
 C173 C 0.92245 0.59205 0.41997
 N174 N 0.96077 0.45075 0.45978
 N175 N 0.93789 0.42702 0.44817
 N176 N 1.04240 0.47204 0.43730
 N177 N 1.06693 0.46440 0.41047
 N178 N 1.04329 0.44704 0.46077
 N179 N 1.06808 0.42156 0.44993
 N180 N 0.95956 0.47505 0.43547
 N181 N 0.93568 0.46853 0.40706
 Mn182 Mn 1.00301 0.44760 0.50070
 Mn183 Mn 0.99921 0.51010 0.43771
 Cl184 Cl 1.00060 0.50811 0.50341
 C185 C 0.92189 0.43877 0.41553
 C186 C 1.08311 0.43310 0.41885
 N187 N 0.57927 0.02499 0.54781
 N188 N 0.59887 0.05219 0.55101
 N189 N 0.55408 -0.04548 0.56854
 N190 N 0.56401 -0.06821 0.59426
 N191 N 0.58178 -0.04575 0.54416
 N192 N 0.61096 -0.06852 0.55247
 N193 N 0.55166 0.02572 0.57229
 N194 N 0.55211 0.05351 0.59316
 C195 C 0.58207 0.06945 0.57962
 C196 C 0.59942 -0.08269 0.58343
 N197 N 0.44138 -0.03814 0.53550
 N198 N 0.41053 -0.05461 0.54287
 N199 N 0.46667 0.03000 0.56673
 N200 N 0.46100 0.05586 0.59004
 N201 N 0.44094 0.03275 0.53869
 N202 N 0.41741 0.06076 0.54191
 N203 N 0.46794 -0.04095 0.56302
 N204 N 0.45565 -0.05968 0.58946
 Mn205 Mn 0.51011 -0.00783 0.56808
 C206 C 0.42011 -0.06859 0.57613
 C207 C 0.43022 0.07485 0.57413
 N208 N 0.58476 -0.04382 0.46521
 N209 N 0.61327 -0.06758 0.45902
 N210 N 0.55665 0.02928 0.44117
 N211 N 0.56168 0.05598 0.42109
 N212 N 0.58243 0.02701 0.46913
 N213 N 0.60549 0.05205 0.46909
 N214 N 0.55895 -0.04184 0.43725
 N215 N 0.56934 -0.06434 0.41115
 Mn216 Mn 0.58230 -0.00946 0.50663
 C217 C 0.60315 -0.08047 0.42540
 C218 C 0.59235 0.06990 0.43904
 N219 N 0.44395 0.03463 0.45962
 N220 N 0.41983 0.06223 0.45564
 N221 N 0.47387 -0.03737 0.43185
 N222 N 0.47088 -0.06206 0.40728
 N223 N 0.44523 -0.03667 0.45531
 N224 N 0.42173 -0.06093 0.44703
 N225 N 0.47168 0.03347 0.43526
 N226 N 0.46682 0.05999 0.41360
 Mn227 Mn 0.44244 -0.00189 0.49718
 Mn228 Mn 0.51522 -0.00414 0.43592
 Cl229 Cl 0.51244 -0.00604 0.50200
 C230 C 0.43444 0.07775 0.42681
 C231 C 0.43828 -0.07659 0.41698
 N232 N 0.55273 0.52367 0.03988
 N233 N 0.57695 0.54795 0.04402
 N234 N 0.52682 0.45561 0.06868
 N235 N 0.53471 0.43180 0.09369
 N236 N 0.55352 0.45312 0.04327
 N237 N 0.57975 0.42753 0.04980
 N238 N 0.52566 0.52671 0.06495
 N239 N 0.53005 0.55368 0.08622
 C240 C 0.56230 0.56648 0.07300
 C241 C 0.56780 0.41432 0.08118
 N242 N 0.41308 0.46313 0.03965
 N243 N 0.38381 0.44523 0.04772
 N244 N 0.44107 0.53224 0.06300
 N245 N 0.43435 0.55811 0.08609
 N246 N 0.41450 0.53341 0.03564
 N247 N 0.38903 0.56005 0.03928
 N248 N 0.44053 0.46156 0.06635
 N249 N 0.43033 0.44238 0.09340
 Mn250 Mn 0.48359 0.49385 0.06627
 C251 C 0.39501 0.43203 0.08097
 C252 C 0.40195 0.57537 0.07070
 N253 N 0.55271 0.44780 -0.03542
 N254 N 0.58316 0.42632 -0.04223
 N255 N 0.52430 0.51740 -0.06696
 N256 N 0.52751 0.54144 -0.09093
 N257 N 0.55181 0.51828 -0.04049
 N258 N 0.57510 0.54259 -0.04626
 N259 N 0.52562 0.44686 -0.06231
 N260 N 0.53766 0.42486 -0.08841
 Mn261 Mn 0.55301 0.48587 0.00184
 C262 C 0.57337 0.41175 -0.07496
 C263 C 0.55939 0.55675 -0.07787
 N264 N 0.41408 0.52845 -0.04372
 N265 N 0.39366 0.55801 -0.04791
 N266 N 0.43943 0.45262 -0.06453
 N267 N 0.43246 0.42610 -0.08595
 N268 N 0.41258 0.45750 -0.03941
 N269 N 0.38713 0.43426 -0.04251
 N270 N 0.44001 0.52328 -0.06960
 N271 N 0.43765 0.54899 -0.09237
 Mn272 Mn 0.41322 0.49575 -0.00206
 Mn273 Mn 0.48230 0.48476 -0.06627
 Cl274 Cl 0.48304 0.48992 -0.00000
 C275 C 0.40849 0.57035 -0.07862
 C276 C 0.39970 0.41486 -0.07160
 C277 C 1.16104 0.16119 0.16966
 C278 C 1.18817 0.14272 0.14856
 C279 C 1.22822 0.14685 0.15080
 C280 C 1.24109 0.17139 0.17555
 C281 C 1.21415 0.19178 0.19747
 C282 C 1.17326 0.18625 0.19467
 O283 O 1.12420 0.15300 0.16242
 C284 C 1.12850 0.12904 0.13609
 C285 C 1.16716 0.12218 0.12669
 C286 C 1.17888 0.09919 0.09905
 C287 C 1.14953 0.08233 0.08010
 C288 C 1.10928 0.08826 0.08923
 C289 C 1.09853 0.11189 0.11790
 H290 H 1.24887 0.13191 0.13379
 H291 H 1.27234 0.17510 0.17718
 H292 H 1.15160 0.20103 0.21064
 H293 H 1.20956 0.09458 0.09207
 H294 H 1.15840 0.06430 0.05848
 H295 H 1.06802 0.11711 0.12523
 C296 C 1.18444 0.66073 0.66956
 C297 C 1.20226 0.65431 0.63641
 C298 C 1.23333 0.67182 0.62526
 C299 C 1.24652 0.69710 0.64922
 C300 C 1.22782 0.70526 0.68321
 C301 C 1.19698 0.68583 0.69378
 O302 O 1.15439 0.64207 0.67427
 C303 C 1.15309 0.62361 0.64324
 C304 C 1.18185 0.63014 0.61919
 C305 C 1.18405 0.61577 0.58386
 C306 C 1.15459 0.59472 0.57239
 C307 C 1.12433 0.58807 0.59642
 C308 C 1.12408 0.60197 0.63270
 H309 H 1.24705 0.66615 0.59908
 H310 H 1.27161 0.71001 0.64129
 H311 H 1.18311 0.68982 0.72010
 H312 H 1.20644 0.62187 0.56518
 H313 H 1.15431 0.58471 0.54427
 H314 H 1.10025 0.59837 0.65088
 C315 C 0.65490 0.17729 0.65999
 C316 C 0.64662 0.18751 0.62432
 C317 C 0.66079 0.21618 0.61017
 C318 C 0.68540 0.23467 0.63343
 C319 C 0.69707 0.22351 0.66991
 C320 C 0.67927 0.19519 0.68359
 O321 O 0.63993 0.14848 0.66757
 C322 C 0.62210 0.14016 0.63578
 C323 C 0.62534 0.16327 0.60840
 C324 C 0.61213 0.15812 0.57201
 C325 C 0.59587 0.12750 0.56333
 C326 C 0.59271 0.10319 0.59098
 C327 C 0.60504 0.10989 0.62791
 H328 H 0.65324 0.22403 0.58211
 H329 H 0.69464 0.25774 0.62253
 H330 H 0.68496 0.18665 0.71168
 H331 H 0.61585 0.17629 0.55077
 H332 H 0.58679 0.12219 0.53488
 H333 H 0.60417 0.09110 0.64909
 C334 C 0.66785 0.66270 0.13745
 C335 C 0.63049 0.67869 0.13395
 C336 C 0.62137 0.71163 0.14635
 C337 C 0.65172 0.72847 0.16404
 C338 C 0.69007 0.71187 0.17060
 C339 C 0.69840 0.67877 0.15560
 O340 O 0.67020 0.63132 0.12366
 C341 C 0.63339 0.62735 0.11164
 C342 C 0.60787 0.65551 0.11763
 C343 C 0.56745 0.65615 0.10958
 C344 C 0.55272 0.62647 0.09490
 C345 C 0.57856 0.59740 0.08774
 C346 C 0.61953 0.59793 0.09586
 H347 H 0.59188 0.72392 0.14268
 H348 H 0.64499 0.75429 0.17350
 H349 H 0.72744 0.66556 0.15805
 H350 H 0.54785 0.67842 0.11522
 H351 H 0.52128 0.62610 0.08890
 H352 H 0.63966 0.57575 0.09132
 C353 C 0.82934 -0.15830 0.15888
 C354 C 0.80050 -0.13445 0.14638
 C355 C 0.76036 -0.13830 0.14822
 C356 C 0.74932 -0.16812 0.16338
 C357 C 0.77823 -0.19329 0.17643
 C358 C 0.81890 -0.18813 0.17474
 O359 O 0.86569 -0.15038 0.15207
 C360 C 0.85952 -0.12095 0.13485
 C361 C 0.82004 -0.11024 0.13091
 C362 C 0.80623 -0.08140 0.11187
 C363 C 0.83410 -0.06308 0.09547
 C364 C 0.87502 -0.07357 0.09838
 C365 C 0.88812 -0.10262 0.11906
 H366 H 0.73832 -0.11931 0.13768
 H367 H 0.71818 -0.17180 0.16478
 H368 H 0.84145 -0.20723 0.18416
 H369 H 0.77497 -0.07382 0.10879
 H370 H 0.82366 -0.04099 0.07970
 H371 H 0.91906 -0.11163 0.12092
 C372 C 0.82828 0.33859 0.64444
 C373 C 0.83107 0.36532 0.66883
 C374 C 0.81644 0.36591 0.70405
 C375 C 0.79785 0.33777 0.71474
 C376 C 0.79372 0.30957 0.69020
 C377 C 0.80917 0.31039 0.65421
 O378 O 0.84577 0.34288 0.61277
 C379 C 0.85963 0.37312 0.61742
 C380 C 0.85099 0.38788 0.65121
 C381 C 0.86268 0.41924 0.66243
 C382 C 0.88489 0.43601 0.63806
 C383 C 0.89540 0.42114 0.60334
 C384 C 0.88210 0.38933 0.59263
 H385 H 0.81907 0.38740 0.72268
 H386 H 0.78502 0.33921 0.74160
 H387 H 0.80771 0.28942 0.63474
 H388 H 0.85539 0.43023 0.68921
 H389 H 0.89467 0.46032 0.64676
 H390 H 0.88982 0.37729 0.56645
 C391 C 0.34416 -0.15581 0.67625
 C392 C 0.31576 -0.13314 0.66068
 C393 C 0.27557 -0.13472 0.66556
 C394 C 0.26403 -0.16137 0.68639
 C395 C 0.29252 -0.18577 0.70165
 C396 C 0.33324 -0.18259 0.69724
 O397 O 0.38050 -0.15086 0.66626
 C398 C 0.37481 -0.12472 0.64368
 C399 C 0.33564 -0.11320 0.63917
 C400 C 0.32243 -0.08799 0.61450
 C401 C 0.35071 -0.07389 0.59371
 C402 C 0.39142 -0.08471 0.59825
 C403 C 0.40371 -0.11035 0.62388
 H404 H 0.25380 -0.11685 0.65258
 H405 H 0.23282 -0.16411 0.68907
 H406 H 0.35538 -0.20164 0.70755
 H407 H 0.29135 -0.07988 0.61087
 H408 H 0.34090 -0.05427 0.57429
 H409 H 0.43452 -0.11945 0.62741
 C410 C 0.32903 0.33460 0.17614
 C411 C 0.29880 0.35243 0.15675
 C412 C 0.25979 0.34452 0.15684
 C413 C 0.25152 0.31668 0.17735
 C414 C 0.28204 0.29745 0.19725
 C415 C 0.32131 0.30685 0.19729
 O416 O 0.36429 0.34541 0.17026
 C417 C 0.35596 0.37045 0.14654
 C418 C 0.31625 0.37558 0.13754
 C419 C 0.30079 0.39880 0.11162
 C420 C 0.32734 0.41744 0.09385
 C421 C 0.36854 0.41283 0.10229
 C422 C 0.38311 0.38929 0.12948
 H423 H 0.23668 0.35879 0.14098
 H424 H 0.22137 0.30971 0.17742
 H425 H 0.34509 0.29220 0.21189
 H426 H 0.26944 0.40193 0.10472
 H427 H 0.31570 0.43539 0.07322
 H428 H 0.41445 0.38486 0.13597
 C429 C 0.83054 0.17091 -0.19952
 C430 C 0.83288 0.18800 -0.16616
 C431 C 0.81845 0.22138 -0.16146
 C432 C 0.80044 0.23786 -0.19228
 C433 C 0.79615 0.22080 -0.22716
 C434 C 0.81184 0.18657 -0.23049
 O435 O 0.84638 0.13922 -0.19790
 C436 C 0.85850 0.13630 -0.16264
 C437 C 0.85046 0.16536 -0.14197
 C438 C 0.85849 0.16745 -0.10400
 C439 C 0.87564 0.13829 -0.08659
 C440 C 0.88519 0.10837 -0.10750
 C441 C 0.87674 0.10736 -0.14608
 H442 H 0.82048 0.23422 -0.13481
 H443 H 0.78783 0.26325 -0.18767
 H444 H 0.81016 0.17250 -0.25639
 H445 H 0.85126 0.19050 -0.08829
 H446 H 0.88199 0.13909 -0.05700
 H447 H 0.88324 0.08452 -0.16242
 C448 C 0.83560 0.66585 0.29992
 C449 C 0.86452 0.68525 0.31393
 C450 C 0.87013 0.71690 0.30027
 C451 C 0.84427 0.72944 0.27160
 C452 C 0.81272 0.71076 0.25777
 C453 C 0.80904 0.67809 0.27201
 O454 O 0.83530 0.63639 0.31665
 C455 C 0.86452 0.63732 0.34202
 C456 C 0.88303 0.66688 0.34180
 C457 C 0.91315 0.67392 0.36723
 C458 C 0.92489 0.64936 0.39370
 C459 C 0.90708 0.61828 0.39376
 C460 C 0.87654 0.61211 0.36745
 H461 H 0.89350 0.73153 0.31141
 H462 H 0.84882 0.75388 0.26064
 H463 H 0.78525 0.66299 0.26317
 H464 H 0.92696 0.69752 0.36682
 H465 H 0.94859 0.65415 0.41353
 H466 H 0.86243 0.58862 0.36706
 C467 C 0.36196 0.17594 0.32242
 C468 C 0.35528 0.18880 0.35748
 C469 C 0.32892 0.21688 0.36412
 C470 C 0.30776 0.23158 0.33350
 C471 C 0.31275 0.21754 0.29746
 C472 C 0.34108 0.18996 0.29181
 O473 O 0.38579 0.14775 0.32208
 C474 C 0.39404 0.14234 0.35770
 C475 C 0.37589 0.16653 0.38062
 C476 C 0.37687 0.16356 0.41896
 C477 C 0.39703 0.13439 0.43413
 C478 C 0.41617 0.10937 0.41095
 C479 C 0.41525 0.11376 0.37227
 H480 H 0.32364 0.22626 0.39197
 H481 H 0.28565 0.25234 0.33813
 H482 H 0.34484 0.17837 0.26464
 H483 H 0.36143 0.18234 0.43644
 H484 H 0.39733 0.13105 0.46380
 H485 H 0.42851 0.09449 0.35392
 C486 C 0.36102 0.67684 -0.18347
 C487 C 0.35484 0.69015 -0.14855
 C488 C 0.33438 0.72152 -0.14255
 C489 C 0.31787 0.73896 -0.17368
 C490 C 0.32071 0.72419 -0.20970
 C491 C 0.34473 0.69361 -0.21459
 O492 O 0.37884 0.64584 -0.18342
 C493 C 0.38355 0.63911 -0.14769
 C494 C 0.36910 0.66524 -0.12507
 C495 C 0.36695 0.66194 -0.08693
 C496 C 0.38015 0.63051 -0.07165
 C497 C 0.39560 0.60349 -0.09452
 C498 C 0.39783 0.60811 -0.13298
 H499 H 0.32988 0.73160 -0.11484
 H500 H 0.30079 0.76278 -0.16924
 H501 H 0.34822 0.68175 -0.24164
 H502 H 0.35441 0.68244 -0.06973
 H503 H 0.37822 0.62717 -0.04213
 H504 H 0.40853 0.58762 -0.15117
 C505 C 1.15903 -0.16999 -0.18647
 C506 C 1.16635 -0.18212 -0.15128
 C507 C 1.19378 -0.20920 -0.14335
 C508 C 1.21464 -0.22438 -0.17288
 C509 C 1.20846 -0.21188 -0.20919
 C510 C 1.17988 -0.18456 -0.21626
 O511 O 1.13202 -0.14376 -0.18779
 C512 C 1.12225 -0.13918 -0.15265
 C513 C 1.14259 -0.16196 -0.12926
 C514 C 1.13868 -0.16078 -0.09111
 C515 C 1.11329 -0.13470 -0.07635
 C516 C 1.09193 -0.11086 -0.09974
 C517 C 1.09596 -0.11345 -0.13856
 H518 H 1.19872 -0.21848 -0.11548
 H519 H 1.23500 -0.24629 -0.16762
 H520 H 1.17439 -0.17488 -0.24393
 H521 H 1.15542 -0.17872 -0.07326
 H522 H 1.11068 -0.13273 -0.04659
 H523 H 1.08076 -0.09504 -0.15691
 C524 C 1.16436 0.32519 0.32979
 C525 C 1.17731 0.35580 0.32077
 C526 C 1.20436 0.35919 0.29363
 C527 C 1.21922 0.32978 0.27526
 C528 C 1.20665 0.29770 0.28375
 C529 C 1.17837 0.29539 0.31124
 O530 O 1.13875 0.32793 0.35689
 C531 C 1.13557 0.36096 0.36490
 C532 C 1.15853 0.37899 0.34337
 C533 C 1.15928 0.41390 0.34617
 C534 C 1.13485 0.43116 0.37186
 C535 C 1.11074 0.41342 0.39451
 C536 C 1.11147 0.37767 0.39133
 H537 H 1.21406 0.38360 0.28711
 H538 H 1.24072 0.33213 0.25442
 H539 H 1.16858 0.27121 0.31856
 H540 H 1.17752 0.42744 0.32872
 H541 H 1.13448 0.45845 0.37394
 H542 H 1.09287 0.36357 0.40786
 C543 C 0.67091 -0.17338 0.31240
 C544 C 0.69704 -0.17342 0.34241
 C545 C 0.73386 -0.19158 0.34273
 C546 C 0.74413 -0.21055 0.31080
 C547 C 0.71755 -0.21115 0.27962
 C548 C 0.68037 -0.19228 0.28055
 O549 O 0.63791 -0.15374 0.31738
 C550 C 0.64327 -0.14112 0.35134
 C551 C 0.67891 -0.15249 0.36789
 C552 C 0.69079 -0.14224 0.40327
 C553 C 0.66507 -0.11906 0.42224
 C554 C 0.62837 -0.10648 0.40559
 C555 C 0.61724 -0.11797 0.36967
 H556 H 0.75400 -0.19109 0.36665
 H557 H 0.77249 -0.22514 0.31060
 H558 H 0.65971 -0.19187 0.25696
 H559 H 0.71899 -0.15150 0.41570
 H560 H 0.67410 -0.11055 0.44969
 H561 H 0.58955 -0.10878 0.35616
 C562 C 0.65625 0.32975 -0.18907
 C563 C 0.68302 0.34230 -0.16425
 C564 C 0.72327 0.33812 -0.16834
 C565 C 0.73698 0.31941 -0.19893
 C566 C 0.71071 0.30366 -0.22458
 C567 C 0.66922 0.31002 -0.21947
 O568 O 0.61897 0.33846 -0.18051
 C569 C 0.62275 0.35667 -0.14940
 C570 C 0.66152 0.35922 -0.13828
 C571 C 0.67302 0.37642 -0.10648
 C572 C 0.64325 0.39227 -0.08527
 C573 C 0.60284 0.39136 -0.09653
 C574 C 0.59232 0.37304 -0.12901
 H575 H 0.74360 0.34930 -0.14880
 H576 H 0.76845 0.31785 -0.20117
 H577 H 0.64715 0.30017 -0.23801
 H578 H 0.70385 0.37774 -0.09836
 H579 H 0.65197 0.40620 -0.06063
 H580 H 0.56175 0.37196 -0.13822
 C581 C 1.15013 0.14696 -0.19148
 C582 C 1.17470 0.11847 -0.18398
 C583 C 1.21411 0.11507 -0.19275
 C584 C 1.22919 0.14222 -0.20976
 C585 C 1.20487 0.17218 -0.21868
 C586 C 1.16450 0.17446 -0.20906
 O587 O 1.11444 0.14573 -0.17777
 C588 C 1.11687 0.11588 -0.16123
 C589 C 1.15330 0.09842 -0.16430
 C590 C 1.16391 0.06803 -0.14680
 C591 C 1.13591 0.05504 -0.12493
 C592 C 1.09803 0.07224 -0.12125
 C593 C 1.08800 0.10291 -0.14008
 H594 H 1.23308 0.09278 -0.18536
 H595 H 1.26054 0.14030 -0.21450
 H596 H 1.14547 0.19739 -0.21318
 H597 H 1.19311 0.05521 -0.14911
 H598 H 1.14381 0.03165 -0.11050
 H599 H 1.05954 0.11685 -0.13691
 C600 C 1.16272 0.66832 0.33519
 C601 C 1.13487 0.68942 0.35255
 C602 C 1.13378 0.72442 0.35129
 C603 C 1.16215 0.73832 0.33052
 C604 C 1.19058 0.71727 0.31106
 C605 C 1.19127 0.68158 0.31443
 O606 O 1.15948 0.63576 0.34128
 C607 C 1.12877 0.63637 0.36295
 C608 C 1.11275 0.66868 0.37054
 C609 C 1.08148 0.67564 0.39371
 C610 C 1.06657 0.64822 0.41044
 C611 C 1.08291 0.61464 0.40373
 C612 C 1.11396 0.60846 0.37901
 H613 H 1.11199 0.74046 0.36591
 H614 H 1.16182 0.76558 0.32929
 H615 H 1.21340 0.66431 0.30204
 H616 H 1.06956 0.70129 0.39936
 H617 H 1.04261 0.65322 0.42922
 H618 H 1.12730 0.58314 0.37396
 C619 C 0.65579 0.17527 0.35404
 C620 C 0.66800 0.17861 0.39049
 C621 C 0.69696 0.19940 0.40226
 C622 C 0.71438 0.21752 0.37540
 C623 C 0.70215 0.21527 0.33728
 C624 C 0.67220 0.19362 0.32677
 O625 O 0.63053 0.15164 0.34849
 C626 C 0.62695 0.13981 0.38224
 C627 C 0.64929 0.15564 0.40884
 C628 C 0.65265 0.14574 0.44550
 C629 C 0.63262 0.11801 0.45514
 C630 C 0.60970 0.10087 0.42828
 C631 C 0.60618 0.11234 0.39138
 H632 H 0.70703 0.20056 0.43101
 H633 H 0.73852 0.23181 0.38490
 H634 H 0.66328 0.19004 0.29796
 H635 H 0.67100 0.15828 0.46573
 H636 H 0.63569 0.10947 0.48343
 H637 H 0.58961 0.09924 0.37019
 C638 C 0.65611 0.65084 -0.14714
 C639 C 0.61717 0.66292 -0.15078
 C640 C 0.60477 0.69228 -0.16931
 C641 C 0.63360 0.70992 -0.18523
 C642 C 0.67436 0.69731 -0.18410
 C643 C 0.68541 0.66757 -0.16345
 O644 O 0.66148 0.62273 -0.12760
 C645 C 0.62499 0.61693 -0.11903
 C646 C 0.59684 0.64076 -0.13283
 C647 C 0.55659 0.63900 -0.12873
 C648 C 0.54478 0.61122 -0.11003
 C649 C 0.57317 0.58646 -0.09524
 C650 C 0.61392 0.58953 -0.09932
 H651 H 0.57396 0.70174 -0.17081
 H652 H 0.62353 0.73380 -0.19755
 H653 H 0.71600 0.65781 -0.15996
 H654 H 0.53504 0.65791 -0.14025
 H655 H 0.51352 0.60890 -0.10711
 H656 H 0.63602 0.57054 -0.08883
 C657 C 0.82419 -0.18204 -0.15033
 C658 C 0.82532 -0.18815 -0.11309
 C659 C 0.80514 -0.21315 -0.09792
 C660 C 0.78274 -0.23272 -0.12209
 C661 C 0.78014 -0.22695 -0.16102
 C662 C 0.80184 -0.20098 -0.17496
 O663 O 0.84417 -0.15604 -0.15886
 C664 C 0.85813 -0.14549 -0.12618
 C665 C 0.84724 -0.16429 -0.09727
 C666 C 0.85605 -0.15632 -0.06043
 C667 C 0.87633 -0.12745 -0.05304
 C668 C 0.88788 -0.10761 -0.08229
 C669 C 0.87931 -0.11709 -0.11947
 H670 H 0.80653 -0.21746 -0.06841
 H671 H 0.76832 -0.25282 -0.10993
 H672 H 0.80027 -0.19387 -0.20365
 H673 H 0.84653 -0.17114 -0.03815
 H674 H 0.88250 -0.12016 -0.02448
 H675 H 0.88684 -0.10178 -0.14219
 C676 C 0.83728 0.33102 0.34444
 C677 C 0.83512 0.35767 0.32057
 C678 C 0.81489 0.35698 0.28633
 C679 C 0.79538 0.32793 0.27676
 C680 C 0.79643 0.30051 0.30143
 C681 C 0.81848 0.30198 0.33539
 O682 O 0.85702 0.33685 0.37597
 C683 C 0.86752 0.36797 0.37209
 C684 C 0.85487 0.38191 0.33872
 C685 C 0.86211 0.41456 0.32932
 C686 C 0.88364 0.43338 0.35518
 C687 C 0.89731 0.41938 0.38965
 C688 C 0.88882 0.38622 0.39819
 H689 H 0.81337 0.37833 0.26806
 H690 H 0.77816 0.32749 0.25095
 H691 H 0.82007 0.28144 0.35479
 H692 H 0.85170 0.42512 0.30302
 H693 H 0.88993 0.45873 0.34817
 H694 H 0.89883 0.37478 0.42418
 C695 C 0.33510 -0.17491 0.35209
 C696 C 0.37082 -0.17902 0.33524
 C697 C 0.37762 -0.20064 0.30500
 C698 C 0.34618 -0.21856 0.29128
 C699 C 0.30893 -0.21462 0.30789
 C700 C 0.30349 -0.19280 0.33911
 O701 O 0.33435 -0.15178 0.37924
 C702 C 0.37037 -0.14104 0.37946
 C703 C 0.39378 -0.15700 0.35308
 C704 C 0.43189 -0.14870 0.34717
 C705 C 0.44641 -0.12262 0.36909
 C706 C 0.42282 -0.10542 0.39628
 C707 C 0.38436 -0.11512 0.40184
 H708 H 0.40592 -0.20319 0.29205
 H709 H 0.35082 -0.23545 0.26764
 H710 H 0.27515 -0.18887 0.35189
 H711 H 0.44956 -0.16143 0.32598
 H712 H 0.47590 -0.11556 0.36448
 H713 H 0.36550 -0.10217 0.42201
 C714 C 0.32822 0.31097 -0.16388
 C715 C 0.31601 0.30926 -0.12829
 C716 C 0.28818 0.28804 -0.11812
 C717 C 0.27210 0.26748 -0.14567
 C718 C 0.28386 0.26803 -0.18320
 C719 C 0.31263 0.29058 -0.19205
 O720 O 0.35432 0.33384 -0.16753
 C721 C 0.35834 0.34683 -0.13343
 C722 C 0.33539 0.33252 -0.10854
 C723 C 0.33343 0.34291 -0.07171
 C724 C 0.35566 0.36955 -0.06000
 C725 C 0.37949 0.38512 -0.08493
 C726 C 0.38134 0.37324 -0.12217
 H727 H 0.27855 0.28773 -0.08994
 H728 H 0.24916 0.25239 -0.13724
 H729 H 0.32350 0.29215 -0.21957
 H730 H 0.31485 0.33135 -0.05281
 H731 H 0.35395 0.37829 -0.03147
 H732 H 0.39878 0.38501 -0.14192
 C733 C 1.16098 -0.15877 0.18410
 C734 C 1.18409 -0.15753 0.15393
 C735 C 1.22094 -0.17505 0.15157
 C736 C 1.23447 -0.19529 0.18135
 C737 C 1.21100 -0.19806 0.21267
 C738 C 1.17382 -0.17892 0.21415
 O739 O 1.12675 -0.14006 0.18038
 C740 C 1.12839 -0.12693 0.14698
 C741 C 1.16289 -0.13711 0.12978
 C742 C 1.17095 -0.12731 0.09452
 C743 C 1.14246 -0.10575 0.07618
 C744 C 1.10674 -0.09413 0.09327
 C745 C 1.09946 -0.10507 0.12924
 H746 H 1.23848 -0.17355 0.12739
 H747 H 1.26269 -0.20960 0.17894
 H748 H 1.15526 -0.17985 0.23769
 H749 H 1.19825 -0.13596 0.08157
 H750 H 1.14865 -0.09783 0.04868
 H751 H 1.07252 -0.09672 0.14294
 C752 C 1.16495 0.31773 0.67098
 C753 C 1.17858 0.34771 0.68367
 C754 C 1.20458 0.34983 0.71407
 C755 C 1.21765 0.31974 0.73190
 C756 C 1.20453 0.28830 0.71937
 C757 C 1.17735 0.28734 0.68864
 O758 O 1.14011 0.32161 0.64169
 C759 C 1.13805 0.35475 0.63591
 C760 C 1.16106 0.37174 0.66095
 C761 C 1.16268 0.40660 0.66094
 C762 C 1.13900 0.42489 0.63449
 C763 C 1.11460 0.40825 0.60846
 C764 C 1.11461 0.37251 0.60878
 H765 H 1.21463 0.37379 0.72363
 H766 H 1.23801 0.32096 0.75560
 H767 H 1.16708 0.26368 0.67830
 H768 H 1.18090 0.41935 0.68109
 H769 H 1.13918 0.45217 0.63466
 H770 H 1.09572 0.35922 0.58971
 C771 C 0.66518 -0.17871 0.69477
 C772 C 0.69436 -0.17294 0.67108
 C773 C 0.73274 -0.18764 0.67529
 C774 C 0.74143 -0.20945 0.70508
 C775 C 0.71169 -0.21652 0.72989
 C776 C 0.67294 -0.20054 0.72428
 O777 O 0.63078 -0.16180 0.68622
 C778 C 0.63840 -0.14512 0.65624
 C779 C 0.67685 -0.15127 0.64575
 C780 C 0.69124 -0.13679 0.61495
 C781 C 0.66501 -0.11481 0.59427
 C782 C 0.62533 -0.10746 0.60483
 C783 C 0.61181 -0.12302 0.63625
 H784 H 0.75517 -0.18275 0.65611
 H785 H 0.77093 -0.22185 0.70716
 H786 H 0.64944 -0.20420 0.74278
 H787 H 0.72158 -0.14213 0.60718
 H788 H 0.67593 -0.10311 0.57034
 H789 H 0.58175 -0.11797 0.64497
 C790 C 0.64485 0.32087 0.19027
 C791 C 0.66148 0.31458 0.15651
 C792 C 0.69514 0.29292 0.15175
 C793 C 0.71255 0.27694 0.18312
 C794 C 0.69593 0.28234 0.21838
 C795 C 0.66131 0.30458 0.22193
 O796 O 0.61437 0.34421 0.18880
 C797 C 0.61184 0.35271 0.15330
 C798 C 0.63995 0.33503 0.13251
 C799 C 0.64421 0.34060 0.09521
 C800 C 0.61894 0.36594 0.07860
 C801 C 0.59019 0.38533 0.09933
 C802 C 0.58604 0.37817 0.13718
 H803 H 0.70802 0.28894 0.12493
 H804 H 0.73902 0.26032 0.17967
 H805 H 0.64847 0.30987 0.24858
 H806 H 0.66680 0.32645 0.07961
 H807 H 0.62248 0.37095 0.04963
 H808 H 0.56482 0.39288 0.15382
 C809 C 0.83053 0.16744 0.18894
 C810 C 0.80236 0.16257 0.16140
 C811 C 0.76298 0.17462 0.16397
 C812 C 0.75217 0.19279 0.19613
 C813 C 0.78073 0.19914 0.22443
 C814 C 0.82048 0.18612 0.22103
 O815 O 0.86595 0.15269 0.18123
 C816 C 0.85992 0.13838 0.14807
 C817 C 0.82154 0.14402 0.13474
 C818 C 0.80842 0.13160 0.10069
 C819 C 0.83581 0.11211 0.07957
 C820 C 0.87543 0.10494 0.09287
 C821 C 0.88775 0.11859 0.12761
 H822 H 0.74131 0.17000 0.14212
 H823 H 0.72160 0.20226 0.19894
 H824 H 0.84263 0.19041 0.24257
 H825 H 0.77805 0.13652 0.09083
 H826 H 0.82573 0.10193 0.05317
 H827 H 0.91771 0.11352 0.13855
 C828 C 0.82453 0.65491 0.70313
 C829 C 0.85454 0.67452 0.69567
 C830 C 0.85882 0.70562 0.71272
 C831 C 0.83036 0.71763 0.73780
 C832 C 0.79702 0.69922 0.74463
 C833 C 0.79527 0.66660 0.72753
 O834 O 0.82618 0.62590 0.68389
 C835 C 0.85783 0.62751 0.66369
 C836 C 0.87591 0.65700 0.66968
 C837 C 0.90823 0.66501 0.65022
 C838 C 0.92270 0.64155 0.62353
 C839 C 0.90533 0.61056 0.61745
 C840 C 0.87255 0.60326 0.63795
 H841 H 0.88344 0.72014 0.70708
 H842 H 0.83558 0.74110 0.75199
 H843 H 0.77108 0.65114 0.73114
 H844 H 0.92156 0.68862 0.65511
 H845 H 0.94794 0.64720 0.60805
 H846 H 0.85867 0.57984 0.63352
 C847 C 0.36113 0.17290 0.67972
 C848 C 0.35269 0.18567 0.64493
 C849 C 0.32459 0.21274 0.63844
 C850 C 0.30324 0.22615 0.66874
 C851 C 0.30998 0.21189 0.70421
 C852 C 0.34030 0.18580 0.70997
 O853 O 0.38559 0.14511 0.67973
 C854 C 0.39249 0.13982 0.64417
 C855 C 0.37289 0.16372 0.62157
 C856 C 0.37193 0.16040 0.58312
 C857 C 0.39167 0.13126 0.56751
 C858 C 0.41214 0.10649 0.59042
 C859 C 0.41314 0.11125 0.62924
 H860 H 0.31774 0.22190 0.61076
 H861 H 0.27933 0.24555 0.66401
 H862 H 0.34484 0.17368 0.73655
 H863 H 0.35530 0.17887 0.56582
 H864 H 0.39052 0.12772 0.53771
 H865 H 0.42741 0.09221 0.64739
 C866 C 0.33486 0.67248 0.17877
 C867 C 0.31596 0.67893 0.14498
 C868 C 0.28235 0.70117 0.14080
 C869 C 0.26760 0.71735 0.17281
 C870 C 0.28676 0.71127 0.20778
 C871 C 0.32084 0.68855 0.21092
 O872 O 0.36458 0.64869 0.17699
 C873 C 0.36431 0.63987 0.14137
 C874 C 0.33516 0.65766 0.12060
 C875 C 0.32781 0.65095 0.08319
 C876 C 0.35106 0.62442 0.06662
 C877 C 0.38088 0.60534 0.08760
 C878 C 0.38809 0.61366 0.12534
 H879 H 0.26739 0.70514 0.11409
 H880 H 0.24056 0.73371 0.17059
 H881 H 0.33518 0.68292 0.23760
 H882 H 0.30432 0.66501 0.06758
 H883 H 0.34524 0.61826 0.03770
 H884 H 0.41010 0.59911 0.14219
   
