data_POSCAR
  _audit_creation_date              2014-09-24
  _audit_creation_method            'ToBaCCo'
  _symmetry_space_group_name_H-M    'P1'
  _symmetry_Int_Tables_number       1
  _symmetry_cell_setting            triclinic
  loop_
  _symmetry_equiv_pos_as_xyz
 x,y,z
_cell_length_a 54.9294
_cell_length_b 33.4797
_cell_length_c 18.9015
_cell_angle_alpha 89.987400
_cell_angle_beta 89.889700
_cell_angle_gamma 90.162700
loop_
  _atom_site_label
  _atom_site_type_symbol
  _atom_site_fract_x
  _atom_site_fract_y
  _atom_site_fract_z
C1 C 0.74915 0.24738 0.46578
 C2 C 0.74909 0.24802 0.53776
 C3 C 0.72879 0.26621 0.57844
 C4 C 0.76939 0.23048 0.57894
 C5 C 0.76862 0.22705 0.42545
 C6 C 0.72995 0.26726 0.42401
 C7 C 0.73364 0.29635 0.62785
 C8 C 0.71467 0.31446 0.66520
 C9 C 0.69023 0.30269 0.65425
 C10 C 0.68565 0.27154 0.60551
 C11 C 0.70471 0.25346 0.56852
 C12 C 0.79337 0.24401 0.56935
 C13 C 0.81253 0.22596 0.60564
 C14 C 0.80805 0.19433 0.65296
 C15 C 0.78388 0.18174 0.66410
 C16 C 0.76473 0.19974 0.62751
 C17 C 0.77104 0.18539 0.42811
 C18 C 0.79004 0.16660 0.39187
 C19 C 0.80713 0.18930 0.35351
 C20 C 0.80448 0.23101 0.35061
 C21 C 0.78519 0.24966 0.38557
 C22 C 0.71392 0.24427 0.38313
 C23 C 0.69509 0.26259 0.34578
 C24 C 0.69239 0.30431 0.34729
 C25 C 0.70891 0.32736 0.38688
 C26 C 0.72744 0.30892 0.42542
 H27 H 0.75216 0.30636 0.63666
 H28 H 0.71932 0.33798 0.70219
 H29 H 0.66734 0.26094 0.59540
 H30 H 0.70064 0.22949 0.53190
 H31 H 0.79725 0.26833 0.53325
 H32 H 0.83086 0.23671 0.59627
 H33 H 0.74631 0.18913 0.63594
 H34 H 0.75831 0.16756 0.45858
 H35 H 0.79169 0.13443 0.39514
 H36 H 0.81727 0.24919 0.32103
 H37 H 0.78351 0.28186 0.38306
 H38 H 0.71569 0.21207 0.38147
 H39 H 0.68273 0.24414 0.31534
 H40 H 0.70721 0.35955 0.38915
 H41 H 0.73979 0.32704 0.45653
 H42 H 0.77975 0.15761 0.70036
 C43 C 0.24939 0.74684 0.46298
 C44 C 0.24960 0.74721 0.53495
 C45 C 0.22944 0.76524 0.57630
 C46 C 0.26998 0.72938 0.57549
 C47 C 0.26856 0.72628 0.42196
 C48 C 0.23010 0.76711 0.42202
 C49 C 0.23442 0.79552 0.62547
 C50 C 0.21551 0.81337 0.66349
 C51 C 0.19126 0.80107 0.65334
 C52 C 0.18643 0.77004 0.60513
 C53 C 0.20536 0.75217 0.56729
 C54 C 0.29399 0.74266 0.56536
 C55 C 0.31316 0.72466 0.60172
 C56 C 0.30868 0.69330 0.64962
 C57 C 0.28450 0.68086 0.66106
 C58 C 0.26534 0.69883 0.62445
 C59 C 0.27073 0.68458 0.42442
 C60 C 0.28961 0.66554 0.38808
 C61 C 0.30681 0.68804 0.34983
 C62 C 0.30438 0.72978 0.34693
 C63 C 0.28520 0.74869 0.38199
 C64 C 0.21380 0.74447 0.38145
 C65 C 0.19492 0.76316 0.34484
 C66 C 0.19244 0.80492 0.34676
 C67 C 0.20922 0.82762 0.38604
 C68 C 0.22780 0.80881 0.42388
 H69 H 0.25293 0.80577 0.63352
 H70 H 0.21991 0.83705 0.70036
 H71 H 0.16802 0.75956 0.59637
 H72 H 0.20122 0.72817 0.53081
 H73 H 0.29788 0.76685 0.52899
 H74 H 0.33151 0.73527 0.59204
 H75 H 0.24690 0.68839 0.63333
 H76 H 0.25793 0.66692 0.45498
 H77 H 0.29110 0.63335 0.39134
 H78 H 0.31727 0.74780 0.31741
 H79 H 0.28372 0.78092 0.37966
 H80 H 0.21540 0.71225 0.37944
 H81 H 0.18235 0.74497 0.31463
 H82 H 0.20770 0.85982 0.38864
 H83 H 0.24036 0.82667 0.45475
 H84 H 0.28035 0.65694 0.69775
 C85 C 0.24926 0.25199 -0.53872
 C86 C 0.24928 0.25158 -0.46684
 C87 C 0.22913 0.23312 -0.42581
 C88 C 0.26950 0.26976 -0.42614
 C89 C 0.26885 0.27183 -0.57936
 C90 C 0.22986 0.23226 -0.57996
 C91 C 0.20516 0.24674 -0.43310
 C92 C 0.18623 0.22862 -0.39540
 C93 C 0.19088 0.19667 -0.34869
 C94 C 0.21516 0.18387 -0.34036
 C95 C 0.23404 0.20200 -0.37842
 C96 C 0.26494 0.30206 -0.38093
 C97 C 0.28406 0.32047 -0.34458
 C98 C 0.30810 0.30674 -0.35268
 C99 C 0.31245 0.27364 -0.39672
 C100 C 0.29331 0.25518 -0.43269
 C101 C 0.28728 0.24896 -0.61037
 C102 C 0.30664 0.26755 -0.64540
 C103 C 0.30756 0.30950 -0.65202
 C104 C 0.28844 0.33217 -0.62247
 C105 C 0.26944 0.31348 -0.58578
 C106 C 0.22918 0.19061 -0.58606
 C107 C 0.21061 0.17204 -0.62451
 C108 C 0.19202 0.19485 -0.65628
 C109 C 0.19298 0.23680 -0.64977
 C110 C 0.21193 0.25527 -0.61290
 H111 H 0.20111 0.27150 -0.46795
 H112 H 0.16794 0.23979 -0.40309
 H113 H 0.21967 0.15961 -0.30487
 H114 H 0.25249 0.19134 -0.37164
 H115 H 0.24662 0.31349 -0.37488
 H116 H 0.28003 0.34576 -0.31091
 H117 H 0.29706 0.22961 -0.46598
 H118 H 0.28698 0.21670 -0.60584
 H119 H 0.32078 0.24887 -0.66762
 H120 H 0.28836 0.36445 -0.62617
 H121 H 0.25523 0.33146 -0.56210
 H122 H 0.24304 0.17253 -0.56102
 H123 H 0.21063 0.13976 -0.62801
 H124 H 0.17923 0.25558 -0.67360
 H125 H 0.21233 0.28753 -0.60869
 H126 H 0.33067 0.26198 -0.40361
 C127 C -0.25158 0.75427 -0.46449
 C128 C -0.25129 0.75353 -0.53642
 C129 C -0.23080 0.77118 -0.57719
 C130 C -0.27137 0.73497 -0.57742
 C131 C -0.27096 0.73417 -0.42343
 C132 C -0.23227 0.77461 -0.42351
 C133 C -0.23527 0.80152 -0.62647
 C134 C -0.21600 0.81964 -0.66277
 C135 C -0.19176 0.80764 -0.65066
 C136 C -0.18754 0.77625 -0.60248
 C137 C -0.20686 0.75810 -0.56659
 C138 C -0.29539 0.74840 -0.56988
 C139 C -0.31428 0.73014 -0.60734
 C140 C -0.30953 0.69822 -0.65406
 C141 C -0.28522 0.68563 -0.66271
 C142 C -0.26638 0.70390 -0.62489
 C143 C -0.27175 0.69246 -0.41875
 C144 C -0.29023 0.67360 -0.38019
 C145 C -0.30864 0.69618 -0.34691
 C146 C -0.30761 0.73819 -0.35210
 C147 C -0.28874 0.75693 -0.38906
 C148 C -0.21593 0.75199 -0.38330
 C149 C -0.19673 0.77065 -0.34787
 C150 C -0.19395 0.81236 -0.35063
 C151 C -0.21083 0.83508 -0.38925
 C152 C -0.22974 0.81628 -0.42596
 H153 H -0.25368 0.81176 -0.63573
 H154 H -0.22018 0.84342 -0.69961
 H155 H -0.16929 0.76566 -0.59197
 H156 H -0.20311 0.73400 -0.53001
 H157 H -0.29952 0.77310 -0.53493
 H158 H -0.33259 0.74116 -0.59940
 H159 H -0.24790 0.69339 -0.63187
 H160 H -0.25801 0.67457 -0.44488
 H161 H -0.29027 0.64128 -0.37775
 H162 H -0.32123 0.75680 -0.32709
 H163 H -0.28825 0.78924 -0.39217
 H164 H -0.21768 0.71978 -0.38095
 H165 H -0.18409 0.75246 -0.31811
 H166 H -0.20907 0.86725 -0.39242
 H167 H -0.24230 0.83410 -0.45669
 H168 H -0.28063 0.66141 -0.69824
 O169 O -0.03371 0.93088 0.13124
 O170 O -0.06055 0.96674 0.06339
 C171 C -0.05558 0.94108 0.11266
 O172 O 0.03487 1.07480 0.11914
 O173 O 0.06150 1.03441 0.05880
 C174 C 0.05669 1.06325 0.10233
 O175 O -0.03324 1.07110 0.12899
 O176 O -0.06024 1.03384 0.06380
 C177 C -0.05515 1.06021 0.11179
 O178 O 0.03450 0.92670 0.12257
 O179 O 0.06132 0.96554 0.05925
 C180 C 0.05638 0.93752 0.10447
 Zr181 Zr 0.00036 0.94986 0.09043
 O182 O 0.00297 0.95106 0.20214
 O183 O -0.00259 0.88680 0.09180
 Zr184 Zr 0.00065 1.05045 0.08999
 O185 O 0.00181 1.04400 0.20113
 O186 O 0.00005 1.11333 0.10014
 O187 O -0.02133 1.00031 0.10410
 O188 O 0.02183 1.00019 0.10286
 O189 O 0.03424 0.92667 -0.12169
 O190 O 0.06126 0.96520 -0.05882
 C191 C 0.05617 0.93722 -0.10391
 O192 O -0.03360 1.06984 -0.12841
 O193 O -0.06051 1.03395 -0.06025
 C194 C -0.05549 1.05970 -0.10943
 O195 O 0.03464 1.07271 -0.12289
 O196 O 0.06145 1.03438 -0.05937
 C197 C 0.05651 1.06217 -0.10493
 O198 O -0.03398 0.92981 -0.12735
 O199 O -0.06063 0.96689 -0.06080
 C200 C -0.05579 0.94071 -0.10930
 Zr201 Zr 0.00014 0.94946 -0.08827
 O202 O 0.00273 0.94987 -0.20006
 O203 O -0.00270 0.88638 -0.08808
 Zr204 Zr 0.00042 1.05033 -0.08896
 O205 O 0.00296 1.04954 -0.20075
 O206 O -0.00175 1.11346 -0.08951
 Zr207 Zr -0.03606 1.00024 0.00113
 Zr208 Zr 0.03661 0.99996 0.00014
 O209 O 0.02144 0.99981 -0.10196
 O210 O -0.02151 0.99995 -0.10223
 O211 O 0.02193 0.94170 0.00077
 O212 O -0.02063 1.05784 0.00076
 O213 O -0.02098 0.94248 0.00143
 O214 O 0.02217 1.05826 0.00007
 H215 H 0.03304 1.00033 0.14388
 H216 H -0.03152 1.08137 0.00065
 H217 H 0.03244 0.99968 -0.14355
 H218 H -0.03200 0.91899 0.00175
 H219 H -0.00299 1.12429 0.05249
 H220 H 0.01186 1.12376 -0.06048
 H221 H -0.01094 1.03373 -0.21879
 H222 H -0.01122 0.96536 -0.21835
 H223 H 0.01087 0.87589 -0.05926
 H224 H 0.01042 0.87613 0.06099
 H225 H -0.00969 0.96957 0.21970
 H226 H 0.00264 1.07145 0.22055
 O227 O 0.46656 0.42765 0.12628
 O228 O 0.43979 0.46522 0.06121
 C229 C 0.44472 0.43863 0.10890
 O230 O 0.53458 0.57221 0.12311
 O231 O 0.56157 0.53402 0.05981
 C232 C 0.55649 0.56185 0.10519
 O233 O 0.46669 0.56843 0.13010
 O234 O 0.43984 0.53199 0.06302
 C235 C 0.44483 0.55781 0.11201
 O236 O 0.53468 0.42436 0.11921
 O237 O 0.56160 0.46412 0.05814
 C238 C 0.55658 0.43554 0.10212
 Zr239 Zr 0.50062 0.44779 0.08703
 O240 O 0.50296 0.44756 0.19882
 O241 O 0.49788 0.38470 0.08535
 Zr242 Zr 0.50067 0.54823 0.09106
 O243 O 0.50136 0.54001 0.20187
 O244 O 0.50044 0.61100 0.10384
 O245 O 0.47879 0.49788 0.10274
 O246 O 0.52203 0.49800 0.10191
 O247 O 0.53457 0.42723 -0.12581
 O248 O 0.56154 0.46476 -0.06108
 C249 C 0.55647 0.43738 -0.10733
 O250 O 0.46685 0.57052 -0.12705
 O251 O 0.43985 0.53352 -0.06106
 C252 C 0.44493 0.55992 -0.10912
 O253 O 0.53497 0.57434 -0.11951
 O254 O 0.56175 0.53435 -0.05926
 C255 C 0.55682 0.56308 -0.10283
 O256 O 0.46655 0.43099 -0.13182
 O257 O 0.43968 0.46633 -0.06307
 C258 C 0.44467 0.44102 -0.11287
 Zr259 Zr 0.50063 0.45001 -0.09148
 O260 O 0.50343 0.45234 -0.20317
 O261 O 0.49776 0.38696 -0.09462
 Zr262 Zr 0.50082 0.55070 -0.08761
 O263 O 0.50370 0.55144 -0.19934
 O264 O 0.49850 0.61379 -0.08530
 Zr265 Zr 0.46422 0.49924 -0.00035
 Zr266 Zr 0.53714 0.49926 -0.00043
 O267 O 0.52197 0.50051 -0.10257
 O268 O 0.47893 0.50052 -0.10349
 O269 O 0.52237 0.44104 -0.00260
 O270 O 0.47955 0.55685 0.00192
 O271 O 0.47940 0.44158 -0.00242
 O272 O 0.52242 0.55738 0.00198
 H273 H 0.53312 0.49770 0.14321
 H274 H 0.46857 0.58027 0.00243
 H275 H 0.53299 0.50097 -0.14413
 H276 H 0.46844 0.41804 -0.00320
 H277 H 0.49498 0.62265 0.05861
 H278 H 0.51142 0.62361 -0.05324
 H279 H 0.48985 0.53590 -0.21841
 H280 H 0.48931 0.46758 -0.22099
 H281 H 0.51095 0.37601 -0.06490
 H282 H 0.51116 0.37454 0.05497
 H283 H 0.49000 0.46531 0.21697
 H284 H 0.50198 0.56713 0.22272
 C285 C 0.36539 0.36438 0.24710
 N286 N 0.36580 0.32462 0.26078
 N287 N 0.34704 0.30690 0.29278
 C288 C 0.32720 0.32824 0.31323
 N289 N 0.32695 0.36816 0.29969
 N290 N 0.34559 0.38582 0.26689
 C291 C 0.38603 0.38381 0.21152
 N292 N 0.38323 0.41967 0.17906
 N293 N 0.40192 0.43706 0.14611
 C294 C 0.42416 0.41945 0.14521
 N295 N 0.42700 0.38373 0.17811
 N296 N 0.40823 0.36611 0.21031
 C297 C -0.13438 0.86442 0.24951
 N298 N -0.15768 0.87532 0.23589
 N299 N -0.17620 0.85692 0.26792
 C300 C -0.17221 0.82678 0.31475
 N301 N -0.14882 0.81593 0.32800
 N302 N -0.13029 0.83436 0.29610
 C303 C -0.11393 0.88470 0.21444
 N304 N -0.09063 0.87468 0.23019
 N305 N -0.07205 0.89286 0.19812
 C306 C -0.07607 0.92170 0.14906
 N307 N -0.09938 0.93177 0.13337
 N308 N -0.11797 0.91364 0.16555
 C309 C 0.63430 0.64190 0.24022
 N310 N 0.65769 0.63028 0.23004
 N311 N 0.67583 0.64856 0.26391
 C312 C 0.67135 0.67923 0.30929
 N313 N 0.64787 0.69082 0.31900
 N314 N 0.62973 0.67253 0.28526
 C315 C 0.61418 0.62140 0.20405
 N316 N 0.59077 0.63199 0.21724
 N317 N 0.57244 0.61310 0.18546
 C318 C 0.57682 0.58295 0.13920
 N319 N 0.60024 0.57240 0.12579
 N320 N 0.61859 0.59127 0.15769
 C321 C 0.13552 1.14018 0.23711
 N322 N 0.15494 1.11864 0.25935
 N323 N 0.17316 1.13626 0.29387
 C324 C 0.17286 1.17622 0.30687
 N325 N 0.15342 1.19768 0.28387
 N326 N 0.13506 1.18000 0.25010
 C327 C 0.11518 1.12061 0.20065
 N328 N 0.09305 1.13846 0.19732
 N329 N 0.07440 1.12025 0.16580
 C330 C 0.07730 1.08376 0.13568
 N331 N 0.09949 1.06608 0.13844
 N332 N 0.11806 1.08407 0.17071
 C333 C 0.63443 0.35810 -0.24258
 N334 N 0.62993 0.32814 -0.28908
 N335 N 0.64816 0.30993 -0.32246
 C336 C 0.67171 0.32088 -0.31096
 N337 N 0.67607 0.35092 -0.26403
 N338 N 0.65784 0.36912 -0.23055
 C339 C 0.61425 0.37849 -0.20663
 N340 N 0.61862 0.40804 -0.15906
 N341 N 0.60023 0.42675 -0.12714
 C342 C 0.57682 0.41661 -0.14175
 N343 N 0.57247 0.38705 -0.18926
 N344 N 0.59084 0.36833 -0.22107
 C345 C 0.13399 0.85766 -0.23893
 N346 N 0.12941 0.82801 -0.28604
 N347 N 0.14759 0.80992 -0.31982
 C348 C 0.17108 0.82074 -0.30791
 N349 N 0.17562 0.85038 -0.26055
 N350 N 0.15743 0.86848 -0.22670
 C351 C 0.11386 0.87800 -0.20277
 N352 N 0.11826 0.90768 -0.15550
 N353 N 0.09990 0.92646 -0.12363
 C354 C 0.07648 0.91625 -0.13797
 N355 N 0.07210 0.88652 -0.18512
 N356 N 0.09044 0.86774 -0.21691
 C357 C 0.36662 0.63648 -0.24664
 N358 N 0.34324 0.62593 -0.23246
 N359 N 0.32486 0.64405 -0.26516
 C360 C 0.32911 0.67347 -0.31323
 N361 N 0.35255 0.68398 -0.32718
 N362 N 0.37093 0.66586 -0.29456
 C363 C 0.38694 0.61644 -0.21095
 N364 N 0.41030 0.62649 -0.22652
 N365 N 0.42877 0.60838 -0.19421
 C366 C 0.42455 0.57957 -0.14512
 N367 N 0.40118 0.56949 -0.12955
 N368 N 0.38271 0.58758 -0.16192
 C369 C -0.13394 1.13669 -0.24520
 N370 N -0.12966 1.16607 -0.29312
 N371 N -0.14807 1.18448 -0.32508
 C372 C -0.17150 1.17426 -0.31043
 N373 N -0.17573 1.14484 -0.26235
 N374 N -0.15732 1.12644 -0.23029
 C375 C -0.11360 1.11638 -0.21021
 N376 N -0.11777 1.08777 -0.16070
 N377 N -0.09926 1.06956 -0.12876
 C378 C -0.07591 1.07924 -0.14532
 N379 N -0.07175 1.10778 -0.19495
 N380 N -0.09025 1.12602 -0.22680
 C381 C 0.63521 0.64075 -0.23934
 N382 N 0.65451 0.61935 -0.26299
 N383 N 0.67262 0.63722 -0.29785
 C384 C 0.67230 0.67728 -0.30978
 N385 N 0.65299 0.69860 -0.28538
 N386 N 0.63474 0.68068 -0.25129
 C387 C 0.61498 0.62095 -0.20249
 N388 N 0.59284 0.63871 -0.19825
 N389 N 0.57430 0.62031 -0.16633
 C390 C 0.57732 0.58373 -0.13669
 N391 N 0.59953 0.56613 -0.14036
 N392 N 0.61799 0.58431 -0.17305
 C393 C 0.13458 1.14101 -0.24181
 N394 N 0.13009 1.17162 -0.28692
 N395 N 0.14828 1.18968 -0.32106
 C396 C 0.17172 1.17788 -0.31169
 N397 N 0.17611 1.14721 -0.26624
 N398 N 0.15793 1.12916 -0.23198
 C399 C 0.11440 1.12078 -0.20517
 N400 N 0.11871 1.09071 -0.15863
 N401 N 0.10030 1.07212 -0.12628
 C402 C 0.07692 1.08291 -0.13942
 N403 N 0.07265 1.11301 -0.18586
 N404 N 0.09104 1.13161 -0.21807
 C405 C 0.36613 0.36473 -0.25071
 N406 N 0.34279 0.37548 -0.23710
 N407 N 0.32436 0.35703 -0.26930
 C408 C 0.32855 0.32702 -0.31617
 N409 N 0.35195 0.31632 -0.32953
 N410 N 0.37038 0.33480 -0.29748
 C411 C 0.38650 0.38498 -0.21539
 N412 N 0.40983 0.37514 -0.23133
 N413 N 0.42835 0.39322 -0.19901
 C414 C 0.42423 0.42178 -0.14949
 N415 N 0.40089 0.43168 -0.13358
 N416 N 0.38236 0.41364 -0.16603
 C417 C -0.13519 0.86761 -0.24821
 N418 N -0.13358 0.82918 -0.27045
 N419 N -0.15232 0.81160 -0.30257
 C420 C -0.17331 0.83189 -0.31429
 N421 N -0.17485 0.87044 -0.29233
 N422 N -0.15619 0.88791 -0.25955
 C423 C -0.11455 0.88681 -0.21245
 N424 N -0.11768 0.92111 -0.17528
 N425 N -0.09896 0.93823 -0.14221
 C426 C -0.07639 0.92188 -0.14573
 N427 N -0.07324 0.88772 -0.18327
 N428 N -0.09201 0.87038 -0.21573
 C429 C 0.36560 0.63186 0.24960
 N430 N 0.36744 0.67030 0.27173
 N431 N 0.34868 0.68820 0.30311
 C432 C 0.32745 0.66823 0.31415
 N433 N 0.32568 0.62967 0.29230
 N434 N 0.34436 0.61189 0.26026
 C435 C 0.38623 0.61233 0.21452
 N436 N 0.38293 0.57808 0.17729
 N437 N 0.40162 0.56071 0.14459
 C438 C 0.42431 0.57674 0.14858
 N439 N 0.42763 0.61083 0.18624
 N440 N 0.40890 0.62842 0.21833
 C441 C -0.13415 1.13389 0.25142
 N442 N -0.15522 1.11361 0.26298
 N443 N -0.17386 1.13113 0.29569
 C444 C -0.17222 1.16973 0.31737
 N445 N -0.15115 1.19001 0.30546
 N446 N -0.13243 1.17237 0.27340
 C447 C -0.11358 1.11461 0.21553
 N448 N -0.09096 1.13102 0.21822
 N449 N -0.07229 1.11355 0.18559
 C450 C -0.07561 1.07926 0.14849
 N451 N -0.09825 1.06293 0.14558
 N452 N -0.11687 1.08018 0.17880
 C453 C 0.63503 0.35909 0.23854
 N454 N 0.63315 0.32055 0.26017
 N455 N 0.65147 0.30307 0.29418
 C456 C 0.67227 0.32357 0.30848
 N457 N 0.67408 0.36219 0.28700
 N458 N 0.65584 0.37956 0.25238
 C459 C 0.61474 0.37848 0.20176
 N460 N 0.61818 0.41359 0.16715
 N461 N 0.59969 0.43147 0.13459
 C462 C 0.57705 0.41509 0.13600
 N463 N 0.57361 0.38001 0.17070
 N464 N 0.59215 0.36193 0.20269
 C465 C 0.13496 0.86070 0.23995
 N466 N 0.13296 0.82218 0.26160
 N467 N 0.15130 0.80440 0.29500
 C468 C 0.17227 0.82457 0.30870
 N469 N 0.17420 0.86318 0.28722
 N470 N 0.15594 0.88085 0.25318
 C471 C 0.11464 0.88035 0.20368
 N472 N 0.11811 0.91528 0.16852
 N473 N 0.09960 0.93325 0.13618
 C474 C 0.07689 0.91714 0.13840
 N475 N 0.07341 0.88227 0.17370
 N476 N 0.09197 0.86410 0.20544
   
