data_POSCAR
  _audit_creation_date              2014-09-24
  _audit_creation_method            'ToBaCCo'
  _symmetry_space_group_name_H-M    'P1'
  _symmetry_Int_Tables_number       1
  _symmetry_cell_setting            triclinic
  loop_
  _symmetry_equiv_pos_as_xyz
 x,y,z
_cell_length_a 31.9217
_cell_length_b 31.9010
_cell_length_c 31.9894
_cell_angle_alpha 90.003700
_cell_angle_beta 90.098000
_cell_angle_gamma 89.902700
loop_
  _atom_site_label
  _atom_site_type_symbol
  _atom_site_fract_x
  _atom_site_fract_y
  _atom_site_fract_z
C1 C 0.32069 0.37182 1.37573
 N2 N 0.33682 0.39060 1.34115
 C3 C 0.37157 0.37508 1.32216
 N4 N 0.39025 0.34022 1.33804
 C5 C 0.37471 0.32090 1.37256
 N6 N 0.33992 0.33701 1.39113
 C7 C 1.17945 0.62840 0.87545
 N8 N 1.16026 0.66323 0.89078
 C9 C 1.12546 0.67935 0.87213
 N10 N 1.10987 0.66002 0.83756
 C11 C 1.12852 0.62514 0.82175
 N12 N 1.16327 0.60961 0.84085
 C13 C 0.67821 -0.12805 0.12431
 N14 N 0.66231 -0.10932 0.15899
 C15 C 0.62771 -0.12490 0.17813
 N16 N 0.60908 -0.15973 0.16226
 C17 C 0.62452 -0.17899 0.12761
 N18 N 0.65916 -0.16284 0.10890
 C19 C -0.17948 1.12847 -0.37604
 N20 N -0.16323 1.10972 -0.34143
 C21 C -0.12839 1.12512 -0.32250
 N22 N -0.10973 1.15983 -0.33848
 C23 C -0.12537 1.17914 -0.37305
 N24 N -0.16028 1.16317 -0.39156
 C25 C 0.67897 0.62876 0.62632
 N26 N 0.66035 0.66362 0.61045
 C27 C 0.62573 0.68037 0.62875
 N28 N 0.60985 0.66164 0.66346
 C29 C 0.62806 0.62674 0.67978
 N30 N 0.66265 0.61055 0.66105
 C31 C 0.81978 0.37092 0.12569
 N32 N 0.83856 0.33615 0.10971
 C33 C 0.87346 0.31959 0.12781
 N34 N 0.88953 0.33838 0.16244
 C35 C 0.87128 0.37316 0.17888
 N36 N 0.83645 0.38915 0.16034
 C37 C 0.31963 0.12794 0.87424
 N38 N 0.33852 0.16258 0.89029
 C39 C 0.37335 0.17889 0.87220
 N40 N 0.38930 0.16022 0.83754
 C41 C 0.37095 0.12557 0.82102
 N42 N 0.33614 0.10969 0.83953
 C43 C 0.18063 0.87175 0.37407
 N44 N 0.16408 0.89001 0.33933
 C45 C 0.12927 0.87414 0.32071
 N46 N 0.11093 0.83948 0.33715
 C47 C 0.12692 0.82079 0.37184
 N48 N 0.16176 0.83709 0.39005
 Zn49 Zn 0.00893 1.05021 -0.02659
 Zn50 Zn -0.03320 0.96648 -0.03405
 Zn51 Zn 0.05036 0.97400 0.00836
 Zn52 Zn -0.02588 1.00897 0.04936
 O53 O -0.00001 0.99985 -0.00080
 O54 O -0.01640 1.05339 -0.07626
 O55 O -0.00785 0.91814 -0.04845
 O56 O 0.09399 1.00358 -0.01070
 O57 O -0.04772 0.99168 -0.08229
 O58 O 0.06317 1.06022 -0.03660
 O59 O 0.05375 0.92421 -0.01690
 O60 O 0.00374 0.98991 0.09304
 O61 O -0.08147 0.95199 -0.00895
 O62 O 0.06039 0.96396 0.06253
 O63 O -0.07552 0.98355 0.05253
 O64 O -0.03618 1.06326 0.05927
 O65 O -0.01034 1.09398 0.00283
 C66 C -0.03893 1.02775 -0.09646
 C67 C 0.02823 0.90396 -0.03953
 C68 C 0.09573 1.03872 -0.02907
 C69 C 0.03891 0.97153 0.09494
 C70 C -0.09568 0.96089 0.02699
 C71 C -0.02877 1.09580 0.03784
 Zn72 Zn 0.49132 -0.04995 0.47402
 Zn73 Zn 0.52622 -0.00852 0.54999
 Zn74 Zn 0.53338 0.03379 0.46654
 Zn75 Zn 0.44985 0.02622 0.50876
 O76 O 0.50026 0.00045 0.49976
 O77 O 0.51056 -0.09364 0.50362
 O78 O 0.57586 0.01698 0.55325
 O79 O 0.54787 0.00854 0.41837
 O80 O 0.53651 -0.06279 0.56004
 O81 O 0.51666 -0.05322 0.42445
 O82 O 0.58166 0.04841 0.49171
 O83 O 0.44641 0.07599 0.48350
 O84 O 0.49661 0.01052 0.59356
 O85 O 0.50796 0.08207 0.45206
 O86 O 0.43982 0.03624 0.56290
 O87 O 0.40623 -0.00341 0.48958
 O88 O 0.43710 -0.06004 0.46383
 C89 C 0.52899 -0.09538 0.53869
 C90 C 0.59594 0.03963 0.52771
 C91 C 0.53913 -0.02758 0.40425
 C92 C 0.47189 0.09624 0.46092
 C93 C 0.46136 0.02876 0.59536
 C94 C 0.40451 -0.03858 0.47125
 Zn95 Zn 0.95011 0.47334 0.49099
 Zn96 Zn 1.03366 0.46567 0.53355
 Zn97 Zn 1.02631 0.50824 0.45015
 Zn98 Zn 0.99130 0.54942 0.52613
 O99 O 1.00042 0.49910 0.50028
 O100 O 0.94681 0.42357 0.51617
 O101 O 1.08201 0.45115 0.50846
 O102 O 0.99685 0.48918 0.40639
 O103 O 1.00836 0.41733 0.54783
 O104 O 0.94019 0.46331 0.43679
 O105 O 1.07603 0.48284 0.44703
 O106 O 1.01044 0.59319 0.49677
 O107 O 1.04810 0.49084 0.58186
 O108 O 1.03642 0.56253 0.44030
 O109 O 1.01662 0.55257 0.57581
 O110 O 0.93704 0.55946 0.53613
 O111 O 0.90637 0.50294 0.51001
 C112 C 0.97231 0.40324 0.53882
 C113 C 1.09623 0.46011 0.47254
 C114 C 0.96173 0.47082 0.40442
 C115 C 1.02888 0.59505 0.46178
 C116 C 1.03923 0.52693 0.59602
 C117 C 0.90453 0.53803 0.52848
 Zn118 Zn 0.47378 0.49150 0.95072
 Zn119 Zn 0.55000 0.52633 0.99189
 Zn120 Zn 0.46638 0.53399 1.03408
 Zn121 Zn 0.50878 0.45027 1.02683
 O122 O 0.49967 0.50059 1.00095
 O123 O 0.50327 0.51059 0.90710
 O124 O 0.55329 0.57606 1.01720
 O125 O 0.41805 0.54855 1.00883
 O126 O 0.55989 0.53649 0.93774
 O127 O 0.42405 0.51691 0.94739
 O128 O 0.49165 0.58228 1.04850
 O129 O 0.48349 0.44713 1.07645
 O130 O 0.59375 0.49664 1.01094
 O131 O 0.45193 0.50882 1.08231
 O132 O 0.56305 0.44013 1.03690
 O133 O 0.48958 0.40655 0.99740
 O134 O 0.46368 0.43722 0.94081
 C135 C 0.53836 0.52899 0.90528
 C136 C 0.52772 0.59637 1.03970
 C137 C 0.40384 0.53963 0.97284
 C138 C 0.46084 0.47276 1.09655
 C139 C 0.59559 0.46150 1.02932
 C140 C 0.47119 0.40470 0.96232
 C141 C 1.20895 0.41730 0.43055
 C142 C 1.22636 0.43781 0.39610
 C143 C 1.26354 0.42317 0.37828
 C144 C 1.28403 0.38751 0.39462
 C145 C 1.26641 0.36751 0.42984
 C146 C 1.22915 0.38229 0.44754
 C147 C 1.16964 0.43161 0.44734
 C148 C 1.13630 0.44420 0.45984
 H149 H 1.21092 0.46493 0.38266
 H150 H 1.27584 0.43968 0.35139
 H151 H 1.28101 0.34010 0.44358
 H152 H 1.21589 0.36613 0.47419
 C153 C 0.29119 0.58271 0.93053
 C154 C 0.27368 0.56223 0.89605
 C155 C 0.23652 0.57695 0.87814
 C156 C 0.21612 0.61266 0.89443
 C157 C 0.23383 0.63264 0.92967
 C158 C 0.27108 0.61778 0.94746
 C159 C 0.33048 0.56829 0.94742
 C160 C 0.36380 0.55562 0.96000
 H161 H 0.28904 0.53506 0.88265
 H162 H 0.22415 0.56045 0.85124
 H163 H 0.21930 0.66008 0.94337
 H164 H 0.28441 0.63391 0.97414
 C165 C -0.20833 0.91808 0.06874
 C166 C -0.22804 0.88265 0.05212
 C167 C -0.26530 0.86793 0.06976
 C168 C -0.28326 0.88845 0.10439
 C169 C -0.26341 0.92439 0.12045
 C170 C -0.22623 0.93903 0.10275
 C171 C -0.16901 0.93239 0.05208
 C172 C -0.13569 0.94498 0.03966
 H173 H -0.21439 0.86615 0.02585
 H174 H -0.27970 0.84020 0.05657
 H175 H -0.27631 0.94101 0.14700
 H176 H -0.21118 0.96645 0.11591
 C177 C 0.70857 0.08291 0.56952
 C178 C 0.72623 0.06253 0.60401
 C179 C 0.76345 0.07722 0.62170
 C180 C 0.78376 0.11281 0.60518
 C181 C 0.76589 0.13271 0.56995
 C182 C 0.72857 0.11787 0.55238
 C183 C 0.66925 0.06845 0.55284
 C184 C 0.63594 0.05570 0.54042
 H185 H 0.71096 0.03545 0.61757
 H186 H 0.77594 0.06079 0.64860
 H187 H 0.78034 0.16006 0.55610
 H188 H 0.71511 0.13393 0.52569
 C189 C 0.42961 0.20898 0.41803
 C190 C 0.44679 0.22917 0.38328
 C191 C 0.42906 0.26649 0.36849
 C192 C 0.39364 0.28417 0.38823
 C193 C 0.37711 0.26368 0.42363
 C194 C 0.39495 0.22645 0.43828
 C195 C 0.44644 0.16963 0.43239
 C196 C 0.45901 0.13629 0.44502
 H197 H 0.47361 0.21587 0.36733
 H198 H 0.44295 0.28110 0.34128
 H199 H 0.35006 0.27602 0.43994
 H200 H 0.38137 0.21102 0.46520
 C201 C 0.92981 0.29066 0.58142
 C202 C 0.94702 0.27033 0.61616
 C203 C 0.92919 0.23315 0.63096
 C204 C 0.89362 0.21573 0.61124
 C205 C 0.87704 0.23634 0.57584
 C206 C 0.89499 0.27345 0.56118
 C207 C 0.94676 0.32990 0.56712
 C208 C 0.95942 0.36320 0.55460
 H209 H 0.97396 0.28343 0.63211
 H210 H 0.94313 0.21845 0.65816
 H211 H 0.84988 0.22420 0.55955
 H212 H 0.88138 0.28899 0.53426
 C213 C 0.07055 0.79126 -0.08245
 C214 C 0.05336 0.77107 -0.11727
 C215 C 0.07109 0.73377 -0.13205
 C216 C 0.10654 0.71609 -0.11225
 C217 C 0.12310 0.73658 -0.07680
 C218 C 0.10525 0.77379 -0.06215
 C219 C 0.05369 0.83058 -0.06807
 C220 C 0.04111 0.86391 -0.05544
 H221 H 0.02650 0.78437 -0.13326
 H222 H 0.05718 0.71917 -0.15930
 H223 H 0.15018 0.72425 -0.06043
 H224 H 0.11886 0.78921 -0.03518
 C225 C 0.56977 0.70912 1.08237
 C226 C 0.55271 0.72930 1.11722
 C227 C 0.57038 0.76661 1.13193
 C228 C 0.60564 0.78430 1.11201
 C229 C 0.62206 0.76382 1.07652
 C230 C 0.60426 0.72660 1.06194
 C231 C 0.55300 0.66978 1.06810
 C232 C 0.54050 0.63643 1.05554
 H233 H 0.52601 0.71599 1.13330
 H234 H 0.55659 0.78121 1.15921
 H235 H 0.64898 0.77617 1.06007
 H236 H 0.61775 0.71117 1.03494
 C237 C 0.41791 0.43087 1.20896
 C238 C 0.43879 0.39670 1.22689
 C239 C 0.42408 0.37892 1.26397
 C240 C 0.38813 0.39507 1.28371
 C241 C 0.36767 0.42986 1.26573
 C242 C 0.38246 0.44757 1.22857
 C243 C 0.43229 0.44760 1.16974
 C244 C 0.44493 0.46005 1.13649
 H245 H 0.46622 0.38346 1.21193
 H246 H 0.44066 0.35226 1.27689
 H247 H 0.33994 0.44311 1.28004
 H248 H 0.36600 0.47396 1.21491
 C249 C 0.58180 -0.06942 0.29169
 C250 C 0.61706 -0.05263 0.27193
 C251 C 0.63171 -0.07024 0.23464
 C252 C 0.61130 -0.10501 0.21670
 C253 C 0.57554 -0.12125 0.23661
 C254 C 0.56097 -0.10357 0.27381
 C255 C 0.56754 -0.05275 0.33099
 C256 C 0.55499 -0.04032 0.36429
 H257 H 0.63347 -0.02624 0.28555
 H258 H 0.65930 -0.05692 0.22020
 H259 H 0.55900 -0.14791 0.22373
 H260 H 0.53368 -0.11686 0.28890
 C261 C -0.08189 1.06952 -0.20908
 C262 C -0.11738 1.05289 -0.22869
 C263 C -0.13221 1.07053 -0.26593
 C264 C -0.11175 1.10517 -0.28399
 C265 C -0.07576 1.12124 -0.26426
 C266 C -0.06100 1.10353 -0.22709
 C267 C -0.06749 1.05287 -0.16978
 C268 C -0.05485 1.04046 -0.13646
 H269 H -0.13384 1.02662 -0.21496
 H270 H -0.15998 1.05735 -0.28025
 H271 H -0.05917 1.14779 -0.27723
 H272 H -0.03354 1.11670 -0.21212
 C273 C 1.08213 0.56909 0.70852
 C274 C 1.06133 0.60338 0.72624
 C275 C 1.07605 0.62126 0.76333
 C276 C 1.11193 0.60508 0.78329
 C277 C 1.13232 0.57018 0.76550
 C278 C 1.11751 0.55237 0.72834
 C279 C 1.06775 0.55224 0.66929
 C280 C 1.05513 0.53970 0.63602
 H281 H 1.03395 0.61664 0.71112
 H282 H 1.05953 0.64801 0.77609
 H283 H 1.16000 0.55689 0.77998
 H284 H 1.13392 0.52589 0.71484
 C285 C 0.79228 0.58082 0.57172
 C286 C 0.77267 0.61605 0.55445
 C287 C 0.73549 0.63135 0.57181
 C288 C 0.71747 0.61161 0.60680
 C289 C 0.73721 0.57586 0.62356
 C290 C 0.77435 0.56063 0.60613
 C291 C 0.83146 0.56600 0.55512
 C292 C 0.86466 0.55340 0.54229
 H293 H 0.78635 0.63196 0.52785
 H294 H 0.72118 0.65891 0.55808
 H295 H 0.72425 0.55984 0.65042
 H296 H 0.78932 0.53336 0.61978
 C297 C 0.70794 0.41824 1.07231
 C298 C 0.72761 0.38326 1.05472
 C299 C 0.76487 0.36784 1.07197
 C300 C 0.78305 0.38718 1.10731
 C301 C 0.76307 0.42281 1.12430
 C302 C 0.72587 0.43809 1.10694
 C303 C 0.66871 0.43320 1.05579
 C304 C 0.63549 0.44595 1.04305
 H305 H 0.71394 0.36762 1.02792
 H306 H 0.77906 0.34048 1.05775
 H307 H 0.77581 0.43883 1.15132
 H308 H 0.71085 0.46519 1.12083
 C309 C 0.20791 1.08130 -0.07232
 C310 C 0.22779 1.11610 -0.05469
 C311 C 0.26501 1.13127 -0.07196
 C312 C 0.28293 1.11188 -0.10738
 C313 C 0.26275 1.07643 -0.12442
 C314 C 0.22558 1.06139 -0.10702
 C315 C 0.16873 1.06660 -0.05572
 C316 C 0.13556 1.05406 -0.04289
 H317 H 0.21432 1.13177 -0.02783
 H318 H 0.27937 1.15850 -0.05770
 H319 H 0.27530 1.06039 -0.15149
 H320 H 0.21038 1.03442 -0.12093
 C321 C 0.29235 -0.08143 0.42777
 C322 C 0.27256 -0.11628 0.44534
 C323 C 0.23534 -0.13153 0.42798
 C324 C 0.21733 -0.11215 0.39254
 C325 C 0.23743 -0.07665 0.37557
 C326 C 0.27460 -0.06155 0.39305
 C327 C 0.33152 -0.06664 0.44446
 C328 C 0.36469 -0.05401 0.45735
 H329 H 0.28609 -0.13195 0.47222
 H330 H 0.22105 -0.15879 0.44219
 H331 H 0.22482 -0.06062 0.34847
 H332 H 0.28972 -0.03454 0.37918
 C333 C 0.57220 -0.20771 0.58176
 C334 C 0.60677 -0.22574 0.56186
 C335 C 0.62418 -0.26296 0.57703
 C336 C 0.60729 -0.28287 0.61260
 C337 C 0.57200 -0.26460 0.63200
 C338 C 0.55471 -0.22731 0.61669
 C339 C 0.55562 -0.16848 0.56688
 C340 C 0.54282 -0.13526 0.55418
 H341 H 0.62059 -0.21077 0.53479
 H342 H 0.65117 -0.27578 0.56097
 H343 H 0.55785 -0.27874 0.65932
 H344 H 0.52794 -0.21356 0.63236
 C345 C 1.07227 0.70736 0.41937
 C346 C 1.05489 0.72702 0.38430
 C347 C 1.07227 0.76424 0.36912
 C348 C 1.10739 0.78224 0.38884
 C349 C 1.12427 0.76244 0.42442
 C350 C 1.10682 0.72527 0.43951
 C351 C 1.05563 0.66816 0.43406
 C352 C 1.04276 0.63495 0.44655
 H353 H 1.02818 0.71338 0.36842
 H354 H 1.05844 0.77860 0.34170
 H355 H 1.15123 0.77537 0.44041
 H356 H 1.12056 0.71025 0.46666
 C357 C -0.07255 1.20803 0.08059
 C358 C -0.05491 1.22781 0.11541
 C359 C -0.07237 1.26497 0.13078
 C360 C -0.10799 1.28295 0.11156
 C361 C -0.12503 1.26287 0.07609
 C362 C -0.10745 1.22575 0.06086
 C363 C -0.05578 1.16887 0.06574
 C364 C -0.04279 1.13569 0.05314
 H365 H -0.02790 1.21430 0.13096
 H366 H -0.05809 1.27924 0.15800
 H367 H -0.15226 1.27546 0.06018
 H368 H -0.12138 1.21064 0.03389
 C369 C 0.42791 0.29236 0.91982
 C370 C 0.39342 0.27442 0.93990
 C371 C 0.37600 0.23722 0.92478
 C372 C 0.39287 0.21744 0.88924
 C373 C 0.42794 0.23547 0.86960
 C374 C 0.44529 0.27271 0.88480
 C375 C 0.44450 0.33159 0.93453
 C376 C 0.45733 0.36481 0.94704
 H377 H 0.37968 0.28943 0.96701
 H378 H 0.34908 0.22426 0.94072
 H379 H 0.44175 0.22112 0.84221
 H380 H 0.47195 0.28639 0.86898
 C381 C 0.58079 0.57237 0.79323
 C382 C 0.61577 0.55482 0.77354
 C383 C 0.63087 0.57212 0.73634
 C384 C 0.61118 0.60734 0.71837
 C385 C 0.57570 0.62440 0.73820
 C386 C 0.56068 0.60702 0.77536
 C387 C 0.56613 0.55575 0.83237
 C388 C 0.55363 0.54288 0.86550
 H389 H 0.63163 0.52803 0.78716
 H390 H 0.65822 0.55816 0.72196
 H391 H 0.55972 0.65143 0.72529
 H392 H 0.53360 0.62090 0.79039
 C393 C 0.41848 0.07147 0.70752
 C394 C 0.43885 0.10565 0.72586
 C395 C 0.42374 0.12290 0.76305
 C396 C 0.38791 0.10619 0.78245
 C397 C 0.36796 0.07143 0.76401
 C398 C 0.38315 0.05425 0.72677
 C399 C 0.43326 0.05507 0.66833
 C400 C 0.44590 0.04242 0.63516
 H401 H 0.46620 0.11926 0.71117
 H402 H 0.43993 0.14957 0.77633
 H403 H 0.34033 0.05776 0.77806
 H404 H 0.36710 0.02783 0.71277
 C405 C 0.08170 0.92849 0.20717
 C406 C 0.11698 0.94572 0.22663
 C407 C 0.13218 0.92845 0.26388
 C408 C 0.11228 0.89358 0.28212
 C409 C 0.07651 0.87687 0.26251
 C410 C 0.06139 0.89421 0.22531
 C411 C 0.06693 0.94502 0.16796
 C412 C 0.05432 0.95778 0.13478
 H413 H 0.13298 0.97223 0.21280
 H414 H 0.15976 0.94214 0.27809
 H415 H 0.06037 0.85011 0.27563
 H416 H 0.03408 0.88059 0.21045
 C417 C 0.91910 0.42761 0.29222
 C418 C 0.93929 0.39312 0.27420
 C419 C 0.92411 0.37573 0.23706
 C420 C 0.88838 0.39262 0.21740
 C421 C 0.86862 0.42769 0.23552
 C422 C 0.88388 0.44500 0.27270
 C423 C 0.93388 0.44418 0.33139
 C424 C 0.94644 0.45700 0.36457
 H425 H 0.96655 0.37936 0.28910
 H426 H 0.94014 0.34881 0.22403
 H427 H 0.84108 0.44152 0.22128
 H428 H 0.86796 0.47166 0.28644
   
