data_POSCAR
  _audit_creation_date              2014-09-24
  _audit_creation_method            'ToBaCCo'
  _symmetry_space_group_name_H-M    'P1'
  _symmetry_Int_Tables_number       1
  _symmetry_cell_setting            triclinic
  loop_
  _symmetry_equiv_pos_as_xyz
 x,y,z
_cell_length_a 42.0040
_cell_length_b 41.9279
_cell_length_c 15.8729
_cell_angle_alpha 89.939600
_cell_angle_beta 89.881700
_cell_angle_gamma 120.013300
loop_
  _atom_site_label
  _atom_site_type_symbol
  _atom_site_fract_x
  _atom_site_fract_y
  _atom_site_fract_z
O1 O 0.18846 0.44967 0.41186
 O2 O 0.24749 0.44482 0.57826
 O3 O 0.18640 0.44838 0.57657
 O4 O 0.24729 0.44459 0.41496
 O5 O 0.28059 0.50535 0.41595
 O6 O 0.21949 0.50911 0.57720
 O7 O 0.28100 0.50547 0.57822
 O8 O 0.22196 0.51039 0.41404
 Cu9 Cu 0.21393 0.44077 0.49622
 Cu10 Cu 0.25404 0.51369 0.49752
 C11 C 0.19556 0.48103 0.38409
 C12 C 0.27528 0.47430 0.60396
 C13 C 0.19187 0.47932 0.60255
 C14 C 0.27433 0.47435 0.38802
 O15 O 0.55374 -0.26001 0.42018
 O16 O 0.55866 -0.19435 0.58092
 O17 O 0.55487 -0.25871 0.58315
 O18 O 0.55543 -0.19717 0.41627
 O19 O 0.49476 -0.22598 0.42112
 O20 O 0.49424 -0.28711 0.58682
 O21 O 0.49804 -0.22252 0.58485
 O22 O 0.49309 -0.28886 0.42551
 Cu23 Cu 0.56177 -0.22454 0.50000
 Cu24 Cu 0.48896 -0.25876 0.50539
 C25 C 0.52267 -0.28606 0.39662
 C26 C 0.52924 -0.19691 0.60947
 C27 C 0.52433 -0.28426 0.61126
 C28 C 0.52500 -0.20132 0.39015
 O29 O 1.20038 0.75041 0.58421
 O30 O 1.26376 0.81002 0.42048
 O31 O 1.20492 0.74421 0.42281
 O32 O 1.26403 0.81086 0.58562
 O33 O 1.29421 0.78044 0.59586
 O34 O 1.23770 0.71640 0.43227
 O35 O 1.29622 0.78203 0.43169
 O36 O 1.23020 0.71955 0.59258
 Cu37 Cu 1.23033 0.78190 0.50195
 Cu38 Cu 1.26783 0.74692 0.51427
 C39 C 1.20364 0.72427 0.61466
 C40 C 1.29104 0.80683 0.39866
 C41 C 1.21107 0.71847 0.40140
 C42 C 1.28925 0.80653 0.61860
 O43 O 0.72162 0.51684 0.57167
 O44 O 0.79057 0.53166 0.40865
 O45 O 0.72780 0.52833 0.40929
 O46 O 0.78524 0.51809 0.57000
 O47 O 0.75658 0.45816 0.54696
 O48 O 0.69960 0.46833 0.38642
 O49 O 0.76250 0.47163 0.38656
 O50 O 0.69298 0.45707 0.54706
 Cu51 Cu 0.75912 0.52972 0.49331
 Cu52 Cu 0.72509 0.45773 0.46530
 C53 C 0.69484 0.48457 0.58523
 C54 C 0.78798 0.50408 0.36933
 C55 C 0.70418 0.49994 0.36988
 C56 C 0.78132 0.48646 0.58414
 O57 O 0.44099 0.24700 0.42377
 O58 O 0.44691 0.18643 0.58409
 O59 O 0.44318 0.24693 0.58740
 O60 O 0.44546 0.18710 0.42080
 O61 O 0.50608 0.22055 0.41718
 O62 O 0.50380 0.27992 0.58401
 O63 O 0.50751 0.21909 0.57902
 O64 O 0.50158 0.28060 0.42116
 Cu65 Cu 0.43807 0.21355 0.50452
 Cu66 Cu 0.51082 0.25346 0.50014
 C67 C 0.47027 0.27448 0.39615
 C68 C 0.47813 0.19172 0.60716
 C69 C 0.47311 0.27406 0.61286
 C70 C 0.47622 0.19323 0.39189
 O71 O 0.80873 0.26459 0.58388
 O72 O 0.74912 0.20212 0.41930
 O73 O 0.81024 0.26519 0.41866
 O74 O 0.74285 0.20583 0.58072
 O75 O 0.71552 0.23907 0.57146
 O76 O 0.78076 0.29634 0.40924
 O77 O 0.71917 0.23284 0.41112
 O78 O 0.78114 0.29748 0.57360
 Cu79 Cu 0.78071 0.23142 0.50196
 Cu80 Cu 0.74657 0.26980 0.49021
 C81 C 0.80564 0.29190 0.60644
 C82 C 0.72341 0.20600 0.38885
 C83 C 0.80654 0.29094 0.38621
 C84 C 0.71718 0.21208 0.60193
 N85 N 0.96114 0.54738 0.09186
 N86 N 0.93259 0.55167 0.10868
 N87 N 1.04146 0.56809 0.13785
 N88 N 1.06782 0.58878 0.19133
 N89 N 1.03810 0.58868 0.08026
 N90 N 1.06177 0.62384 0.09312
 N91 N 0.96443 0.52690 0.14992
 N92 N 0.93832 0.51637 0.20693
 C93 C 0.91877 0.53200 0.18092
 C94 C 1.08044 0.62343 0.16182
 N95 N 1.04196 0.47592 0.08666
 N96 N 1.06672 0.46630 0.10546
 N97 N 0.96664 0.45993 0.15318
 N98 N 0.94315 0.44268 0.21484
 N99 N 0.96500 0.43636 0.09649
 N100 N 0.94065 0.40228 0.11881
 N101 N 1.04358 0.50036 0.14087
 N102 N 1.06944 0.50822 0.19713
 Mn103 Mn 1.00420 0.51393 0.14600
 C104 C 1.08389 0.48718 0.17400
 C105 C 0.92710 0.40688 0.19253
 N106 N 1.03458 0.58524 -0.10009
 N107 N 1.06373 0.61828 -0.11037
 N108 N 0.95693 0.52196 -0.14795
 N109 N 0.92927 0.51251 -0.20044
 N110 N 0.95734 0.54462 -0.09042
 N111 N 0.93041 0.55167 -0.10277
 N112 N 1.03456 0.56218 -0.15611
 N113 N 1.06364 0.57882 -0.20566
 Mn114 Mn 0.99762 0.56677 -0.00478
 C115 C 1.08147 0.61383 -0.17668
 C116 C 0.91289 0.53112 -0.17094
 N117 N 0.96013 0.43304 -0.08671
 N118 N 0.93260 0.39891 -0.09658
 N119 N 1.03634 0.49432 -0.15367
 N120 N 1.06323 0.50369 -0.20878
 N121 N 1.03756 0.47279 -0.09513
 N122 N 1.06515 0.46684 -0.10884
 N123 N 0.95892 0.45466 -0.14506
 N124 N 0.93055 0.43617 -0.19517
 Mn125 Mn 1.00104 0.45404 0.00014
 Mn126 Mn 0.99675 0.50831 -0.15170
 Cl127 Cl 0.99989 0.51070 -0.00253
 C128 C 0.91427 0.40148 -0.16430
 C129 C 1.08098 0.48637 -0.17969
 N130 N 0.45253 0.41684 0.08962
 N131 N 0.44656 0.38310 0.10249
 N132 N 0.43591 0.47850 0.14211
 N133 N 0.41792 0.48924 0.19163
 N134 N 0.41417 0.45597 0.08393
 N135 N 0.38050 0.45051 0.09278
 N136 N 0.47396 0.43921 0.14847
 N137 N 0.48343 0.42150 0.20242
 C138 C 0.46617 0.38654 0.17302
 C139 C 0.38346 0.47167 0.16008
 N140 N 0.52812 0.56912 0.09084
 N141 N 0.53562 0.60329 0.10410
 N142 N 0.54211 0.50730 0.15277
 N143 N 0.55850 0.49799 0.21025
 N144 N 0.56588 0.52967 0.09684
 N145 N 0.59939 0.53653 0.11535
 N146 N 0.50428 0.54668 0.14656
 N147 N 0.49471 0.56487 0.19895
 Mn148 Mn 0.48900 0.49291 0.14824
 C149 C 0.51433 0.60011 0.17132
 C150 C 0.59407 0.51633 0.18617
 N151 N 0.41707 0.45641 -0.09755
 N152 N 0.38350 0.45020 -0.11220
 N153 N 0.47881 0.44010 -0.14885
 N154 N 0.48982 0.42246 -0.19908
 N155 N 0.45550 0.41755 -0.09234
 N156 N 0.44977 0.38384 -0.10309
 N157 N 0.44031 0.47930 -0.15371
 N158 N 0.42315 0.48949 -0.20775
 Mn159 Mn 0.43441 0.43624 -0.00415
 C160 C 0.38772 0.47111 -0.18089
 C161 C 0.47150 0.38744 -0.16969
 N162 N 0.56918 0.53041 -0.08542
 N163 N 0.60367 0.53915 -0.09843
 N164 N 0.50948 0.54778 -0.14912
 N165 N 0.50045 0.56626 -0.20197
 N166 N 0.53135 0.56967 -0.09015
 N167 N 0.53809 0.60367 -0.10158
 N168 N 0.54782 0.50837 -0.14491
 N169 N 0.56722 0.50112 -0.19934
 Mn170 Mn 0.54904 0.55004 0.00301
 Mn171 Mn 0.49408 0.49389 -0.15027
 Cl172 Cl 0.49166 0.49326 -0.00093
 C173 C 0.60197 0.52028 -0.16897
 C174 C 0.51851 0.60104 -0.17127
 N175 N 0.43148 -0.03818 0.09085
 N176 N 0.39781 -0.06653 0.10050
 N177 N 0.49205 0.03969 0.15148
 N178 N 0.50132 0.06751 0.20332
 N179 N 0.47020 0.03944 0.09223
 N180 N 0.46388 0.06704 0.10217
 N181 N 0.45302 -0.03787 0.15110
 N182 N 0.43493 -0.06607 0.20241
 C183 C 0.40057 -0.08375 0.17027
 C184 C 0.48362 0.08435 0.17149
 N185 N 0.58332 0.03815 0.10442
 N186 N 0.61656 0.06689 0.11489
 N187 N 0.52053 -0.03846 0.15911
 N188 N 0.51155 -0.06422 0.21672
 N189 N 0.54321 -0.03940 0.10355
 N190 N 0.55070 -0.06566 0.12257
 N191 N 0.56014 0.03905 0.15868
 N192 N 0.57687 0.06837 0.20732
 Mn193 Mn 0.50646 0.00072 0.15592
 C194 C 0.61207 0.08542 0.17938
 C195 C 0.53038 -0.08103 0.19301
 N196 N 0.47396 0.04108 -0.08834
 N197 N 0.46643 0.06757 -0.10349
 N198 N 0.45872 -0.03510 -0.14805
 N199 N 0.44159 -0.05897 -0.20888
 N200 N 0.43506 -0.03608 -0.09239
 N201 N 0.40107 -0.06029 -0.11472
 N202 N 0.49822 0.04240 -0.14278
 N203 N 0.50785 0.06989 -0.19638
 Mn204 Mn 0.45219 0.00139 0.00066
 C205 C 0.48795 0.08548 -0.17055
 C206 C 0.40578 -0.07455 -0.18712
 N207 N 0.54637 -0.03867 -0.07940
 N208 N 0.55165 -0.06691 -0.09147
 N209 N 0.56645 0.04076 -0.13533
 N210 N 0.58705 0.06677 -0.19004
 N211 N 0.58697 0.03846 -0.07604
 N212 N 0.62200 0.06256 -0.08896
 N213 N 0.52603 -0.03685 -0.13993
 N214 N 0.51650 -0.06399 -0.19394
 Mn215 Mn 0.56525 -0.00055 0.01323
 Mn216 Mn 0.51249 0.00298 -0.14241
 Cl217 Cl 0.50906 0.00108 0.00667
 C218 C 0.53261 -0.08255 -0.16302
 C219 C 0.62157 0.08030 -0.15956
 C220 C 1.17287 0.48433 0.31798
 C221 C 1.14575 0.45529 0.27801
 C222 C 1.12051 0.45866 0.21819
 C223 C 1.11235 0.48561 0.22436
 H224 H 1.14153 0.42797 0.28945
 H225 H 1.10586 0.43658 0.17346
 H226 H 1.17885 0.51193 0.30255
 H227 H 1.12456 0.50605 0.27355
 C228 C 0.52164 0.68783 0.34049
 C229 C 0.49030 0.65716 0.31981
 C230 C 0.48945 0.62681 0.27083
 C231 C 0.51461 0.63161 0.21264
 H232 H 0.46442 0.65200 0.34678
 H233 H 0.46676 0.59936 0.28334
 H234 H 0.54768 0.69166 0.31787
 H235 H 0.53595 0.65902 0.19487
 C236 C 0.31565 -0.16815 0.33968
 C237 C 0.34718 -0.16673 0.31779
 C238 C 0.37606 -0.13629 0.26727
 C239 C 0.36978 -0.11668 0.20944
 H240 H 0.35433 -0.18590 0.34572
 H241 H 0.40408 -0.12969 0.27952
 H242 H 0.30971 -0.14754 0.31530
 H243 H 0.34202 -0.12436 0.19144
 C244 C 0.81521 0.50897 0.30481
 C245 C 0.83969 0.54191 0.27265
 C246 C 0.87009 0.54680 0.21676
 C247 C 0.88634 0.52667 0.22772
 H248 H 0.83782 0.56608 0.28809
 H249 H 0.88130 0.56933 0.17191
 H250 H 0.81531 0.48441 0.28409
 H251 H 0.87706 0.50640 0.27786
 C252 C 0.46737 0.30001 0.33677
 C253 C 0.49604 0.33353 0.32051
 C254 C 0.49331 0.36239 0.27290
 C255 C 0.46799 0.35590 0.21388
 H256 H 0.52220 0.34187 0.35042
 H257 H 0.51396 0.39057 0.28692
 H258 H 0.44043 0.29222 0.31219
 H259 H 0.44865 0.32806 0.19448
 C260 C 0.69777 0.17776 0.32994
 C261 C 0.66433 0.17287 0.31376
 C262 C 0.63540 0.14022 0.26925
 C263 C 0.64207 0.11964 0.21526
 H264 H 0.65619 0.19120 0.34215
 H265 H 0.60722 0.13287 0.28254
 H266 H 0.70523 0.15802 0.30739
 H267 H 0.66989 0.12777 0.19652
 C268 C 0.47952 0.16622 -0.33833
 C269 C 0.51094 0.16664 -0.31976
 C270 C 0.51206 0.13685 -0.27204
 C271 C 0.48735 0.11642 -0.21305
 H272 H 0.53665 0.18751 -0.34725
 H273 H 0.53470 0.13219 -0.28552
 H274 H 0.45359 0.14378 -0.31564
 H275 H 0.46609 0.12245 -0.19459
 C276 C 0.66621 0.47880 -0.36021
 C277 C 0.66592 0.50590 -0.31606
 C278 C 0.63292 0.49949 -0.26864
 C279 C 0.63478 0.52381 -0.21164
 H280 H 0.68972 0.53342 -0.31668
 H281 H 0.60676 0.47504 -0.28169
 H282 H 0.64265 0.45120 -0.35589
 H283 H 0.66123 0.54727 -0.19572
 C284 C 0.83041 0.31612 -0.33395
 C285 C 0.83150 0.34741 -0.31083
 C286 C 0.86152 0.37626 -0.25979
 C287 C 0.88184 0.37026 -0.20355
 H288 H 0.81220 0.35450 -0.33804
 H289 H 0.86719 0.40416 -0.27037
 H290 H 0.85098 0.31010 -0.31000
 H291 H 0.87522 0.34254 -0.18717
 C292 C 0.53185 -0.16891 -0.33022
 C293 C 0.50295 -0.16473 -0.31250
 C294 C 0.50555 -0.13342 -0.26401
 C295 C 0.53059 -0.11505 -0.20409
 H296 H 0.47675 -0.18273 -0.34209
 H297 H 0.48511 -0.12566 -0.27822
 H298 H 0.55879 -0.14947 -0.30599
 H299 H 0.54964 -0.12389 -0.18446
 C300 C 0.30032 0.47188 -0.34194
 C301 C 0.33313 0.50125 -0.32291
 C302 C 0.36276 0.49887 -0.27802
 C303 C 0.35700 0.47261 -0.22194
 H304 H 0.34050 0.52804 -0.34859
 H305 H 0.39066 0.52061 -0.29064
 H306 H 0.29400 0.44472 -0.32107
 H307 H 0.32930 0.45219 -0.20383
 C308 C 1.17503 0.69876 -0.32662
 C309 C 1.16931 0.66493 -0.31068
 C310 C 1.13622 0.63631 -0.26648
 C311 C 1.11607 0.64348 -0.21228
 H312 H 1.18724 0.65629 -0.33913
 H313 H 1.12817 0.60795 -0.28018
 H314 H 1.15568 0.70674 -0.30407
 H315 H 1.12490 0.67142 -0.19297
 C316 C 0.80665 0.48226 -0.35911
 C317 C 0.83180 0.51006 -0.31307
 C318 C 0.86029 0.50647 -0.26722
 C319 C 0.88194 0.53193 -0.21164
 H320 H 0.83232 0.53618 -0.31162
 H321 H 0.86416 0.48326 -0.28054
 H322 H 0.80572 0.45594 -0.35841
 H323 H 0.87704 0.55425 -0.19572
 C324 C 0.47168 0.29979 -0.32642
 C325 C 0.50101 0.33305 -0.31219
 C326 C 0.49929 0.36251 -0.26533
 C327 C 0.47364 0.35662 -0.20756
 H328 H 0.52677 0.34074 -0.34373
 H329 H 0.52037 0.39050 -0.28004
 H330 H 0.44511 0.29258 -0.30016
 H331 H 0.45376 0.32898 -0.18766
 C332 C 0.68743 0.18708 -0.34145
 C333 C 0.68721 0.15900 -0.30160
 C334 C 0.65401 0.13205 -0.25624
 C335 C 0.65504 0.10865 -0.20117
 H336 H 0.71093 0.15525 -0.30447
 H337 H 0.62821 0.13125 -0.26841
 H338 H 0.66387 0.19099 -0.33560
 H339 H 0.68103 0.11055 -0.18540
 C340 C 1.16478 0.48010 -0.33971
 C341 C 1.16163 0.51021 -0.33053
 C342 C 1.13107 0.51028 -0.28413
 C343 C 1.11269 0.48703 -0.22101
 H344 H 1.18002 0.53504 -0.36506
 H345 H 1.12394 0.53081 -0.30250
 H346 H 1.14472 0.45425 -0.31133
 H347 H 1.12105 0.46804 -0.19795
 C348 C 0.52417 0.68980 -0.33347
 C349 C 0.49306 0.65889 -0.31218
 C350 C 0.49286 0.62811 -0.26680
 C351 C 0.51827 0.63266 -0.21016
 H352 H 0.46689 0.65374 -0.33694
 H353 H 0.47044 0.60066 -0.28029
 H354 H 0.55050 0.69353 -0.31374
 H355 H 0.53917 0.66000 -0.19101
 C356 C 0.31443 -0.16787 -0.31805
 C357 C 0.31217 -0.13943 -0.28681
 C358 C 0.34081 -0.11219 -0.23028
 C359 C 0.37626 -0.10247 -0.23927
 H360 H 0.28894 -0.13603 -0.30217
 H361 H 0.33289 -0.09826 -0.18456
 H362 H 0.33643 -0.17246 -0.29769
 H363 H 0.38463 -0.11400 -0.28989
 C364 C 0.52399 -0.17683 0.32543
 C365 C 0.55417 -0.15073 0.28643
 C366 C 0.55335 -0.12307 0.23009
 C367 C 0.52969 -0.11091 0.24229
 H368 H 0.58042 -0.14918 0.29628
 H369 H 0.57466 -0.11028 0.18261
 H370 H 0.49736 -0.17998 0.31124
 H371 H 0.51030 -0.12145 0.29411
 C372 C 0.29918 0.47242 0.32566
 C373 C 0.33067 0.50236 0.30302
 C374 C 0.35934 0.50064 0.25323
 C375 C 0.35280 0.47406 0.19763
 H376 H 0.33789 0.52888 0.32984
 H377 H 0.38735 0.52238 0.26435
 H378 H 0.29273 0.44543 0.30351
 H379 H 0.32501 0.45356 0.18072
 C380 C 1.18643 0.68907 0.34403
 C381 C 1.15864 0.68906 0.30376
 C382 C 1.13207 0.65598 0.25781
 C383 C 1.10858 0.65698 0.20324
 H384 H 1.15481 0.71275 0.30690
 H385 H 1.13153 0.63020 0.26941
 H386 H 1.19037 0.66550 0.33794
 H387 H 1.11010 0.68293 0.18819
 C388 C 0.47698 0.16717 0.33133
 C389 C 0.50781 0.16602 0.31666
 C390 C 0.50837 0.13602 0.26970
 C391 C 0.48411 0.11641 0.20972
 H392 H 0.53305 0.18537 0.34810
 H393 H 0.52985 0.12997 0.28593
 H394 H 0.45097 0.14623 0.30579
 H395 H 0.46409 0.12365 0.18831
 C396 C 0.68059 0.50278 0.30616
 C397 C 0.68586 0.53504 0.27689
 C398 C 0.65855 0.53716 0.22253
 C399 C 0.62259 0.51410 0.23379
 H400 H 0.71037 0.56051 0.29363
 H401 H 0.66796 0.55970 0.17799
 H402 H 0.65750 0.47722 0.28407
 H403 H 0.61315 0.49365 0.28356
 C404 C 0.83256 0.31622 0.32315
 C405 C 0.86025 0.31304 0.29053
 C406 C 0.88795 0.34162 0.23413
 C407 C 0.89896 0.37734 0.24478
 H408 H 0.86264 0.28904 0.30451
 H409 H 0.90103 0.33333 0.18699
 H410 H 0.82890 0.33900 0.30403
 H411 H 0.88819 0.38590 0.29666
   
