data_POSCAR
  _audit_creation_date              2014-09-24
  _audit_creation_method            'ToBaCCo'
  _symmetry_space_group_name_H-M    'P1'
  _symmetry_Int_Tables_number       1
  _symmetry_cell_setting            triclinic
  loop_
  _symmetry_equiv_pos_as_xyz
 x,y,z
_cell_length_a 42.9764
_cell_length_b 42.9559
_cell_length_c 43.6489
_cell_angle_alpha 90.197400
_cell_angle_beta 89.706000
_cell_angle_gamma 90.342300
loop_
  _atom_site_label
  _atom_site_type_symbol
  _atom_site_fract_x
  _atom_site_fract_y
  _atom_site_fract_z
C1 C 0.14302 0.16900 0.19026
 C2 C 0.14105 0.19083 0.16664
 C3 C 0.16471 0.19323 0.14533
 C4 C 0.19042 0.17351 0.14705
 C5 C 0.19280 0.15206 0.17057
 C6 C 0.16879 0.14990 0.19268
 C7 C 0.12254 0.16099 0.21309
 N8 N 0.13506 0.13777 0.22986
 C9 C 0.16349 0.13075 0.21767
 C10 C 0.21966 0.13522 0.16504
 N11 N 0.23300 0.14587 0.13859
 C12 C 0.21525 0.16929 0.12769
 C13 C 0.15649 0.21601 0.12486
 N14 N 0.12837 0.22750 0.13343
 C15 C 0.11859 0.21203 0.15876
 H16 H 0.09992 0.17126 0.21714
 H17 H 0.17873 0.11252 0.22555
 H18 H 0.22784 0.11586 0.17850
 H19 H 0.21965 0.18184 0.10660
 H20 H 0.16977 0.22326 0.10497
 H21 H 0.09682 0.21610 0.17067
 C22 C -0.14633 0.83272 0.19478
 C23 C -0.14205 0.80940 0.17261
 C24 C -0.16334 0.80580 0.14917
 C25 C -0.18899 0.82578 0.14737
 C26 C -0.19323 0.84880 0.16923
 C27 C -0.17156 0.85246 0.19298
 C28 C -0.12892 0.84197 0.21960
 N29 N -0.14276 0.86716 0.23276
 C30 C -0.16876 0.87378 0.21649
 C31 C -0.21963 0.86494 0.16139
 N32 N -0.23128 0.85245 0.13507
 C33 C -0.21254 0.82863 0.12633
 C34 C -0.15294 0.78189 0.13073
 N35 N -0.12576 0.77117 0.14234
 C36 C -0.11882 0.78796 0.16779
 H37 H -0.10723 0.83161 0.22664
 H38 H -0.18444 0.89285 0.22133
 H39 H -0.22884 0.88486 0.17356
 H40 H -0.21573 0.81447 0.10599
 H41 H -0.16387 0.77356 0.10994
 H42 H -0.09825 0.78487 0.18165
 C43 C -0.15108 0.16501 -0.19815
 C44 C -0.14959 0.18745 -0.17479
 C45 C -0.17393 0.19036 -0.15403
 C46 C -0.20004 0.17068 -0.15633
 C47 C -0.20144 0.14874 -0.17954
 C48 C -0.17674 0.14564 -0.20026
 C49 C -0.13063 0.15632 -0.22099
 N50 N -0.14328 0.13180 -0.23651
 C51 C -0.17139 0.12512 -0.22385
 C52 C -0.22912 0.13299 -0.17659
 N53 N -0.24456 0.14437 -0.15186
 C54 C -0.22692 0.16749 -0.13918
 C55 C -0.16591 0.21372 -0.13382
 N56 N -0.13735 0.22484 -0.14185
 C57 C -0.12711 0.20879 -0.16667
 H58 H -0.10791 0.16651 -0.22511
 H59 H -0.18684 0.10657 -0.23123
 H60 H -0.23728 0.11419 -0.19113
 H61 H -0.23305 0.18123 -0.11925
 H62 H -0.17955 0.22155 -0.11439
 H63 H -0.10494 0.21251 -0.17803
 C64 C 0.14795 0.83584 -0.19412
 C65 C 0.14947 0.81200 -0.17205
 C66 C 0.17131 0.81391 -0.14879
 C67 C 0.19199 0.83928 -0.14730
 C68 C 0.19001 0.86281 -0.16861
 C69 C 0.16797 0.86111 -0.19198
 C70 C 0.12855 0.84148 -0.21869
 N71 N 0.13642 0.86964 -0.23097
 C72 C 0.16037 0.88166 -0.21463
 C73 C 0.21148 0.88527 -0.16088
 N74 N 0.22698 0.87579 -0.13563
 C75 C 0.21513 0.84763 -0.12700
 C76 C 0.16584 0.78946 -0.12923
 N77 N 0.14138 0.77261 -0.13988
 C78 C 0.13121 0.78607 -0.16616
 H79 H 0.10960 0.82667 -0.22620
 H80 H 0.17145 0.90398 -0.21885
 H81 H 0.21566 0.90694 -0.17289
 H82 H 0.22205 0.83443 -0.10714
 H83 H 0.17798 0.78492 -0.10805
 H84 H 0.11101 0.77868 -0.17905
 C85 C 0.17152 1.14195 0.80690
 C86 C 0.19416 1.14161 0.82980
 C87 C 0.19594 1.16570 0.85075
 C88 C 0.17463 1.19021 0.84935
 C89 C 0.15242 1.19094 0.82644
 C90 C 0.15100 1.16658 0.80475
 C91 C 0.16389 1.12072 0.78460
 N92 N 0.13952 1.13179 0.76844
 C93 C 0.13139 1.15995 0.78049
 C94 C 0.13399 1.21663 0.83209
 N95 N 0.14433 1.23098 0.85808
 C96 C 0.16919 1.21498 0.86856
 C97 C 0.21982 1.15892 0.87057
 N98 N 0.23239 1.13127 0.86196
 C99 C 0.21666 1.12038 0.83730
 H100 H 0.17528 1.09866 0.78044
 H101 H 0.11219 1.17414 0.77298
 H102 H 0.11377 1.22324 0.81902
 H103 H 0.18187 1.22042 0.88931
 H104 H 0.22704 1.17272 0.89010
 H105 H 0.22136 1.09861 0.82564
 C106 C 0.82908 0.85705 0.80773
 C107 C 0.80773 0.85394 0.83198
 C108 C 0.81041 0.82940 0.85222
 C109 C 0.83413 0.80754 0.84834
 C110 C 0.85517 0.81054 0.82448
 C111 C 0.85244 0.83533 0.80383
 C112 C 0.83304 0.87923 0.78533
 N113 N 0.85782 0.87121 0.76761
 C114 C 0.86986 0.84432 0.77882
 C115 C 0.87650 0.78693 0.82742
 N116 N 0.86859 0.76951 0.85222
 C117 C 0.84261 0.78204 0.86514
 C118 C 0.78773 0.83287 0.87425
 N119 N 0.77105 0.85863 0.86764
 C120 C 0.78306 0.87177 0.84185
 H121 H 0.81889 0.89974 0.78214
 H122 H 0.89027 0.83248 0.77023
 H123 H 0.89644 0.78284 0.81271
 H124 H 0.83116 0.77416 0.88585
 H125 H 0.78375 0.81792 0.89382
 H126 H 0.77509 0.89317 0.83158
 C127 C 0.17342 0.84882 1.19555
 C128 C 0.19783 0.84312 1.17495
 C129 C 0.19583 0.81853 1.15453
 C130 C 0.16918 0.79963 1.15413
 C131 C 0.14503 0.80523 1.17444
 C132 C 0.14737 0.82976 1.19560
 C133 C 0.16914 0.87098 1.21793
 N134 N 0.14147 0.86542 1.23206
 C135 C 0.12788 0.84026 1.21843
 C136 C 0.12181 0.78398 1.16808
 N137 N 0.13147 0.76561 1.14461
 C138 C 0.16042 0.77502 1.13589
 C139 C 0.22290 0.81833 1.13757
 N140 N 0.24108 0.84233 1.14710
 C141 C 0.22600 0.85761 1.17003
 H142 H 0.18527 0.88946 1.22396
 H143 H 0.10537 0.83043 1.22417
 H144 H 0.09940 0.78220 1.17941
 H145 H 0.17375 0.76547 1.11702
 H146 H 0.22884 0.80216 1.11942
 H147 H 0.23497 0.87750 1.18254
 C148 C 0.83181 1.15427 1.20193
 C149 C 0.80463 1.15454 1.18427
 C150 C 0.80304 1.17327 1.15859
 C151 C 0.82829 1.19242 1.15058
 C152 C 0.85490 1.19249 1.16827
 C153 C 0.85684 1.17293 1.19383
 C154 C 0.84050 1.13733 1.22715
 N155 N 0.87039 1.14508 1.23433
 C156 C 0.88047 1.16683 1.21403
 C157 C 0.87524 1.21375 1.15561
 N158 N 0.86155 1.22648 1.13066
 C159 C 0.83303 1.21332 1.12715
 C160 C 0.77454 1.16808 1.14532
 N161 N 0.75882 1.14664 1.16232
 C162 C 0.77690 1.13841 1.18631
 H163 H 0.82628 1.11995 1.23850
 H164 H 0.90350 1.17721 1.21377
 H165 H 0.89826 1.21949 1.16392
 H166 H 0.81671 1.21909 1.10926
 H167 H 0.76595 1.17911 1.12479
 H168 H 0.77059 1.12140 1.20353
 O169 O 0.45385 0.94703 0.95168
 O170 O 0.42180 0.97935 0.97924
 C171 C 0.42659 0.95686 0.95985
 O172 O 0.53966 0.94218 1.06074
 O173 O 0.57623 0.96737 1.03129
 C174 C 0.56820 0.94807 1.05275
 O175 O 0.45231 0.94488 1.05612
 O176 O 0.42123 0.97936 1.03051
 C177 C 0.42533 0.95636 1.04904
 O178 O 0.54084 0.94652 0.94645
 O179 O 0.57706 0.96989 0.97757
 C180 C 0.56928 0.95197 0.95486
 Zr181 Zr 0.49833 0.96287 0.96517
 O182 O 0.49834 0.91367 0.96252
 O183 O 0.49418 0.96587 0.91696
 Zr184 Zr 0.49768 0.95943 1.04232
 O185 O 0.49574 0.91065 1.03612
 O186 O 0.49376 0.95453 1.09037
 O187 O 0.46986 0.95737 1.00364
 O188 O 0.52473 0.95335 1.00348
 O189 O 0.54950 1.05427 0.95268
 O190 O 0.58100 1.02202 0.98049
 C191 C 0.57663 1.04397 0.96076
 O192 O 0.46190 1.05688 1.06271
 O193 O 0.42555 1.03204 1.03277
 C194 C 0.43342 1.05126 1.05444
 O195 O 0.54915 1.04944 1.06326
 O196 O 0.58062 1.01976 1.03235
 C197 C 0.57627 1.03978 1.05409
 O198 O 0.46260 1.06340 0.95569
 O199 O 0.42597 1.03429 0.98137
 C200 C 0.43404 1.05656 0.96294
 Zr201 Zr 0.50447 1.04111 0.96849
 O202 O 0.51168 1.08986 0.96841
 O203 O 0.50108 1.04109 0.92008
 Zr204 Zr 0.50426 1.03790 1.04604
 O205 O 0.51080 1.08678 1.04779
 O206 O 0.50145 1.03588 1.09446
 Zr207 Zr 0.45500 1.00401 1.00570
 Zr208 Zr 0.54742 0.99679 1.00539
 O209 O 0.53158 1.04312 1.00740
 O210 O 0.47724 1.04783 1.00772
 O211 O 0.52919 1.00022 0.96075
 O212 O 0.47413 1.00046 1.04987
 O213 O 0.47425 1.00420 0.96132
 O214 O 0.52858 0.99634 1.05009
 H215 H 0.53761 0.93429 1.00270
 H216 H 0.46034 1.00050 1.06812
 H217 H 0.54664 1.06066 1.00820
 H218 H 0.45995 1.00576 0.94366
 H219 H 0.50666 0.97120 1.09955
 H220 H 0.51872 1.02270 1.10167
 H221 H 0.49318 1.09642 1.03692
 H222 H 0.49834 1.09864 0.98476
 H223 H 0.51992 1.03090 0.91175
 H224 H 0.51247 0.97759 0.90925
 H225 H 0.48410 0.90595 0.97872
 H226 H 0.49425 0.90162 1.05693
 O227 O -0.04754 0.45493 0.05404
 O228 O -0.02419 0.42071 0.02076
 C229 C -0.04154 0.42704 0.04434
 O230 O -0.06382 0.54242 -0.05351
 O231 O -0.03011 0.57671 -0.03037
 C232 C -0.05384 0.57031 -0.04755
 O233 O -0.06703 0.45548 -0.04988
 O234 O -0.03176 0.42095 -0.03040
 C235 C -0.05721 0.42746 -0.04482
 O236 O -0.04609 0.54190 0.05540
 O237 O -0.02250 0.57670 0.02274
 C238 C -0.03968 0.56998 0.04640
 Zr239 Zr -0.03324 0.49859 0.03615
 O240 O -0.08198 0.50047 0.04333
 O241 O -0.02550 0.50074 0.08404
 Zr242 Zr -0.04548 0.49889 -0.04027
 O243 O -0.09443 0.50171 -0.03681
 O244 O -0.04966 0.49531 -0.08852
 O245 O -0.04568 0.47099 -0.00124
 O246 O -0.04494 0.52575 -0.00092
 O247 O 0.06200 0.54157 0.03905
 O248 O 0.02942 0.57637 0.01575
 C249 C 0.05267 0.56959 0.03335
 O250 O 0.04598 0.45572 -0.07116
 O251 O 0.02198 0.42108 -0.03865
 C252 C 0.03961 0.42768 -0.06200
 O253 O 0.04315 0.54287 -0.07235
 O254 O 0.02180 0.57707 -0.03772
 C255 C 0.03747 0.57081 -0.06246
 O256 O 0.06407 0.45489 0.03442
 O257 O 0.02955 0.42066 0.01237
 C258 C 0.05428 0.42697 0.02818
 Zr259 Zr 0.04426 0.49848 0.02338
 O260 O 0.09273 0.50218 0.01503
 O261 O 0.05160 0.49525 0.07117
 Zr262 Zr 0.03188 0.49913 -0.05267
 O263 O 0.08071 0.50269 -0.05875
 O264 O 0.02542 0.49609 -0.10060
 Zr265 Zr -0.00101 0.45212 -0.00868
 Zr266 Zr -0.00048 0.54544 -0.00780
 O267 O 0.04379 0.52610 -0.01523
 O268 O 0.04390 0.47087 -0.01591
 O269 O 0.00661 0.52629 0.03595
 O270 O -0.00791 0.47178 -0.05222
 O271 O 0.00628 0.47131 0.03509
 O272 O -0.00766 0.52699 -0.05210
 H273 H -0.06318 0.53946 0.00201
 H274 H -0.01105 0.45769 -0.06997
 H275 H 0.06186 0.54029 -0.01792
 H276 H 0.00941 0.45698 0.05249
 H277 H -0.04356 0.51560 -0.09745
 H278 H 0.00935 0.51143 -0.10612
 H279 H 0.09013 0.48360 -0.05033
 H280 H 0.09878 0.48458 0.00164
 H281 H 0.03696 0.50982 0.08121
 H282 H -0.01343 0.48231 0.09028
 H283 H -0.09144 0.48194 0.03347
 H284 H -0.10003 0.49483 -0.01593
 O285 O 1.05510 -0.05744 0.54294
 O286 O 1.02711 -0.02704 0.57637
 C287 C 1.04693 -0.04892 0.57038
 O288 O 1.06093 0.05393 0.45663
 O289 O 1.03140 0.02568 0.42263
 C290 C 1.05299 0.04591 0.42902
 O291 O 1.05994 0.05387 0.54264
 O292 O 1.02937 0.02598 0.57609
 C293 C 1.05087 0.04637 0.57008
 O294 O 1.05296 -0.06056 0.45700
 O295 O 1.02949 -0.02765 0.42292
 C296 C 1.04690 -0.05125 0.42942
 Zr297 Zr 1.04088 -0.04021 0.49969
 O298 O 1.09010 -0.03701 0.49714
 O299 O 1.04504 -0.08918 0.50068
 Zr300 Zr 1.04365 0.03802 0.49950
 O301 O 1.09285 0.03594 0.49764
 O302 O 1.04540 0.08722 0.50167
 O303 O 1.04789 -0.00116 0.52733
 O304 O 1.04820 -0.00153 0.47282
 O305 O 0.94846 -0.05668 0.45610
 O306 O 0.97675 -0.02680 0.42240
 C307 C 0.95674 -0.04864 0.42863
 O308 O 0.94842 0.05724 0.54155
 O309 O 0.97585 0.02754 0.57557
 C310 C 0.95588 0.04900 0.56911
 O311 O 0.95017 0.05756 0.45607
 O312 O 0.97797 0.02731 0.42232
 C313 C 0.95802 0.04903 0.42861
 O314 O 0.94443 -0.05317 0.54179
 O315 O 0.97377 -0.02478 0.57592
 C316 C 0.95227 -0.04504 0.56938
 Zr317 Zr 0.96221 -0.03803 0.49894
 O318 O 0.91318 -0.03499 0.49518
 O319 O 0.95900 -0.08711 0.50209
 Zr320 Zr 0.96507 0.04050 0.49882
 O321 O 0.91593 0.04149 0.49607
 O322 O 0.96730 0.08971 0.50130
 Zr323 Zr 1.00211 0.00018 0.54498
 Zr324 Zr 1.00345 -0.00005 0.45338
 O325 O 0.95827 0.00118 0.47216
 O326 O 0.95702 0.00155 0.52628
 O327 O 1.00170 -0.04532 0.47211
 O328 O 1.00415 0.04508 0.52563
 O329 O 1.00087 -0.04481 0.52579
 O330 O 1.00497 0.04537 0.47165
 H331 H 1.06660 -0.00258 0.45910
 H332 H 1.00455 0.06397 0.53873
 H333 H 0.94011 0.00123 0.45827
 H334 H 0.99974 -0.06327 0.53928
 H335 H 1.03335 0.09518 0.48414
 H336 H 0.97969 0.09705 0.48356
 H337 H 0.90752 0.02964 0.51370
 H338 H 0.90541 -0.02431 0.51379
 H339 H 0.97440 -0.09585 0.48755
 H340 H 1.02397 -0.09763 0.50450
 H341 H 1.09787 -0.03160 0.51780
 H342 H 1.09990 0.02353 0.51532
 C343 C 1.11979 0.12422 0.25378
 C344 C 1.13358 0.10379 0.27439
 C345 C 1.11511 0.09075 0.29990
 N346 N 1.12878 0.08397 0.32702
 N347 N 1.11181 0.07339 0.35050
 C348 C 1.08062 0.06893 0.34760
 N349 N 1.06709 0.07514 0.32031
 N350 N 1.08397 0.08607 0.29699
 C351 C 1.06156 0.05695 0.37314
 C352 C 1.07083 0.05985 0.40357
 H353 H 1.15832 0.09936 0.27346
 H354 H 1.03928 0.04634 0.36786
 H355 H 1.09580 0.13077 0.25800
 H356 H 1.09197 0.07261 0.40892
 C357 C 0.86745 -0.11588 0.25721
 C358 C 0.89151 -0.12584 0.27616
 C359 C 0.90315 -0.10687 0.30180
 N360 N 0.91730 -0.12090 0.32574
 N361 N 0.92865 -0.10407 0.34885
 C362 C 0.92669 -0.07253 0.34867
 N363 N 0.91289 -0.05844 0.32454
 N364 N 0.90116 -0.07531 0.30159
 C365 C 0.93976 -0.05385 0.37388
 C366 C 0.94271 -0.06616 0.40320
 H367 H 0.90111 -0.14889 0.27345
 H368 H 0.94611 -0.02978 0.36964
 H369 H 0.85578 -0.09429 0.26288
 H370 H 0.93348 -0.08920 0.40799
 C371 C 0.86937 0.11538 0.73990
 C372 C 0.89552 0.12545 0.72362
 C373 C 0.90775 0.10699 0.69800
 N374 N 0.92000 0.12139 0.67307
 N375 N 0.93048 0.10475 0.64941
 C376 C 0.92944 0.07315 0.65005
 N377 N 0.91771 0.05876 0.67521
 N378 N 0.90679 0.07540 0.69868
 C379 C 0.94145 0.05467 0.62435
 C380 C 0.94155 0.06614 0.59457
 H381 H 0.90548 0.14825 0.72770
 H382 H 0.94948 0.03129 0.62883
 H383 H 0.85776 0.09422 0.73238
 H384 H 0.93080 0.08834 0.58980
 C385 C 1.12306 -0.11495 0.74536
 C386 C 1.10180 -0.12844 0.72516
 C387 C 1.08921 -0.11004 0.69970
 N388 N 1.08164 -0.12397 0.67278
 N389 N 1.07144 -0.10710 0.64932
 C390 C 1.06813 -0.07576 0.65206
 N391 N 1.07513 -0.06195 0.67916
 N392 N 1.08570 -0.07874 0.70246
 C393 C 1.05681 -0.05687 0.62641
 C394 C 1.05991 -0.06662 0.59608
 H395 H 1.09634 -0.15302 0.72635
 H396 H 1.04670 -0.03437 0.63146
 H397 H 1.13048 -0.09118 0.74098
 H398 H 1.07202 -0.08811 0.59103
 C399 C 0.25837 1.13487 1.12331
 C400 C 0.27864 1.11272 1.13510
 C401 C 0.30460 1.10097 1.11623
 N402 N 0.33119 1.09095 1.12954
 N403 N 0.35477 1.08060 1.11241
 C404 C 0.35248 1.07955 1.08137
 N405 N 0.32574 1.08914 1.06812
 N406 N 0.30234 1.09987 1.08520
 C407 C 0.37781 1.06711 1.06219
 C408 C 0.40858 1.06667 1.07208
 H409 H 0.27656 1.10501 1.15858
 H410 H 0.37213 1.05858 1.03950
 H411 H 0.26358 1.14434 1.10083
 H412 H 0.41459 1.07754 1.09371
 C413 C 0.25004 0.89272 0.87783
 C414 C 0.26951 0.88076 0.90035
 C415 C 0.29521 0.89946 0.91297
 N416 N 0.32078 0.88517 0.92416
 N417 N 0.34455 0.90186 0.93497
 C418 C 0.34347 0.93347 0.93532
 N419 N 0.31770 0.94777 0.92458
 N420 N 0.29407 0.93107 0.91340
 C421 C 0.36969 0.95198 0.94723
 C422 C 0.39978 0.94021 0.94680
 H423 H 0.26784 0.85656 0.90695
 H424 H 0.36549 0.97547 0.95528
 H425 H 0.25472 0.91604 0.86947
 H426 H 0.40402 0.91779 0.93616
 C427 C 0.74353 0.86201 1.11885
 C428 C 0.72210 0.88362 1.13011
 C429 C 0.69599 0.89463 1.11142
 N430 N 0.67029 0.90656 1.12520
 N431 N 0.64681 0.91729 1.10853
 C432 C 0.64833 0.91684 1.07743
 N433 N 0.67415 0.90520 1.06365
 N434 N 0.69747 0.89411 1.08032
 C435 C 0.62317 0.92993 1.05882
 C436 C 0.59284 0.93236 1.06996
 H437 H 0.72344 0.89175 1.15354
 H438 H 0.62855 0.93738 1.03569
 H439 H 0.73932 0.85170 1.09652
 H440 H 0.58689 0.92230 1.09197
 C441 C 0.72726 1.13336 0.85751
 C442 C 0.71383 1.14103 0.88565
 C443 C 0.68471 1.12601 0.89543
 N444 N 0.68038 1.11833 0.92525
 N445 N 0.65476 1.10318 0.93408
 C446 C 0.63240 1.09549 0.91347
 N447 N 0.63643 1.10373 0.88374
 N448 N 0.66226 1.11849 0.87483
 C449 C 0.60426 1.07853 0.92307
 C450 C 0.60467 1.05908 0.94845
 H451 H 0.72627 1.15518 0.90211
 H452 H 0.58332 1.08052 0.90953
 H453 H 0.71550 1.11622 0.84330
 H454 H 0.62645 1.05505 0.96017
 C455 C 0.11112 0.25145 0.11843
 C456 C 0.12581 0.27408 0.10060
 C457 C 0.10845 0.29918 0.08575
 N458 N 0.12386 0.32451 0.07485
 N459 N 0.10843 0.34755 0.06150
 C460 C 0.07703 0.34595 0.05832
 N461 N 0.06166 0.32047 0.06892
 N462 N 0.07706 0.29754 0.08250
 C463 C 0.05966 0.37130 0.04388
 C464 C 0.07239 0.40100 0.04048
 H465 H 0.15093 0.27434 0.09864
 H466 H 0.03569 0.36697 0.03747
 H467 H 0.08631 0.25294 0.12265
 H468 H 0.09555 0.40590 0.04900
 C469 C -0.11988 0.24888 -0.12679
 C470 C -0.13429 0.27230 -0.10983
 C471 C -0.11631 0.29783 -0.09593
 N472 N -0.13079 0.32438 -0.08706
 N473 N -0.11456 0.34792 -0.07503
 C474 C -0.08330 0.34561 -0.07121
 N475 N -0.06891 0.31892 -0.07973
 N476 N -0.08509 0.29550 -0.09198
 C477 C -0.06493 0.37136 -0.05829
 C478 C -0.07637 0.40157 -0.05635
 H479 H -0.15942 0.27298 -0.10825
 H480 H -0.04116 0.36667 -0.05162
 H481 H -0.09495 0.24996 -0.13056
 H482 H -0.09947 0.40667 -0.06473
 C483 C 0.12730 0.74729 -0.12331
 C484 C 0.10808 0.72513 -0.13717
 C485 C 0.09372 0.69961 -0.11939
 N486 N 0.08276 0.67380 -0.13389
 N487 N 0.06992 0.65054 -0.11798
 C488 C 0.06727 0.65236 -0.08698
 N489 N 0.07788 0.67832 -0.07254
 N490 N 0.09098 0.70144 -0.08841
 C491 C 0.05317 0.62688 -0.06901
 C492 C 0.05000 0.59680 -0.08076
 H493 H 0.10453 0.72569 -0.16168
 H494 H 0.04672 0.63155 -0.04541
 H495 H 0.13290 0.74473 -0.09928
 H496 H 0.05867 0.59167 -0.10355
 C497 C -0.10643 0.74730 0.12945
 C498 C -0.11905 0.72244 0.11301
 C499 C -0.09970 0.69752 0.09993
 N500 N -0.11262 0.66932 0.09379
 N501 N -0.09561 0.64660 0.08152
 C502 C -0.06510 0.65135 0.07458
 N503 N -0.05223 0.67968 0.08039
 N504 N -0.06917 0.70231 0.09304
 C505 C -0.04658 0.62661 0.05999
 C506 C -0.05463 0.59538 0.06357
 H507 H -0.14408 0.72027 0.11109
 H508 H -0.02642 0.63302 0.04638
 H509 H -0.08173 0.74768 0.13429
 H510 H -0.07327 0.58918 0.07927
 C511 C 1.12609 0.11574 0.74501
 C512 C 1.10463 0.12858 0.72484
 C513 C 1.09240 0.10967 0.69937
 N514 N 1.08614 0.12292 0.67193
 N515 N 1.07639 0.10552 0.64846
 C516 C 1.07227 0.07429 0.65169
 N517 N 1.07808 0.06116 0.67926
 N518 N 1.08821 0.07847 0.70258
 C519 C 1.06076 0.05487 0.62626
 C520 C 1.06495 0.06357 0.59576
 H521 H 1.09899 0.15308 0.72587
 H522 H 1.04978 0.03277 0.63173
 H523 H 1.13364 0.09205 0.74070
 H524 H 1.07877 0.08403 0.59049
 C525 C 0.86843 -0.11168 0.74349
 C526 C 0.89065 -0.12272 0.72275
 C527 C 0.90191 -0.10360 0.69710
 N528 N 0.91278 -0.11754 0.67130
 N529 N 0.92350 -0.10054 0.64803
 C530 C 0.92411 -0.06898 0.64988
 N531 N 0.91354 -0.05501 0.67581
 N532 N 0.90242 -0.07202 0.69894
 C533 C 0.93699 -0.05026 0.62467
 C534 C 0.93652 -0.06124 0.59464
 H535 H 0.89862 -0.14651 0.72391
 H536 H 0.94657 -0.02745 0.62978
 H537 H 0.85829 -0.08902 0.73939
 H538 H 0.92423 -0.08269 0.58944
 C539 C 1.13034 -0.11735 0.25583
 C540 C 1.10535 -0.12705 0.27400
 C541 C 1.09470 -0.10842 0.30017
 N542 N 1.08037 -0.12253 0.32417
 N543 N 1.07086 -0.10593 0.34823
 C544 C 1.07505 -0.07458 0.34895
 N545 N 1.08896 -0.06040 0.32474
 N546 N 1.09882 -0.07706 0.30084
 C547 C 1.06403 -0.05607 0.37501
 C548 C 1.06024 -0.06909 0.40394
 H549 H 1.09502 -0.14984 0.27084
 H550 H 1.05954 -0.03153 0.37158
 H551 H 1.14251 -0.09608 0.26208
 H552 H 1.06778 -0.09272 0.40815
 C553 C 0.88838 0.13310 0.25695
 C554 C 0.87660 0.11345 0.27968
 C555 C 0.89646 0.10061 0.30377
 N556 N 0.88342 0.09102 0.33048
 N557 N 0.90096 0.07923 0.35258
 C558 C 0.93217 0.07621 0.34867
 N559 N 0.94521 0.08542 0.32178
 N560 N 0.92769 0.09759 0.29977
 C561 C 0.95137 0.06278 0.37301
 C562 C 0.94170 0.06439 0.40345
 H563 H 0.85192 0.10867 0.28123
 H564 H 0.97339 0.05216 0.36706
 H565 H 0.91271 0.13985 0.25795
 H566 H 0.92108 0.07766 0.40922
 C567 C 0.13180 0.25571 -0.12676
 C568 C 0.10771 0.27383 -0.13835
 C569 C 0.09423 0.29935 -0.12007
 N570 N 0.08061 0.32383 -0.13415
 N571 N 0.06864 0.34713 -0.11773
 C572 C 0.06949 0.34661 -0.08661
 N573 N 0.08267 0.32191 -0.07254
 N574 N 0.09499 0.29880 -0.08896
 C575 C 0.05618 0.37208 -0.06821
 C576 C 0.05281 0.40194 -0.08005
 H577 H 0.09956 0.27046 -0.16153
 H578 H 0.05043 0.36766 -0.04441
 H579 H 0.14138 0.26210 -0.10465
 H580 H 0.06133 0.40697 -0.10292
 C581 C -0.12565 0.25021 0.11125
 C582 C -0.10531 0.27274 0.12267
 C583 C -0.09304 0.29815 0.10360
 N584 N -0.08111 0.32403 0.11712
 N585 N -0.06997 0.34735 0.10022
 C586 C -0.07007 0.34553 0.06915
 N587 N -0.08166 0.31948 0.05560
 N588 N -0.09311 0.29626 0.07252
 C589 C -0.05756 0.37110 0.05038
 C590 C -0.05476 0.40117 0.06213
 H591 H -0.09967 0.27285 0.14681
 H592 H -0.05152 0.36646 0.02667
 H593 H -0.13393 0.25199 0.08792
 H594 H -0.06335 0.40619 0.08499
 C595 C -0.11501 0.74458 -0.13769
 C596 C -0.12629 0.72473 -0.11485
 C597 C -0.10813 0.69861 -0.10310
 N598 N -0.12290 0.67493 -0.08847
 N599 N -0.10682 0.65132 -0.07701
 C600 C -0.07533 0.65073 -0.07943
 N601 N -0.06048 0.67458 -0.09379
 N602 N -0.07661 0.69806 -0.10556
 C603 C -0.05746 0.62504 -0.06633
 C604 C -0.07120 0.59615 -0.06088
 H605 H -0.14973 0.72720 -0.10614
 H606 H -0.03286 0.62848 -0.06205
 H607 H -0.09283 0.73933 -0.14840
 H608 H -0.09494 0.59183 -0.06806
 C609 C 0.11308 0.74158 0.13059
 C610 C 0.12678 0.71775 0.11367
 C611 C 0.10851 0.69365 0.09793
 N612 N 0.12306 0.66816 0.08658
 N613 N 0.10703 0.64619 0.07187
 C614 C 0.07589 0.64902 0.06771
 N615 N 0.06133 0.67466 0.07883
 N616 N 0.07735 0.69657 0.09376
 C617 C 0.05810 0.62469 0.05168
 C618 C 0.07017 0.59493 0.04791
 H619 H 0.15187 0.71615 0.11246
 H620 H 0.03471 0.62977 0.04413
 H621 H 0.08810 0.74161 0.13407
 H622 H 0.09265 0.58942 0.05757
 C623 C 0.25714 1.11495 0.87664
 C624 C 0.28066 1.13043 0.89255
 C625 C 0.30624 1.11329 0.90691
 N626 N 0.33305 1.12822 0.91451
 N627 N 0.35634 1.11276 0.92744
 C628 C 0.35351 1.08185 0.93347
 N629 N 0.32660 1.06703 0.92614
 N630 N 0.30346 1.08241 0.91297
 C631 C 0.37863 1.06438 0.94812
 C632 C 0.40926 1.07517 0.94904
 H633 H 0.28112 1.15562 0.89324
 H634 H 0.37302 1.04158 0.95722
 H635 H 0.25861 1.08997 0.87343
 H636 H 0.41544 1.09691 0.93799
 C637 C 0.27110 0.84976 1.13459
 C638 C 0.28306 0.87989 1.13601
 C639 C 0.31271 0.88864 1.12162
 N640 N 0.31891 0.91909 1.11624
 N641 N 0.34541 0.92764 1.10275
 C642 C 0.36685 0.90609 1.09437
 N643 N 0.36089 0.87561 1.10015
 N644 N 0.33419 0.86701 1.11342
 C645 C 0.39584 0.91574 1.07907
 C646 C 0.39713 0.94391 1.06351
 H647 H 0.26924 0.89826 1.14614
 H648 H 0.41574 0.90040 1.07921
 H649 H 0.28359 0.83202 1.12192
 H650 H 0.37615 0.95760 1.06142
 C651 C 0.72866 1.13378 1.15593
 C652 C 0.71759 1.13196 1.12606
 C653 C 0.68811 1.11660 1.11819
 N654 N 0.68343 1.10701 1.08898
 N655 N 0.65704 1.09282 1.08118
 C656 C 0.63417 1.08791 1.10221
 N657 N 0.63863 1.09788 1.13142
 N658 N 0.66524 1.11183 1.13934
 C659 C 0.60504 1.07229 1.09323
 C660 C 0.60459 1.05311 1.06749
 H661 H 0.73218 1.13992 1.10735
 H662 H 0.58416 1.07572 1.10677
 H663 H 0.71553 1.12299 1.17434
 H664 H 0.62632 1.04812 1.05578
 C665 C 0.74623 0.87035 0.88632
 C666 C 0.72233 0.88808 0.87409
 C667 C 0.69682 0.89994 0.89327
 N668 N 0.66981 0.90899 0.88017
 N669 N 0.64658 0.91995 0.89733
 C670 C 0.64965 0.92253 0.92820
 N671 N 0.67677 0.91375 0.94127
 N672 N 0.69988 0.90250 0.92414
 C673 C 0.62459 0.93548 0.94727
 C674 C 0.59408 0.93714 0.93686
 H675 H 0.72155 0.89216 0.84965
 H676 H 0.63021 0.94339 0.97019
 H677 H 0.74522 0.86366 0.91022
 H678 H 0.58804 0.92703 0.91489
   
