data_POSCAR
  _audit_creation_date              2014-09-24
  _audit_creation_method            'ToBaCCo'
  _symmetry_space_group_name_H-M    'P1'
  _symmetry_Int_Tables_number       1
  _symmetry_cell_setting            triclinic
  loop_
  _symmetry_equiv_pos_as_xyz
 x,y,z
_cell_length_a 19.6752
_cell_length_b 21.0383
_cell_length_c 45.1125
_cell_angle_alpha 89.639800
_cell_angle_beta 87.686700
_cell_angle_gamma 121.901300
loop_
  _atom_site_label
  _atom_site_type_symbol
  _atom_site_fract_x
  _atom_site_fract_y
  _atom_site_fract_z
C1 C -0.01293 -0.01807 0.51449
 C2 C 1.00712 0.03144 0.16707
 C3 C 0.02270 0.99758 0.81690
 O4 O 0.61768 0.07199 -0.03926
 O5 O 0.47937 0.07932 0.01628
 O6 O 0.61944 0.09229 0.01745
 O7 O 0.49243 0.08373 -0.04153
 O8 O 0.41848 -0.03948 -0.03603
 O9 O 0.55312 -0.03112 0.02052
 O10 O 0.41247 -0.04380 0.02162
 O11 O 0.54343 -0.05163 -0.03640
 Cu12 Cu 0.55907 0.09396 -0.01213
 Cu13 Cu 0.47491 -0.05365 -0.00706
 C14 C 0.60345 0.00839 -0.04739
 C15 C 0.42157 0.01856 0.02830
 C16 C 0.61010 0.03247 0.02845
 C17 C 0.43317 0.02122 -0.04857
 O18 O 0.04930 0.44536 0.63683
 O19 O 0.06347 0.57953 0.69161
 O20 O 0.06853 0.45739 0.69305
 O21 O 0.05964 0.57584 0.63449
 O22 O -0.07157 0.51657 0.64263
 O23 O -0.06383 0.38971 0.69673
 O24 O -0.06794 0.51297 0.69972
 O25 O -0.08283 0.38632 0.64051
 Cu26 Cu 0.07339 0.52095 0.66332
 Cu27 Cu -0.08472 0.44516 0.67053
 C28 C -0.01917 0.39189 0.62982
 C29 C 0.00012 0.56996 0.70470
 C30 C 0.00364 0.40099 0.70366
 C31 C -0.00710 0.56884 0.62969
 O32 O 0.46224 0.41839 0.31174
 O33 O 0.59879 0.54162 0.36763
 O34 O 0.47204 0.40707 0.36869
 O35 O 0.60275 0.54523 0.31012
 O36 O 0.53621 0.60237 0.31567
 O37 O 0.39916 0.45860 0.37175
 O38 O 0.52624 0.59295 0.37342
 O39 O 0.39624 0.47644 0.31503
 Cu40 Cu 0.54083 0.47266 0.33898
 Cu41 Cu 0.45767 0.53808 0.34434
 C42 C 0.40506 0.42577 0.30406
 C43 C 0.58540 0.58826 0.38016
 C44 C 0.41267 0.40839 0.37984
 C45 C 0.59370 0.59888 0.30352
 C46 C -0.03923 0.14632 0.56431
 C47 C 0.01392 0.12409 0.57252
 C48 C 0.01503 0.06633 0.55789
 C49 C -0.03379 0.03032 0.53394
 C50 C -0.08467 0.05459 0.52515
 C51 C -0.08871 0.11045 0.54049
 C52 C -0.03645 0.21012 0.58029
 C53 C -0.09111 0.23314 0.57603
 C54 C -0.08550 0.29294 0.59177
 C55 C -0.02397 0.33220 0.61135
 C56 C 0.03037 0.30967 0.61569
 C57 C 0.02343 0.24824 0.60104
 C58 C 0.06920 0.16219 0.59422
 C59 C 0.07493 0.22384 0.60774
 H60 H 0.11035 0.14535 0.60029
 H61 H 0.11991 0.25241 0.62396
 H62 H 0.05865 0.05261 0.56398
 H63 H -0.11866 0.03342 0.50552
 H64 H -0.12908 0.30863 0.58861
 H65 H 0.07631 0.33816 0.63161
 H66 H -0.12793 0.12741 0.53250
 H67 H -0.13936 0.20464 0.56117
 C68 C 0.83198 0.84778 0.22742
 C69 C 0.90014 0.84706 0.21660
 C70 C 0.95947 0.90660 0.19793
 C71 C 0.94994 0.96576 0.18904
 C72 C 0.88590 0.96867 0.20277
 C73 C 0.82784 0.91092 0.22122
 C74 C 0.76807 0.78250 0.24594
 C75 C 0.69568 0.77632 0.25556
 C76 C 0.63891 0.71593 0.27362
 C77 C 0.65197 0.65940 0.28238
 C78 C 0.72264 0.66341 0.27193
 C79 C 0.78051 0.72436 0.25369
 C80 C 0.90850 0.78719 0.22474
 C81 C 0.85045 0.72763 0.24314
 H82 H 0.96082 0.78643 0.21686
 H83 H 0.86010 0.68303 0.24895
 H84 H 1.01273 0.90679 0.19090
 H85 H 0.87941 1.01587 0.19849
 H86 H 0.58472 0.71397 0.28097
 H87 H 0.73328 0.61977 0.27834
 H88 H 0.78038 0.91724 0.23038
 H89 H 0.68137 0.81734 0.24941
 C90 C 0.21030 0.01662 -0.13014
 C91 C 0.12900 -0.03919 -0.12409
 C92 C 0.07009 -0.04164 -0.14104
 C93 C 0.08881 0.00978 -0.16496
 C94 C 0.17084 0.06131 -0.17244
 C95 C 0.23049 0.06589 -0.15488
 C96 C 0.27091 0.01871 -0.11033
 C97 C 0.35237 0.07672 -0.11196
 C98 C 0.40552 0.07717 -0.09214
 C99 C 0.37897 0.01913 -0.07070
 C100 C 0.29847 -0.03920 -0.06918
 C101 C 0.24419 -0.03890 -0.08821
 C102 C 0.10636 -0.09379 -0.10156
 C103 C 0.16293 -0.09450 -0.08438
 H104 H 0.04385 -0.13722 -0.09731
 H105 H 0.14246 -0.13824 -0.06732
 H106 H 0.00821 -0.08563 -0.13587
 H107 H 0.18962 0.09731 -0.19214
 H108 H 0.46751 0.12314 -0.09352
 H109 H 0.27719 -0.08332 -0.05222
 H110 H 0.29212 0.10683 -0.16148
 H111 H 0.37552 0.12298 -0.12785
 C112 C -0.00528 0.80981 0.56620
 C113 C 0.05411 0.84972 0.54324
 C114 C 0.05509 0.90775 0.52698
 C115 C 0.00063 0.93021 0.53461
 C116 C -0.05559 0.89153 0.55852
 C117 C -0.05811 0.83325 0.57415
 C118 C -0.00944 0.74424 0.58127
 C119 C -0.07368 0.69476 0.60101
 C120 C -0.07386 0.63603 0.61544
 C121 C -0.00985 0.62517 0.61086
 C122 C 0.05294 0.67210 0.59017
 C123 C 0.05242 0.73039 0.57479
 C124 C 0.11170 0.83106 0.53673
 C125 C 0.11229 0.77417 0.55278
 H126 H 0.15800 0.86190 0.51939
 H127 H 0.15924 0.76317 0.54740
 H128 H 0.09635 0.93309 0.50783
 H129 H -0.10073 0.90442 0.56454
 H130 H -0.12328 0.60050 0.63112
 H131 H 0.10194 0.66323 0.58603
 H132 H -0.10258 0.80686 0.59224
 H133 H -0.12457 0.70018 0.60559
 C134 C 0.16717 0.20631 0.22713
 C135 C 0.17630 0.14621 0.21947
 C136 C 0.12237 0.09080 0.20115
 C137 C 0.05996 0.09431 0.18849
 C138 C 0.04701 0.15083 0.19803
 C139 C 0.10052 0.20672 0.21675
 C140 C 0.22843 0.26556 0.24634
 C141 C 0.22660 0.32881 0.25516
 C142 C 0.28476 0.38158 0.27340
 C143 C 0.34655 0.37300 0.28312
 C144 C 0.34956 0.31100 0.27399
 C145 C 0.29136 0.25754 0.25593
 C146 C 0.23960 0.14146 0.22985
 C147 C 0.29588 0.19590 0.24768
 H148 H 0.24607 0.09498 0.22395
 H149 H 0.34386 0.18967 0.25507
 H150 H 0.13033 0.04479 0.19595
 H151 H -0.00476 0.15173 0.19160
 H152 H 0.28086 0.42893 0.28011
 H153 H 0.39665 0.30340 0.28139
 H154 H 0.08853 0.24943 0.22298
 H155 H 0.18061 0.33823 0.24834
 C156 C 0.83019 -0.01140 -0.12673
 C157 C 0.91170 0.03696 -0.12092
 C158 C 0.97081 0.03454 -0.13801
 C159 C 0.95228 -0.01364 -0.16212
 C160 C 0.87118 -0.05789 -0.16911
 C161 C 0.81082 -0.05830 -0.15125
 C162 C 0.76897 -0.00750 -0.10722
 C163 C 0.68582 -0.05882 -0.10846
 C164 C 0.63168 -0.05343 -0.08917
 C165 C 0.65920 0.00428 -0.06884
 C166 C 0.74147 0.05577 -0.06758
 C167 C 0.79635 0.04907 -0.08588
 C168 C 0.93470 0.08999 -0.09882
 C169 C 0.87832 0.09707 -0.08214
 H170 H 0.99753 0.12774 -0.09474
 H171 H 0.89919 0.13974 -0.06560
 H172 H 1.03283 0.07346 -0.13321
 H173 H 0.85428 -0.09063 -0.18887
 H174 H 0.56813 -0.09433 -0.09015
 H175 H 0.76296 0.09915 -0.05128
 H176 H 0.74974 -0.09336 -0.15763
 H177 H 0.66188 -0.10435 -0.12363
 C178 C 0.18332 0.02662 0.10577
 C179 C 0.11513 -0.04233 0.11614
 C180 C 0.05576 -0.04306 0.13517
 C181 C 0.06534 0.02461 0.14501
 C182 C 0.12965 0.09201 0.13187
 C183 C 0.18772 0.09327 0.11303
 C184 C 0.24701 0.02604 0.08666
 C185 C 0.31902 0.09214 0.07705
 C186 C 0.37577 0.08920 0.05861
 C187 C 0.36303 0.02041 0.04945
 C188 C 0.29254 -0.04612 0.05971
 C189 C 0.23470 -0.04374 0.07827
 C190 C 0.10677 -0.10973 0.10721
 C191 C 0.16489 -0.11040 0.08850
 H192 H 0.05447 -0.16280 0.11476
 H193 H 0.15533 -0.16403 0.08215
 H194 H 0.00233 -0.09606 0.14173
 H195 H 0.13619 0.14523 0.13680
 H196 H 0.42975 0.14128 0.05135
 H197 H 0.28206 -0.09981 0.05293
 H198 H 0.23535 0.14729 0.10439
 H199 H 0.33308 0.14688 0.08350
 C200 C 0.81358 0.80887 0.45773
 C201 C 0.78512 0.83531 0.48087
 C202 C 0.83963 0.89080 0.49965
 C203 C 0.92302 0.92498 0.49402
 C204 C 0.94955 0.89829 0.47045
 C205 C 0.89637 0.84204 0.45260
 C206 C 0.75460 0.74790 0.43896
 C207 C 0.77715 0.71187 0.41814
 C208 C 0.72115 0.65834 0.39989
 C209 C 0.64143 0.63962 0.40175
 C210 C 0.61724 0.67240 0.42344
 C211 C 0.67307 0.72518 0.44253
 C212 C 0.70274 0.80707 0.48459
 C213 C 0.64820 0.75482 0.46527
 H214 H 0.68040 0.82740 0.50209
 H215 H 0.58549 0.73655 0.46845
 H216 H 0.81680 0.90645 0.51861
 H217 H 1.01281 0.92068 0.46588
 H218 H 0.74097 0.63312 0.38361
 H219 H 0.55508 0.65661 0.42552
 H220 H 0.92175 0.82611 0.43470
 H221 H 0.83761 0.72393 0.41558
 C222 C 0.02528 0.17100 0.76517
 C223 C 0.07819 0.19147 0.78844
 C224 C 0.08123 0.13580 0.80487
 C225 C 0.03647 0.05952 0.79700
 C226 C -0.01218 0.04206 0.77233
 C227 C -0.01704 0.09633 0.75666
 C228 C 0.01627 0.22970 0.75040
 C229 C -0.04553 0.21189 0.73114
 C230 C -0.05084 0.26822 0.71728
 C231 C 0.00581 0.34373 0.72184
 C232 C 0.06613 0.36241 0.74185
 C233 C 0.06989 0.30555 0.75696
 C234 C 0.12714 0.26734 0.79513
 C235 C 0.12509 0.32338 0.77899
 H236 H 0.16882 0.28377 0.81267
 H237 H 0.16552 0.38130 0.78449
 H238 H 0.11626 0.15208 0.82438
 H239 H -0.05084 -0.01521 0.76578
 H240 H -0.09795 0.25261 0.70201
 H241 H 0.10911 0.42081 0.74590
 H242 H -0.05538 0.07825 0.73814
 H243 H -0.09083 0.15480 0.72669
 C244 C 0.84606 0.04739 0.10675
 C245 C 0.83657 -0.02176 0.11498
 C246 C 0.89045 -0.02380 0.13352
 C247 C 0.95324 0.04157 0.14581
 C248 C 0.96649 0.11084 0.13566
 C249 C 0.91297 0.11375 0.11677
 C250 C 0.78508 0.04609 0.08723
 C251 C 0.78721 0.11120 0.07795
 C252 C 0.72951 0.10660 0.05939
 C253 C 0.66788 0.03700 0.04976
 C254 C 0.66443 -0.02811 0.05937
 C255 C 0.72217 -0.02415 0.07782
 C256 C 0.77318 -0.08914 0.10484
 C257 C 0.71728 -0.09030 0.08665
 H258 H 0.76645 -0.14205 0.11118
 H259 H 0.66930 -0.14397 0.07942
 H260 H 0.88239 -0.07770 0.13902
 H261 H 1.01859 0.16295 0.14174
 H262 H 0.73371 0.15791 0.05234
 H263 H 0.61738 -0.08219 0.05207
 H264 H 0.92531 0.16833 0.11007
 H265 H 0.83308 0.16607 0.08466
 C266 C 0.18262 0.16550 0.45971
 C267 C 0.10134 0.13549 0.45401
 C268 C 0.04133 0.07446 0.47095
 C269 C 0.05879 0.04245 0.49474
 C270 C 0.13958 0.07618 0.50181
 C271 C 0.20086 0.13568 0.48410
 C272 C 0.24486 0.22958 0.44009
 C273 C 0.32763 0.25803 0.44104
 C274 C 0.38266 0.31659 0.42156
 C275 C 0.35641 0.34910 0.40138
 C276 C 0.27455 0.32162 0.40042
 C277 C 0.21875 0.26108 0.41888
 C278 C 0.07958 0.16782 0.43208
 C279 C 0.13703 0.23042 0.41536
 H280 H 0.01695 0.14515 0.42812
 H281 H 0.11715 0.25406 0.39892
 H282 H -0.02053 0.05295 0.46610
 H283 H 0.15567 0.05819 0.52139
 H284 H 0.44584 0.33670 0.42232
 H285 H 0.25394 0.34529 0.38425
 H286 H 0.26182 0.15934 0.49040
 H287 H 0.35050 0.23453 0.45611
 C288 C 0.01059 0.81269 0.76814
 C289 C -0.04892 0.79585 0.79075
 C290 C -0.04784 0.85427 0.80640
 C291 C 0.00880 0.93005 0.79832
 C292 C 0.06489 0.94492 0.77462
 C293 C 0.06561 0.88780 0.75976
 C294 C 0.01191 0.74982 0.75351
 C295 C 0.07598 0.76167 0.73430
 C296 C 0.07303 0.70218 0.71982
 C297 C 0.00602 0.62926 0.72388
 C298 C -0.05643 0.61600 0.74431
 C299 C -0.05281 0.67574 0.75973
 C300 C -0.10912 0.72085 0.79729
 C301 C -0.11247 0.66228 0.78144
 H302 H -0.15555 0.70737 0.81436
 H303 H -0.16156 0.60551 0.78669
 H304 H -0.08950 0.84015 0.82528
 H305 H 0.11068 1.00200 0.76803
 H306 H 0.12239 0.71401 0.70446
 H307 H -0.10768 0.55953 0.74812
 H308 H 0.10992 0.90390 0.74174
 H309 H 0.12904 0.81644 0.73012
   
