data_POSCAR
  _audit_creation_date              2014-09-24
  _audit_creation_method            'ToBaCCo'
  _symmetry_space_group_name_H-M    'P1'
  _symmetry_Int_Tables_number       1
  _symmetry_cell_setting            triclinic
  loop_
  _symmetry_equiv_pos_as_xyz
 x,y,z
_cell_length_a 41.4114
_cell_length_b 51.0740
_cell_length_c 44.7461
_cell_angle_alpha 91.974700
_cell_angle_beta 90.572800
_cell_angle_gamma 90.470400
loop_
  _atom_site_label
  _atom_site_type_symbol
  _atom_site_fract_x
  _atom_site_fract_y
  _atom_site_fract_z
C1 C 1.21160 0.26945 0.29747
 H2 H 1.20978 0.24862 0.30086
 C3 C 1.19061 0.28664 0.31226
 H4 H 1.17279 0.27894 0.32726
 C5 C 1.23652 0.30467 0.27316
 H6 H 1.25434 0.31168 0.25786
 C7 C 1.21602 0.32257 0.28748
 H8 H 1.21816 0.34302 0.28231
 N9 N 1.23338 0.27859 0.27772
 C10 C 1.24109 0.21263 0.21403
 H11 H 1.26693 0.20968 0.21369
 C12 C 1.22060 0.19554 0.19765
 H13 H 1.23109 0.17981 0.18428
 C14 C 1.19641 0.23732 0.23129
 H15 H 1.18700 0.25380 0.24407
 C16 C 1.17508 0.22083 0.21510
 H17 H 1.14939 0.22461 0.21592
 Zn18 Zn 1.25744 0.25342 0.25542
 N19 N 1.22869 0.23252 0.23121
 C20 C 1.27275 0.20623 0.28382
 N21 N 1.27967 0.23224 0.28286
 C22 C 1.30233 0.24356 0.30143
 C23 C 1.32038 0.22830 0.32072
 C24 C 1.28991 0.19027 0.30294
 C25 C 1.27454 0.28563 0.20861
 C26 C 1.29491 0.29976 0.19025
 C27 C 1.34069 0.28028 0.21453
 C28 C 1.31939 0.26664 0.23248
 N29 N 1.28698 0.27008 0.22981
 H30 H 1.25399 0.19765 0.26963
 H31 H 1.30693 0.26441 0.30073
 H32 H 1.33887 0.23770 0.33476
 H33 H 1.28416 0.16961 0.30203
 H34 H 1.24863 0.28757 0.20647
 H35 H 1.28363 0.31231 0.17438
 H36 H 1.36643 0.27755 0.21755
 H37 H 1.32894 0.25348 0.24865
 C38 C 1.18699 0.19919 0.19874
 C39 C 1.19240 0.31354 0.30712
 C40 C 1.32875 0.29757 0.19335
 C41 C 1.31452 0.20118 0.32164
 C42 C 0.71663 -0.22967 0.29361
 H43 H 0.71502 -0.25052 0.29693
 C44 C 0.69643 -0.21255 0.30946
 H45 H 0.67940 -0.22032 0.32517
 C46 C 0.74021 -0.19430 0.26850
 H47 H 0.75723 -0.18721 0.25249
 C48 C 0.72053 -0.17647 0.28393
 H49 H 0.72238 -0.15597 0.27890
 N50 N 0.73731 -0.22042 0.27296
 C51 C 0.74238 -0.28668 0.20934
 H52 H 0.76820 -0.28935 0.20774
 C53 C 0.72130 -0.30420 0.19424
 H54 H 0.73133 -0.31992 0.18056
 C55 C 0.69830 -0.26235 0.22854
 H56 H 0.68932 -0.24586 0.24159
 C57 C 0.67639 -0.27929 0.21370
 H58 H 0.65072 -0.27582 0.21578
 Zn59 Zn 0.76040 -0.24544 0.24951
 N60 N 0.73061 -0.26676 0.22688
 C61 C 0.77701 -0.29224 0.27807
 N62 N 0.78443 -0.26639 0.27603
 C63 C 0.80819 -0.25505 0.29336
 C64 C 0.82653 -0.27011 0.31266
 C65 C 0.79440 -0.30796 0.29730
 C66 C 0.77363 -0.21310 0.20177
 C67 C 0.79232 -0.19843 0.18250
 C68 C 0.84018 -0.21680 0.20446
 C69 C 0.82052 -0.23102 0.22337
 N70 N 0.78789 -0.22838 0.22230
 H71 H 0.75744 -0.30084 0.26489
 H72 H 0.81317 -0.23431 0.29190
 H73 H 0.84569 -0.26069 0.32585
 H74 H 0.78807 -0.32850 0.29737
 H75 H 0.74758 -0.21174 0.20098
 H76 H 0.77971 -0.18604 0.16732
 H77 H 0.86615 -0.21885 0.20625
 H78 H 0.83149 -0.24391 0.23908
 C79 C 0.68775 -0.30096 0.19702
 C80 C 0.69798 -0.18561 0.30450
 C81 C 0.82634 -0.19975 0.18397
 C82 C 0.81980 -0.29700 0.31499
 C83 C 0.69716 0.26548 -0.23226
 H84 H 0.68992 0.24993 -0.24793
 C85 C 0.67380 0.28221 -0.22016
 H86 H 0.64873 0.27956 -0.22681
 C87 C 0.73833 0.28765 -0.20396
 H88 H 0.76357 0.28948 -0.19769
 C89 C 0.71585 0.30490 -0.19150
 H90 H 0.72401 0.31964 -0.17513
 N91 N 0.72882 0.26888 -0.22453
 C92 C 0.74348 0.19749 -0.26697
 H93 H 0.75605 0.18941 -0.24821
 C94 C 0.72786 0.18068 -0.28781
 H95 H 0.72879 0.15977 -0.28481
 C96 C 0.72835 0.23438 -0.29445
 H97 H 0.72861 0.25540 -0.29675
 C98 C 0.71262 0.21830 -0.31590
 H99 H 0.70073 0.22701 -0.33475
 Zn100 Zn 0.76138 0.24768 -0.24175
 N101 N 0.74269 0.22385 -0.27024
 C102 C 0.76259 0.21395 -0.19410
 N103 N 0.78160 0.22979 -0.21035
 C104 C 0.81354 0.23298 -0.20379
 C105 C 0.82789 0.21889 -0.18102
 C106 C 0.77590 0.19932 -0.17137
 C107 C 0.78369 0.29416 -0.26667
 C108 C 0.80287 0.30998 -0.28397
 C109 C 0.83873 0.27103 -0.29240
 C110 C 0.81728 0.25709 -0.27503
 N111 N 0.79103 0.26869 -0.26256
 H112 H 0.73706 0.21228 -0.19929
 H113 H 0.82805 0.24638 -0.21623
 H114 H 0.85343 0.22179 -0.17710
 H115 H 0.76027 0.18633 -0.15931
 H116 H 0.76197 0.30229 -0.25714
 H117 H 0.79578 0.33010 -0.28666
 H118 H 0.85938 0.26107 -0.30195
 H119 H 0.82143 0.23651 -0.27166
 C120 C 0.71157 0.19117 -0.31230
 C121 C 0.68319 0.30262 -0.20015
 C122 C 0.83304 0.29949 -0.29923
 C123 C 0.80910 0.20127 -0.16468
 C124 C 1.21659 -0.23738 -0.20929
 H125 H 1.21504 -0.25822 -0.20591
 C126 C 1.19516 -0.22042 -0.19474
 H127 H 1.17724 -0.22830 -0.17996
 C128 C 1.24142 -0.20189 -0.23321
 H129 H 1.25943 -0.19471 -0.24824
 C130 C 1.22058 -0.18419 -0.21898
 H131 H 1.22253 -0.16366 -0.22387
 N132 N 1.23858 -0.22800 -0.22868
 C133 C 1.24911 -0.29659 -0.28798
 H134 H 1.27495 -0.29950 -0.28711
 C135 C 1.22920 -0.31516 -0.30278
 H136 H 1.23983 -0.33235 -0.31343
 C137 C 1.20369 -0.27105 -0.27444
 H138 H 1.19377 -0.25384 -0.26342
 C139 C 1.18296 -0.28890 -0.28934
 H140 H 1.15723 -0.28544 -0.28890
 Zn141 Zn 1.26373 -0.25306 -0.24996
 N142 N 1.23602 -0.27555 -0.27327
 C143 C 1.27884 -0.29832 -0.21806
 N144 N 1.28658 -0.27268 -0.22143
 C145 C 1.31003 -0.26073 -0.20426
 C146 C 1.32813 -0.27509 -0.18411
 C147 C 1.29597 -0.31333 -0.19796
 C148 C 1.27903 -0.22164 -0.29777
 C149 C 1.29854 -0.20768 -0.31703
 C150 C 1.34543 -0.22580 -0.29310
 C151 C 1.32496 -0.23935 -0.27428
 N152 N 1.29241 -0.23649 -0.27638
 H153 H 1.25930 -0.30731 -0.23094
 H154 H 1.31515 -0.24012 -0.20672
 H155 H 1.34726 -0.26528 -0.17124
 H156 H 1.28953 -0.33380 -0.19701
 H157 H 1.25303 -0.22012 -0.29937
 H158 H 1.28657 -0.19556 -0.33293
 H159 H 1.37131 -0.22805 -0.29055
 H160 H 1.33524 -0.25201 -0.25796
 C161 C 1.19570 -0.31153 -0.30331
 C162 C 1.19686 -0.19349 -0.19963
 C163 C 1.33248 -0.20932 -0.31464
 C164 C 1.32139 -0.30185 -0.18073
 C165 C 0.24329 0.21225 0.69540
 H166 H 0.21730 0.21366 0.69697
 C167 C 0.25693 0.19561 0.67375
 H168 H 0.24125 0.18416 0.65872
 C169 C 0.29513 0.22563 0.71319
 H170 H 0.30984 0.23763 0.72843
 C171 C 0.30986 0.20909 0.69185
 H172 H 0.33592 0.20890 0.69085
 N173 N 0.26239 0.22660 0.71478
 C174 C 0.19943 0.23859 0.79126
 H175 H 0.19733 0.25970 0.79236
 C176 C 0.18288 0.22347 0.81162
 H177 H 0.16789 0.23330 0.82819
 C178 C 0.22190 0.20054 0.76838
 H179 H 0.23731 0.19167 0.75162
 C180 C 0.20634 0.18467 0.78860
 H181 H 0.20973 0.16380 0.78588
 Zn182 Zn 0.24021 0.24814 0.74289
 N183 N 0.21797 0.22693 0.76984
 C184 C 0.17866 0.26798 0.72565
 N185 N 0.21100 0.26841 0.72075
 C186 C 0.22384 0.28292 0.69887
 C187 C 0.20411 0.29839 0.68136
 C188 C 0.15801 0.28329 0.70881
 C189 C 0.28926 0.25916 0.78551
 C190 C 0.30782 0.27484 0.80546
 C191 C 0.28363 0.31314 0.78469
 C192 C 0.26541 0.29671 0.76535
 N193 N 0.26849 0.27027 0.76604
 H194 H 0.16870 0.25576 0.74252
 H195 H 0.24963 0.28265 0.69524
 H196 H 0.21567 0.31013 0.66489
 H197 H 0.13235 0.28284 0.71336
 H198 H 0.29073 0.23804 0.78609
 H199 H 0.32385 0.26549 0.82105
 H200 H 0.27948 0.33393 0.78380
 H201 H 0.24802 0.30521 0.75049
 C202 C 0.18628 0.19604 0.81079
 C203 C 0.29058 0.19354 0.67198
 C204 C 0.30520 0.30229 0.80541
 C205 C 0.17051 0.29882 0.68624
 C206 C 0.73957 0.71280 0.70329
 H207 H 0.71355 0.71449 0.70373
 C208 C 0.75409 0.69698 0.68136
 H209 H 0.73904 0.68646 0.66497
 C210 C 0.79062 0.72457 0.72429
 H211 H 0.80464 0.73553 0.74105
 C212 C 0.80622 0.70886 0.70272
 H213 H 0.83229 0.70834 0.70305
 N214 N 0.75786 0.72600 0.72432
 C215 C 0.69471 0.73439 0.80155
 H216 H 0.69236 0.75541 0.80427
 C217 C 0.68077 0.71806 0.82246
 H218 H 0.66761 0.72730 0.84060
 C219 C 0.71687 0.69784 0.77540
 H220 H 0.73165 0.68995 0.75757
 C221 C 0.70354 0.68083 0.79572
 H222 H 0.70799 0.66002 0.79264
 Zn223 Zn 0.73522 0.74666 0.75295
 N224 N 0.71243 0.72412 0.77863
 C225 C 0.67572 0.77272 0.73847
 N226 N 0.70706 0.76838 0.73113
 C227 C 0.72011 0.77914 0.70662
 C228 C 0.70201 0.79555 0.68883
 C229 C 0.65666 0.78920 0.72135
 C230 C 0.77018 0.76173 0.80547
 C231 C 0.78846 0.77850 0.82441
 C232 C 0.79497 0.80771 0.78359
 C233 C 0.77665 0.79029 0.76543
 N234 N 0.76409 0.76807 0.77670
 H235 H 0.66542 0.76357 0.75760
 H236 H 0.74479 0.77480 0.70067
 H237 H 0.71381 0.80333 0.66965
 H238 H 0.63187 0.79261 0.72785
 H239 H 0.76048 0.74379 0.81399
 H240 H 0.79242 0.77314 0.84738
 H241 H 0.80364 0.82532 0.77362
 H242 H 0.77181 0.79498 0.74250
 C243 C 0.68535 0.69068 0.81994
 C244 C 0.78778 0.69455 0.68102
 C245 C 0.80075 0.80217 0.81387
 C246 C 0.66972 0.80118 0.69622
 C247 C 0.74568 0.20783 0.20332
 H248 H 0.71962 0.20833 0.20474
 C249 C 0.76030 0.19224 0.18122
 H250 H 0.74528 0.18063 0.16576
 C251 C 0.79670 0.22275 0.22159
 H252 H 0.81071 0.23505 0.23710
 C253 C 0.81240 0.20735 0.19978
 H254 H 0.83844 0.20831 0.19885
 N255 N 0.76392 0.22252 0.22309
 C256 C 0.70272 0.23361 0.30150
 H257 H 0.70076 0.25472 0.30313
 C258 C 0.68942 0.21830 0.32372
 H259 H 0.67730 0.22799 0.34226
 C260 C 0.72309 0.19577 0.27635
 H261 H 0.73700 0.18703 0.25840
 C262 C 0.71025 0.17979 0.29801
 H263 H 0.71402 0.15883 0.29614
 Zn264 Zn 0.74091 0.24370 0.25110
 N265 N 0.71916 0.22218 0.27840
 C266 C 0.67996 0.26605 0.23438
 N267 N 0.71199 0.26399 0.22852
 C268 C 0.72544 0.27656 0.20540
 C269 C 0.70683 0.29250 0.18745
 C270 C 0.66035 0.28195 0.21705
 C271 C 0.78935 0.25592 0.29423
 C272 C 0.80798 0.27225 0.31346
 C273 C 0.78465 0.30976 0.29025
 C274 C 0.76630 0.29273 0.27174
 N275 N 0.76895 0.26636 0.27393
 H276 H 0.66960 0.25560 0.25261
 H277 H 0.75096 0.27440 0.20111
 H278 H 0.71910 0.30216 0.16972
 H279 H 0.63496 0.28356 0.22238
 H280 H 0.79055 0.23488 0.29596
 H281 H 0.82374 0.26346 0.32971
 H282 H 0.78085 0.33049 0.28813
 H283 H 0.74929 0.30075 0.25616
 C284 C 0.69325 0.19094 0.32214
 C285 C 0.79406 0.19165 0.17929
 C286 C 0.80591 0.29964 0.31173
 C287 C 0.67363 0.29568 0.19323
 C288 C 0.24557 0.70835 0.19727
 H289 H 0.21963 0.70989 0.19729
 C290 C 0.26011 0.69072 0.17721
 H291 H 0.24511 0.67913 0.16172
 C292 C 0.29645 0.72057 0.21820
 H293 H 0.31049 0.73173 0.23471
 C294 C 0.31205 0.70317 0.19840
 H295 H 0.33795 0.70124 0.20028
 N296 N 0.26374 0.72292 0.21725
 C297 C 0.18935 0.73781 0.28243
 H298 H 0.18684 0.75878 0.28090
 C299 C 0.16761 0.72368 0.29936
 H300 H 0.14834 0.73387 0.31095
 C301 C 0.21758 0.69898 0.26911
 H302 H 0.23711 0.68950 0.25722
 C303 C 0.19650 0.68412 0.28591
 H304 H 0.19971 0.66313 0.28623
 Zn305 Zn 0.24181 0.74545 0.24490
 N306 N 0.21368 0.72530 0.26777
 C307 C 0.18851 0.75999 0.21030
 N308 N 0.21583 0.76944 0.22406
 C309 C 0.22306 0.79546 0.22450
 C310 C 0.20315 0.81293 0.20986
 C311 C 0.16781 0.77673 0.19549
 C312 C 0.26846 0.76100 0.30109
 C313 C 0.28775 0.77582 0.32114
 C314 C 0.31386 0.79533 0.27924
 C315 C 0.29421 0.77990 0.25999
 N316 N 0.27141 0.76370 0.27112
 H317 H 0.18222 0.73950 0.21144
 H318 H 0.24404 0.80295 0.23649
 H319 H 0.20980 0.83341 0.21125
 H320 H 0.14623 0.76863 0.18468
 H321 H 0.25063 0.74772 0.30963
 H322 H 0.28430 0.77367 0.34491
 H323 H 0.33101 0.80830 0.26921
 H324 H 0.29651 0.78140 0.23604
 C325 C 0.17130 0.69658 0.30152
 C326 C 0.29373 0.68799 0.17747
 C327 C 0.31035 0.79385 0.31050
 C328 C 0.17509 0.80360 0.19471
 N329 N 1.06396 0.02294 0.03465
 N330 N 1.08689 0.03989 0.04249
 N331 N 1.03639 -0.03188 0.04857
 N332 N 1.04129 -0.05028 0.06811
 N333 N 1.05969 -0.03178 0.02888
 N334 N 1.08092 -0.05012 0.03437
 N335 N 1.04083 0.02309 0.05449
 N336 N 1.04747 0.04032 0.07651
 C337 C 1.07622 0.05073 0.06842
 C338 C 1.06892 -0.06171 0.05859
 N339 N 0.94564 -0.02650 0.02289
 N340 N 0.92274 -0.04450 0.02447
 N341 N 0.97143 0.02624 0.05077
 N342 N 0.96739 0.04447 0.07192
 N343 N 0.94993 0.02849 0.02923
 N344 N 0.93046 0.04835 0.03536
 N345 N 0.96671 -0.02865 0.04481
 N346 N 0.95858 -0.04815 0.06198
 Mn347 Mn 1.00377 -0.00284 0.05000
 C348 C 0.93119 -0.05791 0.04885
 C349 C 0.94187 0.05813 0.06206
 N350 N 1.06352 -0.02859 -0.03479
 N351 N 1.08563 -0.04620 -0.04140
 N352 N 1.04654 0.02832 -0.05083
 N353 N 1.05496 0.04727 -0.06856
 N354 N 1.06775 0.02617 -0.02909
 N355 N 1.09133 0.04348 -0.03152
 N356 N 1.04274 -0.02666 -0.05693
 N357 N 1.05026 -0.04300 -0.07932
 Mn358 Mn 1.06392 -0.00283 -0.00006
 C359 C 1.07684 -0.05528 -0.06898
 C360 C 1.08278 0.05668 -0.05601
 N361 N 0.95380 0.03173 -0.03520
 N362 N 0.93529 0.05238 -0.03877
 N363 N 0.97332 -0.02335 -0.06047
 N364 N 0.96833 -0.04091 -0.08232
 N365 N 0.94936 -0.02336 -0.04145
 N366 N 0.92730 -0.04105 -0.04998
 N367 N 0.97745 0.03146 -0.05454
 N368 N 0.97576 0.05186 -0.07173
 Mn369 Mn 0.94923 0.00262 -0.00615
 Mn370 Mn 1.00996 0.00244 -0.05598
 Cl371 Cl 1.00667 -0.00018 -0.00304
 C372 C 0.94945 0.06474 -0.06162
 C373 C 0.93971 -0.05189 -0.07545
 N374 N 1.05306 0.53003 0.53817
 N375 N 1.07080 0.55113 0.54419
 N376 N 1.03523 0.47197 0.55031
 N377 N 1.04185 0.45145 0.56638
 N378 N 1.05744 0.47531 0.53005
 N379 N 1.07979 0.45715 0.53170
 N380 N 1.03149 0.52672 0.55900
 N381 N 1.03422 0.54540 0.58009
 C382 C 1.05892 0.56039 0.57043
 C383 C 1.06967 0.44239 0.55436
 N384 N 0.94304 0.46911 0.52898
 N385 N 0.92155 0.45025 0.53237
 N386 N 0.96218 0.52289 0.55817
 N387 N 0.95771 0.54092 0.57944
 N388 N 0.93953 0.52394 0.53749
 N389 N 0.91890 0.54285 0.54427
 N390 N 0.96571 0.46828 0.54967
 N391 N 0.96025 0.44878 0.56763
 Mn392 Mn 0.99864 0.49738 0.55461
 C393 C 0.93287 0.43753 0.55626
 C394 C 0.93067 0.55316 0.57058
 N395 N 1.05709 0.48103 0.46657
 N396 N 1.08073 0.46515 0.45897
 N397 N 1.03061 0.53601 0.45366
 N398 N 1.03624 0.55537 0.43557
 N399 N 1.05286 0.53551 0.47473
 N400 N 1.07415 0.55453 0.47162
 N401 N 1.03486 0.48128 0.44546
 N402 N 1.04288 0.46540 0.42278
 Mn403 Mn 1.05537 0.50550 0.50243
 C404 C 1.07143 0.45533 0.43184
 C405 C 1.06323 0.56693 0.44738
 N406 N 0.93886 0.52929 0.47328
 N407 N 0.91555 0.54648 0.47018
 N408 N 0.96515 0.47765 0.44467
 N409 N 0.96080 0.46103 0.42177
 N410 N 0.94270 0.47451 0.46482
 N411 N 0.92248 0.45548 0.45611
 N412 N 0.96106 0.53230 0.45287
 N413 N 0.95344 0.55170 0.43540
 Mn414 Mn 0.94063 0.49920 0.50115
 Mn415 Mn 0.99788 0.50682 0.44884
 Cl416 Cl 0.99807 0.50219 0.50172
 C417 C 0.92514 0.56049 0.44671
 C418 C 0.93436 0.44717 0.42930
 N419 N 0.55261 0.02767 0.53915
 N420 N 0.57204 0.04657 0.54935
 N421 N 0.53744 -0.03140 0.54779
 N422 N 0.54521 -0.05135 0.56431
 N423 N 0.56046 -0.02645 0.52874
 N424 N 0.58451 -0.04302 0.53179
 N425 N 0.53019 0.02268 0.55876
 N426 N 0.53374 0.03816 0.58283
 C427 C 0.55974 0.05310 0.57646
 C428 C 0.57450 -0.05854 0.55389
 N429 N 0.44643 -0.03714 0.52306
 N430 N 0.42668 -0.05748 0.52379
 N431 N 0.46127 0.01628 0.55547
 N432 N 0.45586 0.03412 0.57673
 N433 N 0.43934 0.01730 0.53413
 N434 N 0.41833 0.03606 0.54041
 N435 N 0.46802 -0.03785 0.54470
 N436 N 0.46325 -0.05862 0.56099
 Mn437 Mn 0.49920 -0.00768 0.55195
 C438 C 0.43758 -0.07080 0.54737
 C439 C 0.42898 0.04619 0.56721
 N440 N 0.56206 -0.01829 0.46544
 N441 N 0.58642 -0.03356 0.45815
 N442 N 0.53203 0.03596 0.45429
 N443 N 0.53482 0.05703 0.43831
 N444 N 0.55426 0.03582 0.47543
 N445 N 0.57317 0.05676 0.47405
 N446 N 0.54037 -0.01828 0.44384
 N447 N 0.54946 -0.03372 0.42116
 Mn448 Mn 0.55767 0.00477 0.50222
 C449 C 0.57816 -0.04320 0.43065
 C450 C 0.56042 0.06987 0.45089
 N451 N 0.44056 0.02482 0.47052
 N452 N 0.41646 0.04131 0.46772
 N453 N 0.47116 -0.02486 0.44066
 N454 N 0.47000 -0.04201 0.41797
 N455 N 0.44796 -0.02935 0.45967
 N456 N 0.43025 -0.04973 0.45029
 N457 N 0.46312 0.02935 0.45091
 N458 N 0.45498 0.04917 0.43425
 Mn459 Mn 0.44319 -0.00611 0.49686
 Mn460 Mn 0.50168 0.00554 0.44711
 Cl461 Cl 0.50044 -0.00088 0.49952
 C462 C 0.42593 0.05653 0.44525
 C463 C 0.44446 -0.05740 0.42428
 N464 N 0.56172 0.52424 0.03463
 N465 N 0.58326 0.54251 0.04189
 N466 N 0.54309 0.46681 0.04803
 N467 N 0.55045 0.44705 0.06500
 N468 N 0.56469 0.46953 0.02703
 N469 N 0.58737 0.45162 0.02919
 N470 N 0.54062 0.52168 0.05608
 N471 N 0.54738 0.53834 0.07866
 C472 C 0.57389 0.55133 0.06917
 C473 C 0.57801 0.43765 0.05283
 N474 N 0.45070 0.46425 0.02875
 N475 N 0.43021 0.44461 0.03123
 N476 N 0.47094 0.51843 0.05728
 N477 N 0.46720 0.53690 0.07823
 N478 N 0.44762 0.51913 0.03721
 N479 N 0.42735 0.53824 0.04400
 N480 N 0.47332 0.46366 0.04951
 N481 N 0.46849 0.44364 0.06697
 Mn482 Mn 0.50698 0.49261 0.05309
 C483 C 0.44164 0.43184 0.05498
 C484 C 0.43992 0.54904 0.06972
 N485 N 0.56209 0.47498 -0.03681
 N486 N 0.58460 0.45814 -0.04475
 N487 N 0.53542 0.53035 -0.04890
 N488 N 0.53746 0.55150 -0.06486
 N489 N 0.55907 0.52973 -0.02920
 N490 N 0.57818 0.55045 -0.03148
 N491 N 0.53914 0.47556 -0.05721
 N492 N 0.54544 0.45896 -0.07970
 Mn493 Mn 0.56220 0.49962 -0.00109
 C494 C 0.57379 0.44816 -0.07135
 C495 C 0.56420 0.56382 -0.05381
 N496 N 0.44476 0.52415 -0.02666
 N497 N 0.42174 0.54171 -0.02868
 N498 N 0.46975 0.47236 -0.05599
 N499 N 0.46408 0.45625 -0.07910
 N500 N 0.44794 0.46937 -0.03524
 N501 N 0.42677 0.45097 -0.04379
 N502 N 0.46619 0.52704 -0.04774
 N503 N 0.45833 0.54673 -0.06469
 Mn504 Mn 0.44740 0.49418 0.00107
 Mn505 Mn 0.50264 0.50134 -0.05275
 Cl506 Cl 0.50479 0.49691 0.00009
 C507 C 0.43069 0.55579 -0.05228
 C508 C 0.43752 0.44282 -0.07110
 C509 C 1.16383 0.18112 0.18307
 C510 C 1.17069 0.15481 0.17669
 C511 C 1.14794 0.13632 0.16112
 C512 C 1.16058 0.11400 0.14655
 C513 C 1.14029 0.09620 0.13106
 C514 C 1.10677 0.10028 0.12992
 C515 C 1.09386 0.12196 0.14557
 C516 C 1.11425 0.13995 0.16094
 C517 C 1.08519 0.08212 0.11249
 C518 C 1.09557 0.06992 0.08605
 H519 H 1.19419 0.14734 0.18262
 H520 H 1.18634 0.11046 0.14684
 H521 H 1.15093 0.07915 0.12015
 H522 H 1.06805 0.12522 0.14544
 H523 H 1.10346 0.15640 0.17284
 H524 H 1.06053 0.07936 0.11966
 H525 H 1.14029 0.18870 0.17749
 H526 H 1.11919 0.07465 0.07748
 C527 C 1.17462 0.66778 0.68307
 C528 C 1.14418 0.67279 0.67103
 C529 C 1.12345 0.65158 0.65816
 C530 C 1.10514 0.65599 0.63234
 C531 C 1.08667 0.63573 0.61890
 C532 C 1.08565 0.61094 0.63155
 C533 C 1.10251 0.60696 0.65830
 C534 C 1.12160 0.62703 0.67136
 C535 C 1.06842 0.58878 0.61642
 C536 C 1.07151 0.58417 0.58578
 H537 H 1.13645 0.69282 0.66873
 H538 H 1.10590 0.67489 0.62208
 H539 H 1.07335 0.63937 0.59853
 H540 H 1.10179 0.58803 0.66850
 H541 H 1.13486 0.62338 0.69175
 H542 H 1.05695 0.57414 0.62980
 H543 H 1.18392 0.64801 0.68141
 H544 H 1.08635 0.59718 0.57300
 C545 C 0.69349 0.17450 0.66560
 C546 C 0.67924 0.15072 0.67288
 C547 C 0.65947 0.13458 0.65150
 C548 C 0.63685 0.11692 0.66266
 C549 C 0.61791 0.10113 0.64321
 C550 C 0.62136 0.10267 0.61207
 C551 C 0.64437 0.12002 0.60093
 C552 C 0.66325 0.13584 0.62038
 C553 C 0.60292 0.08553 0.59062
 C554 C 0.57464 0.07220 0.59771
 H555 H 0.68058 0.14455 0.69576
 H556 H 0.63384 0.11531 0.68656
 H557 H 0.60127 0.08740 0.65277
 H558 H 0.64791 0.12122 0.57706
 H559 H 0.68118 0.14856 0.61093
 H560 H 0.61219 0.08323 0.56812
 H561 H 0.68884 0.18239 0.64385
 H562 H 0.56348 0.07513 0.61929
 C563 C 0.66406 0.68052 0.18278
 C564 C 0.67122 0.65433 0.17594
 C565 C 0.64809 0.63557 0.16133
 C566 C 0.66046 0.61387 0.14537
 C567 C 0.63978 0.59596 0.13054
 C568 C 0.60613 0.59925 0.13154
 C569 C 0.59357 0.62024 0.14865
 C570 C 0.61435 0.63840 0.16331
 C571 C 0.58418 0.58106 0.11459
 C572 C 0.59299 0.57078 0.08667
 H573 H 0.69524 0.64723 0.18051
 H574 H 0.68630 0.61096 0.14397
 H575 H 0.65020 0.57946 0.11837
 H576 H 0.56770 0.62289 0.15014
 H577 H 0.60388 0.65436 0.17631
 H578 H 0.56050 0.57678 0.12335
 H579 H 0.63999 0.68767 0.17851
 H580 H 0.61535 0.57723 0.07684
 C581 C 0.84705 -0.18441 0.16665
 C582 C 0.83684 -0.16636 0.14565
 C583 C 0.85898 -0.14840 0.13010
 C584 C 0.84749 -0.13599 0.10464
 C585 C 0.86662 -0.11778 0.09013
 C586 C 0.89796 -0.11149 0.10079
 C587 C 0.90947 -0.12393 0.12625
 C588 C 0.89026 -0.14211 0.14082
 C589 C 0.91874 -0.09136 0.08706
 C590 C 0.91157 -0.07950 0.06015
 H591 H 0.81160 -0.16511 0.13970
 H592 H 0.82336 -0.14017 0.09609
 H593 H 0.85622 -0.10845 0.07107
 H594 H 0.93331 -0.11928 0.13522
 H595 H 0.89982 -0.15049 0.16088
 H596 H 0.94059 -0.08527 0.09900
 H597 H 0.87276 -0.18666 0.17010
 H598 H 0.89068 -0.08546 0.04693
 C599 C 0.85600 0.31579 0.67976
 C600 C 0.84736 0.34030 0.66991
 C601 C 0.86802 0.35566 0.65019
 C602 C 0.85429 0.37653 0.63513
 C603 C 0.87307 0.39189 0.61673
 C604 C 0.90615 0.38682 0.61323
 C605 C 0.92005 0.36614 0.62856
 C606 C 0.90109 0.35046 0.64666
 C607 C 0.92672 0.40389 0.59524
 C608 C 0.91474 0.41663 0.57047
 H609 H 0.82386 0.34811 0.67552
 H610 H 0.82893 0.38104 0.63770
 H611 H 0.86180 0.40818 0.60597
 H612 H 0.94559 0.36211 0.62648
 H613 H 0.91241 0.33464 0.65826
 H614 H 0.95178 0.40672 0.60186
 H615 H 0.84390 0.30787 0.69057
 H616 H 0.89072 0.41205 0.56195
 C617 C 0.35394 -0.19481 0.66792
 C618 C 0.34454 -0.17793 0.64542
 C619 C 0.36717 -0.16059 0.62965
 C620 C 0.35655 -0.14944 0.60313
 C621 C 0.37590 -0.13156 0.58843
 C622 C 0.40664 -0.12439 0.59991
 C623 C 0.41738 -0.13565 0.62637
 C624 C 0.39791 -0.15352 0.64116
 C625 C 0.42710 -0.10408 0.58619
 C626 C 0.42094 -0.09411 0.55808
 H627 H 0.31960 -0.17725 0.63833
 H628 H 0.33283 -0.15423 0.59396
 H629 H 0.36598 -0.12298 0.56867
 H630 H 0.44070 -0.13024 0.63598
 H631 H 0.40674 -0.16095 0.66201
 H632 H 0.44714 -0.09591 0.59929
 H633 H 0.37950 -0.19686 0.67238
 H634 H 0.40206 -0.10240 0.54379
 C635 C 0.35106 0.31212 0.17682
 C636 C 0.34272 0.33035 0.15540
 C637 C 0.36631 0.34706 0.13989
 C638 C 0.35567 0.36011 0.11460
 C639 C 0.37614 0.37716 0.09993
 C640 C 0.40808 0.38153 0.11010
 C641 C 0.41876 0.36863 0.13553
 C642 C 0.39817 0.35156 0.15032
 C643 C 0.42991 0.40057 0.09586
 C644 C 0.42454 0.40933 0.06707
 H645 H 0.31777 0.33269 0.14896
 H646 H 0.33115 0.35741 0.10633
 H647 H 0.36627 0.38740 0.08124
 H648 H 0.44303 0.37199 0.14418
 H649 H 0.40717 0.34263 0.17026
 H650 H 0.45022 0.40853 0.10876
 H651 H 0.37644 0.30900 0.18124
 H652 H 0.40550 0.40072 0.05318
 C653 C 0.82194 0.18499 -0.14277
 C654 C 0.85441 0.18461 -0.13361
 C655 C 0.86806 0.16445 -0.11409
 C656 C 0.90153 0.16038 -0.11453
 C657 C 0.91542 0.14041 -0.09832
 C658 C 0.89604 0.12392 -0.08129
 C659 C 0.86285 0.12892 -0.07942
 C660 C 0.84893 0.14897 -0.09561
 C661 C 0.90953 0.10124 -0.06572
 C662 C 0.93765 0.08870 -0.07504
 H663 H 0.87151 0.19823 -0.14260
 H664 H 0.91698 0.17234 -0.12802
 H665 H 0.94130 0.13801 -0.09932
 H666 H 0.84750 0.11689 -0.06592
 H667 H 0.82327 0.15209 -0.09348
 H668 H 0.89559 0.09288 -0.04798
 H669 H 0.80552 0.17103 -0.13330
 H670 H 0.95093 0.09568 -0.09390
 C671 C 0.83894 0.68815 0.33430
 C672 C 0.83218 0.66222 0.34159
 C673 C 0.85379 0.64641 0.36026
 C674 C 0.84043 0.62563 0.37585
 C675 C 0.86011 0.60929 0.39240
 C676 C 0.89376 0.61326 0.39351
 C677 C 0.90721 0.63388 0.37768
 C678 C 0.88744 0.65043 0.36133
 C679 C 0.91534 0.59524 0.40939
 C680 C 0.90518 0.58089 0.43359
 H681 H 0.80941 0.65321 0.33497
 H682 H 0.81465 0.62186 0.37499
 H683 H 0.84894 0.59309 0.40345
 H684 H 0.93311 0.63706 0.37779
 H685 H 0.89867 0.66576 0.34885
 H686 H 0.94002 0.59329 0.40186
 H687 H 0.85978 0.69767 0.34487
 H688 H 0.88157 0.58422 0.44306
 C689 C 0.33393 0.18608 0.34041
 C690 C 0.32851 0.15954 0.34574
 C691 C 0.35089 0.14354 0.36334
 C692 C 0.33865 0.12139 0.37720
 C693 C 0.35916 0.10494 0.39270
 C694 C 0.39253 0.11019 0.39448
 C695 C 0.40490 0.13215 0.38029
 C696 C 0.38429 0.14879 0.36498
 C697 C 0.41494 0.09229 0.40950
 C698 C 0.40525 0.07676 0.43285
 H699 H 0.30638 0.15003 0.33817
 H700 H 0.31311 0.11667 0.37582
 H701 H 0.34887 0.08770 0.40244
 H702 H 0.43059 0.13635 0.38093
 H703 H 0.39470 0.16522 0.35374
 H704 H 0.43977 0.09145 0.40212
 H705 H 0.35410 0.19576 0.35192
 H706 H 0.38139 0.07901 0.44218
 C707 C 0.34072 0.68383 -0.16112
 C708 C 0.33408 0.65809 -0.15311
 C709 C 0.35642 0.64237 -0.13517
 C710 C 0.34371 0.62165 -0.11909
 C711 C 0.36407 0.60520 -0.10345
 C712 C 0.39774 0.60903 -0.10373
 C713 C 0.41053 0.62963 -0.12001
 C714 C 0.39008 0.64628 -0.13548
 C715 C 0.41989 0.59085 -0.08887
 C716 C 0.41069 0.57661 -0.06430
 H717 H 0.31105 0.64909 -0.15885
 H718 H 0.31791 0.61796 -0.11893
 H719 H 0.35336 0.58899 -0.09204
 H720 H 0.43641 0.63270 -0.12095
 H721 H 0.40076 0.66156 -0.14841
 H722 H 0.44409 0.58860 -0.09753
 H723 H 0.36179 0.69351 -0.15116
 H724 H 0.38768 0.58029 -0.05377
 C725 C 1.17293 -0.17598 -0.18513
 C726 C 1.17835 -0.14924 -0.17971
 C727 C 1.15478 -0.13221 -0.16408
 C728 C 1.16625 -0.11072 -0.14668
 C729 C 1.14483 -0.09467 -0.13083
 C730 C 1.11139 -0.09963 -0.13240
 C731 C 1.09974 -0.12038 -0.15091
 C732 C 1.12126 -0.13672 -0.16646
 C733 C 1.08863 -0.08324 -0.11493
 C734 C 1.09684 -0.07365 -0.08635
 H735 H 1.20175 -0.14088 -0.18452
 H736 H 1.19192 -0.10660 -0.14492
 H737 H 1.15446 -0.07827 -0.11749
 H738 H 1.07403 -0.12427 -0.15282
 H739 H 1.11163 -0.15267 -0.18050
 H740 H 1.06485 -0.07955 -0.12409
 H741 H 1.15109 -0.18483 -0.17680
 H742 H 1.11941 -0.07947 -0.07622
 C743 C 1.16853 0.33122 0.32152
 C744 C 1.17293 0.35830 0.32486
 C745 C 1.14909 0.37567 0.33964
 C746 C 1.16006 0.39893 0.35399
 C747 C 1.13852 0.41549 0.36899
 C748 C 1.10542 0.40921 0.36967
 C749 C 1.09412 0.38662 0.35409
 C750 C 1.11579 0.36984 0.33933
 C751 C 1.08269 0.42590 0.38685
 C752 C 1.09211 0.43783 0.41401
 H753 H 1.19572 0.36698 0.31872
 H754 H 1.18549 0.40410 0.35405
 H755 H 1.14781 0.43324 0.37999
 H756 H 1.06864 0.38165 0.35393
 H757 H 1.10639 0.35251 0.32757
 H758 H 1.05794 0.42750 0.37909
 H759 H 1.14733 0.32234 0.33106
 H760 H 1.11588 0.43400 0.42308
 C761 C 0.67482 -0.16798 0.31997
 C762 C 0.67969 -0.14099 0.32380
 C763 C 0.65621 -0.12359 0.33904
 C764 C 0.66754 -0.10061 0.35377
 C765 C 0.64621 -0.08393 0.36889
 C766 C 0.61298 -0.08979 0.36931
 C767 C 0.60140 -0.11216 0.35347
 C768 C 0.62283 -0.12906 0.33861
 C769 C 0.59028 -0.07285 0.38618
 C770 C 0.59949 -0.06042 0.41313
 H771 H 0.70250 -0.13244 0.31746
 H772 H 0.69305 -0.09573 0.35393
 H773 H 0.65576 -0.06635 0.38007
 H774 H 0.57583 -0.11682 0.35310
 H775 H 0.61317 -0.14617 0.32657
 H776 H 0.56551 -0.07150 0.37838
 H777 H 0.65375 -0.17684 0.32978
 H778 H 0.62326 -0.06387 0.42241
 C779 C 0.65858 0.32087 -0.18823
 C780 C 0.66614 0.34686 -0.18015
 C781 C 0.64345 0.36539 -0.16558
 C782 C 0.65646 0.38754 -0.15034
 C783 C 0.63651 0.40504 -0.13489
 C784 C 0.60295 0.40080 -0.13440
 C785 C 0.58962 0.37943 -0.15088
 C786 C 0.60969 0.36173 -0.16625
 C787 C 0.58187 0.41836 -0.11655
 C788 C 0.59261 0.42946 -0.08936
 H789 H 0.69059 0.35381 -0.18335
 H790 H 0.68230 0.39110 -0.14990
 H791 H 0.64743 0.42189 -0.12331
 H792 H 0.56375 0.37609 -0.15123
 H793 H 0.59860 0.34539 -0.17856
 H794 H 0.55729 0.42151 -0.12403
 H795 H 0.63412 0.31361 -0.18641
 H796 H 0.61607 0.42427 -0.08060
 C797 C 1.16991 0.18186 -0.16926
 C798 C 1.17375 0.15496 -0.16533
 C799 C 1.15312 0.14003 -0.14517
 C800 C 1.16609 0.11834 -0.13105
 C801 C 1.14673 0.10289 -0.11321
 C802 C 1.11384 0.10867 -0.10954
 C803 C 1.10079 0.13022 -0.12387
 C804 C 1.12029 0.14593 -0.14136
 C805 C 1.09231 0.09141 -0.09282
 C806 C 1.10318 0.07680 -0.06907
 H807 H 1.19353 0.14445 -0.17556
 H808 H 1.19121 0.11321 -0.13406
 H809 H 1.15731 0.08593 -0.10321
 H810 H 1.07539 0.13476 -0.12173
 H811 H 1.10941 0.16210 -0.15268
 H812 H 1.06709 0.09013 -0.09946
 H813 H 1.15308 0.19200 -0.15457
 H814 H 1.12741 0.07968 -0.06020
 C815 C 1.14841 0.68186 0.31980
 C816 C 1.15697 0.65880 0.33354
 C817 C 1.13477 0.64405 0.35246
 C818 C 1.14797 0.62761 0.37374
 C819 C 1.12795 0.61280 0.39160
 C820 C 1.09417 0.61406 0.38843
 C821 C 1.08093 0.63017 0.36680
 C822 C 1.10100 0.64514 0.34901
 C823 C 1.07250 0.59745 0.40588
 C824 C 1.08150 0.58781 0.43344
 H825 H 1.18166 0.65211 0.33205
 H826 H 1.17391 0.62613 0.37646
 H827 H 1.13912 0.59983 0.40719
 H828 H 1.05500 0.63104 0.36355
 H829 H 1.09001 0.65697 0.33214
 H830 H 1.04908 0.59212 0.39637
 H831 H 1.12512 0.69052 0.32433
 H832 H 1.10366 0.59443 0.44437
 C833 C 0.68137 0.17344 0.34552
 C834 C 0.65774 0.18030 0.36639
 C835 C 0.64531 0.16153 0.38815
 C836 C 0.61324 0.16360 0.39767
 C837 C 0.60010 0.14511 0.41653
 C838 C 0.61895 0.12427 0.42648
 C839 C 0.65159 0.12315 0.41850
 C840 C 0.66466 0.14151 0.39940
 C841 C 0.60486 0.10294 0.44397
 C842 C 0.57326 0.09420 0.43889
 H843 H 0.64572 0.19895 0.36501
 H844 H 0.59803 0.17914 0.38981
 H845 H 0.57512 0.14704 0.42308
 H846 H 0.66674 0.10753 0.42626
 H847 H 0.68985 0.13992 0.39343
 H848 H 0.62069 0.09169 0.45795
 H849 H 0.69045 0.15362 0.34509
 H850 H 0.55831 0.10373 0.42260
 C851 C 0.67395 0.67353 -0.16020
 C852 C 0.65453 0.67973 -0.13549
 C853 C 0.64368 0.65937 -0.11498
 C854 C 0.61273 0.66098 -0.10265
 C855 C 0.60115 0.64113 -0.08474
 C856 C 0.62058 0.61950 -0.07846
 C857 C 0.65223 0.61870 -0.08928
 C858 C 0.66365 0.63836 -0.10756
 C859 C 0.60797 0.59715 -0.06178
 C860 C 0.57622 0.58842 -0.06574
 H861 H 0.64457 0.69907 -0.13213
 H862 H 0.59714 0.67724 -0.10761
 H863 H 0.57694 0.64266 -0.07597
 H864 H 0.66778 0.60241 -0.08438
 H865 H 0.68805 0.63706 -0.11589
 H866 H 0.62476 0.58540 -0.04937
 H867 H 0.67983 0.65300 -0.16379
 H868 H 0.56027 0.59853 -0.08071
 C869 C 0.81746 -0.18067 -0.16585
 C870 C 0.83080 -0.15638 -0.17302
 C871 C 0.84690 -0.13822 -0.15085
 C872 C 0.86830 -0.11926 -0.16130
 C873 C 0.88364 -0.10137 -0.14148
 C874 C 0.87792 -0.10199 -0.11056
 C875 C 0.85582 -0.12044 -0.10011
 C876 C 0.84050 -0.13846 -0.11999
 C877 C 0.89398 -0.08315 -0.08912
 C878 C 0.92402 -0.07203 -0.09493
 H879 H 0.83083 -0.15035 -0.19589
 H880 H 0.87319 -0.11826 -0.18498
 H881 H 0.89947 -0.08679 -0.15061
 H882 H 0.85053 -0.12099 -0.07648
 H883 H 0.82325 -0.15209 -0.11112
 H884 H 0.88238 -0.07851 -0.06802
 H885 H 0.82019 -0.18679 -0.14305
 H886 H 0.93696 -0.07814 -0.11482
 C887 C 0.82416 0.31571 0.33199
 C888 C 0.82709 0.34298 0.33037
 C889 C 0.84490 0.35964 0.35282
 C890 C 0.85812 0.38345 0.34388
 C891 C 0.87412 0.40025 0.36447
 C892 C 0.87697 0.39372 0.39465
 C893 C 0.86311 0.37018 0.40382
 C894 C 0.84741 0.35315 0.38306
 C895 C 0.89332 0.41164 0.41682
 C896 C 0.91930 0.42738 0.40893
 H897 H 0.81793 0.35276 0.31106
 H898 H 0.85602 0.38912 0.32083
 H899 H 0.88359 0.41864 0.35681
 H900 H 0.86458 0.36493 0.42704
 H901 H 0.83662 0.33530 0.39088
 H902 H 0.88541 0.41191 0.43983
 H903 H 0.83750 0.30629 0.34953
 H904 H 0.92925 0.42527 0.38670
 C905 C 0.32744 -0.19002 0.33153
 C906 C 0.34906 -0.16997 0.32444
 C907 C 0.36379 -0.15131 0.34694
 C908 C 0.39024 -0.13607 0.33839
 C909 C 0.40404 -0.11727 0.35812
 C910 C 0.39171 -0.11326 0.38714
 C911 C 0.36516 -0.12843 0.39567
 C912 C 0.35125 -0.14719 0.37585
 C913 C 0.40479 -0.09285 0.40857
 C914 C 0.43352 -0.07912 0.40425
 H915 H 0.35587 -0.16735 0.30152
 H916 H 0.40012 -0.13851 0.31614
 H917 H 0.42380 -0.10569 0.35000
 H918 H 0.35484 -0.12555 0.41768
 H919 H 0.33022 -0.15775 0.38318
 H920 H 0.39100 -0.08824 0.42850
 H921 H 0.32287 -0.19311 0.35491
 H922 H 0.44861 -0.08368 0.38528
 C923 C 0.32327 0.31760 -0.17346
 C924 C 0.32540 0.34500 -0.17308
 C925 C 0.34351 0.36061 -0.14990
 C926 C 0.35658 0.38487 -0.15748
 C927 C 0.37323 0.40053 -0.13620
 C928 C 0.37687 0.39238 -0.10667
 C929 C 0.36300 0.36847 -0.09876
 C930 C 0.34667 0.35256 -0.12024
 C931 C 0.39442 0.40895 -0.08395
 C932 C 0.42103 0.42402 -0.09170
 H933 H 0.31552 0.35575 -0.19137
 H934 H 0.35398 0.39171 -0.18002
 H935 H 0.38274 0.41925 -0.14280
 H936 H 0.36508 0.36200 -0.07603
 H937 H 0.33598 0.33433 -0.11345
 H938 H 0.38697 0.40868 -0.06082
 H939 H 0.33712 0.30748 -0.15680
 H940 H 0.43033 0.42222 -0.11420
 C941 C 1.15398 -0.18013 0.17913
 C942 C 1.16001 -0.15374 0.17370
 C943 C 1.13792 -0.13794 0.15571
 C944 C 1.15103 -0.11790 0.13888
 C945 C 1.13114 -0.10280 0.12115
 C946 C 1.09760 -0.10730 0.12013
 C947 C 1.08427 -0.12667 0.13785
 C948 C 1.10427 -0.14205 0.15537
 C949 C 1.07630 -0.09132 0.10157
 C950 C 1.08683 -0.08147 0.07471
 H951 H 1.18283 -0.14471 0.18005
 H952 H 1.17681 -0.11409 0.13920
 H953 H 1.14204 -0.08733 0.10863
 H954 H 1.05841 -0.13009 0.13785
 H955 H 1.09334 -0.15680 0.16891
 H956 H 1.05202 -0.08726 0.10914
 H957 H 1.13225 -0.18899 0.16942
 H958 H 1.11001 -0.08731 0.06584
 C959 C 1.14914 0.31449 0.67012
 C960 C 1.15771 0.32888 0.64529
 C961 C 1.13553 0.34722 0.63076
 C962 C 1.14098 0.35345 0.60094
 C963 C 1.12190 0.37193 0.58696
 C964 C 1.09723 0.38497 0.60277
 C965 C 1.09130 0.37830 0.63239
 C966 C 1.11033 0.35974 0.64636
 C967 C 1.07770 0.40584 0.58945
 C968 C 1.08792 0.42006 0.56518
 H969 H 1.18099 0.32617 0.63504
 H970 H 1.16018 0.34403 0.58843
 H971 H 1.12664 0.37581 0.56381
 H972 H 1.07242 0.38801 0.64505
 H973 H 1.10588 0.35595 0.66960
 H974 H 1.05553 0.41151 0.60049
 H975 H 1.12418 0.31505 0.67711
 H976 H 1.11068 0.41585 0.55452
 C977 C 0.65012 -0.18186 0.67974
 C978 C 0.66046 -0.16792 0.65501
 C979 C 0.63999 -0.14945 0.63847
 C980 C 0.65526 -0.13129 0.62032
 C981 C 0.63727 -0.11336 0.60432
 C982 C 0.60338 -0.11336 0.60584
 C983 C 0.58804 -0.13162 0.62381
 C984 C 0.60605 -0.14961 0.63982
 C985 C 0.58339 -0.09399 0.59023
 C986 C 0.59431 -0.07929 0.56652
 H987 H 0.68519 -0.16920 0.64782
 H988 H 0.68136 -0.13069 0.61882
 H989 H 0.65019 -0.09924 0.59141
 H990 H 0.56195 -0.13204 0.62540
 H991 H 0.59317 -0.16368 0.65281
 H992 H 0.55884 -0.09120 0.59779
 H993 H 0.62569 -0.17890 0.68739
 H994 H 0.61791 -0.08259 0.55709
 C995 C 0.65342 0.31217 0.17670
 C996 C 0.66341 0.32674 0.15231
 C997 C 0.64282 0.34551 0.13622
 C998 C 0.65789 0.36252 0.11653
 C999 C 0.64004 0.38094 0.10113
 C1000 C 0.60645 0.38266 0.10482
 C1001 C 0.59127 0.36559 0.12433
 C1002 C 0.60913 0.34709 0.13974
 C1003 C 0.58682 0.40273 0.08996
 C1004 C 0.59691 0.41612 0.06494
 H1005 H 0.68797 0.32540 0.14470
 H1006 H 0.68378 0.36187 0.11337
 H1007 H 0.65292 0.39413 0.08700
 H1008 H 0.56542 0.36653 0.12764
 H1009 H 0.59623 0.33415 0.15410
 H1010 H 0.56328 0.40711 0.09913
 H1011 H 0.62869 0.31396 0.18391
 H1012 H 0.61928 0.41111 0.05397
 C1013 C 0.80868 0.17480 0.15539
 C1014 C 0.84104 0.16717 0.15519
 C1015 C 0.85510 0.14889 0.13233
 C1016 C 0.88885 0.14721 0.13061
 C1017 C 0.90336 0.12930 0.11072
 C1018 C 0.88437 0.11235 0.09223
 C1019 C 0.85065 0.11450 0.09323
 C1020 C 0.83609 0.13239 0.11320
 C1021 C 0.89900 0.09192 0.07239
 C1022 C 0.92833 0.08029 0.07941
 H1023 H 0.85713 0.17456 0.17273
 H1024 H 0.90412 0.15974 0.14488
 H1025 H 0.92945 0.12885 0.10992
 H1026 H 0.83549 0.10170 0.07918
 H1027 H 0.81004 0.13251 0.11403
 H1028 H 0.88508 0.08418 0.05339
 H1029 H 0.79268 0.16765 0.13766
 H1030 H 0.94114 0.08633 0.09971
 C1031 C 0.80224 0.67702 0.65772
 C1032 C 0.83358 0.66717 0.65935
 C1033 C 0.84691 0.64780 0.63736
 C1034 C 0.88051 0.64468 0.63630
 C1035 C 0.89420 0.62565 0.61730
 C1036 C 0.87449 0.60895 0.59916
 C1037 C 0.84095 0.61250 0.59952
 C1038 C 0.82721 0.63157 0.61857
 C1039 C 0.88823 0.58748 0.58022
 C1040 C 0.91689 0.57519 0.58795
 H1041 H 0.84928 0.67354 0.67766
 H1042 H 0.89627 0.65697 0.65036
 H1043 H 0.92023 0.62415 0.61690
 H1044 H 0.82526 0.59994 0.58570
 H1045 H 0.80118 0.63282 0.61908
 H1046 H 0.87441 0.57995 0.56106
 H1047 H 0.78685 0.67097 0.63904
 H1048 H 0.92959 0.58119 0.60832
 C1049 C 0.30416 0.17515 0.64909
 C1050 C 0.33530 0.16491 0.65072
 C1051 C 0.34796 0.14456 0.62950
 C1052 C 0.38138 0.14030 0.62910
 C1053 C 0.39443 0.12035 0.61096
 C1054 C 0.37425 0.10388 0.59300
 C1055 C 0.34094 0.10859 0.59262
 C1056 C 0.32782 0.12856 0.61085
 C1057 C 0.38736 0.08156 0.57499
 C1058 C 0.41490 0.06838 0.58406
 H1059 H 0.35129 0.17162 0.66868
 H1060 H 0.39750 0.15238 0.64305
 H1061 H 0.42036 0.11795 0.61107
 H1062 H 0.32492 0.09624 0.57889
 H1063 H 0.30189 0.13070 0.61079
 H1064 H 0.37409 0.07438 0.55535
 H1065 H 0.28821 0.16864 0.63103
 H1066 H 0.42678 0.07415 0.60493
 C1067 C 0.30821 0.66822 0.15671
 C1068 C 0.34088 0.66775 0.14919
 C1069 C 0.35523 0.64687 0.12980
 C1070 C 0.38853 0.64242 0.13202
 C1071 C 0.40293 0.62233 0.11502
 C1072 C 0.38424 0.60620 0.09532
 C1073 C 0.35120 0.61138 0.09209
 C1074 C 0.33677 0.63147 0.10913
 C1075 C 0.39839 0.58407 0.07776
 C1076 C 0.42642 0.57144 0.08665
 H1077 H 0.35710 0.68253 0.15877
 H1078 H 0.40343 0.65432 0.14730
 H1079 H 0.42871 0.61972 0.11728
 H1080 H 0.33640 0.59961 0.07662
 H1081 H 0.31130 0.63491 0.10575
 H1082 H 0.38536 0.57653 0.05813
 H1083 H 0.29211 0.65332 0.14718
 H1084 H 0.43878 0.57753 0.10716
   
