data_POSCAR
  _audit_creation_date              2014-09-24
  _audit_creation_method            'ToBaCCo'
  _symmetry_space_group_name_H-M    'P1'
  _symmetry_Int_Tables_number       1
  _symmetry_cell_setting            triclinic
  loop_
  _symmetry_equiv_pos_as_xyz
 x,y,z
_cell_length_a 44.7177
_cell_length_b 44.4796
_cell_length_c 26.4764
_cell_angle_alpha 89.290000
_cell_angle_beta 89.953600
_cell_angle_gamma 89.935100
loop_
  _atom_site_label
  _atom_site_type_symbol
  _atom_site_fract_x
  _atom_site_fract_y
  _atom_site_fract_z
O1 O -0.02771 0.29187 0.09524
 O2 O 0.03019 0.30004 -0.00495
 O3 O -0.02951 0.30071 -0.00210
 O4 O 0.03084 0.29646 0.09255
 O5 O 0.03269 0.24721 0.08339
 O6 O -0.02856 0.25128 -0.00887
 O7 O 0.02886 0.25093 -0.01462
 O8 O -0.02451 0.24257 0.08779
 Cu9 Cu 0.00071 0.30231 0.04572
 Cu10 Cu 0.00230 0.24319 0.03602
 C11 C -0.03569 0.26545 0.10858
 C12 C 0.03956 0.27639 -0.02665
 C13 C -0.03966 0.27668 -0.02089
 C14 C 0.04219 0.27110 0.10382
 O15 O 0.52833 0.77110 0.37467
 O16 O 0.47781 0.76778 0.48505
 O17 O 0.53692 0.76984 0.47090
 O18 O 0.47019 0.76339 0.38775
 O19 O 0.47645 0.71416 0.38701
 O20 O 0.54226 0.72054 0.46613
 O21 O 0.48310 0.71853 0.48732
 O22 O 0.53164 0.72156 0.37481
 Cu23 Cu 0.50263 0.77301 0.42976
 Cu24 Cu 0.50780 0.71399 0.43108
 C25 C 0.53926 0.74706 0.35678
 C26 C 0.47155 0.74241 0.50468
 C27 C 0.55193 0.74597 0.47960
 C28 C 0.46210 0.73741 0.37326
 O29 O 1.03379 0.73120 -0.01568
 O30 O 0.97949 0.72396 -0.12129
 O31 O 1.03873 0.72460 -0.11284
 O32 O 0.97487 0.73003 -0.02413
 O33 O 0.97637 0.77943 -0.03241
 O34 O 1.03639 0.77349 -0.12667
 O35 O 0.97880 0.77336 -0.12977
 O36 O 1.03487 0.77998 -0.03087
 Cu37 Cu 1.00671 0.72244 -0.06755
 Cu38 Cu 1.00642 0.78143 -0.08075
 C39 C 1.04454 0.75711 -0.00680
 C40 C 0.96946 0.74770 -0.14268
 C41 C 1.04878 0.74825 -0.13445
 C42 C 0.96478 0.75586 -0.01316
 O43 O 0.46928 0.22108 0.50811
 O44 O 0.53281 0.21399 0.59716
 O45 O 0.47377 0.21868 0.60502
 O46 O 0.52772 0.21694 0.49908
 O47 O 0.53037 0.26651 0.50151
 O48 O 0.47847 0.26808 0.60769
 O49 O 0.53591 0.26349 0.59942
 O50 O 0.47344 0.27052 0.51089
 Cu51 Cu 0.50069 0.21258 0.55236
 Cu52 Cu 0.50511 0.27204 0.55532
 C53 C 0.46044 0.24718 0.49477
 C54 C 0.54526 0.23772 0.61313
 C55 C 0.46643 0.24392 0.62337
 C56 C 0.53781 0.24173 0.48194
 O57 O 0.72456 0.03038 -0.06671
 O58 O 0.73055 -0.02760 0.03379
 O59 O 0.72097 0.03137 0.03126
 O60 O 0.73299 -0.02833 -0.06338
 O61 O 0.78172 -0.02202 -0.05499
 O62 O 0.76976 0.03873 0.03407
 O63 O 0.77878 -0.01830 0.04064
 O64 O 0.77357 0.03596 -0.06394
 Cu65 Cu 0.72226 0.00087 -0.01662
 Cu66 Cu 0.78077 0.00963 -0.01097
 C67 C 0.74830 0.04309 -0.08231
 C68 C 0.75592 -0.03349 0.05339
 C69 C 0.74352 0.04538 0.04829
 C70 C 0.75969 -0.03622 -0.07315
 O71 O 0.19794 0.52764 0.49327
 O72 O 0.20244 0.47055 0.59536
 O73 O 0.20476 0.53028 0.58982
 O74 O 0.19846 0.46826 0.49783
 O75 O 0.24761 0.46815 0.49028
 O76 O 0.25387 0.52831 0.58246
 O77 O 0.25157 0.46962 0.58780
 O78 O 0.24709 0.52646 0.48550
 Cu79 Cu 0.19596 0.49923 0.54503
 Cu80 Cu 0.25487 0.49802 0.53591
 C81 C 0.22181 0.53718 0.47259
 C82 C 0.22769 0.45977 0.60813
 C83 C 0.23058 0.54036 0.60063
 C84 C 0.22227 0.45746 0.47880
 O85 O 0.26395 1.02430 0.09493
 O86 O 0.27043 0.96411 -0.00071
 O87 O 0.26268 1.02418 -0.00188
 O88 O 0.26886 0.96523 0.09787
 O89 O 0.21964 0.96138 0.09947
 O90 O 0.21403 1.01660 -0.00380
 O91 O 0.22158 0.95761 0.00408
 O92 O 0.21505 1.01807 0.09525
 Cu93 Cu 0.27147 0.99491 0.04698
 Cu94 Cu 0.21269 0.98824 0.04774
 C95 C 0.23818 1.03146 0.11130
 C96 C 0.24702 0.94950 -0.01212
 C97 C 0.23690 1.03111 -0.01873
 C98 C 0.24512 0.95335 0.11573
 O99 O 0.77808 0.53111 0.53064
 O100 O 0.78025 0.46967 0.43694
 O101 O 0.77670 0.52855 0.43247
 O102 O 0.78653 0.47219 0.53406
 O103 O 0.73747 0.46801 0.54083
 O104 O 0.72772 0.52294 0.43763
 O105 O 0.73122 0.46545 0.44396
 O106 O 0.72914 0.52563 0.53570
 Cu107 Cu 0.78537 0.50095 0.48312
 Cu108 Cu 0.72655 0.49514 0.49036
 C109 C 0.75287 0.53899 0.54864
 C110 C 0.75577 0.45704 0.42481
 C111 C 0.75055 0.53507 0.41735
 C112 C 0.76366 0.46016 0.55415
 C113 C 0.19597 0.19429 0.24064
 C114 C 0.22560 0.18577 0.24996
 C115 C 0.24437 0.20563 0.27584
 C116 C 0.23325 0.23304 0.29527
 C117 C 0.20275 0.24016 0.28704
 C118 C 0.18429 0.22113 0.25904
 C119 C 0.25338 0.25418 0.32328
 C120 C 0.24649 0.28519 0.32649
 C121 C 0.26543 0.30495 0.35209
 C122 C 0.29202 0.29401 0.37317
 C123 C 0.29982 0.26363 0.36987
 C124 C 0.28002 0.24371 0.34643
 H125 H 0.18195 0.18023 0.21738
 H126 H 0.26756 0.19946 0.28034
 H127 H 0.19289 0.26024 0.30249
 H128 H 0.22687 0.29454 0.30839
 H129 H 0.30645 0.30922 0.39350
 H130 H 0.28585 0.22016 0.34617
 C131 C 0.79634 0.79154 0.12199
 C132 C 0.76918 0.80039 0.14365
 C133 C 0.75114 0.77877 0.16740
 C134 C 0.75934 0.74818 0.16826
 C135 C 0.78696 0.73979 0.14635
 C136 C 0.80592 0.76148 0.12397
 C137 C 0.73909 0.72546 0.19256
 C138 C 0.75092 0.69965 0.21686
 C139 C 0.73204 0.67889 0.24139
 C140 C 0.70122 0.68450 0.24259
 C141 C 0.68881 0.70982 0.21883
 C142 C 0.70775 0.73002 0.19330
 H143 H 0.80968 0.80812 0.10192
 H144 H 0.73081 0.78610 0.18571
 H145 H 0.79378 0.71646 0.14658
 H146 H 0.77480 0.69585 0.21764
 H147 H 0.68677 0.66974 0.26443
 H148 H 0.69784 0.74922 0.17416
 C149 C 0.80020 0.20376 0.20420
 C150 C 0.80605 0.23276 0.22142
 C151 C 0.78329 0.24880 0.24517
 C152 C 0.75399 0.23724 0.24865
 C153 C 0.74844 0.20810 0.23018
 C154 C 0.77168 0.19095 0.20926
 C155 C 0.72967 0.25588 0.27132
 C156 C 0.70461 0.24249 0.29497
 C157 C 0.68253 0.26033 0.31757
 C158 C 0.68642 0.29158 0.31905
 C159 C 0.71133 0.30531 0.29673
 C160 C 0.73203 0.28754 0.27109
 H161 H 0.81770 0.19148 0.18499
 H162 H 0.78889 0.27039 0.26090
 H163 H 0.72623 0.19859 0.23186
 H164 H 0.70221 0.21832 0.29659
 H165 H 0.67066 0.30514 0.33998
 H166 H 0.75016 0.29880 0.25159
 C167 C 0.17725 0.79141 0.21305
 C168 C 0.17367 0.76126 0.19879
 C169 C 0.19469 0.73981 0.21606
 C170 C 0.21937 0.74869 0.24563
 C171 C 0.22285 0.77937 0.25714
 C172 C 0.20256 0.80090 0.23936
 C173 C 0.24288 0.72680 0.26181
 C174 C 0.27297 0.73609 0.26348
 C175 C 0.29520 0.71732 0.28346
 C176 C 0.28755 0.68821 0.29940
 C177 C 0.25797 0.67776 0.29639
 C178 C 0.23558 0.69734 0.27792
 H179 H 0.16128 0.80818 0.20053
 H180 H 0.19280 0.71667 0.20432
 H181 H 0.24181 0.78689 0.27900
 H182 H 0.27927 0.75822 0.24975
 H183 H 0.30453 0.67409 0.31675
 H184 H 0.21255 0.68989 0.27709
 C185 C 0.70347 0.30987 0.72936
 C186 C 0.69549 0.28073 0.74440
 C187 C 0.71788 0.26066 0.76022
 C188 C 0.74840 0.26904 0.75893
 C189 C 0.75576 0.29853 0.74279
 C190 C 0.73335 0.31919 0.72895
 C191 C 0.77235 0.24693 0.77341
 C192 C 0.80026 0.25661 0.79239
 C193 C 0.82249 0.23571 0.80621
 C194 C 0.81609 0.20497 0.80358
 C195 C 0.78855 0.19472 0.78569
 C196 C 0.76724 0.21574 0.76913
 H197 H 0.68631 0.32499 0.71521
 H198 H 0.71113 0.23862 0.77354
 H199 H 0.77885 0.30551 0.74017
 H200 H 0.80484 0.28027 0.79702
 H201 H 0.83221 0.18888 0.81819
 H202 H 0.74663 0.20741 0.75326
 C203 C 0.31714 0.70551 0.67544
 C204 C 0.32575 0.73587 0.67614
 C205 C 0.30675 0.75683 0.69955
 C206 C 0.27967 0.74751 0.72226
 C207 C 0.27215 0.71672 0.72207
 C208 C 0.29059 0.69565 0.69838
 C209 C 0.25860 0.76970 0.74479
 C210 C 0.22741 0.76547 0.73987
 C211 C 0.20715 0.78534 0.76219
 C212 C 0.21816 0.80973 0.78922
 C213 C 0.24892 0.81417 0.79586
 C214 C 0.26920 0.79442 0.77274
 H215 H 0.33060 0.68952 0.65486
 H216 H 0.31276 0.78040 0.69932
 H217 H 0.25191 0.70900 0.74058
 H218 H 0.21874 0.74679 0.71851
 H219 H 0.20252 0.82480 0.80733
 H220 H 0.29296 0.79745 0.77861
 C221 C 0.30109 0.29762 0.73494
 C222 C 0.27435 0.31028 0.75235
 C223 C 0.25376 0.29177 0.77827
 C224 C 0.25902 0.26049 0.78453
 C225 C 0.28564 0.24844 0.76439
 C226 C 0.30706 0.26697 0.74145
 C227 C 0.23705 0.24036 0.81157
 C228 C 0.24627 0.21249 0.83307
 C229 C 0.22573 0.19287 0.85645
 C230 C 0.19599 0.20228 0.86130
 C231 C 0.18619 0.22977 0.84085
 C232 C 0.20660 0.24849 0.81553
 H233 H 0.31700 0.31142 0.71431
 H234 H 0.23397 0.30212 0.79378
 H235 H 0.29019 0.22462 0.76629
 H236 H 0.26939 0.20566 0.83165
 H237 H 0.18031 0.18838 0.88223
 H238 H 0.19825 0.26897 0.79823
 C239 C 0.71252 0.71230 0.63351
 C240 C 0.74009 0.70306 0.65320
 C241 C 0.75850 0.72420 0.67631
 C242 C 0.75037 0.75483 0.67770
 C243 C 0.72263 0.76378 0.65691
 C244 C 0.70368 0.74258 0.63456
 C245 C 0.77157 0.77732 0.69875
 C246 C 0.76106 0.80308 0.72386
 C247 C 0.78124 0.82364 0.74502
 C248 C 0.81208 0.81829 0.74030
 C249 C 0.82290 0.79223 0.71759
 C250 C 0.80268 0.77237 0.69561
 H251 H 0.69827 0.69594 0.61544
 H252 H 0.77928 0.71649 0.69293
 H253 H 0.71633 0.78729 0.65590
 H254 H 0.73729 0.80644 0.72901
 H255 H 0.82790 0.83378 0.75671
 H256 H 0.81152 0.75292 0.67652
 C257 C 0.20709 0.05813 0.17128
 C258 C 0.23462 0.05478 0.14602
 C259 C 0.25726 0.07636 0.15365
 C260 C 0.25135 0.10217 0.18229
 C261 C 0.22335 0.10524 0.20640
 C262 C 0.20179 0.08272 0.20197
 C263 C 0.21650 0.13159 0.23214
 C264 C 0.23623 0.15617 0.23131
 C265 C 0.26451 0.15271 0.20880
 C266 C 0.27217 0.12573 0.18508
 H267 H 0.27855 0.07432 0.13434
 H268 H 0.18022 0.08480 0.22032
 H269 H 0.19496 0.13354 0.25067
 H270 H 0.29376 0.12388 0.16679
 H271 H 0.18935 0.04178 0.16708
 H272 H 0.28019 0.17123 0.20749
 C273 C 0.72363 0.56879 0.61052
 C274 C 0.75022 0.56482 0.58294
 C275 C 0.77212 0.58747 0.58357
 C276 C 0.76626 0.61487 0.60764
 C277 C 0.73857 0.61922 0.63241
 C278 C 0.71793 0.59566 0.63527
 C279 C 0.73113 0.64760 0.65106
 C280 C 0.75068 0.67198 0.64435
 C281 C 0.77896 0.66705 0.62270
 C282 C 0.78674 0.63868 0.60461
 H283 H 0.79267 0.58467 0.56240
 H284 H 0.69675 0.59851 0.65453
 H285 H 0.70941 0.65118 0.66826
 H286 H 0.80813 0.63578 0.58604
 H287 H 0.70658 0.55151 0.61120
 H288 H 0.79435 0.68557 0.61697
 C289 C 0.78767 0.93561 0.10789
 C290 C 0.75954 0.94158 0.08587
 C291 C 0.73673 0.91990 0.09095
 C292 C 0.74317 0.89133 0.11138
 C293 C 0.77221 0.88498 0.12967
 C294 C 0.79382 0.90769 0.12999
 C295 C 0.77984 0.85557 0.14405
 C296 C 0.75917 0.83208 0.13868
 C297 C 0.72979 0.83886 0.12345
 C298 C 0.72178 0.86831 0.11026
 H299 H 0.71483 0.92406 0.07474
 H300 H 0.81607 0.90329 0.14451
 H301 H 0.80239 0.85063 0.15671
 H302 H 0.69936 0.87274 0.09655
 H303 H 0.80557 0.95197 0.10581
 H304 H 0.71345 0.82113 0.11902
 C305 C 0.20480 0.41462 0.65013
 C306 C 0.22929 0.43417 0.64439
 C307 C 0.25629 0.42712 0.66902
 C308 C 0.25939 0.40000 0.69630
 C309 C 0.23524 0.37955 0.69899
 C310 C 0.20776 0.38751 0.67703
 C311 C 0.23948 0.35091 0.72104
 C312 C 0.26771 0.34237 0.73993
 C313 C 0.29081 0.36385 0.74047
 C314 C 0.28673 0.39232 0.71877
 H315 H 0.27526 0.44214 0.66521
 H316 H 0.18891 0.37226 0.67901
 H317 H 0.22147 0.33463 0.72025
 H318 H 0.30535 0.40790 0.71782
 H319 H 0.18376 0.41951 0.63150
 H320 H 0.31254 0.35816 0.75591
 C321 C 0.94036 0.23336 0.17422
 C322 C 0.94062 0.26045 0.14633
 C323 C 0.91571 0.27963 0.14813
 C324 C 0.88956 0.27023 0.17313
 C325 C 0.88889 0.24190 0.19807
 C326 C 0.91479 0.22428 0.20032
 C327 C 0.86186 0.23069 0.21721
 C328 C 0.83529 0.24707 0.21076
 C329 C 0.83645 0.27602 0.18890
 C330 C 0.86342 0.28758 0.17039
 H331 H 0.91572 0.30043 0.12634
 H332 H 0.91475 0.20267 0.21967
 H333 H 0.86116 0.20852 0.23468
 H334 H 0.86349 0.30937 0.15165
 H335 H 0.95949 0.21839 0.17359
 H336 H 0.81619 0.28903 0.18351
 C337 C 0.44954 0.71500 0.57884
 C338 C 0.44957 0.74025 0.54645
 C339 C 0.42681 0.76195 0.55133
 C340 C 0.40332 0.75750 0.58603
 C341 C 0.40321 0.73160 0.61745
 C342 C 0.42680 0.71090 0.61445
 C343 C 0.37882 0.72601 0.64957
 C344 C 0.35369 0.74517 0.64930
 C345 C 0.35453 0.77148 0.61929
 C346 C 0.37922 0.77771 0.58826
 H347 H 0.42644 0.78138 0.52619
 H348 H 0.42706 0.69094 0.63831
 H349 H 0.37888 0.70597 0.67329
 H350 H 0.37889 0.79769 0.56445
 H351 H 0.46687 0.69807 0.57594
 H352 H 0.33553 0.78656 0.61793
 C353 C 0.08295 0.78884 0.02914
 C354 C 0.06793 0.76099 0.02808
 C355 C 0.07770 0.73762 0.06088
 C356 C 0.10178 0.74240 0.09432
 C357 C 0.11692 0.77020 0.09308
 C358 C 0.10742 0.79316 0.06043
 C359 C 0.14115 0.77511 0.12512
 C360 C 0.14959 0.75363 0.16190
 C361 C 0.13449 0.72586 0.16315
 C362 C 0.11103 0.72016 0.12922
 H363 H 0.06639 0.71608 0.06107
 H364 H 0.11873 0.81470 0.05948
 H365 H 0.15328 0.79609 0.12138
 H366 H 0.09972 0.69865 0.13104
 H367 H 0.07641 0.80735 0.00453
 H368 H 0.14040 0.70878 0.19086
 C369 C 0.59340 0.21346 0.63922
 C370 C 0.57176 0.23594 0.64615
 C371 C 0.57742 0.25920 0.68019
 C372 C 0.60531 0.26149 0.70388
 C373 C 0.62789 0.24012 0.69367
 C374 C 0.62134 0.21557 0.66276
 C375 C 0.65709 0.24491 0.71150
 C376 C 0.66394 0.27112 0.73838
 C377 C 0.64069 0.29075 0.75188
 C378 C 0.61161 0.28596 0.73485
 H379 H 0.56066 0.27646 0.68606
 H380 H 0.63826 0.19883 0.65482
 H381 H 0.67488 0.22969 0.70077
 H382 H 0.59443 0.30229 0.74364
 H383 H 0.58943 0.19536 0.61309
 H384 H 0.64541 0.31080 0.77328
 C385 C 0.72213 0.08769 0.88080
 C386 C 0.74672 0.06803 0.88066
 C387 C 0.77179 0.07507 0.85087
 C388 C 0.77360 0.10285 0.82556
 C389 C 0.74989 0.12373 0.82971
 C390 C 0.72371 0.11542 0.85552
 C391 C 0.75375 0.15327 0.81167
 C392 C 0.78124 0.16226 0.79051
 C393 C 0.80345 0.14047 0.78209
 C394 C 0.79968 0.11100 0.79950
 H395 H 0.79072 0.05981 0.85020
 H396 H 0.70519 0.13101 0.85863
 H397 H 0.73643 0.16981 0.81845
 H398 H 0.81784 0.09508 0.79516
 H399 H 0.70257 0.08264 0.90352
 H400 H 0.82451 0.14669 0.76465
 C401 C 0.19784 0.58395 0.43819
 C402 C 0.22052 0.56212 0.43521
 C403 C 0.24352 0.56593 0.39956
 C404 C 0.24478 0.59196 0.36913
 C405 C 0.22292 0.61470 0.37459
 C406 C 0.19911 0.61010 0.40833
 C407 C 0.22608 0.64216 0.34812
 C408 C 0.25096 0.64715 0.31650
 C409 C 0.27127 0.62344 0.30870
 C410 C 0.26830 0.59620 0.33488
 H411 H 0.26096 0.54908 0.39668
 H412 H 0.18200 0.62713 0.41282
 H413 H 0.21027 0.66018 0.35463
 H414 H 0.28498 0.57883 0.32958
 H415 H 0.17992 0.58151 0.46548
 H416 H 0.29021 0.62640 0.28360
 C417 C 0.23009 0.89747 0.97519
 C418 C 0.24870 0.92120 0.95938
 C419 C 0.26755 0.91731 0.91726
 C420 C 0.26624 0.89038 0.88952
 C421 C 0.24682 0.86709 0.90567
 C422 C 0.22940 0.87059 0.94904
 C423 C 0.24376 0.84116 0.87689
 C424 C 0.25853 0.83840 0.83039
 C425 C 0.27890 0.86082 0.81531
 C426 C 0.28291 0.88656 0.84491
 H427 H 0.28200 0.93552 0.90495
 H428 H 0.21449 0.85288 0.96188
 H429 H 0.22834 0.82373 0.88921
 H430 H 0.29801 0.90402 0.83182
 H431 H 0.21585 0.89977 1.00806
 H432 H 0.29052 0.85913 0.77955
 C433 C 0.78011 0.41229 0.38546
 C434 C 0.75527 0.43139 0.39001
 C435 C 0.72831 0.42377 0.36609
 C436 C 0.72530 0.39619 0.34178
 C437 C 0.74977 0.37611 0.34033
 C438 C 0.77739 0.38481 0.36069
 C439 C 0.74564 0.34703 0.32158
 C440 C 0.71718 0.33765 0.30539
 C441 C 0.69357 0.35850 0.30399
 C442 C 0.69763 0.38759 0.32181
 H443 H 0.70911 0.43857 0.36889
 H444 H 0.79645 0.36977 0.35959
 H445 H 0.76396 0.33107 0.32319
 H446 H 0.67875 0.40288 0.32218
 H447 H 0.80108 0.41776 0.40355
 H448 H 0.67163 0.35190 0.29092
 C449 C 0.08301 0.30179 0.93565
 C450 C 0.06306 0.27735 0.93818
 C451 C 0.06926 0.25169 0.90933
 C452 C 0.09640 0.24880 0.88377
 C453 C 0.11788 0.27199 0.88620
 C454 C 0.11041 0.29898 0.91025
 C455 C 0.14693 0.26683 0.86772
 C456 C 0.15451 0.23859 0.84784
 C457 C 0.13203 0.21696 0.84130
 C458 C 0.10321 0.22201 0.85909
 H459 H 0.05368 0.23300 0.90916
 H460 H 0.12637 0.31726 0.91174
 H461 H 0.16412 0.28371 0.87263
 H462 H 0.08674 0.20426 0.85612
 H463 H 0.07870 0.32207 0.95672
 H464 H 0.13725 0.19538 0.82491
 C465 C 0.58145 0.77416 0.31415
 C466 C 0.56314 0.74855 0.31807
 C467 C 0.57090 0.72271 0.29098
 C468 C 0.59801 0.72144 0.26433
 C469 C 0.61750 0.74646 0.26413
 C470 C 0.60842 0.77312 0.28739
 C471 C 0.64652 0.74359 0.24416
 C472 C 0.65638 0.71579 0.22558
 C473 C 0.63587 0.69197 0.22201
 C474 C 0.60692 0.69477 0.24110
 H475 H 0.55684 0.70290 0.29342
 H476 H 0.62291 0.79263 0.28728
 H477 H 0.66218 0.76207 0.24724
 H478 H 0.59212 0.67551 0.24027
 H479 H 0.57597 0.79434 0.33468
 H480 H 0.64286 0.67050 0.20708
 C481 C 0.92482 0.72243 0.81977
 C482 C 0.94529 0.74634 0.81941
 C483 C 0.93981 0.77152 0.78810
 C484 C 0.91275 0.77436 0.76189
 C485 C 0.89116 0.75127 0.76571
 C486 C 0.89795 0.72483 0.79291
 C487 C 0.86241 0.75608 0.74589
 C488 C 0.85481 0.78406 0.72399
 C489 C 0.87714 0.80589 0.71699
 C490 C 0.90598 0.80098 0.73542
 H491 H 0.95565 0.78997 0.78711
 H492 H 0.88174 0.70680 0.79591
 H493 H 0.84525 0.73920 0.75181
 H494 H 0.92240 0.81877 0.73175
 H495 H 0.92860 0.70279 0.84352
 H496 H 0.87178 0.82744 0.69973
 C497 C 0.43228 0.27664 0.43016
 C498 C 0.43429 0.25099 0.46142
 C499 C 0.41008 0.23087 0.46403
 C500 C 0.38343 0.23732 0.43783
 C501 C 0.38151 0.26364 0.40752
 C502 C 0.40626 0.28274 0.40299
 C503 C 0.35453 0.27114 0.38374
 C504 C 0.32893 0.25327 0.39082
 C505 C 0.33119 0.22665 0.41977
 C506 C 0.35827 0.21867 0.44292
 H507 H 0.41138 0.21120 0.48854
 H508 H 0.40513 0.30296 0.37979
 H509 H 0.35324 0.29141 0.36065
 H510 H 0.35928 0.19841 0.46601
 H511 H 0.45074 0.29233 0.42749
 H512 H 0.31177 0.21255 0.42595
 C513 C 0.79076 0.91897 0.91109
 C514 C 0.76588 0.93655 0.89745
 C515 C 0.74739 0.92735 0.85753
 C516 C 0.75446 0.90116 0.83053
 C517 C 0.77951 0.88371 0.84515
 C518 C 0.79731 0.89264 0.88564
 C519 C 0.78691 0.85784 0.81854
 C520 C 0.77075 0.84957 0.77539
 C521 C 0.74559 0.86674 0.76123
 C522 C 0.73737 0.89220 0.78884
 H523 H 0.72814 0.94083 0.84689
 H524 H 0.81659 0.87947 0.89721
 H525 H 0.80568 0.84431 0.83128
 H526 H 0.71809 0.90523 0.77690
 H527 H 0.80499 0.92538 0.94225
 H528 H 0.73272 0.86093 0.72815
 C529 C 0.19757 0.41035 0.44862
 C530 C 0.22125 0.43104 0.44545
 C531 C 0.24620 0.42424 0.41535
 C532 C 0.24880 0.39613 0.39247
 C533 C 0.22584 0.37457 0.39872
 C534 C 0.19982 0.38232 0.42533
 C535 C 0.23023 0.34514 0.38123
 C536 C 0.25761 0.33702 0.35897
 C537 C 0.27937 0.35921 0.35004
 C538 C 0.27494 0.38856 0.36635
 H539 H 0.26448 0.44015 0.41223
 H540 H 0.18189 0.36619 0.43026
 H541 H 0.21342 0.32807 0.38846
 H542 H 0.29262 0.40492 0.36084
 H543 H 0.17812 0.41510 0.47158
 H544 H 0.30045 0.35344 0.33244
 C545 C 0.20544 0.06090 0.92438
 C546 C 0.23313 0.05599 0.94851
 C547 C 0.25558 0.07816 0.94358
 C548 C 0.24944 0.10572 0.91893
 C549 C 0.22131 0.11039 0.89597
 C550 C 0.19984 0.08752 0.89762
 C551 C 0.21453 0.13828 0.87354
 C552 C 0.23479 0.16247 0.87586
 C553 C 0.26296 0.15745 0.89820
 C554 C 0.27033 0.12926 0.91895
 H555 H 0.27698 0.07504 0.96219
 H556 H 0.17816 0.09074 0.88009
 H557 H 0.19304 0.14130 0.85528
 H558 H 0.29198 0.12622 0.93666
 H559 H 0.18775 0.04432 0.92683
 H560 H 0.27902 0.17552 0.90114
 C561 C 0.72157 0.55469 0.34395
 C562 C 0.74633 0.55717 0.37616
 C563 C 0.76600 0.58161 0.37031
 C564 C 0.75992 0.60433 0.33447
 C565 C 0.73463 0.60181 0.30286
 C566 C 0.71600 0.57660 0.30707
 C567 C 0.72737 0.62524 0.26938
 C568 C 0.74392 0.65212 0.26891
 C569 C 0.76970 0.65404 0.29907
 C570 C 0.77783 0.63018 0.33119
 H571 H 0.78503 0.58371 0.39536
 H572 H 0.69652 0.57438 0.28310
 H573 H 0.70784 0.62316 0.24544
 H574 H 0.79731 0.63251 0.35514
 H575 H 0.70635 0.53586 0.34764
 H576 H 0.78276 0.67450 0.29973
 C577 C 0.09287 0.72119 0.83476
 C578 C 0.07478 0.74716 0.83558
 C579 C 0.08497 0.77327 0.81024
 C580 C 0.11377 0.77447 0.78938
 C581 C 0.13277 0.74914 0.79300
 C582 C 0.12166 0.72224 0.81393
 C583 C 0.16302 0.75183 0.77893
 C584 C 0.17443 0.77975 0.76242
 C585 C 0.15463 0.80395 0.75486
 C586 C 0.12455 0.80133 0.76809
 H587 H 0.07122 0.79337 0.80919
 H588 H 0.13574 0.70244 0.81640
 H589 H 0.17813 0.73305 0.78501
 H590 H 0.11015 0.82084 0.76434
 H591 H 0.08564 0.70054 0.85314
 H592 H 0.16288 0.82551 0.74146
 C593 C 0.55521 0.26477 0.40181
 C594 C 0.55876 0.24250 0.43930
 C595 C 0.58431 0.22411 0.43920
 C596 C 0.60740 0.22977 0.40430
 C597 C 0.60405 0.25315 0.36802
 C598 C 0.57746 0.26975 0.36590
 C599 C 0.62806 0.26105 0.33677
 C600 C 0.65596 0.24695 0.34261
 C601 C 0.65877 0.22264 0.37669
 C602 C 0.63455 0.21394 0.40708
 H603 H 0.58721 0.20715 0.46858
 H604 H 0.57456 0.28767 0.33823
 H605 H 0.62560 0.27952 0.30994
 H606 H 0.63754 0.19593 0.43453
 H607 H 0.53554 0.27903 0.40144
 H608 H 0.68010 0.21148 0.38186
 C609 C 0.91053 0.29714 0.95314
 C610 C 0.93469 0.27771 0.94426
 C611 C 0.93296 0.25706 0.90480
 C612 C 0.90679 0.25466 0.87608
 C613 C 0.88177 0.27289 0.88727
 C614 C 0.88415 0.29462 0.92506
 C615 C 0.85449 0.26804 0.86219
 C616 C 0.85207 0.24511 0.82623
 C617 C 0.87782 0.22879 0.81293
 C618 C 0.90485 0.23339 0.83777
 H619 H 0.95170 0.24221 0.89753
 H620 H 0.86533 0.30898 0.93397
 H621 H 0.83487 0.28080 0.87284
 H622 H 0.92397 0.21961 0.82812
 H623 H 0.91149 0.31317 0.98357
 H624 H 0.87676 0.21159 0.78439
 C625 C 0.43118 0.70658 0.31542
 C626 C 0.43498 0.73339 0.34227
 C627 C 0.41125 0.75408 0.34451
 C628 C 0.38327 0.74685 0.32379
 C629 C 0.37934 0.71904 0.29930
 C630 C 0.40369 0.69957 0.29380
 C631 C 0.35080 0.71038 0.28320
 C632 C 0.32590 0.72881 0.29218
 C633 C 0.33023 0.75709 0.31420
 C634 C 0.35870 0.76609 0.32970
 H635 H 0.41391 0.77473 0.36536
 H636 H 0.40113 0.67829 0.27479
 H637 H 0.34774 0.68870 0.26563
 H638 H 0.36125 0.78752 0.34824
 H639 H 0.44924 0.69042 0.31278
 H640 H 0.31136 0.77164 0.32177
 C641 C 0.27108 0.90860 0.15341
 C642 C 0.24657 0.92836 0.15293
 C643 C 0.22115 0.92122 0.18199
 C644 C 0.21881 0.89322 0.20653
 C645 C 0.24252 0.87233 0.20303
 C646 C 0.26910 0.88077 0.17842
 C647 C 0.23824 0.84262 0.22005
 C648 C 0.21020 0.83337 0.23885
 C649 C 0.18782 0.85505 0.24648
 C650 C 0.19215 0.88480 0.23071
 H651 H 0.20223 0.93650 0.18228
 H652 H 0.28761 0.86513 0.17576
 H653 H 0.25561 0.82608 0.21365
 H654 H 0.17390 0.90068 0.23431
 H655 H 0.29090 0.91367 0.13138
 H656 H 0.16622 0.84851 0.26154
 C657 C 0.78933 0.41367 0.58471
 C658 C 0.76716 0.43564 0.59143
 C659 C 0.74610 0.43206 0.63027
 C660 C 0.74588 0.40582 0.66006
 C661 C 0.76684 0.38271 0.65062
 C662 C 0.78908 0.38727 0.61393
 C663 C 0.76407 0.35489 0.67588
 C664 C 0.74053 0.34997 0.71026
 C665 C 0.72149 0.37405 0.72236
 C666 C 0.72403 0.40167 0.69731
 H667 H 0.72912 0.44914 0.63582
 H668 H 0.80550 0.36995 0.60646
 H669 H 0.77892 0.33658 0.66613
 H670 H 0.70816 0.41935 0.70568
 H671 H 0.80572 0.41609 0.55478
 H672 H 0.70373 0.37110 0.74980
 C673 C 0.71578 0.09059 0.07915
 C674 C 0.73989 0.07048 0.08363
 C675 C 0.76286 0.07652 0.11809
 C676 C 0.76296 0.10329 0.14528
 C677 C 0.73967 0.12445 0.13829
 C678 C 0.71570 0.11747 0.10623
 C679 C 0.74159 0.15268 0.16149
 C680 C 0.76669 0.15991 0.19106
 C681 C 0.78864 0.13784 0.20012
 C682 C 0.78683 0.10983 0.17743
 H683 H 0.78141 0.06093 0.12204
 H684 H 0.69752 0.13328 0.10061
 H685 H 0.72453 0.16950 0.15420
 H686 H 0.80463 0.09366 0.18369
 H687 H 0.69790 0.08634 0.05261
 H688 H 0.80777 0.14260 0.22376
 C689 C 0.21100 0.58928 0.63310
 C690 C 0.23402 0.56778 0.63119
 C691 C 0.26209 0.57477 0.65184
 C692 C 0.26793 0.60362 0.67009
 C693 C 0.24529 0.62580 0.66858
 C694 C 0.21658 0.61808 0.65169
 C695 C 0.25224 0.65563 0.68113
 C696 C 0.28168 0.66355 0.69438
 C697 C 0.30342 0.64081 0.69888
 C698 C 0.29662 0.61114 0.68692
 H699 H 0.27997 0.55829 0.65092
 H700 H 0.19885 0.63470 0.65060
 H701 H 0.23527 0.67294 0.67734
 H702 H 0.31414 0.59431 0.68890
 H703 H 0.18921 0.58447 0.61730
 H704 H 0.32605 0.64619 0.71014
 C705 C 0.93520 0.78496 0.04954
 C706 C 0.93874 0.75880 0.02099
 C707 C 0.91620 0.73670 0.02248
 C708 C 0.88980 0.74142 0.05034
 C709 C 0.88644 0.76803 0.07838
 C710 C 0.90949 0.78936 0.07849
 C711 C 0.85968 0.77346 0.10441
 C712 C 0.83544 0.75333 0.10138
 C713 C 0.83925 0.72658 0.07426
 C714 C 0.86624 0.72058 0.04932
 H715 H 0.91858 0.71660 0.00008
 H716 H 0.90725 0.80990 0.09977
 H717 H 0.85750 0.79386 0.12611
 H718 H 0.86834 0.70008 0.02793
 H719 H 0.95228 0.80221 0.04906
 H720 H 0.82104 0.71074 0.07078
 C721 C 0.44165 0.27012 0.69430
 C722 C 0.44205 0.24610 0.66041
 C723 C 0.41666 0.22777 0.65577
 C724 C 0.39016 0.23516 0.68123
 C725 C 0.38958 0.26040 0.71319
 C726 C 0.41572 0.27700 0.72100
 C727 C 0.36254 0.26969 0.73454
 C728 C 0.33584 0.25455 0.72362
 C729 C 0.33674 0.22868 0.69374
 C730 C 0.36374 0.21899 0.67280
 H731 H 0.41673 0.20947 0.62908
 H732 H 0.41566 0.29629 0.74561
 H733 H 0.36202 0.28940 0.75824
 H734 H 0.36376 0.19958 0.64847
 H735 H 0.46105 0.28446 0.69832
 H736 H 0.31637 0.21669 0.68493
 C737 C 0.08783 0.29296 0.14356
 C738 C 0.06729 0.26922 0.13982
 C739 C 0.07204 0.24273 0.16803
 C740 C 0.09790 0.23924 0.19739
 C741 C 0.11946 0.26248 0.19846
 C742 C 0.11381 0.28958 0.17249
 C743 C 0.14694 0.25751 0.22291
 C744 C 0.15319 0.22942 0.24543
 C745 C 0.13065 0.20741 0.24745
 C746 C 0.10324 0.21227 0.22365
 H747 H 0.05606 0.22447 0.16583
 H748 H 0.12994 0.30773 0.17313
 H749 H 0.16422 0.27457 0.22103
 H750 H 0.08678 0.19440 0.22385
 H751 H 0.08450 0.31362 0.12220
 H752 H 0.13487 0.18578 0.26531
 C753 C 0.60457 0.73037 0.47610
 C754 C 0.58237 0.74718 0.50049
 C755 C 0.58962 0.76332 0.54417
 C756 C 0.61863 0.76099 0.56486
 C757 C 0.64043 0.74330 0.54028
 C758 C 0.63339 0.72870 0.49543
 C759 C 0.66865 0.73929 0.56190
 C760 C 0.67544 0.75158 0.60904
 C761 C 0.65428 0.77017 0.63257
 C762 C 0.62610 0.77497 0.61049
 H763 H 0.57251 0.77632 0.56304
 H764 H 0.64991 0.71519 0.47612
 H765 H 0.68509 0.72551 0.54283
 H766 H 0.60983 0.78870 0.62994
 H767 H 0.59946 0.71822 0.44194
 H768 H 0.65910 0.77995 0.66891
   
