data_POSCAR
  _audit_creation_date              2014-09-24
  _audit_creation_method            'ToBaCCo'
  _symmetry_space_group_name_H-M    'P1'
  _symmetry_Int_Tables_number       1
  _symmetry_cell_setting            triclinic
  loop_
  _symmetry_equiv_pos_as_xyz
 x,y,z
_cell_length_a 32.2608
_cell_length_b 32.2641
_cell_length_c 32.2598
_cell_angle_alpha 89.994900
_cell_angle_beta 89.994700
_cell_angle_gamma 90.101700
loop_
  _atom_site_label
  _atom_site_type_symbol
  _atom_site_fract_x
  _atom_site_fract_y
  _atom_site_fract_z
C1 C 0.18708 0.53791 1.04600
 H2 H 0.19146 0.56194 1.02301
 C3 C 0.15285 0.53932 1.07238
 H4 H 0.13127 0.56494 1.07017
 C5 C 0.20790 0.47334 1.07433
 H6 H 0.22830 0.44681 1.07349
 C7 C 0.17394 0.47348 1.10130
 H8 H 0.16883 0.44737 1.12183
 N9 N 0.21329 0.50495 1.04692
 C10 C 0.31149 0.54488 0.96319
 H11 H 0.30718 0.52184 0.93921
 C12 C 0.34568 0.57136 0.96172
 H13 H 0.36736 0.56923 0.93616
 C14 C 0.29054 0.57327 1.02773
 H15 H 0.27012 0.57241 1.05429
 C16 C 0.32449 0.60033 1.02750
 H17 H 0.32964 0.62092 1.05352
 Zn18 Zn 0.24927 0.49996 1.00117
 N19 N 0.28522 0.54579 0.99617
 C20 C 0.20836 0.52640 0.92771
 N21 N 0.21352 0.49487 0.95525
 C22 C 0.18726 0.46185 0.95608
 C23 C 0.15324 0.46029 0.92945
 C24 C 0.17460 0.52608 0.90050
 C25 C 0.31127 0.45503 1.03928
 C26 C 0.34542 0.42861 1.04074
 C27 C 0.32428 0.39975 0.97487
 C28 C 0.29039 0.42674 0.97465
 N29 N 0.28507 0.45415 1.00626
 H30 H 0.22878 0.55299 0.92862
 H31 H 0.19145 0.43789 0.97916
 H32 H 0.13155 0.43470 0.93152
 H33 H 0.16956 0.55207 0.87987
 H34 H 0.30697 0.47802 1.06330
 H35 H 0.36707 0.43074 1.06632
 H36 H 0.32944 0.37924 0.94880
 H37 H 0.27002 0.42763 0.94806
 C38 C 0.35280 0.59861 0.99463
 C39 C 0.14562 0.50633 1.09957
 C40 C 0.35255 0.40145 1.00777
 C41 C 0.14629 0.49316 0.90213
 C42 C 0.81198 0.53921 -0.04392
 H43 H 0.80790 0.56295 -0.02060
 C44 C 0.84605 0.54086 -0.07051
 H45 H 0.86786 0.56632 -0.06816
 C46 C 0.79062 0.47503 -0.07292
 H47 H 0.77010 0.44852 -0.07227
 C48 C 0.82441 0.47546 -0.10009
 H49 H 0.82936 0.44964 -0.12096
 N50 N 0.78559 0.50630 -0.04507
 C51 C 0.68803 0.54533 0.03962
 H52 H 0.69237 0.52206 0.06338
 C53 C 0.65387 0.57170 0.04141
 H54 H 0.63224 0.56928 0.06699
 C55 C 0.70883 0.57433 -0.02473
 H56 H 0.72915 0.57374 -0.05136
 C57 C 0.67491 0.60130 -0.02417
 H58 H 0.66970 0.62208 -0.05002
 Zn59 Zn 0.74990 0.50077 0.00084
 N60 N 0.71419 0.54657 0.00657
 C61 C 0.79150 0.52627 0.07429
 N62 N 0.78595 0.49507 0.04645
 C63 C 0.81206 0.46203 0.04500
 C64 C 0.84633 0.46015 0.07129
 C65 C 0.82553 0.52561 0.10117
 C66 C 0.68752 0.45647 -0.03756
 C67 C 0.65333 0.43001 -0.03932
 C68 C 0.67468 0.40010 0.02598
 C69 C 0.70862 0.42715 0.02652
 N70 N 0.71387 0.45508 -0.00467
 H71 H 0.77120 0.55288 0.07387
 H72 H 0.80756 0.43835 0.02168
 H73 H 0.86788 0.43456 0.06873
 H74 H 0.83087 0.55136 0.12206
 H75 H 0.69179 0.47985 -0.06123
 H76 H 0.63159 0.43251 -0.06479
 H77 H 0.66959 0.37913 0.05172
 H78 H 0.72911 0.42761 0.05302
 C79 C 0.64667 0.59920 0.00873
 C80 C 0.85288 0.50822 -0.09812
 C81 C 0.64629 0.40229 -0.00678
 C82 C 0.85369 0.49270 0.09891
 C83 C -0.03728 0.31265 0.45431
 H84 H -0.06138 0.30820 0.47721
 C85 C -0.03875 0.34682 0.42786
 H86 H -0.06448 0.36829 0.42995
 C87 C 0.02747 0.29204 0.42622
 H88 H 0.05408 0.27174 0.42717
 C89 C 0.02727 0.32596 0.39918
 H90 H 0.05343 0.33113 0.37872
 N91 N -0.00422 0.28657 0.45353
 C92 C -0.04458 0.18834 0.53696
 H93 H -0.02173 0.19267 0.56113
 C94 C -0.07105 0.15414 0.53823
 H95 H -0.06912 0.13248 0.56381
 C96 C -0.07247 0.20925 0.47219
 H97 H -0.07141 0.22966 0.44564
 C98 C -0.09951 0.17529 0.47221
 H99 H -0.11989 0.17012 0.44603
 Zn100 Zn 0.00060 0.25057 0.49929
 N101 N -0.04524 0.21460 0.50398
 C102 C -0.02625 0.29147 0.57262
 N103 N 0.00543 0.28629 0.54525
 C104 C 0.03850 0.31250 0.54463
 C105 C 0.03996 0.34649 0.57131
 C106 C -0.02603 0.32522 0.59986
 C107 C 0.04585 0.18867 0.46137
 C108 C 0.07225 0.15450 0.46007
 C109 C 0.10055 0.17546 0.52624
 C110 C 0.07359 0.20937 0.52630
 N111 N 0.04646 0.21480 0.49446
 H112 H -0.05287 0.27110 0.57154
 H113 H 0.06258 0.30830 0.52169
 H114 H 0.06560 0.36814 0.56940
 H115 H -0.05213 0.33027 0.62036
 H116 H 0.02306 0.19305 0.43716
 H117 H 0.07033 0.13292 0.43441
 H118 H 0.12083 0.17021 0.55247
 H119 H 0.07249 0.22967 0.55293
 C120 C -0.09804 0.14700 0.50510
 C121 C -0.00571 0.35413 0.40075
 C122 C 0.09911 0.14727 0.49326
 C123 C 0.00695 0.35347 0.59845
 C124 C 0.96139 0.68780 0.54437
 H125 H 0.93750 0.69198 0.52122
 C126 C 0.95977 0.65377 0.57099
 H127 H 0.93418 0.63207 0.56885
 C128 C 1.02587 0.70889 0.57291
 H129 H 1.05247 0.72930 0.57206
 C130 C 1.02548 0.67512 0.60011
 H131 H 1.05142 0.67007 0.62080
 N132 N 0.99442 0.71405 0.54529
 C133 C 0.95474 0.81158 0.46093
 H134 H 0.97773 0.80717 0.43692
 C135 C 0.92840 0.84578 0.45941
 H136 H 0.93056 0.86736 0.43376
 C137 C 0.92644 0.79093 0.52565
 H138 H 0.92731 0.77065 0.55231
 C139 C 0.89953 0.82488 0.52536
 H140 H 0.87904 0.83016 0.55143
 Zn141 Zn 0.99965 0.74973 0.49935
 N142 N 0.95383 0.78547 0.49403
 C143 C 0.97355 0.70807 0.42612
 N144 N 1.00498 0.71369 0.45370
 C145 C 1.03808 0.68765 0.45488
 C146 C 1.03981 0.65339 0.42858
 C147 C 0.97405 0.67404 0.39924
 C148 C 1.04439 0.81204 0.53739
 C149 C 1.07081 0.84627 0.53886
 C150 C 1.09995 0.82505 0.47316
 C151 C 1.07294 0.79108 0.47292
 N152 N 1.04541 0.78574 0.50444
 H153 H 0.94690 0.72832 0.42677
 H154 H 1.06195 0.69220 0.47799
 H155 H 1.06547 0.63190 0.43092
 H156 H 0.94814 0.66865 0.37857
 H157 H 1.02130 0.80771 0.56133
 H158 H 1.06860 0.86796 0.56439
 H159 H 1.12059 0.83021 0.44717
 H160 H 1.07217 0.77063 0.44638
 C161 C 0.90129 0.85307 0.49239
 C162 C 0.99257 0.64681 0.59839
 C163 C 1.09812 0.85339 0.50598
 C164 C 1.00705 0.64596 0.40123
 C165 C 0.45466 -0.03865 0.31126
 H166 H 0.47756 -0.06272 0.30688
 C167 C 0.42827 -0.04007 0.34548
 H168 H 0.43031 -0.06567 0.36712
 C169 C 0.42661 0.02606 0.29049
 H170 H 0.42759 0.05266 0.27015
 C171 C 0.39965 0.02588 0.32446
 H172 H 0.37925 0.05199 0.32970
 N173 N 0.45389 -0.00561 0.28508
 C174 C 0.53782 -0.04520 0.18707
 H175 H 0.56181 -0.02215 0.19149
 C176 C 0.53939 -0.07158 0.15286
 H177 H 0.56509 -0.06930 0.13133
 C178 C 0.47321 -0.07372 0.20781
 H179 H 0.44661 -0.07296 0.22818
 C180 C 0.47350 -0.10070 0.17385
 H181 H 0.44744 -0.12131 0.16872
 Zn182 Zn 0.49972 -0.00051 0.24922
 N183 N 0.50477 -0.04622 0.21324
 C184 C 0.57292 -0.02710 0.29042
 N185 N 0.54554 0.00450 0.28511
 C186 C 0.54470 0.03748 0.31136
 C187 C 0.57115 0.03891 0.34553
 C188 C 0.59994 -0.02690 0.32433
 C189 C 0.46162 0.04450 0.18732
 C190 C 0.46003 0.07111 0.15328
 C191 C 0.52586 0.10014 0.17442
 C192 C 0.52621 0.07295 0.20821
 N193 N 0.49467 0.04539 0.21348
 H194 H 0.57200 -0.05365 0.27000
 H195 H 0.52173 0.06149 0.30707
 H196 H 0.56908 0.06447 0.36720
 H197 H 0.62046 -0.05295 0.32947
 H198 H 0.43765 0.02139 0.19159
 H199 H 0.43441 0.06900 0.13167
 H200 H 0.55186 0.12081 0.16929
 H201 H 0.55282 0.07209 0.22855
 C202 C 0.50646 -0.09888 0.14560
 C203 C 0.40125 -0.00703 0.35271
 C204 C 0.49291 0.09846 0.14622
 C205 C 0.59830 0.00596 0.35264
 C206 C 0.54570 -0.03855 0.68804
 H207 H 0.52281 -0.06270 0.69245
 C208 C 0.57212 -0.03992 0.65383
 H209 H 0.57010 -0.06557 0.63226
 C210 C 0.57369 0.02632 0.70868
 H211 H 0.57268 0.05297 0.72896
 C212 C 0.60067 0.02619 0.67472
 H213 H 0.62106 0.05238 0.66943
 N214 N 0.54643 -0.00545 0.71415
 C215 C 0.46231 -0.04518 0.81210
 H216 H 0.43834 -0.02222 0.80760
 C217 C 0.46068 -0.07152 0.84635
 H218 H 0.43500 -0.06936 0.86788
 C219 C 0.52698 -0.07351 0.79157
 H220 H 0.55364 -0.07269 0.77128
 C221 C 0.52658 -0.10043 0.82559
 H222 H 0.55259 -0.12094 0.83094
 Zn223 Zn 0.50055 -0.00044 0.74995
 N224 N 0.49543 -0.04613 0.78601
 C225 C 0.42734 -0.02728 0.70875
 N226 N 0.45477 0.00438 0.71402
 C227 C 0.45564 0.03734 0.68773
 C228 C 0.42915 0.03871 0.65360
 C229 C 0.40027 -0.02715 0.67486
 C230 C 0.53857 0.04484 0.81184
 C231 C 0.54007 0.07151 0.84583
 C232 C 0.47424 0.10020 0.82455
 C233 C 0.47397 0.07297 0.79080
 N234 N 0.50555 0.04553 0.78563
 H235 H 0.42822 -0.05382 0.72918
 H236 H 0.47864 0.06140 0.69200
 H237 H 0.43123 0.06428 0.63192
 H238 H 0.37971 -0.05323 0.66975
 H239 H 0.56256 0.02184 0.80764
 H240 H 0.56566 0.06954 0.86749
 H241 H 0.44821 0.12075 0.82961
 H242 H 0.44739 0.07194 0.77043
 C243 C 0.49356 -0.09867 0.85372
 C244 C 0.59911 -0.00679 0.64654
 C245 C 0.50715 0.09871 0.85281
 C246 C 0.40193 0.00572 0.64654
 C247 C 0.20555 -0.03742 0.50155
 C248 C 0.22738 0.00009 0.49993
 C249 C 0.20588 0.03771 0.49826
 C250 C 0.16252 0.03790 0.49820
 C251 C 0.14061 0.00031 0.49983
 C252 C 0.16219 -0.03739 0.50151
 C253 C 0.27277 -0.00007 0.49988
 C254 C 0.29437 -0.00186 0.46228
 C255 C 0.33772 -0.00212 0.46212
 C256 C 0.35954 -0.00058 0.49974
 C257 C 0.33786 0.00121 0.53742
 C258 C 0.29451 0.00146 0.53741
 H259 H 0.22232 -0.06649 0.50282
 H260 H 0.22291 0.06669 0.49699
 H261 H 0.27742 -0.00305 0.43327
 H262 H 0.27766 0.00282 0.56647
 H263 H 0.10700 0.00039 0.49978
 H264 H 0.39315 -0.00078 0.49968
 C265 C 0.79449 -0.03750 0.49726
 C266 C 0.77288 0.00005 0.49901
 C267 C 0.79461 0.03762 0.50056
 C268 C 0.83797 0.03772 0.50036
 C269 C 0.85965 0.00008 0.49860
 C270 C 0.83784 -0.03757 0.49704
 C271 C 0.72749 0.00001 0.49919
 C272 C 0.70595 -0.00172 0.53684
 C273 C 0.66259 -0.00187 0.53707
 C274 C 0.64072 -0.00028 0.49949
 C275 C 0.66234 0.00146 0.46177
 C276 C 0.70569 0.00160 0.46170
 H277 H 0.77754 -0.06654 0.49607
 H278 H 0.77776 0.06664 0.50191
 H279 H 0.72295 -0.00297 0.56581
 H280 H 0.72249 0.00292 0.43261
 H281 H 0.89327 0.00009 0.49846
 H282 H 0.60711 -0.00039 0.49961
 C283 C 0.53703 0.29487 0.99724
 C284 C 0.49954 0.27307 0.99971
 C285 C 0.46200 0.29462 1.00241
 C286 C 0.46185 0.33797 1.00244
 C287 C 0.49943 0.35983 1.00016
 C288 C 0.53707 0.33822 0.99765
 C289 C 0.49962 0.22768 0.99962
 C290 C 0.49719 0.20594 1.03711
 C291 C 0.49752 0.16259 1.03715
 C292 C 0.49989 0.14091 0.99951
 C293 C 0.50213 0.16272 0.96192
 C294 C 0.50218 0.20607 0.96207
 H295 H 0.56605 0.27807 0.99528
 H296 H 0.43302 0.27762 1.00425
 H297 H 0.49532 0.22278 1.06614
 H298 H 0.50397 0.22301 0.93308
 H299 H 0.49939 0.39344 1.00034
 H300 H 0.50000 0.10730 0.99947
 C301 C 0.53725 0.70606 0.00400
 C302 C 0.49974 0.72767 0.00140
 C303 C 0.46221 0.70593 -0.00096
 C304 C 0.46210 0.66258 -0.00055
 C305 C 0.49971 0.64090 0.00187
 C306 C 0.53733 0.66270 0.00405
 C307 C 0.49977 0.77306 0.00119
 C308 C 0.49755 0.79457 -0.03645
 C309 C 0.49782 0.83793 -0.03674
 C310 C 0.49995 0.85983 0.00080
 C311 C 0.50199 0.83825 0.03852
 C312 C 0.50208 0.79490 0.03862
 H313 H 0.56626 0.72300 0.00572
 H314 H 0.43321 0.72278 -0.00287
 H315 H 0.49587 0.77755 -0.06539
 H316 H 0.50371 0.77813 0.06771
 H317 H 0.49970 0.60729 0.00202
 H318 H 0.50002 0.89344 0.00065
 C319 C 1.00319 0.53631 0.29438
 C320 C 1.00100 0.49873 0.27277
 C321 C 0.99875 0.46123 0.29452
 C322 C 0.99888 0.46122 0.33788
 C323 C 1.00091 0.49889 0.35955
 C324 C 1.00298 0.53648 0.33774
 C325 C 1.00094 0.49870 0.22737
 C326 C 1.03843 0.50118 0.20563
 C327 C 1.03844 0.50119 0.16227
 C328 C 1.00077 0.49904 0.14059
 C329 C 0.96319 0.49673 0.16240
 C330 C 0.96337 0.49638 0.20575
 H331 H 1.00482 0.56530 0.27743
 H332 H 0.99711 0.43219 0.27767
 H333 H 1.06747 0.50293 0.22247
 H334 H 0.93439 0.49460 0.22270
 H335 H 1.00085 0.49896 0.39317
 H336 H 1.00071 0.49921 0.10697
 C337 C -0.00286 0.53768 0.70582
 C338 C -0.00032 0.50020 0.72754
 C339 C 0.00222 0.46266 0.70590
 C340 C 0.00201 0.46253 0.66255
 C341 C -0.00033 0.50011 0.64077
 C342 C -0.00267 0.53773 0.66247
 C343 C -0.00033 0.50027 0.77295
 C344 C -0.03784 0.50306 0.79460
 C345 C -0.03795 0.50304 0.83796
 C346 C -0.00037 0.50064 0.85972
 C347 C 0.03724 0.49805 0.83800
 C348 C 0.03716 0.49767 0.79465
 H349 H -0.00472 0.56670 0.72268
 H350 H 0.00408 0.43368 0.72283
 H351 H -0.06683 0.50498 0.77769
 H352 H 0.06616 0.49564 0.77777
 H353 H -0.00034 0.50008 0.60715
 H354 H -0.00038 0.50077 0.89334
 C355 C 0.12229 0.10922 0.49496
 C356 C 0.14071 0.07676 0.49644
 C357 C 0.60860 0.62237 0.00737
 C358 C 0.57614 0.64081 0.00599
 C359 C 0.87815 -0.10885 0.49392
 C360 C 0.85973 -0.07638 0.49531
 C361 C 0.39059 0.37826 1.00613
 C362 C 0.42303 0.35982 1.00456
 C363 C 0.87860 0.10897 0.50342
 C364 C 0.86001 0.07653 0.50201
 C365 C 0.39084 0.62196 -0.00382
 C366 C 0.42329 0.64054 -0.00240
 C367 C 0.12146 -0.10858 0.50446
 C368 C 0.14007 -0.07615 0.50313
 C369 C 0.60827 0.37891 0.99455
 C370 C 0.57584 0.36031 0.99585
 C371 C 0.49436 0.12191 1.10828
 C372 C 0.49571 0.14054 1.07590
 C373 C -0.00597 0.60887 0.62182
 C374 C -0.00457 0.57649 0.64044
 C375 C 0.49492 0.87815 -0.10816
 C376 C 0.49617 0.85974 -0.07565
 C377 C 0.99573 0.39008 0.37861
 C378 C 0.99710 0.42246 0.35995
 C379 C 0.50509 0.87903 0.10962
 C380 C 0.50375 0.86038 0.07724
 C381 C 0.00538 0.39137 0.62194
 C382 C 0.00393 0.42374 0.64057
 C383 C 0.50558 0.12217 0.89073
 C384 C 0.50410 0.14077 0.92312
 C385 C 1.00578 0.60785 0.37806
 C386 C 1.00459 0.57534 0.35963
 C387 C 1.10961 0.50475 0.12161
 C388 C 1.07721 0.50321 0.14022
 C389 C 0.62231 -0.00513 0.60845
 C390 C 0.64074 -0.00366 0.57596
 C391 C -0.10914 0.50669 0.87850
 C392 C -0.07674 0.50516 0.85993
 C393 C 0.37807 -0.00540 0.39080
 C394 C 0.35962 -0.00393 0.42328
 C395 C 0.10837 0.49467 0.87866
 C396 C 0.07600 0.49611 0.86003
 C397 C 0.62165 0.00441 0.39063
 C398 C 0.64024 0.00307 0.42303
 C399 C 0.89182 0.49389 0.12207
 C400 C 0.92433 0.49507 0.14050
 C401 C 0.37853 0.00413 0.60858
 C402 C 0.35992 0.00279 0.57619
   
