data_POSCAR
  _audit_creation_date              2014-09-24
  _audit_creation_method            'ToBaCCo'
  _symmetry_space_group_name_H-M    'P1'
  _symmetry_Int_Tables_number       1
  _symmetry_cell_setting            triclinic
  loop_
  _symmetry_equiv_pos_as_xyz
 x,y,z
_cell_length_a 32.1519
_cell_length_b 30.9447
_cell_length_c 36.8384
_cell_angle_alpha 88.784000
_cell_angle_beta 88.886200
_cell_angle_gamma 81.012400
loop_
  _atom_site_label
  _atom_site_type_symbol
  _atom_site_fract_x
  _atom_site_fract_y
  _atom_site_fract_z
C1 C 1.21631 0.23014 0.20480
 C2 C 1.23583 0.26370 0.18205
 C3 C 1.26064 0.28656 0.20123
 C4 C 1.26303 0.27426 0.24200
 C5 C 1.25363 0.20191 0.22314
 C6 C 1.27759 0.22458 0.24315
 C7 C 1.19256 0.25616 0.23558
 C8 C 1.21682 0.27911 0.25539
 H9 H 1.23244 0.26700 0.15288
 H10 H 1.28299 0.29312 0.25771
 H11 H 1.25836 0.16650 0.22323
 H12 H 1.15986 0.25450 0.24217
 C13 C 0.70572 -0.28990 0.20160
 C14 C 0.73651 -0.26653 0.17938
 C15 C 0.75773 -0.24066 0.19930
 C16 C 0.74645 -0.24108 0.24020
 C17 C 0.73242 -0.31517 0.23139
 C18 C 0.75339 -0.28986 0.25198
 C19 C 0.67727 -0.25355 0.22179
 C20 C 0.69829 -0.22812 0.24220
 H21 H 0.74035 -0.26950 0.15022
 H22 H 0.76388 -0.22038 0.25663
 H23 H 0.73252 -0.34962 0.23725
 H24 H 0.64323 -0.25055 0.22202
 C25 C 0.72449 0.20192 -0.29822
 C26 C 0.75093 0.22482 -0.32157
 C27 C 0.77546 0.25190 -0.30267
 C28 C 0.76842 0.25065 -0.26282
 C29 C 0.75325 0.17734 -0.27243
 C30 C 0.77727 0.20387 -0.25229
 C31 C 0.69907 0.23559 -0.27703
 C32 C 0.72263 0.26242 -0.25702
 H33 H 0.75234 0.22123 -0.35082
 H34 H 0.78720 0.27146 -0.24780
 H35 H 0.75471 0.14258 -0.26713
 H36 H 0.66512 0.23791 -0.27437
 C37 C 1.21694 -0.26681 -0.30398
 C38 C 1.23901 -0.23168 -0.32206
 C39 C 1.26204 -0.21171 -0.29892
 C40 C 1.26064 -0.22835 -0.25945
 C41 C 1.25154 -0.29800 -0.28495
 C42 C 1.27424 -0.27814 -0.26145
 C43 C 1.19062 -0.24352 -0.27297
 C44 C 1.21338 -0.22336 -0.24969
 H45 H 1.23740 -0.22410 -0.35090
 H46 H 1.27928 -0.21186 -0.24050
 H47 H 1.25537 -0.33320 -0.28772
 H48 H 1.15708 -0.24335 -0.26942
 C49 C 0.21704 0.22742 0.79385
 C50 C 0.24653 0.24629 0.81506
 C51 C 0.27269 0.27140 0.79438
 C52 C 0.26418 0.27279 0.75520
 C53 C 0.19221 0.26571 0.77277
 C54 C 0.21630 0.28886 0.75156
 C55 C 0.24380 0.20079 0.76488
 C56 C 0.26867 0.22414 0.74435
 H57 H 0.24829 0.24192 0.84430
 H58 H 0.28404 0.29226 0.73861
 H59 H 0.15834 0.26956 0.76989
 H60 H 0.24190 0.16668 0.76039
 C61 C 0.73162 0.73938 0.80665
 C62 C 0.74736 0.77422 0.82496
 C63 C 0.77243 0.79840 0.80221
 C64 C 0.77517 0.78423 0.76431
 C65 C 0.70756 0.76110 0.77644
 C66 C 0.73140 0.78585 0.75276
 C67 C 0.76828 0.71314 0.79001
 C68 C 0.79182 0.73742 0.76579
 H69 H 0.74358 0.77900 0.85401
 H70 H 0.79385 0.80381 0.74659
 H71 H 0.67523 0.75764 0.77118
 H72 H 0.77375 0.67766 0.79175
 C73 C 0.73053 0.23858 0.30731
 C74 C 0.75036 0.27458 0.32428
 C75 C 0.77315 0.29605 0.30061
 C76 C 0.77409 0.27942 0.26142
 C77 C 0.70455 0.26132 0.27579
 C78 C 0.72733 0.28251 0.25151
 C79 C 0.76677 0.20885 0.28884
 C80 C 0.78915 0.22973 0.26427
 H81 H 0.74669 0.28232 0.35283
 H82 H 0.79288 0.29695 0.24214
 H83 H 0.67167 0.25897 0.27205
 H84 H 0.77066 0.17352 0.29160
 C85 C 0.23861 0.70877 0.29646
 C86 C 0.26919 0.73075 0.31794
 C87 C 0.29184 0.75641 0.29757
 C88 C 0.28155 0.75747 0.25640
 C89 C 0.21152 0.74597 0.27605
 C90 C 0.23323 0.77128 0.25459
 C91 C 0.26583 0.68363 0.26699
 C92 C 0.28819 0.70870 0.24559
 H93 H 0.27225 0.72655 0.34709
 H94 H 0.29983 0.77822 0.23947
 H95 H 0.17747 0.74909 0.27609
 H96 H 0.26584 0.64917 0.26249
 O97 O 1.06753 0.01852 0.05018
 O98 O 0.92998 -0.02338 0.05752
 O99 O 0.97170 0.07556 0.05125
 O100 O 1.02859 -0.07813 0.05425
 O101 O 0.91514 0.05222 0.03782
 O102 O 1.08300 -0.05632 0.03183
 O103 O 0.95878 -0.08400 0.03564
 O104 O 1.03922 0.07913 0.02713
 C105 C 1.05960 0.05875 0.05213
 C106 C 0.93662 -0.06387 0.05991
 C107 C 0.93503 0.07204 0.05907
 C108 C 1.06597 -0.07402 0.05751
 O109 O 1.07027 -0.02935 -0.03840
 O110 O 0.92146 0.02565 -0.03310
 O111 O 1.01098 0.07038 -0.04105
 O112 O 0.98223 -0.07617 -0.03536
 O113 O 0.92341 -0.04739 -0.01257
 O114 O 1.07135 0.04263 -0.02160
 O115 O 1.05450 -0.08855 -0.01657
 O116 O 0.93969 0.08436 -0.01591
 Co117 Co 1.06576 -0.00577 0.00597
 Co118 Co 0.92959 0.00163 0.01206
 Co119 Co 0.99113 0.06945 0.00545
 Co120 Co 1.00531 -0.07375 0.00939
 O121 O 0.99787 -0.00212 0.00832
 C122 C 1.07034 -0.06875 -0.04170
 C123 C 0.92300 0.06463 -0.03924
 C124 C 1.04957 0.06276 -0.04600
 C125 C 0.94365 -0.06581 -0.03862
 O126 O 1.07358 0.54606 0.51208
 O127 O 0.93732 0.46732 0.55269
 O128 O 0.94208 0.59831 0.53450
 O129 O 1.03167 0.42306 0.53203
 O130 O 0.92011 0.54184 0.55755
 O131 O 1.05788 0.48077 0.54378
 O132 O 0.95709 0.41776 0.51583
 O133 O 1.01899 0.58032 0.53920
 C134 C 1.05786 0.57239 0.53576
 C135 C 0.94120 0.42843 0.54589
 C136 C 0.92479 0.58045 0.55975
 C137 C 1.05280 0.44306 0.55242
 O138 O 1.09917 0.46528 0.48474
 O139 O 0.89865 0.55345 0.48623
 O140 O 1.02421 0.58426 0.46650
 O141 O 0.97015 0.44900 0.45049
 O142 O 0.91209 0.47310 0.48006
 O143 O 1.04833 0.51903 0.44994
 O144 O 1.04471 0.44343 0.46069
 O145 O 0.94577 0.59336 0.46546
 Co146 Co 1.04999 0.49910 0.49746
 Co147 Co 0.92271 0.50851 0.51759
 Co148 Co 0.98373 0.58150 0.50153
 Co149 Co 0.99999 0.44033 0.49148
 O150 O 0.98634 0.51059 0.50337
 C151 C 1.08430 0.43648 0.46515
 C152 C 0.90955 0.58291 0.46494
 C153 C 1.04441 0.55910 0.44402
 C154 C 0.93090 0.45749 0.45166
 O155 O 0.55629 0.00659 0.55089
 O156 O 0.42190 -0.04558 0.52234
 O157 O 0.45213 0.08711 0.52005
 O158 O 0.55226 -0.07068 0.54114
 O159 O 0.41415 0.03507 0.53344
 O160 O 0.60745 -0.04785 0.51698
 O161 O 0.47867 -0.06644 0.55072
 O162 O 0.52887 0.07154 0.53216
 C163 C 0.54816 0.04686 0.55614
 C164 C 0.43972 -0.05944 0.55082
 C165 C 0.42316 0.07264 0.53843
 C166 C 0.59217 -0.07588 0.53797
 O167 O 0.56960 -0.02712 0.45699
 O168 O 0.41509 0.04935 0.46474
 O169 O 0.54151 0.05584 0.45886
 O170 O 0.46844 -0.08752 0.47902
 O171 O 0.43206 -0.03061 0.45279
 O172 O 0.59065 0.03348 0.49352
 O173 O 0.54281 -0.08516 0.46859
 O174 O 0.47187 0.07249 0.44856
 Co175 Co 0.56033 -0.01149 0.50375
 Co176 Co 0.42800 0.00147 0.49380
 Co177 Co 0.49868 0.06596 0.49090
 Co178 Co 0.50947 -0.07098 0.50870
 O179 O 0.49634 -0.00129 0.49814
 C180 C 0.56351 -0.06383 0.44773
 C181 C 0.43463 0.07066 0.44348
 C182 C 0.57777 0.05791 0.46780
 C183 C 0.44540 -0.07067 0.45323
 O184 O 0.55650 0.50231 0.04273
 O185 O 0.42350 0.44713 0.01071
 O186 O 0.45378 0.57979 0.00813
 O187 O 0.55334 0.42271 0.03261
 O188 O 0.41852 0.52708 0.02512
 O189 O 0.60954 0.44720 0.01164
 O190 O 0.47946 0.42403 0.03957
 O191 O 0.52900 0.56611 0.02121
 C192 C 0.54694 0.54279 0.04668
 C193 C 0.44052 0.43065 0.03876
 C194 C 0.42761 0.56464 0.02938
 C195 C 0.59333 0.41869 0.03150
 O196 O 0.57575 0.46575 -0.05008
 O197 O 0.41791 0.54530 -0.04284
 O198 O 0.54483 0.54714 -0.05133
 O199 O 0.47223 0.40687 -0.03347
 O200 O 0.43362 0.46499 -0.05749
 O201 O 0.59239 0.52865 -0.01421
 O202 O 0.54819 0.40792 -0.04047
 O203 O 0.47572 0.55996 -0.06387
 Co204 Co 0.56321 0.48280 -0.00386
 Co205 Co 0.43067 0.49566 -0.01576
 Co206 Co 0.50081 0.55798 -0.02056
 Co207 Co 0.51232 0.42185 -0.00160
 O208 O 0.49943 0.49167 -0.01158
 C209 C 0.57131 0.42860 -0.05955
 C210 C 0.43783 0.56085 -0.06751
 C211 C 0.58031 0.55111 -0.04128
 C212 C 0.44738 0.42478 -0.05798
 C213 C 1.14108 0.15640 0.14685
 N214 N 1.13261 0.20083 0.14613
 N215 N 1.15625 0.22429 0.16450
 C216 C 1.18939 0.20407 0.18395
 N217 N 1.19748 0.15965 0.18473
 N218 N 1.17388 0.13625 0.16650
 C219 C 1.11712 0.13053 0.12493
 N220 N 1.12676 0.08617 0.12489
 N221 N 1.10743 0.06272 0.10258
 C222 C 1.07786 0.08300 0.07958
 N223 N 1.06778 0.12724 0.08009
 N224 N 1.08702 0.15063 0.10240
 C225 C 1.15117 0.66512 0.62483
 N226 N 1.13035 0.68955 0.65157
 N227 N 1.15097 0.71162 0.67380
 C228 C 1.19317 0.71017 0.67002
 N229 N 1.21399 0.68603 0.64299
 N230 N 1.19334 0.66382 0.62074
 C231 C 1.12796 0.64041 0.60135
 N232 N 1.14775 0.61367 0.57543
 N233 N 1.12572 0.59128 0.55441
 C234 C 1.08331 0.59504 0.55882
 N235 N 1.06376 0.62168 0.58475
 N236 N 1.08568 0.64389 0.60569
 C237 C 0.64436 0.13228 0.64814
 N238 N 0.64200 0.17614 0.64312
 N239 N 0.66847 0.19796 0.65967
 C240 C 0.69851 0.17689 0.68206
 N241 N 0.70105 0.13277 0.68677
 N242 N 0.67468 0.11085 0.66997
 C243 C 0.61548 0.10876 0.62877
 N244 N 0.62192 0.06435 0.62726
 N245 N 0.59825 0.04386 0.60611
 C246 C 0.56701 0.06707 0.58613
 N247 N 0.55988 0.11130 0.58863
 N248 N 0.58353 0.13172 0.60960
 C249 C 0.63139 0.63558 0.14288
 N250 N 0.62756 0.67961 0.13783
 N251 N 0.65175 0.70284 0.15578
 C252 C 0.68077 0.68293 0.17949
 N253 N 0.68476 0.63879 0.18434
 N254 N 0.66072 0.61550 0.16622
 C255 C 0.60540 0.61029 0.12197
 N256 N 0.61352 0.56584 0.12155
 N257 N 0.59269 0.54355 0.09936
 C258 C 0.56268 0.56495 0.07717
 N259 N 0.55383 0.60924 0.07850
 N260 N 0.57466 0.63146 0.10052
 C261 C 0.83967 -0.16423 0.14802
 N262 N 0.81915 -0.15070 0.17938
 N263 N 0.79380 -0.17536 0.19630
 C264 C 0.78766 -0.21415 0.18224
 N265 N 0.80821 -0.22748 0.15095
 N266 N 0.83386 -0.20321 0.13436
 C267 C 0.86717 -0.13748 0.12804
 N268 N 0.89425 -0.15657 0.10229
 N269 N 0.91721 -0.13294 0.08189
 C270 C 0.91400 -0.08907 0.08608
 N271 N 0.88716 -0.06972 0.11209
 N272 N 0.86431 -0.09357 0.13285
 C273 C 0.85483 0.32130 0.63808
 N274 N 0.84882 0.32781 0.67443
 N275 N 0.82379 0.30515 0.69406
 C276 C 0.80326 0.27554 0.67798
 N277 N 0.80953 0.26928 0.64171
 N278 N 0.83479 0.29141 0.62226
 C279 C 0.88085 0.34729 0.61534
 N280 N 0.89246 0.33487 0.58090
 N281 N 0.91314 0.35965 0.55916
 C282 C 0.92280 0.39812 0.57091
 N283 N 0.91148 0.41037 0.60543
 N284 N 0.89116 0.38539 0.62728
 C285 C 0.33659 -0.12598 0.65512
 N286 N 0.29600 -0.12435 0.64517
 N287 N 0.27171 -0.15035 0.66116
 C288 C 0.28694 -0.17866 0.68802
 N289 N 0.32715 -0.17941 0.69896
 N290 N 0.35172 -0.15365 0.68259
 C291 C 0.36435 -0.10301 0.63250
 N292 N 0.40696 -0.11301 0.63445
 N293 N 0.43162 -0.09759 0.60935
 C294 C 0.41433 -0.07193 0.58145
 N295 N 0.37189 -0.06105 0.58021
 N296 N 0.34739 -0.07634 0.60520
 C297 C 0.33608 0.36247 0.14264
 N298 N 0.29626 0.36030 0.13222
 N299 N 0.27179 0.33750 0.15177
 C300 C 0.28597 0.31635 0.18280
 N301 N 0.32548 0.31934 0.19386
 N302 N 0.35023 0.34189 0.17402
 C303 C 0.36374 0.38365 0.11824
 N304 N 0.40616 0.37802 0.12268
 N305 N 0.43103 0.39374 0.09789
 C306 C 0.41423 0.41553 0.06786
 N307 N 0.37188 0.42167 0.06388
 N308 N 0.34716 0.40594 0.08849
 C309 C 0.84502 0.14868 -0.16422
 N310 N 0.82704 0.12391 -0.18735
 N311 N 0.80611 0.14200 -0.21600
 C312 C 0.80212 0.18572 -0.22303
 N313 N 0.82068 0.21067 -0.20014
 N314 N 0.84173 0.19247 -0.17124
 C315 C 0.86627 0.12760 -0.13176
 N316 N 0.88441 0.15068 -0.10718
 N317 N 0.90256 0.13077 -0.07766
 C318 C 0.90307 0.08716 -0.07160
 N319 N 0.88503 0.06423 -0.09622
 N320 N 0.86700 0.08405 -0.12564
 C321 C 0.81295 0.66040 0.34773
 N322 N 0.78817 0.63687 0.32955
 N323 N 0.76964 0.65272 0.29901
 C324 C 0.77507 0.69269 0.28542
 N325 N 0.79964 0.71640 0.30377
 N326 N 0.81846 0.70040 0.33423
 C327 C 0.83521 0.64189 0.38036
 N328 N 0.86666 0.66101 0.39378
 N329 N 0.88916 0.64268 0.42157
 C330 C 0.88085 0.60482 0.43735
 N331 N 0.84886 0.58598 0.42441
 N332 N 0.82650 0.60419 0.39633
 C333 C 0.35306 0.15978 0.32427
 N334 N 0.32856 0.13823 0.30407
 N335 N 0.30610 0.15878 0.27729
 C336 C 0.30693 0.20174 0.26982
 N337 N 0.33185 0.22337 0.28981
 N338 N 0.35484 0.20259 0.31650
 C339 C 0.37460 0.13729 0.35528
 N340 N 0.40926 0.15042 0.36907
 N341 N 0.42860 0.12897 0.39726
 C342 C 0.41348 0.09425 0.41281
 N343 N 0.37864 0.08145 0.39921
 N344 N 0.35969 0.10247 0.37076
 C345 C 0.35113 0.65048 -0.18430
 N346 N 0.35649 0.69207 -0.19329
 N347 N 0.33253 0.71484 -0.21840
 C348 C 0.30291 0.69648 -0.23565
 N349 N 0.29811 0.65471 -0.22695
 N350 N 0.32161 0.63220 -0.20159
 C351 C 0.37471 0.62639 -0.15490
 N352 N 0.41227 0.63652 -0.14468
 N353 N 0.43290 0.61494 -0.11715
 C354 C 0.41631 0.58306 -0.09868
 N355 N 0.37873 0.57305 -0.10885
 N356 N 0.35843 0.59415 -0.13668
 C357 C 1.15586 -0.15894 -0.15906
 N358 N 1.13995 -0.19260 -0.17363
 N359 N 1.15853 -0.21311 -0.20238
 C360 C 1.19397 -0.20109 -0.21738
 N361 N 1.21029 -0.16776 -0.20254
 N362 N 1.19137 -0.14683 -0.17398
 C363 C 1.13429 -0.13569 -0.12821
 N364 N 1.14135 -0.09491 -0.12013
 N365 N 1.12063 -0.07341 -0.09268
 C366 C 1.09244 -0.09209 -0.07220
 N367 N 1.08558 -0.13296 -0.08013
 N368 N 1.10593 -0.15425 -0.10784
 C369 C 1.16998 0.33956 0.35176
 N370 N 1.14682 0.31523 0.33262
 N371 N 1.16182 0.29650 0.30196
 C372 C 1.20064 0.30130 0.28904
 N373 N 1.22411 0.32551 0.30824
 N374 N 1.20894 0.34455 0.33900
 C375 C 1.15118 0.36149 0.38449
 N376 N 1.17007 0.39090 0.40251
 N377 N 1.14998 0.41348 0.42990
 C378 C 1.11048 0.40718 0.44016
 N379 N 1.09225 0.37717 0.42260
 N380 N 1.11222 0.35469 0.39544
 C381 C 0.63678 -0.14623 0.32198
 N382 N 0.61597 -0.17362 0.30373
 N383 N 0.63527 -0.19841 0.27749
 C384 C 0.67625 -0.19714 0.26866
 N385 N 0.69704 -0.16941 0.28670
 N386 N 0.67757 -0.14423 0.31281
 C387 C 0.61629 -0.12232 0.35308
 N388 N 0.63236 -0.08855 0.36751
 N389 N 0.61477 -0.06889 0.39714
 C390 C 0.58088 -0.08271 0.41356
 N391 N 0.56479 -0.11632 0.39904
 N392 N 0.58202 -0.13558 0.36921
 C393 C 0.66052 0.34219 -0.17811
 N394 N 0.63960 0.31860 -0.19992
 N395 N 0.65990 0.29413 -0.22585
 C396 C 0.70217 0.29153 -0.23105
 N397 N 0.72329 0.31560 -0.20943
 N398 N 0.70278 0.34063 -0.18352
 C399 C 0.63730 0.36634 -0.14798
 N400 N 0.65187 0.39982 -0.13160
 N401 N 0.63021 0.42065 -0.10411
 C402 C 0.59348 0.40848 -0.09181
 N403 N 0.57910 0.37498 -0.10816
 N404 N 0.60038 0.35464 -0.13588
 C405 C 1.14158 0.15080 -0.14598
 N406 N 1.18411 0.13945 -0.14743
 N407 N 1.20790 0.16381 -0.16625
 C408 C 1.19002 0.20058 -0.18419
 N409 N 1.14743 0.21186 -0.18269
 N410 N 1.12363 0.18753 -0.16384
 C411 C 1.11603 0.12516 -0.12349
 N412 N 1.07374 0.13762 -0.11944
 N413 N 1.05155 0.11642 -0.09605
 C414 C 1.07103 0.08205 -0.07607
 N415 N 1.11305 0.06916 -0.08080
 N416 N 1.13512 0.09020 -0.10413
 C417 C 1.15562 0.63937 0.35541
 N418 N 1.18451 0.61783 0.33211
 N419 N 1.21183 0.63916 0.31421
 C420 C 1.21164 0.68263 0.31936
 N421 N 1.18327 0.70374 0.34326
 N422 N 1.15584 0.68256 0.36087
 C423 C 1.12429 0.61720 0.37476
 N424 N 1.09206 0.64154 0.39284
 N425 N 1.06505 0.62246 0.41288
 C426 C 1.06896 0.57824 0.41562
 N427 N 1.10073 0.55363 0.39693
 N428 N 1.12777 0.57282 0.37660
 C429 C 0.66679 0.16610 0.38178
 N430 N 0.70842 0.16755 0.38548
 N431 N 0.72828 0.19118 0.36221
 C432 C 0.70727 0.21404 0.33445
 N433 N 0.66557 0.21282 0.33106
 N434 N 0.64574 0.18931 0.35431
 C435 C 0.64459 0.13874 0.40576
 N436 N 0.60336 0.13755 0.40002
 N437 N 0.58266 0.11178 0.42028
 C438 C 0.60227 0.08613 0.44708
 N439 N 0.64358 0.08732 0.45321
 N440 N 0.66446 0.11324 0.43275
 C441 C 0.66911 0.66212 -0.12463
 N442 N 0.70969 0.66648 -0.11855
 N443 N 0.72942 0.69181 -0.14044
 C444 C 0.70935 0.71372 -0.16919
 N445 N 0.66863 0.70941 -0.17490
 N446 N 0.64896 0.68414 -0.15307
 C447 C 0.64706 0.63337 -0.10188
 N448 N 0.60718 0.62888 -0.11021
 N449 N 0.58653 0.60246 -0.09058
 C450 C 0.60485 0.57944 -0.06184
 N451 N 0.64484 0.58383 -0.05321
 N452 N 0.66567 0.61039 -0.07303
 C453 C 0.84563 -0.12598 -0.14537
 N454 N 0.85733 -0.14095 -0.17910
 N455 N 0.83253 -0.16342 -0.19747
 C456 C 0.79583 -0.17248 -0.18227
 N457 N 0.78423 -0.15667 -0.14894
 N458 N 0.80832 -0.13359 -0.13108
 C459 C 0.87294 -0.10489 -0.12234
 N460 N 0.85471 -0.07980 -0.09494
 N461 N 0.87788 -0.06648 -0.06927
 C462 C 0.92028 -0.07812 -0.06958
 N463 N 0.93901 -0.10247 -0.09744
 N464 N 0.91564 -0.11577 -0.12341
 C465 C 0.83670 0.38783 0.34709
 N466 N 0.79589 0.38603 0.35589
 N467 N 0.77507 0.35843 0.33936
 C468 C 0.79407 0.33178 0.31313
 N469 N 0.83449 0.33457 0.30327
 N470 N 0.85553 0.36204 0.32011
 C471 C 0.86111 0.41203 0.37044
 N472 N 0.90377 0.40661 0.36778
 N473 N 0.92607 0.42282 0.39286
 C474 C 0.90651 0.44488 0.42152
 N475 N 0.86385 0.45123 0.42364
 N476 N 0.84160 0.43505 0.39860
 C477 C 0.37091 -0.17344 0.35451
 N478 N 0.36574 -0.21455 0.36504
 N479 N 0.34192 -0.23709 0.34598
 C480 C 0.32253 -0.21986 0.31529
 N481 N 0.32840 -0.17904 0.30417
 N482 N 0.35201 -0.15622 0.32351
 C483 C 0.39387 -0.14721 0.37813
 N484 N 0.39077 -0.10322 0.37318
 N485 N 0.40822 -0.07923 0.39653
 C486 C 0.42977 -0.09819 0.42568
 N487 N 0.43348 -0.14228 0.43032
 N488 N 0.41576 -0.16624 0.40709
 C489 C 0.36050 0.32977 -0.15211
 N490 N 0.34067 0.29910 -0.13546
 N491 N 0.31269 0.28042 -0.15312
 C492 C 0.30355 0.29099 -0.18839
 N493 N 0.32406 0.32116 -0.20544
 N494 N 0.35166 0.34057 -0.18748
 C495 C 0.38841 0.35267 -0.13071
 N496 N 0.39246 0.39490 -0.13848
 N497 N 0.41285 0.41727 -0.11602
 C498 C 0.43049 0.39816 -0.08521
 N499 N 0.42734 0.35562 -0.07793
 N500 N 0.40647 0.33344 -0.10012
 C501 C 1.16472 -0.15114 0.17456
 N502 N 1.20749 -0.16028 0.17183
 N503 N 1.22992 -0.18328 0.19793
 C504 C 1.21035 -0.19772 0.22782
 N505 N 1.16775 -0.18751 0.23073
 N506 N 1.14542 -0.16477 0.20473
 C507 C 1.13904 -0.12945 0.14466
 N508 N 1.09649 -0.12777 0.14549
 N509 N 1.07303 -0.11004 0.11791
 C510 C 1.09127 -0.09315 0.08846
 N511 N 1.13376 -0.09453 0.08775
 N512 N 1.15725 -0.11249 0.11523
 C513 C 1.15050 0.35573 0.66531
 N514 N 1.17916 0.37493 0.68336
 N515 N 1.20184 0.35336 0.70999
 C516 C 1.19656 0.31186 0.71933
 N517 N 1.16846 0.29268 0.70078
 N518 N 1.14605 0.31404 0.67424
 C519 C 1.12379 0.37930 0.63703
 N520 N 1.09669 0.35845 0.61869
 N521 N 1.07276 0.37912 0.59257
 C522 C 1.07471 0.42162 0.58413
 N523 N 1.10145 0.44262 0.60276
 N524 N 1.12546 0.42192 0.62882
 C525 C 0.68007 -0.16057 0.65710
 N526 N 0.72021 -0.15624 0.66554
 N527 N 0.73712 -0.17325 0.69657
 C528 C 0.71438 -0.19487 0.72037
 N529 N 0.67431 -0.19880 0.71174
 N530 N 0.65754 -0.18206 0.68086
 C531 C 0.65977 -0.14143 0.62372
 N532 N 0.61983 -0.14763 0.61693
 N533 N 0.59929 -0.12821 0.58854
 C534 C 0.61790 -0.10196 0.56557
 N535 N 0.65821 -0.09621 0.57186
 N536 N 0.67886 -0.11572 0.60042
 C537 C 0.67620 0.33493 0.15325
 N538 N 0.71623 0.33918 0.16194
 N539 N 0.73257 0.32279 0.19330
 C540 C 0.70936 0.30194 0.21718
 N541 N 0.66938 0.29786 0.20838
 N542 N 0.65315 0.31404 0.17709
 C543 C 0.65694 0.35372 0.11942
 N544 N 0.61711 0.34797 0.11173
 N545 N 0.59781 0.36723 0.08269
 C546 C 0.61759 0.39288 0.06005
 N547 N 0.65776 0.39816 0.06729
 N548 N 0.67716 0.37879 0.09645
 C549 C 0.85683 0.16113 0.18003
 N550 N 0.83032 0.14182 0.20170
 N551 N 0.81014 0.16333 0.22930
 C552 C 0.81539 0.20507 0.23616
 N553 N 0.84203 0.22443 0.21450
 N554 N 0.86270 0.20267 0.18707
 C555 C 0.87739 0.13780 0.14880
 N556 N 0.91267 0.14968 0.13346
 N557 N 0.93112 0.12836 0.10497
 C558 C 0.91461 0.09489 0.09051
 N559 N 0.87918 0.08316 0.10569
 N560 N 0.86104 0.10411 0.13450
 C561 C 0.86385 0.67322 0.68457
 N562 N 0.85038 0.65080 0.71332
 N563 N 0.82891 0.67189 0.74049
 C564 C 0.81991 0.71625 0.74002
 N565 N 0.83475 0.73878 0.71180
 N566 N 0.85633 0.71764 0.68453
 C567 C 0.88216 0.64936 0.65276
 N568 N 0.89621 0.67062 0.62349
 N569 N 0.91002 0.64870 0.59374
 C570 C 0.90969 0.60494 0.59214
 N571 N 0.89580 0.58376 0.62145
 N572 N 0.88226 0.60559 0.65119
 C573 C 0.33679 0.16541 0.65515
 N574 N 0.33982 0.20742 0.66352
 N575 N 0.31852 0.22646 0.69203
 C576 C 0.29370 0.20403 0.71318
 N577 N 0.29107 0.16211 0.70470
 N578 N 0.31207 0.14326 0.67635
 C579 C 0.35912 0.14312 0.62384
 N580 N 0.35146 0.10263 0.61557
 N581 N 0.37155 0.08091 0.58805
 C582 C 0.40024 0.09869 0.56756
 N583 N 0.40801 0.13938 0.57562
 N584 N 0.38769 0.16130 0.60326
 C585 C 0.35148 0.65370 0.15248
 N586 N 0.35185 0.69657 0.15987
 N587 N 0.33239 0.71441 0.18969
 C588 C 0.31213 0.68991 0.21322
 N589 N 0.31232 0.64714 0.20575
 N590 N 0.33146 0.62948 0.17612
 C591 C 0.37114 0.63261 0.11945
 N592 N 0.36435 0.59156 0.11209
 N593 N 0.38191 0.57081 0.08309
 C594 C 0.40717 0.59009 0.06008
 N595 N 0.41412 0.63135 0.06720
 N596 N 0.39626 0.65234 0.09635
   
