data_POSCAR
  _audit_creation_date              2014-09-24
  _audit_creation_method            'ToBaCCo'
  _symmetry_space_group_name_H-M    'P1'
  _symmetry_Int_Tables_number       1
  _symmetry_cell_setting            triclinic
  loop_
  _symmetry_equiv_pos_as_xyz
 x,y,z
_cell_length_a 25.5436
_cell_length_b 24.6947
_cell_length_c 24.8229
_cell_angle_alpha 89.239300
_cell_angle_beta 90.506100
_cell_angle_gamma 87.542200
loop_
  _atom_site_label
  _atom_site_type_symbol
  _atom_site_fract_x
  _atom_site_fract_y
  _atom_site_fract_z
C1 C 0.17812 0.54222 1.07451
 H2 H 0.17908 0.57746 1.04822
 C3 C 0.13956 0.53928 1.11377
 H4 H 0.11181 0.57328 1.11653
 C5 C 0.21244 0.45467 1.09896
 H6 H 0.23979 0.42102 1.09191
 C7 C 0.17445 0.44980 1.13853
 H8 H 0.17392 0.41260 1.16214
 N9 N 0.21369 0.50046 1.06807
 C10 C 0.34116 0.56609 0.97647
 H11 H 0.34255 0.53647 0.94474
 C12 C 0.37989 0.60393 0.97983
 H13 H 0.41078 0.60217 0.95038
 C14 C 0.30143 0.59961 1.05590
 H15 H 0.27183 0.59646 1.08646
 C16 C 0.33937 0.63867 1.06058
 H17 H 0.33796 0.66615 1.09423
 Zn18 Zn 0.26022 0.50392 1.00975
 N19 N 0.30306 0.56439 1.01417
 C20 C 0.21771 0.54994 0.91193
 N21 N 0.21819 0.50660 0.94639
 C22 C 0.18368 0.46663 0.94047
 C23 C 0.14592 0.46987 0.89938
 C24 C 0.18078 0.55460 0.86995
 C25 C 0.33862 0.44021 1.05693
 C26 C 0.37696 0.39880 1.06299
 C27 C 0.35061 0.36380 0.97684
 C28 C 0.31210 0.40581 0.97269
 N29 N 0.30704 0.44288 1.01255
 H30 H 0.24466 0.58190 0.91804
 H31 H 0.18436 0.43307 0.96897
 H32 H 0.11834 0.43797 0.89604
 H33 H 0.18021 0.58981 0.84344
 H34 H 0.33414 0.47083 1.08752
 H35 H 0.40191 0.39759 1.09855
 H36 H 0.35460 0.33474 0.94471
 H37 H 0.28702 0.40935 0.93740
 C38 C 0.37930 0.64125 1.02223
 C39 C 0.13706 0.49223 1.14656
 C40 C 0.38377 0.36033 1.02250
 C41 C 0.14360 0.51484 0.86394
 C42 C 0.82568 0.53272 -0.07741
 H43 H 0.82059 0.57004 -0.05536
 C44 C 0.86397 0.52819 -0.11722
 H45 H 0.88765 0.56261 -0.12534
 C46 C 0.80470 0.44109 -0.08893
 H47 H 0.78310 0.40655 -0.07611
 C48 C 0.84332 0.43449 -0.12831
 H49 H 0.85042 0.39510 -0.14618
 N50 N 0.79728 0.48939 -0.06366
 C51 C 0.68251 0.55720 0.05064
 H52 H 0.69039 0.52810 0.08295
 C53 C 0.64161 0.59598 0.05539
 H54 H 0.61868 0.59682 0.09191
 C55 C 0.70138 0.58927 -0.03709
 H56 H 0.72365 0.58527 -0.07373
 C57 C 0.66052 0.62879 -0.03412
 H58 H 0.65283 0.65496 -0.06872
 Zn59 Zn 0.75785 0.49265 0.00105
 N60 N 0.71120 0.55418 0.00485
 C61 C 0.81063 0.53119 0.09506
 N62 N 0.80749 0.49126 0.05802
 C63 C 0.84250 0.44828 0.05805
 C64 C 0.88272 0.44406 0.09628
 C65 C 0.85038 0.52850 0.13434
 C66 C 0.67836 0.42641 -0.03174
 C67 C 0.64195 0.38612 -0.02702
 C68 C 0.68177 0.35873 0.05828
 C69 C 0.71746 0.39962 0.05192
 N70 N 0.71516 0.43234 0.00735
 H71 H 0.78309 0.56563 0.09363
 H72 H 0.83942 0.41749 0.02771
 H73 H 0.91069 0.40987 0.09505
 H74 H 0.85290 0.56091 0.16306
 H75 H 0.67677 0.45381 -0.06615
 H76 H 0.61278 0.38247 -0.05851
 H77 H 0.68371 0.33338 0.09424
 H78 H 0.74595 0.40613 0.08334
 C79 C 0.62934 0.63185 0.01244
 C80 C 0.87408 0.47811 -0.14241
 C81 C 0.64324 0.35173 0.01869
 C82 C 0.88726 0.48454 0.13486
 C83 C -0.05219 0.34134 0.44246
 H84 H -0.08030 0.34240 0.47481
 C85 C -0.05588 0.38046 0.40118
 H86 H -0.08711 0.41156 0.40195
 C87 C 0.02403 0.30096 0.40349
 H88 H 0.05615 0.27116 0.40523
 C89 C 0.02136 0.33858 0.36104
 H90 H 0.05140 0.33661 0.33051
 N91 N -0.01239 0.30295 0.44317
 C92 C -0.05827 0.17138 0.54831
 H93 H -0.02599 0.17189 0.57680
 C94 C -0.09540 0.13203 0.55300
 H95 H -0.09177 0.10235 0.58550
 C96 C -0.10105 0.20875 0.47028
 H97 H -0.10225 0.23814 0.43758
 C98 C -0.13910 0.16977 0.47332
 H99 H -0.16984 0.16982 0.44303
 Zn100 Zn -0.00561 0.25543 0.50374
 N101 N -0.06177 0.20873 0.50760
 C102 C -0.04677 0.29851 0.60025
 N103 N -0.00495 0.29868 0.56660
 C104 C 0.03363 0.33426 0.57343
 C105 C 0.03079 0.37185 0.61513
 C106 C -0.05123 0.33542 0.64232
 C107 C 0.05147 0.17453 0.45405
 C108 C 0.09079 0.13502 0.44523
 C109 C 0.13634 0.16551 0.52420
 C110 C 0.09603 0.20514 0.53127
 N111 N 0.05462 0.20867 0.49635
 H112 H -0.07805 0.27133 0.59326
 H113 H 0.06567 0.33477 0.54522
 H114 H 0.06110 0.40093 0.61794
 H115 H -0.08544 0.33542 0.66779
 H116 H 0.01773 0.17773 0.42734
 H117 H 0.08714 0.10810 0.41142
 H118 H 0.16896 0.16339 0.55232
 H119 H 0.09739 0.23224 0.56506
 C120 C -0.13621 0.13062 0.51511
 C121 C -0.01861 0.37977 0.36003
 C122 C 0.13346 0.12931 0.48090
 C123 C -0.01244 0.37301 0.65017
 C124 C 0.94741 0.68453 0.56165
 H125 H 0.91651 0.68874 0.53160
 C126 C 0.94538 0.64449 0.60181
 H127 H 0.91245 0.61828 0.60289
 C128 C 1.02929 0.71162 0.59510
 H129 H 1.06283 0.73652 0.59130
 C130 C 1.02889 0.67213 0.63587
 H131 H 1.06191 0.66783 0.66349
 N132 N 0.98900 0.71700 0.55891
 C133 C 0.94252 0.85261 0.45288
 H134 H 0.97603 0.84944 0.42657
 C135 C 0.90621 0.89585 0.44666
 H136 H 0.91187 0.92596 0.41534
 C137 C 0.89592 0.81809 0.52712
 H138 H 0.89306 0.78841 0.55923
 C139 C 0.85818 0.86073 0.52202
 H140 H 0.82665 0.86346 0.55077
 Zn141 Zn 0.99379 0.76413 0.49844
 N142 N 0.93708 0.81512 0.49276
 C143 C 0.95339 0.72298 0.40169
 N144 N 0.99470 0.72023 0.43674
 C145 C 1.03359 0.68135 0.43248
 C146 C 1.03151 0.64257 0.39218
 C147 C 0.94974 0.68507 0.36075
 C148 C 1.05302 0.83911 0.54829
 C149 C 1.09137 0.87682 0.55500
 C150 C 1.13049 0.84698 0.47159
 C151 C 1.09140 0.80911 0.46674
 N152 N 1.05358 0.80624 0.50482
 H153 H 0.92201 0.75316 0.40667
 H154 H 1.06531 0.67931 0.46171
 H155 H 1.06252 0.61155 0.39136
 H156 H 0.91597 0.68723 0.33398
 H157 H 1.02179 0.83678 0.57722
 H158 H 1.08977 0.90314 0.58956
 H159 H 1.15981 0.84967 0.44052
 H160 H 1.09022 0.78350 0.43182
 C161 C 0.86353 0.90052 0.48147
 C162 C 0.98665 0.63744 0.63913
 C163 C 1.13021 0.88181 0.51609
 C164 C 0.98866 0.64370 0.35582
 C165 C 0.43475 -0.05746 0.32609
 H166 H 0.46423 -0.08965 0.32056
 C167 C 0.39723 -0.06236 0.36606
 H168 H 0.39802 -0.09866 0.39112
 C169 C 0.39884 0.02918 0.30034
 H170 H 0.40020 0.06499 0.27494
 C171 C 0.36046 0.02603 0.34013
 H172 H 0.33217 0.05951 0.34389
 N173 N 0.43485 -0.01239 0.29413
 C174 C 0.52834 -0.08678 0.16865
 H175 H 0.56405 -0.06508 0.17259
 C176 C 0.52568 -0.12876 0.13182
 H177 H 0.55995 -0.13798 0.10787
 C178 C 0.43953 -0.09616 0.19208
 H179 H 0.40579 -0.08245 0.21498
 C180 C 0.43441 -0.13687 0.15403
 H181 H 0.39668 -0.15458 0.14853
 Zn182 Zn 0.48996 -0.01137 0.24401
 N183 N 0.48601 -0.07205 0.19863
 C184 C 0.58524 -0.05877 0.28870
 N185 N 0.55255 -0.01383 0.28543
 C186 C 0.56077 0.03025 0.31610
 C187 C 0.60358 0.03069 0.35121
 C188 C 0.62846 -0.06023 0.32366
 C189 C 0.44239 0.05875 0.16721
 C190 C 0.43974 0.09950 0.12762
 C191 C 0.52660 0.12462 0.15372
 C192 C 0.52765 0.08321 0.19272
 N193 N 0.48603 0.05106 0.19854
 H194 H 0.57681 -0.09438 0.26598
 H195 H 0.53337 0.06487 0.31383
 H196 H 0.60887 0.06613 0.37554
 H197 H 0.65344 -0.09672 0.32682
 H198 H 0.41032 0.03189 0.17180
 H199 H 0.40516 0.10398 0.10212
 H200 H 0.56103 0.14812 0.14915
 H201 H 0.56280 0.07540 0.21653
 C202 C 0.47789 -0.15428 0.12353
 C203 C 0.35958 -0.02028 0.37392
 C204 C 0.48240 0.13266 0.11985
 C205 C 0.63768 -0.01539 0.35592
 C206 C 0.55361 -0.03862 0.65597
 H207 H 0.52204 -0.06647 0.65667
 C208 C 0.59192 -0.04335 0.61672
 H209 H 0.58957 -0.07503 0.58713
 C210 C 0.59369 0.03741 0.69317
 H211 H 0.59362 0.06923 0.72263
 C212 C 0.63307 0.03419 0.65436
 H213 H 0.66335 0.06340 0.65532
 N214 N 0.55507 0.00119 0.69310
 C215 C 0.46132 -0.06851 0.81914
 H216 H 0.42800 -0.04002 0.82066
 C217 C 0.46527 -0.11241 0.85529
 H218 H 0.43438 -0.11787 0.88420
 C219 C 0.54300 -0.09493 0.78077
 H220 H 0.57422 -0.08702 0.75314
 C221 C 0.54834 -0.13939 0.81577
 H222 H 0.58330 -0.16573 0.81413
 Zn223 Zn 0.49755 0.00310 0.73998
 N224 N 0.50000 -0.06057 0.78297
 C225 C 0.40117 -0.02936 0.69222
 N226 N 0.43802 0.00869 0.69450
 C227 C 0.43678 0.05189 0.65997
 C228 C 0.39753 0.05814 0.62088
 C229 C 0.36102 -0.02472 0.65348
 C230 C 0.53904 0.06766 0.82092
 C231 C 0.53812 0.10840 0.85945
 C232 C 0.45165 0.13746 0.82766
 C233 C 0.45435 0.09641 0.78964
 N234 N 0.49762 0.06257 0.78691
 H235 H 0.40343 -0.06377 0.71961
 H236 H 0.46712 0.08104 0.66230
 H237 H 0.39762 0.09252 0.59332
 H238 H 0.33191 -0.05522 0.65267
 H239 H 0.57248 0.03937 0.81875
 H240 H 0.57170 0.11088 0.88583
 H241 H 0.41647 0.16340 0.82978
 H242 H 0.42110 0.09062 0.76348
 C243 C 0.50968 -0.14810 0.85409
 C244 C 0.63197 -0.00639 0.61501
 C245 C 0.49358 0.14379 0.86353
 C246 C 0.35947 0.01925 0.61664
 Si247 Si 0.24549 -0.00085 0.49529
 Si248 Si 0.73975 0.02039 0.49013
 Si249 Si 0.51199 0.24901 0.99688
 Si250 Si 0.50319 0.74766 -0.00863
 Si251 Si 1.00796 0.50873 0.24997
 Si252 Si 0.00868 0.50316 0.76056
 C253 C 0.17259 0.08439 0.47155
 C254 C 0.20553 0.06352 0.50913
 H255 H 0.17142 0.06457 0.43284
 H256 H 0.20663 0.07941 0.54946
 C257 C 0.58219 0.66884 0.01747
 C258 C 0.56634 0.70657 -0.01889
 H259 H 0.55841 0.66404 0.05303
 H260 H 0.58820 0.71380 -0.05500
 C261 C 0.82841 -0.05051 0.47649
 C262 C 0.77964 -0.04697 0.49517
 H263 H 0.84347 -0.01563 0.45578
 H264 H 0.76155 -0.08144 0.51337
 C265 C 0.42647 0.31848 1.02901
 C266 C 0.44354 0.28790 0.98858
 H267 H 0.44626 0.31455 1.06782
 H268 H 0.46966 0.25589 0.99416
 C269 C 0.82615 0.08718 0.51993
 C270 C 0.78800 0.08058 0.48414
 H271 H 0.83077 0.05865 0.55347
 H272 H 0.76563 0.04917 0.49063
 C273 C 0.42059 0.68148 0.02840
 C274 C 0.44979 0.69718 -0.01288
 H275 H 0.42651 0.69912 0.06755
 H276 H 0.44336 0.68222 -0.05296
 C277 C 0.16804 -0.07503 0.52279
 C278 C 0.20089 -0.06069 0.48420
 H279 H 0.16722 -0.05254 0.56004
 H280 H 0.22478 -0.02865 0.49012
 C281 C 0.60489 0.30899 1.02624
 C282 C 0.56679 0.30196 0.99040
 H283 H 0.60823 0.28292 1.06166
 H284 H 0.54323 0.27065 0.99598
 C285 C 0.48039 0.17150 1.07358
 C286 C 0.51616 0.20823 1.06330
 H287 H 0.44819 0.16854 1.04513
 H288 H 0.54903 0.21405 1.08989
 C289 C -0.01514 0.59190 0.67841
 C290 C 0.01793 0.57209 0.71800
 H291 H 0.01964 0.59844 0.70273
 H292 H 0.00654 0.53404 0.73535
 C293 C 0.51791 0.80668 -0.10694
 C294 C 0.49031 0.80390 -0.06196
 H295 H 0.54890 0.77652 -0.11449
 H296 H 0.49750 0.77282 -0.03461
 C297 C 0.97921 0.42192 0.32159
 C298 C 1.01350 0.43417 0.28176
 H299 H 1.00347 0.40731 0.28905
 H300 H 1.02737 0.47501 0.27339
 C301 C 0.47121 0.80738 0.08280
 C302 C 0.51097 0.78034 0.05898
 H303 H 0.43171 0.80042 0.06894
 H304 H 0.55089 0.78264 0.07327
 C305 C -0.02031 0.41483 0.69238
 C306 C 0.01854 0.44361 0.71163
 H307 H -0.05950 0.42268 0.70757
 H308 H 0.05848 0.43589 0.69894
 C309 C 0.48795 0.18637 0.90502
 C310 C 0.52397 0.19566 0.94269
 H311 H 0.45160 0.21064 0.90530
 H312 H 0.56105 0.17314 0.94510
 C313 C 0.98167 0.60188 0.31407
 C314 C 1.01770 0.56295 0.30327
 H315 H 0.94523 0.60300 0.29130
 H316 H 1.05524 0.56013 0.32353
 C317 C 1.09831 0.48501 0.18575
 C318 C 1.06155 0.52260 0.19879
 H319 H 1.09796 0.44622 0.20672
 H320 H 1.05925 0.56266 0.18094
 C321 C 0.66969 -0.01100 0.57023
 C322 C 0.70323 0.02673 0.55676
 H323 H 0.66701 -0.04575 0.54420
 H324 H 0.70685 0.06356 0.57920
 C325 C -0.07981 0.46894 0.82210
 C326 C -0.06005 0.50857 0.79243
 H327 H -0.06006 0.42921 0.82254
 H328 H -0.07985 0.54817 0.79011
 C329 C 0.32103 -0.02698 0.41775
 C330 C 0.28850 0.01237 0.43584
 H331 H 0.32074 -0.06635 0.43766
 H332 H 0.28791 0.05304 0.41933
 C333 C 0.10264 0.52169 0.82139
 C334 C 0.06161 0.49008 0.81955
 H335 H 0.10609 0.55372 0.79151
 H336 H 0.03272 0.49105 0.79250
 C337 C 0.67999 -0.01931 0.39699
 C338 C 0.68666 0.02041 0.43172
 H339 H 0.70326 -0.05692 0.40142
 H340 H 0.70928 0.01056 0.46390
 C341 C 0.93268 0.48086 0.17219
 C342 C 0.94185 0.51766 0.20955
 H343 H 0.96142 0.44779 0.16659
 H344 H 0.97576 0.51696 0.23070
 C345 C 0.31966 0.02636 0.57312
 C346 C 0.29083 -0.01339 0.55481
 H347 H 0.31570 0.06571 0.55320
 H348 H 0.29501 -0.05432 0.57070
   
