data_POSCAR
  _audit_creation_date              2014-09-24
  _audit_creation_method            'ToBaCCo'
  _symmetry_space_group_name_H-M    'P1'
  _symmetry_Int_Tables_number       1
  _symmetry_cell_setting            triclinic
  loop_
  _symmetry_equiv_pos_as_xyz
 x,y,z
_cell_length_a 32.4937
_cell_length_b 31.5041
_cell_length_c 29.0784
_cell_angle_alpha 89.761200
_cell_angle_beta 90.602500
_cell_angle_gamma 121.000800
loop_
  _atom_site_label
  _atom_site_type_symbol
  _atom_site_fract_x
  _atom_site_fract_y
  _atom_site_fract_z
O1 O 0.03055 0.53032 -0.05612
 O2 O 0.05568 0.46221 0.03128
 O3 O 0.01720 0.44236 -0.05164
 O4 O 0.06404 0.54888 0.02752
 O5 O -0.00914 0.51951 0.05414
 O6 O -0.05482 0.41133 -0.02164
 O7 O -0.01606 0.43355 0.06112
 O8 O -0.04303 0.49868 -0.02958
 Cu9 Cu 0.04919 0.49871 -0.01486
 Cu10 Cu -0.03801 0.46260 0.01899
 C11 C -0.01062 0.52550 -0.05839
 C12 C 0.02479 0.43724 0.06174
 C13 C -0.02721 0.40928 -0.05087
 C14 C 0.03516 0.55249 0.05404
 O15 O 0.56514 0.53386 -0.03652
 O16 O 0.48128 0.45905 0.05486
 O17 O 0.49445 0.44272 -0.03019
 O18 O 0.55124 0.54959 0.04839
 O19 O 0.50146 0.57308 0.02389
 O20 O 0.44347 0.46498 -0.05365
 O21 O 0.43140 0.48283 0.03133
 O22 O 0.51442 0.55598 -0.06134
 Cu23 Cu 0.52813 0.49402 0.01139
 Cu24 Cu 0.46764 0.52149 -0.01751
 C25 C 0.55390 0.55716 -0.06483
 C26 C 0.44256 0.45920 0.05933
 C27 C 0.45942 0.43568 -0.05555
 C28 C 0.53547 0.57902 0.05019
 O29 O 0.57943 1.02289 0.05739
 O30 O 0.51379 1.04962 -0.03196
 O31 O 0.50166 1.02600 0.05460
 O32 O 0.59647 1.05516 -0.02849
 O33 O 0.55718 0.97813 -0.05393
 O34 O 0.46466 0.94701 0.03491
 O35 O 0.47430 0.97059 -0.05172
 O36 O 0.54417 0.94589 0.03202
 Cu37 Cu 0.55199 1.04625 0.01497
 Cu38 Cu 0.50670 0.95258 -0.01175
 C39 C 0.57180 0.97908 0.06037
 C40 C 0.48246 1.01419 -0.05677
 C41 C 0.46747 0.98177 0.05958
 C42 C 0.59209 1.02266 -0.05691
 O43 O 1.05016 0.57823 0.47899
 O44 O 1.00363 0.47090 0.55604
 O45 O 1.03928 0.49101 0.47342
 O46 O 1.00808 0.55587 0.55950
 O47 O 0.93695 0.52543 0.52622
 O48 O 0.96635 0.45796 0.44354
 O49 O 0.93108 0.43995 0.52585
 O50 O 0.97884 0.54590 0.44570
 Cu51 Cu 1.03246 0.52729 0.52030
 Cu52 Cu 0.94613 0.48940 0.48226
 C53 C 1.02299 0.57963 0.44822
 C54 C 0.95955 0.43730 0.55442
 C55 C 1.00781 0.46343 0.44365
 C56 C 0.96673 0.55107 0.55761
 O57 O 0.53954 0.54194 0.55767
 O58 O 0.43619 0.48579 0.47773
 O59 O 0.45651 0.46081 0.55663
 O60 O 0.51875 0.56751 0.47930
 O61 O 0.55094 0.53031 0.44302
 O62 O 0.48842 0.42313 0.52074
 O63 O 0.46788 0.44803 0.44157
 O64 O 0.57143 0.50433 0.52161
 Cu65 Cu 0.48457 0.51776 0.52148
 Cu66 Cu 0.52284 0.47269 0.47797
 C67 C 0.57277 0.53222 0.55369
 C68 C 0.43464 0.45770 0.44573
 C69 C 0.46232 0.42413 0.55240
 C70 C 0.54505 0.56695 0.44769
 O71 O 0.53055 0.04791 0.53492
 O72 O 0.43799 0.01940 0.44500
 O73 O 0.45312 0.05279 0.53024
 O74 O 0.52015 0.02483 0.44793
 O75 O 0.47929 -0.05415 0.46737
 O76 O 0.41615 -0.02418 0.55571
 O77 O 0.39744 -0.05761 0.47029
 O78 O 0.49201 -0.03111 0.55446
 Cu79 Cu 0.48911 0.04399 0.48740
 Cu80 Cu 0.44199 -0.04955 0.51402
 C81 C 0.52683 0.01274 0.55984
 C82 C 0.40222 -0.02467 0.44210
 C83 C 0.42493 0.02011 0.55830
 C84 C 0.51096 -0.01912 0.44277
 C85 C 0.09637 0.40982 0.26813
 C86 C 0.10789 0.39666 0.22639
 C87 C 0.14722 0.38963 0.22500
 C88 C 0.17831 0.40127 0.26328
 C89 C 0.16671 0.41608 0.30443
 C90 C 0.12510 0.41879 0.30760
 C91 C 0.22457 0.40195 0.25900
 C92 C 0.24742 0.39549 0.29765
 C93 C 0.29315 0.40125 0.29425
 C94 C 0.31529 0.41138 0.25101
 C95 C 0.29251 0.41630 0.21182
 C96 C 0.24804 0.41278 0.21637
 H97 H 0.06653 0.41595 0.26890
 H98 H 0.15408 0.37597 0.19375
 H99 H 0.19046 0.42682 0.33403
 H100 H 0.23035 0.38702 0.33091
 H101 H 0.35157 0.41891 0.24826
 H102 H 0.23272 0.42028 0.18645
 C103 C 0.59932 0.68900 0.25287
 C104 C 0.59560 0.71183 0.21275
 C105 C 0.59549 0.75609 0.21650
 C106 C 0.60118 0.77904 0.25953
 C107 C 0.60667 0.75636 0.29906
 C108 C 0.60480 0.71093 0.29627
 C109 C 0.59817 0.82467 0.26329
 C110 C 0.57661 0.83229 0.30165
 C111 C 0.57086 0.87338 0.30409
 C112 C 0.58485 0.90612 0.26650
 C113 C 0.60628 0.89918 0.22767
 C114 C 0.61391 0.85922 0.22713
 H115 H 0.59451 0.65253 0.25034
 H116 H 0.58937 0.77163 0.18575
 H117 H 0.61122 0.77334 0.33249
 H118 H 0.56296 0.80559 0.32937
 H119 H 0.57626 0.93495 0.26655
 H120 H 0.63093 0.85429 0.19749
 C121 C 0.31696 0.90184 0.23778
 C122 C 0.29994 0.86916 0.20013
 C123 C 0.25363 0.82731 0.20157
 C124 C 0.22277 0.81909 0.23867
 C125 C 0.24002 0.85361 0.27509
 C126 C 0.28735 0.89415 0.27570
 C127 C 0.17386 0.77329 0.24037
 C128 C 0.15268 0.75129 0.28278
 C129 C 0.10813 0.70688 0.28443
 C130 C 0.08574 0.68272 0.24313
 C131 C 0.10617 0.70355 0.20046
 C132 C 0.14926 0.74937 0.19947
 H133 H 0.35414 0.93128 0.23854
 H134 H 0.24238 0.80073 0.17382
 H135 H 0.21715 0.84854 0.30392
 H136 H 0.17128 0.76753 0.31485
 H137 H 0.05426 0.64603 0.24449
 H138 H 0.16404 0.76553 0.16636
 C139 C 0.90200 0.58301 0.75856
 C140 C 0.89120 0.59983 0.71791
 C141 C 0.85200 0.60711 0.71737
 C142 C 0.82234 0.59580 0.75609
 C143 C 0.83362 0.57806 0.79598
 C144 C 0.87393 0.57303 0.79798
 C145 C 0.77830 0.59972 0.75458
 C146 C 0.76016 0.60767 0.79535
 C147 C 0.71542 0.60416 0.79613
 C148 C 0.69007 0.59655 0.75460
 C149 C 0.70869 0.59164 0.71285
 C150 C 0.75203 0.59186 0.71335
 H151 H 0.93019 0.57444 0.75885
 H152 H 0.84426 0.62073 0.68620
 H153 H 0.81051 0.56684 0.82564
 H154 H 0.77993 0.61485 0.82738
 H155 H 0.65440 0.59098 0.75489
 H156 H 0.76417 0.58425 0.68163
 C157 C 0.40012 0.31286 0.75484
 C158 C 0.40278 0.29080 0.71400
 C159 C 0.40181 0.24587 0.71629
 C160 C 0.39620 0.22157 0.75860
 C161 C 0.39188 0.24366 0.79895
 C162 C 0.39485 0.28968 0.79755
 C163 C 0.39870 0.17549 0.76092
 C164 C 0.41956 0.16630 0.79942
 C165 C 0.42468 0.12484 0.80114
 C166 C 0.41087 0.09320 0.76279
 C167 C 0.39041 0.10174 0.72357
 C168 C 0.38342 0.14220 0.72355
 H169 H 0.40579 0.34978 0.75360
 H170 H 0.40723 0.23099 0.68499
 H171 H 0.38736 0.22580 0.83195
 H172 H 0.43326 0.19208 0.82795
 H173 H 0.41902 0.06403 0.76259
 H174 H 0.36713 0.14834 0.69356
 C175 C 0.67682 0.09209 0.74163
 C176 C 0.69408 0.12376 0.70338
 C177 C 0.74092 0.16471 0.70445
 C178 C 0.77216 0.17299 0.74183
 C179 C 0.75458 0.13945 0.77902
 C180 C 0.70670 0.10003 0.77999
 C181 C 0.82160 0.21821 0.74320
 C182 C 0.84397 0.24002 0.78552
 C183 C 0.88880 0.28399 0.78722
 C184 C 0.91048 0.30820 0.74602
 C185 C 0.88888 0.28772 0.70328
 C186 C 0.84544 0.24209 0.70227
 H187 H 0.63934 0.06339 0.74250
 H188 H 0.75223 0.19058 0.67614
 H189 H 0.77756 0.14436 0.80818
 H190 H 0.82604 0.22411 0.81763
 H191 H 0.94228 0.34466 0.74758
 H192 H 0.82987 0.22614 0.66911
 C193 C 0.03719 0.41436 0.09965
 C194 C 0.08031 0.41823 0.10193
 C195 C 0.10034 0.40616 0.14248
 C196 C 0.08058 0.39511 0.18444
 H197 H 0.10458 0.43453 0.07326
 H198 H 0.13618 0.41277 0.13801
 H199 H 0.01152 0.39716 0.12701
 H200 H 0.04600 0.39142 0.18962
 C201 C 0.55472 0.61897 0.08473
 C202 C 0.58845 0.62497 0.11540
 C203 C 0.60232 0.65663 0.15689
 C204 C 0.58653 0.68729 0.16726
 H205 H 0.60441 0.60223 0.11253
 H206 H 0.62569 0.65256 0.18096
 H207 H 0.53763 0.64059 0.08688
 H208 H 0.56617 0.69478 0.14235
 C209 C 0.43195 0.97202 0.09531
 C210 C 0.39713 0.92669 0.10746
 C211 C 0.36571 0.92063 0.14628
 C212 C 0.33093 0.87598 0.16026
 H213 H 0.39279 0.89433 0.08988
 H214 H 0.37130 0.95357 0.16365
 H215 H 0.43599 1.00384 0.11374
 H216 H 0.32395 0.84347 0.14103
 C217 C 0.95099 0.57259 0.59320
 C218 C 0.97801 0.59663 0.63007
 C219 C 0.95877 0.60680 0.67188
 C220 C 0.91589 0.60350 0.67404
 H221 H 1.01434 0.60377 0.63248
 H222 H 0.98038 0.61453 0.70271
 H223 H 0.91410 0.56344 0.59073
 H224 H 0.89640 0.60061 0.64270
 C225 C 0.44059 0.38320 0.58574
 C226 C 0.41340 0.38294 0.62025
 C227 C 0.39774 0.34896 0.66005
 C228 C 0.41240 0.31702 0.66940
 H229 H 0.40396 0.41126 0.62135
 H230 H 0.37521 0.35331 0.68441
 H231 H 0.44975 0.35487 0.58290
 H232 H 0.43315 0.31043 0.64475
 C233 C 0.56197 0.02169 0.59642
 C234 C 0.59684 0.06680 0.60930
 C235 C 0.62778 0.07249 0.64906
 C236 C 0.66297 0.11702 0.66308
 H237 H 0.60159 0.09935 0.59158
 H238 H 0.62164 0.03952 0.66697
 H239 H 0.55743 -0.01038 0.61494
 H240 H 0.67044 0.14948 0.64334
 C241 C 0.45553 0.02267 0.90712
 C242 C 0.46454 0.06761 0.89521
 C243 C 0.43906 0.07325 0.85568
 C244 C 0.44811 0.11778 0.84205
 H245 H 0.49177 0.10018 0.91341
 H246 H 0.41268 0.04031 0.83737
 H247 H 0.42856 -0.00943 0.88816
 H248 H 0.47270 0.15014 0.86217
 C249 C 0.58562 0.58391 0.89639
 C250 C 0.62805 0.58731 0.89140
 C251 C 0.65426 0.60384 0.84776
 C252 C 0.69356 0.60105 0.84155
 H253 H 0.64154 0.57349 0.91822
 H254 H 0.63905 0.61444 0.81993
 H255 H 0.57217 0.59781 0.86963
 H256 H 0.70856 0.59215 0.87095
 C257 C 0.95275 0.37161 0.91628
 C258 C 0.97805 0.36942 0.88109
 C259 C 0.95653 0.33828 0.83956
 C260 C 0.90928 0.30710 0.83250
 H261 H 1.01647 0.39512 0.87996
 H262 H 0.98138 0.34397 0.81240
 H263 H 0.91448 0.34617 0.91813
 H264 H 0.88407 0.29832 0.85999
 C265 C 0.53592 0.97237 0.40884
 C266 C 0.52831 0.92769 0.39772
 C267 C 0.55439 0.92294 0.35870
 C268 C 0.54672 0.87902 0.34474
 H269 H 0.50208 0.89485 0.41600
 H270 H 0.58025 0.95634 0.34096
 H271 H 0.56218 1.00428 0.38945
 H272 H 0.52267 0.84616 0.36426
 C273 C 0.39461 0.43827 0.41224
 C274 C 0.39075 0.40892 0.37711
 C275 C 0.35735 0.39681 0.33760
 C276 C 0.31944 0.40305 0.33705
 H277 H 0.41661 0.39715 0.37430
 H278 H 0.36603 0.38359 0.30709
 H279 H 0.37022 0.45185 0.41505
 H280 H 0.30795 0.41170 0.36861
 C281 C 0.04437 0.61958 0.41382
 C282 C 0.01960 0.62023 0.37696
 C283 C 0.04107 0.65214 0.33608
 C284 C 0.08832 0.68327 0.32953
 H285 H -0.01847 0.59321 0.37450
 H286 H 0.01603 0.64691 0.30872
 H287 H 0.08231 0.64613 0.41746
 H288 H 0.11385 0.69120 0.35708
 C289 C 0.97971 0.55064 0.90406
 C290 C 0.93583 0.54208 0.89422
 C291 C 0.92775 0.56418 0.85297
 C292 C 0.88371 0.55367 0.84067
 H293 H 0.90557 0.51704 0.91533
 H294 H 0.95837 0.58894 0.83216
 H295 H 1.00946 0.57498 0.88208
 H296 H 0.85383 0.53083 0.86311
 C297 C 0.43999 0.39625 0.91329
 C298 C 0.40430 0.38729 0.88374
 C299 C 0.38986 0.35265 0.84443
 C300 C 0.39922 0.31592 0.84130
 H301 H 0.38842 0.41024 0.88469
 H302 H 0.37210 0.35942 0.81614
 H303 H 0.45703 0.37450 0.91154
 H304 H 0.41251 0.30580 0.87110
 C305 C 0.62482 0.03799 0.90706
 C306 C 0.61987 0.00907 0.87105
 C307 C 0.64587 0.02935 0.82727
 C308 C 0.68747 0.07281 0.82392
 H309 H 0.59084 -0.02925 0.87055
 H310 H 0.62813 0.00833 0.79655
 H311 H 0.65220 0.07690 0.90643
 H312 H 0.70736 0.09107 0.85495
 C313 C 0.01817 0.43949 0.40957
 C314 C 0.06174 0.44585 0.40345
 C315 C 0.07055 0.42396 0.36289
 C316 C 0.11486 0.43560 0.35125
 H317 H 0.09137 0.46950 0.42632
 H318 H 0.04018 0.39924 0.34131
 H319 H -0.01039 0.41646 0.38542
 H320 H 0.14466 0.45850 0.37424
 C321 C 0.56667 0.60857 0.41511
 C322 C 0.59504 0.61106 0.38075
 C323 C 0.60892 0.64580 0.34154
 C324 C 0.60198 0.68430 0.33950
 H325 H 0.60480 0.58306 0.37833
 H326 H 0.62345 0.63705 0.31226
 H327 H 0.55550 0.63533 0.41797
 H328 H 0.59160 0.69585 0.36999
 C329 C 0.36694 0.95997 0.40427
 C330 C 0.37462 0.98729 0.36631
 C331 C 0.34838 0.96620 0.32238
 C332 C 0.30641 0.92300 0.31906
 H333 H 0.40594 1.02425 0.36488
 H334 H 0.36664 0.98609 0.29162
 H335 H 0.33754 0.92198 0.40538
 H336 H 0.28611 0.90592 0.34986
 C337 C 0.59177 0.96433 0.09861
 C338 C 0.60910 0.99114 0.13729
 C339 C 0.61405 0.97017 0.18136
 C340 C 0.61493 0.92808 0.18456
 H341 H 0.61295 1.02736 0.13897
 H342 H 0.61403 0.98925 0.21213
 H343 H 0.58477 0.92690 0.09713
 H344 H 0.61958 0.91200 0.15370
 C345 C 0.41168 0.43337 0.09880
 C346 C 0.37492 0.43891 0.10987
 C347 C 0.34959 0.41985 0.15361
 C348 C 0.31626 0.43011 0.16648
 H349 H 0.36541 0.46055 0.08795
 H350 H 0.35939 0.39869 0.17580
 H351 H 0.42177 0.41264 0.12133
 H352 H 0.30574 0.44952 0.14267
 C353 C 0.05394 0.59462 0.08607
 C354 C 0.02488 0.60159 0.11339
 C355 C 0.04190 0.63724 0.15198
 C356 C 0.08710 0.67532 0.15693
 H357 H -0.01360 0.57663 0.11071
 H358 H 0.01561 0.63021 0.17803
 H359 H 0.09253 0.61805 0.08892
 H360 H 0.11207 0.68526 0.12890
 C361 C 0.40553 0.03604 0.59559
 C362 C 0.38603 0.00910 0.63363
 C363 C 0.38064 0.03035 0.67705
 C364 C 0.38235 0.07384 0.67993
 H365 H 0.38022 -0.02794 0.63555
 H366 H 0.37795 0.00998 0.70800
 H367 H 0.41420 0.07406 0.59398
 H368 H 0.38036 0.09164 0.64880
 C369 C 0.61254 0.55170 0.58750
 C370 C 0.61567 0.58111 0.62226
 C371 C 0.64980 0.59632 0.66150
 C372 C 0.68076 0.58076 0.66928
 H373 H 0.59009 0.59336 0.62378
 H374 H 0.64722 0.62026 0.68640
 H375 H 0.63788 0.53939 0.58449
 H376 H 0.68577 0.55896 0.64385
 C377 C 0.94053 0.39553 0.58698
 C378 C 0.96939 0.38938 0.61609
 C379 C 0.95244 0.35392 0.65484
 C380 C 0.90718 0.31608 0.65980
 H381 H 1.00783 0.41470 0.61447
 H382 H 0.97908 0.36085 0.68102
 H383 H 0.90196 0.37156 0.58841
 H384 H 0.88165 0.30632 0.63181
   
