data_POSCAR
  _audit_creation_date              2014-09-24
  _audit_creation_method            'ToBaCCo'
  _symmetry_space_group_name_H-M    'P1'
  _symmetry_Int_Tables_number       1
  _symmetry_cell_setting            triclinic
  loop_
  _symmetry_equiv_pos_as_xyz
 x,y,z
_cell_length_a 28.7099
_cell_length_b 28.6534
_cell_length_c 28.8770
_cell_angle_alpha 89.669800
_cell_angle_beta 90.014700
_cell_angle_gamma 89.538400
loop_
  _atom_site_label
  _atom_site_type_symbol
  _atom_site_fract_x
  _atom_site_fract_y
  _atom_site_fract_z
C1 C 0.34189 0.33986 1.39691
 C2 C 0.30192 0.35936 1.41718
 C3 C 0.28174 0.40028 1.39894
 C4 C 0.30239 0.42224 1.36058
 C5 C 0.34217 0.40297 1.33981
 C6 C 0.36201 0.36151 1.35789
 C7 C 0.36114 0.29829 1.41427
 C8 C 0.40000 0.27746 1.39283
 C9 C 0.42030 0.29946 1.35420
 C10 C 0.40126 0.34113 1.33629
 C11 C 0.41976 0.36206 1.29631
 C12 C 0.39966 0.40306 1.27800
 C13 C 0.36135 0.42365 1.30021
 H14 H 0.28581 0.34214 1.44658
 H15 H 0.28694 0.45352 1.34580
 H16 H 0.34540 0.28224 1.44438
 H17 H 0.45030 0.28358 1.33754
 H18 H 0.44915 0.34604 1.27878
 H19 H 0.34539 0.45490 1.28588
 C20 C 1.16171 0.66456 0.89938
 C21 C 1.20260 0.64808 0.92097
 C22 C 1.22681 0.60930 0.90310
 C23 C 1.20968 0.58697 0.86342
 C24 C 1.16877 0.60276 0.84172
 C25 C 1.14452 0.64160 0.85985
 C26 C 1.13841 0.70439 0.91586
 C27 C 1.09797 0.72134 0.89367
 C28 C 1.08050 0.69767 0.85499
 C29 C 1.10368 0.65815 0.83777
 C30 C 1.08754 0.63584 0.79784
 C31 C 1.11207 0.59783 0.77917
 C32 C 1.15238 0.58111 0.80145
 H33 H 1.21588 0.66607 0.95103
 H34 H 1.22862 0.55747 0.84913
 H35 H 1.15221 0.72280 0.94551
 H36 H 1.04976 0.71069 0.83726
 H37 H 1.05653 0.64877 0.78040
 H38 H 1.17143 0.55178 0.78717
 C39 C 0.65714 -0.16546 0.10401
 C40 C 0.69743 -0.14717 0.08352
 C41 C 0.71953 -0.10833 0.10276
 C42 C 0.70028 -0.08677 0.14203
 C43 C 0.65988 -0.10443 0.16277
 C44 C 0.63827 -0.14405 0.14379
 C45 C 0.63619 -0.20562 0.08623
 C46 C 0.59650 -0.22459 0.10748
 C47 C 0.57753 -0.20276 0.14672
 C48 C 0.59835 -0.16282 0.16516
 C49 C 0.58066 -0.14220 0.20547
 C50 C 0.60242 -0.10318 0.22488
 C51 C 0.64151 -0.08398 0.20298
 H52 H 0.71236 -0.16377 0.05325
 H53 H 0.71691 -0.05659 0.15690
 H54 H 0.65124 -0.22268 0.05625
 H55 H 0.54739 -0.21742 0.16381
 H56 H 0.55026 -0.15701 0.22190
 H57 H 0.65827 -0.05387 0.21802
 C58 C -0.16342 1.16287 -0.40197
 C59 C -0.20316 1.14457 -0.42323
 C60 C -0.22618 1.10612 -0.40367
 C61 C -0.20845 1.08529 -0.36305
 C62 C -0.16851 1.10293 -0.34160
 C63 C -0.14612 1.14216 -0.36091
 C64 C -0.14156 1.20248 -0.42033
 C65 C -0.10301 1.22197 -0.39786
 C66 C -0.08574 1.20113 -0.35723
 C67 C -0.10701 1.16132 -0.33861
 C68 C -0.09051 1.14109 -0.29742
 C69 C -0.11272 1.10213 -0.27797
 C70 C -0.15134 1.08287 -0.30046
 H71 H -0.21677 1.16125 -0.45419
 H72 H -0.22635 1.05583 -0.34766
 H73 H -0.15540 1.21872 -0.45139
 H74 H -0.05621 1.21651 -0.33977
 H75 H -0.06047 1.15596 -0.28053
 H76 H -0.16850 1.05285 -0.28534
 C77 C 0.66179 0.66176 0.59924
 C78 C 0.70278 0.64305 0.58023
 C79 C 0.72522 0.60490 0.60144
 C80 C 0.70565 0.58429 0.64105
 C81 C 0.66449 0.60227 0.66020
 C82 C 0.64254 0.64132 0.63940
 C83 C 0.64070 0.70154 0.57974
 C84 C 0.60092 0.72154 0.60025
 C85 C 0.58155 0.70065 0.63982
 C86 C 0.60199 0.66063 0.65944
 C87 C 0.58341 0.64050 0.69965
 C88 C 0.60522 0.60170 0.72042
 C89 C 0.64564 0.58270 0.70058
 H90 H 0.71805 0.65890 0.54967
 H91 H 0.72259 0.55461 0.65740
 H92 H 0.65633 0.71759 0.54955
 H93 H 0.55107 0.71624 0.65591
 H94 H 0.55265 0.65581 0.71526
 H95 H 0.66272 0.55311 0.71712
 C96 C 0.84224 0.33681 0.10519
 C97 C 0.80252 0.35655 0.08434
 C98 C 0.78180 0.39712 0.10247
 C99 C 0.80166 0.41839 0.14152
 C100 C 0.84114 0.39888 0.16297
 C101 C 0.86143 0.35782 0.14486
 C102 C 0.86229 0.29563 0.08784
 C103 C 0.90083 0.27474 0.11001
 C104 C 0.91988 0.29600 0.14937
 C105 C 0.90033 0.33724 0.16700
 C106 C 0.91836 0.35750 0.20721
 C107 C 0.89789 0.39794 0.22579
 C108 C 0.85980 0.41888 0.20314
 H109 H 0.78710 0.33985 0.05447
 H110 H 0.78581 0.44932 0.15624
 H111 H 0.84734 0.27922 0.05757
 H112 H 0.94953 0.28036 0.16686
 H113 H 0.94797 0.34130 0.22421
 H114 H 0.84402 0.45008 0.21757
 C115 C 0.33467 0.16413 0.89903
 C116 C 0.29357 0.14671 0.91848
 C117 C 0.27079 0.10852 0.89853
 C118 C 0.29025 0.08705 0.85921
 C119 C 0.33134 0.10423 0.83917
 C120 C 0.35360 0.14298 0.85918
 C121 C 0.35645 0.20322 0.91813
 C122 C 0.39654 0.22183 0.89752
 C123 C 0.41538 0.20065 0.85802
 C124 C 0.39429 0.16125 0.83880
 C125 C 0.41258 0.14061 0.79883
 C126 C 0.39055 0.10222 0.77856
 C127 C 0.34999 0.08413 0.79885
 H128 H 0.27929 0.16344 0.94889
 H129 H 0.27284 0.05753 0.84371
 H130 H 0.34136 0.21983 0.94823
 H131 H 0.44609 0.21540 0.84193
 H132 H 0.44338 0.15527 0.78304
 H133 H 0.33275 0.05481 0.78285
 C134 C 0.15885 0.83843 0.39787
 C135 C 0.19834 0.85793 0.41861
 C136 C 0.21867 0.89816 0.39988
 C137 C 0.19912 0.91925 0.36041
 C138 C 0.15999 0.89995 0.33910
 C139 C 0.13957 0.85944 0.35787
 C140 C 0.13925 0.79750 0.41567
 C141 C 0.10081 0.77685 0.39383
 C142 C 0.08111 0.79851 0.35452
 C143 C 0.10058 0.83941 0.33606
 C144 C 0.08282 0.85980 0.29530
 C145 C 0.10401 0.89940 0.27592
 C146 C 0.14201 0.91970 0.29838
 H147 H 0.21392 0.84140 0.44879
 H148 H 0.21511 0.94982 0.34528
 H149 H 0.15442 0.78175 0.44636
 H150 H 0.05140 0.78282 0.33762
 H151 H 0.05341 0.84421 0.27783
 H152 H 0.15828 0.95041 0.28385
 Zn153 Zn 0.05234 0.96998 0.00762
 Zn154 Zn -0.04098 0.96062 -0.03874
 Zn155 Zn -0.03255 1.00801 0.05330
 Zn156 Zn 0.00507 1.05439 -0.03067
 O157 O -0.00414 0.99811 -0.00230
 O158 O 0.05631 0.91457 -0.01941
 O159 O -0.09446 0.94396 -0.01013
 O160 O -0.00002 0.98564 0.10135
 O161 O -0.01179 0.90685 -0.05466
 O162 O 0.06390 0.95870 0.06755
 O163 O -0.08757 0.98053 0.05694
 O164 O -0.01638 1.10312 0.00208
 O165 O -0.05808 0.98920 -0.09214
 O166 O -0.04357 1.06824 0.06495
 O167 O -0.02365 1.05786 -0.08504
 O168 O 0.06508 1.06573 -0.04283
 O169 O 0.10048 1.00275 -0.01471
 C170 C 0.02854 0.89144 -0.04426
 C171 C -0.11007 0.95470 0.02961
 C172 C 0.03945 0.96571 0.10343
 C173 C -0.03604 1.10480 0.04134
 C174 C -0.04873 1.02971 -0.10750
 C175 C 0.10174 1.04190 -0.03535
 Zn176 Zn 0.52576 -0.01192 0.55694
 Zn177 Zn 0.53485 0.03633 0.46456
 Zn178 Zn 0.48549 -0.05505 0.47262
 Zn179 Zn 0.44204 0.03015 0.51239
 O180 O 0.49717 0.00002 0.50155
 O181 O 0.58125 0.01514 0.56061
 O182 O 0.55105 0.00788 0.41121
 O183 O 0.50702 -0.10465 0.50373
 O184 O 0.58845 0.05146 0.49298
 O185 O 0.53685 -0.07270 0.56666
 O186 O 0.51255 -0.05858 0.41740
 O187 O 0.39257 -0.00090 0.49151
 O188 O 0.50728 0.09063 0.44794
 O189 O 0.42505 -0.06465 0.46240
 O190 O 0.43945 0.08552 0.48431
 O191 O 0.43150 0.04114 0.57245
 O192 O 0.49350 0.00917 0.60588
 C193 C 0.60404 0.04058 0.53280
 C194 C 0.53925 -0.03150 0.39526
 C195 C 0.52839 -0.10806 0.54197
 C196 C 0.38950 -0.03972 0.47100
 C197 C 0.46753 0.10726 0.45830
 C198 C 0.45512 0.03124 0.60831
 Zn199 Zn 0.97640 0.48862 0.55720
 Zn200 Zn 1.01626 0.44462 0.47291
 Zn201 Zn 0.96672 0.53696 0.46467
 Zn202 Zn 1.05946 0.52962 0.51217
 O203 O 1.00455 0.50006 0.50162
 O204 O 0.96526 0.42803 0.56715
 O205 O 0.98871 0.44136 0.41790
 O206 O 0.91316 0.55275 0.49319
 O207 O 0.99505 0.39522 0.50441
 O208 O 0.92105 0.51642 0.56084
 O209 O 0.95047 0.50860 0.41145
 O210 O 1.06167 0.58517 0.48460
 O211 O 1.07677 0.43458 0.46198
 O212 O 0.99397 0.59104 0.44800
 O213 O 1.10873 0.49834 0.49056
 O214 O 1.07061 0.53992 0.57207
 O215 O 1.00878 0.50933 0.60606
 C216 C 0.97364 0.39235 0.54268
 C217 C 0.96205 0.46889 0.39569
 C218 C 0.89798 0.54205 0.53312
 C219 C 1.03355 0.60730 0.45859
 C220 C 1.11206 0.45955 0.46999
 C221 C 1.04733 0.53050 0.60814
 Zn222 Zn 0.47450 0.48775 0.94391
 Zn223 Zn 0.55946 0.52799 0.98684
 Zn224 Zn 0.46738 0.53556 1.03564
 Zn225 Zn 0.51666 0.44290 1.02718
 O226 O 0.50439 0.49867 0.99851
 O227 O 0.50573 0.50887 0.89463
 O228 O 0.56240 0.58367 1.01373
 O229 O 0.41295 0.55200 1.00834
 O230 O 0.56895 0.53870 0.92661
 O231 O 0.41897 0.51584 0.94098
 O232 O 0.49520 0.58938 1.05112
 O233 O 0.49033 0.43943 1.08274
 O234 O 0.60930 0.49644 1.00802
 O235 O 0.45281 0.50702 1.08941
 O236 O 0.57741 0.43269 1.03737
 O237 O 0.49479 0.39371 0.99622
 O238 O 0.46339 0.42728 0.93424
 C239 C 0.54422 0.52998 0.89140
 C240 C 0.53455 0.60578 1.03980
 C241 C 0.39666 0.54169 0.96883
 C242 C 0.46461 0.46724 1.10534
 C243 C 0.61275 0.45758 1.02898
 C244 C 0.47255 0.39129 0.95839
 C245 C 1.16736 0.43494 0.40103
 C246 C 1.21319 0.46269 0.40444
 C247 C 1.23902 0.41721 0.41773
 C248 C 1.19356 0.38935 0.41415
 C249 C 1.23012 0.42620 0.46950
 C250 C 1.20374 0.47182 0.45639
 C251 C 1.15839 0.44391 0.45267
 C252 C 1.18403 0.39856 0.46608
 H253 H 1.14103 0.43854 0.37305
 H254 H 1.22418 0.49002 0.37946
 H255 H 1.18967 0.35531 0.39645
 H256 H 1.25640 0.42262 0.49752
 H257 H 1.20755 0.50587 0.47408
 H258 H 1.17153 0.37241 0.49161
 C259 C 0.32639 0.54514 0.90878
 C260 C 0.27963 0.54178 0.93512
 C261 C 0.26961 0.59333 0.92312
 C262 C 0.31604 0.59679 0.89676
 C263 C 0.29338 0.60902 0.96828
 C264 C 0.30405 0.55714 0.98036
 C265 C 0.35031 0.56068 0.95379
 C266 C 0.34036 0.61219 0.94199
 H267 H 0.34006 0.51869 0.88422
 H268 H 0.25438 0.51280 0.93224
 H269 H 0.32080 0.61323 0.86220
 H270 H 0.28018 0.63522 0.99331
 H271 H 0.29957 0.54063 1.01492
 H272 H 0.36577 0.64102 0.94494
 C273 C -0.16075 0.91217 0.09320
 C274 C -0.20261 0.94430 0.10461
 C275 C -0.23544 0.90866 0.08220
 C276 C -0.19383 0.87637 0.07093
 C277 C -0.23064 0.93310 0.03484
 C278 C -0.19742 0.96896 0.05716
 C279 C -0.15590 0.93674 0.04599
 C280 C -0.18840 0.90110 0.02335
 H281 H -0.13158 0.90349 0.11706
 H282 H -0.20722 0.96256 0.13809
 H283 H -0.19258 0.83808 0.07694
 H284 H -0.25989 0.94173 0.01106
 H285 H -0.19857 1.00726 0.05117
 H286 H -0.18213 0.88346 -0.01022
 C287 C 0.67374 0.04383 0.59384
 C288 C 0.72061 0.03811 0.56795
 C289 C 0.73115 0.08979 0.57730
 C290 C 0.68470 0.09564 0.60326
 C291 C 0.70775 0.10433 0.53128
 C292 C 0.69658 0.05235 0.52185
 C293 C 0.65030 0.05832 0.54796
 C294 C 0.66079 0.10992 0.55717
 H295 H 0.65951 0.01881 0.61958
 H296 H 0.74555 0.00861 0.57244
 H297 H 0.68004 0.11359 0.63693
 H298 H 0.72120 0.12898 0.50480
 H299 H 0.70095 0.03434 0.48819
 H300 H 0.63572 0.13929 0.55263
 C301 C 0.47707 0.18573 0.40481
 C302 C 0.43051 0.19220 0.37815
 C303 C 0.41813 0.23391 0.40940
 C304 C 0.46445 0.22813 0.43572
 C305 C 0.39349 0.20121 0.44405
 C306 C 0.40609 0.15927 0.41298
 C307 C 0.45222 0.15345 0.43945
 C308 C 0.43992 0.19506 0.47056
 H309 H 0.51161 0.17888 0.38886
 H310 H 0.42635 0.19117 0.33995
 H311 H 0.48830 0.25689 0.44507
 H312 H 0.35897 0.20576 0.46075
 H313 H 0.38224 0.13050 0.40364
 H314 H 0.44407 0.19588 0.50877
 C315 C 0.96791 0.32035 0.60334
 C316 C 0.91542 0.31228 0.61226
 C317 C 0.91831 0.26649 0.58476
 C318 C 0.97064 0.27397 0.57602
 C319 C 0.90596 0.29259 0.53956
 C320 C 0.90321 0.33871 0.56695
 C321 C 0.95543 0.34624 0.55822
 C322 C 0.95847 0.30056 0.53064
 H323 H 0.99360 0.33221 0.62939
 H324 H 0.89737 0.31679 0.64595
 H325 H 0.99821 0.24683 0.57979
 H326 H 0.88072 0.28188 0.51261
 H327 H 0.87559 0.36581 0.56321
 H328 H 0.97650 0.29604 0.49694
 C329 C 0.05564 0.83388 -0.11243
 C330 C 0.10216 0.81090 -0.09696
 C331 C 0.07711 0.76397 -0.09115
 C332 C 0.03065 0.78642 -0.10688
 C333 C 0.06596 0.77511 -0.04025
 C334 C 0.09096 0.82241 -0.04596
 C335 C 0.04464 0.84497 -0.06160
 C336 C 0.01941 0.79821 -0.05567
 H337 H 0.05125 0.85847 -0.14199
 H338 H 0.13642 0.81593 -0.11404
 H339 H 0.00511 0.77204 -0.13176
 H340 H 0.07028 0.75067 -0.01057
 H341 H 0.11586 0.83737 -0.02076
 H342 H -0.01484 0.79347 -0.03854
 C343 C 0.55977 0.66153 1.10927
 C344 C 0.60516 0.68646 1.09468
 C345 C 0.57787 0.73274 1.09064
 C346 C 0.53253 0.70830 1.10548
 C347 C 0.56722 0.72321 1.03932
 C348 C 0.59445 0.67651 1.04324
 C349 C 0.54926 0.65204 1.05803
 C350 C 0.52181 0.69814 1.05386
 H351 H 0.55659 0.63571 1.13787
 H352 H 0.63962 0.68188 1.11163
 H353 H 0.50634 0.72084 1.13086
 H354 H 0.57034 0.74890 1.01059
 H355 H 0.61992 0.66320 1.01748
 H356 H 0.48736 0.70244 1.03685
 C357 C 0.45414 0.47833 1.19746
 C358 C 0.40243 0.46901 1.20955
 C359 C 0.41710 0.42265 1.23293
 C360 C 0.46854 0.43185 1.22142
 C361 C 0.41073 0.39645 1.18705
 C362 C 0.39624 0.44287 1.16322
 C363 C 0.44759 0.45199 1.15176
 C364 C 0.46229 0.40573 1.17511
 H365 H 0.47217 0.51222 1.20122
 H366 H 0.37799 0.49573 1.22330
 H367 H 0.49816 0.42718 1.24577
 H368 H 0.39273 0.36255 1.18311
 H369 H 0.36665 0.44752 1.13883
 H370 H 0.48707 0.37968 1.16065
 C371 C 0.58088 -0.09557 0.34399
 C372 C 0.54904 -0.10557 0.30214
 C373 C 0.58535 -0.08301 0.26991
 C374 C 0.61733 -0.07316 0.31152
 C375 C 0.56170 -0.03494 0.27535
 C376 C 0.52518 -0.05741 0.30797
 C377 C 0.55711 -0.04766 0.34947
 C378 C 0.59340 -0.02487 0.31759
 H379 H 0.58881 -0.12038 0.37265
 H380 H 0.53026 -0.13883 0.29706
 H381 H 0.65543 -0.07996 0.31275
 H382 H 0.55381 -0.01020 0.24663
 H383 H 0.48707 -0.05062 0.30685
 H384 H 0.61152 0.00848 0.32437
 C385 C -0.09393 1.09235 -0.15835
 C386 C -0.06198 1.10558 -0.19931
 C387 C -0.09608 1.08172 -0.23269
 C388 C -0.12822 1.06863 -0.19199
 C389 C -0.06956 1.03508 -0.22753
 C390 C -0.03525 1.05887 -0.19380
 C391 C -0.06727 1.04588 -0.15316
 C392 C -0.10138 1.02175 -0.18618
 H393 H -0.10398 1.11576 -0.12945
 H394 H -0.04537 1.14019 -0.20340
 H395 H -0.16667 1.07298 -0.19149
 H396 H -0.05954 1.01174 -0.25647
 H397 H 0.00321 1.05456 -0.19422
 H398 H -0.11743 0.98711 -0.18032
 C399 C 1.11276 0.56932 0.66127
 C400 C 1.08878 0.60758 0.69053
 C401 C 1.09596 0.57727 0.73418
 C402 C 1.12015 0.53906 0.70530
 C403 C 1.04833 0.55417 0.72688
 C404 C 1.04100 0.58435 0.68282
 C405 C 1.06515 0.54625 0.65400
 C406 C 1.07226 0.51575 0.69742
 H407 H 1.13924 0.57552 0.63396
 H408 H 1.09573 0.64557 0.68794
 H409 H 1.15283 0.52003 0.71401
 H410 H 1.02196 0.54807 0.75431
 H411 H 1.00827 0.60286 0.67315
 H412 H 1.06524 0.47777 0.69979
 C413 C 0.81069 0.52736 0.55979
 C414 C 0.80397 0.55249 0.60657
 C415 C 0.77098 0.58774 0.58261
 C416 C 0.77728 0.56283 0.53594
 C417 C 0.81216 0.62010 0.57159
 C418 C 0.84544 0.58469 0.59538
 C419 C 0.85175 0.55967 0.54886
 C420 C 0.81907 0.59491 0.52471
 H421 H 0.81052 0.48900 0.55462
 H422 H 0.79890 0.53457 0.64032
 H423 H 0.74872 0.55385 0.51174
 H424 H 0.81245 0.65846 0.57677
 H425 H 0.87396 0.59370 0.61964
 H426 H 0.82577 0.61221 0.49090
 C427 C 0.66753 0.43241 1.09846
 C428 C 0.69368 0.38678 1.08596
 C429 C 0.73935 0.41440 1.08285
 C430 C 0.71354 0.45995 1.09551
 C431 C 0.73109 0.42377 1.03090
 C432 C 0.68480 0.39634 1.03386
 C433 C 0.65917 0.44176 1.04663
 C434 C 0.70472 0.46946 1.04338
 H435 H 0.64092 0.43596 1.12614
 H436 H 0.68934 0.35265 1.10378
 H437 H 0.72438 0.48706 1.12048
 H438 H 0.75767 0.42023 1.00320
 H439 H 0.67256 0.37037 1.00831
 H440 H 0.70895 0.50358 1.02554
 C441 C 0.19119 1.06614 -0.02224
 C442 C 0.22089 1.04362 -0.06118
 C443 C 0.22763 1.09220 -0.08307
 C444 C 0.19843 1.11496 -0.04429
 C445 C 0.18366 1.08606 -0.11292
 C446 C 0.17642 1.03729 -0.09081
 C447 C 0.14741 1.06006 -0.05214
 C448 C 0.15412 1.10857 -0.07406
 H449 H 0.19387 1.05774 0.01524
 H450 H 0.24871 1.01697 -0.05597
 H451 H 0.20614 1.14700 -0.02442
 H452 H 0.18071 1.09439 -0.15041
 H453 H 0.16690 1.00517 -0.10979
 H454 H 0.12635 1.13527 -0.07932
 C455 C 0.33417 -0.06523 0.40290
 C456 C 0.30934 -0.11097 0.41653
 C457 C 0.26311 -0.08369 0.42010
 C458 C 0.28763 -0.03802 0.40637
 C459 C 0.27208 -0.07413 0.47174
 C460 C 0.31892 -0.10123 0.46830
 C461 C 0.34321 -0.05567 0.45440
 C462 C 0.29712 -0.02830 0.45817
 H463 H 0.36018 -0.06152 0.37470
 H464 H 0.31401 -0.14512 0.39910
 H465 H 0.27548 -0.01119 0.38119
 H466 H 0.24602 -0.07788 0.49987
 H467 H 0.33229 -0.12702 0.49397
 H468 H 0.29247 0.00586 0.47558
 C469 C 0.54294 -0.19986 0.52912
 C470 C 0.59523 -0.20943 0.53871
 C471 C 0.58181 -0.23559 0.58345
 C472 C 0.52972 -0.22657 0.57399
 C473 C 0.58488 -0.19022 0.61153
 C474 C 0.59812 -0.16368 0.56668
 C475 C 0.54614 -0.15461 0.55727
 C476 C 0.53263 -0.18059 0.60188
 H477 H 0.52536 -0.20345 0.49509
 H478 H 0.62061 -0.22043 0.51186
 H479 H 0.50171 -0.25292 0.57696
 H480 H 0.60246 -0.18654 0.64554
 H481 H 0.62607 -0.13729 0.56367
 H482 H 0.50670 -0.16824 0.62765
 C483 C 1.02422 0.68584 0.40486
 C484 C 1.03593 0.72822 0.43588
 C485 C 1.08268 0.73358 0.41041
 C486 C 1.07120 0.69187 0.37905
 C487 C 1.10697 0.70078 0.44557
 C488 C 1.06011 0.69504 0.47125
 C489 C 1.04870 0.65343 0.44002
 C490 C 1.09527 0.65885 0.41439
 H491 H 0.99003 0.67922 0.38829
 H492 H 1.01168 0.75719 0.44473
 H493 H 1.07606 0.69068 0.34094
 H494 H 1.14114 0.70519 0.46288
 H495 H 1.05526 0.69599 0.50937
 H496 H 1.11953 0.62988 0.40554
 C497 C -0.02084 1.19388 0.06636
 C498 C -0.05991 1.22478 0.04477
 C499 C -0.08109 1.23145 0.09326
 C500 C -0.04218 1.20111 0.11511
 C501 C -0.11184 1.18819 0.08683
 C502 C -0.09047 1.18102 0.03816
 C503 C -0.05169 1.15082 0.05999
 C504 C -0.07287 1.15748 0.10843
 H505 H 0.01676 1.19577 0.05768
 H506 H -0.05465 1.25285 0.01867
 H507 H -0.02160 1.20818 0.14678
 H508 H -0.14946 1.18601 0.09543
 H509 H -0.11018 1.17230 0.00632
 H510 H -0.07818 1.12949 0.13459
 C511 C 0.40233 0.33780 0.93367
 C512 C 0.41491 0.31225 0.88828
 C513 C 0.41775 0.26597 0.91547
 C514 C 0.40504 0.29118 0.96077
 C515 C 0.47001 0.27342 0.92465
 C516 C 0.46731 0.32029 0.89762
 C517 C 0.45447 0.34532 0.94282
 C518 C 0.45748 0.29916 0.97012
 H519 H 0.37459 0.36474 0.93740
 H520 H 0.39708 0.31733 0.85449
 H521 H 0.37967 0.27978 0.98743
 H522 H 0.49769 0.24644 0.92090
 H523 H 0.49313 0.33269 0.87183
 H524 H 0.47530 0.29410 1.00392
 C525 C 0.53228 0.54360 0.79985
 C526 C 0.54196 0.59582 0.79014
 C527 C 0.58734 0.58190 0.76516
 C528 C 0.57783 0.52986 0.77436
 C529 C 0.61490 0.58528 0.81071
 C530 C 0.56942 0.59906 0.83604
 C531 C 0.55993 0.54714 0.84527
 C532 C 0.60521 0.53309 0.82050
 H533 H 0.49816 0.52616 0.79573
 H534 H 0.51524 0.62140 0.77831
 H535 H 0.58135 0.50158 0.74846
 H536 H 0.64902 0.60274 0.81481
 H537 H 0.56592 0.62739 0.86191
 H538 H 0.63102 0.50709 0.83346
 C539 C 0.46424 0.04254 0.70049
 C540 C 0.45520 0.09485 0.71037
 C541 C 0.40882 0.08206 0.73398
 C542 C 0.41771 0.02990 0.72457
 C543 C 0.38274 0.08728 0.68764
 C544 C 0.42921 0.09997 0.66373
 C545 C 0.43812 0.04794 0.65427
 C546 C 0.39184 0.03497 0.67762
 H547 H 0.49792 0.02388 0.70552
 H548 H 0.48221 0.11914 0.72300
 H549 H 0.41289 0.00118 0.75004
 H550 H 0.34907 0.10595 0.68264
 H551 H 0.43400 0.12874 0.63830
 H552 H 0.36595 0.01013 0.66371
 C553 C 0.10537 0.92730 0.15762
 C554 C 0.11040 0.95754 0.20152
 C555 C 0.08729 0.91851 0.23023
 C556 C 0.08248 0.88819 0.18669
 C557 C 0.03886 0.94026 0.22176
 C558 C 0.06174 0.97947 0.19258
 C559 C 0.05702 0.94908 0.14923
 C560 C 0.03386 0.91015 0.17773
 H561 H 0.13268 0.92205 0.13090
 H562 H 0.14200 0.97769 0.21030
 H563 H 0.09114 0.85044 0.18459
 H564 H 0.01164 0.94544 0.24857
 H565 H 0.05304 1.01723 0.19452
 H566 H 0.00220 0.89080 0.16739
 C567 C 0.90801 0.47657 0.31795
 C568 C 0.93958 0.46524 0.27582
 C569 C 0.91527 0.41786 0.27069
 C570 C 0.88341 0.42897 0.31219
 C571 C 0.95124 0.39444 0.30311
 C572 C 0.97576 0.44191 0.30863
 C573 C 0.94397 0.45290 0.35003
 C574 C 0.91953 0.40569 0.34486
 H575 H 0.89037 0.51050 0.32448
 H576 H 0.94783 0.48954 0.24695
 H577 H 0.84522 0.42333 0.31340
 H578 H 0.96961 0.36061 0.29833
 H579 H 1.01396 0.44754 0.30751
 H580 H 0.91125 0.38132 0.37368
   
