data_POSCAR
  _audit_creation_date              2014-09-24
  _audit_creation_method            'ToBaCCo'
  _symmetry_space_group_name_H-M    'P1'
  _symmetry_Int_Tables_number       1
  _symmetry_cell_setting            triclinic
  loop_
  _symmetry_equiv_pos_as_xyz
 x,y,z
_cell_length_a 32.2891
_cell_length_b 31.8056
_cell_length_c 6.8824
_cell_angle_alpha 88.543000
_cell_angle_beta 92.079900
_cell_angle_gamma 89.978200
loop_
  _atom_site_label
  _atom_site_type_symbol
  _atom_site_fract_x
  _atom_site_fract_y
  _atom_site_fract_z
C1 C 0.37892 0.27135 0.24749
 C2 C 0.37900 0.22879 0.22984
 C3 C 0.33797 0.21612 0.21712
 N4 N 0.31278 0.25002 0.22608
 C5 C 0.33785 0.28394 0.24530
 C6 C 0.32432 0.17421 0.19076
 C7 C 0.28239 0.16523 0.14413
 C8 C 0.26914 0.13357 0.02281
 C9 C 0.22675 0.13280 0.02684
 C10 C 0.21508 0.16408 0.15090
 N11 N 0.24926 0.18474 0.21723
 C12 C 0.17372 0.17232 0.20127
 C13 C 0.16009 0.21408 0.23008
 C14 C 0.11910 0.22734 0.21961
 C15 C 0.11935 0.26993 0.23844
 C16 C 0.16040 0.28190 0.25964
 N17 N 0.18533 0.24770 0.25466
 C18 C 0.17419 0.32346 0.29106
 C19 C 0.21596 0.33227 0.33859
 C20 C 0.22922 0.36398 0.45955
 C21 C 0.27161 0.36483 0.45456
 C22 C 0.28311 0.33355 0.33043
 N23 N 0.24897 0.31286 0.26458
 C24 C 0.32423 0.32536 0.27899
 H25 H 0.40657 0.28983 0.26895
 H26 H 0.40670 0.21006 0.22546
 H27 H 0.24785 0.29015 0.15784
 H28 H 0.28801 0.11375 -0.06401
 H29 H 0.20689 0.11226 -0.05748
 H30 H 0.09144 0.20923 0.19170
 H31 H 0.09192 0.28922 0.23828
 H32 H 0.29156 0.38533 0.53874
 H33 H 0.25032 0.20758 0.32340
 H34 H 0.21038 0.38370 0.54694
 C35 C 0.88011 0.22778 0.20398
 C36 C 0.88047 0.27046 0.21985
 C37 C 0.83993 0.28279 0.24427
 N38 N 0.81475 0.24871 0.24441
 C39 C 0.83934 0.21489 0.21948
 C40 C 0.82703 0.32459 0.27416
 C41 C 0.78655 0.33378 0.32993
 C42 C 0.77658 0.36596 0.45132
 C43 C 0.73424 0.36643 0.45962
 C44 C 0.71944 0.33449 0.34281
 N45 N 0.75166 0.31377 0.26833
 C46 C 0.67706 0.32563 0.30656
 C47 C 0.66281 0.28397 0.28071
 C48 C 0.62187 0.27148 0.29070
 C49 C 0.62126 0.22896 0.27349
 C50 C 0.66188 0.21608 0.25478
 N51 N 0.68734 0.24995 0.25869
 C52 C 0.67465 0.17403 0.22660
 C53 C 0.71539 0.16469 0.17267
 C54 C 0.72559 0.13264 0.05070
 C55 C 0.76794 0.13222 0.04312
 C56 C 0.78265 0.16414 0.16021
 N57 N 0.75030 0.18473 0.23478
 C58 C 0.82512 0.17313 0.19539
 H59 H 0.90708 0.20928 0.17558
 H60 H 0.90799 0.28956 0.21643
 H61 H 0.75213 0.20810 0.33838
 H62 H 0.79769 0.38614 0.53127
 H63 H 0.71662 0.38698 0.54831
 H64 H 0.59480 0.29005 0.31572
 H65 H 0.59336 0.21048 0.27233
 H66 H 0.78563 0.11175 -0.04568
 H67 H 0.74978 0.29044 0.16455
 H68 H 0.70461 0.11255 -0.03054
 C69 C 0.86188 0.77340 0.58290
 C70 C 0.86186 0.73013 0.58436
 C71 C 0.83159 0.71738 0.71009
 N72 N 0.81282 0.75107 0.78337
 C73 C 0.83181 0.78532 0.70903
 C74 C 0.82308 0.67592 0.77164
 C75 C 0.78233 0.66449 0.82096
 C76 C 0.77063 0.62740 0.91457
 C77 C 0.72815 0.62753 0.91693
 C78 C 0.71490 0.66418 0.82200
 N79 N 0.74798 0.68691 0.76687
 C80 C 0.67324 0.67464 0.77657
 C81 C 0.65947 0.71688 0.76698
 C82 C 0.61849 0.72956 0.74644
 C83 C 0.61853 0.77251 0.74151
 C84 C 0.65952 0.78505 0.76119
 N85 N 0.68444 0.75090 0.78186
 C86 C 0.67329 0.82724 0.76684
 C87 C 0.71484 0.83750 0.81371
 C88 C 0.72769 0.87373 0.90448
 C89 C 0.77017 0.87417 0.90292
 C90 C 0.78240 0.83752 0.81514
 N91 N 0.74820 0.81520 0.76286
 C92 C 0.82348 0.82636 0.76946
 H93 H 0.88065 0.79363 0.49326
 H94 H 0.88057 0.71053 0.49616
 H95 H 0.74744 0.78876 0.67650
 H96 H 0.78989 0.60224 0.97411
 H97 H 0.70922 0.60335 0.98228
 H98 H 0.59095 0.71041 0.74323
 H99 H 0.59098 0.79170 0.73189
 H100 H 0.78903 0.89942 0.95802
 H101 H 0.74700 0.71376 0.67682
 H102 H 0.70851 0.89749 0.96625
 C103 C 0.35870 0.72840 0.47763
 C104 C 0.35810 0.77142 0.46877
 C105 C 0.33088 0.78418 0.60647
 N106 N 0.31401 0.75026 0.69608
 C107 C 0.33153 0.71610 0.61941
 C108 C 0.32274 0.82650 0.65027
 C109 C 0.28297 0.84012 0.70459
 C110 C 0.27169 0.88157 0.73162
 C111 C 0.23053 0.88161 0.77337
 C112 C 0.21709 0.84019 0.77044
 N113 N 0.24926 0.81527 0.72590
 C114 C 0.17705 0.82623 0.82272
 C115 C 0.16967 0.78384 0.87943
 C116 C 0.14484 0.77135 1.03047
 C117 C 0.14528 0.72832 1.03747
 C118 C 0.17009 0.71571 0.88965
 N119 N 0.18564 0.74974 0.79524
 C120 C 0.17727 0.67344 0.84060
 C121 C 0.21691 0.65990 0.78298
 C122 C 0.22808 0.61865 0.74880
 C123 C 0.26933 0.61875 0.70894
 C124 C 0.28289 0.65997 0.71957
 N125 N 0.25083 0.68470 0.76709
 C126 C 0.32315 0.67381 0.67255
 H127 H 0.37548 0.70855 0.38227
 H128 H 0.37429 0.79089 0.36519
 H129 H 0.25259 0.71627 0.79908
 H130 H 0.29029 0.90957 0.71974
 H131 H 0.21343 0.90935 0.80863
 H132 H 0.12948 0.79115 1.13121
 H133 H 0.13038 0.70863 1.14470
 H134 H 0.28648 0.59130 0.66981
 H135 H 0.24777 0.78335 0.70178
 H136 H 0.20940 0.59063 0.75463
 O137 O 1.04004 -0.05424 0.10947
 O138 O 0.95970 0.02193 0.23047
 O139 O 0.96009 -0.05371 0.09721
 O140 O 1.04159 0.02188 0.23873
 O141 O 1.03951 0.04674 -0.06400
 O142 O 0.96006 -0.03002 -0.20725
 O143 O 0.95923 0.04585 -0.07354
 O144 O 1.04103 -0.02902 -0.19214
 Cu145 Cu 1.00040 -0.01857 0.19851
 Cu146 Cu 0.99983 0.01114 -0.16358
 C147 C 1.05408 -0.05478 -0.05988
 C148 C 0.94570 0.04684 0.09683
 C149 C 0.94676 -0.05518 -0.07791
 C150 C 1.05435 0.04726 0.10862
 O151 O 0.54074 0.45038 0.57091
 O152 O 0.46002 0.52628 0.69014
 O153 O 0.46045 0.45052 0.56077
 O154 O 0.54115 0.52486 0.71119
 O155 O 0.54108 0.55077 0.41023
 O156 O 0.45968 0.47602 0.25913
 O157 O 0.46135 0.55187 0.38909
 O158 O 0.54171 0.47587 0.26953
 Cu159 Cu 0.50050 0.48522 0.66242
 Cu160 Cu 0.50101 0.51619 0.30202
 C161 C 0.55513 0.45039 0.40205
 C162 C 0.44723 0.55228 0.55822
 C163 C 0.44614 0.45062 0.38724
 C164 C 0.55474 0.55058 0.58522
 O165 O -0.03983 0.55243 0.11867
 O166 O 0.04132 0.47665 0.28069
 O167 O 0.04000 0.55268 0.13464
 O168 O -0.04048 0.47682 0.26955
 O169 O -0.04025 0.45291 -0.02882
 O170 O 0.04151 0.52803 -0.16198
 O171 O 0.03988 0.45200 -0.01655
 O172 O -0.03941 0.52891 -0.18038
 Cu173 Cu 0.00022 0.51718 0.22981
 Cu174 Cu 0.00035 0.48772 -0.12569
 C175 C -0.05282 0.55410 -0.05725
 C176 C 0.05432 0.45130 0.15686
 C177 C 0.05431 0.55354 -0.03423
 C178 C -0.05409 0.45187 0.14121
 O179 O 0.45889 1.05070 0.50351
 O180 O 0.54042 0.97712 0.67248
 O181 O 0.53931 1.05148 0.51499
 O182 O 0.45929 0.97476 0.65067
 O183 O 0.46110 0.94962 0.35500
 O184 O 0.54103 1.02596 0.21985
 O185 O 0.54073 0.95122 0.37766
 O186 O 0.45873 1.02541 0.20761
 Cu187 Cu 0.49929 1.01634 0.61391
 Cu188 Cu 0.50047 0.98555 0.26061
 C189 C 0.44470 1.05056 0.32977
 C190 C 0.55435 0.95154 0.55264
 C191 C 0.55417 1.05139 0.34706
 C192 C 0.44684 0.94884 0.52392
 C193 C 1.12526 0.08384 0.02710
 C194 C 1.11655 0.13159 0.00699
 C195 C 1.14365 0.13861 0.19144
 C196 C 1.15253 0.09085 0.21326
 C197 C 1.10564 0.13317 0.32029
 C198 C 1.07827 0.12621 0.13402
 C199 C 1.08716 0.07886 0.15321
 C200 C 1.11396 0.08527 0.33908
 H201 H 1.13325 0.06309 -0.09334
 H202 H 1.11759 0.15065 -0.13018
 H203 H 1.18287 0.07560 0.24910
 H204 H 1.09752 0.15309 0.44354
 H205 H 1.04731 0.14049 0.10207
 H206 H 1.11259 0.06591 0.47519
 C207 C 0.61708 0.57893 0.81943
 C208 C 0.65262 0.59321 0.68736
 C209 C 0.64265 0.63954 0.73105
 C210 C 0.60736 0.62550 0.86227
 C211 C 0.61237 0.64180 0.55211
 C212 C 0.62196 0.59549 0.51000
 C213 C 0.58689 0.58174 0.64212
 C214 C 0.57678 0.62768 0.68342
 H215 H 0.61874 0.55268 0.92889
 H216 H 0.68331 0.57779 0.68007
 H217 H 0.60154 0.63798 1.00801
 H218 H 0.61055 0.66753 0.44004
 H219 H 0.62759 0.58289 0.36426
 H220 H 0.54515 0.64145 0.68083
 C221 C -0.11219 0.41608 0.37077
 C222 C -0.15139 0.40845 0.23911
 C223 C -0.14222 0.36064 0.24891
 C224 C -0.10336 0.36808 0.38001
 C225 C -0.11633 0.36526 0.06525
 C226 C -0.12513 0.41295 0.05652
 C227 C -0.08642 0.42007 0.18791
 C228 C -0.07721 0.37272 0.19622
 H229 H -0.11033 0.43736 0.49620
 H230 H -0.18154 0.42474 0.25071
 H231 H -0.09446 0.34947 0.51364
 H232 H -0.11804 0.34444 -0.06182
 H233 H -0.13389 0.43172 -0.07689
 H234 H -0.04631 0.35833 0.17774
 C235 C 0.41555 0.88514 0.74196
 C236 C 0.36903 0.89387 0.77040
 C237 C 0.35726 0.85886 0.62644
 C238 C 0.40379 0.84972 0.60057
 C239 C 0.35693 0.89089 0.45518
 C240 C 0.36875 0.92624 0.59770
 C241 C 0.41471 0.91680 0.56978
 C242 C 0.40332 0.88172 0.42769
 H243 H 0.43985 0.88316 0.86025
 H244 H 0.35526 0.89867 0.91371
 H245 H 0.42008 0.81898 0.60611
 H246 H 0.33280 0.89319 0.33624
 H247 H 0.35472 0.95811 0.59740
 H248 H 0.41761 0.87651 0.28593
 C249 C -0.08530 0.62980 -0.02395
 C250 C -0.09476 0.65028 -0.22652
 C251 C -0.14166 0.64449 -0.19578
 C252 C -0.13201 0.62436 0.00722
 C253 C -0.14050 0.60092 -0.28851
 C254 C -0.09340 0.60636 -0.31920
 C255 C -0.08446 0.58639 -0.11659
 C256 C -0.13085 0.58055 -0.08494
 H257 H -0.06234 0.64143 0.08609
 H258 H -0.07737 0.67822 -0.27740
 H259 H -0.14743 0.63202 0.14357
 H260 H -0.16340 0.58920 -0.39847
 H261 H -0.07718 0.59864 -0.45326
 H262 H -0.14536 0.55146 -0.02645
 C263 C 0.37464 1.08840 0.40598
 C264 C 0.38294 1.13606 0.39472
 C265 C 0.35386 1.14004 0.21205
 C266 C 0.34521 1.09216 0.22442
 C267 C 0.39048 1.13254 0.07950
 C268 C 0.41981 1.12858 0.26258
 C269 C 0.41120 1.08121 0.27377
 C270 C 0.38228 1.08441 0.09174
 H271 H 0.36826 1.06997 0.54081
 H272 H 0.38337 1.15701 0.52150
 H273 H 0.31509 1.07542 0.21670
 H274 H 0.39702 1.15096 -0.05498
 H275 H 0.45092 1.14318 0.27893
 H276 H 0.38224 1.06285 -0.03265
 C277 C 1.08762 -0.11473 -0.27794
 C278 C 1.13448 -0.10550 -0.29362
 C279 C 1.14466 -0.14316 -0.15339
 C280 C 1.09787 -0.15279 -0.14038
 C281 C 1.14317 -0.11453 0.02291
 C282 C 1.13284 -0.07650 -0.11595
 C283 C 1.08656 -0.08637 -0.10081
 C284 C 1.09640 -0.12408 0.03748
 H285 H 1.06455 -0.11441 -0.40159
 H286 H 1.15002 -0.09794 -0.43153
 H287 H 1.08236 -0.18377 -0.15373
 H288 H 1.16608 -0.11454 0.14714
 H289 H 1.14682 -0.04470 -0.10648
 H290 H 1.08045 -0.13181 0.17406
 C291 C 0.62790 0.41451 0.49153
 C292 C 0.62035 0.36652 0.50493
 C293 C 0.64544 0.36105 0.32151
 C294 C 0.65313 0.40902 0.30657
 C295 C 0.60575 0.36651 0.19063
 C296 C 0.58044 0.37187 0.37549
 C297 C 0.58822 0.41940 0.36275
 C298 C 0.61299 0.41454 0.17819
 H299 H 0.63688 0.43466 0.61555
 H300 H 0.62343 0.34676 0.64005
 H301 H 0.68266 0.42518 0.27462
 H302 H 0.59664 0.34700 0.06464
 H303 H 0.55010 0.35685 0.40291
 H304 H 0.60964 0.43460 0.04415
 C305 C 0.90646 -0.10707 -0.32773
 C306 C 0.90406 -0.15088 -0.22444
 C307 C 0.85703 -0.14425 -0.20028
 C308 C 0.85925 -0.10078 -0.30345
 C309 C 0.86605 -0.12421 -0.00114
 C310 C 0.91289 -0.13040 -0.02612
 C311 C 0.91478 -0.08711 -0.12936
 C312 C 0.86831 -0.08044 -0.10395
 H313 H 0.92340 -0.09975 -0.46191
 H314 H 0.92153 -0.17913 -0.26500
 H315 H 0.83705 -0.08861 -0.41837
 H316 H 0.85003 -0.13150 0.13577
 H317 H 0.93518 -0.14235 0.08901
 H318 H 0.85403 -0.05107 -0.05370
 C319 C 0.42157 0.37222 0.34914
 C320 C 0.38356 0.36609 0.47701
 C321 C 0.35600 0.36077 0.29252
 C322 C 0.39376 0.36704 0.16295
 C323 C 0.34747 0.40865 0.27988
 C324 C 0.37517 0.41394 0.46597
 C325 C 0.41302 0.41969 0.33882
 C326 C 0.38577 0.41504 0.15302
 H327 H 0.45247 0.35750 0.37708
 H328 H 0.38262 0.34591 0.61080
 H329 H 0.40133 0.34814 0.03554
 H330 H 0.31713 0.42426 0.24848
 H331 H 0.36758 0.43373 0.59043
 H332 H 0.38702 0.43544 0.02002
 C333 C 0.13230 0.57564 -0.11448
 C334 C 0.13139 0.60906 -0.28320
 C335 C 0.14443 0.64298 -0.13581
 C336 C 0.14541 0.60995 0.03145
 C337 C 0.09823 0.65247 -0.10267
 C338 C 0.08522 0.61808 -0.24731
 C339 C 0.08670 0.58537 -0.07926
 C340 C 0.09933 0.61943 0.06614
 H341 H 0.14590 0.54366 -0.12028
 H342 H 0.14413 0.60501 -0.42932
 H343 H 0.17015 0.60665 0.14718
 H344 H 0.08222 0.68333 -0.10204
 H345 H 0.06025 0.62101 -0.36209
 H346 H 0.08600 0.62387 0.21066
 C347 C 0.57940 1.12958 0.29229
 C348 C 0.61794 1.13630 0.42824
 C349 C 0.64498 1.14020 0.24794
 C350 C 0.60672 1.13346 0.11195
 C351 C 0.65316 1.09219 0.25968
 C352 C 0.62569 1.08846 0.43860
 C353 C 0.58755 1.08212 0.30248
 C354 C 0.61450 1.08527 0.12323
 H355 H 0.54864 1.14456 0.30643
 H356 H 0.61926 1.15707 0.55560
 H357 H 0.59891 1.15206 -0.02309
 H358 H 0.68302 1.07514 0.25284
 H359 H 0.63329 1.06964 0.57327
 H360 H 0.61288 1.06393 -0.00200
 C361 C 0.11502 0.41498 0.39455
 C362 C 0.10620 0.36695 0.40010
 C363 C 0.14335 0.35979 0.27039
 C364 C 0.15253 0.40758 0.26454
 C365 C 0.11507 0.36506 0.08570
 C366 C 0.07768 0.37224 0.21498
 C367 C 0.08692 0.41955 0.21037
 C368 C 0.12395 0.41265 0.08076
 H369 H 0.11475 0.43589 0.52118
 H370 H 0.09896 0.34785 0.53169
 H371 H 0.18281 0.42388 0.27756
 H372 H 0.11507 0.34471 -0.04311
 H373 H 0.04650 0.35803 0.19379
 H374 H 0.13108 0.43170 -0.05127
 C375 C 0.61649 0.92269 0.79551
 C376 C 0.60699 0.87584 0.84379
 C377 C 0.64269 0.86261 0.71621
 C378 C 0.65250 0.90923 0.66732
 C379 C 0.61285 0.86115 0.53595
 C380 C 0.57686 0.87442 0.66361
 C381 C 0.58677 0.92062 0.61684
 C382 C 0.62228 0.90771 0.48851
 H383 H 0.61773 0.94842 0.90153
 H384 H 0.60087 0.86260 0.99079
 H385 H 0.68316 0.92480 0.66036
 H386 H 0.61141 0.83596 0.42707
 H387 H 0.54530 0.86057 0.66210
 H388 H 0.62823 0.92107 0.34150
 C389 C 0.92121 0.12593 0.11752
 C390 C 0.88057 0.13099 -0.00690
 C391 C 0.85674 0.13769 0.17935
 C392 C 0.89717 0.13256 0.30520
 C393 C 0.84879 0.08984 0.20081
 C394 C 0.87274 0.08311 0.01303
 C395 C 0.91313 0.07848 0.13684
 C396 C 0.88963 0.08463 0.32423
 H397 H 0.95144 0.14054 0.08405
 H398 H 0.87683 0.15012 -0.14360
 H399 H 0.90729 0.15265 0.42760
 H400 H 0.81931 0.07421 0.23832
 H401 H 0.86280 0.06230 -0.10704
 H402 H 0.89363 0.06533 0.46033
 C403 C 0.36833 0.57466 0.60480
 C404 C 0.36572 0.60253 0.78575
 C405 C 0.35708 0.64116 0.64939
 C406 C 0.35955 0.61361 0.46980
 C407 C 0.40407 0.65021 0.64525
 C408 C 0.41284 0.61124 0.77926
 C409 C 0.41489 0.58399 0.59887
 C410 C 0.40653 0.62262 0.46414
 H411 H 0.35402 0.54315 0.58847
 H412 H 0.34895 0.59437 0.91955
 H413 H 0.33749 0.61474 0.34221
 H414 H 0.41969 0.68095 0.66540
 H415 H 0.43506 0.60991 0.90613
 H416 H 0.42355 0.63092 0.33118
   
