data_POSCAR
  _audit_creation_date              2014-09-24
  _audit_creation_method            'ToBaCCo'
  _symmetry_space_group_name_H-M    'P1'
  _symmetry_Int_Tables_number       1
  _symmetry_cell_setting            triclinic
  loop_
  _symmetry_equiv_pos_as_xyz
 x,y,z
_cell_length_a 36.9168
_cell_length_b 36.9169
_cell_length_c 30.4472
_cell_angle_alpha 89.954800
_cell_angle_beta 89.954900
_cell_angle_gamma 90.055000
loop_
  _atom_site_label
  _atom_site_type_symbol
  _atom_site_fract_x
  _atom_site_fract_y
  _atom_site_fract_z
O1 O -0.03546 0.30384 0.04192
 O2 O 0.03597 0.30365 -0.04351
 O3 O -0.03529 0.30371 -0.04362
 O4 O 0.03576 0.30394 0.04203
 O5 O 0.03532 0.24403 0.04192
 O6 O -0.03495 0.24380 -0.04298
 O7 O 0.03551 0.24375 -0.04286
 O8 O -0.03511 0.24394 0.04181
 Cu9 Cu 0.00025 0.30990 -0.00083
 Cu10 Cu 0.00019 0.23791 -0.00051
 C11 C -0.04757 0.27374 0.05585
 C12 C 0.04805 0.27348 -0.05715
 C13 C -0.04736 0.27354 -0.05729
 C14 C 0.04776 0.27384 0.05599
 O15 O 0.46464 0.80366 0.54278
 O16 O 0.53576 0.80362 0.45703
 O17 O 0.46451 0.80362 0.45722
 O18 O 0.53590 0.80347 0.54259
 O19 O 0.53538 0.74357 0.54223
 O20 O 0.46477 0.74372 0.45759
 O21 O 0.53525 0.74372 0.45740
 O22 O 0.46489 0.74375 0.54242
 Cu23 Cu 0.50021 0.80970 0.49991
 Cu24 Cu 0.50006 0.73772 0.49991
 C25 C 0.45252 0.77354 0.55662
 C26 C 0.54774 0.77349 0.44318
 C27 C 0.45235 0.77351 0.44343
 C28 C 0.54792 0.77332 0.55638
 O29 O 1.03704 0.69736 0.04283
 O30 O 0.96579 0.69704 -0.04271
 O31 O 1.03705 0.69724 -0.04275
 O32 O 0.96577 0.69719 0.04283
 O33 O 0.96607 0.75710 0.04227
 O34 O 1.03654 0.75713 -0.04258
 O35 O 0.96606 0.75694 -0.04254
 O36 O 1.03656 0.75725 0.04226
 Cu37 Cu 1.00143 0.69111 0.00007
 Cu38 Cu 1.00130 0.76307 -0.00016
 C39 C 1.04906 0.72754 0.05656
 C40 C 0.95366 0.72711 -0.05662
 C41 C 1.04905 0.72738 -0.05669
 C42 C 0.95364 0.72732 0.05653
 O43 O 0.46403 0.19529 0.45756
 O44 O 0.53508 0.19542 0.54321
 O45 O 0.46384 0.19541 0.54312
 O46 O 0.53526 0.19545 0.45768
 O47 O 0.53485 0.25536 0.45796
 O48 O 0.46423 0.25531 0.54264
 O49 O 0.53467 0.25533 0.54274
 O50 O 0.46441 0.25520 0.45783
 Cu51 Cu 0.49955 0.18928 0.50041
 Cu52 Cu 0.49953 0.26127 0.50028
 C53 C 0.45200 0.22540 0.44367
 C54 C 0.54711 0.22558 0.55698
 C55 C 0.45176 0.22554 0.55687
 C56 C 0.54735 0.22560 0.44385
 O57 O 0.69611 0.03483 -0.04191
 O58 O 0.69655 -0.03660 0.04352
 O59 O 0.69624 0.03465 0.04362
 O60 O 0.69627 -0.03639 -0.04203
 O61 O 0.75617 -0.03575 -0.04192
 O62 O 0.75615 0.03451 0.04299
 O63 O 0.75644 -0.03594 0.04288
 O64 O 0.75602 0.03468 -0.04180
 Cu65 Cu 0.69018 -0.00090 0.00084
 Cu66 Cu 0.76217 -0.00060 0.00052
 C67 C 0.72618 0.04703 -0.05584
 C68 C 0.72675 -0.04857 0.05717
 C69 C 0.72637 0.04682 0.05730
 C70 C 0.72640 -0.04828 -0.05600
 O71 O 0.19611 0.46435 0.54296
 O72 O 0.19606 0.53546 0.45721
 O73 O 0.19626 0.46421 0.45741
 O74 O 0.19609 0.53560 0.54279
 O75 O 0.25599 0.53535 0.54243
 O76 O 0.25616 0.46474 0.45778
 O77 O 0.25596 0.53523 0.45758
 O78 O 0.25601 0.46487 0.54260
 Cu79 Cu 0.19003 0.49990 0.50009
 Cu80 Cu 0.26200 0.50007 0.50010
 C81 C 0.22624 0.45236 0.55681
 C82 C 0.22618 0.54758 0.44335
 C83 C 0.22642 0.45218 0.44363
 C84 C 0.22620 0.54775 0.55660
 O85 O 0.30280 1.03709 0.04273
 O86 O 0.30295 0.96585 -0.04282
 O87 O 0.30263 1.03712 -0.04284
 O88 O 0.30309 0.96584 0.04273
 O89 O 0.24318 0.96593 0.04258
 O90 O 0.24273 1.03640 -0.04226
 O91 O 0.24305 0.96591 -0.04223
 O92 O 0.24291 1.03641 0.04257
 Cu93 Cu 0.30897 1.00151 -0.00007
 Cu94 Cu 0.23700 1.00113 0.00018
 C95 C 0.27265 1.04902 0.05666
 C96 C 0.27285 0.95361 -0.05652
 C97 C 0.27242 1.04904 -0.05655
 C98 C 0.27303 0.95361 0.05665
 O99 O 0.80448 0.53538 0.54244
 O100 O 0.80420 0.46434 0.45679
 O101 O 0.80436 0.53557 0.45690
 O102 O 0.80418 0.46415 0.54232
 O103 O 0.74427 0.46468 0.54205
 O104 O 0.74445 0.53530 0.45738
 O105 O 0.74430 0.46486 0.45727
 O106 O 0.74457 0.53512 0.54217
 Cu107 Cu 0.81042 0.49985 0.49960
 Cu108 Cu 0.73842 0.50001 0.49973
 C109 C 0.77439 0.54748 0.55632
 C110 C 0.77403 0.45237 0.44303
 C111 C 0.77425 0.54772 0.44316
 C112 C 0.77401 0.45213 0.55616
 C113 C 0.23960 0.19288 0.17668
 C114 C 0.20825 0.20818 0.15909
 C115 C 0.19314 0.23960 0.17675
 C116 C 0.20961 0.25654 0.21317
 C117 C 0.24153 0.24127 0.23142
 C118 C 0.25664 0.20927 0.21312
 C119 C 0.28824 0.19462 0.23171
 C120 C 0.30476 0.21108 0.26768
 C121 C 0.29026 0.24276 0.28629
 C122 C 0.25835 0.25803 0.26802
 C123 C 0.19511 0.28822 0.23177
 C124 C 0.21164 0.30468 0.26772
 C125 C 0.24324 0.29003 0.28631
 C126 C 0.26027 0.30644 0.32275
 C127 C 0.29161 0.29113 0.34036
 C128 C 0.30673 0.25971 0.32271
 H129 H 0.30043 0.17027 0.21855
 H130 H 0.32906 0.19877 0.28083
 H131 H 0.17082 0.30053 0.21862
 H132 H 0.19945 0.32904 0.28088
 H133 H 0.19534 0.19537 0.13107
 H134 H 0.30452 0.30395 0.36838
 C135 C 0.74020 0.69341 0.32235
 C136 C 0.70869 0.70847 0.33988
 C137 C 0.69345 0.73985 0.32225
 C138 C 0.70997 0.75699 0.28593
 C139 C 0.74206 0.74197 0.26776
 C140 C 0.75729 0.71002 0.28604
 C141 C 0.78906 0.69561 0.26756
 C142 C 0.80565 0.71227 0.23172
 C143 C 0.79104 0.74390 0.21312
 C144 C 0.75895 0.75892 0.23127
 C145 C 0.69536 0.78863 0.26733
 C146 C 0.71194 0.80528 0.23147
 C147 C 0.74372 0.79087 0.21298
 C148 C 0.76080 0.80746 0.17665
 C149 C 0.79233 0.79242 0.15916
 C150 C 0.80758 0.76105 0.17681
 H151 H 0.80135 0.67130 0.28071
 H152 H 0.83008 0.70014 0.21865
 H153 H 0.67093 0.80076 0.28040
 H154 H 0.69966 0.82959 0.21830
 H155 H 0.69576 0.69549 0.36782
 H156 H 0.80527 0.80539 0.13121
 C157 C 0.80687 0.23953 0.17702
 C158 C 0.79175 0.20802 0.15958
 C159 C 0.76039 0.19274 0.17732
 C160 C 0.74332 0.20923 0.21365
 C161 C 0.75841 0.24131 0.23175
 C162 C 0.79036 0.25657 0.21338
 C163 C 0.80484 0.28832 0.23182
 C164 C 0.78827 0.30486 0.26770
 C165 C 0.75664 0.29021 0.28638
 C166 C 0.74154 0.25814 0.26826
 C167 C 0.71169 0.19458 0.23232
 C168 C 0.69510 0.21113 0.26818
 C169 C 0.70958 0.24289 0.28662
 C170 C 0.69306 0.25993 0.32296
 C171 C 0.70820 0.29142 0.34044
 C172 C 0.73958 0.30668 0.32273
 H173 H 0.82915 0.30064 0.21860
 H174 H 0.80046 0.32927 0.28074
 H175 H 0.69950 0.17016 0.21929
 H176 H 0.67079 0.19882 0.28140
 H177 H 0.80467 0.19511 0.13162
 H178 H 0.69529 0.30433 0.36841
 C179 C 0.19280 0.76085 0.17675
 C180 C 0.20800 0.79237 0.15932
 C181 C 0.23940 0.80754 0.17700
 C182 C 0.25644 0.79093 0.21328
 C183 C 0.24128 0.75884 0.23138
 C184 C 0.20929 0.74369 0.21306
 C185 C 0.19475 0.71193 0.23150
 C186 C 0.21130 0.69528 0.26734
 C187 C 0.24297 0.70981 0.28596
 C188 C 0.25813 0.74189 0.26784
 C189 C 0.28811 0.80546 0.23189
 C190 C 0.30468 0.78880 0.26770
 C191 C 0.29013 0.75704 0.28614
 C192 C 0.30664 0.73988 0.32243
 C193 C 0.29143 0.70839 0.33990
 C194 C 0.26001 0.69322 0.32227
 H195 H 0.17041 0.69970 0.21832
 H196 H 0.19906 0.67086 0.28038
 H197 H 0.30034 0.82988 0.21886
 H198 H 0.32902 0.80103 0.28087
 H199 H 0.19511 0.80536 0.13140
 H200 H 0.30433 0.69540 0.36783
 C201 C 0.80679 0.23917 0.82269
 C202 C 0.79154 0.20780 0.84043
 C203 C 0.76005 0.19265 0.82298
 C204 C 0.74299 0.20915 0.78663
 C205 C 0.75822 0.24111 0.76826
 C206 C 0.79028 0.25623 0.78635
 C207 C 0.80490 0.28787 0.76768
 C208 C 0.78834 0.30443 0.73181
 C209 C 0.75660 0.28992 0.71338
 C210 C 0.74137 0.25796 0.73174
 C211 C 0.71124 0.19463 0.76819
 C212 C 0.69469 0.21119 0.73231
 C213 C 0.70931 0.24283 0.71363
 C214 C 0.69282 0.25988 0.67728
 C215 C 0.70806 0.29127 0.65956
 C216 C 0.73954 0.30643 0.67703
 H217 H 0.82931 0.30008 0.78070
 H218 H 0.80064 0.32875 0.71859
 H219 H 0.69895 0.17032 0.78142
 H220 H 0.67028 0.19898 0.71928
 H221 H 0.80447 0.19490 0.86839
 H222 H 0.69514 0.30417 0.63159
 C223 C 0.30672 0.73991 0.67757
 C224 C 0.29149 0.70847 0.66008
 C225 C 0.26002 0.69334 0.67769
 C226 C 0.24297 0.70992 0.71402
 C227 C 0.25817 0.74196 0.73214
 C228 C 0.29021 0.75708 0.71384
 C229 C 0.30478 0.78881 0.73225
 C230 C 0.28820 0.80549 0.76805
 C231 C 0.25650 0.79099 0.78668
 C232 C 0.24132 0.75892 0.76860
 C233 C 0.21127 0.69541 0.73266
 C234 C 0.19474 0.71205 0.76852
 C235 C 0.20931 0.74378 0.78694
 C236 C 0.19283 0.76091 0.82324
 C237 C 0.20801 0.79241 0.84066
 C238 C 0.23942 0.80760 0.82296
 H239 H 0.32916 0.80101 0.71907
 H240 H 0.30045 0.82988 0.78105
 H241 H 0.19901 0.67103 0.71964
 H242 H 0.17037 0.69984 0.78172
 H243 H 0.30441 0.69551 0.63216
 H244 H 0.19509 0.80538 0.86858
 C245 C 0.23873 0.19300 0.82384
 C246 C 0.20734 0.20827 0.84140
 C247 C 0.19225 0.23971 0.82372
 C248 C 0.20883 0.25670 0.78732
 C249 C 0.24080 0.24143 0.76910
 C250 C 0.25585 0.20942 0.78742
 C251 C 0.28748 0.19476 0.76887
 C252 C 0.30411 0.21123 0.73292
 C253 C 0.28967 0.24293 0.71428
 C254 C 0.25773 0.25821 0.73252
 C255 C 0.19440 0.28840 0.76869
 C256 C 0.21105 0.30489 0.73277
 C257 C 0.24269 0.29024 0.71422
 C258 C 0.25982 0.30666 0.67782
 C259 C 0.29118 0.29136 0.66022
 C260 C 0.30624 0.25989 0.67786
 H261 H 0.29963 0.17039 0.78206
 H262 H 0.32841 0.19891 0.71980
 H263 H 0.17009 0.30071 0.78180
 H264 H 0.19891 0.32927 0.71959
 H265 H 0.19438 0.19542 0.86940
 H266 H 0.30414 0.30421 0.63221
 C267 C 0.74041 0.69295 0.67706
 C268 C 0.70894 0.70806 0.65952
 C269 C 0.69370 0.73942 0.67715
 C270 C 0.71020 0.75647 0.71351
 C271 C 0.74226 0.74137 0.73167
 C272 C 0.75748 0.70945 0.71337
 C273 C 0.78922 0.69498 0.73183
 C274 C 0.80581 0.71154 0.76768
 C275 C 0.79121 0.74314 0.78632
 C276 C 0.75913 0.75822 0.76818
 C277 C 0.69559 0.78806 0.73216
 C278 C 0.71215 0.80460 0.76805
 C279 C 0.74389 0.79012 0.78651
 C280 C 0.76093 0.80660 0.82285
 C281 C 0.79244 0.79153 0.84034
 C282 C 0.80772 0.76021 0.82266
 H283 H 0.80150 0.67068 0.71864
 H284 H 0.83021 0.69937 0.78073
 H285 H 0.67119 0.80024 0.71911
 H286 H 0.69986 0.82889 0.78125
 H287 H 0.69604 0.69513 0.63157
 H288 H 0.80533 0.80446 0.86830
 C289 C 0.27164 0.07686 0.08576
 C290 C 0.26832 0.10250 0.10994
 C291 C 0.26139 0.13341 0.13590
 C292 C 0.25289 0.16031 0.15582
 C293 C 0.77340 0.57685 0.58706
 C294 C 0.76984 0.60257 0.61101
 C295 C 0.76259 0.63352 0.63665
 C296 C 0.75384 0.66044 0.65633
 C297 C 0.72790 0.92352 0.08618
 C298 C 0.73142 0.89781 0.11025
 C299 C 0.73862 0.86687 0.13604
 C300 C 0.74734 0.83997 0.15584
 C301 C 0.22731 0.42295 0.58758
 C302 C 0.23084 0.39722 0.61158
 C303 C 0.23797 0.36623 0.63730
 C304 C 0.24657 0.33927 0.65705
 C305 C 0.92297 0.27269 0.08658
 C306 C 0.89724 0.26909 0.11058
 C307 C 0.86628 0.26180 0.13634
 C308 C 0.83938 0.25302 0.15616
 C309 C 0.42310 0.77250 0.58739
 C310 C 0.39735 0.76898 0.61138
 C311 C 0.36633 0.76184 0.63709
 C312 C 0.33935 0.75322 0.65682
 C313 C 0.07688 0.72861 0.08569
 C314 C 0.10251 0.73197 0.10990
 C315 C 0.13339 0.73895 0.13589
 C316 C 0.16027 0.74750 0.15585
 C317 C 0.57651 0.22671 0.58767
 C318 C 0.60226 0.23038 0.61156
 C319 C 0.63326 0.23771 0.63711
 C320 C 0.66022 0.24648 0.65669
 C321 C 0.72713 0.07649 0.91343
 C322 C 0.73065 0.10223 0.88942
 C323 C 0.73787 0.13321 0.86365
 C324 C 0.74660 0.16012 0.84384
 C325 C 0.22722 0.57696 0.41252
 C326 C 0.23075 0.60267 0.38846
 C327 C 0.23792 0.63365 0.36270
 C328 C 0.24660 0.66061 0.34295
 C329 C 0.27186 0.92414 0.91279
 C330 C 0.26840 0.89836 0.88885
 C331 C 0.26134 0.86730 0.86320
 C332 C 0.25276 0.84028 0.84354
 C333 C 0.77283 0.42296 0.41234
 C334 C 0.76913 0.39723 0.38845
 C335 C 0.76176 0.36623 0.36292
 C336 C 0.75297 0.33927 0.34334
 C337 C 0.07599 0.27242 0.91387
 C338 C 0.10173 0.26898 0.88985
 C339 C 0.13273 0.26184 0.86413
 C340 C 0.15968 0.25316 0.84441
 C341 C 0.57714 0.77242 0.41239
 C342 C 0.60287 0.76888 0.38839
 C343 C 0.63386 0.76174 0.36268
 C344 C 0.66083 0.75312 0.34296
 C345 C 0.92420 0.72804 0.91267
 C346 C 0.89843 0.73145 0.88871
 C347 C 0.86739 0.73844 0.86302
 C348 C 0.84039 0.74696 0.84331
 C349 C 0.42266 0.22645 0.41289
 C350 C 0.39698 0.23006 0.38888
 C351 C 0.36607 0.23738 0.36318
 C352 C 0.33920 0.24619 0.34345
 C353 C 0.72752 0.92239 0.91321
 C354 C 0.73119 0.89674 0.88918
 C355 C 0.73857 0.86587 0.86345
 C356 C 0.74742 0.83903 0.84368
 C357 C 0.22756 0.42270 0.41296
 C358 C 0.23114 0.39695 0.38902
 C359 C 0.23832 0.36596 0.36331
 C360 C 0.24696 0.33902 0.34354
 C361 C 0.27128 0.07691 0.91440
 C362 C 0.26780 0.10259 0.89031
 C363 C 0.26066 0.13353 0.86450
 C364 C 0.25204 0.16045 0.84468
 C365 C 0.77322 0.57720 0.41246
 C366 C 0.76964 0.60296 0.38852
 C367 C 0.76239 0.63395 0.36284
 C368 C 0.75365 0.66088 0.34311
 C369 C 0.07688 0.72839 0.91419
 C370 C 0.10253 0.73178 0.89000
 C371 C 0.13342 0.73887 0.86406
 C372 C 0.16031 0.74752 0.84415
 C373 C 0.57684 0.22672 0.41317
 C374 C 0.60260 0.23037 0.38922
 C375 C 0.63360 0.23768 0.36353
 C376 C 0.66053 0.24646 0.34378
 C377 C 0.92321 0.27237 0.91206
 C378 C 0.89744 0.26869 0.88822
 C379 C 0.86640 0.26133 0.86276
 C380 C 0.83941 0.25256 0.84324
 C381 C 0.42289 0.77249 0.41274
 C382 C 0.39714 0.76897 0.38876
 C383 C 0.36616 0.76185 0.36302
 C384 C 0.33921 0.75322 0.34323
 C385 C 0.27211 0.92413 0.08734
 C386 C 0.26862 0.89832 0.11124
 C387 C 0.26145 0.86724 0.13682
 C388 C 0.25278 0.84021 0.15642
 C389 C 0.77283 0.42264 0.58683
 C390 C 0.76915 0.39687 0.61077
 C391 C 0.76179 0.36588 0.63645
 C392 C 0.75300 0.33896 0.65620
 C393 C 0.72744 0.07625 0.08796
 C394 C 0.73105 0.10203 0.11179
 C395 C 0.73833 0.13309 0.13726
 C396 C 0.74705 0.16010 0.15678
 C397 C 0.22722 0.57718 0.58735
 C398 C 0.23074 0.60289 0.61137
 C399 C 0.23790 0.63385 0.63717
 C400 C 0.24657 0.66077 0.65696
 C401 C 0.92415 0.72838 0.08719
 C402 C 0.89834 0.73195 0.11105
 C403 C 0.86726 0.73915 0.13659
 C404 C 0.84024 0.74779 0.15618
 C405 C 0.42230 0.22662 0.58760
 C406 C 0.39658 0.23025 0.61159
 C407 C 0.36563 0.23757 0.63733
 C408 C 0.33874 0.24637 0.65709
 C409 C 0.07712 0.27282 0.08674
 C410 C 0.10282 0.26922 0.11071
 C411 C 0.13376 0.26191 0.13637
 C412 C 0.16065 0.25310 0.15605
 C413 C 0.57740 0.77219 0.58706
 C414 C 0.60315 0.76860 0.61100
 C415 C 0.63414 0.76141 0.63670
 C416 C 0.66110 0.75276 0.65643
   
