data_POSCAR
  _audit_creation_date              2014-09-24
  _audit_creation_method            'ToBaCCo'
  _symmetry_space_group_name_H-M    'P1'
  _symmetry_Int_Tables_number       1
  _symmetry_cell_setting            triclinic
  loop_
  _symmetry_equiv_pos_as_xyz
 x,y,z
_cell_length_a 23.7476
_cell_length_b 21.8411
_cell_length_c 24.4204
_cell_angle_alpha 81.298600
_cell_angle_beta 85.706500
_cell_angle_gamma 88.216400
loop_
  _atom_site_label
  _atom_site_type_symbol
  _atom_site_fract_x
  _atom_site_fract_y
  _atom_site_fract_z
C1 C 0.37643 0.37001 0.16492
 C2 C 0.33226 0.41405 0.16418
 C3 C 0.28605 0.40600 0.20405
 C4 C 0.28618 0.35478 0.24652
 C5 C 0.33123 0.31128 0.24854
 C6 C 0.37566 0.31895 0.20714
 H7 H 0.33277 0.45303 0.13092
 H8 H 0.25114 0.34869 0.27757
 H9 H 0.41021 0.28530 0.20794
 C10 C 0.59676 -0.33871 0.26106
 C11 C 0.64587 -0.36555 0.23843
 C12 C 0.69711 -0.36770 0.26447
 C13 C 0.69970 -0.33729 0.31127
 C14 C 0.65138 -0.30736 0.33263
 C15 C 0.59967 -0.31183 0.30931
 H16 H 0.64347 -0.38725 0.20163
 H17 H 0.73921 -0.33544 0.33021
 H18 H 0.56220 -0.28967 0.32618
 C19 C 0.80810 0.15016 0.77036
 C20 C 0.85108 0.19335 0.76876
 C21 C 0.89871 0.19340 0.73054
 C22 C 0.90346 0.14776 0.69527
 C23 C 0.86086 0.10447 0.69665
 C24 C 0.81342 0.10603 0.73410
 H25 H 0.84658 0.22745 0.79660
 H26 H 0.93957 0.14669 0.66550
 H27 H 0.78048 0.07260 0.73500
 C28 C 0.21261 -0.18203 0.81571
 C29 C 0.16941 -0.22609 0.82533
 C30 C 0.11816 -0.21405 0.79933
 C31 C 0.11045 -0.15681 0.76529
 C32 C 0.15472 -0.11557 0.75201
 C33 C 0.20541 -0.12810 0.77738
 H34 H 0.17568 -0.26915 0.85278
 H35 H 0.07185 -0.14662 0.74431
 H36 H 0.23907 -0.09498 0.76762
 C37 C 0.62782 -0.38115 0.84626
 C38 C 0.67437 -0.42214 0.85077
 C39 C 0.72139 -0.41400 0.81180
 C40 C 0.71986 -0.36513 0.76679
 C41 C 0.67354 -0.32362 0.76191
 C42 C 0.62779 -0.33213 0.80197
 H43 H 0.67457 -0.45906 0.88585
 H44 H 0.75531 -0.35779 0.73642
 H45 H 0.59183 -0.30036 0.79884
 C46 C 0.39122 0.35230 0.74334
 C47 C 0.34807 0.39772 0.73772
 C48 C 0.30507 0.39298 0.70259
 C49 C 0.30557 0.34358 0.67226
 C50 C 0.34794 0.29728 0.67782
 C51 C 0.39057 0.30170 0.71396
 H52 H 0.34761 0.43627 0.76099
 H53 H 0.27201 0.34121 0.64508
 H54 H 0.42375 0.26649 0.71859
 C55 C 0.19648 -0.14664 0.22684
 C56 C 0.15323 -0.18985 0.22954
 C57 C 0.10611 -0.18922 0.26780
 C58 C 0.10168 -0.14408 0.30315
 C59 C 0.14444 -0.10096 0.30156
 C60 C 0.19148 -0.10217 0.26325
 H61 H 0.15659 -0.22501 0.20277
 H62 H 0.06582 -0.14377 0.33330
 H63 H 0.22439 -0.06870 0.26236
 C64 C 0.78311 0.17166 0.18353
 C65 C 0.82422 0.21688 0.16769
 C66 C 0.87064 0.21982 0.19929
 C67 C 0.87700 0.17563 0.24675
 C68 C 0.83676 0.12905 0.26265
 C69 C 0.78965 0.12797 0.23123
 H70 H 0.81986 0.25103 0.13120
 H71 H 0.91305 0.17748 0.27111
 H72 H 0.75861 0.09224 0.24335
 O73 O 0.23938 0.17326 0.43496
 O74 O 0.16913 0.08426 0.55934
 O75 O 0.24607 0.16819 0.54166
 O76 O 0.16765 0.08333 0.45309
 O77 O 0.23785 0.01458 0.45293
 O78 O 0.31530 0.09818 0.54250
 O79 O 0.23880 0.01473 0.56082
 O80 O 0.30924 0.10396 0.43619
 Cu81 Cu 0.19866 0.13435 0.49707
 Cu82 Cu 0.28201 0.05050 0.49815
 C83 C 0.28604 0.15399 0.41435
 C84 C 0.19247 0.03477 0.58177
 C85 C 0.29380 0.14741 0.55746
 C86 C 0.19003 0.03473 0.43733
 O87 O 0.83895 -0.08905 0.55430
 O88 O 0.76430 -0.17934 0.46721
 O89 O 0.83041 -0.08168 0.44857
 O90 O 0.76727 -0.17984 0.57436
 O91 O 0.69522 -0.11354 0.57614
 O92 O 0.75576 -0.01893 0.44945
 O93 O 0.69038 -0.11601 0.47201
 O94 O 0.76588 -0.02411 0.55620
 Cu95 Cu 0.80746 -0.13909 0.51058
 Cu96 Cu 0.71975 -0.06140 0.51312
 C97 C 0.81514 -0.04124 0.57000
 C98 C 0.71393 -0.16400 0.45623
 C99 C 0.80388 -0.03304 0.42811
 C100 C 0.72026 -0.16289 0.59666
 O101 O 0.51384 0.26704 0.01684
 O102 O 0.60729 0.18515 -0.07614
 O103 O 0.59855 0.18977 0.02980
 O104 O 0.51930 0.25862 -0.08883
 O105 O 0.57533 0.33919 -0.10350
 O106 O 0.65536 0.26967 0.01497
 O107 O 0.66412 0.26501 -0.09149
 O108 O 0.56992 0.34759 0.00098
 Cu109 Cu 0.55404 0.21719 -0.02818
 Cu110 Cu 0.62214 0.31327 -0.04639
 C111 C 0.52571 0.32131 0.02453
 C112 C 0.65183 0.21102 -0.09945
 C113 C 0.64046 0.21788 0.04261
 C114 C 0.53322 0.31088 -0.11587
 O115 O 0.47485 0.73656 0.08969
 O116 O 0.39677 0.79437 -0.03254
 O117 O 0.39019 0.81285 0.07106
 O118 O 0.48460 0.72437 -0.01473
 O119 O 0.43071 0.64247 0.00751
 O120 O 0.33155 0.73463 0.08867
 O121 O 0.34101 0.71368 -0.01440
 O122 O 0.41535 0.65946 0.11202
 Cu123 Cu 0.44216 0.77498 0.02635
 Cu124 Cu 0.37399 0.67930 0.05014
 C125 C 0.45737 0.68913 0.12246
 C126 C 0.35608 0.76374 -0.04473
 C127 C 0.34498 0.78905 0.09474
 C128 C 0.47432 0.66854 -0.01811
 O129 O 0.06702 0.52658 0.16656
 O130 O -0.08442 0.55830 0.17762
 O131 O 0.00525 0.61500 0.19867
 O132 O -0.02264 0.46269 0.15893
 O133 O -0.02976 0.42181 0.24748
 O134 O 0.00165 0.57185 0.28672
 O135 O -0.08981 0.52060 0.26702
 O136 O 0.06409 0.48125 0.25392
 Cu137 Cu -0.00836 0.54463 0.16678
 Cu138 Cu -0.01381 0.49429 0.27249
 C139 C 0.09175 0.49910 0.20770
 C140 C -0.11295 0.54619 0.22367
 C141 C 0.00851 0.61892 0.24982
 C142 C -0.03211 0.41653 0.19675
 O143 O 0.03836 0.54576 0.82326
 O144 O 0.00842 0.38999 0.79213
 O145 O 0.09842 0.45936 0.78134
 O146 O -0.05155 0.47780 0.82984
 O147 O -0.07072 0.51472 0.74378
 O148 O 0.07897 0.50417 0.69742
 O149 O -0.00577 0.43010 0.70550
 O150 O 0.01371 0.58537 0.73953
 Cu151 Cu 0.02566 0.46396 0.81524
 Cu152 Cu 0.00232 0.51244 0.71295
 C153 C 0.02942 0.59222 0.78673
 C154 C -0.00347 0.38372 0.74348
 C155 C 0.11418 0.47943 0.73107
 C156 C -0.08661 0.49963 0.79467
 N157 N 0.48484 0.41411 0.05779
 N158 N 0.44452 0.42916 0.09431
 C159 C 0.42238 0.37548 0.12055
 C160 C 0.44996 0.32722 0.09876
 N161 N 0.48848 0.35318 0.05991
 H162 H 0.44242 0.27807 0.10963
 N163 N 0.45754 0.67888 0.22217
 N164 N 0.49459 0.67425 0.26057
 C165 C 0.54573 0.66371 0.23523
 C166 C 0.53863 0.66215 0.17971
 N167 N 0.48314 0.67168 0.17352
 H168 H 0.57085 0.65976 0.14626
 N169 N 0.67811 0.12296 -0.14668
 N170 N 0.71899 0.10517 -0.18110
 C171 C 0.75680 0.15114 -0.19137
 C172 C 0.73751 0.19798 -0.16204
 N173 N 0.68843 0.17852 -0.13492
 H174 H 0.75640 0.24224 -0.16119
 N175 N 0.34709 0.83192 -0.13154
 N176 N 0.31034 0.84699 -0.16964
 C177 C 0.26559 0.80982 -0.15535
 C178 C 0.27642 0.77086 -0.10685
 N179 N 0.32753 0.78657 -0.09345
 H180 H 0.24883 0.73720 -0.08212
 N181 N 0.18386 0.52367 0.16218
 N182 N 0.23596 0.50058 0.16004
 C183 C 0.23697 0.44954 0.19872
 C184 C 0.18322 0.44247 0.22528
 N185 N 0.15160 0.48960 0.20094
 H186 H 0.16755 0.40478 0.25607
 N187 N 0.00249 0.69995 0.77867
 N188 N 0.02573 0.75354 0.78093
 C189 C 0.07655 0.74107 0.80197
 C190 C 0.08298 0.67717 0.81393
 N191 N 0.03607 0.65362 0.79806
 H192 H 0.12069 0.65067 0.82541
 N193 N -0.20390 0.55426 0.18482
 N194 N -0.25510 0.57763 0.19423
 C195 C -0.25568 0.60120 0.24234
 C196 C -0.20259 0.59027 0.26272
 N197 N -0.17201 0.56085 0.22554
 H198 H -0.18690 0.60399 0.29943
 N199 N 0.00636 0.30021 0.68780
 N200 N -0.01947 0.24847 0.68336
 C201 C -0.06057 0.23982 0.72505
 C202 C -0.05807 0.28781 0.75598
 N203 N -0.01596 0.32399 0.73134
 H204 H -0.08568 0.29792 0.79092
 N205 N 0.36091 0.17242 0.34061
 N206 N 0.37410 0.21335 0.29609
 C207 C 0.33252 0.25713 0.29283
 C208 C 0.29335 0.24164 0.33707
 N209 N 0.31268 0.18873 0.36563
 H210 H 0.25460 0.26591 0.34768
 N211 N 0.89960 -0.00718 0.60690
 N212 N 0.91361 0.03199 0.63992
 C213 C 0.86504 0.05852 0.65805
 C214 C 0.82091 0.03480 0.63484
 N215 N 0.84421 -0.00591 0.60335
 H216 H 0.77631 0.04619 0.64000
 N217 N 0.11316 0.00851 0.64971
 N218 N 0.10145 -0.03069 0.69588
 C219 C 0.14970 -0.06272 0.70751
 C220 C 0.19104 -0.04273 0.66677
 N221 N 0.16655 0.00145 0.63156
 H222 H 0.23410 -0.06001 0.66211
 N223 N 0.62639 -0.19860 0.42765
 N224 N 0.60821 -0.23743 0.39660
 C225 C 0.65404 -0.26671 0.37579
 C226 C 0.70140 -0.24427 0.39550
 N227 N 0.68208 -0.20174 0.42733
 H228 H 0.74541 -0.25521 0.38567
 N229 N 0.51942 0.57450 -0.04610
 N230 N 0.56097 0.55944 -0.08145
 C231 C 0.58054 0.61308 -0.11054
 C232 C 0.55009 0.66127 -0.09169
 N233 N 0.51254 0.63547 -0.05170
 H234 H 0.55552 0.71047 -0.10486
 N235 N 0.49879 0.39931 -0.17826
 N236 N 0.46045 0.41240 -0.21527
 C237 C 0.43693 0.35830 -0.22040
 C238 C 0.46184 0.31159 -0.18524
 N239 N 0.50009 0.33915 -0.15974
 H240 H 0.45202 0.26283 -0.17775
 N241 N 0.32466 0.87568 0.14567
 N242 N 0.28579 0.89380 0.18198
 C243 C 0.24457 0.85145 0.18967
 C244 C 0.25978 0.80656 0.15641
 N245 N 0.30981 0.82344 0.12995
 H246 H 0.23816 0.76460 0.15292
 N247 N 0.65800 0.13819 0.12111
 N248 N 0.69513 0.12442 0.15924
 C249 C 0.73361 0.16972 0.15034
 C250 C 0.71855 0.21196 0.10540
 N251 N 0.67140 0.19053 0.08852
 H252 H 0.73948 0.25403 0.08650
 N253 N -0.16967 0.48423 0.86035
 N254 N -0.22205 0.50657 0.86569
 C255 C -0.23001 0.54806 0.81972
 C256 C -0.18070 0.54951 0.78566
 N257 N -0.14442 0.50949 0.81251
 H258 H -0.17079 0.57814 0.74615
 N259 N -0.05132 0.34902 0.13015
 N260 N -0.07673 0.29609 0.12927
 C261 C -0.08964 0.27109 0.18258
 C262 C -0.07131 0.31066 0.21629
 N263 N -0.04791 0.35877 0.18194
 H264 H -0.07938 0.30786 0.26083
 N265 N 0.19111 0.49199 0.65936
 N266 N 0.24326 0.47071 0.65031
 C267 C 0.25770 0.43755 0.69854
 C268 C 0.21249 0.43824 0.73730
 N269 N 0.17185 0.47271 0.71118
 H270 H 0.20767 0.41139 0.77839
 N271 N 0.00681 0.69191 0.31581
 N272 N 0.03188 0.74358 0.32181
 C273 C 0.06414 0.76111 0.27446
 C274 C 0.05725 0.71879 0.23881
 N275 N 0.02146 0.67654 0.26628
 H276 H 0.07875 0.71632 0.19852
 N277 N 0.64439 -0.18543 0.66843
 N278 N 0.63040 -0.22722 0.71207
 C279 C 0.67288 -0.26978 0.71676
 C280 C 0.71377 -0.25232 0.67400
 N281 N 0.69422 -0.19953 0.64505
 H282 H 0.75371 -0.27514 0.66479
 N283 N 0.10608 0.00578 0.39619
 N284 N 0.09226 -0.03015 0.36031
 C285 C 0.14072 -0.05636 0.34151
 C286 C 0.18463 -0.03592 0.36747
 N287 N 0.16125 0.00257 0.40121
 H288 H 0.22906 -0.04825 0.36279
 N289 N 0.88424 0.01154 0.36884
 N290 N 0.89478 0.05573 0.32595
 C291 C 0.84441 0.08041 0.31093
 C292 C 0.80259 0.04989 0.34622
 N293 N 0.82917 0.00730 0.38155
 H294 H 0.75738 0.05799 0.34642
 N295 N 0.37274 0.16164 0.61254
 N296 N 0.38844 0.20049 0.64510
 C297 C 0.34743 0.24462 0.64611
 C298 C 0.30602 0.23136 0.61300
 N299 N 0.32345 0.17958 0.59295
 H300 H 0.26670 0.25609 0.60453
   
