data_POSCAR
  _audit_creation_date              2014-09-24
  _audit_creation_method            'ToBaCCo'
  _symmetry_space_group_name_H-M    'P1'
  _symmetry_Int_Tables_number       1
  _symmetry_cell_setting            triclinic
  loop_
  _symmetry_equiv_pos_as_xyz
 x,y,z
_cell_length_a 24.1756
_cell_length_b 23.9827
_cell_length_c 40.9145
_cell_angle_alpha 89.993400
_cell_angle_beta 92.359100
_cell_angle_gamma 90.758500
loop_
  _atom_site_label
  _atom_site_type_symbol
  _atom_site_fract_x
  _atom_site_fract_y
  _atom_site_fract_z
C1 C 0.01924 0.38186 1.03033
 C2 C 0.02105 0.35491 0.99991
 C3 C 0.02198 0.38438 0.97055
 C4 C 0.02212 0.44322 0.97099
 C5 C 0.02062 0.47195 1.00125
 C6 C 0.02030 0.44133 1.03106
 C7 C 0.02671 0.47101 1.06062
 C8 C 0.02833 0.52891 1.06114
 C9 C 0.02356 0.56030 1.03213
 C10 C 0.02204 0.53148 1.00174
 C11 C 0.02693 0.47392 0.94206
 C12 C 0.02910 0.53174 0.94258
 C13 C 0.02466 0.56178 0.97191
 C14 C 0.02795 0.62106 0.97255
 C15 C 0.03014 0.64828 1.00295
 C16 C 0.02598 0.61960 1.03268
 H17 H 0.03300 0.44992 1.08379
 H18 H 0.03580 0.54866 1.08469
 H19 H 0.03097 0.45346 0.91873
 H20 H 0.03640 0.55233 0.91965
 H21 H 0.01899 0.30973 0.99870
 H22 H 0.02967 0.69351 1.00323
 C23 C 0.60477 -0.01020 0.46834
 C24 C 0.63556 -0.01742 0.49763
 C25 C 0.61127 -0.01518 0.52824
 C26 C 0.55271 -0.00954 0.52906
 C27 C 0.52090 -0.00217 0.49936
 C28 C 0.54716 -0.00171 0.46898
 C29 C 0.51495 0.00572 0.43995
 C30 C 0.45798 0.01246 0.44063
 C31 C 0.43071 0.01043 0.47027
 C32 C 0.46242 0.00337 0.49995
 C33 C 0.52450 -0.01535 0.55835
 C34 C 0.46735 -0.00977 0.55892
 C35 C 0.43562 0.00059 0.53012
 C36 C 0.37744 0.00597 0.53047
 C37 C 0.34697 0.01347 0.50107
 C38 C 0.37251 0.01523 0.47106
 H39 H 0.53339 0.00602 0.41631
 H40 H 0.43548 0.01886 0.41755
 H41 H 0.54599 -0.02600 0.58113
 H42 H 0.44819 -0.01476 0.58220
 H43 H 0.68009 -0.02122 0.49636
 H44 H 0.30228 0.01686 0.50150
 C45 C 0.08716 0.01250 0.26698
 H46 H 0.09144 0.01227 0.24076
 C47 C 0.13417 0.01724 0.28793
 H48 H 0.17486 0.02044 0.27790
 C49 C 0.02903 0.00870 0.31225
 H50 H -0.01191 0.00608 0.32174
 C51 C 0.07482 0.01343 0.33400
 H52 H 0.06893 0.01378 0.36011
 N53 N 0.03595 0.00727 0.27941
 C54 C -0.06605 -0.08137 0.20509
 H55 H -0.10182 -0.05471 0.20354
 C56 C -0.06343 -0.12769 0.18454
 H57 H -0.09717 -0.13669 0.16700
 C58 C 0.02259 -0.10116 0.22895
 H59 H 0.05606 -0.09079 0.24624
 C60 C 0.02686 -0.14788 0.20887
 H61 H 0.06390 -0.17283 0.21048
 Zn62 Zn -0.02641 -0.00057 0.25002
 N63 N -0.02265 -0.06802 0.22601
 C64 C -0.02320 0.05233 0.18828
 N65 N -0.02584 0.06122 0.22103
 C66 C -0.02463 0.11384 0.23361
 C67 C -0.02142 0.16009 0.21287
 C68 C -0.02003 0.09724 0.16677
 C69 C -0.09947 -0.04862 0.29304
 C70 C -0.14427 -0.05168 0.31342
 C71 C -0.17463 0.03767 0.29265
 C72 C -0.12918 0.03906 0.27258
 N73 N -0.09198 -0.00311 0.27377
 H74 H -0.02243 0.01047 0.17870
 H75 H -0.02553 0.11979 0.25979
 H76 H -0.02007 0.20181 0.22303
 H77 H -0.01750 0.08963 0.14077
 H78 H -0.06949 -0.08173 0.29329
 H79 H -0.14887 -0.08723 0.32947
 H80 H -0.20314 0.07215 0.29239
 H81 H -0.12307 0.07438 0.25671
 C82 C -0.01609 -0.16063 0.18605
 C83 C 0.12785 0.01726 0.32176
 C84 C -0.18169 -0.00775 0.31360
 C85 C -0.01903 0.15156 0.17913
 C86 C 0.00539 0.11480 0.76399
 H87 H 0.00506 0.11995 0.73772
 C88 C 0.00573 0.16170 0.78438
 H89 H 0.00593 0.20314 0.77385
 C90 C 0.00556 0.05472 0.81004
 H91 H 0.00470 0.01313 0.82008
 C92 C 0.00577 0.10027 0.83118
 H93 H 0.00584 0.09346 0.85737
 N94 N 0.00655 0.06260 0.77712
 C95 C 0.08182 -0.04530 0.70592
 H96 H 0.05278 -0.08000 0.70621
 C97 C 0.12657 -0.04677 0.68548
 H98 H 0.13199 -0.08263 0.66989
 C99 C 0.10950 0.04445 0.72528
 H100 H 0.10286 0.07982 0.74087
 C101 C 0.15486 0.04469 0.70513
 H102 H 0.18260 0.08052 0.70499
 Zn103 Zn 0.00847 -0.00047 0.74920
 N104 N 0.07332 0.00041 0.72467
 C105 C -0.04856 0.00240 0.68754
 N106 N -0.05510 0.00055 0.72041
 C107 C -0.10644 0.00037 0.73294
 C108 C -0.15377 -0.00037 0.71205
 C109 C -0.09461 0.00181 0.66588
 C110 C 0.05662 -0.07407 0.79408
 C111 C 0.05997 -0.11909 0.81562
 C112 C -0.03123 -0.14927 0.79598
 C113 C -0.03286 -0.10359 0.77471
 N114 N 0.01016 -0.06634 0.77480
 H115 H -0.00768 0.00428 0.67794
 H116 H -0.11054 0.00005 0.75917
 H117 H -0.19449 -0.00156 0.72215
 H118 H -0.08888 0.00248 0.63975
 H119 H 0.09041 -0.04412 0.79341
 H120 H 0.09642 -0.12387 0.83163
 H121 H -0.06625 -0.17785 0.79655
 H122 H -0.06892 -0.09746 0.75874
 C123 C 0.16295 -0.00105 0.68475
 C124 C 0.00644 0.15420 0.81830
 C125 C 0.01532 -0.15653 0.81694
 C126 C -0.14765 -0.00012 0.67819
 C127 C 0.00656 -0.27729 0.11548
 C128 C -0.02668 -0.32509 0.11102
 C129 C -0.01937 -0.36023 0.08425
 C130 C 0.02159 -0.34818 0.06155
 C131 C 0.05489 -0.29992 0.06663
 C132 C 0.04760 -0.26512 0.09339
 C133 C -0.00277 -0.23872 0.14157
 C134 C -0.00950 -0.20422 0.16242
 H135 H -0.05915 -0.33446 0.12773
 H136 H -0.04756 -0.39533 0.08050
 H137 H 0.08711 -0.28925 0.04999
 H138 H 0.07348 -0.22812 0.09656
 C139 C 0.00152 0.27411 0.11149
 C140 C 0.04059 0.26309 0.08819
 C141 C 0.04718 0.29932 0.06194
 C142 C 0.01518 0.34793 0.05856
 C143 C -0.02388 0.35881 0.08242
 C144 C -0.03053 0.32219 0.10870
 C145 C -0.00716 0.23391 0.13695
 C146 C -0.01321 0.19764 0.15695
 H147 H 0.06548 0.22588 0.09003
 H148 H 0.07796 0.28952 0.04437
 H149 H -0.05108 0.39422 0.07998
 H150 H -0.06155 0.33066 0.12634
 C151 C 0.27857 -0.00040 0.61492
 C152 C 0.31736 0.04298 0.61162
 C153 C 0.35107 0.04431 0.58461
 C154 C 0.34618 0.00221 0.56076
 C155 C 0.30791 -0.04159 0.56452
 C156 C 0.27439 -0.04294 0.59149
 C157 C 0.24029 0.00022 0.64092
 C158 C 0.20609 0.00000 0.66155
 H159 H 0.32060 0.07635 0.62947
 H160 H 0.37993 0.07875 0.58182
 H161 H 0.30333 -0.07413 0.54620
 H162 H 0.24426 -0.07645 0.59367
 C163 C -0.27509 -0.01105 0.60994
 C164 C -0.26936 -0.05014 0.58502
 C165 C -0.30765 -0.05247 0.55858
 C166 C -0.35304 -0.01603 0.55664
 C167 C -0.35858 0.02290 0.58216
 C168 C -0.31997 0.02523 0.60860
 C169 C -0.23266 -0.00630 0.63554
 C170 C -0.19499 -0.00305 0.65573
 H171 H -0.23461 -0.07827 0.58573
 H172 H -0.30194 -0.08328 0.53969
 H173 H -0.39118 0.05347 0.58093
 H174 H -0.32428 0.05631 0.62750
 C175 C 0.02180 -0.27297 0.88959
 C176 C -0.01477 -0.31852 0.89107
 C177 C -0.01234 -0.35426 0.91813
 C178 C 0.02715 -0.34525 0.94404
 C179 C 0.06331 -0.29879 0.94220
 C180 C 0.06085 -0.26333 0.91516
 C181 C 0.01823 -0.23431 0.86271
 C182 C 0.01634 -0.19991 0.84123
 H183 H -0.04583 -0.32579 0.87163
 H184 H -0.04272 -0.38773 0.91932
 H185 H 0.09425 -0.29030 0.96154
 H186 H 0.08915 -0.22798 0.91436
 C187 C 0.01692 0.27930 0.88579
 C188 C -0.02649 0.31608 0.89077
 C189 C -0.02403 0.35200 0.91776
 C190 C 0.02190 0.35138 0.93993
 C191 C 0.06574 0.31525 0.93442
 C192 C 0.06330 0.27951 0.90744
 C193 C 0.01228 0.23797 0.86031
 C194 C 0.00914 0.20099 0.84034
 H195 H -0.06283 0.31584 0.87436
 H196 H -0.05856 0.37905 0.92195
 H197 H 0.10120 0.31388 0.95145
 H198 H 0.09687 0.25087 0.90400
 C199 C -0.29759 -0.00989 0.38331
 C200 C -0.30533 -0.05924 0.40094
 C201 C -0.33864 -0.05965 0.42804
 C202 C -0.36475 -0.01076 0.43768
 C203 C -0.35764 0.03846 0.41965
 C204 C -0.32424 0.03885 0.39252
 C205 C -0.25900 -0.00856 0.35746
 C206 C -0.22477 -0.00795 0.33684
 H207 H -0.28450 -0.09703 0.39423
 H208 H -0.34321 -0.09776 0.44194
 H209 H -0.37682 0.07673 0.42711
 H210 H -0.31806 0.07739 0.37927
 C211 C 0.25765 0.02250 0.38868
 C212 C 0.26340 0.06780 0.41020
 C213 C 0.30237 0.06630 0.43638
 C214 C 0.33613 0.01958 0.44117
 C215 C 0.33094 -0.02531 0.41916
 C216 C 0.29193 -0.02377 0.39299
 C217 C 0.21364 0.02164 0.36391
 C218 C 0.17528 0.02011 0.34415
 H219 H 0.23672 0.10356 0.40729
 H220 H 0.30538 0.10095 0.45337
 H221 H 0.35594 -0.06210 0.42286
 H222 H 0.28741 -0.05929 0.37669
   
