data_POSCAR
  _audit_creation_date              2014-09-24
  _audit_creation_method            'ToBaCCo'
  _symmetry_space_group_name_H-M    'P1'
  _symmetry_Int_Tables_number       1
  _symmetry_cell_setting            triclinic
  loop_
  _symmetry_equiv_pos_as_xyz
 x,y,z
_cell_length_a 25.2592
_cell_length_b 25.2715
_cell_length_c 25.2246
_cell_angle_alpha 90.000500
_cell_angle_beta 89.999400
_cell_angle_gamma 90.053000
loop_
  _atom_site_label
  _atom_site_type_symbol
  _atom_site_fract_x
  _atom_site_fract_y
  _atom_site_fract_z
Zn1 Zn 0.79326 0.71073 0.79728
 Zn2 Zn 0.79381 0.79228 0.71200
 Zn3 Zn 0.70971 0.70900 0.71385
 Zn4 Zn 0.70919 0.79357 0.79577
 O5 O 0.75151 0.75152 0.75470
 O6 O 0.86217 0.72305 0.78819
 O7 O 0.78307 0.77985 0.64289
 O8 O 0.72293 0.64031 0.72363
 O9 O 0.86324 0.78124 0.72264
 O10 O 0.78481 0.64114 0.78568
 O11 O 0.71868 0.72034 0.64448
 O12 O 0.63995 0.78439 0.78276
 O13 O 0.78255 0.86181 0.72155
 O14 O 0.64060 0.71817 0.72539
 O15 O 0.72112 0.86234 0.78427
 O16 O 0.71769 0.78191 0.86570
 O17 O 0.78103 0.72132 0.86594
 C18 C 0.88720 0.75198 0.75570
 C19 C 0.75058 0.74974 0.61918
 C20 C 0.75504 0.61612 0.75376
 C21 C 0.61577 0.75158 0.75338
 C22 C 0.75141 0.88668 0.75230
 C23 C 0.74882 0.75105 0.89036
 Zn24 Zn 0.20954 0.71097 0.70982
 Zn25 Zn 0.20937 0.79173 0.79556
 Zn26 Zn 0.29459 0.70970 0.79236
 Zn27 Zn 0.29249 0.79495 0.71089
 O28 O 0.25152 0.75185 0.75221
 O29 O 0.14042 0.72143 0.72036
 O30 O 0.22146 0.77950 0.86432
 O31 O 0.28356 0.64072 0.78047
 O32 O 0.14014 0.77907 0.78637
 O33 O 0.22061 0.64164 0.71947
 O34 O 0.28564 0.71978 0.86216
 O35 O 0.36183 0.78716 0.72300
 O36 O 0.21793 0.86147 0.78491
 O37 O 0.36352 0.72052 0.77987
 O38 O 0.27834 0.86341 0.72129
 O39 O 0.28414 0.78274 0.64112
 O40 O 0.22057 0.72239 0.64103
 C41 C 0.11577 0.74972 0.75368
 C42 C 0.25383 0.74909 0.88773
 C43 C 0.25227 0.61654 0.74937
 C44 C 0.38718 0.75423 0.75114
 C45 C 0.24703 0.88703 0.75275
 C46 C 0.25296 0.75189 0.61653
 Zn47 Zn 0.70809 0.20996 0.79200
 Zn48 Zn 0.79350 0.21016 0.71007
 Zn49 Zn 0.71097 0.29444 0.71005
 Zn50 Zn 0.79372 0.29177 0.79532
 O51 O 0.75159 0.25163 0.75192
 O52 O 0.71877 0.14095 0.78072
 O53 O 0.78327 0.22156 0.64116
 O54 O 0.64148 0.28699 0.72178
 O55 O 0.78192 0.14082 0.71993
 O56 O 0.63929 0.22085 0.77920
 O57 O 0.71988 0.28198 0.64041
 O58 O 0.78548 0.36155 0.78408
 O59 O 0.86255 0.22045 0.72102
 O60 O 0.72542 0.36283 0.72010
 O61 O 0.86297 0.27886 0.78639
 O62 O 0.78116 0.28004 0.86424
 O63 O 0.71670 0.22052 0.86163
 C64 C 0.74991 0.11624 0.74996
 C65 C 0.75138 0.25120 0.61626
 C66 C 0.61588 0.25440 0.75014
 C67 C 0.75662 0.38678 0.75145
 C68 C 0.88727 0.24909 0.75403
 C69 C 0.74832 0.24988 0.88741
 Zn70 Zn 0.29359 0.20910 0.71410
 Zn71 Zn 0.20974 0.21131 0.79697
 Zn72 Zn 0.29368 0.29445 0.79548
 Zn73 Zn 0.20928 0.29196 0.71117
 O74 O 0.25159 0.25187 0.75440
 O75 O 0.28051 0.14035 0.72432
 O76 O 0.22140 0.22264 0.86545
 O77 O 0.36305 0.28535 0.78280
 O78 O 0.21846 0.14177 0.78614
 O79 O 0.36252 0.21863 0.72598
 O80 O 0.28475 0.28333 0.86560
 O81 O 0.22011 0.36149 0.72060
 O82 O 0.14091 0.22314 0.78756
 O83 O 0.28149 0.36317 0.78337
 O84 O 0.13975 0.28058 0.72138
 O85 O 0.22081 0.27956 0.64216
 O86 O 0.28524 0.22023 0.64464
 C87 C 0.24837 0.11644 0.75470
 C88 C 0.25322 0.25265 0.89004
 C89 C 0.38730 0.25232 0.75374
 C90 C 0.25095 0.38693 0.75121
 C91 C 0.11583 0.25160 0.75477
 C92 C 0.25376 0.24965 0.61892
 Zn93 Zn 0.70922 0.70889 0.21419
 Zn94 Zn 0.79324 0.79225 0.21166
 Zn95 Zn 0.70901 0.79346 0.29610
 Zn96 Zn 0.79318 0.71070 0.29695
 O97 O 0.75118 0.75149 0.25470
 O98 O 0.71761 0.72038 0.14485
 O99 O 0.78188 0.86176 0.22133
 O100 O 0.63967 0.78420 0.28351
 O101 O 0.78200 0.77989 0.14254
 O102 O 0.64021 0.71798 0.22612
 O103 O 0.72079 0.86224 0.28439
 O104 O 0.78161 0.72153 0.36559
 O105 O 0.86281 0.78138 0.22202
 O106 O 0.71816 0.78201 0.36606
 O107 O 0.86194 0.72312 0.28751
 O108 O 0.78473 0.64108 0.28553
 O109 O 0.72258 0.64021 0.22379
 C110 C 0.74914 0.74987 0.11922
 C111 C 0.75088 0.88660 0.25224
 C112 C 0.61543 0.75138 0.25418
 C113 C 0.74978 0.75136 0.39034
 C114 C 0.88687 0.75219 0.25509
 C115 C 0.75484 0.61604 0.25375
 Zn116 Zn 0.29208 0.79495 0.21060
 Zn117 Zn 0.20899 0.71109 0.21009
 Zn118 Zn 0.29440 0.70967 0.29199
 Zn119 Zn 0.20930 0.79180 0.29590
 O120 O 0.25121 0.75193 0.25220
 O121 O 0.28325 0.78285 0.14080
 O122 O 0.21995 0.64172 0.21958
 O123 O 0.36323 0.72036 0.27914
 O124 O 0.21951 0.72268 0.14133
 O125 O 0.36150 0.78710 0.22238
 O126 O 0.28319 0.64072 0.28025
 O127 O 0.22197 0.77970 0.36468
 O128 O 0.14001 0.72173 0.22093
 O129 O 0.28605 0.71991 0.36175
 O130 O 0.13994 0.77929 0.28701
 O131 O 0.21792 0.86151 0.28510
 O132 O 0.27802 0.86342 0.22115
 C133 C 0.25162 0.75220 0.11653
 C134 C 0.25172 0.61657 0.24933
 C135 C 0.38687 0.75410 0.25043
 C136 C 0.25469 0.74936 0.38769
 C137 C 0.11546 0.75008 0.25426
 C138 C 0.24687 0.88705 0.25278
 Zn139 Zn 0.71052 0.29442 0.21035
 Zn140 Zn 0.79295 0.21003 0.20978
 Zn141 Zn 0.79362 0.29167 0.29500
 Zn142 Zn 0.70790 0.20994 0.29234
 O143 O 0.75127 0.25152 0.25192
 O144 O 0.71893 0.28185 0.14073
 O145 O 0.86213 0.22015 0.22046
 O146 O 0.78543 0.36147 0.28390
 O147 O 0.78223 0.22132 0.14085
 O148 O 0.72508 0.36279 0.22023
 O149 O 0.86274 0.27862 0.28578
 O150 O 0.71710 0.22031 0.36201
 O151 O 0.78127 0.14073 0.21976
 O152 O 0.78161 0.27980 0.36389
 O153 O 0.71842 0.14091 0.28087
 O154 O 0.63899 0.22094 0.27990
 O155 O 0.64112 0.28703 0.22242
 C156 C 0.75005 0.25092 0.11625
 C157 C 0.88694 0.24873 0.25348
 C158 C 0.75644 0.38673 0.25141
 C159 C 0.74913 0.24954 0.38744
 C160 C 0.74937 0.11618 0.24994
 C161 C 0.61555 0.25449 0.25086
 Zn162 Zn 0.20869 0.29195 0.21149
 Zn163 Zn 0.29309 0.20919 0.21375
 Zn164 Zn 0.29346 0.29453 0.29515
 Zn165 Zn 0.20964 0.21131 0.29727
 O166 O 0.25124 0.25187 0.25439
 O167 O 0.21971 0.27948 0.14250
 O168 O 0.36212 0.21878 0.22527
 O169 O 0.28111 0.36325 0.28325
 O170 O 0.28420 0.22021 0.14426
 O171 O 0.21941 0.36151 0.22081
 O172 O 0.36274 0.28553 0.28207
 O173 O 0.22195 0.22238 0.36577
 O174 O 0.28014 0.14042 0.22410
 O175 O 0.28517 0.28319 0.36525
 O176 O 0.21837 0.14180 0.28624
 O177 O 0.14066 0.22303 0.28822
 O178 O 0.13929 0.28040 0.22199
 C179 C 0.25234 0.24953 0.11887
 C180 C 0.38694 0.25251 0.25297
 C181 C 0.25037 0.38698 0.25127
 C182 C 0.25413 0.25229 0.39005
 C183 C 0.24816 0.11649 0.25464
 C184 C 0.11547 0.25136 0.25538
 C185 C -0.02641 0.74384 0.70854
 C186 C -0.05470 0.74994 0.75579
 C187 C -0.02606 0.74871 0.80373
 C188 C 0.02972 0.74852 0.80330
 C189 C 0.05765 0.74745 0.75494
 C190 C 0.02847 0.74181 0.70815
 C191 C 0.03175 0.77251 0.65767
 C192 C -0.02844 0.77483 0.65824
 H193 H -0.04668 0.75050 0.84135
 H194 H 0.05094 0.75014 0.84058
 H195 H 0.04780 0.74833 0.62457
 H196 H 0.05087 0.81181 0.66294
 H197 H -0.04698 0.75204 0.62543
 H198 H -0.04422 0.81549 0.66401
 C199 C 0.78213 -0.02614 0.71592
 C200 C 0.74873 -0.05497 0.74954
 C201 C 0.71031 -0.02641 0.77837
 C202 C 0.70978 0.02929 0.77763
 C203 C 0.74769 0.05783 0.74808
 C204 C 0.78166 0.02880 0.71526
 C205 C 0.84035 0.03189 0.70906
 C206 C 0.84086 -0.02828 0.70978
 H207 H 0.68173 -0.04692 0.80291
 H208 H 0.68088 0.04986 0.80170
 H209 H 0.86018 0.04997 0.74402
 H210 H 0.85201 0.04883 0.67010
 H211 H 0.86099 -0.04515 0.74516
 H212 H 0.85281 -0.04593 0.67124
 C213 C 0.79387 0.73824 -0.02280
 C214 C 0.74758 0.74864 -0.05142
 C215 C 0.69978 0.75297 -0.02291
 C216 C 0.69990 0.75171 0.03300
 C217 C 0.74799 0.74809 0.06111
 C218 C 0.79418 0.73878 0.03213
 C219 C 0.84704 0.76501 0.03454
 C220 C 0.84682 0.76442 -0.02577
 H221 H 0.66264 0.75816 -0.04371
 H222 H 0.66287 0.75626 0.05417
 H223 H 0.87772 0.73880 0.05202
 H224 H 0.84520 0.80555 0.05161
 H225 H 0.87742 0.73789 -0.04295
 H226 H 0.84492 0.80458 -0.04369
 C227 C 0.52849 0.70641 0.74423
 C228 C 0.55769 0.75304 0.75025
 C229 C 0.52997 0.80144 0.74965
 C230 C 0.47418 0.80210 0.74808
 C231 C 0.44530 0.75436 0.74908
 C232 C 0.47360 0.70703 0.74461
 C233 C 0.47032 0.65719 0.77613
 C234 C 0.53054 0.65639 0.77567
 H235 H 0.55133 0.83859 0.75132
 H236 H 0.45370 0.83973 0.74892
 H237 H 0.45234 0.62425 0.75312
 H238 H 0.45332 0.66345 0.81632
 H239 H 0.54719 0.62300 0.75235
 H240 H 0.54843 0.66207 0.81555
 C241 C 0.27670 -0.02552 0.71703
 C242 C 0.24391 -0.05463 0.75098
 C243 C 0.20693 -0.02621 0.78177
 C244 C 0.20737 0.02959 0.78235
 C245 C 0.24485 0.05814 0.75220
 C246 C 0.27716 0.02932 0.71763
 C247 C 0.33565 0.03167 0.70939
 C248 C 0.33516 -0.02849 0.70873
 H249 H 0.17901 -0.04693 0.80689
 H250 H 0.17972 0.05016 0.80785
 H251 H 0.35702 0.04862 0.74400
 H252 H 0.34619 0.04931 0.67042
 H253 H 0.35625 -0.04648 0.74296
 H254 H 0.34543 -0.04543 0.66938
 C255 C 0.30019 0.74347 -0.02492
 C256 C 0.25321 0.74647 -0.05412
 C257 C 0.20495 0.74514 -0.02617
 C258 C 0.20445 0.74570 0.02962
 C259 C 0.25213 0.74966 0.05835
 C260 C 0.29965 0.74584 0.03010
 C261 C 0.34806 0.77962 0.03194
 C262 C 0.34880 0.77696 -0.02831
 H263 H 0.16769 0.74478 -0.04743
 H264 H 0.16679 0.74572 0.05017
 H265 H 0.38204 0.75883 0.05063
 H266 H 0.34005 0.81999 0.04753
 H267 H 0.38317 0.75460 -0.04425
 H268 H 0.34135 0.81579 -0.04766
 C269 C -0.02567 0.23978 0.70835
 C270 C -0.05461 0.24687 0.75510
 C271 C -0.02640 0.24949 0.80323
 C272 C 0.02939 0.24977 0.80331
 C273 C 0.05775 0.24950 0.75518
 C274 C 0.02922 0.24182 0.70832
 C275 C 0.03102 0.27110 0.65701
 C276 C -0.02917 0.26883 0.65691
 H277 H -0.04739 0.25228 0.84057
 H278 H 0.05022 0.25278 0.84072
 H279 H 0.04927 0.24719 0.62487
 H280 H 0.04698 0.31190 0.66130
 H281 H -0.04551 0.24362 0.62471
 H282 H -0.04814 0.30832 0.66104
 C283 C 0.79137 0.52891 0.78455
 C284 C 0.75873 0.55787 0.75034
 C285 C 0.73112 0.52951 0.71086
 C286 C 0.73171 0.47384 0.71016
 C287 C 0.75989 0.44511 0.74895
 C288 C 0.79190 0.47394 0.78391
 C289 C 0.79658 0.47069 0.84281
 C290 C 0.79601 0.53087 0.84351
 H291 H 0.70738 0.55013 0.68171
 H292 H 0.70831 0.45345 0.68054
 H293 H 0.83513 0.45365 0.85541
 H294 H 0.76112 0.45263 0.86171
 H295 H 0.83423 0.54841 0.85652
 H296 H 0.76023 0.54775 0.86282
 C297 C 0.79435 0.23937 -0.02591
 C298 C 0.74765 0.24762 -0.05446
 C299 C 0.69979 0.25010 -0.02587
 C300 C 0.70025 0.25138 0.03003
 C301 C 0.74843 0.24816 0.05807
 C302 C 0.79463 0.23871 0.02903
 C303 C 0.84705 0.26599 0.03154
 C304 C 0.84659 0.26679 -0.02877
 H305 H 0.66246 0.25387 -0.04665
 H306 H 0.66322 0.25578 0.05121
 H307 H 0.87837 0.24004 0.04828
 H308 H 0.84452 0.30604 0.04964
 H309 H 0.87769 0.24135 -0.04670
 H310 H 0.84365 0.30734 -0.04564
 C311 C 0.52919 0.20783 0.74206
 C312 C 0.55778 0.25484 0.74819
 C313 C 0.52916 0.30267 0.74942
 C314 C 0.47337 0.30213 0.75154
 C315 C 0.44539 0.25382 0.75051
 C316 C 0.47432 0.20741 0.74223
 C317 C 0.47229 0.15602 0.77140
 C318 C 0.53252 0.15662 0.77127
 H319 H 0.54987 0.34015 0.75163
 H320 H 0.45224 0.33925 0.75488
 H321 H 0.45520 0.12377 0.74677
 H322 H 0.45483 0.15997 0.81168
 H323 H 0.55008 0.12468 0.74661
 H324 H 0.54995 0.16101 0.81152
 C325 C 0.28856 0.52923 0.77900
 C326 C 0.25387 0.55814 0.74688
 C327 C 0.22237 0.52947 0.71062
 C328 C 0.22190 0.47368 0.71118
 C329 C 0.25289 0.44531 0.74806
 C330 C 0.28807 0.47436 0.77958
 C331 C 0.29777 0.47226 0.83792
 C332 C 0.29832 0.53243 0.83727
 H333 H 0.19666 0.54998 0.68311
 H334 H 0.19592 0.45299 0.68403
 H335 H 0.33696 0.45474 0.84754
 H336 H 0.26376 0.45531 0.86021
 H337 H 0.33784 0.54950 0.84650
 H338 H 0.26465 0.55042 0.85920
 C339 C 0.30005 0.24633 -0.02288
 C340 C 0.25302 0.25084 -0.05176
 C341 C 0.20485 0.24776 -0.02370
 C342 C 0.20450 0.24716 0.03208
 C343 C 0.25236 0.24759 0.06070
 C344 C 0.29972 0.24398 0.03214
 C345 C 0.34865 0.27693 0.03624
 C346 C 0.34885 0.27957 -0.02400
 H347 H 0.16751 0.24828 -0.04480
 H348 H 0.16694 0.24729 0.05280
 H349 H 0.38253 0.25420 0.05271
 H350 H 0.34135 0.31585 0.05547
 H351 H 0.38287 0.25840 -0.04217
 H352 H 0.34152 0.32001 -0.03974
 C353 C -0.02650 0.74422 0.20838
 C354 C -0.05503 0.75046 0.25544
 C355 C -0.02665 0.74952 0.30355
 C356 C 0.02914 0.74937 0.30346
 C357 C 0.05733 0.74810 0.25527
 C358 C 0.02839 0.74229 0.20833
 C359 C 0.03186 0.77290 0.15780
 C360 C -0.02832 0.77505 0.15799
 H361 H -0.04747 0.75142 0.34104
 H362 H 0.05015 0.75113 0.34085
 H363 H 0.04820 0.74871 0.12484
 H364 H 0.05083 0.81228 0.16313
 H365 H -0.04658 0.75210 0.12514
 H366 H -0.04428 0.81567 0.16353
 C367 C 0.78124 -0.02621 0.21557
 C368 C 0.74813 -0.05504 0.24947
 C369 C 0.70995 -0.02649 0.27862
 C370 C 0.70942 0.02922 0.27790
 C371 C 0.74709 0.05776 0.24804
 C372 C 0.78077 0.02872 0.21493
 C373 C 0.83940 0.03181 0.20818
 C374 C 0.83991 -0.02836 0.20889
 H375 H 0.68158 -0.04700 0.30341
 H376 H 0.68073 0.04979 0.30223
 H377 H 0.85956 0.04988 0.24295
 H378 H 0.85070 0.04875 0.16911
 H379 H 0.86036 -0.04524 0.24407
 H380 H 0.85150 -0.04600 0.17023
 C381 C 0.70346 0.74271 0.53246
 C382 C 0.75072 0.74760 0.56100
 C383 C 0.79861 0.74770 0.53241
 C384 C 0.79828 0.74765 0.47661
 C385 C 0.75008 0.74954 0.44852
 C386 C 0.70313 0.74446 0.47743
 C387 C 0.65367 0.77661 0.47591
 C388 C 0.65389 0.77463 0.53618
 H389 H 0.83615 0.74871 0.55315
 H390 H 0.83561 0.74870 0.45550
 H391 H 0.62010 0.75450 0.45795
 H392 H 0.66020 0.81703 0.45974
 H393 H 0.62046 0.75135 0.55288
 H394 H 0.66040 0.81391 0.55498
 C395 C 0.52821 0.70629 0.24439
 C396 C 0.55737 0.75288 0.25097
 C397 C 0.52967 0.80129 0.25024
 C398 C 0.47389 0.80198 0.24804
 C399 C 0.44499 0.75425 0.24849
 C400 C 0.47333 0.70693 0.24416
 C401 C 0.46968 0.65693 0.27540
 C402 C 0.52990 0.65611 0.27560
 H403 H 0.55102 0.83842 0.25225
 H404 H 0.45341 0.83961 0.24887
 H405 H 0.45196 0.62411 0.25201
 H406 H 0.45225 0.66298 0.31542
 H407 H 0.54681 0.62283 0.25230
 H408 H 0.54735 0.66160 0.31571
 C409 C 0.27627 -0.02548 0.21680
 C410 C 0.24374 -0.05460 0.25100
 C411 C 0.20697 -0.02618 0.28205
 C412 C 0.20740 0.02963 0.28260
 C413 C 0.24464 0.05818 0.25217
 C414 C 0.27671 0.02936 0.21737
 C415 C 0.33513 0.03172 0.20868
 C416 C 0.33466 -0.02844 0.20804
 H417 H 0.17924 -0.04689 0.30738
 H418 H 0.17992 0.05019 0.30829
 H419 H 0.35677 0.04869 0.24312
 H420 H 0.34537 0.04935 0.16963
 H421 H 0.35602 -0.04642 0.24212
 H422 H 0.34462 -0.04539 0.16862
 C423 C 0.20874 0.73814 0.52938
 C424 C 0.25470 0.74895 0.55834
 C425 C 0.30284 0.75287 0.53026
 C426 C 0.30333 0.75100 0.47435
 C427 C 0.25553 0.74713 0.44581
 C428 C 0.20902 0.73818 0.47445
 C429 C 0.15617 0.76427 0.47126
 C430 C 0.15572 0.76415 0.53158
 H431 H 0.33977 0.75827 0.55139
 H432 H 0.34056 0.75543 0.45351
 H433 H 0.12566 0.73787 0.45363
 H434 H 0.15818 0.80469 0.45394
 H435 H 0.12498 0.73764 0.54863
 H436 H 0.15734 0.80446 0.54922
 C437 C -0.02579 0.23939 0.20817
 C438 C -0.05496 0.24624 0.25480
 C439 C -0.02700 0.24854 0.30311
 C440 C 0.02879 0.24885 0.30351
 C441 C 0.05739 0.24894 0.25554
 C442 C 0.02909 0.24152 0.20848
 C443 C 0.03111 0.27107 0.15732
 C444 C -0.02908 0.26863 0.15684
 H445 H -0.04820 0.25113 0.34034
 H446 H 0.04942 0.25167 0.34105
 H447 H 0.04963 0.24739 0.12516
 H448 H 0.04689 0.31190 0.16192
 H449 H -0.04515 0.24349 0.12444
 H450 H -0.04820 0.30804 0.16099
 C451 C 0.79127 0.52885 0.28446
 C452 C 0.75856 0.55780 0.25030
 C453 C 0.73090 0.52945 0.21086
 C454 C 0.73150 0.47378 0.21014
 C455 C 0.75974 0.44506 0.24889
 C456 C 0.79180 0.47388 0.28381
 C457 C 0.79655 0.47062 0.34270
 C458 C 0.79597 0.53080 0.34341
 H459 H 0.70711 0.55007 0.18175
 H460 H 0.70805 0.45339 0.18056
 H461 H 0.83511 0.45358 0.35526
 H462 H 0.76111 0.45255 0.36163
 H463 H 0.83421 0.54834 0.35638
 H464 H 0.76021 0.54767 0.36277
 C465 C 0.70344 0.24523 0.52978
 C466 C 0.75095 0.24876 0.55808
 C467 C 0.79864 0.24521 0.52932
 C468 C 0.79813 0.24529 0.47351
 C469 C 0.74985 0.24686 0.44559
 C470 C 0.70289 0.24344 0.47476
 C471 C 0.65428 0.27687 0.47174
 C472 C 0.65501 0.27888 0.53201
 H473 H 0.83629 0.24511 0.54988
 H474 H 0.83538 0.24515 0.45223
 H475 H 0.61990 0.25462 0.45556
 H476 H 0.66172 0.31592 0.45281
 H477 H 0.62105 0.25782 0.55048
 H478 H 0.66302 0.31910 0.54803
 C479 C 0.52890 0.20789 0.24255
 C480 C 0.55744 0.25491 0.24881
 C481 C 0.52884 0.30276 0.24949
 C482 C 0.47304 0.30226 0.25099
 C483 C 0.44504 0.25396 0.24985
 C484 C 0.47402 0.20749 0.24213
 C485 C 0.47165 0.15626 0.27155
 C486 C 0.53188 0.15683 0.27208
 H487 H 0.54955 0.34024 0.25169
 H488 H 0.45190 0.33940 0.25398
 H489 H 0.45482 0.12388 0.24690
 H490 H 0.45375 0.16043 0.31161
 H491 H 0.54969 0.12476 0.24779
 H492 H 0.54888 0.16144 0.31249
 C493 C 0.28810 0.52928 0.27880
 C494 C 0.25324 0.55817 0.24687
 C495 C 0.22151 0.52950 0.21081
 C496 C 0.22104 0.47371 0.21140
 C497 C 0.25224 0.44535 0.24811
 C498 C 0.28760 0.47442 0.27941
 C499 C 0.29760 0.47235 0.33770
 C500 C 0.29817 0.53251 0.33702
 H501 H 0.19566 0.55001 0.18343
 H502 H 0.19491 0.45301 0.18441
 H503 H 0.33684 0.45483 0.34713
 H504 H 0.26371 0.45541 0.36018
 H505 H 0.33774 0.54958 0.34603
 H506 H 0.26461 0.55052 0.35912
 C507 C 0.20887 0.23892 0.53173
 C508 C 0.25504 0.24803 0.56080
 C509 C 0.30312 0.25222 0.53272
 C510 C 0.30322 0.25410 0.47682
 C511 C 0.25541 0.24989 0.44827
 C512 C 0.20917 0.23898 0.47680
 C513 C 0.15615 0.26496 0.47413
 C514 C 0.15594 0.26490 0.53444
 H515 H 0.34012 0.25674 0.55394
 H516 H 0.34035 0.25959 0.45605
 H517 H 0.12561 0.23849 0.45665
 H518 H 0.15795 0.30533 0.45665
 H519 H 0.12532 0.23835 0.55163
 H520 H 0.15767 0.30525 0.55194
   
