data_POSCAR
  _audit_creation_date              2014-09-24
  _audit_creation_method            'ToBaCCo'
  _symmetry_space_group_name_H-M    'P1'
  _symmetry_Int_Tables_number       1
  _symmetry_cell_setting            triclinic
  loop_
  _symmetry_equiv_pos_as_xyz
 x,y,z
_cell_length_a 21.5558
_cell_length_b 21.5742
_cell_length_c 35.0540
_cell_angle_alpha 83.177500
_cell_angle_beta 97.993900
_cell_angle_gamma 88.092300
loop_
  _atom_site_label
  _atom_site_type_symbol
  _atom_site_fract_x
  _atom_site_fract_y
  _atom_site_fract_z
O1 O 0.02701 0.54094 1.04044
 O2 O 0.03971 0.43804 0.96545
 O3 O 0.04203 0.55802 0.96787
 O4 O 0.02250 0.42175 1.03811
 O5 O -0.08002 0.43161 1.02065
 O6 O -0.06045 0.56895 0.95097
 O7 O -0.06292 0.44689 0.94810
 O8 O -0.07561 0.55101 1.02338
 Cu9 Cu 0.04304 0.48856 1.00455
 Cu10 Cu -0.08005 0.50054 0.98373
 C11 C -0.02627 0.56367 1.04482
 C12 C -0.00925 0.42427 0.94423
 C13 C -0.00588 0.58786 0.94797
 C14 C -0.03213 0.40362 1.04164
 O15 O 0.58100 -0.03584 0.54066
 O16 O 0.44190 -0.04395 0.46852
 O17 O 0.56235 -0.04437 0.46682
 O18 O 0.46103 -0.03275 0.54217
 O19 O 0.45580 0.07002 0.52908
 O20 O 0.55846 0.05846 0.45424
 O21 O 0.43592 0.05880 0.45531
 O22 O 0.57572 0.06693 0.52835
 Cu23 Cu 0.51198 -0.04946 0.50571
 Cu24 Cu 0.50586 0.07389 0.49013
 C25 C 0.60229 0.01671 0.54713
 C26 C 0.41455 0.00580 0.44989
 C27 C 0.57871 0.00507 0.44814
 C28 C 0.44128 0.02062 0.54867
 C29 C -0.04640 -0.10877 0.22723
 C30 C -0.09768 -0.10513 0.25342
 C31 C -0.09729 -0.05272 0.27165
 C32 C -0.04535 -0.00846 0.26238
 C33 C -0.05562 -0.04732 0.19986
 C34 C -0.05536 0.00529 0.21780
 C35 C 0.01446 -0.10248 0.25454
 C36 C 0.01543 -0.05014 0.27266
 H37 H -0.13055 -0.14085 0.25837
 H38 H -0.04487 0.03351 0.27788
 H39 H -0.05970 -0.04617 0.16864
 H40 H 0.05323 -0.13712 0.25951
 C41 C 0.12157 0.03613 0.73233
 C42 C 0.11793 -0.01983 0.76349
 C43 C 0.06478 -0.01863 0.78038
 C44 C 0.01985 0.03844 0.76508
 C45 C 0.06042 0.03501 0.70424
 C46 C 0.00738 0.03629 0.72108
 C47 C 0.11330 0.09351 0.75331
 C48 C 0.06055 0.09486 0.77060
 H49 H 0.15064 -0.05992 0.76969
 H50 H -0.02312 0.03900 0.77926
 H51 H 0.05958 0.03182 0.67356
 H52 H 0.14767 0.12892 0.75541
 C53 C -0.03630 -0.30867 0.12945
 C54 C 0.02061 -0.34054 0.12695
 C55 C 0.02354 -0.38270 0.09991
 C56 C -0.03042 -0.39412 0.07478
 C57 C -0.08773 -0.36352 0.07794
 C58 C -0.09063 -0.32118 0.10498
 C59 C -0.03824 -0.26045 0.15620
 C60 C -0.08906 -0.25430 0.17681
 C61 C -0.09195 -0.20684 0.20055
 C62 C -0.04368 -0.16452 0.20445
 C63 C 0.00716 -0.17125 0.18378
 C64 C 0.00999 -0.21857 0.16015
 H65 H 0.06834 -0.40588 0.09844
 H66 H -0.13012 -0.37128 0.05897
 H67 H -0.13299 -0.20314 0.21469
 H68 H 0.04435 -0.13869 0.18528
 H69 H -0.13502 -0.29682 0.10591
 H70 H -0.12686 -0.28607 0.17441
 H71 H 0.06305 -0.33263 0.14583
 H72 H 0.04914 -0.22114 0.14401
 C73 C -0.05423 0.24380 0.12371
 C74 C 0.00471 0.26934 0.12267
 C75 C 0.01179 0.32147 0.09621
 C76 C -0.03999 0.34940 0.07035
 C77 C -0.09923 0.32467 0.07197
 C78 C -0.10622 0.27229 0.09829
 C79 C -0.06043 0.18545 0.14958
 C80 C -0.09512 0.13708 0.13534
 C81 C -0.09564 0.07954 0.15813
 C82 C -0.06134 0.06891 0.19571
 C83 C -0.02990 0.11862 0.21080
 C84 C -0.02896 0.17614 0.18786
 H85 H 0.05801 0.33951 0.09578
 H86 H -0.14011 0.34528 0.05255
 H87 H -0.12210 0.04302 0.14594
 H88 H -0.00402 0.11274 0.23975
 H89 H -0.15229 0.25388 0.09869
 H90 H -0.11988 0.14283 0.10597
 H91 H 0.04575 0.24786 0.14156
 H92 H -0.00280 0.21309 0.19982
 C93 C 0.32017 0.03408 0.63551
 C94 C 0.33944 -0.02455 0.62627
 C95 C 0.37937 -0.02893 0.59846
 C96 C 0.40075 0.02524 0.57909
 C97 C 0.38236 0.08385 0.58874
 C98 C 0.34259 0.08821 0.61669
 C99 C 0.27431 0.03852 0.66314
 C100 C 0.22555 0.08503 0.65550
 C101 C 0.17870 0.08532 0.67924
 C102 C 0.17854 0.03856 0.71088
 C103 C 0.22977 -0.00555 0.71994
 C104 C 0.27685 -0.00562 0.69625
 H105 H 0.39258 -0.07478 0.59165
 H106 H 0.39842 0.12646 0.57455
 H107 H 0.14072 0.12075 0.67188
 H108 H 0.23405 -0.04079 0.74479
 H109 H 0.32930 0.13401 0.62352
 H110 H 0.22201 0.11972 0.63020
 H111 H 0.32222 -0.06711 0.63974
 H112 H 0.31497 -0.04087 0.70360
 C113 C -0.23374 0.02261 0.62822
 C114 C -0.25802 -0.03479 0.62036
 C115 C -0.31278 -0.03667 0.59419
 C116 C -0.34431 0.01896 0.57483
 C117 C -0.32044 0.07654 0.58344
 C118 C -0.26593 0.07826 0.61000
 C119 C -0.17311 0.02419 0.65365
 C120 C -0.16556 0.06455 0.68242
 C121 C -0.10724 0.06727 0.70523
 C122 C -0.05539 0.03069 0.69904
 C123 C -0.06335 -0.01043 0.67074
 C124 C -0.12164 -0.01382 0.64839
 H125 H -0.32962 -0.08198 0.58869
 H126 H -0.34337 0.12041 0.56936
 H127 H -0.10235 0.09919 0.72687
 H128 H -0.02437 -0.03997 0.66581
 H129 H -0.24779 0.12312 0.61539
 H130 H -0.20474 0.09396 0.68719
 H131 H -0.23432 -0.07835 0.63434
 H132 H -0.12611 -0.04509 0.62627
 C133 C 0.01805 -0.24303 0.87752
 C134 C 0.06992 -0.28318 0.89440
 C135 C 0.06197 -0.33901 0.91733
 C136 C 0.00167 -0.35735 0.92334
 C137 C -0.05049 -0.31833 0.90533
 C138 C -0.04234 -0.26162 0.88313
 C139 C 0.02734 -0.18235 0.85419
 C140 C -0.01710 -0.15731 0.82223
 C141 C -0.00635 -0.10212 0.79932
 C142 C 0.04953 -0.07171 0.80740
 C143 C 0.09321 -0.09541 0.83965
 C144 C 0.08187 -0.14957 0.86313
 H145 H 0.10339 -0.36792 0.93021
 H146 H -0.09772 -0.33049 0.90933
 H147 H -0.04029 -0.08478 0.77422
 H148 H 0.13643 -0.07218 0.84646
 H149 H -0.08348 -0.23184 0.87110
 H150 H -0.05921 -0.18134 0.81399
 H151 H 0.11706 -0.27182 0.88982
 H152 H 0.11629 -0.16590 0.88812
 C153 C 0.01392 0.28888 0.86583
 C154 C -0.04365 0.29668 0.87985
 C155 C -0.05221 0.34237 0.90416
 C156 C -0.00308 0.38042 0.91548
 C157 C 0.05377 0.37376 0.90082
 C158 C 0.06193 0.32912 0.87597
 C159 C 0.02491 0.23813 0.84172
 C160 C 0.08480 0.20816 0.84511
 C161 C 0.09609 0.16180 0.82201
 C162 C 0.04760 0.14328 0.79540
 C163 C -0.01264 0.17155 0.79261
 C164 C -0.02382 0.21892 0.81526
 H165 H -0.09640 0.34629 0.91530
 H166 H 0.09219 0.40303 0.90871
 H167 H 0.14273 0.13974 0.82532
 H168 H -0.05069 0.15825 0.77221
 H169 H 0.10620 0.32603 0.86488
 H170 H 0.12311 0.22000 0.86595
 H171 H -0.08149 0.26626 0.87310
 H172 H -0.07036 0.24124 0.81145
 C173 C -0.28512 -0.01335 0.37067
 C174 C -0.29501 0.04376 0.38512
 C175 C -0.34073 0.05050 0.40927
 C176 C -0.37695 0.00005 0.41990
 C177 C -0.36806 -0.05653 0.40488
 C178 C -0.32317 -0.06297 0.38030
 C179 C -0.23472 -0.02199 0.34635
 C180 C -0.20170 -0.08018 0.34951
 C181 C -0.15646 -0.08971 0.32566
 C182 C -0.14230 -0.04105 0.29849
 C183 C -0.17321 0.01781 0.29613
 C184 C -0.21937 0.02718 0.31962
 H185 H -0.34628 0.09456 0.42066
 H186 H -0.39574 -0.09602 0.41225
 H187 H -0.13233 -0.13523 0.32852
 H188 H -0.16323 0.05590 0.27518
 H189 H -0.31829 -0.10707 0.36889
 H190 H -0.21064 -0.11858 0.37053
 H191 H -0.26626 0.08278 0.37873
 H192 H -0.24412 0.07243 0.31608
 C193 C 0.24209 -0.01085 0.37419
 C194 C 0.28475 -0.06252 0.38621
 C195 C 0.34104 -0.05661 0.41018
 C196 C 0.35667 0.00129 0.42239
 C197 C 0.31512 0.05353 0.40953
 C198 C 0.25827 0.04747 0.38580
 C199 C 0.18114 -0.01845 0.34980
 C200 C 0.15527 0.02842 0.31987
 C201 C 0.09994 0.01914 0.29559
 C202 C 0.06976 -0.03718 0.30061
 C203 C 0.09446 -0.08333 0.33101
 C204 C 0.14920 -0.07390 0.35554
 H205 H 0.37234 -0.09763 0.41925
 H206 H 0.32575 0.09868 0.41867
 H207 H 0.08251 0.05472 0.27182
 H208 H 0.07158 -0.12701 0.33553
 H209 H 0.22637 0.08813 0.37735
 H210 H 0.17895 0.07132 0.31427
 H211 H 0.27479 -0.10775 0.37701
 H212 H 0.16675 -0.11036 0.37886
   
