data_POSCAR
  _audit_creation_date              2014-09-24
  _audit_creation_method            'ToBaCCo'
  _symmetry_space_group_name_H-M    'P1'
  _symmetry_Int_Tables_number       1
  _symmetry_cell_setting            triclinic
  loop_
  _symmetry_equiv_pos_as_xyz
 x,y,z
_cell_length_a 45.5385
_cell_length_b 45.4771
_cell_length_c 45.5018
_cell_angle_alpha 89.967300
_cell_angle_beta 90.005000
_cell_angle_gamma 90.033100
loop_
  _atom_site_label
  _atom_site_type_symbol
  _atom_site_fract_x
  _atom_site_fract_y
  _atom_site_fract_z
C1 C 0.20708 1.22755 0.18610
 C2 C 0.22866 1.20556 0.18668
 C3 C 0.22807 1.18427 0.20838
 C4 C 0.20595 1.18475 0.22983
 C5 C 0.18479 1.20638 0.22922
 C6 C 0.18538 1.22799 0.20720
 C7 C 0.20129 1.25004 0.16676
 N8 N 0.17639 1.26441 0.17539
 C9 C 0.16675 1.25075 0.20036
 C10 C 0.16534 1.20047 0.25156
 N11 N 0.17397 1.17555 0.26599
 C12 C 0.19906 1.16604 0.25253
 C13 C 0.25052 1.16490 0.20260
 N14 N 0.26476 1.17386 0.17789
 C15 C 0.25148 1.19878 0.16807
 H16 H 0.21453 1.25497 0.14769
 H17 H 0.14710 1.25595 0.21258
 H18 H 0.14619 1.21362 0.25633
 H19 H 0.21132 1.14641 0.25781
 H20 H 0.25587 1.14554 0.21537
 H21 H 0.25725 1.21057 0.14822
 C22 C 0.79465 0.76929 0.18460
 C23 C 0.77262 0.79083 0.18435
 C24 C 0.77223 0.81240 0.20574
 C25 C 0.79393 0.81276 0.22763
 C26 C 0.81558 0.79162 0.22780
 C27 C 0.81595 0.76970 0.20610
 C28 C 0.80136 0.74668 0.16573
 N29 N 0.82647 0.73309 0.17503
 C30 C 0.83530 0.74734 0.19996
 C31 C 0.83442 0.79828 0.25044
 N32 N 0.82492 0.82317 0.26432
 C33 C 0.79991 0.83193 0.25019
 C34 C 0.74943 0.83113 0.19919
 N35 N 0.73597 0.82151 0.17430
 C36 C 0.75007 0.79680 0.16514
 H37 H 0.78897 0.74157 0.14615
 H38 H 0.85453 0.74246 0.21295
 H39 H 0.85378 0.78566 0.25576
 H40 H 0.78706 0.85130 0.25496
 H41 H 0.74379 0.85092 0.21112
 H42 H 0.74456 0.78416 0.14576
 C43 C 0.79355 1.22955 -0.18405
 C44 C 0.77153 1.20798 -0.18365
 C45 C 0.77099 1.18641 -0.20504
 C46 C 0.79254 1.18608 -0.22707
 C47 C 0.81415 1.20730 -0.22743
 C48 C 0.81469 1.22919 -0.20571
 C49 C 0.80036 1.25218 -0.16523
 N50 N 0.82538 1.26583 -0.17471
 C51 C 0.83405 1.25160 -0.19971
 C52 C 0.83279 1.20070 -0.25025
 N53 N 0.82323 1.17576 -0.26402
 C54 C 0.79838 1.16691 -0.24966
 C55 C 0.74826 1.16763 -0.19833
 N56 N 0.73499 1.17722 -0.17333
 C57 C 0.74913 1.20195 -0.16427
 H58 H 0.78811 1.25726 -0.14556
 H59 H 0.85316 1.25656 -0.21286
 H60 H 0.85238 1.21306 -0.25542
 H61 H 0.78522 1.14780 -0.25465
 H62 H 0.74256 1.14782 -0.21020
 H63 H 0.74375 1.21457 -0.14485
 C64 C 0.20652 0.77323 -0.18702
 C65 C 0.22825 0.79510 -0.18714
 C66 C 0.22801 0.81664 -0.20859
 C67 C 0.20607 0.81657 -0.23023
 C68 C 0.18477 0.79505 -0.23010
 C69 C 0.18497 0.77322 -0.20829
 C70 C 0.20040 0.75053 -0.16802
 N71 N 0.17542 0.73647 -0.17701
 C72 C 0.16608 0.75052 -0.20187
 C73 C 0.16558 0.80135 -0.25255
 N74 N 0.17448 0.82642 -0.26656
 C75 C 0.19950 0.83563 -0.25273
 C76 C 0.25054 0.83582 -0.20237
 N77 N 0.26449 0.82648 -0.17763
 C78 C 0.25096 0.80152 -0.16824
 H79 H 0.21314 0.74562 -0.14861
 H80 H 0.14680 0.74528 -0.21465
 H81 H 0.14608 0.78868 -0.25730
 H82 H 0.21224 0.85496 -0.25796
 H83 H 0.25613 0.85529 -0.21485
 H84 H 0.25647 0.78946 -0.14849
 C85 C 0.54499 1.03998 -0.00771
 H86 H 0.54577 1.03967 0.01605
 C87 C 0.56486 1.05725 -0.02348
 H88 H 0.58096 1.07039 -0.01186
 C89 C 0.52361 1.02262 -0.05197
 H90 H 0.50791 1.00866 -0.06300
 C91 C 0.54311 1.03957 -0.06859
 H92 H 0.54219 1.03881 -0.09237
 N93 N 0.52479 1.02326 -0.02208
 C94 C 0.45523 1.00798 0.04201
 H95 H 0.45446 0.98420 0.04174
 C96 C 0.43537 1.02375 0.05924
 H97 H 0.41929 1.01212 0.07241
 C98 C 0.47655 1.05227 0.02454
 H99 H 0.49221 1.06332 0.01053
 C100 C 0.45706 1.06889 0.04145
 H101 H 0.45795 1.09269 0.04063
 Zn102 Zn 0.50005 0.99917 0.00112
 N103 N 0.47539 1.02236 0.02524
 C104 C 0.52372 0.97568 0.05415
 N105 N 0.52479 0.97503 0.02425
 C106 C 0.54490 0.95829 0.00981
 C107 C 0.56481 0.94103 0.02552
 C108 C 0.54326 0.95874 0.07070
 C109 C 0.45509 0.99049 -0.03963
 C110 C 0.43517 0.97480 -0.05689
 C111 C 0.45679 0.92957 -0.03926
 C112 C 0.47634 0.94612 -0.02232
 N113 N 0.47525 0.97604 -0.02294
 H114 H 0.50809 0.98967 0.06523
 H115 H 0.54559 0.95859 -0.01395
 H116 H 0.58085 0.92788 0.01385
 H117 H 0.54245 0.95951 0.09448
 H118 H 0.45439 1.01427 -0.03930
 H119 H 0.41911 0.98649 -0.07001
 H120 H 0.45763 0.90578 -0.03853
 H121 H 0.49200 0.93502 -0.00838
 C122 C 0.43626 1.05448 0.05890
 C123 C 0.56394 1.05699 -0.05419
 C124 C 0.43600 0.94407 -0.05665
 C125 C 0.56402 0.94131 0.05623
 C126 C -0.00629 0.54475 1.03998
 H127 H 0.01745 0.54564 1.03992
 C128 C -0.02231 0.56449 1.05714
 H129 H -0.01090 0.58061 1.07046
 C130 C -0.05025 0.52321 1.02209
 H131 H -0.06107 0.50751 1.00796
 C132 C -0.06711 0.54257 1.03892
 H133 H -0.09085 0.54154 1.03792
 N134 N -0.02040 0.52453 1.02305
 C135 C 0.04399 0.45513 1.00831
 H136 H 0.04400 0.45444 0.98454
 C137 C 0.06105 0.43521 1.02424
 H138 H 0.07436 0.41918 1.01275
 C139 C 0.02597 0.47628 1.05241
 H140 H 0.01182 0.49188 1.06332
 C141 C 0.04271 0.45674 1.06919
 H142 H 0.04160 0.45754 1.09295
 Zn143 Zn 0.00310 0.49994 0.99915
 N144 N 0.02702 0.47522 1.02253
 C145 C 0.05625 0.52386 0.97623
 N146 N 0.02638 0.52487 0.97534
 C147 C 0.01206 0.54505 0.95853
 C148 C 0.02785 0.56507 0.94145
 C149 C 0.07289 0.54351 0.95947
 C150 C -0.03742 0.45482 0.98989
 C151 C -0.05453 0.43496 0.97394
 C152 C -0.03656 0.45692 0.92902
 C153 C -0.01978 0.47641 0.94581
 N154 N -0.02065 0.47513 0.97569
 H155 H 0.06723 0.50817 0.99025
 H156 H -0.01169 0.54570 0.95864
 H157 H 0.01627 0.58115 0.92825
 H158 H 0.09665 0.54272 0.96043
 H159 H -0.03729 0.45397 1.01365
 H160 H -0.06773 0.41880 0.98542
 H161 H -0.03565 0.45794 0.90525
 H162 H -0.00578 0.49219 0.93492
 C163 C 0.06035 0.43599 1.05495
 C164 C -0.05298 0.56342 1.05656
 C165 C -0.05405 0.43600 0.94324
 C166 C 0.05854 0.56432 0.94198
 C167 C 1.03727 -0.00834 0.54489
 H168 H 1.03712 0.01543 0.54574
 C169 C 1.05441 -0.02429 0.56471
 H170 H 1.06763 -0.01280 0.58084
 C171 C 1.01964 -0.05245 0.52335
 H172 H 1.00564 -0.06335 0.50760
 C173 C 1.03647 -0.06925 0.54280
 H174 H 1.03558 -0.09303 0.54178
 N175 N 1.02048 -0.02255 0.52462
 C176 C 1.00605 0.04182 0.45504
 H177 H 0.98231 0.04177 0.45419
 C178 C 1.02205 0.05897 0.43524
 H179 H 1.01064 0.07229 0.41914
 C180 C 1.05002 0.02389 0.47650
 H181 H 1.06084 0.00975 0.49218
 C182 C 1.06686 0.04072 0.45709
 H183 H 1.09061 0.03968 0.45806
 Zn184 Zn 0.99669 0.00091 0.49985
 N185 N 1.02016 0.02487 0.47524
 C186 C 0.97377 0.05414 0.52353
 N187 N 0.97277 0.02423 0.52458
 C188 C 0.95585 0.00994 0.54469
 C189 C 0.93879 0.02581 0.56463
 C190 C 0.95703 0.07085 0.54310
 C191 C 0.98776 -0.03971 0.45479
 C192 C 0.97198 -0.05686 0.43484
 C193 C 0.92692 -0.03896 0.45645
 C194 C 0.94355 -0.02213 0.47604
 N195 N 0.97343 -0.02294 0.47497
 H196 H 0.98788 0.06509 0.50791
 H197 H 0.95588 -0.01384 0.54538
 H198 H 0.92552 0.01425 0.58068
 H199 H 0.95810 0.09464 0.54230
 H200 H 1.01150 -0.03954 0.45411
 H201 H 0.98357 -0.07005 0.41878
 H202 H 0.90316 -0.03808 0.45729
 H203 H 0.93256 -0.00813 0.49172
 C204 C 1.05273 0.05836 0.43625
 C205 C 1.05397 -0.05501 0.56367
 C206 C 0.94129 -0.05643 0.43566
 C207 C 0.93945 0.05654 0.56386
 C208 C 0.15925 0.32075 1.11885
 C209 C 0.13439 0.33396 1.13099
 C210 C 0.12395 0.32450 1.15824
 C211 C 0.13804 0.30166 1.17320
 C212 C 0.16301 0.28756 1.16114
 C213 C 0.17346 0.29791 1.13369
 C214 C 0.11915 0.35670 1.11512
 C215 C 0.10610 0.37540 1.10163
 C216 C 0.09050 0.39690 1.08561
 C217 C 0.07691 0.41491 1.07174
 H218 H 0.16751 0.32790 1.09769
 H219 H 0.10472 0.33467 1.16790
 H220 H 0.12904 0.29546 1.19423
 H221 H 0.19228 0.28831 1.12298
 C222 C -0.15655 0.67363 1.12181
 C223 C -0.12920 0.66421 1.13196
 C224 C -0.11695 0.67721 1.15690
 C225 C -0.13177 0.69982 1.17147
 C226 C -0.15931 0.71014 1.16131
 C227 C -0.17149 0.69624 1.13625
 C228 C -0.11335 0.64174 1.11635
 C229 C -0.09984 0.62327 1.10302
 C230 C -0.08378 0.60204 1.08713
 C231 C -0.06986 0.58424 1.07332
 H232 H -0.16629 0.66362 1.10252
 H233 H -0.09572 0.67008 1.16495
 H234 H -0.12097 0.70926 1.19034
 H235 H -0.19259 0.70243 1.12745
 C236 C -0.11798 0.32182 0.84308
 C237 C -0.13015 0.33488 0.86801
 C238 C -0.15746 0.32546 0.87828
 C239 C -0.17245 0.30280 0.86394
 C240 C -0.16036 0.28883 0.83889
 C241 C -0.13284 0.29915 0.82861
 C242 C -0.11425 0.35742 0.88352
 C243 C -0.10075 0.37595 0.89679
 C244 C -0.08472 0.39725 0.91264
 C245 C -0.07084 0.41510 0.92645
 H246 H -0.09677 0.32895 0.83495
 H247 H -0.16714 0.33552 0.89756
 H248 H -0.19353 0.29661 0.87282
 H249 H -0.12211 0.28966 0.80975
 C250 C 0.12023 0.67927 0.84154
 C251 C 0.13283 0.66666 0.86650
 C252 C 0.15996 0.67681 0.87656
 C253 C 0.17433 0.69974 0.86198
 C254 C 0.16178 0.71324 0.83687
 C255 C 0.13446 0.70220 0.82683
 C256 C 0.11755 0.64384 0.88223
 C257 C 0.10446 0.62508 0.89560
 C258 C 0.08880 0.60351 0.91150
 C259 C 0.07516 0.58544 0.92528
 H260 H 0.09916 0.67158 0.83357
 H261 H 0.16998 0.66712 0.89587
 H262 H 0.19527 0.70651 0.87073
 H263 H 0.12341 0.71126 0.80793
 C264 C 1.11712 0.15800 0.32181
 C265 C 1.12924 0.13313 0.33507
 C266 C 1.15659 0.12282 0.32584
 C267 C 1.17167 0.13706 0.30316
 C268 C 1.15962 0.16205 0.28900
 C269 C 1.13207 0.17237 0.29913
 C270 C 1.11326 0.11772 0.35762
 C271 C 1.09968 0.10453 0.37616
 C272 C 1.08356 0.08878 0.39747
 C273 C 1.06961 0.07506 0.41534
 H274 H 1.09589 0.16616 0.32879
 H275 H 1.16624 0.10359 0.33605
 H276 H 1.19276 0.12816 0.29713
 H277 H 1.12137 0.19119 0.28948
 C278 C 1.12028 -0.15751 0.67462
 C279 C 1.13030 -0.13031 0.66455
 C280 C 1.15545 -0.11786 0.67690
 C281 C 1.17039 -0.13232 0.69951
 C282 C 1.16039 -0.15972 0.71049
 C283 C 1.13509 -0.17211 0.69724
 C284 C 1.11436 -0.11478 0.64206
 C285 C 1.10081 -0.10149 0.62358
 C286 C 1.08472 -0.08562 0.60233
 C287 C 1.07081 -0.07181 0.58452
 H288 H 1.10082 -0.16741 0.66512
 H289 H 1.16341 -0.09674 0.66925
 H290 H 1.18944 -0.12139 0.70838
 H291 H 1.12635 -0.19310 0.70398
 C292 C 0.87994 -0.15767 0.32143
 C293 C 0.86723 -0.13265 0.33380
 C294 C 0.84010 -0.12275 0.32353
 C295 C 0.82583 -0.13755 0.30071
 C296 C 0.83848 -0.16272 0.28745
 C297 C 0.86580 -0.17260 0.29861
 C298 C 0.88243 -0.11671 0.35652
 C299 C 0.89546 -0.10318 0.37519
 C300 C 0.91106 -0.08713 0.39665
 C301 C 0.92468 -0.07323 0.41463
 H302 H 0.90101 -0.16553 0.32923
 H303 H 0.83001 -0.10339 0.33304
 H304 H 0.80488 -0.12891 0.29382
 H305 H 0.87691 -0.19154 0.28975
 C306 C 0.84049 0.11966 0.67930
 C307 C 0.86532 0.13197 0.66616
 C308 C 0.87570 0.15920 0.67578
 C309 C 0.86159 0.17396 0.69871
 C310 C 0.83664 0.16172 0.71274
 C311 C 0.82624 0.13430 0.70224
 C312 C 0.88060 0.11629 0.64335
 C313 C 0.89367 0.10294 0.62459
 C314 C 0.90929 0.08704 0.60303
 C315 C 0.92289 0.07325 0.58497
 H316 H 0.83227 0.09852 0.67203
 H317 H 0.89491 0.16899 0.66567
 H318 H 0.87055 0.19498 0.70504
 H319 H 0.80745 0.12346 0.71176
 C320 C 0.31452 1.11337 0.15190
 C321 C 0.33444 1.12905 0.13450
 C322 C 0.33174 1.15958 0.13184
 C323 C 0.30904 1.17437 0.14632
 C324 C 0.28871 1.15877 0.16367
 C325 C 0.29183 1.12809 0.16641
 C326 C 0.35716 1.11365 0.11881
 C327 C 0.37584 1.10049 0.10544
 C328 C 0.39729 1.08477 0.08952
 C329 C 0.41526 1.07110 0.07569
 H330 H 0.31632 1.08971 0.15399
 H331 H 0.34706 1.17195 0.11844
 H332 H 0.30748 1.19800 0.14406
 H333 H 0.27635 1.11536 0.17920
 C334 C 0.66821 1.13074 -0.15918
 C335 C 0.66554 1.13320 -0.12865
 C336 C 0.68542 1.15059 -0.11292
 C337 C 0.70804 1.16530 -0.12760
 C338 C 0.71112 1.16277 -0.15828
 C339 C 0.69084 1.14542 -0.17392
 C340 C 0.64288 1.11733 -0.11330
 C341 C 0.62425 1.10383 -0.10016
 C342 C 0.60284 1.08778 -0.08447
 C343 C 0.58491 1.07386 -0.07081
 H344 H 0.65292 1.11735 -0.17158
 H345 H 0.68364 1.15253 -0.08926
 H346 H 0.72348 1.17809 -0.11484
 H347 H 0.69237 1.14332 -0.19755
 C348 C 0.33118 0.83985 -0.13086
 C349 C 0.33412 0.87040 -0.13317
 C350 C 0.31444 0.88638 -0.15055
 C351 C 0.29176 0.87195 -0.16539
 C352 C 0.28841 0.84127 -0.16302
 C353 C 0.30849 0.82536 -0.14568
 C354 C 0.35686 0.88550 -0.11719
 C355 C 0.37554 0.89846 -0.10361
 C356 C 0.39701 0.91398 -0.08750
 C357 C 0.41499 0.92754 -0.07354
 H358 H 0.34632 0.82725 -0.11748
 H359 H 0.31643 0.91006 -0.15237
 H360 H 0.27648 0.88492 -0.17817
 H361 H 0.30675 0.80172 -0.14369
 C362 C 0.68590 0.84799 0.11426
 C363 C 0.66612 0.86534 0.13012
 C364 C 0.66903 0.86782 0.16064
 C365 C 0.69179 0.85320 0.17521
 C366 C 0.71197 0.83589 0.15943
 C367 C 0.70865 0.83334 0.12877
 C368 C 0.64333 0.88115 0.11494
 C369 C 0.62459 0.89460 0.10192
 C370 C 0.60308 0.91060 0.08635
 C371 C 0.58507 0.92448 0.07277
 H372 H 0.68394 0.84603 0.09061
 H373 H 0.65381 0.88118 0.17314
 H374 H 0.69350 0.85532 0.19883
 H375 H 0.72401 0.82059 0.11589
   
