data_POSCAR
  _audit_creation_date              2014-09-24
  _audit_creation_method            'ToBaCCo'
  _symmetry_space_group_name_H-M    'P1'
  _symmetry_Int_Tables_number       1
  _symmetry_cell_setting            triclinic
  loop_
  _symmetry_equiv_pos_as_xyz
 x,y,z
_cell_length_a 29.3317
_cell_length_b 32.2962
_cell_length_c 7.2246
_cell_angle_alpha 89.746200
_cell_angle_beta 87.930200
_cell_angle_gamma 90.167100
loop_
  _atom_site_label
  _atom_site_type_symbol
  _atom_site_fract_x
  _atom_site_fract_y
  _atom_site_fract_z
O1 O 0.22419 0.29474 0.04904
 O2 O 0.30582 0.21305 0.16858
 O3 O 0.22363 0.21375 0.04442
 O4 O 0.30713 0.29367 0.16180
 O5 O 0.28161 0.29434 0.45254
 O6 O 0.19852 0.21313 0.33371
 O7 O 0.28044 0.21287 0.45955
 O8 O 0.19847 0.29382 0.33963
 Cu9 Cu 0.26805 0.25373 0.07777
 Cu10 Cu 0.23697 0.25349 0.42481
 C11 C 0.19761 0.30865 0.17691
 C12 C 0.30683 0.19860 0.33219
 C13 C 0.19674 0.19908 0.16968
 C14 C 0.30821 0.30841 0.32396
 O15 O 0.80798 0.28998 0.32953
 O16 O 0.72273 0.21168 0.47222
 O17 O 0.80503 0.20997 0.32944
 O18 O 0.72219 0.29143 0.44877
 O19 O 0.69978 0.28987 0.16087
 O20 O 0.78264 0.20797 0.04179
 O21 O 0.70056 0.21032 0.18624
 O22 O 0.78578 0.28850 0.04129
 Cu23 Cu 0.76720 0.25117 0.42125
 Cu24 Cu 0.73966 0.24920 0.08051
 C25 C 0.81256 0.30177 0.16250
 C26 C 0.69643 0.19748 0.35245
 C27 C 0.80775 0.19461 0.16821
 C28 C 0.69533 0.30334 0.32507
 O29 O 0.72437 0.79602 0.53717
 O30 O 0.80840 0.71566 0.64926
 O31 O 0.72627 0.71456 0.52842
 O32 O 0.80757 0.79684 0.64199
 O33 O 0.78697 0.79381 0.93754
 O34 O 0.70149 0.71495 0.82005
 O35 O 0.78318 0.71311 0.94040
 O36 O 0.70255 0.79578 0.83234
 Cu37 Cu 0.76945 0.75585 0.56081
 Cu38 Cu 0.74064 0.75454 0.91080
 C39 C 0.69970 0.81043 0.67009
 C40 C 0.80943 0.69985 0.81044
 C41 C 0.70020 0.70023 0.65767
 C42 C 0.81136 0.80978 0.80617
 O43 O 0.28565 0.71329 0.54404
 O44 O 0.20034 0.79109 0.68674
 O45 O 0.28535 0.79289 0.56265
 O46 O 0.20201 0.71118 0.68011
 O47 O 0.22210 0.71006 0.96894
 O48 O 0.30893 0.78893 0.84851
 O49 O 0.22341 0.78997 0.97390
 O50 O 0.30520 0.70884 0.83351
 Cu51 Cu 0.24070 0.75242 0.59192
 Cu52 Cu 0.26760 0.74933 0.93300
 C53 C 0.31037 0.69754 0.66613
 C54 C 0.19650 0.80325 0.85305
 C55 C 0.31284 0.80362 0.68564
 C56 C 0.19684 0.69677 0.84347
 C57 C 1.04640 0.08971 0.03866
 C58 C 1.00470 0.11074 0.04227
 C59 C 0.96329 0.08953 0.03238
 C60 C 0.96309 0.04621 0.00752
 C61 C 1.00480 0.02425 0.00599
 C62 C 1.04659 0.04587 0.02569
 C63 C 1.08715 0.02302 0.03579
 C64 C 1.08689 -0.01998 0.02011
 C65 C 1.04605 -0.04177 -0.00614
 C66 C 1.00454 -0.01954 -0.01077
 C67 C 0.92202 0.02429 -0.01060
 C68 C 0.92185 -0.01846 -0.03030
 C69 C 0.96273 -0.04100 -0.03192
 C70 C 0.96287 -0.08448 -0.05499
 C71 C 1.00405 -0.10593 -0.05017
 C72 C 1.04544 -0.08532 -0.02537
 H73 H 1.11949 0.03817 0.05669
 H74 H 1.11907 -0.03601 0.02948
 H75 H 0.88952 0.04008 -0.01024
 H76 H 0.88922 -0.03375 -0.04266
 H77 H 1.00436 0.14407 0.06043
 H78 H 1.00405 -0.13921 -0.07031
 C79 C 0.55023 0.58931 0.52515
 C80 C 0.50947 0.61158 0.52998
 C81 C 0.46712 0.59172 0.52371
 C82 C 0.46519 0.54800 0.51181
 C83 C 0.50632 0.52512 0.49663
 C84 C 0.54902 0.54580 0.50294
 C85 C 0.58931 0.52241 0.49055
 C86 C 0.58775 0.47952 0.47351
 C87 C 0.54583 0.45846 0.46547
 C88 C 0.50473 0.48138 0.47876
 C89 C 0.42334 0.52652 0.51791
 C90 C 0.42177 0.48377 0.49664
 C91 C 0.46202 0.46066 0.47417
 C92 C 0.46070 0.41729 0.44727
 C93 C 0.50153 0.39515 0.43541
 C94 C 0.54383 0.41498 0.44634
 H95 H 0.62247 0.53714 0.49406
 H96 H 0.61982 0.46304 0.46684
 H97 H 0.39124 0.54253 0.53817
 H98 H 0.38863 0.46889 0.49920
 H99 H 0.51065 0.64495 0.54594
 H100 H 0.50044 0.36192 0.41434
 C101 C -0.03675 0.41425 0.02886
 C102 C 0.00531 0.39453 0.04537
 C103 C 0.04621 0.41678 0.03757
 C104 C 0.04529 0.46009 0.00855
 C105 C 0.00277 0.48071 -0.00157
 C106 C -0.03847 0.45772 0.00814
 C107 C -0.08019 0.47873 -0.00431
 C108 C -0.08144 0.52164 -0.02216
 C109 C -0.04099 0.54506 -0.03159
 C110 C 0.00150 0.52443 -0.02064
 C111 C 0.08576 0.48326 -0.01033
 C112 C 0.08453 0.52600 -0.03273
 C113 C 0.04277 0.54736 -0.03149
 C114 C 0.04113 0.59106 -0.04345
 C115 C -0.00095 0.61090 -0.05508
 C116 C -0.04178 0.58859 -0.05459
 H117 H -0.11235 0.46220 -0.00054
 H118 H -0.11446 0.53633 -0.02879
 H119 H 0.11881 0.46844 -0.00904
 H120 H 0.11678 0.54211 -0.04987
 H121 H 0.00613 0.36132 0.06828
 H122 H -0.00181 0.64432 -0.07060
 C123 C 0.54059 1.09359 0.49675
 C124 C 0.49827 1.11324 0.48697
 C125 C 0.45757 1.09067 0.48688
 C126 C 0.45873 1.04715 0.50984
 C127 C 0.50138 1.02673 0.51865
 C128 C 0.54251 1.04988 0.50649
 C129 C 0.58439 1.02866 0.50009
 C130 C 0.58593 0.98582 0.51798
 C131 C 0.54566 0.96246 0.53937
 C132 C 0.50297 0.98297 0.53512
 C133 C 0.41843 1.02351 0.52011
 C134 C 0.41997 0.98061 0.53749
 C135 C 0.46187 0.95979 0.54666
 C136 C 0.46390 0.91630 0.56492
 C137 C 0.50614 0.89665 0.57560
 C138 C 0.54692 0.91904 0.56446
 H139 H 0.61651 1.04492 0.48150
 H140 H 0.61907 0.97112 0.51433
 H141 H 0.38529 1.03805 0.51531
 H142 H 0.38791 0.96392 0.54304
 H143 H 0.49717 1.14663 0.47069
 H144 H 0.50723 0.86334 0.59544
 C145 C 1.16228 0.14548 -0.04036
 C146 C 1.16366 0.16838 0.12964
 C147 C 1.12858 0.16130 0.26485
 C148 C 1.09218 0.13508 0.23331
 C149 C 1.08843 0.11484 0.06448
 C150 C 1.12335 0.11999 -0.07465
 C151 C 1.19871 0.14559 -0.17511
 C152 C 1.19539 0.12431 -0.34161
 C153 C 1.15624 0.10197 -0.37821
 C154 C 1.12042 0.09988 -0.24696
 H155 H 1.23102 0.16032 -0.15384
 H156 H 1.22356 0.12502 -0.44268
 H157 H 1.15387 0.08569 -0.50818
 H158 H 1.09074 0.08185 -0.28071
 H159 H 1.12815 0.17713 0.39683
 H160 H 1.06591 0.13121 0.34152
 C161 C 0.65499 0.63558 0.75247
 C162 C 0.66702 0.66681 0.61972
 C163 C 0.64400 0.66842 0.45318
 C164 C 0.60754 0.64191 0.42218
 C165 C 0.59290 0.61291 0.55639
 C166 C 0.61659 0.60953 0.72354
 C167 C 0.68039 0.62932 0.91297
 C168 C 0.66656 0.60017 1.04659
 C169 C 0.62737 0.57671 1.02362
 C170 C 0.60248 0.58125 0.86422
 H171 H 0.71162 0.64608 0.93549
 H172 H 0.68622 0.59594 1.16924
 H173 H 0.61644 0.55455 1.12891
 H174 H 0.57235 0.56223 0.85237
 H175 H 0.65291 0.69166 0.34931
 H176 H 0.58950 0.64497 0.29456
 C177 C -0.12180 0.32719 -0.05020
 C178 C -0.15019 0.33114 0.11237
 C179 C -0.14150 0.36298 0.23783
 C180 C -0.10563 0.39054 0.20540
 C181 C -0.07820 0.38802 0.04352
 C182 C -0.08704 0.35714 -0.08903
 C183 C -0.12531 0.29311 -0.17030
 C184 C -0.09903 0.29110 -0.33488
 C185 C -0.06773 0.32232 -0.38014
 C186 C -0.06116 0.35480 -0.25740
 H187 H -0.14717 0.26717 -0.13551
 H188 H -0.10276 0.26505 -0.42702
 H189 H -0.04768 0.32084 -0.50872
 H190 H -0.03572 0.37798 -0.29510
 H191 H -0.16214 0.36603 0.36450
 H192 H -0.09860 0.41360 0.30917
 C193 C 0.37777 0.83077 0.47464
 C194 C 0.35033 0.83306 0.64068
 C195 C 0.36002 0.86323 0.77260
 C196 C 0.39597 0.89087 0.74311
 C197 C 0.42262 0.88988 0.57872
 C198 C 0.41290 0.86058 0.44038
 C199 C 0.37283 0.79847 0.34582
 C200 C 0.39864 0.79788 0.17985
 C201 C 0.43068 0.82883 0.14079
 C202 C 0.43822 0.85974 0.27029
 H203 H 0.35019 0.77275 0.37424
 H204 H 0.39396 0.77314 0.08163
 H205 H 0.45040 0.82845 0.01121
 H206 H 0.46402 0.88284 0.23637
 H207 H 0.34002 0.86497 0.90143
 H208 H 0.40367 0.91277 0.85094
 C209 C -0.14560 0.63557 -0.28523
 C210 C -0.15746 0.66652 -0.15266
 C211 C -0.13460 0.66782 0.01421
 C212 C -0.09849 0.64118 0.04604
 C213 C -0.08409 0.61232 -0.08753
 C214 C -0.10758 0.60928 -0.25521
 C215 C -0.17082 0.62980 -0.44633
 C216 C -0.15729 0.60069 -0.57912
 C217 C -0.11847 0.57694 -0.55504
 C218 C -0.09368 0.58113 -0.39525
 H219 H -0.20169 0.64691 -0.46997
 H220 H -0.17685 0.59675 -0.70211
 H221 H -0.10771 0.55488 -0.65990
 H222 H -0.06380 0.56195 -0.38246
 H223 H -0.14341 0.69089 0.11783
 H224 H -0.08056 0.64401 0.17394
 C225 C 0.35355 1.13468 0.24591
 C226 C 0.34034 1.16592 0.37505
 C227 C 0.36260 1.16846 0.54313
 C228 C 0.39936 1.14284 0.57925
 C229 C 0.41510 1.11381 0.44877
 C230 C 0.39228 1.10955 0.27993
 C231 C 0.32897 1.12750 0.08429
 C232 C 0.34382 1.09827 -0.04564
 C233 C 0.38334 1.07575 -0.01798
 C234 C 0.40751 1.08127 0.14257
 H235 H 0.29759 1.14359 0.05818
 H236 H 0.32473 1.09329 -0.16914
 H237 H 0.39509 1.05353 -0.12037
 H238 H 0.43799 1.06302 0.15787
 H239 H 0.35280 1.19176 0.64425
 H240 H 0.41664 1.14654 0.70823
 C241 C 1.13018 -0.17197 0.06162
 C242 C 1.15977 -0.16710 -0.09720
 C243 C 1.15246 -0.13434 -0.22053
 C244 C 1.11653 -0.10693 -0.19045
 C245 C 1.08750 -0.11067 -0.03332
 C246 C 1.09519 -0.14233 0.09802
 C247 C 1.13271 -0.20670 0.17983
 C248 C 1.10509 -0.20974 0.34070
 C249 C 1.07343 -0.17892 0.38385
 C250 C 1.06791 -0.14577 0.26252
 H251 H 1.15492 -0.23233 0.14640
 H252 H 1.10805 -0.23629 0.43153
 H253 H 1.05231 -0.18123 0.50951
 H254 H 1.04218 -0.12290 0.29829
 H255 H 1.17411 -0.13056 -0.34424
 H256 H 1.11050 -0.08324 -0.29334
 C257 C 0.63014 0.32967 0.53615
 C258 C 0.65783 0.33260 0.37066
 C259 C 0.64808 0.36305 0.23900
 C260 C 0.61194 0.39032 0.26819
 C261 C 0.58519 0.38878 0.43232
 C262 C 0.59497 0.35924 0.57052
 C263 C 0.63480 0.29695 0.66418
 C264 C 0.60899 0.29586 0.83018
 C265 C 0.57714 0.32669 0.86983
 C266 C 0.56966 0.35789 0.74063
 H267 H 0.65713 0.27123 0.63497
 H268 H 0.61351 0.27082 0.92789
 H269 H 0.55743 0.32592 0.99942
 H270 H 0.54391 0.38082 0.77480
 H271 H 0.66813 0.36528 0.11036
 H272 H 0.60424 0.41240 0.16044
 C273 C 0.85914 -0.12958 -0.29434
 C274 C 0.84399 -0.15931 -0.15809
 C275 C 0.86516 -0.15995 0.01339
 C276 C 0.90344 -0.13556 0.04351
 C277 C 0.92098 -0.10858 -0.09351
 C278 C 0.89882 -0.10523 -0.26385
 C279 C 0.83441 -0.12157 -0.45552
 C280 C 0.85017 -0.09287 -0.58780
 C281 C 0.89078 -0.07164 -0.56380
 C282 C 0.91508 -0.07775 -0.40411
 H283 H 0.80181 -0.13593 -0.47840
 H284 H 0.83080 -0.08717 -0.71009
 H285 H 0.90317 -0.04980 -0.66792
 H286 H 0.94621 -0.06018 -0.39051
 H287 H 0.85404 -0.18147 0.12147
 H288 H 0.92012 -0.13828 0.17437
 C289 C 0.35393 0.37266 0.22859
 C290 C 0.34186 0.34151 0.36169
 C291 C 0.36573 0.33932 0.52606
 C292 C 0.40304 0.36514 0.55416
 C293 C 0.41765 0.39398 0.41905
 C294 C 0.39298 0.39808 0.25478
 C295 C 0.32793 0.37938 0.07016
 C296 C 0.34163 0.40846 -0.06394
 C297 C 0.38118 0.43154 -0.04298
 C298 C 0.40673 0.42651 0.11428
 H299 H 0.29634 0.36300 0.04971
 H300 H 0.32152 0.41302 -0.18506
 H301 H 0.39187 0.45383 -0.14799
 H302 H 0.43713 0.44525 0.12457
 H303 H 0.35684 0.31609 0.62993
 H304 H 0.42164 0.36171 0.68021
 C305 C 0.15540 0.64440 0.05067
 C306 C 0.16139 0.66774 -0.11809
 C307 C 0.12836 0.66342 -0.25381
 C308 C 0.09024 0.63867 -0.22543
 C309 C 0.08274 0.61718 -0.05972
 C310 C 0.11471 0.62043 0.08184
 C311 C 0.18900 0.64239 0.18632
 C312 C 0.18162 0.62008 0.35039
 C313 C 0.14079 0.59906 0.38408
 C314 C 0.10736 0.59951 0.25244
 H315 H 0.22208 0.65619 0.16650
 H316 H 0.20787 0.61901 0.45192
 H317 H 0.13521 0.58191 0.51204
 H318 H 0.07611 0.58262 0.28401
 H319 H 0.13107 0.68010 -0.38429
 H320 H 0.06605 0.63632 -0.33497
 C321 C 0.65629 1.14669 0.57116
 C322 C 0.66091 1.16920 0.39979
 C323 C 0.62648 1.16471 0.26998
 C324 C 0.58836 1.14045 0.30595
 C325 C 0.58213 1.11973 0.47418
 C326 C 0.61555 1.12319 0.61028
 C327 C 0.69127 1.14494 0.70148
 C328 C 0.68506 1.12336 0.86814
 C329 C 0.64430 1.10273 0.90931
 C330 C 0.60965 1.10284 0.78284
 H331 H 0.72452 1.15839 0.67621
 H332 H 0.71220 1.12249 0.96579
 H333 H 0.63972 1.08613 1.03920
 H334 H 0.57855 1.08620 0.81994
 H335 H 0.62813 1.18084 0.13798
 H336 H 0.56323 1.13779 0.20012
 C337 C 0.15160 0.37262 0.26725
 C338 C 0.16409 0.34147 0.13649
 C339 C 0.14088 0.33901 -0.02936
 C340 C 0.10385 0.36465 -0.06148
 C341 C 0.08886 0.39356 0.07097
 C342 C 0.11278 0.39788 0.23694
 C343 C 0.17698 0.37954 0.42705
 C344 C 0.16290 0.40878 0.55835
 C345 C 0.12353 0.43171 0.53344
 C346 C 0.09855 0.42639 0.37493
 H347 H 0.20837 0.36323 0.45073
 H348 H 0.18255 0.41356 0.68050
 H349 H 0.11252 0.45407 0.63638
 H350 H 0.06824 0.44498 0.36160
 H351 H 0.15011 0.31575 -0.13147
 H352 H 0.08579 0.36107 -0.18873
 C353 C 0.65462 0.87408 0.77298
 C354 C 0.66604 0.84363 0.63718
 C355 C 0.64138 0.84207 0.47472
 C356 C 0.60396 0.86777 0.45108
 C357 C 0.58995 0.89579 0.58903
 C358 C 0.61529 0.89924 0.75170
 C359 C 0.68145 0.88035 0.92932
 C360 C 0.66816 0.90851 1.06659
 C361 C 0.62824 0.93116 1.05085
 C362 C 0.60197 0.92673 0.89526
 H363 H 0.71337 0.86435 0.94586
 H364 H 0.68885 0.91265 1.18628
 H365 H 0.61780 0.95258 1.15887
 H366 H 0.57133 0.94514 0.88869
 H367 H 0.64978 0.81941 0.36874
 H368 H 0.58479 0.86488 0.32628
 C369 C 0.85420 0.13257 0.26358
 C370 C 0.84224 0.16232 0.12829
 C371 C 0.86769 0.16480 -0.03945
 C372 C 0.90635 0.14050 -0.06954
 C373 C 0.92064 0.11314 0.06720
 C374 C 0.89459 0.10883 0.23538
 C375 C 0.82678 0.12560 0.42594
 C376 C 0.84030 0.09779 0.56143
 C377 C 0.88104 0.07623 0.53786
 C378 C 0.90806 0.08160 0.37695
 H379 H 0.79425 0.14074 0.44833
 H380 H 0.81906 0.09299 0.68541
 H381 H 0.89156 0.05489 0.64367
 H382 H 0.93937 0.06407 0.36462
 H383 H 0.85885 0.18707 -0.14472
 H384 H 0.92592 0.14372 -0.19892
 C385 C 0.35189 0.64493 0.44922
 C386 C 0.34780 0.66790 0.61748
 C387 C 0.38255 0.66450 0.74559
 C388 C 0.42022 0.63960 0.71215
 C389 C 0.42570 0.61781 0.54670
 C390 C 0.39216 0.62116 0.41098
 C391 C 0.31703 0.64395 0.31941
 C392 C 0.32273 0.62252 0.15299
 C393 C 0.36304 0.60142 0.11218
 C394 C 0.39767 0.60090 0.23889
 H395 H 0.28457 0.65842 0.34571
 H396 H 0.29568 0.62226 0.05491
 H397 H 0.36735 0.58505 -0.01769
 H398 H 0.42849 0.58408 0.20193
 H399 H 0.38100 0.68153 0.87454
 H400 H 0.44560 0.63740 0.81716
   
