data_POSCAR
  _audit_creation_date              2014-09-24
  _audit_creation_method            'ToBaCCo'
  _symmetry_space_group_name_H-M    'P1'
  _symmetry_Int_Tables_number       1
  _symmetry_cell_setting            triclinic
  loop_
  _symmetry_equiv_pos_as_xyz
 x,y,z
_cell_length_a 12.7875
_cell_length_b 14.0281
_cell_length_c 16.3240
_cell_angle_alpha 88.970200
_cell_angle_beta 89.698600
_cell_angle_gamma 89.543400
loop_
  _atom_site_label
  _atom_site_type_symbol
  _atom_site_fract_x
  _atom_site_fract_y
  _atom_site_fract_z
O1 O 0.18823 0.03669 0.09459
 O2 O -0.17385 -0.04857 0.11232
 O3 O -0.05056 0.16031 0.11223
 O4 O 0.05702 -0.16511 0.09889
 O5 O -0.19817 0.11419 0.06997
 O6 O 0.19928 -0.11772 0.04523
 O7 O -0.12187 -0.17815 0.06136
 O8 O 0.12625 0.17403 0.06438
 C9 C 0.17643 0.12038 0.11269
 C10 C -0.16090 -0.13513 0.12024
 C11 C -0.14591 0.15561 0.12325
 C12 C 0.15293 -0.15833 0.10341
 O13 O 0.16643 -0.04625 -0.11070
 O14 O -0.18748 0.05852 -0.08860
 O15 O 0.05205 0.17217 -0.09406
 O16 O -0.06469 -0.15124 -0.09858
 O17 O -0.20763 -0.10355 -0.04721
 O18 O 0.19776 0.11190 -0.05939
 O19 O 0.10966 -0.17758 -0.06270
 O20 O -0.12128 0.18721 -0.04538
 Co21 Co 0.16920 -0.00327 -0.00710
 Co22 Co -0.17293 0.00448 0.01106
 Co23 Co 0.00152 0.15727 0.00888
 Co24 Co -0.00481 -0.15184 0.00029
 O25 O -0.00174 0.00199 0.00335
 C26 C 0.14954 -0.13173 -0.12052
 C27 C -0.17127 0.14425 -0.09914
 C28 C 0.14552 0.16092 -0.10948
 C29 C -0.15971 -0.14286 -0.10470
 O30 O 0.36931 0.33400 0.44172
 O31 O 0.63452 0.68649 0.46441
 O32 O 0.31172 0.62686 0.44612
 O33 O 0.69544 0.39522 0.44230
 O34 O 0.46150 0.67526 0.40617
 O35 O 0.54991 0.34504 0.39629
 O36 O 0.68299 0.55965 0.40902
 O37 O 0.32033 0.47243 0.40462
 C38 C 0.32587 0.38758 0.38990
 C39 C 0.67702 0.64702 0.40569
 C40 C 0.36706 0.66726 0.39250
 C41 C 0.64580 0.35321 0.38765
 O42 O 0.61397 0.31391 0.55232
 O43 O 0.38335 0.69146 0.55912
 O44 O 0.29704 0.40393 0.56193
 O45 O 0.69836 0.60054 0.57598
 O46 O 0.55188 0.65877 0.61411
 O47 O 0.43767 0.33460 0.59986
 O48 O 0.67503 0.43848 0.60517
 O49 O 0.32670 0.56237 0.60879
 Co50 Co 0.49314 0.34897 0.49828
 Co51 Co 0.50711 0.66085 0.51013
 Co52 Co 0.33156 0.51548 0.50613
 Co53 Co 0.67028 0.49959 0.50755
 O54 O 0.50061 0.50574 0.50545
 C55 C 0.65949 0.35221 0.61044
 C56 C 0.33887 0.64864 0.61628
 C57 C 0.34437 0.35189 0.61300
 C58 C 0.64497 0.64353 0.62870
 C59 C 0.22959 0.15284 0.18641
 C60 C 0.22213 0.24079 0.21446
 C61 C 0.27701 0.26589 0.29017
 C62 C 0.27240 0.35471 0.31651
 H63 H 0.17555 0.29393 0.18181
 H64 H 0.32189 0.21234 0.32378
 H65 H 0.27612 0.10045 0.22006
 H66 H 0.22851 0.40769 0.28136
 C67 C 0.79877 0.81433 0.19279
 C68 C 0.81054 0.71982 0.20318
 C69 C 0.76734 0.66455 0.27324
 C70 C 0.72323 0.70398 0.33913
 H71 H 0.85147 0.67939 0.15685
 H72 H 0.77209 0.58758 0.26960
 H73 H 0.75705 0.85704 0.23672
 H74 H 0.71893 0.78030 0.34576
 C75 C 0.78117 0.19338 0.83017
 C76 C 0.79799 0.28538 0.81249
 C77 C 0.75246 0.33676 0.74113
 C78 C 0.70123 0.29552 0.67955
 H79 H 0.84688 0.32641 0.85259
 H80 H 0.76407 0.41321 0.73923
 H81 H 0.73148 0.15096 0.79217
 H82 H 0.68986 0.21940 0.67812
 C83 C 0.18413 0.81755 0.80717
 C84 C 0.25797 0.85128 0.75681
 C85 C 0.30126 0.79537 0.68910
 C86 C 0.29561 0.69997 0.68576
 H87 H 0.28841 0.92231 0.76513
 H88 H 0.34224 0.83496 0.64142
 H89 H 0.15060 0.74797 0.79858
 H90 H 0.26001 0.65791 0.73433
 C91 C 0.18780 0.20598 0.82484
 C92 C 0.29418 0.20039 0.80370
 C93 C 0.34144 0.24745 0.73615
 C94 C 0.29112 0.30917 0.67945
 H95 H 0.34523 0.15633 0.84161
 H96 H 0.42447 0.23422 0.72817
 H97 H 0.13549 0.24857 0.78707
 H98 H 0.20875 0.32532 0.68571
 C99 C 0.78941 0.81248 0.82535
 C100 C 0.68785 0.79113 0.82284
 C101 C 0.64036 0.74115 0.75306
 C102 C 0.69419 0.68521 0.70111
 H103 H 0.63667 0.81319 0.87219
 H104 H 0.55682 0.75062 0.74514
 H105 H 0.84038 0.79343 0.77503
 H106 H 0.77658 0.67085 0.71011
 C107 C 0.21199 0.79789 0.17142
 C108 C 0.16402 0.75144 0.23326
 C109 C 0.21771 0.70656 0.30421
 C110 C 0.32050 0.71216 0.31918
 H111 H 0.07962 0.74507 0.23259
 H112 H 0.16814 0.66783 0.34709
 H113 H 0.29599 0.80485 0.16936
 H114 H 0.37245 0.75067 0.27834
 C115 C 0.80962 0.20075 0.18691
 C116 C 0.70095 0.20475 0.20045
 C117 C 0.65044 0.25435 0.26401
 C118 C 0.70001 0.30982 0.32310
 H119 H 0.65051 0.16690 0.15915
 H120 H 0.56605 0.24826 0.26688
 H121 H 0.86151 0.23664 0.22811
 H122 H 0.78382 0.31874 0.32146
   
