data_POSCAR
  _audit_creation_date              2014-09-24
  _audit_creation_method            'ToBaCCo'
  _symmetry_space_group_name_H-M    'P1'
  _symmetry_Int_Tables_number       1
  _symmetry_cell_setting            triclinic
  loop_
  _symmetry_equiv_pos_as_xyz
 x,y,z
_cell_length_a 33.7240
_cell_length_b 33.1220
_cell_length_c 44.6169
_cell_angle_alpha 90.292100
_cell_angle_beta 89.710000
_cell_angle_gamma 90.682300
loop_
  _atom_site_label
  _atom_site_type_symbol
  _atom_site_fract_x
  _atom_site_fract_y
  _atom_site_fract_z
C1 C 0.00766 0.53582 1.01443
 C2 C -0.00193 0.53521 0.98328
 C3 C -0.00865 0.49757 0.96922
 C4 C -0.00326 0.46089 0.98410
 C5 C 0.00672 0.46109 1.01503
 C6 C 0.01365 0.49873 1.02911
 H7 H 0.02042 0.49925 1.05282
 H8 H -0.01493 0.49642 0.94541
 C9 C 0.46320 0.00399 0.51442
 C10 C 0.46326 0.00652 0.48279
 C11 C 0.49972 0.00666 0.46741
 C12 C 0.53633 0.00370 0.48241
 C13 C 0.53585 0.00264 0.51436
 C14 C 0.49936 0.00258 0.52966
 H15 H 0.49909 0.00158 0.55396
 H16 H 0.49926 0.00817 0.44315
 C17 C 0.08189 0.00304 0.26389
 H18 H 0.08326 0.00041 0.23973
 C19 C 0.11684 0.00568 0.28042
 H20 H 0.14503 0.00495 0.26874
 C21 C 0.04323 0.00771 0.30823
 H22 H 0.01449 0.00911 0.31894
 C23 C 0.07747 0.01086 0.32564
 H24 H 0.07460 0.01403 0.34972
 N25 N 0.04605 0.00328 0.27796
 C26 C -0.03037 -0.05605 0.21189
 H27 H -0.05360 -0.03396 0.21001
 C28 C -0.03168 -0.09108 0.19434
 H29 H -0.05605 -0.09562 0.17894
 C30 C 0.02930 -0.07688 0.23457
 H31 H 0.05271 -0.07160 0.25057
 C32 C 0.02900 -0.11247 0.21766
 H33 H 0.05266 -0.13387 0.22062
 Zn34 Zn 0.00043 -0.00041 0.25346
 N35 N 0.00027 -0.04917 0.23101
 C36 C 0.00159 0.04108 0.19744
 N37 N 0.00184 0.04498 0.22781
 C38 C 0.00424 0.08192 0.24116
 C39 C 0.00561 0.11691 0.22386
 C40 C 0.00255 0.07530 0.17928
 C41 C -0.05177 -0.02992 0.29756
 C42 C -0.08627 -0.03150 0.31499
 C43 C -0.10988 0.02718 0.28888
 C44 C -0.07474 0.02792 0.27222
 N45 N -0.04642 -0.00020 0.27697
 H46 H 0.00081 0.01151 0.18717
 H47 H 0.00493 0.08412 0.26535
 H48 H 0.00718 0.14600 0.23500
 H49 H 0.00211 0.07153 0.15517
 H50 H -0.02910 -0.05240 0.30045
 H51 H -0.08988 -0.05531 0.33136
 H52 H -0.13201 0.04987 0.28475
 H53 H -0.07040 0.05068 0.25523
 C54 C -0.00154 -0.11974 0.19695
 C55 C 0.11492 0.00949 0.31176
 C56 C -0.11593 -0.00272 0.31070
 C57 C 0.00448 0.11388 0.19247
 C58 C -0.01016 0.07753 0.75740
 H59 H -0.01394 0.07922 0.73338
 C60 C -0.01165 0.11262 0.77481
 H61 H -0.01643 0.14132 0.76398
 C62 C 0.00059 0.03788 0.80060
 H63 H 0.00461 0.00871 0.81071
 C64 C 0.00003 0.07232 0.81880
 H65 H 0.00394 0.06919 0.84275
 N66 N -0.00379 0.04115 0.77042
 C67 C 0.05013 -0.03251 0.70038
 H68 H 0.02856 -0.05682 0.69853
 C69 C 0.08433 -0.03282 0.68260
 H70 H 0.08876 -0.05753 0.66701
 C71 C 0.07062 0.02880 0.72347
 H72 H 0.06545 0.05246 0.73972
 C73 C 0.10530 0.02960 0.70625
 H74 H 0.12626 0.05428 0.70931
 Zn75 Zn -0.00225 -0.00429 0.74447
 N76 N 0.04380 -0.00186 0.72015
 C77 C -0.04606 0.00240 0.69042
 N78 N -0.04851 -0.00271 0.72062
 C79 C -0.08420 -0.00474 0.73487
 C80 C -0.11936 -0.00315 0.71856
 C81 C -0.08050 0.00479 0.67328
 C82 C 0.03125 -0.05904 0.78467
 C83 C 0.03370 -0.09407 0.80184
 C84 C -0.02782 -0.11746 0.77995
 C85 C -0.02926 -0.08184 0.76341
 N86 N -0.00039 -0.05310 0.76649
 H87 H -0.01745 0.00510 0.67959
 H88 H -0.08529 -0.00782 0.75899
 H89 H -0.14746 -0.00517 0.73034
 H90 H -0.07796 0.00870 0.64927
 H91 H 0.05441 -0.03624 0.78608
 H92 H 0.05883 -0.09785 0.81652
 H93 H -0.05141 -0.13965 0.77740
 H94 H -0.05344 -0.07737 0.74808
 C95 C 0.11256 -0.00150 0.68546
 C96 C -0.00609 0.11030 0.80590
 C97 C 0.00370 -0.12373 0.79978
 C98 C -0.11777 0.00169 0.68734
 C99 C 0.00360 -0.36234 0.06846
 N100 N 0.02569 -0.39451 0.07631
 N101 N 0.02721 -0.42707 0.05873
 C102 C 0.00721 -0.42871 0.03233
 N103 N -0.01546 -0.39660 0.02489
 N104 N -0.01711 -0.36404 0.04249
 C105 C 0.00212 -0.32641 0.08784
 N106 N -0.02216 -0.29530 0.08127
 N107 N -0.02332 -0.26269 0.09887
 C108 C -0.00015 -0.25997 0.12362
 N109 N 0.02413 -0.29107 0.13017
 N110 N 0.02519 -0.32371 0.11263
 C111 C -0.00098 -0.22387 0.14286
 N112 N 0.02462 -0.21981 0.16608
 N113 N 0.02431 -0.18685 0.18330
 C114 C -0.00171 -0.15671 0.17808
 N115 N -0.02743 -0.16094 0.15489
 N116 N -0.02704 -0.19384 0.13758
 C117 C 0.00647 0.35835 0.06774
 N118 N -0.00916 0.35729 0.03982
 N119 N -0.00897 0.39025 0.02285
 C120 C 0.00726 0.42560 0.03278
 N121 N 0.02236 0.42651 0.06104
 N122 N 0.02206 0.39363 0.07812
 C123 C 0.00639 0.32194 0.08638
 N124 N 0.01852 0.32373 0.11533
 N125 N 0.01837 0.29065 0.13220
 C126 C 0.00626 0.25456 0.12070
 N127 N -0.00578 0.25277 0.09173
 N128 N -0.00579 0.28587 0.07490
 C129 C 0.00605 0.21809 0.13927
 N130 N -0.00260 0.18144 0.12705
 N131 N -0.00291 0.14836 0.14391
 C132 C 0.00525 0.15062 0.17367
 N133 N 0.01386 0.18737 0.18584
 N134 N 0.01434 0.22045 0.16896
 C135 C 0.35898 -0.00035 0.56593
 N136 N 0.36361 -0.02556 0.54210
 N137 N 0.39673 -0.02429 0.52568
 C138 C 0.42634 0.00235 0.53243
 N139 N 0.42192 0.02708 0.55655
 N140 N 0.38880 0.02586 0.57291
 C141 C 0.32226 -0.00106 0.58377
 N142 N 0.31709 0.02572 0.60655
 N143 N 0.28369 0.02550 0.62261
 C144 C 0.25423 -0.00155 0.61652
 N145 N 0.25940 -0.02840 0.59377
 N146 N 0.29280 -0.02813 0.57765
 C147 C 0.21742 -0.00159 0.63426
 N148 N 0.18856 -0.02969 0.62926
 N149 N 0.15526 -0.02966 0.64547
 C150 C 0.14947 -0.00147 0.66726
 N151 N 0.17841 0.02665 0.67215
 N152 N 0.21173 0.02658 0.65600
 C153 C -0.36224 0.00721 0.56787
 N154 N -0.36603 0.03267 0.54433
 N155 N -0.39843 0.03140 0.52737
 C156 C -0.42792 0.00412 0.53298
 N157 N -0.42443 -0.02074 0.55690
 N158 N -0.39218 -0.01927 0.57400
 C159 C -0.32616 0.00781 0.58616
 N160 N -0.32478 -0.01318 0.61218
 N161 N -0.29183 -0.01333 0.62852
 C162 C -0.25895 0.00723 0.61931
 N163 N -0.26030 0.02821 0.59328
 N164 N -0.29336 0.02860 0.57704
 C165 C -0.22242 0.00631 0.63705
 N166 N -0.18769 0.02064 0.62558
 N167 N -0.15444 0.01915 0.64152
 C168 C -0.15468 0.00351 0.66962
 N169 N -0.18953 -0.01063 0.68110
 N170 N -0.22272 -0.00941 0.66508
 C171 C 0.00307 -0.36489 0.92798
 N172 N -0.01914 -0.39777 0.92047
 N173 N -0.02085 -0.42975 0.93840
 C174 C -0.00094 -0.43008 0.96486
 N175 N 0.02193 -0.39731 0.97192
 N176 N 0.02378 -0.36532 0.95396
 C177 C 0.00441 -0.32943 0.90835
 N178 N 0.02862 -0.29749 0.91466
 N179 N 0.02938 -0.26517 0.89698
 C180 C 0.00585 -0.26357 0.87241
 N181 N -0.01833 -0.29552 0.86611
 N182 N -0.01898 -0.32788 0.88372
 C183 C 0.00597 -0.22766 0.85323
 N184 N -0.02029 -0.22465 0.83043
 N185 N -0.02082 -0.19177 0.81337
 C186 C 0.00498 -0.16066 0.81835
 N187 N 0.03139 -0.16386 0.84110
 N188 N 0.03184 -0.19668 0.85824
 C189 C -0.00401 0.35689 0.92997
 N190 N 0.02530 0.36334 0.95022
 N191 N 0.02555 0.39635 0.96738
 C192 C -0.00394 0.42378 0.96537
 N193 N -0.03285 0.41768 0.94469
 N194 N -0.03292 0.38481 0.92733
 C195 C -0.00448 0.32021 0.91136
 N196 N -0.02899 0.31691 0.88741
 N197 N -0.02939 0.28354 0.87059
 C198 C -0.00555 0.25212 0.87731
 N199 N 0.01883 0.25537 0.90133
 N200 N 0.01947 0.28887 0.91799
 C201 C -0.00603 0.21527 0.85888
 N202 N 0.01186 0.18130 0.86861
 N203 N 0.01155 0.14787 0.85188
 C204 C -0.00638 0.14721 0.82468
 N205 N -0.02418 0.18129 0.81496
 N206 N -0.02417 0.21463 0.83180
 C207 C -0.36173 -0.00467 0.43071
 N208 N -0.39564 0.01002 0.41903
 N209 N -0.42838 0.01240 0.43571
 C210 C -0.42860 0.00075 0.46493
 N211 N -0.39467 -0.01470 0.47627
 N212 N -0.36190 -0.01729 0.45959
 C213 C -0.32535 -0.00595 0.41253
 N214 N -0.29225 -0.02397 0.42298
 N215 N -0.25907 -0.02429 0.40662
 C216 C -0.25775 -0.00638 0.37931
 N217 N -0.29086 0.01161 0.36889
 N218 N -0.32407 0.01174 0.38517
 C219 C -0.22105 -0.00585 0.36147
 N220 N -0.21841 0.01661 0.33618
 N221 N -0.18503 0.01761 0.32011
 C222 C -0.15302 -0.00397 0.32861
 N223 N -0.15578 -0.02659 0.35388
 N224 N -0.18911 -0.02742 0.37006
 C225 C 0.35943 0.01348 0.43143
 N226 N 0.39198 -0.00550 0.42065
 N227 N 0.42476 -0.00761 0.43703
 C228 C 0.42635 0.00913 0.46486
 N229 N 0.39394 0.02877 0.47540
 N230 N 0.36102 0.03070 0.45908
 C231 C 0.32307 0.01474 0.41351
 N232 N 0.28876 0.02890 0.42541
 N233 N 0.25564 0.02901 0.40922
 C234 C 0.25571 0.01511 0.38052
 N235 N 0.29006 0.00117 0.36862
 N236 N 0.32309 0.00089 0.38483
 C237 C 0.21922 0.01449 0.36270
 N238 N 0.22036 0.00392 0.33329
 N239 N 0.18728 0.00264 0.31712
 C240 C 0.15171 0.01168 0.32974
 N241 N 0.15064 0.02226 0.35920
 N242 N 0.18376 0.02373 0.37537
   
