data_POSCAR
  _audit_creation_date              2014-09-24
  _audit_creation_method            'ToBaCCo'
  _symmetry_space_group_name_H-M    'P1'
  _symmetry_Int_Tables_number       1
  _symmetry_cell_setting            triclinic
  loop_
  _symmetry_equiv_pos_as_xyz
 x,y,z
_cell_length_a 46.4840
_cell_length_b 45.7301
_cell_length_c 41.0722
_cell_angle_alpha 90.072900
_cell_angle_beta 89.918200
_cell_angle_gamma 119.724600
loop_
  _atom_site_label
  _atom_site_type_symbol
  _atom_site_fract_x
  _atom_site_fract_y
  _atom_site_fract_z
O1 O 0.04432 0.48512 0.00779
 O2 O 0.00251 0.52092 -0.04129
 O3 O 0.04454 0.54211 0.00690
 O4 O 0.00344 0.46498 -0.04199
 O5 O -0.03842 0.44303 -0.00753
 O6 O 0.00260 0.52124 0.04135
 O7 O -0.03942 0.49924 -0.00681
 O8 O 0.00234 0.46453 0.04222
 Cu9 Cu 0.02795 0.50533 -0.02053
 Cu10 Cu -0.02241 0.47978 0.02074
 C11 C 0.03066 0.46935 0.03389
 C12 C -0.02590 0.51573 -0.03255
 C13 C 0.03082 0.54497 0.03252
 C14 C -0.02484 0.44107 -0.03376
 O15 O 0.55852 0.51021 -0.00716
 O16 O 0.48218 0.47575 0.04205
 O17 O 0.50232 0.45416 -0.00668
 O18 O 0.53815 0.53154 0.04229
 O19 O 0.51882 0.55435 0.00752
 O20 O 0.48118 0.47583 -0.04055
 O21 O 0.46234 0.49915 0.00857
 O22 O 0.53762 0.53179 -0.04150
 Cu23 Cu 0.52243 0.49073 0.02099
 Cu24 Cu 0.49789 0.51740 -0.01998
 C25 C 0.56096 0.52660 -0.03297
 C26 C 0.45951 0.48220 0.03404
 C27 C 0.48566 0.45162 -0.03207
 C28 C 0.53433 0.55602 0.03353
 O29 O 0.52157 0.99990 -0.04127
 O30 O 0.44535 0.95725 0.00690
 O31 O 0.46611 0.99999 -0.04133
 O32 O 0.50197 0.95869 0.00871
 O33 O 0.52138 1.00153 0.04290
 O34 O 0.48630 1.04253 -0.00685
 O35 O 0.46496 0.99987 0.04134
 O36 O 0.54223 1.04277 -0.00708
 Cu37 Cu 0.48183 0.97463 -0.02011
 Cu38 Cu 0.50582 1.02595 0.02100
 C39 C 0.54459 1.02887 -0.03303
 C40 C 0.44203 0.97099 0.03241
 C41 C 0.47051 1.02869 -0.03277
 C42 C 0.51719 0.97289 0.03484
 O43 O 1.04349 0.54195 0.49102
 O44 O 1.00071 0.46419 0.53896
 O45 O 1.04260 0.48455 0.49009
 O46 O 1.00069 0.52062 0.53874
 O47 O 0.95923 0.49951 0.50378
 O48 O 1.00170 0.46539 0.45464
 O49 O 0.95975 0.44303 0.50341
 O50 O 1.00197 0.52203 0.45616
 Cu51 Cu 1.02607 0.50484 0.51815
 Cu52 Cu 0.97653 0.48037 0.47600
 C53 C 1.03021 0.54536 0.46537
 C54 C 0.97270 0.44056 0.52977
 C55 C 1.02960 0.46943 0.46352
 C56 C 0.97245 0.51568 0.52976
 O57 O 0.53669 0.53210 0.46047
 O58 O 0.49850 0.45620 0.51191
 O59 O 0.47979 0.47727 0.46172
 O60 O 0.55589 0.51095 0.51090
 O61 O 0.53619 0.53466 0.54423
 O62 O 0.46141 0.50338 0.49358
 O63 O 0.47830 0.48034 0.54406
 O64 O 0.51893 0.55730 0.49426
 Cu65 Cu 0.51974 0.49171 0.48300
 Cu66 Cu 0.49676 0.52130 0.52240
 C67 C 0.53410 0.55756 0.46843
 C68 C 0.48177 0.45524 0.53677
 C69 C 0.45791 0.48516 0.46887
 C70 C 0.55888 0.52821 0.53624
 O71 O 0.46528 -0.00180 0.45777
 O72 O 0.54142 0.04092 0.50775
 O73 O 0.52160 -0.00039 0.45779
 O74 O 0.48565 0.04107 0.50583
 O75 O 0.46422 -0.00158 0.54020
 O76 O 0.50165 -0.04288 0.49225
 O77 O 0.51967 -0.00171 0.54216
 O78 O 0.44488 -0.04448 0.49211
 Cu79 Cu 0.50568 0.02422 0.47887
 Cu80 Cu 0.48057 -0.02698 0.52005
 C81 C 0.44216 -0.03070 0.46639
 C82 C 0.54304 0.02711 0.53403
 C83 C 0.51744 -0.02892 0.46625
 C84 C 0.46899 0.02713 0.53130
 C85 C 0.31001 0.42472 0.23446
 C86 C 0.30988 0.42508 0.26783
 C87 C 0.28363 0.42953 0.27719
 N88 N 0.26787 0.43207 0.25061
 C89 C 0.28383 0.42894 0.22443
 C90 C 0.27688 0.43476 0.30960
 C91 C 0.24916 0.43795 0.31853
 C92 C 0.24571 0.45091 0.34791
 C93 C 0.21519 0.44884 0.34742
 C94 C 0.20046 0.43400 0.31806
 N95 N 0.22131 0.42732 0.30066
 C96 C 0.16805 0.42574 0.30849
 C97 C 0.15681 0.41693 0.27612
 C98 C 0.12409 0.40284 0.26628
 C99 C 0.12433 0.40275 0.23289
 C100 C 0.15717 0.41669 0.22348
 N101 N 0.17697 0.42518 0.24992
 C102 C 0.16882 0.42522 0.19119
 C103 C 0.20117 0.43295 0.18192
 C104 C 0.21609 0.44706 0.15241
 C105 C 0.24650 0.44888 0.15238
 C106 C 0.24972 0.43652 0.18218
 N107 N 0.22178 0.42643 0.19984
 C108 C 0.27734 0.43347 0.19175
 H109 H 0.32804 0.42265 0.21941
 H110 H 0.32777 0.42335 0.28333
 H111 H 0.21587 0.41291 0.22151
 H112 H 0.26330 0.46098 0.36771
 H113 H 0.20510 0.45729 0.36664
 H114 H 0.10241 0.39430 0.28158
 H115 H 0.10288 0.39414 0.21729
 H116 H 0.26419 0.45841 0.13260
 H117 H 0.21558 0.41330 0.27930
 H118 H 0.20619 0.45517 0.13279
 C119 C 0.60672 0.71896 0.26634
 C120 C 0.60649 0.71904 0.23291
 C121 C 0.59202 0.73792 0.22363
 N122 N 0.58364 0.74956 0.25015
 C123 C 0.59238 0.73780 0.27628
 C124 C 0.58300 0.74087 0.19150
 C125 C 0.57369 0.76496 0.18296
 C126 C 0.55644 0.76403 0.15508
 C127 C 0.55374 0.79267 0.15534
 C128 C 0.56942 0.81027 0.18336
 N129 N 0.58152 0.79323 0.20004
 C130 C 0.57343 0.84187 0.19250
 C131 C 0.58139 0.85396 0.22475
 C132 C 0.59161 0.88668 0.23454
 C133 C 0.59176 0.88656 0.26796
 C134 C 0.58157 0.85375 0.27739
 N135 N 0.57553 0.83394 0.25095
 C136 C 0.57381 0.84140 0.30957
 C137 C 0.56991 0.80972 0.31819
 C138 C 0.55447 0.79185 0.34618
 C139 C 0.55736 0.76332 0.34592
 C140 C 0.57442 0.76454 0.31775
 N141 N 0.58198 0.79290 0.30100
 C142 C 0.58383 0.74064 0.30866
 H143 H 0.61566 0.70587 0.28159
 H144 H 0.61522 0.70602 0.21724
 H145 H 0.59727 0.80183 0.28058
 H146 H 0.54658 0.74465 0.13655
 H147 H 0.54142 0.79955 0.13707
 H148 H 0.59750 0.90816 0.21920
 H149 H 0.59780 0.90794 0.28355
 H150 H 0.54775 0.74381 0.36430
 H151 H 0.59695 0.80196 0.22035
 H152 H 0.54221 0.79849 0.36478
 C153 C 0.13172 0.68822 0.26601
 C154 C 0.13159 0.68813 0.23260
 C155 C 0.15030 0.72142 0.22288
 N156 N 0.16166 0.74183 0.24918
 C157 C 0.15051 0.72157 0.27557
 C158 C 0.15608 0.73271 0.19026
 C159 C 0.18018 0.76589 0.18160
 C160 C 0.18241 0.78047 0.15144
 C161 C 0.21155 0.81079 0.15133
 C162 C 0.22629 0.81385 0.18142
 N163 N 0.20685 0.78654 0.19981
 C164 C 0.25862 0.83930 0.18984
 C165 C 0.27000 0.84560 0.22235
 C166 C 0.30274 0.86546 0.23178
 C167 C 0.30296 0.86545 0.26518
 C168 C 0.27034 0.84560 0.27503
 N169 N 0.25021 0.83367 0.24882
 C170 C 0.25937 0.83929 0.30769
 C171 C 0.22707 0.81401 0.31642
 C172 C 0.21267 0.81111 0.34670
 C173 C 0.18344 0.78089 0.34683
 C174 C 0.18083 0.76619 0.31663
 N175 N 0.20735 0.78670 0.29815
 C176 C 0.15657 0.73302 0.30814
 H177 H 0.11974 0.66617 0.28141
 H178 H 0.11950 0.66599 0.21730
 H179 H 0.21407 0.78007 0.27639
 H180 H 0.16532 0.76988 0.13127
 H181 H 0.22130 0.82812 0.13105
 H182 H 0.32433 0.87820 0.21629
 H183 H 0.32474 0.87819 0.28039
 H184 H 0.16654 0.77042 0.36719
 H185 H 0.21382 0.78004 0.22145
 H186 H 0.22270 0.82848 0.36694
 C187 C 0.69883 0.56019 0.73429
 C188 C 0.69910 0.56018 0.76767
 C189 C 0.73139 0.57044 0.77699
 N190 N 0.75085 0.57689 0.75046
 C191 C 0.73095 0.57046 0.72432
 C192 C 0.74271 0.57502 0.80949
 C193 C 0.77430 0.58015 0.81810
 C194 C 0.78909 0.59130 0.84827
 C195 C 0.81785 0.58965 0.84785
 C196 C 0.81978 0.57748 0.81745
 N197 N 0.79323 0.57192 0.79943
 C198 C 0.84378 0.56861 0.80824
 C199 C 0.84924 0.56308 0.77551
 C200 C 0.86814 0.54892 0.76554
 C201 C 0.86786 0.54891 0.73214
 C202 C 0.84880 0.56307 0.72280
 N203 N 0.83760 0.57189 0.74935
 C204 C 0.84281 0.56860 0.69027
 C205 C 0.81862 0.57740 0.68174
 C206 C 0.81618 0.58955 0.65155
 C207 C 0.78743 0.59122 0.65187
 C208 C 0.77315 0.58011 0.68227
 N209 N 0.79239 0.57188 0.70036
 C210 C 0.74174 0.57505 0.69160
 H211 H 0.67735 0.55322 0.71913
 H212 H 0.67788 0.55320 0.78326
 H213 H 0.78569 0.55888 0.72230
 H214 H 0.77978 0.59916 0.86868
 H215 H 0.83502 0.59596 0.86791
 H216 H 0.88054 0.53923 0.78069
 H217 H 0.88000 0.53921 0.71658
 H218 H 0.77779 0.59909 0.63180
 H219 H 0.78614 0.55888 0.77750
 H220 H 0.83299 0.59584 0.63115
 C221 C 0.43708 0.30935 0.76805
 C222 C 0.43617 0.30943 0.73468
 C223 C 0.42230 0.27615 0.72484
 N224 N 0.41442 0.25574 0.75103
 C225 C 0.42361 0.27601 0.77748
 C226 C 0.41628 0.26495 0.69219
 C227 C 0.40842 0.23204 0.68291
 C228 C 0.39637 0.21781 0.65263
 C229 C 0.39586 0.18745 0.65205
 C230 C 0.40763 0.18401 0.68199
 N231 N 0.41497 0.21117 0.70071
 C232 C 0.41479 0.15824 0.69004
 C233 C 0.41999 0.15151 0.72242
 C234 C 0.43295 0.13117 0.73143
 C235 C 0.43329 0.13085 0.76483
 C236 C 0.42055 0.15102 0.77511
 N237 N 0.41222 0.16344 0.74917
 C238 C 0.41617 0.15729 0.80792
 C239 C 0.40909 0.18284 0.81713
 C240 C 0.39813 0.18588 0.84771
 C241 C 0.39910 0.21644 0.84834
 C242 C 0.41057 0.23116 0.81812
 N243 N 0.41627 0.21038 0.79916
 C244 C 0.41917 0.26453 0.81000
 H245 H 0.44692 0.33140 0.78350
 H246 H 0.44515 0.33155 0.71943
 H247 H 0.42921 0.21692 0.77727
 H248 H 0.38951 0.22860 0.63272
 H249 H 0.38854 0.17030 0.63159
 H250 H 0.44176 0.11830 0.71566
 H251 H 0.44239 0.11769 0.77974
 H252 H 0.39306 0.22711 0.86901
 H253 H 0.42821 0.21733 0.72239
 H254 H 0.39123 0.16839 0.86783
 C255 C 0.70059 0.11739 0.76777
 C256 C 0.70022 0.11681 0.73435
 C257 C 0.72227 0.14929 0.72422
 N258 N 0.73625 0.16959 0.75021
 C259 C 0.72283 0.15020 0.77686
 C260 C 0.72627 0.16093 0.69181
 C261 C 0.75338 0.19221 0.68242
 C262 C 0.75518 0.20953 0.65411
 C263 C 0.78609 0.23781 0.65362
 C264 C 0.80226 0.23693 0.68165
 N265 N 0.78215 0.20908 0.69906
 C266 C 0.83529 0.26056 0.69000
 C267 C 0.84704 0.26379 0.72224
 C268 C 0.87999 0.28189 0.73154
 C269 C 0.88026 0.28252 0.76497
 C270 C 0.84746 0.26482 0.77492
 N271 N 0.82723 0.25317 0.74877
 C272 C 0.83622 0.26300 0.80724
 C273 C 0.80340 0.23951 0.81650
 C274 C 0.78765 0.24130 0.84452
 C275 C 0.75683 0.21288 0.84505
 C276 C 0.75462 0.19459 0.81729
 N277 N 0.78309 0.21097 0.80005
 C278 C 0.72740 0.16298 0.80890
 H279 H 0.68558 0.09629 0.78357
 H280 H 0.68489 0.09519 0.71925
 H281 H 0.78948 0.20164 0.77981
 H282 H 0.73620 0.20268 0.63578
 H283 H 0.79544 0.25689 0.63482
 H284 H 0.90151 0.29399 0.71586
 H285 H 0.90204 0.29521 0.78020
 H286 H 0.73815 0.20657 0.86364
 H287 H 0.78887 0.20042 0.71954
 H288 H 0.79719 0.26108 0.86265
 C289 C 0.08535 0.44331 0.09960
 C290 C 0.05654 0.44292 0.11028
 C291 C 0.03802 0.45004 0.08840
 C292 C 0.04831 0.45796 0.05589
 C293 C 0.07674 0.45699 0.04587
 N294 N 0.09437 0.44975 0.06771
 C295 C 0.10682 0.43880 0.12303
 N296 N 0.11945 0.41832 0.11575
 C297 C 0.13904 0.41328 0.13703
 C298 C 0.14734 0.42989 0.16726
 C299 C 0.13511 0.45164 0.17473
 C300 C 0.11464 0.45589 0.15289
 H301 H 0.01628 0.45049 0.09724
 H302 H 0.08532 0.46266 0.02094
 H303 H 0.14814 0.39641 0.13043
 H304 H 0.14142 0.46531 0.19756
 H305 H 0.04867 0.43759 0.13546
 H306 H 0.10543 0.47281 0.15904
 C307 C 0.56491 0.64051 0.09659
 C308 C 0.56061 0.64413 0.06330
 C309 C 0.55129 0.61676 0.04239
 C310 C 0.54686 0.58612 0.05452
 C311 C 0.55246 0.58396 0.08776
 N312 N 0.56068 0.61063 0.10775
 C313 C 0.57116 0.66724 0.12032
 N314 N 0.55702 0.65811 0.15031
 C315 C 0.56070 0.68109 0.17326
 C316 C 0.57998 0.71566 0.16675
 C317 C 0.59535 0.72569 0.13620
 C318 C 0.59082 0.70156 0.11281
 H319 H 0.54707 0.61937 0.01690
 H320 H 0.54904 0.56070 0.09814
 H321 H 0.54826 0.67238 0.19645
 H322 H 0.61057 0.75217 0.13043
 H323 H 0.56304 0.66730 0.05376
 H324 H 0.60281 0.70962 0.08933
 C325 C 0.35690 0.91485 0.09254
 C326 C 0.35870 0.90216 0.06193
 C327 C 0.38606 0.92093 0.04199
 C328 C 0.41160 0.95249 0.05223
 C329 C 0.40813 0.96500 0.08234
 N330 N 0.38134 0.94606 0.10153
 C331 C 0.32981 0.89472 0.11575
 N332 N 0.32180 0.91081 0.13895
 C333 C 0.29846 0.89378 0.16214
 C334 C 0.28220 0.85849 0.16322
 C335 C 0.28993 0.84141 0.13954
 C336 C 0.31363 0.85934 0.11580
 H337 H 0.38743 0.91044 0.01877
 H338 H 0.42708 0.98935 0.09105
 H339 H 0.29309 0.90773 0.18013
 H340 H 0.27819 0.81419 0.13998
 H341 H 0.33933 0.87796 0.05339
 H342 H 0.32000 0.84556 0.09856
 C343 C 0.91682 0.54454 0.59172
 C344 C 0.90421 0.53054 0.56102
 C345 C 0.92281 0.52205 0.54044
 C346 C 0.95409 0.52767 0.55016
 C347 C 0.96646 0.54314 0.58042
 N348 N 0.94772 0.55093 0.60020
 C349 C 0.89704 0.55154 0.61551
 N350 N 0.91294 0.57533 0.63892
 C351 C 0.89628 0.58185 0.66248
 C352 C 0.86157 0.56340 0.66369
 C353 C 0.84467 0.53882 0.63988
 C354 C 0.86224 0.53281 0.61578
 H355 H 0.91242 0.51055 0.51716
 H356 H 0.99058 0.54821 0.58876
 H357 H 0.91007 0.60100 0.68055
 H358 H 0.81789 0.52384 0.64039
 H359 H 0.88023 0.52604 0.55288
 H360 H 0.84863 0.51290 0.59836
 C361 C 0.44247 0.36916 0.59928
 C362 C 0.43542 0.39515 0.60574
 C363 C 0.44763 0.42292 0.58497
 C364 C 0.46687 0.42497 0.55779
 C365 C 0.47284 0.39820 0.55187
 N366 N 0.46096 0.37158 0.57261
 C367 C 0.43279 0.34053 0.62189
 N368 N 0.45067 0.32427 0.62156
 C369 C 0.44488 0.29921 0.64283
 C370 C 0.42003 0.28941 0.66646
 C371 C 0.40043 0.30481 0.66660
 C372 C 0.40662 0.33030 0.64430
 H373 H 0.44256 0.44307 0.59058
 H374 H 0.48759 0.39873 0.53123
 H375 H 0.46038 0.28771 0.64201
 H376 H 0.38083 0.29754 0.68439
 H377 H 0.42174 0.39489 0.62715
 H378 H 0.39115 0.34179 0.64485
 C379 C 0.62262 0.08209 0.60033
 C380 C 0.59341 0.05406 0.61126
 C381 C 0.56802 0.03555 0.58928
 C382 C 0.57139 0.04509 0.55642
 C383 C 0.60134 0.07291 0.54626
 N384 N 0.62601 0.09045 0.56818
 C385 C 0.64907 0.10301 0.62357
 N386 N 0.68132 0.11365 0.61608
 C387 C 0.70636 0.13212 0.63732
 C388 C 0.69946 0.14114 0.66786
 C389 C 0.66646 0.13121 0.67549
 C390 C 0.64123 0.11191 0.65361
 H391 H 0.54535 0.01432 0.59822
 H392 H 0.60498 0.08091 0.52107
 H393 H 0.73158 0.13956 0.63051
 H394 H 0.66023 0.13829 0.69851
 H395 H 0.59022 0.04661 0.63662
 H396 H 0.61585 0.10432 0.65994
 C397 C 0.44137 0.08275 0.90576
 C398 C 0.45547 0.09616 0.93617
 C399 C 0.46429 0.07782 0.95688
 C400 C 0.45893 0.04586 0.94765
 C401 C 0.44310 0.03261 0.91768
 N402 N 0.43505 0.05121 0.89773
 C403 C 0.43427 0.10253 0.88185
 N404 N 0.41013 0.08619 0.85913
 C405 C 0.40335 0.10297 0.83575
 C406 C 0.42181 0.13823 0.83407
 C407 C 0.44685 0.15552 0.85706
 C408 C 0.45316 0.13785 0.88094
 H409 H 0.47584 0.08907 0.97990
 H410 H 0.43797 0.00794 0.90960
 H411 H 0.38390 0.08887 0.81827
 H412 H 0.46189 0.18270 0.85613
 H413 H 0.45985 0.12064 0.94397
 H414 H 0.47333 0.15178 0.89774
 C415 C 0.64495 0.55871 0.90446
 C416 C 0.62183 0.56932 0.89823
 C417 C 0.59488 0.55948 0.91909
 C418 C 0.59077 0.53911 0.94619
 C419 C 0.61475 0.52958 0.95194
 N420 N 0.64062 0.53917 0.93106
 C421 C 0.67227 0.56578 0.88153
 N422 N 0.68464 0.54430 0.88074
 C423 C 0.70804 0.54761 0.85886
 C424 C 0.72004 0.57355 0.83577
 C425 C 0.70872 0.59677 0.83684
 C426 C 0.68494 0.59309 0.85974
 H427 H 0.57691 0.56729 0.91360
 H428 H 0.61250 0.51378 0.97249
 H429 H 0.71647 0.52939 0.85878
 H430 H 0.71785 0.61731 0.81953
 H431 H 0.62360 0.58392 0.87687
 H432 H 0.67659 0.61134 0.86012
 C433 C 0.92138 0.36188 0.90079
 C434 C 0.95283 0.38792 0.89202
 C435 C 0.97137 0.41328 0.91436
 C436 C 0.95840 0.41325 0.94537
 C437 C 0.92725 0.38577 0.95359
 N438 N 0.90974 0.36113 0.93137
 C439 C 0.90006 0.33670 0.87655
 N440 N 0.88389 0.30334 0.88417
 C441 C 0.86386 0.27937 0.86242
 C442 C 0.85866 0.28866 0.83129
 C443 C 0.87462 0.32301 0.82340
 C444 C 0.89563 0.34700 0.84575
 H445 H 0.99530 0.43362 0.90674
 H446 H 0.91636 0.38427 0.97729
 H447 H 0.85187 0.25311 0.86941
 H448 H 0.87071 0.33126 0.79994
 H449 H 0.96272 0.38890 0.86790
 H450 H 0.90774 0.37344 0.83933
 C451 C 0.54702 0.91879 0.40287
 C452 C 0.55120 0.95007 0.39358
 C453 C 0.54276 0.96806 0.41520
 C454 C 0.52934 0.95462 0.44596
 C455 C 0.52657 0.92352 0.45464
 N456 N 0.53538 0.90660 0.43316
 C457 C 0.55317 0.89828 0.37928
 N458 N 0.57422 0.88662 0.38669
 C459 C 0.58127 0.86852 0.36496
 C460 C 0.56636 0.86088 0.33403
 C461 C 0.54388 0.87195 0.32649
 C462 C 0.53760 0.89100 0.34883
 H463 H 0.54565 0.99194 0.40721
 H464 H 0.51680 0.91228 0.47816
 H465 H 0.59860 0.86025 0.37168
 H466 H 0.53135 0.86599 0.30319
 H467 H 0.56054 0.96026 0.36962
 H468 H 0.52049 0.89973 0.34258
 C469 C 0.37596 0.45635 0.40479
 C470 C 0.39250 0.43769 0.40493
 C471 C 0.41899 0.44672 0.42622
 C472 C 0.42865 0.47390 0.44767
 C473 C 0.41096 0.49141 0.44725
 N474 N 0.38574 0.48263 0.42581
 C475 C 0.34958 0.44956 0.38102
 N476 N 0.34709 0.47595 0.36897
 C477 C 0.32401 0.47177 0.34639
 C478 C 0.30141 0.43947 0.33507
 C479 C 0.30306 0.41184 0.34747
 C480 C 0.32724 0.41677 0.37038
 H481 H 0.43210 0.43267 0.42570
 H482 H 0.41783 0.51273 0.46319
 H483 H 0.32334 0.49359 0.33718
 H484 H 0.28588 0.38659 0.33914
 H485 H 0.38587 0.41714 0.38803
 H486 H 0.32820 0.39520 0.37986
 C487 C 0.08478 0.63221 0.40546
 C488 C 0.09782 0.63011 0.43563
 C489 C 0.07965 0.60216 0.45552
 C490 C 0.04837 0.57636 0.44566
 C491 C 0.03560 0.58010 0.41597
 N492 N 0.05392 0.60744 0.39685
 C493 C 0.10401 0.65997 0.38227
 N494 N 0.08755 0.66761 0.35940
 C495 C 0.10365 0.69148 0.33619
 C496 C 0.13836 0.70873 0.33473
 C497 C 0.15583 0.70142 0.35806
 C498 C 0.13883 0.67713 0.38183
 H499 H 0.09033 0.60057 0.47840
 H500 H 0.01146 0.56096 0.40754
 H501 H 0.08943 0.69651 0.31849
 H502 H 0.18264 0.71397 0.35732
 H503 H 0.12179 0.64970 0.44391
 H504 H 0.15292 0.67111 0.39877
 C505 C 0.91851 0.54452 0.90564
 C506 C 0.90607 0.53088 0.93649
 C507 C 0.92469 0.52244 0.95699
 C508 C 0.95583 0.52777 0.94708
 C509 C 0.96808 0.54294 0.91669
 N510 N 0.94931 0.55067 0.89695
 C511 C 0.89862 0.55139 0.88197
 N512 N 0.91436 0.57513 0.85850
 C513 C 0.89752 0.58162 0.83518
 C514 C 0.86279 0.56323 0.83434
 C515 C 0.84608 0.53864 0.85817
 C516 C 0.86382 0.53263 0.88198
 H517 H 0.91440 0.51121 0.98040
 H518 H 0.99210 0.54777 0.90820
 H519 H 0.91116 0.60077 0.81707
 H520 H 0.81929 0.52369 0.85793
 H521 H 0.88220 0.52661 0.94478
 H522 H 0.85034 0.51274 0.89945
 C523 C 0.45168 0.36600 0.90823
 C524 C 0.46755 0.36753 0.93774
 C525 C 0.47818 0.39559 0.95784
 C526 C 0.47291 0.42225 0.94889
 C527 C 0.45552 0.41895 0.91984
 N528 N 0.44569 0.39144 0.90050
 C529 C 0.44225 0.33807 0.88479
 N530 N 0.41761 0.33096 0.86292
 C531 C 0.40900 0.30693 0.83955
 C532 C 0.42610 0.28895 0.83687
 C533 C 0.45139 0.29569 0.85919
 C534 C 0.45955 0.32015 0.88314
 H535 H 0.49094 0.39649 0.98019
 H536 H 0.45040 0.43851 0.91201
 H537 H 0.38934 0.30233 0.82266
 H538 H 0.46537 0.28256 0.85750
 H539 H 0.47182 0.34737 0.94536
 H540 H 0.48003 0.32572 0.89924
 C541 C 0.62475 0.08466 0.90146
 C542 C 0.59622 0.05590 0.89049
 C543 C 0.57073 0.03707 0.91229
 C544 C 0.57331 0.04700 0.94499
 C545 C 0.60268 0.07551 0.95523
 N546 N 0.62746 0.09338 0.93349
 C547 C 0.65105 0.10598 0.87824
 N548 N 0.68341 0.11705 0.88553
 C549 C 0.70825 0.13552 0.86405
 C550 C 0.70097 0.14395 0.83345
 C551 C 0.66786 0.13376 0.82612
 C552 C 0.64287 0.11453 0.84826
 H553 H 0.54854 0.01532 0.90328
 H554 H 0.60571 0.08384 0.98030
 H555 H 0.73357 0.14322 0.87063
 H556 H 0.66135 0.14039 0.80306
 H557 H 0.59360 0.04821 0.86521
 H558 H 0.61738 0.10654 0.84210
 C559 C 0.08356 0.44266 0.39998
 C560 C 0.05287 0.43831 0.39018
 C561 C 0.03428 0.44572 0.41181
 C562 C 0.04651 0.45826 0.44311
 C563 C 0.07698 0.46105 0.45231
 N564 N 0.09451 0.45331 0.43078
 C565 C 0.10497 0.43817 0.37646
 N566 N 0.11859 0.41867 0.38406
 C567 C 0.13840 0.41390 0.36276
 C568 C 0.14602 0.42991 0.33224
 C569 C 0.13269 0.45062 0.32443
 C570 C 0.11186 0.45444 0.34624
 H571 H 0.01092 0.44284 0.40344
 H572 H 0.08726 0.47009 0.47627
 H573 H 0.14829 0.39779 0.36964
 H574 H 0.13843 0.46383 0.30138
 H575 H 0.04362 0.42974 0.36581
 H576 H 0.10169 0.47047 0.33987
 C577 C 0.56679 0.64106 0.40383
 C578 C 0.56324 0.64561 0.43710
 C579 C 0.55339 0.61857 0.45846
 C580 C 0.54763 0.58725 0.44684
 C581 C 0.55260 0.58412 0.41360
 N582 N 0.56136 0.61055 0.39314
 C583 C 0.57329 0.66753 0.37970
 N584 N 0.55866 0.65815 0.34996
 C585 C 0.56210 0.68095 0.32694
 C586 C 0.58148 0.71557 0.33318
 C587 C 0.59745 0.72585 0.36342
 C588 C 0.59328 0.70192 0.38682
 H589 H 0.54969 0.62196 0.48393
 H590 H 0.54816 0.56032 0.40363
 H591 H 0.54925 0.67206 0.30397
 H592 H 0.61277 0.75237 0.36896
 H593 H 0.56656 0.66928 0.44630
 H594 H 0.60567 0.71021 0.41008
 C595 C 0.35800 0.91367 0.40503
 C596 C 0.35941 0.90064 0.43553
 C597 C 0.38649 0.91919 0.45581
 C598 C 0.41215 0.95088 0.44603
 C599 C 0.40912 0.96368 0.41595
 N600 N 0.38257 0.94496 0.39643
 C601 C 0.33107 0.89386 0.38159
 N602 N 0.32314 0.91025 0.35871
 C603 C 0.29975 0.89351 0.33551
 C604 C 0.28331 0.85822 0.33412
 C605 C 0.29102 0.84085 0.35742
 C606 C 0.31480 0.85849 0.38115
 H607 H 0.38752 0.90847 0.47899
 H608 H 0.42818 0.98813 0.40758
 H609 H 0.29440 0.90768 0.31781
 H610 H 0.27914 0.81363 0.35673
 H611 H 0.33992 0.87636 0.44376
 H612 H 0.32110 0.84449 0.39813
 C613 C 0.54528 0.91961 0.10102
 C614 C 0.54353 0.94777 0.11177
 C615 C 0.53552 0.96575 0.08980
 C616 C 0.52882 0.95556 0.05714
 C617 C 0.53163 0.92769 0.04712
 N618 N 0.53981 0.91065 0.06902
 C619 C 0.55181 0.89911 0.12432
 N620 N 0.57338 0.88816 0.11652
 C621 C 0.58074 0.86995 0.13774
 C622 C 0.56568 0.86149 0.16859
 C623 C 0.54268 0.87175 0.17657
 C624 C 0.53595 0.89079 0.15470
 H625 H 0.53362 0.98706 0.09863
 H626 H 0.52691 0.91921 0.02208
 H627 H 0.59843 0.86224 0.13067
 H628 H 0.53001 0.86509 0.19983
 H629 H 0.54816 0.95569 0.13699
 H630 H 0.51819 0.89860 0.16128
 C631 C 0.37725 0.45372 0.09779
 C632 C 0.39449 0.43575 0.09871
 C633 C 0.42109 0.44463 0.07753
 C634 C 0.43013 0.47091 0.05513
 C635 C 0.41172 0.48767 0.05451
 N636 N 0.38644 0.47911 0.07586
 C637 C 0.35077 0.44724 0.12138
 N638 N 0.34784 0.47372 0.13248
 C639 C 0.32457 0.46986 0.15474
 C640 C 0.30216 0.43778 0.16667
 C641 C 0.30429 0.41004 0.15527
 C642 C 0.32872 0.41467 0.13272
 H643 H 0.43478 0.43120 0.07887
 H644 H 0.41810 0.50830 0.03782
 H645 H 0.32356 0.49177 0.16318
 H646 H 0.28728 0.38496 0.16411
 H647 H 0.38829 0.41592 0.11634
 H648 H 0.33007 0.39303 0.12401
 C649 C 0.08438 0.63152 0.09312
 C650 C 0.09733 0.63006 0.06264
 C651 C 0.07945 0.60219 0.04258
 C652 C 0.04852 0.57581 0.05256
 C653 C 0.03576 0.57891 0.08257
 N654 N 0.05382 0.60622 0.10188
 C655 C 0.10348 0.65925 0.11640
 N656 N 0.08699 0.66670 0.13947
 C657 C 0.10309 0.69066 0.16263
 C658 C 0.13782 0.70824 0.16380
 C659 C 0.15530 0.70109 0.14027
 C660 C 0.13831 0.67670 0.11658
 H661 H 0.09010 0.60113 0.01945
 H662 H 0.01188 0.55931 0.09110
 H663 H 0.08885 0.69556 0.18049
 H664 H 0.18212 0.71386 0.14078
 H665 H 0.12103 0.65009 0.05426
 H666 H 0.15242 0.67083 0.09945
 C667 C 0.43811 0.08263 0.59175
 C668 C 0.45195 0.09532 0.56105
 C669 C 0.46107 0.07669 0.54097
 C670 C 0.45622 0.04527 0.55115
 C671 C 0.44079 0.03271 0.58134
 N672 N 0.43241 0.05152 0.60068
 C673 C 0.43087 0.10277 0.61516
 N674 N 0.40723 0.08671 0.63840
 C675 C 0.40079 0.10377 0.66181
 C676 C 0.41925 0.13905 0.66312
 C677 C 0.44357 0.15609 0.63939
 C678 C 0.44944 0.13813 0.61539
 H679 H 0.47247 0.08721 0.51770
 H680 H 0.43629 0.00846 0.59001
 H681 H 0.38184 0.08985 0.67982
 H682 H 0.45859 0.18329 0.63999
 H683 H 0.45595 0.11945 0.55259
 H684 H 0.46921 0.15186 0.59811
 C685 C 0.64283 0.55926 0.59849
 C686 C 0.62006 0.57032 0.60492
 C687 C 0.59308 0.56079 0.58420
 C688 C 0.58859 0.54027 0.55708
 C689 C 0.61219 0.53023 0.55118
 N690 N 0.63811 0.53956 0.57189
 C691 C 0.67028 0.56611 0.62110
 N692 N 0.68259 0.54457 0.62131
 C693 C 0.70626 0.54776 0.64271
 C694 C 0.71865 0.57364 0.66589
 C695 C 0.70735 0.59690 0.66545
 C696 C 0.68326 0.59333 0.64304
 H697 H 0.57540 0.56897 0.58981
 H698 H 0.60967 0.51432 0.53061
 H699 H 0.71464 0.52950 0.64231
 H700 H 0.71675 0.61740 0.68285
 H701 H 0.62214 0.58508 0.62628
 H702 H 0.67497 0.61163 0.64312
 C703 C 0.91729 0.35753 0.59351
 C704 C 0.90945 0.35386 0.56021
 C705 C 0.92793 0.38069 0.53901
 C706 C 0.95449 0.41076 0.55089
 C707 C 0.96209 0.41289 0.58418
 N708 N 0.94326 0.38684 0.60441
 C709 C 0.89663 0.33160 0.61757
 N710 N 0.89218 0.34176 0.64737
 C711 C 0.87302 0.31962 0.67071
 C712 C 0.85732 0.28484 0.66484
 C713 C 0.86204 0.27373 0.63446
 C714 C 0.88148 0.29703 0.61065
 H715 H 0.92117 0.37813 0.51352
 H716 H 0.98218 0.43572 0.59441
 H717 H 0.86976 0.32919 0.69371
 H718 H 0.85047 0.24706 0.62916
 H719 H 0.88849 0.33114 0.55088
 H720 H 0.88495 0.28814 0.58733
   
