data_POSCAR
  _audit_creation_date              2014-09-24
  _audit_creation_method            'ToBaCCo'
  _symmetry_space_group_name_H-M    'P1'
  _symmetry_Int_Tables_number       1
  _symmetry_cell_setting            triclinic
  loop_
  _symmetry_equiv_pos_as_xyz
 x,y,z
_cell_length_a 30.0521
_cell_length_b 30.8246
_cell_length_c 30.4535
_cell_angle_alpha 89.561600
_cell_angle_beta 91.726000
_cell_angle_gamma 90.762900
loop_
  _atom_site_label
  _atom_site_type_symbol
  _atom_site_fract_x
  _atom_site_fract_y
  _atom_site_fract_z
O1 O 0.53087 0.08876 0.01146
 O2 O 0.46688 0.00352 -0.07971
 O3 O 0.59580 -0.00150 -0.01433
 O4 O 0.40170 0.03663 0.01643
 O5 O 0.55148 -0.00301 -0.07276
 O6 O 0.45396 0.07825 -0.00329
 O7 O 0.41059 -0.01587 -0.04105
 O8 O 0.58234 0.05248 0.04340
 C9 C 0.57047 0.08575 0.02261
 C10 C 0.42573 0.00150 -0.07541
 C11 C 0.58941 0.00219 -0.05538
 C12 C 0.41371 0.07055 -0.00280
 O13 O 0.44362 0.04812 0.08120
 O14 O 0.54195 -0.07681 -0.03005
 O15 O 0.54708 -0.01016 0.09385
 O16 O 0.44123 -0.07433 0.02076
 O17 O 0.46010 -0.07558 -0.04562
 O18 O 0.52317 0.05551 0.09389
 O19 O 0.43748 -0.02048 0.07632
 O20 O 0.57000 -0.06502 0.03645
 Co21 Co 0.48842 0.06210 0.04309
 Co22 Co 0.50397 -0.03395 -0.05036
 Co23 Co 0.56620 -0.00520 0.03770
 Co24 Co 0.42895 -0.01678 0.01757
 O25 O 0.49753 0.00121 0.01183
 C26 C 0.43363 0.01250 0.09862
 C27 C 0.56417 -0.08912 0.00373
 C28 C 0.53847 0.02313 0.11458
 C29 C 0.44472 -0.09525 -0.01334
 O30 O -0.09046 0.48372 -0.02580
 O31 O 0.02481 0.53200 0.07775
 O32 O -0.02417 0.43421 0.04649
 O33 O -0.04370 0.58256 0.00728
 O34 O 0.03811 0.45728 0.07345
 O35 O -0.07540 0.55515 -0.04987
 O36 O 0.03120 0.58802 0.03857
 O37 O -0.05856 0.42354 -0.02528
 C38 C -0.09205 0.44462 -0.01724
 C39 C 0.02133 0.57167 0.07437
 C40 C 0.00137 0.43850 0.07884
 C41 C -0.07799 0.57719 -0.01573
 O42 O -0.01122 0.52424 -0.10455
 O43 O 0.09565 0.47298 0.00463
 O44 O 0.02123 0.42499 -0.06138
 O45 O 0.06441 0.57298 -0.04037
 O46 O 0.09261 0.54790 0.01970
 O47 O -0.03678 0.45327 -0.09123
 O48 O -0.00872 0.58455 -0.07287
 O49 O 0.05431 0.41830 0.01171
 Co50 Co -0.04799 0.50404 -0.06255
 Co51 Co 0.05734 0.50261 0.03859
 Co52 Co -0.00117 0.43296 -0.00761
 Co53 Co 0.01015 0.57431 -0.01636
 O54 O 0.00458 0.50350 -0.01198
 C55 C -0.00201 0.56329 -0.10649
 C56 C 0.09046 0.43350 0.00024
 C57 C -0.00363 0.42941 -0.09420
 C58 C 0.09779 0.56664 -0.01649
 O59 O -0.03420 -0.09462 0.46566
 O60 O 0.07215 0.05483 0.53741
 O61 O 0.04544 -0.02093 0.42791
 O62 O 0.03771 -0.07490 0.55986
 O63 O 0.07277 0.03627 0.45828
 O64 O -0.02956 -0.09687 0.54721
 O65 O 0.07834 -0.01167 0.54376
 O66 O -0.03185 -0.04838 0.41177
 C67 C -0.03240 -0.08690 0.42540
 C68 C 0.09578 0.02407 0.54892
 C69 C 0.07809 0.00339 0.43510
 C70 C 0.00967 -0.10480 0.55916
 O71 O -0.08696 -0.03554 0.55299
 O72 O -0.00816 0.07364 0.44864
 O73 O -0.06648 0.02169 0.44037
 O74 O 0.01304 0.03794 0.58461
 O75 O -0.01070 0.07818 0.52956
 O76 O -0.09738 -0.03526 0.46904
 O77 O -0.02764 -0.02893 0.59664
 O78 O -0.00496 0.03369 0.38953
 Co79 Co -0.05686 -0.06013 0.50782
 Co80 Co 0.02838 0.05389 0.49395
 Co81 Co -0.00945 0.00051 0.43819
 Co82 Co 0.02369 -0.01812 0.56605
 O83 O -0.00462 -0.00985 0.50378
 C84 C -0.06962 -0.02851 0.59041
 C85 C -0.00331 0.07252 0.40714
 C86 C -0.10057 -0.00060 0.44730
 C87 C -0.00691 0.07144 0.57014
 C88 C -0.38868 0.19823 -0.00733
 C89 C -0.34680 0.19941 0.01383
 C90 C -0.33055 0.16233 0.03548
 C91 C -0.35671 0.12449 0.03703
 C92 C -0.39944 0.12351 0.01699
 C93 C -0.41484 0.16055 -0.00582
 C94 C -0.32076 0.23884 0.01374
 C95 C -0.29831 0.27147 0.01367
 C96 C -0.27008 0.30831 0.01340
 C97 C -0.24323 0.33761 0.01283
 C98 C -0.20722 0.36864 0.01151
 C99 C -0.16483 0.35464 0.02449
 C100 C -0.12778 0.38078 0.01703
 C101 C -0.13249 0.42166 -0.00314
 C102 C -0.17537 0.43696 -0.01371
 C103 C -0.21274 0.41023 -0.00675
 H104 H -0.40142 0.22665 -0.02439
 H105 H -0.29800 0.16290 0.05178
 H106 H -0.34405 0.09650 0.05486
 H107 H -0.44759 0.16078 -0.02167
 H108 H -0.16014 0.32252 0.03847
 H109 H -0.09513 0.36817 0.02544
 H110 H -0.17972 0.46826 -0.02956
 H111 H -0.24550 0.42122 -0.01717
 C112 C 0.40351 0.80277 -0.06247
 C113 C 0.38100 0.78458 -0.02710
 C114 C 0.38383 0.80463 0.01392
 C115 C 0.40706 0.84387 0.01917
 C116 C 0.42768 0.86409 -0.01684
 C117 C 0.42700 0.84203 -0.05738
 C118 C 0.35123 0.74802 -0.03348
 C119 C 0.32407 0.71908 -0.03752
 C120 C 0.29004 0.68710 -0.04045
 C121 C 0.25942 0.66141 -0.04115
 C122 C 0.22131 0.63270 -0.03950
 C123 C 0.21844 0.60221 -0.00540
 C124 C 0.17881 0.57904 0.00071
 C125 C 0.14138 0.58624 -0.02714
 C126 C 0.14524 0.61529 -0.06273
 C127 C 0.18495 0.63852 -0.06872
 H128 H 0.40153 0.78750 -0.09441
 H129 H 0.36653 0.79080 0.04155
 H130 H 0.40714 0.85914 0.05112
 H131 H 0.44281 0.85595 -0.08584
 H132 H 0.24625 0.59761 0.01756
 H133 H 0.17693 0.55673 0.02826
 H134 H 0.11700 0.62150 -0.08473
 H135 H 0.18668 0.66227 -0.09505
 C136 C 0.36960 0.17537 -0.05054
 C137 C 0.32520 0.17335 -0.03824
 C138 C 0.30847 0.13554 -0.01848
 C139 C 0.33665 0.10066 -0.00911
 C140 C 0.38193 0.10351 -0.01912
 C141 C 0.39778 0.14067 -0.04116
 C142 C 0.29816 0.21144 -0.04203
 C143 C 0.27570 0.24356 -0.04314
 C144 C 0.24859 0.28053 -0.04217
 C145 C 0.22370 0.31066 -0.03951
 C146 C 0.19105 0.34377 -0.03422
 C147 C 0.14622 0.33133 -0.03485
 C148 C 0.11383 0.36115 -0.02474
 C149 C 0.12561 0.40418 -0.01403
 C150 C 0.17058 0.41719 -0.01510
 C151 C 0.20330 0.38690 -0.02489
 H152 H 0.38291 0.20444 -0.06580
 H153 H 0.27411 0.13369 -0.00875
 H154 H 0.32357 0.07243 0.00780
 H155 H 0.43247 0.14369 -0.04954
 H156 H 0.13634 0.29809 -0.04185
 H157 H 0.07947 0.35016 -0.02447
 H158 H 0.18049 0.45013 -0.00695
 H159 H 0.23804 0.39678 -0.02407
 C160 C -0.38255 0.80727 -0.03378
 C161 C -0.36150 0.79321 0.00539
 C162 C -0.36858 0.81518 0.04449
 C163 C -0.39481 0.85220 0.04422
 C164 C -0.41437 0.86791 0.00472
 C165 C -0.40906 0.84434 -0.03411
 C166 C -0.32923 0.75910 0.00514
 C167 C -0.30047 0.73218 0.00550
 C168 C -0.26525 0.70231 0.00592
 C169 C -0.23422 0.67791 0.00559
 C170 C -0.19642 0.64985 0.00367
 C171 C -0.15858 0.65729 0.03074
 C172 C -0.12030 0.63261 0.02570
 C173 C -0.11944 0.60043 -0.00674
 C174 C -0.15813 0.59224 -0.03271
 C175 C -0.19629 0.61683 -0.02755
 H176 H -0.37712 0.79060 -0.06430
 H177 H -0.35239 0.80469 0.07495
 H178 H -0.39840 0.86944 0.07474
 H179 H -0.42357 0.85567 -0.06502
 H180 H -0.15828 0.68288 0.05494
 H181 H -0.09102 0.63960 0.04618
 H182 H -0.15860 0.56749 -0.05777
 H183 H -0.22531 0.61082 -0.04872
 C184 C -0.00103 -0.38997 0.18975
 C185 C -0.00685 -0.34544 0.18226
 C186 C -0.00504 -0.32871 0.13956
 C187 C 0.00341 -0.35600 0.10457
 C188 C 0.01020 -0.40058 0.11172
 C189 C 0.00731 -0.41751 0.15458
 C190 C -0.01297 -0.31606 0.21802
 C191 C -0.01727 -0.28959 0.24647
 C192 C -0.02145 -0.25694 0.27826
 C193 C -0.02441 -0.22804 0.30442
 C194 C -0.02730 -0.19271 0.33480
 C195 C -0.02665 -0.14984 0.31927
 C196 C -0.02854 -0.11534 0.34867
 C197 C -0.03110 -0.12330 0.39407
 C198 C -0.03190 -0.16654 0.40935
 C199 C -0.03001 -0.20098 0.37988
 H200 H -0.00233 -0.40324 0.22273
 H201 H -0.00952 -0.29436 0.13336
 H202 H 0.00507 -0.34205 0.07190
 H203 H 0.01232 -0.45173 0.16098
 H204 H -0.02446 -0.14308 0.28443
 H205 H -0.02780 -0.08247 0.33586
 H206 H -0.03380 -0.17378 0.44411
 H207 H -0.03043 -0.23402 0.39227
 C208 C 0.03039 0.33722 0.83348
 C209 C -0.00114 0.34070 0.79888
 C210 C -0.03002 0.37589 0.79698
 C211 C -0.02893 0.40636 0.83067
 C212 C 0.00096 0.40184 0.86681
 C213 C 0.03159 0.36774 0.86724
 C214 C -0.00639 0.30643 0.76738
 C215 C -0.01173 0.27703 0.74190
 C216 C -0.01808 0.24200 0.71286
 C217 C -0.02262 0.21166 0.68841
 C218 C -0.02596 0.17516 0.65941
 C219 C -0.03450 0.18161 0.61444
 C220 C -0.03135 0.14700 0.58539
 C221 C -0.01923 0.10562 0.60107
 C222 C -0.01337 0.09893 0.64661
 C223 C -0.01664 0.13355 0.67557
 H224 H 0.05290 0.31005 0.83522
 H225 H -0.05451 0.37888 0.77031
 H226 H -0.05278 0.43242 0.82933
 H227 H 0.05500 0.36347 0.89457
 H228 H -0.04173 0.21373 0.60163
 H229 H -0.03603 0.15319 0.55051
 H230 H -0.00415 0.06742 0.65969
 H231 H -0.01000 0.12824 0.71036
 C232 C 0.02026 0.38510 0.18970
 C233 C -0.01811 0.35913 0.19248
 C234 C -0.05246 0.36318 0.16072
 C235 C -0.04744 0.39137 0.12499
 C236 C -0.00777 0.41551 0.12045
 C237 C 0.02537 0.41327 0.15398
 C238 C -0.01986 0.32495 0.22480
 C239 C -0.01994 0.29486 0.25027
 C240 C -0.01871 0.25837 0.27847
 C241 C -0.01680 0.22646 0.30150
 C242 C -0.01376 0.18780 0.32810
 C243 C -0.00830 0.14751 0.30818
 C244 C -0.00474 0.10988 0.33389
 C245 C -0.00662 0.11219 0.37986
 C246 C -0.01204 0.15281 0.39961
 C247 C -0.01559 0.19039 0.37385
 H248 H 0.04712 0.38211 0.21403
 H249 H -0.08227 0.34316 0.16252
 H250 H -0.07371 0.39275 0.09997
 H251 H 0.05623 0.43155 0.15150
 H252 H -0.00670 0.14519 0.27278
 H253 H -0.00049 0.07906 0.31781
 H254 H -0.01365 0.15555 0.43496
 H255 H -0.01969 0.22142 0.38959
 C256 C 0.02594 -0.41868 0.77781
 C257 C 0.03393 -0.37383 0.77803
 C258 C 0.03211 -0.35093 0.81729
 C259 C 0.02096 -0.37219 0.85599
 C260 C 0.01133 -0.41714 0.85630
 C261 C 0.01506 -0.44036 0.81677
 C262 C 0.04017 -0.34972 0.73806
 C263 C 0.04328 -0.32601 0.70665
 C264 C 0.04432 -0.29477 0.67266
 C265 C 0.04289 -0.26561 0.64614
 C266 C 0.03832 -0.22843 0.61765
 C267 C 0.07078 -0.19542 0.61878
 C268 C 0.06246 -0.15569 0.59780
 C269 C 0.02132 -0.14847 0.57588
 C270 C -0.01013 -0.18261 0.57303
 C271 C -0.00169 -0.22228 0.59388
 H272 H 0.02708 -0.43667 0.74746
 H273 H 0.03813 -0.31618 0.81778
 H274 H 0.01916 -0.35298 0.88553
 H275 H 0.00831 -0.47497 0.81553
 H276 H 0.10164 -0.19965 0.63754
 H277 H 0.08734 -0.13003 0.60051
 H278 H -0.04199 -0.17813 0.55614
 H279 H -0.02723 -0.24743 0.59319
 C280 C 0.38691 0.04062 0.81587
 C281 C 0.34100 0.03402 0.81866
 C282 C 0.32323 0.01950 0.85819
 C283 C 0.35138 0.01000 0.89432
 C284 C 0.39805 0.01449 0.89134
 C285 C 0.41520 0.03121 0.85182
 C286 C 0.31262 0.03896 0.78004
 C287 C 0.28904 0.04132 0.74738
 C288 C 0.26115 0.04211 0.70923
 C289 C 0.23659 0.04117 0.67718
 C290 C 0.20589 0.03812 0.64007
 C291 C 0.19511 -0.00262 0.62246
 C292 C 0.16101 -0.00684 0.59052
 C293 C 0.13714 0.02970 0.57586
 C294 C 0.14978 0.07086 0.59192
 C295 C 0.18389 0.07500 0.62401
 H296 H 0.40102 0.05191 0.78544
 H297 H 0.28766 0.01436 0.86072
 H298 H 0.33650 -0.00207 0.92408
 H299 H 0.45069 0.03582 0.84795
 H300 H 0.21185 -0.03140 0.63469
 H301 H 0.15194 -0.03895 0.57880
 H302 H 0.13181 0.09952 0.58138
 H303 H 0.19186 0.10668 0.63749
 C304 C -0.40790 -0.00687 0.22388
 C305 C -0.39762 0.03412 0.24113
 C306 C -0.41425 0.07129 0.21997
 C307 C -0.43868 0.06757 0.18024
 C308 C -0.44614 0.02663 0.16104
 C309 C -0.43202 -0.01064 0.18415
 C310 C -0.36507 0.03776 0.27667
 C311 C -0.33549 0.03908 0.30433
 C312 C -0.29879 0.03853 0.33443
 C313 C -0.26617 0.03618 0.35838
 C314 C -0.22612 0.03097 0.38501
 C315 C -0.18838 0.05667 0.37707
 C316 C -0.14777 0.04766 0.39876
 C317 C -0.14440 0.01257 0.42846
 C318 C -0.18292 -0.01200 0.43745
 C319 C -0.22343 -0.00287 0.41582
 H320 H -0.39508 -0.03586 0.23984
 H321 H -0.40627 0.10321 0.23285
 H322 H -0.44897 0.09686 0.16311
 H323 H -0.43738 -0.04260 0.17027
 H324 H -0.18995 0.08273 0.35302
 H325 H -0.11871 0.06711 0.39105
 H326 H -0.18148 -0.03917 0.46019
 H327 H -0.25230 -0.02319 0.42201
 C328 C 0.37294 0.04485 0.20051
 C329 C 0.35926 0.00425 0.21659
 C330 C 0.37336 -0.03353 0.19628
 C331 C 0.39946 -0.03079 0.15910
 C332 C 0.41174 0.00986 0.14153
 C333 C 0.39917 0.04768 0.16328
 C334 C 0.32781 0.00121 0.25141
 C335 C 0.30003 -0.00163 0.27918
 C336 C 0.26602 -0.00485 0.31024
 C337 C 0.23589 -0.00700 0.33558
 C338 C 0.19866 -0.00833 0.36443
 C339 C 0.16328 -0.03761 0.35662
 C340 C 0.12477 -0.03543 0.38125
 C341 C 0.12108 -0.00371 0.41387
 C342 C 0.15758 0.02429 0.42279
 C343 C 0.19603 0.02202 0.39818
 H344 H 0.36214 0.07434 0.21584
 H345 H 0.36294 -0.06513 0.20830
 H346 H 0.40867 -0.06052 0.14319
 H347 H 0.40807 0.07941 0.15054
 H348 H 0.16483 -0.06115 0.33049
 H349 H 0.09720 -0.05732 0.37349
 H350 H 0.15580 0.04903 0.44772
 H351 H 0.22309 0.04491 0.40450
 C352 C -0.29303 0.01005 0.90259
 C353 C -0.30157 0.01682 0.85758
 C354 C -0.34536 0.02245 0.84195
 C355 C -0.38060 0.01965 0.87071
 C356 C -0.37265 0.01113 0.91573
 C357 C -0.32837 0.00740 0.93159
 C358 C -0.26633 0.01476 0.82658
 C359 C -0.23847 0.01169 0.79907
 C360 C -0.20757 0.00681 0.76540
 C361 C -0.18247 0.00176 0.73571
 C362 C -0.15386 -0.00516 0.69930
 C363 C -0.10750 -0.00346 0.70529
 C364 C -0.08003 -0.01112 0.66992
 C365 C -0.09862 -0.02060 0.62801
 C366 C -0.14526 -0.02198 0.62232
 C367 C -0.17261 -0.01437 0.65771
 H368 H -0.25927 0.00550 0.91507
 H369 H -0.35242 0.02764 0.80722
 H370 H -0.41423 0.02285 0.85740
 H371 H -0.32115 0.00070 0.96601
 H372 H -0.09258 0.00362 0.73731
 H373 H -0.04428 -0.00962 0.67539
 H374 H -0.16066 -0.02905 0.59052
 H375 H -0.20844 -0.01581 0.65266
   
