data_POSCAR
  _audit_creation_date              2014-09-24
  _audit_creation_method            'ToBaCCo'
  _symmetry_space_group_name_H-M    'P1'
  _symmetry_Int_Tables_number       1
  _symmetry_cell_setting            triclinic
  loop_
  _symmetry_equiv_pos_as_xyz
 x,y,z
_cell_length_a 53.4291
_cell_length_b 53.4160
_cell_length_c 53.3315
_cell_angle_alpha 89.998100
_cell_angle_beta 90.021700
_cell_angle_gamma 89.930200
loop_
  _atom_site_label
  _atom_site_type_symbol
  _atom_site_fract_x
  _atom_site_fract_y
  _atom_site_fract_z
C1 C 0.18609 0.15337 0.18576
 C2 C 0.17469 0.14233 0.20675
 C3 C 0.15261 0.15247 0.21738
 C4 C 0.14208 0.17391 0.20587
 C5 C 0.15339 0.18517 0.18501
 C6 C 0.17549 0.17491 0.17495
 C7 C 0.20807 0.14314 0.17558
 C8 C 0.21996 0.15412 0.15457
 C9 C 0.20905 0.17594 0.14418
 C10 C 0.18702 0.18625 0.15411
 C11 C 0.17651 0.20796 0.14363
 C12 C 0.15437 0.21832 0.15346
 C13 C 0.14285 0.20663 0.17408
 H14 H 0.18398 0.12651 0.21535
 H15 H 0.12456 0.18166 0.21247
 H16 H 0.21510 0.12592 0.18362
 H17 H 0.21802 0.18575 0.12888
 H18 H 0.18578 0.21699 0.12798
 H19 H 0.12557 0.21417 0.18159
 C20 C -0.18375 0.84881 0.18401
 C21 C -0.17298 0.85942 0.20553
 C22 C -0.15214 0.84821 0.21751
 C23 C -0.14226 0.82602 0.20690
 C24 C -0.15270 0.81542 0.18523
 C25 C -0.17353 0.82684 0.17376
 C26 C -0.20462 0.86003 0.17262
 C27 C -0.21599 0.84946 0.15111
 C28 C -0.20519 0.82747 0.14097
 C29 C -0.18419 0.81621 0.15208
 C30 C -0.17386 0.79427 0.14193
 C31 C -0.15310 0.78265 0.15328
 C32 C -0.14272 0.79335 0.17502
 H33 H -0.18056 0.87696 0.21226
 H34 H -0.12702 0.81613 0.21590
 H35 H -0.21137 0.87750 0.18034
 H36 H -0.21365 0.81813 0.12509
 H37 H -0.18183 0.78641 0.12498
 H38 H -0.12702 0.78434 0.18421
 C39 C -0.18685 0.15425 -0.18661
 C40 C -0.17551 0.14331 -0.20768
 C41 C -0.15336 0.15334 -0.21782
 C42 C -0.14248 0.17440 -0.20635
 C43 C -0.15372 0.18566 -0.18545
 C44 C -0.17600 0.17557 -0.17555
 C45 C -0.20889 0.14416 -0.17651
 C46 C -0.22066 0.15507 -0.15537
 C47 C -0.20959 0.17672 -0.14483
 C48 C -0.18748 0.18689 -0.15466
 C49 C -0.17683 0.20844 -0.14404
 C50 C -0.15461 0.21867 -0.15379
 C51 C -0.14308 0.20696 -0.17441
 H52 H -0.18426 0.12728 -0.21652
 H53 H -0.12517 0.18203 -0.21367
 H54 H -0.21606 0.12710 -0.18472
 H55 H -0.21850 0.18650 -0.12947
 H56 H -0.18608 0.21748 -0.12838
 H57 H -0.12574 0.21438 -0.18185
 C58 C 0.18560 0.84674 -0.18499
 C59 C 0.17553 0.85688 -0.20707
 C60 C 0.15445 0.84600 -0.21890
 C61 C 0.14391 0.82435 -0.20783
 C62 C 0.15372 0.81413 -0.18568
 C63 C 0.17456 0.82541 -0.17415
 C64 C 0.20663 0.85763 -0.17361
 C65 C 0.21677 0.84755 -0.15143
 C66 C 0.20532 0.82648 -0.14054
 C67 C 0.18445 0.81526 -0.15182
 C68 C 0.17344 0.79394 -0.14120
 C69 C 0.15286 0.78228 -0.15279
 C70 C 0.14312 0.79257 -0.17504
 H71 H 0.18373 0.87394 -0.21424
 H72 H 0.12859 0.81460 -0.21678
 H73 H 0.21546 0.87366 -0.18237
 H74 H 0.21264 0.81879 -0.12321
 H75 H 0.18087 0.78646 -0.12384
 H76 H 0.12750 0.78357 -0.18434
 C77 C 0.15247 1.18537 0.81492
 C78 C 0.14252 1.17512 0.79282
 C79 C 0.15365 1.15409 0.78111
 C80 C 0.17530 1.14371 0.79235
 C81 C 0.18533 1.15369 0.81450
 C82 C 0.17386 1.17457 0.82584
 C83 C 0.14133 1.20641 0.82611
 C84 C 0.15123 1.21712 0.84828
 C85 C 0.17249 1.20561 0.85915
 C86 C 0.18385 1.18469 0.84806
 C87 C 0.20516 1.17378 0.85890
 C88 C 0.21698 1.15313 0.84757
 C89 C 0.20689 1.14323 0.82532
 H90 H 0.12541 1.18316 0.78554
 H91 H 0.18520 1.12838 0.78354
 H92 H 0.12565 1.21500 0.81657
 H93 H 0.18003 1.21226 0.87675
 H94 H 0.21251 1.18135 0.87626
 H95 H 0.21602 1.12757 0.81619
 C96 C 0.84725 0.81484 0.81451
 C97 C 0.85844 0.82603 0.79348
 C98 C 0.84853 0.84815 0.78271
 C99 C 0.82719 0.85896 0.79413
 C100 C 0.81578 0.84786 0.81501
 C101 C 0.82580 0.82570 0.82521
 C102 C 0.85723 0.79280 0.82483
 C103 C 0.84606 0.78109 0.84585
 C104 C 0.82434 0.79228 0.85613
 C105 C 0.81428 0.81437 0.84606
 C106 C 0.79265 0.82514 0.85642
 C107 C 0.78254 0.84733 0.84644
 C108 C 0.79440 0.85866 0.82582
 H109 H 0.87418 0.81655 0.78497
 H110 H 0.81963 0.87653 0.78743
 H111 H 0.87439 0.78555 0.81687
 H112 H 0.81440 0.78347 0.87144
 H113 H 0.78349 0.81602 0.87207
 H114 H 0.78704 0.87597 0.81820
 C115 C 0.15475 0.81316 1.18574
 C116 C 0.14374 0.82438 1.20685
 C117 C 0.15370 0.84651 1.21712
 C118 C 0.17474 0.85750 1.20574
 C119 C 0.18607 0.84637 1.18482
 C120 C 0.17606 0.82410 1.17479
 C121 C 0.14474 0.79113 1.17553
 C122 C 0.15574 0.77944 1.15439
 C123 C 0.17737 0.79062 1.14393
 C124 C 0.18746 0.81272 1.15389
 C125 C 0.20901 0.82347 1.14337
 C126 C 0.21916 0.84568 1.15326
 C127 C 0.20737 0.85710 1.17389
 H128 H 0.12772 0.81555 1.21561
 H129 H 0.18232 0.87480 1.21315
 H130 H 0.12768 0.78390 1.18367
 H131 H 0.18719 0.78179 1.12856
 H132 H 0.21811 0.81430 1.12770
 H133 H 0.21473 0.87444 1.18143
 C134 C 0.84629 1.18605 1.18623
 C135 C 0.85623 1.17585 1.20835
 C136 C 0.84526 1.15468 1.21993
 C137 C 0.82375 1.14417 1.20855
 C138 C 0.81375 1.15410 1.18635
 C139 C 0.82510 1.17504 1.17509
 C140 C 0.85726 1.20719 1.17512
 C141 C 0.84738 1.21745 1.15291
 C142 C 0.82646 1.20603 1.14171
 C143 C 0.81517 1.18506 1.15273
 C144 C 0.79399 1.17408 1.14180
 C145 C 0.78225 1.15341 1.15311
 C146 C 0.79232 1.14354 1.17541
 H147 H 0.87320 1.18404 1.21574
 H148 H 0.81395 1.12876 1.21729
 H149 H 0.87318 1.21599 1.18411
 H150 H 0.81894 1.21345 1.12436
 H151 H 0.78669 1.18162 1.12440
 H152 H 0.78325 1.12783 1.18450
 N153 N 0.52613 1.04449 0.97267
 N154 N 0.54541 1.05964 0.96972
 N155 N 0.47325 1.02701 0.95573
 N156 N 0.45356 1.02961 0.94101
 N157 N 0.47345 1.04443 0.97310
 N158 N 0.45395 1.05941 0.97059
 N159 N 0.52595 1.02724 0.95513
 N160 N 0.54505 1.03023 0.93974
 C161 C 0.55702 1.05055 0.94905
 C162 C 0.44173 1.04997 0.95046
 N163 N 0.47385 0.95568 0.97284
 N164 N 0.45434 0.94073 0.97042
 N165 N 0.52620 0.97330 0.95497
 N166 N 0.54556 0.97074 0.93981
 N167 N 0.52654 0.95598 0.97243
 N168 N 0.54617 0.94123 0.96970
 N169 N 0.47347 0.97319 0.95558
 N170 N 0.45365 0.97070 0.94102
 Mn171 Mn 0.49971 1.00018 0.95503
 C172 C 0.44194 0.95029 0.95043
 C173 C 0.55783 0.95060 0.94921
 N174 N 0.47391 1.04421 1.02706
 N175 N 0.45451 1.05924 1.03003
 N176 N 0.52684 1.02689 1.04397
 N177 N 0.54648 1.02952 1.05876
 N178 N 0.52658 1.04438 1.02668
 N179 N 0.54597 1.05944 1.02930
 N180 N 0.47414 1.02682 1.04446
 N181 N 0.45494 1.02961 1.05979
 Mn182 Mn 0.50003 1.04469 0.99988
 C183 C 0.44287 1.04995 1.05057
 C184 C 0.55820 1.04996 1.04944
 N185 N 0.52706 0.95581 1.02635
 N186 N 0.54683 0.94113 1.02865
 N187 N 0.47438 0.97286 1.04430
 N188 N 0.45506 0.97001 1.05945
 N189 N 0.47429 0.95559 1.02678
 N190 N 0.45485 0.94061 1.02947
 N191 N 0.52703 0.97307 1.04387
 N192 N 0.54672 0.97056 1.05859
 Mn193 Mn 0.50044 0.95544 0.99960
 Mn194 Mn 0.50059 0.99991 1.04447
 Cl195 Cl 0.50019 1.00006 0.99974
 C196 C 0.55888 0.95051 1.04892
 C197 C 0.44307 0.94977 1.05000
 N198 N 0.02716 0.47368 0.04412
 N199 N 0.03012 0.45434 0.05923
 N200 N 0.04431 0.52633 0.02645
 N201 N 0.05952 0.54560 0.02918
 N202 N 0.02718 0.52632 0.04409
 N203 N 0.03031 0.54553 0.05933
 N204 N 0.04425 0.47356 0.02644
 N205 N 0.05923 0.45406 0.02898
 C206 C 0.05024 0.44227 0.04958
 C207 C 0.05058 0.55739 0.04981
 N208 N 0.02607 0.52639 -0.04466
 N209 N 0.02858 0.54593 -0.05962
 N210 N 0.04363 0.47362 -0.02750
 N211 N 0.05845 0.45403 -0.03021
 N212 N 0.02603 0.47359 -0.04468
 N213 N 0.02836 0.45392 -0.05949
 N214 N 0.04370 0.52625 -0.02752
 N215 N 0.05875 0.54561 -0.03040
 Mn216 Mn 0.04429 0.49994 -0.00054
 C217 C 0.04912 0.55770 -0.05054
 C218 C 0.04876 0.44194 -0.05029
 N219 N -0.02671 0.52649 0.04465
 N220 N -0.02930 0.54593 0.05970
 N221 N -0.04434 0.47379 0.02751
 N222 N -0.05928 0.45434 0.03032
 N223 N -0.02671 0.47368 0.04466
 N224 N -0.02910 0.45407 0.05952
 N225 N -0.04435 0.52641 0.02751
 N226 N -0.05948 0.54571 0.03051
 Mn227 Mn 0.00022 0.50005 0.04470
 C228 C -0.04989 0.55772 0.05070
 C229 C -0.04958 0.44222 0.05041
 N230 N -0.02784 0.47378 -0.04412
 N231 N -0.03080 0.45444 -0.05922
 N232 N -0.04494 0.52650 -0.02648
 N233 N -0.06004 0.54589 -0.02917
 N234 N -0.02780 0.52640 -0.04411
 N235 N -0.03082 0.54567 -0.05931
 N236 N -0.04493 0.47371 -0.02645
 N237 N -0.05992 0.45424 -0.02899
 Mn238 Mn -0.00088 0.50004 -0.04471
 Mn239 Mn -0.04496 0.50010 0.00052
 Cl240 Cl -0.00033 0.50004 -0.00001
 C241 C -0.05092 0.44242 -0.04958
 C242 C -0.05103 0.55766 -0.04978
 N243 N 0.95654 0.02673 0.52658
 N244 N 0.94176 0.02930 0.54624
 N245 N 0.97349 0.04422 0.47369
 N246 N 0.97041 0.05946 0.45445
 N247 N 0.95620 0.02678 0.47374
 N248 N 0.94093 0.02964 0.45448
 N249 N 0.97379 0.04421 0.52643
 N250 N 0.97114 0.05921 0.54591
 C251 C 0.95103 0.04971 0.55809
 C252 C 0.94999 0.05015 0.44264
 N253 N 1.04478 0.02682 0.47326
 N254 N 1.05951 0.02938 0.45357
 N255 N 1.02771 0.04427 0.52611
 N256 N 1.03063 0.05946 0.54539
 N257 N 1.04507 0.02685 0.52610
 N258 N 1.06023 0.02969 0.54544
 N259 N 1.02740 0.04423 0.47337
 N260 N 1.02990 0.05914 0.45379
 Mn261 Mn 1.00060 0.04455 0.49990
 C262 C 1.05007 0.04968 0.44164
 C263 C 1.05103 0.05016 0.55728
 N264 N 0.95627 -0.02710 0.47375
 N265 N 0.94124 -0.02974 0.45430
 N266 N 0.97404 -0.04445 0.52647
 N267 N 0.97166 -0.05924 0.54616
 N268 N 0.95659 -0.02713 0.52651
 N269 N 0.94183 -0.02971 0.54617
 N270 N 0.97372 -0.04442 0.47362
 N271 N 0.97107 -0.05927 0.45402
 Mn272 Mn 0.95608 -0.00018 0.50015
 C273 C 0.95066 -0.04994 0.44217
 C274 C 0.95141 -0.04987 0.55823
 N275 N 1.04524 -0.02706 0.52606
 N276 N 1.06044 -0.02988 0.54537
 N277 N 1.02754 -0.04436 0.47330
 N278 N 1.03002 -0.05918 0.45365
 N279 N 1.04496 -0.02706 0.47332
 N280 N 1.05984 -0.02971 0.45374
 N281 N 1.02787 -0.04441 0.52615
 N282 N 1.03072 -0.05946 0.54558
 Mn283 Mn 1.04533 -0.00010 0.49969
 Mn284 Mn 1.00079 -0.04473 0.49989
 Cl285 Cl 1.00070 -0.00012 0.49991
 C286 C 1.05118 -0.05021 0.55737
 C287 C 1.05032 -0.04987 0.44166
 C288 C 1.12007 0.12046 0.28316
 C289 C 1.11592 0.14566 0.27704
 C290 C 1.12647 0.15611 0.25550
 C291 C 1.14152 0.14166 0.23915
 C292 C 1.14535 0.11621 0.24542
 C293 C 1.13485 0.10585 0.26707
 C294 C 1.10923 0.10960 0.30632
 N295 N 1.11601 0.08639 0.31426
 N296 N 1.10653 0.07682 0.33528
 C297 C 1.08983 0.09002 0.34922
 N298 N 1.08298 0.11318 0.34123
 N299 N 1.09251 0.12277 0.32026
 C300 C 1.07947 0.07952 0.37277
 C301 C 1.06001 0.09187 0.38552
 C302 C 1.05039 0.08212 0.40784
 C303 C 1.06014 0.05990 0.41797
 C304 C 1.07954 0.04748 0.40527
 C305 C 1.08905 0.05715 0.38286
 H306 H 1.10484 0.15756 0.28917
 H307 H 1.12356 0.17593 0.25258
 H308 H 1.15570 0.10372 0.23330
 H309 H 1.13818 0.08625 0.27105
 H310 H 1.05212 0.10909 0.37825
 H311 H 1.03540 0.09205 0.41722
 H312 H 1.08734 0.03026 0.41262
 H313 H 1.10405 0.04716 0.37356
 C314 C 0.87938 -0.12026 0.28403
 C315 C 0.85436 -0.11560 0.27754
 C316 C 0.84403 -0.12588 0.25580
 C317 C 0.85843 -0.14117 0.23963
 C318 C 0.88367 -0.14559 0.24633
 C319 C 0.89390 -0.13536 0.26816
 C320 C 0.89019 -0.10954 0.30727
 N321 N 0.91330 -0.11652 0.31532
 N322 N 0.92291 -0.10705 0.33632
 C323 C 0.90984 -0.09014 0.35015
 N324 N 0.88677 -0.08311 0.34207
 N325 N 0.87714 -0.09263 0.32110
 C326 C 0.92044 -0.07971 0.37363
 C327 C 0.90817 -0.06016 0.38634
 C328 C 0.91805 -0.05043 0.40855
 C329 C 0.94031 -0.06015 0.41863
 C330 C 0.95263 -0.07964 0.40597
 C331 C 0.94284 -0.08927 0.38367
 H332 H 0.84252 -0.10426 0.28950
 H333 H 0.82434 -0.12253 0.25253
 H334 H 0.89613 -0.15617 0.23438
 H335 H 0.91337 -0.13910 0.27243
 H336 H 0.89094 -0.05228 0.37911
 H337 H 0.90819 -0.03536 0.41790
 H338 H 0.96989 -0.08741 0.41327
 H339 H 0.95277 -0.10433 0.37439
 C340 C 0.87957 0.12116 0.71562
 C341 C 0.86884 0.10572 0.73404
 C342 C 0.85834 0.11609 0.75570
 C343 C 0.85814 0.14216 0.75935
 C344 C 0.86883 0.15758 0.74086
 C345 C 0.87952 0.14720 0.71934
 C346 C 0.89061 0.11026 0.69257
 N347 N 0.90499 0.12444 0.67712
 N348 N 0.91476 0.11476 0.65629
 C349 C 0.91046 0.09051 0.64995
 N350 N 0.89608 0.07632 0.66540
 N351 N 0.88640 0.08598 0.68630
 C352 C 0.92106 0.07988 0.62658
 C353 C 0.91264 0.05673 0.61732
 C354 C 0.92232 0.04696 0.59502
 C355 C 0.94080 0.06002 0.58165
 C356 C 0.94943 0.08301 0.59099
 C357 C 0.93958 0.09291 0.61315
 H358 H 0.86872 0.08556 0.73183
 H359 H 0.85063 0.10364 0.76972
 H360 H 0.86858 0.17775 0.74281
 H361 H 0.88744 0.15967 0.70544
 H362 H 0.89837 0.04623 0.62716
 H363 H 0.91540 0.02913 0.58829
 H364 H 0.96370 0.09345 0.58107
 H365 H 0.94657 0.11073 0.61981
 C366 C 1.12344 -0.12249 0.71428
 C367 C 1.10866 -0.13706 0.73037
 C368 C 1.11876 -0.14733 0.75224
 C369 C 1.14413 -0.14351 0.75878
 C370 C 1.15883 -0.12881 0.74235
 C371 C 1.14861 -0.11847 0.72055
 C372 C 1.11265 -0.11159 0.69110
 N373 N 1.12583 -0.09489 0.67717
 N374 N 1.11613 -0.08513 0.65633
 C375 C 1.09285 -0.09169 0.64849
 N376 N 1.07967 -0.10840 0.66241
 N377 N 1.08935 -0.11811 0.68328
 C378 C 1.08210 -0.08094 0.62521
 C379 C 1.05953 -0.09022 0.61534
 C380 C 1.04952 -0.08026 0.59327
 C381 C 1.06178 -0.06072 0.58068
 C382 C 1.08422 -0.05129 0.59059
 C383 C 1.09433 -0.06135 0.61257
 H384 H 1.08908 -0.14029 0.72628
 H385 H 1.10608 -0.15739 0.76439
 H386 H 1.17860 -0.12594 0.74551
 H387 H 1.16064 -0.10757 0.70841
 H388 H 1.04962 -0.10530 0.62457
 H389 H 1.03213 -0.08783 0.58610
 H390 H 1.09404 -0.03620 0.58128
 H391 H 1.11168 -0.05370 0.61969
 C392 C 0.28651 1.12242 1.12339
 C393 C 0.28020 1.11822 1.14856
 C394 C 0.25848 1.12862 1.15883
 C395 C 0.24218 1.14356 1.14419
 C396 C 0.24876 1.14756 1.11881
 C397 C 0.27055 1.13722 1.10866
 C398 C 0.30962 1.11147 1.11254
 N399 N 0.31744 1.11810 1.08923
 N400 N 0.33824 1.10836 1.07951
 C401 C 0.35209 1.09151 1.09263
 N402 N 0.34424 1.08484 1.11592
 N403 N 0.32348 1.09464 1.12568
 C404 C 0.37529 1.08074 1.08182
 C405 C 0.38792 1.06107 1.09399
 C406 C 0.40983 1.05099 1.08379
 C407 C 0.41965 1.06048 1.06131
 C408 C 0.40708 1.08010 1.04911
 C409 C 0.38510 1.09008 1.05921
 H410 H 0.29225 1.10713 1.16055
 H411 H 0.25529 1.12560 1.17861
 H412 H 0.23672 1.15782 1.10617
 H413 H 0.27468 1.14061 1.08908
 H414 H 0.38086 1.05337 1.11138
 H415 H 0.41913 1.03583 1.09356
 H416 H 0.41420 1.08773 1.03170
 H417 H 0.37589 1.10523 1.04935
 C418 C 0.28343 0.87952 0.88122
 C419 C 0.26498 0.89502 0.87059
 C420 C 0.24327 0.88472 0.86023
 C421 C 0.23959 0.85865 0.86006
 C422 C 0.25807 0.84318 0.87069
 C423 C 0.27965 0.85349 0.88125
 C424 C 0.30658 0.89035 0.89200
 N425 N 0.32214 0.87613 0.90627
 N426 N 0.34310 0.88574 0.91575
 C427 C 0.34945 0.90994 0.91128
 N428 N 0.33389 0.92417 0.89702
 N429 N 0.31286 0.91459 0.88762
 C430 C 0.37298 0.92047 0.92153
 C431 C 0.38219 0.94356 0.91288
 C432 C 0.40465 0.95321 0.92221
 C433 C 0.41823 0.94010 0.94055
 C434 C 0.40893 0.91719 0.94942
 C435 C 0.38661 0.90740 0.93992
 H436 H 0.26722 0.91517 0.87041
 H437 H 0.22924 0.89721 0.85256
 H438 H 0.25610 0.82301 0.87048
 H439 H 0.29357 0.84099 0.88911
 H440 H 0.37219 0.95408 0.89869
 H441 H 0.41134 0.97099 0.91512
 H442 H 0.41900 0.90671 0.96360
 H443 H 0.37999 0.88964 0.94708
 C444 C 0.71803 0.88152 1.11903
 C445 C 0.72411 0.88570 1.14427
 C446 C 0.74572 0.87531 1.15474
 C447 C 0.76218 0.86040 1.14027
 C448 C 0.75594 0.85655 1.11477
 C449 C 0.73422 0.86687 1.10440
 C450 C 0.69479 0.89219 1.10817
 N451 N 0.68684 0.88534 1.08497
 N452 N 0.66575 0.89467 1.07543
 C453 C 0.65174 0.91130 1.08867
 N454 N 0.65975 0.91821 1.11182
 N455 N 0.68079 0.90883 1.12138
 C456 C 0.62811 0.92151 1.07824
 C457 C 0.61531 0.94088 1.09069
 C458 C 0.59289 0.95035 1.08108
 C459 C 0.58268 0.94055 1.05891
 C460 C 0.59542 0.92126 1.04638
 C461 C 0.61795 0.91188 1.05590
 H462 H 0.71191 0.89667 1.15619
 H463 H 0.74860 0.87822 1.17458
 H464 H 0.76813 0.84630 1.10227
 H465 H 0.73026 0.86353 1.08477
 H466 H 0.62263 0.94881 1.10788
 H467 H 0.58350 0.96528 1.09110
 H468 H 0.58802 0.91343 1.02918
 H469 H 0.62729 0.89695 1.04584
 C470 C 0.71278 1.12357 0.87584
 C471 C 0.71897 1.11952 0.85060
 C472 C 0.74068 1.12987 0.84032
 C473 C 0.75710 1.14460 0.85500
 C474 C 0.75063 1.14846 0.88043
 C475 C 0.72885 1.13818 0.89060
 C476 C 0.68971 1.11263 0.88672
 N477 N 0.68199 1.11913 0.91011
 N478 N 0.66125 1.10935 0.91988
 C479 C 0.64736 1.09260 0.90672
 N480 N 0.65509 1.08607 0.88335
 N481 N 0.67580 1.09590 0.87355
 C482 C 0.62425 1.08175 0.91761
 C483 C 0.61165 1.06212 0.90539
 C484 C 0.58986 1.05193 0.91566
 C485 C 0.58011 1.06124 0.93826
 C486 C 0.59264 1.08084 0.95049
 C487 C 0.61452 1.09094 0.94032
 H488 H 0.70684 1.10859 0.83859
 H489 H 0.74378 1.12697 0.82051
 H490 H 0.76276 1.15855 0.89311
 H491 H 0.72481 1.14144 0.91023
 H492 H 0.61865 1.05454 0.88792
 H493 H 0.58059 1.03680 0.90585
 H494 H 0.58558 1.08834 0.96798
 H495 H 0.62372 1.10605 0.95022
 C496 C 0.12256 0.28545 0.12149
 C497 C 0.13344 0.26715 0.10600
 C498 C 0.14365 0.24535 0.11633
 C499 C 0.14340 0.24143 0.14240
 C500 C 0.13263 0.25983 0.15788
 C501 C 0.12223 0.28151 0.14754
 C502 C 0.11163 0.30854 0.11061
 N503 N 0.09710 0.32391 0.12475
 N504 N 0.08730 0.34470 0.11503
 C505 C 0.09171 0.35106 0.09077
 N506 N 0.10626 0.33571 0.07662
 N507 N 0.11597 0.31486 0.08632
 C508 C 0.08095 0.37431 0.08006
 C509 C 0.08931 0.38354 0.05684
 C510 C 0.07940 0.40568 0.04696
 C511 C 0.06076 0.41891 0.05999
 C512 C 0.05222 0.40960 0.08306
 C513 C 0.06229 0.38760 0.09306
 H514 H 0.13386 0.26953 0.08584
 H515 H 0.15144 0.23140 0.10383
 H516 H 0.13253 0.25766 0.17806
 H517 H 0.11418 0.29531 0.16004
 H518 H 0.10369 0.37380 0.04637
 H519 H 0.08626 0.41240 0.02908
 H520 H 0.03783 0.41940 0.09348
 H521 H 0.05534 0.38096 0.11093
 C522 C -0.12280 0.28565 -0.12164
 C523 C -0.12236 0.28171 -0.14769
 C524 C -0.13273 0.26007 -0.15808
 C525 C -0.14359 0.24170 -0.14265
 C526 C -0.14393 0.24560 -0.11658
 C527 C -0.13375 0.26736 -0.10620
 C528 C -0.11194 0.30872 -0.11071
 N529 N -0.11640 0.31506 -0.08645
 N530 N -0.10676 0.33591 -0.07673
 C531 C -0.09217 0.35124 -0.09083
 N532 N -0.08766 0.34485 -0.11506
 N533 N -0.09737 0.32407 -0.12480
 C534 C -0.08150 0.37449 -0.08010
 C535 C -0.06281 0.38775 -0.09305
 C536 C -0.05280 0.40974 -0.08304
 C537 C -0.06142 0.41908 -0.06000
 C538 C -0.08008 0.40589 -0.04702
 C539 C -0.08994 0.38375 -0.05691
 H540 H -0.11425 0.29549 -0.16015
 H541 H -0.13256 0.25791 -0.17826
 H542 H -0.15179 0.23167 -0.10412
 H543 H -0.13425 0.26974 -0.08604
 H544 H -0.05580 0.38109 -0.11089
 H545 H -0.03839 0.41951 -0.09343
 H546 H -0.08700 0.41263 -0.02917
 H547 H -0.10434 0.37403 -0.04648
 C548 C 0.12085 0.71510 -0.12131
 C549 C 0.14685 0.71906 -0.12078
 C550 C 0.15718 0.74078 -0.13102
 C551 C 0.14177 0.75921 -0.14183
 C552 C 0.11575 0.75531 -0.14222
 C553 C 0.10542 0.73346 -0.13218
 C554 C 0.10997 0.69192 -0.11064
 N555 N 0.08577 0.68560 -0.11522
 N556 N 0.07610 0.66465 -0.10576
 C557 C 0.09019 0.64920 -0.09124
 N558 N 0.11435 0.65557 -0.08661
 N559 N 0.12405 0.67645 -0.09614
 C560 C 0.07951 0.62585 -0.08074
 C561 C 0.09244 0.61244 -0.06209
 C562 C 0.08248 0.59038 -0.05222
 C563 C 0.05950 0.58110 -0.06094
 C564 C 0.04654 0.59442 -0.07958
 C565 C 0.05639 0.61664 -0.08930
 H566 H 0.15930 0.70521 -0.11272
 H567 H 0.17733 0.74294 -0.13080
 H568 H 0.10330 0.76928 -0.15004
 H569 H 0.08530 0.73108 -0.13273
 H570 H 0.11024 0.61906 -0.05500
 H571 H 0.09286 0.58051 -0.03783
 H572 H 0.02873 0.58773 -0.08657
 H573 H 0.04597 0.62647 -0.10368
 C574 C -0.12171 0.71496 0.12210
 C575 C -0.10609 0.73346 0.13237
 C576 C -0.11625 0.75543 0.14234
 C577 C -0.14228 0.75934 0.14248
 C578 C -0.15789 0.74077 0.13227
 C579 C -0.14772 0.71890 0.12210
 C580 C -0.11095 0.69169 0.11146
 N581 N -0.12518 0.67610 0.09728
 N582 N -0.11552 0.65519 0.08769
 C583 C -0.09125 0.64892 0.09197
 N584 N -0.07702 0.66448 0.10619
 N585 N -0.08665 0.68545 0.11569
 C586 C -0.08056 0.62560 0.08137
 C587 C -0.05731 0.61646 0.08973
 C588 C -0.04739 0.59432 0.07986
 C589 C -0.06039 0.58102 0.06127
 C590 C -0.08350 0.59021 0.05275
 C591 C -0.09355 0.61220 0.06279
 H592 H -0.08596 0.73110 0.13250
 H593 H -0.10365 0.76951 0.14964
 H594 H -0.17804 0.74296 0.13246
 H595 H -0.16030 0.70495 0.11450
 H596 H -0.04685 0.62629 0.10405
 H597 H -0.02948 0.58769 0.08669
 H598 H -0.09391 0.58034 0.03841
 H599 H -0.11144 0.61876 0.05585
 C600 C 1.12287 0.12284 0.71411
 C601 C 1.13743 0.10814 0.73032
 C602 C 1.14747 0.11832 0.75226
 C603 C 1.14339 0.14368 0.75874
 C604 C 1.12872 0.15828 0.74218
 C605 C 1.11861 0.14800 0.72032
 C606 C 1.11217 0.11198 0.69088
 N607 N 1.09543 0.12508 0.67688
 N608 N 1.08580 0.11532 0.65602
 C609 C 1.09255 0.09207 0.64822
 N610 N 1.10932 0.07898 0.66220
 N611 N 1.11889 0.08871 0.68309
 C612 C 1.08188 0.08126 0.62495
 C613 C 1.09127 0.05871 0.61508
 C614 C 1.08131 0.04864 0.59304
 C615 C 1.06164 0.06081 0.58051
 C616 C 1.05213 0.08324 0.59040
 C617 C 1.06219 0.09341 0.61234
 H618 H 1.14084 0.08857 0.72627
 H619 H 1.15754 0.10570 0.76449
 H620 H 1.12568 0.17805 0.74529
 H621 H 1.10771 0.15997 0.70809
 H622 H 1.10644 0.04887 0.62429
 H623 H 1.08895 0.03127 0.58587
 H624 H 1.03695 0.09301 0.58114
 H625 H 1.05445 0.11075 0.61945
 C626 C 0.88079 -0.11985 0.71678
 C627 C 0.89527 -0.13473 0.73290
 C628 C 0.88483 -0.14508 0.75459
 C629 C 0.85942 -0.14099 0.76086
 C630 C 0.84509 -0.12589 0.74444
 C631 C 0.85563 -0.11549 0.72287
 C632 C 0.89172 -0.10907 0.69362
 N633 N 0.87865 -0.09221 0.67974
 N634 N 0.88828 -0.08271 0.65878
 C635 C 0.91136 -0.08970 0.65073
 N636 N 0.92446 -0.10655 0.66462
 N637 N 0.91485 -0.11601 0.68564
 C638 C 0.92186 -0.07933 0.62720
 C639 C 0.94414 -0.08900 0.61699
 C640 C 0.95374 -0.07946 0.59455
 C641 C 0.94134 -0.05998 0.58194
 C642 C 0.91924 -0.05015 0.59221
 C643 C 0.90955 -0.05977 0.61455
 H644 H 0.91483 -0.13823 0.72893
 H645 H 0.89722 -0.15552 0.76675
 H646 H 0.82531 -0.12281 0.74733
 H647 H 0.84381 -0.10434 0.71071
 H648 H 0.95410 -0.10407 0.62622
 H649 H 0.97089 -0.08732 0.58709
 H650 H 0.90932 -0.03507 0.58292
 H651 H 0.89242 -0.05181 0.62191
 C652 C 1.12146 -0.12096 0.28384
 C653 C 1.14749 -0.12094 0.28013
 C654 C 1.15788 -0.13151 0.25855
 C655 C 1.14249 -0.14214 0.24000
 C656 C 1.11642 -0.14202 0.24365
 C657 C 1.10603 -0.13164 0.26537
 C658 C 1.11056 -0.11001 0.30692
 N659 N 1.08631 -0.11433 0.31324
 N660 N 1.07667 -0.10472 0.33417
 C661 C 1.09083 -0.09028 0.34961
 N662 N 1.11503 -0.08587 0.34323
 N663 N 1.12470 -0.09557 0.32236
 C664 C 1.08023 -0.07973 0.37302
 C665 C 1.09321 -0.06112 0.38637
 C666 C 1.08339 -0.05131 0.40858
 C667 C 1.06052 -0.06008 0.41805
 C668 C 1.04748 -0.07864 0.40475
 C669 C 1.05718 -0.08828 0.38239
 H670 H 1.15994 -0.11305 0.29406
 H671 H 1.17805 -0.13171 0.25662
 H672 H 1.10400 -0.14970 0.22959
 H673 H 1.08589 -0.13181 0.26757
 H674 H 1.11095 -0.05402 0.37962
 H675 H 1.09381 -0.03697 0.41843
 H676 H 1.02974 -0.08566 0.41158
 H677 H 1.04673 -0.10263 0.37260
 C678 C 0.87640 0.12332 0.28675
 C679 C 0.86194 0.10861 0.27050
 C680 C 0.85174 0.11883 0.24864
 C681 C 0.85556 0.14426 0.24229
 C682 C 0.87009 0.15889 0.25892
 C683 C 0.88035 0.14856 0.28070
 C684 C 0.88735 0.11239 0.30985
 N685 N 0.90408 0.12552 0.32381
 N686 N 0.91396 0.11569 0.34452
 C687 C 0.90750 0.09233 0.35222
 N688 N 0.89075 0.07921 0.33829
 N689 N 0.88092 0.08902 0.31753
 C690 C 0.91845 0.08144 0.37533
 C691 C 0.90930 0.05879 0.38516
 C692 C 0.91950 0.04865 0.40706
 C693 C 0.93917 0.06086 0.41951
 C694 C 0.94846 0.08337 0.40966
 C695 C 0.93815 0.09361 0.38785
 H696 H 0.85875 0.08898 0.27444
 H697 H 0.84178 0.10620 0.23636
 H698 H 0.87291 0.17870 0.25593
 H699 H 0.89116 0.16054 0.29298
 H700 H 0.89413 0.04894 0.37602
 H701 H 0.91204 0.03122 0.41421
 H702 H 0.96364 0.09316 0.41886
 H703 H 0.94572 0.11102 0.38077
 C704 C 0.11914 0.28319 -0.11989
 C705 C 0.10463 0.26712 -0.13477
 C706 C 0.11501 0.24538 -0.14504
 C707 C 0.14038 0.23899 -0.14088
 C708 C 0.15473 0.25534 -0.12577
 C709 C 0.14426 0.27697 -0.11544
 C710 C 0.10828 0.30642 -0.10922
 N711 N 0.12137 0.32030 -0.09241
 N712 N 0.11180 0.34132 -0.08300
 C713 C 0.08874 0.34942 -0.09004
 N714 N 0.07561 0.33553 -0.10684
 N715 N 0.08517 0.31446 -0.11621
 C716 C 0.07828 0.37300 -0.07975
 C717 C 0.05599 0.38320 -0.08940
 C718 C 0.04641 0.40564 -0.07989
 C719 C 0.05883 0.41826 -0.06044
 C720 C 0.08097 0.40801 -0.05064
 C721 C 0.09064 0.38567 -0.06023
 H722 H 0.08509 0.27119 -0.13833
 H723 H 0.10260 0.23328 -0.15548
 H724 H 0.17449 0.25234 -0.12264
 H725 H 0.15609 0.28908 -0.10429
 H726 H 0.04601 0.37395 -0.10444
 H727 H 0.02924 0.41309 -0.08773
 H728 H 0.09091 0.41731 -0.03559
 H729 H 0.10779 0.37833 -0.05228
 C730 C -0.12053 0.28435 0.12089
 C731 C -0.10507 0.26591 0.13159
 C732 C -0.11541 0.24412 0.14178
 C733 C -0.14147 0.24038 0.14170
 C734 C -0.15689 0.25889 0.13104
 C735 C -0.14655 0.28054 0.12066
 C736 C -0.10968 0.30750 0.11013
 N737 N -0.12384 0.32298 0.09573
 N738 N -0.11422 0.34389 0.08618
 C739 C -0.09004 0.35029 0.09071
 N740 N -0.07586 0.33482 0.10514
 N741 N -0.08547 0.31383 0.11460
 C742 C -0.07949 0.37371 0.08027
 C743 C -0.05641 0.38303 0.08886
 C744 C -0.04673 0.40536 0.07924
 C745 C -0.05979 0.41869 0.06069
 C746 C -0.08270 0.40929 0.05192
 C747 C -0.09251 0.38711 0.06169
 H748 H -0.08494 0.26818 0.13192
 H749 H -0.10296 0.23009 0.14949
 H750 H -0.17705 0.25687 0.13109
 H751 H -0.15902 0.29445 0.11275
 H752 H -0.04593 0.37320 0.10319
 H753 H -0.02896 0.41214 0.08626
 H754 H -0.09315 0.41916 0.03758
 H755 H -0.11027 0.38042 0.05457
 C756 C -0.12308 0.71426 -0.12266
 C757 C -0.11875 0.72047 -0.14785
 C758 C -0.12888 0.74227 -0.15820
 C759 C -0.14366 0.75878 -0.14366
 C760 C -0.14782 0.75230 -0.11828
 C761 C -0.13775 0.73041 -0.10803
 C762 C -0.11234 0.69108 -0.11173
 N763 N -0.11906 0.68332 -0.08842
 N764 N -0.10945 0.66247 -0.07864
 C765 C -0.09265 0.64852 -0.09171
 N766 N -0.08591 0.65631 -0.11499
 N767 N -0.09557 0.67712 -0.12480
 C768 C -0.08194 0.62530 -0.08085
 C769 C -0.06229 0.61268 -0.09303
 C770 C -0.05221 0.59077 -0.08287
 C771 C -0.06166 0.58089 -0.06040
 C772 C -0.08128 0.59344 -0.04817
 C773 C -0.09127 0.61546 -0.05825
 H774 H -0.10776 0.70828 -0.15977
 H775 H -0.12578 0.74537 -0.17798
 H776 H -0.15798 0.76449 -0.10570
 H777 H -0.14123 0.72636 -0.08844
 H778 H -0.05459 0.61977 -0.11041
 H779 H -0.03706 0.58151 -0.09267
 H780 H -0.08887 0.58627 -0.03077
 H781 H -0.10640 0.62467 -0.04838
 C782 C 0.12437 0.71289 0.12295
 C783 C 0.12032 0.71901 0.14821
 C784 C 0.13065 0.74071 0.15856
 C785 C 0.14535 0.75718 0.14394
 C786 C 0.14927 0.75076 0.11850
 C787 C 0.13901 0.72899 0.10826
 C788 C 0.11337 0.68987 0.11201
 N789 N 0.11983 0.68215 0.08861
 N790 N 0.10996 0.66146 0.07880
 C791 C 0.09314 0.64764 0.09192
 N792 N 0.08665 0.65537 0.11530
 N793 N 0.09657 0.67602 0.12514
 C794 C 0.08216 0.62459 0.08103
 C795 C 0.06246 0.61213 0.09326
 C796 C 0.05215 0.59037 0.08304
 C797 C 0.06140 0.58049 0.06048
 C798 C 0.08105 0.59289 0.04820
 C799 C 0.09127 0.61475 0.05833
 H800 H 0.10938 0.70686 0.16018
 H801 H 0.12773 0.74375 0.17837
 H802 H 0.15938 0.76292 0.10588
 H803 H 0.14229 0.72499 0.08863
 H804 H 0.05492 0.61921 0.11071
 H805 H 0.03697 0.58121 0.09289
 H806 H 0.08850 0.58573 0.03073
 H807 H 0.10643 0.62384 0.04842
 C808 C 0.28393 1.12132 0.87989
 C809 C 0.26569 1.10582 0.86898
 C810 C 0.24392 1.11609 0.85866
 C811 C 0.23998 1.14213 0.85882
 C812 C 0.25828 1.15761 0.86968
 C813 C 0.27992 1.14733 0.88019
 C814 C 0.30706 1.11049 0.89076
 N815 N 0.32244 1.12463 0.90526
 N816 N 0.34332 1.11497 0.91490
 C817 C 0.34977 1.09079 0.91037
 N818 N 0.33440 1.07665 0.89586
 N819 N 0.31345 1.08628 0.88630
 C820 C 0.37318 1.08017 0.92084
 C821 C 0.38246 1.05707 0.91223
 C822 C 0.40478 1.04729 0.92181
 C823 C 0.41815 1.06029 0.94035
 C824 C 0.40879 1.08321 0.94918
 C825 C 0.38661 1.09312 0.93944
 H826 H 0.26811 1.08569 0.86859
 H827 H 0.23004 1.10359 0.85082
 H828 H 0.25607 1.17776 0.86973
 H829 H 0.29368 1.15983 0.88827
 H830 H 0.37261 1.04663 0.89790
 H831 H 0.41152 1.02951 0.91474
 H832 H 0.41871 1.09360 0.96351
 H833 H 0.37993 1.11089 0.94658
 C834 C 0.28614 0.87782 1.12151
 C835 C 0.28212 0.87812 1.14755
 C836 C 0.26048 0.86764 1.15780
 C837 C 0.24220 0.85680 1.14226
 C838 C 0.24618 0.85659 1.11620
 C839 C 0.26794 0.86689 1.10595
 C840 C 0.30923 0.88876 1.11071
 N841 N 0.31563 0.88439 1.08645
 N842 N 0.33650 0.89407 1.07684
 C843 C 0.35179 0.90862 1.09104
 N844 N 0.34533 0.91305 1.11527
 N845 N 0.32452 0.90329 1.12491
 C846 C 0.37507 0.91930 1.08042
 C847 C 0.38835 0.93794 1.09343
 C848 C 0.41037 0.94794 1.08347
 C849 C 0.41971 0.93933 1.06043
 C850 C 0.40651 0.92070 1.04740
 C851 C 0.38435 0.91087 1.05723
 H852 H 0.29585 0.88621 1.16010
 H853 H 0.25826 0.86772 1.17798
 H854 H 0.23232 0.84875 1.10365
 H855 H 0.27038 0.86648 1.08580
 H856 H 0.38167 0.94494 1.11127
 H857 H 0.42016 0.96232 1.09388
 H858 H 0.41325 0.91379 1.02954
 H859 H 0.37463 0.89650 1.04675
 C860 C 0.71550 1.12151 1.12061
 C861 C 0.73376 1.10602 1.13158
 C862 C 0.75546 1.11632 1.14196
 C863 C 0.75932 1.14236 1.14180
 C864 C 0.74100 1.15782 1.13087
 C865 C 0.71942 1.14751 1.12030
 C866 C 0.69244 1.11065 1.10966
 N867 N 0.67705 1.12478 1.09511
 N868 N 0.65623 1.11511 1.08540
 C869 C 0.64984 1.09092 1.08991
 N870 N 0.66522 1.07679 1.10447
 N871 N 0.68610 1.08643 1.11410
 C872 C 0.62651 1.08028 1.07935
 C873 C 0.61729 1.05716 1.08792
 C874 C 0.59504 1.04736 1.07825
 C875 C 0.58169 1.06033 1.05965
 C876 C 0.59099 1.08328 1.05088
 C877 C 0.61310 1.09322 1.06071
 H878 H 0.73140 1.08590 1.13198
 H879 H 0.76936 1.10384 1.14986
 H880 H 0.74313 1.17797 1.13082
 H881 H 0.70565 1.16000 1.11217
 H882 H 0.62712 1.04673 1.10229
 H883 H 0.58835 1.02956 1.08528
 H884 H 0.58108 1.09366 1.03651
 H885 H 0.61973 1.11101 1.05361
 C886 C 0.71549 0.87969 0.87797
 C887 C 0.71955 0.87992 0.85194
 C888 C 0.74122 0.86938 0.84175
 C889 C 0.75949 0.85855 0.85735
 C890 C 0.75548 0.85845 0.88341
 C891 C 0.73370 0.86880 0.89359
 C892 C 0.69235 0.89060 0.88872
 N893 N 0.68597 0.88628 0.91299
 N894 N 0.66503 0.89589 0.92256
 C895 C 0.64964 0.91031 0.90830
 N896 N 0.65608 0.91471 0.88407
 N897 N 0.67696 0.90502 0.87447
 C898 C 0.62624 0.92083 0.91889
 C899 C 0.61275 0.93932 0.90583
 C900 C 0.59059 0.94911 0.91575
 C901 C 0.58135 0.94044 0.93880
 C902 C 0.59479 0.92200 0.95189
 C903 C 0.61707 0.91237 0.94209
 H904 H 0.70583 0.88798 0.83935
 H905 H 0.74347 0.86939 0.82157
 H906 H 0.76934 0.85063 0.89600
 H907 H 0.73124 0.86845 0.91374
 H908 H 0.61934 0.94632 0.88797
 H909 H 0.58061 0.96336 0.90530
 H910 H 0.58814 0.91505 0.96976
 H911 H 0.62696 0.89813 0.95262
   
