data_POSCAR
  _audit_creation_date              2014-09-24
  _audit_creation_method            'ToBaCCo'
  _symmetry_space_group_name_H-M    'P1'
  _symmetry_Int_Tables_number       1
  _symmetry_cell_setting            triclinic
  loop_
  _symmetry_equiv_pos_as_xyz
 x,y,z
_cell_length_a 35.3025
_cell_length_b 34.5360
_cell_length_c 34.5606
_cell_angle_alpha 89.981100
_cell_angle_beta 90.007700
_cell_angle_gamma 89.959700
loop_
  _atom_site_label
  _atom_site_type_symbol
  _atom_site_fract_x
  _atom_site_fract_y
  _atom_site_fract_z
C1 C 0.18612 1.23660 0.18311
 C2 C 0.21910 1.21990 0.16723
 C3 C 0.23582 1.18697 0.18365
 C4 C 0.21986 1.17061 0.21699
 C5 C 0.18697 1.18632 0.23408
 C6 C 0.17070 1.21951 0.21678
 H7 H 0.23303 1.23312 0.14270
 H8 H 0.23374 1.14574 0.22963
 H9 H 0.14372 1.22977 0.22732
 C10 C 0.81436 0.76608 0.18548
 C11 C 0.78115 0.78328 0.17033
 C12 C 0.76520 0.81652 0.18717
 C13 C 0.78230 0.83268 0.21999
 C14 C 0.81522 0.81639 0.23579
 C15 C 0.83084 0.78315 0.21864
 H16 H 0.76705 0.77083 0.14552
 H17 H 0.76976 0.85795 0.23346
 H18 H 0.85748 0.77252 0.22986
 C19 C 0.80989 1.23489 -0.18606
 C20 C 0.77683 1.21756 -0.17077
 C21 C 0.76109 1.18416 -0.18744
 C22 C 0.77818 1.16802 -0.22027
 C23 C 0.81095 1.18443 -0.23621
 C24 C 0.82638 1.21784 -0.21923
 H25 H 0.76273 1.22998 -0.14595
 H26 H 0.76580 1.14261 -0.23359
 H27 H 0.85292 1.22858 -0.23055
 C28 C 0.18690 0.76251 -0.18417
 C29 C 0.17195 0.78052 -0.21760
 C30 C 0.18899 0.81355 -0.23372
 C31 C 0.22177 0.82870 -0.21655
 C32 C 0.23740 0.81150 -0.18346
 C33 C 0.22011 0.77842 -0.16778
 H34 H 0.14542 0.77084 -0.22985
 H35 H 0.23474 0.85444 -0.22857
 H36 H 0.23375 0.76451 -0.14344
 C37 C 0.55728 1.05294 -0.01085
 H38 H 0.55790 1.05324 0.02045
 C39 C 0.58345 1.07482 -0.03177
 H40 H 0.60424 1.09217 -0.01659
 C41 C 0.53044 1.02873 -0.06894
 H42 H 0.51036 1.01003 -0.08328
 C43 C 0.55615 1.05018 -0.09099
 H44 H 0.55560 1.04817 -0.12226
 N45 N 0.53146 1.03053 -0.02959
 C46 C 0.44214 1.01074 0.05522
 H47 H 0.44187 0.97942 0.05564
 C48 C 0.41566 1.03147 0.07692
 H49 H 0.39497 1.01611 0.09425
 C50 C 0.46838 1.06909 0.03085
 H51 H 0.48834 1.08360 0.01213
 C52 C 0.44234 1.09094 0.05210
 H53 H 0.44253 1.12223 0.04995
 Zn54 Zn 0.49980 0.99904 0.00136
 N55 N 0.46780 1.02971 0.03279
 C56 C 0.53149 0.96964 0.07133
 N57 N 0.53210 0.96786 0.03198
 C58 C 0.55798 0.94573 0.01294
 C59 C 0.58465 0.92416 0.03357
 C60 C 0.55772 0.94850 0.09309
 C61 C 0.44179 0.98690 -0.05194
 C62 C 0.41547 0.96601 -0.07364
 C63 C 0.44303 0.90670 -0.04935
 C64 C 0.46891 0.92872 -0.02809
 N65 N 0.46784 0.96809 -0.02981
 H66 H 0.51134 0.98812 0.08590
 H67 H 0.55826 0.94544 -0.01836
 H68 H 0.60548 0.90705 0.01816
 H69 H 0.55749 0.95051 0.12437
 H70 H 0.44116 1.01822 -0.05219
 H71 H 0.39453 0.98123 -0.09080
 H72 H 0.44364 0.87539 -0.04744
 H73 H 0.48918 0.91433 -0.00960
 C74 C 0.41562 1.07191 0.07515
 C75 C 0.58301 1.07325 -0.07219
 C76 C 0.41597 0.92556 -0.07216
 C77 C 0.58465 0.92575 0.07399
 C78 C -0.01421 0.55884 1.05215
 H79 H 0.01643 0.55916 1.05203
 C80 C -0.03417 0.58587 1.07421
 H81 H -0.01890 0.60702 1.09130
 C82 C -0.07165 0.53185 1.02888
 H83 H -0.08613 0.51138 1.01049
 C84 C -0.09271 0.55842 1.05052
 H85 H -0.12336 0.55810 1.04899
 N86 N -0.03310 0.53250 1.03014
 C87 C 0.04835 0.43988 1.00957
 H88 H 0.04774 0.43914 0.97828
 C89 C 0.07037 0.41320 1.02994
 H90 H 0.08690 0.39188 1.01433
 C91 C 0.02665 0.46782 1.06824
 H92 H 0.00898 0.48862 1.08303
 C93 C 0.04828 0.44159 1.08975
 H94 H 0.04748 0.44246 1.12107
 Zn95 Zn -0.00365 0.49948 0.99848
 N96 N 0.02722 0.46658 1.02886
 C97 C 0.06497 0.53033 0.96821
 N98 N 0.02646 0.53175 0.96668
 C99 C 0.00819 0.55838 0.94443
 C100 C 0.02878 0.58497 0.92245
 C101 C 0.08664 0.55642 0.94667
 C102 C -0.05666 0.44082 0.98763
 C103 C -0.07873 0.41417 0.96735
 C104 C -0.05582 0.44167 0.90744
 C105 C -0.03414 0.46789 0.92888
 N106 N -0.03503 0.46703 0.96826
 H107 H 0.07897 0.50966 0.98681
 H108 H -0.02245 0.55932 0.94434
 H109 H 0.01401 0.60641 0.90522
 H110 H 0.11727 0.55553 0.94848
 H111 H -0.05628 0.44034 1.01893
 H112 H -0.09556 0.39315 0.98302
 H113 H -0.05465 0.44217 0.87613
 H114 H -0.01609 0.48828 0.91402
 C115 C 0.07024 0.41399 1.07037
 C116 C -0.07377 0.58577 1.07322
 C117 C -0.07817 0.41449 0.92690
 C118 C 0.06836 0.58410 0.92376
 C119 C 1.05638 -0.00975 0.55976
 H120 H 1.05596 0.02157 0.56030
 C121 C 1.07822 -0.03012 0.58659
 H122 H 1.09483 -0.01448 0.60781
 C123 C 1.03416 -0.06848 0.53236
 H124 H 1.01630 -0.08330 0.51177
 C125 C 1.05560 -0.08999 0.55874
 H126 H 1.05446 -0.12133 0.55818
 N127 N 1.03501 -0.02908 0.53331
 C128 C 1.01470 0.05520 0.44166
 H129 H 0.98406 0.05511 0.44114
 C130 C 1.03482 0.07724 0.41475
 H131 H 1.01966 0.09435 0.39350
 C132 C 1.07198 0.03179 0.46896
 H133 H 1.08634 0.01332 0.48948
 C134 C 1.09319 0.05341 0.44252
 H135 H 1.12384 0.05179 0.44299
 Zn136 Zn 1.00381 0.00124 0.50069
 N137 N 1.03344 0.03310 0.46807
 C138 C 0.97308 0.07082 0.53240
 N139 N 0.97260 0.03140 0.53340
 C140 C 0.95135 0.01188 0.55981
 C141 C 0.92915 0.03203 0.58645
 C142 C 0.95125 0.09213 0.55861
 C143 C 0.99265 -0.05263 0.44156
 C144 C 0.97237 -0.07458 0.41471
 C145 C 0.91417 -0.05063 0.44273
 C146 C 0.93554 -0.02911 0.46909
 N147 N 0.97407 -0.03052 0.46806
 H148 H 0.99084 0.08580 0.51184
 H149 H 0.95204 -0.01944 0.56037
 H150 H 0.91254 0.01623 0.60755
 H151 H 0.95200 0.12348 0.55796
 H152 H 1.02329 -0.05263 0.44093
 H153 H 0.98738 -0.09170 0.39338
 H154 H 0.88353 -0.04892 0.44333
 H155 H 0.92129 -0.01063 0.48967
 C156 C 1.07440 0.07615 0.41506
 C157 C 1.07768 -0.07059 0.58619
 C158 C 0.93278 -0.07339 0.41518
 C159 C 0.92920 0.07250 0.58593
 C160 C 0.12996 0.33078 1.12803
 C161 C 0.15309 0.30599 1.10659
 C162 C 0.17201 0.27542 1.12469
 C163 C 0.16811 0.26875 1.16493
 C164 C 0.14497 0.29465 1.18618
 C165 C 0.12614 0.32523 1.16786
 C166 C 0.10921 0.36101 1.10870
 C167 C 0.09157 0.38558 1.09168
 H168 H 0.15595 0.30981 1.07560
 H169 H 0.18798 0.25603 1.10634
 H170 H 0.14200 0.29228 1.21723
 H171 H 0.10847 0.34448 1.18482
 C172 C -0.13196 0.67057 1.13016
 C173 C -0.15532 0.69539 1.10898
 C174 C -0.17345 0.72641 1.12716
 C175 C -0.16850 0.73351 1.16720
 C176 C -0.14517 0.70755 1.18819
 C177 C -0.12715 0.67654 1.16981
 C178 C -0.11192 0.63988 1.11081
 C179 C -0.09473 0.61483 1.09400
 H180 H -0.15894 0.69124 1.07812
 H181 H -0.18960 0.74578 1.10894
 H182 H -0.14143 0.71020 1.21913
 H183 H -0.10930 0.65728 1.18658
 C184 C -0.13658 0.33045 0.86922
 C185 C -0.15982 0.30558 0.89042
 C186 C -0.17793 0.27457 0.87224
 C187 C -0.17307 0.26752 0.83218
 C188 C -0.14987 0.29354 0.81116
 C189 C -0.13186 0.32455 0.82954
 C190 C -0.11645 0.36100 0.88865
 C191 C -0.09920 0.38583 0.90569
 H192 H -0.16335 0.30965 0.92130
 H193 H -0.19396 0.25515 0.89049
 H194 H -0.14619 0.29091 0.78022
 H195 H -0.11408 0.34384 0.81277
 C196 C 0.12920 0.66801 0.86851
 C197 C 0.15278 0.69178 0.89055
 C198 C 0.17219 0.72245 0.87323
 C199 C 0.16837 0.73025 0.83318
 C200 C 0.14474 0.70537 0.81131
 C201 C 0.12542 0.67469 0.82884
 C202 C 0.10801 0.63763 0.88703
 C203 C 0.09004 0.61285 0.90335
 H204 H 0.15562 0.68708 0.92142
 H205 H 0.18851 0.74103 0.89207
 H206 H 0.14175 0.70859 0.78034
 H207 H 0.10740 0.65624 0.81142
 C208 C 1.13304 0.13222 0.33007
 C209 C 1.12886 0.17197 0.32400
 C210 C 1.14698 0.18994 0.29283
 C211 C 1.16976 0.16843 0.26681
 C212 C 1.17409 0.12830 0.27403
 C213 C 1.15587 0.11053 0.30520
 C214 C 1.11284 0.11326 0.36088
 C215 C 1.09552 0.09671 0.38598
 H216 H 1.11142 0.18912 0.34329
 H217 H 1.14376 0.22096 0.29006
 H218 H 1.18981 0.10974 0.25463
 H219 H 1.15899 0.07960 0.30943
 C220 C 1.13513 -0.12858 0.67078
 C221 C 1.15048 -0.10708 0.70128
 C222 C 1.16841 -0.12586 0.73206
 C223 C 1.17122 -0.16650 0.73277
 C224 C 1.15601 -0.18788 0.70178
 C225 C 1.13807 -0.16900 0.67098
 C226 C 1.11537 -0.10902 0.64004
 C227 C 1.09840 -0.09189 0.61505
 H228 H 1.14816 -0.07580 0.70153
 H229 H 1.17925 -0.10863 0.75576
 H230 H 1.15805 -0.21917 0.70137
 H231 H 1.12625 -0.18593 0.64752
 C232 C 0.87303 -0.12875 0.33057
 C233 C 0.86943 -0.16910 0.32967
 C234 C 0.85026 -0.18701 0.29910
 C235 C 0.83446 -0.16473 0.26904
 C236 C 0.83800 -0.12417 0.27043
 C237 C 0.85715 -0.10635 0.30098
 C238 C 0.89379 -0.11015 0.36120
 C239 C 0.91144 -0.09380 0.38618
 H240 H 0.88163 -0.18671 0.35244
 H241 H 0.84769 -0.21825 0.29900
 H242 H 0.82668 -0.10625 0.24745
 H243 H 0.85994 -0.07511 0.30129
 C244 C 0.86912 0.12908 0.66949
 C245 C 0.86531 0.16943 0.67005
 C246 C 0.84603 0.18752 0.70047
 C247 C 0.83032 0.16541 0.73069
 C248 C 0.83409 0.12485 0.72963
 C249 C 0.85334 0.10687 0.69925
 C250 C 0.89000 0.11026 0.63908
 C251 C 0.90775 0.09354 0.61440
 H252 H 0.87743 0.18690 0.64715
 H253 H 0.84329 0.21875 0.70032
 H254 H 0.82288 0.10707 0.75275
 H255 H 0.85631 0.07564 0.69921
 C256 C 0.33130 1.13173 0.12956
 C257 C 0.33054 1.13640 0.16978
 C258 C 0.29978 1.15486 0.18747
 C259 C 0.26940 1.16884 0.16508
 C260 C 0.27071 1.16439 0.12464
 C261 C 0.30143 1.14595 0.10705
 C262 C 0.36195 1.11125 0.11126
 C263 C 0.38686 1.09358 0.09519
 H264 H 0.35352 1.12549 0.18748
 H265 H 0.29978 1.15826 0.21862
 H266 H 0.24753 1.17435 0.10667
 H267 H 0.30164 1.14231 0.07591
 C268 C 0.66630 1.12869 -0.13246
 C269 C 0.66663 1.16898 -0.13692
 C270 C 0.69714 1.18710 -0.15534
 C271 C 0.72771 1.16509 -0.16949
 C272 C 0.72682 1.12458 -0.16529
 C273 C 0.69633 1.10655 -0.14689
 C274 C 0.63598 1.10998 -0.11187
 C275 C 0.61138 1.09360 -0.09407
 H276 H 0.64352 1.18639 -0.12583
 H277 H 0.69682 1.21829 -0.15854
 H278 H 0.75016 1.10690 -0.17536
 H279 H 0.69647 1.07537 -0.14339
 C280 C 0.33251 0.86556 -0.12765
 C281 C 0.30283 0.85035 -0.10557
 C282 C 0.27225 0.83221 -0.12370
 C283 C 0.27092 0.82905 -0.16427
 C284 C 0.30116 0.84395 -0.18623
 C285 C 0.33175 0.86211 -0.16800
 C286 C 0.36287 0.88599 -0.10882
 C287 C 0.38751 0.90371 -0.09243
 H288 H 0.30302 0.85308 -0.07433
 H289 H 0.24917 0.82157 -0.10603
 H290 H 0.30113 0.84159 -0.21747
 H291 H 0.35458 0.87381 -0.18537
 C292 C 0.66929 0.87116 0.13322
 C293 C 0.69920 0.89358 0.14745
 C294 C 0.73008 0.87582 0.16548
 C295 C 0.73149 0.83530 0.16952
 C296 C 0.70104 0.81301 0.15557
 C297 C 0.67015 0.83086 0.13751
 C298 C 0.63853 0.88960 0.11303
 C299 C 0.61352 0.90573 0.09554
 H300 H 0.69893 0.92477 0.14408
 H301 H 0.75330 0.89371 0.17542
 H302 H 0.70112 0.78181 0.15867
 H303 H 0.64714 0.81324 0.12659
   
