data_POSCAR
  _audit_creation_date              2014-09-24
  _audit_creation_method            'ToBaCCo'
  _symmetry_space_group_name_H-M    'P1'
  _symmetry_Int_Tables_number       1
  _symmetry_cell_setting            triclinic
  loop_
  _symmetry_equiv_pos_as_xyz
 x,y,z
_cell_length_a 21.0662
_cell_length_b 21.1497
_cell_length_c 23.3659
_cell_angle_alpha 89.997200
_cell_angle_beta 90.243200
_cell_angle_gamma 120.139900
loop_
  _atom_site_label
  _atom_site_type_symbol
  _atom_site_fract_x
  _atom_site_fract_y
  _atom_site_fract_z
O1 O 0.34881 0.55594 0.29762
 O2 O 0.22800 0.55869 0.31446
 C3 C 0.19522 0.59362 0.32526
 O4 O 0.20515 0.64933 0.29731
 O5 O 0.32909 0.76996 0.31473
 C6 C 0.39711 0.80284 0.32577
 O7 O 0.44307 0.79288 0.29801
 O8 O 0.44001 0.66959 0.31509
 C9 C 0.40489 0.60183 0.32576
 O10 O 0.32895 0.55894 0.18358
 O11 O 0.20498 0.55547 0.20041
 C12 C 0.19479 0.60109 0.17238
 O13 O 0.22770 0.66884 0.18334
 O14 O 0.34856 0.79252 0.20079
 C15 C 0.40466 0.80278 0.17307
 O16 O 0.43986 0.77023 0.18401
 O17 O 0.44297 0.65001 0.20110
 C18 C 0.39697 0.59409 0.17301
 Cr19 Cr 0.27973 0.56136 0.24902
 Cr20 Cr 0.27968 0.71812 0.24904
 Cr21 Cr 0.43736 0.71862 0.24954
 O22 O 0.33226 0.66604 0.24921
 O23 O 0.55962 0.33012 0.68456
 O24 O 0.55654 0.20681 0.70162
 C25 C 0.60248 0.19685 0.67386
 O26 O 0.67050 0.22971 0.68489
 O27 O 0.79446 0.35032 0.70229
 C28 C 0.80443 0.40606 0.67437
 O29 O 0.77168 0.44102 0.68520
 O30 O 0.65086 0.44377 0.70199
 C31 C 0.59476 0.39787 0.67387
 O32 O 0.55666 0.34967 0.79855
 O33 O 0.55976 0.22945 0.81563
 C34 C 0.59497 0.19690 0.82656
 O35 O 0.65107 0.20716 0.79884
 O36 O 0.77197 0.33082 0.81626
 C37 C 0.80479 0.39856 0.82721
 O38 O 0.79463 0.44424 0.79927
 O39 O 0.67066 0.44079 0.81603
 C40 C 0.60265 0.40562 0.82662
 Cr41 Cr 0.56226 0.28108 0.75011
 Cr42 Cr 0.71994 0.28155 0.75057
 Cr43 Cr 0.71991 0.43835 0.75062
 O44 O 0.66737 0.33366 0.75045
 C45 C 0.47399 -0.04926 0.45643
 N46 N 0.49308 0.02138 0.44701
 N47 N 0.51847 0.06975 0.48976
 C48 C 0.52556 0.04894 0.54320
 N49 N 0.50648 -0.02169 0.55261
 N50 N 0.48109 -0.07007 0.50987
 C51 C 0.44677 -0.10132 0.41040
 C52 C 0.42401 -0.14507 0.37174
 C53 C 0.55279 0.10100 0.58923
 C54 C 0.57556 0.14475 0.62789
 C55 C 1.04839 0.52293 0.45622
 N56 N 0.97671 0.50061 0.44615
 N57 N 0.92886 0.47785 0.48910
 C58 C 0.95125 0.47676 0.54341
 N59 N 1.02293 0.49908 0.55348
 N60 N 1.07078 0.52184 0.51053
 C61 C 1.09995 0.54758 0.41000
 C62 C 1.14337 0.56847 0.37125
 C63 C 0.89969 0.45211 0.58963
 C64 C 0.85627 0.43122 0.62838
 C65 C 0.47642 0.52551 0.45642
 N66 N 0.45506 0.52655 0.51092
 N67 N 0.47813 0.50127 0.55367
 C68 C 0.52322 0.47417 0.54320
 N69 N 0.54458 0.47314 0.48869
 N70 N 0.52151 0.49841 0.44595
 C71 C 0.45145 0.55257 0.41039
 C72 C 0.43032 0.57517 0.37173
 C73 C 0.54819 0.44711 0.58923
 C74 C 0.56933 0.42452 0.62789
 C75 C 0.47628 -0.04925 1.04302
 N76 N 0.47790 0.01530 1.04928
 N77 N 0.50109 0.06366 1.00672
 C78 C 0.52334 0.04892 0.95661
 N79 N 0.52172 -0.01563 0.95034
 N80 N 0.49853 -0.06399 0.99290
 C81 C 0.45122 -0.10135 1.08882
 C82 C 0.43005 -0.14513 1.12730
 C83 C 0.54840 0.10102 0.91081
 C84 C 0.56957 0.14480 0.87233
 C85 C 1.05135 0.52679 1.04548
 N86 N 0.97934 0.50255 1.05536
 N87 N 0.93091 0.47721 1.01243
 C88 C 0.95303 0.47533 0.95834
 N89 N 1.02504 0.49957 0.94846
 N90 N 1.07347 0.52491 0.99139
 C91 C 1.10349 0.55396 1.09170
 C92 C 1.14735 0.57668 1.13051
 C93 C 0.90089 0.44816 0.91212
 C94 C 0.85705 0.42543 0.87332
 C95 C 0.47391 0.52310 1.04297
 N96 N 0.47033 0.54207 0.98810
 N97 N 0.49583 0.51916 0.94558
 C98 C 0.52571 0.47662 0.95665
 N99 N 0.52928 0.45765 1.01152
 N100 N 0.50378 0.48056 1.05404
 C101 C 0.44661 0.54790 1.08875
 C102 C 0.42382 0.56888 1.12723
 C103 C 0.55301 0.45182 0.91087
 C104 C 0.57579 0.43084 0.87240
   
