data_POSCAR
  _audit_creation_date              2014-09-24
  _audit_creation_method            'ToBaCCo'
  _symmetry_space_group_name_H-M    'P1'
  _symmetry_Int_Tables_number       1
  _symmetry_cell_setting            triclinic
  loop_
  _symmetry_equiv_pos_as_xyz
 x,y,z
_cell_length_a 50.1577
_cell_length_b 50.1240
_cell_length_c 50.1310
_cell_angle_alpha 90.036600
_cell_angle_beta 89.992900
_cell_angle_gamma 89.941500
loop_
  _atom_site_label
  _atom_site_type_symbol
  _atom_site_fract_x
  _atom_site_fract_y
  _atom_site_fract_z
N1 N 0.25009 0.24987 0.24997
 N2 N 0.74973 -0.25005 0.24987
 N3 N 0.75021 0.25017 0.75016
 N4 N 0.24987 -0.25005 0.74992
 N5 N 0.74985 -0.24988 0.75000
 N6 N 0.25020 0.25001 0.75011
 N7 N 0.24974 -0.25023 0.24982
 N8 N 0.75006 0.25003 0.25004
 O9 O 0.22793 0.02593 0.47401
 O10 O 0.22791 -0.02601 0.52592
 O11 O 0.22798 0.02593 0.52595
 O12 O 0.22786 -0.02601 0.47398
 O13 O 0.27183 -0.02612 0.47393
 O14 O 0.27195 0.02583 0.52590
 O15 O 0.27188 -0.02612 0.52587
 O16 O 0.27190 0.02583 0.47396
 Cu17 Cu 0.22352 -0.00003 0.49997
 Cu18 Cu 0.27630 -0.00016 0.49991
 C19 C 0.24992 0.03478 0.46509
 C20 C 0.24989 -0.03497 0.53479
 C21 C 0.24999 0.03478 0.53484
 C22 C 0.24982 -0.03497 0.46505
 O23 O 0.72794 0.02610 0.52602
 O24 O 0.72782 -0.02585 0.47405
 O25 O 0.72786 -0.02585 0.52598
 O26 O 0.72790 0.02609 0.47408
 O27 O 0.77187 0.02598 0.47404
 O28 O 0.77183 -0.02596 0.52595
 O29 O 0.77179 -0.02596 0.47401
 O30 O 0.77192 0.02598 0.52598
 Cu31 Cu 0.72347 0.00014 0.50004
 Cu32 Cu 0.77626 0.00000 0.49999
 C33 C 0.74995 0.03495 0.53490
 C34 C 0.74979 -0.03481 0.46512
 C35 C 0.74983 -0.03480 0.53486
 C36 C 0.74989 0.03494 0.46517
 O37 O 0.47425 0.22817 0.02604
 O38 O 0.52609 0.22820 -0.02597
 O39 O 0.52615 0.22817 0.02597
 O40 O 0.47418 0.22820 -0.02590
 O41 O 0.47413 0.27220 -0.02585
 O42 O 0.52611 0.27217 0.02602
 O43 O 0.52605 0.27220 -0.02591
 O44 O 0.47420 0.27217 0.02609
 Cu45 Cu 0.50017 0.22378 0.00003
 Cu46 Cu 0.50012 0.27659 0.00009
 C47 C 0.46534 0.25016 0.03498
 C48 C 0.53496 0.25021 -0.03485
 C49 C 0.53504 0.25016 0.03488
 C50 C 0.46525 0.25020 -0.03476
 O51 O 0.52578 0.72788 0.02584
 O52 O 0.47386 0.72791 -0.02609
 O53 O 0.52577 0.72792 -0.02610
 O54 O 0.47387 0.72787 0.02585
 O55 O 0.47381 0.77187 0.02592
 O56 O 0.52572 0.77193 -0.02603
 O57 O 0.47381 0.77191 -0.02602
 O58 O 0.52572 0.77188 0.02590
 Cu59 Cu 0.49982 0.72349 -0.00013
 Cu60 Cu 0.49976 0.77631 -0.00005
 C61 C 0.53465 0.74988 0.03477
 C62 C 0.46493 0.74992 -0.03495
 C63 C 0.53464 0.74993 -0.03497
 C64 C 0.46495 0.74986 0.03479
 O65 O 0.02582 0.47388 0.22767
 O66 O -0.02607 0.52589 0.22772
 O67 O 0.02584 0.52582 0.22767
 O68 O -0.02609 0.47395 0.22773
 O69 O -0.02605 0.47398 0.27172
 O70 O 0.02588 0.52585 0.27167
 O71 O -0.02603 0.52592 0.27171
 O72 O 0.02586 0.47391 0.27167
 Cu73 Cu -0.00012 0.49988 0.22329
 Cu74 Cu -0.00008 0.49992 0.27610
 C75 C 0.03474 0.46498 0.24966
 C76 C -0.03495 0.53482 0.24972
 C77 C 0.03476 0.53473 0.24966
 C78 C -0.03497 0.46507 0.24973
 O79 O 0.02595 0.52600 0.72795
 O80 O -0.02592 0.47408 0.72803
 O81 O -0.02596 0.52602 0.72800
 O82 O 0.02598 0.47406 0.72799
 O83 O 0.02602 0.47411 0.77198
 O84 O -0.02593 0.52608 0.77200
 O85 O -0.02589 0.47413 0.77202
 O86 O 0.02599 0.52606 0.77195
 Cu87 Cu 0.00001 0.50004 0.72358
 Cu88 Cu 0.00005 0.50010 0.77639
 C89 C 0.03486 0.53493 0.74994
 C90 C -0.03480 0.46521 0.75004
 C91 C -0.03484 0.53496 0.75000
 C92 C 0.03491 0.46518 0.74998
 C93 C 0.30235 0.27394 0.20204
 C94 C 0.31030 0.24996 0.19011
 C95 C 0.29841 0.22595 0.19792
 C96 C 0.27864 0.22591 0.21758
 C97 C 0.27053 0.24990 0.22966
 C98 C 0.28259 0.27393 0.22171
 C99 C 0.33063 0.25000 0.16984
 C100 C 0.34765 0.25003 0.15286
 C101 C 0.36756 0.25006 0.13297
 C102 C 0.38455 0.25009 0.11597
 C103 C 0.40484 0.25011 0.09566
 C104 C 0.41475 0.22596 0.08571
 C105 C 0.43444 0.22595 0.06597
 C106 C 0.44448 0.25015 0.05590
 C107 C 0.43438 0.27432 0.06604
 C108 C 0.41469 0.27427 0.08578
 H109 H 0.31145 0.29264 0.19617
 H110 H 0.30438 0.20728 0.18878
 H111 H 0.26950 0.20719 0.22325
 H112 H 0.27681 0.29262 0.23088
 H113 H 0.40725 0.20714 0.09322
 H114 H 0.44178 0.20701 0.05860
 H115 H 0.44168 0.29328 0.05873
 H116 H 0.40715 0.29308 0.09334
 C117 C 0.70160 0.77386 0.19768
 C118 C 0.68970 0.74985 0.18984
 C119 C 0.69759 0.72587 0.20180
 C120 C 0.71730 0.72589 0.22151
 C121 C 0.72935 0.74992 0.22950
 C122 C 0.72131 0.77391 0.21739
 C123 C 0.66941 0.74981 0.16954
 C124 C 0.65242 0.74979 0.15254
 C125 C 0.63252 0.74978 0.13264
 C126 C 0.61553 0.74979 0.11564
 C127 C 0.59523 0.74982 0.09535
 C128 C 0.58536 0.72568 0.08541
 C129 C 0.56565 0.72567 0.06570
 C130 C 0.55553 0.74986 0.05565
 C131 C 0.56559 0.77403 0.06579
 C132 C 0.58531 0.77398 0.08550
 H133 H 0.69567 0.79252 0.18853
 H134 H 0.68849 0.70718 0.19591
 H135 H 0.72303 0.70721 0.23070
 H136 H 0.73046 0.79261 0.22309
 H137 H 0.59291 0.70685 0.09290
 H138 H 0.55834 0.70672 0.05833
 H139 H 0.55824 0.79299 0.05849
 H140 H 0.59281 0.79279 0.09306
 C141 C 0.71664 0.25549 -0.18306
 C142 C 0.69010 0.25024 -0.18988
 C143 C 0.68337 0.24498 -0.21646
 C144 C 0.70309 0.24496 -0.23616
 C145 C 0.72981 0.25021 -0.22949
 C146 C 0.73639 0.25548 -0.20274
 C147 C 0.66978 0.25023 -0.16961
 C148 C 0.65275 0.25023 -0.15263
 C149 C 0.63282 0.25023 -0.13276
 C150 C 0.61582 0.25023 -0.11577
 C151 C 0.59552 0.25023 -0.09547
 C152 C 0.58560 0.27438 -0.08554
 C153 C 0.56589 0.27441 -0.06582
 C154 C 0.55583 0.25022 -0.05575
 C155 C 0.56593 0.22604 -0.06587
 C156 C 0.58564 0.22608 -0.08560
 H157 H 0.72208 0.25955 -0.16254
 H158 H 0.66288 0.24093 -0.22197
 H159 H 0.69753 0.24105 -0.25666
 H160 H 0.75686 0.25937 -0.19711
 H161 H 0.59311 0.29320 -0.09305
 H162 H 0.55855 0.29336 -0.05847
 H163 H 0.55862 0.20708 -0.05856
 H164 H 0.59318 0.20726 -0.09314
 C165 C 0.30203 0.72593 -0.20197
 C166 C 0.30986 0.74992 -0.19001
 C167 C 0.29791 0.77392 -0.19785
 C168 C 0.27821 0.77394 -0.21757
 C169 C 0.27023 0.74994 -0.22969
 C170 C 0.28234 0.72593 -0.22170
 C171 C 0.33014 0.74991 -0.16970
 C172 C 0.34714 0.74991 -0.15270
 C173 C 0.36704 0.74992 -0.13280
 C174 C 0.38404 0.74993 -0.11581
 C175 C 0.40434 0.74993 -0.09552
 C176 C 0.41420 0.77409 -0.08560
 C177 C 0.43392 0.77411 -0.06588
 C178 C 0.44405 0.74992 -0.05583
 C179 C 0.43400 0.72574 -0.06596
 C180 C 0.41428 0.72578 -0.08567
 H181 H 0.31118 0.70725 -0.19609
 H182 H 0.30379 0.79259 -0.18869
 H183 H 0.26902 0.79264 -0.22326
 H184 H 0.27665 0.70723 -0.23090
 H185 H 0.40664 0.79290 -0.09309
 H186 H 0.44122 0.79306 -0.05853
 H187 H 0.44136 0.70679 -0.05866
 H188 H 0.40678 0.70697 -0.09321
 C189 C 0.19788 0.29789 0.22580
 C190 C 0.18991 0.30983 0.24976
 C191 C 0.20178 0.30200 0.27379
 C192 C 0.22154 0.28232 0.27387
 C193 C 0.22967 0.27022 0.24990
 C194 C 0.21763 0.27820 0.22585
 C195 C 0.16958 0.33011 0.24970
 C196 C 0.15256 0.34710 0.24966
 C197 C 0.13263 0.36700 0.24963
 C198 C 0.11562 0.38400 0.24962
 C199 C 0.09531 0.40431 0.24962
 C200 C 0.08543 0.41424 0.27378
 C201 C 0.06571 0.43398 0.27382
 C202 C 0.05561 0.44406 0.24965
 C203 C 0.06568 0.43393 0.22546
 C204 C 0.08540 0.41419 0.22548
 H205 H 0.18880 0.30377 0.20709
 H206 H 0.19580 0.31115 0.29245
 H207 H 0.23067 0.27663 0.29260
 H208 H 0.22343 0.26901 0.20718
 H209 H 0.09297 0.40673 0.29259
 H210 H 0.05840 0.44133 0.29277
 H211 H 0.05834 0.44126 0.20651
 H212 H 0.09291 0.40665 0.20666
 C213 C 0.20185 0.69776 0.72587
 C214 C 0.18988 0.68992 0.74984
 C215 C 0.19770 0.70186 0.77384
 C216 C 0.21740 0.72158 0.77388
 C217 C 0.22952 0.72957 0.74990
 C218 C 0.22155 0.71747 0.72588
 C219 C 0.16959 0.66964 0.74981
 C220 C 0.15260 0.65265 0.74979
 C221 C 0.13270 0.63276 0.74979
 C222 C 0.11571 0.61578 0.74981
 C223 C 0.09541 0.59549 0.74984
 C224 C 0.08554 0.58563 0.77401
 C225 C 0.06583 0.56593 0.77407
 C226 C 0.05573 0.55581 0.74991
 C227 C 0.06580 0.56586 0.72571
 C228 C 0.08550 0.58557 0.72571
 H229 H 0.19598 0.68862 0.70718
 H230 H 0.18855 0.69598 0.79250
 H231 H 0.22308 0.73076 0.79259
 H232 H 0.23075 0.72316 0.70720
 H233 H 0.09308 0.59318 0.79281
 H234 H 0.05852 0.55862 0.79303
 H235 H 0.05846 0.55851 0.70677
 H236 H 0.09301 0.59307 0.70688
 C237 C -0.19800 0.70189 0.22586
 C238 C -0.19013 0.68996 0.24984
 C239 C -0.20208 0.69781 0.27383
 C240 C -0.22184 0.71750 0.27386
 C241 C -0.22986 0.72959 0.24986
 C242 C -0.21775 0.72160 0.22585
 C243 C -0.16980 0.66968 0.24982
 C244 C -0.15277 0.65269 0.24980
 C245 C -0.13284 0.63280 0.24978
 C246 C -0.11583 0.61580 0.24978
 C247 C -0.09552 0.59548 0.24977
 C248 C -0.08561 0.58560 0.27391
 C249 C -0.06589 0.56586 0.27393
 C250 C -0.05582 0.55574 0.24974
 C251 C -0.06593 0.56582 0.22557
 C252 C -0.08565 0.58556 0.22561
 H253 H -0.18885 0.69600 0.20718
 H254 H -0.19617 0.68867 0.29250
 H255 H -0.23103 0.72320 0.29256
 H256 H -0.22347 0.73077 0.20716
 H257 H -0.09312 0.59314 0.29273
 H258 H -0.05855 0.55853 0.29287
 H259 H -0.05861 0.55847 0.20661
 H260 H -0.09318 0.59307 0.20680
 C261 C -0.21636 0.31699 0.75543
 C262 C -0.18979 0.31019 0.75019
 C263 C -0.18300 0.28360 0.74495
 C264 C -0.20269 0.26388 0.74495
 C265 C -0.22943 0.27054 0.75019
 C266 C -0.23607 0.29729 0.75543
 C267 C -0.16951 0.33048 0.75016
 C268 C -0.15252 0.34747 0.75015
 C269 C -0.13263 0.36736 0.75015
 C270 C -0.11563 0.38435 0.75014
 C271 C -0.09535 0.40464 0.75012
 C272 C -0.08544 0.41456 0.77425
 C273 C -0.06574 0.43427 0.77426
 C274 C -0.05567 0.44433 0.75007
 C275 C -0.06577 0.43421 0.72590
 C276 C -0.08547 0.41450 0.72595
 H277 H -0.22184 0.33751 0.75946
 H278 H -0.16250 0.27811 0.74091
 H279 H -0.19709 0.24338 0.74106
 H280 H -0.25655 0.30291 0.75932
 H281 H -0.09295 0.40706 0.79308
 H282 H -0.05840 0.44162 0.79320
 H283 H -0.05846 0.44152 0.70694
 H284 H -0.09300 0.40696 0.70715
 C285 C 0.27397 0.20183 0.30226
 C286 C 0.25000 0.18983 0.30999
 C287 C 0.22605 0.19763 0.29793
 C288 C 0.22607 0.21733 0.27822
 C289 C 0.25006 0.22949 0.27033
 C290 C 0.27402 0.22155 0.28255
 C291 C 0.24996 0.16954 0.33029
 C292 C 0.24993 0.15255 0.34730
 C293 C 0.24992 0.13266 0.36721
 C294 C 0.24992 0.11567 0.38422
 C295 C 0.24993 0.09537 0.40451
 C296 C 0.22579 0.08554 0.41444
 C297 C 0.22576 0.06582 0.43416
 C298 C 0.24992 0.05567 0.44421
 C299 C 0.27409 0.06570 0.43409
 C300 C 0.27406 0.08542 0.41437
 H301 H 0.29261 0.19598 0.31149
 H302 H 0.20739 0.18844 0.30374
 H303 H 0.20741 0.22299 0.26894
 H304 H 0.29270 0.23078 0.27693
 H305 H 0.20699 0.09311 0.40695
 H306 H 0.20682 0.05853 0.44151
 H307 H 0.29303 0.05832 0.44139
 H308 H 0.29287 0.09290 0.40682
 C309 C 0.75552 0.21666 0.68333
 C310 C 0.75025 0.19010 0.69010
 C311 C 0.74497 0.18333 0.71667
 C312 C 0.74497 0.20305 0.73640
 C313 C 0.75024 0.22978 0.72978
 C314 C 0.75552 0.23640 0.70305
 C315 C 0.75022 0.16979 0.66979
 C316 C 0.75019 0.15278 0.65278
 C317 C 0.75016 0.13287 0.63286
 C318 C 0.75014 0.11587 0.61585
 C319 C 0.75009 0.09556 0.59554
 C320 C 0.72593 0.08572 0.58566
 C321 C 0.72586 0.06599 0.56593
 C322 C 0.75000 0.05584 0.55581
 C323 C 0.77419 0.06587 0.56588
 C324 C 0.77421 0.08560 0.58561
 H325 H 0.75958 0.22212 0.66283
 H326 H 0.74090 0.16283 0.72213
 H327 H 0.74105 0.19746 0.75689
 H328 H 0.75943 0.25689 0.69746
 H329 H 0.70715 0.09329 0.59321
 H330 H 0.70690 0.05871 0.55861
 H331 H 0.79311 0.05850 0.55852
 H332 H 0.79302 0.09308 0.59312
 C333 C 0.22587 -0.19784 0.70185
 C334 C 0.24984 -0.19000 0.68991
 C335 C 0.27383 -0.20196 0.69775
 C336 C 0.27385 -0.22168 0.71746
 C337 C 0.24986 -0.22967 0.72956
 C338 C 0.22587 -0.21755 0.72156
 C339 C 0.24983 -0.16971 0.66961
 C340 C 0.24983 -0.15272 0.65260
 C341 C 0.24984 -0.13284 0.63268
 C342 C 0.24984 -0.11585 0.61568
 C343 C 0.24986 -0.09555 0.59538
 C344 C 0.27400 -0.08573 0.58545
 C345 C 0.27404 -0.06601 0.56573
 C346 C 0.24988 -0.05585 0.55567
 C347 C 0.22571 -0.06588 0.56579
 C348 C 0.22573 -0.08559 0.58551
 H349 H 0.20720 -0.18869 0.69596
 H350 H 0.29249 -0.19607 0.68861
 H351 H 0.29254 -0.23087 0.72316
 H352 H 0.20719 -0.22325 0.73075
 H353 H 0.29280 -0.09330 0.59295
 H354 H 0.29299 -0.05873 0.55838
 H355 H 0.20677 -0.05850 0.55849
 H356 H 0.20692 -0.09306 0.59306
 C357 C 0.72568 -0.20193 0.30209
 C358 C 0.74964 -0.18996 0.30992
 C359 C 0.77362 -0.19779 0.29796
 C360 C 0.77366 -0.21752 0.27824
 C361 C 0.74970 -0.22965 0.27025
 C362 C 0.72569 -0.22167 0.28237
 C363 C 0.74961 -0.16965 0.33023
 C364 C 0.74960 -0.15264 0.34724
 C365 C 0.74960 -0.13273 0.36716
 C366 C 0.74962 -0.11572 0.38417
 C367 C 0.74966 -0.09542 0.40448
 C368 C 0.77382 -0.08558 0.41437
 C369 C 0.77389 -0.06585 0.43410
 C370 C 0.74974 -0.05570 0.44422
 C371 C 0.72556 -0.06574 0.43414
 C372 C 0.72555 -0.08546 0.41441
 H373 H 0.70701 -0.19605 0.31124
 H374 H 0.79227 -0.18863 0.30385
 H375 H 0.79236 -0.22321 0.26904
 H376 H 0.70703 -0.23088 0.27668
 H377 H 0.79261 -0.09315 0.40682
 H378 H 0.79285 -0.05856 0.44142
 H379 H 0.70663 -0.05836 0.44149
 H380 H 0.70673 -0.09294 0.40689
 C381 C 0.69769 0.72605 -0.20196
 C382 C 0.68978 0.75003 -0.19000
 C383 C 0.70168 0.77404 -0.19781
 C384 C 0.72141 0.77408 -0.21751
 C385 C 0.72947 0.75009 -0.22963
 C386 C 0.71741 0.72607 -0.22166
 C387 C 0.66947 0.75000 -0.16971
 C388 C 0.65246 0.74999 -0.15273
 C389 C 0.63254 0.74999 -0.13284
 C390 C 0.61553 0.74998 -0.11585
 C391 C 0.59523 0.74997 -0.09556
 C392 C 0.58531 0.77412 -0.08563
 C393 C 0.56559 0.77414 -0.06591
 C394 C 0.55553 0.74995 -0.05586
 C395 C 0.56564 0.72577 -0.06598
 C396 C 0.58536 0.72582 -0.08569
 H397 H 0.68858 0.70737 -0.19609
 H398 H 0.69574 0.79271 -0.18865
 H399 H 0.73056 0.79279 -0.22319
 H400 H 0.72316 0.70738 -0.23086
 H401 H 0.59282 0.79294 -0.09313
 H402 H 0.55824 0.79309 -0.05856
 H403 H 0.55833 0.70682 -0.05867
 H404 H 0.59290 0.70701 -0.09324
 C405 C 0.29824 0.22608 -0.19764
 C406 C 0.31017 0.25008 -0.18981
 C407 C 0.30232 0.27406 -0.20179
 C408 C 0.28263 0.27405 -0.22152
 C409 C 0.27055 0.25003 -0.22951
 C410 C 0.27855 0.22605 -0.21737
 C411 C 0.33044 0.25011 -0.16949
 C412 C 0.34742 0.25014 -0.15248
 C413 C 0.36732 0.25018 -0.13258
 C414 C 0.38432 0.25020 -0.11558
 C415 C 0.40462 0.25020 -0.09529
 C416 C 0.41450 0.27436 -0.08540
 C417 C 0.43423 0.27439 -0.06570
 C418 C 0.44435 0.25021 -0.05563
 C419 C 0.43427 0.22602 -0.06571
 C420 C 0.41454 0.22605 -0.08541
 H421 H 0.30413 0.20742 -0.18847
 H422 H 0.31145 0.29274 -0.19591
 H423 H 0.27693 0.29273 -0.23074
 H424 H 0.26938 0.20734 -0.22305
 H425 H 0.40696 0.29317 -0.09291
 H426 H 0.44156 0.29334 -0.05837
 H427 H 0.44161 0.20707 -0.05839
 H428 H 0.40702 0.20724 -0.09293
 C429 C 0.29787 0.77373 0.19769
 C430 C 0.30985 0.74973 0.18986
 C431 C 0.30202 0.72575 0.20180
 C432 C 0.28228 0.72574 0.22149
 C433 C 0.27014 0.74976 0.22947
 C434 C 0.27813 0.77375 0.21737
 C435 C 0.33017 0.74971 0.16959
 C436 C 0.34719 0.74971 0.15260
 C437 C 0.36710 0.74973 0.13271
 C438 C 0.38410 0.74975 0.11571
 C439 C 0.40439 0.74978 0.09541
 C440 C 0.41431 0.72564 0.08547
 C441 C 0.43402 0.72564 0.06574
 C442 C 0.44407 0.74984 0.05569
 C443 C 0.43396 0.77400 0.06582
 C444 C 0.41425 0.77395 0.08555
 H445 H 0.30375 0.79240 0.18855
 H446 H 0.31119 0.70707 0.19592
 H447 H 0.27659 0.70706 0.23067
 H448 H 0.26891 0.79245 0.22306
 H449 H 0.40682 0.70681 0.09296
 H450 H 0.44137 0.70670 0.05837
 H451 H 0.44125 0.79297 0.05852
 H452 H 0.40670 0.79275 0.09311
 C453 C 0.71668 0.25521 0.18317
 C454 C 0.69011 0.25000 0.18993
 C455 C 0.68331 0.24478 0.21650
 C456 C 0.70298 0.24479 0.23625
 C457 C 0.72972 0.25001 0.22964
 C458 C 0.73638 0.25522 0.20290
 C459 C 0.66985 0.25000 0.16961
 C460 C 0.65287 0.25001 0.15260
 C461 C 0.63298 0.25004 0.13269
 C462 C 0.61598 0.25007 0.11569
 C463 C 0.59567 0.25009 0.09541
 C464 C 0.58578 0.22595 0.08550
 C465 C 0.56604 0.22595 0.06580
 C466 C 0.55594 0.25014 0.05575
 C467 C 0.56604 0.27431 0.06584
 C468 C 0.58577 0.27426 0.08554
 H469 H 0.72218 0.25923 0.16266
 H470 H 0.66280 0.24076 0.22196
 H471 H 0.69737 0.24092 0.25674
 H472 H 0.75686 0.25910 0.19732
 H473 H 0.59331 0.20713 0.09300
 H474 H 0.55871 0.20700 0.05846
 H475 H 0.55870 0.29327 0.05854
 H476 H 0.59330 0.29307 0.09308
 C477 C -0.20198 0.69794 0.72599
 C478 C -0.19003 0.69010 0.74998
 C479 C -0.19789 0.70205 0.77397
 C480 C -0.21763 0.72176 0.77400
 C481 C -0.22974 0.72975 0.75000
 C482 C -0.22172 0.71764 0.72599
 C483 C -0.16970 0.66981 0.74997
 C484 C -0.15269 0.65281 0.74997
 C485 C -0.13277 0.63291 0.74998
 C486 C -0.11576 0.61590 0.74999
 C487 C -0.09546 0.59558 0.75000
 C488 C -0.08554 0.58572 0.77415
 C489 C -0.06582 0.56599 0.77418
 C490 C -0.05574 0.55586 0.75000
 C491 C -0.06585 0.56592 0.72582
 C492 C -0.08557 0.58565 0.72585
 H493 H -0.19607 0.68879 0.70732
 H494 H -0.18875 0.69617 0.79264
 H495 H -0.22335 0.73095 0.79269
 H496 H -0.23091 0.72334 0.70730
 H497 H -0.09306 0.59327 0.79296
 H498 H -0.05847 0.55868 0.79313
 H499 H -0.05853 0.55856 0.70687
 H500 H -0.09311 0.59315 0.70704
 C501 C -0.21652 0.31685 0.24471
 C502 C -0.18996 0.31007 0.25000
 C503 C -0.18318 0.28350 0.25532
 C504 C -0.20286 0.26378 0.25534
 C505 C -0.22959 0.27041 0.25004
 C506 C -0.23623 0.29714 0.24474
 C507 C -0.16968 0.33036 0.24994
 C508 C -0.15271 0.34736 0.24989
 C509 C -0.13283 0.36726 0.24984
 C510 C -0.11584 0.38426 0.24981
 C511 C -0.09555 0.40454 0.24980
 C512 C -0.08561 0.41442 0.27394
 C513 C -0.06590 0.43412 0.27394
 C514 C -0.05585 0.44421 0.24975
 C515 C -0.06598 0.43414 0.22558
 C516 C -0.08570 0.41444 0.22564
 H517 H -0.22200 0.33735 0.24061
 H518 H -0.16268 0.27803 0.25939
 H519 H -0.19726 0.24329 0.25928
 H520 H -0.25671 0.30274 0.24080
 H521 H -0.09310 0.40690 0.29276
 H522 H -0.05853 0.44144 0.29289
 H523 H -0.05869 0.44147 0.20663
 H524 H -0.09326 0.40692 0.20683
 C525 C 0.20212 0.30221 0.72603
 C526 C 0.19014 0.31009 0.75000
 C527 C 0.19797 0.29817 0.77401
 C528 C 0.21769 0.27845 0.77406
 C529 C 0.22982 0.27041 0.75007
 C530 C 0.22184 0.28249 0.72605
 C531 C 0.16983 0.33039 0.74996
 C532 C 0.15281 0.34739 0.74994
 C533 C 0.13288 0.36728 0.74993
 C534 C 0.11586 0.38428 0.74993
 C535 C 0.09554 0.40458 0.74995
 C536 C 0.08566 0.41450 0.77410
 C537 C 0.06592 0.43422 0.77414
 C538 C 0.05580 0.44429 0.74997
 C539 C 0.06588 0.43417 0.72578
 C540 C 0.08561 0.41445 0.72580
 H541 H 0.19624 0.31133 0.70735
 H542 H 0.18880 0.30410 0.79267
 H543 H 0.22338 0.26928 0.79276
 H544 H 0.23105 0.27675 0.70737
 H545 H 0.09320 0.40699 0.79291
 H546 H 0.05860 0.44157 0.79310
 H547 H 0.05853 0.44148 0.70684
 H548 H 0.09313 0.40690 0.70699
 C549 C 0.19765 0.70167 0.22572
 C550 C 0.18976 0.68973 0.24969
 C551 C 0.20165 0.69759 0.27370
 C552 C 0.22134 0.71730 0.27376
 C553 C 0.22938 0.72940 0.24977
 C554 C 0.21734 0.72139 0.22575
 C555 C 0.16949 0.66943 0.24964
 C556 C 0.15251 0.65243 0.24961
 C557 C 0.13263 0.63253 0.24960
 C558 C 0.11564 0.61554 0.24960
 C559 C 0.09535 0.59526 0.24961
 C560 C 0.08549 0.58536 0.27377
 C561 C 0.06578 0.56566 0.27382
 C562 C 0.05565 0.55559 0.24964
 C563 C 0.06570 0.56568 0.22546
 C564 C 0.08541 0.58538 0.22547
 H565 H 0.18856 0.69577 0.20702
 H566 H 0.19572 0.68845 0.29236
 H567 H 0.23048 0.72301 0.29247
 H568 H 0.22307 0.73057 0.20707
 H569 H 0.09305 0.59287 0.29258
 H570 H 0.05848 0.55833 0.29277
 H571 H 0.05833 0.55836 0.20651
 H572 H 0.09290 0.59290 0.20665
 C573 C 0.72581 -0.20181 0.69781
 C574 C 0.74976 -0.18985 0.68997
 C575 C 0.77375 -0.19767 0.70193
 C576 C 0.77379 -0.21737 0.72165
 C577 C 0.74982 -0.22950 0.72964
 C578 C 0.72582 -0.22153 0.71752
 C579 C 0.74973 -0.16955 0.66967
 C580 C 0.74972 -0.15256 0.65267
 C581 C 0.74972 -0.13268 0.63276
 C582 C 0.74973 -0.11569 0.61575
 C583 C 0.74976 -0.09539 0.59545
 C584 C 0.77391 -0.08557 0.58553
 C585 C 0.77397 -0.06585 0.56581
 C586 C 0.74981 -0.05569 0.55575
 C587 C 0.72563 -0.06571 0.56585
 C588 C 0.72564 -0.08543 0.58557
 H589 H 0.70714 -0.19594 0.68866
 H590 H 0.79240 -0.18850 0.69605
 H591 H 0.79248 -0.22306 0.73084
 H592 H 0.70715 -0.23074 0.72321
 H593 H 0.79270 -0.09315 0.59304
 H594 H 0.79291 -0.05858 0.55847
 H595 H 0.70670 -0.05833 0.55854
 H596 H 0.70683 -0.09289 0.59311
 C597 C 0.22569 -0.19800 0.29792
 C598 C 0.24965 -0.19017 0.30990
 C599 C 0.27363 -0.20215 0.30208
 C600 C 0.27368 -0.22187 0.28236
 C601 C 0.24971 -0.22985 0.27021
 C602 C 0.22570 -0.21772 0.27819
 C603 C 0.24962 -0.16986 0.33021
 C604 C 0.24961 -0.15285 0.34721
 C605 C 0.24962 -0.13293 0.36712
 C606 C 0.24964 -0.11592 0.38413
 C607 C 0.24968 -0.09560 0.40443
 C608 C 0.27384 -0.08576 0.41431
 C609 C 0.27392 -0.06602 0.43403
 C610 C 0.24977 -0.05587 0.44415
 C611 C 0.22558 -0.06591 0.43409
 C612 C 0.22557 -0.08564 0.41436
 H613 H 0.20702 -0.18883 0.30379
 H614 H 0.29228 -0.19627 0.31125
 H615 H 0.29237 -0.23108 0.27667
 H616 H 0.20703 -0.22341 0.26897
 H617 H 0.29263 -0.09333 0.40676
 H618 H 0.29287 -0.05873 0.44135
 H619 H 0.20666 -0.05853 0.44144
 H620 H 0.20675 -0.09313 0.40685
 C621 C 0.75524 0.21664 0.31690
 C622 C 0.75001 0.19006 0.31013
 C623 C 0.74480 0.18324 0.28355
 C624 C 0.74482 0.20293 0.26381
 C625 C 0.75005 0.22968 0.27043
 C626 C 0.75526 0.23635 0.29717
 C627 C 0.74997 0.16978 0.33044
 C628 C 0.74994 0.15279 0.34745
 C629 C 0.74992 0.13289 0.36735
 C630 C 0.74991 0.11589 0.38434
 C631 C 0.74991 0.09557 0.40462
 C632 C 0.72577 0.08573 0.41454
 C633 C 0.72573 0.06600 0.43424
 C634 C 0.74990 0.05584 0.44429
 C635 C 0.77407 0.06588 0.43418
 C636 C 0.77404 0.08561 0.41448
 H637 H 0.75925 0.22214 0.33741
 H638 H 0.74077 0.16272 0.27809
 H639 H 0.74096 0.19730 0.24332
 H640 H 0.75914 0.25685 0.30276
 H641 H 0.70697 0.09330 0.40704
 H642 H 0.70679 0.05871 0.44159
 H643 H 0.79300 0.05850 0.44148
 H644 H 0.79285 0.09309 0.40694
 C645 C 0.27420 0.20180 0.69795
 C646 C 0.25023 0.18987 0.69010
 C647 C 0.22625 0.19776 0.70204
 C648 C 0.22623 0.21750 0.72175
 C649 C 0.25021 0.22959 0.72975
 C650 C 0.27421 0.22155 0.71766
 C651 C 0.25024 0.16956 0.66979
 C652 C 0.25023 0.15255 0.65279
 C653 C 0.25020 0.13264 0.63287
 C654 C 0.25017 0.11565 0.61584
 C655 C 0.25013 0.09536 0.59551
 C656 C 0.22597 0.08552 0.58562
 C657 C 0.22589 0.06581 0.56588
 C658 C 0.25004 0.05567 0.55575
 C659 C 0.27423 0.06570 0.56582
 C660 C 0.27424 0.08541 0.58557
 H661 H 0.29287 0.19588 0.68882
 H662 H 0.20759 0.18863 0.69614
 H663 H 0.20754 0.22323 0.73092
 H664 H 0.29289 0.23073 0.72336
 H665 H 0.20718 0.09309 0.59318
 H666 H 0.20694 0.05853 0.55856
 H667 H 0.29315 0.05833 0.55846
 H668 H 0.29306 0.09289 0.59309
   
