data_POSCAR
  _audit_creation_date              2014-09-24
  _audit_creation_method            'ToBaCCo'
  _symmetry_space_group_name_H-M    'P1'
  _symmetry_Int_Tables_number       1
  _symmetry_cell_setting            triclinic
  loop_
  _symmetry_equiv_pos_as_xyz
 x,y,z
_cell_length_a 31.3299
_cell_length_b 29.5266
_cell_length_c 15.5630
_cell_angle_alpha 89.913000
_cell_angle_beta 90.104600
_cell_angle_gamma 126.968500
loop_
  _atom_site_label
  _atom_site_type_symbol
  _atom_site_fract_x
  _atom_site_fract_y
  _atom_site_fract_z
C1 C 0.46699 0.85669 0.49652
 C2 C 0.47793 0.88447 0.57605
 C3 C 0.49849 0.94216 0.57543
 C4 C 0.50279 0.97047 0.49877
 C5 C 0.48696 0.93923 0.42153
 C6 C 0.47102 0.88362 0.41968
 C7 C 0.52206 1.03135 0.49942
 C8 C 0.53820 1.06351 0.42272
 C9 C 0.55140 1.11839 0.42070
 C10 C 0.55293 1.14320 0.49884
 C11 C 0.54201 1.11446 0.57680
 C12 C 0.52439 1.05814 0.57633
 H13 H 0.45045 0.81230 0.49370
 H14 H 0.51239 0.96490 0.63540
 H15 H 0.48607 0.95696 0.36154
 H16 H 0.53882 1.04545 0.36321
 H17 H 0.56709 1.18689 0.50021
 H18 H 0.51254 1.03616 0.63709
 C19 C 0.13714 0.55781 0.49253
 C20 C 0.11200 0.54510 0.57281
 C21 C 0.05736 0.52208 0.57473
 C22 C 0.02989 0.51850 0.49930
 C23 C 0.05818 0.53511 0.42056
 C24 C 0.11037 0.55171 0.41679
 C25 C -0.02718 0.49892 0.50275
 C26 C -0.05885 0.48165 0.42747
 C27 C -0.11043 0.46818 0.42813
 C28 C -0.13194 0.46784 0.50767
 C29 C -0.10324 0.48030 0.58390
 C30 C -0.05071 0.49764 0.58097
 H31 H 0.17774 0.57120 0.48793
 H32 H 0.03744 0.50974 0.63592
 H33 H 0.04048 0.53489 0.36094
 H34 H -0.04292 0.48049 0.36711
 H35 H -0.17287 0.45342 0.51193
 H36 H -0.02914 0.51013 0.64093
 C37 C 0.39341 0.51978 0.50012
 C38 C 0.40954 0.51180 0.57969
 C39 C 0.44446 0.49652 0.57921
 C40 C 0.46765 0.49484 0.50253
 C41 C 0.45344 0.50758 0.42498
 C42 C 0.41543 0.51815 0.42316
 C43 C 0.50710 0.48118 0.50352
 C44 C 0.52125 0.46731 0.42701
 C45 C 0.56008 0.45783 0.42693
 C46 C 0.58268 0.45803 0.50454
 C47 C 0.56696 0.46780 0.58210
 C48 C 0.53113 0.48151 0.58091
 H49 H 0.36744 0.53247 0.49730
 H50 H 0.45181 0.48430 0.63941
 H51 H 0.47174 0.51004 0.36481
 H52 H 0.50267 0.46358 0.36636
 H53 H 0.61046 0.44759 0.50481
 H54 H 0.52295 0.49250 0.64150
 O55 O 0.39632 0.61885 -0.07289
 O56 O 0.41612 0.71636 -0.10321
 C57 C 0.40156 0.74703 -0.12065
 O58 O 0.36669 0.74576 -0.07671
 O59 O 0.27075 0.65478 -0.10755
 C60 C 0.23731 0.60230 -0.12259
 O61 O 0.23185 0.56423 -0.07439
 O62 O 0.30905 0.55578 -0.09913
 C63 C 0.35744 0.57820 -0.11645
 O64 O 0.39848 0.63829 0.09707
 O65 O 0.42200 0.73755 0.06900
 C66 C 0.39404 0.74823 0.11118
 O67 O 0.34606 0.72704 0.09242
 O68 O 0.24765 0.63989 0.06256
 C69 C 0.23342 0.59781 0.11011
 O70 O 0.24870 0.56734 0.09680
 O71 O 0.32177 0.55299 0.07333
 C72 C 0.36481 0.58644 0.11565
 Cr73 Cr 0.40559 0.67667 -0.00257
 Cr74 Cr 0.30851 0.69009 -0.00719
 Cr75 Cr 0.27972 0.56293 -0.00095
 O76 O 0.33139 0.64322 -0.00308
 O77 O 0.59405 0.36724 -0.07142
 O78 O 0.58678 0.27601 -0.09869
 C79 C 0.60869 0.25272 -0.11780
 O80 O 0.64799 0.26158 -0.07605
 O81 O 0.74059 0.35958 -0.09686
 C82 C 0.76802 0.41223 -0.11178
 O83 O 0.76418 0.44589 -0.06775
 O84 O 0.67944 0.44075 -0.09151
 C85 C 0.63046 0.41189 -0.11158
 O86 O 0.59270 0.34989 0.09938
 O87 O 0.58225 0.25729 0.07358
 C88 C 0.61332 0.25051 0.11430
 O89 O 0.66195 0.27583 0.09518
 O90 O 0.75622 0.37130 0.07460
 C91 C 0.76540 0.41171 0.12102
 O92 O 0.74643 0.43839 0.10450
 O93 O 0.66501 0.43889 0.08070
 C94 C 0.62230 0.40160 0.12051
 Cr95 Cr 0.59193 0.31422 0.00062
 Cr96 Cr 0.70039 0.31860 -0.00077
 Cr97 Cr 0.71211 0.43787 0.00628
 O98 O 0.66807 0.35686 0.00192
 C99 C 0.44749 0.86828 -0.27355
 C100 C 0.46473 0.85402 -0.34552
 C101 C 0.46435 0.80606 -0.33874
 C102 C 0.44571 0.77272 -0.26449
 C103 C 0.42593 0.78555 -0.19543
 C104 C 0.42766 0.83403 -0.20022
 H105 H 0.44556 0.90365 -0.27539
 H106 H 0.47908 0.79432 -0.39025
 H107 H 0.44522 0.73574 -0.26227
 H108 H 0.41284 0.84503 -0.14767
 C109 C 0.11921 0.52460 -0.27549
 C110 C 0.14210 0.55741 -0.35102
 C111 C 0.19658 0.60458 -0.34870
 C112 C 0.22674 0.61870 -0.27426
 C113 C 0.20403 0.58559 -0.20012
 C114 C 0.15022 0.53801 -0.20131
 H115 H 0.07801 0.48727 -0.27418
 H116 H 0.21584 0.63273 -0.40323
 H117 H 0.26822 0.65570 -0.27479
 H118 H 0.13200 0.51185 -0.14452
 C119 C 0.34543 0.51564 -0.33492
 C120 C 0.39404 0.52271 -0.34193
 C121 C 0.42876 0.54491 -0.27011
 C122 C 0.41668 0.56230 -0.19653
 C123 C 0.36894 0.55645 -0.19138
 C124 C 0.33291 0.53175 -0.26046
 H125 H 0.31632 0.49683 -0.38636
 H126 H 0.46720 0.55272 -0.27224
 H127 H 0.44513 0.58114 -0.14405
 H128 H 0.29558 0.52645 -0.25806
 C129 C 0.58476 0.14301 -0.27798
 C130 C 0.55386 0.14526 -0.34091
 C131 C 0.53871 0.18083 -0.32773
 C132 C 0.55518 0.21447 -0.25396
 C133 C 0.58780 0.21382 -0.19247
 C134 C 0.60182 0.17716 -0.20480
 H135 H 0.59755 0.11646 -0.28708
 H136 H 0.51481 0.18322 -0.37521
 H137 H 0.54370 0.24228 -0.24639
 H138 H 0.62668 0.17547 -0.15849
 C139 C 0.86501 0.42929 -0.27638
 C140 C 0.86949 0.46908 -0.33275
 C141 C 0.84342 0.49321 -0.31283
 C142 C 0.81245 0.47687 -0.23824
 C143 C 0.80592 0.43499 -0.18412
 C144 C 0.83297 0.41187 -0.20327
 H145 H 0.88433 0.40973 -0.29114
 H146 H 0.84618 0.52371 -0.35591
 H147 H 0.79158 0.49492 -0.22500
 H148 H 0.82857 0.37958 -0.16235
 C149 C 0.54670 0.42404 -0.27194
 C150 C 0.58459 0.45893 -0.33533
 C151 C 0.63820 0.48101 -0.32215
 C152 C 0.65342 0.46735 -0.24787
 C153 C 0.61513 0.43060 -0.18596
 C154 C 0.56173 0.40968 -0.19828
 H155 H 0.50499 0.40595 -0.28108
 H156 H 0.66814 0.50809 -0.37004
 H157 H 0.69487 0.48402 -0.24037
 H158 H 0.53138 0.38144 -0.15166
 C159 C 0.86543 0.42849 0.28102
 C160 C 0.85973 0.45485 0.35115
 C161 C 0.82327 0.46781 0.34241
 C162 C 0.79393 0.45510 0.26696
 C163 C 0.79916 0.42801 0.19839
 C164 C 0.83508 0.41470 0.20620
 H165 H 0.89125 0.41567 0.28474
 H166 H 0.81849 0.48976 0.39259
 H167 H 0.76638 0.46575 0.26291
 H168 H 0.83961 0.39338 0.15450
 C169 C 0.59065 0.14253 0.27544
 C170 C 0.56407 0.14862 0.34240
 C171 C 0.55102 0.18639 0.32960
 C172 C 0.56435 0.21706 0.25314
 C173 C 0.59260 0.21226 0.18885
 C174 C 0.60558 0.17480 0.20043
 H175 H 0.60316 0.11565 0.28257
 H176 H 0.52924 0.19139 0.37774
 H177 H 0.55439 0.24620 0.24558
 H178 H 0.62803 0.17112 0.15177
 C179 C 0.62984 0.47733 0.32239
 C180 C 0.57578 0.44550 0.34590
 C181 C 0.53698 0.40087 0.29295
 C182 C 0.55212 0.38720 0.21886
 C183 C 0.60624 0.41871 0.19547
 C184 C 0.64493 0.46445 0.24723
 H185 H 0.66034 0.51203 0.36244
 H186 H 0.49512 0.37564 0.31025
 H187 H 0.52151 0.35173 0.18003
 H188 H 0.68692 0.48904 0.23105
 C189 C 0.14468 0.60016 0.27354
 C190 C 0.13725 0.56061 0.33386
 C191 C 0.15863 0.53125 0.31755
 C192 C 0.18839 0.54233 0.24365
 C193 C 0.19788 0.58345 0.18440
 C194 C 0.17512 0.61179 0.19944
 H195 H 0.12858 0.62335 0.28528
 H196 H 0.15298 0.50025 0.36305
 H197 H 0.20518 0.51961 0.23426
 H198 H 0.18161 0.64359 0.15488
 C199 C 0.47492 0.82290 0.31224
 C200 C 0.45424 0.85184 0.33773
 C201 C 0.41609 0.84901 0.28574
 C202 C 0.39774 0.81651 0.21090
 C203 C 0.41774 0.78683 0.18576
 C204 C 0.45721 0.79108 0.23628
 H205 H 0.50452 0.82469 0.35143
 H206 H 0.39929 0.87061 0.30443
 H207 H 0.36728 0.81398 0.17315
 H208 H 0.47288 0.76818 0.21873
 C209 C 0.34841 0.50490 0.31679
 C210 C 0.40193 0.53234 0.34116
 C211 C 0.44279 0.57519 0.28841
 C212 C 0.43046 0.59159 0.21402
 C213 C 0.37700 0.56486 0.19004
 C214 C 0.33601 0.52063 0.24123
 H215 H 0.31629 0.47164 0.35662
 H216 H 0.48430 0.59726 0.30625
 H217 H 0.46285 0.62579 0.17567
 H218 H 0.29451 0.49973 0.22453
   
