data_POSCAR
  _audit_creation_date              2014-09-24
  _audit_creation_method            'ToBaCCo'
  _symmetry_space_group_name_H-M    'P1'
  _symmetry_Int_Tables_number       1
  _symmetry_cell_setting            triclinic
  loop_
  _symmetry_equiv_pos_as_xyz
 x,y,z
_cell_length_a 26.6269
_cell_length_b 27.5147
_cell_length_c 50.6876
_cell_angle_alpha 87.088200
_cell_angle_beta 95.592700
_cell_angle_gamma 117.550800
loop_
  _atom_site_label
  _atom_site_type_symbol
  _atom_site_fract_x
  _atom_site_fract_y
  _atom_site_fract_z
C1 C 0.09229 0.11229 0.53655
 H2 H 0.13272 0.11496 0.53296
 C3 C 0.09067 0.14848 0.55425
 H4 H 0.13035 0.17968 0.56334
 C5 C -0.00800 0.06866 0.52884
 H6 H -0.04637 0.03698 0.51913
 C7 C -0.01166 0.10391 0.54669
 H8 H -0.05309 0.09886 0.55052
 N9 N 0.04360 0.07377 0.52397
 C10 C 0.11106 -0.03665 0.50849
 H11 H 0.12195 -0.02564 0.48829
 C12 C 0.11901 -0.07921 0.52123
 H13 H 0.13673 -0.10028 0.51077
 C14 C 0.06821 -0.02721 0.54548
 H15 H 0.04590 -0.00869 0.55433
 C16 C 0.07557 -0.06917 0.55891
 H17 H 0.06027 -0.08148 0.57839
 Zn18 Zn 0.05220 0.02716 0.50039
 N19 N 0.08418 -0.01308 0.52043
 C20 C 0.15790 0.10010 0.48202
 N21 N 0.10147 0.07124 0.47450
 C22 C 0.08018 0.07686 0.44966
 C23 C 0.11545 0.11490 0.43187
 C24 C 0.19459 0.13885 0.46495
 C25 C -0.05546 -0.00958 0.46936
 C26 C -0.10408 -0.04865 0.45505
 C27 C -0.07804 -0.11828 0.47157
 C28 C -0.03064 -0.07813 0.48553
 N29 N -0.01904 -0.02465 0.48371
 H30 H 0.17439 0.09394 0.50153
 H31 H 0.03557 0.05305 0.44372
 H32 H 0.09743 0.11925 0.41235
 H33 H 0.23876 0.16314 0.47195
 H34 H -0.04627 0.03308 0.46856
 H35 H -0.13182 -0.03410 0.44456
 H36 H -0.08093 -0.15872 0.47254
 H37 H -0.00195 -0.09013 0.49703
 C38 C 0.09879 -0.09746 0.54629
 C39 C 0.03826 0.14472 0.55961
 C40 C -0.11618 -0.10469 0.45528
 C41 C 0.17327 0.14754 0.43966
 C42 C 1.09395 0.05136 0.14130
 H43 H 1.09595 0.09033 0.14567
 C44 C 1.12796 0.04871 0.12278
 H45 H 1.15528 0.08585 0.11259
 C46 C 1.05526 -0.04426 0.14938
 H47 H 1.02762 -0.08010 0.16022
 C48 C 1.08907 -0.04872 0.13115
 H49 H 1.08717 -0.08825 0.12820
 N50 N 1.05843 0.00533 0.15407
 C51 C 0.93730 0.05351 0.18045
 H52 H 0.94455 0.05137 0.20175
 C53 C 0.89184 0.06209 0.16944
 H54 H 0.86549 0.06828 0.18250
 C55 C 0.96067 0.04439 0.13768
 H56 H 0.98560 0.03463 0.12536
 C57 C 0.91540 0.05225 0.12587
 H58 H 0.90670 0.04879 0.10455
 Zn59 Zn 1.01826 0.01537 0.18019
 N60 N 0.96999 0.04395 0.16453
 C61 C 1.07819 0.11171 0.21240
 N62 N 1.07383 0.06259 0.20571
 C63 C 1.11301 0.04629 0.21552
 C64 C 1.15940 0.08013 0.23248
 C65 C 1.12372 0.14671 0.22965
 C66 C 0.92560 -0.08797 0.17957
 C67 C 0.88132 -0.13378 0.19012
 C68 C 0.92916 -0.10586 0.23384
 C69 C 0.97253 -0.06032 0.22243
 N70 N 0.96942 -0.05185 0.19578
 H71 H 1.04714 0.12433 0.20401
 H72 H 1.10898 0.00741 0.20947
 H73 H 1.19102 0.06690 0.23912
 H74 H 1.12625 0.18549 0.23486
 H75 H 0.92379 -0.07969 0.15849
 H76 H 0.84605 -0.16132 0.17695
 H77 H 0.93095 -0.11076 0.25519
 H78 H 1.00702 -0.03038 0.23501
 C79 C 0.87915 0.05961 0.14181
 C80 C 1.12638 -0.00170 0.11768
 C81 C 0.88203 -0.14244 0.21766
 C82 C 1.16560 0.13139 0.23969
 C83 C -0.03040 0.91180 0.86459
 H84 H -0.07137 0.87580 0.86441
 C85 C 0.01573 0.91265 0.88053
 H86 H 0.00950 0.87764 0.89310
 C87 C 0.02767 1.00003 0.84741
 H88 H 0.03251 1.03301 0.83371
 C89 C 0.07511 1.00256 0.86303
 H90 H 0.11610 1.03788 0.86130
 N91 N -0.02358 0.95470 0.84820
 C92 C -0.19341 0.93464 0.82357
 H93 H -0.19325 0.93306 0.80229
 C94 C -0.23669 0.94049 0.83425
 H95 H -0.27064 0.94072 0.82075
 C96 C -0.14816 0.93698 0.86636
 H97 H -0.11219 0.93833 0.87875
 C98 C -0.19107 0.94190 0.87797
 H99 H -0.18621 0.94722 0.89921
 Zn100 Zn -0.08533 0.94289 0.82298
 N101 N -0.14955 0.93445 0.83958
 C102 C -0.15104 0.83717 0.79800
 N103 N -0.09900 0.88024 0.80387
 C104 C -0.05092 0.88030 0.79705
 C105 C -0.05359 0.83568 0.78416
 C106 C -0.15585 0.79189 0.78440
 C107 C -0.05845 1.05157 0.80930
 C108 C -0.05534 1.09418 0.79224
 C109 C -0.07031 1.03616 0.75500
 C110 C -0.07274 0.99479 0.77277
 N111 N -0.06779 1.00286 0.79935
 H112 H -0.18871 0.83794 0.80376
 H113 H -0.01005 0.91492 0.80215
 H114 H -0.01415 0.83635 0.78009
 H115 H -0.19767 0.75852 0.77938
 H116 H -0.05602 1.05638 0.83051
 H117 H -0.05015 1.13191 0.80049
 H118 H -0.07574 1.02863 0.73390
 H119 H -0.08123 0.95543 0.76526
 C120 C -0.23544 0.94597 0.86189
 C121 C 0.06970 0.95786 0.87940
 C122 C -0.06268 1.08622 0.76470
 C123 C -0.10653 0.79063 0.77735
 C124 C 0.45003 0.04362 -0.01318
 C125 C 0.46443 0.05970 0.01367
 C126 C 0.51634 0.06586 0.02610
 C127 C 0.55262 0.05299 0.01297
 C128 C 0.53515 0.03082 -0.01295
 C129 C 0.48468 0.02791 -0.02596
 H130 H 0.47195 0.01297 -0.04612
 H131 H 0.52835 0.08025 0.04638
 C132 C -0.02304 0.44371 0.64436
 C133 C -0.01993 0.44440 0.67250
 C134 C -0.01939 0.48900 0.68514
 C135 C -0.01999 0.53342 0.67062
 C136 C -0.02102 0.53353 0.64271
 C137 C -0.02278 0.48883 0.62994
 H138 H -0.02394 0.48925 0.60849
 H139 H -0.01781 0.48948 0.70660
 C140 C 0.60506 0.54567 0.33192
 C141 C 0.60413 0.54133 0.35984
 C142 C 0.56040 0.49554 0.37098
 C143 C 0.51620 0.45520 0.35515
 C144 C 0.51399 0.46185 0.32721
 C145 C 0.55904 0.50683 0.31600
 H146 H 0.55920 0.51054 0.29461
 H147 H 0.56030 0.49136 0.39238
 C148 C -0.00266 0.20516 0.57283
 C149 C -0.00089 0.24604 0.58896
 C150 C 0.04078 0.26656 0.61061
 C151 C 0.07846 0.24430 0.61639
 C152 C 0.07617 0.20339 0.60038
 C153 C 0.03653 0.18420 0.57808
 C154 C 0.04466 0.30949 0.62588
 C155 C 0.00703 0.33185 0.61992
 C156 C -0.03599 0.30991 0.59887
 C157 C -0.03947 0.26740 0.58345
 C158 C -0.07455 0.33123 0.59341
 C159 C -0.07038 0.37413 0.60851
 C160 C -0.02720 0.39703 0.62915
 C161 C 0.01185 0.37600 0.63457
 H162 H -0.03322 0.19119 0.55566
 H163 H 0.11015 0.25896 0.63312
 H164 H 0.10592 0.18707 0.60539
 H165 H 0.07718 0.32574 0.64224
 H166 H -0.07186 0.25131 0.56703
 H167 H -0.10797 0.31472 0.57747
 H168 H -0.10101 0.38961 0.60407
 H169 H 0.04592 0.39404 0.65012
 C170 C 0.83898 0.78118 0.25070
 C171 C 0.79145 0.74047 0.26239
 C172 C 0.73621 0.73182 0.25289
 C173 C 0.72941 0.76350 0.23168
 C174 C 0.77683 0.80366 0.22008
 C175 C 0.83202 0.81310 0.22950
 C176 C 0.68867 0.69181 0.26478
 C177 C 0.69555 0.65995 0.28593
 C178 C 0.75074 0.66808 0.29520
 C179 C 0.79831 0.70838 0.28345
 C180 C 0.75745 0.63559 0.31604
 C181 C 0.71003 0.59562 0.32770
 C182 C 0.65508 0.58799 0.31908
 C183 C 0.64810 0.62003 0.29798
 H184 H 0.88132 0.78785 0.25798
 H185 H 0.68744 0.75749 0.22416
 H186 H 0.77035 0.82826 0.20405
 H187 H 0.64638 0.68548 0.25756
 H188 H 0.84060 0.71474 0.29068
 H189 H 0.79933 0.64090 0.32325
 H190 H 0.71625 0.57045 0.34350
 H191 H 0.60582 0.61420 0.29115
 C192 C 0.16396 0.00389 -0.09368
 C193 C 0.21240 0.00274 -0.08057
 C194 C 0.21751 -0.04626 -0.07992
 C195 C 0.17407 -0.09325 -0.09231
 C196 C 0.12608 -0.09178 -0.10528
 C197 C 0.12042 -0.04333 -0.10613
 C198 C 0.26592 -0.04754 -0.06696
 C199 C 0.30930 -0.00047 -0.05452
 C200 C 0.30409 0.04849 -0.05508
 C201 C 0.25578 0.04981 -0.06813
 C202 C 0.34727 0.09538 -0.04246
 C203 C 0.39490 0.09369 -0.02921
 C204 C 0.40026 0.04518 -0.02834
 C205 C 0.35761 -0.00168 -0.04131
 H206 H 0.15992 0.04135 -0.09399
 H207 H 0.17733 -0.13109 -0.09210
 H208 H 0.09374 -0.12847 -0.11512
 H209 H 0.26975 -0.08515 -0.06650
 H210 H 0.25192 0.08741 -0.06855
 H211 H 0.34406 0.13325 -0.04271
 H212 H 0.42766 0.13030 -0.01947
 H213 H 0.36153 -0.03925 -0.04055
 C214 C 0.04540 0.81260 0.56887
 C215 C 0.04056 0.76281 0.57951
 C216 C 0.08646 0.75045 0.57923
 C217 C 0.13631 0.78823 0.56808
 C218 C 0.14073 0.83788 0.55743
 C219 C 0.09551 0.85068 0.55793
 C220 C 0.08180 0.70080 0.59023
 C221 C 0.03204 0.66375 0.60171
 C222 C -0.01393 0.67618 0.60179
 C223 C -0.00949 0.72541 0.59053
 C224 C -0.06323 0.63966 0.61366
 C225 C -0.06636 0.59204 0.62610
 C226 C -0.02055 0.58000 0.62659
 C227 C 0.02802 0.61520 0.61382
 H228 H 0.00968 0.82141 0.56876
 H229 H 0.17191 0.77944 0.56765
 H230 H 0.17967 0.86654 0.54906
 H231 H 0.11710 0.69138 0.59020
 H232 H -0.04465 0.73501 0.59072
 H233 H -0.09877 0.64860 0.61389
 H234 H -0.10391 0.56521 0.63599
 H235 H 0.06357 0.60600 0.61449
 C236 C 0.24213 0.22616 0.25214
 C237 C 0.29209 0.26144 0.26713
 C238 C 0.31767 0.23951 0.28670
 C239 C 0.29188 0.18290 0.29149
 C240 C 0.24176 0.14816 0.27676
 C241 C 0.21669 0.16913 0.25663
 C242 C 0.36848 0.27446 0.30118
 C243 C 0.39326 0.33129 0.29686
 C244 C 0.36677 0.35339 0.27786
 C245 C 0.31686 0.31830 0.26284
 C246 C 0.39029 0.41034 0.27444
 C247 C 0.43859 0.44515 0.29024
 C248 C 0.46513 0.42373 0.30931
 C249 C 0.44339 0.36652 0.31172
 H250 H 0.22396 0.24313 0.23655
 H251 H 0.31047 0.16544 0.30665
 H252 H 0.22264 0.10469 0.28117
 H253 H 0.38826 0.25753 0.31606
 H254 H 0.29694 0.33528 0.24806
 H255 H 0.37051 0.42802 0.26002
 H256 H 0.45461 0.48905 0.28795
 H257 H 0.46453 0.34940 0.32567
 C258 C 0.71164 -0.05497 -0.10044
 C259 C 0.67662 -0.03796 -0.08883
 C260 C 0.65469 -0.00618 -0.10370
 C261 C 0.66620 0.00611 -0.13024
 C262 C 0.70050 -0.01141 -0.14180
 C263 C 0.72514 -0.04115 -0.12700
 C264 C 0.62212 0.01329 -0.09175
 C265 C 0.61046 0.00064 -0.06516
 C266 C 0.63050 -0.03304 -0.05058
 C267 C 0.66366 -0.05188 -0.06244
 C268 C 0.61719 -0.04718 -0.02431
 C269 C 0.58523 -0.02738 -0.01241
 C270 C 0.56727 0.00822 -0.02626
 C271 C 0.57934 0.02136 -0.05285
 H272 H 0.72731 -0.07993 -0.08875
 H273 H 0.64956 0.03030 -0.14198
 H274 H 0.71026 0.00170 -0.16195
 H275 H 0.60614 0.03849 -0.10309
 H276 H 0.67977 -0.07694 -0.05108
 H277 H 0.63144 -0.07362 -0.01296
 H278 H 0.57476 -0.03967 0.00778
 H279 H 0.56526 0.04835 -0.06380
 C280 C 0.22037 0.03801 0.09791
 C281 C 0.25696 0.03534 0.08058
 C282 C 0.23794 -0.01099 0.06421
 C283 C 0.18236 -0.05342 0.06520
 C284 C 0.14605 -0.05026 0.08240
 C285 C 0.16464 -0.00471 0.09902
 C286 C 0.27488 -0.01437 0.04731
 C287 C 0.33061 0.02801 0.04660
 C288 C 0.34937 0.07477 0.06265
 C289 C 0.31242 0.07813 0.07955
 C290 C 0.40510 0.11708 0.06179
 C291 C 0.44223 0.11273 0.04549
 C292 C 0.42418 0.06615 0.02974
 C293 C 0.36820 0.02395 0.03038
 H294 H 0.23578 0.07298 0.11090
 H295 H 0.16698 -0.08908 0.05268
 H296 H 0.10315 -0.08334 0.08251
 H297 H 0.26044 -0.05012 0.03491
 H298 H 0.32696 0.11378 0.09203
 H299 H 0.42013 0.15326 0.07391
 H300 H 0.48520 0.14565 0.04524
 H301 H 0.35437 -0.01260 0.01866
 C302 C 0.82039 0.79940 0.44451
 C303 C 0.77967 0.75959 0.42718
 C304 C 0.75381 0.77539 0.40519
 C305 C 0.76901 0.83095 0.40109
 C306 C 0.81094 0.87078 0.41801
 C307 C 0.83910 0.85633 0.43988
 C308 C 0.71360 0.73542 0.38760
 C309 C 0.69978 0.67990 0.39163
 C310 C 0.72608 0.66427 0.41366
 C311 C 0.76529 0.70408 0.43142
 C312 C 0.71301 0.60904 0.41754
 C313 C 0.67404 0.56943 0.39981
 C314 C 0.64724 0.58425 0.37795
 C315 C 0.66017 0.63966 0.37401
 H316 H 0.83585 0.78455 0.46195
 H317 H 0.74958 0.84390 0.38427
 H318 H 0.82272 0.91282 0.41247
 H319 H 0.69362 0.74755 0.37068
 H320 H 0.78536 0.69192 0.44831
 H321 H 0.73301 0.59648 0.43427
 H322 H 0.66483 0.52702 0.40311
 H323 H 0.63906 0.65126 0.35738
 C324 C -0.02828 0.18426 0.75025
 C325 C -0.03383 0.22445 0.73382
 C326 C -0.07817 0.20874 0.71325
 C327 C -0.11539 0.15300 0.70912
 C328 C -0.10941 0.11326 0.72547
 C329 C -0.06624 0.12847 0.74634
 C330 C -0.08483 0.24895 0.69731
 C331 C -0.04739 0.30468 0.70153
 C332 C -0.00229 0.32021 0.72173
 C333 C 0.00403 0.28007 0.73780
 C334 C 0.03581 0.37575 0.72558
 C335 C 0.02958 0.41561 0.70952
 C336 C -0.01512 0.40084 0.68946
 C337 C -0.05410 0.34520 0.68582
 H338 H 0.00550 0.19635 0.76611
 H339 H -0.14955 0.14017 0.69344
 H340 H -0.13959 0.07057 0.72226
 H341 H -0.11911 0.23689 0.68167
 H342 H 0.03830 0.29214 0.75344
 H343 H 0.07069 0.38837 0.74090
 H344 H 0.06016 0.45825 0.71258
 H345 H -0.08916 0.33354 0.67064
 C346 C 0.82276 0.08136 0.10451
 C347 C 0.77050 0.07419 0.09183
 C348 C 0.72017 0.04474 0.10482
 C349 C 0.72305 0.02378 0.13037
 C350 C 0.77500 0.03031 0.14265
 C351 C 0.82535 0.05851 0.12979
 C352 C 0.66762 0.03570 0.09190
 C353 C 0.66461 0.05528 0.06603
 C354 C 0.71494 0.08527 0.05308
 C355 C 0.76761 0.09478 0.06612
 C356 C 0.71161 0.10484 0.02721
 C357 C 0.65892 0.09449 0.01422
 C358 C 0.60865 0.06401 0.02678
 C359 C 0.61190 0.04486 0.05279
 H360 H 0.86123 0.10382 0.09446
 H361 H 0.68487 0.00104 0.14059
 H362 H 0.77524 0.01130 0.16186
 H363 H 0.62901 0.01276 0.10183
 H364 H 0.80617 0.11740 0.05612
 H365 H 0.74973 0.12809 0.01702
 H366 H 0.65732 0.11035 -0.00567
 H367 H 0.57323 0.02122 0.06257
 C368 C 0.26808 0.20484 0.42171
 C369 C 0.30482 0.25021 0.40729
 C370 C 0.28376 0.28289 0.39253
 C371 C 0.22602 0.26908 0.39221
 C372 C 0.18988 0.22435 0.40701
 C373 C 0.21062 0.19215 0.42218
 C374 C 0.32095 0.32938 0.37881
 C375 C 0.37910 0.34406 0.38007
 C376 C 0.39988 0.31094 0.39472
 C377 C 0.36258 0.26407 0.40801
 C378 C 0.45791 0.32562 0.39618
 C379 C 0.49521 0.37281 0.38338
 C380 C 0.47516 0.40590 0.36874
 C381 C 0.41703 0.39159 0.36720
 H382 H 0.28452 0.17987 0.43288
 H383 H 0.20907 0.29364 0.38104
 H384 H 0.14603 0.21610 0.40723
 H385 H 0.30486 0.35461 0.36758
 H386 H 0.37873 0.23900 0.41935
 H387 H 0.47450 0.30074 0.40732
 H388 H 0.53994 0.38338 0.38467
 H389 H 0.40162 0.41734 0.35601
 C390 C -0.06792 0.75057 0.74609
 C391 C -0.06665 0.70580 0.73478
 C392 C -0.10892 0.65206 0.73976
 C393 C -0.15138 0.64420 0.75631
 C394 C -0.15123 0.68904 0.76824
 C395 C -0.10928 0.74280 0.76345
 C396 C -0.10766 0.60721 0.72835
 C397 C -0.06387 0.61553 0.71250
 C398 C -0.02089 0.66938 0.70808
 C399 C -0.02296 0.71412 0.71897
 C400 C 0.02362 0.67766 0.69285
 C401 C 0.02502 0.63316 0.68159
 C402 C -0.01862 0.57977 0.68491
 C403 C -0.06244 0.57100 0.70082
 H404 H -0.03614 0.79157 0.74143
 H405 H -0.18400 0.60327 0.76048
 H406 H -0.18321 0.68133 0.78175
 H407 H -0.14039 0.56595 0.73195
 H408 H 0.00983 0.75539 0.71539
 H409 H 0.05720 0.71858 0.68953
 H410 H 0.05970 0.64045 0.66983
 H411 H -0.09600 0.52975 0.70352
   
