data_POSCAR
  _audit_creation_date              2014-09-24
  _audit_creation_method            'ToBaCCo'
  _symmetry_space_group_name_H-M    'P1'
  _symmetry_Int_Tables_number       1
  _symmetry_cell_setting            triclinic
  loop_
  _symmetry_equiv_pos_as_xyz
 x,y,z
_cell_length_a 12.5656
_cell_length_b 25.6168
_cell_length_c 23.8083
_cell_angle_alpha 90.147300
_cell_angle_beta 89.075200
_cell_angle_gamma 89.428100
loop_
  _atom_site_label
  _atom_site_type_symbol
  _atom_site_fract_x
  _atom_site_fract_y
  _atom_site_fract_z
B1 B -0.05157 -0.04404 0.02832
 B2 B 0.07887 -0.03592 0.03714
 B3 B 0.03204 -0.04932 -0.02645
 B4 B -0.08628 -0.01880 -0.03389
 B5 B -0.11136 0.01462 0.02737
 B6 B -0.00827 0.00310 0.07166
 B7 B 0.07056 0.05301 -0.02052
 B8 B -0.05987 0.04508 -0.02923
 B9 B -0.01325 0.05843 0.03466
 B10 B 0.10510 0.02786 0.04183
 B11 B 0.13032 -0.00564 -0.01935
 B12 B 0.02719 0.00560 -0.06370
 B13 B 0.56852 0.47519 0.54980
 B14 B 0.44119 0.46036 0.53829
 B15 B 0.47270 0.51879 0.56604
 B16 B 0.58794 0.53856 0.53580
 B17 B 0.62716 0.49168 0.48853
 B18 B 0.53607 0.44298 0.49104
 B19 B 0.43554 0.53068 0.45604
 B20 B 0.56284 0.54556 0.46745
 B21 B 0.53128 0.48716 0.43983
 B22 B 0.41611 0.46742 0.47008
 B23 B 0.37694 0.51429 0.51730
 B24 B 0.46804 0.56298 0.51469
 B25 B 0.56595 0.05050 0.52223
 B26 B 0.43505 0.04315 0.53200
 B27 B 0.48395 0.05608 0.46777
 B28 B 0.60212 0.02502 0.45955
 B29 B 0.62441 -0.00848 0.52053
 B30 B 0.52013 0.00342 0.56571
 B31 B 0.44338 -0.04623 0.47396
 B32 B 0.57438 -0.03868 0.46429
 B33 B 0.52521 -0.05182 0.52819
 B34 B 0.40709 -0.02070 0.53670
 B35 B 0.38497 0.01274 0.47571
 B36 B 0.48928 0.00069 0.43059
 B37 B -0.06726 0.52297 0.05363
 B38 B 0.05505 0.54268 0.03489
 B39 B 0.03595 0.48173 0.05988
 B40 B -0.08111 0.45998 0.03576
 B41 B -0.13456 0.50787 -0.00475
 B42 B -0.05015 0.55940 -0.00458
 B43 B 0.05442 0.47703 -0.05277
 B44 B -0.06798 0.45721 -0.03409
 B45 B -0.04913 0.51801 -0.05913
 B46 B 0.06791 0.54003 -0.03506
 B47 B 0.12149 0.49210 0.00558
 B48 B 0.03710 0.44058 0.00529
 B49 B 0.06808 0.45021 0.47510
 B50 B -0.06357 0.45642 0.46891
 B51 B -0.01122 0.44477 0.53197
 B52 B 0.10467 0.47711 0.53624
 B53 B 0.12228 0.50976 0.47406
 B54 B 0.01729 0.49624 0.43200
 B55 B -0.06018 0.54646 0.52471
 B56 B 0.07165 0.54060 0.53102
 B57 B 0.01953 0.55229 0.46796
 B58 B -0.09635 0.51985 0.46354
 B59 B -0.11386 0.48709 0.52567
 B60 B -0.00905 0.50073 0.56775
 B61 B 0.47163 -0.03572 -0.05350
 B62 B 0.59984 -0.03887 -0.03543
 B63 B 0.55105 0.01546 -0.06568
 B64 B 0.42541 0.02549 -0.04177
 B65 B 0.39625 -0.02334 0.00457
 B66 B 0.50537 -0.06365 0.00778
 B67 B 0.56350 0.03158 0.04534
 B68 B 0.43484 0.03593 0.02778
 B69 B 0.48309 -0.01907 0.05825
 B70 B 0.60875 -0.02925 0.03391
 B71 B 0.63716 0.01949 -0.01254
 B72 B 0.52949 0.05984 -0.01546
 B73 B 0.43053 0.54839 -0.02221
 B74 B 0.56228 0.54191 -0.03051
 B75 B 0.51015 0.55458 0.03317
 B76 B 0.39385 0.52261 0.04000
 B77 B 0.37624 0.48906 -0.02149
 B78 B 0.48128 0.50182 -0.06544
 B79 B 0.55801 0.45250 0.02647
 B80 B 0.42629 0.45898 0.03495
 B81 B 0.47852 0.44645 -0.02876
 B82 B 0.59469 0.47838 -0.03558
 B83 B 0.61235 0.51185 0.02594
 B84 B 0.50729 0.49905 0.06995
 B85 B 0.06039 0.02710 0.44403
 B86 B -0.06412 0.04291 0.46456
 B87 B -0.03514 -0.01777 0.43993
 B88 B 0.08726 -0.03477 0.46221
 B89 B 0.13355 0.01578 0.50124
 B90 B 0.03998 0.06394 0.50201
 B91 B -0.04547 -0.02110 0.55294
 B92 B 0.07967 -0.03636 0.53251
 B93 B 0.05008 0.02373 0.55687
 B94 B -0.07205 0.04090 0.53473
 B95 B -0.11891 -0.00963 0.49569
 B96 B -0.02426 -0.05807 0.49502
 B97 B 0.72290 0.19754 0.28897
 B98 B 0.78891 0.20640 0.22819
 B99 B 0.65567 0.20290 0.22979
 B100 B 0.60802 0.23215 0.28818
 B101 B 0.71505 0.25454 0.32352
 B102 B 0.82812 0.23786 0.28615
 B103 B 0.70940 0.30354 0.22153
 B104 B 0.64336 0.29524 0.28257
 B105 B 0.77652 0.29823 0.28142
 B106 B 0.82416 0.26901 0.22274
 B107 B 0.71645 0.24634 0.18746
 B108 B 0.60374 0.26328 0.22477
 B109 B 0.75603 0.80354 0.77694
 B110 B 0.68869 0.79139 0.71839
 B111 B 0.82229 0.79341 0.71678
 B112 B 0.86911 0.76765 0.77651
 B113 B 0.76125 0.74887 0.81553
 B114 B 0.64884 0.76423 0.77928
 B115 B 0.76397 0.69325 0.71715
 B116 B 0.83078 0.70476 0.77636
 B117 B 0.69770 0.70310 0.77784
 B118 B 0.65077 0.72903 0.71814
 B119 B 0.75895 0.74827 0.67938
 B120 B 0.87091 0.73217 0.71573
 B121 B 0.28934 0.20772 0.72291
 B122 B 0.15619 0.21126 0.72227
 B123 B 0.21925 0.20176 0.78299
 B124 B 0.33305 0.23585 0.78220
 B125 B 0.33945 0.26799 0.71942
 B126 B 0.22866 0.25233 0.68217
 B127 B 0.16304 0.30298 0.77720
 B128 B 0.29664 0.29873 0.77819
 B129 B 0.23309 0.30879 0.71771
 B130 B 0.11932 0.27456 0.71830
 B131 B 0.11287 0.24237 0.78091
 B132 B 0.22284 0.25862 0.81830
 B133 B 0.26538 0.69539 0.21303
 B134 B 0.20179 0.70567 0.27452
 B135 B 0.33466 0.69879 0.27172
 B136 B 0.38249 0.72678 0.21298
 B137 B 0.27595 0.75208 0.17871
 B138 B 0.16314 0.73839 0.21706
 B139 B 0.28885 0.80092 0.28063
 B140 B 0.35216 0.79078 0.21884
 B141 B 0.21925 0.79736 0.22146
 B142 B 0.17148 0.76934 0.28056
 B143 B 0.27855 0.74387 0.31479
 B144 B 0.39130 0.75778 0.27636
 B145 B 0.31021 0.79878 0.78031
 B146 B 0.17805 0.79188 0.78008
 B147 B 0.24418 0.80548 0.72067
 B148 B 0.36271 0.77380 0.72043
 B149 B 0.36838 0.73927 0.78172
 B150 B 0.25304 0.75177 0.81897
 B151 B 0.20139 0.70306 0.72185
 B152 B 0.33372 0.70938 0.72196
 B153 B 0.26719 0.69654 0.78208
 B154 B 0.14916 0.72834 0.78163
 B155 B 0.14366 0.76234 0.72005
 B156 B 0.25893 0.75037 0.68281
 B157 B 0.20968 0.29707 0.27804
 B158 B 0.14965 0.28813 0.21645
 B159 B 0.28263 0.29085 0.21887
 B160 B 0.32393 0.26239 0.27842
 B161 B 0.21242 0.24022 0.31285
 B162 B 0.10416 0.25708 0.27410
 B163 B 0.22893 0.19004 0.21175
 B164 B 0.28893 0.19980 0.27345
 B165 B 0.15558 0.19622 0.27046
 B166 B 0.11420 0.22497 0.21117
 B167 B 0.22493 0.24672 0.17669
 B168 B 0.33404 0.23032 0.21540
 B169 B 0.84002 0.69836 0.22315
 B170 B 0.70669 0.70390 0.22226
 B171 B 0.77007 0.69362 0.28288
 B172 B 0.88529 0.72671 0.28190
 B173 B 0.89285 0.75856 0.21912
 B174 B 0.78200 0.74328 0.18176
 B175 B 0.71780 0.79497 0.27692
 B176 B 0.85086 0.79037 0.27772
 B177 B 0.78800 0.80018 0.21704
 B178 B 0.67289 0.76708 0.21788
 B179 B 0.66540 0.73533 0.28086
 B180 B 0.77685 0.75018 0.31797
 B181 B 0.72434 0.19871 0.71715
 B182 B 0.65609 0.20691 0.77768
 B183 B 0.78927 0.20284 0.77802
 B184 B 0.83878 0.23227 0.72016
 B185 B 0.73235 0.25632 0.68401
 B186 B 0.61831 0.23988 0.71994
 B187 B 0.73453 0.30385 0.78649
 B188 B 0.80325 0.29523 0.72620
 B189 B 0.66981 0.29984 0.72648
 B190 B 0.62003 0.27022 0.78388
 B191 B 0.72576 0.24665 0.81996
 B192 B 0.84012 0.26278 0.78413
 C193 C 0.11910 0.45339 0.89598
 C194 C 0.07253 0.43196 0.85174
 C195 C 0.13365 0.39607 0.81594
 C196 C 0.09493 0.34902 0.80419
 H197 H -0.01241 0.43475 0.84622
 H198 H 0.21436 0.40635 0.80547
 H199 H 0.20419 0.44842 0.90111
 H200 H 0.01437 0.33986 0.81755
 C201 C 0.36723 0.56157 0.41327
 C202 C 0.40810 0.58077 0.36591
 C203 C 0.36000 0.62796 0.34343
 C204 C 0.39096 0.64850 0.29484
 H205 H 0.48318 0.56660 0.34851
 H206 H 0.30047 0.64774 0.36919
 H207 H 0.29159 0.57662 0.42922
 H208 H 0.45165 0.62926 0.26939
 C209 C 0.89892 0.95564 0.60694
 C210 C 0.91395 0.90587 0.62073
 C211 C 0.85773 0.88097 0.66750
 C212 C 0.89060 0.83370 0.68298
 H213 H 0.96622 0.88136 0.59515
 H214 H 0.78594 0.89874 0.68468
 H215 H 0.84537 0.98027 0.63166
 H216 H 0.96429 0.81826 0.66495
 C217 C 0.62006 0.06719 0.08818
 C218 C 0.57377 0.08840 0.13320
 C219 C 0.62344 0.13463 0.15639
 C220 C 0.59588 0.15444 0.20596
 H221 H 0.49818 0.07488 0.14955
 H222 H 0.68445 0.15337 0.13114
 H223 H 0.69788 0.08101 0.07479
 H224 H 0.53585 0.13574 0.23154
 C225 C 0.87163 0.09005 0.43821
 C226 C 0.80405 0.08904 0.39568
 C227 C 0.76889 0.13931 0.37198
 C228 C 0.73155 0.14304 0.32004
 H229 H 0.78314 0.05288 0.37557
 H230 H 0.78538 0.17470 0.39525
 H231 H 0.89043 0.12786 0.45599
 H232 H 0.71775 0.10788 0.29596
 C233 C 0.38755 0.41247 0.56768
 C234 C 0.31257 0.41421 0.60766
 C235 C 0.28243 0.36474 0.63394
 C236 C 0.24091 0.36258 0.68563
 H237 H 0.27956 0.45084 0.62284
 H238 H 0.30546 0.32887 0.61246
 H239 H 0.41931 0.37466 0.55473
 H240 H 0.22052 0.39840 0.70754
 C241 C 0.68273 0.92132 0.93746
 C242 C 0.69573 0.91488 0.88229
 C243 C 0.74683 0.86752 0.85941
 C244 C 0.74694 0.85949 0.80412
 H245 H 0.65445 0.94016 0.85348
 H246 H 0.76992 0.83655 0.88781
 H247 H 0.72108 0.89415 0.96570
 H248 H 0.72334 0.89120 0.77695
 C249 C 0.10969 0.59108 0.06312
 C250 C 0.18185 0.58997 0.10348
 C251 C 0.21150 0.63966 0.12972
 C252 C 0.25381 0.64174 0.18066
 H253 H 0.21184 0.55350 0.11978
 H254 H 0.18899 0.67562 0.10888
 H255 H 0.08059 0.62883 0.04912
 H256 H 0.27350 0.60591 0.20241
 C257 C 0.44816 0.95827 0.11867
 C258 C 0.47698 0.91011 0.13586
 C259 C 0.41720 0.88175 0.18051
 C260 C 0.43048 0.82990 0.18637
 H261 H 0.53715 0.88844 0.11213
 H262 H 0.35409 0.90203 0.20315
 H263 H 0.38754 0.97850 0.14273
 H264 H 0.49235 0.81094 0.16129
 C265 C 0.56464 0.46591 0.37892
 C266 C 0.52715 0.42044 0.35933
 C267 C 0.58810 0.38846 0.31802
 C268 C 0.56718 0.33743 0.31235
 H269 H 0.45964 0.40239 0.38018
 H270 H 0.65763 0.40516 0.29819
 H271 H 0.63400 0.48246 0.35873
 H272 H 0.49848 0.32179 0.33439
 C273 C 0.90609 0.54028 0.88319
 C274 C 0.94517 0.58362 0.85906
 C275 C 0.88454 0.61340 0.81689
 C276 C 0.90502 0.66413 0.80845
 H277 H 1.01677 0.60108 0.87514
 H278 H 0.81640 0.59542 0.79808
 H279 H 0.83179 0.52512 0.86833
 H280 H 0.97096 0.68109 0.83048
 C281 C 0.09475 0.04750 0.61368
 C282 C 0.05017 0.08949 0.63902
 C283 C 0.10685 0.11949 0.68223
 C284 C 0.08355 0.17020 0.69054
 H285 H -0.02383 0.10559 0.62354
 H286 H 0.17477 0.10162 0.70197
 H287 H 0.17162 0.03353 0.62746
 H288 H 0.01770 0.18692 0.66776
 C289 C 0.12787 0.40109 0.44951
 C290 C 0.16615 0.40097 0.39680
 C291 C 0.19112 0.35166 0.36796
 C292 C 0.20133 0.35007 0.31197
 H293 H 0.16741 0.43674 0.37256
 H294 H 0.19174 0.31604 0.39239
 H295 H 0.12497 0.36502 0.47312
 H296 H 0.19984 0.38619 0.28876
 C297 C 0.37042 0.59674 0.95181
 C298 C 0.32723 0.59486 0.90072
 C299 C 0.30330 0.64333 0.87061
 C300 C 0.27774 0.64358 0.81608
 H301 H 0.32094 0.55804 0.87851
 H302 H 0.31532 0.67971 0.89282
 H303 H 0.37765 0.63388 0.97321
 H304 H 0.26488 0.60702 0.79461
 C305 C 0.62332 0.09964 0.54721
 C306 C 0.67065 0.09826 0.59714
 C307 C 0.69281 0.14691 0.62719
 C308 C 0.71939 0.14666 0.68143
 H309 H 0.68167 0.06146 0.61882
 H310 H 0.67778 0.18348 0.60582
 H311 H 0.61099 0.13669 0.52634
 H312 H 0.73419 0.10990 0.70223
 C313 C 0.89188 0.90605 0.05216
 C314 C 0.84533 0.90545 0.10289
 C315 C 0.82133 0.85556 0.12990
 C316 C 0.79596 0.85351 0.18449
 H317 H 0.83573 0.94123 0.12698
 H318 H 0.83361 0.81995 0.10588
 H319 H 0.90258 0.86993 0.02888
 H320 H 0.78403 0.88940 0.20784
 C321 C 0.87223 0.08674 0.93841
 C322 C 0.89209 0.09916 0.88478
 C323 C 0.83304 0.14172 0.85849
 C324 C 0.85072 0.15540 0.80499
 H325 H 0.95403 0.07916 0.86066
 H326 H 0.77383 0.16235 0.88390
 H327 H 0.80997 0.10712 0.96195
 H328 H 0.90973 0.13469 0.77955
 C329 C 0.13690 0.58375 0.56171
 C330 C 0.11409 0.59795 0.61454
 C331 C 0.16834 0.64162 0.64046
 C332 C 0.14573 0.65559 0.69336
 H333 H 0.05245 0.57837 0.63860
 H334 H 0.22709 0.66263 0.61578
 H335 H 0.19861 0.60359 0.53794
 H336 H 0.08685 0.63442 0.71779
 C337 C 0.64252 0.91905 0.43203
 C338 C 0.61780 0.90276 0.38069
 C339 C 0.67199 0.85737 0.35640
 C340 C 0.65537 0.84255 0.30356
 H341 H 0.55494 0.92154 0.35728
 H342 H 0.72840 0.83638 0.38216
 H343 H 0.70672 0.90032 0.45454
 H344 H 0.59943 0.86375 0.27775
 C345 C 0.36021 0.41584 0.06594
 C346 C 0.38530 0.39847 0.11689
 C347 C 0.33168 0.35298 0.14018
 C348 C 0.34673 0.33770 0.19304
 H349 H 0.44737 0.41673 0.14088
 H350 H 0.27596 0.33267 0.11379
 H351 H 0.29687 0.39758 0.04282
 H352 H 0.40158 0.35835 0.21960
 C353 C 0.53272 0.60900 0.06311
 C354 C 0.55341 0.61289 0.11811
 C355 C 0.60212 0.66005 0.14228
 C356 C 0.63288 0.66053 0.19597
 H357 H 0.54356 0.57919 0.14505
 H358 H 0.62063 0.69263 0.11499
 H359 H 0.54390 0.64271 0.03637
 H360 H 0.61438 0.62750 0.22251
 C361 C 0.05838 0.89629 0.94497
 C362 C 0.04693 0.88716 0.89012
 C363 C 0.09553 0.84022 0.86453
 C364 C 0.10243 0.83438 0.80878
 H365 H 0.01073 0.91634 0.86339
 H366 H 0.13528 0.81264 0.89176
 H367 H 0.09564 0.86680 0.97083
 H368 H 0.06272 0.86217 0.78181
 C369 C 0.45756 0.10976 0.43726
 C370 C 0.44184 0.11246 0.38169
 C371 C 0.39174 0.15842 0.35546
 C372 C 0.36019 0.15626 0.30195
 H373 H 0.45745 0.07858 0.35538
 H374 H 0.37378 0.19254 0.38104
 H375 H 0.44043 0.14355 0.46342
 H376 H 0.37753 0.12152 0.27736
 C377 C 0.96902 0.39091 0.56408
 C378 C 0.95495 0.38764 0.62017
 C379 C 0.91396 0.33966 0.64720
 C380 C 0.87585 0.34041 0.70040
 H381 H 0.96444 0.42201 0.64614
 H382 H 0.90377 0.30518 0.62145
 H383 H 0.95715 0.35655 0.53842
 H384 H 0.88451 0.37541 0.72545
 C385 C 0.87011 0.54728 0.10533
 C386 C 0.91919 0.56690 0.14987
 C387 C 0.86285 0.60418 0.18615
 C388 C 0.90463 0.65106 0.19607
 H389 H 1.00364 0.56160 0.15539
 H390 H 0.78272 0.59482 0.19867
 H391 H 0.78576 0.55476 0.10018
 H392 H 0.98453 0.65916 0.18085
 C393 C 0.63727 0.44412 0.59239
 C394 C 0.59538 0.42164 0.63776
 C395 C 0.64585 0.37415 0.65831
 C396 C 0.61045 0.34946 0.70369
 H397 H 0.51846 0.43366 0.65474
 H398 H 0.71085 0.35771 0.63364
 H399 H 0.71485 0.43126 0.57701
 H400 H 0.54338 0.36510 0.72745
 C401 C 0.11911 0.05097 0.39168
 C402 C 0.06859 0.06986 0.34729
 C403 C 0.12638 0.10382 0.30886
 C404 C 0.08700 0.15088 0.29675
 H405 H -0.01631 0.06618 0.34307
 H406 H 0.20700 0.09288 0.29816
 H407 H 0.20411 0.05694 0.39528
 H408 H 0.00689 0.16097 0.31078
 C409 C 0.42926 0.92812 0.89781
 C410 C 0.45526 0.87712 0.89707
 C411 C 0.42021 0.83780 0.85699
 C412 C 0.36014 0.84651 0.81214
 H413 H 0.50453 0.86103 0.92974
 H414 H 0.44275 0.79817 0.86777
 H415 H 0.37858 0.94518 0.86638
 H416 H 0.33672 0.88562 0.80034
 C417 C 0.15354 0.92100 0.56069
 C418 C 0.17009 0.91652 0.61567
 C419 C 0.21774 0.86816 0.63799
 C420 C 0.22679 0.86113 0.69322
 H421 H 0.13767 0.94529 0.64473
 H422 H 0.23510 0.83613 0.60931
 H423 H 0.18500 0.89085 0.53279
 H424 H 0.20895 0.89348 0.72133
 C425 C 0.61571 0.59316 0.43699
 C426 C 0.68895 0.59084 0.39607
 C427 C 0.71634 0.63964 0.36754
 C428 C 0.76050 0.64053 0.31630
 H429 H 0.72263 0.55409 0.38178
 H430 H 0.69055 0.67593 0.38727
 H431 H 0.58368 0.63107 0.44932
 H432 H 0.78439 0.60430 0.29621
 C433 C 0.36058 0.08133 0.05267
 C434 C 0.30737 0.08166 0.10159
 C435 C 0.27022 0.13184 0.12583
 C436 C 0.24149 0.13565 0.17998
 H437 H 0.29931 0.04677 0.12611
 H438 H 0.27770 0.16686 0.10068
 H439 H 0.36404 0.11771 0.02948
 H440 H 0.23692 0.10037 0.20460
 C441 C 0.87808 0.40862 0.93781
 C442 C 0.80468 0.40935 0.89812
 C443 C 0.77706 0.35959 0.87155
 C444 C 0.74013 0.35740 0.81946
 H445 H 0.77253 0.44554 0.88235
 H446 H 0.79835 0.32373 0.89295
 H447 H 0.90916 0.37102 0.95112
 H448 H 0.72235 0.39317 0.79715
 C449 C 0.59004 0.03846 0.87533
 C450 C 0.54458 0.08099 0.85244
 C451 C 0.60357 0.11361 0.81156
 C452 C 0.58040 0.16466 0.80650
 H453 H 0.47014 0.09618 0.86974
 H454 H 0.67378 0.09720 0.79134
 H455 H 0.66818 0.02649 0.86012
 H456 H 0.51173 0.18017 0.82923
 C457 C 0.43903 0.53999 0.62709
 C458 C 0.46646 0.58820 0.64400
 C459 C 0.40373 0.61804 0.68656
 C460 C 0.41295 0.67022 0.68951
 H461 H 0.52657 0.60933 0.62039
 H462 H 0.34200 0.59828 0.70996
 H463 H 0.37749 0.51962 0.65009
 H464 H 0.47201 0.68877 0.66288
 C465 C 0.07936 0.45784 0.11719
 C466 C 0.03919 0.41365 0.13928
 C467 C 0.09902 0.38138 0.17955
 C468 C 0.07669 0.33046 0.18581
 H469 H -0.03279 0.39722 0.12248
 H470 H 0.16788 0.39811 0.19881
 H471 H 0.15385 0.47221 0.13278
 H472 H 0.00883 0.31493 0.16406
 C473 C 0.92173 0.95729 0.38290
 C474 C 0.96089 0.91220 0.36123
 C475 C 0.90407 0.88231 0.31764
 C476 C 0.92473 0.83112 0.30980
 H477 H 1.03012 0.89404 0.37982
 H478 H 0.83804 0.90090 0.29696
 H479 H 0.84991 0.97350 0.36550
 H480 H 0.98914 0.81375 0.33316
 C481 C 0.87669 0.59413 0.55054
 C482 C 0.82527 0.59086 0.60006
 C483 C 0.78978 0.63847 0.62872
 C484 C 0.77084 0.63959 0.68427
 H485 H 0.81960 0.55397 0.62210
 H486 H 0.79166 0.67421 0.60456
 H487 H 0.88422 0.63145 0.52962
 H488 H 0.77030 0.60355 0.70773
 C489 C 0.61817 0.40373 0.05127
 C490 C 0.66209 0.40499 0.10203
 C491 C 0.68597 0.35623 0.13149
 C492 C 0.70348 0.35595 0.18678
 H493 H 0.66810 0.44157 0.12474
 H494 H 0.67908 0.31990 0.10849
 H495 H 0.61053 0.36685 0.02940
 H496 H 0.70984 0.39261 0.20895
 C497 C 0.38627 0.90431 0.44921
 C498 C 0.34428 0.90425 0.39793
 C499 C 0.32081 0.85485 0.36948
 C500 C 0.29939 0.85371 0.31460
 H501 H 0.33796 0.94028 0.37435
 H502 H 0.32926 0.81883 0.39283
 H503 H 0.39372 0.86800 0.47211
 H504 H 0.29131 0.89003 0.29197
 C505 C 0.12856 0.10180 0.95383
 C506 C 0.17297 0.10023 0.90240
 C507 C 0.19838 0.14860 0.87287
 C508 C 0.21223 0.14908 0.81700
 H509 H 0.17944 0.06371 0.87943
 H510 H 0.19580 0.18468 0.89672
 H511 H 0.12028 0.13863 0.97601
 H512 H 0.21321 0.11268 0.79395
 C513 C 0.14749 0.92244 0.06867
 C514 C 0.12315 0.90653 0.12051
 C515 C 0.17945 0.86200 0.14426
 C516 C 0.15994 0.84612 0.19665
 H517 H 0.05877 0.92470 0.14455
 H518 H 0.23785 0.84172 0.11798
 H519 H 0.21268 0.90405 0.04543
 H520 H 0.10154 0.86639 0.22289
 C521 C 0.86898 0.41379 0.43927
 C522 C 0.88445 0.40115 0.38542
 C523 C 0.82446 0.35876 0.36085
 C524 C 0.83873 0.34505 0.30719
 H525 H 0.94306 0.42111 0.35965
 H526 H 0.76762 0.33844 0.38742
 H527 H 0.80990 0.39354 0.46450
 H528 H 0.89544 0.36547 0.28067
 C529 C 0.36794 0.08591 0.56468
 C530 C 0.39258 0.10180 0.61637
 C531 C 0.33755 0.14671 0.64178
 C532 C 0.35309 0.16070 0.69517
 H533 H 0.45554 0.08278 0.63949
 H534 H 0.28094 0.16790 0.61636
 H535 H 0.30398 0.10499 0.54234
 H536 H 0.40891 0.13917 0.72071
 C537 C 0.62782 0.58475 0.93778
 C538 C 0.60261 0.60012 0.88617
 C539 C 0.65519 0.64459 0.86043
 C540 C 0.63530 0.65803 0.80754
 H541 H 0.54090 0.58069 0.86298
 H542 H 0.71338 0.66555 0.88468
 H543 H 0.69054 0.60408 0.96035
 H544 H 0.57761 0.63671 0.78336
 C545 C 0.45719 0.39233 0.94075
 C546 C 0.44415 0.38857 0.88507
 C547 C 0.39754 0.34178 0.85936
 C548 C 0.36835 0.34226 0.80545
 H549 H 0.45862 0.42209 0.85846
 H550 H 0.37883 0.30863 0.88579
 H551 H 0.44114 0.35881 0.96709
 H552 H 0.38629 0.37598 0.77980
 C553 C 0.96011 0.11225 0.06549
 C554 C 0.94512 0.11568 0.12137
 C555 C 0.89778 0.16267 0.14797
 C556 C 0.86072 0.16125 0.20114
 H557 H 0.95925 0.08193 0.14766
 H558 H 0.88461 0.19703 0.12244
 H559 H 0.94399 0.14592 0.03943
 H560 H 0.87291 0.12635 0.22590
 C561 C 0.55071 0.89357 0.55626
 C562 C 0.55301 0.88661 0.61186
 C563 C 0.60235 0.83938 0.63571
 C564 C 0.61631 0.83517 0.69106
 H565 H 0.52727 0.91774 0.64002
 H566 H 0.63563 0.81009 0.60738
 H567 H 0.57725 0.86217 0.52869
 H568 H 0.58197 0.86458 0.71886
 C569 C 0.03959 0.60681 0.43692
 C570 C 0.05347 0.61148 0.38096
 C571 C 0.09522 0.66008 0.35513
 C572 C 0.12849 0.66093 0.30111
 H573 H 0.04300 0.57775 0.35414
 H574 H 0.10982 0.69339 0.38198
 H575 H 0.05202 0.64056 0.46342
 H576 H 0.11474 0.62704 0.27502
   
