data_POSCAR
  _audit_creation_date              2014-09-24
  _audit_creation_method            'ToBaCCo'
  _symmetry_space_group_name_H-M    'P1'
  _symmetry_Int_Tables_number       1
  _symmetry_cell_setting            triclinic
  loop_
  _symmetry_equiv_pos_as_xyz
 x,y,z
_cell_length_a 21.3029
_cell_length_b 21.2957
_cell_length_c 22.1609
_cell_angle_alpha 89.887000
_cell_angle_beta 90.103900
_cell_angle_gamma 89.834000
loop_
  _atom_site_label
  _atom_site_type_symbol
  _atom_site_fract_x
  _atom_site_fract_y
  _atom_site_fract_z
Si1 Si 1.25427 0.24440 0.25188
 Si2 Si 0.74152 -0.24535 0.24532
 Si3 Si 0.75379 0.25799 -0.24861
 Si4 Si 1.24241 -0.25093 -0.25168
 Si5 Si 0.24473 0.25419 0.74797
 Si6 Si 0.75494 0.74139 0.75497
 Si7 Si 0.74901 0.24287 0.25183
 Si8 Si 0.25756 0.75400 0.24881
 O9 O 1.10728 0.03329 0.07643
 O10 O 0.89207 -0.03242 0.07406
 O11 O 0.96897 0.10798 0.07494
 O12 O 1.03724 -0.10678 0.07752
 O13 O 0.88255 0.07282 0.04104
 O14 O 1.12274 -0.07112 0.04264
 O15 O 0.93066 -0.11908 0.04367
 O16 O 1.07411 0.11989 0.04163
 C17 C 1.10206 0.09044 0.08208
 C18 C 0.89829 -0.08948 0.08076
 C19 C 0.91187 0.10137 0.08104
 C20 C 1.09465 -0.10101 0.08259
 O21 O 1.10938 -0.03186 -0.07363
 O22 O 0.89445 0.03470 -0.07576
 O23 O 1.03436 0.10580 -0.07528
 O24 O 0.96930 -0.10995 -0.07227
 O25 O 0.88265 -0.07173 -0.04161
 O26 O 1.12117 0.07332 -0.04049
 O27 O 1.07480 -0.11842 -0.03947
 O28 O 0.92985 0.12051 -0.04125
 Co29 Co 1.10380 0.00098 0.00125
 Co30 Co 0.89921 0.00088 -0.00061
 Co31 Co 1.00198 0.10226 0.00003
 Co32 Co 1.00298 -0.10235 0.00238
 O33 O 1.00184 0.00030 0.00077
 C34 C 1.10257 -0.08890 -0.07982
 C35 C 0.89992 0.09210 -0.08087
 C36 C 1.09158 0.10113 -0.08099
 C37 C 0.91221 -0.10380 -0.07897
 O38 O 1.11728 0.57839 0.53113
 O39 O 0.88155 0.42977 0.53501
 O40 O 0.92431 0.62225 0.53033
 O41 O 1.07431 0.38524 0.53320
 O42 O 0.89381 0.53552 0.56673
 O43 O 1.11003 0.47211 0.56527
 O44 O 0.96877 0.39651 0.56881
 O45 O 1.03001 0.61284 0.56382
 C46 C 1.08717 0.60698 0.57060
 C47 C 0.91141 0.40126 0.57489
 C48 C 0.89807 0.59291 0.57177
 C49 C 1.10417 0.41487 0.57196
 O50 O 1.12005 0.43340 0.44896
 O51 O 0.87811 0.57253 0.44928
 O52 O 1.06913 0.62472 0.44744
 O53 O 0.92869 0.38166 0.45296
 O54 O 0.89244 0.46708 0.41760
 O55 O 1.10614 0.53875 0.41464
 O56 O 1.03408 0.39368 0.41796
 O57 O 0.96334 0.60786 0.41351
 Co58 Co 1.10216 0.50549 0.49006
 Co59 Co 0.89776 0.50152 0.49204
 Co60 Co 0.99691 0.60553 0.48884
 Co61 Co 1.00114 0.40068 0.49306
 O62 O 0.99960 0.50325 0.49092
 C63 C 1.09119 0.40090 0.41145
 C64 C 0.90603 0.60130 0.40851
 C65 C 1.10079 0.59610 0.40901
 C66 C 0.89834 0.40971 0.41323
 O67 O 0.62254 0.06750 0.55144
 O68 O 0.38048 -0.07365 0.54534
 O69 O 0.43124 0.11807 0.54911
 O70 O 0.57132 -0.12383 0.54989
 O71 O 0.39163 0.03208 0.58021
 O72 O 0.60612 -0.03827 0.58548
 O73 O 0.46585 -0.10945 0.58110
 O74 O 0.53635 0.10448 0.58377
 C75 C 0.59363 0.09921 0.58956
 C76 C 0.40857 -0.10339 0.58546
 C77 C 0.39881 0.08928 0.58675
 C78 C 0.60009 -0.09567 0.59058
 O79 O 0.62084 -0.07722 0.46888
 O80 O 0.38380 0.07176 0.46482
 O81 O 0.57667 0.11579 0.46757
 O82 O 0.42864 -0.12103 0.46347
 O83 O 0.39551 -0.03391 0.42931
 O84 O 0.61155 0.02861 0.43503
 O85 O 0.53445 -0.10829 0.43227
 O86 O 0.47071 0.10770 0.43305
 Co87 Co 0.60393 -0.00468 0.51008
 Co88 Co 0.39919 -0.00123 0.50513
 Co89 Co 0.50359 0.10022 0.50833
 Co90 Co 0.50030 -0.10432 0.50677
 O91 O 0.50171 -0.00239 0.50767
 C92 C 0.59175 -0.10355 0.42741
 C93 C 0.41356 0.10177 0.42629
 C94 C 0.60587 0.08587 0.42836
 C95 C 0.40039 -0.09133 0.42321
 O96 O 0.57273 0.55162 0.08787
 O97 O 0.38004 0.43226 0.05278
 O98 O 0.44414 0.62441 0.03686
 O99 O 0.57613 0.37152 0.02947
 O100 O 0.39604 0.54641 0.08160
 O101 O 0.57855 0.44615 0.08807
 O102 O 0.46473 0.37528 0.06188
 O103 O 0.55725 0.62708 0.02815
 C104 C 0.57537 0.60818 0.07857
 C105 C 0.40966 0.38803 0.07660
 C106 C 0.41231 0.60268 0.08106
 C107 C 0.59115 0.39125 0.07935
 O108 O 0.62278 0.44704 -0.03463
 O109 O 0.36937 0.57739 -0.02799
 O110 O 0.54971 0.57562 -0.08565
 O111 O 0.43128 0.38170 -0.05177
 O112 O 0.37364 0.46593 -0.06082
 O113 O 0.62495 0.55999 -0.02570
 O114 O 0.54520 0.39897 -0.07998
 O115 O 0.44436 0.58065 -0.08612
 Co116 Co 0.59137 0.50038 0.02626
 Co117 Co 0.39180 0.50450 0.01050
 Co118 Co 0.49804 0.59355 -0.02405
 Co119 Co 0.50326 0.39393 -0.00914
 O120 O 0.49558 0.49758 0.00090
 C121 C 0.60134 0.41549 -0.07905
 C122 C 0.38933 0.59254 -0.07774
 C123 C 0.60627 0.57817 -0.07620
 C124 C 0.38687 0.41095 -0.07571
 C125 C 1.17323 0.09810 0.18367
 C126 C 1.23100 0.13789 0.16602
 C127 C 1.20540 0.19249 0.20406
 C128 C 1.14798 0.15324 0.22237
 C129 C 1.16962 0.21877 0.14914
 C130 C 1.19516 0.16409 0.11078
 C131 C 1.13782 0.12484 0.12889
 C132 C 1.11189 0.17921 0.16688
 H133 H 1.17445 0.04832 0.19799
 H134 H 1.28005 0.12026 0.16629
 H135 H 1.12900 0.14907 0.26879
 H136 H 1.16795 0.26865 0.13472
 H137 H 1.21437 0.16843 0.06441
 H138 H 1.06251 0.19588 0.16683
 C139 C 1.16643 0.69481 0.60267
 C140 C 1.14038 0.73313 0.65621
 C141 C 1.19053 0.70331 0.69735
 C142 C 1.21663 0.66512 0.64415
 C143 C 1.14553 0.64960 0.71380
 C144 C 1.09486 0.67904 0.67200
 C145 C 1.12146 0.64112 0.61890
 C146 C 1.17136 0.61107 0.66002
 H147 H 1.17484 0.71334 0.55652
 H148 H 1.12747 0.78364 0.65510
 H149 H 1.26692 0.65908 0.63261
 H150 H 1.13761 0.63139 0.76012
 H151 H 1.04460 0.68428 0.68375
 H152 H 1.18369 0.56050 0.66121
 C153 C 0.60346 0.18209 0.68294
 C154 C 0.65474 0.15730 0.72679
 C155 C 0.69955 0.20905 0.70451
 C156 C 0.64879 0.23418 0.66121
 C157 C 0.72475 0.16502 0.65508
 C158 C 0.67978 0.11297 0.67693
 C159 C 0.62922 0.13828 0.63371
 C160 C 0.67391 0.18999 0.61150
 H161 H 0.55323 0.18890 0.69432
 H162 H 0.64689 0.14382 0.77455
 H163 H 0.63587 0.28431 0.65513
 H164 H 0.77477 0.15775 0.64312
 H165 H 0.69233 0.06276 0.68322
 H166 H 0.68172 0.20329 0.56363
 C167 C 0.59208 0.67565 0.18171
 C168 C 0.65282 0.64962 0.21117
 C169 C 0.68733 0.71049 0.19467
 C170 C 0.62706 0.73725 0.16564
 C171 C 0.70756 0.68260 0.13380
 C172 C 0.67295 0.62143 0.15006
 C173 C 0.61266 0.64804 0.12085
 C174 C 0.64711 0.70893 0.10425
 H175 H 0.54444 0.67240 0.20155
 H176 H 0.65583 0.62522 0.25540
 H177 H 0.60844 0.78542 0.17252
 H178 H 0.75526 0.68483 0.11396
 H179 H 0.69244 0.57345 0.14462
 H180 H 0.64446 0.73339 0.06003
 C181 C 0.81736 -0.17827 0.10503
 C182 C 0.84295 -0.21866 0.15746
 C183 C 0.79050 -0.19290 0.19814
 C184 C 0.76476 -0.15263 0.14602
 C185 C 0.83306 -0.13875 0.21880
 C186 C 0.88599 -0.16426 0.17756
 C187 C 0.85999 -0.12423 0.12550
 C188 C 0.80770 -0.09797 0.16603
 H189 H 0.81112 -0.19445 0.05783
 H190 H 0.85745 -0.26863 0.15416
 H191 H 0.71451 -0.14828 0.13334
 H192 H 0.83875 -0.12273 0.26611
 H193 H 0.93629 -0.16863 0.19011
 H194 H 0.79335 -0.04796 0.16909
 C195 C 0.83139 0.31277 0.60537
 C196 C 0.85668 0.27353 0.65890
 C197 C 0.80635 0.30301 0.69982
 C198 C 0.78092 0.34204 0.64660
 C199 C 0.85151 0.35632 0.71711
 C200 C 0.90237 0.32718 0.67562
 C201 C 0.87656 0.36608 0.62254
 C202 C 0.82631 0.39568 0.66337
 H203 H 0.82323 0.29485 0.55900
 H204 H 0.86947 0.22303 0.65727
 H205 H 0.73075 0.34842 0.63455
 H206 H 0.85929 0.37400 0.76360
 H207 H 0.95230 0.32061 0.68795
 H208 H 0.81350 0.44611 0.66465
 C209 C 0.39489 -0.17915 0.68387
 C210 C 0.34125 -0.15128 0.72287
 C211 C 0.29773 -0.20450 0.70177
 C212 C 0.35078 -0.23277 0.66340
 C213 C 0.27525 -0.16446 0.64813
 C214 C 0.31901 -0.11093 0.66870
 C215 C 0.37182 -0.13937 0.63036
 C216 C 0.32837 -0.19256 0.60940
 H217 H 0.44447 -0.18467 0.69837
 H218 H 0.34603 -0.13424 0.76992
 H219 H 0.36378 -0.28324 0.66180
 H220 H 0.22587 -0.15818 0.63330
 H221 H 0.30640 -0.06041 0.67057
 H222 H 0.32339 -0.20934 0.56223
 C223 C 0.31741 0.31361 0.10659
 C224 C 0.34079 0.25981 0.14765
 C225 C 0.30588 0.29008 0.20102
 C226 C 0.28252 0.34367 0.16028
 C227 C 0.36488 0.32775 0.21784
 C228 C 0.40016 0.29788 0.16382
 C229 C 0.37630 0.35122 0.12322
 C230 C 0.34175 0.38180 0.17656
 H231 H 0.29821 0.30772 0.06035
 H232 H 0.34092 0.20941 0.13532
 H233 H 0.23402 0.36280 0.15926
 H234 H 0.38393 0.33355 0.26412
 H235 H 0.44867 0.27902 0.16503
 H236 H 0.34278 0.43252 0.18803
 C237 C 0.82384 0.18546 -0.10634
 C238 C 0.85288 0.22507 -0.15751
 C239 C 0.80016 0.20338 -0.19995
 C240 C 0.77093 0.16382 -0.14906
 C241 C 0.83995 0.14675 -0.22020
 C242 C 0.89311 0.16825 -0.17722
 C243 C 0.86378 0.12894 -0.12647
 C244 C 0.81113 0.10674 -0.16872
 H245 H 0.81716 0.20123 -0.05905
 H246 H 0.87055 0.27382 -0.15327
 H247 H 0.72042 0.16225 -0.13712
 H248 H 0.84653 0.13108 -0.26748
 H249 H 0.94354 0.16961 -0.18885
 H250 H 0.79422 0.05771 -0.17311
 C251 C 0.89190 0.67483 0.30808
 C252 C 0.83712 0.64806 0.26969
 C253 C 0.79488 0.70271 0.29041
 C254 C 0.84920 0.72978 0.32818
 C255 C 0.77232 0.66403 0.34483
 C256 C 0.81478 0.60894 0.32471
 C257 C 0.86880 0.63643 0.36239
 C258 C 0.82660 0.69105 0.38280
 H259 H 0.94144 0.67906 0.29322
 H260 H 0.84068 0.63055 0.22268
 H261 H 0.86385 0.77970 0.32955
 H262 H 0.72293 0.65949 0.35999
 H263 H 0.80090 0.55879 0.32366
 H264 H 0.82247 0.70886 0.42970
 C265 C 0.32250 0.17895 0.39766
 C266 C 0.34563 0.22938 0.35296
 C267 C 0.30577 0.19874 0.30319
 C268 C 0.28252 0.14852 0.34754
 C269 C 0.36152 0.15689 0.28483
 C270 C 0.40182 0.18714 0.33524
 C271 C 0.37819 0.13699 0.37944
 C272 C 0.33854 0.10620 0.32978
 H273 H 0.30671 0.18806 0.44456
 H274 H 0.34850 0.28033 0.36278
 H275 H 0.23328 0.13239 0.35215
 H276 H 0.37706 0.14809 0.23782
 H277 H 0.45096 0.20323 0.33031
 H278 H 0.33638 0.05522 0.32051
 C279 C 0.31982 0.69110 -0.10718
 C280 C 0.34610 0.71912 -0.16623
 C281 C 0.28704 0.69678 -0.19988
 C282 C 0.26050 0.66888 -0.14112
 C283 C 0.31906 0.63401 -0.21508
 C284 C 0.37852 0.65608 -0.18105
 C285 C 0.35172 0.62848 -0.12237
 C286 C 0.29291 0.60566 -0.15575
 H287 H 0.32032 0.71433 -0.06237
 H288 H 0.36841 0.76589 -0.17068
 H289 H 0.21170 0.67350 -0.12442
 H290 H 0.31829 0.61096 -0.25995
 H291 H 0.42757 0.65059 -0.19708
 H292 H 0.27097 0.55885 -0.15058
 C293 C 1.17260 -0.18359 -0.11031
 C294 C 1.14209 -0.21828 -0.16381
 C295 C 1.19630 -0.19642 -0.20426
 C296 C 1.22680 -0.16167 -0.15103
 C297 C 1.15952 -0.13689 -0.22201
 C298 C 1.10480 -0.15844 -0.18082
 C299 C 1.13571 -0.12413 -0.12769
 C300 C 1.18969 -0.10172 -0.16805
 H301 H 1.17809 -0.20269 -0.06392
 H302 H 1.12213 -0.26634 -0.16269
 H303 H 1.27721 -0.16305 -0.13848
 H304 H 1.15466 -0.11836 -0.26864
 H305 H 1.05424 -0.15619 -0.19275
 H306 H 1.20908 -0.05346 -0.16942
 C307 C 1.16888 0.39027 0.31636
 C308 C 1.22401 0.34868 0.33839
 C309 C 1.20132 0.29552 0.29706
 C310 C 1.14647 0.33656 0.27442
 C311 C 1.15991 0.26903 0.34786
 C312 C 1.18256 0.32231 0.38947
 C313 C 1.12775 0.36343 0.36707
 C314 C 1.10464 0.31042 0.32583
 H315 H 1.17195 0.44055 0.30357
 H316 H 1.27327 0.36475 0.34314
 H317 H 1.13207 0.34207 0.22655
 H318 H 1.15623 0.21893 0.36112
 H319 H 1.19726 0.31640 0.43724
 H320 H 1.05531 0.29478 0.32079
 C321 C 0.66588 -0.19568 0.39306
 C322 C 0.63929 -0.22692 0.33563
 C323 C 0.69371 -0.19873 0.29905
 C324 C 0.72043 -0.16770 0.35612
 C325 C 0.65434 -0.13982 0.28504
 C326 C 0.59943 -0.16767 0.32217
 C327 C 0.62655 -0.13686 0.37910
 C328 C 0.68078 -0.10844 0.34269
 H329 H 0.67033 -0.21849 0.43797
 H330 H 0.62236 -0.27604 0.33232
 H331 H 0.77037 -0.16724 0.37030
 H332 H 0.65026 -0.11710 0.24008
 H333 H 0.54943 -0.16708 0.30820
 H334 H 0.69799 -0.05958 0.34657
 C335 C 0.61671 0.34945 -0.17889
 C336 C 0.67258 0.37254 -0.21737
 C337 C 0.70971 0.31349 -0.19861
 C338 C 0.65423 0.29050 -0.16039
 C339 C 0.73697 0.34865 -0.14379
 C340 C 0.69916 0.40824 -0.16182
 C341 C 0.64376 0.38451 -0.12385
 C342 C 0.68112 0.32560 -0.10535
 H343 H 0.56689 0.34988 -0.19373
 H344 H 0.66920 0.39141 -0.26398
 H345 H 0.63514 0.24209 -0.15970
 H346 H 0.78680 0.34839 -0.12923
 H347 H 0.71811 0.45669 -0.16176
 H348 H 0.68482 0.30634 -0.05887
 C349 C 1.16341 0.19587 -0.11056
 C350 C 1.21921 0.17099 -0.14781
 C351 C 1.19290 0.20513 -0.20373
 C352 C 1.13717 0.23007 -0.16678
 C353 C 1.15534 0.14635 -0.22140
 C354 C 1.18134 0.11193 -0.16495
 C355 C 1.12580 0.13718 -0.12806
 C356 C 1.09906 0.17094 -0.18385
 H357 H 1.16666 0.21608 -0.06451
 H358 H 1.26889 0.17076 -0.13273
 H359 H 1.11856 0.27877 -0.16814
 H360 H 1.15225 0.12632 -0.26749
 H361 H 1.19930 0.06300 -0.16384
 H362 H 1.04963 0.17045 -0.19918
 C363 C 1.19429 0.67351 0.38643
 C364 C 1.23524 0.64893 0.33389
 C365 C 1.21051 0.70271 0.29379
 C366 C 1.16974 0.72738 0.34603
 C367 C 1.15595 0.66111 0.27185
 C368 C 1.18028 0.60682 0.31257
 C369 C 1.13977 0.63203 0.36464
 C370 C 1.11492 0.68558 0.32454
 H371 H 1.21000 0.67860 0.43397
 H372 H 1.28488 0.63338 0.33742
 H373 H 1.16477 0.77687 0.36074
 H374 H 1.13981 0.65590 0.22452
 H375 H 1.18437 0.55694 0.29879
 H376 H 1.06510 0.70052 0.32076
 C377 C 0.69430 0.16544 0.39732
 C378 C 0.73284 0.13996 0.34364
 C379 C 0.70324 0.19058 0.30283
 C380 C 0.66487 0.21614 0.35617
 C381 C 0.64957 0.14574 0.28583
 C382 C 0.67878 0.09459 0.32726
 C383 C 0.64063 0.12061 0.38050
 C384 C 0.61087 0.17104 0.33970
 H385 H 0.71268 0.17338 0.44359
 H386 H 0.78334 0.12710 0.34488
 H387 H 0.65893 0.26637 0.36812
 H388 H 0.63148 0.13828 0.23939
 H389 H 0.68410 0.04448 0.31493
 H390 H 0.56036 0.18352 0.33842
 C391 C 0.71043 0.64454 -0.10445
 C392 C 0.73439 0.62485 -0.16768
 C393 C 0.71016 0.68760 -0.19385
 C394 C 0.68659 0.70745 -0.13112
 C395 C 0.64643 0.65747 -0.20829
 C396 C 0.66994 0.59430 -0.18171
 C397 C 0.64669 0.61454 -0.11901
 C398 C 0.62262 0.67727 -0.14535
 H399 H 0.73684 0.63901 -0.06154
 H400 H 0.78087 0.60349 -0.17737
 H401 H 0.69257 0.75415 -0.10987
 H402 H 0.62009 0.66333 -0.25120
 H403 H 0.66266 0.54761 -0.20265
 H404 H 0.57641 0.69962 -0.13693
 C405 C 0.83765 -0.11473 -0.17629
 C406 C 0.86258 -0.16768 -0.21788
 C407 C 0.80784 -0.20976 -0.19766
 C408 C 0.78268 -0.15728 -0.15664
 C409 C 0.84773 -0.23632 -0.14560
 C410 C 0.90296 -0.19388 -0.16517
 C411 C 0.87728 -0.14157 -0.12428
 C412 C 0.82265 -0.18372 -0.10429
 H413 H 0.83391 -0.06429 -0.18856
 H414 H 0.87867 -0.16175 -0.26515
 H415 H 0.73288 -0.14220 -0.15341
 H416 H 0.85142 -0.28674 -0.13322
 H417 H 0.95277 -0.20887 -0.16827
 H418 H 0.80625 -0.19019 -0.05718
 C419 C 0.82137 0.39553 0.31557
 C420 C 0.84881 0.34165 0.27659
 C421 C 0.79576 0.29823 0.29834
 C422 C 0.76792 0.35154 0.33671
 C423 C 0.83626 0.27599 0.35174
 C424 C 0.88963 0.31963 0.33050
 C425 C 0.86166 0.37274 0.36884
 C426 C 0.80863 0.32940 0.39048
 H427 H 0.81573 0.44503 0.30080
 H428 H 0.86546 0.34620 0.22939
 H429 H 0.71747 0.36449 0.33877
 H430 H 0.84250 0.22663 0.36672
 H431 H 0.94009 0.30692 0.32819
 H432 H 0.79227 0.32468 0.43781
 C433 C 0.32945 -0.10064 0.32003
 C434 C 0.35745 -0.15423 0.28093
 C435 C 0.30151 -0.19632 0.29787
 C436 C 0.27313 -0.14325 0.33632
 C437 C 0.33763 -0.22167 0.35306
 C438 C 0.39386 -0.17928 0.33669
 C439 C 0.36535 -0.12634 0.37514
 C440 C 0.30943 -0.16849 0.39184
 H441 H 0.32596 -0.05091 0.30583
 H442 H 0.37717 -0.14869 0.23491
 H443 H 0.22337 -0.12774 0.33609
 H444 H 0.34169 -0.27148 0.36724
 H445 H 0.44372 -0.19435 0.33721
 H446 H 0.28957 -0.17435 0.43779
 C447 C 0.29666 0.40036 -0.16309
 C448 C 0.32701 0.36593 -0.21740
 C449 C 0.29040 0.30610 -0.20094
 C450 C 0.25967 0.34019 -0.14727
 C451 C 0.34443 0.28343 -0.16038
 C452 C 0.38151 0.34347 -0.17631
 C453 C 0.35049 0.37719 -0.12267
 C454 C 0.31390 0.31748 -0.10641
 H455 H 0.27689 0.44852 -0.16401
 H456 H 0.33239 0.38538 -0.26358
 H457 H 0.20929 0.33927 -0.13490
 H458 H 0.36433 0.23521 -0.15974
 H459 H 0.43216 0.34542 -0.18789
 H460 H 0.30835 0.29781 -0.06030
 C461 C 1.11045 -0.19287 0.16728
 C462 C 1.17021 -0.22931 0.14828
 C463 C 1.20603 -0.20107 0.20219
 C464 C 1.14666 -0.16505 0.22181
 C465 C 1.22699 -0.14510 0.16331
 C466 C 1.19110 -0.17317 0.10910
 C467 C 1.13180 -0.13700 0.12850
 C468 C 1.16734 -0.10861 0.18231
 H469 H 1.06220 -0.21234 0.16883
 H470 H 1.17119 -0.27900 0.13344
 H471 H 1.12829 -0.16158 0.26850
 H472 H 1.27490 -0.12483 0.16191
 H473 H 1.20938 -0.17669 0.06233
 H474 H 1.16545 -0.05892 0.19667
 C475 C 1.17912 0.32195 0.60163
 C476 C 1.23066 0.34435 0.64549
 C477 C 1.19943 0.30623 0.69625
 C478 C 1.14808 0.28375 0.65273
 C479 C 1.15946 0.36360 0.71400
 C480 C 1.19029 0.40212 0.66261
 C481 C 1.13900 0.37924 0.61923
 C482 C 1.10764 0.34137 0.66990
 H483 H 1.18734 0.30500 0.55496
 H484 H 1.28155 0.34560 0.63516
 H485 H 1.13047 0.23492 0.64910
 H486 H 1.15156 0.38020 0.76083
 H487 H 1.20793 0.45086 0.66653
 H488 H 1.05680 0.34120 0.67992
 C489 C 0.60880 -0.18674 0.67483
 C490 C 0.66445 -0.22865 0.65507
 C491 C 0.70274 -0.20539 0.70950
 C492 C 0.64751 -0.16369 0.72985
 C493 C 0.72921 -0.15091 0.67149
 C494 C 0.69088 -0.17422 0.61686
 C495 C 0.63568 -0.13255 0.63690
 C496 C 0.67369 -0.10876 0.69123
 H497 H 0.55885 -0.20128 0.67589
 H498 H 0.66053 -0.27818 0.64012
 H499 H 0.62989 -0.16004 0.77681
 H500 H 0.77896 -0.13568 0.67029
 H501 H 0.70886 -0.17843 0.57003
 H502 H 0.67729 -0.05911 0.70592
 C503 C 0.69041 0.32203 0.10795
 C504 C 0.71849 0.34769 0.16723
 C505 C 0.69658 0.28805 0.20028
 C506 C 0.66866 0.26213 0.14128
 C507 C 0.63369 0.31960 0.21598
 C508 C 0.65532 0.37964 0.18256
 C509 C 0.62766 0.35346 0.12365
 C510 C 0.60532 0.29403 0.15643
 H511 H 0.71354 0.32322 0.06310
 H512 H 0.76518 0.37014 0.17171
 H513 H 0.67366 0.21353 0.12407
 H514 H 0.61074 0.31815 0.26088
 H515 H 0.64963 0.42846 0.19920
 H516 H 0.55866 0.27184 0.15118
 C517 C 0.84154 0.10485 0.18154
 C518 C 0.86291 0.15986 0.22246
 C519 C 0.80353 0.19663 0.20418
 C520 C 0.78188 0.14213 0.16395
 C521 C 0.83864 0.22669 0.15091
 C522 C 0.89845 0.18960 0.16850
 C523 C 0.87629 0.13528 0.12837
 C524 C 0.81696 0.17217 0.11042
 H525 H 0.84361 0.05438 0.19391
 H526 H 0.88119 0.15528 0.26919
 H527 H 0.73376 0.12234 0.16262
 H528 H 0.83722 0.27705 0.13806
 H529 H 0.94669 0.20898 0.17004
 H530 H 0.79816 0.17732 0.06390
 C531 C 0.83467 0.59992 0.67774
 C532 C 0.86171 0.65555 0.71445
 C533 C 0.80186 0.69368 0.70091
 C534 C 0.77449 0.63854 0.66473
 C535 C 0.83185 0.72078 0.64341
 C536 C 0.89201 0.68237 0.65640
 C537 C 0.86441 0.62740 0.62036
 C538 C 0.80465 0.66551 0.60688
 H539 H 0.83649 0.55012 0.69218
 H540 H 0.88492 0.65200 0.75921
 H541 H 0.72577 0.62065 0.66861
 H542 H 0.83125 0.77065 0.62897
 H543 H 0.94045 0.70065 0.65209
 H544 H 0.78130 0.66941 0.56219
 C545 C 0.30815 0.10381 0.67255
 C546 C 0.33508 0.14451 0.72445
 C547 C 0.29535 0.20060 0.70235
 C548 C 0.26808 0.16030 0.65106
 C549 C 0.34910 0.22247 0.66129
 C550 C 0.38936 0.16612 0.68279
 C551 C 0.36176 0.12611 0.63158
 C552 C 0.32193 0.18215 0.60973
 H553 H 0.29129 0.05481 0.67709
 H554 H 0.34018 0.12952 0.77221
 H555 H 0.21795 0.15793 0.63765
 H556 H 0.36636 0.27139 0.65706
 H557 H 0.43962 0.16786 0.69580
 H558 H 0.31637 0.19758 0.56213
 C559 C 0.32032 0.67981 0.10832
 C560 C 0.28762 0.65344 0.16502
 C561 C 0.30972 0.71089 0.20108
 C562 C 0.34247 0.73760 0.14459
 C563 C 0.37051 0.67628 0.21928
 C564 C 0.34839 0.61843 0.18286
 C565 C 0.38098 0.64496 0.12616
 C566 C 0.40375 0.70232 0.16202
 H567 H 0.29962 0.68156 0.06232
 H568 H 0.24009 0.63231 0.16598
 H569 H 0.34040 0.78682 0.12829
 H570 H 0.39095 0.67478 0.26537
 H571 H 0.35096 0.56909 0.19898
 H572 H 0.45145 0.72296 0.16022
   
