data_POSCAR
  _audit_creation_date              2014-09-24
  _audit_creation_method            'ToBaCCo'
  _symmetry_space_group_name_H-M    'P1'
  _symmetry_Int_Tables_number       1
  _symmetry_cell_setting            triclinic
  loop_
  _symmetry_equiv_pos_as_xyz
 x,y,z
_cell_length_a 38.2510
_cell_length_b 38.2396
_cell_length_c 38.3192
_cell_angle_alpha 90.145600
_cell_angle_beta 89.949800
_cell_angle_gamma 89.827400
loop_
  _atom_site_label
  _atom_site_type_symbol
  _atom_site_fract_x
  _atom_site_fract_y
  _atom_site_fract_z
C1 C 0.32787 0.37348 1.36949
 N2 N 0.34375 0.34446 1.38230
 C3 C 0.37253 0.33124 1.36625
 N4 N 0.38530 0.34691 1.33721
 C5 C 0.36945 0.37595 1.32436
 N6 N 0.34063 0.38916 1.34043
 C7 C 1.17709 0.63093 0.87676
 N8 N 1.16092 0.65972 0.88995
 C9 C 1.13166 0.67240 0.87437
 N10 N 1.11877 0.65646 0.84547
 C11 C 1.13492 0.62769 0.83228
 N12 N 1.16415 0.61500 0.84784
 C13 C 0.66926 -0.13419 0.12662
 N14 N 0.65599 -0.11809 0.15533
 C15 C 0.62707 -0.13104 0.17116
 N16 N 0.61154 -0.16029 0.15845
 C17 C 0.62481 -0.17640 0.12972
 N18 N 0.65374 -0.16342 0.11390
 C19 C -0.17534 1.13508 -0.37011
 N20 N -0.15902 1.16393 -0.38258
 C21 C -0.13009 1.17637 -0.36632
 N22 N -0.11763 1.16009 -0.33745
 C23 C -0.13395 1.13123 -0.32498
 N24 N -0.16287 1.11881 -0.34124
 C25 C 0.67183 0.63622 0.62389
 N26 N 0.65525 0.66508 0.61157
 C27 C 0.62601 0.67719 0.62777
 N28 N 0.61354 0.66058 0.65644
 C29 C 0.63013 0.63172 0.66876
 N30 N 0.65933 0.61965 0.65255
 C31 C 0.83053 0.36876 0.13049
 N32 N 0.84290 0.38524 0.15934
 C33 C 0.87160 0.37261 0.17594
 N34 N 0.88777 0.34333 0.16385
 C35 C 0.87540 0.32685 0.13500
 N36 N 0.84672 0.33951 0.11842
 C37 C 0.32242 0.12767 0.87373
 N38 N 0.33913 0.15631 0.88629
 C39 C 0.36797 0.16860 0.86977
 N40 N 0.37992 0.15241 0.84054
 C41 C 0.36324 0.12378 0.82795
 N42 N 0.33439 0.11149 0.84446
 C43 C 0.17085 0.87136 0.37490
 N44 N 0.15823 0.88755 0.34603
 C45 C 0.12929 0.87501 0.32988
 N46 N 0.11312 0.84610 0.34243
 C47 C 0.12572 0.82990 0.37129
 N48 N 0.15467 0.84245 0.38744
 Zn49 Zn -0.01128 0.95589 0.02239
 Zn50 Zn -0.04631 1.01938 -0.00568
 Zn51 Zn 0.02387 1.02557 0.02854
 Zn52 Zn 0.01668 0.99046 -0.04109
 O53 O -0.00420 0.99790 0.00111
 O54 O -0.05642 0.94708 0.03072
 O55 O -0.04896 1.06069 0.01594
 O56 O 0.03639 1.00441 0.06860
 O57 O -0.08250 0.99435 0.01015
 O58 O 0.00993 0.95329 0.06368
 O59 O 0.00279 1.06585 0.04111
 O60 O 0.05792 1.01170 -0.04430
 O61 O -0.05524 1.02813 -0.05067
 O62 O 0.06393 1.03770 0.00696
 O63 O -0.00858 1.00640 -0.07704
 O64 O 0.02545 0.94526 -0.04973
 O65 O 0.00502 0.91958 -0.00238
 C66 C -0.08397 0.96469 0.02488
 C67 C -0.02753 1.07782 0.03453
 C68 C 0.02904 0.97438 0.08067
 C69 C 0.07543 1.03050 -0.02337
 C70 C -0.03793 1.02190 -0.07828
 C71 C 0.02001 0.91789 -0.03190
 Zn72 Zn 0.47690 0.01118 0.45573
 Zn73 Zn 0.47071 -0.02416 0.52514
 Zn74 Zn 0.54051 -0.01684 0.49041
 Zn75 Zn 0.50478 0.04607 0.51928
 O76 O 0.49816 0.00400 0.49771
 O77 O 0.43560 -0.01007 0.45291
 O78 O 0.49241 -0.06423 0.53725
 O79 O 0.54927 -0.02549 0.44532
 O80 O 0.43066 -0.03667 0.50385
 O81 O 0.50186 -0.00498 0.41955
 O82 O 0.54383 -0.05813 0.51158
 O83 O 0.54981 0.05507 0.52809
 O84 O 0.45798 -0.00322 0.56534
 O85 O 0.57643 0.00849 0.50641
 O86 O 0.48309 0.04857 0.56046
 O87 O 0.48883 0.08231 0.49434
 O88 O 0.46844 0.05636 0.44701
 C89 C 0.41860 -0.02925 0.47386
 C90 C 0.52285 -0.07569 0.53021
 C91 C 0.53147 -0.01995 0.41795
 C92 C 0.57755 0.03785 0.52188
 C93 C 0.46448 0.02706 0.57742
 C94 C 0.47416 0.08386 0.46469
 Zn95 Zn 1.04442 0.52206 0.51137
 Zn96 Zn 0.98086 0.49416 0.54612
 Zn97 Zn 0.97485 0.52830 0.47603
 Zn98 Zn 1.00978 0.45845 0.48335
 O99 O 1.00240 0.50081 0.50415
 O100 O 1.05319 0.53049 0.55646
 O101 O 0.93959 0.51589 0.54859
 O102 O 0.99608 0.56838 0.46358
 O103 O 1.00585 0.51006 0.58233
 O104 O 1.04713 0.56340 0.49019
 O105 O 0.93458 0.54102 0.49690
 O106 O 0.98856 0.45518 0.44211
 O107 O 0.97207 0.44911 0.55505
 O108 O 0.96274 0.50662 0.43602
 O109 O 0.99379 0.42250 0.50857
 O110 O 1.05496 0.44970 0.47473
 O111 O 1.08068 0.49713 0.49522
 C112 C 1.03553 0.52475 0.58389
 C113 C 0.92254 0.53451 0.52712
 C114 C 1.02611 0.58043 0.47103
 C115 C 0.96984 0.47618 0.42457
 C116 C 0.97828 0.42138 0.53784
 C117 C 1.08234 0.46753 0.48026
 Zn118 Zn 0.48396 0.48800 0.95336
 Zn119 Zn 0.54747 0.51646 0.98794
 Zn120 Zn 0.47776 0.52318 1.02299
 Zn121 Zn 0.51264 0.45324 1.01660
 O122 O 0.50541 0.49527 0.99527
 O123 O 0.50881 0.50388 0.91710
 O124 O 0.55033 0.55788 1.00928
 O125 O 0.43763 0.53570 1.00197
 O126 O 0.55599 0.52495 0.94280
 O127 O 0.44259 0.50952 0.95068
 O128 O 0.49898 0.56324 1.03532
 O129 O 0.49132 0.45065 1.05794
 O130 O 0.58375 0.49142 1.00386
 O131 O 0.46538 0.50217 1.06305
 O132 O 0.55784 0.44448 1.02509
 O133 O 0.49654 0.41696 0.99176
 O134 O 0.47531 0.44280 0.94479
 C135 C 0.53823 0.51906 0.91545
 C136 C 0.52914 0.57510 1.02822
 C137 C 0.42557 0.52859 0.97190
 C138 C 0.47242 0.47200 1.07502
 C139 C 0.58531 0.46203 1.01911
 C140 C 0.48123 0.41537 0.96243
 C141 C 1.17923 0.46191 0.45977
 C142 C 1.18114 0.42994 0.44202
 C143 C 1.15102 0.40969 0.43786
 C144 C 1.11897 0.42158 0.45090
 C145 C 1.29843 0.38594 0.38501
 C146 C 1.14721 0.47387 0.47286
 C147 C 1.21374 0.41830 0.42719
 C148 C 1.24074 0.40841 0.41425
 C149 C 1.27202 0.39651 0.39863
 C150 C 1.11664 0.45397 0.46829
 H151 H 1.20240 0.47780 0.46311
 H152 H 1.15221 0.38491 0.42413
 H153 H 1.09597 0.40563 0.44691
 H154 H 1.14632 0.49892 0.48608
 C155 C 0.33910 0.57776 0.97297
 C156 C 0.32597 0.56965 0.93984
 C157 C 0.34525 0.54806 0.91742
 C158 C 0.37756 0.53468 0.92793
 C159 C 0.20696 0.61877 0.89161
 C160 C 0.37149 0.56437 0.98360
 C161 C 0.29294 0.58360 0.92838
 C162 C 0.26553 0.59493 0.91771
 C163 C 0.23377 0.60789 0.90410
 C164 C 0.39112 0.54271 0.96113
 H165 H 0.32439 0.59449 0.99053
 H166 H 0.33535 0.54164 0.89171
 H167 H 0.39193 0.51810 0.90998
 H168 H 0.38118 0.57104 1.00930
 C169 C -0.18132 0.95723 0.04235
 C170 C -0.18306 0.92489 0.05926
 C171 C -0.15258 0.90521 0.06419
 C172 C -0.12040 0.91794 0.05260
 C173 C -0.30116 0.87818 0.11151
 C174 C -0.14915 0.97003 0.03071
 C175 C -0.21589 0.91227 0.07250
 C176 C -0.24309 0.90162 0.08421
 C177 C -0.27458 0.88904 0.09862
 C178 C -0.11827 0.95062 0.03593
 H179 H -0.20476 0.97270 0.03846
 H180 H -0.15362 0.88017 0.07731
 H181 H -0.09716 0.90233 0.05703
 H182 H -0.14843 0.99527 0.01799
 C183 C 0.67467 0.04549 0.54030
 C184 C 0.67604 0.07736 0.55826
 C185 C 0.64541 0.09678 0.56345
 C186 C 0.61343 0.08421 0.55114
 C187 C 0.79349 0.12251 0.61333
 C188 C 0.64271 0.03285 0.52793
 C189 C 0.70864 0.08968 0.57234
 C190 C 0.73567 0.09998 0.58473
 C191 C 0.76701 0.11209 0.59988
 C192 C 0.61166 0.05195 0.53346
 H193 H 0.69823 0.03022 0.53619
 H194 H 0.64618 0.12146 0.57738
 H195 H 0.59006 0.09956 0.55584
 H196 H 0.64227 0.00793 0.51445
 C197 C 0.45664 0.18128 0.45734
 C198 C 0.43980 0.18313 0.42498
 C199 C 0.43491 0.15269 0.40528
 C200 C 0.44646 0.12044 0.41799
 C201 C 0.38767 0.30155 0.37849
 C202 C 0.46824 0.14905 0.47012
 C203 C 0.42661 0.21603 0.41238
 C204 C 0.41493 0.24330 0.40177
 C205 C 0.40055 0.27489 0.38926
 C206 C 0.46308 0.11821 0.45067
 H207 H 0.46049 0.20469 0.47283
 H208 H 0.42184 0.15382 0.38023
 H209 H 0.44208 0.09724 0.40235
 H210 H 0.48092 0.14825 0.49536
 C211 C 0.93639 0.35356 0.59641
 C212 C 0.94145 0.32295 0.57696
 C213 C 0.95949 0.32431 0.54520
 C214 C 0.97203 0.35623 0.53271
 C215 C 0.88565 0.20580 0.62176
 C216 C 0.94889 0.38551 0.58399
 C217 C 0.92716 0.29041 0.58912
 C218 C 0.91459 0.26344 0.59932
 C219 C 0.89924 0.23220 0.61136
 C220 C 0.96661 0.38727 0.55184
 H221 H 0.92242 0.35281 0.62101
 H222 H 0.96350 0.30076 0.52991
 H223 H 0.98555 0.35667 0.50787
 H224 H 0.94426 0.40887 0.59936
 C225 C 0.04089 0.82099 -0.03735
 C226 C 0.05861 0.81907 -0.06926
 C227 C 0.06263 0.84919 -0.08951
 C228 C 0.04948 0.88124 -0.07769
 C229 C 0.11604 0.70182 -0.11318
 C230 C 0.02769 0.85302 -0.02546
 C231 C 0.07355 0.78647 -0.08086
 C232 C 0.08659 0.75947 -0.09073
 C233 C 0.10232 0.72822 -0.10261
 C234 C 0.03211 0.88358 -0.04537
 H235 H 0.03765 0.79783 -0.02146
 H236 H 0.07633 0.84799 -0.11425
 H237 H 0.05335 0.90423 -0.09365
 H238 H 0.01449 0.85392 -0.00046
 C239 C 0.58400 0.65522 1.04737
 C240 C 0.56159 0.67472 1.06878
 C241 C 0.52835 0.66179 1.07688
 C242 C 0.51761 0.62939 1.06365
 C243 C 0.61000 0.79373 1.11754
 C244 C 0.57336 0.62290 1.03416
 C245 C 0.57316 0.70776 1.08257
 C246 C 0.58388 0.73517 1.09381
 C247 C 0.59753 0.76692 1.10668
 C248 C 0.54006 0.60955 1.04217
 H249 H 0.60978 0.66496 1.04096
 H250 H 0.51081 0.67668 1.09347
 H251 H 0.49183 0.61987 1.07031
 H252 H 0.59130 0.60836 1.01771
 C253 C 0.42355 0.47324 1.16138
 C254 C 0.43159 0.44000 1.17442
 C255 C 0.45306 0.41747 1.15512
 C256 C 0.46638 0.42796 1.12288
 C257 C 0.38237 0.39175 1.29299
 C258 C 0.43689 0.48385 1.12906
 C259 C 0.41766 0.42854 1.20735
 C260 C 0.40631 0.41787 1.23466
 C261 C 0.39331 0.40424 1.26629
 C262 C 0.45841 0.46126 1.10941
 H263 H 0.40692 0.49088 1.17611
 H264 H 0.45942 0.39167 1.16494
 H265 H 0.48286 0.40992 1.10849
 H266 H 0.43026 0.50963 1.11944
 C267 C 0.53734 -0.04025 0.32117
 C268 C 0.56938 -0.05791 0.31932
 C269 C 0.58956 -0.06212 0.34946
 C270 C 0.57755 -0.04919 0.38146
 C271 C 0.61383 -0.11460 0.20218
 C272 C 0.52526 -0.02727 0.35314
 C273 C 0.58117 -0.07261 0.28676
 C274 C 0.59118 -0.08547 0.25978
 C275 C 0.60320 -0.10101 0.22855
 C276 C 0.54510 -0.03188 0.38373
 H277 H 0.52150 -0.03687 0.29798
 H278 H 0.61439 -0.07578 0.34832
 H279 H 0.59346 -0.05320 0.40447
 H280 H 0.50017 -0.01410 0.35398
 C281 C -0.09646 1.06390 -0.14622
 C282 C -0.07689 1.05881 -0.17668
 C283 C -0.04509 1.04069 -0.17518
 C284 C -0.03266 1.02811 -0.14327
 C285 C -0.12138 1.11463 -0.29387
 C286 C -0.08410 1.05137 -0.11428
 C287 C -0.08897 1.07314 -0.20921
 C288 C -0.09909 1.08573 -0.23619
 C289 C -0.11103 1.10108 -0.26745
 C290 C -0.05190 1.03357 -0.11238
 H291 H -0.12110 1.07794 -0.14708
 H292 H -0.02970 1.03665 -0.19861
 H293 H -0.00777 1.01454 -0.14273
 H294 H -0.09956 1.05602 -0.09103
 C295 C 1.09499 0.56410 0.65258
 C296 C 1.07527 0.55925 0.68295
 C297 C 1.04291 0.54239 0.68110
 C298 C 1.03012 0.53072 0.64894
 C299 C 1.12189 0.61162 0.80103
 C300 C 1.08228 0.55247 0.62041
 C301 C 1.08788 0.57252 0.71577
 C302 C 1.09851 0.58426 0.74296
 C303 C 1.11107 0.59870 0.77446
 C304 C 1.04957 0.53585 0.61818
 H305 H 1.12006 0.57718 0.65372
 H306 H 1.02740 0.53857 0.70444
 H307 H 1.00486 0.51804 0.64813
 H308 H 1.09792 0.55683 0.59727
 C309 C 0.83582 0.58330 0.52558
 C310 C 0.82277 0.57578 0.55887
 C311 C 0.84221 0.55477 0.58155
 C312 C 0.87457 0.54136 0.57114
 C313 C 0.70340 0.62397 0.60760
 C314 C 0.86828 0.56987 0.51505
 C315 C 0.78961 0.58965 0.57024
 C316 C 0.76212 0.60083 0.58097
 C317 C 0.73027 0.61347 0.59481
 C318 C 0.88805 0.54876 0.53778
 H319 H 0.82098 0.59957 0.50781
 H320 H 0.83238 0.54880 0.60738
 H321 H 0.88905 0.52521 0.58930
 H322 H 0.87790 0.57605 0.48922
 C323 C 0.65386 0.40422 1.06143
 C324 C 0.68411 0.42420 1.05693
 C325 C 0.68231 0.45597 1.03896
 C326 C 0.65030 0.46799 1.02600
 C327 C 0.80119 0.38073 1.11448
 C328 C 0.62183 0.41617 1.04851
 C329 C 0.71668 0.41256 1.07175
 C330 C 0.74365 0.40273 1.08475
 C331 C 0.77485 0.39101 1.10057
 C332 C 0.61961 0.44837 1.03093
 H333 H 0.65494 0.37960 1.07533
 H334 H 0.70557 0.47167 1.03537
 H335 H 0.64951 0.49289 1.01262
 H336 H 0.59873 0.40043 1.05277
 C337 C 0.15477 1.04838 -0.07971
 C338 C 0.17480 1.06970 -0.05787
 C339 C 0.16248 1.07823 -0.02447
 C340 C 0.13015 1.06548 -0.01301
 C341 C 0.29292 1.11601 -0.11039
 C342 C 0.12256 1.03566 -0.06838
 C343 C 0.20772 1.08294 -0.07030
 C344 C 0.23495 1.09358 -0.08198
 C345 C 0.26642 1.10573 -0.09687
 C346 C 0.10979 1.04408 -0.03491
 H347 H 0.16401 1.04165 -0.10562
 H348 H 0.17779 1.09477 -0.00736
 H349 H 0.12109 1.07243 0.01288
 H350 H 0.10763 1.01925 -0.08593
 C351 C 0.33206 -0.07786 0.47381
 C352 C 0.31906 -0.06923 0.44076
 C353 C 0.33846 -0.04752 0.41880
 C354 C 0.37074 -0.03452 0.42967
 C355 C 0.20049 -0.11673 0.39033
 C356 C 0.36444 -0.06485 0.48479
 C357 C 0.28607 -0.08276 0.42885
 C358 C 0.25874 -0.09370 0.41767
 C359 C 0.22713 -0.10618 0.40338
 C360 C 0.38418 -0.04306 0.46277
 H361 H 0.31725 -0.09470 0.49100
 H362 H 0.32868 -0.04069 0.39317
 H363 H 0.38518 -0.01782 0.41205
 H364 H 0.37404 -0.07190 0.51041
 C365 C 0.52397 -0.16280 0.57782
 C366 C 0.55750 -0.17510 0.56950
 C367 C 0.57942 -0.15505 0.54835
 C368 C 0.56804 -0.12282 0.53559
 C369 C 0.61008 -0.29330 0.61607
 C370 C 0.51247 -0.13046 0.56503
 C371 C 0.56996 -0.20804 0.58279
 C372 C 0.58164 -0.23529 0.59350
 C373 C 0.59654 -0.26677 0.60573
 C374 C 0.53445 -0.11007 0.54380
 H375 H 0.50680 -0.17812 0.59422
 H376 H 0.60542 -0.16429 0.54178
 H377 H 0.58566 -0.10788 0.51932
 H378 H 0.48649 -0.12140 0.57182
 C379 C 1.02600 0.66704 0.42255
 C380 C 1.05908 0.68003 0.43123
 C381 C 1.08111 0.66059 0.45293
 C382 C 1.07028 0.62830 0.46587
 C383 C 1.10939 0.79861 0.38387
 C384 C 1.01505 0.63464 0.43551
 C385 C 1.07096 0.71303 0.41774
 C386 C 1.08212 0.74036 0.40685
 C387 C 1.09638 0.77197 0.39440
 C388 C 1.03715 0.61487 0.45728
 H389 H 1.00875 0.68187 0.40572
 H390 H 1.10677 0.67036 0.45979
 H391 H 1.08796 0.61383 0.48256
 H392 H 0.98941 0.62505 0.42842
 C393 C -0.08245 1.15806 0.05450
 C394 C -0.05984 1.17759 0.07549
 C395 C -0.02643 1.16462 0.08310
 C396 C -0.01572 1.13217 0.06976
 C397 C -0.10918 1.29694 0.12342
 C398 C -0.07186 1.12570 0.04118
 C399 C -0.07140 1.21074 0.08928
 C400 C -0.08229 1.23823 0.10038
 C401 C -0.09628 1.27007 0.11295
 C402 C -0.03838 1.11231 0.04867
 H403 H -0.10837 1.16782 0.04846
 H404 H -0.00872 1.17953 0.09936
 H405 H 0.01019 1.12261 0.07602
 H406 H -0.08997 1.11117 0.02504
 C407 C 0.43854 0.34678 0.90507
 C408 C 0.44300 0.31659 0.92515
 C409 C 0.46106 0.31842 0.95684
 C410 C 0.47416 0.35043 0.96868
 C411 C 0.38500 0.19956 0.88233
 C412 C 0.45159 0.37881 0.91684
 C413 C 0.42804 0.28403 0.91369
 C414 C 0.41493 0.25708 0.90402
 C415 C 0.39899 0.22589 0.89248
 C416 C 0.46928 0.38107 0.94896
 H417 H 0.42456 0.34566 0.88051
 H418 H 0.46462 0.29521 0.97261
 H419 H 0.48762 0.35126 0.99352
 H420 H 0.44736 0.40186 0.90102
 C421 C 0.59552 0.56149 0.84684
 C422 C 0.57530 0.55705 0.81675
 C423 C 0.54356 0.53905 0.81866
 C424 C 0.53180 0.52602 0.85064
 C425 C 0.61769 0.61481 0.69974
 C426 C 0.58383 0.54851 0.87884
 C427 C 0.58666 0.57195 0.78422
 C428 C 0.59623 0.58502 0.75727
 C429 C 0.60764 0.60089 0.72608
 C430 C 0.55165 0.53090 0.88118
 H431 H 0.62012 0.57542 0.84566
 H432 H 0.52768 0.53550 0.79553
 H433 H 0.50691 0.51263 0.85153
 H434 H 0.59974 0.55273 0.90182
 C435 C 0.44423 0.08160 0.65767
 C436 C 0.42329 0.05885 0.67703
 C437 C 0.41580 0.02548 0.66393
 C438 C 0.42920 0.01495 0.63152
 C439 C 0.37536 0.10750 0.79636
 C440 C 0.45761 0.07118 0.62535
 C441 C 0.40947 0.07021 0.71015
 C442 C 0.39835 0.08092 0.73763
 C443 C 0.38578 0.09474 0.76948
 C444 C 0.45024 0.03774 0.61184
 H445 H 0.45017 0.10749 0.66753
 H446 H 0.39959 0.00766 0.67870
 H447 H 0.42305 -0.01095 0.62187
 H448 H 0.47370 0.08940 0.61095
 C449 C 0.07761 0.97467 0.16718
 C450 C 0.06902 0.94159 0.18019
 C451 C 0.04735 0.91950 0.16081
 C452 C 0.03435 0.93028 0.12854
 C453 C 0.11665 0.89135 0.29864
 C454 C 0.06459 0.98556 0.13481
 C455 C 0.08258 0.92975 0.21316
 C456 C 0.09354 0.91862 0.24046
 C457 C 0.10606 0.90437 0.27203
 C458 C 0.04284 0.96341 0.11509
 H459 H 0.09443 0.99196 0.18197
 H460 H 0.04056 0.89384 0.17059
 H461 H 0.01768 0.91255 0.11412
 H462 H 0.07161 1.01120 0.12520
 C463 C 0.92217 0.47516 0.33755
 C464 C 0.93055 0.44163 0.32527
 C465 C 0.95176 0.41967 0.34532
 C466 C 0.96452 0.43101 0.37751
 C467 C 0.88401 0.38936 0.20711
 C468 C 0.93495 0.48663 0.36985
 C469 C 0.91729 0.42921 0.29236
 C470 C 0.90658 0.41759 0.26513
 C471 C 0.89436 0.40279 0.23365
 C472 C 0.95624 0.46461 0.39023
 H473 H 0.90572 0.49237 0.32223
 H474 H 0.95839 0.39366 0.33610
 H475 H 0.98084 0.41337 0.39246
 H476 H 0.92811 0.51262 0.37889
   
