data_POSCAR
  _audit_creation_date              2014-09-24
  _audit_creation_method            'ToBaCCo'
  _symmetry_space_group_name_H-M    'P1'
  _symmetry_Int_Tables_number       1
  _symmetry_cell_setting            triclinic
  loop_
  _symmetry_equiv_pos_as_xyz
 x,y,z
_cell_length_a 21.1249
_cell_length_b 21.1634
_cell_length_c 21.1633
_cell_angle_alpha 65.292700
_cell_angle_beta 114.525600
_cell_angle_gamma 65.432500
loop_
  _atom_site_label
  _atom_site_type_symbol
  _atom_site_fract_x
  _atom_site_fract_y
  _atom_site_fract_z
O1 O 0.64907 0.41944 0.07145
 O2 O 0.46975 0.45302 0.08308
 O3 O 0.56997 0.35249 0.06518
 O4 O 0.54900 0.52214 0.08758
 O5 O 0.42219 0.65101 -0.07487
 O6 O 0.44384 0.48118 -0.09730
 O7 O 0.34517 0.58171 -0.07928
 O8 O 0.52413 0.54867 -0.09097
 Cu9 Cu 0.57142 0.42448 0.09311
 Cu10 Cu 0.42186 0.57819 -0.10191
 C11 C 0.61664 0.47945 -0.01232
 C12 C 0.37724 0.52150 0.00432
 C13 C 0.50917 0.38853 -0.02048
 C14 C 0.48317 0.61484 0.01076
 O15 O 0.08292 0.53244 0.54673
 O16 O 0.07116 0.35572 0.57323
 O17 O 0.08944 0.45479 0.47553
 O18 O 0.06330 0.43109 0.64358
 O19 O -0.09912 0.55779 0.51487
 O20 O -0.07327 0.58115 0.34653
 O21 O -0.09160 0.48057 0.44479
 O22 O -0.07945 0.65695 0.41723
 Cu23 Cu 0.09320 0.43173 0.57244
 Cu24 Cu -0.10211 0.58146 0.41827
 C25 C 0.00372 0.62452 0.47937
 C26 C -0.01246 0.38867 0.51148
 C27 C 0.01258 0.51931 0.38312
 C28 C -0.02254 0.49134 0.60766
 O29 O 0.44637 0.09003 0.52102
 O30 O 0.42250 0.07779 0.34590
 O31 O 0.34693 0.07574 0.41626
 O32 O 0.52262 0.09253 0.44831
 O33 O 0.64846 -0.07052 0.57401
 O34 O 0.47429 -0.08726 0.54361
 O35 O 0.54780 -0.08538 0.46972
 O36 O 0.57330 -0.07277 0.64579
 Cu37 Cu 0.42252 0.10067 0.42085
 Cu38 Cu 0.57373 -0.09539 0.57047
 C39 C 0.51082 0.01087 0.61256
 C40 C 0.48181 -0.00593 0.37803
 C41 C 0.38199 -0.00940 0.47710
 C42 C 0.61467 0.01403 0.51417
 O43 O 0.41616 0.07970 -0.15798
 O44 O 0.40814 0.05298 0.02007
 O45 O 0.41977 0.15429 -0.08655
 O46 O 0.40815 -0.02575 -0.04889
 O47 O 0.57146 -0.14930 0.07478
 O48 O 0.58302 0.03036 0.03717
 O49 O 0.57149 -0.07322 0.14459
 O50 O 0.57944 -0.04611 -0.03473
 Cu51 Cu 0.39670 0.07734 -0.08025
 Cu52 Cu 0.59298 -0.07134 0.06746
 C53 C 0.49941 0.01910 -0.12598
 C54 C 0.48745 -0.01274 0.11156
 C55 C 0.50394 0.12235 -0.02936
 C56 C 0.48753 -0.11776 0.01765
 O57 O -0.14865 0.56992 0.92661
 O58 O 0.02088 0.59200 0.94565
 O59 O -0.08394 0.57741 0.84557
 O60 O -0.04541 0.58572 1.02771
 O61 O 0.08104 0.42270 1.15052
 O62 O 0.04463 0.41476 0.96930
 O63 O 0.14905 0.42931 1.07163
 O64 O -0.02136 0.40707 1.05037
 Cu65 Cu -0.07647 0.59763 0.92463
 Cu66 Cu 0.07604 0.40220 1.07241
 C67 C -0.11372 0.48443 0.98578
 C68 C 0.11333 0.51486 1.01080
 C69 C -0.02517 0.49393 0.87702
 C70 C 0.02231 0.50584 1.11963
 O71 O -0.04983 -0.02307 0.40893
 O72 O -0.07791 0.15391 0.41991
 O73 O 0.02583 0.04893 0.40731
 O74 O -0.15220 0.08157 0.42026
 O75 O -0.02833 -0.04184 0.58357
 O76 O 0.14888 -0.07428 0.57063
 O77 O 0.04743 0.03024 0.58312
 O78 O 0.07533 -0.14722 0.57226
 Cu79 Cu -0.07556 0.07775 0.39759
 Cu80 Cu 0.07302 -0.07036 0.59393
 C81 C 0.01500 -0.11445 0.48841
 C82 C -0.01826 0.12169 0.50353
 C83 C 0.11746 -0.01701 0.48684
 C84 C -0.11987 0.02295 0.50437
 C85 C -0.34790 0.54981 0.89631
 C86 C -0.31358 0.47077 0.98137
 C87 C -0.21000 0.38640 1.06233
 C88 C -0.14421 0.38799 1.06134
 C89 C -0.18078 0.47474 0.98030
 C90 C -0.28346 0.55236 0.89605
 C91 C -0.35438 0.66134 0.83216
 C92 C -0.42499 0.65835 0.83228
 H93 H -0.17965 0.32167 1.12864
 H94 H -0.06515 0.32430 1.12704
 H95 H -0.38219 0.70398 0.75794
 H96 H -0.32684 0.67997 0.87107
 H97 H -0.49280 0.69846 0.75848
 H98 H -0.43833 0.67534 0.87109
 C99 C 0.20792 0.60399 0.92410
 C100 C 0.31048 0.52956 1.00949
 C101 C 0.34390 0.46028 1.10041
 C102 C 0.27919 0.45715 1.10225
 C103 C 0.17888 0.52547 1.01362
 C104 C 0.14384 0.60244 0.92644
 C105 C 0.08168 0.64051 0.82665
 C106 C 0.15161 0.64247 0.82380
 H107 H 0.42126 0.40426 1.16941
 H108 H 0.30864 0.39867 1.17218
 H109 H 0.00559 0.71551 0.77096
 H110 H 0.08505 0.58529 0.82973
 H111 H 0.11564 0.71881 0.76633
 H112 H 0.19529 0.58858 0.82491
 C113 C 0.09568 -0.34586 0.55351
 C114 C 0.00716 -0.31018 0.47747
 C115 C -0.08021 -0.20837 0.40688
 C116 C -0.07650 -0.14485 0.40973
 C117 C 0.01410 -0.18114 0.48328
 C118 C 0.09894 -0.28326 0.55763
 C119 C 0.19709 -0.33653 0.59155
 C120 C 0.19275 -0.40392 0.58566
 H121 H -0.15160 -0.17727 0.34909
 H122 H -0.14480 -0.06735 0.35505
 H123 H 0.25693 -0.37554 0.66864
 H124 H 0.19331 -0.28935 0.53676
 H125 H 0.25034 -0.48189 0.65879
 H126 H 0.18513 -0.39497 0.52654
 C127 C 0.07021 0.22047 0.58100
 C128 C -0.01688 0.32075 0.51234
 C129 C -0.10571 0.35714 0.43474
 C130 C -0.10720 0.29253 0.43170
 C131 C -0.02038 0.19000 0.50751
 C132 C 0.06822 0.15675 0.57903
 C133 C 0.14620 0.07340 0.68930
 C134 C 0.14861 0.14322 0.69171
 H135 H -0.17397 0.43529 0.37660
 H136 H -0.17641 0.32236 0.37148
 H137 H 0.21567 0.01090 0.71846
 H138 H 0.11794 0.05208 0.71841
 H139 H 0.21967 0.12053 0.72247
 H140 H 0.12190 0.16238 0.72236
 C141 C 0.57522 -0.07179 -0.22418
 C142 C 0.50864 0.01517 -0.32413
 C143 C 0.43162 0.10484 -0.36074
 C144 C 0.42790 0.10684 -0.29661
 C145 C 0.50232 0.01991 -0.19433
 C146 C 0.57215 -0.06926 -0.16116
 C147 C 0.68218 -0.14947 -0.07629
 C148 C 0.68602 -0.15250 -0.14522
 H149 H 0.37431 0.17360 -0.43863
 H150 H 0.36864 0.17665 -0.32650
 H151 H 0.70909 -0.21792 -0.01502
 H152 H 0.71211 -0.12241 -0.05368
 H153 H 0.71524 -0.22285 -0.12339
 H154 H 0.71908 -0.12803 -0.16209
 C155 C 0.41433 0.07791 0.21053
 C156 C 0.47489 -0.00973 0.30774
 C157 C 0.53288 -0.10048 0.33690
 C158 C 0.53605 -0.10270 0.27254
 C159 C 0.48043 -0.01415 0.17798
 C160 C 0.41750 0.07550 0.14735
 C161 C 0.41401 0.15560 0.10907
 C162 C 0.40824 0.15987 0.17642
 H163 H 0.57948 -0.16989 0.41083
 H164 H 0.58414 -0.17333 0.29769
 H165 H 0.34608 0.22371 0.02906
 H166 H 0.48404 0.12856 0.13099
 H167 H 0.33542 0.23000 0.13526
 H168 H 0.47414 0.13694 0.23620
 C169 C 0.56702 -0.35449 0.09800
 C170 C 0.47976 -0.31977 0.02172
 C171 C 0.39065 -0.21981 -0.04600
 C172 C 0.39193 -0.15511 -0.04260
 C173 C 0.48254 -0.18846 0.02680
 C174 C 0.56865 -0.29043 0.10012
 C175 C 0.66750 -0.34379 0.13529
 C176 C 0.66536 -0.41351 0.13250
 H177 H 0.32084 -0.19056 -0.10437
 H178 H 0.32290 -0.07773 -0.09857
 H179 H 0.72631 -0.38072 0.21164
 H180 H 0.66390 -0.29766 0.08001
 H181 H 0.72283 -0.49054 0.20692
 H182 H 0.66005 -0.40742 0.07533
 C183 C 0.59870 0.22109 0.04166
 C184 C 0.51287 0.32291 -0.03143
 C185 C 0.42800 0.36051 -0.11540
 C186 C 0.42625 0.29583 -0.11838
 C187 C 0.51005 0.19214 -0.03794
 C188 C 0.59756 0.15766 0.03786
 C189 C 0.67021 0.07570 0.14782
 C190 C 0.67098 0.14543 0.15201
 H191 H 0.36048 0.43903 -0.17490
 H192 H 0.35748 0.32668 -0.18045
 H193 H 0.74180 0.01186 0.18085
 H194 H 0.63814 0.05615 0.17197
 H195 H 0.74350 0.12092 0.18847
 H196 H 0.63863 0.16679 0.17801
 C197 C -0.35115 0.08947 0.42626
 C198 C -0.31804 0.02002 0.51565
 C199 C -0.21566 -0.05416 0.60248
 C200 C -0.15135 -0.05120 0.59981
 C201 C -0.18782 0.02466 0.50979
 C202 C -0.28774 0.09135 0.42312
 C203 C -0.36609 0.20201 0.34190
 C204 C -0.43545 0.19965 0.34573
 H205 H -0.18563 -0.11343 0.67242
 H206 H -0.07326 -0.10842 0.66802
 H207 H -0.38820 0.23017 0.27163
 H208 H -0.34842 0.23518 0.36545
 H209 H -0.49710 0.22633 0.27788
 H210 H -0.45789 0.23118 0.37181
 C211 C 0.34703 -0.07909 0.56665
 C212 C 0.31734 -0.01926 0.47684
 C213 C 0.22443 0.03252 0.38940
 C214 C 0.16052 0.02886 0.39255
 C215 C 0.18843 -0.02568 0.48306
 C216 C 0.28435 -0.08280 0.56998
 C217 C 0.31482 -0.08336 0.64805
 C218 C 0.38151 -0.07692 0.64263
 H219 H 0.19987 0.07854 0.31872
 H220 H 0.08753 0.07292 0.32374
 H221 H 0.35659 -0.15493 0.71997
 H222 H 0.25287 -0.01610 0.62194
 H223 H 0.46164 -0.14312 0.71181
 H224 H 0.35695 -0.00509 0.61155
 C225 C -0.04482 0.60348 1.21880
 C226 C 0.02233 0.51688 1.31897
 C227 C 0.09050 0.42524 1.35360
 C228 C 0.09297 0.42130 1.28987
 C229 C 0.02842 0.50910 1.19026
 C230 C -0.04024 0.59950 1.15641
 C231 C -0.05172 0.68476 1.11209
 C232 C -0.05959 0.69097 1.17765
 H233 H 0.14042 0.35639 1.42946
 H234 H 0.14486 0.34945 1.31852
 H235 H -0.12087 0.74974 1.03186
 H236 H 0.01634 0.66241 1.13175
 H237 H -0.13476 0.75879 1.13546
 H238 H 0.00254 0.67464 1.23371
 C239 C 0.04272 0.40079 0.77629
 C240 C -0.03336 0.48589 0.67394
 C241 C -0.11860 0.56880 0.63729
 C242 C -0.11943 0.57033 0.70305
 C243 C -0.03585 0.48816 0.80658
 C244 C 0.04079 0.40169 0.84060
 C245 C 0.15019 0.33365 0.91905
 C246 C 0.15259 0.33261 0.84868
 H247 H -0.18111 0.63546 0.55840
 H248 H -0.18253 0.63786 0.67285
 H249 H 0.18771 0.26083 0.98590
 H250 H 0.17057 0.36994 0.93387
 H251 H 0.19188 0.25893 0.87559
 H252 H 0.17481 0.36798 0.82317
   
