data_POSCAR
  _audit_creation_date              2014-09-24
  _audit_creation_method            'ToBaCCo'
  _symmetry_space_group_name_H-M    'P1'
  _symmetry_Int_Tables_number       1
  _symmetry_cell_setting            triclinic
  loop_
  _symmetry_equiv_pos_as_xyz
 x,y,z
_cell_length_a 31.2310
_cell_length_b 31.2306
_cell_length_c 43.0198
_cell_angle_alpha 90.028900
_cell_angle_beta 89.971200
_cell_angle_gamma 90.350600
loop_
  _atom_site_label
  _atom_site_type_symbol
  _atom_site_fract_x
  _atom_site_fract_y
  _atom_site_fract_z
O1 O 0.03519 0.54179 1.02821
 O2 O 0.03507 0.46068 0.96668
 O3 O 0.03308 0.54420 0.96781
 O4 O 0.03394 0.45832 1.02715
 O5 O -0.03675 0.45981 1.02840
 O6 O -0.03757 0.54117 0.96715
 O7 O -0.03561 0.45771 0.96795
 O8 O -0.03552 0.54328 1.02758
 Cu9 Cu 0.04141 0.50131 0.99742
 Cu10 Cu -0.04345 0.50041 0.99779
 C11 C 0.00011 0.55684 1.03811
 C12 C -0.00003 0.44488 0.95711
 C13 C -0.00266 0.55714 0.95731
 C14 C -0.00153 0.44473 1.03796
 O15 O 0.45942 -0.03637 0.46846
 O16 O 0.54079 -0.03719 0.52972
 O17 O 0.45733 -0.03522 0.52891
 O18 O 0.54289 -0.03513 0.46929
 O19 O 0.54140 0.03558 0.46865
 O20 O 0.46030 0.03545 0.53018
 O21 O 0.54381 0.03346 0.52905
 O22 O 0.45794 0.03433 0.46971
 Cu23 Cu 0.50003 -0.04307 0.49907
 Cu24 Cu 0.50092 0.04180 0.49944
 C25 C 0.44435 -0.00114 0.45890
 C26 C 0.55676 -0.00227 0.53955
 C27 C 0.44450 0.00035 0.53975
 C28 C 0.55645 0.00050 0.45875
 C29 C -0.05524 0.01002 0.26341
 C30 C -0.01605 0.01759 0.24847
 C31 C -0.00856 0.05680 0.23356
 C32 C -0.04032 0.08846 0.23301
 C33 C -0.07927 0.08070 0.24855
 C34 C -0.08694 0.04172 0.26404
 C35 C 0.01720 -0.01566 0.24840
 C36 C 0.00963 -0.05485 0.23345
 C37 C 0.04133 -0.08656 0.23283
 C38 C 0.08032 -0.07889 0.24831
 C39 C 0.08807 -0.03994 0.26386
 C40 C 0.05642 -0.00818 0.26331
 H41 H -0.06044 -0.02031 0.27508
 H42 H 0.02174 0.06206 0.22185
 H43 H -0.02070 -0.06006 0.22179
 H44 H 0.06168 0.02212 0.27502
 H45 H -0.10374 0.10511 0.24858
 H46 H 0.10472 -0.10335 0.24829
 C47 C -0.01034 -0.05654 0.76322
 C48 C -0.01769 -0.01731 0.74843
 C49 C -0.05692 -0.00995 0.73363
 C50 C -0.08878 -0.04189 0.73302
 C51 C -0.08125 -0.08087 0.74843
 C52 C -0.04228 -0.08840 0.76383
 C53 C 0.01577 0.01616 0.74843
 C54 C 0.05509 0.00872 0.73374
 C55 C 0.08697 0.04064 0.73316
 C56 C 0.07934 0.07972 0.74843
 C57 C 0.04026 0.08736 0.76370
 C58 C 0.00834 0.05547 0.76311
 H59 H 0.01998 -0.06164 0.77485
 H60 H -0.06203 0.02036 0.72201
 H61 H 0.06026 -0.02168 0.72223
 H62 H -0.02206 0.06064 0.77462
 H63 H -0.10584 -0.10545 0.74843
 H64 H 0.10393 0.10431 0.74843
 C65 C 0.00589 -0.34412 0.10339
 N66 N -0.03220 -0.35551 0.09043
 N67 N -0.03440 -0.38757 0.06997
 C68 C 0.00145 -0.40921 0.06169
 N69 N 0.03939 -0.39788 0.07477
 N70 N 0.04155 -0.36603 0.09526
 C71 C 0.00922 -0.30776 0.12494
 N72 N 0.04729 -0.29828 0.13858
 N73 N 0.05127 -0.26434 0.15709
 C74 C 0.01736 -0.23847 0.16262
 N75 N -0.02085 -0.24803 0.14913
 N76 N -0.02487 -0.28212 0.13064
 C77 C 0.02268 -0.19999 0.18191
 N78 N -0.00979 -0.17171 0.18546
 N79 N -0.00407 -0.13595 0.20192
 C80 C 0.03429 -0.12710 0.21550
 N81 N 0.06657 -0.15568 0.21206
 N82 N 0.06090 -0.19135 0.19558
 C83 C -0.00637 0.34570 0.10322
 N84 N 0.03153 0.35707 0.08995
 N85 N 0.03344 0.38912 0.06949
 C86 C -0.00252 0.41074 0.06150
 N87 N -0.04027 0.39943 0.07489
 N88 N -0.04215 0.36760 0.09539
 C89 C -0.00941 0.30939 0.12482
 N90 N -0.04730 0.29997 0.13876
 N91 N -0.05104 0.26608 0.15734
 C92 C -0.01706 0.24023 0.16262
 N93 N 0.02097 0.24973 0.14882
 N94 N 0.02475 0.28376 0.13028
 C95 C -0.02215 0.20180 0.18197
 N96 N 0.01035 0.17352 0.18533
 N97 N 0.00480 0.13780 0.20184
 C98 C -0.03342 0.12899 0.21567
 N99 N -0.06572 0.15757 0.21243
 N100 N -0.06023 0.19321 0.19590
 C101 C 0.34527 0.00587 0.60485
 N102 N 0.35611 -0.03212 0.59168
 N103 N 0.38823 -0.03424 0.57130
 C104 C 0.41050 0.00160 0.56329
 N105 N 0.39973 0.03945 0.57658
 N106 N 0.36781 0.04153 0.59701
 C107 C 0.30881 0.00911 0.62629
 N108 N 0.29971 0.04712 0.64001
 N109 N 0.26567 0.05102 0.65841
 C110 C 0.23934 0.01708 0.66371
 N111 N 0.24853 -0.02107 0.65013
 N112 N 0.28271 -0.02500 0.63177
 C113 C 0.20074 0.02230 0.68283
 N114 N 0.17212 -0.01025 0.68622
 N115 N 0.13627 -0.00463 0.70250
 C116 C 0.12764 0.03371 0.71606
 N117 N 0.15655 0.06607 0.71279
 N118 N 0.19234 0.06051 0.69649
 C119 C -0.34577 -0.00816 0.60342
 N120 N -0.35862 0.03027 0.59206
 N121 N -0.39068 0.03246 0.57164
 C122 C -0.41084 -0.00375 0.56172
 N123 N -0.39801 -0.04206 0.57324
 N124 N -0.36619 -0.04420 0.59372
 C125 C -0.30952 -0.01136 0.62501
 N126 N -0.29919 -0.04983 0.63750
 N127 N -0.26536 -0.05361 0.65607
 C128 C -0.24044 -0.01909 0.66279
 N129 N -0.25085 0.01951 0.65044
 N130 N -0.28485 0.02333 0.63191
 C131 C -0.20206 -0.02412 0.68213
 N132 N -0.17427 0.00892 0.68646
 N133 N -0.13856 0.00348 0.70292
 C134 C -0.12929 -0.03516 0.71574
 N135 N -0.15739 -0.06803 0.71154
 N136 N -0.19300 -0.06264 0.69503
 C137 C -0.00854 -0.34539 0.89344
 N138 N 0.02989 -0.35824 0.90480
 N139 N 0.03207 -0.39030 0.92522
 C140 C -0.00414 -0.41045 0.93514
 N141 N -0.04244 -0.39763 0.92362
 N142 N -0.04459 -0.36581 0.90314
 C143 C -0.01174 -0.30914 0.87185
 N144 N -0.05021 -0.29881 0.85936
 N145 N -0.05399 -0.26497 0.84079
 C146 C -0.01947 -0.24006 0.83407
 N147 N 0.01912 -0.25046 0.84642
 N148 N 0.02294 -0.28446 0.86495
 C149 C -0.02451 -0.20168 0.81473
 N150 N 0.00854 -0.17388 0.81040
 N151 N 0.00310 -0.13818 0.79393
 C152 C -0.03555 -0.12891 0.78112
 N153 N -0.06841 -0.15701 0.78532
 N154 N -0.06303 -0.19262 0.80182
 C155 C 0.00548 0.34565 0.89202
 N156 N 0.04114 0.36819 0.89986
 N157 N 0.03906 0.40011 0.92028
 C158 C 0.00121 0.41088 0.93357
 N159 N -0.03463 0.38862 0.92557
 N160 N -0.03251 0.35649 0.90518
 C161 C 0.00873 0.30920 0.87057
 N162 N -0.02538 0.28309 0.86509
 N163 N -0.02145 0.24892 0.84673
 C164 C 0.01670 0.23972 0.83315
 N165 N 0.05064 0.26605 0.83845
 N166 N 0.04674 0.30009 0.85685
 C167 C 0.02192 0.20113 0.81403
 N168 N 0.06012 0.19272 0.80037
 N169 N 0.06569 0.15694 0.78407
 C170 C 0.03332 0.12803 0.78080
 N171 N -0.00501 0.13665 0.79436
 N172 N -0.01063 0.17251 0.81064
 C173 C -0.34450 0.00627 0.39348
 N174 N -0.36641 0.04194 0.40160
 N175 N -0.39826 0.03978 0.42210
 C176 C -0.40959 0.00184 0.43517
 N177 N -0.38796 -0.03401 0.42689
 N178 N -0.35589 -0.03181 0.40643
 C179 C -0.30814 0.00960 0.37192
 N180 N -0.28250 -0.02449 0.36622
 N181 N -0.24842 -0.02047 0.34774
 C182 C -0.23886 0.01774 0.33425
 N183 N -0.26472 0.05166 0.33977
 N184 N -0.29866 0.04768 0.35829
 C185 C -0.20037 0.02306 0.31496
 N186 N -0.19174 0.06129 0.30129
 N187 N -0.15606 0.06695 0.28481
 C188 C -0.12749 0.03467 0.28137
 N189 N -0.13634 -0.00369 0.29495
 N190 N -0.17209 -0.00941 0.31141
 C191 C 0.34531 -0.00598 0.39364
 N192 N 0.36721 -0.04176 0.40147
 N193 N 0.39905 -0.03989 0.42198
 C194 C 0.41036 -0.00214 0.43536
 N195 N 0.38873 0.03383 0.42738
 N196 N 0.35669 0.03191 0.40691
 C197 C 0.30901 -0.00902 0.37204
 N198 N 0.28338 0.02514 0.36659
 N199 N 0.24935 0.02136 0.34804
 C200 C 0.23984 -0.01668 0.33425
 N201 N 0.26570 -0.05065 0.33953
 N202 N 0.29959 -0.04691 0.35810
 C203 C 0.20141 -0.02177 0.31489
 N204 N 0.19282 -0.05985 0.30097
 N205 N 0.15718 -0.06534 0.28444
 C206 C 0.12860 -0.03303 0.28120
 N207 N 0.13741 0.00518 0.29503
 N208 N 0.17313 0.01073 0.31154
   
