data_POSCAR
  _audit_creation_date              2014-09-24
  _audit_creation_method            'ToBaCCo'
  _symmetry_space_group_name_H-M    'P1'
  _symmetry_Int_Tables_number       1
  _symmetry_cell_setting            triclinic
  loop_
  _symmetry_equiv_pos_as_xyz
 x,y,z
_cell_length_a 50.6858
_cell_length_b 51.2460
_cell_length_c 51.4115
_cell_angle_alpha 89.998500
_cell_angle_beta 89.991200
_cell_angle_gamma 89.988000
loop_
  _atom_site_label
  _atom_site_type_symbol
  _atom_site_fract_x
  _atom_site_fract_y
  _atom_site_fract_z
C1 C 0.29590 0.33184 0.01487
 C2 C 0.29315 0.32938 -0.01256
 C3 C 0.30826 0.31020 -0.02548
 C4 C 0.32723 0.29488 -0.01239
 C5 C 0.32961 0.29763 0.01505
 C6 C 0.31403 0.31603 0.02808
 H7 H 0.31525 0.31733 0.04911
 H8 H 0.30732 0.30920 -0.04651
 C9 C 0.70905 0.67482 0.01284
 C10 C 0.70708 0.67314 -0.01452
 C11 C 0.68963 0.68968 -0.02776
 C12 C 0.67405 0.70827 -0.01458
 C13 C 0.67608 0.70971 0.01304
 C14 C 0.69385 0.69333 0.02617
 H15 H 0.69469 0.69390 0.04724
 H16 H 0.68922 0.68874 -0.04882
 C17 C 0.70968 0.32348 0.98796
 C18 C 0.70888 0.32416 1.01568
 C19 C 0.69083 0.30762 1.02854
 C20 C 0.67403 0.29076 1.01485
 C21 C 0.67519 0.29006 0.98741
 C22 C 0.69306 0.30631 0.97440
 H23 H 0.69350 0.30614 0.95331
 H24 H 0.69001 0.30737 1.04961
 C25 C 0.29643 0.66933 0.98572
 C26 C 0.29358 0.67170 1.01315
 C27 C 0.30888 0.69059 1.02622
 C28 C 0.32811 0.70571 1.01330
 C29 C 0.33057 0.70307 0.98586
 C30 C 0.31482 0.68495 0.97266
 H31 H 0.31613 0.68375 0.95163
 H32 H 0.30786 0.69150 1.04726
 C33 C 0.01432 0.29260 0.32564
 C34 C -0.01361 0.29236 0.32537
 C35 C -0.02714 0.30916 0.30845
 C36 C -0.01353 0.32633 0.29198
 C37 C 0.01439 0.32629 0.29196
 C38 C 0.02793 0.30934 0.30873
 H39 H 0.04932 0.30953 0.30897
 H40 H -0.04853 0.30921 0.30844
 C41 C 0.01196 0.70735 0.67472
 C42 C -0.01611 0.70778 0.67483
 C43 C -0.02950 0.69014 0.69126
 C44 C -0.01608 0.67206 0.70718
 C45 C 0.01199 0.67232 0.70712
 C46 C 0.02541 0.68994 0.69102
 H47 H 0.04682 0.68982 0.69087
 H48 H -0.05087 0.69022 0.69136
 C49 C 0.98391 0.70885 0.32549
 C50 C 1.01175 0.70803 0.32644
 C51 C 1.02547 0.69135 0.30958
 C52 C 1.01226 0.67505 0.29171
 C53 C 0.98413 0.67566 0.29125
 C54 C 0.97052 0.69272 0.30789
 H55 H 0.94912 0.69292 0.30766
 H56 H 1.04685 0.69157 0.31021
 C57 C 0.98681 0.29396 0.67095
 C58 C 1.01492 0.29332 0.67152
 C59 C 1.02808 0.30909 0.68989
 C60 C 1.01433 0.32602 0.70650
 C61 C 0.98649 0.32689 0.70540
 C62 C 0.97315 0.31064 0.68792
 H63 H 0.95176 0.31107 0.68742
 H64 H 1.04946 0.30933 0.69052
 C65 C 0.32228 0.01085 0.28990
 C66 C 0.32474 -0.01670 0.29230
 C67 C 0.30909 -0.02958 0.31100
 C68 C 0.29067 -0.01627 0.32670
 C69 C 0.28851 0.01127 0.32397
 C70 C 0.30395 0.02421 0.30537
 H71 H 0.30304 0.04533 0.30424
 H72 H 0.30972 -0.05070 0.31185
 C73 C 0.67390 0.01603 0.70798
 C74 C 0.67501 -0.01156 0.70900
 C75 C 0.69274 -0.02493 0.69283
 C76 C 0.70879 -0.01153 0.67505
 C77 C 0.70771 0.01606 0.67406
 C78 C 0.69027 0.02944 0.69051
 H79 H 0.68967 0.05059 0.68996
 H80 H 0.69313 -0.04609 0.69317
 C81 C 0.33113 0.98672 0.70223
 C82 C 0.32862 1.01424 0.70496
 C83 C 0.30969 1.02727 0.68959
 C84 C 0.29468 1.01422 0.67046
 C85 C 0.29748 0.98670 0.66810
 C86 C 0.31563 0.97355 0.68391
 H87 H 0.31693 0.95245 0.68269
 H88 H 0.30871 1.04837 0.69053
 C89 C 0.67279 0.98605 0.29387
 C90 C 0.67402 1.01358 0.29299
 C91 C 0.69143 1.02678 0.30962
 C92 C 0.70729 1.01338 0.32780
 C93 C 0.70619 0.98558 0.32822
 C94 C 0.68906 0.97247 0.31122
 H95 H 0.68831 0.95132 0.31157
 H96 H 0.69153 1.04793 0.30915
 O97 O 0.88480 0.84858 0.47623
 O98 O 0.84828 0.88517 0.52640
 O99 O 0.88465 0.84912 0.52697
 O100 O 0.84856 0.88465 0.47574
 O101 O 0.81766 0.85420 0.47598
 O102 O 0.85370 0.81872 0.52713
 O103 O 0.81738 0.85471 0.52657
 O104 O 0.85385 0.81817 0.47647
 Cu105 Cu 0.86971 0.86994 0.50133
 Cu106 Cu 0.83255 0.83337 0.50157
 C107 C 0.87545 0.82721 0.46786
 C108 C 0.82662 0.87614 0.53489
 C109 C 0.87526 0.82790 0.53568
 C110 C 0.82700 0.87542 0.46724
 O111 O 0.11986 0.15611 0.47426
 O112 O 0.15630 0.12019 0.52482
 O113 O 0.12035 0.15663 0.52478
 O114 O 0.15590 0.11980 0.47420
 O115 O 0.18708 0.14999 0.47367
 O116 O 0.15153 0.18681 0.52425
 O117 O 0.18749 0.15037 0.52430
 O118 O 0.15104 0.18630 0.47373
 Cu119 Cu 0.13497 0.13512 0.49958
 Cu120 Cu 0.17244 0.17140 0.49894
 C121 C 0.12923 0.17734 0.46556
 C122 C 0.17808 0.12917 0.53303
 C123 C 0.12986 0.17801 0.53294
 C124 C 0.17752 0.12866 0.46544
 O125 O 0.11689 0.84441 0.52652
 O126 O 0.15214 0.88114 0.47562
 O127 O 0.11612 0.84476 0.47598
 O128 O 0.15290 0.88087 0.52623
 O129 O 0.18406 0.85067 0.52558
 O130 O 0.14730 0.81457 0.47536
 O131 O 0.18329 0.85092 0.47501
 O132 O 0.14808 0.81422 0.52587
 Cu133 Cu 0.13137 0.86585 0.50117
 Cu134 Cu 0.16884 0.82957 0.50040
 C135 C 0.12645 0.82303 0.53465
 C136 C 0.17372 0.87225 0.46678
 C137 C 0.12544 0.82350 0.46728
 C138 C 0.17476 0.87192 0.53429
 O139 O 0.88508 0.15177 0.52425
 O140 O 0.84800 0.11594 0.47398
 O141 O 0.88483 0.15157 0.47355
 O142 O 0.84851 0.11606 0.52455
 O143 O 0.81791 0.14684 0.52463
 O144 O 0.85421 0.18231 0.47369
 O145 O 0.81743 0.14674 0.47413
 O146 O 0.85444 0.18250 0.52432
 Cu147 Cu 0.86972 0.13074 0.49904
 Cu148 Cu 0.83293 0.16772 0.49918
 C149 C 0.87597 0.17319 0.53278
 C150 C 0.82637 0.12523 0.46570
 C151 C 0.87568 0.17297 0.46506
 C152 C 0.82704 0.12543 0.53314
 O153 O 0.47451 0.88378 0.84709
 O154 O 0.52598 0.84873 0.88369
 O155 O 0.52582 0.88449 0.84759
 O156 O 0.47466 0.84786 0.88310
 O157 O 0.47551 0.81725 0.85279
 O158 O 0.52661 0.85382 0.81733
 O159 O 0.52677 0.81811 0.85338
 O160 O 0.47536 0.85312 0.81682
 Cu161 Cu 0.50015 0.86931 0.86843
 Cu162 Cu 0.50113 0.83248 0.83203
 C163 C 0.46635 0.87443 0.82571
 C164 C 0.53500 0.82746 0.87474
 C165 C 0.53478 0.87536 0.82641
 C166 C 0.46654 0.82631 0.87397
 O167 O 0.52366 0.15193 0.11734
 O168 O 0.47282 0.11574 0.15378
 O169 O 0.47240 0.15208 0.11819
 O170 O 0.52424 0.11542 0.15276
 O171 O 0.52490 0.14561 0.18348
 O172 O 0.47311 0.18224 0.14895
 O173 O 0.47353 0.14593 0.18450
 O174 O 0.52432 0.18209 0.14810
 Cu175 Cu 0.49821 0.13072 0.13244
 Cu176 Cu 0.49904 0.16698 0.16938
 C177 C 0.53244 0.17322 0.12650
 C178 C 0.46463 0.12472 0.17532
 C179 C 0.46415 0.17344 0.12765
 C180 C 0.53328 0.12432 0.17399
 O181 O 0.52359 0.11706 0.84801
 O182 O 0.47235 0.15356 0.88360
 O183 O 0.47229 0.11793 0.84726
 O184 O 0.52372 0.15250 0.88439
 O185 O 0.52471 0.18339 0.85437
 O186 O 0.47331 0.14883 0.81725
 O187 O 0.47339 0.18443 0.85356
 O188 O 0.52457 0.14799 0.81802
 Cu189 Cu 0.49785 0.13215 0.86885
 Cu190 Cu 0.49908 0.16928 0.83279
 C191 C 0.53267 0.12635 0.82695
 C192 C 0.46431 0.17521 0.87463
 C193 C 0.46425 0.12745 0.82590
 C194 C 0.53288 0.17380 0.87565
 O195 O 0.47436 0.84441 0.11857
 O196 O 0.52494 0.88111 0.15472
 O197 O 0.52569 0.84492 0.11895
 O198 O 0.47368 0.88055 0.15425
 O199 O 0.47376 0.85014 0.18478
 O200 O 0.52575 0.81453 0.14949
 O201 O 0.52501 0.85071 0.18525
 O202 O 0.47444 0.81402 0.14911
 Cu203 Cu 0.49968 0.86580 0.13353
 Cu204 Cu 0.49977 0.82928 0.17023
 C205 C 0.46590 0.82300 0.12772
 C206 C 0.53338 0.87218 0.17618
 C207 C 0.53440 0.82364 0.12820
 C208 C 0.46503 0.87140 0.17553
 O209 O 0.88068 0.52376 0.84413
 O210 O 0.84508 0.47317 0.88105
 O211 O 0.88085 0.47307 0.84447
 O212 O 0.84515 0.52392 0.88087
 O213 O 0.81366 0.52374 0.85110
 O214 O 0.84938 0.47289 0.81468
 O215 O 0.81361 0.47300 0.85125
 O216 O 0.84917 0.52356 0.81437
 Cu217 Cu 0.86611 0.49849 0.86565
 Cu218 Cu 0.82827 0.49827 0.82986
 C219 C 0.87100 0.53208 0.82294
 C220 C 0.82326 0.46465 0.87244
 C221 C 0.87124 0.46454 0.82334
 C222 C 0.82333 0.53234 0.87219
 O223 O 0.15156 0.47665 0.11707
 O224 O 0.11465 0.52754 0.15231
 O225 O 0.15150 0.52739 0.11688
 O226 O 0.11482 0.47667 0.15258
 O227 O 0.14536 0.47691 0.18330
 O228 O 0.18200 0.52758 0.14765
 O229 O 0.14519 0.52772 0.18303
 O230 O 0.18207 0.47689 0.14783
 Cu231 Cu 0.13003 0.50205 0.13163
 Cu232 Cu 0.16670 0.50230 0.16857
 C233 C 0.17311 0.46827 0.12646
 C234 C 0.12369 0.53620 0.17363
 C235 C 0.17302 0.53594 0.12619
 C236 C 0.12392 0.46823 0.17398
 O237 O 0.88218 0.47482 0.15445
 O238 O 0.84601 0.52511 0.11778
 O239 O 0.88142 0.52551 0.15461
 O240 O 0.84670 0.47425 0.11776
 O241 O 0.81512 0.47381 0.14744
 O242 O 0.84979 0.52502 0.18426
 O243 O 0.81440 0.52464 0.14744
 O244 O 0.85058 0.47435 0.18412
 Cu245 Cu 0.86724 0.49998 0.13313
 Cu246 Cu 0.82926 0.49942 0.16878
 C247 C 0.87255 0.46619 0.17553
 C248 C 0.82408 0.53334 0.12640
 C249 C 0.87154 0.53379 0.17574
 C250 C 0.82503 0.46538 0.12640
 O251 O 0.15155 0.52512 0.88370
 O252 O 0.11459 0.47424 0.84854
 O253 O 0.15159 0.47436 0.88383
 O254 O 0.11470 0.52512 0.84831
 O255 O 0.14515 0.52495 0.81750
 O256 O 0.18199 0.47426 0.85297
 O257 O 0.14505 0.47414 0.81773
 O258 O 0.18195 0.52495 0.85284
 Cu259 Cu 0.13002 0.49972 0.86919
 Cu260 Cu 0.16657 0.49955 0.83213
 C261 C 0.17305 0.53354 0.87425
 C262 C 0.12359 0.46562 0.82717
 C263 C 0.17309 0.46584 0.87445
 C264 C 0.12372 0.53360 0.82689
 C265 C 0.27344 0.38339 0.06283
 C266 C 0.24598 0.38194 0.06031
 C267 C 0.23475 0.36364 0.04339
 C268 C 0.25093 0.34704 0.02883
 C269 C 0.27853 0.34878 0.03089
 C270 C 0.28964 0.36685 0.04828
 C271 C 0.22947 0.39964 0.07471
 C272 C 0.21600 0.41484 0.08669
 C273 C 0.20064 0.43306 0.10063
 C274 C 0.18787 0.44896 0.11246
 H275 H 0.28234 0.39748 0.07587
 H276 H 0.21352 0.36232 0.04133
 H277 H 0.24197 0.33301 0.01579
 H278 H 0.31086 0.36847 0.05018
 C279 C 0.75907 0.64784 0.06060
 C280 C 0.75533 0.62093 0.05760
 C281 C 0.73646 0.61167 0.04000
 C282 C 0.72139 0.62920 0.02545
 C283 C 0.72518 0.65623 0.02818
 C284 C 0.74401 0.66542 0.04601
 C285 C 0.77063 0.60274 0.07267
 C286 C 0.78320 0.58721 0.08517
 C287 C 0.79766 0.56871 0.09967
 C288 C 0.80982 0.55268 0.11194
 H289 H 0.77358 0.65521 0.07421
 H290 H 0.73331 0.59089 0.03762
 H291 H 0.70666 0.62171 0.01215
 H292 H 0.74714 0.68618 0.04847
 C293 C 0.73625 0.38700 0.96066
 C294 C 0.75442 0.37788 0.94225
 C295 C 0.75777 0.35101 0.93864
 C296 C 0.74313 0.33330 0.95346
 C297 C 0.72513 0.34233 0.97220
 C298 C 0.72159 0.36933 0.97548
 C299 C 0.76955 0.39612 0.92705
 C300 C 0.78214 0.41150 0.91438
 C301 C 0.79673 0.42971 0.89964
 C302 C 0.80898 0.44550 0.88715
 H303 H 0.73342 0.40776 0.96354
 H304 H 0.77172 0.34374 0.92440
 H305 H 0.74603 0.31257 0.95057
 H306 H 0.70752 0.37666 0.98956
 C307 C 0.27366 0.61807 0.93763
 C308 C 0.24621 0.61976 0.94011
 C309 C 0.23508 0.63818 0.95697
 C310 C 0.25137 0.65463 0.97155
 C311 C 0.27896 0.65263 0.96957
 C312 C 0.28996 0.63447 0.95221
 C313 C 0.22960 0.60213 0.92576
 C314 C 0.21605 0.58696 0.91384
 C315 C 0.20062 0.56876 0.89998
 C316 C 0.18782 0.55286 0.88820
 H317 H 0.28247 0.60388 0.92464
 H318 H 0.21386 0.63968 0.95899
 H319 H 0.24250 0.66874 0.98458
 H320 H 0.31117 0.63264 0.95037
 C321 C 0.04038 0.26383 0.38847
 C322 C 0.05956 0.24652 0.37916
 C323 C 0.06396 0.24431 0.35236
 C324 C 0.04921 0.25933 0.33493
 C325 C 0.02982 0.27659 0.34414
 C326 C 0.02565 0.27887 0.37107
 C327 C 0.07482 0.23122 0.39715
 C328 C 0.08752 0.21857 0.41244
 C329 C 0.10225 0.20397 0.43061
 C330 C 0.11468 0.19169 0.44640
 H331 H 0.03690 0.26577 0.40917
 H332 H 0.07880 0.23102 0.34496
 H333 H 0.05276 0.25738 0.31424
 H334 H 0.01108 0.29238 0.37858
 C335 C 0.03903 0.73482 0.61166
 C336 C 0.05821 0.75216 0.62089
 C337 C 0.06258 0.75450 0.64768
 C338 C 0.04766 0.73974 0.66519
 C339 C 0.02808 0.72264 0.65606
 C340 C 0.02411 0.72003 0.62914
 C341 C 0.07328 0.76763 0.60286
 C342 C 0.08575 0.78056 0.58762
 C343 C 0.10016 0.79559 0.56952
 C344 C 0.11228 0.80826 0.55379
 H345 H 0.03556 0.73278 0.59096
 H346 H 0.07741 0.76782 0.65502
 H347 H 0.05107 0.74192 0.68587
 H348 H 0.00935 0.70668 0.62172
 C349 C 0.95888 0.76848 0.36163
 C350 C 0.94022 0.75723 0.37831
 C351 C 0.93528 0.73039 0.37707
 C352 C 0.94919 0.71476 0.35951
 C353 C 0.96830 0.72582 0.34307
 C354 C 0.97279 0.75286 0.34402
 C355 C 0.92645 0.77304 0.39705
 C356 C 0.91489 0.78592 0.41303
 C357 C 0.90128 0.80062 0.43198
 C358 C 0.88956 0.81290 0.44832
 H359 H 0.96282 0.78924 0.36238
 H360 H 0.92089 0.72148 0.38988
 H361 H 0.94548 0.69395 0.35913
 H362 H 0.98724 0.76180 0.33131
 C363 C 0.93772 0.27098 0.62043
 C364 C 0.94195 0.24399 0.62063
 C365 C 0.96022 0.23314 0.63797
 C366 C 0.97451 0.24929 0.65478
 C367 C 0.97081 0.27648 0.65419
 C368 C 0.95200 0.28714 0.63716
 C369 C 0.92793 0.22765 0.60256
 C370 C 0.91615 0.21448 0.58700
 C371 C 0.90229 0.19960 0.56838
 C372 C 0.89035 0.18733 0.55223
 H373 H 0.92363 0.27957 0.60709
 H374 H 0.96359 0.21227 0.63833
 H375 H 0.98871 0.24068 0.66798
 H376 H 0.94886 0.30803 0.63642
 C377 C 0.38596 0.03929 0.26355
 C378 C 0.37650 0.05677 0.24483
 C379 C 0.34927 0.05955 0.24109
 C380 C 0.33158 0.04474 0.25587
 C381 C 0.34099 0.02685 0.27439
 C382 C 0.36833 0.02450 0.27834
 C383 C 0.39480 0.07175 0.22948
 C384 C 0.41042 0.08410 0.21677
 C385 C 0.42902 0.09838 0.20209
 C386 C 0.44515 0.11046 0.18975
 H387 H 0.40698 0.03706 0.26670
 H388 H 0.34173 0.07308 0.22670
 H389 H 0.31058 0.04693 0.25264
 H390 H 0.37597 0.01113 0.29281
 C391 C 0.63883 0.04216 0.76777
 C392 C 0.62104 0.05978 0.75654
 C393 C 0.62090 0.06341 0.72955
 C394 C 0.63831 0.04933 0.71382
 C395 C 0.65597 0.03137 0.72490
 C396 C 0.65628 0.02808 0.75205
 C397 C 0.60270 0.07398 0.77255
 C398 C 0.58705 0.08592 0.78560
 C399 C 0.56841 0.09996 0.80044
 C400 C 0.55223 0.11199 0.81275
 H401 H 0.63914 0.03926 0.78864
 H402 H 0.60722 0.07698 0.72065
 H403 H 0.63772 0.05213 0.69294
 H404 H 0.66997 0.01458 0.76101
 C405 C 0.36161 0.95789 0.76324
 C406 C 0.38035 0.94089 0.75258
 C407 C 0.38252 0.93842 0.72555
 C408 C 0.36626 0.95310 0.70921
 C409 C 0.34777 0.97058 0.71975
 C410 C 0.34530 0.97258 0.74691
 C411 C 0.39781 0.92638 0.76924
 C412 C 0.41287 0.91432 0.78281
 C413 C 0.43102 0.90030 0.79823
 C414 C 0.44693 0.88843 0.81100
 H415 H 0.35974 0.95991 0.78414
 H416 H 0.39696 0.92533 0.71711
 H417 H 0.36845 0.95125 0.68833
 H418 H 0.33092 0.98569 0.75541
 C419 C 0.60952 0.96100 0.26354
 C420 C 0.61921 0.94176 0.24670
 C421 C 0.64637 0.93702 0.24533
 C422 C 0.66380 0.95147 0.26070
 C423 C 0.65423 0.97090 0.27750
 C424 C 0.62693 0.97544 0.27894
 C425 C 0.60124 0.92672 0.23107
 C426 C 0.58605 0.91410 0.21814
 C427 C 0.56805 0.89937 0.20322
 C428 C 0.55240 0.88688 0.19072
 H429 H 0.58852 0.96474 0.26484
 H430 H 0.65407 0.92214 0.23242
 H431 H 0.68478 0.94765 0.25939
 H432 H 0.61912 0.99007 0.29206
 C433 C 0.38813 0.26098 0.96391
 C434 C 0.37822 0.24684 0.94283
 C435 C 0.35149 0.24874 0.93639
 C436 C 0.33467 0.26459 0.95109
 C437 C 0.34424 0.27861 0.97279
 C438 C 0.37141 0.27682 0.97864
 C439 C 0.39571 0.23076 0.92766
 C440 C 0.41081 0.21756 0.91521
 C441 C 0.42899 0.20243 0.90087
 C442 C 0.44491 0.18982 0.88881
 H443 H 0.40890 0.26002 0.96880
 H444 H 0.34361 0.23792 0.92004
 H445 H 0.31396 0.26514 0.94593
 H446 H 0.38009 0.28841 0.99399
 C447 C 0.62669 0.73128 0.93457
 C448 C 0.62319 0.75735 0.94172
 C449 C 0.63705 0.76748 0.96294
 C450 C 0.65408 0.75149 0.97721
 C451 C 0.65732 0.72490 0.97071
 C452 C 0.64368 0.71523 0.94877
 C453 C 0.60501 0.77347 0.92746
 C454 C 0.58944 0.78652 0.91544
 C455 C 0.57083 0.80128 0.90129
 C456 C 0.55463 0.81346 0.88918
 H457 H 0.61601 0.72322 0.91817
 H458 H 0.63474 0.78776 0.96844
 H459 H 0.66522 0.76023 0.99290
 H460 H 0.64516 0.69492 0.94315
 C461 C 0.35283 0.75108 0.06493
 C462 C 0.37963 0.75256 0.05865
 C463 C 0.38942 0.73843 0.03752
 C464 C 0.37252 0.72299 0.02258
 C465 C 0.34530 0.72161 0.02828
 C466 C 0.33583 0.73564 0.05003
 C467 C 0.39727 0.76823 0.07402
 C468 C 0.41246 0.78114 0.08666
 C469 C 0.43069 0.79599 0.10119
 C470 C 0.44659 0.80844 0.11340
 H471 H 0.34504 0.76192 0.08132
 H472 H 0.41023 0.73907 0.03274
 H473 H 0.38109 0.71137 0.00718
 H474 H 0.31509 0.73540 0.05508
 C475 C 0.64651 0.24192 0.06302
 C476 C 0.61937 0.24395 0.05833
 C477 C 0.61007 0.26141 0.03949
 C478 C 0.62781 0.27675 0.02536
 C479 C 0.65508 0.27462 0.02982
 C480 C 0.66428 0.25722 0.04888
 C481 C 0.60107 0.22830 0.07300
 C482 C 0.58565 0.21532 0.08530
 C483 C 0.56741 0.20034 0.09971
 C484 C 0.55161 0.18779 0.11198
 H485 H 0.65392 0.22852 0.07759
 H486 H 0.58911 0.26323 0.03579
 H487 H 0.62031 0.29031 0.01100
 H488 H 0.68522 0.25535 0.05262
 C489 C 0.24910 0.06599 0.64546
 C490 C 0.24798 0.05969 0.61903
 C491 C 0.26235 0.03844 0.60958
 C492 C 0.27770 0.02344 0.62646
 C493 C 0.27876 0.02919 0.65330
 C494 C 0.26445 0.05101 0.66244
 C495 C 0.23244 0.07518 0.60141
 C496 C 0.21966 0.08792 0.58627
 C497 C 0.20494 0.10257 0.56812
 C498 C 0.19257 0.11485 0.55228
 H499 H 0.23806 0.08245 0.65298
 H500 H 0.26197 0.03365 0.58905
 H501 H 0.28955 0.00797 0.61817
 H502 H 0.26442 0.05609 0.68288
 C503 C 0.74016 0.03564 0.38915
 C504 C 0.75392 0.05755 0.38034
 C505 C 0.75185 0.06514 0.35430
 C506 C 0.73634 0.05069 0.33704
 C507 C 0.72285 0.02810 0.34545
 C508 C 0.72464 0.02115 0.37197
 C509 C 0.76994 0.07235 0.39811
 C510 C 0.78325 0.08462 0.41320
 C511 C 0.79861 0.09887 0.43114
 C512 C 0.81147 0.11095 0.44674
 H513 H 0.74125 0.02985 0.40940
 H514 H 0.76237 0.08215 0.34728
 H515 H 0.73574 0.05673 0.31687
 H516 H 0.71338 0.00501 0.37975
 C517 C 0.73755 0.96207 0.61231
 C518 C 0.75600 0.94405 0.62169
 C519 C 0.75888 0.94039 0.64854
 C520 C 0.74344 0.95480 0.66594
 C521 C 0.72510 0.97310 0.65664
 C522 C 0.72210 0.97644 0.62967
 C523 C 0.77178 0.92925 0.60367
 C524 C 0.78475 0.91697 0.58829
 C525 C 0.79965 0.90269 0.56996
 C526 C 0.81211 0.89056 0.55407
 H527 H 0.73505 0.96495 0.59158
 H528 H 0.77305 0.92645 0.65600
 H529 H 0.74597 0.95188 0.68666
 H530 H 0.70776 0.99013 0.62208
 C531 C 0.26958 0.93324 0.37504
 C532 C 0.24317 0.93999 0.37898
 C533 C 0.23224 0.96093 0.36529
 C534 C 0.24774 0.97526 0.34790
 C535 C 0.27463 0.96911 0.34409
 C536 C 0.28513 0.94751 0.35769
 C537 C 0.22743 0.92550 0.39727
 C538 C 0.21459 0.91330 0.41282
 C539 C 0.19995 0.89899 0.43132
 C540 C 0.18779 0.88677 0.44737
 H541 H 0.27827 0.91707 0.38558
 H542 H 0.21169 0.96611 0.36793
 H543 H 0.23833 0.99066 0.33689
 H544 H 0.30572 0.94218 0.35577
 C545 C 0.03886 0.36032 0.76730
 C546 C 0.05761 0.37738 0.75674
 C547 C 0.06264 0.37710 0.72998
 C548 C 0.04879 0.36008 0.71376
 C549 C 0.02966 0.34320 0.72412
 C550 C 0.02499 0.34323 0.75107
 C551 C 0.07146 0.39555 0.77313
 C552 C 0.08321 0.41117 0.78628
 C553 C 0.09713 0.42984 0.80106
 C554 C 0.10914 0.44605 0.81322
 H555 H 0.03484 0.36036 0.78799
 H556 H 0.07709 0.39022 0.72161
 H557 H 0.05262 0.36041 0.69303
 H558 H 0.01050 0.33018 0.75946
 C559 C 0.03472 0.63782 0.23296
 C560 C 0.05676 0.62480 0.24289
 C561 C 0.06462 0.62917 0.26857
 C562 C 0.05023 0.64608 0.28447
 C563 C 0.02738 0.65874 0.27508
 C564 C 0.02026 0.65477 0.24881
 C565 C 0.07106 0.60648 0.22701
 C566 C 0.08306 0.59079 0.21417
 C567 C 0.09716 0.57205 0.19962
 C568 C 0.10925 0.55580 0.18757
 H569 H 0.02867 0.63485 0.21297
 H570 H 0.08167 0.61916 0.27647
 H571 H 0.05638 0.64818 0.30453
 H572 H 0.00386 0.66518 0.24023
 C573 C 0.93724 0.35297 0.24335
 C574 C 0.94141 0.37988 0.24573
 C575 C 0.96022 0.38929 0.26332
 C576 C 0.97485 0.37187 0.27845
 C577 C 0.97096 0.34484 0.27598
 C578 C 0.95190 0.33553 0.25846
 C579 C 0.92632 0.39788 0.23025
 C580 C 0.91378 0.41317 0.21744
 C581 C 0.89924 0.43133 0.20262
 C582 C 0.88696 0.44710 0.19015
 H583 H 0.92269 0.34550 0.22983
 H584 H 0.96351 0.41007 0.26539
 H585 H 0.98916 0.37946 0.29214
 H586 H 0.94857 0.31476 0.25635
 C587 C 0.96162 0.60993 0.73866
 C588 C 0.93908 0.61838 0.75187
 C589 C 0.93108 0.64440 0.74986
 C590 C 0.94573 0.66202 0.73496
 C591 C 0.96895 0.65400 0.72203
 C592 C 0.97633 0.62749 0.72375
 C593 C 0.92412 0.60029 0.76739
 C594 C 0.91172 0.58501 0.78036
 C595 C 0.89735 0.56690 0.79543
 C596 C 0.88523 0.55118 0.80813
 H597 H 0.96776 0.58971 0.73973
 H598 H 0.91360 0.65114 0.75998
 H599 H 0.93937 0.68219 0.73445
 H600 H 0.99301 0.62001 0.71294
 C601 C 0.72652 0.62001 0.93797
 C602 C 0.75399 0.61964 0.94080
 C603 C 0.76621 0.63690 0.95814
 C604 C 0.75100 0.65442 0.97264
 C605 C 0.72340 0.65471 0.97006
 C606 C 0.71130 0.63748 0.95247
 C607 C 0.76953 0.60143 0.92598
 C608 C 0.78227 0.58598 0.91354
 C609 C 0.79687 0.56761 0.89901
 C610 C 0.80909 0.55167 0.88669
 H611 H 0.71687 0.60673 0.92462
 H612 H 0.78745 0.63682 0.96043
 H613 H 0.76075 0.66778 0.98583
 H614 H 0.69006 0.63739 0.95020
 C615 C 0.24685 0.35384 0.93613
 C616 C 0.24539 0.38035 0.94242
 C617 C 0.25997 0.39006 0.96334
 C618 C 0.27576 0.37336 0.97811
 C619 C 0.27706 0.34642 0.97248
 C620 C 0.26266 0.33704 0.95088
 C621 C 0.22923 0.39778 0.92729
 C622 C 0.21592 0.41280 0.91488
 C623 C 0.20064 0.43085 0.90061
 C624 C 0.18788 0.44663 0.88859
 H625 H 0.23569 0.34612 0.91990
 H626 H 0.25935 0.41065 0.96811
 H627 H 0.28769 0.38185 0.99337
 H628 H 0.26284 0.31652 0.94586
 C629 C 0.25977 0.61130 0.03699
 C630 C 0.24525 0.62110 0.05792
 C631 C 0.24690 0.64759 0.06424
 C632 C 0.26286 0.66427 0.04954
 C633 C 0.27724 0.65480 0.02797
 C634 C 0.27572 0.62788 0.02227
 C635 C 0.22904 0.60377 0.07307
 C636 C 0.21572 0.58883 0.08553
 C637 C 0.20045 0.57086 0.09988
 C638 C 0.18773 0.55512 0.11197
 H639 H 0.25901 0.59072 0.03221
 H640 H 0.23578 0.65537 0.08048
 H641 H 0.26321 0.68478 0.05460
 H642 H 0.28761 0.61932 0.00702
 C643 C 0.73095 0.37058 0.06743
 C644 C 0.75700 0.37542 0.05994
 C645 C 0.76755 0.36251 0.03836
 C646 C 0.75196 0.34521 0.02400
 C647 C 0.72531 0.34077 0.03074
 C648 C 0.71530 0.35333 0.05313
 C649 C 0.77260 0.39409 0.07413
 C650 C 0.78521 0.41006 0.08604
 C651 C 0.79949 0.42909 0.10004
 C652 C 0.81133 0.44556 0.11204
 H653 H 0.72257 0.38049 0.08411
 H654 H 0.78784 0.36582 0.03260
 H655 H 0.76104 0.33490 0.00796
 H656 H 0.69493 0.35088 0.05899
 C657 C 0.93182 0.73223 0.62940
 C658 C 0.94024 0.75781 0.62499
 C659 C 0.96247 0.76732 0.63800
 C660 C 0.97659 0.75111 0.65490
 C661 C 0.96895 0.72490 0.65883
 C662 C 0.94587 0.71597 0.64625
 C663 C 0.92640 0.77396 0.60657
 C664 C 0.91478 0.78697 0.59074
 C665 C 0.90110 0.80169 0.57183
 C666 C 0.88935 0.81385 0.55543
 H667 H 0.91463 0.72465 0.61941
 H668 H 0.96898 0.78723 0.63501
 H669 H 0.99321 0.75934 0.66524
 H670 H 0.93932 0.69597 0.64831
 C671 C 0.96088 0.23220 0.36030
 C672 C 0.94221 0.24324 0.37711
 C673 C 0.93762 0.27016 0.37654
 C674 C 0.95179 0.28605 0.35944
 C675 C 0.97083 0.27518 0.34279
 C676 C 0.97507 0.24808 0.34315
 C677 C 0.92802 0.22714 0.39528
 C678 C 0.91607 0.21411 0.41084
 C679 C 0.90202 0.19934 0.42941
 C680 C 0.89000 0.18710 0.44555
 H681 H 0.96456 0.21137 0.36056
 H682 H 0.92324 0.27891 0.38947
 H683 H 0.94826 0.30690 0.35951
 H684 H 0.98944 0.23928 0.33026
 C685 C 0.06830 0.25052 0.64487
 C686 C 0.06079 0.24854 0.61879
 C687 C 0.03835 0.26173 0.61001
 C688 C 0.02329 0.27661 0.62726
 C689 C 0.03017 0.27833 0.65382
 C690 C 0.05328 0.26540 0.66220
 C691 C 0.07613 0.23313 0.60094
 C692 C 0.08879 0.22028 0.58578
 C693 C 0.10337 0.20535 0.56773
 C694 C 0.11560 0.19276 0.55203
 H695 H 0.08569 0.24043 0.65187
 H696 H 0.03260 0.26069 0.58974
 H697 H 0.00676 0.28746 0.61951
 H698 H 0.05929 0.26594 0.68241
 C699 C 0.03714 0.73634 0.38979
 C700 C 0.05629 0.75384 0.38078
 C701 C 0.06096 0.75623 0.35405
 C702 C 0.04648 0.74125 0.33637
 C703 C 0.02710 0.72382 0.34527
 C704 C 0.02267 0.72132 0.37213
 C705 C 0.07126 0.76919 0.39899
 C706 C 0.08378 0.78193 0.41435
 C707 C 0.09840 0.79667 0.43251
 C708 C 0.11081 0.80906 0.44824
 H709 H 0.03345 0.73425 0.41044
 H710 H 0.07576 0.76968 0.34688
 H711 H 0.05020 0.74340 0.31573
 H712 H 0.00807 0.70772 0.37940
 C713 C 0.64926 0.94028 0.75884
 C714 C 0.62196 0.94380 0.75644
 C715 C 0.61203 0.96177 0.73843
 C716 C 0.62929 0.97623 0.72292
 C717 C 0.65671 0.97303 0.72541
 C718 C 0.66657 0.95478 0.74334
 C719 C 0.60403 0.92885 0.77222
 C720 C 0.58866 0.91646 0.78514
 C721 C 0.57027 0.90206 0.79992
 C722 C 0.55424 0.88984 0.81221
 H723 H 0.65714 0.92636 0.77267
 H724 H 0.59095 0.96454 0.73631
 H725 H 0.62129 0.98988 0.70890
 H726 H 0.68763 0.95197 0.74547
 C727 C 0.36232 0.95944 0.23416
 C728 C 0.37636 0.93859 0.24492
 C729 C 0.37286 0.93217 0.27110
 C730 C 0.35567 0.94672 0.28662
 C731 C 0.34181 0.96828 0.27629
 C732 C 0.34509 0.97405 0.24961
 C733 C 0.39467 0.92399 0.22925
 C734 C 0.41032 0.91180 0.21645
 C735 C 0.42900 0.89760 0.20182
 C736 C 0.44527 0.88557 0.18965
 H737 H 0.36462 0.96437 0.21379
 H738 H 0.38368 0.91607 0.27964
 H739 H 0.35414 0.94167 0.30702
 H740 H 0.33381 0.98940 0.24039
 C741 C 0.62294 0.06237 0.27026
 C742 C 0.62239 0.05766 0.24344
 C743 C 0.63928 0.03893 0.23262
 C744 C 0.65646 0.02480 0.24861
 C745 C 0.65675 0.02915 0.27561
 C746 C 0.64004 0.04825 0.28624
 C747 C 0.60408 0.07178 0.22730
 C748 C 0.58835 0.08372 0.21434
 C749 C 0.56952 0.09780 0.19975
 C750 C 0.55313 0.10989 0.18776
 H751 H 0.60994 0.07679 0.27884
 H752 H 0.63904 0.03515 0.21189
 H753 H 0.66937 0.01035 0.24000
 H754 H 0.63990 0.05185 0.30700
 C755 C 0.35224 0.06573 0.75114
 C756 C 0.37900 0.05944 0.75320
 C757 C 0.38915 0.03837 0.73914
 C758 C 0.37264 0.02351 0.72323
 C759 C 0.34544 0.02920 0.72128
 C760 C 0.33563 0.05089 0.73522
 C761 C 0.39625 0.07471 0.76941
 C762 C 0.41116 0.08721 0.78277
 C763 C 0.42914 0.10154 0.79813
 C764 C 0.44492 0.11352 0.81097
 H765 H 0.34417 0.08207 0.76190
 H766 H 0.40994 0.03359 0.74023
 H767 H 0.38150 0.00817 0.71172
 H768 H 0.31489 0.05595 0.73454
 C769 C 0.64967 0.75779 0.06273
 C770 C 0.62240 0.75463 0.05966
 C771 C 0.61270 0.73658 0.04161
 C772 C 0.63016 0.72185 0.02655
 C773 C 0.65755 0.72521 0.02922
 C774 C 0.66718 0.74307 0.04765
 C775 C 0.60429 0.76990 0.07494
 C776 C 0.58879 0.78254 0.08750
 C777 C 0.57025 0.79712 0.10195
 C778 C 0.55408 0.80937 0.11406
 H779 H 0.65739 0.77166 0.07669
 H780 H 0.59165 0.73390 0.03916
 H781 H 0.62235 0.70788 0.01275
 H782 H 0.68822 0.74582 0.05008
 C783 C 0.38062 0.27419 0.06361
 C784 C 0.37851 0.24707 0.06109
 C785 C 0.35996 0.23639 0.04394
 C786 C 0.34377 0.25279 0.02917
 C787 C 0.34616 0.28005 0.03124
 C788 C 0.36448 0.29060 0.04885
 C789 C 0.39586 0.23032 0.07569
 C790 C 0.41082 0.21667 0.08781
 C791 C 0.42886 0.20113 0.10186
 C792 C 0.44472 0.18826 0.11373
 H793 H 0.39492 0.28265 0.07681
 H794 H 0.35814 0.21543 0.04187
 H795 H 0.32953 0.24427 0.01596
 H796 H 0.36662 0.31154 0.05077
 C797 C 0.62366 0.26889 0.93852
 C798 C 0.62248 0.24197 0.94298
 C799 C 0.63904 0.23057 0.96160
 C800 C 0.65655 0.24609 0.97586
 C801 C 0.65749 0.27319 0.97175
 C802 C 0.64110 0.28440 0.95277
 C803 C 0.60391 0.22628 0.92868
 C804 C 0.58803 0.21363 0.91661
 C805 C 0.56909 0.19933 0.90239
 C806 C 0.55268 0.18749 0.89020
 H807 H 0.61093 0.27792 0.92418
 H808 H 0.63832 0.20975 0.96517
 H809 H 0.66923 0.23702 0.99020
 H810 H 0.64148 0.30526 0.94934
 C811 C 0.36186 0.76408 0.95754
 C812 C 0.38038 0.75327 0.94043
 C813 C 0.38215 0.72615 0.93772
 C814 C 0.36571 0.70985 0.95228
 C815 C 0.34743 0.72053 0.96986
 C816 C 0.34537 0.74780 0.97211
 C817 C 0.39797 0.76988 0.92601
 C818 C 0.41311 0.78343 0.91399
 C819 C 0.43128 0.79884 0.89999
 C820 C 0.44718 0.81161 0.88808
 H821 H 0.36030 0.78504 0.95974
 H822 H 0.39641 0.71759 0.92454
 H823 H 0.36758 0.68890 0.95024
 H824 H 0.33117 0.75642 0.98530
 C825 C 0.72865 0.93656 0.37869
 C826 C 0.75600 0.94029 0.37850
 C827 C 0.76726 0.95815 0.36111
 C828 C 0.75116 0.97253 0.34428
 C829 C 0.72362 0.96936 0.34489
 C830 C 0.71254 0.95093 0.36192
 C831 C 0.77229 0.92629 0.39671
 C832 C 0.78546 0.91462 0.41240
 C833 C 0.80037 0.90099 0.43119
 C834 C 0.81272 0.88934 0.44753
 H835 H 0.71973 0.92280 0.39206
 H836 H 0.78841 0.96116 0.36077
 H837 H 0.76010 0.98643 0.33108
 H838 H 0.69137 0.94819 0.36269
 C839 C 0.27507 0.93790 0.61730
 C840 C 0.24761 0.94041 0.61872
 C841 C 0.23635 0.95773 0.63665
 C842 C 0.25252 0.97264 0.65293
 C843 C 0.28013 0.97052 0.65128
 C844 C 0.29125 0.95280 0.63353
 C845 C 0.23111 0.92551 0.60145
 C846 C 0.21764 0.91308 0.58662
 C847 C 0.20228 0.89861 0.56883
 C848 C 0.18952 0.88635 0.55327
 H849 H 0.28399 0.92457 0.60350
 H850 H 0.21512 0.95979 0.63795
 H851 H 0.24354 0.98593 0.66671
 H852 H 0.31247 0.95085 0.63197
 C853 C 0.26383 0.04097 0.38696
 C854 C 0.24491 0.05865 0.37784
 C855 C 0.24046 0.06109 0.35106
 C856 C 0.25474 0.04577 0.33349
 C857 C 0.27346 0.02771 0.34256
 C858 C 0.27812 0.02567 0.36943
 C859 C 0.23008 0.07417 0.39603
 C860 C 0.21780 0.08695 0.41155
 C861 C 0.20359 0.10169 0.43003
 C862 C 0.19160 0.11410 0.44606
 H863 H 0.26751 0.03901 0.40763
 H864 H 0.22591 0.07476 0.34380
 H865 H 0.25097 0.04772 0.31284
 H866 H 0.29277 0.01218 0.37680
 C867 C 0.72881 0.06349 0.62159
 C868 C 0.75618 0.05984 0.62134
 C869 C 0.76783 0.04221 0.63869
 C870 C 0.75213 0.02814 0.65611
 C871 C 0.72460 0.03144 0.65618
 C872 C 0.71310 0.04942 0.63896
 C873 C 0.77217 0.07395 0.60300
 C874 C 0.78524 0.08578 0.58737
 C875 C 0.80017 0.09961 0.56877
 C876 C 0.81261 0.11141 0.55263
 H877 H 0.71961 0.07707 0.60823
 H878 H 0.78900 0.03928 0.63870
 H879 H 0.76142 0.01461 0.66946
 H880 H 0.69192 0.05222 0.63868
 C881 C 0.93421 0.64813 0.24372
 C882 C 0.93833 0.62126 0.24659
 C883 C 0.95704 0.61216 0.26445
 C884 C 0.97177 0.62984 0.27921
 C885 C 0.96809 0.65683 0.27605
 C886 C 0.94894 0.66584 0.25845
 C887 C 0.92353 0.60300 0.23111
 C888 C 0.91134 0.58752 0.21818
 C889 C 0.89728 0.56913 0.20316
 C890 C 0.88543 0.55316 0.19051
 H891 H 0.91973 0.65538 0.23000
 H892 H 0.96032 0.59141 0.26691
 H893 H 0.98617 0.62251 0.29295
 H894 H 0.94574 0.68658 0.25585
 C895 C 0.93629 0.35250 0.75363
 C896 C 0.94086 0.37941 0.75234
 C897 C 0.96029 0.38918 0.73560
 C898 C 0.97513 0.37212 0.72024
 C899 C 0.97081 0.34507 0.72163
 C900 C 0.95114 0.33541 0.73829
 C901 C 0.92553 0.39705 0.76803
 C902 C 0.91280 0.41204 0.78103
 C903 C 0.89806 0.42990 0.79605
 C904 C 0.88567 0.44550 0.80865
 H905 H 0.92126 0.34474 0.76647
 H906 H 0.96391 0.40998 0.73436
 H907 H 0.98993 0.37998 0.70722
 H908 H 0.94748 0.31462 0.73957
 C909 C 0.03867 0.63891 0.76759
 C910 C 0.05734 0.62195 0.75673
 C911 C 0.06181 0.62220 0.72986
 C912 C 0.04738 0.63897 0.71384
 C913 C 0.02817 0.65558 0.72451
 C914 C 0.02423 0.65575 0.75158
 C915 C 0.07151 0.60379 0.77290
 C916 C 0.08339 0.58815 0.78594
 C917 C 0.09735 0.56944 0.80067
 C918 C 0.10934 0.55319 0.81285
 H919 H 0.03509 0.63892 0.78837
 H920 H 0.07621 0.60917 0.72124
 H921 H 0.05073 0.63856 0.69304
 H922 H 0.00971 0.66862 0.76020
 C923 C 0.03989 0.36195 0.23236
 C924 C 0.05818 0.37906 0.24359
 C925 C 0.06261 0.37838 0.27045
 C926 C 0.04861 0.36091 0.28609
 C927 C 0.02992 0.34399 0.27504
 C928 C 0.02589 0.34443 0.24799
 C929 C 0.07215 0.39762 0.22773
 C930 C 0.08390 0.41348 0.21485
 C931 C 0.09773 0.43233 0.20022
 C932 C 0.10963 0.44863 0.18806
 H933 H 0.03635 0.36227 0.21158
 H934 H 0.07670 0.39154 0.27934
 H935 H 0.05197 0.36093 0.30690
 H936 H 0.01178 0.33133 0.23905
   
