data_POSCAR
  _audit_creation_date              2014-09-24
  _audit_creation_method            'ToBaCCo'
  _symmetry_space_group_name_H-M    'P1'
  _symmetry_Int_Tables_number       1
  _symmetry_cell_setting            triclinic
  loop_
  _symmetry_equiv_pos_as_xyz
 x,y,z
_cell_length_a 12.6423
_cell_length_b 21.1408
_cell_length_c 14.9038
_cell_angle_alpha 90.000000
_cell_angle_beta 90.000000
_cell_angle_gamma 90.000000
loop_
  _atom_site_label
  _atom_site_type_symbol
  _atom_site_fract_x
  _atom_site_fract_y
  _atom_site_fract_z
B1 B -0.06779 -0.05729 0.03240
 B2 B 0.05748 -0.04734 0.06554
 B3 B 0.02998 -0.06551 -0.04162
 B4 B -0.08311 -0.02984 -0.07258
 B5 B -0.12453 0.01265 0.01807
 B6 B -0.03693 0.00066 0.10378
 B7 B 0.06779 0.05729 -0.03240
 B8 B -0.05748 0.04734 -0.06554
 B9 B -0.02998 0.06551 0.04162
 B10 B 0.08311 0.02984 0.07258
 B11 B 0.12453 -0.01265 -0.01807
 B12 B 0.03693 -0.00066 -0.10378
 B13 B 0.54330 0.47059 0.59025
 B14 B 0.41560 0.46495 0.56034
 B15 B 0.46660 0.53617 0.58970
 B16 B 0.59268 0.53930 0.55194
 B17 B 0.61787 0.47041 0.49739
 B18 B 0.50735 0.42474 0.50411
 B19 B 0.45670 0.52941 0.40975
 B20 B 0.58440 0.53505 0.43966
 B21 B 0.53340 0.46383 0.41030
 B22 B 0.40732 0.46070 0.44806
 B23 B 0.38213 0.52959 0.50261
 B24 B 0.49265 0.57526 0.49589
 B25 B 0.56779 0.05729 0.53240
 B26 B 0.44252 0.04734 0.56554
 B27 B 0.47002 0.06551 0.45838
 B28 B 0.58311 0.02984 0.42742
 B29 B 0.62453 -0.01265 0.51807
 B30 B 0.53693 -0.00066 0.60378
 B31 B 0.43221 -0.05729 0.46760
 B32 B 0.55748 -0.04734 0.43446
 B33 B 0.52998 -0.06551 0.54162
 B34 B 0.41689 -0.02984 0.57258
 B35 B 0.37547 0.01265 0.48193
 B36 B 0.46307 0.00066 0.39622
 B37 B -0.04330 0.52941 0.09025
 B38 B 0.08440 0.53505 0.06034
 B39 B 0.03340 0.46383 0.08970
 B40 B -0.09268 0.46070 0.05194
 B41 B -0.11787 0.52959 -0.00261
 B42 B -0.00735 0.57526 0.00411
 B43 B 0.04330 0.47059 -0.09025
 B44 B -0.08440 0.46495 -0.06034
 B45 B -0.03340 0.53617 -0.08970
 B46 B 0.09268 0.53930 -0.05194
 B47 B 0.11787 0.47041 0.00261
 B48 B 0.00735 0.42474 -0.00411
 B49 B 0.06779 0.44271 0.46760
 B50 B -0.05748 0.45266 0.43446
 B51 B -0.02998 0.43449 0.54162
 B52 B 0.08311 0.47016 0.57258
 B53 B 0.12453 0.51265 0.48193
 B54 B 0.03693 0.50066 0.39622
 B55 B -0.06779 0.55729 0.53240
 B56 B 0.05748 0.54734 0.56554
 B57 B 0.02998 0.56551 0.45838
 B58 B -0.08311 0.52984 0.42742
 B59 B -0.12453 0.48735 0.51807
 B60 B -0.03693 0.49934 0.60378
 B61 B 0.45670 -0.02941 -0.09025
 B62 B 0.58440 -0.03505 -0.06034
 B63 B 0.53340 0.03617 -0.08970
 B64 B 0.40732 0.03930 -0.05194
 B65 B 0.38213 -0.02959 0.00261
 B66 B 0.49265 -0.07526 -0.00411
 B67 B 0.54330 0.02941 0.09025
 B68 B 0.41560 0.03505 0.06034
 B69 B 0.46660 -0.03617 0.08970
 B70 B 0.59268 -0.03930 0.05194
 B71 B 0.61787 0.02959 -0.00261
 B72 B 0.50735 0.07526 0.00411
 B73 B 0.43221 0.55729 -0.03240
 B74 B 0.55748 0.54734 -0.06554
 B75 B 0.52998 0.56551 0.04162
 B76 B 0.41689 0.52984 0.07258
 B77 B 0.37547 0.48735 -0.01807
 B78 B 0.46307 0.49934 -0.10378
 B79 B 0.56779 0.44271 0.03240
 B80 B 0.44252 0.45266 0.06554
 B81 B 0.47002 0.43449 -0.04162
 B82 B 0.58311 0.47016 -0.07258
 B83 B 0.62453 0.51265 0.01807
 B84 B 0.53693 0.50066 0.10378
 B85 B 0.04330 0.02941 0.40975
 B86 B -0.08440 0.03505 0.43966
 B87 B -0.03340 -0.03617 0.41030
 B88 B 0.09268 -0.03930 0.44806
 B89 B 0.11787 0.02959 0.50261
 B90 B 0.00735 0.07526 0.49589
 B91 B -0.04330 -0.02941 0.59025
 B92 B 0.08440 -0.03505 0.56034
 B93 B 0.03340 0.03617 0.58970
 B94 B -0.09268 0.03930 0.55194
 B95 B -0.11787 -0.02959 0.49739
 B96 B -0.00735 -0.07526 0.50411
 B97 B 0.79482 0.31044 0.27519
 B98 B 0.66588 0.29930 0.28907
 B99 B 0.71337 0.30533 0.18613
 B100 B 0.83305 0.27345 0.18078
 B101 B 0.85943 0.24199 0.28414
 B102 B 0.75459 0.25839 0.35323
 B103 B 0.68451 0.18277 0.21898
 B104 B 0.81314 0.19732 0.20016
 B105 B 0.76671 0.18672 0.30415
 B106 B 0.64525 0.22139 0.31232
 B107 B 0.61921 0.25130 0.20812
 B108 B 0.72320 0.23472 0.13956
 B109 B 0.73329 0.81328 0.80415
 B110 B 0.68686 0.80268 0.70016
 B111 B 0.81549 0.81723 0.71898
 B112 B 0.85475 0.77861 0.81232
 B113 B 0.74541 0.74161 0.85323
 B114 B 0.64057 0.75801 0.78414
 B115 B 0.78663 0.69467 0.68613
 B116 B 0.83412 0.70070 0.78907
 B117 B 0.70518 0.68956 0.77519
 B118 B 0.66695 0.72655 0.68078
 B119 B 0.77680 0.76528 0.63956
 B120 B 0.88079 0.74870 0.70812
 B121 B 0.29482 0.18956 0.72481
 B122 B 0.16588 0.20070 0.71093
 B123 B 0.21337 0.19467 0.81387
 B124 B 0.33305 0.22655 0.81922
 B125 B 0.35943 0.25801 0.71586
 B126 B 0.25459 0.24161 0.64677
 B127 B 0.18451 0.31723 0.78102
 B128 B 0.31314 0.30268 0.79984
 B129 B 0.26671 0.31328 0.69585
 B130 B 0.14525 0.27861 0.68768
 B131 B 0.11921 0.24870 0.79188
 B132 B 0.22320 0.26528 0.86044
 B133 B 0.20518 0.81044 0.22481
 B134 B 0.33412 0.79930 0.21093
 B135 B 0.28663 0.80533 0.31387
 B136 B 0.16695 0.77345 0.31922
 B137 B 0.14057 0.74199 0.21586
 B138 B 0.24541 0.75839 0.14677
 B139 B 0.31549 0.68277 0.28102
 B140 B 0.18686 0.69732 0.29984
 B141 B 0.23329 0.68672 0.19585
 B142 B 0.35475 0.72139 0.18768
 B143 B 0.38079 0.75130 0.29188
 B144 B 0.27680 0.73472 0.36044
 B145 B 0.28663 0.69467 0.81387
 B146 B 0.33412 0.70070 0.71093
 B147 B 0.20518 0.68956 0.72481
 B148 B 0.16695 0.72655 0.81922
 B149 B 0.27680 0.76528 0.86044
 B150 B 0.38079 0.74870 0.79188
 B151 B 0.23329 0.81328 0.69585
 B152 B 0.18686 0.80268 0.79984
 B153 B 0.31549 0.81723 0.78102
 B154 B 0.35475 0.77861 0.68768
 B155 B 0.24541 0.74161 0.64677
 B156 B 0.14057 0.75801 0.71586
 B157 B 0.18451 0.18277 0.28102
 B158 B 0.31314 0.19732 0.29984
 B159 B 0.26671 0.18672 0.19585
 B160 B 0.14525 0.22139 0.18768
 B161 B 0.11921 0.25130 0.29188
 B162 B 0.22320 0.23472 0.36044
 B163 B 0.29482 0.31044 0.22481
 B164 B 0.16588 0.29930 0.21093
 B165 B 0.21337 0.30533 0.31387
 B166 B 0.33305 0.27345 0.31922
 B167 B 0.35943 0.24199 0.21586
 B168 B 0.25459 0.25839 0.14677
 B169 B 0.81549 0.68277 0.21898
 B170 B 0.68686 0.69732 0.20016
 B171 B 0.73329 0.68672 0.30415
 B172 B 0.85475 0.72139 0.31232
 B173 B 0.88079 0.75130 0.20812
 B174 B 0.77680 0.73472 0.13956
 B175 B 0.70518 0.81044 0.27519
 B176 B 0.83412 0.79930 0.28907
 B177 B 0.78663 0.80533 0.18613
 B178 B 0.66695 0.77345 0.18078
 B179 B 0.64057 0.74199 0.28414
 B180 B 0.74541 0.75839 0.35323
 B181 B 0.71337 0.19467 0.68613
 B182 B 0.66588 0.20070 0.78907
 B183 B 0.79482 0.18956 0.77519
 B184 B 0.83305 0.22655 0.68078
 B185 B 0.72320 0.26528 0.63956
 B186 B 0.61921 0.24870 0.70812
 B187 B 0.76671 0.31328 0.80415
 B188 B 0.81314 0.30268 0.70016
 B189 B 0.68451 0.31723 0.71898
 B190 B 0.64525 0.27861 0.81232
 B191 B 0.75459 0.24161 0.85323
 B192 B 0.85943 0.25801 0.78414
 C193 C 0.09140 0.42735 0.83796
 C194 C 0.13244 0.38111 0.80557
 C195 C 0.40860 0.57265 0.33796
 C196 C 0.36756 0.61889 0.30557
 C197 C 0.90860 0.92735 0.66204
 C198 C 0.86756 0.88111 0.69443
 C199 C 0.59140 0.07265 0.16204
 C200 C 0.63244 0.11889 0.19443
 C201 C 0.84245 0.08018 0.38748
 C202 C 0.80099 0.12533 0.35236
 C203 C 0.34245 0.41982 0.61252
 C204 C 0.30099 0.37467 0.64764
 C205 C 0.65755 0.91982 0.88748
 C206 C 0.69901 0.87467 0.85236
 C207 C 0.15755 0.58018 0.11252
 C208 C 0.19901 0.62533 0.14764
 C209 C 0.43024 0.91029 0.15373
 C210 C 0.39526 0.86010 0.18075
 C211 C 0.56975 0.41029 0.34626
 C212 C 0.60474 0.36010 0.31925
 C213 C 0.93024 0.58971 0.84626
 C214 C 0.89526 0.63990 0.81925
 C215 C 0.06975 0.08971 0.65373
 C216 C 0.10474 0.13990 0.68075
 C217 C 0.13452 0.39255 0.42519
 C218 C 0.17880 0.35607 0.37760
 C219 C 0.36548 0.60745 0.92519
 C220 C 0.32120 0.64393 0.87760
 C221 C 0.63452 0.10745 0.57481
 C222 C 0.67880 0.14393 0.62240
 C223 C 0.86548 0.89255 0.07481
 C224 C 0.82120 0.85607 0.12240
 C225 C 0.88961 0.09309 0.86716
 C226 C 0.84872 0.13169 0.81846
 C227 C 0.11039 0.59309 0.63284
 C228 C 0.15128 0.63169 0.68154
 C229 C 0.61039 0.90691 0.36716
 C230 C 0.65128 0.86831 0.31846
 C231 C 0.38961 0.40691 0.13284
 C232 C 0.34872 0.36831 0.18154
 C233 C 0.56973 0.62092 0.09481
 C234 C 0.61641 0.65483 0.14509
 C235 C 0.06973 0.87908 0.90519
 C236 C 0.11641 0.84517 0.85491
 C237 C 0.43027 0.12092 0.40519
 C238 C 0.38359 0.15483 0.35491
 C239 C 0.93027 0.37908 0.59481
 C240 C 0.88359 0.34517 0.64509
 C241 C 0.90860 0.57265 0.16204
 C242 C 0.86756 0.61889 0.19443
 C243 C 0.59140 0.42735 0.66204
 C244 C 0.63244 0.38111 0.69443
 C245 C 0.09140 0.07265 0.33796
 C246 C 0.13244 0.11889 0.30557
 C247 C 0.40860 0.92735 0.83796
 C248 C 0.36756 0.88111 0.80557
 C249 C 0.15755 0.91982 0.61252
 C250 C 0.19901 0.87467 0.64764
 C251 C 0.65755 0.58018 0.38748
 C252 C 0.69901 0.62533 0.35236
 C253 C 0.34245 0.08018 0.11252
 C254 C 0.30099 0.12533 0.14764
 C255 C 0.84245 0.41982 0.88748
 C256 C 0.80099 0.37467 0.85236
 C257 C 0.56975 0.08971 0.84626
 C258 C 0.60474 0.13990 0.81925
 C259 C 0.43024 0.58971 0.65373
 C260 C 0.39526 0.63990 0.68075
 C261 C 0.06975 0.41029 0.15373
 C262 C 0.10474 0.36010 0.18075
 C263 C 0.93024 0.91029 0.34626
 C264 C 0.89526 0.86010 0.31925
 C265 C 0.86548 0.60745 0.57481
 C266 C 0.82120 0.64393 0.62240
 C267 C 0.63452 0.39255 0.07481
 C268 C 0.67880 0.35607 0.12240
 C269 C 0.36548 0.89255 0.42519
 C270 C 0.32120 0.85607 0.37760
 C271 C 0.13452 0.10745 0.92519
 C272 C 0.17880 0.14393 0.87760
 C273 C 0.11039 0.90691 0.13284
 C274 C 0.15128 0.86831 0.18154
 C275 C 0.88961 0.40691 0.36716
 C276 C 0.84872 0.36831 0.31846
 C277 C 0.38961 0.09309 0.63284
 C278 C 0.34872 0.13169 0.68154
 C279 C 0.61039 0.59309 0.86716
 C280 C 0.65128 0.63169 0.81846
 C281 C 0.43027 0.37908 0.90519
 C282 C 0.38359 0.34517 0.85491
 C283 C 0.93027 0.12092 0.09481
 C284 C 0.88359 0.15483 0.14509
 C285 C 0.56973 0.87908 0.59481
 C286 C 0.61641 0.84517 0.64509
 C287 C 0.06973 0.62092 0.40519
 C288 C 0.11641 0.65483 0.35491
   
