data_POSCAR
  _audit_creation_date              2014-09-24
  _audit_creation_method            'ToBaCCo'
  _symmetry_space_group_name_H-M    'P1'
  _symmetry_Int_Tables_number       1
  _symmetry_cell_setting            triclinic
  loop_
  _symmetry_equiv_pos_as_xyz
 x,y,z
_cell_length_a 20.3789
_cell_length_b 20.3648
_cell_length_c 20.2513
_cell_angle_alpha 90.880200
_cell_angle_beta 89.892700
_cell_angle_gamma 89.470700
loop_
  _atom_site_label
  _atom_site_type_symbol
  _atom_site_fract_x
  _atom_site_fract_y
  _atom_site_fract_z
O1 O 0.61235 0.15147 0.00530
 O2 O 0.67295 0.05754 0.02141
 C3 C 0.66751 0.12059 0.01521
 O4 O 0.38518 0.02554 0.15043
 O5 O 0.32649 0.02733 0.05379
 C6 C 0.33047 0.02955 0.11766
 O7 O 0.56576 0.01297 0.18021
 O8 O 0.65037 -0.00680 0.10736
 C9 C 0.62747 0.00451 0.16659
 O10 O 0.43393 0.17379 -0.03120
 O11 O 0.35013 0.09922 -0.03080
 C12 C 0.37264 0.15828 -0.03699
 Zr13 Zr 0.51619 0.11498 -0.00738
 O14 O 0.51097 0.19114 0.06457
 O15 O 0.54256 0.18159 -0.08190
 Zr16 Zr 0.48345 0.01355 0.11762
 O17 O 0.47563 0.09535 0.18299
 O18 O 0.47071 -0.05128 0.19733
 O19 O 0.55746 0.06700 0.07245
 O20 O 0.44334 0.08092 0.05385
 O21 O 0.43536 -0.00346 -0.17659
 O22 O 0.35088 0.01100 -0.10250
 C23 C 0.37382 0.00512 -0.16211
 O24 O 0.56930 -0.17534 0.02506
 O25 O 0.65205 -0.09982 0.03168
 C26 C 0.63042 -0.15961 0.03164
 O27 O 0.38875 -0.15134 0.00739
 O28 O 0.32873 -0.05839 -0.01440
 C29 C 0.33371 -0.12084 -0.00353
 O30 O 0.61432 -0.03345 -0.14738
 O31 O 0.67406 -0.03001 -0.05141
 C32 C 0.66926 -0.03661 -0.11507
 Zr33 Zr 0.51756 -0.01410 -0.11392
 O34 O 0.51095 -0.09560 -0.17973
 O35 O 0.54495 0.04709 -0.19273
 Zr36 Zr 0.48555 -0.11535 0.01192
 O37 O 0.47878 -0.19525 -0.05581
 O38 O 0.47325 -0.17949 0.09222
 Zr39 Zr 0.59745 -0.01241 0.01730
 Zr40 Zr 0.40429 0.01205 -0.01349
 O41 O 0.44546 -0.06718 -0.06764
 O42 O 0.55943 -0.08209 -0.05029
 O43 O 0.46191 0.06587 -0.07980
 O44 O 0.53873 -0.06537 0.08296
 O45 O 0.57505 0.05085 -0.06102
 O46 O 0.42446 -0.05158 0.06536
 H47 H 0.41378 0.11452 0.07409
 H48 H 0.56057 -0.09253 0.11681
 H49 H 0.41665 -0.09377 -0.09671
 H50 H 0.61088 0.07149 -0.08623
 H51 H 0.43063 -0.07701 0.18870
 H52 H 0.43419 -0.16429 0.11738
 H53 H 0.51928 -0.19594 -0.08279
 H54 H 0.54550 -0.12760 -0.16752
 H55 H 0.51382 0.08462 -0.19314
 H56 H 0.51631 0.17044 -0.12144
 H57 H 0.52044 0.23232 0.04107
 H58 H 0.51226 0.12506 0.17265
 O59 O -0.00382 0.61203 -0.15208
 O60 O 0.01799 0.67121 -0.05758
 C61 C 0.00700 0.66680 -0.12051
 O62 O -0.17516 0.43424 0.00736
 O63 O -0.10221 0.34958 -0.01287
 C64 C -0.16104 0.37268 -0.00228
 O65 O -0.14628 0.61491 0.02360
 O66 O -0.05045 0.67323 0.02756
 C67 C -0.11393 0.66947 0.02899
 O68 O -0.02058 0.43170 -0.17892
 O69 O -0.02673 0.34836 -0.10434
 C70 C -0.02681 0.37032 -0.16432
 Zr71 Zr -0.00757 0.51490 -0.11731
 O72 O -0.08650 0.52786 -0.18384
 O73 O 0.06062 0.52202 -0.19584
 Zr74 Zr -0.11335 0.51663 0.01042
 O75 O -0.19188 0.53028 -0.05651
 O76 O -0.17903 0.52507 0.09127
 O77 O -0.06122 0.57585 -0.05338
 O78 O -0.07829 0.46176 -0.06899
 O79 O 0.15020 0.38429 -0.03379
 O80 O 0.05475 0.32529 -0.03313
 C81 C 0.11798 0.32960 -0.03849
 O82 O 0.03325 0.56495 0.17481
 O83 O 0.03342 0.64895 0.10052
 C84 C 0.03888 0.62631 0.15986
 O85 O -0.00172 0.38640 0.14964
 O86 O -0.01760 0.32635 0.05432
 C87 C -0.01176 0.33147 0.11792
 O88 O 0.17881 0.56362 -0.00044
 O89 O 0.10501 0.64862 0.01388
 C90 C 0.16433 0.62528 0.00871
 Zr91 Zr 0.11708 0.48150 -0.01373
 O92 O 0.19554 0.45334 0.04838
 O93 O 0.18272 0.48823 -0.09448
 Zr94 Zr 0.01094 0.48274 0.11431
 O95 O 0.08679 0.45476 0.17968
 O96 O -0.05581 0.49113 0.19438
 Zr97 Zr 0.01684 0.59518 0.01219
 Zr98 Zr -0.01321 0.40233 -0.01521
 O99 O 0.06444 0.42385 0.04997
 O100 O 0.08281 0.53698 0.06677
 O101 O 0.05416 0.44039 -0.08369
 O102 O -0.05027 0.55583 0.07972
 O103 O 0.07120 0.55430 -0.06701
 O104 O -0.06847 0.44216 0.06428
 H105 H -0.11168 0.44034 -0.09732
 H106 H -0.07067 0.58519 0.11356
 H107 H 0.08939 0.38755 0.07054
 H108 H 0.10009 0.58329 -0.09278
 H109 H -0.17353 0.48517 0.11800
 H110 H -0.08992 0.45740 0.18790
 H111 H 0.12373 0.48513 0.17308
 H112 H 0.19498 0.48338 0.08720
 H113 H 0.17076 0.45382 -0.12719
 H114 H 0.08669 0.48082 -0.19728
 H115 H -0.11278 0.56594 -0.16780
 H116 H -0.18348 0.57098 -0.08105
 O117 O 0.17293 0.02226 0.43388
 O118 O 0.09801 0.02811 0.34960
 C119 C 0.15763 0.02845 0.37225
 O120 O -0.00183 -0.17687 0.56497
 O121 O -0.01533 -0.10259 0.65045
 C122 C -0.01030 -0.16210 0.62686
 O123 O 0.03053 -0.14925 0.38610
 O124 O 0.02844 -0.05437 0.32641
 C125 C 0.03479 -0.11756 0.33109
 O126 O 0.14797 0.00614 0.61469
 O127 O 0.05478 -0.01438 0.67426
 C128 C 0.11738 -0.00413 0.66975
 Zr129 Zr 0.11242 0.00999 0.51717
 O130 O 0.19151 -0.05759 0.52496
 O131 O 0.17737 0.08964 0.53066
 Zr132 Zr 0.01036 -0.11513 0.48326
 O133 O 0.09125 -0.18061 0.49107
 O134 O -0.05110 -0.19372 0.45450
 O135 O 0.07905 -0.05248 0.44223
 O136 O 0.06341 -0.06857 0.55669
 O137 O -0.02730 0.14926 0.61681
 O138 O -0.03064 0.05390 0.67566
 C139 C -0.03206 0.11746 0.67185
 O140 O -0.15343 0.00279 0.38602
 O141 O -0.05910 0.01754 0.32632
 C142 C -0.12224 0.01181 0.33082
 O143 O -0.17707 -0.03076 0.56609
 O144 O -0.10259 -0.03031 0.65106
 C145 C -0.16170 -0.03599 0.62795
 O146 O -0.01376 0.17669 0.43479
 O147 O 0.00664 0.10299 0.35007
 C148 C -0.00431 0.16205 0.37299
 Zr149 Zr -0.01537 0.11558 0.51791
 O150 O -0.09628 0.18116 0.52608
 O151 O 0.05028 0.19461 0.53163
 Zr152 Zr -0.11784 -0.00912 0.48350
 O153 O -0.19783 0.05774 0.49123
 O154 O -0.18240 -0.08522 0.45488
 Zr155 Zr 0.01014 0.01443 0.40339
 Zr156 Zr -0.01538 -0.01401 0.59737
 O157 O -0.08338 0.05273 0.55715
 O158 O -0.06906 0.06999 0.44278
 O159 O 0.04895 0.06402 0.57801
 O160 O -0.05383 -0.06314 0.42479
 O161 O 0.06340 0.08020 0.46331
 O162 O -0.06953 -0.08049 0.53856
 H163 H 0.08951 -0.09732 0.58593
 H164 H -0.07415 -0.08854 0.38820
 H165 H -0.11687 0.07341 0.58650
 H166 H 0.09102 0.11355 0.44186
 H167 H -0.08981 -0.19250 0.48400
 H168 H -0.17601 -0.12165 0.48600
 H169 H -0.19201 0.09143 0.45708
 H170 H -0.12309 0.17545 0.48578
 H171 H 0.07596 0.18608 0.57204
 H172 H 0.16252 0.11492 0.57009
 H173 H 0.19225 -0.08483 0.48412
 H174 H 0.12351 -0.16906 0.45669
 C175 C -0.27161 0.15920 0.01726
 C176 C -0.27229 0.22371 0.00621
 C177 C -0.21200 0.26297 0.00451
 C178 C -0.21712 0.32799 -0.00159
 H179 H -0.31868 0.24863 -0.00241
 H180 H -0.16437 0.23934 0.00898
 H181 H -0.22542 0.13394 0.02591
 H182 H -0.26554 0.35045 -0.00385
 C183 C 0.27288 0.84036 -0.00354
 C184 C 0.27408 0.77592 0.00842
 C185 C 0.21447 0.73557 0.00754
 C186 C 0.22011 0.67036 0.01262
 H187 H 0.32054 0.75160 0.01819
 H188 H 0.16680 0.75861 0.00098
 H189 H 0.22665 0.86495 -0.01357
 H190 H 0.26856 0.64836 0.01706
 C191 C 0.32711 0.21315 -0.04928
 C192 C 0.26177 0.20801 -0.04959
 C193 C 0.22139 0.26834 -0.05242
 C194 C 0.15598 0.26793 -0.04697
 H195 H 0.23860 0.16074 -0.04372
 H196 H 0.24656 0.31492 -0.05501
 H197 H 0.34879 0.26126 -0.05448
 H198 H 0.13037 0.22162 -0.04440
 C199 C -0.32344 0.78514 0.03882
 C200 C -0.25816 0.79078 0.03900
 C201 C -0.21753 0.73060 0.03988
 C202 C -0.15203 0.73124 0.03583
 H203 H -0.23530 0.83846 0.03559
 H204 H -0.24263 0.68391 0.04127
 H205 H -0.34474 0.73659 0.04112
 H206 H -0.12634 0.77759 0.03494
 C207 C 0.05002 -0.32800 0.21549
 C208 C 0.04914 -0.26265 0.21023
 C209 C 0.05140 -0.22154 0.27061
 C210 C 0.04422 -0.15622 0.26954
 H211 H 0.04262 -0.23993 0.16260
 H212 H 0.05496 -0.24608 0.31765
 H213 H 0.05531 -0.34942 0.26394
 H214 H 0.04106 -0.13130 0.22273
 C215 C -0.03304 0.32867 0.78436
 C216 C -0.03704 0.26041 0.78900
 C217 C -0.03790 0.22254 0.73103
 C218 C -0.03799 0.15392 0.73071
 H219 H -0.03712 0.23690 0.83668
 H220 H -0.03630 0.24776 0.68425
 H221 H -0.03297 0.34968 0.73534
 H222 H -0.04042 0.12823 0.77715
 C223 C -0.01470 0.27061 0.15648
 C224 C -0.00795 0.27187 0.22216
 C225 C -0.00757 0.21193 0.26200
 C226 C -0.00535 0.21776 0.32776
 H227 H -0.00196 0.31860 0.24775
 H228 H -0.00927 0.16398 0.23812
 H229 H -0.02096 0.22415 0.13054
 H230 H -0.00549 0.26645 0.35027
 C231 C 0.00660 -0.27199 0.84145
 C232 C -0.00709 -0.27249 0.77690
 C233 C -0.00685 -0.21258 0.73719
 C234 C -0.01358 -0.21789 0.67173
 H235 H -0.01793 -0.31864 0.75197
 H236 H 0.00065 -0.16510 0.76076
 H237 H 0.01757 -0.22608 0.86667
 H238 H -0.01873 -0.26624 0.64918
 C239 C 0.32816 0.00754 0.78193
 C240 C 0.26295 0.00443 0.78841
 C241 C 0.22162 0.00515 0.72897
 C242 C 0.15671 -0.00429 0.73087
 H243 H 0.24053 0.00018 0.83672
 H244 H 0.24562 0.01294 0.68192
 H245 H 0.34952 0.00989 0.73293
 H246 H 0.13238 -0.01256 0.77761
 C247 C -0.33171 0.00795 0.21820
 C248 C -0.26331 0.00626 0.21405
 C249 C -0.22670 0.00944 0.27215
 C250 C -0.15836 0.01339 0.27224
 H251 H -0.23879 0.00377 0.16649
 H252 H -0.25262 0.00914 0.31900
 H253 H -0.35370 0.01441 0.26683
 H254 H -0.13236 0.01697 0.22567
 C255 C 0.26870 0.03554 0.15550
 C256 C 0.26893 0.03842 0.22147
 C257 C 0.20835 0.03721 0.26121
 C258 C 0.21331 0.03581 0.32692
 H259 H 0.31540 0.03909 0.24749
 H260 H 0.16088 0.03476 0.23729
 H261 H 0.22251 0.03491 0.12905
 H262 H 0.26164 0.03762 0.34927
 C263 C -0.26950 -0.04466 0.84631
 C264 C -0.27071 -0.05033 0.78036
 C265 C -0.21094 -0.04722 0.73941
 C266 C -0.21663 -0.04704 0.67360
 H267 H -0.31752 -0.05353 0.75519
 H268 H -0.16345 -0.04142 0.76267
 H269 H -0.22292 -0.04151 0.87187
 H270 H -0.26493 -0.05187 0.65172
   
