data_POSCAR
  _audit_creation_date              2014-09-24
  _audit_creation_method            'ToBaCCo'
  _symmetry_space_group_name_H-M    'P1'
  _symmetry_Int_Tables_number       1
  _symmetry_cell_setting            triclinic
  loop_
  _symmetry_equiv_pos_as_xyz
 x,y,z
_cell_length_a 21.7872
_cell_length_b 21.8454
_cell_length_c 21.8228
_cell_angle_alpha 90.235900
_cell_angle_beta 89.927600
_cell_angle_gamma 90.004300
loop_
  _atom_site_label
  _atom_site_type_symbol
  _atom_site_fract_x
  _atom_site_fract_y
  _atom_site_fract_z
C1 C 0.49920 0.98012 -0.66177
 C2 C 0.44321 0.99176 -0.63173
 C3 C 0.44454 1.00251 -0.56797
 C4 C 0.49917 0.99607 -0.53368
 C5 C 0.55379 0.98180 -0.56565
 C6 C 0.55512 0.97613 -0.62993
 C7 C 0.49926 1.00349 -0.46485
 C8 C 0.55427 1.01618 -0.43277
 C9 C 0.55520 1.02096 -0.36861
 C10 C 0.49992 1.01743 -0.33613
 C11 C 0.44433 1.00710 -0.36650
 C12 C 0.44457 0.99787 -0.43022
 H13 H 0.49979 0.98002 -0.71128
 H14 H 0.40239 1.01383 -0.54487
 H15 H 0.59537 0.97250 -0.54060
 H16 H 0.59698 1.02322 -0.45690
 H17 H 0.50024 1.02081 -0.28658
 H18 H 0.40152 0.98674 -0.45192
 C19 C -0.66807 1.50295 -0.00863
 C20 C -0.63810 1.44683 0.00121
 C21 C -0.57366 1.44744 0.00720
 C22 C -0.53902 1.50124 -0.00292
 C23 C -0.57116 1.55600 -0.01537
 C24 C -0.63575 1.55808 -0.01642
 C25 C -0.46970 1.49993 -0.00267
 C26 C -0.43507 1.55433 0.00482
 C27 C -0.37075 1.55386 0.00041
 C28 C -0.34013 1.49794 -0.00630
 C29 C -0.37274 1.44303 -0.01148
 C30 C -0.43713 1.44449 -0.01153
 H31 H -0.71751 1.50434 -0.00492
 H32 H -0.55037 1.40526 0.01726
 H33 H -0.54627 1.59688 -0.02739
 H34 H -0.45735 1.59772 0.01302
 H35 H -0.29040 1.49716 -0.00633
 H36 H -0.46082 1.40193 -0.02008
 C37 C 0.00597 0.33664 0.50957
 C38 C -0.00055 0.36479 0.45209
 C39 C -0.00529 0.42934 0.45069
 C40 C 0.00274 0.46566 0.50412
 C41 C 0.01195 0.43492 0.56028
 C42 C 0.01157 0.37095 0.56342
 C43 C 0.00320 0.53491 0.50105
 C44 C -0.00441 0.57131 0.55451
 C45 C 0.00119 0.63578 0.55312
 C46 C 0.00818 0.66388 0.49566
 C47 C 0.01330 0.62952 0.44177
 C48 C 0.01284 0.56554 0.44488
 H49 H 0.00364 0.28732 0.51343
 H50 H -0.01278 0.45121 0.40734
 H51 H 0.02079 0.45955 0.60227
 H52 H -0.01224 0.54952 0.59785
 H53 H 0.00650 0.71323 0.49184
 H54 H 0.02134 0.54080 0.40287
 O55 O -0.16003 1.00433 -0.08006
 O56 O 0.15568 1.00143 -0.08037
 O57 O -0.00318 1.08750 -0.15215
 O58 O -0.00057 0.92171 -0.15751
 O59 O -0.00017 0.84471 -0.08528
 O60 O -0.00361 1.16042 -0.07517
 O61 O 0.08099 1.00228 -0.15538
 O62 O -0.08517 1.00772 -0.15501
 Zr63 Zr -0.00215 1.00322 -0.10522
 O64 O 0.05388 0.94675 -0.05475
 O65 O -0.05814 1.05682 -0.05107
 C66 C -0.14172 1.00827 -0.13645
 C67 C 0.13753 1.00127 -0.13690
 C68 C -0.00347 1.14347 -0.13221
 C69 C 0.00027 0.86474 -0.14113
 H70 H 0.07926 1.08419 -0.07602
 O71 O 0.05286 1.05738 -0.05086
 H72 H -0.08370 0.92077 -0.08130
 O73 O -0.05736 0.94612 -0.05445
 O74 O 0.15547 1.00142 0.08554
 O75 O -0.15987 0.99373 0.08569
 O76 O 0.07973 1.15799 0.01047
 O77 O 0.08219 0.84393 -0.00617
 O78 O -0.08411 0.84231 0.00091
 O79 O -0.08647 1.15694 0.00382
 O80 O -0.00182 1.07884 0.16272
 O81 O -0.00205 0.91303 0.15736
 O82 O -0.00254 1.15585 0.09050
 O83 O -0.00125 0.84009 0.08040
 O84 O 0.15553 1.08414 0.00732
 O85 O -0.16111 1.08187 0.00239
 O86 O -0.15989 0.91624 0.00245
 O87 O 0.15681 0.91899 -0.00311
 O88 O 0.08070 0.99927 0.16061
 O89 O -0.08501 0.99155 0.16049
 Zr90 Zr 0.10587 1.00113 0.00257
 Zr91 Zr -0.11028 0.99943 0.00273
 Zr92 Zr -0.00303 1.10800 0.00611
 Zr93 Zr -0.00138 0.89253 -0.00086
 Zr94 Zr -0.00219 0.99731 0.11043
 O95 O -0.05736 0.94280 0.05643
 O96 O 0.05308 1.05475 0.05998
 C97 C 0.13722 1.00107 0.14208
 C98 C -0.14151 0.99006 0.14204
 C99 C 0.13651 1.14029 0.01052
 C100 C 0.13867 0.86260 -0.00703
 C101 C -0.14088 0.85999 0.00251
 C102 C -0.14293 1.13839 0.00170
 C103 C -0.00178 1.13583 0.14635
 C104 C -0.00149 0.85704 0.13743
 H105 H -0.08508 1.07864 0.08660
 O106 O -0.05829 1.05362 0.05981
 H107 H 0.08057 0.91743 0.08096
 O108 O 0.05375 0.94394 0.05601
 C109 C 0.27931 0.99644 0.26274
 C110 C 0.32836 0.95944 0.24494
 C111 C 0.38165 0.95749 0.28006
 C112 C 0.38753 0.99289 0.33421
 C113 C 0.33660 1.02891 0.35248
 C114 C 0.28320 1.03085 0.31677
 C115 C 0.22636 0.99984 0.22362
 C116 C 0.18438 1.00111 0.18777
 H117 H 0.32558 0.93206 0.20349
 H118 H 0.41747 0.92649 0.26517
 H119 H 0.33851 1.05826 0.39243
 H120 H 0.24545 1.06003 0.33075
 C121 C -0.28119 0.97113 0.26469
 C122 C -0.33410 0.94220 0.24321
 C123 C -0.38714 0.94118 0.27903
 C124 C -0.38872 0.96964 0.33737
 C125 C -0.33349 0.99529 0.35996
 C126 C -0.28048 0.99647 0.32362
 C127 C -0.22949 0.97785 0.22421
 C128 C -0.18832 0.98367 0.18777
 H129 H -0.33487 0.92155 0.19797
 H130 H -0.42675 0.91760 0.26062
 H131 H -0.33185 1.01861 0.40375
 H132 H -0.23962 1.01906 0.34069
 C133 C -0.28037 1.02417 -0.26064
 C134 C -0.32886 1.06379 -0.24640
 C135 C -0.38131 1.06491 -0.28316
 C136 C -0.38600 1.02625 -0.33466
 C137 C -0.33598 0.98844 -0.35010
 C138 C -0.28355 0.98729 -0.31315
 C139 C -0.22956 1.01862 -0.21894
 C140 C -0.18863 1.01371 -0.18215
 H141 H -0.32686 1.09258 -0.20591
 H142 H -0.41881 1.09498 -0.27055
 H143 H -0.33858 0.95770 -0.38907
 H144 H -0.24638 0.95629 -0.32446
 C145 C 0.27904 1.00465 -0.25893
 C146 C 0.28814 0.96017 -0.30448
 C147 C 0.34140 0.96128 -0.34052
 C148 C 0.38621 1.00670 -0.33096
 C149 C 0.37596 1.05172 -0.28583
 C150 C 0.32283 1.05063 -0.25013
 C151 C 0.22668 1.00210 -0.21878
 C152 C 0.18482 1.00121 -0.18263
 H153 H 0.25465 0.92416 -0.31143
 H154 H 0.34832 0.92580 -0.37462
 H155 H 0.40926 1.08774 -0.27806
 H156 H 0.31630 1.08525 -0.21500
 C157 C 0.25578 1.28351 0.00905
 C158 C 0.23578 1.33345 -0.02508
 C159 C 0.27084 1.38665 -0.02771
 C160 C 0.32722 1.39164 0.00412
 C161 C 0.34739 1.34004 0.03764
 C162 C 0.31173 1.28666 0.04024
 C163 C 0.21735 1.23007 0.01197
 C164 C 0.18189 1.18775 0.01228
 H165 H 0.19283 1.33126 -0.05003
 H166 H 0.25419 1.42297 -0.05687
 H167 H 0.38914 1.34120 0.06431
 H168 H 0.32748 1.24818 0.06715
 C169 C 0.26070 0.72240 -0.02346
 C170 C 0.32080 0.72357 -0.00106
 C171 C 0.35638 0.67013 -0.00143
 C172 C 0.33183 0.61414 -0.02321
 C173 C 0.27215 0.61508 -0.04865
 C174 C 0.23713 0.66847 -0.04851
 C175 C 0.22109 0.77479 -0.01768
 C176 C 0.18481 0.81614 -0.01265
 H177 H 0.33948 0.76522 0.01855
 H178 H 0.40137 0.67227 0.01941
 H179 H 0.25209 0.57468 -0.06934
 H180 H 0.19093 0.66727 -0.06684
 C181 C -0.26242 0.71828 0.00135
 C182 C -0.25123 0.67214 -0.04180
 C183 C -0.28710 0.61929 -0.04233
 C184 C -0.33481 0.61160 0.00044
 C185 C -0.34675 0.65871 0.04298
 C186 C -0.31051 0.71175 0.04354
 C187 C -0.22240 0.77067 0.00317
 C188 C -0.18636 0.81254 0.00334
 H189 H -0.21420 0.67671 -0.07468
 H190 H -0.27750 0.58424 -0.07627
 H191 H -0.38297 0.65384 0.07662
 H192 H -0.31939 0.74713 0.07733
 C193 C -0.26630 1.27775 -0.01220
 C194 C -0.24994 1.32640 -0.05040
 C195 C -0.28594 1.37924 -0.05207
 C196 C -0.33886 1.38420 -0.01541
 C197 C -0.35633 1.33417 0.02109
 C198 C -0.32008 1.28130 0.02283
 C199 C -0.22555 1.22625 -0.00657
 C200 C -0.18900 1.18507 -0.00226
 H201 H -0.20847 1.32411 -0.07778
 H202 H -0.27181 1.41675 -0.08117
 H203 H -0.39655 1.33699 0.05019
 H204 H -0.33305 1.24398 0.05271
 C205 C -0.00094 1.25494 0.29048
 C206 C 0.02954 1.23534 0.34299
 C207 C 0.02961 1.27149 0.39576
 C208 C -0.00114 1.32859 0.39763
 C209 C -0.03113 1.34808 0.34357
 C210 C -0.03116 1.31141 0.29071
 C211 C -0.00184 1.21570 0.23736
 C212 C -0.00189 1.18035 0.19480
 H213 H 0.05360 1.19191 0.34316
 H214 H 0.05612 1.25507 0.43420
 H215 H -0.05708 1.39022 0.34220
 H216 H -0.05541 1.32680 0.25029
 C217 C 0.01024 1.26784 -0.26990
 C218 C 0.05025 1.25176 -0.31750
 C219 C 0.05277 1.28700 -0.37063
 C220 C 0.01519 1.33889 -0.37692
 C221 C -0.02296 1.35639 -0.32781
 C222 C -0.02560 1.32082 -0.27462
 C223 C 0.00370 1.22728 -0.21853
 C224 C -0.00060 1.19038 -0.17785
 H225 H 0.07827 1.21091 -0.31430
 H226 H 0.08297 1.27287 -0.40753
 H227 H -0.05274 1.39587 -0.33175
 H228 H -0.05685 1.33358 -0.23809
 C229 C 0.00159 0.74555 -0.28521
 C230 C 0.03255 0.76479 -0.33765
 C231 C 0.03237 0.72866 -0.39045
 C232 C 0.00090 0.67195 -0.39239
 C233 C -0.02953 0.65281 -0.33837
 C234 C -0.02932 0.68946 -0.28551
 C235 C 0.00072 0.78485 -0.23213
 C236 C 0.00054 0.82022 -0.18959
 H237 H 0.05711 0.80794 -0.33778
 H238 H 0.05922 0.74477 -0.42886
 H239 H -0.05603 0.61100 -0.33706
 H240 H -0.05397 0.67437 -0.24515
 C241 C 0.01260 0.73263 0.27506
 C242 C 0.05282 0.74840 0.32249
 C243 C 0.05515 0.71314 0.37562
 C244 C 0.01716 0.66154 0.38207
 C245 C -0.02121 0.64434 0.33312
 C246 C -0.02365 0.67992 0.27994
 C247 C 0.00614 0.77327 0.22376
 C248 C 0.00174 0.81018 0.18310
 H249 H 0.08113 0.78905 0.31917
 H250 H 0.08552 0.72704 0.41239
 H251 H -0.05131 0.60511 0.33719
 H252 H -0.05508 0.66741 0.24356
   
