data_POSCAR
  _audit_creation_date              2014-09-24
  _audit_creation_method            'ToBaCCo'
  _symmetry_space_group_name_H-M    'P1'
  _symmetry_Int_Tables_number       1
  _symmetry_cell_setting            triclinic
  loop_
  _symmetry_equiv_pos_as_xyz
 x,y,z
_cell_length_a 28.7369
_cell_length_b 27.9138
_cell_length_c 27.3633
_cell_angle_alpha 89.733800
_cell_angle_beta 90.700100
_cell_angle_gamma 87.530500
loop_
  _atom_site_label
  _atom_site_type_symbol
  _atom_site_fract_x
  _atom_site_fract_y
  _atom_site_fract_z
C1 C 0.20722 0.14209 0.17749
 C2 C 0.19873 0.10966 0.21502
 C3 C 0.16593 0.12097 0.25150
 C4 C 0.14345 0.16691 0.25111
 C5 C 0.15146 0.19979 0.21335
 C6 C 0.18294 0.18689 0.17591
 C7 C 0.23956 0.12990 0.14131
 C8 C 0.24771 0.16148 0.10249
 C9 C 0.22231 0.20589 0.10036
 C10 C 0.19026 0.21877 0.13693
 C11 C 0.16573 0.26325 0.13541
 C12 C 0.13474 0.27662 0.17267
 C13 C 0.12797 0.24501 0.21181
 H14 H 0.21806 0.07557 0.21523
 H15 H 0.11847 0.17660 0.27916
 H16 H 0.25824 0.09532 0.14340
 H17 H 0.22815 0.23129 0.07138
 H18 H 0.17168 0.28806 0.10588
 H19 H 0.10372 0.25524 0.24036
 C20 C -0.19265 0.84757 0.23182
 C21 C -0.16180 0.84948 0.27197
 C22 C -0.11884 0.82295 0.27233
 C23 C -0.10867 0.79198 0.23289
 C24 C -0.13869 0.79038 0.19231
 C25 C -0.18017 0.81920 0.19115
 C26 C -0.23531 0.87430 0.23122
 C27 C -0.26464 0.87472 0.18941
 C28 C -0.25027 0.84825 0.14819
 C29 C -0.20895 0.81992 0.14905
 C30 C -0.19610 0.79207 0.10845
 C31 C -0.15555 0.76236 0.11012
 C32 C -0.12720 0.76128 0.15221
 H33 H -0.17086 0.87266 0.30240
 H34 H -0.07662 0.77026 0.23223
 H35 H -0.24482 0.89549 0.26289
 H36 H -0.27214 0.84809 0.11573
 H37 H -0.21817 0.79254 0.07604
 H38 H -0.09546 0.73879 0.15308
 C39 C -0.20753 0.13897 -0.21710
 C40 C -0.19068 0.13528 -0.26490
 C41 C -0.16259 0.17051 -0.28398
 C42 C -0.14966 0.20886 -0.25444
 C43 C -0.16448 0.21188 -0.20573
 C44 C -0.19461 0.17745 -0.18744
 C45 C -0.23682 0.10454 -0.19852
 C46 C -0.25538 0.10883 -0.15106
 C47 C -0.24257 0.14771 -0.12191
 C48 C -0.21103 0.18092 -0.13918
 C49 C -0.19415 0.21639 -0.10835
 C50 C -0.16107 0.24831 -0.12504
 C51 C -0.14815 0.24737 -0.17437
 H52 H -0.20008 0.10545 -0.28773
 H53 H -0.12687 0.23529 -0.26892
 H54 H -0.24645 0.07559 -0.22224
 H55 H -0.25560 0.15108 -0.08501
 H56 H -0.20541 0.21793 -0.07071
 H57 H -0.12313 0.27226 -0.18750
 C58 C 0.20216 0.86437 -0.16973
 C59 C 0.17949 0.90244 -0.19536
 C60 C 0.13920 0.89484 -0.22377
 C61 C 0.12051 0.84897 -0.22407
 C62 C 0.14088 0.81146 -0.19576
 C63 C 0.18240 0.81895 -0.16928
 C64 C 0.24544 0.87032 -0.14650
 C65 C 0.26943 0.83111 -0.12394
 C66 C 0.24814 0.78688 -0.12094
 C67 C 0.20484 0.78059 -0.14333
 C68 C 0.18450 0.73598 -0.14171
 C69 C 0.14264 0.72881 -0.16670
 C70 C 0.12110 0.76624 -0.19422
 H71 H 0.19523 0.93701 -0.19571
 H72 H 0.08938 0.84270 -0.24550
 H73 H 0.26168 0.90461 -0.14848
 H74 H 0.26583 0.75690 -0.10221
 H75 H 0.20156 0.70643 -0.12163
 H76 H 0.08928 0.76002 -0.21447
 C77 C 0.14571 1.21219 0.81539
 C78 C 0.11903 1.21128 0.77236
 C79 C 0.12911 1.17716 0.73583
 C80 C 0.16840 1.14559 0.74212
 C81 C 0.19635 1.14729 0.78454
 C82 C 0.18401 1.17968 0.82208
 C83 C 0.13398 1.24502 0.85204
 C84 C 0.15851 1.24471 0.89677
 C85 C 0.19654 1.21151 0.90374
 C86 C 0.21009 1.17981 0.86614
 C87 C 0.24989 1.14908 0.87126
 C88 C 0.26433 1.11925 0.83253
 C89 C 0.23670 1.11758 0.78983
 H90 H 0.08932 1.23620 0.76883
 H91 H 0.17739 1.11966 0.71401
 H92 H 0.10446 1.27000 0.84607
 H93 H 0.21667 1.21122 0.93745
 H94 H 0.27089 1.15005 0.90441
 H95 H 0.24697 1.09362 0.76044
 C96 C 0.84345 0.80660 0.77106
 C97 C 0.85141 0.84147 0.73530
 C98 C 0.83130 0.88827 0.73913
 C99 C 0.79917 0.89819 0.77669
 C100 C 0.79051 0.86362 0.81225
 C101 C 0.81405 0.81833 0.81053
 C102 C 0.86588 0.76089 0.76908
 C103 C 0.86143 0.72780 0.80769
 C104 C 0.83309 0.74068 0.84755
 C105 C 0.80873 0.78507 0.84874
 C106 C 0.77943 0.79689 0.88785
 C107 C 0.75442 0.84114 0.88845
 C108 C 0.75981 0.87425 0.85049
 H109 H 0.87541 0.83278 0.70607
 H110 H 0.78137 0.93302 0.77928
 H111 H 0.88850 0.75233 0.73870
 H112 H 0.82905 0.71565 0.87749
 H113 H 0.77528 0.77131 0.91726
 H114 H 0.74113 0.90883 0.85157
 C115 C 0.13440 0.80346 1.20882
 C116 C 0.12898 0.81881 1.25718
 C117 C 0.16512 0.84139 1.28161
 C118 C 0.20588 0.85171 1.25637
 C119 C 0.21111 0.83825 1.20722
 C120 C 0.17593 0.81232 1.18407
 C121 C 0.09929 0.77855 1.18519
 C122 C 0.10639 0.75916 1.13821
 C123 C 0.14844 0.76709 1.11437
 C124 C 0.18231 0.79511 1.13621
 C125 C 0.22229 0.80642 1.11070
 C126 C 0.25635 0.83467 1.13225
 C127 C 0.25080 0.85000 1.18080
 H128 H 0.09731 0.81156 1.27654
 H129 H 0.23315 0.87058 1.27484
 H130 H 0.06770 0.77191 1.20484
 H131 H 0.15408 0.75300 1.07793
 H132 H 0.22596 0.79436 1.07334
 H133 H 0.27741 0.87082 1.19797
 C134 C 0.86265 1.19677 1.17137
 C135 C 0.89734 1.16929 1.19620
 C136 C 0.88621 1.12773 1.22226
 C137 C 0.84018 1.11225 1.22058
 C138 C 0.80590 1.13717 1.19223
 C139 C 0.81695 1.18033 1.16870
 C140 C 0.87228 1.24179 1.15160
 C141 C 0.83633 1.27086 1.13057
 C142 C 0.79175 1.25293 1.12495
 C143 C 0.78191 1.20791 1.14372
 C144 C 0.73700 1.19106 1.13973
 C145 C 0.72630 1.14742 1.16117
 C146 C 0.76046 1.12060 1.18786
 H147 H 0.93217 1.18261 1.19839
 H148 H 0.83137 1.08009 1.24021
 H149 H 0.90683 1.25554 1.15555
 H150 H 0.76422 1.27477 1.10733
 H151 H 0.71000 1.21213 1.12032
 H152 H 0.75151 1.08739 1.20544
 O153 O 0.41885 1.09627 1.05155
 O154 O 0.37779 1.03816 1.01318
 C155 C 0.38075 1.07959 1.03401
 O156 O 0.57921 1.04816 0.91361
 O157 O 0.62249 1.02390 0.98104
 C158 C 0.61851 1.04067 0.93677
 O159 O 0.44977 1.05271 0.89320
 O160 O 0.39210 1.01904 0.93764
 C161 C 0.40652 1.04326 0.90074
 O162 O 0.54355 1.09365 1.09153
 O163 O 0.60520 1.04535 1.06622
 C164 C 0.58741 1.08057 1.09166
 Zr165 Zr 0.48698 1.06459 1.05369
 O166 O 0.49021 1.13898 1.03973
 O167 O 0.46774 1.07606 1.12716
 Zr168 Zr 0.51054 1.03716 0.93657
 O169 O 0.51289 1.11222 0.92592
 O170 O 0.52056 1.02837 0.86073
 O171 O 0.45785 1.05816 0.98402
 O172 O 0.53889 1.06125 1.00143
 O173 O 0.55089 0.93592 1.12958
 O174 O 0.60897 0.96682 1.08346
 C175 C 0.59411 0.94546 1.12200
 O176 O 0.45651 0.88458 0.93839
 O177 O 0.39590 0.93772 0.95621
 C178 C 0.41264 0.89782 0.93819
 O179 O 0.58536 0.89422 0.95787
 O180 O 0.62493 0.94788 1.00421
 C181 C 0.62316 0.91039 0.97675
 O182 O 0.42663 0.91619 1.09461
 O183 O 0.38206 0.95116 1.03287
 C184 C 0.38816 0.92183 1.06956
 Zr185 Zr 0.49132 0.94808 1.08363
 O186 O 0.49769 0.87733 1.11151
 O187 O 0.47171 0.97459 1.15293
 Zr188 Zr 0.51526 0.91933 0.96601
 O189 O 0.52335 0.84595 0.98569
 O190 O 0.52466 0.90132 0.89160
 Zr191 Zr 0.43293 0.98897 0.99516
 Zr192 Zr 0.56946 0.99498 1.02406
 O193 O 0.54314 0.92663 1.03545
 O194 O 0.46375 0.92265 1.01834
 O195 O 0.52835 1.01006 1.08593
 O196 O 0.47500 0.97431 0.93417
 O197 O 0.44659 1.00639 1.06834
 O198 O 0.55498 0.97760 0.95065
 H199 H 0.55963 1.08862 0.99926
 H200 H 0.45986 0.96660 0.90261
 H201 H 0.56460 0.90002 1.04679
 H202 H 0.41930 1.01127 1.08985
 H203 H 0.52388 0.99349 0.85498
 H204 H 0.55134 0.91913 0.87967
 H205 H 0.49470 0.83715 1.00266
 H206 H 0.50095 0.85597 1.08296
 H207 H 0.46842 0.94600 1.17397
 H208 H 0.46415 1.11128 1.13118
 H209 H 0.47575 1.14511 1.00720
 H210 H 0.48039 1.12544 0.92419
 O211 O 0.09142 0.41731 -0.05442
 O212 O 0.04184 0.37834 -0.00406
 C213 C 0.07866 0.37977 -0.03083
 O214 O 0.05133 0.59428 0.07390
 O215 O 0.01891 0.63127 0.00573
 C216 C 0.03941 0.63207 0.04820
 O217 O 0.06199 0.46358 0.10693
 O218 O 0.02801 0.39949 0.07085
 C219 C 0.05395 0.41822 0.10405
 O220 O 0.08370 0.54380 -0.10081
 O221 O 0.03585 0.60735 -0.07741
 C222 C 0.06969 0.58862 -0.10288
 Zr223 Zr 0.05978 0.48719 -0.05735
 O224 O 0.13261 0.49288 -0.04890
 O225 O 0.06578 0.46286 -0.13013
 Zr226 Zr 0.04089 0.52119 0.05933
 O227 O 0.11405 0.52709 0.06411
 O228 O 0.03656 0.53838 0.13428
 O229 O 0.05992 0.46346 0.01517
 O230 O 0.05818 0.54489 -0.00968
 O231 O -0.07293 0.54084 -0.12848
 O232 O -0.04174 0.60564 -0.09037
 C233 C -0.06481 0.58622 -0.12546
 O234 O -0.10612 0.46151 0.07273
 O235 O -0.05415 0.39910 0.05665
 C236 C -0.09253 0.41673 0.07509
 O237 O -0.10094 0.59196 0.04196
 O238 O -0.05451 0.62946 -0.01264
 C239 C -0.08812 0.62950 0.01837
 O240 O -0.07947 0.41293 -0.08222
 O241 O -0.04055 0.37628 -0.01736
 C242 C -0.06966 0.37614 -0.05389
 Zr243 Zr -0.05536 0.48427 -0.07826
 O244 O -0.12688 0.48660 -0.09776
 O245 O -0.03594 0.45958 -0.14829
 Zr246 Zr -0.07536 0.51961 0.03845
 O247 O -0.14805 0.52532 0.02474
 O248 O -0.08692 0.53480 0.11320
 Zr249 Zr -0.00675 0.43472 0.01208
 Zr250 Zr -0.00875 0.57160 -0.03011
 O251 O -0.07458 0.54145 -0.03367
 O252 O -0.07389 0.46140 -0.00891
 O253 O 0.00296 0.52446 -0.08905
 O254 O -0.01840 0.48291 0.06987
 O255 O 0.00419 0.44260 -0.06326
 O256 O -0.01950 0.56347 0.04557
 H257 H 0.08396 0.56730 -0.01126
 H258 H -0.02314 0.46963 0.10300
 H259 H -0.10196 0.56159 -0.04475
 H260 H 0.00873 0.41313 -0.08302
 H261 H 0.00314 0.54402 0.14121
 H262 H -0.07187 0.56517 0.12078
 H263 H -0.15689 0.49542 0.00848
 H264 H -0.14375 0.47417 -0.06944
 H265 H -0.06549 0.45442 -0.16613
 H266 H 0.09958 0.46033 -0.13695
 H267 H 0.14135 0.47882 -0.01667
 H268 H 0.12830 0.49421 0.06596
 O269 O 1.10050 -0.09343 0.47540
 O270 O 1.06379 -0.06686 0.40471
 C271 C 1.09491 -0.09311 0.42811
 O272 O 0.91187 -0.05922 0.57463
 O273 O 0.94491 0.00013 0.61967
 C274 C 0.91544 -0.03325 0.61370
 O275 O 0.93926 -0.10139 0.44699
 O276 O 0.98861 -0.06993 0.39090
 C277 C 0.95884 -0.10073 0.40446
 O278 O 1.07902 -0.05381 0.60494
 O279 O 1.02639 0.00294 0.63466
 C280 C 1.06058 -0.02860 0.64008
 Zr281 Zr 1.06432 -0.05138 0.52884
 O282 O 1.06253 -0.12396 0.55105
 O283 O 1.13673 -0.04499 0.54045
 Zr284 Zr 0.94834 -0.05536 0.50767
 O285 O 0.94952 -0.12680 0.53394
 O286 O 0.87680 -0.05857 0.48913
 O287 O 1.01391 -0.07411 0.47990
 O288 O 0.99951 -0.04996 0.56104
 O289 O 1.07481 0.10736 0.55571
 O290 O 1.02250 0.07902 0.61038
 C291 C 1.05490 0.10727 0.59793
 O292 O 0.93635 0.06933 0.39548
 O293 O 0.98841 0.01195 0.36620
 C294 C 0.95781 0.04692 0.36020
 O295 O 0.90873 0.10297 0.52633
 O296 O 0.94340 0.07447 0.59730
 C297 C 0.91363 0.10211 0.57368
 O298 O 1.09359 0.07306 0.42476
 O299 O 1.06329 0.01108 0.38163
 C300 C 1.09036 0.04661 0.38605
 Zr301 Zr 1.06113 0.06507 0.49365
 O302 O 1.06110 0.13907 0.47630
 O303 O 1.13372 0.06086 0.50739
 Zr304 Zr 0.94452 0.06096 0.47246
 O305 O 0.93657 0.13444 0.45379
 O306 O 0.87329 0.05234 0.45542
 Zr307 Zr 1.01657 -0.01480 0.43243
 Zr308 Zr 0.99256 0.02484 0.56896
 O309 O 0.99564 0.08304 0.52014
 O310 O 1.00984 0.06035 0.43966
 O311 O 1.06423 0.01911 0.55390
 O312 O 0.94517 -0.00906 0.44816
 O313 O 1.07787 -0.00438 0.47283
 O314 O 0.93034 0.01447 0.52953
 H315 H 0.99651 -0.07051 0.59036
 H316 H 0.92279 -0.01598 0.42155
 H317 H 0.99133 0.11630 0.53227
 H318 H 1.10870 -0.00921 0.45738
 H319 H 0.86000 -0.03247 0.50687
 H320 H 0.85660 0.04925 0.48662
 H321 H 0.96605 0.14330 0.43863
 H322 H 1.04464 0.14365 0.44456
 H323 H 1.14506 0.09299 0.49951
 H324 H 1.14928 -0.07652 0.55251
 H325 H 1.09502 -0.13478 0.55897
 H326 H 0.97855 -0.14288 0.52205
 C327 C 1.15436 0.08657 0.28662
 C328 C 1.16797 0.03823 0.28531
 C329 C 1.14600 0.01762 0.32304
 C330 C 1.12132 0.05452 0.34525
 O331 O 1.12597 0.09636 0.32348
 H332 H 1.18940 0.01909 0.25904
 H333 H 1.14719 -0.02004 0.33287
 C334 C 0.91403 -0.17008 0.31009
 C335 C 0.95803 -0.19251 0.31393
 C336 C 0.97965 -0.17074 0.35179
 C337 C 0.94740 -0.13741 0.36897
 O338 O 0.90773 -0.13667 0.34399
 H339 H 0.97389 -0.22000 0.29113
 H340 H 1.01531 -0.17705 0.36425
 C341 C 0.85440 0.16572 0.66566
 C342 C 0.84735 0.19963 0.62923
 C343 C 0.86690 0.17948 0.58844
 C344 C 0.88492 0.13518 0.60348
 O345 O 0.87729 0.12676 0.65022
 H346 H 0.82968 0.23452 0.63207
 H347 H 0.86905 0.19565 0.55255
 C348 C 1.11864 -0.06850 0.74677
 C349 C 1.12383 -0.01975 0.75291
 C350 C 1.09906 0.00193 0.71550
 C351 C 1.08161 -0.03501 0.68873
 O352 O 1.09313 -0.07761 0.70754
 H353 H 1.14305 -0.00186 0.78119
 H354 H 1.09627 0.03989 0.70713
 C355 C 0.28188 1.14837 1.06802
 C356 C 0.29221 1.17366 1.02607
 C357 C 0.32944 1.14922 1.00618
 C358 C 0.33883 1.11084 1.03696
 O359 O 0.31039 1.11016 1.07434
 H360 H 0.27568 1.20641 1.01181
 H361 H 0.34854 1.15909 0.97407
 C362 C 0.31805 0.83519 0.89307
 C363 C 0.35122 0.79789 0.89228
 C364 C 0.39142 0.81699 0.90793
 C365 C 0.37987 0.86443 0.91736
 O366 O 0.33540 0.87577 0.90826
 H367 H 0.34692 0.76133 0.88069
 H368 H 0.42504 0.79843 0.91261
 C369 C 0.69205 0.90028 1.18759
 C370 C 0.66792 0.91952 1.22698
 C371 C 0.62675 0.93814 1.20788
 C372 C 0.62930 0.92985 1.15843
 O373 O 0.66849 0.90703 1.14608
 H374 H 0.67802 0.91892 1.26520
 H375 H 0.59867 0.95626 1.22743
 C376 C 0.71361 1.07520 0.86690
 C377 C 0.70712 1.03048 0.84670
 C378 C 0.67291 1.01107 0.87316
 C379 C 0.66070 1.04484 0.90764
 O380 O 0.68523 1.08385 0.90426
 H381 H 0.72491 1.01348 0.81636
 H382 H 0.65724 0.97702 0.86686
 C383 C 0.10974 0.32384 0.17001
 C384 C 0.10502 0.35549 0.20839
 C385 C 0.08366 0.39596 0.18874
 C386 C 0.07617 0.38541 0.14019
 O387 O 0.09213 0.34187 0.12868
 H388 H 0.11710 0.35021 0.24572
 H389 H 0.07450 0.42905 0.20745
 C390 C -0.13627 0.27858 -0.08978
 C391 C -0.12685 0.26481 -0.04203
 C392 C -0.09990 0.29912 -0.02329
 C393 C -0.09494 0.33178 -0.06062
 O394 O -0.11685 0.31945 -0.10131
 H395 H -0.13707 0.23269 -0.02344
 H396 H -0.08571 0.30040 0.01348
 C397 C 0.12332 0.68105 -0.16532
 C398 C 0.13914 0.64376 -0.19432
 C399 C 0.12001 0.60397 -0.17542
 C400 C 0.09409 0.62008 -0.13622
 O401 O 0.09617 0.66688 -0.12982
 H402 H 0.16354 0.64519 -0.22406
 H403 H 0.12532 0.56740 -0.18783
 C404 C -0.14210 0.73240 0.06809
 C405 C -0.14328 0.74763 0.02000
 C406 C -0.12329 0.71052 -0.00573
 C407 C -0.11249 0.67533 0.02858
 O408 O -0.12356 0.68854 0.07333
 H409 H -0.15535 0.78228 0.00581
 H410 H -0.11683 0.70937 -0.04460
 C411 C 1.09965 0.17296 0.69473
 C412 C 1.06144 0.20319 0.68296
 C413 C 1.04089 0.18317 0.64346
 C414 C 1.06808 0.14285 0.63356
 O415 O 1.10360 0.13632 0.66423
 H416 H 1.04890 0.23551 0.70098
 H417 H 1.00906 0.19555 0.62497
 C418 C 0.84568 -0.07528 0.70772
 C419 C 0.83660 -0.02648 0.71416
 C420 C 0.86163 -0.00451 0.67938
 C421 C 0.88337 -0.04110 0.65370
 O422 O 0.87395 -0.08396 0.67054
 H423 H 0.81644 -0.00835 0.74218
 H424 H 0.86422 0.03365 0.67372
 C425 C 1.15929 -0.14569 0.33343
 C426 C 1.19307 -0.15164 0.36946
 C427 C 1.17231 -0.13583 0.41147
 C428 C 1.12766 -0.12102 0.39761
 O429 O 1.11971 -0.12713 0.35041
 H430 H 1.22851 -0.16567 0.36547
 H431 H 1.18843 -0.13320 0.44726
 C432 C 0.92002 0.10334 0.25145
 C433 C 0.96753 0.10310 0.24363
 C434 C 0.98730 0.07775 0.28161
 C435 C 0.95071 0.06552 0.31050
 O436 O 0.90980 0.08059 0.29231
 H437 H 0.98578 0.11942 0.21392
 H438 H 1.02416 0.07164 0.28909
 C439 C 0.14411 0.27769 -0.06722
 C440 C 0.15724 0.27666 -0.01833
 C441 C 0.13307 0.31445 0.00240
 C442 C 0.10785 0.33596 -0.03527
 O443 O 0.11429 0.31401 -0.07726
 H444 H 0.18044 0.25100 0.00040
 H445 H 0.13415 0.32575 0.04005
 C446 C -0.15617 0.32145 0.11885
 C447 C -0.18954 0.35781 0.12538
 C448 C -0.16902 0.39855 0.11182
 C449 C -0.12466 0.38414 0.09783
 O450 O -0.11651 0.33729 0.10230
 H451 H -0.22458 0.35497 0.13880
 H452 H -0.18492 0.43441 0.11096
 C453 C -0.11437 0.68298 -0.19142
 C454 C -0.09245 0.66018 -0.23031
 C455 C -0.07323 0.61822 -0.21147
 C456 C -0.08425 0.61909 -0.16269
 O457 O -0.10900 0.65791 -0.15054
 H458 H -0.09057 0.67224 -0.26782
 H459 H -0.05193 0.59149 -0.23038
 C460 C 0.07277 0.73128 0.11564
 C461 C 0.02586 0.73284 0.12671
 C462 C 0.00691 0.69870 0.09834
 C463 C 0.04337 0.67834 0.07245
 O464 O 0.08344 0.69785 0.08276
 H465 H 0.00743 0.75574 0.15249
 H466 H -0.02870 0.68762 0.09892
 C467 C 0.30988 1.09258 0.83559
 C468 C 0.33880 1.08434 0.79624
 C469 C 0.37909 1.06440 0.81554
 C470 C 0.37155 1.06127 0.86501
 O471 O 0.32976 1.07850 0.87744
 H472 H 0.33214 1.09376 0.75832
 H473 H 0.41041 1.05382 0.79606
 C474 C 0.29732 0.84814 1.10360
 C475 C 0.31388 0.82254 1.06384
 C476 C 0.34970 0.84748 1.04667
 C477 C 0.35263 0.88648 1.07684
 O478 O 0.32129 0.88705 1.11198
 H479 H 0.30180 0.78929 1.04919
 H480 H 0.37175 0.83796 1.01620
 C481 C 0.67832 1.13211 1.15693
 C482 C 0.64181 1.15442 1.18128
 C483 C 0.60269 1.13762 1.16016
 C484 C 0.61833 1.10659 1.12423
 O485 O 0.66431 1.10319 1.12205
 H486 H 0.64365 1.18127 1.20956
 H487 H 0.56700 1.14747 1.16919
 C488 C 0.72293 0.85349 0.92882
 C489 C 0.73178 0.84238 0.97733
 C490 C 0.69526 0.86292 1.00210
 C491 C 0.66687 0.88422 0.96671
 O492 O 0.68345 0.87885 0.92227
 H493 H 0.76183 0.82285 0.99272
 H494 H 0.68954 0.86218 1.04105
   
