data_POSCAR
  _audit_creation_date              2014-09-24
  _audit_creation_method            'ToBaCCo'
  _symmetry_space_group_name_H-M    'P1'
  _symmetry_Int_Tables_number       1
  _symmetry_cell_setting            triclinic
  loop_
  _symmetry_equiv_pos_as_xyz
 x,y,z
_cell_length_a 17.0605
_cell_length_b 16.6881
_cell_length_c 41.9880
_cell_angle_alpha 92.381900
_cell_angle_beta 88.599300
_cell_angle_gamma 124.677700
loop_
  _atom_site_label
  _atom_site_type_symbol
  _atom_site_fract_x
  _atom_site_fract_y
  _atom_site_fract_z
C1 C 0.09073 0.12147 0.55623
 H2 H 0.15148 0.11683 0.55571
 C3 C 0.09091 0.18935 0.57660
 H4 H 0.15183 0.23618 0.59197
 C5 C -0.06122 0.06682 0.53613
 H6 H -0.11990 0.01924 0.52015
 C7 C -0.06417 0.13410 0.55637
 H8 H -0.12524 0.13785 0.55531
 N9 N 0.01653 0.06331 0.53608
 C10 C -0.00800 -0.13561 0.55679
 H11 H -0.06680 -0.12784 0.55753
 C12 C -0.00735 -0.19839 0.57730
 H13 H -0.06475 -0.23586 0.59436
 C14 C 0.13911 -0.09235 0.53395
 H15 H 0.19548 -0.05106 0.51685
 C16 C 0.14244 -0.15533 0.55415
 H17 H 0.20198 -0.16198 0.55260
 Zn18 Zn 0.03879 -0.01423 0.50838
 N19 N 0.06343 -0.08536 0.53535
 C20 C 0.17596 0.03614 0.45922
 N21 N 0.14027 0.07074 0.48073
 C22 C 0.16679 0.16460 0.48015
 C23 C 0.23040 0.22730 0.45724
 C24 C 0.24045 0.09688 0.43584
 C25 C -0.11090 -0.07952 0.46364
 C26 C -0.18051 -0.14660 0.44179
 C27 C -0.15319 -0.26625 0.45770
 C28 C -0.08603 -0.19773 0.47960
 N29 N -0.06606 -0.10635 0.48226
 H30 H 0.15207 -0.03934 0.45958
 H31 H 0.13602 0.19067 0.49667
 H32 H 0.25036 0.30155 0.45762
 H33 H 0.26744 0.06816 0.41857
 H34 H -0.09069 -0.00518 0.46506
 H35 H -0.21225 -0.12077 0.42708
 H36 H -0.16599 -0.33781 0.45592
 H37 H -0.04715 -0.21699 0.49358
 C38 C 0.06719 -0.21119 0.57559
 C39 C 0.01346 0.19717 0.57676
 C40 C -0.20223 -0.24205 0.43829
 C41 C 0.26646 0.19304 0.43420
 C42 C 1.07337 0.03593 0.09795
 H43 H 1.03565 0.06700 0.09116
 C44 C 1.14083 0.04154 0.07712
 H45 H 1.15214 0.07430 0.05424
 C46 C 1.11139 -0.03553 0.13693
 H47 H 1.10478 -0.05881 0.16104
 C48 C 1.17929 -0.03238 0.11650
 H49 H 1.22216 -0.05612 0.12492
 N50 N 1.06046 -0.00084 0.12743
 C51 C 0.90255 0.11579 0.12727
 H52 H 0.95373 0.18355 0.13986
 C53 C 0.83278 0.10901 0.10798
 H54 H 0.83130 0.17251 0.10615
 C55 C 0.84141 -0.04989 0.11515
 H56 H 0.84519 -0.11166 0.11822
 C57 C 0.77118 -0.05991 0.09589
 H58 H 0.72130 -0.12979 0.08406
 Zn59 Zn 0.98927 0.02725 0.15570
 N60 N 0.90527 0.03661 0.13030
 C61 C 1.04795 0.18128 0.20239
 N62 N 1.07787 0.14226 0.18025
 C63 C 1.17126 0.17439 0.17855
 C64 C 1.23637 0.24102 0.20132
 C65 C 1.11127 0.24932 0.22544
 C66 C 0.90425 -0.15286 0.19047
 C67 C 0.83835 -0.21967 0.21247
 C68 C 0.77786 -0.12009 0.22052
 C69 C 0.84446 -0.05575 0.19868
 N70 N 0.90723 -0.07163 0.18452
 H71 H 0.97435 0.15707 0.20314
 H72 H 1.19527 0.14535 0.16046
 H73 H 1.30960 0.26335 0.19992
 H74 H 1.08572 0.27713 0.24363
 H75 H 0.95184 -0.16670 0.17814
 H76 H 0.83672 -0.28410 0.21659
 H77 H 0.72908 -0.10517 0.23149
 H78 H 0.84464 0.00646 0.19249
 C79 C 0.76595 0.01975 0.09191
 C80 C 1.19570 0.00861 0.08640
 C81 C 0.77472 -0.20258 0.22809
 C82 C 1.20551 0.27621 0.22591
 C83 C 0.06330 0.95014 0.88406
 H84 H -0.00923 0.88707 0.88550
 C85 C 0.13263 0.95742 0.90338
 H86 H 0.11133 0.90123 0.92028
 C87 C 0.17859 1.09871 0.85995
 H88 H 0.19742 1.15142 0.84206
 C89 C 0.25017 1.10946 0.87909
 H90 H 0.32288 1.17230 0.87646
 N91 N 0.08671 1.02053 0.86306
 C92 C -0.13329 1.04607 0.86193
 H93 H -0.08986 1.10960 0.84783
 C94 C -0.20288 1.04065 0.88169
 H95 H -0.21137 1.09996 0.88139
 C96 C -0.17444 0.89274 0.87827
 H97 H -0.16341 0.83506 0.87692
 C98 C -0.24605 0.88360 0.89814
 H99 H -0.28871 0.81879 0.91200
 Zn100 Zn -0.01328 0.99567 0.83597
 N101 N -0.11865 0.97389 0.86093
 C102 C -0.12975 0.80087 0.80680
 N103 N -0.04276 0.88695 0.80983
 C104 C 0.03407 0.90252 0.79342
 C105 C 0.02609 0.83003 0.77321
 C106 C -0.14094 0.72560 0.78681
 C107 C 0.07824 1.19542 0.81829
 C108 C 0.08995 1.26728 0.79864
 C109 C -0.01299 1.14097 0.75977
 C110 C -0.02106 1.07202 0.77974
 N111 N 0.02359 1.09972 0.80851
 H112 H -0.19037 0.79059 0.81961
 H113 H 0.10200 0.97230 0.79594
 H114 H 0.08840 0.84672 0.75989
 H115 H -0.21045 0.65730 0.78452
 H116 H 0.10876 1.21575 0.84193
 H117 H 0.13233 1.34297 0.80681
 H118 H -0.05012 1.11716 0.73715
 H119 H -0.06653 0.99560 0.77278
 C120 C -0.25957 0.95934 0.90080
 C121 C 0.22773 1.03777 0.90089
 C122 C 0.04171 1.23974 0.76944
 C123 C -0.06210 0.73923 0.77001
 O124 O 0.59958 0.09200 -0.03595
 O125 O 0.43205 0.06522 0.02711
 O126 O 0.60967 0.12381 0.02676
 O127 O 0.43768 0.07981 -0.03359
 O128 O 0.37285 -0.07845 -0.03349
 O129 O 0.54992 -0.03341 0.02651
 O130 O 0.37454 -0.09110 0.02925
 O131 O 0.53720 -0.06531 -0.03417
 Cu132 Cu 0.52672 0.10463 -0.00436
 Cu133 Cu 0.45149 -0.08225 -0.00351
 C134 C 0.59741 0.01732 -0.04557
 C135 C 0.37418 -0.01843 0.03880
 C136 C 0.61022 0.05375 0.03688
 C137 C 0.37478 -0.00619 -0.04348
 O138 O 0.03801 0.41966 0.63998
 O139 O 0.06160 0.59357 0.70244
 O140 O 0.05522 0.43376 0.70148
 O141 O 0.06337 0.59016 0.64034
 O142 O -0.09341 0.50981 0.64252
 O143 O -0.10177 0.35194 0.70320
 O144 O -0.09515 0.51345 0.70461
 O145 O -0.11868 0.34034 0.64183
 Cu146 Cu 0.07018 0.51744 0.67079
 Cu147 Cu -0.11784 0.42123 0.67336
 C148 C -0.04449 0.34949 0.63057
 C149 C -0.01297 0.58341 0.71402
 C150 C -0.02456 0.36529 0.71235
 C151 C -0.01355 0.57713 0.63120
 O152 O 0.57126 0.61892 0.30051
 O153 O 0.39784 0.46304 0.36240
 O154 O 0.55417 0.64018 0.36186
 O155 O 0.39438 0.46747 0.30032
 O156 O 0.46378 0.38926 0.30111
 O157 O 0.62109 0.56041 0.36604
 O158 O 0.46385 0.38137 0.36288
 O159 O 0.63917 0.53966 0.30389
 Cu160 Cu 0.47310 0.55507 0.33106
 Cu161 Cu 0.55377 0.46130 0.33408
 C162 C 0.63510 0.60520 0.29171
 C163 C 0.40144 0.39461 0.37300
 C164 C 0.61444 0.63062 0.37472
 C165 C 0.40187 0.40011 0.28966
 C166 C 0.01932 0.27361 0.59800
 C167 C -0.05521 0.27590 0.60700
 H168 H 0.08872 0.32852 0.60802
 H169 H -0.12628 0.21995 0.59869
 C170 C 0.70279 0.73180 0.25179
 C171 C 0.70586 0.66525 0.26723
 H172 H 0.64664 0.74186 0.25773
 H173 H 0.76215 0.65485 0.26251
 C174 C 0.30378 0.05100 -0.07850
 C175 C 0.30137 -0.02314 -0.06598
 H176 H 0.36463 0.12510 -0.07377
 H177 H 0.24403 -0.09786 -0.07189
 C178 C 0.06825 0.71979 0.59648
 C179 C -0.01223 0.64124 0.60787
 H180 H 0.13658 0.73403 0.60254
 H181 H -0.08089 0.62369 0.60059
 C182 C 0.26970 0.34063 0.25210
 C183 C 0.33929 0.33489 0.26347
 H184 H 0.25585 0.39101 0.26339
 H185 H 0.35024 0.28091 0.25367
 C186 C 0.67206 -0.04871 -0.07752
 C187 C 0.66310 0.02781 -0.06845
 H188 H 0.62679 -0.11735 -0.06570
 H189 H 0.71129 0.09974 -0.07766
 C190 C 0.27341 0.02536 0.06500
 C191 C 0.30385 -0.03281 0.06301
 H192 H 0.30200 0.08429 0.04854
 H193 H 0.27058 -0.09702 0.07726
 C194 C 0.73492 0.69008 0.41669
 C195 C 0.67330 0.69922 0.39827
 H196 H 0.72966 0.62220 0.41386
 H197 H 0.66649 0.75925 0.40273
 C198 C 0.04778 0.31373 0.74939
 C199 C -0.02930 0.29727 0.73477
 H200 H 0.11594 0.38325 0.74728
 H201 H -0.09850 0.23050 0.73892
 C202 C 0.68969 0.00424 0.07078
 C203 C 0.68330 0.07490 0.06026
 H204 H 0.63783 -0.07001 0.06230
 H205 H 0.73439 0.15023 0.06754
 C206 C 0.33187 0.25604 0.40870
 C207 C 0.33325 0.33131 0.39762
 H208 H 0.37879 0.23793 0.39816
 H209 H 0.28330 0.34721 0.40655
 C210 C -0.07471 0.66001 0.74831
 C211 C -0.00183 0.65597 0.73803
 H212 H -0.14634 0.60379 0.74035
 H213 H 0.06972 0.70907 0.74658
   
