data_POSCAR
  _audit_creation_date              2014-09-24
  _audit_creation_method            'ToBaCCo'
  _symmetry_space_group_name_H-M    'P1'
  _symmetry_Int_Tables_number       1
  _symmetry_cell_setting            triclinic
  loop_
  _symmetry_equiv_pos_as_xyz
 x,y,z
_cell_length_a 65.0062
_cell_length_b 64.2083
_cell_length_c 64.8169
_cell_angle_alpha 90.140600
_cell_angle_beta 89.942800
_cell_angle_gamma 89.853300
loop_
  _atom_site_label
  _atom_site_type_symbol
  _atom_site_fract_x
  _atom_site_fract_y
  _atom_site_fract_z
C1 C 0.60907 0.62446 0.64022
 C2 C 0.59371 0.63985 0.64000
 C3 C 0.59350 0.65529 0.62464
 C4 C 0.60890 0.65517 0.60940
 C5 C 0.62433 0.63986 0.60941
 C6 C 0.62438 0.62441 0.62485
 C7 C 0.60919 0.60905 0.65553
 C8 C 0.62450 0.59334 0.65591
 C9 C 0.63974 0.59361 0.64030
 C10 C 0.63976 0.60892 0.62490
 C11 C 0.65507 0.60905 0.60962
 C12 C 0.65517 0.62442 0.59420
 C13 C 0.63971 0.63978 0.59422
 H14 H 0.58174 0.63968 0.65165
 H15 H 0.60904 0.66718 0.59767
 H16 H 0.59673 0.60900 0.66661
 H17 H 0.65225 0.58246 0.64042
 H18 H 0.66709 0.59732 0.60988
 H19 H 0.63950 0.65152 0.58223
 C20 C 0.88995 0.37519 0.14088
 C21 C 0.90523 0.35972 0.14063
 C22 C 0.90564 0.34413 0.12515
 C23 C 0.89012 0.34460 0.10986
 C24 C 0.87476 0.35999 0.10997
 C25 C 0.87463 0.37532 0.12554
 C26 C 0.88983 0.39061 0.15626
 C27 C 0.87453 0.40614 0.15658
 C28 C 0.85925 0.40610 0.14124
 C29 C 0.85919 0.39081 0.12575
 C30 C 0.84397 0.39081 0.11043
 C31 C 0.84394 0.37552 0.09486
 C32 C 0.85939 0.36015 0.09477
 H33 H 0.91724 0.36055 0.15214
 H34 H 0.88928 0.33254 0.09821
 H35 H 0.90150 0.39036 0.16820
 H36 H 0.84754 0.41815 0.14121
 H37 H 0.83229 0.40288 0.11046
 H38 H 0.85932 0.34815 0.08298
 C39 C 0.39093 0.12533 -0.14080
 C40 C 0.40626 0.14068 -0.14063
 C41 C 0.40646 0.15622 -0.12530
 C42 C 0.39108 0.15625 -0.11003
 C43 C 0.37565 0.14103 -0.11002
 C44 C 0.37554 0.12553 -0.12549
 C45 C 0.39073 0.10989 -0.15615
 C46 C 0.37531 0.09438 -0.15662
 C47 C 0.36001 0.09489 -0.14108
 C48 C 0.36004 0.11026 -0.12566
 C49 C 0.34483 0.11046 -0.11027
 C50 C 0.34484 0.12581 -0.09476
 C51 C 0.36034 0.14105 -0.09476
 H52 H 0.41791 0.14070 -0.15260
 H53 H 0.39128 0.16799 -0.09798
 H54 H 0.40226 0.11068 -0.16818
 H55 H 0.34840 0.08287 -0.14027
 H56 H 0.33309 0.09850 -0.11023
 H57 H 0.36031 0.15312 -0.08303
 C58 C 0.10900 0.87584 0.35919
 C59 C 0.09368 0.86050 0.35938
 C60 C 0.09334 0.84479 0.37466
 C61 C 0.10899 0.84501 0.38983
 C62 C 0.12441 0.86025 0.38977
 C63 C 0.12443 0.87573 0.37442
 C64 C 0.10920 0.89122 0.34384
 C65 C 0.12458 0.90658 0.34356
 C66 C 0.13988 0.90640 0.35888
 C67 C 0.13990 0.89111 0.37429
 C68 C 0.15515 0.89096 0.38958
 C69 C 0.15520 0.87562 0.40503
 C70 C 0.13975 0.86032 0.40500
 H71 H 0.08256 0.86049 0.34697
 H72 H 0.10891 0.83387 0.40233
 H73 H 0.09750 0.89109 0.33193
 H74 H 0.15164 0.91834 0.35896
 H75 H 0.16716 0.90264 0.38931
 H76 H 0.13953 0.84860 0.41700
 N77 N 0.10044 0.15820 0.11459
 N78 N 0.09212 0.14941 0.13084
 C79 C 0.07535 0.16040 0.13650
 C80 C 0.07299 0.17699 0.12304
 C81 C 0.08926 0.17503 0.10932
 H82 H 0.06553 0.15652 0.14937
 H83 H 0.09287 0.18517 0.09655
 Cu84 Cu 0.10399 0.12448 0.14307
 Cu85 Cu 0.12518 0.14726 0.10148
 Cu86 Cu 0.14730 0.10346 0.12348
 N87 N 0.11692 0.10021 0.15551
 N88 N 0.13381 0.09206 0.14777
 C89 C 0.13943 0.07555 0.15921
 C90 C 0.12532 0.07315 0.17508
 C91 C 0.11125 0.08915 0.17220
 H92 H 0.15291 0.06612 0.15626
 H93 H 0.09779 0.09243 0.18145
 N94 N 0.15866 0.11725 0.09886
 N95 N 0.15022 0.13389 0.09046
 C96 C 0.16142 0.13953 0.07392
 C97 C 0.17775 0.12579 0.07174
 C98 C 0.17546 0.11188 0.08788
 H99 H 0.15800 0.15277 0.06425
 H100 H 0.18519 0.09866 0.09128
 H101 H 0.12134 0.11668 0.11054
 H102 H 0.13703 0.13367 0.12783
 N103 N 0.39772 0.84117 0.61560
 N104 N 0.40555 0.84943 0.63239
 C105 C 0.42225 0.83837 0.63802
 C106 C 0.42505 0.82225 0.62401
 C107 C 0.40913 0.82457 0.60999
 H108 H 0.43157 0.84174 0.65140
 H109 H 0.40610 0.81504 0.59658
 Cu110 Cu 0.39318 0.87385 0.64528
 Cu111 Cu 0.37339 0.85254 0.60219
 Cu112 Cu 0.35158 0.89664 0.62417
 N113 N 0.38103 0.89892 0.65710
 N114 N 0.36476 0.90771 0.64880
 C115 C 0.35955 0.92464 0.65993
 C116 C 0.37331 0.92665 0.67614
 C117 C 0.38674 0.91000 0.67379
 H118 H 0.34678 0.93479 0.65634
 H119 H 0.39963 0.90613 0.68358
 N120 N 0.34047 0.88312 0.59925
 N121 N 0.34875 0.86632 0.59090
 C122 C 0.33769 0.86084 0.57420
 C123 C 0.32163 0.87487 0.57186
 C124 C 0.32393 0.88878 0.58806
 H125 H 0.34118 0.84768 0.56438
 H126 H 0.31418 0.90196 0.59159
 H127 H 0.37778 0.88282 0.61219
 H128 H 0.36065 0.86605 0.62822
 N129 N 0.89949 0.65892 0.38524
 N130 N 0.90780 0.65012 0.36891
 C131 C 0.92436 0.66121 0.36310
 C132 C 0.92658 0.67792 0.37651
 C133 C 0.91045 0.67590 0.39037
 H134 H 0.93400 0.65746 0.35001
 H135 H 0.90707 0.68582 0.40344
 Cu136 Cu 0.89588 0.62521 0.35675
 Cu137 Cu 0.87546 0.64739 0.39910
 Cu138 Cu 0.85842 0.59940 0.38138
 N139 N 0.88412 0.59986 0.34530
 N140 N 0.86938 0.58991 0.35500
 C141 C 0.86408 0.57296 0.34400
 C142 C 0.87614 0.57218 0.32636
 C143 C 0.88869 0.58957 0.32776
 H144 H 0.85242 0.56197 0.34868
 H145 H 0.90022 0.59445 0.31678
 N146 N 0.84541 0.61438 0.40455
 N147 N 0.85164 0.63279 0.41106
 C148 C 0.83945 0.63903 0.42672
 C149 C 0.82475 0.62385 0.43025
 C150 C 0.82903 0.60847 0.41582
 H151 H 0.84110 0.65363 0.43486
 H152 H 0.82088 0.59399 0.41366
 H153 H 0.88316 0.61759 0.39135
 H154 H 0.86342 0.63030 0.37459
 N155 N 0.60185 0.34153 -0.11614
 N156 N 0.59408 0.34969 -0.13300
 C157 C 0.57743 0.33864 -0.13867
 C158 C 0.57460 0.32263 -0.12464
 C159 C 0.59046 0.32501 -0.11055
 H160 H 0.56816 0.34193 -0.15210
 H161 H 0.59345 0.31558 -0.09710
 Cu162 Cu 0.60644 0.37398 -0.14588
 Cu163 Cu 0.62610 0.35293 -0.10266
 Cu164 Cu 0.64795 0.39676 -0.12469
 N165 N 0.61859 0.39893 -0.15770
 N166 N 0.63481 0.40772 -0.14937
 C167 C 0.64003 0.42456 -0.16052
 C168 C 0.62631 0.42652 -0.17676
 C169 C 0.61290 0.40993 -0.17443
 H170 H 0.65277 0.43470 -0.15690
 H171 H 0.60005 0.40604 -0.18424
 N172 N 0.65901 0.38338 -0.09971
 N173 N 0.65067 0.36672 -0.09130
 C174 C 0.66166 0.36134 -0.07453
 C175 C 0.67775 0.37526 -0.07222
 C176 C 0.67553 0.38902 -0.08851
 H177 H 0.65830 0.34812 -0.06484
 H178 H 0.68515 0.40227 -0.09190
 H179 H 0.62172 0.38315 -0.11276
 H180 H 0.63892 0.36618 -0.12868
 C181 C -0.05342 0.30699 0.14310
 C182 C -0.04779 0.29739 0.12458
 C183 C -0.05750 0.30316 0.10626
 C184 C -0.07282 0.31848 0.10639
 C185 C -0.07879 0.32848 0.12496
 C186 C -0.06870 0.32235 0.14334
 C187 C -0.03202 0.28161 0.12439
 C188 C -0.01880 0.26841 0.12423
 C189 C -0.00332 0.25296 0.12404
 C190 C 0.00992 0.23978 0.12387
 C191 C 0.02572 0.22404 0.12367
 C192 C 0.03890 0.22217 0.10669
 C193 C 0.05427 0.20689 0.10647
 C194 C 0.05667 0.19323 0.12326
 C195 C 0.04330 0.19526 0.14026
 C196 C 0.02796 0.21056 0.14044
 H197 H -0.04611 0.30250 0.15743
 H198 H -0.05312 0.29593 0.09178
 H199 H -0.07923 0.32294 0.09166
 H200 H -0.07303 0.32868 0.15820
 H201 H 0.03729 0.23250 0.09360
 H202 H 0.06410 0.20576 0.09304
 H203 H 0.04472 0.18520 0.15353
 H204 H 0.01786 0.21189 0.15369
 C205 C 0.55261 0.69306 0.60585
 C206 C 0.54629 0.70233 0.62437
 C207 C 0.55539 0.69627 0.64298
 C208 C 0.57074 0.68098 0.64308
 C209 C 0.57721 0.67155 0.62455
 C210 C 0.56797 0.67777 0.60592
 C211 C 0.53047 0.71805 0.62429
 C212 C 0.51720 0.73120 0.62423
 C213 C 0.50167 0.74659 0.62417
 C214 C 0.48839 0.75973 0.62413
 C215 C 0.47253 0.77542 0.62408
 C216 C 0.47399 0.79268 0.63719
 C217 C 0.45858 0.80791 0.63719
 C218 C 0.44145 0.80609 0.62403
 C219 C 0.44016 0.78864 0.61089
 C220 C 0.45559 0.77343 0.61094
 H221 H 0.54563 0.69759 0.59137
 H222 H 0.55065 0.70338 0.65740
 H223 H 0.57774 0.67671 0.65763
 H224 H 0.57243 0.67062 0.59144
 H225 H 0.48706 0.79439 0.64741
 H226 H 0.46025 0.82114 0.64740
 H227 H 0.42719 0.78656 0.60067
 H228 H 0.45429 0.76010 0.60075
 C229 C 1.04287 0.81776 0.36612
 C230 C 1.04670 0.79836 0.37502
 C231 C 1.06588 0.79425 0.38380
 C232 C 1.08122 0.80946 0.38373
 C233 C 1.07773 0.82926 0.37478
 C234 C 1.05816 0.83304 0.36596
 C235 C 1.03094 0.78266 0.37515
 C236 C 1.01774 0.76950 0.37527
 C237 C 1.00231 0.75408 0.37542
 C238 C 0.98914 0.74090 0.37556
 C239 C 0.97343 0.72514 0.37575
 C240 C 0.95615 0.72747 0.38843
 C241 C 0.94091 0.71214 0.38868
 C242 C 0.94274 0.69424 0.37621
 C243 C 0.96019 0.69210 0.36349
 C244 C 0.97541 0.70744 0.36328
 H245 H 1.02798 0.82118 0.35942
 H246 H 1.06907 0.77918 0.39059
 H247 H 1.09604 0.80516 0.38999
 H248 H 1.05410 0.84805 0.35962
 H249 H 0.95445 0.74113 0.39813
 H250 H 0.92768 0.71448 0.39855
 H251 H 0.96227 0.67852 0.35380
 H252 H 0.98875 0.70547 0.35343
 C253 C 0.43320 0.20854 -0.12087
 C254 C 0.45363 0.20306 -0.12509
 C255 C 0.45866 0.18229 -0.12939
 C256 C 0.44334 0.16705 -0.12946
 C257 C 0.42275 0.17239 -0.12522
 C258 C 0.41786 0.19332 -0.12092
 C259 C 0.46942 0.21873 -0.12503
 C260 C 0.48265 0.23185 -0.12498
 C261 C 0.49814 0.24720 -0.12491
 C262 C 0.51139 0.26031 -0.12486
 C263 C 0.52722 0.27594 -0.12479
 C264 C 0.54410 0.27401 -0.11156
 C265 C 0.55950 0.28917 -0.11149
 C266 C 0.55824 0.30652 -0.12468
 C267 C 0.54116 0.30829 -0.13793
 C268 C 0.52579 0.29310 -0.13796
 H269 H 0.42913 0.22458 -0.11758
 H270 H 0.47443 0.17786 -0.13262
 H271 H 0.44763 0.15104 -0.13257
 H272 H 0.40212 0.19796 -0.11786
 H273 H 0.54538 0.26076 -0.10132
 H274 H 0.57242 0.28714 -0.10119
 H275 H 0.53952 0.32144 -0.14819
 H276 H 0.51276 0.29477 -0.14825
 C277 C 0.14328 -0.05586 0.30251
 C278 C 0.12483 -0.04648 0.29636
 C279 C 0.10630 -0.05241 0.30562
 C280 C 0.10620 -0.06767 0.32097
 C281 C 0.12467 -0.07720 0.32727
 C282 C 0.14322 -0.07111 0.31786
 C283 C 0.12491 -0.03079 0.28053
 C284 C 0.12497 -0.01766 0.26727
 C285 C 0.12504 -0.00230 0.25174
 C286 C 0.12510 0.01081 0.23846
 C287 C 0.12517 0.02645 0.22259
 C288 C 0.11193 0.04360 0.22398
 C289 C 0.11196 0.05879 0.20856
 C290 C 0.12528 0.05704 0.19149
 C291 C 0.13855 0.03971 0.19027
 C292 C 0.13847 0.02454 0.20571
 H293 H 0.15770 -0.05143 0.29539
 H294 H 0.09194 -0.04521 0.30102
 H295 H 0.09172 -0.07184 0.32810
 H296 H 0.15764 -0.07835 0.32219
 H297 H 0.10159 0.04525 0.23701
 H298 H 0.10164 0.07192 0.21018
 H299 H 0.14890 0.03769 0.17735
 H300 H 0.14877 0.01130 0.20446
 C301 C 0.61576 0.56616 -0.29360
 C302 C 0.62476 0.54677 -0.29744
 C303 C 0.63366 0.54271 -0.31665
 C304 C 0.63361 0.55796 -0.33200
 C305 C 0.62457 0.57775 -0.32849
 C306 C 0.61562 0.58148 -0.30889
 C307 C 0.62490 0.53104 -0.28166
 C308 C 0.62503 0.51787 -0.26844
 C309 C 0.62520 0.50245 -0.25296
 C310 C 0.62536 0.48929 -0.23973
 C311 C 0.62559 0.47356 -0.22394
 C312 C 0.60888 0.46008 -0.22171
 C313 C 0.60909 0.44478 -0.20639
 C314 C 0.62605 0.44277 -0.19304
 C315 C 0.64278 0.45645 -0.19544
 C316 C 0.64253 0.47172 -0.21078
 H317 H 0.60897 0.56954 -0.27869
 H318 H 0.64053 0.52765 -0.31986
 H319 H 0.63997 0.55370 -0.34684
 H320 H 0.60919 0.59648 -0.30481
 H321 H 0.59566 0.46139 -0.23180
 H322 H 0.59586 0.43471 -0.20498
 H323 H 0.65617 0.45533 -0.18562
 H324 H 0.65557 0.48206 -0.21239
 C325 C 0.35663 1.05350 0.80638
 C326 C 0.37494 1.04763 0.79667
 C327 C 0.39337 1.05717 0.80235
 C328 C 0.39355 1.07253 0.81766
 C329 C 0.37518 1.07874 0.82775
 C330 C 0.35669 1.06883 0.82172
 C331 C 0.37480 1.03182 0.78089
 C332 C 0.37467 1.01858 0.76768
 C333 C 0.37449 1.00307 0.75222
 C334 C 0.37432 0.98982 0.73901
 C335 C 0.37408 0.97400 0.72324
 C336 C 0.35711 0.97213 0.71013
 C337 C 0.35684 0.95676 0.69482
 C338 C 0.37359 0.94301 0.69239
 C339 C 0.39059 0.94506 0.70569
 C340 C 0.39081 0.96045 0.72098
 H341 H 0.34221 1.04633 0.80196
 H342 H 0.40769 1.05260 0.79504
 H343 H 0.40834 1.07879 0.82203
 H344 H 0.34198 1.07336 0.82813
 H345 H 0.34405 0.98252 0.71177
 H346 H 0.34342 0.95562 0.68505
 H347 H 0.40383 0.93493 0.70425
 H348 H 0.40406 0.96179 0.73103
 C349 C 0.85605 0.44394 0.19778
 C350 C 0.87456 0.45310 0.20399
 C351 C 0.89305 0.44696 0.19469
 C352 C 0.89305 0.43170 0.17927
 C353 C 0.87453 0.42239 0.17292
 C354 C 0.85602 0.42869 0.18235
 C355 C 0.87459 0.46875 0.21992
 C356 C 0.87467 0.48185 0.23328
 C357 C 0.87480 0.49716 0.24894
 C358 C 0.87496 0.51023 0.26232
 C359 C 0.87520 0.52581 0.27832
 C360 C 0.89111 0.54041 0.27912
 C361 C 0.89142 0.55551 0.29470
 C362 C 0.87579 0.55621 0.30974
 C363 C 0.85984 0.54144 0.30875
 C364 C 0.85957 0.52637 0.29315
 H365 H 0.84165 0.44854 0.20492
 H366 H 0.90746 0.45398 0.19934
 H367 H 0.90751 0.42737 0.17212
 H368 H 0.84155 0.42162 0.17798
 H369 H 0.90332 0.54010 0.26773
 H370 H 0.90403 0.56645 0.29498
 H371 H 0.84746 0.54153 0.31990
 H372 H 0.84715 0.51515 0.29266
 C373 C 0.29281 0.12199 -0.06841
 C374 C 0.29802 0.12607 -0.04785
 C375 C 0.31851 0.13009 -0.04260
 C376 C 0.33374 0.13003 -0.05784
 C377 C 0.32867 0.12592 -0.07856
 C378 C 0.30802 0.12191 -0.08367
 C379 C 0.28234 0.12611 -0.03215
 C380 C 0.26921 0.12612 -0.01901
 C381 C 0.25381 0.12612 -0.00365
 C382 C 0.24064 0.12610 0.00946
 C383 C 0.22491 0.12606 0.02510
 C384 C 0.22697 0.11337 0.04248
 C385 C 0.21167 0.11328 0.05766
 C386 C 0.19404 0.12591 0.05565
 C387 C 0.19215 0.13863 0.03809
 C388 C 0.20748 0.13869 0.02294
 H389 H 0.27698 0.11892 -0.07265
 H390 H 0.32272 0.13321 -0.02673
 H391 H 0.34953 0.13291 -0.05339
 H392 H 0.30359 0.11897 -0.09951
 H393 H 0.24042 0.10356 0.04433
 H394 H 0.21380 0.10341 0.07098
 H395 H 0.17880 0.14844 0.03587
 H396 H 0.20571 0.14855 0.00951
 C397 C 0.69599 0.64321 0.55672
 C398 C 0.70239 0.62446 0.54769
 C399 C 0.69335 0.60570 0.55381
 C400 C 0.67798 0.60568 0.56892
 C401 C 0.67144 0.62444 0.57810
 C402 C 0.68061 0.64322 0.57182
 C403 C 0.71828 0.62445 0.53222
 C404 C 0.73162 0.62443 0.51928
 C405 C 0.74726 0.62438 0.50417
 C406 C 0.76065 0.62433 0.49129
 C407 C 0.77667 0.62426 0.47594
 C408 C 0.77659 0.60935 0.46016
 C409 C 0.79219 0.60921 0.44530
 C410 C 0.80812 0.62402 0.44599
 C411 C 0.80801 0.63896 0.46193
 C412 C 0.79240 0.63906 0.47678
 H413 H 0.70293 0.65781 0.55214
 H414 H 0.69816 0.59110 0.54689
 H415 H 0.67104 0.59101 0.57324
 H416 H 0.67609 0.65788 0.57878
 H417 H 0.76446 0.59784 0.45935
 H418 H 0.79161 0.59757 0.43323
 H419 H 0.82004 0.65050 0.46313
 H420 H 0.79263 0.65065 0.48895
 C421 C 0.81762 0.37158 0.04274
 C422 C 0.79713 0.37570 0.04803
 C423 C 0.79192 0.37978 0.06860
 C424 C 0.80713 0.37975 0.08384
 C425 C 0.82777 0.37560 0.07868
 C426 C 0.83285 0.37152 0.05795
 C427 C 0.78146 0.37571 0.03235
 C428 C 0.76835 0.37570 0.01921
 C429 C 0.75302 0.37567 0.00381
 C430 C 0.73994 0.37564 -0.00935
 C431 C 0.72433 0.37558 -0.02509
 C432 C 0.70703 0.36284 -0.02304
 C433 C 0.69188 0.36273 -0.03834
 C434 C 0.69382 0.37539 -0.05594
 C435 C 0.71130 0.38816 -0.05781
 C436 C 0.72643 0.38823 -0.04249
 H437 H 0.82183 0.36845 0.02685
 H438 H 0.77609 0.38293 0.07287
 H439 H 0.80270 0.38268 0.09969
 H440 H 0.84864 0.36854 0.05346
 H441 H 0.70523 0.35300 -0.00960
 H442 H 0.67862 0.35282 -0.03621
 H443 H 0.71347 0.39799 -0.07115
 H444 H 0.73979 0.39812 -0.04426
 C445 C 0.19576 0.85670 0.44274
 C446 C 0.20207 0.87543 0.45180
 C447 C 0.19309 0.89422 0.44558
 C448 C 0.17785 0.89430 0.43037
 C449 C 0.17139 0.87555 0.42117
 C450 C 0.18052 0.85674 0.42754
 C451 C 0.21774 0.87536 0.46747
 C452 C 0.23086 0.87530 0.48060
 C453 C 0.24620 0.87523 0.49598
 C454 C 0.25931 0.87518 0.50913
 C455 C 0.27494 0.87511 0.52483
 C456 C 0.27732 0.89236 0.53781
 C457 C 0.29248 0.89231 0.55310
 C458 C 0.30552 0.87495 0.55562
 C459 C 0.30298 0.85768 0.54245
 C460 C 0.28780 0.85777 0.52718
 H461 H 0.20265 0.84207 0.44740
 H462 H 0.19781 0.90881 0.45253
 H463 H 0.17094 0.90900 0.42598
 H464 H 0.17606 0.84209 0.42056
 H465 H 0.26747 0.90589 0.53611
 H466 H 0.29403 0.90596 0.56277
 H467 H 0.31255 0.84397 0.54396
 H468 H 0.28606 0.84431 0.51724
   
