data_POSCAR
  _audit_creation_date              2014-09-24
  _audit_creation_method            'ToBaCCo'
  _symmetry_space_group_name_H-M    'P1'
  _symmetry_Int_Tables_number       1
  _symmetry_cell_setting            triclinic
  loop_
  _symmetry_equiv_pos_as_xyz
 x,y,z
_cell_length_a 23.5703
_cell_length_b 23.4915
_cell_length_c 65.8951
_cell_angle_alpha 89.956200
_cell_angle_beta 89.972700
_cell_angle_gamma 119.812800
loop_
  _atom_site_label
  _atom_site_type_symbol
  _atom_site_fract_x
  _atom_site_fract_y
  _atom_site_fract_z
C1 C -0.06213 -0.07181 0.48322
 C2 C -0.02227 -0.03741 0.49967
 C3 C -0.01590 -0.07181 0.51603
 C4 C -0.04841 -0.14096 0.51619
 C5 C -0.08917 -0.17457 0.49952
 C6 C -0.09688 -0.14097 0.48287
 C7 C 0.01411 0.03512 0.49961
 C8 C 0.00807 0.06992 0.51596
 C9 C 0.04160 0.13883 0.51594
 C10 C 0.08252 0.17265 0.49946
 C11 C 0.08959 0.13845 0.48305
 C12 C 0.05465 0.06955 0.48319
 H13 H -0.06419 -0.04369 0.47052
 H14 H 0.01780 -0.04360 0.52800
 H15 H -0.02433 0.04312 0.52842
 H16 H 0.05901 0.04252 0.47054
 H17 H -0.11935 -0.22726 0.50033
 H18 H 0.11027 0.22576 0.49966
 C19 C 1.07157 0.01046 0.15039
 C20 C 1.03668 0.01619 0.16675
 C21 C 1.07057 0.05571 0.18332
 C22 C 1.13908 0.09025 0.18361
 C23 C 1.17356 0.08367 0.16721
 C24 C 1.14067 0.04336 0.15037
 C25 C 0.96442 -0.02002 0.16662
 C26 C 0.92962 -0.06103 0.18293
 C27 C 0.86096 -0.09656 0.18278
 C28 C 0.82737 -0.08944 0.16623
 C29 C 0.86156 -0.04806 0.14986
 C30 C 0.93023 -0.01399 0.15012
 H31 H 1.04381 -0.02298 0.13830
 H32 H 1.04338 0.05969 0.19598
 H33 H 0.95624 -0.06669 0.19544
 H34 H 0.95728 0.01744 0.13749
 H35 H 1.22630 0.11322 0.16728
 H36 H 0.77442 -0.11491 0.16634
 C37 C 0.06109 0.99013 0.85016
 C38 C 0.02018 0.98391 0.83385
 C39 C 0.01415 0.94349 0.81745
 C40 C 0.04794 0.90848 0.81730
 C41 C 0.08944 0.91566 0.83360
 C42 C 0.09722 0.95685 0.85027
 C43 C -0.01608 1.02024 0.83389
 C44 C -0.00972 1.06117 0.81758
 C45 C -0.04261 1.09708 0.81765
 C46 C -0.08336 1.09045 0.83413
 C47 C -0.09135 1.04889 0.85074
 C48 C -0.05632 1.01451 0.85035
 H49 H 0.06700 1.02419 0.86211
 H50 H -0.01852 0.93787 0.80508
 H51 H 0.02253 1.06647 0.80510
 H52 H -0.05842 0.98420 0.86302
 H53 H 0.11407 0.88725 0.83335
 H54 H -0.11140 1.11540 0.83324
 O55 O 0.47318 0.05572 0.01998
 O56 O 0.58381 0.05672 -0.01949
 O57 O 0.47259 0.05507 -0.01959
 O58 O 0.58274 0.05402 0.02005
 O59 O 0.52874 -0.05448 0.01970
 O60 O 0.41903 -0.05343 -0.01970
 O61 O 0.53025 -0.05177 -0.01984
 O62 O 0.41919 -0.05278 0.01988
 Cu63 Cu 0.53348 0.06632 0.00026
 Cu64 Cu 0.46886 -0.06405 -0.00002
 C65 C 0.42771 0.00149 0.02666
 C66 C 0.57576 0.00283 -0.02638
 C67 C 0.42728 0.00081 -0.02636
 C68 C 0.57411 -0.00060 0.02658
 O69 O 0.05407 0.47330 0.64682
 O70 O 0.05480 0.58424 0.68623
 O71 O 0.05334 0.47275 0.68639
 O72 O 0.05238 0.58320 0.64666
 O73 O -0.05576 0.52898 0.64704
 O74 O -0.05480 0.41892 0.68653
 O75 O -0.05333 0.53040 0.68661
 O76 O -0.05407 0.41908 0.64695
 Cu77 Cu 0.06455 0.53382 0.66650
 Cu78 Cu -0.06539 0.46890 0.66681
 C79 C 0.00005 0.42764 0.64017
 C80 C 0.00104 0.57604 0.69313
 C81 C -0.00075 0.42726 0.69319
 C82 C -0.00203 0.57447 0.64012
 O83 O 0.47135 0.41563 0.31376
 O84 O 0.58129 0.52610 0.35309
 O85 O 0.46999 0.41686 0.35331
 O86 O 0.58097 0.52657 0.31352
 O87 O 0.52707 0.58130 0.31341
 O88 O 0.41653 0.47202 0.35295
 O89 O 0.52783 0.58127 0.35298
 O90 O 0.41744 0.47034 0.31340
 Cu91 Cu 0.53132 0.46577 0.33345
 Cu92 Cu 0.46682 0.53178 0.33316
 C93 C 0.42598 0.42429 0.30689
 C94 C 0.57314 0.57216 0.35974
 C95 C 0.42455 0.42613 0.35985
 C96 C 0.57250 0.57240 0.30673
 C97 C 0.02003 0.26582 0.54523
 C98 C 0.01813 0.24514 0.56526
 C99 C 0.02377 0.18961 0.56921
 C100 C 0.03136 0.15492 0.55320
 C101 C 0.03354 0.17547 0.53300
 C102 C 0.02766 0.23127 0.52920
 C103 C 0.01157 0.28170 0.58172
 C104 C 0.00693 0.31332 0.59536
 C105 C 0.00277 0.35162 0.61116
 C106 C 0.00062 0.38558 0.62450
 H107 H 0.01567 0.30872 0.54199
 H108 H 0.02268 0.17336 0.58467
 H109 H 0.03650 0.11261 0.55662
 H110 H 0.02823 0.24776 0.51381
 C111 C 0.80954 0.83413 0.23597
 C112 C 0.75475 0.77298 0.23192
 C113 C 0.73477 0.75442 0.21185
 C114 C 0.76928 0.79683 0.19588
 C115 C 0.82434 0.85850 0.19978
 C116 C 0.84419 0.87664 0.22001
 C117 C 0.71820 0.72965 0.24832
 C118 C 0.68662 0.69330 0.26193
 C119 C 0.64838 0.65083 0.27770
 C120 C 0.61448 0.61480 0.29104
 H121 H 0.82524 0.84912 0.25146
 H122 H 0.69244 0.70718 0.20854
 H123 H 0.75335 0.78109 0.18047
 H124 H 0.88591 0.92406 0.22351
 C125 C 0.17318 -0.00932 -0.09785
 C126 C 0.22647 -0.01872 -0.10115
 C127 C 0.23715 -0.03614 -0.12044
 C128 C 0.19477 -0.04428 -0.13640
 C129 C 0.14034 -0.03509 -0.13345
 C130 C 0.13063 -0.01726 -0.11376
 C131 C 0.26981 -0.01152 -0.08473
 C132 C 0.30617 -0.00647 -0.07112
 C133 C 0.34869 -0.00200 -0.05535
 C134 C 0.38478 0.00029 -0.04202
 H135 H 0.16405 0.00353 -0.08289
 H136 H 0.27862 -0.04312 -0.12320
 H137 H 0.20691 -0.05516 -0.15118
 H138 H 0.08873 -0.01195 -0.11019
 C139 C -0.04054 0.72653 0.54577
 C140 C -0.02377 0.75464 0.56505
 C141 C -0.01516 0.81720 0.56827
 C142 C -0.02323 0.85168 0.55227
 C143 C -0.04038 0.82413 0.53259
 C144 C -0.04878 0.76065 0.52973
 C145 C -0.01632 0.71870 0.58155
 C146 C -0.01097 0.68755 0.59522
 C147 C -0.00605 0.64974 0.61105
 C148 C -0.00328 0.61615 0.62442
 H149 H -0.04689 0.67820 0.54307
 H150 H -0.00281 0.83919 0.58322
 H151 H -0.01849 0.89882 0.55576
 H152 H -0.05917 0.73769 0.51494
 C153 C 0.18810 0.21779 0.22528
 C154 C 0.24424 0.21952 0.23299
 C155 C 0.26553 0.17844 0.22477
 C156 C 0.23112 0.13607 0.20881
 C157 C 0.17485 0.13423 0.20086
 C158 C 0.15356 0.17540 0.20932
 C159 C 0.28068 0.26400 0.24914
 C160 C 0.31217 0.30122 0.26255
 C161 C 0.35032 0.34458 0.27813
 C162 C 0.38413 0.38127 0.29133
 H163 H 0.17131 0.24954 0.23148
 H164 H 0.30887 0.17930 0.23065
 H165 H 0.24825 0.10442 0.20278
 H166 H 0.11091 0.17570 0.20336
 C167 C 0.80919 0.08365 -0.11198
 C168 C 0.78031 0.02599 -0.10052
 C169 C 0.79432 -0.02383 -0.10495
 C170 C 0.83681 -0.01630 -0.12085
 C171 C 0.86629 0.04151 -0.13281
 C172 C 0.85161 0.09147 -0.12792
 C173 C 0.73596 0.01803 -0.08432
 C174 C 0.69882 0.01234 -0.07086
 C175 C 0.65550 0.00710 -0.05523
 C176 C 0.61883 0.00416 -0.04199
 H177 H 0.79915 0.12289 -0.10854
 H178 H 0.77178 -0.06898 -0.09625
 H179 H 0.84373 -0.05750 -0.12417
 H180 H 0.87446 0.13802 -0.13579
 C181 C 0.18374 0.01130 0.09833
 C182 C 0.24624 0.02041 0.10163
 C183 C 0.27393 0.03718 0.12096
 C184 C 0.23944 0.04489 0.13697
 C185 C 0.17599 0.03591 0.13402
 C186 C 0.14890 0.01883 0.11429
 C187 C 0.28252 0.01348 0.08517
 C188 C 0.31392 0.00860 0.07153
 C189 C 0.35199 0.00424 0.05572
 C190 C 0.38578 0.00201 0.04236
 H191 H 0.16208 -0.00104 0.08334
 H192 H 0.32222 0.04394 0.12372
 H193 H 0.26214 0.05529 0.15177
 H194 H 0.10183 0.01373 0.11073
 C195 C 0.80495 0.72524 0.44546
 C196 C 0.77581 0.75381 0.43401
 C197 C 0.78916 0.81736 0.43850
 C198 C 0.83128 0.85225 0.45446
 C199 C 0.86101 0.82411 0.46639
 C200 C 0.84700 0.75977 0.46144
 C201 C 0.73187 0.71749 0.41775
 C202 C 0.69508 0.68607 0.40425
 C203 C 0.65218 0.64795 0.38859
 C204 C 0.61584 0.61412 0.37534
 H205 H 0.79542 0.67618 0.44197
 H206 H 0.76642 0.83980 0.42981
 H207 H 0.83774 0.90015 0.45782
 H208 H 0.87012 0.73629 0.46932
 C209 C -0.01983 0.24600 0.78824
 C210 C -0.01872 0.22683 0.76822
 C211 C -0.02524 0.16530 0.76430
 C212 C -0.03295 0.12303 0.78035
 C213 C -0.03436 0.14179 0.80054
 C214 C -0.02758 0.20383 0.80430
 C215 C -0.01212 0.26993 0.75172
 C216 C -0.00748 0.30616 0.73806
 C217 C -0.00335 0.34859 0.72224
 C218 C -0.00123 0.38467 0.70888
 H219 H -0.01480 0.29353 0.79145
 H220 H -0.02477 0.14985 0.74884
 H221 H -0.03878 0.07532 0.77696
 H222 H -0.02757 0.22001 0.81969
 C223 C 0.81198 0.03033 0.10823
 C224 C 0.75583 -0.02401 0.10056
 C225 C 0.73466 -0.08630 0.10882
 C226 C 0.76923 -0.09424 0.12476
 C227 C 0.82553 -0.03988 0.13266
 C228 C 0.84667 0.02250 0.12416
 C229 C 0.71931 -0.01599 0.08441
 C230 C 0.68779 -0.01023 0.07098
 C231 C 0.64965 -0.00493 0.05538
 C232 C 0.61589 -0.00195 0.04217
 H233 H 0.82867 0.07880 0.10199
 H234 H 0.69133 -0.12873 0.10297
 H235 H 0.75222 -0.14297 0.13081
 H236 H 0.88933 0.06540 0.13009
 C237 C 0.17907 0.26633 0.44218
 C238 C 0.21969 0.24465 0.43389
 C239 C 0.21734 0.18790 0.44150
 C240 C 0.17475 0.15308 0.45740
 C241 C 0.13398 0.17470 0.46592
 C242 C 0.13649 0.23165 0.45808
 C243 C 0.26421 0.28122 0.41775
 C244 C 0.30144 0.31273 0.40433
 C245 C 0.34481 0.35081 0.38871
 C246 C 0.38150 0.38449 0.37547
 H247 H 0.18040 0.31014 0.43637
 H248 H 0.24873 0.17080 0.43525
 H249 H 0.17454 0.10992 0.46328
 H250 H 0.10514 0.24904 0.46414
 C251 C 0.02312 0.75867 0.78806
 C252 C 0.02205 0.77785 0.76802
 C253 C 0.02922 0.83964 0.76405
 C254 C 0.03757 0.88216 0.78006
 C255 C 0.03901 0.86342 0.80026
 C256 C 0.03150 0.80110 0.80408
 C257 C 0.01481 0.73448 0.75156
 C258 C 0.00962 0.69801 0.73793
 C259 C 0.00485 0.65530 0.72214
 C260 C 0.00219 0.61895 0.70880
 H261 H 0.01754 0.71092 0.79130
 H262 H 0.02875 0.85509 0.74859
 H263 H 0.04383 0.93006 0.77665
 H264 H 0.03136 0.78487 0.81948
   
