data_POSCAR
  _audit_creation_date              2014-09-24
  _audit_creation_method            'ToBaCCo'
  _symmetry_space_group_name_H-M    'P1'
  _symmetry_Int_Tables_number       1
  _symmetry_cell_setting            triclinic
  loop_
  _symmetry_equiv_pos_as_xyz
 x,y,z
_cell_length_a 33.3759
_cell_length_b 38.4515
_cell_length_c 33.9190
_cell_angle_alpha 89.616900
_cell_angle_beta 90.177200
_cell_angle_gamma 89.716600
loop_
  _atom_site_label
  _atom_site_type_symbol
  _atom_site_fract_x
  _atom_site_fract_y
  _atom_site_fract_z
Si1 Si 1.24794 0.24902 0.24815
 Si2 Si 0.74662 -0.24968 0.24896
 Si3 Si 0.74614 0.25066 -0.25030
 Si4 Si 1.24555 -0.25098 -0.25275
 Si5 Si 0.25354 0.24988 0.75336
 Si6 Si 0.75260 0.74652 0.75167
 Si7 Si 0.75086 0.24819 0.25151
 Si8 Si 0.25144 0.75005 0.25263
 N9 N 1.07197 0.03192 0.04296
 N10 N 1.09904 0.05601 0.04967
 N11 N 1.04242 -0.04100 0.06857
 N12 N 1.04975 -0.06550 0.09510
 N13 N 1.06995 -0.04118 0.04099
 N14 N 1.09664 -0.06598 0.04798
 N15 N 1.04446 0.03206 0.07051
 N16 N 1.05216 0.05630 0.09686
 C17 C 1.08625 0.07116 0.08327
 C18 C 1.08344 -0.08116 0.08169
 N19 N 0.92830 -0.03747 0.04091
 N20 N 0.90064 -0.06120 0.04727
 N21 N 0.95813 0.03406 0.07061
 N22 N 0.95177 0.05761 0.09798
 N23 N 0.93002 0.03556 0.04347
 N24 N 0.90378 0.06029 0.05169
 N25 N 0.95599 -0.03885 0.06848
 N26 N 0.94779 -0.06353 0.09442
 Mn27 Mn 1.00024 -0.00343 0.06995
 C28 C 0.91335 -0.07746 0.08056
 C29 C 0.91797 0.07401 0.08567
 N30 N 1.06967 -0.03816 -0.04404
 N31 N 1.09618 -0.06263 -0.05196
 N32 N 1.04371 0.03637 -0.06901
 N33 N 1.05181 0.06125 -0.09476
 N34 N 1.07162 0.03461 -0.04169
 N35 N 1.09942 0.05821 -0.04811
 N36 N 1.04166 -0.03687 -0.07129
 N37 N 1.04805 -0.06089 -0.09824
 Mn38 Mn 1.07117 -0.00325 -0.00044
 C39 C 1.08207 -0.07684 -0.08558
 C40 C 1.08653 0.07486 -0.08112
 N41 N 0.92956 0.03813 -0.04143
 N42 N 0.90275 0.06286 -0.04769
 N43 N 0.95561 -0.03458 -0.07130
 N44 N 0.94896 -0.05881 -0.09780
 N45 N 0.92770 -0.03494 -0.04414
 N46 N 0.90105 -0.05937 -0.05164
 N47 N 0.95710 0.03857 -0.06899
 N48 N 0.94961 0.06369 -0.09484
 Mn49 Mn 0.92847 0.00031 -0.00029
 Mn50 Mn 0.99952 0.00093 -0.07059
 Cl51 Cl 0.99984 -0.00137 -0.00035
 C52 C 0.91575 0.07885 -0.08089
 C53 C 0.91492 -0.07420 -0.08515
 N54 N 1.07134 0.53190 0.54343
 N55 N 1.09710 0.55687 0.55114
 N56 N 1.04272 0.45734 0.56588
 N57 N 1.05048 0.43221 0.59157
 N58 N 1.07111 0.45912 0.53922
 N59 N 1.09904 0.43548 0.54624
 N60 N 1.04343 0.53051 0.57056
 N61 N 1.04928 0.55470 0.59736
 C62 C 1.08284 0.57099 0.58480
 C63 C 1.08552 0.41855 0.57864
 N64 N 0.92799 0.46123 0.53816
 N65 N 0.89921 0.43857 0.54494
 N66 N 0.95744 0.53173 0.56983
 N67 N 0.95155 0.55534 0.59724
 N68 N 0.92975 0.53408 0.54235
 N69 N 0.90401 0.55920 0.55057
 N70 N 0.95610 0.45860 0.56522
 N71 N 0.94729 0.43384 0.59093
 Mn72 Mn 0.99992 0.49443 0.56829
 C73 C 0.91190 0.42132 0.57762
 C74 C 0.91823 0.57242 0.58481
 N75 N 1.07173 0.46345 0.45448
 N76 N 1.09831 0.43899 0.44660
 N77 N 1.04481 0.53755 0.43065
 N78 N 1.05304 0.56242 0.40490
 N79 N 1.07213 0.53634 0.45854
 N80 N 1.09963 0.56035 0.45254
 N81 N 1.04353 0.46435 0.42744
 N82 N 1.04984 0.44022 0.40064
 Mn83 Mn 1.07196 0.49776 0.49894
 C84 C 1.08403 0.42453 0.41314
 C85 C 1.08715 0.57667 0.41914
 N86 N 0.93041 0.53825 0.45701
 N87 N 0.90367 0.56299 0.44993
 N88 N 0.95728 0.46591 0.42651
 N89 N 0.95085 0.44209 0.39946
 N90 N 0.92897 0.46523 0.45329
 N91 N 0.90254 0.44082 0.44520
 N92 N 0.95869 0.53880 0.43018
 N93 N 0.95217 0.56398 0.40439
 Mn94 Mn 0.92882 0.49978 0.49768
 Mn95 Mn 1.00105 0.50162 0.42830
 Cl96 Cl 1.00042 0.49839 0.49832
 C97 C 0.91797 0.57908 0.41722
 C98 C 0.91671 0.42650 0.41157
 N99 N 0.57237 0.03271 0.54489
 N100 N 0.59961 0.05666 0.55196
 N101 N 0.54287 -0.04037 0.57051
 N102 N 0.55014 -0.06552 0.59636
 N103 N 0.57027 -0.04020 0.54283
 N104 N 0.59680 -0.06517 0.54900
 N105 N 0.54460 0.03298 0.57218
 N106 N 0.55181 0.05754 0.59827
 C107 C 0.58620 0.07214 0.58517
 C108 C 0.58374 -0.08099 0.58230
 N109 N 0.42838 -0.03655 0.54353
 N110 N 0.40091 -0.06048 0.54961
 N111 N 0.45860 0.03493 0.57267
 N112 N 0.45303 0.05919 0.59942
 N113 N 0.43046 0.03647 0.54558
 N114 N 0.40476 0.06173 0.55338
 N115 N 0.45620 -0.03811 0.57095
 N116 N 0.44819 -0.06309 0.59663
 Mn117 Mn 0.50057 -0.00271 0.57203
 C118 C 0.41374 -0.07701 0.58267
 C119 C 0.41947 0.07587 0.58693
 N120 N 0.56969 -0.03790 0.45805
 N121 N 0.59635 -0.06228 0.45024
 N122 N 0.54360 0.03597 0.43233
 N123 N 0.55127 0.06094 0.40656
 N124 N 0.57126 0.03495 0.45994
 N125 N 0.59838 0.05919 0.45379
 N126 N 0.54136 -0.03723 0.43110
 N127 N 0.54776 -0.06149 0.40443
 Mn128 Mn 0.57126 -0.00259 0.50141
 C129 C 0.58206 -0.07702 0.41698
 C130 C 0.58541 0.07538 0.42054
 N131 N 0.42982 0.03843 0.46046
 N132 N 0.40332 0.06337 0.45389
 N133 N 0.45491 -0.03489 0.43115
 N134 N 0.44656 -0.05856 0.40431
 N135 N 0.42747 -0.03467 0.45879
 N136 N 0.39986 -0.05828 0.45162
 N137 N 0.45714 0.03817 0.43268
 N138 N 0.44988 0.06293 0.40643
 Mn139 Mn 0.42863 0.00097 0.50210
 Mn140 Mn 0.49927 0.00049 0.43136
 Cl141 Cl 0.49991 -0.00097 0.50172
 C142 C 0.41639 0.07866 0.42027
 C143 C 0.41225 -0.07317 0.41766
 N144 N 0.57121 0.53255 0.04680
 N145 N 0.59800 0.55700 0.05346
 N146 N 0.53901 0.46069 0.07255
 N147 N 0.54514 0.43610 0.09925
 N148 N 0.56666 0.45943 0.04513
 N149 N 0.59198 0.43363 0.05210
 N150 N 0.54286 0.53350 0.07353
 N151 N 0.54941 0.55864 0.09893
 C152 C 0.58386 0.57313 0.08603
 C153 C 0.57797 0.41916 0.08580
 N154 N 0.42513 0.46694 0.04384
 N155 N 0.39752 0.44296 0.04935
 N156 N 0.45677 0.53768 0.07309
 N157 N 0.45025 0.56115 0.10059
 N158 N 0.42966 0.54019 0.04507
 N159 N 0.40425 0.56577 0.05253
 N160 N 0.45273 0.46486 0.07142
 N161 N 0.44458 0.43954 0.09654
 Mn162 Mn 0.49786 0.49915 0.07304
 C163 C 0.41015 0.42595 0.08226
 C164 C 0.41768 0.57876 0.08716
 N165 N 0.56794 0.46129 -0.03974
 N166 N 0.59370 0.43606 -0.04737
 N167 N 0.54457 0.53638 -0.06571
 N168 N 0.55304 0.56144 -0.09111
 N169 N 0.57234 0.53414 -0.03830
 N170 N 0.60070 0.55729 -0.04456
 N171 N 0.54024 0.46314 -0.06724
 N172 N 0.54629 0.43910 -0.09421
 Mn173 Mn 0.56999 0.49683 0.00352
 C174 C 0.57960 0.42220 -0.08129
 C175 C 0.58805 0.57439 -0.07738
 N176 N 0.43032 0.54147 -0.04000
 N177 N 0.40411 0.56634 -0.04821
 N178 N 0.45402 0.46750 -0.06804
 N179 N 0.44661 0.44270 -0.09376
 N180 N 0.42596 0.46856 -0.04103
 N181 N 0.39870 0.44455 -0.04763
 N182 N 0.45851 0.54047 -0.06689
 N183 N 0.45233 0.56469 -0.09397
 Mn184 Mn 0.42732 0.50435 0.00198
 Mn185 Mn 0.49934 0.50187 -0.06739
 Cl186 Cl 0.49862 0.50056 0.00276
 C187 C 0.41854 0.58088 -0.08174
 C188 C 0.41204 0.42851 -0.08055
 C189 C 1.17649 0.17331 0.16795
 C190 C 1.21845 0.17468 0.16565
 C191 C 1.23939 0.19772 0.18948
 C192 C 1.21892 0.21902 0.21603
 C193 C 1.17696 0.21760 0.21676
 N194 N 1.15709 0.19479 0.19338
 C195 C 1.15300 0.14836 0.14443
 N196 N 1.11739 0.13666 0.15872
 C197 C 1.09505 0.11262 0.13942
 C198 C 1.10849 0.09888 0.10359
 C199 C 1.14446 0.11134 0.08776
 C200 C 1.16671 0.13608 0.10797
 H201 H 1.27158 0.19895 0.18681
 H202 H 1.15972 0.23451 0.23548
 H203 H 1.06724 0.10391 0.15239
 H204 H 1.15564 0.10173 0.05992
 H205 H 1.23516 0.15772 0.14634
 H206 H 1.19417 0.14551 0.09495
 C207 C 1.16577 0.67691 0.67057
 C208 C 1.14749 0.70302 0.69308
 C209 C 1.17127 0.72534 0.71530
 C210 C 1.21303 0.72141 0.71559
 C211 C 1.23016 0.69625 0.69113
 N212 N 1.20647 0.67481 0.66969
 C213 C 1.14228 0.65141 0.64787
 N214 N 1.15948 0.63606 0.61603
 C215 C 1.14066 0.61105 0.59492
 C216 C 1.10252 0.59954 0.60611
 C217 C 1.08412 0.61499 0.63874
 C218 C 1.10382 0.64097 0.65966
 H219 H 1.15677 0.74566 0.73188
 H220 H 1.26224 0.69329 0.68914
 H221 H 1.15591 0.59969 0.56997
 H222 H 1.05474 0.60670 0.64838
 H223 H 1.11531 0.70650 0.69326
 H224 H 1.08958 0.65179 0.68545
 C225 C 0.67331 0.17619 0.66957
 C226 C 0.66234 0.21140 0.67143
 C227 C 0.68508 0.23406 0.69437
 C228 C 0.71750 0.22134 0.71655
 C229 C 0.72817 0.18621 0.71297
 N230 N 0.70618 0.16479 0.68976
 C231 C 0.64986 0.15112 0.64646
 N232 N 0.66938 0.12733 0.62393
 C233 C 0.64950 0.10259 0.60325
 C234 C 0.60768 0.10011 0.60577
 C235 C 0.58696 0.12417 0.62907
 C236 C 0.60793 0.15005 0.64905
 H237 H 0.67681 0.26130 0.69552
 H238 H 0.75385 0.17566 0.72854
 H239 H 0.66648 0.08428 0.58577
 H240 H 0.55466 0.12298 0.63171
 H241 H 0.63675 0.22127 0.65505
 H242 H 0.59174 0.16834 0.66728
 C243 C 0.66789 0.67924 0.17019
 C244 C 0.64975 0.70673 0.19066
 C245 C 0.67331 0.72855 0.21370
 C246 C 0.71467 0.72284 0.21672
 C247 C 0.73188 0.69632 0.19420
 N248 N 0.70839 0.67533 0.17200
 C249 C 0.64433 0.65397 0.14728
 N250 N 0.66232 0.63671 0.11713
 C251 C 0.64326 0.61158 0.09634
 C252 C 0.60408 0.60198 0.10625
 C253 C 0.58490 0.61950 0.13705
 C254 C 0.60483 0.64551 0.15758
 H255 H 0.65903 0.74993 0.22875
 H256 H 0.76381 0.69188 0.19441
 H257 H 0.65910 0.59857 0.07282
 H258 H 0.55469 0.61275 0.14569
 H259 H 0.61785 0.71161 0.18870
 H260 H 0.58988 0.65783 0.18209
 C261 C 0.81975 -0.17688 0.16687
 C262 C 0.77872 -0.18224 0.15968
 C263 C 0.75717 -0.20441 0.18429
 C264 C 0.77624 -0.22121 0.21588
 C265 C 0.81691 -0.21484 0.22265
 N266 N 0.83737 -0.19308 0.19833
 C267 C 0.84401 -0.15276 0.14266
 N268 N 0.87855 -0.13993 0.15821
 C269 C 0.90178 -0.11669 0.13855
 C270 C 0.89036 -0.10475 0.10102
 C271 C 0.85556 -0.11830 0.08389
 C272 C 0.83246 -0.14243 0.10443
 H273 H 0.72550 -0.20819 0.17886
 H274 H 0.83234 -0.22652 0.24751
 H275 H 0.92861 -0.10703 0.15265
 H276 H 0.84602 -0.11008 0.05473
 H277 H 0.76293 -0.16893 0.13611
 H278 H 0.80610 -0.15278 0.09024
 C279 C 0.81787 0.32532 0.66806
 C280 C 0.78403 0.33775 0.68800
 C281 C 0.76283 0.31544 0.71278
 C282 C 0.77506 0.28076 0.71742
 C283 C 0.80824 0.26899 0.69597
 N284 N 0.82909 0.29143 0.67264
 C285 C 0.84165 0.34873 0.64283
 N286 N 0.88229 0.34912 0.64644
 C287 C 0.90544 0.37166 0.62549
 C288 C 0.88770 0.39519 0.59879
 C289 C 0.84600 0.39440 0.59376
 C290 C 0.82285 0.37147 0.61602
 H291 H 0.73671 0.32533 0.72790
 H292 H 0.81775 0.24209 0.69793
 H293 H 0.93758 0.37134 0.62987
 H294 H 0.83120 0.41216 0.57346
 H295 H 0.77452 0.36461 0.68497
 H296 H 0.79060 0.37149 0.61237
 C297 C 0.31999 -0.17830 0.66611
 C298 C 0.27917 -0.18394 0.65801
 C299 C 0.25724 -0.20629 0.68213
 C300 C 0.27574 -0.22297 0.71411
 C301 C 0.31626 -0.21647 0.72164
 N302 N 0.33707 -0.19453 0.69782
 C303 C 0.34450 -0.15376 0.64265
 N304 N 0.37848 -0.14061 0.65906
 C305 C 0.40175 -0.11690 0.64012
 C306 C 0.39092 -0.10479 0.60249
 C307 C 0.35676 -0.11870 0.58450
 C308 C 0.33365 -0.14330 0.60428
 H309 H 0.22569 -0.21017 0.67612
 H310 H 0.33125 -0.22813 0.74678
 H311 H 0.42808 -0.10698 0.65488
 H312 H 0.34771 -0.11040 0.55521
 H313 H 0.26377 -0.17065 0.63419
 H314 H 0.30780 -0.15388 0.58941
 C315 C 0.32006 0.32162 0.16494
 C316 C 0.27878 0.31676 0.15885
 C317 C 0.25774 0.29426 0.18351
 C318 C 0.27752 0.27671 0.21415
 C319 C 0.31863 0.28196 0.21934
 N320 N 0.33857 0.30417 0.19506
 C321 C 0.34349 0.34689 0.14137
 N322 N 0.37817 0.35948 0.15683
 C323 C 0.40043 0.38399 0.13806
 C324 C 0.38782 0.39759 0.10160
 C325 C 0.35286 0.38435 0.08449
 C326 C 0.33075 0.35889 0.10410
 H327 H 0.22580 0.29109 0.17914
 H328 H 0.33475 0.26920 0.24309
 H329 H 0.42747 0.39330 0.15209
 H330 H 0.34243 0.39383 0.05611
 H331 H 0.26236 0.33089 0.13634
 H332 H 0.30417 0.34887 0.08997
 C333 C 0.82259 0.18031 -0.16671
 C334 C 0.78058 0.17834 -0.16650
 C335 C 0.75825 0.20013 -0.19120
 C336 C 0.77748 0.22375 -0.21620
 C337 C 0.81939 0.22563 -0.21502
 N338 N 0.84069 0.20383 -0.19096
 C339 C 0.84738 0.15622 -0.14256
 N340 N 0.88373 0.14555 -0.15628
 C341 C 0.90672 0.12169 -0.13665
 C342 C 0.89321 0.10699 -0.10114
 C343 C 0.85656 0.11859 -0.08582
 C344 C 0.83365 0.14315 -0.10633
 H345 H 0.72589 0.19803 -0.19138
 H346 H 0.83531 0.24410 -0.23316
 H347 H 0.93504 0.11371 -0.14923
 H348 H 0.84522 0.10825 -0.05827
 H349 H 0.76505 0.15945 -0.14846
 H350 H 0.80547 0.15168 -0.09391
 C351 C 0.82974 0.67892 0.32482
 C352 C 0.83683 0.68282 0.28423
 C353 C 0.81201 0.70442 0.26177
 C354 C 0.78003 0.72199 0.27939
 C355 C 0.77381 0.71752 0.31994
 N356 N 0.79833 0.69619 0.34133
 C357 C 0.85437 0.65531 0.34965
 N358 N 0.83795 0.64099 0.38267
 C359 C 0.85812 0.61757 0.40563
 C360 C 0.89699 0.60705 0.39540
 C361 C 0.91500 0.62245 0.36240
 C362 C 0.89397 0.64668 0.33963
 H363 H 0.81819 0.70761 0.23067
 H364 H 0.74944 0.73062 0.33468
 H365 H 0.84333 0.60651 0.43111
 H366 H 0.94520 0.61543 0.35384
 H367 H 0.86066 0.66886 0.26958
 H368 H 0.90872 0.65835 0.31451
 C369 C 0.32704 0.18126 0.33239
 C370 C 0.29897 0.20455 0.34836
 C371 C 0.27591 0.22542 0.32320
 C372 C 0.28072 0.22328 0.28228
 C373 C 0.31030 0.20095 0.26759
 N374 N 0.33227 0.18068 0.29261
 C375 C 0.35072 0.15686 0.35725
 N376 N 0.38495 0.14280 0.34231
 C377 C 0.40706 0.11867 0.36233
 C378 C 0.39457 0.10682 0.39948
 C379 C 0.35964 0.12110 0.41565
 C380 C 0.33761 0.14603 0.39470
 H381 H 0.25427 0.24297 0.33601
 H382 H 0.31610 0.19948 0.23637
 H383 H 0.43382 0.10823 0.34878
 H384 H 0.34884 0.11249 0.44415
 H385 H 0.29481 0.20691 0.37982
 H386 H 0.30999 0.15558 0.40730
 C387 C 0.32964 0.67830 -0.17696
 C388 C 0.33536 0.68085 -0.21789
 C389 C 0.31016 0.70215 -0.24034
 C390 C 0.27912 0.72071 -0.22238
 C391 C 0.27431 0.71760 -0.18150
 N392 N 0.29918 0.69658 -0.16013
 C393 C 0.35462 0.65512 -0.15191
 N394 N 0.33924 0.64293 -0.11736
 C395 C 0.35960 0.62019 -0.09375
 C396 C 0.39764 0.60813 -0.10480
 C397 C 0.41467 0.62127 -0.13952
 C398 C 0.39342 0.64486 -0.16302
 H399 H 0.31545 0.70443 -0.27168
 H400 H 0.25085 0.73160 -0.16642
 H401 H 0.34559 0.61090 -0.06697
 H402 H 0.44421 0.61297 -0.14880
 H403 H 0.35841 0.66614 -0.23278
 H404 H 0.40742 0.65481 -0.18946
 C405 C 1.16921 -0.17818 -0.17378
 C406 C 1.15996 -0.21366 -0.17512
 C407 C 1.18357 -0.23581 -0.19788
 C408 C 1.21516 -0.22234 -0.22030
 C409 C 1.22372 -0.18680 -0.21766
 N410 N 1.20101 -0.16590 -0.19452
 C411 C 1.14562 -0.15385 -0.14997
 N412 N 1.16512 -0.13070 -0.12674
 C413 C 1.14520 -0.10660 -0.10516
 C414 C 1.10334 -0.10413 -0.10742
 C415 C 1.08259 -0.12750 -0.13145
 C416 C 1.10366 -0.15282 -0.15239
 H417 H 1.17683 -0.26332 -0.19847
 H418 H 1.24844 -0.17554 -0.23374
 H419 H 1.16217 -0.08878 -0.08713
 H420 H 1.05024 -0.12624 -0.13385
 H421 H 1.13521 -0.22412 -0.15829
 H422 H 1.08756 -0.17068 -0.17114
 C423 C 1.16906 0.32280 0.32368
 C424 C 1.16048 0.28716 0.32352
 C425 C 1.18421 0.26483 0.30108
 C426 C 1.21516 0.27823 0.27773
 C427 C 1.22276 0.31402 0.27891
 N428 N 1.20006 0.33510 0.30185
 C429 C 1.14608 0.34719 0.34796
 N430 N 1.16616 0.37048 0.37055
 C431 C 1.14678 0.39462 0.39255
 C432 C 1.10489 0.39698 0.39136
 C433 C 1.08356 0.37341 0.36807
 C434 C 1.10410 0.34805 0.34673
 H435 H 1.17863 0.23713 0.30222
 H436 H 1.24711 0.32530 0.26234
 H437 H 1.16416 0.41261 0.40998
 H438 H 1.05116 0.37459 0.36649
 H439 H 1.13649 0.27669 0.34138
 H440 H 1.08755 0.33003 0.32854
 C441 C 0.66955 -0.17795 0.32842
 C442 C 0.65921 -0.21310 0.32501
 C443 C 0.68292 -0.23497 0.30201
 C444 C 0.71579 -0.22151 0.28145
 C445 C 0.72542 -0.18638 0.28615
 N446 N 0.70251 -0.16576 0.30945
 C447 C 0.64582 -0.15386 0.35246
 N448 N 0.66521 -0.13107 0.37624
 C449 C 0.64522 -0.10710 0.39795
 C450 C 0.60340 -0.10437 0.39526
 C451 C 0.58276 -0.12741 0.37073
 C452 C 0.60389 -0.15259 0.34964
 H453 H 0.67532 -0.26224 0.29982
 H454 H 0.75113 -0.17522 0.27154
 H455 H 0.66213 -0.08954 0.41637
 H456 H 0.55046 -0.12595 0.36796
 H457 H 0.63353 -0.22354 0.34043
 H458 H 0.58784 -0.17011 0.33042
 C459 C 0.66484 0.31914 -0.17056
 C460 C 0.64705 0.29320 -0.19368
 C461 C 0.67114 0.27183 -0.21696
 C462 C 0.71270 0.27650 -0.21756
 C463 C 0.72948 0.30154 -0.19277
 N464 N 0.70549 0.32207 -0.17035
 C465 C 0.64081 0.34374 -0.14682
 N466 N 0.65789 0.35867 -0.11461
 C467 C 0.63850 0.38289 -0.09261
 C468 C 0.59984 0.39409 -0.10322
 C469 C 0.58156 0.37902 -0.13619
 C470 C 0.60184 0.35381 -0.15798
 H471 H 0.65711 0.25177 -0.23427
 H472 H 0.76158 0.30532 -0.19190
 H473 H 0.65371 0.39397 -0.06747
 H474 H 0.55183 0.38707 -0.14546
 H475 H 0.61499 0.28918 -0.19359
 H476 H 0.58760 0.34335 -0.18399
 C477 C 1.17953 0.17449 -0.16783
 C478 C 1.22150 0.17217 -0.16853
 C479 C 1.24317 0.19482 -0.19241
 C480 C 1.22332 0.21962 -0.21577
 C481 C 1.18141 0.22133 -0.21421
 N482 N 1.16077 0.19882 -0.19082
 C483 C 1.15535 0.15037 -0.14362
 N484 N 1.11810 0.14127 -0.15625
 C485 C 1.09513 0.11792 -0.13633
 C486 C 1.10956 0.10221 -0.10158
 C487 C 1.14727 0.11210 -0.08737
 C488 C 1.17019 0.13615 -0.10820
 H489 H 1.27550 0.19292 -0.19244
 H490 H 1.16498 0.24064 -0.23103
 H491 H 1.06598 0.11124 -0.14803
 H492 H 1.15932 0.10089 -0.06043
 H493 H 1.23753 0.15268 -0.15149
 H494 H 1.19913 0.14350 -0.09656
 C495 C 1.17935 0.67888 0.33417
 C496 C 1.21956 0.68649 0.34303
 C497 C 1.24108 0.70874 0.31841
 C498 C 1.22301 0.72334 0.28477
 C499 C 1.18284 0.71532 0.27692
 N500 N 1.16244 0.69349 0.30134
 C501 C 1.15537 0.65404 0.35813
 N502 N 1.12155 0.64029 0.34204
 C503 C 1.09877 0.61635 0.36127
 C504 C 1.10990 0.60450 0.39897
 C505 C 1.14398 0.61889 0.41661
 C506 C 1.16659 0.64376 0.39652
 H507 H 1.27220 0.71394 0.32529
 H508 H 1.16772 0.72574 0.25115
 H509 H 1.07251 0.60609 0.34670
 H510 H 1.15330 0.61079 0.44589
 H511 H 1.23495 0.67481 0.36788
 H512 H 1.19233 0.65464 0.41126
 C513 C 0.67688 0.17765 0.33588
 C514 C 0.71708 0.18525 0.34478
 C515 C 0.73874 0.20707 0.31984
 C516 C 0.72080 0.22108 0.28593
 C517 C 0.68060 0.21337 0.27822
 N518 N 0.66003 0.19197 0.30289
 C519 C 0.65284 0.15305 0.35985
 N520 N 0.61937 0.13891 0.34349
 C521 C 0.59669 0.11492 0.36266
 C522 C 0.60765 0.10343 0.40051
 C523 C 0.64128 0.11830 0.41846
 C524 C 0.66375 0.14324 0.39845
 H525 H 0.76966 0.21271 0.32694
 H526 H 0.66559 0.22375 0.25245
 H527 H 0.57075 0.10427 0.34790
 H528 H 0.65039 0.11048 0.44790
 H529 H 0.73232 0.17390 0.36993
 H530 H 0.68918 0.15449 0.41335
 C531 C 0.67967 0.67255 -0.16664
 C532 C 0.71173 0.65936 -0.18854
 C533 C 0.73297 0.68146 -0.21342
 C534 C 0.72294 0.71684 -0.21591
 C535 C 0.69090 0.72915 -0.19313
 N536 N 0.66989 0.70689 -0.16969
 C537 C 0.65628 0.64924 -0.14106
 N538 N 0.61571 0.64800 -0.14494
 C539 C 0.59316 0.62481 -0.12429
 C540 C 0.61150 0.60141 -0.09782
 C541 C 0.65309 0.60315 -0.09246
 C542 C 0.67562 0.62677 -0.11435
 H543 H 0.75730 0.67065 -0.23039
 H544 H 0.68255 0.75636 -0.19400
 H545 H 0.56105 0.62441 -0.12886
 H546 H 0.66832 0.58550 -0.07233
 H547 H 0.71978 0.63206 -0.18692
 H548 H 0.70787 0.62734 -0.11075
 C549 C 0.83121 -0.17763 -0.17495
 C550 C 0.84043 -0.18420 -0.21463
 C551 C 0.81701 -0.20727 -0.23610
 C552 C 0.78416 -0.22357 -0.21854
 C553 C 0.77584 -0.21653 -0.17892
 N554 N 0.79910 -0.19389 -0.15845
 C555 C 0.85448 -0.15251 -0.15111
 N556 N 0.83704 -0.13765 -0.11903
 C557 C 0.85598 -0.11332 -0.09682
 C558 C 0.89470 -0.10236 -0.10681
 C559 C 0.91367 -0.11805 -0.13897
 C560 C 0.89391 -0.14322 -0.16095
 H561 H 0.82477 -0.21238 -0.26646
 H562 H 0.75082 -0.22864 -0.16423
 H563 H 0.84045 -0.10205 -0.07199
 H564 H 0.94381 -0.11075 -0.14729
 H565 H 0.86481 -0.17125 -0.22950
 H566 H 0.90965 -0.15519 -0.18516
 C567 C 0.83264 0.32185 0.32396
 C568 C 0.84912 0.30242 0.29292
 C569 C 0.82475 0.28001 0.27149
 C570 C 0.78427 0.27649 0.28118
 C571 C 0.76918 0.29521 0.31315
 N572 N 0.79333 0.31726 0.33334
 C573 C 0.85631 0.34761 0.34647
 N574 N 0.84177 0.35921 0.38153
 C575 C 0.86077 0.38384 0.40317
 C576 C 0.89651 0.39860 0.38952
 C577 C 0.91218 0.38702 0.35362
 C578 C 0.89219 0.36174 0.33196
 H579 H 0.83758 0.26584 0.24711
 H580 H 0.73807 0.29281 0.32160
 H581 H 0.84766 0.39212 0.43072
 H582 H 0.93955 0.39794 0.34189
 H583 H 0.88039 0.30417 0.28505
 H584 H 0.90441 0.35436 0.30376
 C585 C 0.32109 -0.17433 0.33084
 C586 C 0.28088 -0.18209 0.33917
 C587 C 0.26010 -0.20525 0.31528
 C588 C 0.27871 -0.22049 0.28259
 C589 C 0.31892 -0.21214 0.27523
 N590 N 0.33867 -0.18952 0.29904
 C591 C 0.34460 -0.14936 0.35485
 N592 N 0.37826 -0.13499 0.33911
 C593 C 0.40076 -0.11125 0.35878
 C594 C 0.38957 -0.10039 0.39662
 C595 C 0.35561 -0.11539 0.41382
 C596 C 0.33325 -0.13996 0.39327
 H597 H 0.22937 -0.21130 0.32270
 H598 H 0.33490 -0.22332 0.25074
 H599 H 0.42694 -0.10049 0.34456
 H600 H 0.34624 -0.10809 0.44318
 H601 H 0.26507 -0.17016 0.36334
 H602 H 0.30769 -0.15143 0.40774
 C603 C 0.32640 0.32220 -0.16401
 C604 C 0.29406 0.30312 -0.14871
 C605 C 0.27279 0.28083 -0.17325
 C606 C 0.28399 0.27697 -0.21269
 C607 C 0.31739 0.29517 -0.22651
 N608 N 0.33733 0.31721 -0.20225
 C609 C 0.34843 0.34826 -0.14035
 N610 N 0.38453 0.35978 -0.15362
 C611 C 0.40572 0.38482 -0.13472
 C612 C 0.39046 0.40014 -0.10045
 C613 C 0.35349 0.38863 -0.08607
 C614 C 0.33233 0.36290 -0.10591
 H615 H 0.24720 0.26715 -0.16143
 H616 H 0.32694 0.29261 -0.25682
 H617 H 0.43416 0.39299 -0.14679
 H618 H 0.34053 0.39997 -0.05987
 H619 H 0.28491 0.30521 -0.11830
 H620 H 0.30326 0.35560 -0.09476
 C621 C 1.17144 -0.18363 0.17155
 C622 C 1.19200 -0.21227 0.15586
 C623 C 1.21527 -0.23339 0.18068
 C624 C 1.21885 -0.22572 0.22098
 C625 C 1.19602 -0.19796 0.23574
 N626 N 1.17344 -0.17787 0.21104
 C627 C 1.14789 -0.15927 0.14648
 N628 N 1.11659 -0.14169 0.16273
 C629 C 1.09494 -0.11753 0.14224
 C630 C 1.10506 -0.10915 0.10320
 C631 C 1.13714 -0.12694 0.08576
 C632 C 1.15851 -0.15211 0.10719
 H633 H 1.23025 -0.25563 0.16803
 H634 H 1.19634 -0.19170 0.26669
 H635 H 1.07051 -0.10430 0.15685
 H636 H 1.14600 -0.12111 0.05576
 H637 H 1.18990 -0.21855 0.12487
 H638 H 1.18384 -0.16484 0.09353
 C639 C 1.17754 0.32263 0.67201
 C640 C 1.20874 0.33653 0.69451
 C641 C 1.23080 0.31484 0.71950
 C642 C 1.22241 0.27922 0.72149
 C643 C 1.19100 0.26626 0.69834
 N644 N 1.16923 0.28808 0.67473
 C645 C 1.15396 0.34531 0.64559
 N646 N 1.11334 0.34657 0.64887
 C647 C 1.09066 0.36920 0.62715
 C648 C 1.10895 0.39192 0.60019
 C649 C 1.15061 0.39010 0.59549
 C650 C 1.17324 0.36709 0.61844
 H651 H 1.25457 0.32612 0.73680
 H652 H 1.18382 0.23885 0.69898
 H653 H 1.05852 0.36972 0.63127
 H654 H 1.16583 0.40724 0.57504
 H655 H 1.21565 0.36401 0.69305
 H656 H 1.20553 0.36646 0.61533
 C657 C 0.67606 -0.18283 0.66822
 C658 C 0.71806 -0.18201 0.66657
 C659 C 0.74045 -0.20371 0.69126
 C660 C 0.72136 -0.22617 0.71774
 C661 C 0.67937 -0.22683 0.71805
 N662 N 0.65801 -0.20513 0.69393
 C663 C 0.65130 -0.15878 0.64399
 N664 N 0.61563 -0.14709 0.65831
 C665 C 0.59283 -0.12312 0.63865
 C666 C 0.60590 -0.10933 0.60251
 C667 C 0.64178 -0.12201 0.58658
 C668 C 0.66445 -0.14672 0.60710
 H669 H 0.77275 -0.20274 0.68965
 H670 H 0.66341 -0.24432 0.73735
 H671 H 0.56508 -0.11429 0.65171
 H672 H 0.65271 -0.11242 0.55853
 H673 H 0.73364 -0.16413 0.64728
 H674 H 0.69202 -0.15613 0.59417
 C675 C 0.66763 0.31808 0.17394
 C676 C 0.67017 0.28241 0.16600
 C677 C 0.69462 0.26125 0.18964
 C678 C 0.71733 0.27582 0.22014
 C679 C 0.71391 0.31160 0.22696
 N680 N 0.68919 0.33152 0.20425
 C681 C 0.64221 0.34156 0.15025
 N682 N 0.61921 0.36565 0.16891
 C683 C 0.59704 0.38961 0.14876
 C684 C 0.59865 0.39106 0.10750
 C685 C 0.62213 0.36649 0.08763
 C686 C 0.64354 0.34131 0.10894
 H687 H 0.69604 0.23360 0.18395
 H688 H 0.73058 0.32393 0.25027
 H689 H 0.57947 0.40836 0.16505
 H690 H 0.62411 0.36696 0.05576
 H691 H 0.65296 0.27104 0.14229
 H692 H 0.66215 0.32276 0.09346
 C693 C 0.83130 0.17354 0.17824
 C694 C 0.83098 0.17117 0.21955
 C695 C 0.80686 0.19372 0.24110
 C696 C 0.78287 0.21846 0.22177
 C697 C 0.78431 0.22037 0.18051
 N698 N 0.80789 0.19793 0.16000
 C699 C 0.85546 0.14939 0.15417
 N700 N 0.84211 0.14034 0.11768
 C701 C 0.86197 0.11700 0.09483
 C702 C 0.89742 0.10127 0.10858
 C703 C 0.91237 0.11109 0.14551
 C704 C 0.89157 0.13511 0.16834
 H705 H 0.80703 0.19169 0.27289
 H706 H 0.76718 0.23971 0.16446
 H707 H 0.84969 0.11036 0.06630
 H708 H 0.93987 0.09987 0.15704
 H709 H 0.84842 0.15166 0.23516
 H710 H 0.90379 0.14241 0.19667
 C711 C 0.83580 0.67523 0.67721
 C712 C 0.84621 0.68317 0.71638
 C713 C 0.82173 0.70530 0.73821
 C714 C 0.78694 0.71941 0.72138
 C715 C 0.77753 0.71114 0.68233
 N716 N 0.80175 0.68945 0.66158
 C717 C 0.85920 0.65032 0.65302
 N718 N 0.84174 0.63673 0.62020
 C719 C 0.86032 0.61264 0.59733
 C720 C 0.89868 0.60045 0.60740
 C721 C 0.91773 0.61468 0.64040
 C722 C 0.89834 0.63974 0.66307
 H723 H 0.82948 0.71077 0.76857
 H724 H 0.75057 0.72120 0.66853
 H725 H 0.84470 0.60248 0.57192
 H726 H 0.94761 0.60633 0.64884
 H727 H 0.87207 0.67178 0.73077
 H728 H 0.91417 0.65047 0.68796
 C729 C 0.33692 0.17917 0.67836
 C730 C 0.34716 0.18681 0.71762
 C731 C 0.32261 0.20880 0.73954
 C732 C 0.28781 0.22299 0.72278
 C733 C 0.27874 0.21518 0.68351
 N734 N 0.30303 0.19361 0.66267
 C735 C 0.36037 0.15432 0.65418
 N736 N 0.34274 0.14018 0.62177
 C737 C 0.36137 0.11595 0.59913
 C738 C 0.39996 0.10421 0.60904
 C739 C 0.41922 0.11909 0.64154
 C740 C 0.39976 0.14428 0.66397
 H741 H 0.33062 0.21432 0.76980
 H742 H 0.25215 0.22558 0.66947
 H743 H 0.34559 0.10530 0.57407
 H744 H 0.44927 0.11111 0.64982
 H745 H 0.37299 0.17534 0.73198
 H746 H 0.41569 0.15552 0.68851
 C747 C 0.33229 0.68038 0.17771
 C748 C 0.32909 0.71589 0.16859
 C749 C 0.30561 0.73741 0.19237
 C750 C 0.28440 0.72345 0.22447
 C751 C 0.28893 0.68777 0.23269
 N752 N 0.31261 0.66755 0.20963
 C753 C 0.35607 0.65634 0.15332
 N754 N 0.37897 0.63151 0.17137
 C755 C 0.39989 0.60734 0.15071
 C756 C 0.39723 0.60648 0.10944
 C757 C 0.37366 0.63169 0.09018
 C758 C 0.35345 0.65699 0.11201
 H759 H 0.30325 0.76481 0.18503
 H760 H 0.27357 0.67552 0.25699
 H761 H 0.41756 0.58815 0.16661
 H762 H 0.37086 0.63176 0.05835
 H763 H 0.34477 0.72688 0.14358
 H764 H 0.33488 0.67607 0.09691
   
