data_POSCAR
  _audit_creation_date              2014-09-24
  _audit_creation_method            'ToBaCCo'
  _symmetry_space_group_name_H-M    'P1'
  _symmetry_Int_Tables_number       1
  _symmetry_cell_setting            triclinic
  loop_
  _symmetry_equiv_pos_as_xyz
 x,y,z
_cell_length_a 28.4827
_cell_length_b 28.4688
_cell_length_c 28.4366
_cell_angle_alpha 90.178100
_cell_angle_beta 90.124300
_cell_angle_gamma 89.972900
loop_
  _atom_site_label
  _atom_site_type_symbol
  _atom_site_fract_x
  _atom_site_fract_y
  _atom_site_fract_z
C1 C 0.16768 0.16868 0.22851
 N2 N 0.15018 0.20794 0.20779
 C3 C 0.17088 0.22634 0.16908
 N4 N 0.20968 0.20528 0.15104
 C5 C 0.22781 0.16604 0.17129
 N6 N 0.20668 0.14801 0.21016
 C7 C -0.16826 0.83301 0.22599
 N8 N -0.14986 0.79354 0.20629
 C9 C -0.16970 0.77447 0.16709
 N10 N -0.20828 0.79500 0.14776
 C11 C -0.22691 0.83446 0.16709
 N12 N -0.20671 0.85300 0.20614
 C13 C -0.17082 0.16485 -0.22520
 N14 N -0.21015 0.14733 -0.20480
 C15 C -0.22852 0.16798 -0.16579
 N16 N -0.20720 0.20663 -0.14742
 C17 C -0.16789 0.22445 -0.16753
 N18 N -0.14998 0.20351 -0.20652
 C19 C 0.16892 0.83219 -0.22796
 N20 N 0.14906 0.79370 -0.20816
 C21 C 0.16769 0.77371 -0.16921
 N22 N 0.20697 0.79247 -0.14981
 C23 C 0.22755 0.83110 -0.16885
 N24 N 0.20841 0.85078 -0.20817
 C25 C 0.16265 1.17028 0.77328
 N26 N 0.20143 1.14918 0.79140
 C27 C 0.22260 1.16661 0.83051
 N28 N 0.20491 1.20562 0.85146
 C29 C 0.16617 1.22721 0.83386
 N30 N 0.14528 1.20941 0.79461
 C31 C 0.83458 0.82973 0.77133
 N32 N 0.85284 0.79096 0.79209
 C33 C 0.83264 0.77199 0.83081
 N34 N 0.79331 0.79215 0.84892
 C35 C 0.77460 0.83115 0.82853
 N36 N 0.79533 0.84958 0.78970
 C37 C 0.17008 0.83340 1.22749
 N38 N 0.15083 0.79405 1.20803
 C39 C 0.17009 0.77435 1.16878
 N40 N 0.20898 0.79418 1.14950
 C41 C 0.22837 0.83328 1.16860
 N42 N 0.20879 0.85251 1.20748
 C43 C 0.82985 1.16714 1.22754
 N44 N 0.85085 1.20616 1.20991
 C45 C 0.83343 1.22776 1.17100
 N46 N 0.79436 1.21004 1.14986
 C47 C 0.77295 1.17112 1.16714
 N48 N 0.79081 1.14994 1.20599
 N49 N 0.44818 1.08251 1.04911
 N50 N 0.41109 1.10974 1.05526
 N51 N 0.54884 1.05284 1.08051
 N52 N 0.58587 1.05867 1.10790
 N53 N 0.54724 1.08552 1.04810
 N54 N 0.58325 1.11440 1.05243
 N55 N 0.45000 1.05006 1.08174
 N56 N 0.41423 1.05417 1.11085
 C57 C 0.39024 1.09157 1.09398
 C58 C 0.60697 1.09728 1.08999
 N59 N 0.55158 0.91873 1.04797
 N60 N 0.58840 0.89104 1.05331
 N61 N 0.45286 0.94950 1.08141
 N62 N 0.41651 0.94483 1.10953
 N63 N 0.45270 0.91671 1.04886
 N64 N 0.41612 0.88869 1.05409
 N65 N 0.55136 0.95181 1.08023
 N66 N 0.58790 0.94757 1.10839
 Mn67 Mn 0.50086 1.00103 1.08150
 C68 C 0.61069 0.90952 1.09119
 C69 C 0.39397 0.90672 1.09222
 N70 N 0.54618 1.08500 0.94722
 N71 N 0.58254 1.11334 0.94325
 N72 N 0.44858 1.04944 0.91485
 N73 N 0.41202 1.05329 0.88659
 N74 N 0.44747 1.08200 0.94762
 N75 N 0.41016 1.10902 0.94246
 N76 N 0.54735 1.05222 0.91465
 N77 N 0.58453 1.05753 0.88752
 Mn78 Mn 0.49714 1.08438 0.99798
 C79 C 0.60605 1.09593 0.90576
 C80 C 0.38844 1.09064 0.90421
 N81 N 0.45170 0.91631 0.94747
 N82 N 0.41529 0.88798 0.94310
 N83 N 0.54991 0.95093 0.91443
 N84 N 0.58613 0.94635 0.88591
 N85 N 0.55065 0.91824 0.94687
 N86 N 0.58743 0.89054 0.94134
 N87 N 0.45098 0.94860 0.91461
 N88 N 0.41405 0.94307 0.88697
 Mn89 Mn 0.50162 0.91684 0.99778
 Mn90 Mn 0.49928 1.00032 0.91401
 Cl91 Cl 0.49972 1.00064 0.99780
 C92 C 0.39216 0.90501 0.90511
 C93 C 0.60920 0.90847 0.90311
 N94 N -0.04848 0.44860 -0.08038
 N95 N -0.05291 0.41218 -0.10879
 N96 N -0.08332 0.54710 -0.04843
 N97 N -0.11159 0.58361 -0.05357
 N98 N -0.05060 0.54729 -0.08086
 N99 N -0.05561 0.58376 -0.10881
 N100 N -0.08104 0.44800 -0.04781
 N101 N -0.10863 0.41110 -0.05322
 C102 C -0.09058 0.38912 -0.09146
 C103 C -0.09383 0.60609 -0.09154
 N104 N -0.05011 0.54906 0.08534
 N105 N -0.05570 0.58628 0.11260
 N106 N -0.08056 0.44893 0.05356
 N107 N -0.10801 0.41203 0.05922
 N108 N -0.04786 0.45010 0.08618
 N109 N -0.05213 0.41398 0.11484
 N110 N -0.08279 0.54770 0.05271
 N111 N -0.11139 0.58388 0.05681
 Mn112 Mn -0.08257 0.49788 0.00254
 C113 C -0.09419 0.60755 0.09438
 C114 C -0.08986 0.39057 0.09763
 N115 N 0.05016 0.54947 -0.08113
 N116 N 0.05428 0.58569 -0.10963
 N117 N 0.08489 0.45150 -0.04807
 N118 N 0.11311 0.41499 -0.05246
 N119 N 0.05222 0.45066 -0.08067
 N120 N 0.05735 0.41364 -0.10821
 N121 N 0.08300 0.55044 -0.04872
 N122 N 0.11047 0.58734 -0.05432
 Mn123 Mn 0.00081 0.49900 -0.08130
 C124 C 0.09209 0.60898 -0.09250
 C125 C 0.09555 0.39179 -0.09023
 N126 N 0.05327 0.45217 0.08589
 N127 N 0.05885 0.41531 0.11347
 N128 N 0.08345 0.55130 0.05229
 N129 N 0.11131 0.58796 0.05691
 N130 N 0.05119 0.55132 0.08519
 N131 N 0.05635 0.58812 0.11320
 N132 N 0.08546 0.45260 0.05292
 N133 N 0.11375 0.41618 0.05712
 Mn134 Mn 0.00161 0.50071 0.08634
 Mn135 Mn 0.08477 0.50147 0.00213
 Cl136 Cl 0.00114 0.49977 0.00246
 C137 C 0.09687 0.39330 0.09512
 C138 C 0.09410 0.61063 0.09504
 N139 N 1.04736 0.08428 0.54909
 N140 N 1.05101 0.11266 0.58563
 N141 N 1.08142 0.05219 0.45051
 N142 N 1.10954 0.05786 0.41410
 N143 N 1.04781 0.08378 0.45015
 N144 N 1.05215 0.11176 0.41352
 N145 N 1.08083 0.05256 0.54966
 N146 N 1.10824 0.05858 0.58671
 C147 C 1.08920 0.09631 0.60872
 C148 C 1.09087 0.09523 0.39139
 N149 N 1.05207 -0.08220 0.44991
 N150 N 1.05782 -0.11012 0.41322
 N151 N 1.08367 -0.04882 0.54959
 N152 N 1.11166 -0.05352 0.58643
 N153 N 1.05193 -0.08223 0.54885
 N154 N 1.05732 -0.11042 0.58514
 N155 N 1.08397 -0.04892 0.45040
 N156 N 1.11223 -0.05324 0.41394
 Mn157 Mn 1.08314 0.00178 0.50010
 C158 C 1.09555 -0.09165 0.39115
 C159 C 1.09474 -0.09221 0.60828
 N160 N 0.94673 0.08126 0.44973
 N161 N 0.94083 0.10912 0.41315
 N162 N 0.91508 0.04793 0.54879
 N163 N 0.88713 0.05172 0.58549
 N164 N 0.94654 0.08160 0.54887
 N165 N 0.94082 0.10928 0.58578
 N166 N 0.91499 0.04787 0.44983
 N167 N 0.88667 0.05201 0.41328
 Mn168 Mn 0.99711 0.08334 0.49942
 C169 C 0.90317 0.09044 0.39076
 C170 C 0.90352 0.09020 0.60819
 N171 N 0.95113 -0.08477 0.54851
 N172 N 0.94718 -0.11286 0.58507
 N173 N 0.91770 -0.05279 0.45001
 N174 N 0.88960 -0.05782 0.41354
 N175 N 0.95098 -0.08467 0.44940
 N176 N 0.94630 -0.11245 0.41234
 N177 N 0.91777 -0.05295 0.54880
 N178 N 0.89008 -0.05864 0.58553
 Mn179 Mn 1.00156 -0.08408 0.49910
 Mn180 Mn 0.91584 -0.00250 0.49940
 Cl181 Cl 0.99945 -0.00036 0.49950
 C182 C 0.90888 -0.09622 0.60779
 C183 C 0.90772 -0.09516 0.39038
 C184 C 1.14673 0.15021 0.27027
 C185 C 1.17973 0.15251 0.31311
 C186 C 1.16095 0.13440 0.35313
 C187 C 1.11082 0.11556 0.34697
 C188 C 1.08279 0.15701 0.32669
 C189 C 1.10143 0.17516 0.28668
 C190 C 1.13278 0.09812 0.26618
 C191 C 1.11406 0.08003 0.30631
 H192 H 1.21483 0.16734 0.31214
 H193 H 1.18000 0.13375 0.38623
 H194 H 1.05073 0.17077 0.34204
 H195 H 1.08487 0.20423 0.26843
 H196 H 1.13704 0.07729 0.23442
 H197 H 1.10242 0.04381 0.30880
 C198 C 0.85136 -0.14791 0.26820
 C199 C 0.84993 -0.18235 0.30978
 C200 C 0.86882 -0.16484 0.35023
 C201 C 0.88738 -0.11447 0.34562
 C202 C 0.92213 -0.11625 0.30440
 C203 C 0.90331 -0.13378 0.26384
 C204 C 0.82670 -0.10322 0.28668
 C205 C 0.84550 -0.08591 0.32697
 H206 H 0.83522 -0.21748 0.30765
 H207 H 0.87029 -0.18496 0.38256
 H208 H 0.95825 -0.10442 0.30681
 H209 H 0.92347 -0.13695 0.23162
 H210 H 0.79726 -0.08598 0.26964
 H211 H 0.83189 -0.05434 0.34354
 C212 C 0.84853 0.14353 0.73042
 C213 C 0.90053 0.12946 0.73424
 C214 C 0.91868 0.11154 0.69369
 C215 C 0.88319 0.10923 0.65299
 C216 C 0.84163 0.08085 0.67258
 C217 C 0.82349 0.09878 0.71306
 C218 C 0.84631 0.17745 0.68853
 C219 C 0.86444 0.15951 0.64806
 H220 H 0.92122 0.13310 0.76615
 H221 H 0.95489 0.09992 0.69091
 H222 H 0.82780 0.04915 0.65642
 H223 H 0.79434 0.08219 0.73105
 H224 H 0.83152 0.21255 0.69051
 H225 H 0.86518 0.17925 0.61547
 C226 C 1.14936 -0.14821 0.72993
 C227 C 1.10466 -0.17320 0.71175
 C228 C 1.08676 -0.15457 0.67170
 C229 C 1.11470 -0.11250 0.65288
 C230 C 1.11667 -0.07770 0.69428
 C231 C 1.13482 -0.09633 0.73459
 C232 C 1.18331 -0.14942 0.68793
 C233 C 1.16519 -0.13072 0.64771
 H234 H 1.08785 -0.20279 0.72881
 H235 H 1.05517 -0.16845 0.65539
 H236 H 1.10462 -0.04161 0.69214
 H237 H 1.13825 -0.07605 0.76682
 H238 H 1.21859 -0.16381 0.68961
 H239 H 1.18496 -0.12915 0.61517
 C240 C 0.26955 1.14543 1.15227
 C241 C 0.26430 1.13043 1.10046
 C242 C 0.30426 1.11234 1.08133
 C243 C 0.34599 1.11075 1.11557
 C244 C 0.35137 1.16134 1.13356
 C245 C 0.31152 1.17945 1.15278
 C246 C 0.28782 1.10104 1.17739
 C247 C 0.32773 1.08299 1.15817
 H248 H 0.23183 1.13338 1.08061
 H249 H 0.30588 1.09990 1.04526
 H250 H 0.38386 1.18114 1.13164
 H251 H 0.31015 1.21475 1.16730
 H252 H 0.27095 1.08476 1.20740
 H253 H 0.34438 1.05160 1.17196
 C254 C 0.26983 0.84988 0.85111
 C255 C 0.28729 0.82512 0.89618
 C256 C 0.32766 0.84334 0.91410
 C257 C 0.34732 0.88473 0.88571
 C258 C 0.35227 0.86576 0.83536
 C259 C 0.31185 0.84754 0.81727
 C260 C 0.26615 0.90201 0.86516
 C261 C 0.30668 0.92020 0.88324
 H262 H 0.26949 0.79606 0.91315
 H263 H 0.34366 0.82968 0.94592
 H264 H 0.38487 0.86645 0.81566
 H265 H 0.31004 0.83266 0.78211
 H266 H 0.23440 0.92279 0.86143
 H267 H 0.30948 0.95647 0.89484
 C268 C 0.73147 0.85479 1.14778
 C269 C 0.73603 0.86863 1.09573
 C270 C 0.69596 0.88700 1.07699
 C271 C 0.65497 0.88988 1.11191
 C272 C 0.64915 0.83972 1.13062
 C273 C 0.68910 0.82135 1.14941
 C274 C 0.71428 0.90001 1.17251
 C275 C 0.67438 0.91821 1.15374
 H276 H 0.76806 0.86472 1.07545
 H277 H 0.69378 0.89880 1.04082
 H278 H 0.61634 0.82035 1.12939
 H279 H 0.69033 0.78627 1.16424
 H280 H 0.73194 0.91691 1.20188
 H281 H 0.65860 0.95021 1.16727
 C282 C 0.72903 1.15009 0.85396
 C283 C 0.73236 1.09815 0.86844
 C284 C 0.69157 1.08032 0.88583
 C285 C 0.65109 1.11596 0.88727
 C286 C 0.67050 1.15772 0.91578
 C287 C 0.71120 1.17559 0.89846
 C288 C 0.68748 1.15216 0.81934
 C289 C 0.64680 1.13427 0.83677
 H290 H 0.76412 1.07723 0.86554
 H291 H 0.68850 1.04424 0.89768
 H292 H 0.65406 1.17188 0.94717
 H293 H 0.72896 1.20485 0.91539
 H294 H 0.68976 1.16671 0.78416
 H295 H 0.61446 1.13350 0.81651
 C296 C 0.15167 0.27088 0.14802
 C297 C 0.17710 0.28842 0.10368
 C298 C 0.15904 0.32895 0.08595
 C299 C 0.11714 0.34844 0.11405
 C300 C 0.08175 0.30777 0.11555
 C301 C 0.09982 0.26718 0.13330
 C302 C 0.15346 0.31261 0.18241
 C303 C 0.13539 0.35313 0.16466
 H304 H 0.20650 0.27055 0.08727
 H305 H 0.17320 0.34524 0.05457
 H306 H 0.04564 0.31060 0.10355
 H307 H 0.07916 0.23531 0.13640
 H308 H 0.16791 0.31049 0.21770
 H309 H 0.13437 0.38560 0.18475
 C310 C -0.14597 0.26833 -0.14769
 C311 C -0.10153 0.28547 -0.17322
 C312 C -0.08292 0.32545 -0.15466
 C313 C -0.11033 0.34482 -0.11224
 C314 C -0.16089 0.35058 -0.13007
 C315 C -0.17952 0.31061 -0.14863
 C316 C -0.13100 0.26370 -0.09594
 C317 C -0.11232 0.30375 -0.07740
 H318 H -0.08565 0.26770 -0.20303
 H319 H -0.05136 0.34138 -0.16878
 H320 H -0.18031 0.38337 -0.12844
 H321 H -0.21489 0.30925 -0.16289
 H322 H -0.13445 0.23159 -0.07575
 H323 H -0.09978 0.30587 -0.04140
 C324 C 0.14643 0.72981 -0.14889
 C325 C 0.10143 0.71257 -0.17372
 C326 C 0.08324 0.67262 -0.15509
 C327 C 0.11151 0.65330 -0.11326
 C328 C 0.16171 0.64756 -0.13195
 C329 C 0.17997 0.68755 -0.15059
 C330 C 0.13255 0.73449 -0.09687
 C331 C 0.11427 0.69443 -0.07821
 H332 H 0.08482 0.73028 -0.20313
 H333 H 0.05136 0.65670 -0.16875
 H334 H 0.18119 0.61480 -0.13077
 H335 H 0.21506 0.68894 -0.16534
 H336 H 0.13662 0.76656 -0.07653
 H337 H 0.10275 0.69226 -0.04191
 C338 C -0.14995 0.72988 0.14661
 C339 C -0.15076 0.68871 0.18143
 C340 C -0.13232 0.64818 0.16391
 C341 C -0.11478 0.65235 0.11311
 C342 C -0.15726 0.67074 0.08516
 C343 C -0.17566 0.71124 0.10263
 C344 C -0.09837 0.73414 0.13146
 C345 C -0.07997 0.69354 0.11390
 H346 H -0.16480 0.69120 0.21682
 H347 H -0.13059 0.61604 0.18430
 H348 H -0.17157 0.65376 0.05405
 H349 H -0.20553 0.72836 0.08624
 H350 H -0.07818 0.76639 0.13397
 H351 H -0.04411 0.69110 0.10132
 C352 C 1.14221 0.15216 0.73105
 C353 C 1.09794 0.17777 0.71309
 C354 C 1.08013 0.15938 0.67256
 C355 C 1.10802 0.11709 0.65352
 C356 C 1.15858 0.13496 0.64885
 C357 C 1.17646 0.15334 0.68930
 C358 C 1.12719 0.10041 0.73505
 C359 C 1.10935 0.08211 0.69448
 H360 H 1.08157 0.20747 0.73060
 H361 H 1.04884 0.17354 0.65598
 H362 H 1.17853 0.13361 0.61639
 H363 H 1.21173 0.16771 0.69127
 H364 H 1.12985 0.08002 0.76716
 H365 H 1.09676 0.04622 0.69195
 C366 C 0.85490 -0.15161 0.72941
 C367 C 0.82149 -0.15432 0.68691
 C368 C 0.83964 -0.13602 0.64671
 C369 C 0.88960 -0.11663 0.65237
 C370 C 0.88640 -0.08109 0.69303
 C371 C 0.86829 -0.09937 0.73335
 C372 C 0.90030 -0.17607 0.71258
 C373 C 0.91831 -0.15776 0.67238
 H374 H 0.78657 -0.16955 0.68825
 H375 H 0.82025 -0.13559 0.61380
 H376 H 0.89760 -0.04474 0.69039
 H377 H 0.86411 -0.07857 0.76515
 H378 H 0.91739 -0.20493 0.73068
 H379 H 0.95038 -0.17118 0.65673
 C380 C 1.15100 -0.14655 0.26954
 C381 C 1.09917 -0.13201 0.26520
 C382 C 1.08089 -0.11358 0.30552
 C383 C 1.11599 -0.11136 0.34661
 C384 C 1.13424 -0.16183 0.35193
 C385 C 1.15256 -0.18024 0.31168
 C386 C 1.17618 -0.10169 0.28724
 C387 C 1.15785 -0.08348 0.32739
 H388 H 1.07869 -0.13548 0.23312
 H389 H 1.04493 -0.10125 0.30783
 H390 H 1.13303 -0.18138 0.38463
 H391 H 1.16698 -0.21553 0.31010
 H392 H 1.20562 -0.08503 0.26979
 H393 H 1.17179 -0.05180 0.34353
 C394 C 0.84798 0.14598 0.26939
 C395 C 0.82272 0.10097 0.28587
 C396 C 0.84088 0.08232 0.32602
 C397 C 0.88262 0.11014 0.34627
 C398 C 0.91800 0.11288 0.30567
 C399 C 0.89991 0.13156 0.26546
 C400 C 0.84604 0.17919 0.31212
 C401 C 0.86416 0.16045 0.35222
 H402 H 0.79343 0.08467 0.26761
 H403 H 0.82693 0.05047 0.34152
 H404 H 0.95412 0.10091 0.30824
 H405 H 0.92065 0.13544 0.23370
 H406 H 0.83140 0.21440 0.31104
 H407 H 0.86501 0.17964 0.38527
 C408 C 0.14861 0.26940 -0.14528
 C409 C 0.17447 0.28619 -0.10047
 C410 C 0.15701 0.32671 -0.08200
 C411 C 0.11530 0.34695 -0.10974
 C412 C 0.13334 0.35207 -0.16026
 C413 C 0.15079 0.31160 -0.17885
 C414 C 0.09678 0.26616 -0.13053
 C415 C 0.07937 0.30675 -0.11196
 H416 H 0.20367 0.26788 -0.08414
 H417 H 0.17141 0.34245 -0.05029
 H418 H 0.13271 0.38484 -0.17969
 H419 H 0.16509 0.30989 -0.21419
 H420 H 0.07562 0.23462 -0.13411
 H421 H 0.04340 0.30986 -0.09978
 C422 C -0.14541 0.26957 0.15299
 C423 C -0.17903 0.31188 0.15360
 C424 C -0.16028 0.35185 0.13545
 C425 C -0.10953 0.34623 0.11832
 C426 C -0.08251 0.32707 0.16107
 C427 C -0.10118 0.28703 0.17925
 C428 C -0.12977 0.26496 0.10142
 C429 C -0.11104 0.30503 0.08334
 H430 H -0.21452 0.31063 0.16742
 H431 H -0.17974 0.38461 0.13375
 H432 H -0.05119 0.34323 0.17569
 H433 H -0.08546 0.26954 0.20927
 H434 H -0.13273 0.23281 0.08098
 H435 H -0.09800 0.30706 0.04758
 C436 C -0.14732 0.72773 -0.14796
 C437 C -0.18108 0.68569 -0.15055
 C438 C -0.16337 0.64543 -0.13169
 C439 C -0.11344 0.65072 -0.11190
 C440 C -0.08441 0.67015 -0.15300
 C441 C -0.10199 0.71022 -0.17179
 C442 C -0.13435 0.73205 -0.09559
 C443 C -0.11661 0.69172 -0.07670
 H444 H -0.21595 0.68745 -0.16594
 H445 H -0.18309 0.61282 -0.13095
 H446 H -0.05233 0.65425 -0.16610
 H447 H -0.08457 0.72788 -0.20066
 H448 H -0.13869 0.76403 -0.07517
 H449 H -0.10585 0.68924 -0.04014
 C450 C 0.15061 0.73229 0.14909
 C451 C 0.09861 0.73676 0.13493
 C452 C 0.07983 0.69643 0.11695
 C453 C 0.11464 0.65523 0.11470
 C454 C 0.15642 0.67417 0.08635
 C455 C 0.17521 0.71428 0.10416
 C456 C 0.15219 0.69038 0.18309
 C457 C 0.13337 0.65015 0.16510
 H458 H 0.07836 0.76891 0.13841
 H459 H 0.04367 0.69417 0.10509
 H460 H 0.16998 0.65789 0.05460
 H461 H 0.20458 0.73151 0.08715
 H462 H 0.16697 0.69212 0.21828
 H463 H 0.13206 0.61764 0.18491
 C464 C 0.26675 1.14480 0.84952
 C465 C 0.30862 1.17879 0.84850
 C466 C 0.34890 1.16048 0.86650
 C467 C 0.34383 1.10978 0.88387
 C468 C 0.30307 1.11118 0.91912
 C469 C 0.26270 1.12952 0.90114
 C470 C 0.28410 1.10064 0.82334
 C471 C 0.32444 1.08233 0.84135
 H472 H 0.30678 1.21422 0.83457
 H473 H 0.38148 1.18022 0.86797
 H474 H 0.30562 1.09845 0.95497
 H475 H 0.23073 1.13252 0.92166
 H476 H 0.26623 1.08476 0.79354
 H477 H 0.34062 1.05099 0.82680
 C478 C 0.27249 0.85369 1.14812
 C479 C 0.26822 0.86709 1.09594
 C480 C 0.30855 0.88478 1.07729
 C481 C 0.34945 0.88746 1.11254
 C482 C 0.33013 0.91633 1.15405
 C483 C 0.28999 0.89874 1.17263
 C484 C 0.31438 0.81970 1.15030
 C485 C 0.35464 0.83738 1.13167
 H486 H 0.23624 0.86310 1.07548
 H487 H 0.31108 0.89587 1.04089
 H488 H 0.34617 0.94823 1.16756
 H489 H 0.27230 0.91589 1.20176
 H490 H 0.31254 0.78474 1.16531
 H491 H 0.38720 0.81755 1.13072
 C492 C 0.72866 1.15221 1.14502
 C493 C 0.71123 1.17833 1.10091
 C494 C 0.67092 1.16034 1.08232
 C495 C 0.65157 1.11786 1.10944
 C496 C 0.69247 1.08267 1.11080
 C497 C 0.73279 1.10064 1.12939
 C498 C 0.68670 1.15320 1.17890
 C499 C 0.64645 1.13523 1.16031
 H500 H 0.72902 1.20814 1.08529
 H501 H 0.65468 1.17491 1.05102
 H502 H 0.69000 1.04676 1.09804
 H503 H 0.76475 1.08009 1.13248
 H504 H 0.68846 1.16710 1.21445
 H505 H 0.61386 1.13377 1.17998
 C506 C 0.73037 0.85279 0.84804
 C507 C 0.71269 0.89668 0.82171
 C508 C 0.67260 0.91534 0.83981
 C509 C 0.65360 0.88859 0.88263
 C510 C 0.64829 0.83761 0.86566
 C511 C 0.68841 0.81890 0.84757
 C512 C 0.73495 0.86878 0.89952
 C513 C 0.69479 0.88753 0.91759
 H514 H 0.73012 0.91215 0.79161
 H515 H 0.65630 0.94646 0.82504
 H516 H 0.61570 0.81796 0.86752
 H517 H 0.69007 0.78325 0.83398
 H518 H 0.76711 0.86596 0.91987
 H519 H 0.69268 0.90082 0.95332
   
