data_POSCAR
  _audit_creation_date              2014-09-24
  _audit_creation_method            'ToBaCCo'
  _symmetry_space_group_name_H-M    'P1'
  _symmetry_Int_Tables_number       1
  _symmetry_cell_setting            triclinic
  loop_
  _symmetry_equiv_pos_as_xyz
 x,y,z
_cell_length_a 20.9467
_cell_length_b 20.9467
_cell_length_c 20.9468
_cell_angle_alpha 77.878900
_cell_angle_beta 102.120900
_cell_angle_gamma 77.875700
loop_
  _atom_site_label
  _atom_site_type_symbol
  _atom_site_fract_x
  _atom_site_fract_y
  _atom_site_fract_z
O1 O 0.59866 0.48188 0.06552
 O2 O 0.41564 0.50289 0.04436
 O3 O 0.51906 0.40058 0.06689
 O4 O 0.49519 0.58410 0.04267
 O5 O 0.47886 0.59914 -0.06785
 O6 O 0.50277 0.41565 -0.04363
 O7 O 0.39924 0.51785 -0.06613
 O8 O 0.58231 0.49688 -0.04499
 Cu9 Cu 0.50868 0.49094 0.06598
 Cu10 Cu 0.48922 0.50878 -0.06677
 C11 C 0.62120 0.48691 0.01351
 C12 C 0.37670 0.51290 -0.01412
 C13 C 0.51391 0.37733 0.01536
 C14 C 0.48411 0.62240 -0.01633
 O15 O -0.06568 0.60097 0.48170
 O16 O -0.04453 0.41793 0.50269
 O17 O -0.04289 0.49745 0.58389
 O18 O -0.06711 0.52133 0.40038
 O19 O 0.04341 0.50503 0.41544
 O20 O 0.06764 0.48112 0.59893
 O21 O 0.06598 0.40154 0.51766
 O22 O 0.04482 0.58460 0.49669
 Cu23 Cu -0.06618 0.51099 0.49073
 Cu24 Cu 0.06658 0.49152 0.50857
 C25 C -0.01367 0.62351 0.48674
 C26 C 0.01397 0.37902 0.51272
 C27 C 0.01612 0.48631 0.62220
 C28 C -0.01557 0.51611 0.37713
 O29 O 0.50321 0.04410 0.58464
 O30 O 0.48222 0.06526 0.40161
 O31 O 0.40096 0.06670 0.48119
 O32 O 0.58447 0.04248 0.50507
 O33 O 0.59952 -0.06804 0.52140
 O34 O 0.41603 -0.04382 0.49749
 O35 O 0.49722 -0.04525 0.41797
 O36 O 0.51818 -0.06640 0.60103
 Cu37 Cu 0.49132 0.06576 0.49159
 Cu38 Cu 0.50916 -0.06700 0.51105
 C39 C 0.51317 -0.01438 0.62356
 C40 C 0.48719 0.01326 0.37907
 C41 C 0.37770 0.01517 0.48634
 C42 C 0.62277 -0.01651 0.51614
 C43 C 0.50518 -0.01219 -0.06329
 C44 C 0.49316 -0.06196 -0.01404
 C45 C 0.48803 -0.04970 0.04817
 C46 C 0.49444 0.01156 0.06200
 C47 C 0.50638 0.06137 0.01273
 C48 C 0.51156 0.04909 -0.04947
 H49 H 0.52032 0.08772 -0.08758
 H50 H 0.47925 -0.08831 0.08628
 C51 C -0.01278 0.50732 1.06150
 C52 C -0.06202 0.49530 1.01172
 C53 C -0.04820 0.48892 0.95045
 C54 C 0.01399 0.49410 0.93817
 C55 C 0.06327 0.50603 0.98797
 C56 C 0.04943 0.51246 1.04924
 H57 H 0.08755 0.52122 1.08786
 H58 H -0.08631 0.48015 0.91183
 C59 C 0.06170 0.01270 0.49371
 C60 C 0.01189 0.06198 0.50564
 C61 C -0.04938 0.04815 0.51206
 C62 C -0.06164 -0.01406 0.50694
 C63 C -0.01186 -0.06331 0.49491
 C64 C 0.04942 -0.04949 0.48853
 H65 H 0.08805 -0.08760 0.47976
 H66 H -0.08799 0.08626 0.52084
 C67 C -0.30855 0.48407 1.02026
 C68 C -0.25044 0.48435 1.02354
 C69 C -0.18353 0.48698 1.02394
 C70 C -0.12750 0.49043 1.02068
 C71 C 0.31020 0.51580 0.97953
 C72 C 0.25197 0.51593 0.97620
 C73 C 0.18494 0.51376 0.97579
 C74 C 0.12883 0.51063 0.97906
 C75 C -0.02005 -0.31003 0.48408
 C76 C -0.02347 -0.25185 0.48421
 C77 C -0.02399 -0.18488 0.48671
 C78 C -0.02079 -0.12881 0.49010
 C79 C 0.02069 0.30872 0.51581
 C80 C 0.02387 0.25056 0.51579
 C81 C 0.02415 0.18359 0.51350
 C82 C 0.02083 0.12751 0.51030
 C83 C 0.51587 -0.02071 -0.30998
 C84 C 0.51577 -0.02405 -0.25180
 C85 C 0.51332 -0.02444 -0.18484
 C86 C 0.50997 -0.02115 -0.12879
 C87 C 0.48414 0.02002 0.30877
 C88 C 0.48420 0.02330 0.25061
 C89 C 0.48654 0.02371 0.18363
 C90 C 0.48977 0.02047 0.12754
 C91 C 0.48053 -0.30721 -0.02413
 C92 C 0.48059 -0.24906 -0.02784
 C93 C 0.48341 -0.18233 -0.02816
 C94 C 0.48736 -0.12666 -0.02429
 C95 C 0.51775 0.30689 0.02311
 C96 C 0.51800 0.24868 0.02671
 C97 C 0.51557 0.18189 0.02689
 C98 C 0.51191 0.12616 0.02294
 C99 C -0.30684 -0.02429 0.51969
 C100 C -0.24870 -0.02797 0.51959
 C101 C -0.18199 -0.02824 0.51674
 C102 C -0.12633 -0.02433 0.51275
 C103 C 0.30726 0.02294 0.48247
 C104 C 0.24904 0.02658 0.48219
 C105 C 0.18223 0.02680 0.48458
 C106 C 0.12649 0.02289 0.48821
 C107 C -0.02331 0.51973 1.30673
 C108 C -0.02689 0.51972 1.24858
 C109 C -0.02704 0.51698 1.18187
 C110 C -0.02306 0.51307 1.12621
 C111 C 0.02393 0.48251 0.69263
 C112 C 0.02766 0.48233 0.75084
 C113 C 0.02801 0.48482 0.81765
 C114 C 0.02417 0.48853 0.87339
   
