data_POSCAR
  _audit_creation_date              2014-09-24
  _audit_creation_method            'ToBaCCo'
  _symmetry_space_group_name_H-M    'P1'
  _symmetry_Int_Tables_number       1
  _symmetry_cell_setting            triclinic
  loop_
  _symmetry_equiv_pos_as_xyz
 x,y,z
_cell_length_a 16.8765
_cell_length_b 17.5827
_cell_length_c 17.5737
_cell_angle_alpha 91.126900
_cell_angle_beta 91.588800
_cell_angle_gamma 90.531000
loop_
  _atom_site_label
  _atom_site_type_symbol
  _atom_site_fract_x
  _atom_site_fract_y
  _atom_site_fract_z
O1 O 0.53263 0.16352 0.02876
 O2 O 0.45853 -0.02709 -0.16021
 O3 O 0.64350 0.03425 -0.07816
 O4 O 0.36614 0.09638 -0.04289
 O5 O 0.59317 -0.06732 -0.12869
 O6 O 0.39901 0.14301 0.06457
 O7 O 0.35135 -0.02440 -0.10133
 O8 O 0.64251 0.10522 0.03777
 C9 C 0.60554 0.16510 0.02654
 C10 C 0.38767 -0.00966 -0.15987
 C11 C 0.64106 -0.01286 -0.13142
 C12 C 0.36747 0.15166 0.00069
 O13 O 0.44948 0.03158 0.16092
 O14 O 0.53858 -0.16054 -0.02265
 O15 O 0.62227 -0.02634 0.11626
 O16 O 0.36164 -0.09109 0.03545
 O17 O 0.40490 -0.14012 -0.06684
 O18 O 0.58080 0.08160 0.15033
 O19 O 0.34280 0.02791 0.09511
 O20 O 0.64462 -0.09503 -0.00059
 Co21 Co 0.49067 0.09401 0.09095
 Co22 Co 0.49800 -0.08815 -0.08484
 Co23 Co 0.62437 0.00443 0.01798
 Co24 Co 0.36898 0.00284 -0.00257
 O25 O 0.49601 0.00301 0.00480
 C26 C 0.37778 0.01765 0.15726
 C27 C 0.60956 -0.15769 -0.00293
 C28 C 0.61841 0.02349 0.16626
 C29 C 0.36652 -0.14726 -0.00743
 O30 O -0.16151 0.42234 -0.06245
 O31 O 0.04160 0.58098 0.14036
 O32 O 0.03556 0.35210 0.07805
 O33 O -0.10237 0.64679 -0.05359
 O34 O 0.02026 0.44636 0.14852
 O35 O -0.16943 0.54861 -0.04223
 O36 O -0.05628 0.63488 0.08002
 O37 O -0.10310 0.37400 0.03613
 C38 C -0.16503 0.38595 -0.00164
 C39 C -0.01704 0.62564 0.14019
 C40 C 0.01908 0.37631 0.14117
 C41 C -0.16564 0.61787 -0.03616
 O42 O -0.05755 0.57620 -0.15731
 O43 O 0.14286 0.42341 0.04196
 O44 O -0.05643 0.35172 -0.10095
 O45 O 0.08702 0.65118 0.03605
 O46 O 0.15495 0.55314 0.02734
 O47 O -0.03543 0.44539 -0.16678
 O48 O 0.04303 0.63029 -0.09895
 O49 O 0.08445 0.37020 -0.05760
 Co50 Co -0.09723 0.49838 -0.09918
 Co51 Co 0.08096 0.50086 0.08104
 Co52 Co -0.00988 0.37690 -0.01115
 Co53 Co -0.00730 0.62634 -0.00956
 O54 O -0.00827 0.50097 -0.00967
 C55 C 0.00337 0.61842 -0.15890
 C56 C 0.14586 0.38165 -0.01741
 C57 C -0.03707 0.37562 -0.16246
 C58 C 0.15220 0.62277 0.02658
 O59 O -0.02934 -0.15913 0.43841
 O60 O 0.15280 0.09707 0.57146
 O61 O 0.09765 -0.03587 0.37906
 O62 O 0.07165 -0.12230 0.61881
 O63 O 0.15443 0.06151 0.43217
 O64 O -0.04221 -0.16229 0.57963
 O65 O 0.15258 -0.01873 0.59271
 O66 O -0.03744 -0.07899 0.34755
 C67 C -0.03188 -0.14642 0.36886
 C68 C 0.18809 0.04193 0.59871
 C69 C 0.15782 0.00457 0.38831
 C70 C 0.02026 -0.17250 0.61677
 O71 O -0.14396 -0.05647 0.57959
 O72 O 0.01411 0.13688 0.41523
 O73 O -0.09675 0.04817 0.40329
 O74 O 0.03889 0.07955 0.65036
 O75 O 0.00838 0.14889 0.55281
 O76 O -0.14733 -0.05844 0.43560
 O77 O -0.04877 -0.03133 0.66628
 O78 O 0.01261 0.06292 0.31327
 Co79 Co -0.08111 -0.09945 0.50724
 Co80 Co 0.07637 0.09856 0.49366
 Co81 Co 0.00269 0.00650 0.39702
 Co82 Co 0.05072 -0.02131 0.62234
 O83 O 0.01067 -0.01008 0.50946
 C84 C -0.12210 -0.03891 0.64704
 C85 C 0.01891 0.13181 0.34317
 C86 C -0.15467 0.00387 0.40332
 C87 C 0.01237 0.14053 0.62301
 N88 N -0.29013 0.24340 0.08156
 C89 C -0.34945 0.23559 0.02837
 N90 N -0.35380 0.28498 -0.02979
 N91 N -0.29799 0.33849 -0.03596
 C92 C -0.23669 0.34407 0.01582
 N93 N -0.23483 0.29680 0.07559
 N94 N 0.32165 0.72969 -0.04388
 C95 C 0.32407 0.79011 0.00587
 N96 N 0.27663 0.78890 0.06690
 N97 N 0.22594 0.73180 0.07587
 C98 C 0.22162 0.67272 0.02522
 N99 N 0.27098 0.67200 -0.03452
 N100 N 0.32618 0.28039 0.03256
 C101 C 0.32153 0.21962 -0.01603
 N102 N 0.26508 0.21836 -0.07266
 N103 N 0.21250 0.27423 -0.07796
 C104 C 0.21518 0.33355 -0.02726
 N105 N 0.27399 0.33631 0.02699
 N106 N -0.36133 0.70724 -0.02924
 C107 C -0.34163 0.77465 0.00592
 N108 N -0.26672 0.78509 0.03416
 N109 N -0.21237 0.73204 0.02490
 C110 C -0.23074 0.66608 -0.01263
 N111 N -0.30666 0.65347 -0.03804
 N112 N -0.06771 -0.25512 0.19076
 C113 C -0.02948 -0.32130 0.20428
 N114 N 0.00679 -0.33073 0.27342
 N115 N 0.00437 -0.27591 0.32699
 C116 C -0.03253 -0.20910 0.31249
 N117 N -0.06903 -0.20003 0.24366
 N118 N -0.02285 0.33352 0.70227
 C119 C -0.02074 0.31911 0.77797
 N120 N -0.01058 0.24654 0.80075
 N121 N -0.00192 0.19014 0.75077
 C122 C -0.00419 0.20366 0.67541
 N123 N -0.01415 0.27646 0.65169
 N124 N 0.02467 0.33029 0.27483
 C125 C 0.00582 0.31907 0.19970
 N126 N -0.01127 0.24722 0.17407
 N127 N -0.00863 0.18851 0.22032
 C128 C 0.01158 0.19890 0.29471
 N129 N 0.02676 0.27106 0.32169
 N130 N -0.03371 -0.34445 0.71826
 C131 C 0.01789 -0.34130 0.77905
 N132 N 0.07730 -0.28847 0.77990
 N133 N 0.08204 -0.23815 0.72442
 C134 C 0.02772 -0.23878 0.66592
 N135 N -0.02923 -0.29385 0.66308
 N136 N 0.37372 0.01003 0.70727
 C137 C 0.34689 0.01615 0.77948
 N138 N 0.27277 0.04319 0.78957
 N139 N 0.22595 0.06024 0.73055
 C140 C 0.25030 0.04984 0.65845
 N141 N 0.32538 0.02470 0.64771
 N142 N -0.29320 0.08473 0.26217
 C143 C -0.33166 0.02090 0.23540
 N144 N -0.31620 -0.04630 0.26864
 N145 N -0.26344 -0.04969 0.32607
 C146 C -0.22328 0.01354 0.35169
 N147 N -0.23916 0.08107 0.31880
 N148 N 0.34463 0.04047 0.29137
 C149 C 0.33152 0.00113 0.22478
 N150 N 0.26592 -0.04381 0.21703
 N151 N 0.21434 -0.04797 0.27280
 C152 C 0.22559 -0.00659 0.33831
 N153 N 0.29224 0.03718 0.34688
 N154 N -0.22632 0.01943 0.82147
 C155 C -0.29957 -0.01195 0.80832
 N156 N -0.31390 -0.05107 0.74193
 N157 N -0.25770 -0.05808 0.69051
 C158 C -0.18418 -0.02776 0.70392
 N159 N -0.16962 0.01155 0.77033
   
