data_POSCAR
  _audit_creation_date              2014-09-24
  _audit_creation_method            'ToBaCCo'
  _symmetry_space_group_name_H-M    'P1'
  _symmetry_Int_Tables_number       1
  _symmetry_cell_setting            triclinic
  loop_
  _symmetry_equiv_pos_as_xyz
 x,y,z
_cell_length_a 20.0924
_cell_length_b 20.0942
_cell_length_c 44.5389
_cell_angle_alpha 91.747600
_cell_angle_beta 89.158300
_cell_angle_gamma 120.066200
loop_
  _atom_site_label
  _atom_site_type_symbol
  _atom_site_fract_x
  _atom_site_fract_y
  _atom_site_fract_z
C1 C 0.04144 0.10796 0.54323
 H2 H 0.09417 0.10615 0.54495
 C3 C 0.03021 0.15904 0.56152
 H4 H 0.07488 0.19656 0.57721
 C5 C -0.07977 0.06208 0.52001
 H6 H -0.12192 0.02495 0.50349
 C7 C -0.09284 0.11335 0.53755
 H8 H -0.14567 0.11450 0.53468
 N9 N -0.01379 0.05974 0.52342
 C10 C 0.05135 -0.11644 0.51133
 H11 H 0.05971 -0.11548 0.48727
 C12 C 0.06136 -0.16788 0.52847
 H13 H 0.07795 -0.20611 0.51742
 C14 C 0.01646 -0.06982 0.55473
 H15 H -0.00322 -0.03321 0.56482
 C16 C 0.02541 -0.12055 0.57267
 H17 H 0.01415 -0.12066 0.59649
 Zn18 Zn 0.00864 -0.00644 0.49979
 N19 N 0.02956 -0.06854 0.52465
 C20 C 0.16402 0.06254 0.47851
 N21 N 0.09429 0.05758 0.47578
 C22 C 0.08331 0.10195 0.45630
 C23 C 0.14294 0.15201 0.43780
 C24 C 0.22582 0.11285 0.46064
 C25 C -0.06711 -0.08045 0.44519
 C26 C -0.12845 -0.13442 0.42755
 C27 C -0.20730 -0.17501 0.47220
 C28 C -0.14415 -0.12064 0.48895
 N29 N -0.07600 -0.07433 0.47528
 H30 H 0.17211 0.02830 0.49472
 H31 H 0.02770 0.09803 0.45510
 H32 H 0.13254 0.18659 0.42249
 H33 H 0.28101 0.11622 0.46297
 H34 H -0.01186 -0.04480 0.43484
 H35 H -0.11858 -0.13748 0.40376
 H36 H -0.26072 -0.21100 0.48387
 H37 H -0.14919 -0.11568 0.51303
 C38 C 0.04743 -0.17100 0.55952
 C39 C -0.03777 0.16197 0.55885
 C40 C -0.20018 -0.18338 0.44096
 C41 C 0.21531 0.15779 0.43978
 C42 C 1.10167 0.03061 0.12346
 H43 H 1.09899 0.08301 0.12293
 C44 C 1.15290 0.02144 0.10478
 H45 H 1.18960 0.06741 0.09001
 C46 C 1.05804 -0.09172 0.14417
 H47 H 1.02171 -0.13509 0.15989
 C48 C 1.10949 -0.10282 0.12614
 H49 H 1.11165 -0.15536 0.12783
 N50 N 1.05464 -0.02603 0.14225
 C51 C 0.87706 0.03588 0.15649
 H52 H 0.87901 0.04345 0.18068
 C53 C 0.82517 0.04681 0.13977
 H54 H 0.78753 0.06323 0.15129
 C55 C 0.92227 0.00292 0.11227
 H56 H 0.95874 -0.01609 0.10166
 C57 C 0.87109 0.01288 0.09472
 H58 H 0.87033 0.00285 0.07071
 Zn59 Zn 0.98941 -0.00480 0.16669
 N60 N 0.92466 0.01487 0.14256
 C61 C 1.05827 0.15091 0.18925
 N62 N 1.05483 0.08178 0.19111
 C63 C 1.10193 0.07219 0.20987
 C64 C 1.15323 0.13261 0.22857
 C65 C 1.10980 0.21350 0.20731
 C66 C 0.87700 -0.15797 0.17692
 C67 C 0.82519 -0.22083 0.19367
 C68 C 0.87145 -0.14077 0.23869
 C69 C 0.92254 -0.07960 0.22112
 N70 N 0.92473 -0.08925 0.19083
 H71 H 1.02188 0.15793 0.17356
 H72 H 1.09920 0.01707 0.21035
 H73 H 1.18996 0.12335 0.24332
 H74 H 1.11198 0.26822 0.20568
 H75 H 0.87879 -0.16367 0.15274
 H76 H 0.78746 -0.27500 0.18216
 H77 H 0.87087 -0.13141 0.26271
 H78 H 0.95910 -0.02402 0.23172
 C79 C 0.82135 0.03475 0.10848
 C80 C 1.15714 -0.04605 0.10594
 C81 C 0.82160 -0.21250 0.22496
 C82 C 1.15749 0.20437 0.22749
 C83 C 0.08306 0.98075 0.87687
 H84 H 0.02749 0.92889 0.87801
 C85 C 0.14267 0.99050 0.89543
 H86 H 0.13230 0.94548 0.91072
 C87 C 0.16369 1.10115 0.85478
 H88 H 0.17175 1.14352 0.83858
 C89 C 0.22547 1.11281 0.87270
 H90 H 0.28062 1.16480 0.87043
 N91 N 0.09400 1.03616 0.85743
 C92 C -0.14444 0.97553 0.84411
 H93 H -0.14943 0.96575 0.82002
 C94 C -0.20761 0.96652 0.86085
 H95 H -0.26113 0.94920 0.84929
 C96 C -0.06750 1.01209 0.88795
 H97 H -0.01229 1.03169 0.89835
 C98 C -0.12891 1.00442 0.90556
 H99 H -0.11957 1.01704 0.92939
 Zn100 Zn 0.00835 1.01434 0.83337
 N101 N -0.07631 0.99734 0.85784
 C102 C -0.08004 0.85730 0.81306
 N103 N -0.01403 0.92574 0.80971
 C104 C 0.04124 0.93286 0.78995
 C105 C 0.03004 0.87055 0.77166
 C106 C -0.09308 0.79295 0.79550
 C107 C 0.05095 1.16712 0.82187
 C108 C 0.06097 1.22861 0.80474
 C109 C 0.02519 1.14532 0.76051
 C110 C 0.01623 1.08562 0.77843
 N111 N 0.02924 1.09743 0.80853
 H112 H -0.12223 0.85219 0.82954
 H113 H 0.09398 0.98749 0.78828
 H114 H 0.07475 0.87779 0.75600
 H115 H -0.14594 0.73886 0.79832
 H116 H 0.05925 1.17452 0.84594
 H117 H 0.07750 1.28344 0.81581
 H118 H 0.01401 1.13418 0.73667
 H119 H -0.00338 1.02931 0.76833
 C120 C -0.20037 0.98167 0.89206
 C121 C 0.21498 1.05732 0.89354
 C122 C 0.04713 1.21781 0.77368
 C123 C -0.03796 0.79951 0.77426
 C124 C 0.32064 0.00680 -0.00026
 C125 C 0.36913 0.03354 -0.02535
 C126 C 0.43995 0.03566 -0.02490
 C127 C 0.46104 0.00792 -0.00023
 C128 C 0.41054 -0.02044 0.02441
 C129 C 0.34124 -0.01947 0.02481
 C130 C 0.53547 0.00847 -0.00021
 C131 C 0.57822 0.02469 0.02642
 C132 C 0.64774 0.02402 0.02681
 C133 C 0.67581 0.00925 -0.00019
 C134 C 0.63474 -0.00585 -0.02722
 C135 C 0.56412 -0.00729 -0.02683
 H136 H 0.26661 0.00637 -0.00026
 H137 H 0.47812 0.05833 -0.04397
 H138 H 0.42517 -0.04273 0.04349
 H139 H 0.55746 0.03800 0.04699
 H140 H 0.72971 0.00978 -0.00012
 H141 H 0.53128 -0.02094 -0.04740
 C142 C -0.00058 0.67624 0.66656
 C143 C -0.02402 0.63218 0.69249
 C144 C -0.02756 0.56069 0.69211
 C145 C -0.00529 0.53410 0.66646
 C146 C 0.01831 0.57927 0.64071
 C147 C 0.01954 0.64976 0.64033
 C148 C -0.00529 0.46002 0.66668
 C149 C -0.02751 0.41114 0.64100
 C150 C -0.02399 0.34318 0.64063
 C151 C -0.00062 0.32257 0.66659
 C152 C 0.01944 0.36919 0.69283
 C153 C 0.01822 0.43844 0.69245
 H154 H 0.00132 0.73093 0.66688
 H155 H -0.04691 0.52630 0.71201
 H156 H 0.03609 0.55978 0.62087
 H157 H -0.04679 0.42618 0.62109
 H158 H 0.00126 0.26978 0.66627
 H159 H 0.03596 0.47573 0.71230
 C160 C 0.67709 0.66733 0.33373
 C161 C 0.64862 0.62453 0.30673
 C162 C 0.57894 0.55438 0.30713
 C163 C 0.53639 0.52786 0.33378
 C164 C 0.56544 0.57220 0.36042
 C165 C 0.63626 0.64134 0.36080
 C166 C 0.46175 0.45404 0.33380
 C167 C 0.44058 0.40509 0.35844
 C168 C 0.36961 0.33640 0.35886
 C169 C 0.32106 0.31478 0.33378
 C170 C 0.34171 0.36176 0.30874
 C171 C 0.41115 0.43204 0.30918
 H172 H 0.73113 0.72064 0.33364
 H173 H 0.55789 0.52035 0.28654
 H174 H 0.53277 0.55301 0.38100
 H175 H 0.47882 0.42047 0.37750
 H176 H 0.26693 0.26116 0.33374
 H177 H 0.42583 0.46905 0.29012
 N178 N -0.09451 0.28887 0.59355
 N179 N -0.10019 0.24048 0.57148
 C180 C -0.05084 0.21582 0.57795
 C181 C -0.01510 0.25035 0.60480
 N182 N -0.04393 0.29530 0.61384
 H183 H 0.02806 0.24392 0.61653
 N184 N 0.67473 0.60885 0.25392
 N185 N 0.71956 0.65012 0.23168
 C186 C 0.76492 0.72213 0.24284
 C187 C 0.74618 0.72344 0.27274
 N188 N 0.68975 0.65168 0.27885
 H189 H 0.76937 0.77250 0.28814
 N190 N 0.39346 0.10894 -0.07058
 N191 N 0.35428 0.11721 -0.09246
 C192 C 0.27906 0.06851 -0.08703
 C193 C 0.27351 0.03057 -0.06101
 N194 N 0.34589 0.05738 -0.05140
 H195 H 0.22196 -0.01305 -0.05029
 N196 N 0.07275 0.67985 0.58951
 N197 N 0.08120 0.72648 0.56753
 C198 C 0.05321 0.77157 0.57767
 C199 C 0.02725 0.75080 0.60665
 N200 N 0.04050 0.69347 0.61327
 H201 H -0.00163 0.77289 0.62092
 N202 N 0.28731 0.38432 0.26389
 N203 N 0.23810 0.34425 0.24198
 C204 C 0.21189 0.26925 0.24707
 C205 C 0.24627 0.26474 0.27290
 N206 N 0.29271 0.33751 0.28274
 H207 H 0.23906 0.21361 0.28334
 N208 N 0.62435 -0.04293 -0.08051
 N209 N 0.66707 -0.04670 -0.10269
 C210 C 0.73709 -0.02444 -0.09111
 C211 C 0.73541 -0.00705 -0.06088
 N212 N 0.66413 -0.01924 -0.05514
 H213 H 0.78215 0.01476 -0.04494
 N214 N 0.28680 -0.09627 0.06970
 N215 N 0.23762 -0.10535 0.09157
 C216 C 0.21150 -0.05656 0.08642
 C217 C 0.24591 -0.01773 0.06059
 N218 N 0.29228 -0.04410 0.05081
 H219 H 0.23876 0.02616 0.05010
 N220 N 0.62673 0.66748 0.41420
 N221 N 0.66974 0.71391 0.43638
 C222 C 0.73963 0.76213 0.42476
 C223 C 0.73739 0.74333 0.39442
 N224 N 0.66608 0.68400 0.38874
 H225 H 0.78365 0.76851 0.37831
 N226 N 0.07249 0.39235 0.74371
 N227 N 0.08088 0.35416 0.76570
 C228 C 0.05294 0.28104 0.75553
 C229 C 0.02707 0.27584 0.72652
 N230 N 0.04032 0.34643 0.71991
 H231 H -0.00175 0.22483 0.71223
 N232 N 0.67436 0.06625 0.07957
 N233 N 0.71936 0.07000 0.10179
 C234 C 0.76455 0.04327 0.09063
 C235 C 0.74552 0.02295 0.06075
 N236 N 0.68910 0.03822 0.05466
 H237 H 0.76853 -0.00303 0.04535
 N238 N 0.39385 0.28515 0.40407
 N239 N 0.35464 0.23753 0.42590
 C240 C 0.27943 0.21091 0.42042
 C241 C 0.27393 0.24343 0.39443
 N242 N 0.34633 0.28918 0.38488
 H243 H 0.22240 0.23548 0.38369
 N244 N -0.09466 0.61579 0.73950
 N245 N -0.10038 0.65847 0.76157
 C246 C -0.05100 0.73259 0.75515
 C247 C -0.01519 0.73389 0.72833
 N248 N -0.04402 0.66006 0.71926
 H249 H 0.02800 0.78356 0.71664
   
