data_POSCAR
  _audit_creation_date              2014-09-24
  _audit_creation_method            'ToBaCCo'
  _symmetry_space_group_name_H-M    'P1'
  _symmetry_Int_Tables_number       1
  _symmetry_cell_setting            triclinic
  loop_
  _symmetry_equiv_pos_as_xyz
 x,y,z
_cell_length_a 34.5193
_cell_length_b 34.4980
_cell_length_c 44.0355
_cell_angle_alpha 90.543000
_cell_angle_beta 89.978200
_cell_angle_gamma 91.114100
loop_
  _atom_site_label
  _atom_site_type_symbol
  _atom_site_fract_x
  _atom_site_fract_y
  _atom_site_fract_z
C1 C 0.00239 0.53868 1.01536
 C2 C 0.00342 0.53789 0.98286
 C3 C 0.00389 0.50158 0.96791
 C4 C 0.00512 0.46658 0.98372
 C5 C 0.00622 0.46713 1.01595
 C6 C 0.00445 0.50325 1.03102
 H7 H 0.00417 0.50372 1.05561
 H8 H 0.00463 0.50020 0.94332
 C9 C 0.46413 -0.00807 0.51390
 C10 C 0.46417 -0.00516 0.48189
 C11 C 0.49955 -0.00512 0.46620
 C12 C 0.53539 -0.00781 0.48139
 C13 C 0.53510 -0.00926 0.51375
 C14 C 0.49956 -0.00976 0.52930
 H15 H 0.49950 -0.01099 0.55390
 H16 H 0.49874 -0.00433 0.44162
 C17 C 0.07958 0.00836 0.25860
 H18 H 0.08092 0.00965 0.23408
 C19 C 0.11372 0.00888 0.27558
 H20 H 0.14137 0.01065 0.26399
 C21 C 0.04179 0.00521 0.30350
 H22 H 0.01370 0.00402 0.31429
 C23 C 0.07523 0.00610 0.32138
 H24 H 0.07258 0.00498 0.34586
 N25 N 0.04457 0.00580 0.27268
 C26 C -0.03474 -0.04780 0.20684
 H27 H -0.05812 -0.02736 0.20753
 C28 C -0.03850 -0.08172 0.18941
 H29 H -0.06508 -0.08725 0.17694
 C30 C 0.02744 -0.06604 0.22357
 H31 H 0.05283 -0.06031 0.23729
 C32 C 0.02508 -0.10008 0.20625
 H33 H 0.04931 -0.11954 0.20635
 Zn34 Zn -0.00030 0.00485 0.24798
 N35 N -0.00211 -0.04055 0.22340
 C36 C 0.00030 0.04722 0.19283
 N37 N 0.00176 0.04975 0.22366
 C38 C 0.00622 0.08455 0.23811
 C39 C 0.00828 0.11878 0.22151
 C40 C 0.00245 0.08076 0.17532
 C41 C -0.05346 -0.02850 0.28838
 C42 C -0.08714 -0.03151 0.30584
 C43 C -0.10389 0.03292 0.29011
 C44 C -0.07008 0.03454 0.27272
 N45 N -0.04552 0.00419 0.27234
 H46 H -0.00248 0.01925 0.18174
 H47 H 0.00810 0.08564 0.26263
 H48 H 0.01192 0.14620 0.23343
 H49 H 0.00063 0.07828 0.15083
 H50 H -0.03373 -0.05246 0.28729
 H51 H -0.09323 -0.05815 0.31788
 H52 H -0.12260 0.05773 0.29049
 H53 H -0.06370 0.06002 0.25945
 C54 C -0.00833 -0.10851 0.18899
 C55 C 0.11177 0.00756 0.30739
 C56 C -0.11297 -0.00052 0.30688
 C57 C 0.00626 0.11716 0.18968
 C58 C -0.00611 0.07841 0.76042
 H59 H -0.00869 0.07968 0.73596
 C60 C -0.00730 0.11245 0.77775
 H61 H -0.01016 0.13992 0.76636
 C62 C 0.00115 0.04089 0.80477
 H63 H 0.00385 0.01290 0.81525
 C64 C 0.00004 0.07421 0.82299
 H65 H 0.00185 0.07142 0.84742
 N66 N -0.00143 0.04362 0.77405
 C67 C 0.05151 -0.03368 0.70791
 H68 H 0.03185 -0.05839 0.70946
 C69 C 0.08463 -0.03587 0.68980
 H70 H 0.09027 -0.06229 0.67722
 C71 C 0.06827 0.03073 0.72270
 H72 H 0.06227 0.05637 0.73598
 C73 C 0.10139 0.03001 0.70450
 H74 H 0.12057 0.05520 0.70388
 Zn75 Zn -0.00071 -0.00112 0.74885
 N76 N 0.04394 -0.00072 0.72385
 C77 C -0.04366 -0.00104 0.69384
 N78 N -0.04602 -0.00088 0.72469
 C79 C -0.08079 0.00093 0.73911
 C80 C -0.11514 0.00125 0.72242
 C81 C -0.07730 -0.00027 0.67626
 C82 C 0.03334 -0.05326 0.78884
 C83 C 0.03646 -0.08695 0.80596
 C84 C -0.02766 -0.10654 0.78924
 C85 C -0.02942 -0.07266 0.77227
 N86 N 0.00067 -0.04663 0.77260
 H87 H -0.01572 -0.00169 0.68281
 H88 H -0.08176 0.00186 0.76366
 H89 H -0.14260 0.00250 0.73425
 H90 H -0.07501 -0.00091 0.65173
 H91 H 0.05715 -0.03242 0.78826
 H92 H 0.06299 -0.09191 0.81831
 H93 H -0.05233 -0.12640 0.78909
 H94 H -0.05483 -0.06743 0.75877
 C95 C 0.10993 -0.00367 0.68789
 C96 C -0.00407 0.11065 0.80950
 C97 C 0.00565 -0.11419 0.80633
 C98 C -0.11362 0.00056 0.69057
 C99 C -0.01372 -0.35818 0.06727
 C100 C 0.01130 -0.38686 0.07741
 C101 C 0.01639 -0.42074 0.06044
 C102 C -0.00347 -0.42698 0.03275
 C103 C -0.02970 -0.39858 0.02333
 C104 C -0.03431 -0.36439 0.04015
 C105 C -0.01746 -0.32157 0.08476
 C106 C -0.01457 -0.28566 0.07013
 C107 C -0.01510 -0.25110 0.08696
 C108 C -0.01896 -0.25174 0.11878
 C109 C -0.02317 -0.28780 0.13320
 C110 C -0.02216 -0.32231 0.11641
 C111 C -0.01721 -0.21513 0.13695
 C112 C 0.00143 -0.21401 0.16534
 C113 C 0.00389 -0.17963 0.18226
 C114 C -0.01180 -0.14525 0.17112
 C115 C -0.03058 -0.14635 0.14277
 C116 C -0.03337 -0.18089 0.12594
 H117 H 0.02785 -0.38254 0.09810
 H118 H 0.03733 -0.44125 0.06845
 H119 H -0.04711 -0.40292 0.00310
 H120 H -0.05433 -0.34296 0.03216
 H121 H -0.01052 -0.28437 0.04576
 H122 H -0.01123 -0.22395 0.07512
 H123 H -0.02713 -0.28942 0.15755
 H124 H -0.02498 -0.34966 0.12816
 H125 H 0.01474 -0.23961 0.17437
 H126 H 0.01798 -0.18010 0.20421
 H127 H -0.04267 -0.12037 0.13333
 H128 H -0.04834 -0.18076 0.10435
 C129 C 0.01291 0.36421 0.06813
 C130 C 0.03516 0.36853 0.04166
 C131 C 0.03350 0.40251 0.02472
 C132 C 0.00895 0.43289 0.03346
 C133 C -0.01258 0.42862 0.06051
 C134 C -0.01071 0.39474 0.07750
 C135 C 0.01394 0.32787 0.08584
 C136 C 0.01496 0.32916 0.11772
 C137 C 0.01463 0.29495 0.13445
 C138 C 0.01307 0.25864 0.11968
 C139 C 0.01251 0.25737 0.08776
 C140 C 0.01302 0.29161 0.07102
 C141 C 0.01144 0.22230 0.13756
 C142 C 0.03170 0.18940 0.12796
 C143 C 0.02994 0.15523 0.14479
 C144 C 0.00802 0.15327 0.17164
 C145 C -0.01225 0.18612 0.18123
 C146 C -0.01063 0.22020 0.16436
 H147 H 0.05437 0.34583 0.03431
 H148 H 0.05238 0.40530 0.00521
 H149 H -0.03240 0.45072 0.06796
 H150 H -0.02857 0.39203 0.09762
 H151 H 0.01631 0.35669 0.12974
 H152 H 0.01586 0.29696 0.15898
 H153 H 0.01075 0.22990 0.07569
 H154 H 0.01171 0.28974 0.04648
 H155 H 0.04941 0.19023 0.10767
 H156 H 0.04628 0.13054 0.13707
 H157 H -0.02989 0.18527 0.20156
 H158 H -0.02719 0.24474 0.17207
 C159 C 0.35797 -0.00989 0.56557
 C160 C 0.36321 -0.03616 0.54133
 C161 C 0.39789 -0.03617 0.52493
 C162 C 0.42776 -0.00935 0.53194
 C163 C 0.42287 0.01648 0.55638
 C164 C 0.38847 0.01612 0.57309
 C165 C 0.32088 -0.00939 0.58287
 C166 C 0.30614 0.02574 0.59393
 C167 C 0.27167 0.02630 0.61053
 C168 C 0.25063 -0.00821 0.61617
 C169 C 0.26513 -0.04332 0.60481
 C170 C 0.29990 -0.04393 0.58854
 C171 C 0.21399 -0.00753 0.63404
 C172 C 0.20421 -0.03795 0.65389
 C173 C 0.17014 -0.03696 0.67102
 C174 C 0.14537 -0.00530 0.66903
 C175 C 0.15493 0.02506 0.64924
 C176 C 0.18869 0.02383 0.63176
 H177 H 0.34030 -0.05634 0.53465
 H178 H 0.40125 -0.05686 0.50651
 H179 H 0.44558 0.03728 0.56234
 H180 H 0.38592 0.03614 0.59202
 H181 H 0.32108 0.05301 0.58960
 H182 H 0.26181 0.05383 0.61927
 H183 H 0.24949 -0.07041 0.60830
 H184 H 0.31054 -0.07159 0.58072
 H185 H 0.22327 -0.06220 0.65671
 H186 H 0.16358 -0.06052 0.68639
 H187 H 0.13601 0.04956 0.64706
 H188 H 0.19475 0.04735 0.61628
 C189 C -0.36035 -0.00349 0.56728
 C190 C -0.36722 0.02438 0.54487
 C191 C -0.40140 0.02296 0.52785
 C192 C -0.42908 -0.00678 0.53245
 C193 C -0.42263 -0.03420 0.55513
 C194 C -0.38871 -0.03255 0.57239
 C195 C -0.32372 -0.00250 0.58512
 C196 C -0.30594 -0.03717 0.59347
 C197 C -0.27186 -0.03638 0.61058
 C198 C -0.25451 -0.00093 0.61944
 C199 C -0.27188 0.03376 0.61086
 C200 C -0.30623 0.03300 0.59402
 C201 C -0.21849 -0.00024 0.63775
 C202 C -0.18733 0.02460 0.63011
 C203 C -0.15317 0.02476 0.64718
 C204 C -0.14975 0.00047 0.67242
 C205 C -0.18105 -0.02411 0.68020
 C206 C -0.21500 -0.02462 0.66292
 H207 H -0.34591 0.04693 0.54009
 H208 H -0.40603 0.04476 0.51076
 H209 H -0.44372 -0.05723 0.55922
 H210 H -0.38482 -0.05396 0.58988
 H211 H -0.31807 -0.06501 0.58647
 H212 H -0.25873 -0.06354 0.61653
 H213 H -0.25927 0.06148 0.61770
 H214 H -0.31941 0.06024 0.58843
 H215 H -0.18922 0.04349 0.61069
 H216 H -0.12955 0.04417 0.64084
 H217 H -0.17904 -0.04332 0.69942
 H218 H -0.23871 -0.04382 0.66941
 C219 C 0.01067 -0.35990 0.92944
 C220 C -0.01169 -0.39216 0.91979
 C221 C -0.01367 -0.42578 0.93715
 C222 C 0.00663 -0.42822 0.96483
 C223 C 0.03049 -0.39642 0.97368
 C224 C 0.03213 -0.36261 0.95642
 C225 C 0.01097 -0.32348 0.91159
 C226 C 0.04500 -0.30069 0.90865
 C227 C 0.04499 -0.26657 0.89171
 C228 C 0.01108 -0.25474 0.87715
 C229 C -0.02293 -0.27734 0.88018
 C230 C -0.02305 -0.31117 0.89732
 C231 C 0.01096 -0.21902 0.85872
 C232 C -0.00718 -0.21915 0.83019
 C233 C -0.00838 -0.18534 0.81307
 C234 C 0.00819 -0.15045 0.82420
 C235 C 0.02674 -0.15048 0.85266
 C236 C 0.02825 -0.18446 0.86967
 H237 H -0.02792 -0.39144 0.89878
 H238 H -0.03259 -0.44923 0.92939
 H239 H 0.04815 -0.39763 0.99395
 H240 H 0.04974 -0.33836 0.96453
 H241 H 0.07182 -0.30955 0.91899
 H242 H 0.07169 -0.24982 0.88950
 H243 H -0.04963 -0.26852 0.86961
 H244 H -0.04999 -0.32744 0.89968
 H245 H -0.02019 -0.24556 0.82100
 H246 H -0.02209 -0.18664 0.79096
 H247 H 0.03934 -0.12405 0.86213
 H248 H 0.04209 -0.18352 0.89174
 C249 C -0.00112 0.36012 0.93194
 C250 C 0.02820 0.38800 0.92626
 C251 C 0.02988 0.42268 0.94286
 C252 C 0.00240 0.43015 0.96554
 C253 C -0.02745 0.40282 0.97081
 C254 C -0.02910 0.36804 0.95427
 C255 C -0.00225 0.32286 0.91473
 C256 C -0.03765 0.30647 0.90474
 C257 C -0.03853 0.27162 0.88826
 C258 C -0.00403 0.25235 0.88144
 C259 C 0.03133 0.26865 0.89160
 C260 C 0.03221 0.30346 0.90807
 C261 C -0.00478 0.21565 0.86349
 C262 C 0.01996 0.18527 0.87091
 C263 C 0.01998 0.15115 0.85355
 C264 C -0.00476 0.14658 0.82837
 C265 C -0.02979 0.17680 0.82114
 C266 C -0.02979 0.21094 0.83849
 H267 H 0.04976 0.38308 0.90886
 H268 H 0.05301 0.44350 0.93834
 H269 H -0.04917 0.40824 0.98802
 H270 H -0.05186 0.34705 0.95934
 H271 H -0.06466 0.32088 0.90927
 H272 H -0.06627 0.25960 0.88103
 H273 H 0.05845 0.25478 0.88644
 H274 H 0.05990 0.31506 0.91579
 H275 H 0.03924 0.18780 0.89024
 H276 H 0.03988 0.12859 0.85955
 H277 H -0.04955 0.17401 0.80212
 H278 H -0.04893 0.23393 0.83199
 C279 C -0.36103 -0.01238 0.42906
 C280 C -0.39169 0.01101 0.42010
 C281 C -0.42570 0.01234 0.43721
 C282 C -0.43007 -0.00972 0.46389
 C283 C -0.39953 -0.03417 0.47210
 C284 C -0.36532 -0.03507 0.45514
 C285 C -0.32459 -0.01276 0.41129
 C286 C -0.28857 -0.00955 0.42599
 C287 C -0.25423 -0.00830 0.40914
 C288 C -0.25517 -0.01064 0.37723
 C289 C -0.29131 -0.01462 0.36264
 C290 C -0.32562 -0.01543 0.37948
 C291 C -0.21872 -0.00832 0.35919
 C292 C -0.21770 0.01119 0.33130
 C293 C -0.18355 0.01352 0.31434
 C294 C -0.14936 -0.00323 0.32495
 C295 C -0.15033 -0.02264 0.35289
 C296 C -0.18460 -0.02528 0.36974
 H297 H -0.38895 0.02910 0.40021
 H298 H -0.44789 0.03207 0.43012
 H299 H -0.40232 -0.05355 0.49117
 H300 H -0.34241 -0.05406 0.46212
 H301 H -0.28703 -0.00700 0.45050
 H302 H -0.22702 -0.00458 0.42113
 H303 H -0.29313 -0.01736 0.33817
 H304 H -0.35302 -0.01846 0.36763
 H305 H -0.24322 0.02511 0.32266
 H306 H -0.18411 0.02818 0.29272
 H307 H -0.12447 -0.03549 0.36196
 H308 H -0.18441 -0.04094 0.39093
 C309 C 0.35817 0.00146 0.43069
 C310 C 0.38582 -0.02668 0.42366
 C311 C 0.42021 -0.02856 0.44020
 C312 C 0.42786 -0.00226 0.46404
 C313 C 0.40081 0.02649 0.47068
 C314 C 0.36617 0.02815 0.45434
 C315 C 0.32119 0.00277 0.41340
 C316 C 0.30447 0.03840 0.40621
 C317 C 0.27005 0.03946 0.38951
 C318 C 0.25183 0.00494 0.37941
 C319 C 0.26831 -0.03065 0.38676
 C320 C 0.30246 -0.03174 0.40368
 C321 C 0.21599 0.00594 0.36094
 C322 C 0.21208 -0.01756 0.33485
 C323 C 0.17836 -0.01677 0.31738
 C324 C 0.14768 0.00724 0.32580
 C325 C 0.15151 0.03067 0.35194
 C326 C 0.18546 0.03022 0.36925
 H327 H 0.38103 -0.04717 0.40521
 H328 H 0.44074 -0.05088 0.43460
 H329 H 0.40636 0.04741 0.48872
 H330 H 0.34542 0.04997 0.46055
 H331 H 0.31838 0.06554 0.41292
 H332 H 0.25814 0.06729 0.38388
 H333 H 0.25450 -0.05770 0.37966
 H334 H 0.31400 -0.05970 0.40939
 H335 H 0.23532 -0.03629 0.32781
 H336 H 0.17603 -0.03535 0.29747
 H337 H 0.12839 0.04964 0.35880
 H338 H 0.18767 0.04843 0.38936
   
