data_POSCAR
  _audit_creation_date              2014-09-24
  _audit_creation_method            'ToBaCCo'
  _symmetry_space_group_name_H-M    'P1'
  _symmetry_Int_Tables_number       1
  _symmetry_cell_setting            triclinic
  loop_
  _symmetry_equiv_pos_as_xyz
 x,y,z
_cell_length_a 35.5958
_cell_length_b 36.1715
_cell_length_c 47.3672
_cell_angle_alpha 90.604900
_cell_angle_beta 87.086400
_cell_angle_gamma 89.562600
loop_
  _atom_site_label
  _atom_site_type_symbol
  _atom_site_fract_x
  _atom_site_fract_y
  _atom_site_fract_z
C1 C -0.01425 0.50526 0.98714
 C2 C -0.00792 0.50414 1.01529
 C3 C -0.00297 0.53818 1.03259
 C4 C -0.00585 0.46835 1.03025
 C5 C -0.01627 0.47086 0.96991
 C6 C -0.01896 0.54058 0.97197
 C7 C 0.02244 0.56572 1.02396
 C8 C 0.02581 0.59801 1.04009
 C9 C 0.00463 0.60344 1.06603
 C10 C -0.01984 0.57451 1.07484
 C11 C -0.02359 0.54268 1.05835
 C12 C 0.02682 0.45880 1.04388
 C13 C 0.02962 0.42469 1.05721
 C14 C -0.00041 0.39962 1.05740
 C15 C -0.03346 0.40967 1.04420
 C16 C -0.03619 0.44377 1.03083
 C17 C -0.04872 0.46335 0.95536
 C18 C -0.05135 0.43070 0.93960
 C19 C -0.02138 0.40506 0.93791
 C20 C 0.01141 0.41304 0.95212
 C21 C 0.01399 0.44571 0.96788
 C22 C -0.04609 0.56697 0.98129
 C23 C -0.04927 0.60049 0.96709
 C24 C -0.02560 0.60802 0.94319
 C25 C 0.00080 0.58106 0.93353
 C26 C 0.00399 0.54768 0.94773
 H27 H 0.03986 0.56222 1.00469
 H28 H 0.04673 0.61753 1.03255
 H29 H -0.03829 0.57681 1.09361
 H30 H -0.04341 0.52176 1.06547
 H31 H 0.05048 0.47747 1.04367
 H32 H 0.05560 0.41765 1.06689
 H33 H -0.06191 0.45098 1.02084
 H34 H -0.07230 0.48251 0.95664
 H35 H -0.07711 0.42520 0.92917
 H36 H 0.03524 0.39421 0.95079
 H37 H 0.03956 0.45140 0.97852
 H38 H -0.06452 0.56174 0.99969
 H39 H -0.06978 0.62076 0.97511
 H40 H 0.01890 0.58571 0.91486
 H41 H 0.02483 0.52752 0.94003
 H42 H -0.05736 0.39132 1.04444
 C43 C 0.50456 -0.01258 0.48484
 C44 C 0.50203 -0.01083 0.51363
 C45 C 0.46517 -0.00760 0.52976
 C46 C 0.53603 -0.01262 0.53043
 C47 C 0.54140 -0.01262 0.46858
 C48 C 0.47052 -0.01468 0.46812
 C49 C 0.43916 0.02029 0.52375
 C50 C 0.40417 0.02224 0.53849
 C51 C 0.39489 -0.00313 0.55995
 C52 C 0.42139 -0.03030 0.56651
 C53 C 0.45619 -0.03250 0.55154
 C54 C 0.54392 0.01657 0.54886
 C55 C 0.57620 0.01552 0.56442
 C56 C 0.60078 -0.01507 0.56218
 C57 C 0.59242 -0.04463 0.54412
 C58 C 0.56033 -0.04338 0.52832
 C59 C 0.54960 -0.04033 0.44821
 C60 C 0.58403 -0.04073 0.43269
 C61 C 0.61097 -0.01331 0.43716
 C62 C 0.60245 0.01473 0.45734
 C63 C 0.56790 0.01521 0.47275
 C64 C 0.44531 -0.04413 0.47155
 C65 C 0.41305 -0.04550 0.45592
 C66 C 0.40546 -0.01732 0.43677
 C67 C 0.43098 0.01189 0.43319
 C68 C 0.46342 0.01301 0.44855
 H69 H 0.44590 0.04047 0.50759
 H70 H 0.38450 0.04384 0.53335
 H71 H 0.41487 -0.05032 0.58283
 H72 H 0.47590 -0.05409 0.55664
 H73 H 0.52532 0.04039 0.55087
 H74 H 0.58177 0.03844 0.57846
 H75 H 0.55442 -0.06634 0.51441
 H76 H 0.52939 -0.06183 0.44445
 H77 H 0.58937 -0.06228 0.41694
 H78 H 0.62265 0.03610 0.46144
 H79 H 0.56183 0.03732 0.48792
 H80 H 0.45060 -0.06594 0.48637
 H81 H 0.39373 -0.06824 0.45911
 H82 H 0.42598 0.03369 0.41830
 H83 H 0.48273 0.03580 0.44554
 H84 H 0.61100 -0.06845 0.54194
 C85 C 0.09776 0.00307 0.25558
 H86 H 0.10172 0.00061 0.23284
 C87 C 0.12887 0.00250 0.27236
 H88 H 0.15684 -0.00029 0.26242
 C89 C 0.05646 0.01044 0.29613
 H90 H 0.02825 0.01405 0.30529
 C91 C 0.08683 0.01054 0.31368
 H92 H 0.08166 0.01353 0.33632
 N93 N 0.06239 0.00623 0.26767
 C94 C -0.00329 -0.04027 0.20060
 H95 H -0.02313 -0.01799 0.19770
 C96 C -0.00425 -0.07209 0.18369
 H97 H -0.02491 -0.07419 0.16775
 C98 C 0.04696 -0.06512 0.22553
 H99 H 0.06639 -0.06268 0.24221
 C100 C 0.04664 -0.09762 0.20938
 H101 H 0.06643 -0.11959 0.21340
 Zn102 Zn 0.02180 0.00650 0.24332
 N103 N 0.02252 -0.03706 0.22068
 C104 C 0.03088 0.04794 0.19223
 N105 N 0.02686 0.04943 0.22094
 C106 C 0.02662 0.08228 0.23516
 C107 C 0.02880 0.11548 0.22047
 C108 C 0.03319 0.08054 0.17666
 C109 C -0.03218 -0.02014 0.28296
 C110 C -0.06588 -0.02042 0.29939
 C111 C -0.08445 0.03590 0.27676
 C112 C -0.05032 0.03521 0.26088
 N113 N -0.02475 0.00776 0.26455
 H114 H 0.03227 0.02159 0.18131
 H115 H 0.02390 0.08264 0.25801
 H116 H 0.02725 0.14131 0.23224
 H117 H 0.03627 0.07885 0.15383
 H118 H -0.01159 -0.04194 0.28515
 H119 H -0.07073 -0.04234 0.31449
 H120 H -0.10453 0.05782 0.27331
 H121 H -0.04452 0.05647 0.24547
 C122 C 0.02094 -0.10127 0.18805
 C123 C 0.12354 0.00618 0.30181
 C124 C -0.09251 0.00801 0.29653
 C125 C 0.03175 0.11492 0.19079
 C126 C -0.01931 0.07799 0.76725
 H127 H -0.01644 0.07978 0.74446
 C128 C -0.02119 0.11021 0.78374
 H129 H -0.01926 0.13672 0.77341
 C130 C -0.02406 0.04098 0.80823
 H131 H -0.02563 0.01397 0.81768
 C132 C -0.02620 0.07251 0.82555
 H133 H -0.02944 0.06934 0.84824
 N134 N -0.01991 0.04427 0.77966
 C135 C 0.03968 -0.02342 0.71488
 H136 H 0.01898 -0.04444 0.71118
 C137 C 0.07423 -0.02416 0.69950
 H138 H 0.08004 -0.04590 0.68396
 C139 C 0.05772 0.02979 0.74031
 H140 H 0.05154 0.05037 0.75659
 C141 C 0.09275 0.02982 0.72568
 H142 H 0.11291 0.05099 0.73043
 Zn143 Zn -0.01493 0.00238 0.75545
 N144 N 0.03187 0.00361 0.73454
 C145 C -0.04980 0.00769 0.70275
 N146 N -0.05559 0.00367 0.73117
 C147 C -0.09094 0.00165 0.74334
 C148 C -0.12217 0.00197 0.72668
 C149 C -0.08029 0.00861 0.68532
 C150 C 0.01235 -0.04639 0.79498
 C151 C 0.01399 -0.07834 0.81115
 C152 C -0.04101 -0.10079 0.78876
 C153 C -0.04161 -0.06837 0.77302
 N154 N -0.01545 -0.04174 0.77666
 H155 H -0.02160 0.01041 0.69353
 H156 H -0.09479 -0.00063 0.76606
 H157 H -0.15010 0.00003 0.73670
 H158 H -0.07521 0.01131 0.66270
 H159 H 0.03316 -0.02503 0.79714
 H160 H 0.03592 -0.08113 0.82602
 H161 H -0.06184 -0.12181 0.78535
 H162 H -0.06273 -0.06483 0.75768
 C163 C 0.10130 0.00267 0.70492
 C164 C -0.02428 0.10774 0.81335
 C165 C -0.01300 -0.10605 0.80821
 C166 C -0.11700 0.00532 0.69726
 C167 C -0.00299 -0.36369 0.11115
 C168 C -0.00077 -0.33112 0.12706
 C169 C 0.01124 -0.29839 0.11439
 C170 C 0.02198 -0.29861 0.08552
 C171 C 0.02045 -0.33125 0.06953
 C172 C 0.00742 -0.36474 0.08182
 N173 N 0.01224 -0.26542 0.13133
 N174 N 0.01715 -0.23359 0.12062
 C175 C 0.01832 -0.20086 0.13784
 C176 C 0.01761 -0.16626 0.12492
 C177 C 0.01818 -0.13382 0.14121
 C178 C 0.02008 -0.13557 0.17073
 C179 C 0.02117 -0.17033 0.18364
 C180 C 0.02008 -0.20272 0.16737
 H181 H -0.01118 -0.38821 0.12266
 H182 H -0.00859 -0.33139 0.14945
 H183 H 0.03135 -0.27349 0.07523
 H184 H 0.02750 -0.32902 0.04716
 H185 H 0.01634 -0.16447 0.10218
 H186 H 0.01764 -0.10737 0.13074
 H187 H 0.02233 -0.17242 0.20637
 H188 H 0.02075 -0.22915 0.17785
 C189 C -0.01212 0.33121 0.05889
 C190 C -0.00908 0.29688 0.07190
 C191 C 0.00902 0.29370 0.09730
 C192 C 0.02407 0.32542 0.10970
 C193 C 0.02092 0.35979 0.09678
 C194 C 0.00279 0.36310 0.07121
 N195 N 0.01124 0.25819 0.11026
 N196 N 0.02882 0.25317 0.13266
 C197 C 0.03047 0.21792 0.14605
 C198 C 0.05090 0.21448 0.17035
 C199 C 0.05194 0.18089 0.18461
 C200 C 0.03239 0.15005 0.17478
 C201 C 0.01238 0.15344 0.15007
 C202 C 0.01141 0.18706 0.13581
 H203 H -0.02575 0.33270 0.03900
 H204 H -0.02075 0.27263 0.06213
 H205 H 0.03798 0.32373 0.12944
 H206 H 0.03222 0.38386 0.10703
 H207 H 0.06581 0.23803 0.17839
 H208 H 0.06807 0.17906 0.20332
 H209 H -0.00337 0.13038 0.14216
 H210 H -0.00467 0.18906 0.11709
 C211 C 0.32466 0.00314 0.56054
 C212 C 0.28943 0.00386 0.57501
 C213 C 0.28652 0.00041 0.60443
 C214 C 0.31939 -0.00392 0.61934
 C215 C 0.35461 -0.00501 0.60488
 C216 C 0.35759 -0.00147 0.57533
 N217 N 0.24999 0.00103 0.61860
 N218 N 0.24564 0.00157 0.64544
 C219 C 0.20923 0.00169 0.65977
 C220 C 0.20662 0.00684 0.68912
 C221 C 0.17155 0.00728 0.70379
 C222 C 0.13846 0.00211 0.68931
 C223 C 0.14115 -0.00345 0.65986
 C224 C 0.17624 -0.00347 0.64516
 H225 H 0.32615 0.00553 0.53774
 H226 H 0.26430 0.00710 0.56328
 H227 H 0.31788 -0.00669 0.64210
 H228 H 0.37956 -0.00828 0.61680
 H229 H 0.23185 0.01068 0.70062
 H230 H 0.17032 0.01120 0.72652
 H231 H 0.11606 -0.00723 0.64818
 H232 H 0.17757 -0.00763 0.62246
 C233 C -0.35561 -0.04802 0.59357
 C234 C -0.32376 -0.04864 0.60966
 C235 C -0.30055 -0.01767 0.61088
 C236 C -0.30963 0.01420 0.59585
 C237 C -0.34171 0.01501 0.58002
 C238 C -0.36501 -0.01609 0.57873
 N239 N -0.26842 -0.01906 0.62787
 N240 N -0.24389 0.00638 0.62744
 C241 C -0.21223 0.00534 0.64492
 C242 C -0.18372 0.03143 0.64069
 C243 C -0.15256 0.03130 0.65752
 C244 C -0.14975 0.00529 0.67917
 C245 C -0.17852 -0.02076 0.68348
 C246 C -0.20942 -0.02088 0.66641
 H247 H -0.37329 -0.07223 0.59313
 H248 H -0.31713 -0.07330 0.62124
 H249 H -0.29217 0.03853 0.59652
 H250 H -0.34817 0.03984 0.56858
 H251 H -0.18564 0.05186 0.62427
 H252 H -0.13095 0.05187 0.65393
 H253 H -0.17686 -0.04129 0.69986
 H254 H -0.23117 -0.04126 0.67015
 C255 C -0.06316 -0.33970 0.92381
 C256 C -0.06523 -0.30643 0.90914
 C257 C -0.03242 -0.28903 0.89883
 C258 C 0.00272 -0.30508 0.90365
 C259 C 0.00484 -0.33827 0.91830
 C260 C -0.02807 -0.35613 0.92837
 N261 N -0.03544 -0.25546 0.88327
 N262 N -0.00654 -0.23908 0.87276
 C263 C -0.00899 -0.20572 0.85694
 C264 C 0.02419 -0.18984 0.84582
 C265 C 0.02294 -0.15749 0.83002
 C266 C -0.01170 -0.14039 0.82508
 C267 C -0.04503 -0.15641 0.83633
 C268 C -0.04372 -0.18880 0.85213
 H269 H -0.08900 -0.35295 0.93107
 H270 H -0.09248 -0.29436 0.90554
 H271 H 0.02853 -0.29208 0.89604
 H272 H 0.03230 -0.34987 0.92189
 H273 H 0.05110 -0.20272 0.84929
 H274 H 0.04906 -0.14618 0.82132
 H275 H -0.07209 -0.14365 0.83320
 H276 H -0.06976 -0.20053 0.86058
 C277 C -0.04165 0.36981 0.89538
 C278 C -0.04451 0.33691 0.87994
 C279 C -0.03014 0.30382 0.89013
 C280 C -0.01287 0.30389 0.91616
 C281 C -0.01006 0.33675 0.93167
 C282 C -0.02436 0.37012 0.92144
 N283 N -0.03316 0.27072 0.87356
 N284 N -0.01941 0.23997 0.88104
 C285 C -0.02215 0.20698 0.86431
 C286 C -0.00410 0.17479 0.87281
 C287 C -0.00516 0.14244 0.85649
 C288 C -0.02453 0.14169 0.83133
 C289 C -0.04320 0.17396 0.82310
 C290 C -0.04197 0.20634 0.83940
 H291 H -0.05250 0.39510 0.88673
 H292 H -0.05775 0.33722 0.85986
 H293 H -0.00165 0.27860 0.92454
 H294 H 0.00289 0.33597 0.95186
 H295 H 0.01133 0.17497 0.89194
 H296 H 0.00997 0.11827 0.86323
 H297 H -0.05886 0.17418 0.80410
 H298 H -0.05638 0.23083 0.83247
 C299 C -0.33363 -0.04761 0.41433
 C300 C -0.29946 -0.04825 0.39844
 C301 C -0.28323 -0.01535 0.38875
 C302 C -0.30160 0.01845 0.39517
 C303 C -0.33588 0.01913 0.41096
 C304 C -0.35235 -0.01391 0.42069
 N305 N -0.24838 -0.01708 0.37226
 N306 N -0.23107 0.01186 0.36410
 C307 C -0.19646 0.01013 0.34732
 C308 C -0.17764 0.04299 0.34084
 C309 C -0.14387 0.04234 0.32445
 C310 C -0.12839 0.00865 0.31404
 C311 C -0.14747 -0.02435 0.32055
 C312 C -0.18116 -0.02365 0.33708
 H313 H -0.34522 -0.07350 0.42186
 H314 H -0.28551 -0.07446 0.39369
 H315 H -0.28969 0.04427 0.38780
 H316 H -0.34980 0.04549 0.41512
 H317 H -0.18911 0.06918 0.34866
 H318 H -0.12964 0.06820 0.32023
 H319 H -0.13667 -0.05069 0.31254
 H320 H -0.19532 -0.04944 0.34167
 C321 C 0.36059 -0.05088 0.40667
 C322 C 0.32860 -0.05139 0.39072
 C323 C 0.30628 -0.01960 0.38871
 C324 C 0.31635 0.01295 0.40282
 C325 C 0.34858 0.01362 0.41847
 C326 C 0.37102 -0.01828 0.42053
 N327 N 0.27407 -0.02083 0.37180
 N328 N 0.25011 0.00548 0.37187
 C329 C 0.21845 0.00476 0.35441
 C330 C 0.19031 0.03178 0.35856
 C331 C 0.15923 0.03209 0.34167
 C332 C 0.15615 0.00559 0.32001
 C333 C 0.18453 -0.02141 0.31577
 C334 C 0.21534 -0.02198 0.33292
 H335 H 0.37759 -0.07573 0.40775
 H336 H 0.32119 -0.07658 0.37986
 H337 H 0.29960 0.03791 0.40151
 H338 H 0.35587 0.03900 0.42915
 H339 H 0.19248 0.05262 0.37497
 H340 H 0.13790 0.05338 0.34520
 H341 H 0.18266 -0.04229 0.29935
 H342 H 0.23683 -0.04306 0.32923
   
