data_POSCAR
  _audit_creation_date              2014-09-24
  _audit_creation_method            'ToBaCCo'
  _symmetry_space_group_name_H-M    'P1'
  _symmetry_Int_Tables_number       1
  _symmetry_cell_setting            triclinic
  loop_
  _symmetry_equiv_pos_as_xyz
 x,y,z
_cell_length_a 49.8057
_cell_length_b 22.7811
_cell_length_c 19.2521
_cell_angle_alpha 88.159800
_cell_angle_beta 90.360300
_cell_angle_gamma 89.098800
loop_
  _atom_site_label
  _atom_site_type_symbol
  _atom_site_fract_x
  _atom_site_fract_y
  _atom_site_fract_z
O1 O 0.75732 0.17347 0.57061
 O2 O 0.71696 0.23164 0.42234
 O3 O 0.76179 0.17143 0.43583
 O4 O 0.71368 0.23751 0.55705
 O5 O 0.73720 0.31895 0.55514
 O6 O 0.78526 0.25281 0.43559
 O7 O 0.74043 0.31310 0.42024
 O8 O 0.78058 0.25523 0.56957
 Cu9 Cu 0.73506 0.19537 0.49650
 Cu10 Cu 0.76318 0.29322 0.49479
 C11 C 0.77581 0.20442 0.59540
 C12 C 0.72175 0.28219 0.39606
 C13 C 0.78192 0.20084 0.41556
 C14 C 0.71738 0.28950 0.57687
 O15 O 0.27656 0.72097 0.43688
 O16 O 0.22988 0.78856 0.55744
 O17 O 0.27615 0.73551 0.57050
 O18 O 0.22710 0.76300 0.42690
 O19 O 0.20973 0.67589 0.44951
 O20 O 0.25755 0.64947 0.59193
 O21 O 0.21108 0.70286 0.57947
 O22 O 0.25895 0.63396 0.45808
 Cu23 Cu 0.25426 0.76047 0.49533
 Cu24 Cu 0.23259 0.65692 0.52176
 C25 C 0.27617 0.66620 0.42744
 C26 C 0.21256 0.75784 0.58907
 C27 C 0.27484 0.68752 0.60599
 C28 C 0.20976 0.72399 0.41485
 O29 O 0.22976 0.21317 -0.58462
 O30 O 0.28521 0.23250 -0.46041
 O31 O 0.23723 0.18822 -0.45259
 O32 O 0.27773 0.25635 -0.59114
 O33 O 0.26098 0.34367 -0.56737
 O34 O 0.22046 0.27541 -0.42810
 O35 O 0.26861 0.31975 -0.43555
 O36 O 0.21296 0.30007 -0.55923
 Cu37 Cu 0.25908 0.21372 -0.52459
 Cu38 Cu 0.23909 0.31848 -0.49489
 C39 C 0.21186 0.25323 -0.59304
 C40 C 0.28656 0.27978 -0.42757
 C41 C 0.22175 0.22014 -0.41717
 C42 C 0.27650 0.31157 -0.60259
 O43 O -0.26778 0.70097 -0.57316
 O44 O -0.21281 0.71754 -0.44694
 O45 O -0.26095 0.67429 -0.44154
 O46 O -0.21942 0.74465 -0.57736
 O47 O -0.23636 0.83143 -0.55180
 O48 O -0.27756 0.76117 -0.41541
 O49 O -0.22940 0.80442 -0.42042
 O50 O -0.28453 0.78756 -0.54616
 Cu51 Cu -0.23864 0.70062 -0.51259
 Cu52 Cu -0.25860 0.80489 -0.48083
 C53 C -0.28568 0.74108 -0.58056
 C54 C -0.21163 0.76405 -0.41262
 C55 C -0.27648 0.70574 -0.40553
 C56 C -0.22054 0.80008 -0.58703
 O57 O -0.03085 0.90302 0.13344
 O58 O -0.06275 0.96219 0.07849
 C59 C -0.05544 0.92157 0.12380
 O60 O 0.04739 1.10311 0.10797
 O61 O 0.07238 1.04716 0.03438
 C62 C 0.07010 1.08551 0.08231
 O63 O -0.02681 1.10619 0.13889
 O64 O -0.06034 1.05941 0.08146
 C65 C -0.05184 1.09381 0.12888
 O66 O 0.04407 0.89182 0.10472
 O67 O 0.07075 0.94728 0.03213
 C68 C 0.06729 0.90651 0.07938
 Zr69 Zr 0.00518 0.92813 0.08266
 O70 O 0.01264 0.91995 0.19091
 O71 O 0.00523 0.83538 0.07615
 Zr72 Zr 0.00769 1.07664 0.08556
 O73 O 0.01626 1.07349 0.19345
 O74 O 0.00613 1.16964 0.08463
 O75 O -0.01649 1.00414 0.10573
 O76 O 0.03004 0.99946 0.08915
 O77 O 0.03052 0.89816 -0.13424
 O78 O 0.06425 0.94957 -0.08325
 C79 C 0.05562 0.91008 -0.12478
 O80 O -0.03964 1.11832 -0.11521
 O81 O -0.06680 1.06499 -0.04171
 C82 C -0.06294 1.10427 -0.09089
 O83 O 0.03472 1.11610 -0.13236
 O84 O 0.06618 1.05318 -0.08231
 C85 C 0.05920 1.09711 -0.12335
 O86 O -0.04414 0.91576 -0.11835
 O87 O -0.06900 0.96856 -0.04115
 C88 C -0.06684 0.93321 -0.09227
 Zr89 Zr -0.00414 0.93674 -0.09092
 O90 O -0.00801 0.94757 -0.19997
 O91 O -0.00863 0.84474 -0.09509
 Zr92 Zr -0.00124 1.08443 -0.08815
 O93 O -0.00431 1.08797 -0.19792
 O94 O -0.00261 1.17724 -0.08511
 Zr95 Zr -0.03783 1.01056 0.01070
 Zr96 Zr 0.04160 1.00229 -0.01598
 O97 O 0.01995 1.00848 -0.11007
 O98 O -0.02709 1.01374 -0.09494
 O99 O 0.02406 0.91867 -0.01229
 O100 O -0.01989 1.09357 0.00663
 O101 O -0.02295 0.92410 0.00349
 O102 O 0.02728 1.08949 -0.00894
 H103 H 0.04385 0.99651 0.12640
 H104 H -0.03145 1.12900 0.01126
 H105 H 0.03000 1.00872 -0.15433
 H106 H -0.03587 0.89154 0.00620
 H107 H 0.02162 1.18416 0.05755
 H108 H 0.01357 1.18962 -0.05977
 H109 H -0.01845 1.06026 -0.21095
 H110 H -0.01003 0.90759 -0.21792
 H111 H 0.00313 0.82684 -0.05835
 H112 H -0.01341 0.82237 0.06908
 H113 H 0.00058 0.94819 0.21377
 H114 H 0.00311 1.04704 0.21589
 O115 O 0.46329 0.39342 0.11598
 O116 O 0.43423 0.46141 0.06526
 C117 C 0.43949 0.41601 0.10568
 O118 O 0.54622 0.58803 0.12538
 O119 O 0.57165 0.53440 0.05012
 C120 C 0.56910 0.56995 0.10093
 O121 O 0.47068 0.59511 0.14674
 O122 O 0.43753 0.55694 0.07889
 C123 C 0.44561 0.58595 0.13176
 O124 O 0.53762 0.37611 0.09639
 O125 O 0.56766 0.43511 0.03865
 C126 C 0.56182 0.39029 0.07867
 Zr127 Zr 0.50075 0.42121 0.07663
 O128 O 0.50644 0.41303 0.18573
 O129 O 0.49740 0.32889 0.07321
 Zr130 Zr 0.50631 0.56748 0.09579
 O131 O 0.51245 0.55556 0.20420
 O132 O 0.50650 0.65978 0.10577
 O133 O 0.48010 0.49708 0.10427
 O134 O 0.52708 0.48821 0.09437
 O135 O 0.53067 0.40599 -0.14121
 O136 O 0.56411 0.44835 -0.07836
 C137 C 0.55572 0.41445 -0.12658
 O138 O 0.46453 0.62851 -0.10802
 O139 O 0.43481 0.57397 -0.04339
 C140 C 0.44044 0.61537 -0.08861
 O141 O 0.53929 0.61907 -0.11341
 O142 O 0.56818 0.54913 -0.06597
 C143 C 0.56308 0.59633 -0.10349
 O144 O 0.45587 0.42805 -0.13245
 O145 O 0.43053 0.47869 -0.05434
 C146 C 0.43303 0.44640 -0.10813
 Zr147 Zr 0.49569 0.44289 -0.09743
 O148 O 0.49573 0.45681 -0.20672
 O149 O 0.48932 0.35207 -0.10909
 Zr150 Zr 0.50165 0.58923 -0.07769
 O151 O 0.50186 0.60385 -0.18680
 O152 O 0.50204 0.68084 -0.06225
 Zr153 Zr 0.46131 0.51284 0.00678
 Zr154 Zr 0.54094 0.49717 -0.00849
 O155 O 0.52149 0.51301 -0.10478
 O156 O 0.47459 0.52248 -0.09666
 O157 O 0.52157 0.41593 -0.01650
 O158 O 0.48096 0.59340 0.01484
 O159 O 0.47459 0.42597 -0.00746
 O160 O 0.52837 0.58482 0.00595
 H161 H 0.54024 0.48082 0.13258
 H162 H 0.46989 0.62925 0.02170
 H163 H 0.53238 0.51569 -0.14763
 H164 H 0.46106 0.39472 -0.01037
 H165 H 0.52246 0.67485 0.08109
 H166 H 0.51884 0.68958 -0.03721
 H167 H 0.48682 0.58163 -0.20617
 H168 H 0.48060 0.48389 -0.21902
 H169 H 0.50368 0.33057 -0.08263
 H170 H 0.48813 0.32003 0.02939
 H171 H 0.49029 0.42940 0.20826
 H172 H 0.49880 0.52770 0.22137
 C173 C 0.29272 0.33771 0.34689
 C174 C 0.31183 0.30535 0.31089
 C175 C 0.33170 0.33310 0.26504
 N176 N 0.35354 0.30155 0.24555
 N177 N 0.37250 0.32641 0.20670
 C178 C 0.37025 0.38370 0.18551
 N179 N 0.34819 0.41509 0.20404
 N180 N 0.32929 0.39032 0.24340
 C181 C 0.39157 0.41191 0.14475
 C182 C 0.41727 0.38708 0.14203
 H183 H 0.31381 0.25836 0.32068
 H184 H 0.38736 0.45424 0.11957
 H185 H 0.29136 0.38492 0.33832
 H186 H 0.42164 0.34607 0.17020
 C187 C -0.20292 0.82895 0.36169
 C188 C -0.18064 0.79987 0.33485
 C189 C -0.16078 0.82974 0.29051
 N190 N -0.13692 0.80268 0.27809
 N191 N -0.11836 0.82940 0.23951
 C192 C -0.12301 0.88415 0.21159
 N193 N -0.14699 0.91104 0.22342
 N194 N -0.16551 0.88444 0.26242
 C195 C -0.10259 0.91403 0.16896
 C196 C -0.07612 0.89325 0.16686
 H197 H -0.17660 0.75446 0.35048
 H198 H -0.10838 0.95377 0.13990
 H199 H -0.20631 0.87517 0.34911
 H200 H -0.07016 0.85516 0.19876
 C201 C 0.69142 0.73349 0.37222
 C202 C 0.68935 0.68475 0.33071
 C203 C 0.66493 0.67294 0.29050
 N204 N 0.66474 0.62759 0.24657
 N205 N 0.64247 0.61480 0.21187
 C206 C 0.61951 0.64671 0.22010
 N207 N 0.61968 0.69207 0.26408
 N208 N 0.64199 0.70503 0.29855
 C209 C 0.59451 0.63157 0.18415
 C210 C 0.59408 0.58927 0.13349
 H211 H 0.70587 0.65333 0.32893
 H212 H 0.57606 0.65379 0.19840
 H213 H 0.67534 0.76606 0.37211
 H214 H 0.61274 0.56890 0.11742
 C215 C 0.19047 1.24607 0.36114
 C216 C 0.18828 1.19702 0.31995
 C217 C 0.16451 1.18721 0.27637
 N218 N 0.16465 1.14258 0.23139
 N219 N 0.14289 1.13149 0.19372
 C220 C 0.12013 1.16449 0.19984
 N221 N 0.11999 1.20917 0.24478
 N222 N 0.14180 1.22046 0.28220
 C223 C 0.09543 1.15025 0.16202
 C224 C 0.09517 1.10800 0.11125
 H225 H 0.20431 1.16428 0.31997
 H226 H 0.07686 1.17180 0.17662
 H227 H 0.17493 1.27992 0.35804
 H228 H 0.11391 1.08830 0.09475
 C229 C 0.69883 0.31663 -0.37408
 C230 C 0.67519 0.28987 -0.35278
 C231 C 0.65662 0.31772 -0.30419
 N232 N 0.63196 0.29489 -0.29345
 N233 N 0.61477 0.32014 -0.25044
 C234 C 0.62166 0.36897 -0.21621
 N235 N 0.64643 0.39147 -0.22638
 N236 N 0.66358 0.36639 -0.26970
 C237 C 0.60261 0.39797 -0.16978
 C238 C 0.57555 0.38346 -0.16868
 H239 H 0.66972 0.24810 -0.37372
 H240 H 0.60975 0.43330 -0.13853
 H241 H 0.70380 0.35939 -0.35507
 H242 H 0.56827 0.35016 -0.20271
 C243 C 0.19527 0.78606 -0.36577
 C244 C 0.17400 0.75853 -0.33192
 C245 C 0.15573 0.79171 -0.28724
 N246 N 0.13147 0.76961 -0.26982
 N247 N 0.11444 0.80032 -0.23146
 C248 C 0.12112 0.85408 -0.20871
 N249 N 0.14554 0.87576 -0.22522
 N250 N 0.16248 0.84526 -0.26398
 C251 C 0.10226 0.88903 -0.16767
 C252 C 0.07514 0.87543 -0.16389
 H253 H 0.16975 0.71293 -0.34118
 H254 H 0.10963 0.92758 -0.14261
 H255 H 0.19821 0.83253 -0.35851
 H256 H 0.06767 0.83869 -0.19225
 C257 C 0.29330 0.67438 -0.33572
 C258 C 0.31494 0.70951 -0.31960
 C259 C 0.33419 0.69139 -0.26437
 N260 N 0.35775 0.71982 -0.25789
 N261 N 0.37598 0.70130 -0.21081
 C262 C 0.37122 0.65390 -0.16822
 N263 N 0.34747 0.62618 -0.17389
 N264 N 0.32931 0.64454 -0.22109
 C265 C 0.39194 0.62968 -0.12023
 C266 C 0.41833 0.64888 -0.12258
 H267 H 0.31870 0.74909 -0.35047
 H268 H 0.38695 0.59178 -0.08767
 H269 H 0.29020 0.63392 -0.30592
 H270 H 0.42344 0.68564 -0.15680
 C271 C -0.20800 1.18036 -0.34586
 C272 C -0.18725 1.21203 -0.31692
 C273 C -0.16883 1.18669 -0.26361
 N274 N -0.14715 1.21760 -0.24424
 N275 N -0.12929 1.19435 -0.19916
 C276 C -0.13247 1.13935 -0.17142
 N277 N -0.15442 1.10872 -0.18982
 N278 N -0.17228 1.13194 -0.23520
 C279 C -0.11158 1.11177 -0.12610
 C280 C -0.08606 1.13569 -0.12264
 H281 H -0.18340 1.25617 -0.33657
 H282 H -0.11538 1.06940 -0.10121
 H283 H -0.21192 1.13613 -0.32667
 H284 H -0.08198 1.17602 -0.15176
 C285 C 0.70724 0.67851 -0.35581
 C286 C 0.68830 0.70983 -0.31796
 C287 C 0.66885 0.68088 -0.27156
 N288 N 0.64784 0.71244 -0.24707
 N289 N 0.62934 0.68674 -0.20739
 C290 C 0.63122 0.62850 -0.19035
 N291 N 0.65245 0.59703 -0.21402
 N292 N 0.67089 0.62270 -0.25410
 C293 C 0.61025 0.59932 -0.14888
 C294 C 0.58536 0.62637 -0.13849
 H295 H 0.68639 0.75705 -0.32575
 H296 H 0.61382 0.55450 -0.13016
 H297 H 0.70862 0.63115 -0.34885
 H298 H 0.58136 0.66984 -0.16103
 C299 C 0.20478 1.19198 -0.36405
 C300 C 0.18337 1.22189 -0.33425
 C301 C 0.16399 1.19217 -0.28851
 N302 N 0.14061 1.21988 -0.27290
 N303 N 0.12229 1.19283 -0.23387
 C304 C 0.12674 1.13711 -0.20873
 N305 N 0.15028 1.10964 -0.22356
 N306 N 0.16855 1.13659 -0.26296
 C307 C 0.10637 1.10635 -0.16701
 C308 C 0.08011 1.12793 -0.16289
 H309 H 0.17955 1.26763 -0.34871
 H310 H 0.11187 1.06477 -0.14148
 H311 H 0.20796 1.14559 -0.35211
 H312 H 0.07438 1.16800 -0.19140
 C313 C 0.30972 0.28834 -0.38147
 C314 C 0.31223 0.33812 -0.34185
 C315 C 0.33681 0.34991 -0.30218
 N316 N 0.33733 0.39571 -0.25888
 N317 N 0.35968 0.40800 -0.22423
 C318 C 0.38241 0.37515 -0.23192
 N319 N 0.38192 0.32947 -0.27539
 N320 N 0.35953 0.31699 -0.30978
 C321 C 0.40744 0.38912 -0.19534
 C322 C 0.40806 0.43032 -0.14343
 H323 H 0.29590 0.37006 -0.34080
 H324 H 0.42571 0.36605 -0.20925
 H325 H 0.32565 0.25538 -0.38057
 H326 H 0.38955 0.45138 -0.12749
 C327 C -0.18888 0.77133 -0.36492
 C328 C -0.18704 0.81948 -0.32244
 C329 C -0.16275 0.83078 -0.28153
 N330 N -0.16269 0.87544 -0.23660
 N331 N -0.14048 0.88782 -0.20141
 C332 C -0.11747 0.85616 -0.21011
 N333 N -0.11753 0.81149 -0.25503
 N334 N -0.13977 0.79893 -0.28999
 C335 C -0.09248 0.87116 -0.17420
 C336 C -0.09198 0.91295 -0.12297
 H337 H -0.20361 0.85075 -0.32039
 H338 H -0.07400 0.84961 -0.18950
 H339 H -0.17277 0.73882 -0.36496
 H340 H -0.11063 0.93268 -0.10580
 C341 C 0.29616 0.64004 0.38094
 C342 C 0.31903 0.67109 0.36140
 C343 C 0.33978 0.64830 0.31487
 N344 N 0.36334 0.67703 0.30823
 N345 N 0.38227 0.65825 0.26530
 C346 C 0.37824 0.61020 0.22690
 N347 N 0.35462 0.58155 0.23329
 N348 N 0.33574 0.60012 0.27663
 C349 C 0.39874 0.58953 0.17824
 C350 C 0.42513 0.60945 0.17872
 H351 H 0.32229 0.71398 0.38239
 H352 H 0.39304 0.55622 0.14239
 H353 H 0.29340 0.59565 0.36402
 H354 H 0.43128 0.64046 0.21699
 C355 C -0.19953 1.17530 0.37126
 C356 C -0.17604 1.20373 0.35100
 C357 C -0.15597 1.17676 0.30578
 N358 N -0.13180 1.20251 0.29677
 N359 N -0.11332 1.17882 0.25604
 C360 C -0.11839 1.12861 0.22252
 N361 N -0.14261 1.10301 0.23119
 N362 N -0.16105 1.12654 0.27224
 C363 C -0.09830 1.10220 0.17686
 C364 C -0.07178 1.12094 0.17437
 H365 H -0.17168 1.24667 0.37052
 H366 H -0.10448 1.06608 0.14553
 H367 H -0.20325 1.13144 0.35364
 H368 H -0.06523 1.15510 0.20817
 C369 C 0.70535 0.30594 0.33745
 C370 C 0.68374 0.27520 0.31104
 C371 C 0.66548 0.30035 0.25713
 N372 N 0.64292 0.27125 0.24022
 N373 N 0.62543 0.29453 0.19409
 C374 C 0.62992 0.34772 0.16280
 N375 N 0.65268 0.37648 0.17896
 N376 N 0.67014 0.35328 0.22532
 C377 C 0.60980 0.37608 0.11586
 C378 C 0.58389 0.35439 0.10951
 H379 H 0.67920 0.23212 0.33293
 H380 H 0.61458 0.41825 0.09181
 H381 H 0.70981 0.34933 0.31638
 H382 H 0.57879 0.31351 0.13618
 C383 C 0.18851 0.73400 0.36240
 C384 C 0.18621 0.78477 0.32055
 C385 C 0.16213 0.79658 0.27722
 N386 N 0.16184 0.84131 0.22901
 N387 N 0.13973 0.85377 0.19170
 C388 C 0.11704 0.82222 0.20149
 N389 N 0.11731 0.77761 0.24982
 N390 N 0.13947 0.76488 0.28677
 C391 C 0.09201 0.83823 0.16388
 C392 C 0.09190 0.87846 0.10798
 H393 H 0.20193 0.81708 0.32092
 H394 H 0.07329 0.82040 0.18277
 H395 H 0.17323 0.70082 0.35913
 H396 H 0.11087 0.89416 0.08796
   
