data_POSCAR
  _audit_creation_date              2014-09-24
  _audit_creation_method            'ToBaCCo'
  _symmetry_space_group_name_H-M    'P1'
  _symmetry_Int_Tables_number       1
  _symmetry_cell_setting            triclinic
  loop_
  _symmetry_equiv_pos_as_xyz
 x,y,z
_cell_length_a 26.6936
_cell_length_b 26.7446
_cell_length_c 26.6038
_cell_angle_alpha 89.937700
_cell_angle_beta 90.026100
_cell_angle_gamma 89.942800
loop_
  _atom_site_label
  _atom_site_type_symbol
  _atom_site_fract_x
  _atom_site_fract_y
  _atom_site_fract_z
N1 N 0.13619 0.16968 0.27436
 N2 N 0.17153 0.13529 0.27459
 C3 C 0.16456 0.10495 0.31457
 C4 C 0.12258 0.12140 0.34033
 C5 C 0.10557 0.16243 0.31382
 H6 H 0.18808 0.07342 0.32431
 H7 H 0.07321 0.18523 0.32248
 Cu8 Cu 0.22346 0.13548 0.22272
 Cu9 Cu 0.13105 0.22035 0.22200
 Cu10 Cu 0.22247 0.22072 0.13016
 N11 N 0.27513 0.13562 0.17057
 N12 N 0.27491 0.17010 0.13518
 C13 C 0.31432 0.16291 0.10450
 C14 C 0.34078 0.12186 0.12158
 C15 C 0.31500 0.10533 0.16359
 H16 H 0.32299 0.18574 0.07205
 H17 H 0.32465 0.07375 0.18713
 N18 N 0.17157 0.27395 0.13611
 N19 N 0.13663 0.27378 0.17128
 C20 C 0.10702 0.31414 0.16515
 C21 C 0.12412 0.34073 0.12415
 C22 C 0.16509 0.31446 0.10667
 H23 H 0.07504 0.32330 0.18833
 H24 H 0.18800 0.32396 0.07454
 H25 H 0.16758 0.18095 0.16639
 H26 H 0.20704 0.22303 0.20613
 N27 N -0.13619 0.82949 0.27355
 N28 N -0.17170 0.86367 0.27363
 C29 C -0.16517 0.89382 0.31370
 C30 C -0.12332 0.87759 0.33967
 C31 C -0.10582 0.83681 0.31325
 H32 H -0.18890 0.92516 0.32339
 H33 H -0.07330 0.81431 0.32212
 Cu34 Cu -0.22328 0.86367 0.22161
 Cu35 Cu -0.13096 0.77908 0.22099
 Cu36 Cu -0.22273 0.77885 0.12904
 N37 N -0.27517 0.86360 0.16991
 N38 N -0.27535 0.82941 0.13432
 C39 C -0.31514 0.83694 0.10406
 C40 C -0.34129 0.87792 0.12179
 C41 C -0.31503 0.89394 0.16360
 H42 H -0.32423 0.81447 0.07152
 H43 H -0.32439 0.92527 0.18752
 N44 N -0.17153 0.72569 0.13493
 N45 N -0.13653 0.72588 0.17010
 C46 C -0.10687 0.68556 0.16404
 C47 C -0.12393 0.65894 0.12311
 C48 C -0.16497 0.68518 0.10556
 H49 H -0.07489 0.67642 0.18728
 H50 H -0.18793 0.67567 0.07346
 H51 H -0.16769 0.81816 0.16519
 H52 H -0.20708 0.77617 0.20499
 N53 N -0.13586 0.17080 -0.27361
 N54 N -0.17129 0.13662 -0.27363
 C55 C -0.16477 0.10640 -0.31363
 C56 C -0.12300 0.12259 -0.33963
 C57 C -0.10554 0.16343 -0.31330
 H58 H -0.18844 0.07503 -0.32325
 H59 H -0.07308 0.18590 -0.32222
 Cu60 Cu -0.22276 0.13656 -0.22166
 Cu61 Cu -0.13069 0.22122 -0.22111
 Cu62 Cu -0.22238 0.22140 -0.12911
 N63 N -0.27447 0.13655 -0.16997
 N64 N -0.27479 0.17072 -0.13437
 C65 C -0.31446 0.16297 -0.10407
 C66 C -0.34034 0.12186 -0.12182
 C67 C -0.31407 0.10599 -0.16363
 H68 H -0.32362 0.18535 -0.07149
 H69 H -0.32323 0.07459 -0.18752
 N70 N -0.17139 0.27461 -0.13514
 N71 N -0.13643 0.27441 -0.17032
 C72 C -0.10683 0.31470 -0.16427
 C73 C -0.12389 0.34127 -0.12335
 C74 C -0.16487 0.31508 -0.10576
 H75 H -0.07485 0.32381 -0.18747
 H76 H -0.18775 0.32458 -0.07361
 H77 H -0.16722 0.18211 -0.16526
 H78 H -0.20676 0.22405 -0.20506
 N79 N 0.13653 0.82917 -0.27386
 N80 N 0.17195 0.86336 -0.27392
 C81 C 0.16537 0.89362 -0.31397
 C82 C 0.12356 0.87745 -0.33996
 C83 C 0.10616 0.83658 -0.31356
 H84 H 0.18902 0.92500 -0.32363
 H85 H 0.07369 0.81410 -0.32244
 Cu86 Cu 0.22347 0.86332 -0.22188
 Cu87 Cu 0.13142 0.77866 -0.22128
 Cu88 Cu 0.22304 0.77839 -0.12918
 N89 N 0.27517 0.86325 -0.17003
 N90 N 0.27540 0.82905 -0.13438
 C91 C 0.31505 0.83668 -0.10399
 C92 C 0.34103 0.87774 -0.12174
 C93 C 0.31483 0.89371 -0.16364
 H94 H 0.32414 0.81425 -0.07137
 H95 H 0.32411 0.92509 -0.18756
 N96 N 0.17207 0.72521 -0.13513
 N97 N 0.13712 0.72541 -0.17034
 C98 C 0.10750 0.68514 -0.16418
 C99 C 0.12454 0.65859 -0.12314
 C100 C 0.16553 0.68476 -0.10562
 H101 H 0.07551 0.67603 -0.18737
 H102 H 0.18841 0.67529 -0.07342
 H103 H 0.16798 0.81773 -0.16544
 H104 H 0.20753 0.77580 -0.20514
 N105 N 0.17072 1.13557 0.72589
 N106 N 0.13651 1.17104 0.72569
 C107 C 0.10631 1.16453 0.68562
 C108 C 0.12263 1.12277 0.65980
 C109 C 0.16344 1.10527 0.68626
 H110 H 0.07495 1.18824 0.67579
 H111 H 0.18600 1.07282 0.67746
 Cu112 Cu 0.13655 1.22251 0.77752
 Cu113 Cu 0.22121 1.13017 0.77830
 Cu114 Cu 0.22141 1.22152 0.87020
 N115 N 0.13659 1.27404 0.82928
 N116 N 0.17081 1.27385 0.86493
 C117 C 0.16347 1.31335 0.89532
 C118 C 0.12265 1.33973 0.87765
 C119 C 0.10638 1.31393 0.83574
 H120 H 0.18602 1.32215 0.92792
 H121 H 0.07504 1.32366 0.81187
 N122 N 0.27469 1.17082 0.86411
 N123 N 0.27452 1.13592 0.82899
 C124 C 0.31505 1.10653 0.83495
 C125 C 0.34170 1.12376 0.87576
 C126 C 0.31538 1.16453 0.89337
 H127 H 0.32429 1.07465 0.81175
 H128 H 0.32495 1.18745 0.92542
 H129 H 0.18188 1.16666 0.83372
 H130 H 0.22411 1.20603 0.79403
 N131 N 0.82935 0.86456 0.72620
 N132 N 0.86356 0.82908 0.72603
 C133 C 0.89383 0.83567 0.68606
 C134 C 0.87757 0.87746 0.66022
 C135 C 0.83671 0.89494 0.68658
 H136 H 0.92522 0.81200 0.67631
 H137 H 0.81423 0.92747 0.67777
 Cu138 Cu 0.86354 0.77746 0.77771
 Cu139 Cu 0.77886 0.86977 0.77863
 Cu140 Cu 0.77888 0.77814 0.87044
 N141 N 0.86350 0.72570 0.82924
 N142 N 0.82927 0.72570 0.86485
 C143 C 0.83658 0.68600 0.89508
 C144 C 0.87744 0.65976 0.87736
 C145 C 0.89372 0.68580 0.83559
 H146 H 0.81405 0.67704 0.92764
 H147 H 0.92511 0.67623 0.81176
 N148 N 0.72561 0.82884 0.86453
 N149 N 0.72566 0.86387 0.82945
 C150 C 0.68516 0.89324 0.83561
 C151 C 0.65866 0.87585 0.87649
 C152 C 0.68504 0.83502 0.89394
 H153 H 0.67587 0.92526 0.81255
 H154 H 0.67561 0.81197 0.92598
 H155 H 0.81831 0.83335 0.83381
 H156 H 0.77603 0.79402 0.79420
 N157 N 0.17029 0.86458 1.27352
 N158 N 0.13615 0.82911 1.27380
 C159 C 0.10595 0.83569 1.31382
 C160 C 0.12217 0.87751 1.33952
 C161 C 0.16295 0.89496 1.31307
 H162 H 0.07464 0.81199 1.32372
 H163 H 0.18543 0.92743 1.32181
 Cu164 Cu 0.13632 0.77741 1.22228
 Cu165 Cu 0.22075 0.86981 1.22115
 Cu166 Cu 0.22118 0.77805 1.12967
 N167 N 0.13650 0.72564 1.17083
 N168 N 0.17080 0.72560 1.13528
 C169 C 0.16354 0.68588 1.10515
 C170 C 0.12267 0.65968 1.12287
 C171 C 0.10634 0.68575 1.16457
 H172 H 0.18611 0.67686 1.07265
 H173 H 0.07495 0.67619 1.18842
 N174 N 0.27428 0.82897 1.13548
 N175 N 0.27399 0.86401 1.17046
 C176 C 0.31428 0.89360 1.16428
 C177 C 0.34091 0.87640 1.12345
 C178 C 0.31482 0.83539 1.10608
 H179 H 0.32334 0.92564 1.18731
 H180 H 0.32442 0.81241 1.07408
 H181 H 0.18150 0.83318 1.16592
 H182 H 0.22381 0.79401 1.20577
 N183 N 0.82784 1.13683 1.27481
 N184 N 0.86153 1.17271 1.27549
 C185 C 0.89146 1.16633 1.31574
 C186 C 0.87539 1.12441 1.34143
 C187 C 0.83495 1.10662 1.31465
 H188 H 0.92281 1.18998 1.32555
 H189 H 0.81282 1.07381 1.32315
 Cu190 Cu 0.86284 1.22302 1.22263
 Cu191 Cu 0.77904 1.13029 1.22101
 Cu192 Cu 0.77479 1.22563 1.13260
 N193 N 0.86412 1.27330 1.16982
 N194 N 0.82917 1.27416 1.13491
 C195 C 0.83730 1.31322 1.10404
 C196 C 0.87947 1.33804 1.12057
 C197 C 0.89581 1.31171 1.16215
 H198 H 0.81390 1.32332 1.07237
 H199 H 0.92782 1.32049 1.18541
 N200 N 0.72409 1.17223 1.13667
 N201 N 0.72585 1.13584 1.17025
 C202 C 0.68671 1.10499 1.16294
 C203 C 0.65933 1.12279 1.12280
 C204 C 0.68389 1.16530 1.10690
 H205 H 0.67888 1.07179 1.18479
 H206 H 0.67338 1.18905 1.07567
 H207 H 0.81650 1.17025 1.16419
 H208 H 0.77505 1.20628 1.20772
 N209 N 0.55249 1.05383 1.08867
 N210 N 0.59063 1.05997 1.11965
 N211 N 0.44753 1.08907 1.05311
 N212 N 0.40695 1.12126 1.05943
 N213 N 0.44685 1.05452 1.08818
 N214 N 0.40823 1.06089 1.11862
 N215 N 0.55279 1.08834 1.05353
 N216 N 0.59095 1.11902 1.05967
 C217 C 0.61409 1.10083 1.10104
 C218 C 0.38417 1.10187 1.10057
 N219 N 0.44797 1.05399 0.91027
 N220 N 0.41006 1.06058 0.87910
 N221 N 0.55367 1.08798 0.94535
 N222 N 0.59224 1.11833 0.93921
 N223 N 0.55322 1.05327 0.91054
 N224 N 0.59377 1.05985 0.87826
 N225 N 0.44827 1.08885 0.94497
 N226 N 0.41059 1.12014 0.93845
 Mn227 Mn 0.50058 1.08913 0.99925
 C228 C 0.38724 1.10202 0.89722
 C229 C 0.61639 1.10067 0.89802
 N230 N 0.44673 0.94656 1.08864
 N231 N 0.40893 0.93987 1.11989
 N232 N 0.55252 0.91152 1.05444
 N233 N 0.59121 0.88122 1.06064
 N234 N 0.55194 0.94622 1.08929
 N235 N 0.59250 0.93969 1.12161
 N236 N 0.44708 0.91167 1.05395
 N237 N 0.40954 0.88030 1.06055
 Mn238 Mn 0.49946 1.00031 1.08932
 C239 C 0.38619 0.89840 1.10179
 C240 C 0.61526 0.89890 1.10192
 N241 N 0.55255 0.94567 0.91094
 N242 N 0.59031 0.93889 0.87971
 N243 N 0.44695 0.91159 0.94565
 N244 N 0.40838 0.88123 0.93951
 N245 N 0.44741 0.94628 0.91072
 N246 N 0.40694 0.93965 0.87835
 N247 N 0.55240 0.91105 0.94597
 N248 N 0.59004 0.87969 0.93955
 Mn249 Mn 0.50026 0.99979 0.91004
 Mn250 Mn 0.49976 0.91083 1.00001
 Cl251 Cl 0.49999 0.99999 0.99966
 C252 C 0.61322 0.89760 0.89807
 C253 C 0.38431 0.89885 0.89817
 N254 N 0.05434 0.44717 0.08950
 N255 N 0.06096 0.40935 0.12076
 N256 N 0.08888 0.55232 0.05446
 N257 N 0.11954 0.59053 0.06045
 N258 N 0.05407 0.55239 0.08935
 N259 N 0.06013 0.59064 0.12009
 N260 N 0.08904 0.44715 0.05454
 N261 N 0.12025 0.40938 0.06103
 C262 C 0.10224 0.38623 0.10248
 C263 C 0.10113 0.61397 0.10155
 N264 N 0.05445 0.55243 -0.08881
 N265 N 0.06119 0.59028 -0.11998
 N266 N 0.08894 0.44708 -0.05378
 N267 N 0.11952 0.40872 -0.05972
 N268 N 0.05425 0.44722 -0.08882
 N269 N 0.06028 0.40898 -0.11958
 N270 N 0.08915 0.55223 -0.05380
 N271 N 0.12044 0.58988 -0.06015
 Mn272 Mn 0.08958 0.49969 0.00035
 C273 C 0.10251 0.61319 -0.10157
 C274 C 0.10116 0.38544 -0.10093
 N275 N -0.05403 0.55232 0.08924
 N276 N -0.06070 0.59028 0.12026
 N277 N -0.08826 0.44705 0.05403
 N278 N -0.11811 0.40807 0.05911
 N279 N -0.05356 0.44694 0.08904
 N280 N -0.05882 0.40784 0.11890
 N281 N -0.08870 0.55223 0.05422
 N282 N -0.11992 0.59003 0.06041
 Mn283 Mn 0.00019 0.49973 0.08992
 C284 C -0.10198 0.61335 0.10176
 C285 C -0.09929 0.38410 0.09975
 N286 N -0.05379 0.44738 -0.08901
 N287 N -0.06052 0.40960 -0.12021
 N288 N -0.08842 0.55253 -0.05397
 N289 N -0.11920 0.59070 -0.06004
 N290 N -0.05365 0.55260 -0.08889
 N291 N -0.05984 0.59082 -0.11972
 N292 N -0.08849 0.44747 -0.05405
 N293 N -0.11980 0.40987 -0.06047
 Mn294 Mn 0.00032 0.49992 -0.08952
 Mn295 Mn -0.08903 0.49983 0.00008
 Cl296 Cl 0.00029 0.49982 0.00020
 C297 C -0.10187 0.38666 -0.10186
 C298 C -0.10089 0.61412 -0.10121
 N299 N 0.94624 -0.08846 0.55279
 N300 N 0.94021 -0.11927 0.59109
 N301 N 0.91108 -0.05366 0.44710
 N302 N 0.88009 -0.05983 0.40891
 N303 N 0.94591 -0.08837 0.44703
 N304 N 0.93963 -0.11910 0.40874
 N305 N 0.91141 -0.05377 0.55282
 N306 N 0.88072 -0.05992 0.59119
 C307 C 0.89918 -0.10094 0.61457
 C308 C 0.89840 -0.10080 0.38542
 N309 N 0.94568 0.08882 0.44736
 N310 N 0.93884 0.12031 0.40976
 N311 N 0.91117 0.05382 0.55295
 N312 N 0.88028 0.06000 0.59119
 N313 N 0.94599 0.08848 0.55299
 N314 N 0.93978 0.11919 0.59130
 N315 N 0.91098 0.05407 0.44730
 N316 N 0.87956 0.06089 0.40960
 Mn317 Mn 0.91056 0.00010 0.50002
 C318 C 0.89750 0.10233 0.38664
 C319 C 0.89865 0.10092 0.61467
 N320 N 1.05378 -0.08838 0.44702
 N321 N 1.05982 -0.11923 0.40882
 N322 N 1.08899 -0.05368 0.55252
 N323 N 1.12003 -0.05989 0.59069
 N324 N 1.05418 -0.08835 0.55272
 N325 N 1.06054 -0.11908 0.59106
 N326 N 1.08848 -0.05361 0.44678
 N327 N 1.11910 -0.05979 0.40836
 Mn328 Mn 1.00003 -0.08900 0.49990
 C329 C 1.10070 -0.10087 0.38517
 C330 C 1.10178 -0.10085 0.61430
 N331 N 1.05383 0.08864 0.55251
 N332 N 1.05993 0.11941 0.59075
 N333 N 1.08849 0.05417 0.44652
 N334 N 1.11916 0.06048 0.40803
 N335 N 1.05354 0.08872 0.44685
 N336 N 1.06019 0.12086 0.40618
 N337 N 1.08875 0.05403 0.55242
 N338 N 1.11957 0.06022 0.59071
 Mn339 Mn 0.99977 0.08924 0.49993
 Mn340 Mn 1.08931 0.00022 0.49954
 Cl341 Cl 0.99993 0.00014 0.49984
 C342 C 1.10108 0.10118 0.61412
 C343 C 1.10137 0.10143 0.38371
   
