data_POSCAR
  _audit_creation_date              2014-09-24
  _audit_creation_method            'ToBaCCo'
  _symmetry_space_group_name_H-M    'P1'
  _symmetry_Int_Tables_number       1
  _symmetry_cell_setting            triclinic
  loop_
  _symmetry_equiv_pos_as_xyz
 x,y,z
_cell_length_a 43.5167
_cell_length_b 43.6655
_cell_length_c 31.0652
_cell_angle_alpha 89.961600
_cell_angle_beta 89.825200
_cell_angle_gamma 120.957600
loop_
  _atom_site_label
  _atom_site_type_symbol
  _atom_site_fract_x
  _atom_site_fract_y
  _atom_site_fract_z
C1 C 0.09566 0.55841 0.05897
 C2 C 0.09515 0.52685 0.05948
 C3 C 0.06367 0.50170 0.03957
 N4 N 0.04469 0.51698 0.02749
 C5 C 0.06443 0.55185 0.03886
 C6 C 0.05219 0.46493 0.03585
 C7 C 0.02030 0.43938 0.01498
 C8 C 0.00507 0.40265 0.01819
 C9 C -0.02505 0.38730 -0.00706
 C10 C -0.02708 0.41501 -0.02589
 N11 N 0.00080 0.44665 -0.01246
 C12 C -0.05408 0.41074 -0.05487
 C13 C -0.05834 0.43967 -0.06688
 C14 C -0.07660 0.43999 -0.10324
 C15 C -0.07720 0.47090 -0.10188
 C16 C -0.05908 0.48873 -0.06490
 N17 N -0.04722 0.46977 -0.04358
 C18 C -0.05574 0.52111 -0.05062
 C19 C -0.02771 0.54508 -0.02307
 C20 C -0.02499 0.57520 -0.00437
 C21 C 0.00625 0.59142 0.01890
 C22 C 0.02135 0.57024 0.01493
 N23 N 0.00078 0.54242 -0.01133
 C24 C 0.05381 0.57749 0.03443
 H25 H 0.11633 0.58309 0.07314
 H26 H 0.11541 0.52289 0.07400
 H27 H 0.00737 0.52439 -0.02352
 H28 H 0.01437 0.38815 0.03695
 H29 H -0.04342 0.35891 -0.01081
 H30 H -0.08828 0.41997 -0.12823
 H31 H -0.08945 0.47946 -0.12556
 H32 H 0.01625 0.61584 0.03703
 H33 H 0.00786 0.47167 -0.02438
 H34 H -0.04352 0.58465 -0.00706
 C35 C 0.47131 0.56336 0.08376
 C36 C 0.44006 0.53090 0.08405
 C37 C 0.44154 0.51219 0.04886
 N38 N 0.47259 0.53212 0.02704
 C39 C 0.49081 0.56347 0.04830
 C40 C 0.41311 0.47867 0.03518
 C41 C 0.41788 0.45731 0.00497
 C42 C 0.39048 0.42796 -0.01596
 C43 C 0.40645 0.41418 -0.04144
 C44 C 0.44313 0.43544 -0.03516
 N45 N 0.44980 0.46145 -0.00657
 C46 C 0.46936 0.42986 -0.05431
 C47 C 0.50644 0.45586 -0.05385
 C48 C 0.53323 0.44955 -0.06641
 C49 C 0.56434 0.48200 -0.06796
 C50 C 0.55601 0.50740 -0.05505
 N51 N 0.52040 0.49115 -0.04677
 C52 C 0.57970 0.54511 -0.05657
 C53 C 0.57047 0.56928 -0.03867
 C54 C 0.59006 0.60622 -0.04346
 C55 C 0.57411 0.61975 -0.01767
 C56 C 0.54548 0.59087 0.00258
 N57 N 0.54362 0.56035 -0.01005
 C58 C 0.52340 0.59328 0.03412
 H59 H 0.47865 0.58462 0.10676
 H60 H 0.41853 0.52218 0.10727
 H61 H 0.52769 0.53545 0.00415
 H62 H 0.36199 0.41763 -0.01324
 H63 H 0.39260 0.39115 -0.06223
 H64 H 0.53052 0.42427 -0.07508
 H65 H 0.58968 0.48589 -0.07887
 H66 H 0.58308 0.64774 -0.01360
 H67 H 0.47446 0.47894 0.00736
 H68 H 0.61406 0.62214 -0.06239
 C69 C 0.44755 0.92470 0.09029
 C70 C 0.47761 0.92216 0.08870
 C71 C 0.50335 0.95175 0.06606
 N72 N 0.48999 0.97249 0.05427
 C73 C 0.45570 0.95575 0.06854
 C74 C 0.53910 0.96010 0.05914
 C75 C 0.56483 0.99054 0.03595
 C76 C 0.60152 1.00413 0.03619
 C77 C 0.61668 1.03281 0.00836
 C78 C 0.58879 1.03549 -0.00875
 N79 N 0.55735 1.00958 0.00805
 C80 C 0.59242 1.05964 -0.04139
 C81 C 0.56375 1.06338 -0.05567
 C82 C 0.56336 1.07851 -0.09469
 C83 C 0.53244 1.07945 -0.09539
 C84 C 0.51527 1.06563 -0.05627
 N85 N 0.53435 1.05545 -0.03215
 C86 C 0.48330 1.06406 -0.04267
 C87 C 0.46245 1.04188 -0.00789
 C88 C 0.43605 1.04460 0.01388
 C89 C 0.42164 1.01772 0.04408
 C90 C 0.44008 0.99971 0.04066
 N91 N 0.46476 1.01445 0.00877
 C92 C 0.43229 0.96914 0.06494
 H93 H 0.42275 0.90605 0.10641
 H94 H 0.48029 0.90124 0.10354
 H95 H 0.47960 1.00402 -0.00390
 H96 H 0.61603 0.99444 0.05426
 H97 H 0.64494 1.04923 0.00085
 H98 H 0.58321 1.08765 -0.12016
 H99 H 0.52364 1.08920 -0.12181
 H100 H 0.40010 1.01223 0.06614
 H101 H 0.53206 1.00284 -0.00261
 H102 H 0.42800 1.06399 0.00875
 C103 C 0.89024 0.45517 0.54149
 C104 C 0.89449 0.42623 0.54438
 C105 C 0.92949 0.43792 0.53213
 N106 N 0.94673 0.47297 0.52167
 C107 C 0.92286 0.48364 0.52783
 C108 C 0.94666 0.41818 0.53765
 C109 C 0.97914 0.42745 0.51659
 C110 C 1.00142 0.41456 0.52689
 C111 C 1.02999 0.43033 0.49859
 C112 C 1.02415 0.45221 0.47167
 N113 N 0.99297 0.44999 0.48269
 C114 C 1.04717 0.47416 0.43821
 C115 C 1.04317 0.50184 0.42073
 C116 C 1.05401 0.51598 0.37972
 C117 C 1.05004 0.54502 0.37742
 C118 C 1.03691 0.54764 0.41710
 N119 N 1.03209 0.52084 0.44345
 C120 C 1.03359 0.57681 0.43026
 C121 C 1.00839 0.57222 0.46226
 C122 C 1.00815 0.59921 0.48554
 C123 C 0.97924 0.58288 0.51319
 C124 C 0.96289 0.54643 0.50619
 N125 N 0.98068 0.54022 0.47500
 C126 C 0.93199 0.51973 0.52764
 H127 H 0.86635 0.45560 0.55014
 H128 H 0.87457 0.39989 0.55581
 H129 H 0.97290 0.51561 0.46094
 H130 H 0.99785 0.39624 0.55257
 H131 H 1.05281 0.42674 0.49863
 H132 H 1.06440 0.50667 0.35447
 H133 H 1.05683 0.56278 0.35008
 H134 H 0.97166 0.59632 0.53638
 H135 H 0.98065 0.46157 0.46617
 H136 H 1.02719 0.62761 0.48359
 C137 C 0.50316 0.45324 0.62408
 C138 C 0.53571 0.48447 0.62449
 C139 C 0.53714 0.50326 0.58776
 N140 N 0.50638 0.48475 0.56525
 C141 C 0.48561 0.45417 0.58742
 C142 C 0.56775 0.53509 0.57324
 C143 C 0.56623 0.55601 0.53949
 C144 C 0.59562 0.58228 0.51702
 C145 C 0.58279 0.59697 0.48816
 C146 C 0.54595 0.57936 0.49396
 N147 N 0.53613 0.55456 0.52542
 C148 C 0.52246 0.58724 0.47184
 C149 C 0.48487 0.56376 0.47209
 C150 C 0.46010 0.57251 0.45812
 C151 C 0.42738 0.54143 0.45821
 C152 C 0.43323 0.51473 0.47228
 N153 N 0.46836 0.52845 0.48095
 C154 C 0.40723 0.47785 0.47238
 C155 C 0.41249 0.45256 0.49433
 C156 C 0.39225 0.41585 0.48861
 C157 C 0.40503 0.40101 0.51727
 C158 C 0.43286 0.42911 0.53934
 N159 N 0.43702 0.46037 0.52550
 C160 C 0.45271 0.42549 0.57259
 H161 H 0.49369 0.43200 0.64768
 H162 H 0.55625 0.49211 0.64865
 H163 H 0.45339 0.48530 0.53939
 H164 H 0.62339 0.58995 0.52085
 H165 H 0.59882 0.61816 0.46549
 H166 H 0.46521 0.59847 0.44808
 H167 H 0.40226 0.53865 0.44824
 H168 H 0.39507 0.37279 0.52128
 H169 H 0.51080 0.53992 0.53939
 H170 H 0.37057 0.40120 0.46612
 C171 C 0.44843 -0.06572 0.40168
 C172 C 0.47714 -0.07027 0.40424
 C173 C 0.48902 -0.06290 0.44642
 N174 N 0.46872 -0.05376 0.46982
 C175 C 0.44352 -0.05600 0.44249
 C176 C 0.51661 -0.06731 0.46333
 C177 C 0.53763 -0.04646 0.49847
 C178 C 0.56199 -0.05164 0.52123
 C179 C 0.57782 -0.02448 0.55088
 C180 C 0.56184 -0.00418 0.54643
 N181 N 0.53768 -0.01753 0.51419
 C182 C 0.57079 0.02678 0.57035
 C183 C 0.54778 0.04062 0.57457
 C184 C 0.55585 0.07079 0.59813
 C185 C 0.52589 0.07348 0.59770
 C186 C 0.50033 0.04500 0.57363
 N187 N 0.51367 0.02468 0.55994
 C188 C 0.46457 0.03681 0.56782
 C189 C 0.43952 0.00902 0.54100
 C190 C 0.40278 -0.00490 0.54166
 C191 C 0.38829 -0.03045 0.50990
 C192 C 0.41666 -0.03082 0.48996
 N193 N 0.44774 -0.00663 0.50912
 C194 C 0.41398 -0.05276 0.45483
 H195 H 0.43253 -0.06963 0.37322
 H196 H 0.48803 -0.07827 0.37815
 H197 H 0.47341 0.00104 0.49845
 H198 H 0.56791 -0.07266 0.51704
 H199 H 0.59840 -0.02057 0.57344
 H200 H 0.58037 0.08850 0.61514
 H201 H 0.52316 0.09373 0.61427
 H202 H 0.36005 -0.04694 0.50270
 H203 H 0.52458 -0.00549 0.50090
 H204 H 0.38780 0.00226 0.56300
 O205 O 0.16270 0.39205 0.21124
 O206 O 0.23248 0.40614 0.29044
 O207 O 0.16869 0.39861 0.29407
 O208 O 0.22528 0.39541 0.20755
 O209 O 0.25009 0.45345 0.19718
 O210 O 0.19563 0.45701 0.28561
 O211 O 0.25913 0.46425 0.27865
 O212 O 0.18959 0.45054 0.20253
 Cu213 Cu 0.19469 0.39214 0.25165
 Cu214 Cu 0.22613 0.46212 0.24034
 C215 C 0.16436 0.41927 0.19386
 C216 C 0.25822 0.43785 0.29690
 C217 C 0.17226 0.42840 0.30430
 C218 C 0.24750 0.42390 0.18784
 O219 O 0.60080 0.82761 0.30243
 O220 O 0.60585 0.77636 0.21109
 O221 O 0.60805 0.83799 0.22009
 O222 O 0.59545 0.76542 0.29395
 O223 O 0.53713 0.73805 0.28234
 O224 O 0.54935 0.81044 0.21164
 O225 O 0.54753 0.75101 0.20134
 O226 O 0.54214 0.79972 0.29425
 Cu227 Cu 0.60851 0.80453 0.25756
 Cu228 Cu 0.53821 0.77223 0.24673
 C229 C 0.57045 0.82246 0.31374
 C230 C 0.57747 0.75470 0.19093
 C231 C 0.58052 0.83655 0.20382
 C232 C 0.56390 0.73897 0.29977
 O233 O 0.23414 0.82828 0.20270
 O234 O 0.17732 0.76244 0.28601
 O235 O 0.23862 0.82216 0.28604
 O236 O 0.17116 0.76654 0.20392
 O237 O 0.20008 0.73805 0.19176
 O238 O 0.26593 0.79217 0.27378
 O239 O 0.20563 0.73336 0.27392
 O240 O 0.26095 0.79767 0.19092
 Cu241 Cu 0.20261 0.79815 0.24526
 Cu242 Cu 0.23604 0.76256 0.23121
 C243 C 0.25739 0.82414 0.18301
 C244 C 0.18214 0.73669 0.29420
 C245 C 0.26334 0.81577 0.29458
 C246 C 0.17376 0.74220 0.18484
 O247 O 0.81727 0.57633 0.70795
 O248 O 0.76327 0.58816 0.79166
 O249 O 0.82456 0.58968 0.79035
 O250 O 0.75799 0.57904 0.70866
 O251 O 0.72934 0.52085 0.71947
 O252 O 0.79320 0.53170 0.80334
 O253 O 0.73544 0.53023 0.80530
 O254 O 0.79023 0.51911 0.72524
 Cu255 Cu 0.79373 0.58922 0.74823
 Cu256 Cu 0.75796 0.51970 0.76286
 C257 C 0.81378 0.54569 0.70392
 C258 C 0.74039 0.56095 0.81296
 C259 C 0.82017 0.56243 0.81079
 C260 C 0.73215 0.54789 0.70033
 O261 O 0.42207 0.24015 0.70753
 O262 O 0.43448 0.19155 0.79735
 O263 O 0.42972 0.24925 0.78995
 O264 O 0.42656 0.18234 0.71405
 O265 O 0.48485 0.21684 0.70298
 O266 O 0.48722 0.28431 0.77454
 O267 O 0.49283 0.22623 0.78873
 O268 O 0.48067 0.27108 0.69669
 Cu269 Cu 0.42226 0.21222 0.75338
 Cu270 Cu 0.49235 0.25193 0.74177
 C271 C 0.44939 0.26404 0.68708
 C272 C 0.46622 0.20092 0.80828
 C273 C 0.45884 0.27909 0.79300
 C274 C 0.45520 0.18863 0.69513
 O275 O 0.77505 0.16015 0.69822
 O276 O 0.83993 0.22061 0.77989
 O277 O 0.77843 0.15958 0.78134
 O278 O 0.83753 0.22055 0.69534
 O279 O 0.81103 0.25196 0.70217
 O280 O 0.74985 0.18922 0.78304
 O281 O 0.80961 0.24836 0.78458
 O282 O 0.74914 0.19238 0.69936
 Cu283 Cu 0.81073 0.18726 0.73818
 Cu284 Cu 0.77697 0.22334 0.74226
 C285 C 0.75100 0.16617 0.68517
 C286 C 0.83526 0.24453 0.79662
 C287 C 0.75388 0.16407 0.79654
 C288 C 0.83484 0.24727 0.68517
 C289 C 0.10831 0.46255 0.03866
 C290 C 0.07467 0.45245 0.05633
 C291 C 0.06373 0.43285 0.09495
 C292 C 0.08686 0.42464 0.11667
 C293 C 0.12163 0.43706 0.10005
 C294 C 0.13178 0.45523 0.06054
 C295 C 0.14626 0.43272 0.12425
 C296 C 0.13639 0.41558 0.16442
 C297 C 0.10112 0.40099 0.17934
 C298 C 0.07650 0.40566 0.15570
 H299 H 0.03772 0.42500 0.10857
 H300 H 0.15820 0.46461 0.04718
 H301 H 0.17362 0.44415 0.11292
 H302 H 0.04987 0.39568 0.16873
 H303 H 0.11693 0.47752 0.00880
 H304 H 0.09337 0.38816 0.21060
 C305 C 0.51138 0.64252 0.04769
 C306 C 0.53401 0.62870 0.05264
 C307 C 0.56458 0.64675 0.07864
 C308 C 0.57100 0.67694 0.10213
 C309 C 0.54667 0.68921 0.09911
 C310 C 0.51762 0.67255 0.07079
 C311 C 0.55057 0.71659 0.12622
 C312 C 0.57830 0.73178 0.15663
 C313 C 0.60382 0.72122 0.15739
 C314 C 0.60016 0.69393 0.13035
 H315 H 0.58210 0.63610 0.08235
 H316 H 0.49894 0.68184 0.06781
 H317 H 0.53096 0.72484 0.12514
 H318 H 0.61925 0.68510 0.13284
 H319 H 0.48789 0.62898 0.02741
 H320 H 0.62538 0.73258 0.18062
 C321 C 0.39396 0.96208 0.12890
 C322 C 0.39771 0.94997 0.08854
 C323 C 0.36979 0.91761 0.07228
 C324 C 0.33918 0.89627 0.09734
 C325 C 0.33584 0.90815 0.13853
 C326 C 0.36299 0.94153 0.15353
 C327 C 0.30662 0.88546 0.16505
 C328 C 0.28186 0.85061 0.15159
 C329 C 0.28488 0.83937 0.11035
 C330 C 0.31295 0.86227 0.08305
 H331 H 0.37298 0.90819 0.04126
 H332 H 0.36098 0.95100 0.18503
 H333 H 0.30475 0.89377 0.19737
 H334 H 0.31519 0.85272 0.05169
 H335 H 0.41547 0.98697 0.14176
 H336 H 0.26615 0.81235 0.09991
 C337 C 0.89638 0.55006 0.53865
 C338 C 0.91080 0.53018 0.55526
 C339 C 0.90472 0.51961 0.59865
 C340 C 0.88323 0.52724 0.62467
 C341 C 0.86874 0.54727 0.60791
 C342 C 0.87581 0.55886 0.56490
 C343 C 0.84688 0.55456 0.63425
 C344 C 0.83835 0.54069 0.67629
 C345 C 0.85272 0.52065 0.69231
 C346 C 0.87537 0.51439 0.66698
 H347 H 0.91616 0.50466 0.61184
 H348 H 0.86487 0.57411 0.55136
 H349 H 0.83555 0.56979 0.62172
 H350 H 0.88617 0.49891 0.68020
 H351 H 0.90083 0.55848 0.50527
 H352 H 0.84653 0.50997 0.72476
 C353 C 0.41299 0.37403 0.62096
 C354 C 0.44064 0.38955 0.59033
 C355 C 0.45967 0.37270 0.57967
 C356 C 0.45297 0.34186 0.60164
 C357 C 0.42630 0.32717 0.63413
 C358 C 0.40571 0.34287 0.64264
 C359 C 0.42249 0.29871 0.65946
 C360 C 0.44597 0.28593 0.65359
 C361 C 0.47095 0.29942 0.61968
 C362 C 0.47415 0.32689 0.59357
 H363 H 0.48107 0.38488 0.55600
 H364 H 0.38513 0.33200 0.66733
 H365 H 0.40353 0.28874 0.68601
 H366 H 0.49455 0.33772 0.56865
 H367 H 0.39817 0.38692 0.62936
 H368 H 0.48921 0.28982 0.61470
 C369 C 0.61035 0.03184 0.63193
 C370 C 0.60566 0.04546 0.59319
 C371 C 0.63304 0.07872 0.57793
 C372 C 0.66421 0.09913 0.60221
 C373 C 0.66871 0.08540 0.64142
 C374 C 0.64191 0.05142 0.65556
 C375 C 0.69898 0.10667 0.66689
 C376 C 0.72375 0.14193 0.65453
 C377 C 0.71927 0.15527 0.61551
 C378 C 0.69006 0.13379 0.58908
 H379 H 0.62912 0.08941 0.54830
 H380 H 0.64477 0.04061 0.68567
 H381 H 0.70205 0.09674 0.69761
 H382 H 0.68689 0.14479 0.55930
 H383 H 0.58921 0.00640 0.64426
 H384 H 0.73803 0.18260 0.60600
 C385 C 0.43721 0.07172 0.92138
 C386 C 0.47264 0.08589 0.93596
 C387 C 0.49800 0.12193 0.92674
 C388 C 0.48912 0.14247 0.90083
 C389 C 0.45397 0.12742 0.88464
 C390 C 0.42799 0.09229 0.89601
 C391 C 0.44588 0.14731 0.85610
 C392 C 0.47281 0.18171 0.84290
 C393 C 0.50730 0.19673 0.86056
 C394 C 0.51531 0.17741 0.88946
 H395 H 0.52510 0.13376 0.93893
 H396 H 0.40085 0.08030 0.88404
 H397 H 0.41921 0.13539 0.84263
 H398 H 0.54235 0.18938 0.90180
 H399 H 0.41704 0.04408 0.92762
 H400 H 0.52844 0.22326 0.85126
 C401 C 0.61731 0.57735 0.88147
 C402 C 0.61222 0.55880 0.92041
 C403 C 0.63821 0.55078 0.93348
 C404 C 0.66675 0.55773 0.90610
 C405 C 0.67079 0.57503 0.86615
 C406 C 0.64660 0.58582 0.85485
 C407 C 0.69740 0.57903 0.83705
 C408 C 0.71857 0.56425 0.84666
 C409 C 0.71504 0.54800 0.88679
 C410 C 0.68980 0.54538 0.91668
 H411 H 0.63479 0.53695 0.96376
 H412 H 0.64921 0.59904 0.82437
 H413 H 0.69971 0.59100 0.80570
 H414 H 0.68702 0.53198 0.94708
 H415 H 0.59756 0.58365 0.87054
 H416 H 0.73119 0.53639 0.89446
 C417 C 0.88433 0.36405 0.92974
 C418 C 0.92132 0.37656 0.92824
 C419 C 0.93307 0.35602 0.90647
 C420 C 0.90853 0.32539 0.88331
 C421 C 0.87185 0.31466 0.88325
 C422 C 0.85989 0.33338 0.90771
 C423 C 0.84787 0.28656 0.85691
 C424 C 0.85988 0.26921 0.82965
 C425 C 0.89592 0.27848 0.83152
 C426 C 0.92010 0.30639 0.85824
 H427 H 0.96144 0.36535 0.90473
 H428 H 0.83178 0.32518 0.90837
 H429 H 0.81999 0.27927 0.85615
 H430 H 0.94806 0.31403 0.85797
 H431 H 0.87443 0.37873 0.94720
 H432 H 0.90573 0.26539 0.81081
 C433 C 0.49268 0.87287 0.43366
 C434 C 0.52239 0.90663 0.44405
 C435 C 0.55688 0.91454 0.43140
 C436 C 0.56111 0.89022 0.40614
 C437 C 0.53067 0.85735 0.39425
 C438 C 0.49677 0.84852 0.40922
 C439 C 0.53427 0.83448 0.36590
 C440 C 0.56789 0.84410 0.34858
 C441 C 0.59835 0.87598 0.36214
 C442 C 0.59498 0.89886 0.39072
 H443 H 0.58004 0.94055 0.43825
 H444 H 0.47322 0.82326 0.40080
 H445 H 0.51062 0.80981 0.35601
 H446 H 0.61869 0.92384 0.39958
 H447 H 0.46590 0.86559 0.44384
 H448 H 0.62459 0.88397 0.34930
 C449 C 0.34017 0.44437 0.46256
 C450 C 0.37480 0.46510 0.44512
 C451 C 0.37886 0.47407 0.40126
 C452 C 0.34885 0.46362 0.37531
 C453 C 0.31399 0.44265 0.39290
 C454 C 0.30997 0.43293 0.43655
 C455 C 0.28394 0.43265 0.36673
 C456 C 0.28869 0.44469 0.32395
 C457 C 0.32339 0.46557 0.30699
 C458 C 0.35324 0.47455 0.33224
 H459 H 0.40554 0.48983 0.38758
 H460 H 0.28353 0.41704 0.45071
 H461 H 0.25711 0.41690 0.37995
 H462 H 0.37976 0.49072 0.31836
 H463 H 0.33659 0.43723 0.49636
 H464 H 0.32735 0.47498 0.27399
 C465 C 0.04527 0.63349 0.39762
 C466 C 0.05731 0.61087 0.41209
 C467 C 0.09354 0.62160 0.40550
 C468 C 0.11632 0.65216 0.38165
 C469 C 0.10350 0.67361 0.36506
 C470 C 0.06819 0.66460 0.37428
 C471 C 0.12576 0.70269 0.33812
 C472 C 0.16017 0.70968 0.32696
 C473 C 0.17291 0.68886 0.34515
 C474 C 0.15130 0.66054 0.37252
 H475 H 0.10378 0.60534 0.41791
 H476 H 0.05789 0.68080 0.36201
 H477 H 0.11572 0.71861 0.32418
 H478 H 0.16152 0.64440 0.38529
 H479 H 0.01756 0.62604 0.40188
 H480 H 0.19947 0.69403 0.33748
 C481 C 0.88135 0.50195 0.94010
 C482 C 0.91778 0.52857 0.93569
 C483 C 0.92686 0.56026 0.91326
 C484 C 0.90011 0.56362 0.89222
 C485 C 0.86395 0.53564 0.89519
 C486 C 0.85474 0.50559 0.92044
 C487 C 0.83772 0.53697 0.87080
 C488 C 0.84698 0.56540 0.84229
 C489 C 0.88257 0.59418 0.84118
 C490 C 0.90895 0.59335 0.86611
 H491 H 0.95479 0.58080 0.90909
 H492 H 0.82709 0.48408 0.92332
 H493 H 0.81026 0.51479 0.87233
 H494 H 0.93646 0.61517 0.86349
 H495 H 0.87358 0.47763 0.95785
 H496 H 0.89033 0.61645 0.81950
 C497 C 0.43980 0.36285 0.94143
 C498 C 0.45789 0.39639 0.92110
 C499 C 0.46851 0.39872 0.87793
 C500 C 0.46418 0.36862 0.85645
 C501 C 0.44669 0.33496 0.87725
 C502 C 0.43376 0.33223 0.91943
 C503 C 0.44371 0.30507 0.85601
 C504 C 0.45962 0.30915 0.81533
 C505 C 0.47686 0.34271 0.79515
 C506 C 0.47866 0.37208 0.81520
 H507 H 0.48232 0.42456 0.86209
 H508 H 0.42032 0.30673 0.93597
 H509 H 0.43048 0.27916 0.87168
 H510 H 0.49223 0.39772 0.79894
 H511 H 0.43143 0.36061 0.97472
 H512 H 0.48880 0.34612 0.76352
 C513 C 0.64371 0.12050 0.94272
 C514 C 0.62798 0.08340 0.93851
 C515 C 0.64374 0.06966 0.91112
 C516 C 0.67377 0.09296 0.88600
 C517 C 0.68801 0.13023 0.88867
 C518 C 0.67349 0.14376 0.91801
 C519 C 0.71542 0.15333 0.86057
 C520 C 0.72907 0.13988 0.82982
 C521 C 0.71645 0.10313 0.82894
 C522 C 0.68882 0.07976 0.85674
 H523 H 0.63148 0.04100 0.90775
 H524 H 0.68431 0.17225 0.92066
 H525 H 0.72541 0.18176 0.86167
 H526 H 0.67846 0.05133 0.85440
 H527 H 0.63178 0.13136 0.96376
 H528 H 0.72670 0.09232 0.80536
 C529 C 0.10936 0.50070 0.41391
 C530 C 0.07556 0.47010 0.42245
 C531 C 0.07023 0.43632 0.41168
 C532 C 0.09693 0.43365 0.38920
 C533 C 0.12967 0.46494 0.37860
 C534 C 0.13603 0.49815 0.39234
 C535 C 0.15498 0.46281 0.35278
 C536 C 0.14797 0.42978 0.33674
 C537 C 0.11613 0.39854 0.34914
 C538 C 0.09084 0.40045 0.37516
 H539 H 0.04445 0.41242 0.41757
 H540 H 0.16120 0.52236 0.38512
 H541 H 0.17954 0.48708 0.34380
 H542 H 0.06602 0.37610 0.38306
 H543 H 0.11493 0.52699 0.42322
 H544 H 0.11008 0.37270 0.33731
 C545 C 0.55989 0.65407 0.46172
 C546 C 0.53757 0.61989 0.44435
 C547 C 0.52812 0.61662 0.40071
 C548 C 0.53902 0.64700 0.37524
 C549 C 0.56117 0.68141 0.39291
 C550 C 0.57192 0.68460 0.43607
 C551 C 0.57104 0.71186 0.36750
 C552 C 0.55764 0.70798 0.32549
 C553 C 0.53580 0.67369 0.30838
 C554 C 0.52699 0.64345 0.33277
 H555 H 0.51111 0.59029 0.38707
 H556 H 0.58878 0.71069 0.45029
 H557 H 0.58756 0.73835 0.38091
 H558 H 0.50992 0.61728 0.31883
 H559 H 0.56744 0.65709 0.49532
 H560 H 0.52537 0.67034 0.27599
 C561 C 0.36137 0.94143 0.41653
 C562 C 0.38135 0.92662 0.43205
 C563 C 0.37006 0.89104 0.42115
 C564 C 0.34204 0.87190 0.39230
 C565 C 0.32327 0.88752 0.37510
 C566 C 0.33252 0.92199 0.38840
 C567 C 0.29653 0.86879 0.34397
 C568 C 0.28934 0.83518 0.32934
 C569 C 0.30783 0.81986 0.34764
 C570 C 0.33368 0.83788 0.37904
 H571 H 0.38422 0.87862 0.43399
 H572 H 0.31840 0.93444 0.37571
 H573 H 0.28238 0.88081 0.33009
 H574 H 0.34784 0.82558 0.39210
 H575 H 0.36940 0.96880 0.42383
 H576 H 0.30243 0.79383 0.33746
 C577 C 0.53507 0.90103 0.05925
 C578 C 0.54970 0.93526 0.07705
 C579 C 0.57169 0.94440 0.11358
 C580 C 0.57784 0.91898 0.13312
 C581 C 0.56105 0.88389 0.11644
 C582 C 0.54042 0.87543 0.07897
 C583 C 0.56387 0.85744 0.13853
 C584 C 0.58383 0.86568 0.17660
 C585 C 0.60246 0.90103 0.19145
 C586 C 0.59927 0.92750 0.17002
 H587 H 0.58298 0.97082 0.12739
 H588 H 0.52767 0.84878 0.06555
 H589 H 0.54949 0.83011 0.12703
 H590 H 0.61260 0.95430 0.18307
 H591 H 0.51817 0.89372 0.03103
 H592 H 0.61767 0.90768 0.22103
 C593 C 0.36182 0.48838 0.04489
 C594 C 0.37669 0.46692 0.05211
 C595 C 0.35908 0.43725 0.07970
 C596 C 0.32833 0.43078 0.10254
 C597 C 0.31509 0.45412 0.09725
 C598 C 0.33128 0.48208 0.06730
 C599 C 0.28711 0.45033 0.12358
 C600 C 0.27206 0.42351 0.15522
 C601 C 0.28370 0.39895 0.15836
 C602 C 0.31172 0.40263 0.13231
 H603 H 0.37054 0.42067 0.08529
 H604 H 0.32125 0.49997 0.06254
 H605 H 0.27803 0.46918 0.12066
 H606 H 0.32128 0.38431 0.13660
 H607 H 0.37505 0.51122 0.02349
 H608 H 0.27247 0.37809 0.18257
 C609 C 0.11148 0.63623 0.03433
 C610 C 0.07773 0.61359 0.05303
 C611 C 0.06833 0.62404 0.09125
 C612 C 0.09294 0.65623 0.11145
 C613 C 0.12776 0.67757 0.09393
 C614 C 0.13647 0.66778 0.05485
 C615 C 0.15374 0.70737 0.11683
 C616 C 0.14509 0.71660 0.15640
 C617 C 0.10980 0.69693 0.17197
 C618 C 0.08394 0.66674 0.14984
 H619 H 0.04233 0.60655 0.10583
 H620 H 0.16288 0.68401 0.04075
 H621 H 0.18104 0.72253 0.10484
 H622 H 0.05730 0.65092 0.16351
 H623 H 0.11903 0.62852 0.00483
 H624 H 0.10287 0.70351 0.20273
 C625 C 0.43219 0.04498 0.62957
 C626 C 0.45291 0.05844 0.59198
 C627 C 0.46605 0.09401 0.57981
 C628 C 0.46068 0.11673 0.60645
 C629 C 0.44021 0.10323 0.64469
 C630 C 0.42537 0.06707 0.65541
 C631 C 0.43654 0.12653 0.67252
 C632 C 0.45455 0.16328 0.66350
 C633 C 0.47452 0.17632 0.62533
 C634 C 0.47707 0.15315 0.59665
 H635 H 0.48242 0.10444 0.55102
 H636 H 0.40979 0.05628 0.68465
 H637 H 0.42153 0.11652 0.70231
 H638 H 0.49296 0.16394 0.56761
 H639 H 0.42217 0.01763 0.63945
 H640 H 0.48848 0.20460 0.61795
 C641 C 0.62330 0.57887 0.61340
 C642 C 0.60302 0.54568 0.59294
 C643 C 0.61516 0.52144 0.59366
 C644 C 0.64579 0.52913 0.61707
 C645 C 0.66563 0.56225 0.63851
 C646 C 0.65457 0.58724 0.63569
 C647 C 0.69523 0.56912 0.66381
 C648 C 0.70432 0.54276 0.66921
 C649 C 0.68471 0.51019 0.64723
 C650 C 0.65599 0.50361 0.62094
 H651 H 0.59970 0.49589 0.57763
 H652 H 0.66940 0.61274 0.65191
 H653 H 0.70996 0.59416 0.68107
 H654 H 0.64104 0.47809 0.60477
 H655 H 0.61435 0.59787 0.61309
 H656 H 0.69135 0.48959 0.65084
 C657 C 0.92797 0.39917 0.61348
 C658 C 0.93203 0.38993 0.57142
 C659 C 0.91968 0.35400 0.56155
 C660 C 0.90146 0.32730 0.59298
 C661 C 0.89565 0.33694 0.63437
 C662 C 0.90977 0.37292 0.64461
 C663 C 0.87479 0.31041 0.66453
 C664 C 0.85996 0.27424 0.65442
 C665 C 0.86737 0.26466 0.61431
 C666 C 0.88780 0.29106 0.58358
 H667 H 0.92297 0.34683 0.52919
 H668 H 0.90591 0.38071 0.67635
 H669 H 0.86942 0.31783 0.69576
 H670 H 0.89218 0.28310 0.55222
 H671 H 0.93778 0.42679 0.62171
 H672 H 0.85608 0.23679 0.60613
   
