data_POSCAR
  _audit_creation_date              2014-09-24
  _audit_creation_method            'ToBaCCo'
  _symmetry_space_group_name_H-M    'P1'
  _symmetry_Int_Tables_number       1
  _symmetry_cell_setting            triclinic
  loop_
  _symmetry_equiv_pos_as_xyz
 x,y,z
_cell_length_a 41.6355
_cell_length_b 42.4962
_cell_length_c 40.8937
_cell_angle_alpha 89.516300
_cell_angle_beta 92.435600
_cell_angle_gamma 91.380400
loop_
  _atom_site_label
  _atom_site_type_symbol
  _atom_site_fract_x
  _atom_site_fract_y
  _atom_site_fract_z
C1 C 1.29253 0.23315 0.26010
 C2 C 1.27003 0.25051 0.24174
 C3 C 1.24596 0.23514 0.22281
 C4 C 1.24344 0.20222 0.22244
 C5 C 1.26642 0.18479 0.24082
 C6 C 1.29140 0.19982 0.26013
 C7 C 1.26888 0.28481 0.24549
 C8 C 1.29002 0.30501 0.22921
 C9 C 1.28717 0.33804 0.23096
 C10 C 1.26277 0.34989 0.25023
 C11 C 1.24207 0.32964 0.26740
 C12 C 1.24532 0.29710 0.26464
 H13 H 1.30933 0.24619 0.27602
 H14 H 1.22888 0.24917 0.20871
 H15 H 1.30724 0.29458 0.21369
 H16 H 1.22981 0.28104 0.27780
 H17 H 1.26458 0.15949 0.23966
 H18 H 1.26026 0.37498 0.25285
 C19 C 0.77322 -0.27744 0.27773
 C20 C 0.74805 -0.26218 0.26076
 C21 C 0.72510 -0.27977 0.24232
 C22 C 0.72778 -0.31253 0.23942
 C23 C 0.75350 -0.32751 0.25629
 C24 C 0.77644 -0.31048 0.27626
 C25 C 0.74701 -0.22742 0.26096
 C26 C 0.77150 -0.20986 0.24650
 C27 C 0.77192 -0.17675 0.24664
 C28 C 0.74655 -0.16139 0.26152
 C29 C 0.72139 -0.17879 0.27618
 C30 C 0.72213 -0.21196 0.27565
 H31 H 0.78934 -0.26300 0.29299
 H32 H 0.70551 -0.26767 0.22976
 H33 H 0.78992 -0.22238 0.23440
 H34 H 0.70389 -0.22601 0.28749
 H35 H 0.75634 -0.35232 0.25210
 H36 H 0.74641 -0.13596 0.26170
 C37 C 0.76340 0.23644 -0.22420
 C38 C 0.74246 0.25203 -0.24605
 C39 C 0.72090 0.23479 -0.26632
 C40 C 0.72048 0.20170 -0.26568
 C41 C 0.74139 0.18613 -0.24322
 C42 C 0.76281 0.20338 -0.22214
 C43 C 0.74368 0.28653 -0.24851
 C44 C 0.76541 0.30140 -0.26922
 C45 C 0.76662 0.33451 -0.27270
 C46 C 0.74535 0.35199 -0.25426
 C47 C 0.72338 0.33724 -0.23359
 C48 C 0.72262 0.30435 -0.23095
 H49 H 0.78037 0.25020 -0.20904
 H50 H 0.70454 0.24737 -0.28275
 H51 H 0.78010 0.28657 -0.28353
 H52 H 0.70605 0.29256 -0.21489
 H53 H 0.74110 0.16067 -0.24223
 H54 H 0.74611 0.37740 -0.25503
 C55 C 1.26034 -0.24779 -0.22306
 C56 C 1.23667 -0.23257 -0.24232
 C57 C 1.21455 -0.25017 -0.26176
 C58 C 1.21553 -0.28311 -0.26207
 C59 C 1.23883 -0.29817 -0.24194
 C60 C 1.26182 -0.28102 -0.22227
 C61 C 1.23475 -0.19800 -0.24233
 C62 C 1.25776 -0.17951 -0.25797
 C63 C 1.25492 -0.14664 -0.26026
 C64 C 1.22836 -0.13255 -0.24624
 C65 C 1.20500 -0.15097 -0.23014
 C66 C 1.20874 -0.18377 -0.22836
 H67 H 1.27640 -0.23336 -0.20768
 H68 H 1.19714 -0.23793 -0.27731
 H69 H 1.27715 -0.19106 -0.26958
 H70 H 1.19162 -0.19856 -0.21575
 H71 H 1.23948 -0.32349 -0.24277
 H72 H 1.22577 -0.10732 -0.24818
 C73 C 0.22042 0.25325 0.73182
 C74 C 0.23904 0.23198 0.75007
 C75 C 0.22439 0.20992 0.77055
 C76 C 0.19080 0.20914 0.77384
 C77 C 0.17235 0.23084 0.75487
 C78 C 0.18688 0.25289 0.73385
 C79 C 0.27425 0.23371 0.74900
 C80 C 0.29122 0.25930 0.76288
 C81 C 0.32513 0.26037 0.76464
 C82 C 0.34161 0.23551 0.75031
 C83 C 0.32441 0.21059 0.73421
 C84 C 0.29073 0.20940 0.73512
 H85 H 0.23226 0.26970 0.71562
 H86 H 0.23989 0.19494 0.78540
 H87 H 0.27762 0.27721 0.77448
 H88 H 0.27704 0.18964 0.72468
 H89 H 0.14646 0.23046 0.75576
 H90 H 0.36760 0.23656 0.74989
 C91 C 0.72743 0.74841 0.71585
 C92 C 0.74850 0.72934 0.73379
 C93 C 0.73684 0.70347 0.75116
 C94 C 0.70367 0.69641 0.75167
 C95 C 0.68259 0.71522 0.73217
 C96 C 0.69412 0.74154 0.71428
 C97 C 0.78315 0.73634 0.73496
 C98 C 0.79566 0.76152 0.75355
 C99 C 0.82894 0.76543 0.75880
 C100 C 0.84971 0.74427 0.74479
 C101 C 0.83733 0.71955 0.72489
 C102 C 0.80381 0.71591 0.72018
 H103 H 0.73766 0.76757 0.70176
 H104 H 0.75419 0.68871 0.76393
 H105 H 0.77949 0.77697 0.76545
 H106 H 0.79342 0.69724 0.70498
 H107 H 0.65693 0.71135 0.73332
 H108 H 0.87538 0.74696 0.74980
 C109 C 0.70213 0.25965 0.22606
 C110 C 0.71879 0.24277 0.25050
 C111 C 0.70200 0.22419 0.27266
 C112 C 0.66828 0.22175 0.27017
 C113 C 0.65164 0.23879 0.24532
 C114 C 0.66846 0.25817 0.22351
 C115 C 0.75396 0.24420 0.25236
 C116 C 0.77029 0.26454 0.27435
 C117 C 0.80399 0.26746 0.27483
 C118 C 0.82099 0.24845 0.25380
 C119 C 0.80472 0.22752 0.23188
 C120 C 0.77101 0.22606 0.23106
 H121 H 0.71552 0.27387 0.20895
 H122 H 0.71536 0.21187 0.29193
 H123 H 0.75655 0.27829 0.29075
 H124 H 0.75776 0.21120 0.21355
 H125 H 0.62564 0.23730 0.24312
 H126 H 0.84695 0.25024 0.25418
 C127 C 0.21543 0.76171 0.22398
 C128 C 0.23130 0.73645 0.23875
 C129 C 0.21374 0.71156 0.25219
 C130 C 0.17993 0.71209 0.25292
 C131 C 0.16419 0.73711 0.23635
 C132 C 0.18161 0.76194 0.22145
 C133 C 0.26660 0.73599 0.24070
 C134 C 0.28402 0.75881 0.25890
 C135 C 0.31759 0.75750 0.26256
 C136 C 0.33370 0.73347 0.24707
 C137 C 0.31641 0.71097 0.22785
 C138 C 0.28274 0.71214 0.22532
 H139 H 0.22982 0.77998 0.21263
 H140 H 0.22708 0.69185 0.26201
 H141 H 0.27131 0.77697 0.27114
 H142 H 0.26900 0.69517 0.21046
 H143 H 0.13843 0.73904 0.23736
 H144 H 0.35968 0.73263 0.24959
 O145 O 1.04347 0.02144 0.05408
 O146 O 0.92861 -0.02364 0.03576
 O147 O 0.96489 0.05611 0.04935
 O148 O 1.01751 -0.06638 0.01494
 O149 O 0.92386 0.03213 0.02547
 O150 O 1.03576 -0.03123 0.04612
 O151 O 0.97284 -0.04584 0.04930
 O152 O 1.02325 0.06530 0.03968
 C153 C 1.04263 0.05011 0.05726
 C154 C 0.94496 -0.03904 0.05630
 C155 C 0.93567 0.04959 0.04812
 C156 C 1.03539 -0.05936 0.03865
 O157 O 1.04331 -0.02309 -0.02055
 O158 O 0.94003 0.02121 -0.03826
 O159 O 1.01061 0.06527 -0.02215
 O160 O 0.95876 -0.07509 -0.00368
 O161 O 0.93858 -0.03431 -0.02874
 O162 O 1.05160 0.03453 -0.01064
 O163 O 0.99581 -0.04085 -0.03663
 O164 O 0.95181 0.06432 -0.01382
 Co165 Co 1.03906 0.00053 0.01634
 Co166 Co 0.93769 -0.00056 -0.00035
 Co167 Co 0.98745 0.05726 0.01309
 Co168 Co 0.98342 -0.04125 0.00637
 O169 O 0.98876 0.00595 0.00999
 C170 C 1.02482 -0.03508 -0.04255
 C171 C 0.94023 0.05029 -0.03850
 C172 C 1.03891 0.05738 -0.02666
 C173 C 0.93672 -0.06387 -0.02341
 O174 O 1.06499 0.51388 0.54620
 O175 O 0.95750 0.47470 0.53745
 O176 O 0.99357 0.54675 0.53926
 O177 O 1.03126 0.44118 0.54297
 O178 O 0.94994 0.52721 0.51912
 O179 O 1.07527 0.46165 0.52855
 O180 O 0.97795 0.43212 0.52218
 O181 O 1.04694 0.55661 0.52635
 C182 C 1.06186 0.54247 0.54904
 C183 C 0.96135 0.44632 0.54192
 C184 C 0.96451 0.54234 0.54145
 C185 C 1.06029 0.44520 0.54851
 O186 O 1.06978 0.48250 0.46578
 O187 O 0.95879 0.50760 0.45648
 O188 O 1.02900 0.54847 0.46083
 O189 O 0.99931 0.43935 0.46002
 O190 O 0.95389 0.45441 0.47468
 O191 O 1.07292 0.53489 0.48382
 O192 O 1.05351 0.43709 0.48070
 O193 O 0.97416 0.55219 0.47476
 Co194 Co 1.06506 0.49786 0.50569
 Co195 Co 0.96075 0.49138 0.49728
 Co196 Co 1.01117 0.54540 0.50024
 Co197 Co 1.01532 0.44304 0.50143
 O198 O 1.01304 0.49436 0.50116
 C199 C 1.06939 0.45393 0.46162
 C200 C 0.95950 0.53639 0.45294
 C201 C 1.05839 0.54665 0.45961
 C202 C 0.96999 0.43994 0.45483
 O203 O 0.54299 0.01080 0.55528
 O204 O 0.43845 -0.04049 0.52656
 O205 O 0.46744 0.04584 0.54048
 O206 O 0.52510 -0.08634 0.51920
 O207 O 0.42944 0.01557 0.51781
 O208 O 0.54370 -0.04399 0.54389
 O209 O 0.48438 -0.05536 0.54828
 O210 O 0.52681 0.05391 0.53389
 C211 C 0.54094 0.03968 0.55688
 C212 C 0.45469 -0.05141 0.55078
 C213 C 0.43938 0.03470 0.54005
 C214 C 0.54650 -0.07333 0.53904
 O215 O 0.55738 -0.03013 0.48052
 O216 O 0.44801 0.00806 0.45410
 O217 O 0.51708 0.05146 0.47115
 O218 O 0.46722 -0.08029 0.49420
 O219 O 0.45485 -0.04464 0.46135
 O220 O 0.55865 0.02627 0.49210
 O221 O 0.51524 -0.05674 0.46551
 O222 O 0.45766 0.05158 0.47788
 Co223 Co 0.54587 -0.00913 0.51657
 Co224 Co 0.44664 -0.01493 0.49113
 Co225 Co 0.49252 0.04514 0.50562
 Co226 Co 0.50058 -0.05384 0.50711
 O227 O 0.49501 -0.00651 0.50396
 C228 C 0.54318 -0.04765 0.45998
 C229 C 0.44641 0.03690 0.45370
 C230 C 0.54649 0.04607 0.47179
 C231 C 0.45285 -0.07299 0.46833
 O232 O 0.54929 0.52773 0.03327
 O233 O 0.44425 0.48102 0.02143
 O234 O 0.48109 0.57137 0.01527
 O235 O 0.52660 0.42978 0.00487
 O236 O 0.43853 0.53904 0.00912
 O237 O 0.54836 0.47183 0.02723
 O238 O 0.49183 0.46485 0.03607
 O239 O 0.53987 0.56916 0.00539
 C240 C 0.55053 0.55680 0.03129
 C241 C 0.46313 0.46884 0.04271
 C242 C 0.45267 0.56335 0.02174
 C243 C 0.54926 0.44214 0.02377
 O244 O 0.55736 0.47910 -0.03803
 O245 O 0.44136 0.52491 -0.05500
 O246 O 0.52454 0.55691 -0.05702
 O247 O 0.46737 0.43770 -0.01395
 O248 O 0.44822 0.47191 -0.04554
 O249 O 0.56452 0.53502 -0.03141
 O250 O 0.51154 0.45749 -0.04945
 O251 O 0.46789 0.56790 -0.04598
 Co252 Co 0.54998 0.50401 -0.00328
 Co253 Co 0.44783 0.50436 -0.01665
 Co254 Co 0.50333 0.56097 -0.01991
 Co255 Co 0.50280 0.46321 -0.00685
 O256 O 0.49888 0.51015 -0.01291
 C257 C 0.53948 0.46335 -0.05735
 C258 C 0.44592 0.55311 -0.06103
 C259 C 0.55231 0.54701 -0.05717
 C260 C 0.44961 0.44368 -0.03802
 C261 C 1.16034 0.18614 0.18280
 C262 C 1.16404 0.15719 0.16681
 C263 C 1.19418 0.14245 0.17091
 C264 C 1.21998 0.15733 0.18838
 C265 C 1.21615 0.18636 0.20363
 C266 C 1.18581 0.20019 0.20108
 C267 C 1.19847 0.11288 0.15753
 C268 C 1.17328 0.09715 0.14087
 C269 C 1.14293 0.11096 0.13584
 C270 C 1.13878 0.14214 0.14742
 C271 C 1.10999 0.15753 0.13833
 C272 C 1.08596 0.14279 0.11883
 C273 C 1.08896 0.11170 0.10890
 C274 C 1.11700 0.09501 0.11843
 C275 C 1.11785 0.06281 0.11047
 C276 C 1.09301 0.04847 0.09186
 C277 C 1.06643 0.06557 0.08020
 C278 C 1.06426 0.09718 0.08926
 H279 H 1.13774 0.19801 0.18253
 H280 H 1.24316 0.14624 0.18981
 H281 H 1.18144 0.22188 0.21365
 H282 H 1.22149 0.10154 0.16033
 H283 H 1.17877 0.07457 0.13096
 H284 H 1.10591 0.18160 0.14478
 H285 H 1.06465 0.15578 0.11173
 H286 H 1.13717 0.04788 0.11875
 H287 H 1.09516 0.02384 0.08588
 H288 H 1.04349 0.11045 0.08099
 C289 C 1.14030 0.69033 0.68832
 C290 C 1.15014 0.66224 0.67373
 C291 C 1.18169 0.65205 0.68171
 C292 C 1.20287 0.67031 0.70169
 C293 C 1.19291 0.69815 0.71597
 C294 C 1.16126 0.70773 0.70925
 C295 C 1.19211 0.62363 0.66973
 C296 C 1.17168 0.60458 0.65047
 C297 C 1.14021 0.61384 0.64134
 C298 C 1.12980 0.64381 0.65180
 C299 C 1.10000 0.65477 0.63905
 C300 C 1.08115 0.63711 0.61668
 C301 C 1.09047 0.60728 0.60734
 C302 C 1.11941 0.59466 0.62077
 C303 C 1.12635 0.56324 0.61307
 C304 C 1.10673 0.54610 0.59092
 C305 C 1.07973 0.55966 0.57548
 C306 C 1.07128 0.59007 0.58429
 H307 H 1.11625 0.69895 0.68483
 H308 H 1.22737 0.66273 0.70584
 H309 H 1.15238 0.72858 0.72054
 H310 H 1.21629 0.61580 0.67561
 H311 H 1.18181 0.58324 0.64185
 H312 H 1.09125 0.67765 0.64477
 H313 H 1.05895 0.64686 0.60672
 H314 H 1.14656 0.55110 0.62407
 H315 H 1.11341 0.52237 0.58505
 H316 H 1.04992 0.60040 0.57304
 C317 C 0.67102 0.18057 0.65739
 C318 C 0.65421 0.15281 0.66656
 C319 C 0.66151 0.13990 0.69801
 C320 C 0.68304 0.15572 0.72008
 C321 C 0.69854 0.18397 0.71097
 C322 C 0.69281 0.19564 0.67914
 C323 C 0.64728 0.11129 0.70722
 C324 C 0.62661 0.09474 0.68556
 C325 C 0.61836 0.10683 0.65411
 C326 C 0.63106 0.13713 0.64524
 C327 C 0.61970 0.15112 0.61567
 C328 C 0.59808 0.13535 0.59453
 C329 C 0.58752 0.10478 0.60154
 C330 C 0.59760 0.08987 0.63128
 C331 C 0.58729 0.05824 0.63632
 C332 C 0.56826 0.04220 0.61256
 C333 C 0.55836 0.05727 0.58340
 C334 C 0.56753 0.08878 0.57841
 H335 H 0.66858 0.19077 0.63322
 H336 H 0.68733 0.14620 0.74450
 H337 H 0.70547 0.21656 0.67076
 H338 H 0.65258 0.10130 0.73127
 H339 H 0.61670 0.07284 0.69456
 H340 H 0.62647 0.17474 0.60852
 H341 H 0.59009 0.14701 0.57205
 H342 H 0.59458 0.04482 0.65772
 H343 H 0.56166 0.01774 0.61682
 H344 H 0.56039 0.10049 0.55567
 C345 C 0.67369 0.62061 0.20582
 C346 C 0.66152 0.63299 0.17561
 C347 C 0.67066 0.66439 0.16758
 C348 C 0.69212 0.68182 0.18829
 C349 C 0.70448 0.66900 0.21783
 C350 C 0.69466 0.63834 0.22644
 C351 C 0.65857 0.67827 0.13877
 C352 C 0.63744 0.66184 0.11761
 C353 C 0.62790 0.63036 0.12405
 C354 C 0.64072 0.61543 0.15315
 C355 C 0.63301 0.58326 0.15833
 C356 C 0.61368 0.56620 0.13590
 C357 C 0.60057 0.58052 0.10774
 C358 C 0.60676 0.61299 0.10180
 C359 C 0.59157 0.62668 0.07367
 C360 C 0.57270 0.60852 0.05162
 C361 C 0.56808 0.57611 0.05667
 C362 C 0.58163 0.56237 0.08520
 H363 H 0.66714 0.59744 0.21453
 H364 H 0.69963 0.70534 0.18095
 H365 H 0.70299 0.62799 0.24946
 H366 H 0.66550 0.70225 0.13247
 H367 H 0.62973 0.67436 0.09578
 H368 H 0.64235 0.57018 0.17915
 H369 H 0.60901 0.54140 0.14067
 H370 H 0.59362 0.65140 0.06795
 H371 H 0.56211 0.61994 0.03011
 H372 H 0.57788 0.53738 0.08965
 C373 C 0.85371 -0.15737 0.21183
 C374 C 0.84801 -0.12969 0.19328
 C375 C 0.81767 -0.11559 0.19588
 C376 C 0.79326 -0.13040 0.21382
 C377 C 0.79862 -0.15898 0.23045
 C378 C 0.82960 -0.17147 0.23016
 C379 C 0.81156 -0.08710 0.17997
 C380 C 0.83467 -0.07236 0.16122
 C381 C 0.86471 -0.08612 0.15659
 C382 C 0.87117 -0.11568 0.17214
 C383 C 0.89977 -0.13095 0.16471
 C384 C 0.92086 -0.11822 0.14222
 C385 C 0.91508 -0.08920 0.12712
 C386 C 0.88769 -0.07210 0.13539
 C387 C 0.88405 -0.04182 0.12147
 C388 C 0.90446 -0.03068 0.09767
 C389 C 0.92954 -0.04888 0.08695
 C390 C 0.93573 -0.07763 0.10287
 H391 H 0.87672 -0.16851 0.21298
 H392 H 0.76973 -0.12007 0.21380
 H393 H 0.83535 -0.19254 0.24403
 H394 H 0.78851 -0.07606 0.18189
 H395 H 0.82754 -0.05080 0.14926
 H396 H 0.90575 -0.15372 0.17469
 H397 H 0.94178 -0.13143 0.13635
 H398 H 0.86545 -0.02621 0.12820
 H399 H 0.89979 -0.00795 0.08659
 H400 H 0.95533 -0.09176 0.09512
 C401 C 0.80337 0.39613 0.67353
 C402 C 0.83254 0.38261 0.66531
 C403 C 0.83844 0.35154 0.67627
 C404 C 0.81690 0.33579 0.69676
 C405 C 0.78833 0.34996 0.70602
 C406 C 0.78183 0.38015 0.69321
 C407 C 0.86585 0.33634 0.66671
 C408 C 0.88707 0.35101 0.64570
 C409 C 0.88233 0.38211 0.63442
 C410 C 0.85551 0.39865 0.64585
 C411 C 0.85285 0.43092 0.63811
 C412 C 0.87443 0.44611 0.61816
 C413 C 0.89914 0.42970 0.60466
 C414 C 0.90359 0.39747 0.61239
 C415 C 0.92859 0.38192 0.59697
 C416 C 0.94783 0.39777 0.57455
 C417 C 0.94304 0.42958 0.56718
 C418 C 0.91904 0.44544 0.58289
 H419 H 0.79582 0.41865 0.66410
 H420 H 0.82342 0.31287 0.70623
 H421 H 0.75934 0.39148 0.69701
 H422 H 0.87068 0.31257 0.67507
 H423 H 0.90752 0.33761 0.63937
 H424 H 0.83469 0.44541 0.64782
 H425 H 0.87134 0.47091 0.61275
 H426 H 0.93317 0.35729 0.60083
 H427 H 0.96621 0.38500 0.56264
 H428 H 0.91498 0.47005 0.57728
 C429 C 0.29028 -0.08756 0.68001
 C430 C 0.32295 -0.09621 0.67949
 C431 C 0.33317 -0.12066 0.70099
 C432 C 0.31136 -0.13576 0.72171
 C433 C 0.27876 -0.12775 0.72096
 C434 C 0.26871 -0.10316 0.70024
 C435 C 0.36489 -0.13057 0.70111
 C436 C 0.38649 -0.11782 0.67930
 C437 C 0.37736 -0.09413 0.65660
 C438 C 0.34543 -0.08227 0.65763
 C439 C 0.33690 -0.05715 0.63645
 C440 C 0.35782 -0.04544 0.61358
 C441 C 0.38809 -0.05818 0.61072
 C442 C 0.39878 -0.08223 0.63249
 C443 C 0.43007 -0.09389 0.62835
 C444 C 0.44901 -0.08306 0.60277
 C445 C 0.43743 -0.06037 0.58058
 C446 C 0.40734 -0.04743 0.58542
 H447 H 0.28019 -0.06961 0.66423
 H448 H 0.31972 -0.15437 0.73800
 H449 H 0.24370 -0.09667 0.69861
 H450 H 0.37295 -0.14903 0.71775
 H451 H 0.41031 -0.12720 0.68078
 H452 H 0.31401 -0.04594 0.63681
 H453 H 0.34988 -0.02656 0.59740
 H454 H 0.44028 -0.11203 0.64382
 H455 H 0.47223 -0.09335 0.59963
 H456 H 0.39834 -0.02940 0.56872
 C457 C 0.31657 0.40811 0.18366
 C458 C 0.34762 0.39921 0.17510
 C459 C 0.35879 0.36995 0.18721
 C460 C 0.33900 0.35009 0.20581
 C461 C 0.30768 0.35869 0.21330
 C462 C 0.29719 0.38835 0.20229
 C463 C 0.38960 0.36038 0.18044
 C464 C 0.40928 0.37863 0.16087
 C465 C 0.39877 0.40728 0.14685
 C466 C 0.36754 0.41792 0.15439
 C467 C 0.35685 0.44638 0.14006
 C468 C 0.37496 0.46283 0.11764
 C469 C 0.40472 0.45205 0.10897
 C470 C 0.41780 0.42492 0.12437
 C471 C 0.44892 0.41609 0.11557
 C472 C 0.46476 0.43182 0.09052
 C473 C 0.45022 0.45681 0.07358
 C474 C 0.42084 0.46761 0.08388
 H475 H 0.30613 0.43004 0.17603
 H476 H 0.34867 0.32818 0.21515
 H477 H 0.27313 0.39606 0.20635
 H478 H 0.39848 0.33820 0.18997
 H479 H 0.43238 0.36906 0.15643
 H480 H 0.33397 0.45626 0.14480
 H481 H 0.36519 0.48393 0.10638
 H482 H 0.46138 0.39668 0.12693
 H483 H 0.48768 0.42327 0.08321
 H484 H 0.40971 0.48736 0.07126
 C485 C 0.81211 0.18629 -0.14419
 C486 C 0.82841 0.15867 -0.15192
 C487 C 0.82126 0.14494 -0.18295
 C488 C 0.79993 0.15942 -0.20572
 C489 C 0.78469 0.18731 -0.19793
 C490 C 0.79068 0.20020 -0.16677
 C491 C 0.83544 0.11684 -0.19114
 C492 C 0.85599 0.10153 -0.16893
 C493 C 0.86392 0.11421 -0.13771
 C494 C 0.85101 0.14395 -0.12968
 C495 C 0.86148 0.15822 -0.09992
 C496 C 0.88254 0.14335 -0.07797
 C497 C 0.89361 0.11344 -0.08440
 C498 C 0.88447 0.09830 -0.11428
 C499 C 0.89555 0.06746 -0.11894
 C500 C 0.91433 0.05234 -0.09473
 C501 C 0.92311 0.06747 -0.06530
 C502 C 0.91321 0.09830 -0.06062
 H503 H 0.81475 0.19741 -0.12063
 H504 H 0.79558 0.14915 -0.22972
 H505 H 0.77847 0.22111 -0.15959
 H506 H 0.83027 0.10630 -0.21489
 H507 H 0.86587 0.07999 -0.17730
 H508 H 0.85428 0.18134 -0.09305
 H509 H 0.88977 0.15520 -0.05537
 H510 H 0.88922 0.05388 -0.14048
 H511 H 0.92156 0.02843 -0.09888
 H512 H 0.91960 0.11010 -0.03776
 C513 C 0.85400 0.67613 0.32462
 C514 C 0.85122 0.64412 0.33387
 C515 C 0.82397 0.62683 0.32139
 C516 C 0.79962 0.64172 0.30247
 C517 C 0.80182 0.67407 0.29436
 C518 C 0.83004 0.69061 0.30529
 C519 C 0.82082 0.59471 0.32820
 C520 C 0.84415 0.57926 0.34706
 C521 C 0.87136 0.59555 0.36085
 C522 C 0.87447 0.62871 0.35495
 C523 C 0.90000 0.64551 0.37129
 C524 C 0.92158 0.63057 0.39280
 C525 C 0.91929 0.59817 0.39823
 C526 C 0.89484 0.58001 0.38147
 C527 C 0.89484 0.54698 0.38625
 C528 C 0.91669 0.53302 0.40840
 C529 C 0.93934 0.55131 0.42664
 C530 C 0.94098 0.58387 0.42086
 H531 H 0.87485 0.69056 0.33128
 H532 H 0.77834 0.62787 0.29552
 H533 H 0.83468 0.71479 0.29824
 H534 H 0.80004 0.58127 0.31877
 H535 H 0.83946 0.55458 0.35144
 H536 H 0.90325 0.67064 0.36899
 H537 H 0.94024 0.64462 0.40541
 H538 H 0.87836 0.53119 0.37317
 H539 H 0.91518 0.50773 0.41188
 H540 H 0.95882 0.59818 0.43437
 C541 C 0.36441 0.18003 0.31288
 C542 C 0.35687 0.14941 0.32425
 C543 C 0.32832 0.13465 0.31132
 C544 C 0.30701 0.15108 0.29017
 C545 C 0.31379 0.18235 0.28013
 C546 C 0.34353 0.19592 0.29123
 C547 C 0.32078 0.10360 0.31995
 C548 C 0.34107 0.08675 0.34103
 C549 C 0.36931 0.10071 0.35539
 C550 C 0.37670 0.13293 0.34783
 C551 C 0.40280 0.14796 0.36510
 C552 C 0.42106 0.13208 0.38893
 C553 C 0.41485 0.10036 0.39571
 C554 C 0.38967 0.08390 0.37815
 C555 C 0.38595 0.05120 0.38411
 C556 C 0.40509 0.03606 0.40789
 C557 C 0.42840 0.05291 0.42675
 C558 C 0.43350 0.08501 0.42023
 H559 H 0.38676 0.19210 0.31961
 H560 H 0.28445 0.13944 0.28313
 H561 H 0.35165 0.21877 0.28266
 H562 H 0.29895 0.09209 0.31019
 H563 H 0.33314 0.06309 0.34674
 H564 H 0.40890 0.17252 0.36175
 H565 H 0.44033 0.14481 0.40215
 H566 H 0.36876 0.03653 0.37050
 H567 H 0.40105 0.01110 0.41207
 H568 H 0.45204 0.09803 0.43422
 C569 C 0.33951 0.70195 -0.17588
 C570 C 0.33508 0.67013 -0.16626
 C571 C 0.30538 0.65513 -0.17541
 C572 C 0.28118 0.67158 -0.19269
 C573 C 0.28585 0.70312 -0.20285
 C574 C 0.31551 0.71796 -0.19375
 C575 C 0.29975 0.62361 -0.16733
 C576 C 0.32321 0.60625 -0.15091
 C577 C 0.35329 0.61994 -0.14120
 C578 C 0.35900 0.65266 -0.14808
 C579 C 0.38807 0.66689 -0.13595
 C580 C 0.41066 0.64990 -0.11762
 C581 C 0.40571 0.61789 -0.11130
 C582 C 0.37743 0.60220 -0.12382
 C583 C 0.37445 0.56935 -0.11823
 C584 C 0.39740 0.55339 -0.09907
 C585 C 0.42425 0.56942 -0.08496
 C586 C 0.42866 0.60158 -0.09192
 H587 H 0.36164 0.71500 -0.17085
 H588 H 0.25826 0.65953 -0.19720
 H589 H 0.32130 0.74169 -0.20164
 H590 H 0.27694 0.61205 -0.17406
 H591 H 0.31656 0.58221 -0.14538
 H592 H 0.39375 0.69152 -0.13937
 H593 H 0.43228 0.66203 -0.10821
 H594 H 0.35470 0.55518 -0.12829
 H595 H 0.39358 0.52844 -0.09462
 H596 H 0.44959 0.61418 -0.08155
 C597 C 1.12187 -0.14147 -0.19639
 C598 C 1.12499 -0.11260 -0.17947
 C599 C 1.15395 -0.09478 -0.18281
 C600 C 1.17957 -0.10689 -0.19986
 C601 C 1.17684 -0.13652 -0.21480
 C602 C 1.14721 -0.15299 -0.21379
 C603 C 1.15754 -0.06522 -0.16845
 C604 C 1.13337 -0.05310 -0.15022
 C605 C 1.10477 -0.07057 -0.14465
 C606 C 1.10071 -0.10105 -0.15904
 C607 C 1.07341 -0.11958 -0.15110
 C608 C 1.05156 -0.10927 -0.12887
 C609 C 1.05530 -0.07970 -0.11444
 C610 C 1.08107 -0.05934 -0.12346
 C611 C 1.08266 -0.02883 -0.10992
 C612 C 1.06221 -0.02051 -0.08554
 C613 C 1.03901 -0.04183 -0.07417
 C614 C 1.03444 -0.07088 -0.08986
 H615 H 1.10003 -0.15562 -0.19689
 H616 H 1.20207 -0.09358 -0.20043
 H617 H 1.14350 -0.17517 -0.22639
 H618 H 1.17948 -0.05133 -0.17107
 H619 H 1.13863 -0.03043 -0.13944
 H620 H 1.06908 -0.14300 -0.16042
 H621 H 1.03181 -0.12490 -0.12246
 H622 H 1.09987 -0.01101 -0.11709
 H623 H 1.06555 0.00241 -0.07435
 H624 H 1.01633 -0.08742 -0.08137
 C625 C 1.16523 0.33790 0.31320
 C626 C 1.17234 0.36444 0.33311
 C627 C 1.20228 0.38042 0.32929
 C628 C 1.22469 0.36902 0.30797
 C629 C 1.21764 0.34226 0.28900
 C630 C 1.18747 0.32718 0.29147
 C631 C 1.20993 0.40761 0.34698
 C632 C 1.18820 0.41993 0.36785
 C633 C 1.15810 0.40494 0.37258
 C634 C 1.15073 0.37588 0.35631
 C635 C 1.12255 0.35890 0.36451
 C636 C 1.10199 0.37024 0.38744
 C637 C 1.10793 0.39949 0.40202
 C638 C 1.13557 0.41766 0.39390
 C639 C 1.13929 0.44822 0.40695
 C640 C 1.11743 0.45957 0.42838
 C641 C 1.09115 0.44095 0.43789
 C642 C 1.08637 0.41088 0.42455
 H643 H 1.14243 0.32535 0.31331
 H644 H 1.24798 0.38080 0.30665
 H645 H 1.18088 0.30702 0.27640
 H646 H 1.23292 0.41973 0.34444
 H647 H 1.19629 0.44072 0.38098
 H648 H 1.11631 0.33610 0.35444
 H649 H 1.08097 0.35616 0.39343
 H650 H 1.15836 0.46436 0.40041
 H651 H 1.12146 0.48312 0.43790
 H652 H 1.06564 0.39666 0.43121
 C653 C 0.63936 -0.16352 0.31066
 C654 C 0.64496 -0.13567 0.32898
 C655 C 0.67568 -0.12070 0.32715
 C656 C 0.70020 -0.13442 0.30967
 C657 C 0.69474 -0.16285 0.29280
 C658 C 0.66369 -0.17663 0.29288
 C659 C 0.68204 -0.09232 0.34325
 C660 C 0.65878 -0.07843 0.36136
 C661 C 0.62815 -0.09284 0.36494
 C662 C 0.62136 -0.12231 0.34913
 C663 C 0.59179 -0.13797 0.35512
 C664 C 0.57001 -0.12570 0.37636
 C665 C 0.57616 -0.09687 0.39178
 C666 C 0.60474 -0.07946 0.38517
 C667 C 0.60898 -0.04948 0.39963
 C668 C 0.58761 -0.03881 0.42212
 C669 C 0.56088 -0.05718 0.43094
 C670 C 0.55450 -0.08575 0.41463
 H671 H 0.61629 -0.17559 0.30923
 H672 H 0.72387 -0.12325 0.31009
 H673 H 0.65799 -0.19781 0.27909
 H674 H 0.70542 -0.08067 0.34197
 H675 H 0.66614 -0.05687 0.37344
 H676 H 0.58532 -0.16058 0.34475
 H677 H 0.54819 -0.13914 0.38100
 H678 H 0.62876 -0.03370 0.39433
 H679 H 0.59269 -0.01626 0.43357
 H680 H 0.53372 -0.10006 0.42093
 C681 C 0.69322 0.40311 -0.18224
 C682 C 0.66027 0.39502 -0.17950
 C683 C 0.64870 0.36648 -0.19392
 C684 C 0.66923 0.34775 -0.21154
 C685 C 0.70167 0.35654 -0.21451
 C686 C 0.71342 0.38416 -0.19935
 C687 C 0.61681 0.35664 -0.19040
 C688 C 0.59641 0.37381 -0.17168
 C689 C 0.60694 0.40212 -0.15640
 C690 C 0.63884 0.41371 -0.16193
 C691 C 0.64833 0.44361 -0.14970
 C692 C 0.62868 0.46026 -0.12995
 C693 C 0.59892 0.44776 -0.12151
 C694 C 0.58703 0.41900 -0.13520
 C695 C 0.55639 0.40775 -0.12572
 C696 C 0.53965 0.42331 -0.10192
 C697 C 0.55282 0.45051 -0.08712
 C698 C 0.58169 0.46334 -0.09817
 H699 H 0.70445 0.42345 -0.17061
 H700 H 0.65987 0.32638 -0.22314
 H701 H 0.73859 0.39100 -0.20033
 H702 H 0.60770 0.33500 -0.20161
 H703 H 0.57233 0.36432 -0.16983
 H704 H 0.67095 0.45495 -0.15504
 H705 H 0.63736 0.48274 -0.12032
 H706 H 0.54540 0.38624 -0.13498
 H707 H 0.51726 0.41305 -0.09379
 H708 H 0.59179 0.48471 -0.08714
 C709 C 1.17699 0.13939 -0.17079
 C710 C 1.14788 0.14677 -0.15639
 C711 C 1.13292 0.17497 -0.16678
 C712 C 1.14705 0.19511 -0.18966
 C713 C 1.17627 0.18796 -0.20363
 C714 C 1.19080 0.15952 -0.19383
 C715 C 1.10398 0.18344 -0.15396
 C716 C 1.08890 0.16416 -0.13166
 C717 C 1.10232 0.13547 -0.12094
 C718 C 1.13295 0.12722 -0.13231
 C719 C 1.14772 0.10019 -0.11866
 C720 C 1.13288 0.08176 -0.09495
 C721 C 1.10231 0.08880 -0.08475
 C722 C 1.08634 0.11526 -0.09849
 C723 C 1.05456 0.12028 -0.08969
 C724 C 1.04000 0.10119 -0.06683
 C725 C 1.05615 0.07596 -0.05168
 C726 C 1.08739 0.06959 -0.06104
 H727 H 1.18940 0.11790 -0.16528
 H728 H 1.13557 0.21722 -0.19516
 H729 H 1.21248 0.15184 -0.20470
 H730 H 1.09270 0.20527 -0.16135
 H731 H 1.06706 0.17308 -0.12247
 H732 H 1.17126 0.09310 -0.12519
 H733 H 1.14535 0.06158 -0.08479
 H734 H 1.03978 0.13834 -0.10057
 H735 H 1.01558 0.10656 -0.06106
 H736 H 1.09995 0.04981 -0.05010
 C737 C 1.11238 0.66214 0.28506
 C738 C 1.12747 0.64699 0.31232
 C739 C 1.16101 0.65194 0.31742
 C740 C 1.17798 0.67289 0.29758
 C741 C 1.16266 0.68916 0.27131
 C742 C 1.12962 0.68270 0.26505
 C743 C 1.17762 0.63664 0.34294
 C744 C 1.16163 0.61678 0.36407
 C745 C 1.12800 0.61193 0.36101
 C746 C 1.11052 0.62758 0.33497
 C747 C 1.07664 0.62444 0.33335
 C748 C 1.06032 0.60735 0.35681
 C749 C 1.07705 0.59205 0.38231
 C750 C 1.11114 0.59313 0.38411
 C751 C 1.12695 0.57572 0.40942
 C752 C 1.10964 0.56012 0.43325
 C753 C 1.07607 0.56097 0.43258
 C754 C 1.05982 0.57620 0.40650
 H755 H 1.08732 0.65840 0.27824
 H756 H 1.20298 0.67767 0.30443
 H757 H 1.11673 0.69284 0.24417
 H758 H 1.20337 0.64027 0.34685
 H759 H 1.17637 0.60658 0.38345
 H760 H 1.06181 0.63598 0.31490
 H761 H 1.03426 0.60639 0.35516
 H762 H 1.15267 0.57361 0.41162
 H763 H 1.12273 0.54772 0.45265
 H764 H 1.03375 0.57634 0.40540
 C765 C 0.60551 0.19471 0.32925
 C766 C 0.61759 0.16576 0.34131
 C767 C 0.64722 0.15580 0.32968
 C768 C 0.66313 0.17362 0.30594
 C769 C 0.65064 0.20213 0.29408
 C770 C 0.62181 0.21247 0.30615
 C771 C 0.66096 0.12825 0.34195
 C772 C 0.64619 0.11045 0.36598
 C773 C 0.61645 0.11909 0.37810
 C774 C 0.60147 0.14669 0.36476
 C775 C 0.57053 0.15400 0.37473
 C776 C 0.55496 0.13554 0.39740
 C777 C 0.56963 0.10931 0.41142
 C778 C 0.60071 0.10074 0.40255
 C779 C 0.61453 0.07426 0.41873
 C780 C 0.59754 0.05668 0.44184
 C781 C 0.56632 0.06479 0.44920
 C782 C 0.55289 0.09144 0.43415
 H783 H 0.58400 0.20489 0.33778
 H784 H 0.68535 0.16520 0.29669
 H785 H 0.61209 0.23484 0.29832
 H786 H 0.68363 0.12051 0.33312
 H787 H 0.65839 0.08953 0.37406
 H788 H 0.55710 0.17345 0.36480
 H789 H 0.53104 0.14194 0.40403
 H790 H 0.63847 0.06669 0.41432
 H791 H 0.60868 0.03654 0.45360
 H792 H 0.52897 0.09849 0.44011
 C793 C 0.69729 0.64169 -0.17659
 C794 C 0.66709 0.62659 -0.18266
 C795 C 0.64990 0.63415 -0.21223
 C796 C 0.66239 0.65634 -0.23429
 C797 C 0.69201 0.67213 -0.22748
 C798 C 0.70934 0.66389 -0.19840
 C799 C 0.61987 0.62008 -0.21936
 C800 C 0.60533 0.60058 -0.19666
 C801 C 0.62049 0.59418 -0.16584
 C802 C 0.65270 0.60565 -0.15963
 C803 C 0.66902 0.59653 -0.13018
 C804 C 0.65331 0.57981 -0.10604
 C805 C 0.62080 0.57168 -0.11018
 C806 C 0.60413 0.57781 -0.14052
 C807 C 0.57112 0.56920 -0.14341
 C808 C 0.55500 0.55758 -0.11659
 C809 C 0.57117 0.55355 -0.08621
 C810 C 0.60442 0.55902 -0.08353
 H811 H 0.71170 0.63803 -0.15445
 H812 H 0.64889 0.66090 -0.25699
 H813 H 0.73157 0.67595 -0.19092
 H814 H 0.60692 0.62504 -0.24231
 H815 H 0.58194 0.59109 -0.20399
 H816 H 0.69400 0.60229 -0.12479
 H817 H 0.66646 0.57438 -0.08332
 H818 H 0.55654 0.57270 -0.16545
 H819 H 0.52934 0.55283 -0.11933
 H820 H 0.61708 0.55569 -0.06008
 C821 C 0.84404 -0.15571 -0.20089
 C822 C 0.86113 -0.16409 -0.17151
 C823 C 0.86772 -0.19640 -0.16621
 C824 C 0.85856 -0.21889 -0.18987
 C825 C 0.84152 -0.21013 -0.21848
 C826 C 0.83415 -0.17853 -0.22380
 C827 C 0.88296 -0.20630 -0.13711
 C828 C 0.89126 -0.18498 -0.11258
 C829 C 0.88532 -0.15257 -0.11655
 C830 C 0.87135 -0.14173 -0.14702
 C831 C 0.86887 -0.10895 -0.15223
 C832 C 0.87986 -0.08750 -0.12857
 C833 C 0.89263 -0.09780 -0.09839
 C834 C 0.89429 -0.13051 -0.09149
 C835 C 0.90511 -0.13982 -0.05973
 C836 C 0.91700 -0.11774 -0.03715
 C837 C 0.91820 -0.08568 -0.04520
 C838 C 0.90472 -0.07565 -0.07535
 H839 H 0.83699 -0.13196 -0.20640
 H840 H 0.86352 -0.24355 -0.18547
 H841 H 0.82044 -0.17155 -0.24567
 H842 H 0.88824 -0.23093 -0.13306
 H843 H 0.90343 -0.19458 -0.09111
 H844 H 0.85972 -0.09901 -0.17498
 H845 H 0.87841 -0.06255 -0.13402
 H846 H 0.90478 -0.16399 -0.05156
 H847 H 0.92627 -0.12597 -0.01352
 H848 H 0.90499 -0.05077 -0.08151
 C849 C 0.82352 0.34274 0.32177
 C850 C 0.85439 0.33710 0.33609
 C851 C 0.86873 0.30813 0.32911
 C852 C 0.85192 0.28526 0.31013
 C853 C 0.82121 0.29109 0.29630
 C854 C 0.80744 0.32022 0.30212
 C855 C 0.89987 0.30209 0.34096
 C856 C 0.91748 0.32445 0.35913
 C857 C 0.90416 0.35348 0.36716
 C858 C 0.87162 0.35932 0.35669
 C859 C 0.85709 0.38664 0.36802
 C860 C 0.87376 0.40758 0.38879
 C861 C 0.90585 0.40279 0.39819
 C862 C 0.92190 0.37632 0.38651
 C863 C 0.95510 0.37383 0.39477
 C864 C 0.97090 0.39538 0.41574
 C865 C 0.95421 0.42001 0.42924
 C866 C 0.92187 0.42404 0.41974
 H867 H 0.81155 0.36472 0.32436
 H868 H 0.86291 0.26283 0.30621
 H869 H 0.78432 0.32606 0.29086
 H870 H 0.91093 0.27993 0.33582
 H871 H 0.94120 0.31772 0.36765
 H872 H 0.83227 0.39188 0.36236
 H873 H 0.86137 0.42779 0.39758
 H874 H 0.96960 0.35563 0.38527
 H875 H 0.99611 0.39210 0.42222
 H876 H 0.90900 0.44351 0.42953
 C877 C 0.34423 -0.16463 0.29972
 C878 C 0.36564 -0.17377 0.32575
 C879 C 0.37159 -0.20635 0.32975
 C880 C 0.35699 -0.22849 0.30819
 C881 C 0.33544 -0.21894 0.28308
 C882 C 0.32933 -0.18692 0.27896
 C883 C 0.39153 -0.21678 0.35564
 C884 C 0.40497 -0.19576 0.37845
 C885 C 0.39945 -0.16315 0.37593
 C886 C 0.38059 -0.15185 0.34837
 C887 C 0.37747 -0.11903 0.34425
 C888 C 0.39131 -0.09798 0.36673
 C889 C 0.40837 -0.10867 0.39451
 C890 C 0.41247 -0.14138 0.39981
 C891 C 0.42906 -0.15086 0.42911
 C892 C 0.44166 -0.12871 0.45151
 C893 C 0.43825 -0.09648 0.44552
 C894 C 0.42142 -0.08665 0.41704
 H895 H 0.33762 -0.14058 0.29527
 H896 H 0.36136 -0.25337 0.31175
 H897 H 0.31265 -0.17911 0.25967
 H898 H 0.39639 -0.24161 0.35865
 H899 H 0.42009 -0.20586 0.39760
 H900 H 0.36491 -0.10866 0.32344
 H901 H 0.38836 -0.07298 0.36244
 H902 H 0.43233 -0.17518 0.43576
 H903 H 0.45437 -0.13688 0.47351
 H904 H 0.41842 -0.06170 0.41238
 C905 C 0.34171 0.33976 -0.19934
 C906 C 0.36839 0.33448 -0.17767
 C907 C 0.38196 0.30417 -0.17749
 C908 C 0.36938 0.28046 -0.19870
 C909 C 0.34149 0.28548 -0.21855
 C910 C 0.32843 0.31572 -0.21893
 C911 C 0.40717 0.29728 -0.15518
 C912 C 0.41815 0.31923 -0.13196
 C913 C 0.40503 0.34954 -0.13083
 C914 C 0.38113 0.35786 -0.15533
 C915 C 0.37081 0.38929 -0.15674
 C916 C 0.38242 0.41151 -0.13423
 C917 C 0.40409 0.40325 -0.10889
 C918 C 0.41535 0.37203 -0.10641
 C919 C 0.43602 0.36458 -0.07918
 C920 C 0.44602 0.38751 -0.05637
 C921 C 0.43605 0.41866 -0.05994
 C922 C 0.41477 0.42622 -0.08612
 H923 H 0.32949 0.36180 -0.20074
 H924 H 0.37967 0.25726 -0.19742
 H925 H 0.30773 0.32112 -0.23475
 H926 H 0.41792 0.27430 -0.15499
 H927 H 0.43753 0.31196 -0.11553
 H928 H 0.35431 0.39779 -0.17560
 H929 H 0.37398 0.43540 -0.13649
 H930 H 0.44452 0.34114 -0.07456
 H931 H 0.46221 0.38086 -0.03621
 H932 H 0.40663 0.45019 -0.08895
 C933 C 1.16400 -0.15958 0.18368
 C934 C 1.13492 -0.16579 0.16555
 C935 C 1.12155 -0.19672 0.16690
 C936 C 1.13624 -0.21993 0.18656
 C937 C 1.16555 -0.21373 0.20398
 C938 C 1.17907 -0.18312 0.20219
 C939 C 1.09393 -0.20465 0.14801
 C940 C 1.07991 -0.18288 0.12673
 C941 C 1.09248 -0.15185 0.12425
 C942 C 1.11924 -0.14266 0.14539
 C943 C 1.12910 -0.11063 0.14598
 C944 C 1.11402 -0.08852 0.12582
 C945 C 1.08934 -0.09757 0.10352
 C946 C 1.07872 -0.12950 0.10183
 C947 C 1.05518 -0.13784 0.07726
 C948 C 1.04185 -0.11515 0.05633
 C949 C 1.05124 -0.08344 0.05933
 C950 C 1.07518 -0.07480 0.08283
 H951 H 1.17634 -0.13701 0.18330
 H952 H 1.12577 -0.24353 0.18631
 H953 H 1.20109 -0.17681 0.21585
 H954 H 1.08337 -0.22819 0.14916
 H955 H 1.05856 -0.19087 0.11313
 H956 H 1.14785 -0.10166 0.16258
 H957 H 1.12211 -0.06411 0.12739
 H958 H 1.04705 -0.16179 0.07307
 H959 H 1.02371 -0.12250 0.03803
 H960 H 1.08294 -0.05032 0.08488
 C961 C 1.11883 0.28671 0.68055
 C962 C 1.13012 0.31774 0.67406
 C963 C 1.16082 0.32690 0.68752
 C964 C 1.17860 0.30613 0.70769
 C965 C 1.16713 0.27538 0.71383
 C966 C 1.13712 0.26598 0.69988
 C967 C 1.17386 0.35661 0.68044
 C968 C 1.15770 0.37708 0.65918
 C969 C 1.12719 0.36899 0.64489
 C970 C 1.11245 0.33957 0.65392
 C971 C 1.08043 0.33311 0.64282
 C972 C 1.06393 0.35382 0.62221
 C973 C 1.07886 0.38138 0.61111
 C974 C 1.11076 0.38938 0.62204
 C975 C 1.12518 0.41695 0.60873
 C976 C 1.10863 0.43537 0.58538
 C977 C 1.07708 0.42731 0.57497
 C978 C 1.06216 0.40059 0.58846
 H979 H 1.09649 0.27728 0.67005
 H980 H 1.20159 0.31400 0.71851
 H981 H 1.12795 0.24216 0.70319
 H982 H 1.19720 0.36388 0.69090
 H983 H 1.16951 0.39949 0.65496
 H984 H 1.06711 0.31240 0.65025
 H985 H 1.03939 0.34781 0.61425
 H986 H 1.14962 0.42429 0.61489
 H987 H 1.12070 0.45582 0.57515
 H988 H 1.03785 0.39392 0.58025
 C989 C 0.62525 -0.23332 0.65915
 C990 C 0.63357 -0.20148 0.65246
 C991 C 0.66109 -0.18843 0.66926
 C992 C 0.68047 -0.20715 0.68997
 C993 C 0.67304 -0.23926 0.69515
 C994 C 0.64452 -0.25171 0.68016
 C995 C 0.66944 -0.15672 0.66521
 C996 C 0.65110 -0.13749 0.64468
 C997 C 0.62388 -0.14942 0.62667
 C998 C 0.61551 -0.18216 0.62990
 C999 C 0.59000 -0.19468 0.60980
 C1000 C 0.57287 -0.17585 0.58773
 C1001 C 0.57992 -0.14372 0.58523
 C1002 C 0.60513 -0.12984 0.60501
 C1003 C 0.61022 -0.09682 0.60247
 C1004 C 0.59135 -0.07870 0.58091
 C1005 C 0.56706 -0.09276 0.56097
 C1006 C 0.56158 -0.12533 0.56315
 H1007 H 0.60394 -0.24479 0.64863
 H1008 H 0.70102 -0.19612 0.70281
 H1009 H 0.63765 -0.27626 0.68308
 H1010 H 0.69049 -0.14661 0.67807
 H1011 H 0.65959 -0.11344 0.64273
 H1012 H 0.58317 -0.21928 0.60986
 H1013 H 0.55367 -0.18658 0.57258
 H1014 H 0.62803 -0.08408 0.61731
 H1015 H 0.59575 -0.05348 0.57997
 H1016 H 0.54247 -0.13641 0.54817
 C1017 C 0.61077 0.28240 0.15417
 C1018 C 0.62068 0.31400 0.14805
 C1019 C 0.64574 0.32707 0.16860
 C1020 C 0.66080 0.30881 0.19321
 C1021 C 0.65126 0.27740 0.19831
 C1022 C 0.62587 0.26451 0.17891
 C1023 C 0.65583 0.35829 0.16453
 C1024 C 0.64141 0.37721 0.14065
 C1025 C 0.61643 0.36548 0.11938
 C1026 C 0.60648 0.33311 0.12256
 C1027 C 0.58302 0.32082 0.09989
 C1028 C 0.56901 0.33960 0.07560
 C1029 C 0.57742 0.37143 0.07307
 C1030 C 0.60115 0.38498 0.09490
 C1031 C 0.60807 0.41766 0.09162
 C1032 C 0.59180 0.43591 0.06801
 C1033 C 0.56835 0.42230 0.04673
 C1034 C 0.56167 0.38992 0.04906
 H1035 H 0.59130 0.27079 0.14051
 H1036 H 0.68000 0.31917 0.20866
 H1037 H 0.61803 0.24027 0.18247
 H1038 H 0.67509 0.36832 0.18014
 H1039 H 0.65089 0.40094 0.13921
 H1040 H 0.57516 0.29650 0.09991
 H1041 H 0.55104 0.32910 0.05880
 H1042 H 0.62528 0.43014 0.10738
 H1043 H 0.59728 0.46093 0.06679
 H1044 H 0.54340 0.37914 0.03282
 C1045 C 0.86901 0.20071 0.17619
 C1046 C 0.85829 0.16992 0.16764
 C1047 C 0.82828 0.15911 0.17888
 C1048 C 0.81129 0.17758 0.20027
 C1049 C 0.82279 0.20777 0.20942
 C1050 C 0.85144 0.21926 0.19648
 C1051 C 0.81538 0.13000 0.16861
 C1052 C 0.83140 0.11162 0.14681
 C1053 C 0.86184 0.12101 0.13576
 C1054 C 0.87614 0.14986 0.14782
 C1055 C 0.90825 0.15731 0.14066
 C1056 C 0.92546 0.13798 0.12122
 C1057 C 0.91113 0.11102 0.10738
 C1058 C 0.87899 0.10224 0.11377
 C1059 C 0.86540 0.07544 0.09731
 C1060 C 0.88339 0.05812 0.07578
 C1061 C 0.91554 0.06652 0.07080
 C1062 C 0.92905 0.09298 0.08687
 H1063 H 0.89034 0.21160 0.16663
 H1064 H 0.78915 0.16822 0.20991
 H1065 H 0.86023 0.24297 0.20157
 H1066 H 0.79237 0.12158 0.17707
 H1067 H 0.81990 0.08951 0.13995
 H1068 H 0.92126 0.17743 0.15082
 H1069 H 0.95022 0.14450 0.11662
 H1070 H 0.84070 0.06794 0.09979
 H1071 H 0.87217 0.03820 0.06306
 H1072 H 0.95369 0.10032 0.08273
 C1073 C 0.90736 0.68909 0.67902
 C1074 C 0.89721 0.65784 0.67162
 C1075 C 0.86746 0.64689 0.68348
 C1076 C 0.84935 0.66633 0.70275
 C1077 C 0.85899 0.69774 0.70866
 C1078 C 0.88837 0.70871 0.69690
 C1079 C 0.85536 0.61699 0.67513
 C1080 C 0.87110 0.59844 0.65340
 C1081 C 0.90038 0.60865 0.64027
 C1082 C 0.91479 0.63770 0.65154
 C1083 C 0.94627 0.64562 0.64243
 C1084 C 0.96226 0.62694 0.62111
 C1085 C 0.94713 0.60033 0.60726
 C1086 C 0.91588 0.59080 0.61634
 C1087 C 0.90101 0.56459 0.60004
 C1088 C 0.91668 0.54873 0.57573
 C1089 C 0.94774 0.55809 0.56749
 C1090 C 0.96295 0.58360 0.58374
 H1091 H 0.92897 0.69968 0.66977
 H1092 H 0.82713 0.65709 0.71232
 H1093 H 0.89624 0.73296 0.70034
 H1094 H 0.83282 0.60830 0.68452
 H1095 H 0.86007 0.57580 0.64778
 H1096 H 0.95950 0.66587 0.65200
 H1097 H 0.98641 0.63395 0.61465
 H1098 H 0.87684 0.55659 0.60460
 H1099 H 0.90445 0.52919 0.56328
 H1100 H 0.98689 0.59127 0.57719
 C1101 C 0.38508 0.15109 0.70781
 C1102 C 0.37041 0.13902 0.67837
 C1103 C 0.34028 0.15120 0.66798
 C1104 C 0.32610 0.17474 0.68594
 C1105 C 0.34076 0.18633 0.71514
 C1106 C 0.37042 0.17426 0.72579
 C1107 C 0.32434 0.14003 0.63956
 C1108 C 0.33780 0.11725 0.62066
 C1109 C 0.36817 0.10487 0.62920
 C1110 C 0.38471 0.11583 0.65863
 C1111 C 0.41535 0.10386 0.66685
 C1112 C 0.43015 0.08340 0.64631
 C1113 C 0.41489 0.07353 0.61705
 C1114 C 0.38323 0.08299 0.60853
 C1115 C 0.36860 0.07092 0.57902
 C1116 C 0.38597 0.05297 0.55758
 C1117 C 0.41816 0.04637 0.56504
 C1118 C 0.43188 0.05539 0.59551
 H1119 H 0.40777 0.14305 0.71786
 H1120 H 0.30352 0.18432 0.67681
 H1121 H 0.38218 0.18239 0.74840
 H1122 H 0.30117 0.14919 0.63166
 H1123 H 0.32399 0.11040 0.59891
 H1124 H 0.42914 0.11056 0.68865
 H1125 H 0.45421 0.07578 0.65309
 H1126 H 0.34414 0.07566 0.57128
 H1127 H 0.37479 0.04589 0.53430
 H1128 H 0.45668 0.04968 0.60172
 C1129 C 0.33488 0.63644 0.18267
 C1130 C 0.36095 0.64636 0.16361
 C1131 C 0.37351 0.67740 0.16851
 C1132 C 0.35988 0.69760 0.19069
 C1133 C 0.33327 0.68786 0.20821
 C1134 C 0.32129 0.65694 0.20446
 C1135 C 0.39918 0.68857 0.15073
 C1136 C 0.41206 0.67017 0.12707
 C1137 C 0.39960 0.63965 0.12004
 C1138 C 0.37445 0.62703 0.13939
 C1139 C 0.36359 0.59569 0.13366
 C1140 C 0.37645 0.57749 0.10954
 C1141 C 0.40017 0.58985 0.08973
 C1142 C 0.41178 0.62126 0.09445
 C1143 C 0.43492 0.63319 0.07299
 C1144 C 0.44719 0.61429 0.04926
 C1145 C 0.43670 0.58295 0.04548
 C1146 C 0.41262 0.57095 0.06531
 H1147 H 0.32386 0.61331 0.18081
 H1148 H 0.36908 0.72160 0.19307
 H1149 H 0.30094 0.64871 0.21808
 H1150 H 0.40923 0.71205 0.15484
 H1151 H 0.43211 0.68068 0.11491
 H1152 H 0.34527 0.58431 0.14767
 H1153 H 0.36752 0.55350 0.10621
 H1154 H 0.44400 0.65710 0.07355
 H1155 H 0.46525 0.62440 0.03370
 H1156 H 0.40419 0.54676 0.06234
   
