data_POSCAR
  _audit_creation_date              2014-09-24
  _audit_creation_method            'ToBaCCo'
  _symmetry_space_group_name_H-M    'P1'
  _symmetry_Int_Tables_number       1
  _symmetry_cell_setting            triclinic
  loop_
  _symmetry_equiv_pos_as_xyz
 x,y,z
_cell_length_a 15.8196
_cell_length_b 16.4015
_cell_length_c 15.9810
_cell_angle_alpha 95.535300
_cell_angle_beta 85.250900
_cell_angle_gamma 88.850400
loop_
  _atom_site_label
  _atom_site_type_symbol
  _atom_site_fract_x
  _atom_site_fract_y
  _atom_site_fract_z
C1 C 0.37065 0.94694 -0.62438
 C2 C 0.42912 0.93170 -0.69590
 C3 C 0.51701 0.94268 -0.69091
 C4 C 0.54304 0.98187 -0.61443
 C5 C 0.48782 0.98223 -0.54020
 C6 C 0.40361 0.95728 -0.54495
 C7 C 0.35660 0.94145 -0.47060
 C8 C 0.38375 0.96798 -0.39244
 C9 C 0.46100 1.00832 -0.38686
 C10 C 0.51655 1.00805 -0.46084
 C11 C 0.62044 1.02223 -0.60872
 C12 C 0.64759 1.04923 -0.53048
 C13 C 0.60038 1.03424 -0.45580
 C14 C 0.63203 1.04772 -0.37566
 C15 C 0.57258 1.06250 -0.30490
 C16 C 0.48592 1.04821 -0.31073
 H17 H 0.29943 0.90705 -0.47311
 H18 H 0.34518 0.95289 -0.33761
 H19 H 0.65884 1.03736 -0.66376
 H20 H 0.70432 1.08438 -0.52838
 H21 H 0.40522 0.91483 -0.75644
 H22 H 0.59424 1.08213 -0.24385
 C23 C -0.63130 1.38376 0.07449
 C24 C -0.57446 1.31640 0.06973
 C25 C -0.48880 1.32022 0.03925
 C26 C -0.45920 1.39455 0.01030
 C27 C -0.51437 1.46478 0.01805
 C28 C -0.59859 1.46057 0.05565
 C29 C -0.64542 1.53401 0.07740
 C30 C -0.61736 1.60721 0.04958
 C31 C -0.53983 1.61085 0.00014
 C32 C -0.48499 1.53986 -0.01099
 C33 C -0.37596 1.40127 -0.02566
 C34 C -0.34604 1.47501 -0.04931
 C35 C -0.39966 1.54456 -0.04671
 C36 C -0.36983 1.62040 -0.07208
 C37 C -0.42721 1.68747 -0.06511
 C38 C -0.51193 1.68494 -0.03118
 H39 H -0.70254 1.53658 0.11969
 H40 H -0.65588 1.66122 0.07150
 H41 H -0.33116 1.35051 -0.03627
 H42 H -0.27935 1.47536 -0.06748
 H43 H -0.59799 1.25900 0.08896
 H44 H -0.40496 1.74249 -0.09095
 C45 C -0.06918 0.32287 0.48959
 C46 C -0.05986 0.31031 0.57469
 C47 C -0.03067 0.37074 0.63284
 C48 C -0.00114 0.44488 0.60307
 C49 C -0.01126 0.46076 0.51858
 C50 C -0.04769 0.40090 0.46249
 C51 C -0.06453 0.42273 0.38232
 C52 C -0.03760 0.49619 0.35423
 C53 C 0.00619 0.55234 0.40531
 C54 C 0.01616 0.53664 0.48972
 C55 C 0.04553 0.50010 0.65262
 C56 C 0.07240 0.57355 0.62451
 C57 C 0.05445 0.59588 0.54496
 C58 C 0.07859 0.67295 0.51688
 C59 C 0.07113 0.68429 0.43106
 C60 C 0.03755 0.62505 0.37495
 H61 H -0.10099 0.38500 0.34048
 H62 H -0.05331 0.50906 0.29218
 H63 H 0.06582 0.48568 0.71248
 H64 H 0.11116 0.61016 0.66506
 H65 H -0.07576 0.25210 0.59740
 H66 H 0.08959 0.74095 0.40635
 O67 O -0.17140 0.98801 -0.15423
 O68 O 0.22747 1.07271 -0.04379
 O69 O 0.01396 1.14999 -0.16954
 O70 O 0.08705 0.94238 -0.23098
 O71 O 0.08776 0.82098 -0.16872
 O72 O -0.04728 1.22244 -0.04728
 O73 O 0.16375 1.06663 -0.16874
 O74 O -0.04941 1.02728 -0.22695
 Zr75 Zr 0.03765 1.03168 -0.13478
 O76 O 0.11342 0.96122 -0.07050
 O77 O -0.07463 1.07043 -0.06567
 C78 C -0.12922 1.01156 -0.22022
 C79 C 0.22767 1.07959 -0.12345
 C80 C -0.02125 1.21512 -0.12736
 C81 C 0.09816 0.86354 -0.23342
 H82 H 0.09428 1.15104 -0.04486
 O83 O 0.06330 1.10274 -0.02794
 H84 H -0.04437 0.89710 -0.15987
 O85 O -0.02756 0.92870 -0.10835
 O86 O 0.16990 1.01681 0.16156
 O87 O -0.22648 0.92154 0.04851
 O88 O 0.03853 1.22621 0.08499
 O89 O 0.17753 0.82570 -0.03728
 O90 O -0.04250 0.77109 -0.07960
 O91 O -0.17885 1.17170 0.03932
 O92 O -0.08157 1.05330 0.23736
 O93 O -0.01918 0.84339 0.17282
 O94 O -0.08243 1.17476 0.17505
 O95 O 0.04140 0.77136 0.05013
 O96 O 0.16311 1.15119 0.08806
 O97 O -0.23548 1.05245 -0.01766
 O98 O -0.16630 0.84849 -0.07796
 O99 O 0.23483 0.94548 0.01829
 O100 O 0.04964 0.97167 0.23272
 O101 O -0.16269 0.92311 0.17310
 Zr102 Zr 0.13387 1.03124 0.04011
 Zr103 Zr -0.13466 0.96717 -0.03404
 Zr104 Zr -0.04812 1.13685 0.04495
 Zr105 Zr 0.04659 0.85928 -0.04010
 Zr106 Zr -0.03778 0.96330 0.13998
 O107 O -0.06526 0.89275 0.03274
 O108 O 0.02592 1.06822 0.11472
 C109 C 0.12841 0.99201 0.22715
 C110 C -0.22643 0.91051 0.12724
 C111 C 0.11891 1.21942 0.09552
 C112 C 0.24064 0.86984 -0.01372
 C113 C -0.12320 0.78001 -0.08800
 C114 C -0.24163 1.12816 0.01343
 C115 C -0.09047 1.13232 0.24002
 C116 C 0.01446 0.77788 0.13001
 H117 H -0.16526 1.05159 0.11293
 O118 O -0.11292 1.03506 0.07664
 H119 H 0.11113 0.89357 0.10049
 O120 O 0.07392 0.92677 0.06953
 C121 C 0.28392 0.96059 0.36379
 C122 C 0.21965 0.99184 0.42406
 C123 C 0.15006 1.00324 0.38129
 C124 C 0.17743 0.98170 0.29838
 O125 O 0.25736 0.95605 0.28738
 H126 H 0.22255 1.01103 0.49023
 H127 H 0.08891 1.02967 0.40660
 C128 C -0.42409 0.91198 0.24106
 C129 C -0.44391 0.86427 0.16918
 C130 C -0.36929 0.84979 0.12095
 C131 C -0.30883 0.88862 0.16632
 O132 O -0.34149 0.92484 0.23933
 H133 H -0.50493 0.84285 0.15214
 H134 H -0.36055 0.81893 0.05777
 C135 C -0.28147 1.03775 -0.36164
 C136 C -0.21526 1.00740 -0.41995
 C137 C -0.14677 0.99891 -0.37496
 C138 C -0.17660 1.02117 -0.29275
 O139 O -0.25708 1.04461 -0.28428
 H140 H -0.21614 0.98652 -0.48597
 H141 H -0.08469 0.97336 -0.39829
 C142 C 0.42322 1.08079 -0.24015
 C143 C 0.43941 1.14007 -0.17618
 C144 C 0.36515 1.15213 -0.12659
 C145 C 0.30893 1.10060 -0.16445
 O146 O 0.34348 1.05814 -0.23316
 H147 H 0.49803 1.17094 -0.16621
 H148 H 0.35371 1.19180 -0.06840
 C149 C 0.27586 1.36701 0.09067
 C150 C 0.20843 1.41404 0.06939
 C151 C 0.13807 1.36856 0.08092
 C152 C 0.16692 1.29536 0.10494
 O153 O 0.24993 1.29433 0.11081
 H154 H 0.20971 1.47051 0.03978
 H155 H 0.07532 1.38300 0.06317
 C156 C 0.43530 0.75655 -0.03025
 C157 C 0.46590 0.83489 -0.03532
 C158 C 0.39688 0.88533 -0.03143
 C159 C 0.32811 0.83556 -0.02513
 O160 O 0.35071 0.75732 -0.02496
 H161 H 0.53057 0.85507 -0.03758
 H162 H 0.39665 0.95135 -0.03165
 C163 C -0.28429 0.63764 -0.09691
 C164 C -0.22172 0.58807 -0.14406
 C165 C -0.14997 0.63390 -0.14703
 C166 C -0.17481 0.70823 -0.10420
 O167 O -0.25532 0.71092 -0.07558
 H168 H -0.22773 0.52815 -0.17734
 H169 H -0.08838 0.61681 -0.17913
 C170 C -0.43494 1.24349 0.03333
 C171 C -0.46652 1.16611 0.01777
 C172 C -0.39833 1.11403 0.00989
 C173 C -0.32922 1.16253 0.02190
 O174 O -0.35127 1.24103 0.03786
 H175 H -0.53124 1.14910 0.01034
 H176 H -0.39884 1.04815 -0.00439
 C177 C -0.09653 1.25627 0.43468
 C178 C -0.13758 1.18824 0.46179
 C179 C -0.14414 1.13607 0.39155
 C180 C -0.10854 1.17502 0.32552
 O181 O -0.07895 1.24756 0.35114
 H182 H -0.16015 1.17646 0.52508
 H183 H -0.16855 1.07483 0.38873
 C184 C -0.03239 1.35356 -0.28165
 C185 C -0.04965 1.40946 -0.21126
 C186 C -0.04897 1.36535 -0.14300
 C187 C -0.03157 1.28568 -0.17633
 O188 O -0.02309 1.27817 -0.25989
 H189 H -0.06447 1.47412 -0.20964
 H190 H -0.05985 1.38841 -0.07714
 C191 C 0.10624 0.73953 -0.42825
 C192 C 0.14680 0.80786 -0.45520
 C193 C 0.15335 0.85993 -0.38474
 C194 C 0.11814 0.82070 -0.31874
 O195 O 0.08875 0.74812 -0.34467
 H196 H 0.16859 0.82016 -0.51852
 H197 H 0.17706 0.92146 -0.38183
 C198 C 0.03677 0.64215 0.28499
 C199 C 0.06778 0.58932 0.21611
 C200 C 0.06101 0.63180 0.14729
 C201 C 0.02692 0.70761 0.17921
 O202 O 0.01312 0.71420 0.26259
 H203 H 0.09438 0.52804 0.21639
 H204 H 0.08090 0.61095 0.08218
   
