data_POSCAR
  _audit_creation_date              2014-09-24
  _audit_creation_method            'ToBaCCo'
  _symmetry_space_group_name_H-M    'P1'
  _symmetry_Int_Tables_number       1
  _symmetry_cell_setting            triclinic
  loop_
  _symmetry_equiv_pos_as_xyz
 x,y,z
_cell_length_a 47.5681
_cell_length_b 47.5684
_cell_length_c 45.1528
_cell_angle_alpha 89.966500
_cell_angle_beta 89.967700
_cell_angle_gamma 90.096700
loop_
  _atom_site_label
  _atom_site_type_symbol
  _atom_site_fract_x
  _atom_site_fract_y
  _atom_site_fract_z
O1 O -0.02799 0.28588 0.02772
 O2 O 0.02838 0.28596 -0.02820
 O3 O -0.02635 0.28560 -0.02993
 O4 O 0.02673 0.28565 0.02945
 O5 O 0.02667 0.23915 0.02942
 O6 O -0.02634 0.23911 -0.02989
 O7 O 0.02839 0.23948 -0.02823
 O8 O -0.02805 0.23938 0.02776
 Cu9 Cu 0.00019 0.29047 -0.00024
 Cu10 Cu 0.00017 0.23459 -0.00023
 C11 C -0.03754 0.26263 0.03719
 C12 C 0.03790 0.26276 -0.03767
 C13 C -0.03530 0.26233 -0.03992
 C14 C 0.03566 0.26238 0.03945
 O15 O 0.52838 0.78542 0.47196
 O16 O 0.47233 0.78550 0.52821
 O17 O 0.52708 0.78505 0.52963
 O18 O 0.47363 0.78520 0.47054
 O19 O 0.47350 0.73870 0.47058
 O20 O 0.52687 0.73856 0.52959
 O21 O 0.47212 0.73901 0.52825
 O22 O 0.52825 0.73892 0.47192
 Cu23 Cu 0.50037 0.78998 0.50009
 Cu24 Cu 0.50016 0.73411 0.50009
 C25 C 0.53778 0.76218 0.46244
 C26 C 0.46275 0.76229 0.53773
 C27 C 0.53600 0.76176 0.53957
 C28 C 0.46455 0.76195 0.46060
 O29 O 0.97216 0.71503 -0.02917
 O30 O 1.02832 0.71490 0.02694
 O31 O 0.97358 0.71532 0.02850
 O32 O 1.02690 0.71521 -0.03074
 O33 O 1.02704 0.76170 -0.03072
 O34 O 0.97379 0.76181 0.02844
 O35 O 1.02853 0.76139 0.02695
 O36 O 0.97230 0.76151 -0.02922
 Cu37 Cu 1.00022 0.71043 -0.00112
 Cu38 Cu 1.00044 0.76629 -0.00114
 C39 C 0.96273 0.73827 -0.03868
 C40 C 1.03791 0.73810 0.03643
 C41 C 0.96469 0.73860 0.03846
 C42 C 1.03598 0.73846 -0.04073
 O43 O 0.52759 0.21364 0.52845
 O44 O 0.47145 0.21342 0.47239
 O45 O 0.52618 0.21392 0.47080
 O46 O 0.47286 0.21381 0.53006
 O47 O 0.47284 0.26030 0.52994
 O48 O 0.52608 0.26041 0.47076
 O49 O 0.47135 0.25991 0.47228
 O50 O 0.52757 0.26014 0.52841
 Cu51 Cu 0.49952 0.20900 0.50043
 Cu52 Cu 0.49945 0.26488 0.50034
 C53 C 0.53706 0.23690 0.53789
 C54 C 0.46192 0.23660 0.46286
 C55 C 0.53513 0.23721 0.46080
 C56 C 0.46385 0.23707 0.53999
 O57 O 0.71412 0.02774 -0.02765
 O58 O 0.71405 -0.02862 0.02828
 O59 O 0.71434 0.02611 0.03000
 O60 O 0.71443 -0.02698 -0.02938
 O61 O 0.76093 -0.02686 -0.02929
 O62 O 0.76083 0.02616 0.03001
 O63 O 0.76054 -0.02857 0.02836
 O64 O 0.76061 0.02786 -0.02764
 Cu65 Cu 0.70954 -0.00045 0.00031
 Cu66 Cu 0.76542 -0.00035 0.00036
 C67 C 0.73736 0.03731 -0.03709
 C68 C 0.73726 -0.03811 0.03777
 C69 C 0.73759 0.03509 0.04001
 C70 C 0.73772 -0.03587 -0.03935
 O71 O 0.21445 0.52773 0.47207
 O72 O 0.21450 0.47169 0.52834
 O73 O 0.21475 0.52644 0.52975
 O74 O 0.21486 0.47298 0.47066
 O75 O 0.26135 0.47316 0.47070
 O76 O 0.26124 0.52655 0.52971
 O77 O 0.26099 0.47180 0.52837
 O78 O 0.26094 0.52792 0.47203
 Cu79 Cu 0.20995 0.49970 0.50020
 Cu80 Cu 0.26582 0.49987 0.50020
 C81 C 0.23766 0.53729 0.46254
 C82 C 0.23773 0.46228 0.53786
 C83 C 0.23800 0.53552 0.53969
 C84 C 0.23815 0.46405 0.46073
 O85 O 0.28500 1.02901 0.02821
 O86 O 0.28504 0.97283 -0.02788
 O87 O 0.28462 1.02758 -0.02946
 O88 O 0.28483 0.97426 0.02979
 O89 O 0.23834 0.97412 0.02985
 O90 O 0.23814 1.02736 -0.02932
 O91 O 0.23855 0.97262 -0.02781
 O92 O 0.23851 1.02886 0.02835
 Cu93 Cu 0.28956 1.00094 0.00015
 Cu94 Cu 0.23370 1.00072 0.00027
 C95 C 0.26177 1.03842 0.03777
 C96 C 0.26183 0.96323 -0.03732
 C97 C 0.26132 1.03647 -0.03939
 C98 C 0.26160 0.96520 0.03981
 O99 O 0.78654 0.52831 0.52767
 O100 O 0.78623 0.47216 0.47163
 O101 O 0.78611 0.52689 0.47001
 O102 O 0.78598 0.47358 0.52929
 O103 O 0.73949 0.47373 0.52935
 O104 O 0.73961 0.52695 0.47016
 O105 O 0.73973 0.47223 0.47170
 O106 O 0.74004 0.52846 0.52782
 Cu107 Cu 0.79091 0.50023 0.49964
 Cu108 Cu 0.73503 0.50036 0.49977
 C109 C 0.76337 0.53787 0.53721
 C110 C 0.76295 0.46271 0.46221
 C111 C 0.76286 0.53591 0.46009
 C112 C 0.76269 0.46466 0.53930
 C113 C 0.23960 0.25949 0.25024
 C114 C 0.25972 0.23910 0.25008
 C115 C 0.26119 0.21766 0.22618
 C116 C 0.28125 0.23722 0.27381
 C117 C 0.23982 0.28265 0.27232
 C118 C 0.21630 0.25967 0.22836
 C119 C 0.26116 0.18896 0.23349
 C120 C 0.26185 0.16859 0.21122
 C121 C 0.26281 0.17667 0.18141
 C122 C 0.26342 0.20525 0.17398
 C123 C 0.26276 0.22566 0.19624
 C124 C 0.27336 0.23549 0.30377
 C125 C 0.29386 0.23461 0.32593
 C126 C 0.32240 0.23515 0.31835
 C127 C 0.33037 0.23621 0.28851
 C128 C 0.30990 0.23712 0.26635
 C129 C 0.26354 0.30001 0.27579
 C130 C 0.26352 0.32150 0.29691
 C131 C 0.23971 0.32604 0.31453
 C132 C 0.21586 0.30915 0.31078
 C133 C 0.21586 0.28764 0.28972
 C134 C 0.21156 0.28373 0.21105
 C135 C 0.19001 0.28404 0.19005
 C136 C 0.17283 0.26038 0.18632
 C137 C 0.17709 0.23650 0.20388
 C138 C 0.19864 0.23618 0.22492
 H139 H 0.26012 0.18237 0.25643
 H140 H 0.26145 0.14653 0.21723
 H141 H 0.26430 0.21175 0.15099
 H142 H 0.26334 0.24768 0.19016
 H143 H 0.25136 0.23501 0.30995
 H144 H 0.28746 0.23365 0.34894
 H145 H 0.31639 0.23828 0.24338
 H146 H 0.28203 0.29686 0.26220
 H147 H 0.28205 0.33454 0.29952
 H148 H 0.19730 0.31251 0.32424
 H149 H 0.19731 0.27461 0.28724
 H150 H 0.22484 0.30210 0.21351
 H151 H 0.18684 0.30264 0.17662
 H152 H 0.16384 0.21813 0.20125
 H153 H 0.20161 0.21762 0.23846
 H154 H 0.35240 0.23656 0.28240
 C155 C 0.76036 0.74021 0.24926
 C156 C 0.74003 0.76039 0.24928
 C157 C 0.73831 0.78192 0.22549
 C158 C 0.71851 0.76193 0.27309
 C159 C 0.76042 0.71696 0.27125
 C160 C 0.78360 0.74034 0.22727
 C161 C 0.73817 0.81058 0.23292
 C162 C 0.73731 0.83106 0.21074
 C163 C 0.73635 0.82310 0.18091
 C164 C 0.73588 0.79455 0.17335
 C165 C 0.73671 0.77404 0.19553
 C166 C 0.72640 0.76358 0.30304
 C167 C 0.70591 0.76425 0.32524
 C168 C 0.67736 0.76357 0.31772
 C169 C 0.66938 0.76256 0.28790
 C170 C 0.68984 0.76186 0.26569
 C171 C 0.73689 0.69934 0.27471
 C172 C 0.73713 0.67781 0.29581
 C173 C 0.76097 0.67351 0.31340
 C174 C 0.78466 0.69064 0.30964
 C175 C 0.78444 0.71218 0.28860
 C176 C 0.78854 0.71637 0.20990
 C177 C 0.81008 0.71631 0.18885
 C178 C 0.82704 0.74013 0.18510
 C179 C 0.82256 0.76393 0.20270
 C180 C 0.80104 0.76401 0.22381
 H181 H 0.73922 0.81707 0.25589
 H182 H 0.73760 0.85308 0.21683
 H183 H 0.73500 0.78816 0.15035
 H184 H 0.73626 0.75205 0.18937
 H185 H 0.74840 0.76419 0.30918
 H186 H 0.71232 0.76517 0.34824
 H187 H 0.68334 0.76077 0.24273
 H188 H 0.71836 0.70234 0.26114
 H189 H 0.71873 0.66459 0.29844
 H190 H 0.80324 0.68745 0.32309
 H191 H 0.80284 0.72542 0.28612
 H192 H 0.77545 0.69787 0.21237
 H193 H 0.81341 0.69776 0.17539
 H194 H 0.83565 0.78243 0.20008
 H195 H 0.79791 0.78250 0.23738
 H196 H 0.64735 0.76211 0.28183
 C197 C 0.73967 0.23959 0.25021
 C198 C 0.75994 0.25989 0.25005
 C199 C 0.78144 0.26149 0.22621
 C200 C 0.76165 0.28148 0.27374
 C201 C 0.71646 0.23964 0.27224
 C202 C 0.73966 0.21626 0.22836
 C203 C 0.81011 0.26167 0.23359
 C204 C 0.83055 0.26248 0.21136
 C205 C 0.82255 0.26334 0.18154
 C206 C 0.79399 0.26375 0.17404
 C207 C 0.77352 0.26297 0.19626
 C208 C 0.76335 0.27368 0.30372
 C209 C 0.76417 0.29424 0.32582
 C210 C 0.76359 0.32276 0.31815
 C211 C 0.76253 0.33065 0.28830
 C212 C 0.76167 0.31012 0.26619
 C213 C 0.69896 0.26321 0.27562
 C214 C 0.67742 0.26305 0.29671
 C215 C 0.67300 0.23925 0.31439
 C216 C 0.69003 0.21554 0.31074
 C217 C 0.71158 0.21568 0.28970
 C218 C 0.71565 0.21129 0.21104
 C219 C 0.71548 0.18968 0.19011
 C220 C 0.73922 0.17267 0.18645
 C221 C 0.76305 0.17717 0.20402
 C222 C 0.76324 0.19878 0.22500
 H223 H 0.81663 0.26070 0.25654
 H224 H 0.85259 0.26223 0.21742
 H225 H 0.78757 0.26456 0.15104
 H226 H 0.75151 0.26339 0.19013
 H227 H 0.76389 0.25170 0.30996
 H228 H 0.76514 0.28791 0.34884
 H229 H 0.76054 0.31654 0.24321
 H230 H 0.70203 0.28169 0.26197
 H231 H 0.66427 0.28146 0.29926
 H232 H 0.68675 0.19699 0.32425
 H233 H 0.72472 0.19725 0.28729
 H234 H 0.69722 0.22443 0.21345
 H235 H 0.69691 0.18633 0.17668
 H236 H 0.78148 0.16405 0.20145
 H237 H 0.78175 0.20193 0.23855
 H238 H 0.76214 0.35266 0.28212
 C239 C 0.26007 0.76033 0.25002
 C240 C 0.23981 0.74000 0.24986
 C241 C 0.21834 0.73841 0.22600
 C242 C 0.23810 0.71838 0.27357
 C243 C 0.28328 0.76025 0.27204
 C244 C 0.26006 0.78371 0.22819
 C245 C 0.18965 0.73819 0.23335
 C246 C 0.16925 0.73746 0.21110
 C247 C 0.17730 0.73670 0.18128
 C248 C 0.20588 0.73631 0.17380
 C249 C 0.22631 0.73702 0.19605
 C250 C 0.23640 0.72615 0.30355
 C251 C 0.23564 0.70557 0.32566
 C252 C 0.23626 0.67705 0.31802
 C253 C 0.23729 0.66919 0.28816
 C254 C 0.23809 0.68974 0.26604
 C255 C 0.30077 0.73666 0.27541
 C256 C 0.32228 0.73678 0.29652
 C257 C 0.32669 0.76054 0.31422
 C258 C 0.30968 0.78427 0.31057
 C259 C 0.28816 0.78417 0.28951
 C260 C 0.28406 0.78876 0.21086
 C261 C 0.28419 0.81039 0.18991
 C262 C 0.26042 0.82734 0.18624
 C263 C 0.23659 0.82276 0.20383
 C264 C 0.23644 0.80114 0.22483
 H265 H 0.18309 0.73910 0.25630
 H266 H 0.14721 0.73769 0.21714
 H267 H 0.21235 0.73558 0.15081
 H268 H 0.24833 0.73663 0.18994
 H269 H 0.23585 0.74812 0.30979
 H270 H 0.23469 0.71189 0.34869
 H271 H 0.23922 0.68334 0.24305
 H272 H 0.29770 0.71820 0.26176
 H273 H 0.33541 0.71835 0.29906
 H274 H 0.31295 0.80279 0.32410
 H275 H 0.27503 0.80262 0.28712
 H276 H 0.30253 0.77566 0.21326
 H277 H 0.30276 0.81379 0.17647
 H278 H 0.21812 0.83584 0.20127
 H279 H 0.21792 0.79793 0.23838
 H280 H 0.23770 0.64719 0.28199
 C281 C 0.76023 0.26007 0.74984
 C282 C 0.73993 0.23980 0.75000
 C283 C 0.71833 0.23810 0.72632
 C284 C 0.73834 0.21831 0.77385
 C285 C 0.78356 0.26009 0.77169
 C286 C 0.76018 0.28328 0.72781
 C287 C 0.68970 0.23807 0.73388
 C288 C 0.66916 0.23722 0.71178
 C289 C 0.67704 0.23616 0.68192
 C290 C 0.70556 0.23558 0.67425
 C291 C 0.72613 0.23639 0.69634
 C292 C 0.73685 0.22623 0.80380
 C293 C 0.73609 0.20576 0.82602
 C294 C 0.73652 0.17720 0.81852
 C295 C 0.73738 0.16919 0.78870
 C296 C 0.73817 0.18963 0.76647
 C297 C 0.80105 0.23651 0.77506
 C298 C 0.82265 0.23670 0.79604
 C299 C 0.82714 0.26053 0.81361
 C300 C 0.81014 0.28427 0.80994
 C301 C 0.78853 0.28409 0.78901
 C302 C 0.78414 0.28816 0.71036
 C303 C 0.78429 0.30971 0.68932
 C304 C 0.76058 0.32675 0.68567
 C305 C 0.73678 0.32233 0.70335
 C306 C 0.73661 0.30079 0.72444
 H307 H 0.68328 0.23920 0.75686
 H308 H 0.64715 0.23760 0.71796
 H309 H 0.71188 0.23462 0.65122
 H310 H 0.74810 0.23586 0.69009
 H311 H 0.73642 0.24823 0.80992
 H312 H 0.73528 0.21219 0.84902
 H313 H 0.73914 0.18311 0.74352
 H314 H 0.79790 0.21799 0.76151
 H315 H 0.83578 0.21827 0.79861
 H316 H 0.81348 0.30284 0.82338
 H317 H 0.77538 0.30252 0.78660
 H318 H 0.80257 0.27501 0.71276
 H319 H 0.80284 0.31300 0.67581
 H320 H 0.71837 0.33548 0.70080
 H321 H 0.71813 0.29771 0.73808
 H322 H 0.73764 0.14716 0.78265
 C323 C 0.23952 0.74016 0.75007
 C324 C 0.25980 0.76047 0.75015
 C325 C 0.28143 0.76213 0.72646
 C326 C 0.26133 0.78204 0.77391
 C327 C 0.21616 0.74017 0.77193
 C328 C 0.23962 0.71690 0.72811
 C329 C 0.31006 0.76219 0.73401
 C330 C 0.33063 0.76295 0.71191
 C331 C 0.32279 0.76389 0.68204
 C332 C 0.29428 0.76445 0.67436
 C333 C 0.27368 0.76372 0.69646
 C334 C 0.26277 0.77420 0.80390
 C335 C 0.26346 0.79474 0.82604
 C336 C 0.26302 0.82328 0.81843
 C337 C 0.26222 0.83120 0.78857
 C338 C 0.26149 0.81069 0.76643
 C339 C 0.19866 0.76374 0.77525
 C340 C 0.17707 0.76359 0.79627
 C341 C 0.17258 0.73979 0.81394
 C342 C 0.18960 0.71606 0.81032
 C343 C 0.21120 0.71620 0.78934
 C344 C 0.21569 0.71196 0.71065
 C345 C 0.21562 0.69041 0.68963
 C346 C 0.23937 0.67343 0.68600
 C347 C 0.26313 0.67790 0.70370
 C348 C 0.26322 0.69944 0.72476
 H349 H 0.31645 0.76114 0.75701
 H350 H 0.35263 0.76258 0.71810
 H351 H 0.28798 0.76531 0.65133
 H352 H 0.25171 0.76423 0.69020
 H353 H 0.26321 0.75221 0.81012
 H354 H 0.26423 0.78837 0.84907
 H355 H 0.26056 0.81716 0.74344
 H356 H 0.20180 0.78224 0.76163
 H357 H 0.16393 0.78202 0.79880
 H358 H 0.18627 0.69752 0.82382
 H359 H 0.22435 0.69777 0.78698
 H360 H 0.19724 0.72508 0.71303
 H361 H 0.19710 0.68710 0.67611
 H362 H 0.28158 0.66479 0.70117
 H363 H 0.28168 0.70255 0.73841
 H364 H 0.26195 0.85321 0.78243
 C365 C 0.25966 0.23959 0.75094
 C366 C 0.23949 0.25993 0.75092
 C367 C 0.23796 0.28146 0.72712
 C368 C 0.21795 0.26165 0.77471
 C369 C 0.25954 0.21636 0.77294
 C370 C 0.28291 0.23952 0.72895
 C371 C 0.23804 0.31013 0.73453
 C372 C 0.23734 0.33059 0.71233
 C373 C 0.23632 0.32263 0.68251
 C374 C 0.23564 0.29408 0.67497
 C375 C 0.23630 0.27358 0.69717
 C376 C 0.22582 0.26325 0.80467
 C377 C 0.20531 0.26408 0.82684
 C378 C 0.17676 0.26363 0.81928
 C379 C 0.16881 0.26267 0.78945
 C380 C 0.18930 0.26180 0.76727
 C381 C 0.23587 0.19893 0.77641
 C382 C 0.23594 0.17741 0.79752
 C383 C 0.25975 0.17293 0.81513
 C384 C 0.28356 0.18989 0.81137
 C385 C 0.28351 0.21142 0.79031
 C386 C 0.28767 0.21551 0.71159
 C387 C 0.30920 0.21528 0.69053
 C388 C 0.32634 0.23897 0.68677
 C389 C 0.32205 0.26281 0.70437
 C390 C 0.30053 0.26305 0.72548
 H391 H 0.23914 0.31662 0.75749
 H392 H 0.23780 0.35262 0.71841
 H393 H 0.23471 0.28768 0.65197
 H394 H 0.23568 0.25159 0.69102
 H395 H 0.24781 0.26369 0.81084
 H396 H 0.21169 0.26496 0.84985
 H397 H 0.18282 0.26075 0.74430
 H398 H 0.21737 0.20205 0.76283
 H399 H 0.21744 0.16432 0.80015
 H400 H 0.30211 0.18657 0.82482
 H401 H 0.30201 0.22451 0.78783
 H402 H 0.27442 0.19711 0.71407
 H403 H 0.31237 0.19671 0.67708
 H404 H 0.33528 0.28120 0.70173
 H405 H 0.29755 0.28158 0.73905
 H406 H 0.14679 0.26239 0.78334
 C407 C 0.74088 0.76034 0.74971
 C408 C 0.76131 0.74026 0.74979
 C409 C 0.76314 0.71873 0.72606
 C410 C 0.78284 0.73884 0.77359
 C411 C 0.74070 0.78361 0.77162
 C412 C 0.71766 0.76010 0.72769
 C413 C 0.76329 0.69007 0.73354
 C414 C 0.76416 0.66959 0.71139
 C415 C 0.76511 0.67754 0.68155
 C416 C 0.76560 0.70608 0.67394
 C417 C 0.76476 0.72660 0.69609
 C418 C 0.77497 0.73723 0.80356
 C419 C 0.79548 0.73660 0.82574
 C420 C 0.82403 0.73728 0.81817
 C421 C 0.83199 0.73828 0.78833
 C422 C 0.81151 0.73894 0.76615
 C423 C 0.76415 0.80134 0.77500
 C424 C 0.76382 0.82286 0.79606
 C425 C 0.73997 0.82704 0.81371
 C426 C 0.71636 0.80980 0.81002
 C427 C 0.71667 0.78826 0.78901
 C428 C 0.71260 0.78406 0.71032
 C429 C 0.69105 0.78404 0.68931
 C430 C 0.67418 0.76017 0.68559
 C431 C 0.67878 0.73636 0.70319
 C432 C 0.70033 0.73636 0.72425
 H433 H 0.76222 0.68360 0.75652
 H434 H 0.76385 0.64757 0.71752
 H435 H 0.76647 0.71247 0.65092
 H436 H 0.76520 0.74859 0.68989
 H437 H 0.75298 0.73659 0.80974
 H438 H 0.78908 0.73568 0.84875
 H439 H 0.81801 0.74001 0.74318
 H440 H 0.78268 0.79843 0.76140
 H441 H 0.78216 0.83617 0.79865
 H442 H 0.69778 0.81289 0.82351
 H443 H 0.69834 0.77493 0.78659
 H444 H 0.72562 0.80262 0.71277
 H445 H 0.68763 0.80260 0.67586
 H446 H 0.66576 0.71782 0.70060
 H447 H 0.70353 0.71787 0.73783
 H448 H 0.85401 0.73874 0.78222
 C449 C 0.26183 0.05907 0.05852
 C450 C 0.26200 0.07735 0.07702
 C451 C 0.26229 0.09865 0.09879
 C452 C 0.26254 0.11674 0.11749
 C453 C 0.26278 0.13778 0.13954
 C454 C 0.26289 0.15559 0.15853
 C455 C 0.76358 0.55970 0.55910
 C456 C 0.76390 0.57798 0.57756
 C457 C 0.76434 0.59931 0.59927
 C458 C 0.76471 0.61743 0.61791
 C459 C 0.76506 0.63851 0.63988
 C460 C 0.76520 0.65638 0.65879
 C461 C 0.73716 0.94117 0.05846
 C462 C 0.73697 0.92282 0.07690
 C463 C 0.73667 0.90144 0.09859
 C464 C 0.73643 0.88328 0.11722
 C465 C 0.73622 0.86216 0.13919
 C466 C 0.73617 0.84427 0.15811
 C467 C 0.23765 0.44047 0.55982
 C468 C 0.23743 0.42219 0.57832
 C469 C 0.23708 0.40086 0.60008
 C470 C 0.23677 0.38275 0.61875
 C471 C 0.23645 0.36166 0.64076
 C472 C 0.23629 0.34378 0.65970
 C473 C 0.94056 0.26268 0.05904
 C474 C 0.92221 0.26284 0.07747
 C475 C 0.90083 0.26308 0.09916
 C476 C 0.88267 0.26329 0.11779
 C477 C 0.86156 0.26348 0.13978
 C478 C 0.84369 0.26351 0.15871
 C479 C 0.44093 0.76243 0.55968
 C480 C 0.42263 0.76268 0.57816
 C481 C 0.40128 0.76308 0.59988
 C482 C 0.38312 0.76342 0.61851
 C483 C 0.36198 0.76376 0.64046
 C484 C 0.34404 0.76393 0.65933
 C485 C 0.05972 0.73796 0.05838
 C486 C 0.07798 0.73772 0.07689
 C487 C 0.09928 0.73736 0.09867
 C488 C 0.11735 0.73706 0.11738
 C489 C 0.13839 0.73676 0.13944
 C490 C 0.15621 0.73663 0.15842
 C491 C 0.55892 0.23689 0.55976
 C492 C 0.57723 0.23675 0.57819
 C493 C 0.59860 0.23648 0.59986
 C494 C 0.61676 0.23625 0.61845
 C495 C 0.63790 0.23604 0.64036
 C496 C 0.65582 0.23599 0.65922
 C497 C 0.73730 0.05922 0.94105
 C498 C 0.73713 0.07756 0.92262
 C499 C 0.73686 0.09894 0.90092
 C500 C 0.73663 0.11709 0.88228
 C501 C 0.73643 0.13819 0.86029
 C502 C 0.73637 0.15607 0.84135
 C503 C 0.23754 0.55909 0.44057
 C504 C 0.23731 0.57736 0.42206
 C505 C 0.23694 0.59868 0.40030
 C506 C 0.23662 0.61680 0.38164
 C507 C 0.23631 0.63792 0.35965
 C508 C 0.23617 0.65583 0.34075
 C509 C 0.26193 0.94137 0.94078
 C510 C 0.26214 0.92305 0.92233
 C511 C 0.26246 0.90168 0.90064
 C512 C 0.26273 0.88352 0.88202
 C513 C 0.26300 0.86239 0.86007
 C514 C 0.26311 0.84447 0.84119
 C515 C 0.76293 0.44085 0.44034
 C516 C 0.76306 0.42254 0.42191
 C517 C 0.76330 0.40117 0.40024
 C518 C 0.76352 0.38302 0.38164
 C519 C 0.76372 0.36189 0.35972
 C520 C 0.76376 0.34397 0.34086
 C521 C 0.05863 0.26286 0.94166
 C522 C 0.07698 0.26305 0.92323
 C523 C 0.09838 0.26334 0.90155
 C524 C 0.11655 0.26358 0.88293
 C525 C 0.13768 0.26378 0.86097
 C526 C 0.15559 0.26382 0.84206
 C527 C 0.55959 0.76225 0.44047
 C528 C 0.57785 0.76246 0.42196
 C529 C 0.59917 0.76281 0.40019
 C530 C 0.61728 0.76312 0.38151
 C531 C 0.63835 0.76344 0.35949
 C532 C 0.65622 0.76360 0.34054
 C533 C 0.94205 0.73824 0.94060
 C534 C 0.92374 0.73809 0.92215
 C535 C 0.90236 0.73782 0.90045
 C536 C 0.88422 0.73757 0.88182
 C537 C 0.86309 0.73733 0.85986
 C538 C 0.84520 0.73722 0.84095
 C539 C 0.44011 0.23642 0.44095
 C540 C 0.42184 0.23614 0.42246
 C541 C 0.40055 0.23574 0.40072
 C542 C 0.38246 0.23541 0.38205
 C543 C 0.36140 0.23511 0.36005
 C544 C 0.34354 0.23500 0.34112
 C545 C 0.73786 0.94342 0.93759
 C546 C 0.73813 0.92595 0.91829
 C547 C 0.73857 0.90538 0.89580
 C548 C 0.73898 0.88769 0.87672
 C549 C 0.73945 0.86681 0.85456
 C550 C 0.73976 0.84879 0.83582
 C551 C 0.23829 0.44317 0.43781
 C552 C 0.23854 0.42554 0.41864
 C553 C 0.23893 0.40480 0.39629
 C554 C 0.23926 0.38698 0.37733
 C555 C 0.23959 0.36596 0.35528
 C556 C 0.23975 0.34786 0.33660
 C557 C 0.26117 0.05616 0.93885
 C558 C 0.26092 0.07372 0.91959
 C559 C 0.26054 0.09437 0.89715
 C560 C 0.26021 0.11213 0.87811
 C561 C 0.25989 0.13308 0.85598
 C562 C 0.25973 0.15114 0.83725
 C563 C 0.76279 0.55671 0.43709
 C564 C 0.76257 0.57426 0.41783
 C565 C 0.76218 0.59493 0.39539
 C566 C 0.76180 0.61268 0.37636
 C567 C 0.76139 0.63364 0.35423
 C568 C 0.76112 0.65171 0.33551
 C569 C 0.05567 0.73851 0.93752
 C570 C 0.07323 0.73868 0.91826
 C571 C 0.09390 0.73899 0.89583
 C572 C 0.11167 0.73928 0.87681
 C573 C 0.13266 0.73958 0.85470
 C574 C 0.15075 0.73975 0.83601
 C575 C 0.55596 0.23735 0.43782
 C576 C 0.57354 0.23764 0.41860
 C577 C 0.59425 0.23808 0.39621
 C578 C 0.61205 0.23848 0.37721
 C579 C 0.63306 0.23890 0.35514
 C580 C 0.65116 0.23915 0.33646
 C581 C 0.94396 0.26221 0.93705
 C582 C 0.92644 0.26197 0.91779
 C583 C 0.90581 0.26158 0.89537
 C584 C 0.88805 0.26122 0.87636
 C585 C 0.86708 0.26085 0.85429
 C586 C 0.84899 0.26062 0.83563
 C587 C 0.44368 0.76190 0.43766
 C588 C 0.42608 0.76171 0.41846
 C589 C 0.40537 0.76138 0.39609
 C590 C 0.38757 0.76107 0.37710
 C591 C 0.36658 0.76075 0.35501
 C592 C 0.34850 0.76057 0.33632
 C593 C 0.26158 0.94438 0.06280
 C594 C 0.26143 0.92681 0.08204
 C595 C 0.26115 0.90611 0.10445
 C596 C 0.26089 0.88832 0.12345
 C597 C 0.26060 0.86731 0.14553
 C598 C 0.26045 0.84920 0.16420
 C599 C 0.76253 0.44383 0.56228
 C600 C 0.76224 0.42624 0.58150
 C601 C 0.76178 0.40553 0.60388
 C602 C 0.76137 0.38772 0.62287
 C603 C 0.76094 0.36670 0.64494
 C604 C 0.76068 0.34859 0.66361
 C605 C 0.73766 0.05583 0.06303
 C606 C 0.73787 0.07335 0.08229
 C607 C 0.73823 0.09399 0.10471
 C608 C 0.73856 0.11175 0.12371
 C609 C 0.73892 0.13273 0.14578
 C610 C 0.73913 0.15083 0.16444
 C611 C 0.23806 0.55638 0.56262
 C612 C 0.23826 0.57398 0.58182
 C613 C 0.23859 0.59470 0.60419
 C614 C 0.23889 0.61250 0.62318
 C615 C 0.23921 0.63351 0.64525
 C616 C 0.23937 0.65160 0.66393
 C617 C 0.94387 0.73873 0.06145
 C618 C 0.92631 0.73897 0.08070
 C619 C 0.90564 0.73934 0.10313
 C620 C 0.88788 0.73966 0.12216
 C621 C 0.86691 0.73998 0.14428
 C622 C 0.84884 0.74014 0.16299
 C623 C 0.44306 0.23713 0.56300
 C624 C 0.42551 0.23736 0.58226
 C625 C 0.40486 0.23776 0.60471
 C626 C 0.38711 0.23813 0.62376
 C627 C 0.36617 0.23855 0.64590
 C628 C 0.34812 0.23882 0.66464
 C629 C 0.05637 0.26230 0.06250
 C630 C 0.07385 0.26207 0.08180
 C631 C 0.09443 0.26168 0.10428
 C632 C 0.11213 0.26130 0.12334
 C633 C 0.13303 0.26087 0.14549
 C634 C 0.15106 0.26058 0.16422
 C635 C 0.55689 0.76160 0.56248
 C636 C 0.57452 0.76134 0.58164
 C637 C 0.59529 0.76094 0.60397
 C638 C 0.61313 0.76060 0.62291
 C639 C 0.63418 0.76027 0.64493
 C640 C 0.65232 0.76012 0.66357
   
