data_POSCAR
  _audit_creation_date              2014-09-24
  _audit_creation_method            'ToBaCCo'
  _symmetry_space_group_name_H-M    'P1'
  _symmetry_Int_Tables_number       1
  _symmetry_cell_setting            triclinic
  loop_
  _symmetry_equiv_pos_as_xyz
 x,y,z
_cell_length_a 34.8631
_cell_length_b 34.8616
_cell_length_c 34.3177
_cell_angle_alpha 89.954800
_cell_angle_beta 89.955200
_cell_angle_gamma 89.470400
loop_
  _atom_site_label
  _atom_site_type_symbol
  _atom_site_fract_x
  _atom_site_fract_y
  _atom_site_fract_z
O1 O 0.03594 0.28522 -0.03812
 O2 O -0.03850 0.28518 0.03814
 O3 O 0.03623 0.28564 0.03769
 O4 O -0.03877 0.28490 -0.03775
 O5 O -0.03786 0.22146 -0.03739
 O6 O 0.03712 0.22219 0.03802
 O7 O -0.03757 0.22175 0.03847
 O8 O 0.03681 0.22177 -0.03775
 Cu9 Cu -0.00139 0.29165 -0.00004
 Cu10 Cu -0.00030 0.21538 0.00038
 C11 C 0.04897 0.25348 -0.05075
 C12 C -0.05061 0.25345 0.05117
 C13 C 0.04938 0.25403 0.05052
 C14 C -0.05096 0.25305 -0.05030
 O15 O 0.53688 0.78545 0.46100
 O16 O 0.46244 0.78558 0.53725
 O17 O 0.53722 0.78579 0.53688
 O18 O 0.46211 0.78528 0.46133
 O19 O 0.46287 0.72185 0.46166
 O20 O 0.53795 0.72236 0.53718
 O21 O 0.46321 0.72214 0.53755
 O22 O 0.53760 0.72201 0.46134
 Cu23 Cu 0.49958 0.79193 0.49909
 Cu24 Cu 0.50047 0.71569 0.49947
 C25 C 0.54984 0.75370 0.44835
 C26 C 0.45025 0.75387 0.55025
 C27 C 0.55029 0.75415 0.54975
 C28 C 0.44980 0.75347 0.44876
 O29 O 1.03916 0.71556 0.03722
 O30 O 0.96462 0.71603 -0.03892
 O31 O 1.03937 0.71590 -0.03871
 O32 O 0.96443 0.71551 0.03703
 O33 O 0.96388 0.77895 0.03731
 O34 O 1.03880 0.77933 -0.03841
 O35 O 0.96407 0.77946 -0.03861
 O36 O 1.03858 0.77899 0.03750
 Cu37 Cu 1.00195 0.70935 -0.00088
 Cu38 Cu 1.00127 0.78557 -0.00053
 C39 C 1.05145 0.74722 0.05022
 C40 C 0.95177 0.74783 -0.05162
 C41 C 1.05174 0.74768 -0.05134
 C42 C 0.95153 0.74717 0.04997
 O43 O 0.53741 0.21453 0.53725
 O44 O 0.46305 0.21516 0.46112
 O45 O 0.53776 0.21497 0.46141
 O46 O 0.46274 0.21455 0.53707
 O47 O 0.46224 0.27799 0.53743
 O48 O 0.53723 0.27842 0.46180
 O49 O 0.46256 0.27860 0.46152
 O50 O 0.53688 0.27798 0.53760
 Cu51 Cu 0.50027 0.20839 0.49917
 Cu52 Cu 0.49965 0.28465 0.49962
 C53 C 0.54971 0.24617 0.55025
 C54 C 0.45029 0.24699 0.44845
 C55 C 0.55018 0.24677 0.44887
 C56 C 0.44987 0.24621 0.55007
 O57 O 0.71420 0.03655 -0.03680
 O58 O 0.71459 -0.03793 0.03942
 O59 O 0.71480 0.03679 0.03906
 O60 O 0.71393 -0.03817 -0.03642
 O61 O 0.77738 -0.03894 -0.03698
 O62 O 0.77824 0.03599 0.03847
 O63 O 0.77802 -0.03870 0.03882
 O64 O 0.77764 0.03574 -0.03735
 Cu65 Cu 0.70797 -0.00061 0.00138
 Cu66 Cu 0.78423 -0.00155 0.00068
 C67 C 0.74587 0.04873 -0.04991
 C68 C 0.74638 -0.05092 0.05195
 C69 C 0.74668 0.04906 0.05148
 C70 C 0.74552 -0.05123 -0.04941
 O71 O 0.21408 0.46310 0.53874
 O72 O 0.21385 0.53753 0.46247
 O73 O 0.21370 0.46274 0.46287
 O74 O 0.21420 0.53786 0.53841
 O75 O 0.27763 0.53715 0.53804
 O76 O 0.27713 0.46206 0.46253
 O77 O 0.27728 0.53681 0.46213
 O78 O 0.27752 0.46242 0.53836
 Cu79 Cu 0.20756 0.50039 0.50066
 Cu80 Cu 0.28378 0.49955 0.50022
 C81 C 0.24585 0.45016 0.55137
 C82 C 0.24554 0.54974 0.44945
 C83 C 0.24534 0.44968 0.44999
 C84 C 0.24601 0.55018 0.55098
 O85 O 0.28424 1.03838 0.03878
 O86 O 0.28483 0.96387 -0.03741
 O87 O 0.28498 1.03862 -0.03721
 O88 O 0.28436 0.96364 0.03847
 O89 O 0.22092 0.96425 0.03801
 O90 O 0.22155 1.03922 -0.03766
 O91 O 0.22140 0.96450 -0.03783
 O92 O 0.22081 1.03897 0.03831
 Cu93 Cu 0.29100 1.00109 0.00070
 Cu94 Cu 0.21478 1.00182 0.00016
 C95 C 0.25242 1.05122 0.05144
 C96 C 0.25320 0.95157 -0.05044
 C97 C 0.25337 1.05155 -0.05025
 C98 C 0.25254 0.95126 0.05097
 O99 O 0.78504 0.53649 0.53857
 O100 O 0.78568 0.46213 0.46244
 O101 O 0.78580 0.53684 0.46266
 O102 O 0.78508 0.46181 0.53829
 O103 O 0.72164 0.46245 0.53777
 O104 O 0.72236 0.53746 0.46215
 O105 O 0.72223 0.46279 0.46194
 O106 O 0.72160 0.53711 0.53803
 Cu107 Cu 0.79181 0.49927 0.50054
 Cu108 Cu 0.71555 0.50003 0.49992
 C109 C 0.75320 0.54933 0.55116
 C110 C 0.75405 0.44990 0.44937
 C111 C 0.75419 0.54980 0.44963
 C112 C 0.75323 0.44945 0.55078
 C113 C 0.24959 0.22112 0.22071
 C114 C 0.22086 0.25009 0.22074
 C115 C 0.22107 0.27828 0.24990
 C116 C 0.24937 0.27849 0.27891
 C117 C 0.27842 0.24984 0.27857
 C118 C 0.27806 0.22149 0.24957
 H119 H 0.30021 0.19944 0.24946
 H120 H 0.19893 0.30033 0.25000
 C121 C 0.75163 0.77930 0.22128
 C122 C 0.77942 0.74945 0.22018
 C123 C 0.77841 0.72041 0.24848
 C124 C 0.75081 0.72078 0.27825
 C125 C 0.72299 0.75061 0.27930
 C126 C 0.72401 0.77965 0.25102
 H127 H 0.70231 0.80213 0.25144
 H128 H 0.80011 0.69791 0.24805
 C129 C 0.77917 0.25051 0.22008
 C130 C 0.75186 0.22073 0.22146
 C131 C 0.72443 0.22049 0.25137
 C132 C 0.72314 0.24955 0.27959
 C133 C 0.75050 0.27927 0.27827
 C134 C 0.77791 0.27954 0.24833
 H135 H 0.79926 0.30196 0.24772
 H136 H 0.70306 0.19808 0.25198
 C137 C 0.22101 0.74944 0.21980
 C138 C 0.24829 0.77926 0.22119
 C139 C 0.27566 0.77949 0.25114
 C140 C 0.27695 0.75040 0.27939
 C141 C 0.24963 0.72063 0.27806
 C142 C 0.22228 0.72036 0.24807
 H143 H 0.20096 0.69791 0.24744
 H144 H 0.29698 0.80194 0.25175
 C145 C 0.72118 0.24840 0.72051
 C146 C 0.74847 0.27818 0.72176
 C147 C 0.77579 0.27850 0.75172
 C148 C 0.77698 0.24950 0.78006
 C149 C 0.74970 0.21970 0.77880
 C150 C 0.72238 0.21938 0.74883
 H151 H 0.70104 0.19695 0.74825
 H152 H 0.79713 0.30093 0.75230
 C153 C 0.27817 0.75138 0.72043
 C154 C 0.25080 0.72163 0.72176
 C155 C 0.22344 0.72141 0.75176
 C156 C 0.22224 0.75045 0.78004
 C157 C 0.24959 0.78020 0.77870
 C158 C 0.27696 0.78042 0.74871
 H159 H 0.29834 0.80281 0.74808
 H160 H 0.20206 0.69902 0.75239
 C161 C 0.25082 0.27875 0.72221
 C162 C 0.27854 0.24883 0.72109
 C163 C 0.27755 0.21985 0.74945
 C164 C 0.25000 0.22033 0.77929
 C165 C 0.22222 0.25020 0.78032
 C166 C 0.22325 0.27919 0.75199
 H167 H 0.20158 0.30171 0.75241
 H168 H 0.29920 0.19731 0.74902
 C169 C 0.75030 0.72127 0.72096
 C170 C 0.72149 0.75016 0.72084
 C171 C 0.72160 0.77831 0.75001
 C172 C 0.74988 0.77855 0.77907
 C173 C 0.77908 0.75005 0.77880
 C174 C 0.77878 0.72171 0.74982
 H175 H 0.80097 0.69971 0.74974
 H176 H 0.69940 0.80030 0.75011
 C177 C 0.25150 0.13210 0.13426
 C178 C 0.21887 0.13766 0.15747
 C179 C 0.21832 0.16632 0.18595
 C180 C 0.25216 0.07859 0.07959
 C181 C 0.28319 0.18385 0.16831
 C182 C 0.28371 0.15514 0.13987
 C183 C 0.25188 0.10293 0.10456
 C184 C 0.25035 0.18994 0.19131
 H185 H 0.19383 0.11991 0.15348
 H186 H 0.19290 0.17020 0.20372
 H187 H 0.30817 0.20173 0.17199
 H188 H 0.30914 0.15107 0.12212
 C189 C 0.75227 0.63191 0.63515
 C190 C 0.71967 0.63745 0.65840
 C191 C 0.71911 0.66626 0.68669
 C192 C 0.75293 0.57826 0.58079
 C193 C 0.78387 0.68394 0.66871
 C194 C 0.78441 0.65509 0.64046
 C195 C 0.75264 0.60266 0.60564
 C196 C 0.75107 0.69000 0.69176
 H197 H 0.69469 0.61958 0.65459
 H198 H 0.69374 0.67017 0.70453
 H199 H 0.80879 0.70194 0.67221
 H200 H 0.80978 0.65101 0.62264
 C201 C 0.74750 0.86736 0.13387
 C202 C 0.74950 0.87722 0.17335
 C203 C 0.75057 0.84853 0.20183
 C204 C 0.74658 0.92148 0.07984
 C205 C 0.74731 0.80000 0.15140
 C206 C 0.74629 0.82870 0.12296
 C207 C 0.74691 0.89686 0.10453
 C208 C 0.74985 0.80968 0.19105
 H209 H 0.75042 0.90705 0.18210
 H210 H 0.75247 0.85657 0.23224
 H211 H 0.74615 0.77023 0.14251
 H212 H 0.74460 0.82076 0.09250
 C213 C 0.24683 0.36684 0.63483
 C214 C 0.24896 0.37668 0.67432
 C215 C 0.24997 0.34798 0.70278
 C216 C 0.24600 0.42099 0.58084
 C217 C 0.24641 0.29947 0.65234
 C218 C 0.24544 0.32819 0.62392
 C219 C 0.24629 0.39635 0.60551
 C220 C 0.24908 0.30913 0.69199
 H221 H 0.25001 0.40650 0.68308
 H222 H 0.25198 0.35600 0.73319
 H223 H 0.24513 0.26971 0.64345
 H224 H 0.24366 0.32027 0.59345
 C225 C 0.86808 0.25269 0.13352
 C226 C 0.84380 0.28453 0.13852
 C227 C 0.81502 0.28390 0.16690
 C228 C 0.92189 0.25337 0.07918
 C229 C 0.83491 0.21966 0.18560
 C230 C 0.86364 0.22031 0.15719
 C231 C 0.89740 0.25315 0.10399
 C232 C 0.81011 0.25132 0.19042
 H233 H 0.84701 0.30975 0.12038
 H234 H 0.79623 0.30861 0.17020
 H235 H 0.83198 0.19447 0.20382
 H236 H 0.88236 0.19557 0.15366
 C237 C 0.36724 0.75333 0.63405
 C238 C 0.34304 0.78523 0.63900
 C239 C 0.31420 0.78468 0.66732
 C240 C 0.42115 0.75386 0.57982
 C241 C 0.33388 0.72038 0.68606
 C242 C 0.36267 0.72095 0.65771
 C243 C 0.39662 0.75370 0.60458
 C244 C 0.30916 0.75211 0.69083
 H245 H 0.34636 0.81044 0.62087
 H246 H 0.29548 0.80944 0.67059
 H247 H 0.33084 0.69521 0.70428
 H248 H 0.38132 0.69616 0.65422
 C249 C 0.13244 0.74750 0.13290
 C250 C 0.15668 0.71563 0.13797
 C251 C 0.18530 0.71615 0.16650
 C252 C 0.07889 0.74712 0.07829
 C253 C 0.16532 0.78033 0.18524
 C254 C 0.13675 0.77979 0.15668
 C255 C 0.10328 0.74719 0.10320
 C256 C 0.19011 0.74866 0.19010
 H257 H 0.15358 0.69048 0.11976
 H258 H 0.20408 0.69143 0.16982
 H259 H 0.16816 0.80546 0.20350
 H260 H 0.11807 0.80455 0.15312
 C261 C 0.63240 0.24641 0.63410
 C262 C 0.63675 0.27871 0.65784
 C263 C 0.66544 0.27927 0.68623
 C264 C 0.57872 0.24602 0.57980
 C265 C 0.68542 0.21510 0.66737
 C266 C 0.65668 0.21456 0.63900
 C267 C 0.60316 0.24608 0.60459
 C268 C 0.69025 0.24762 0.69094
 H269 H 0.61802 0.30345 0.65437
 H270 H 0.66835 0.30439 0.70450
 H271 H 0.70423 0.19041 0.67060
 H272 H 0.65351 0.18942 0.62079
 C273 C 0.74623 0.13185 0.86640
 C274 C 0.74436 0.17054 0.87720
 C275 C 0.74515 0.19918 0.84870
 C276 C 0.74579 0.07785 0.92055
 C277 C 0.74950 0.15051 0.79841
 C278 C 0.74866 0.12189 0.82695
 C279 C 0.74590 0.10242 0.89582
 C280 C 0.74813 0.18939 0.80909
 H281 H 0.74233 0.17856 0.90764
 H282 H 0.74348 0.22897 0.85751
 H283 H 0.75175 0.14239 0.76803
 H284 H 0.75010 0.09204 0.81828
 C285 C 0.24603 0.63278 0.36567
 C286 C 0.24423 0.67148 0.37646
 C287 C 0.24507 0.70011 0.34796
 C288 C 0.24551 0.57883 0.41987
 C289 C 0.24929 0.65143 0.29767
 C290 C 0.24842 0.62281 0.32622
 C291 C 0.24565 0.60337 0.39511
 C292 C 0.24801 0.69031 0.30834
 H293 H 0.24224 0.67951 0.40690
 H294 H 0.24346 0.72990 0.35676
 H295 H 0.25151 0.64330 0.26729
 H296 H 0.24979 0.59295 0.31756
 C297 C 0.25300 0.86826 0.86608
 C298 C 0.25473 0.82957 0.87700
 C299 C 0.25397 0.80088 0.84858
 C300 C 0.25334 0.92239 0.92009
 C301 C 0.24995 0.84945 0.79812
 C302 C 0.25075 0.87813 0.82657
 C303 C 0.25328 0.89776 0.89542
 C304 C 0.25116 0.81058 0.80891
 H305 H 0.25660 0.82160 0.90746
 H306 H 0.25551 0.77110 0.85750
 H307 H 0.24783 0.85753 0.76771
 H308 H 0.24943 0.90797 0.81779
 C309 C 0.75392 0.36696 0.36576
 C310 C 0.75577 0.32827 0.37659
 C311 C 0.75501 0.29968 0.34811
 C312 C 0.75422 0.42084 0.41987
 C313 C 0.75073 0.34841 0.29779
 C314 C 0.75154 0.37699 0.32632
 C315 C 0.75418 0.39633 0.39515
 C316 C 0.75207 0.30953 0.30850
 H317 H 0.75774 0.32022 0.40703
 H318 H 0.75664 0.26987 0.35693
 H319 H 0.74852 0.35656 0.26741
 H320 H 0.75013 0.40686 0.31764
 C321 C 0.13242 0.25266 0.86592
 C322 C 0.15624 0.28444 0.86112
 C323 C 0.18532 0.28373 0.83304
 C324 C 0.07817 0.25341 0.91980
 C325 C 0.16665 0.21952 0.81428
 C326 C 0.13762 0.22025 0.84238
 C327 C 0.10284 0.25317 0.89518
 C328 C 0.19099 0.25111 0.80966
 H329 H 0.15244 0.30967 0.87917
 H330 H 0.20374 0.30839 0.82989
 H331 H 0.17017 0.19432 0.79614
 H332 H 0.11927 0.19556 0.84577
 C333 C 0.63323 0.75290 0.36496
 C334 C 0.65704 0.78470 0.36019
 C335 C 0.68609 0.78404 0.33209
 C336 C 0.57902 0.75359 0.41888
 C337 C 0.66742 0.71986 0.31322
 C338 C 0.63841 0.72054 0.34134
 C339 C 0.60367 0.75336 0.39424
 C340 C 0.69175 0.75147 0.30864
 H341 H 0.65325 0.80989 0.37830
 H342 H 0.70451 0.80871 0.32897
 H343 H 0.67095 0.69469 0.29503
 H344 H 0.62007 0.69583 0.34470
 C345 C 0.86879 0.74852 0.86453
 C346 C 0.86271 0.78125 0.84158
 C347 C 0.83380 0.78168 0.81335
 C348 C 0.92270 0.74804 0.91878
 C349 C 0.81706 0.71653 0.83073
 C350 C 0.84601 0.71612 0.85892
 C351 C 0.89819 0.74825 0.89399
 C352 C 0.81047 0.74945 0.80798
 H353 H 0.88024 0.80644 0.84557
 H354 H 0.82953 0.80717 0.79576
 H355 H 0.79941 0.69139 0.82704
 H356 H 0.85047 0.69063 0.87648
 C357 C 0.36781 0.24790 0.36436
 C358 C 0.36216 0.28055 0.34120
 C359 C 0.33336 0.28110 0.31290
 C360 C 0.42139 0.24726 0.41879
 C361 C 0.31592 0.21621 0.33065
 C362 C 0.34476 0.21568 0.35890
 C363 C 0.39702 0.24754 0.39391
 C364 C 0.30974 0.24907 0.30771
 H365 H 0.37993 0.30559 0.34511
 H366 H 0.32936 0.30652 0.29515
 H367 H 0.29801 0.19124 0.32706
 H368 H 0.34892 0.19026 0.37665
 C369 C 0.74556 0.86566 0.86717
 C370 C 0.74538 0.82690 0.87785
 C371 C 0.74636 0.79844 0.84919
 C372 C 0.74526 0.91953 0.92129
 C373 C 0.74743 0.84747 0.79905
 C374 C 0.74641 0.87589 0.82773
 C375 C 0.74527 0.89494 0.89664
 C376 C 0.74781 0.80854 0.80958
 H377 H 0.74462 0.81868 0.90829
 H378 H 0.74612 0.76857 0.85787
 H379 H 0.74852 0.85581 0.76866
 H380 H 0.74654 0.90581 0.81916
 C381 C 0.24556 0.36610 0.36678
 C382 C 0.24544 0.32736 0.37760
 C383 C 0.24628 0.29876 0.34905
 C384 C 0.24521 0.42029 0.42074
 C385 C 0.24713 0.34756 0.29870
 C386 C 0.24625 0.37612 0.32727
 C387 C 0.24527 0.39557 0.39616
 C388 C 0.24754 0.30864 0.30936
 H389 H 0.24479 0.31927 0.40808
 H390 H 0.24604 0.26893 0.35788
 H391 H 0.24808 0.35577 0.26827
 H392 H 0.24633 0.40600 0.31856
 C393 C 0.25352 0.13286 0.86736
 C394 C 0.25492 0.17159 0.87798
 C395 C 0.25422 0.20008 0.84931
 C396 C 0.25357 0.07910 0.92179
 C397 C 0.25097 0.15121 0.79923
 C398 C 0.25172 0.12272 0.82793
 C399 C 0.25364 0.10358 0.89695
 C400 C 0.25179 0.19013 0.80972
 H401 H 0.25646 0.17975 0.90839
 H402 H 0.25544 0.22991 0.85799
 H403 H 0.24915 0.14295 0.76887
 H404 H 0.25066 0.09283 0.81941
 C405 C 0.75433 0.63297 0.36597
 C406 C 0.75567 0.67166 0.37675
 C407 C 0.75494 0.70027 0.34820
 C408 C 0.75443 0.57899 0.42016
 C409 C 0.75179 0.65159 0.29791
 C410 C 0.75256 0.62299 0.32650
 C411 C 0.75449 0.60357 0.39543
 C412 C 0.75256 0.69047 0.30856
 H413 H 0.75717 0.67970 0.40719
 H414 H 0.75612 0.73006 0.35700
 H415 H 0.75001 0.64345 0.26752
 H416 H 0.75156 0.59313 0.31784
 C417 C 0.13331 0.74848 0.86658
 C418 C 0.13780 0.78083 0.84288
 C419 C 0.16654 0.78141 0.81447
 C420 C 0.07937 0.74784 0.92079
 C421 C 0.18632 0.71714 0.83322
 C422 C 0.15753 0.71659 0.86161
 C423 C 0.10394 0.74807 0.89605
 C424 C 0.19128 0.74970 0.80968
 H425 H 0.11912 0.80560 0.84637
 H426 H 0.16952 0.80657 0.79622
 H427 H 0.20506 0.69240 0.82995
 H428 H 0.15427 0.69139 0.87976
 C429 C 0.63378 0.24762 0.36568
 C430 C 0.63846 0.28001 0.34206
 C431 C 0.66736 0.28058 0.31383
 C432 C 0.57951 0.24695 0.41954
 C433 C 0.68694 0.21627 0.33261
 C434 C 0.65799 0.21572 0.36082
 C435 C 0.60422 0.24720 0.39496
 C436 C 0.69208 0.24884 0.30913
 H437 H 0.61979 0.30480 0.34548
 H438 H 0.67047 0.30576 0.29563
 H439 H 0.70566 0.19150 0.32941
 H440 H 0.65459 0.19050 0.37892
 C441 C 0.86584 0.25182 0.86637
 C442 C 0.84150 0.28361 0.86143
 C443 C 0.81270 0.28293 0.83313
 C444 C 0.91983 0.25274 0.92035
 C445 C 0.83272 0.21872 0.81445
 C446 C 0.86147 0.21942 0.84277
 C447 C 0.89524 0.25238 0.89572
 C448 C 0.80787 0.25034 0.80966
 H449 H 0.84468 0.30883 0.87952
 H450 H 0.79386 0.30760 0.82984
 H451 H 0.82982 0.19355 0.79625
 H452 H 0.88025 0.19473 0.84628
 C453 C 0.36621 0.75246 0.36557
 C454 C 0.34200 0.78436 0.36057
 C455 C 0.31309 0.78376 0.33235
 C456 C 0.42047 0.75324 0.41943
 C457 C 0.33267 0.71941 0.31382
 C458 C 0.36154 0.72003 0.34206
 C459 C 0.39577 0.75294 0.39485
 C460 C 0.30796 0.75114 0.30898
 H461 H 0.34539 0.80962 0.37856
 H462 H 0.29439 0.80853 0.32905
 H463 H 0.32959 0.69419 0.29571
 H464 H 0.38019 0.69524 0.34557
 C465 C 0.25159 0.86759 0.13408
 C466 C 0.24910 0.87732 0.17358
 C467 C 0.24830 0.84854 0.20196
 C468 C 0.25229 0.92192 0.08029
 C469 C 0.25280 0.80016 0.15140
 C470 C 0.25355 0.82896 0.12306
 C471 C 0.25202 0.89719 0.10485
 C472 C 0.24978 0.80973 0.19106
 H473 H 0.24761 0.90713 0.18242
 H474 H 0.24602 0.85649 0.23238
 H475 H 0.25454 0.77042 0.14242
 H476 H 0.25563 0.82111 0.09258
 C477 C 0.75205 0.36608 0.63420
 C478 C 0.74961 0.37602 0.67366
 C479 C 0.74871 0.34738 0.70218
 C480 C 0.75293 0.42019 0.58016
 C481 C 0.75299 0.29874 0.65185
 C482 C 0.75385 0.32740 0.62337
 C483 C 0.75259 0.39555 0.60482
 C484 C 0.75003 0.30851 0.69148
 H485 H 0.74825 0.40587 0.68235
 H486 H 0.74648 0.35549 0.73256
 H487 H 0.75462 0.26895 0.64303
 H488 H 0.75588 0.31940 0.59293
 C489 C 0.74816 0.13260 0.13443
 C490 C 0.74639 0.17124 0.12338
 C491 C 0.74733 0.19999 0.15170
 C492 C 0.74706 0.07835 0.08073
 C493 C 0.75169 0.15152 0.20227
 C494 C 0.75070 0.12279 0.17392
 C495 C 0.74749 0.10306 0.10524
 C496 C 0.75035 0.19035 0.19135
 H497 H 0.74428 0.17913 0.09291
 H498 H 0.74569 0.22975 0.14273
 H499 H 0.75396 0.14352 0.23269
 H500 H 0.75205 0.09297 0.18276
 C501 C 0.24711 0.63363 0.63432
 C502 C 0.24554 0.67233 0.62342
 C503 C 0.24643 0.70101 0.65185
 C504 C 0.24625 0.57947 0.58034
 C505 C 0.25030 0.65239 0.70228
 C506 C 0.24936 0.62373 0.67381
 C507 C 0.24657 0.60413 0.60497
 C508 C 0.24920 0.69128 0.69152
 H509 H 0.24365 0.68033 0.59296
 H510 H 0.24497 0.73079 0.64295
 H511 H 0.25238 0.64429 0.73269
 H512 H 0.25055 0.59388 0.68258
 C513 C 0.86860 0.74743 0.13387
 C514 C 0.86362 0.77968 0.15768
 C515 C 0.83487 0.78023 0.18608
 C516 C 0.92240 0.74707 0.07950
 C517 C 0.81607 0.71611 0.16713
 C518 C 0.84487 0.71558 0.13876
 C519 C 0.89790 0.74713 0.10431
 C520 C 0.81058 0.74860 0.19074
 H521 H 0.88191 0.80442 0.15425
 H522 H 0.83147 0.80534 0.20436
 H523 H 0.79767 0.69143 0.17031
 H524 H 0.84851 0.69046 0.12052
 C525 C 0.36730 0.24653 0.63434
 C526 C 0.36256 0.27879 0.65820
 C527 C 0.33397 0.27941 0.68676
 C528 C 0.42082 0.24610 0.57968
 C529 C 0.31487 0.21535 0.66790
 C530 C 0.34352 0.21475 0.63936
 C531 C 0.39643 0.24618 0.60461
 C532 C 0.30960 0.24786 0.69154
 H533 H 0.38090 0.30347 0.65467
 H534 H 0.33074 0.30452 0.70507
 H535 H 0.29640 0.19074 0.67117
 H536 H 0.34698 0.18963 0.62109
 C537 C 0.13303 0.25403 0.13339
 C538 C 0.12312 0.25286 0.17290
 C539 C 0.15178 0.25196 0.20134
 C540 C 0.07877 0.25426 0.07968
 C541 C 0.20039 0.25376 0.15080
 C542 C 0.17170 0.25462 0.12238
 C543 C 0.10351 0.25427 0.10416
 C544 C 0.19063 0.25201 0.19049
 H545 H 0.09328 0.25242 0.18171
 H546 H 0.14370 0.25064 0.23179
 H547 H 0.23018 0.25433 0.14188
 H548 H 0.17966 0.25563 0.09188
 C549 C 0.63382 0.75397 0.63302
 C550 C 0.62381 0.75309 0.67253
 C551 C 0.65239 0.75222 0.70109
 C552 C 0.57966 0.75429 0.57903
 C553 C 0.70116 0.75346 0.65073
 C554 C 0.67256 0.75429 0.62219
 C555 C 0.60436 0.75424 0.60363
 C556 C 0.69130 0.75201 0.69042
 H557 H 0.59394 0.75286 0.68124
 H558 H 0.64419 0.75112 0.73152
 H559 H 0.73098 0.75385 0.64189
 H560 H 0.68064 0.75509 0.59171
   
