data_POSCAR
  _audit_creation_date              2014-09-24
  _audit_creation_method            'ToBaCCo'
  _symmetry_space_group_name_H-M    'P1'
  _symmetry_Int_Tables_number       1
  _symmetry_cell_setting            triclinic
  loop_
  _symmetry_equiv_pos_as_xyz
 x,y,z
_cell_length_a 28.5813
_cell_length_b 28.6010
_cell_length_c 28.5133
_cell_angle_alpha 90.003000
_cell_angle_beta 90.090000
_cell_angle_gamma 90.028400
loop_
  _atom_site_label
  _atom_site_type_symbol
  _atom_site_fract_x
  _atom_site_fract_y
  _atom_site_fract_z
C1 C 0.17477 0.17259 0.23288
 N2 N 0.15556 0.21141 0.21330
 C3 C 0.17484 0.23097 0.17448
 N4 N 0.21363 0.21151 0.15516
 C5 C 0.23318 0.17267 0.17442
 N6 N 0.21360 0.15335 0.21330
 C7 C -0.17415 0.82729 0.23203
 N8 N -0.15499 0.78848 0.21246
 C9 C -0.17434 0.76892 0.17364
 N10 N -0.21319 0.78835 0.15427
 C11 C -0.23271 0.82720 0.17352
 N12 N -0.21303 0.84652 0.21242
 C13 C -0.17528 0.17306 -0.23175
 N14 N -0.15596 0.21177 -0.21215
 C15 C -0.17522 0.23129 -0.17333
 N16 N -0.21410 0.21189 -0.15409
 C17 C -0.23374 0.17312 -0.17345
 N18 N -0.21416 0.15382 -0.21233
 C19 C 0.17401 0.82705 -0.23257
 N20 N 0.15484 0.78821 -0.21298
 C21 C 0.17421 0.76871 -0.17412
 N22 N 0.21303 0.78823 -0.15478
 C23 C 0.23254 0.82708 -0.17403
 N24 N 0.21287 0.84635 -0.21294
 C25 C 0.17208 1.17446 0.76747
 N26 N 0.15283 1.21333 0.78701
 C27 C 0.17215 1.23291 0.82599
 N28 N 0.21095 1.21331 0.84534
 C29 C 0.23037 1.17451 0.82608
 N30 N 0.21086 1.15524 0.78719
 C31 C 0.82660 0.82683 0.76649
 N32 N 0.84586 0.78803 0.78616
 C33 C 0.82657 0.76857 0.82505
 N34 N 0.78779 0.78807 0.84430
 C35 C 0.76830 0.82681 0.82493
 N36 N 0.78778 0.84608 0.78605
 C37 C 0.17315 0.82532 1.23299
 N38 N 0.21195 0.84455 1.21338
 C39 C 0.23145 0.82525 1.17455
 N40 N 0.21198 0.78643 1.15525
 C41 C 0.17317 0.76683 1.17452
 N42 N 0.15389 0.78644 1.21341
 C43 C 0.82771 1.17436 1.23215
 N44 N 0.78884 1.15521 1.21252
 C45 C 0.76920 1.17460 1.17376
 N46 N 0.78861 1.21346 1.15453
 C47 C 0.82751 1.23297 1.17384
 N48 N 0.84692 1.21327 1.21266
 N49 N 0.45008 1.05052 0.91723
 N50 N 0.41445 1.05644 0.88833
 N51 N 0.54862 1.08310 0.94960
 N52 N 0.58419 1.11197 0.94370
 N53 N 0.54853 1.05067 0.91699
 N54 N 0.58402 1.05657 0.88800
 N55 N 0.45017 1.08292 0.94986
 N56 N 0.41462 1.11180 0.94409
 C57 C 0.39274 1.09479 0.90557
 C58 C 0.60585 1.09495 0.90514
 N59 N 0.54916 1.05046 1.08311
 N60 N 0.58486 1.05638 1.11194
 N61 N 0.45051 1.08275 1.05086
 N62 N 0.41495 1.11156 1.05689
 N63 N 0.45067 1.05023 1.08337
 N64 N 0.41522 1.05601 1.11242
 N65 N 0.54896 1.08296 1.05058
 N66 N 0.58448 1.11190 1.05635
 Mn67 Mn 0.49956 1.08349 1.00023
 C68 C 0.60648 1.09485 1.09477
 C69 C 0.39333 1.09441 1.09543
 N70 N 0.54863 0.95000 0.91680
 N71 N 0.58409 0.94426 0.88775
 N72 N 0.45032 0.91729 0.94951
 N73 N 0.41479 0.88836 0.94356
 N74 N 0.45018 0.94984 0.91702
 N75 N 0.41458 0.94397 0.88807
 N76 N 0.54881 0.91748 0.94931
 N77 N 0.58439 0.88870 0.94330
 Mn78 Mn 0.49935 1.00026 0.91645
 C79 C 0.60599 0.90588 0.90477
 C80 C 0.39288 0.90549 0.90509
 N81 N 0.45087 0.94950 1.08319
 N82 N 0.41541 0.94351 1.11219
 N83 N 0.54929 0.91730 1.05036
 N84 N 0.58489 0.88845 1.05619
 N85 N 0.54936 0.94973 1.08297
 N86 N 0.58499 0.94386 1.11189
 N87 N 0.45080 0.91710 1.05055
 N88 N 0.41531 0.88815 1.05643
 Mn89 Mn 0.50002 0.99998 1.08373
 Mn90 Mn 0.49981 0.91672 0.99993
 Cl91 Cl 0.49969 1.00011 1.00009
 C92 C 0.39364 0.90510 1.09501
 C93 C 0.60677 0.90551 1.09472
 N94 N -0.05034 0.45063 -0.08260
 N95 N -0.05640 0.41506 -0.11149
 N96 N -0.08261 0.54909 -0.05019
 N97 N -0.11145 0.58465 -0.05616
 N98 N -0.05016 0.54901 -0.08273
 N99 N -0.05599 0.58448 -0.11176
 N100 N -0.08274 0.45074 -0.05000
 N101 N -0.11175 0.41528 -0.05578
 C102 C -0.09484 0.39343 -0.09426
 C103 C -0.09435 0.60632 -0.09471
 N104 N -0.05001 0.54919 0.08340
 N105 N -0.05592 0.58480 0.11226
 N106 N -0.08258 0.45075 0.05095
 N107 N -0.11146 0.41520 0.05684
 N108 N -0.05002 0.45075 0.08350
 N109 N -0.05583 0.41520 0.11245
 N110 N -0.08250 0.54912 0.05078
 N111 N -0.11140 0.58462 0.05651
 Mn112 Mn -0.08316 0.49993 0.00039
 C113 C -0.09436 0.60648 0.09499
 C114 C -0.09430 0.39342 0.09535
 N115 N 0.05058 0.54896 -0.08276
 N116 N 0.05642 0.58448 -0.11173
 N117 N 0.08301 0.45053 -0.05018
 N118 N 0.11181 0.41495 -0.05617
 N119 N 0.05041 0.45057 -0.08269
 N120 N 0.05611 0.41506 -0.11169
 N121 N 0.08311 0.54899 -0.05019
 N122 N 0.11199 0.58453 -0.05607
 Mn123 Mn 0.00012 0.49979 -0.08326
 C124 C 0.09487 0.60626 -0.09460
 C125 C 0.09454 0.39322 -0.09469
 N126 N 0.05079 0.45073 0.08348
 N127 N 0.05672 0.41518 0.11242
 N128 N 0.08326 0.54915 0.05089
 N129 N 0.11214 0.58473 0.05685
 N130 N 0.05079 0.54914 0.08343
 N131 N 0.05666 0.58467 0.11241
 N132 N 0.08320 0.45072 0.05089
 N133 N 0.11208 0.41519 0.05673
 Mn134 Mn 0.00039 0.49995 0.08403
 Mn135 Mn 0.08372 0.49985 0.00036
 Cl136 Cl 0.00028 0.49988 0.00038
 C137 C 0.09510 0.39342 0.09525
 C138 C 0.09506 0.60648 0.09537
 N139 N 0.94966 -0.08290 0.54874
 N140 N 0.94368 -0.11174 0.58437
 N141 N 0.91749 -0.05043 0.44988
 N142 N 0.88856 -0.05625 0.41424
 N143 N 0.94987 -0.08298 0.45000
 N144 N 0.94386 -0.11189 0.41438
 N145 N 0.91718 -0.05044 0.54854
 N146 N 0.88818 -0.05629 0.58407
 C147 C 0.90520 -0.09467 0.60600
 C148 C 0.90548 -0.09470 0.39248
 N149 N 0.95022 0.08265 0.44990
 N150 N 0.94445 0.11165 0.41436
 N151 N 0.91728 0.05020 0.54838
 N152 N 0.88823 0.05598 0.58383
 N153 N 0.94976 0.08268 0.54858
 N154 N 0.94371 0.11151 0.58423
 N155 N 0.91766 0.05023 0.44972
 N156 N 0.88882 0.05628 0.41402
 Mn157 Mn 0.91685 -0.00011 0.49913
 C158 C 0.90604 0.09473 0.39237
 C159 C 0.90518 0.09435 0.60579
 N160 N 1.05067 -0.08311 0.45055
 N161 N 1.05654 -0.11210 0.41503
 N162 N 1.08297 -0.05048 0.54934
 N163 N 1.11186 -0.05633 0.58501
 N164 N 1.05047 -0.08296 0.54927
 N165 N 1.05637 -0.11184 0.58493
 N166 N 1.08324 -0.05071 0.45060
 N167 N 1.11219 -0.05676 0.41507
 Mn168 Mn 1.00017 -0.08356 0.49964
 C169 C 1.09504 -0.09521 0.39328
 C170 C 1.09481 -0.09473 0.60683
 N171 N 1.05051 0.08270 0.54906
 N172 N 1.05620 0.11172 0.58461
 N173 N 1.08338 0.05006 0.45056
 N174 N 1.11244 0.05587 0.41509
 N175 N 1.05096 0.08258 0.45038
 N176 N 1.05704 0.11142 0.41476
 N177 N 1.08303 0.05028 0.54931
 N178 N 1.11177 0.05635 0.58511
 Mn179 Mn 1.00036 0.08321 0.49948
 Mn180 Mn 1.08373 -0.00021 0.49996
 Cl181 Cl 1.00029 -0.00017 0.49955
 C182 C 1.09454 0.09482 0.60672
 C183 C 1.09553 0.09428 0.39315
 N184 N 1.17388 0.11414 0.29289
 C185 C 1.15489 0.15284 0.27284
 N186 N 1.11618 0.17207 0.29261
 N187 N 1.09724 0.15337 0.33094
 C188 C 1.11631 0.11476 0.35092
 N189 N 1.15493 0.09545 0.33122
 N190 N 0.82697 -0.11433 0.29208
 C191 C 0.84585 -0.15303 0.27202
 N192 N 0.88457 -0.17235 0.29181
 N193 N 0.90363 -0.15374 0.33018
 C194 C 0.88467 -0.11513 0.35018
 N195 N 0.84604 -0.09572 0.33046
 N196 N 0.88443 0.17175 0.70656
 C197 C 0.84571 0.15239 0.72612
 N198 N 0.82668 0.11380 0.70594
 N199 N 0.84569 0.09528 0.66757
 C200 C 0.88438 0.11469 0.64803
 N201 N 0.90344 0.15322 0.66819
 N202 N 1.17308 -0.11454 0.70740
 C203 C 1.15408 -0.15324 0.72740
 N204 N 1.11536 -0.17250 0.70751
 N205 N 1.09642 -0.15383 0.66911
 C206 C 1.11550 -0.11521 0.64917
 N207 N 1.15413 -0.09587 0.66900
 N208 N 0.29307 1.11426 1.17369
 C209 C 0.27311 1.15296 1.15458
 N210 N 0.29296 1.17218 1.11583
 N211 N 0.33124 1.15349 1.09697
 C212 C 0.35113 1.11488 1.11615
 N213 N 0.33136 1.09557 1.15481
 N214 N 0.29241 0.88555 0.82680
 C215 C 0.27251 0.84682 0.84586
 N216 N 0.29245 0.82759 0.88462
 N217 N 0.33079 0.84631 0.90353
 C218 C 0.35062 0.88495 0.88439
 N219 N 0.33075 0.90426 0.84572
 N220 N 0.70729 0.82770 1.11492
 C221 C 0.72728 0.84691 1.15368
 N222 N 0.70739 0.88559 1.17283
 N223 N 0.66901 0.90428 1.15400
 C224 C 0.64909 0.88500 1.11533
 N225 N 0.66891 0.84640 1.09610
 N226 N 0.70624 1.11483 0.82708
 C227 C 0.72626 1.15346 0.84629
 N228 N 0.70641 1.17265 0.88505
 N229 N 0.66805 1.15398 0.90383
 C230 C 0.64810 1.11544 0.88454
 N231 N 0.66787 1.09617 0.84587
 N232 N 0.11537 0.29287 0.17305
 C233 C 0.15398 0.27310 0.15371
 N234 N 0.17308 0.29306 0.11501
 N235 N 0.15426 0.33142 0.09635
 C236 C 0.11570 0.35117 0.11573
 N237 N 0.09655 0.33122 0.15439
 N238 N -0.11554 0.29294 -0.17193
 C239 C -0.15423 0.27332 -0.15257
 N240 N -0.17323 0.29336 -0.11387
 N241 N -0.15424 0.33166 -0.09525
 C242 C -0.11560 0.35126 -0.11467
 N243 N -0.09656 0.33124 -0.15331
 N244 N 0.11478 0.70671 -0.17258
 C245 C 0.15345 0.72658 -0.15330
 N246 N 0.17270 0.70671 -0.11457
 N247 N 0.15400 0.66835 -0.09583
 C248 C 0.11538 0.64850 -0.11516
 N249 N 0.09607 0.66836 -0.15384
 N250 N -0.11477 0.70717 0.17247
 C251 C -0.15345 0.72680 0.15299
 N252 N -0.17253 0.70670 0.11429
 N253 N -0.15364 0.66834 0.09578
 C254 C -0.11501 0.64872 0.11532
 N255 N -0.09588 0.66881 0.15396
 N256 N 1.11383 0.17339 0.70708
 C257 C 1.15248 0.15450 0.72740
 N258 N 1.17185 0.11578 0.70778
 N259 N 1.15337 0.09673 0.66935
 C260 C 1.11482 0.11568 0.64909
 N261 N 1.09535 0.15431 0.66864
 N262 N 0.82720 -0.11477 0.70648
 C263 C 0.84635 -0.15342 0.72647
 N264 N 0.88505 -0.17254 0.70659
 N265 N 0.90382 -0.15377 0.66821
 C266 C 0.88458 -0.11521 0.64829
 N267 N 0.84597 -0.09601 0.66809
 N268 N 1.11477 -0.17369 0.29303
 C269 C 1.15348 -0.15474 0.27296
 N270 N 1.17277 -0.11601 0.29273
 N271 N 1.15414 -0.09700 0.33106
 C272 C 1.11552 -0.11602 0.35105
 N273 N 1.09614 -0.15467 0.33135
 N274 N 0.88624 0.17328 0.29219
 C275 C 0.84749 0.15436 0.27206
 N276 N 0.82823 0.11561 0.29173
 N277 N 0.84693 0.09656 0.33005
 C278 C 0.88558 0.11556 0.35011
 N279 N 0.90494 0.15422 0.33051
 N280 N 0.11389 0.29298 -0.17317
 C281 C 0.15257 0.27288 -0.15411
 N282 N 0.17195 0.29261 -0.11531
 N283 N 0.15344 0.33093 -0.09634
 C284 C 0.11486 0.35097 -0.11546
 N285 N 0.09539 0.33131 -0.15418
 N286 N -0.17211 0.29296 0.11542
 C287 C -0.15281 0.27298 0.15412
 N288 N -0.11406 0.29287 0.17329
 N289 N -0.09539 0.33125 0.15453
 C290 C -0.11478 0.35115 0.11592
 N291 N -0.15344 0.33133 0.09667
 N292 N -0.17197 0.70678 -0.11521
 C293 C -0.15270 0.72650 -0.15397
 N294 N -0.11409 0.70653 -0.17308
 N295 N -0.09546 0.66822 -0.15414
 C296 C -0.11478 0.64852 -0.11544
 N297 N -0.15334 0.66848 -0.09628
 N298 N 0.11483 0.70682 0.17369
 C299 C 0.15350 0.72685 0.15464
 N300 N 0.17276 0.70704 0.11588
 N301 N 0.15412 0.66870 0.09696
 C302 C 0.11554 0.64874 0.11609
 N303 N 0.09620 0.66848 0.15476
 N304 N 0.29220 1.11503 0.82764
 C305 C 0.27245 1.15365 0.84694
 N306 N 0.29242 1.17277 0.88570
 N307 N 0.33076 1.15396 0.90444
 C308 C 0.35050 1.11538 0.88507
 N309 N 0.33054 1.09622 0.84637
 N310 N 0.29334 0.88478 1.17302
 C311 C 0.27352 0.84613 1.15373
 N312 N 0.29338 0.82702 1.11498
 N313 N 0.33167 0.84585 1.09623
 C314 C 0.35147 0.88445 1.11558
 N315 N 0.33164 0.90361 1.15428
 N316 N 0.70735 1.11507 1.17233
 C317 C 0.72701 1.15376 1.15302
 N318 N 0.70686 1.17294 1.11440
 N319 N 0.66844 1.15412 1.09579
 C320 C 0.64879 1.11547 1.11516
 N321 N 0.66893 1.09625 1.15372
 N322 N 0.70646 0.82830 0.88452
 C323 C 0.72621 0.84756 0.84579
 N324 N 0.70625 0.88616 0.82658
 N325 N 0.66792 0.90480 0.84541
 C326 C 0.64819 0.88549 0.88410
 N327 N 0.66813 0.84694 0.90335
   
