data_POSCAR
  _audit_creation_date              2014-09-24
  _audit_creation_method            'ToBaCCo'
  _symmetry_space_group_name_H-M    'P1'
  _symmetry_Int_Tables_number       1
  _symmetry_cell_setting            triclinic
  loop_
  _symmetry_equiv_pos_as_xyz
 x,y,z
_cell_length_a 47.1170
_cell_length_b 47.7983
_cell_length_c 47.7496
_cell_angle_alpha 90.004700
_cell_angle_beta 89.905700
_cell_angle_gamma 90.045400
loop_
  _atom_site_label
  _atom_site_type_symbol
  _atom_site_fract_x
  _atom_site_fract_y
  _atom_site_fract_z
N1 N 0.26978 0.21728 0.19279
 N2 N 0.25733 0.23984 0.18292
 C3 C 0.27187 0.24902 0.16037
 C4 C 0.29442 0.23117 0.15605
 C5 C 0.29261 0.21131 0.17688
 H6 H 0.26681 0.26749 0.14830
 H7 H 0.30708 0.19413 0.18046
 Cu8 Cu 0.22398 0.25546 0.20118
 Cu9 Cu 0.25614 0.19791 0.22609
 Cu10 Cu 0.19666 0.22549 0.25891
 N11 N 0.19065 0.27075 0.21973
 N12 N 0.18004 0.25891 0.24233
 C13 C 0.15770 0.27400 0.25138
 C14 C 0.15425 0.29633 0.23346
 C15 C 0.17541 0.29381 0.21366
 H16 H 0.14527 0.26942 0.26989
 H17 H 0.17964 0.30801 0.19652
 N18 N 0.21648 0.19183 0.27247
 N19 N 0.23914 0.18132 0.26000
 C20 C 0.24815 0.15889 0.27461
 C21 C 0.23027 0.15527 0.29715
 C22 C 0.21048 0.17637 0.29532
 H23 H 0.26656 0.14637 0.26954
 H24 H 0.19332 0.18036 0.30984
 H25 H 0.21426 0.21006 0.22239
 H26 H 0.23756 0.23242 0.24470
 N27 N 0.72906 -0.21607 0.19133
 N28 N 0.74195 -0.23822 0.18102
 C29 C 0.72745 -0.24744 0.15851
 C30 C 0.70451 -0.23000 0.15467
 C31 C 0.70599 -0.21037 0.17574
 H32 H 0.73282 -0.26568 0.14619
 H33 H 0.69114 -0.19358 0.17974
 Cu34 Cu 0.77585 -0.25353 0.19846
 Cu35 Cu 0.74242 -0.19699 0.22479
 Cu36 Cu 0.80144 -0.22477 0.25776
 N37 N 0.80837 -0.26927 0.21796
 N38 N 0.81830 -0.25797 0.24110
 C39 C 0.84021 -0.27340 0.25053
 C40 C 0.84406 -0.29539 0.23225
 C41 C 0.82360 -0.29235 0.21190
 H42 H 0.85206 -0.26926 0.26946
 H43 H 0.81979 -0.30618 0.19437
 N44 N 0.78152 -0.19124 0.27146
 N45 N 0.75904 -0.18060 0.25887
 C46 C 0.74991 -0.15824 0.27354
 C47 C 0.76754 -0.15480 0.29626
 C48 C 0.78730 -0.17593 0.29445
 H49 H 0.73160 -0.14563 0.26838
 H50 H 0.80433 -0.18001 0.30904
 H51 H 0.78450 -0.20864 0.22132
 H52 H 0.76099 -0.23206 0.24245
 N53 N 0.73026 0.21790 0.80749
 N54 N 0.74294 0.24038 0.81733
 C55 C 0.72843 0.24978 0.83979
 C56 C 0.70565 0.23218 0.84408
 C57 C 0.70730 0.21222 0.82333
 H58 H 0.73369 0.26821 0.85185
 H59 H 0.69266 0.19515 0.81978
 Cu60 Cu 0.77653 0.25550 0.79904
 Cu61 Cu 0.74384 0.19817 0.77436
 Cu62 Cu 0.80407 0.22480 0.74193
 N63 N 0.81030 0.27035 0.78080
 N64 N 0.82101 0.25816 0.75844
 C65 C 0.84354 0.27299 0.74936
 C66 C 0.84701 0.29549 0.76708
 C67 C 0.82566 0.29339 0.78673
 H68 H 0.85600 0.26816 0.73093
 H69 H 0.82131 0.30788 0.80359
 N70 N 0.78389 0.19129 0.72839
 N71 N 0.76089 0.18120 0.74066
 C72 C 0.75164 0.15886 0.72603
 C73 C 0.76971 0.15485 0.70369
 C74 C 0.78985 0.17564 0.70566
 H75 H 0.73293 0.14668 0.73093
 H76 H 0.80721 0.17932 0.69129
 H77 H 0.78583 0.20981 0.77835
 H78 H 0.76310 0.23223 0.75559
 N79 N 0.27166 -0.21969 0.80663
 N80 N 0.25888 -0.24217 0.81638
 C81 C 0.27312 -0.25151 0.83900
 C82 C 0.29582 -0.23386 0.84347
 C83 C 0.29441 -0.21395 0.82266
 H84 H 0.26772 -0.26990 0.85106
 H85 H 0.30905 -0.19685 0.81923
 Cu86 Cu 0.22539 -0.25725 0.79798
 Cu87 Cu 0.25842 -0.19998 0.77343
 Cu88 Cu 0.19846 -0.22647 0.74064
 N89 N 0.19160 -0.27181 0.77967
 N90 N 0.18117 -0.25966 0.75719
 C91 C 0.15835 -0.27414 0.74832
 C92 C 0.15442 -0.29639 0.76627
 C93 C 0.17576 -0.29448 0.78588
 H94 H 0.14587 -0.26913 0.73000
 H95 H 0.17966 -0.30875 0.80302
 N96 N 0.21896 -0.19310 0.72713
 N97 N 0.24179 -0.18300 0.73961
 C98 C 0.25115 -0.16058 0.72515
 C99 C 0.23333 -0.15653 0.70269
 C100 C 0.21322 -0.17737 0.70442
 H101 H 0.26972 -0.14832 0.73030
 H102 H 0.19594 -0.18096 0.68997
 H103 H 0.21632 -0.21156 0.77719
 H104 H 0.23925 -0.23403 0.75459
 N105 N 0.73077 -0.21613 0.80864
 N106 N 0.74314 -0.23885 0.81825
 C107 C 0.72864 -0.24815 0.84076
 C108 C 0.70621 -0.23023 0.84534
 C109 C 0.70804 -0.21019 0.82469
 H110 H 0.73365 -0.26677 0.85264
 H111 H 0.69362 -0.19293 0.82129
 Cu112 Cu 0.77630 -0.25442 0.79963
 Cu113 Cu 0.74433 -0.19655 0.77543
 Cu114 Cu 0.80374 -0.22400 0.74228
 N115 N 0.80971 -0.26959 0.78110
 N116 N 0.82037 -0.25755 0.75863
 C117 C 0.84271 -0.27258 0.74945
 C118 C 0.84608 -0.29505 0.76721
 C119 C 0.82491 -0.29272 0.78701
 H120 H 0.85514 -0.26786 0.73097
 H121 H 0.82059 -0.30708 0.80400
 N122 N 0.78389 -0.19023 0.72899
 N123 N 0.76126 -0.17978 0.74159
 C124 C 0.75214 -0.15734 0.72708
 C125 C 0.76992 -0.15363 0.70447
 C126 C 0.78976 -0.17469 0.70615
 H127 H 0.73369 -0.14491 0.73222
 H128 H 0.80682 -0.17865 0.69152
 H129 H 0.76283 -0.23086 0.75637
 H130 H 0.78620 -0.20885 0.77894
 N131 N 0.26970 0.21679 0.80871
 N132 N 0.25727 0.23954 0.81824
 C133 C 0.27170 0.24897 0.84070
 C134 C 0.29414 0.23110 0.84533
 C135 C 0.29240 0.21096 0.82476
 H136 H 0.26665 0.26763 0.85250
 H137 H 0.30685 0.19371 0.82143
 Cu138 Cu 0.22412 0.25494 0.79954
 Cu139 Cu 0.25630 0.19704 0.77557
 Cu140 Cu 0.19704 0.22434 0.74223
 N141 N 0.19081 0.27005 0.78091
 N142 N 0.18031 0.25795 0.75844
 C143 C 0.15800 0.27291 0.74919
 C144 C 0.15445 0.29544 0.76687
 C145 C 0.17552 0.29315 0.78671
 H146 H 0.14566 0.26811 0.73072
 H147 H 0.17967 0.30756 0.80369
 N148 N 0.21697 0.19053 0.72909
 N149 N 0.23952 0.18012 0.74178
 C150 C 0.24866 0.15757 0.72741
 C151 C 0.23098 0.15376 0.70479
 C152 C 0.21118 0.17488 0.70633
 H153 H 0.26706 0.14513 0.73265
 H154 H 0.19418 0.17877 0.69166
 H155 H 0.23790 0.23127 0.75640
 H156 H 0.21442 0.20929 0.77895
 N157 N 0.27010 -0.21722 0.19271
 N158 N 0.25704 -0.23943 0.18276
 C159 C 0.27133 -0.24891 0.16020
 C160 C 0.29435 -0.23162 0.15594
 C161 C 0.29309 -0.21178 0.17683
 H162 H 0.26574 -0.26719 0.14806
 H163 H 0.30801 -0.19497 0.18045
 Cu164 Cu 0.22326 -0.25424 0.20094
 Cu165 Cu 0.25687 -0.19748 0.22594
 Cu166 Cu 0.19660 -0.22359 0.25860
 N167 N 0.18950 -0.26872 0.21943
 N168 N 0.17919 -0.25666 0.24203
 C169 C 0.15648 -0.27126 0.25107
 C170 C 0.15250 -0.29349 0.23312
 C171 C 0.17371 -0.29142 0.21334
 H172 H 0.14414 -0.26639 0.26955
 H173 H 0.17759 -0.30567 0.19617
 N174 N 0.21721 -0.19036 0.27214
 N175 N 0.24020 -0.18043 0.25974
 C176 C 0.24966 -0.15810 0.27424
 C177 C 0.23172 -0.15393 0.29664
 C178 C 0.21144 -0.17460 0.29484
 H179 H 0.26836 -0.14599 0.26916
 H180 H 0.19406 -0.17807 0.30925
 H181 H 0.23735 -0.23152 0.24450
 H182 H 0.21471 -0.20861 0.22213
 N183 N 0.73040 0.21579 0.19115
 N184 N 0.74323 0.23821 0.18133
 C185 C 0.72889 0.24764 0.15882
 C186 C 0.70609 0.23009 0.15447
 C187 C 0.70754 0.21016 0.17525
 H188 H 0.73423 0.26609 0.14680
 H189 H 0.69279 0.19318 0.17881
 Cu190 Cu 0.77666 0.25328 0.19984
 Cu191 Cu 0.74357 0.19613 0.22444
 Cu192 Cu 0.80343 0.22282 0.25730
 N193 N 0.81017 0.26822 0.21833
 N194 N 0.82057 0.25612 0.24083
 C195 C 0.84293 0.27102 0.25012
 C196 C 0.84662 0.29351 0.23245
 C197 C 0.82557 0.29129 0.21256
 H198 H 0.85514 0.26624 0.26867
 H199 H 0.82146 0.30576 0.19563
 N200 N 0.78308 0.18935 0.27074
 N201 N 0.76022 0.17923 0.25831
 C202 C 0.75082 0.15691 0.27288
 C203 C 0.76865 0.15295 0.29535
 C204 C 0.78880 0.17373 0.29352
 H205 H 0.73218 0.14470 0.26786
 H206 H 0.80601 0.17743 0.30801
 H207 H 0.76261 0.23026 0.24325
 H208 H 0.78559 0.20768 0.22082
 C209 C 0.24578 -0.01478 0.52588
 C210 C 0.24534 0.01468 0.52612
 C211 C 0.24508 0.02939 0.50074
 C212 C 0.24499 0.01511 0.47512
 C213 C 0.24545 -0.01434 0.47487
 C214 C 0.24598 -0.02905 0.50024
 H215 H 0.24613 -0.05176 0.50004
 H216 H 0.24455 0.05209 0.50094
 C217 C 0.75601 0.01478 0.52554
 C218 C 0.75582 -0.01468 0.52572
 C219 C 0.75548 -0.02935 0.50032
 C220 C 0.75555 -0.01502 0.47473
 C221 C 0.75573 0.01444 0.47454
 C222 C 0.75585 0.02911 0.49995
 H223 H 0.75616 0.05181 0.49980
 H224 H 0.75552 -0.05205 0.50046
 C225 C 0.47415 0.24554 -0.01459
 C226 C 0.47422 0.24529 0.01490
 C227 C 0.50009 0.24532 0.02931
 C228 C 0.52590 0.24536 0.01468
 C229 C 0.52583 0.24562 -0.01480
 C230 C 0.49995 0.24582 -0.02921
 H231 H 0.49989 0.24581 -0.05194
 H232 H 0.50015 0.24492 0.05203
 C233 C 0.47420 0.75437 0.01510
 C234 C 0.47435 0.75434 -0.01438
 C235 C 0.50027 0.75456 -0.02881
 C236 C 0.52603 0.75498 -0.01419
 C237 C 0.52586 0.75499 0.01529
 C238 C 0.49995 0.75460 0.02971
 H239 H 0.49983 0.75481 0.05244
 H240 H 0.50039 0.75474 -0.05153
 C241 C 0.01374 0.47570 0.24535
 C242 C -0.01613 0.47519 0.24551
 C243 C -0.03126 0.50041 0.24543
 C244 C -0.01698 0.52613 0.24510
 C245 C 0.01289 0.52664 0.24498
 C246 C 0.02803 0.50142 0.24515
 H247 H 0.05106 0.50181 0.24491
 H248 H -0.05429 0.50002 0.24539
 C249 C 0.01465 0.47524 0.75422
 C250 C -0.01524 0.47495 0.75413
 C251 C -0.03017 0.50029 0.75416
 C252 C -0.01570 0.52590 0.75445
 C253 C 0.01418 0.52620 0.75456
 C254 C 0.02912 0.50086 0.75436
 H255 H 0.05215 0.50109 0.75456
 H256 H -0.05320 0.50007 0.75422
 C257 C 0.35776 0.23777 0.09817
 N258 N 0.36811 0.21452 0.08549
 N259 N 0.39007 0.21633 0.06795
 C260 C 0.40232 0.24145 0.06254
 N261 N 0.39192 0.26471 0.07517
 N262 N 0.36996 0.26290 0.09271
 C263 C 0.33503 0.23560 0.11809
 C264 C 0.31631 0.23364 0.13522
 C265 C 0.42699 0.24312 0.04497
 C266 C 0.44822 0.24427 0.03090
 C267 C 0.64207 0.76286 0.09849
 N268 N 0.62855 0.73807 0.09481
 N269 N 0.60660 0.73614 0.07734
 C270 C 0.59753 0.75893 0.06301
 N271 N 0.61108 0.78370 0.06666
 N272 N 0.63303 0.78563 0.08412
 C273 C 0.66487 0.76524 0.11823
 C274 C 0.68366 0.76742 0.13519
 C275 C 0.57294 0.75724 0.04542
 C276 C 0.55178 0.75607 0.03131
 C277 C 0.64233 0.23905 -0.09807
 N278 N 0.63293 0.21600 -0.08434
 N279 N 0.61097 0.21771 -0.06680
 C280 C 0.59777 0.24254 -0.06244
 N281 N 0.60721 0.26561 -0.07612
 N282 N 0.62918 0.26390 -0.09366
 C283 C 0.66506 0.23689 -0.11799
 C284 C 0.68377 0.23485 -0.13511
 C285 C 0.57307 0.24399 -0.04489
 C286 C 0.55182 0.24491 -0.03082
 C287 C 0.35845 0.75955 -0.09814
 N288 N 0.37346 0.73549 -0.09559
 N289 N 0.39527 0.73397 -0.07792
 C290 C 0.40270 0.75646 -0.06223
 N291 N 0.38764 0.78050 -0.06472
 N292 N 0.36584 0.78202 -0.08240
 C293 C 0.33592 0.76164 -0.11821
 C294 C 0.31741 0.76359 -0.13550
 C295 C 0.42725 0.75538 -0.04454
 C296 C 0.44841 0.75475 -0.03040
 C297 C 0.09868 0.36129 0.24020
 N298 N 0.07071 0.35840 0.23409
 N299 N 0.05331 0.38033 0.23566
 C300 C 0.06336 0.40577 0.24343
 N301 N 0.09129 0.40862 0.24957
 N302 N 0.10868 0.38672 0.24800
 C303 C 0.11767 0.33795 0.23794
 C304 C 0.13413 0.31875 0.23594
 C305 C 0.04499 0.42968 0.24434
 C306 C 0.03033 0.45033 0.24491
 C307 C 0.09731 0.64191 0.76072
 N308 N 0.08484 0.63166 0.78420
 N309 N 0.06727 0.60985 0.78271
 C310 C 0.06162 0.59763 0.75769
 N311 N 0.07403 0.60793 0.73420
 N312 N 0.09160 0.62975 0.73569
 C313 C 0.11733 0.66448 0.76254
 C314 C 0.13459 0.68304 0.76423
 C315 C 0.04408 0.57312 0.75634
 C316 C 0.03007 0.55202 0.75541
 C317 C -0.10184 0.64056 0.23914
 N318 N -0.07347 0.64386 0.23550
 N319 N -0.05611 0.62189 0.23714
 C320 C -0.06663 0.59601 0.24249
 N321 N -0.09498 0.59275 0.24616
 N322 N -0.11232 0.61469 0.24451
 C323 C -0.12073 0.66397 0.23682
 C324 C -0.13709 0.68324 0.23473
 C325 C -0.04825 0.57212 0.24362
 C326 C -0.03358 0.55149 0.24439
 C327 C -0.09851 0.35927 0.75942
 N328 N -0.07145 0.35762 0.76896
 N329 N -0.05419 0.37968 0.76722
 C330 C -0.06349 0.40402 0.75587
 N331 N -0.09051 0.40562 0.74629
 N332 N -0.10776 0.38359 0.74803
 C333 C -0.11750 0.33592 0.76208
 C334 C -0.13397 0.31673 0.76441
 C335 C -0.04548 0.42823 0.75500
 C336 C -0.03121 0.44917 0.75449
 C337 C 0.23635 0.09827 0.36035
 N338 N 0.26186 0.08775 0.36820
 N339 N 0.26372 0.07035 0.38994
 C340 C 0.24011 0.06293 0.40446
 N341 N 0.21461 0.07341 0.39657
 N342 N 0.21276 0.09080 0.37484
 C343 C 0.23442 0.11788 0.33768
 C344 C 0.23261 0.13475 0.31901
 C345 C 0.24219 0.04534 0.42872
 C346 C 0.24364 0.03121 0.44958
 C347 C 0.76303 0.09788 0.64049
 N348 N 0.73814 0.09456 0.62666
 N349 N 0.73640 0.07717 0.60490
 C350 C 0.75950 0.06255 0.59634
 N351 N 0.78439 0.06584 0.61020
 N352 N 0.78612 0.08323 0.63196
 C353 C 0.76521 0.11749 0.66315
 C354 C 0.76720 0.13435 0.68184
 C355 C 0.75802 0.04497 0.57202
 C356 C 0.75698 0.03085 0.55113
 C357 C 0.23987 -0.09855 0.64038
 N358 N 0.26482 -0.09468 0.62670
 N359 N 0.26642 -0.07706 0.60511
 C360 C 0.24314 -0.06275 0.59658
 N361 N 0.21822 -0.06656 0.61032
 N362 N 0.21661 -0.08418 0.63190
 C363 C 0.23780 -0.11853 0.66273
 C364 C 0.23585 -0.13570 0.68114
 C365 C 0.24444 -0.04508 0.57232
 C366 C 0.24522 -0.03091 0.55144
 C367 C 0.76121 -0.09790 0.35955
 N368 N 0.78436 -0.08317 0.36778
 N369 N 0.78283 -0.06582 0.38958
 C370 C 0.75810 -0.06266 0.40380
 N371 N 0.73493 -0.07735 0.39554
 N372 N 0.73646 -0.09470 0.37374
 C373 C 0.76321 -0.11750 0.33687
 C374 C 0.76509 -0.13434 0.31816
 C375 C 0.75688 -0.04516 0.42819
 C376 C 0.75612 -0.03108 0.44913
 C377 C 0.64280 0.76260 -0.09696
 N378 N 0.62876 0.73801 -0.09384
 N379 N 0.60676 0.73611 -0.07636
 C380 C 0.59816 0.75873 -0.06146
 N381 N 0.61224 0.78330 -0.06454
 N382 N 0.63424 0.78520 -0.08201
 C383 C 0.66558 0.76499 -0.11679
 C384 C 0.68432 0.76713 -0.13387
 C385 C 0.57342 0.75714 -0.04398
 C386 C 0.55212 0.75602 -0.03002
 C387 C 0.35740 0.23820 -0.09702
 N388 N 0.36716 0.21515 -0.08356
 N389 N 0.38916 0.21702 -0.06616
 C390 C 0.40206 0.24200 -0.06167
 N391 N 0.39226 0.26506 -0.07508
 N392 N 0.37025 0.26319 -0.09248
 C393 C 0.33466 0.23590 -0.11682
 C394 C 0.31596 0.23379 -0.13389
 C395 C 0.42680 0.24364 -0.04430
 C396 C 0.44809 0.24469 -0.03039
 C397 C 0.35755 0.76075 0.09809
 N398 N 0.37286 0.73679 0.09637
 N399 N 0.39483 0.73498 0.07885
 C400 C 0.40212 0.75705 0.06250
 N401 N 0.38677 0.78098 0.06417
 N402 N 0.36480 0.78280 0.08169
 C403 C 0.33483 0.76319 0.11797
 C404 C 0.31615 0.76547 0.13510
 C405 C 0.42682 0.75571 0.04496
 C406 C 0.44810 0.75492 0.03094
 C407 C 0.64273 0.23741 0.09695
 N408 N 0.63218 0.21424 0.08429
 N409 N 0.61016 0.21618 0.06693
 C410 C 0.59803 0.24136 0.06168
 N411 N 0.60863 0.26455 0.07428
 N412 N 0.63066 0.26260 0.09165
 C413 C 0.66551 0.23507 0.11671
 C414 C 0.68424 0.23290 0.13373
 C415 C 0.57327 0.24315 0.04435
 C416 C 0.55197 0.24434 0.03046
 C417 C -0.09986 0.64087 0.76005
 N418 N -0.07166 0.64379 0.76499
 N419 N -0.05442 0.62173 0.76337
 C420 C -0.06488 0.59612 0.75676
 N421 N -0.09306 0.59324 0.75179
 N422 N -0.11028 0.61527 0.75341
 C423 C -0.11868 0.66434 0.76245
 C424 C -0.13501 0.68363 0.76462
 C425 C -0.04666 0.57211 0.75574
 C426 C -0.03212 0.55138 0.75506
 C427 C -0.09809 0.35862 0.24060
 N428 N -0.07198 0.35815 0.22860
 N429 N -0.05494 0.38037 0.23031
 C430 C -0.06352 0.40370 0.24411
 N431 N -0.08960 0.40413 0.25614
 N432 N -0.10662 0.38192 0.25443
 C433 C -0.11696 0.33520 0.23786
 C434 C -0.13333 0.31596 0.23542
 C435 C -0.04589 0.42817 0.24486
 C436 C -0.03188 0.44928 0.24527
 C437 C 0.09887 0.36032 0.75944
 N438 N 0.07140 0.35811 0.76772
 N439 N 0.05408 0.38011 0.76610
 C440 C 0.06374 0.40494 0.75614
 N441 N 0.09118 0.40710 0.74783
 N442 N 0.10848 0.38513 0.74945
 C443 C 0.11786 0.33699 0.76191
 C444 C 0.13431 0.31782 0.76412
 C445 C 0.04555 0.42899 0.75524
 C446 C 0.03104 0.44974 0.75466
 C447 C 0.09495 0.64308 0.23915
 N448 N 0.09056 0.62988 0.26392
 N449 N 0.07321 0.60788 0.26542
 C450 C 0.05972 0.59845 0.24218
 N451 N 0.06406 0.61170 0.21743
 N452 N 0.08140 0.63369 0.21593
 C453 C 0.11470 0.66587 0.23724
 C454 C 0.13173 0.68462 0.23545
 C455 C 0.04241 0.57378 0.24343
 C456 C 0.02858 0.55258 0.24424
 C457 C 0.76311 -0.09678 0.64125
 N458 N 0.78664 -0.08390 0.63113
 N459 N 0.78482 -0.06662 0.60931
 C460 C 0.75941 -0.06167 0.59697
 N461 N 0.73586 -0.07451 0.60712
 N462 N 0.73768 -0.09180 0.62894
 C463 C 0.76531 -0.11634 0.66392
 C464 C 0.76734 -0.13317 0.68261
 C465 C 0.75776 -0.04433 0.57252
 C466 C 0.75671 -0.03043 0.55148
 C467 C 0.23850 -0.09645 0.35932
 N468 N 0.26386 -0.09144 0.37175
 N469 N 0.26560 -0.07407 0.39352
 C470 C 0.24203 -0.06117 0.40350
 N471 N 0.21668 -0.06613 0.39102
 N472 N 0.21494 -0.08350 0.36926
 C473 C 0.23635 -0.11621 0.33681
 C474 C 0.23433 -0.13323 0.31829
 C475 C 0.24357 -0.04386 0.42798
 C476 C 0.24459 -0.03003 0.44906
 C477 C 0.76165 0.09616 0.35863
 N478 N 0.78423 0.08020 0.36596
 N479 N 0.78261 0.06301 0.38788
 C480 C 0.75835 0.06125 0.40311
 N481 N 0.73575 0.07717 0.39574
 N482 N 0.73737 0.09436 0.37382
 C483 C 0.76386 0.11566 0.33590
 C484 C 0.76594 0.13247 0.31719
 C485 C 0.75715 0.04399 0.42766
 C486 C 0.75638 0.03016 0.44875
 C487 C 0.23778 0.09654 0.64186
 N488 N 0.21411 0.08450 0.63111
 N489 N 0.21595 0.06722 0.60928
 C490 C 0.24151 0.06143 0.59755
 N491 N 0.26519 0.07342 0.60833
 N492 N 0.26336 0.09071 0.63017
 C493 C 0.23560 0.11620 0.66447
 C494 C 0.23358 0.13314 0.68307
 C495 C 0.24323 0.04416 0.57303
 C496 C 0.24437 0.03035 0.55194
   
