data_POSCAR
  _audit_creation_date              2014-09-24
  _audit_creation_method            'ToBaCCo'
  _symmetry_space_group_name_H-M    'P1'
  _symmetry_Int_Tables_number       1
  _symmetry_cell_setting            triclinic
  loop_
  _symmetry_equiv_pos_as_xyz
 x,y,z
_cell_length_a 41.5585
_cell_length_b 41.5027
_cell_length_c 41.5725
_cell_angle_alpha 89.969700
_cell_angle_beta 89.993100
_cell_angle_gamma 89.877000
loop_
  _atom_site_label
  _atom_site_type_symbol
  _atom_site_fract_x
  _atom_site_fract_y
  _atom_site_fract_z
C1 C 0.27407 0.25000 0.22606
 C2 C 0.25017 0.27386 0.22607
 C3 C 0.22632 0.27389 0.24990
 C4 C 0.22639 0.25002 0.27374
 C5 C 0.25027 0.22613 0.27377
 C6 C 0.27410 0.22614 0.24992
 H7 H 0.25012 0.29234 0.20760
 H8 H 0.20794 0.25002 0.29220
 H9 H 0.29259 0.20766 0.24993
 C10 C 0.72547 -0.25028 0.22550
 C11 C 0.74947 -0.27409 0.22542
 C12 C 0.77338 -0.27410 0.24922
 C13 C 0.77325 -0.25027 0.27312
 C14 C 0.74929 -0.22647 0.27323
 C15 C 0.72541 -0.22648 0.24943
 H16 H 0.74953 -0.29253 0.20691
 H17 H 0.79171 -0.25019 0.29158
 H18 H 0.70689 -0.20801 0.24959
 C19 C 0.72728 0.25107 0.77342
 C20 C 0.75107 0.27494 0.77342
 C21 C 0.77498 0.27495 0.74961
 C22 C 0.77502 0.25103 0.72579
 C23 C 0.75123 0.22716 0.72579
 C24 C 0.72737 0.22720 0.74961
 H25 H 0.75094 0.29340 0.79190
 H26 H 0.79347 0.25094 0.70732
 H27 H 0.70895 0.20873 0.74961
 C28 C 0.27302 -0.25116 0.77478
 C29 C 0.27309 -0.22739 0.75083
 C30 C 0.24927 -0.22732 0.72699
 C31 C 0.22533 -0.25105 0.72710
 C32 C 0.22520 -0.27487 0.75104
 C33 C 0.24908 -0.27489 0.77488
 H34 H 0.29162 -0.20902 0.75075
 H35 H 0.20691 -0.25093 0.70860
 H36 H 0.24908 -0.29327 0.79345
 C37 C 0.72601 -0.25038 0.77439
 C38 C 0.72596 -0.22655 0.75052
 C39 C 0.74982 -0.22653 0.72672
 C40 C 0.77374 -0.25036 0.72678
 C41 C 0.77382 -0.27423 0.75066
 C42 C 0.74993 -0.27422 0.77446
 H43 H 0.70744 -0.20810 0.75047
 H44 H 0.79219 -0.25027 0.70831
 H45 H 0.74990 -0.29265 0.79299
 C46 C 0.27387 0.25005 0.77368
 C47 C 0.27384 0.22614 0.74991
 C48 C 0.24992 0.22608 0.72617
 C49 C 0.22604 0.24995 0.72621
 C50 C 0.22606 0.27386 0.74997
 C51 C 0.24998 0.27390 0.77371
 H52 H 0.29234 0.20767 0.74988
 H53 H 0.20751 0.24991 0.70783
 H54 H 0.25000 0.29241 0.79211
 C55 C 0.27464 -0.25023 0.22553
 C56 C 0.27470 -0.22646 0.24948
 C57 C 0.25080 -0.22637 0.27324
 C58 C 0.22683 -0.25004 0.27307
 C59 C 0.22674 -0.27380 0.24916
 C60 C 0.25063 -0.27390 0.22539
 H61 H 0.29324 -0.20808 0.24967
 H62 H 0.20833 -0.24997 0.29147
 H63 H 0.25050 -0.29235 0.20690
 C64 C 0.72644 0.25025 0.22606
 C65 C 0.75021 0.27413 0.22609
 C66 C 0.77402 0.27413 0.24994
 C67 C 0.77406 0.25025 0.27376
 C68 C 0.75029 0.22636 0.27373
 C69 C 0.72649 0.22637 0.24988
 H70 H 0.75018 0.29262 0.20765
 H71 H 0.79249 0.25025 0.29222
 H72 H 0.70808 0.20788 0.24986
 O73 O 0.22379 0.03075 0.46886
 O74 O 0.22360 -0.03208 0.53149
 O75 O 0.22359 0.03067 0.53150
 O76 O 0.22383 -0.03199 0.46884
 O77 O 0.27705 -0.03208 0.46902
 O78 O 0.27681 0.03058 0.53167
 O79 O 0.27681 -0.03218 0.53167
 O80 O 0.27701 0.03066 0.46903
 Cu81 Cu 0.21833 -0.00066 0.50016
 Cu82 Cu 0.28229 -0.00077 0.50037
 C83 C 0.25043 0.04131 0.45836
 C84 C 0.25017 -0.04274 0.54216
 C85 C 0.25016 0.04121 0.54215
 C86 C 0.25048 -0.04260 0.45835
 O87 O 0.77694 0.03100 0.53130
 O88 O 0.77645 -0.03183 0.46871
 O89 O 0.77678 0.03092 0.46866
 O90 O 0.77659 -0.03176 0.53137
 O91 O 0.72338 -0.03136 0.53150
 O92 O 0.72356 0.03131 0.46879
 O93 O 0.72324 -0.03143 0.46884
 O94 O 0.72373 0.03140 0.53143
 Cu95 Cu 0.78206 -0.00046 0.50000
 Cu96 Cu 0.71811 0.00001 0.50016
 C97 C 0.75042 0.04181 0.54192
 C98 C 0.74977 -0.04222 0.45820
 C99 C 0.75020 0.04169 0.45815
 C100 C 0.74995 -0.04214 0.54202
 O101 O 0.46923 0.22372 0.03085
 O102 O 0.53195 0.22395 -0.03181
 O103 O 0.53189 0.22382 0.03084
 O104 O 0.46928 0.22382 -0.03180
 O105 O 0.46906 0.27711 -0.03174
 O106 O 0.53168 0.27711 0.03091
 O107 O 0.53173 0.27724 -0.03174
 O108 O 0.46901 0.27701 0.03091
 Cu109 Cu 0.50061 0.21845 -0.00049
 Cu110 Cu 0.50035 0.28249 -0.00041
 C111 C 0.45854 0.25032 0.04146
 C112 C 0.54243 0.25063 -0.04235
 C113 C 0.54234 0.25047 0.04145
 C114 C 0.45860 0.25046 -0.04233
 O115 O 0.53116 0.77615 0.03204
 O116 O 0.46837 0.77590 -0.03054
 O117 O 0.46848 0.77604 0.03210
 O118 O 0.53104 0.77605 -0.03062
 O119 O 0.53126 0.72276 -0.03049
 O120 O 0.46870 0.72275 0.03223
 O121 O 0.46859 0.72261 -0.03041
 O122 O 0.53138 0.72287 0.03216
 Cu123 Cu 0.49974 0.78141 0.00073
 Cu124 Cu 0.50001 0.71737 0.00089
 C125 C 0.54186 0.74955 0.04266
 C126 C 0.45788 0.74921 -0.04104
 C127 C 0.45803 0.74940 0.04274
 C128 C 0.54170 0.74941 -0.04114
 O129 O 0.03096 0.46946 0.22281
 O130 O -0.03182 0.53228 0.22266
 O131 O 0.03087 0.53220 0.22261
 O132 O -0.03169 0.46953 0.22286
 O133 O -0.03166 0.46967 0.27606
 O134 O 0.03090 0.53234 0.27581
 O135 O -0.03179 0.53242 0.27585
 O136 O 0.03100 0.46960 0.27601
 Cu137 Cu -0.00042 0.50086 0.21737
 Cu138 Cu -0.00038 0.50103 0.28130
 C139 C 0.04157 0.45892 0.24944
 C140 C -0.04241 0.54295 0.24923
 C141 C 0.04145 0.54284 0.24917
 C142 C -0.04222 0.45902 0.24950
 O143 O 0.03076 0.53188 0.77741
 O144 O -0.03186 0.46915 0.77705
 O145 O 0.03080 0.46913 0.77714
 O146 O -0.03193 0.53191 0.77732
 O147 O -0.03185 0.53217 0.72412
 O148 O 0.03088 0.46939 0.72394
 O149 O -0.03178 0.46941 0.72385
 O150 O 0.03083 0.53214 0.72421
 Cu151 Cu -0.00057 0.50050 0.78260
 Cu152 Cu -0.00047 0.50081 0.71866
 C153 C 0.04138 0.54258 0.75087
 C154 C -0.04238 0.45868 0.75039
 C155 C 0.04142 0.45867 0.75050
 C156 C -0.04248 0.54263 0.75075
 C157 C 0.35240 0.24823 0.10463
 C158 C 0.34922 0.22275 0.13169
 C159 C 0.34398 0.25004 0.15611
 C160 C 0.34677 0.27552 0.12944
 C161 C 0.38871 0.25012 0.11132
 C162 C 0.38346 0.27741 0.13574
 C163 C 0.38591 0.22464 0.13800
 C164 C 0.38028 0.25193 0.16280
 C165 C 0.31906 0.25001 0.18105
 C166 C 0.29856 0.24999 0.20157
 C167 C 0.41363 0.25018 0.08638
 C168 C 0.43413 0.25024 0.06586
 H169 H 0.34120 0.24671 0.08044
 H170 H 0.33486 0.20027 0.13030
 H171 H 0.33040 0.29644 0.12619
 H172 H 0.39782 0.29990 0.13713
 H173 H 0.40228 0.20372 0.14125
 H174 H 0.39147 0.25346 0.18699
 C175 C 0.60535 0.74577 0.14854
 C176 C 0.63370 0.72155 0.15057
 C177 C 0.65670 0.74975 0.15703
 C178 C 0.62873 0.77397 0.15539
 C179 C 0.61185 0.74973 0.11237
 C180 C 0.63485 0.77793 0.11883
 C181 C 0.63981 0.72550 0.11402
 C182 C 0.66320 0.75370 0.12086
 C183 C 0.68168 0.74974 0.18191
 C184 C 0.70223 0.74972 0.20237
 C185 C 0.58686 0.74969 0.08749
 C186 C 0.56632 0.74964 0.06702
 H187 H 0.58128 0.74251 0.15966
 H188 H 0.63350 0.69836 0.16389
 H189 H 0.62445 0.79390 0.17267
 H190 H 0.63505 0.80111 0.10551
 H191 H 0.64410 0.70557 0.09673
 H192 H 0.68726 0.75697 0.10975
 C193 C 0.60698 0.26150 -0.14710
 C194 C 0.63867 0.28105 -0.14562
 C195 C 0.65723 0.25100 -0.15676
 C196 C 0.62593 0.23145 -0.15862
 C197 C 0.61238 0.25088 -0.11209
 C198 C 0.63094 0.22083 -0.12324
 C199 C 0.64368 0.27043 -0.11024
 C200 C 0.66263 0.24038 -0.12176
 C201 C 0.68221 0.25105 -0.18165
 C202 C 0.70275 0.25107 -0.20212
 C203 C 0.58740 0.25079 -0.08721
 C204 C 0.56686 0.25072 -0.06673
 H205 H 0.58383 0.27018 -0.15724
 H206 H 0.64213 0.30581 -0.15510
 H207 H 0.61890 0.21543 -0.17879
 H208 H 0.62749 0.19607 -0.11376
 H209 H 0.65071 0.28645 -0.09007
 H210 H 0.68578 0.23170 -0.11162
 C211 C 0.38107 0.72055 -0.13338
 C212 C 0.34456 0.72498 -0.12717
 C213 C 0.34303 0.74886 -0.15538
 C214 C 0.37915 0.74443 -0.16198
 C215 C 0.38788 0.74897 -0.11072
 C216 C 0.38635 0.77285 -0.13894
 C217 C 0.35176 0.75340 -0.10413
 C218 C 0.34984 0.77728 -0.13273
 C219 C 0.31805 0.74882 -0.18027
 C220 C 0.29752 0.74881 -0.20075
 C221 C 0.41287 0.74904 -0.08585
 C222 C 0.43342 0.74911 -0.06539
 H223 H 0.39418 0.69722 -0.13337
 H224 H 0.32710 0.70529 -0.12260
 H225 H 0.39014 0.74073 -0.18604
 H226 H 0.40380 0.79253 -0.14352
 H227 H 0.34077 0.75709 -0.08007
 H228 H 0.33673 0.80061 -0.13274
 C229 C 0.12320 0.37086 0.21954
 C230 C 0.15839 0.37569 0.23083
 C231 C 0.15628 0.34397 0.24978
 C232 C 0.12147 0.33876 0.23850
 C233 C 0.11148 0.38886 0.24964
 C234 C 0.10936 0.35715 0.26860
 C235 C 0.14629 0.39407 0.26093
 C236 C 0.14455 0.36197 0.27989
 C237 C 0.18124 0.31898 0.24985
 C238 C 0.20178 0.29843 0.24988
 C239 C 0.08653 0.41387 0.24955
 C240 C 0.06601 0.43444 0.24949
 H241 H 0.11415 0.37479 0.19472
 H242 H 0.17883 0.38304 0.21529
 H243 H 0.11154 0.31574 0.22928
 H244 H 0.08893 0.34979 0.28414
 H245 H 0.15622 0.41709 0.27015
 H246 H 0.15361 0.35804 0.30470
 C247 C 0.14087 0.61213 0.77342
 C248 C 0.16238 0.62094 0.74429
 C249 C 0.15631 0.65681 0.75118
 C250 C 0.13518 0.64839 0.78032
 C251 C 0.11138 0.61225 0.75114
 C252 C 0.10530 0.64812 0.75803
 C253 C 0.13251 0.62068 0.72201
 C254 C 0.12681 0.65693 0.72890
 C255 C 0.18134 0.68163 0.75117
 C256 C 0.20193 0.70205 0.75112
 C257 C 0.08636 0.58741 0.75108
 C258 C 0.06581 0.56696 0.75100
 H259 H 0.14638 0.59344 0.79173
 H260 H 0.18613 0.61004 0.73864
 H261 H 0.13656 0.66005 0.80430
 H262 H 0.08155 0.65902 0.76369
 H263 H 0.13113 0.60901 0.69802
 H264 H 0.12131 0.67562 0.71059
 C265 C -0.11756 0.63751 0.22206
 C266 C -0.15423 0.63102 0.22341
 C267 C -0.15759 0.65741 0.24909
 C268 C -0.12131 0.66430 0.24775
 C269 C -0.11257 0.61275 0.24911
 C270 C -0.11593 0.63915 0.27480
 C271 C -0.14886 0.60587 0.25045
 C272 C -0.15261 0.63265 0.27614
 C273 C -0.18267 0.68229 0.24911
 C274 C -0.20331 0.70276 0.24915
 C275 C -0.08750 0.58786 0.24913
 C276 C -0.06690 0.56736 0.24917
 H277 H -0.10287 0.63924 0.19983
 H278 H -0.17026 0.62795 0.20227
 H279 H -0.11025 0.68860 0.24665
 H280 H -0.09991 0.64223 0.29593
 H281 H -0.15992 0.58157 0.25156
 H282 H -0.16730 0.63093 0.29837
 C283 C -0.14334 0.39044 0.73045
 C284 C -0.13813 0.35503 0.71981
 C285 C -0.15658 0.34374 0.74977
 C286 C -0.16217 0.37875 0.76042
 C287 C -0.11200 0.38864 0.74999
 C288 C -0.13046 0.37734 0.77996
 C289 C -0.10641 0.35363 0.73935
 C290 C -0.12525 0.34194 0.76931
 C291 C -0.18143 0.31873 0.74967
 C292 C -0.20188 0.29817 0.74962
 C293 C -0.08716 0.41366 0.75013
 C294 C -0.06672 0.43422 0.75025
 H295 H -0.15050 0.41065 0.71448
 H296 H -0.14155 0.34558 0.69507
 H297 H -0.18538 0.38880 0.76908
 H298 H -0.12704 0.38679 0.80470
 H299 H -0.08321 0.34357 0.73069
 H300 H -0.11808 0.32173 0.78529
 C301 C 0.27929 0.11900 0.36666
 C302 C 0.25624 0.12009 0.33738
 C303 C 0.25044 0.15610 0.34374
 C304 C 0.27348 0.15540 0.37262
 C305 C 0.25050 0.11128 0.38851
 C306 C 0.24469 0.14730 0.39486
 C307 C 0.22745 0.11198 0.35962
 C308 C 0.22164 0.14838 0.36559
 C309 C 0.25038 0.18107 0.31880
 C310 C 0.25032 0.20161 0.29828
 C311 C 0.25051 0.08631 0.41345
 C312 C 0.25049 0.06577 0.43396
 H313 H 0.30300 0.10665 0.36737
 H314 H 0.26099 0.10918 0.31347
 H315 H 0.29241 0.17353 0.37770
 H316 H 0.23994 0.15821 0.41877
 H317 H 0.20852 0.09386 0.35454
 H318 H 0.19794 0.16074 0.36487
 C319 C 0.75575 0.10559 0.64759
 C320 C 0.77953 0.13425 0.64902
 C321 C 0.75116 0.15697 0.65606
 C322 C 0.72738 0.12869 0.65501
 C323 C 0.75091 0.11198 0.61150
 C324 C 0.72254 0.13471 0.61854
 C325 C 0.77469 0.14026 0.61255
 C326 C 0.74632 0.16337 0.61997
 C327 C 0.75124 0.18202 0.68089
 C328 C 0.75127 0.20260 0.70134
 C329 C 0.75075 0.08692 0.58667
 C330 C 0.75060 0.06632 0.56625
 H331 H 0.75963 0.08155 0.65867
 H332 H 0.80297 0.13434 0.66182
 H333 H 0.70792 0.12421 0.67274
 H334 H 0.69910 0.13462 0.60574
 H335 H 0.79415 0.14475 0.59482
 H336 H 0.74244 0.18741 0.60889
 C337 C 0.24622 -0.10601 0.64820
 C338 C 0.22170 -0.13399 0.65047
 C339 C 0.24961 -0.15746 0.65686
 C340 C 0.27413 -0.12987 0.65497
 C341 C 0.24987 -0.11269 0.61203
 C342 C 0.27778 -0.13617 0.61842
 C343 C 0.22534 -0.14028 0.61392
 C344 C 0.25326 -0.16415 0.62069
 C345 C 0.24948 -0.18238 0.68184
 C346 C 0.24938 -0.20287 0.70241
 C347 C 0.24999 -0.08773 0.58708
 C348 C 0.25009 -0.06720 0.56656
 H349 H 0.24333 -0.08183 0.65925
 H350 H 0.19863 -0.13336 0.66393
 H351 H 0.29420 -0.12586 0.67212
 H352 H 0.30085 -0.13680 0.60496
 H353 H 0.20528 -0.14430 0.59677
 H354 H 0.25615 -0.18833 0.60965
 C355 C 0.73077 -0.10951 0.35638
 C356 C 0.76096 -0.12194 0.33832
 C357 C 0.74923 -0.15667 0.34335
 C358 C 0.71905 -0.14462 0.36102
 C359 C 0.74936 -0.11201 0.38824
 C360 C 0.73764 -0.14674 0.39326
 C361 C 0.77954 -0.12406 0.37056
 C362 C 0.76782 -0.15917 0.37520
 C363 C 0.74920 -0.18155 0.31834
 C364 C 0.74922 -0.20201 0.29778
 C365 C 0.74947 -0.08712 0.41324
 C366 C 0.74959 -0.06663 0.43377
 H367 H 0.71554 -0.08882 0.34892
 H368 H 0.77054 -0.11202 0.31546
 H369 H 0.69417 -0.15335 0.35682
 H370 H 0.72805 -0.15667 0.41613
 H371 H 0.80442 -0.11534 0.37476
 H372 H 0.78306 -0.17987 0.38266
 C373 C 0.60590 0.76009 -0.14600
 C374 C 0.63760 0.77962 -0.14461
 C375 C 0.65610 0.74956 -0.15578
 C376 C 0.62480 0.73002 -0.15755
 C377 C 0.61140 0.74948 -0.11101
 C378 C 0.62990 0.71942 -0.12218
 C379 C 0.64271 0.76901 -0.10924
 C380 C 0.66160 0.73895 -0.12079
 C381 C 0.68101 0.74959 -0.18069
 C382 C 0.70151 0.74961 -0.20117
 C383 C 0.58652 0.74944 -0.08608
 C384 C 0.56605 0.74941 -0.06556
 H385 H 0.58272 0.76878 -0.15607
 H386 H 0.64105 0.80437 -0.15412
 H387 H 0.61772 0.71400 -0.17770
 H388 H 0.62646 0.69466 -0.11267
 H389 H 0.64979 0.78504 -0.08909
 H390 H 0.68478 0.73026 -0.11072
 C391 C 0.38196 0.22193 -0.13467
 C392 C 0.34546 0.22635 -0.12846
 C393 C 0.34394 0.25023 -0.15668
 C394 C 0.38005 0.24580 -0.16328
 C395 C 0.38876 0.25036 -0.11204
 C396 C 0.38723 0.27423 -0.14025
 C397 C 0.35264 0.25478 -0.10544
 C398 C 0.35073 0.27866 -0.13404
 C399 C 0.31898 0.25015 -0.18152
 C400 C 0.29843 0.25010 -0.20194
 C401 C 0.41370 0.25042 -0.08717
 C402 C 0.43421 0.25045 -0.06670
 H403 H 0.39509 0.19861 -0.13465
 H404 H 0.32801 0.20666 -0.12390
 H405 H 0.39103 0.24211 -0.18734
 H406 H 0.40469 0.29392 -0.14481
 H407 H 0.34166 0.25847 -0.08138
 H408 H 0.33760 0.30198 -0.13406
 C409 C 0.35191 0.74763 0.10569
 C410 C 0.34862 0.72221 0.13279
 C411 C 0.34338 0.74956 0.15713
 C412 C 0.34628 0.77499 0.13042
 C413 C 0.38819 0.74947 0.11248
 C414 C 0.38295 0.77682 0.13682
 C415 C 0.38529 0.72404 0.13919
 C416 C 0.37966 0.75140 0.16392
 C417 C 0.31842 0.74962 0.18198
 C418 C 0.29787 0.74969 0.20243
 C419 C 0.41314 0.74942 0.08761
 C420 C 0.43365 0.74940 0.06713
 H421 H 0.34078 0.74608 0.08147
 H422 H 0.33421 0.69976 0.13142
 H423 H 0.32995 0.79593 0.12710
 H424 H 0.39736 0.79927 0.13819
 H425 H 0.40162 0.70310 0.14251
 H426 H 0.39078 0.75295 0.18814
 C427 C 0.60537 0.24641 0.14744
 C428 C 0.63368 0.22215 0.14954
 C429 C 0.65668 0.25032 0.15611
 C430 C 0.62876 0.27458 0.15440
 C431 C 0.61203 0.25040 0.11131
 C432 C 0.63503 0.27857 0.11788
 C433 C 0.63995 0.22615 0.11302
 C434 C 0.66334 0.25432 0.11998
 C435 C 0.68154 0.25028 0.18105
 C436 C 0.70200 0.25026 0.20157
 C437 C 0.58717 0.25044 0.08636
 C438 C 0.56670 0.25046 0.06585
 H439 H 0.58126 0.24316 0.15844
 H440 H 0.63342 0.19896 0.16285
 H441 H 0.62444 0.29449 0.17170
 H442 H 0.63530 0.30177 0.10457
 H443 H 0.64427 0.20623 0.09572
 H444 H 0.68745 0.25756 0.10898
 C445 C -0.11737 0.63724 0.72379
 C446 C -0.15405 0.63082 0.72512
 C447 C -0.15735 0.65722 0.75080
 C448 C -0.12105 0.66403 0.74947
 C449 C -0.11246 0.61248 0.75085
 C450 C -0.11575 0.63888 0.77653
 C451 C -0.14875 0.60567 0.75218
 C452 C -0.15244 0.63246 0.77786
 C453 C -0.18234 0.68212 0.75076
 C454 C -0.20293 0.70261 0.75072
 C455 C -0.08747 0.58756 0.75084
 C456 C -0.06692 0.56705 0.75082
 H457 H -0.10266 0.63892 0.70156
 H458 H -0.17008 0.62779 0.70399
 H459 H -0.10995 0.68831 0.74836
 H460 H -0.09972 0.64192 0.79766
 H461 H -0.15986 0.58139 0.75329
 H462 H -0.16715 0.63079 0.80008
 C463 C -0.14319 0.39080 0.23034
 C464 C -0.13802 0.35536 0.21981
 C465 C -0.15635 0.34419 0.24989
 C466 C -0.16191 0.37923 0.26042
 C467 C -0.11179 0.38906 0.24976
 C468 C -0.13012 0.37789 0.27984
 C469 C -0.10623 0.35401 0.23923
 C470 C -0.12495 0.34245 0.26931
 C471 C -0.18116 0.31921 0.24994
 C472 C -0.20159 0.29866 0.24995
 C473 C -0.08697 0.41404 0.24968
 C474 C -0.06654 0.43459 0.24960
 H475 H -0.15040 0.41096 0.21431
 H476 H -0.14155 0.34581 0.19513
 H477 H -0.18508 0.38932 0.26913
 H478 H -0.12659 0.38744 0.30453
 H479 H -0.08306 0.34393 0.23052
 H480 H -0.11774 0.32229 0.28534
 C481 C 0.12290 0.37080 0.72008
 C482 C 0.15812 0.37562 0.73127
 C483 C 0.15606 0.34385 0.75014
 C484 C 0.12123 0.33865 0.73895
 C485 C 0.11128 0.38870 0.75028
 C486 C 0.10922 0.35693 0.76915
 C487 C 0.14611 0.39390 0.76147
 C488 C 0.14444 0.36174 0.78034
 C489 C 0.18100 0.31889 0.75006
 C490 C 0.20153 0.29836 0.75002
 C491 C 0.08634 0.41367 0.75035
 C492 C 0.06584 0.43422 0.75042
 H493 H 0.11376 0.37482 0.69531
 H494 H 0.17851 0.38301 0.71570
 H495 H 0.11129 0.31565 0.72969
 H496 H 0.08883 0.34953 0.78473
 H497 H 0.15605 0.41690 0.77073
 H498 H 0.15359 0.35773 0.80511
 C499 C 0.14096 0.61220 0.27124
 C500 C 0.16246 0.62094 0.24208
 C501 C 0.15644 0.65681 0.24895
 C502 C 0.13533 0.64846 0.27811
 C503 C 0.11145 0.61236 0.24898
 C504 C 0.10544 0.64824 0.25585
 C505 C 0.13256 0.62071 0.21982
 C506 C 0.12694 0.65698 0.22669
 C507 C 0.18150 0.68155 0.24898
 C508 C 0.20212 0.70190 0.24904
 C509 C 0.08643 0.58758 0.24902
 C510 C 0.06588 0.56717 0.24908
 H511 H 0.14644 0.59350 0.28956
 H512 H 0.18619 0.61000 0.23642
 H513 H 0.13676 0.66015 0.30208
 H514 H 0.08171 0.65918 0.26152
 H515 H 0.13114 0.60903 0.19585
 H516 H 0.12146 0.67568 0.20838
 C517 C 0.74621 -0.10522 0.64809
 C518 C 0.72176 -0.13324 0.65043
 C519 C 0.74975 -0.15664 0.65675
 C520 C 0.77420 -0.12901 0.65480
 C521 C 0.74979 -0.11192 0.61193
 C522 C 0.77778 -0.13532 0.61825
 C523 C 0.72534 -0.13956 0.61388
 C524 C 0.75332 -0.16335 0.62059
 C525 C 0.74974 -0.18155 0.68170
 C526 C 0.74976 -0.20205 0.70223
 C527 C 0.74983 -0.08702 0.58697
 C528 C 0.74988 -0.06653 0.56644
 H529 H 0.74329 -0.08103 0.65911
 H530 H 0.69873 -0.13268 0.66395
 H531 H 0.79429 -0.12495 0.67191
 H532 H 0.80081 -0.13590 0.60473
 H533 H 0.70525 -0.14362 0.59676
 H534 H 0.75625 -0.18754 0.60956
 C535 C 0.23222 -0.10969 0.35645
 C536 C 0.26248 -0.12201 0.33846
 C537 C 0.25084 -0.15677 0.34341
 C538 C 0.22058 -0.14484 0.36101
 C539 C 0.25073 -0.11221 0.38834
 C540 C 0.23909 -0.14697 0.39329
 C541 C 0.28099 -0.12414 0.37074
 C542 C 0.26935 -0.15929 0.37530
 C543 C 0.25087 -0.18157 0.31839
 C544 C 0.25085 -0.20199 0.29780
 C545 C 0.25065 -0.08739 0.41335
 C546 C 0.25058 -0.06694 0.43391
 H547 H 0.21695 -0.08902 0.34899
 H548 H 0.27210 -0.11204 0.31563
 H549 H 0.19574 -0.15363 0.35672
 H550 H 0.22946 -0.15694 0.41612
 H551 H 0.30583 -0.11535 0.37502
 H552 H 0.28461 -0.17996 0.38275
 C553 C 0.77915 0.11925 0.36651
 C554 C 0.75613 0.12036 0.33722
 C555 C 0.75035 0.15636 0.34359
 C556 C 0.77337 0.15565 0.37249
 C557 C 0.75033 0.11156 0.38833
 C558 C 0.74455 0.14757 0.39469
 C559 C 0.72731 0.11228 0.35943
 C560 C 0.72153 0.14867 0.36540
 C561 C 0.75034 0.18131 0.31868
 C562 C 0.75032 0.20185 0.29820
 C563 C 0.75031 0.08662 0.41325
 C564 C 0.75027 0.06610 0.43375
 H565 H 0.80285 0.10687 0.36725
 H566 H 0.76089 0.10945 0.31331
 H567 H 0.79231 0.17377 0.37757
 H568 H 0.73979 0.15848 0.41861
 H569 H 0.70837 0.09416 0.35434
 H570 H 0.69784 0.16106 0.36466
 C571 C 0.25471 0.10466 0.64792
 C572 C 0.27839 0.13340 0.64948
 C573 C 0.24991 0.15600 0.65647
 C574 C 0.22623 0.12765 0.65529
 C575 C 0.24997 0.11114 0.61184
 C576 C 0.22150 0.13374 0.61882
 C577 C 0.27365 0.13948 0.61302
 C578 C 0.24518 0.16247 0.62039
 C579 C 0.24990 0.18098 0.68132
 C580 C 0.24990 0.20154 0.70176
 C581 C 0.25002 0.08616 0.58698
 C582 C 0.25007 0.06563 0.56651
 H583 H 0.25863 0.08061 0.65895
 H584 H 0.30178 0.13355 0.66238
 H585 H 0.20674 0.12308 0.67296
 H586 H 0.19810 0.13359 0.60593
 H587 H 0.29315 0.14406 0.59535
 H588 H 0.24126 0.18653 0.60936
   
