data_POSCAR
  _audit_creation_date              2014-09-24
  _audit_creation_method            'ToBaCCo'
  _symmetry_space_group_name_H-M    'P1'
  _symmetry_Int_Tables_number       1
  _symmetry_cell_setting            triclinic
  loop_
  _symmetry_equiv_pos_as_xyz
 x,y,z
_cell_length_a 70.9324
_cell_length_b 71.0376
_cell_length_c 28.6707
_cell_angle_alpha 90.011200
_cell_angle_beta 90.018000
_cell_angle_gamma 120.009700
loop_
  _atom_site_label
  _atom_site_type_symbol
  _atom_site_fract_x
  _atom_site_fract_y
  _atom_site_fract_z
C1 C 0.19897 0.47790 0.54271
 C2 C 0.18931 0.47794 0.50027
 C3 C 0.19910 0.47823 0.45780
 C4 C 0.21918 0.47850 0.45732
 C5 C 0.22915 0.47842 0.50023
 C6 C 0.21902 0.47810 0.54315
 C7 C 0.22921 0.47801 0.58522
 C8 C 0.24894 0.47823 0.58518
 C9 C 0.25930 0.47857 0.54308
 C10 C 0.24932 0.47868 0.50021
 C11 C 0.22957 0.47887 0.41523
 C12 C 0.24934 0.47916 0.41524
 C13 C 0.25948 0.47908 0.45730
 C14 C 0.27955 0.47941 0.45766
 C15 C 0.28920 0.47926 0.49999
 C16 C 0.27938 0.47883 0.54252
 H17 H 0.22197 0.47776 0.61862
 H18 H 0.25605 0.47814 0.61855
 H19 H 0.22247 0.47894 0.38184
 H20 H 0.25662 0.47945 0.38187
 H21 H 0.17390 0.47779 0.50030
 H22 H 0.30464 0.47950 0.49974
 C23 C 0.51817 -0.20210 0.45728
 C24 C 0.51784 -0.19260 0.49967
 C25 C 0.51820 -0.20205 0.54211
 C26 C 0.51890 -0.22158 0.54259
 C27 C 0.51924 -0.23141 0.49973
 C28 C 0.51888 -0.22163 0.45684
 C29 C 0.51921 -0.23161 0.41476
 C30 C 0.51987 -0.25088 0.41474
 C31 C 0.52023 -0.26089 0.45683
 C32 C 0.51993 -0.25106 0.49974
 C33 C 0.51926 -0.23153 0.58469
 C34 C 0.51993 -0.25079 0.58475
 C35 C 0.52026 -0.26084 0.54268
 C36 C 0.52090 -0.28044 0.54224
 C37 C 0.52121 -0.28995 0.49979
 C38 C 0.52087 -0.28048 0.45731
 H39 H 0.51895 -0.22460 0.38140
 H40 H 0.52009 -0.25788 0.38134
 H41 H 0.51903 -0.22449 0.61803
 H42 H 0.52017 -0.25777 0.61816
 H43 H 0.51729 -0.17760 0.49964
 H44 H 0.52167 -0.30502 0.49982
 C45 C 1.27904 0.80221 0.45892
 C46 C 1.28864 0.81183 0.50146
 C47 C 1.27892 0.80212 0.54384
 C48 C 1.25898 0.78219 0.54415
 C49 C 1.24904 0.77225 0.50116
 C50 C 1.25909 0.78228 0.45832
 C51 C 1.24893 0.77211 0.41616
 C52 C 1.22931 0.75250 0.41603
 C53 C 1.21910 0.74229 0.45803
 C54 C 1.22902 0.75223 0.50101
 C55 C 1.24873 0.77193 0.58615
 C56 C 1.22912 0.75231 0.58599
 C57 C 1.21897 0.74217 0.54382
 C58 C 1.19904 0.72221 0.54313
 C59 C 1.18947 0.71263 0.50054
 C60 C 1.19921 0.72238 0.45827
 H61 H 1.25609 0.77926 0.38281
 H62 H 1.22221 0.74538 0.38261
 H63 H 1.25582 0.77901 0.61960
 H64 H 1.22195 0.74514 0.61931
 H65 H 1.30398 0.82713 0.50159
 H66 H 1.17418 0.69730 0.50018
 C67 C 0.72150 0.52232 0.54372
 C68 C 0.71199 0.52266 0.50126
 C69 C 0.72166 0.52266 0.45884
 C70 C 0.74142 0.52237 0.45834
 C71 C 0.75125 0.52199 0.50118
 C72 C 0.74126 0.52194 0.54413
 C73 C 0.75130 0.52151 0.58615
 C74 C 0.77072 0.52111 0.58603
 C75 C 0.78091 0.52115 0.54388
 C76 C 0.77109 0.52162 0.50106
 C77 C 0.75158 0.52242 0.41620
 C78 C 0.77106 0.52212 0.41607
 C79 C 0.78107 0.52171 0.45809
 C80 C 0.80081 0.52136 0.45835
 C81 C 0.81030 0.52086 0.50065
 C82 C 0.80064 0.52072 0.54322
 H83 H 0.74417 0.52146 0.61958
 H84 H 0.77772 0.52077 0.61937
 H85 H 0.74455 0.52272 0.38287
 H86 H 0.77820 0.52218 0.38267
 H87 H 0.69679 0.52289 0.50111
 H88 H 0.82546 0.52055 0.50034
 C89 C 0.47730 0.19891 0.54354
 C90 C 0.47731 0.18920 0.50120
 C91 C 0.47733 0.19881 0.45871
 C92 C 0.47733 0.21869 0.45808
 C93 C 0.47732 0.22873 0.50088
 C94 C 0.47731 0.21880 0.54385
 C95 C 0.47733 0.22902 0.58585
 C96 C 0.47736 0.24864 0.58571
 C97 C 0.47737 0.25879 0.54353
 C98 C 0.47734 0.24872 0.50071
 C99 C 0.47735 0.22880 0.41590
 C100 C 0.47736 0.24840 0.41572
 C101 C 0.47736 0.25863 0.45771
 C102 C 0.47739 0.27853 0.45794
 C103 C 0.47741 0.28829 0.50023
 C104 C 0.47741 0.27873 0.54283
 H105 H 0.47733 0.22192 0.61925
 H106 H 0.47738 0.25582 0.61904
 H107 H 0.47735 0.22160 0.38261
 H108 H 0.47737 0.25550 0.38230
 H109 H 0.47732 0.17392 0.50131
 H110 H 0.47745 0.30361 0.49989
 C111 C 0.72136 0.20030 0.45857
 C112 C 0.71174 0.19060 0.50097
 C113 C 0.72160 0.20005 0.54340
 C114 C 0.74167 0.21979 0.54391
 C115 C 0.75164 0.22980 0.50105
 C116 C 0.74145 0.22002 0.45814
 C117 C 0.75160 0.23020 0.41607
 C118 C 0.77140 0.24965 0.41609
 C119 C 0.78176 0.25963 0.45819
 C120 C 0.77180 0.24964 0.50108
 C121 C 0.75200 0.22977 0.58601
 C122 C 0.77177 0.24924 0.58607
 C123 C 0.78197 0.25948 0.54400
 C124 C 0.80204 0.27928 0.54349
 C125 C 0.81167 0.28891 0.50099
 C126 C 0.80182 0.27937 0.45861
 H127 H 0.74431 0.22320 0.38271
 H128 H 0.77852 0.25681 0.38274
 H129 H 0.74487 0.22259 0.61935
 H130 H 0.77902 0.25624 0.61947
 H131 H 0.69630 0.17544 0.50095
 H132 H 0.82707 0.30412 0.50078
 N133 N 0.97785 0.52256 0.04962
 N134 N 0.96223 0.52714 0.05766
 N135 N 1.02368 0.53239 0.08180
 N136 N 1.03923 0.54326 0.11261
 N137 N 1.02367 0.54550 0.04952
 N138 N 1.03923 0.56570 0.05750
 N139 N 0.97792 0.50947 0.08188
 N140 N 0.96239 0.50477 0.11273
 C141 C 0.95269 0.51575 0.09688
 C142 C 1.04884 0.56392 0.09670
 N143 N 1.02378 0.47871 0.05000
 N144 N 1.03933 0.47406 0.05830
 N145 N 0.97799 0.46898 0.08215
 N146 N 0.96247 0.45820 0.11302
 N147 N 0.97796 0.45578 0.05004
 N148 N 0.96240 0.43560 0.05822
 N149 N 1.02375 0.49189 0.08209
 N150 N 1.03925 0.49659 0.11307
 Mn151 Mn 1.00084 0.50069 0.08243
 C152 C 1.04889 0.48552 0.09747
 C153 C 0.95283 0.43750 0.09735
 N154 N 1.02361 0.54537 -0.05111
 N155 N 1.03911 0.56556 -0.05942
 N156 N 0.97783 0.50925 -0.08313
 N157 N 0.96233 0.50457 -0.11409
 N158 N 0.97780 0.52243 -0.05101
 N159 N 0.96227 0.52710 -0.05926
 N160 N 1.02359 0.53216 -0.08321
 N161 N 1.03905 0.54296 -0.11422
 Mn162 Mn 1.00073 0.53418 -0.00075
 C163 C 1.04865 0.56367 -0.09862
 C164 C 0.95270 0.51566 -0.09843
 N165 N 0.97791 0.45563 -0.05059
 N166 N 0.96239 0.43541 -0.05867
 N167 N 1.02365 0.49166 -0.08292
 N168 N 1.03916 0.49631 -0.11380
 N169 N 1.02372 0.47857 -0.05063
 N170 N 1.03930 0.47395 -0.05868
 N171 N 0.97789 0.46875 -0.08286
 N172 N 0.96239 0.45786 -0.11376
 Mn173 Mn 1.00085 0.46695 -0.00029
 Mn174 Mn 1.00074 0.50045 -0.08349
 Cl175 Cl 1.00079 0.50057 -0.00053
 C176 C 0.95280 0.43719 -0.09791
 C177 C 1.04884 0.48532 -0.09792
 N178 N 0.50901 0.53168 -0.08338
 N179 N 0.50428 0.54249 -0.11420
 N180 N 0.54513 0.52210 -0.05101
 N181 N 0.56537 0.52678 -0.05894
 N182 N 0.53201 0.50896 -0.08331
 N183 N 0.54291 0.50432 -0.11409
 N184 N 0.52210 0.54484 -0.05106
 N185 N 0.52665 0.56500 -0.05902
 C186 C 0.51524 0.56314 -0.09825
 C187 C 0.56359 0.51540 -0.09815
 N188 N 0.53175 0.50877 0.08168
 N189 N 0.54258 0.50412 0.11265
 N190 N 0.52195 0.54473 0.04957
 N191 N 0.52657 0.56489 0.05790
 N192 N 0.50875 0.53149 0.08162
 N193 N 0.50402 0.54223 0.11260
 N194 N 0.54497 0.52198 0.04962
 N195 N 0.56520 0.52670 0.05792
 Mn196 Mn 0.53376 0.53363 -0.00072
 C197 C 0.56332 0.51526 0.09706
 C198 C 0.51508 0.56295 0.09704
 N199 N 0.49148 0.46835 -0.08371
 N200 N 0.49626 0.45760 -0.11460
 N201 N 0.45526 0.47787 -0.05175
 N202 N 0.43505 0.47321 -0.05999
 N203 N 0.46849 0.49108 -0.08381
 N204 N 0.45768 0.49579 -0.11471
 N205 N 0.47829 0.45512 -0.05165
 N206 N 0.47371 0.43496 -0.05985
 Mn207 Mn 0.50025 0.50002 -0.08401
 C208 C 0.48521 0.43690 -0.09895
 C209 C 0.43694 0.48468 -0.09911
 N210 N 0.46823 0.49087 0.08120
 N211 N 0.45730 0.49543 0.11208
 N212 N 0.47813 0.45499 0.04898
 N213 N 0.47351 0.43481 0.05706
 N214 N 0.49123 0.46816 0.08128
 N215 N 0.49589 0.45734 0.11221
 N216 N 0.45511 0.47774 0.04888
 N217 N 0.43486 0.47299 0.05690
 Mn218 Mn 0.49999 0.49982 0.08190
 Mn219 Mn 0.46648 0.46621 -0.00139
 Cl220 Cl 0.50012 0.49992 -0.00105
 C221 C 0.43661 0.48432 0.09615
 C222 C 0.48489 0.43667 0.09634
 N223 N 0.45537 -0.02319 0.05137
 N224 N 0.43516 -0.03867 0.05979
 N225 N 0.49153 0.02253 0.08338
 N226 N 0.49629 0.03805 0.11428
 N227 N 0.47829 0.02255 0.05134
 N228 N 0.47367 0.03810 0.05958
 N229 N 0.46864 -0.02316 0.08339
 N230 N 0.45786 -0.03858 0.11445
 C231 C 0.43710 -0.04818 0.09896
 C232 C 0.48519 0.04767 0.09868
 N233 N 0.54524 0.02256 0.05056
 N234 N 0.56549 0.03804 0.05865
 N235 N 0.50923 -0.02315 0.08286
 N236 N 0.50456 -0.03869 0.11362
 N237 N 0.52233 -0.02319 0.05050
 N238 N 0.52693 -0.03877 0.05837
 N239 N 0.53212 0.02254 0.08290
 N240 N 0.54304 0.03798 0.11386
 Mn241 Mn 0.50038 -0.00031 0.08359
 C242 C 0.56373 0.04758 0.09797
 C243 C 0.51556 -0.04834 0.09759
 N244 N 0.47807 0.02254 -0.04928
 N245 N 0.47342 0.03809 -0.05724
 N246 N 0.46829 -0.02318 -0.08162
 N247 N 0.45739 -0.03870 -0.11244
 N248 N 0.45517 -0.02321 -0.04927
 N249 N 0.43494 -0.03877 -0.05721
 N250 N 0.49117 0.02251 -0.08162
 N251 N 0.49580 0.03801 -0.11245
 Mn252 Mn 0.46651 -0.00033 0.00104
 C253 C 0.48477 0.04764 -0.09650
 C254 C 0.43672 -0.04834 -0.09646
 N255 N 0.52212 -0.02320 -0.05012
 N256 N 0.52679 -0.03870 -0.05847
 N257 N 0.53176 0.02252 -0.08211
 N258 N 0.54251 0.03809 -0.11289
 N259 N 0.54502 0.02255 -0.05007
 N260 N 0.56520 0.03817 -0.05819
 N261 N 0.50888 -0.02318 -0.08215
 N262 N 0.50417 -0.03864 -0.11314
 Mn263 Mn 0.53390 -0.00032 0.00021
 Mn264 Mn 0.50002 -0.00033 -0.08233
 Cl265 Cl 0.50020 -0.00032 0.00063
 C266 C 0.51530 -0.04825 -0.09761
 C267 C 0.56325 0.04775 -0.09722
 C268 C 1.18861 0.47831 0.41781
 C269 C 1.17881 0.47838 0.38349
 C270 C 1.16643 0.47848 0.34382
 C271 C 1.17470 0.49663 0.31446
 C272 C 1.16187 0.49742 0.27828
 C273 C 1.14057 0.48005 0.27108
 C274 C 1.13264 0.46166 0.30011
 C275 C 1.14548 0.46092 0.33623
 C276 C 1.12622 0.48153 0.23527
 C277 C 1.11179 0.46318 0.20891
 C278 C 1.09708 0.46420 0.17798
 C279 C 1.09662 0.48356 0.17289
 C280 C 1.11127 0.50204 0.19805
 C281 C 1.12599 0.50106 0.22897
 C282 C 1.08022 0.48415 0.14437
 C283 C 1.06610 0.48472 0.12206
 H284 H 1.19088 0.51034 0.32008
 H285 H 1.16853 0.51168 0.25620
 H286 H 1.11622 0.44818 0.29597
 H287 H 1.13886 0.44686 0.35897
 H288 H 1.11175 0.44799 0.21257
 H289 H 1.08577 0.44978 0.15876
 H290 H 1.11094 0.51707 0.19465
 H291 H 1.13664 0.51538 0.24920
 C292 C 0.52107 0.70911 0.41732
 C293 C 0.52121 0.69936 0.38301
 C294 C 0.52132 0.68699 0.34335
 C295 C 0.53883 0.68344 0.33656
 C296 C 0.53825 0.66995 0.30044
 C297 C 0.52008 0.65975 0.27063
 C298 C 0.50278 0.66385 0.27704
 C299 C 0.50340 0.67737 0.31322
 C300 C 0.51874 0.64400 0.23480
 C301 C 0.49912 0.62438 0.22770
 C302 C 0.49823 0.60874 0.19678
 C303 C 0.51689 0.61250 0.17244
 C304 C 0.53636 0.63218 0.17834
 C305 C 0.53728 0.64786 0.20926
 C306 C 0.51636 0.59555 0.14394
 C307 C 0.51583 0.58090 0.12164
 H308 H 0.55270 0.69067 0.35990
 H309 H 0.55167 0.66688 0.29692
 H310 H 0.48869 0.65645 0.25435
 H311 H 0.48974 0.67998 0.31822
 H312 H 0.48464 0.62076 0.24729
 H313 H 0.48312 0.59349 0.19276
 H314 H 0.55092 0.63524 0.15975
 H315 H 0.55255 0.66290 0.21355
 C316 C 0.28964 -0.18729 0.41900
 C317 C 0.29956 -0.17750 0.38475
 C318 C 0.31211 -0.16515 0.34516
 C319 C 0.31562 -0.14417 0.33769
 C320 C 0.32928 -0.13137 0.30166
 C321 C 0.33969 -0.13936 0.27261
 C322 C 0.33564 -0.16068 0.27970
 C323 C 0.32195 -0.17347 0.31579
 C324 C 0.35559 -0.12507 0.23688
 C325 C 0.37532 -0.12497 0.23060
 C326 C 0.39108 -0.11033 0.19972
 C327 C 0.38734 -0.09562 0.17459
 C328 C 0.36756 -0.09594 0.17968
 C329 C 0.35177 -0.11058 0.21057
 C330 C 0.40438 -0.07932 0.14604
 C331 C 0.41909 -0.06529 0.12368
 H332 H 0.30822 -0.13751 0.36044
 H333 H 0.33231 -0.11493 0.29760
 H334 H 0.34321 -0.16739 0.25761
 H335 H 0.31938 -0.18968 0.32133
 H336 H 0.37891 -0.13567 0.25081
 H337 H 0.40640 -0.11011 0.19632
 H338 H 0.36451 -0.08459 0.16047
 H339 H 0.33665 -0.11043 0.21422
 C340 C 0.81193 0.52148 0.41602
 C341 C 0.82180 0.52158 0.38173
 C342 C 0.83428 0.52167 0.34208
 C343 C 0.85524 0.53928 0.33492
 C344 C 0.86818 0.53870 0.29883
 C345 C 0.86034 0.52044 0.26941
 C346 C 0.83903 0.50304 0.27618
 C347 C 0.82610 0.50365 0.31232
 C348 C 0.87480 0.51912 0.23368
 C349 C 0.87507 0.49962 0.22708
 C350 C 0.88991 0.49879 0.19629
 C351 C 0.90464 0.51738 0.17159
 C352 C 0.90414 0.53671 0.17697
 C353 C 0.88930 0.53758 0.20776
 C354 C 0.92116 0.51693 0.14329
 C355 C 0.93537 0.51646 0.12119
 H356 H 0.86179 0.55323 0.35796
 H357 H 0.88461 0.55222 0.29503
 H358 H 0.83244 0.48887 0.25379
 H359 H 0.80991 0.48991 0.31761
 H360 H 0.86436 0.48522 0.24697
 H361 H 0.89026 0.48379 0.19267
 H362 H 0.91550 0.55121 0.15810
 H363 H 0.88932 0.55276 0.21167
 C364 C 0.47744 0.28959 0.41559
 C365 C 0.47752 0.29943 0.38127
 C366 C 0.47764 0.31190 0.34161
 C367 C 0.46004 0.31522 0.33394
 C368 C 0.46082 0.32883 0.29788
 C369 C 0.47928 0.33936 0.26900
 C370 C 0.49668 0.33549 0.27626
 C371 C 0.49586 0.32186 0.31239
 C372 C 0.48080 0.35523 0.23331
 C373 C 0.50036 0.37503 0.22728
 C374 C 0.50137 0.39076 0.19650
 C375 C 0.48290 0.38693 0.17124
 C376 C 0.46352 0.36708 0.17606
 C377 C 0.46247 0.35131 0.20684
 C378 C 0.48351 0.40395 0.14290
 C379 C 0.48409 0.41865 0.12075
 H380 H 0.44593 0.30773 0.35658
 H381 H 0.44730 0.33171 0.29369
 H382 H 0.51100 0.34316 0.25430
 H383 H 0.50960 0.31943 0.31807
 H384 H 0.51466 0.37869 0.24760
 H385 H 0.51641 0.40614 0.19332
 H386 H 0.44911 0.36396 0.15675
 H387 H 0.44726 0.33613 0.21031
 C388 C 0.70995 0.18948 0.41635
 C389 C 0.69980 0.17987 0.38214
 C390 C 0.68696 0.16775 0.34261
 C391 C 0.69380 0.15621 0.31440
 C392 C 0.68040 0.14297 0.27842
 C393 C 0.65995 0.14107 0.27028
 C394 C 0.65348 0.15316 0.29814
 C395 C 0.66689 0.16638 0.33406
 C396 C 0.64486 0.12566 0.23475
 C397 C 0.63180 0.13107 0.20733
 C398 C 0.61636 0.11585 0.17665
 C399 C 0.61383 0.09507 0.17287
 C400 C 0.62712 0.08972 0.19910
 C401 C 0.64255 0.10490 0.22978
 C402 C 0.59666 0.07875 0.14458
 C403 C 0.58185 0.06471 0.12243
 H404 H 0.70930 0.15712 0.32077
 H405 H 0.68594 0.13406 0.25724
 H406 H 0.63771 0.15181 0.29328
 H407 H 0.66137 0.17511 0.35592
 H408 H 0.63336 0.14700 0.20996
 H409 H 0.60612 0.12015 0.15658
 H410 H 0.62518 0.07362 0.19673
 H411 H 0.65212 0.10010 0.25086
 C412 C 0.47734 0.18787 -0.41416
 C413 C 0.47740 0.17805 -0.37992
 C414 C 0.47751 0.16564 -0.34037
 C415 C 0.49573 0.17381 -0.31111
 C416 C 0.49654 0.16094 -0.27514
 C417 C 0.47914 0.13967 -0.26806
 C418 C 0.46068 0.13183 -0.29696
 C419 C 0.45991 0.14472 -0.33288
 C420 C 0.48066 0.12525 -0.23257
 C421 C 0.46233 0.11080 -0.20621
 C422 C 0.46338 0.09601 -0.17563
 C423 C 0.48276 0.09551 -0.17090
 C424 C 0.50123 0.11018 -0.19605
 C425 C 0.50022 0.12497 -0.22663
 C426 C 0.48338 0.07905 -0.14275
 C427 C 0.48396 0.06490 -0.12075
 H428 H 0.50947 0.18997 -0.31666
 H429 H 0.51086 0.16752 -0.25315
 H430 H 0.44716 0.11544 -0.29292
 H431 H 0.44580 0.13817 -0.35554
 H432 H 0.44712 0.11079 -0.20960
 H433 H 0.44897 0.08470 -0.15639
 H434 H 0.51627 0.10982 -0.19294
 H435 H 0.51452 0.13564 -0.24689
 C436 C 0.71099 0.52230 -0.41628
 C437 C 0.70115 0.52228 -0.38197
 C438 C 0.68869 0.52224 -0.34235
 C439 C 0.67875 0.50413 -0.31291
 C440 C 0.66511 0.50338 -0.27685
 C441 C 0.66120 0.52076 -0.26988
 C442 C 0.67172 0.53912 -0.29896
 C443 C 0.68534 0.53982 -0.33496
 C444 C 0.64530 0.51930 -0.23429
 C445 C 0.64919 0.53767 -0.20810
 C446 C 0.63338 0.53667 -0.17746
 C447 C 0.61351 0.51732 -0.17251
 C448 C 0.60971 0.49882 -0.19748
 C449 C 0.62549 0.49977 -0.22811
 C450 C 0.59644 0.51675 -0.14434
 C451 C 0.58168 0.51619 -0.12236
 H452 H 0.68120 0.49041 -0.31838
 H453 H 0.65744 0.48914 -0.25472
 H454 H 0.66881 0.55261 -0.29500
 H455 H 0.69282 0.55385 -0.35776
 H456 H 0.66437 0.55286 -0.21168
 H457 H 0.63647 0.55111 -0.15837
 H458 H 0.59432 0.48380 -0.19419
 H459 H 0.62184 0.48544 -0.24823
 C460 C 0.81264 0.28974 -0.41654
 C461 C 0.82253 0.29955 -0.38225
 C462 C 0.83499 0.31201 -0.34265
 C463 C 0.85612 0.31574 -0.33586
 C464 C 0.86903 0.32937 -0.29986
 C465 C 0.86099 0.33951 -0.27018
 C466 C 0.83951 0.33522 -0.27658
 C467 C 0.82662 0.32157 -0.31263
 C468 C 0.87539 0.35542 -0.23456
 C469 C 0.87526 0.37498 -0.22775
 C470 C 0.89002 0.39078 -0.19705
 C471 C 0.90506 0.38725 -0.17265
 C472 C 0.90496 0.36763 -0.17824
 C473 C 0.89021 0.35179 -0.20894
 C474 C 0.92147 0.40435 -0.14440
 C475 C 0.93559 0.41912 -0.12230
 H476 H 0.86283 0.30856 -0.35912
 H477 H 0.88558 0.33258 -0.29635
 H478 H 0.83277 0.34259 -0.25399
 H479 H 0.81029 0.31883 -0.31764
 H480 H 0.86430 0.37842 -0.24741
 H481 H 0.89006 0.40598 -0.19327
 H482 H 0.91657 0.36474 -0.15960
 H483 H 0.89054 0.33681 -0.21302
 C484 C 0.51776 -0.19114 -0.41570
 C485 C 0.51736 -0.18144 -0.38155
 C486 C 0.51683 -0.16919 -0.34210
 C487 C 0.53531 -0.15764 -0.31411
 C488 C 0.53533 -0.14427 -0.27825
 C489 C 0.51686 -0.14225 -0.27000
 C490 C 0.49819 -0.15435 -0.29764
 C491 C 0.49821 -0.16769 -0.33345
 C492 C 0.51738 -0.12673 -0.23457
 C493 C 0.49898 -0.13200 -0.20697
 C494 C 0.49896 -0.11669 -0.17633
 C495 C 0.51733 -0.09594 -0.17277
 C496 C 0.53589 -0.09073 -0.19919
 C497 C 0.53595 -0.10600 -0.22984
 C498 C 0.51669 -0.07954 -0.14443
 C499 C 0.51609 -0.06544 -0.12220
 H500 H 0.54983 -0.15865 -0.32057
 H501 H 0.54986 -0.13537 -0.25723
 H502 H 0.48383 -0.15291 -0.29270
 H503 H 0.48387 -0.17643 -0.35514
 H504 H 0.48453 -0.14790 -0.20942
 H505 H 0.48448 -0.12089 -0.15610
 H506 H 0.55014 -0.07466 -0.19699
 H507 H 0.55025 -0.10131 -0.25105
 C508 C 0.28988 0.47872 -0.41755
 C509 C 0.29973 0.47863 -0.38332
 C510 C 0.31220 0.47856 -0.34379
 C511 C 0.31553 0.46095 -0.33672
 C512 C 0.32914 0.46155 -0.30079
 C513 C 0.33966 0.47983 -0.27145
 C514 C 0.33578 0.49723 -0.27812
 C515 C 0.32215 0.49659 -0.31410
 C516 C 0.35554 0.48117 -0.23588
 C517 C 0.37535 0.50067 -0.22940
 C518 C 0.39107 0.50153 -0.19872
 C519 C 0.38723 0.48296 -0.17399
 C520 C 0.36736 0.46362 -0.17926
 C521 C 0.35160 0.46272 -0.20995
 C522 C 0.40423 0.48345 -0.14569
 C523 C 0.41893 0.48395 -0.12355
 H524 H 0.30804 0.44698 -0.35972
 H525 H 0.33203 0.44804 -0.29707
 H526 H 0.34344 0.51142 -0.25579
 H527 H 0.31971 0.51033 -0.31933
 H528 H 0.37903 0.51506 -0.24930
 H529 H 0.40646 0.51654 -0.19517
 H530 H 0.36423 0.44913 -0.16037
 H531 H 0.33642 0.44755 -0.21376
 C532 C 1.18851 0.71158 -0.41701
 C533 C 1.17867 0.70162 -0.38283
 C534 C 1.16626 0.68901 -0.34335
 C535 C 1.17449 0.67900 -0.31425
 C536 C 1.16162 0.66524 -0.27833
 C537 C 1.14031 0.66129 -0.27116
 C538 C 1.13241 0.67188 -0.29992
 C539 C 1.14529 0.68561 -0.33578
 C540 C 1.12591 0.64532 -0.23566
 C541 C 1.11145 0.64914 -0.20915
 C542 C 1.09673 0.63330 -0.17847
 C543 C 1.09629 0.61347 -0.17379
 C544 C 1.11096 0.60973 -0.19912
 C545 C 1.12569 0.62554 -0.22980
 C546 C 1.07991 0.59641 -0.14543
 C547 C 1.06583 0.58169 -0.12320
 H548 H 1.19068 0.68149 -0.31986
 H549 H 1.16825 0.65754 -0.25645
 H550 H 1.11598 0.66894 -0.29580
 H551 H 1.13870 0.69314 -0.35833
 H552 H 1.11140 0.66429 -0.21248
 H553 H 1.08541 0.63634 -0.15910
 H554 H 1.11065 0.59438 -0.19604
 H555 H 1.13636 0.62195 -0.25016
 C556 C 0.81088 0.52008 -0.41691
 C557 C 0.82044 0.51945 -0.38268
 C558 C 0.83250 0.51864 -0.34313
 C559 C 0.84380 0.53685 -0.31436
 C560 C 0.85700 0.53663 -0.27836
 C561 C 0.85909 0.51818 -0.27077
 C562 C 0.84722 0.49977 -0.29920
 C563 C 0.83405 0.50004 -0.33514
 C564 C 0.87449 0.51848 -0.23523
 C565 C 0.86914 0.49989 -0.20836
 C566 C 0.88438 0.49967 -0.17770
 C567 C 0.90510 0.51803 -0.17342
 C568 C 0.91037 0.53677 -0.19910
 C569 C 0.89518 0.53703 -0.22975
 C570 C 0.92145 0.51722 -0.14515
 C571 C 0.93552 0.51652 -0.12298
 H572 H 0.84275 0.55136 -0.32031
 H573 H 0.86574 0.55096 -0.25674
 H574 H 0.84872 0.48544 -0.29475
 H575 H 0.82549 0.48591 -0.35743
 H576 H 0.85327 0.48545 -0.21139
 H577 H 0.88014 0.48506 -0.15805
 H578 H 0.92642 0.55102 -0.19632
 H579 H 0.89992 0.55147 -0.25041
 C580 C 0.47752 0.28935 -0.41730
 C581 C 0.47765 0.29927 -0.38307
 C582 C 0.47785 0.31183 -0.34349
 C583 C 0.49619 0.32196 -0.31460
 C584 C 0.49707 0.33567 -0.27858
 C585 C 0.47962 0.33943 -0.27109
 C586 C 0.46104 0.32872 -0.29964
 C587 C 0.46020 0.31504 -0.33560
 C588 C 0.48119 0.35538 -0.23555
 C589 C 0.46294 0.35142 -0.20876
 C590 C 0.46402 0.36725 -0.17810
 C591 C 0.48334 0.38719 -0.17375
 C592 C 0.50173 0.39106 -0.19934
 C593 C 0.50069 0.37527 -0.22998
 C594 C 0.48395 0.40423 -0.14551
 C595 C 0.48450 0.41893 -0.12340
 H596 H 0.50996 0.31962 -0.32047
 H597 H 0.51148 0.34348 -0.25686
 H598 H 0.44748 0.33151 -0.29527
 H599 H 0.44600 0.30740 -0.35799
 H600 H 0.44778 0.33617 -0.21187
 H601 H 0.44967 0.36410 -0.15852
 H602 H 0.51672 0.40651 -0.19650
 H603 H 0.51493 0.37896 -0.25057
 C604 C 0.71050 0.18890 -0.41441
 C605 C 0.70063 0.17902 -0.38022
 C606 C 0.68814 0.16653 -0.34071
 C607 C 0.67790 0.17453 -0.31161
 C608 C 0.66424 0.16157 -0.27568
 C609 C 0.66061 0.14041 -0.26849
 C610 C 0.67143 0.13275 -0.29723
 C611 C 0.68506 0.14573 -0.33311
 C612 C 0.64469 0.12588 -0.23307
 C613 C 0.64877 0.11162 -0.20654
 C614 C 0.63296 0.09672 -0.17603
 C615 C 0.61293 0.09592 -0.17155
 C616 C 0.60894 0.11041 -0.19687
 C617 C 0.62471 0.12531 -0.22737
 C618 C 0.59591 0.07936 -0.14347
 C619 C 0.58122 0.06511 -0.12149
 H620 H 0.68014 0.19060 -0.31725
 H621 H 0.65635 0.16801 -0.25381
 H622 H 0.66873 0.11644 -0.29310
 H623 H 0.69278 0.13932 -0.35566
 H624 H 0.66408 0.11184 -0.20975
 H625 H 0.63620 0.08555 -0.15666
 H626 H 0.59343 0.10982 -0.19394
 H627 H 0.62093 0.13583 -0.24777
 C628 C 1.18843 0.47779 -0.41727
 C629 C 1.17863 0.47775 -0.38289
 C630 C 1.16630 0.47781 -0.34313
 C631 C 1.14522 0.46040 -0.33600
 C632 C 1.13242 0.46116 -0.29983
 C633 C 1.14053 0.47942 -0.27034
 C634 C 1.16195 0.49661 -0.27706
 C635 C 1.17473 0.49580 -0.31328
 C636 C 1.12622 0.48098 -0.23459
 C637 C 1.12626 0.50063 -0.22798
 C638 C 1.11154 0.50170 -0.19723
 C639 C 1.09663 0.48319 -0.17257
 C640 C 1.09683 0.46371 -0.17793
 C641 C 1.11154 0.46260 -0.20869
 C642 C 1.08022 0.48388 -0.14434
 C643 C 1.06608 0.48450 -0.12227
 H644 H 1.13848 0.44646 -0.35912
 H645 H 1.11590 0.44782 -0.29605
 H646 H 1.16873 0.51076 -0.25462
 H647 H 1.19102 0.50939 -0.31857
 H648 H 1.13711 0.51498 -0.24788
 H649 H 1.11142 0.51682 -0.19362
 H650 H 1.08532 0.44926 -0.15907
 H651 H 1.11128 0.44731 -0.21260
 C652 C 0.52112 0.70921 -0.41774
 C653 C 0.52128 0.69953 -0.38335
 C654 C 0.52141 0.68726 -0.34357
 C655 C 0.50350 0.67770 -0.31345
 C656 C 0.50287 0.66424 -0.27716
 C657 C 0.52017 0.66014 -0.27064
 C658 C 0.53833 0.67029 -0.30042
 C659 C 0.53891 0.68372 -0.33664
 C660 C 0.51880 0.64440 -0.23481
 C661 C 0.53732 0.64826 -0.20918
 C662 C 0.53639 0.63255 -0.17838
 C663 C 0.51694 0.61284 -0.17271
 C664 C 0.49829 0.60910 -0.19709
 C665 C 0.49918 0.62477 -0.22788
 C666 C 0.51643 0.59584 -0.14450
 C667 C 0.51593 0.58114 -0.12249
 H668 H 0.48984 0.68031 -0.31856
 H669 H 0.48878 0.65687 -0.25450
 H670 H 0.55175 0.66721 -0.29680
 H671 H 0.55278 0.69091 -0.35997
 H672 H 0.55259 0.66331 -0.21336
 H673 H 0.55094 0.63559 -0.15976
 H674 H 0.48319 0.59382 -0.19323
 H675 H 0.48472 0.62116 -0.24755
 C676 C 0.28941 -0.18747 -0.41607
 C677 C 0.29920 -0.17776 -0.38163
 C678 C 0.31162 -0.16551 -0.34180
 C679 C 0.32133 -0.17392 -0.31231
 C680 C 0.33493 -0.16121 -0.27602
 C681 C 0.33901 -0.13989 -0.26885
 C682 C 0.32870 -0.13181 -0.29799
 C683 C 0.31513 -0.14454 -0.33422
 C684 C 0.35490 -0.12563 -0.23304
 C685 C 0.35110 -0.11112 -0.20676
 C686 C 0.36694 -0.09643 -0.17597
 C687 C 0.38673 -0.09611 -0.17097
 C688 C 0.39042 -0.11087 -0.19601
 C689 C 0.37462 -0.12555 -0.22679
 C690 C 0.40384 -0.07970 -0.14275
 C691 C 0.41862 -0.06557 -0.12073
 H692 H 0.31875 -0.19013 -0.31793
 H693 H 0.34243 -0.16797 -0.25385
 H694 H 0.33176 -0.11537 -0.29387
 H695 H 0.30782 -0.13782 -0.35707
 H696 H 0.33599 -0.11096 -0.21041
 H697 H 0.36393 -0.08504 -0.15683
 H698 H 0.40575 -0.11064 -0.19267
 H699 H 0.37818 -0.13628 -0.24697
 C700 C 0.51772 -0.19125 0.41504
 C701 C 0.51730 -0.18163 0.38079
 C702 C 0.51677 -0.16948 0.34118
 C703 C 0.49825 -0.16779 0.33268
 C704 C 0.49826 -0.15453 0.29670
 C705 C 0.51686 -0.14270 0.26875
 C706 C 0.53522 -0.14493 0.27682
 C707 C 0.53517 -0.15822 0.31286
 C708 C 0.51745 -0.12719 0.23324
 C709 C 0.53612 -0.10656 0.22830
 C710 C 0.53611 -0.09124 0.19776
 C711 C 0.51750 -0.09632 0.17164
 C712 C 0.49903 -0.11698 0.17534
 C713 C 0.49900 -0.13234 0.20588
 C714 C 0.51690 -0.07983 0.14362
 C715 C 0.51633 -0.06564 0.12173
 H716 H 0.48398 -0.17631 0.35462
 H717 H 0.48399 -0.15291 0.29188
 H718 H 0.54968 -0.13623 0.25557
 H719 H 0.54961 -0.15939 0.31921
 H720 H 0.55046 -0.10196 0.24933
 H721 H 0.55044 -0.07523 0.19544
 H722 H 0.48451 -0.12106 0.15535
 H723 H 0.48447 -0.14817 0.20850
 C724 C 0.29092 0.48000 0.41538
 C725 C 0.30100 0.48057 0.38108
 C726 C 0.31375 0.48130 0.34137
 C727 C 0.30675 0.46302 0.31282
 C728 C 0.32006 0.46319 0.27662
 C729 C 0.34056 0.48166 0.26863
 C730 C 0.34718 0.50014 0.29684
 C731 C 0.33387 0.49993 0.33297
 C732 C 0.35555 0.48132 0.23290
 C733 C 0.36868 0.49985 0.20573
 C734 C 0.38408 0.50005 0.17496
 C735 C 0.38651 0.48175 0.17086
 C736 C 0.37313 0.46306 0.19681
 C737 C 0.35774 0.46281 0.22758
 C738 C 0.40367 0.48259 0.14260
 C739 C 0.41849 0.48335 0.12051
 H740 H 0.29122 0.44849 0.31908
 H741 H 0.31440 0.44880 0.25518
 H742 H 0.36299 0.51449 0.29208
 H743 H 0.33951 0.51412 0.35509
 H744 H 0.36720 0.51425 0.20865
 H745 H 0.39438 0.51463 0.15511
 H746 H 0.37500 0.44886 0.19418
 H747 H 0.34812 0.44842 0.24846
 C748 C 1.18822 0.71130 0.41591
 C749 C 1.17848 0.70146 0.38154
 C750 C 1.16620 0.68900 0.34179
 C751 C 1.17459 0.67921 0.31248
 C752 C 1.16185 0.66558 0.27625
 C753 C 1.14052 0.66156 0.26897
 C754 C 1.13246 0.67194 0.29793
 C755 C 1.14522 0.68554 0.33410
 C756 C 1.12623 0.64566 0.23323
 C757 C 1.11175 0.64947 0.20678
 C758 C 1.09704 0.63363 0.17603
 C759 C 1.09666 0.61384 0.17122
 C760 C 1.11139 0.61014 0.19644
 C761 C 1.12610 0.62593 0.22719
 C762 C 1.08024 0.59675 0.14301
 C763 C 1.06610 0.58198 0.12098
 H764 H 1.19080 0.68176 0.31819
 H765 H 1.16859 0.65803 0.25423
 H766 H 1.11601 0.66893 0.29372
 H767 H 1.13851 0.69291 0.35680
 H768 H 1.11163 0.66459 0.21026
 H769 H 1.08568 0.63665 0.15675
 H770 H 1.11112 0.59480 0.19326
 H771 H 1.13680 0.62236 0.24751
 C772 C 0.47743 0.18770 0.41658
 C773 C 0.47755 0.17786 0.38242
 C774 C 0.47775 0.16546 0.34293
 C775 C 0.46013 0.14458 0.33519
 C776 C 0.46097 0.13171 0.29929
 C777 C 0.47950 0.13955 0.27067
 C778 C 0.49692 0.16079 0.27801
 C779 C 0.49604 0.17364 0.31396
 C780 C 0.48108 0.12516 0.23518
 C781 C 0.50061 0.12481 0.22956
 C782 C 0.50166 0.11005 0.19895
 C783 C 0.48325 0.09548 0.17346
 C784 C 0.46390 0.09606 0.17788
 C785 C 0.46281 0.11082 0.20849
 C786 C 0.48388 0.07905 0.14524
 C787 C 0.48445 0.06491 0.12314
 H788 H 0.44596 0.13803 0.35764
 H789 H 0.44743 0.11534 0.29504
 H790 H 0.51131 0.16737 0.25623
 H791 H 0.50979 0.18977 0.31971
 H792 H 0.51486 0.13540 0.25007
 H793 H 0.51667 0.10963 0.19606
 H794 H 0.44953 0.08482 0.15838
 H795 H 0.44762 0.11087 0.21165
 C796 C 0.71060 0.52282 0.41663
 C797 C 0.70076 0.52287 0.38239
 C798 C 0.68830 0.52284 0.34277
 C799 C 0.67880 0.50493 0.31268
 C800 C 0.66517 0.50414 0.27653
 C801 C 0.66085 0.52127 0.27011
 C802 C 0.67092 0.53943 0.29987
 C803 C 0.68452 0.54018 0.33596
 C804 C 0.64497 0.51973 0.23436
 C805 C 0.64864 0.53816 0.20873
 C806 C 0.63283 0.53705 0.17790
 C807 C 0.61320 0.51751 0.17220
 C808 C 0.60963 0.49896 0.19661
 C809 C 0.62541 0.50003 0.22743
 C810 C 0.59611 0.51679 0.14382
 C811 C 0.58136 0.51613 0.12161
 H812 H 0.68158 0.49139 0.31770
 H813 H 0.65786 0.49006 0.25388
 H814 H 0.66768 0.55272 0.29633
 H815 H 0.69167 0.55404 0.35928
 H816 H 0.66364 0.55348 0.21290
 H817 H 0.63573 0.55152 0.15925
 H818 H 0.59442 0.48380 0.19273
 H819 H 0.62194 0.48564 0.24710
 C820 C 0.81288 0.29049 0.41636
 C821 C 0.82268 0.30035 0.38209
 C822 C 0.83505 0.31282 0.34246
 C823 C 0.82679 0.32275 0.31318
 C824 C 0.83962 0.33637 0.27705
 C825 C 0.86090 0.34025 0.26984
 C826 C 0.86882 0.32974 0.29878
 C827 C 0.85598 0.31615 0.33485
 C828 C 0.87527 0.35611 0.23416
 C829 C 0.88967 0.35217 0.20773
 C830 C 0.90443 0.36794 0.17698
 C831 C 0.90495 0.38780 0.17216
 C832 C 0.89031 0.39164 0.19737
 C833 C 0.87555 0.37591 0.22811
 C834 C 0.92140 0.40482 0.14387
 C835 C 0.93556 0.41951 0.12176
 H836 H 0.81062 0.32031 0.31882
 H837 H 0.83298 0.34402 0.25503
 H838 H 0.88523 0.33264 0.29464
 H839 H 0.86259 0.30867 0.35754
 H840 H 0.88967 0.33700 0.21122
 H841 H 0.91572 0.36482 0.15770
 H842 H 0.89069 0.40702 0.19417
 H843 H 0.86492 0.37957 0.24841
   
