data_POSCAR
  _audit_creation_date              2014-09-24
  _audit_creation_method            'ToBaCCo'
  _symmetry_space_group_name_H-M    'P1'
  _symmetry_Int_Tables_number       1
  _symmetry_cell_setting            triclinic
  loop_
  _symmetry_equiv_pos_as_xyz
 x,y,z
_cell_length_a 16.5810
_cell_length_b 16.5209
_cell_length_c 23.2428
_cell_angle_alpha 90.059600
_cell_angle_beta 89.796500
_cell_angle_gamma 90.059500
loop_
  _atom_site_label
  _atom_site_type_symbol
  _atom_site_fract_x
  _atom_site_fract_y
  _atom_site_fract_z
O1 O 0.13679 0.04304 0.07426
 O2 O -0.13661 -0.04969 0.07077
 O3 O -0.04403 0.13388 0.07716
 O4 O 0.04321 -0.14159 0.06863
 O5 O -0.15431 0.08742 0.04509
 O6 O 0.15479 -0.09138 0.04107
 O7 O -0.09093 -0.15830 0.03511
 O8 O 0.09116 0.15460 0.04433
 C9 C 0.12524 0.11557 0.08308
 C10 C -0.12602 -0.12307 0.07552
 C11 C -0.11669 0.12134 0.08502
 C12 C 0.11547 -0.13021 0.07792
 O13 O 0.14010 -0.03588 -0.06993
 O14 O -0.13729 0.04454 -0.06840
 O15 O 0.03892 0.14367 -0.06580
 O16 O -0.03736 -0.13482 -0.07472
 O17 O -0.14988 -0.09309 -0.04259
 O18 O 0.15164 0.09856 -0.03708
 O19 O 0.09825 -0.14987 -0.04142
 O20 O -0.09667 0.15489 -0.03265
 Co21 Co 0.13197 0.00327 0.00207
 Co22 Co -0.13068 -0.00237 0.00124
 Co23 Co -0.00239 0.13258 0.00540
 Co24 Co 0.00302 -0.13190 -0.00273
 O25 O 0.00051 0.00038 0.00150
 C26 C 0.13220 -0.10868 -0.07936
 C27 C -0.12920 0.11822 -0.07332
 C28 C 0.11189 0.13512 -0.07476
 C29 C -0.11027 -0.12498 -0.08242
 O30 O 0.45374 0.35373 0.43572
 O31 O 0.54492 0.62815 0.42516
 O32 O 0.36279 0.53542 0.43068
 O33 O 0.63753 0.44725 0.43010
 O34 O 0.41039 0.64862 0.45682
 O35 O 0.58984 0.33798 0.46440
 O36 O 0.65587 0.58462 0.45751
 O37 O 0.34492 0.40257 0.46824
 C38 C 0.38108 0.36562 0.42913
 C39 C 0.61753 0.61675 0.41753
 C40 C 0.37419 0.60753 0.41984
 C41 C 0.62583 0.37397 0.42455
 O42 O 0.54291 0.36123 0.57645
 O43 O 0.46335 0.63959 0.56832
 O44 O 0.36414 0.46228 0.57638
 O45 O 0.64162 0.54014 0.57005
 O46 O 0.59787 0.65048 0.53564
 O47 O 0.40646 0.34712 0.54903
 O48 O 0.65388 0.40180 0.54166
 O49 O 0.35047 0.59614 0.53969
 Co50 Co 0.49851 0.36404 0.50591
 Co51 Co 0.50380 0.62775 0.49695
 Co52 Co 0.36964 0.49891 0.50350
 Co53 Co 0.63312 0.49376 0.50006
 O54 O 0.50127 0.49609 0.50161
 C55 C 0.61600 0.37082 0.58250
 C56 C 0.39060 0.63189 0.57724
 C57 C 0.37261 0.38953 0.58659
 C58 C 0.63246 0.61379 0.57553
 C59 C 0.22142 0.22955 0.23271
 C60 C 0.16539 0.27151 0.19880
 C61 C 0.13383 0.23439 0.14977
 C62 C 0.15737 0.15554 0.13494
 C63 C 0.21286 0.11549 0.17030
 N64 N 0.24364 0.15328 0.21725
 C65 C 0.25988 0.26676 0.28342
 N66 N 0.33603 0.24353 0.29739
 C67 C 0.37571 0.27446 0.34343
 C68 C 0.33803 0.33152 0.37925
 C69 C 0.25909 0.35563 0.36622
 C70 C 0.21992 0.32374 0.31815
 H71 H 0.09117 0.26727 0.12349
 H72 H 0.23276 0.05469 0.16024
 H73 H 0.43641 0.25395 0.35215
 H74 H 0.22794 0.39940 0.39295
 H75 H 0.14769 0.33290 0.20904
 H76 H 0.15872 0.34234 0.30905
 C77 C 0.77307 0.75157 0.21892
 C78 C 0.83014 0.71205 0.18408
 C79 C 0.86294 0.75258 0.13673
 C80 C 0.83969 0.83239 0.12474
 C81 C 0.78275 0.86964 0.16079
 N82 N 0.75086 0.82863 0.20598
 C83 C 0.73449 0.71190 0.26865
 N84 N 0.65814 0.73422 0.28320
 C85 C 0.61927 0.70328 0.32969
 C86 C 0.65833 0.64773 0.36563
 C87 C 0.73713 0.62375 0.35161
 C88 C 0.77532 0.65534 0.30289
 H89 H 0.90659 0.72182 0.10972
 H90 H 0.76291 0.93102 0.15284
 H91 H 0.55854 0.72347 0.33911
 H92 H 0.76919 0.58101 0.37840
 H93 H 0.84797 0.65020 0.19251
 H94 H 0.83671 0.63757 0.29326
 C95 C 0.77153 0.23877 0.78121
 C96 C 0.82677 0.28018 0.81623
 C97 C 0.85883 0.24129 0.86434
 C98 C 0.83683 0.16119 0.87685
 C99 C 0.78174 0.12204 0.84057
 N100 N 0.75038 0.16151 0.79469
 C101 C 0.73337 0.27692 0.73097
 N102 N 0.65715 0.25406 0.71683
 C103 C 0.61839 0.28420 0.67025
 C104 C 0.65740 0.33950 0.63382
 C105 C 0.73626 0.36367 0.64724
 C106 C 0.77433 0.33294 0.69608
 H107 H 0.90107 0.27349 0.89148
 H108 H 0.76288 0.06042 0.84892
 H109 H 0.55766 0.26381 0.66126
 H110 H 0.76828 0.40621 0.62005
 H111 H 0.84365 0.34223 0.80732
 H112 H 0.83563 0.35111 0.70547
 C113 C 0.24151 0.78389 0.77275
 C114 C 0.25845 0.86474 0.78673
 C115 C 0.22199 0.89974 0.83465
 C116 C 0.16898 0.85441 0.86902
 C117 C 0.15223 0.77418 0.85301
 N118 N 0.18824 0.74135 0.80571
 C119 C 0.28102 0.74452 0.72309
 N120 N 0.23952 0.68969 0.69087
 C121 C 0.27287 0.65298 0.64402
 C122 C 0.35269 0.67041 0.62785
 C123 C 0.39685 0.72530 0.66136
 C124 C 0.36128 0.76256 0.70874
 H125 H 0.23594 0.96212 0.84508
 H126 H 0.11073 0.73769 0.87801
 H127 H 0.23723 0.61015 0.61964
 H128 H 0.45881 0.73989 0.65077
 H129 H 0.29891 0.90089 0.76062
 H130 H 0.39667 0.80425 0.73428
 C131 C 0.22136 0.24246 0.78339
 C132 C 0.13846 0.25247 0.79265
 C133 C 0.10167 0.21541 0.83966
 C134 C 0.14725 0.16887 0.87857
 C135 C 0.23028 0.15928 0.86693
 N136 N 0.26454 0.19542 0.82016
 C137 C 0.26185 0.28227 0.73424
 N138 N 0.31965 0.24196 0.70388
 C139 C 0.35634 0.27498 0.65689
 C140 C 0.33575 0.35325 0.63853
 C141 C 0.27804 0.39650 0.67032
 C142 C 0.24073 0.36114 0.71785
 H143 H 0.03747 0.22427 0.84567
 H144 H 0.26807 0.12314 0.89479
 H145 H 0.40130 0.24010 0.63387
 H146 H 0.26074 0.45720 0.65791
 H147 H 0.10211 0.28797 0.76344
 H148 H 0.19612 0.39535 0.74176
 C149 C 0.77406 0.77671 0.76915
 C150 C 0.73283 0.83329 0.80343
 C151 C 0.77064 0.86567 0.85189
 C152 C 0.84962 0.84262 0.86579
 C153 C 0.88907 0.78674 0.82996
 N154 N 0.85052 0.75498 0.78363
 C155 C 0.73566 0.73727 0.71916
 N156 N 0.75682 0.65989 0.70585
 C157 C 0.72430 0.61938 0.66062
 C158 C 0.66776 0.65741 0.62492
 C159 C 0.64581 0.73757 0.63729
 C160 C 0.67920 0.77756 0.68457
 H161 H 0.73809 0.90844 0.87858
 H162 H 0.94989 0.76710 0.83933
 H163 H 0.74326 0.55779 0.65237
 H164 H 0.60266 0.76911 0.61060
 H165 H 0.67137 0.85065 0.79396
 H166 H 0.66218 0.83963 0.69319
 C167 C 0.22702 0.75575 0.22234
 C168 C 0.14730 0.73637 0.20768
 C169 C 0.11124 0.77417 0.16090
 C170 C 0.15419 0.83119 0.12819
 C171 C 0.23344 0.85007 0.14473
 N172 N 0.26735 0.81266 0.19097
 C173 C 0.26698 0.71571 0.27156
 N174 N 0.31996 0.75797 0.30477
 C175 C 0.35565 0.72479 0.35192
 C176 C 0.33868 0.64447 0.36777
 C177 C 0.28618 0.59937 0.33303
 C178 C 0.25027 0.63463 0.28515
 H179 H 0.04974 0.75828 0.15016
 H180 H 0.26820 0.89451 0.12106
 H181 H 0.39676 0.76123 0.37712
 H182 H 0.27210 0.53698 0.34316
 H183 H 0.11257 0.69320 0.23253
 H184 H 0.21020 0.59849 0.25889
 C185 C 0.76772 0.21109 0.23056
 C186 C 0.72401 0.16405 0.19125
 C187 C 0.76268 0.13346 0.14233
 C188 C 0.84537 0.14855 0.13278
 C189 C 0.88707 0.19426 0.17445
 N190 N 0.84750 0.22479 0.22088
 C191 C 0.72881 0.25032 0.28055
 N192 N 0.75579 0.32442 0.29733
 C193 C 0.72333 0.36484 0.34270
 C194 C 0.66072 0.32996 0.37506
 C195 C 0.63261 0.25301 0.35919
 C196 C 0.66601 0.21323 0.31158
 H197 H 0.72753 0.09837 0.11199
 H198 H 0.95069 0.20765 0.16967
 H199 H 0.74718 0.42382 0.35379
 H200 H 0.58457 0.22406 0.38325
 H201 H 0.66012 0.15320 0.19718
 H202 H 0.64407 0.15373 0.29992
   
