data_POSCAR
  _audit_creation_date              2014-09-24
  _audit_creation_method            'ToBaCCo'
  _symmetry_space_group_name_H-M    'P1'
  _symmetry_Int_Tables_number       1
  _symmetry_cell_setting            triclinic
  loop_
  _symmetry_equiv_pos_as_xyz
 x,y,z
_cell_length_a 64.9177
_cell_length_b 64.1626
_cell_length_c 64.9214
_cell_angle_alpha 89.968300
_cell_angle_beta 90.025000
_cell_angle_gamma 90.029600
loop_
  _atom_site_label
  _atom_site_type_symbol
  _atom_site_fract_x
  _atom_site_fract_y
  _atom_site_fract_z
N1 N 0.60201 0.65844 0.61586
 N2 N 0.59424 0.65021 0.63269
 C3 C 0.57750 0.66121 0.63832
 C4 C 0.57461 0.67726 0.62430
 C5 C 0.59053 0.67495 0.61025
 H6 H 0.56822 0.65787 0.65173
 H7 H 0.59350 0.68443 0.59682
 Cu8 Cu 0.60672 0.62592 0.64560
 Cu9 Cu 0.62637 0.64714 0.60245
 Cu10 Cu 0.64836 0.60323 0.62445
 N11 N 0.61898 0.60095 0.65744
 N12 N 0.63523 0.59218 0.64910
 C13 C 0.64050 0.57530 0.66022
 C14 C 0.62679 0.57324 0.67654
 C15 C 0.61333 0.58993 0.67416
 H16 H 0.65340 0.56535 0.65654
 H17 H 0.60034 0.59383 0.68379
 N18 N 0.65941 0.61671 0.59950
 N19 N 0.65106 0.63344 0.59115
 C20 C 0.66210 0.63892 0.57444
 C21 C 0.67821 0.62497 0.57210
 C22 C 0.67596 0.61110 0.58831
 H23 H 0.65855 0.65203 0.56462
 H24 H 0.68578 0.59799 0.59184
 H25 H 0.62206 0.61687 0.61253
 H26 H 0.63923 0.63381 0.62843
 N27 N 0.89848 0.34119 0.11575
 N28 N 0.90625 0.34939 0.13257
 C29 C 0.92295 0.33836 0.13826
 C30 C 0.92589 0.32225 0.12424
 C31 C 0.90993 0.32467 0.11016
 H32 H 0.93222 0.34191 0.15162
 H33 H 0.90674 0.31521 0.09678
 Cu34 Cu 0.89383 0.37374 0.14541
 Cu35 Cu 0.87412 0.35252 0.10230
 Cu36 Cu 0.85215 0.39643 0.12424
 N37 N 0.88162 0.39875 0.15717
 N38 N 0.86533 0.40751 0.14885
 C39 C 0.86009 0.42439 0.15995
 C40 C 0.87384 0.42642 0.17616
 C41 C 0.88732 0.40982 0.17385
 H42 H 0.84729 0.43451 0.15633
 H43 H 0.90022 0.40598 0.18365
 N44 N 0.84106 0.38293 0.09934
 N45 N 0.84944 0.36624 0.09097
 C46 C 0.83841 0.36079 0.07424
 C47 C 0.82225 0.37469 0.07193
 C48 C 0.82447 0.38852 0.08817
 H49 H 0.84179 0.34753 0.06458
 H50 H 0.81481 0.40178 0.09154
 H51 H 0.87843 0.38280 0.11234
 H52 H 0.86129 0.36585 0.12827
 N53 N 0.39846 0.15831 -0.11561
 N54 N 0.40649 0.14981 -0.13216
 C55 C 0.42318 0.16087 -0.13787
 C56 C 0.42579 0.17721 -0.12414
 C57 C 0.40975 0.17503 -0.11022
 H58 H 0.43280 0.15718 -0.15094
 H59 H 0.40638 0.18493 -0.09719
 Cu60 Cu 0.39433 0.12509 -0.14457
 Cu61 Cu 0.37395 0.14713 -0.10228
 Cu62 Cu 0.35196 0.10313 -0.12420
 N63 N 0.38189 0.10037 -0.15669
 N64 N 0.36530 0.09190 -0.14866
 C65 C 0.35988 0.07517 -0.15992
 C66 C 0.37382 0.07295 -0.17594
 C67 C 0.38759 0.08928 -0.17334
 H68 H 0.34683 0.06529 -0.15655
 H69 H 0.40068 0.09294 -0.18296
 N70 N 0.34075 0.11680 -0.09944
 N71 N 0.34914 0.13351 -0.09108
 C72 C 0.33803 0.13905 -0.07444
 C73 C 0.32182 0.12518 -0.07218
 C74 C 0.32409 0.11129 -0.08835
 H75 H 0.34142 0.15233 -0.06480
 H76 H 0.31442 0.09802 -0.09172
 H77 H 0.37804 0.11667 -0.11177
 H78 H 0.36153 0.13358 -0.12835
 N79 N 0.10087 0.84168 0.38456
 N80 N 0.09283 0.85018 0.36800
 C81 C 0.07613 0.83914 0.36231
 C82 C 0.07346 0.82273 0.37606
 C83 C 0.08959 0.82497 0.38999
 H84 H 0.06669 0.84286 0.34912
 H85 H 0.09301 0.81525 0.40314
 Cu86 Cu 0.10504 0.87486 0.35553
 Cu87 Cu 0.12537 0.85288 0.39790
 Cu88 Cu 0.14739 0.89685 0.37594
 N89 N 0.11753 0.89953 0.34335
 N90 N 0.13406 0.90806 0.35143
 C91 C 0.13948 0.92479 0.34017
 C92 C 0.12560 0.92694 0.32407
 C93 C 0.11188 0.91057 0.32663
 H94 H 0.15266 0.93454 0.34341
 H95 H 0.09866 0.90704 0.31713
 N96 N 0.15858 0.88321 0.40074
 N97 N 0.15018 0.86651 0.40912
 C98 C 0.16128 0.86097 0.42578
 C99 C 0.17749 0.87484 0.42804
 C100 C 0.17524 0.88872 0.41184
 H101 H 0.15789 0.84770 0.43544
 H102 H 0.18492 0.90198 0.40846
 H103 H 0.12129 0.88333 0.38834
 H104 H 0.13783 0.86641 0.37183
 C105 C 0.10910 0.12523 0.14053
 C106 C 0.09382 0.14068 0.14037
 C107 C 0.09362 0.15615 0.12501
 C108 C 0.10897 0.15603 0.10973
 C109 C 0.12438 0.14071 0.10972
 C110 C 0.12445 0.12523 0.12516
 C111 C 0.10926 0.10979 0.15583
 C112 C 0.12460 0.09431 0.15602
 C113 C 0.13986 0.09443 0.14065
 C114 C 0.13988 0.10976 0.12524
 C115 C 0.15508 0.10985 0.10989
 C116 C 0.15513 0.12523 0.09445
 C117 C 0.13970 0.14062 0.09450
 H118 H 0.08188 0.14049 0.15204
 H119 H 0.10910 0.16806 0.09800
 H120 H 0.09760 0.10997 0.16777
 H121 H 0.15158 0.08241 0.14053
 H122 H 0.16707 0.09809 0.11013
 H123 H 0.13946 0.15237 0.08250
 C124 C 0.39044 0.87468 0.64071
 C125 C 0.40576 0.85927 0.64051
 C126 C 0.40597 0.84384 0.62514
 C127 C 0.39059 0.84396 0.60987
 C128 C 0.37517 0.85927 0.60987
 C129 C 0.37510 0.87471 0.62532
 C130 C 0.39028 0.89010 0.65602
 C131 C 0.37495 0.90558 0.65620
 C132 C 0.35969 0.90550 0.64081
 C133 C 0.35968 0.89020 0.62538
 C134 C 0.34443 0.89009 0.61007
 C135 C 0.34437 0.87472 0.59462
 C136 C 0.35982 0.85936 0.59465
 H137 H 0.41770 0.85945 0.65218
 H138 H 0.39047 0.83196 0.59812
 H139 H 0.40225 0.89020 0.66766
 H140 H 0.34767 0.91721 0.64099
 H141 H 0.33243 0.90183 0.61032
 H142 H 0.36006 0.84763 0.58265
 C143 C 0.89077 0.62502 0.35923
 C144 C 0.90605 0.64048 0.35941
 C145 C 0.90624 0.65594 0.37476
 C146 C 0.89086 0.65579 0.39002
 C147 C 0.87546 0.64045 0.39002
 C148 C 0.87540 0.62499 0.37458
 C149 C 0.89062 0.60959 0.34393
 C150 C 0.87528 0.59411 0.34372
 C151 C 0.86000 0.59420 0.35908
 C152 C 0.85997 0.60951 0.37449
 C153 C 0.84475 0.60957 0.38982
 C154 C 0.84469 0.62494 0.40526
 C155 C 0.86012 0.64033 0.40523
 H156 H 0.91800 0.64032 0.34774
 H157 H 0.89073 0.66780 0.40176
 H158 H 0.90230 0.60980 0.33200
 H159 H 0.84827 0.58216 0.35919
 H160 H 0.83276 0.59780 0.38957
 H161 H 0.86035 0.65208 0.41722
 C162 C 0.60959 0.37527 -0.14103
 C163 C 0.59423 0.35989 -0.14084
 C164 C 0.59403 0.34439 -0.12551
 C165 C 0.60945 0.34443 -0.11028
 C166 C 0.62490 0.35971 -0.11027
 C167 C 0.62498 0.37522 -0.12568
 C168 C 0.60980 0.39071 -0.15634
 C169 C 0.62518 0.40616 -0.15652
 C170 C 0.64044 0.40602 -0.14114
 C171 C 0.64043 0.39068 -0.12573
 C172 C 0.65569 0.39052 -0.11043
 C173 C 0.65572 0.37512 -0.09500
 C174 C 0.64024 0.35977 -0.09505
 H175 H 0.58258 0.35981 -0.15280
 H176 H 0.60926 0.33270 -0.09826
 H177 H 0.59782 0.39086 -0.16797
 H178 H 0.65250 0.41771 -0.14131
 H179 H 0.66771 0.40225 -0.11067
 H180 H 0.63999 0.34800 -0.08306
 C181 C -0.04218 0.27634 0.10891
 C182 C -0.02726 0.27625 0.12442
 C183 C -0.02782 0.29140 0.13987
 C184 C -0.04325 0.30660 0.13984
 C185 C -0.05848 0.30693 0.12429
 C186 C -0.05764 0.29150 0.10881
 C187 C -0.01138 0.26060 0.12450
 C188 C 0.00190 0.24748 0.12457
 C189 C 0.01744 0.23210 0.12464
 C190 C 0.03069 0.21895 0.12470
 C191 C 0.04650 0.20323 0.12477
 C192 C 0.05568 0.19715 0.14334
 C193 C 0.07100 0.18185 0.14343
 C194 C 0.07736 0.17243 0.12493
 C195 C 0.06805 0.17867 0.10634
 C196 C 0.05272 0.19397 0.10629
 H197 H -0.04189 0.26467 0.09686
 H198 H -0.01633 0.29147 0.15197
 H199 H -0.04306 0.31797 0.15210
 H200 H -0.06884 0.29093 0.09650
 H201 H 0.05102 0.20427 0.15773
 H202 H 0.07806 0.17757 0.15794
 H203 H 0.07243 0.17152 0.09189
 H204 H 0.04567 0.19851 0.09184
 C205 C 0.54390 0.72589 0.61122
 C206 C 0.52700 0.72390 0.62443
 C207 C 0.52561 0.70668 0.63758
 C208 C 0.54107 0.69151 0.63755
 C209 C 0.55816 0.69334 0.62433
 C210 C 0.55937 0.71074 0.61115
 C211 C 0.51110 0.73953 0.62451
 C212 C 0.49781 0.75264 0.62457
 C213 C 0.48225 0.76800 0.62466
 C214 C 0.46898 0.78113 0.62473
 C215 C 0.45315 0.79682 0.62483
 C216 C 0.44399 0.80285 0.64340
 C217 C 0.42864 0.81813 0.64352
 C218 C 0.42225 0.82758 0.62503
 C219 C 0.43155 0.82140 0.60643
 C220 C 0.44690 0.80613 0.60636
 H221 H 0.54515 0.73918 0.60099
 H222 H 0.51257 0.70497 0.64785
 H223 H 0.53946 0.67832 0.64780
 H224 H 0.57231 0.71282 0.60086
 H225 H 0.44867 0.79570 0.65778
 H226 H 0.42159 0.82236 0.65804
 H227 H 0.42715 0.82858 0.59199
 H228 H 0.45394 0.80163 0.59190
 C229 C 1.02715 0.79188 0.36046
 C230 C 1.02686 0.77643 0.37562
 C231 C 1.04199 0.77630 0.39093
 C232 C 1.05737 0.79155 0.39112
 C233 C 1.05792 0.80730 0.37591
 C234 C 1.04249 0.80717 0.36056
 C235 C 1.01104 0.76070 0.37548
 C236 C 0.99781 0.74751 0.37537
 C237 C 0.98232 0.73207 0.37525
 C238 C 0.96910 0.71887 0.37516
 C239 C 0.95332 0.70310 0.37506
 C240 C 0.94709 0.69380 0.39354
 C241 C 0.93178 0.67847 0.39346
 C242 C 0.92249 0.67224 0.37486
 C243 C 0.92887 0.68169 0.35637
 C244 C 0.94418 0.69702 0.35648
 H245 H 1.01548 0.79213 0.34851
 H246 H 1.04191 0.76438 0.40277
 H247 H 1.06874 0.79080 0.40326
 H248 H 1.04208 0.81880 0.34852
 H249 H 0.95411 0.69835 0.40800
 H250 H 0.92739 0.67130 0.40791
 H251 H 0.92183 0.67742 0.34185
 H252 H 0.94884 0.70417 0.34210
 C253 C 0.46021 0.22207 -0.10751
 C254 C 0.47312 0.22420 -0.12462
 C255 C 0.47060 0.21100 -0.14158
 C256 C 0.45523 0.19573 -0.14145
 C257 C 0.44213 0.19343 -0.12431
 C258 C 0.44482 0.20681 -0.10733
 C259 C 0.48895 0.23991 -0.12477
 C260 C 0.50221 0.25307 -0.12489
 C261 C 0.51772 0.26849 -0.12502
 C262 C 0.53097 0.28166 -0.12512
 C263 C 0.54679 0.29738 -0.12523
 C264 C 0.56724 0.29197 -0.12103
 C265 C 0.58262 0.30724 -0.12111
 C266 C 0.57772 0.32815 -0.12542
 C267 C 0.55710 0.33344 -0.12963
 C268 C 0.54175 0.31814 -0.12952
 H269 H 0.46205 0.23218 -0.09427
 H270 H 0.48049 0.21254 -0.15493
 H271 H 0.45359 0.18589 -0.15486
 H272 H 0.43520 0.20548 -0.09381
 H273 H 0.57132 0.27593 -0.11774
 H274 H 0.59838 0.30264 -0.11808
 H275 H 0.55281 0.34944 -0.13273
 H276 H 0.52596 0.32252 -0.13273
 C277 C 0.11246 -0.04355 0.27503
 C278 C 0.12524 -0.02608 0.27673
 C279 C 0.13814 -0.02393 0.29386
 C280 C 0.13827 -0.03919 0.30925
 C281 C 0.12547 -0.05685 0.30772
 C282 C 0.11255 -0.05883 0.29040
 C283 C 0.12513 -0.01037 0.26090
 C284 C 0.12505 0.00280 0.24765
 C285 C 0.12496 0.01823 0.23215
 C286 C 0.12490 0.03142 0.21892
 C287 C 0.12482 0.04718 0.20313
 C288 C 0.14331 0.05645 0.19690
 C289 C 0.14326 0.07177 0.18158
 C290 C 0.12468 0.07802 0.17228
 C291 C 0.10617 0.06860 0.17866
 C292 C 0.10626 0.05327 0.19398
 H293 H 0.10243 -0.04539 0.26181
 H294 H 0.14808 -0.01045 0.29535
 H295 H 0.14831 -0.03698 0.32237
 H296 H 0.10260 -0.07222 0.28855
 H297 H 0.15777 0.05189 0.20393
 H298 H 0.15772 0.07892 0.17719
 H299 H 0.09165 0.07289 0.17161
 H300 H 0.09186 0.04615 0.19864
 C301 C 0.64127 0.52640 -0.29241
 C302 C 0.62622 0.52676 -0.27703
 C303 C 0.61136 0.54250 -0.27703
 C304 C 0.61150 0.55784 -0.29232
 C305 C 0.62659 0.55774 -0.30799
 C306 C 0.64149 0.54170 -0.30774
 C307 C 0.62605 0.51099 -0.26126
 C308 C 0.62591 0.49778 -0.24805
 C309 C 0.62576 0.48231 -0.23258
 C310 C 0.62565 0.46910 -0.21938
 C311 C 0.62552 0.45332 -0.20361
 C312 C 0.62978 0.45866 -0.18315
 C313 C 0.62968 0.44334 -0.16783
 C314 C 0.62529 0.42245 -0.17279
 C315 C 0.62103 0.41725 -0.19341
 C316 C 0.62115 0.43259 -0.20870
 H317 H 0.65287 0.51426 -0.29256
 H318 H 0.59962 0.54293 -0.26517
 H319 H 0.59970 0.56969 -0.29167
 H320 H 0.65342 0.54077 -0.31930
 H321 H 0.63312 0.47467 -0.17903
 H322 H 0.63276 0.44787 -0.15206
 H323 H 0.61786 0.40127 -0.19774
 H324 H 0.61789 0.42828 -0.22451
 C325 C 0.39123 1.03909 0.77934
 C326 C 0.37423 1.02592 0.77683
 C327 C 0.35711 1.02809 0.78972
 C328 C 0.35696 1.04336 0.80507
 C329 C 0.37397 1.05672 0.80776
 C330 C 0.39112 1.05438 0.79468
 C331 C 0.37436 1.01019 0.76103
 C332 C 0.37446 0.99702 0.74780
 C333 C 0.37455 0.98159 0.73232
 C334 C 0.37463 0.96841 0.71910
 C335 C 0.37472 0.95265 0.70332
 C336 C 0.37902 0.93191 0.70840
 C337 C 0.37911 0.91659 0.69309
 C338 C 0.37487 0.92184 0.67247
 C339 C 0.37055 0.94274 0.66753
 C340 C 0.37049 0.95804 0.68286
 H341 H 0.40459 1.03752 0.76947
 H342 H 0.34385 1.01800 0.78788
 H343 H 0.34342 1.04473 0.81467
 H344 H 0.40456 1.06420 0.79632
 H345 H 0.38226 0.92756 0.72420
 H346 H 0.38223 0.90060 0.69742
 H347 H 0.36749 0.94731 0.65176
 H348 H 0.36719 0.97406 0.67875
 C349 C 0.89124 0.46012 0.22103
 C350 C 0.87448 0.47362 0.22323
 C351 C 0.85752 0.47174 0.21007
 C352 C 0.85730 0.45642 0.19476
 C353 C 0.87408 0.44273 0.19240
 C354 C 0.89107 0.44478 0.20575
 C355 C 0.87466 0.48938 0.23900
 C356 C 0.87479 0.50258 0.25220
 C357 C 0.87491 0.51804 0.26766
 C358 C 0.87499 0.53124 0.28086
 C359 C 0.87507 0.54701 0.29662
 C360 C 0.85658 0.55627 0.30283
 C361 C 0.85663 0.57158 0.31815
 C362 C 0.87521 0.57784 0.32746
 C363 C 0.89372 0.56843 0.32110
 C364 C 0.89363 0.55311 0.30579
 H365 H 0.90448 0.46146 0.23113
 H366 H 0.84443 0.48209 0.21166
 H367 H 0.84389 0.45528 0.18495
 H368 H 0.90433 0.43470 0.20436
 H369 H 0.84213 0.55170 0.29580
 H370 H 0.84217 0.57872 0.32252
 H371 H 0.90823 0.57272 0.32815
 H372 H 0.90803 0.54600 0.30114
 C373 C 0.27285 0.11249 -0.04270
 C374 C 0.27493 0.12522 -0.02534
 C375 C 0.29231 0.13794 -0.02326
 C376 C 0.30755 0.13795 -0.03847
 C377 C 0.30564 0.12520 -0.05601
 C378 C 0.28807 0.11246 -0.05793
 C379 C 0.25926 0.12521 -0.00967
 C380 C 0.24612 0.12521 0.00345
 C381 C 0.23074 0.12520 0.01880
 C382 C 0.21761 0.12520 0.03193
 C383 C 0.20194 0.12522 0.04760
 C384 C 0.19571 0.14398 0.05663
 C385 C 0.18048 0.14401 0.07185
 C386 C 0.17129 0.12523 0.07826
 C387 C 0.17767 0.10644 0.06910
 C388 C 0.19289 0.10645 0.05386
 H389 H 0.25943 0.10260 -0.04449
 H390 H 0.29410 0.14783 -0.00986
 H391 H 0.32087 0.14784 -0.03631
 H392 H 0.28591 0.10256 -0.07123
 H393 H 0.20265 0.15859 0.05193
 H394 H 0.17609 0.15869 0.07880
 H395 H 0.17070 0.09177 0.07352
 H396 H 0.19755 0.09184 0.04694
 C397 C 0.71204 0.64215 0.52746
 C398 C 0.72493 0.62486 0.52510
 C399 C 0.72257 0.60760 0.53805
 C400 C 0.70740 0.60761 0.55332
 C401 C 0.69432 0.62493 0.55586
 C402 C 0.69684 0.64220 0.54272
 C403 C 0.74058 0.62484 0.50940
 C404 C 0.75369 0.62483 0.49626
 C405 C 0.76905 0.62483 0.48088
 C406 C 0.78217 0.62484 0.46774
 C407 C 0.79784 0.62486 0.45207
 C408 C 0.80688 0.60611 0.44582
 C409 C 0.82211 0.60611 0.43059
 C410 C 0.82850 0.62491 0.42142
 C411 C 0.81931 0.64368 0.42782
 C412 C 0.80408 0.64364 0.44304
 H413 H 0.71375 0.65562 0.51754
 H414 H 0.73245 0.59410 0.53633
 H415 H 0.70587 0.59396 0.56298
 H416 H 0.68724 0.65588 0.54425
 H417 H 0.80220 0.59149 0.45275
 H418 H 0.82907 0.59145 0.42618
 H419 H 0.82372 0.65836 0.42087
 H420 H 0.79714 0.65824 0.44772
 C421 C 0.77339 0.38750 0.04229
 C422 C 0.77551 0.37481 0.02490
 C423 C 0.79288 0.36210 0.02285
 C424 C 0.80808 0.36204 0.03812
 C425 C 0.80612 0.37474 0.05569
 C426 C 0.78857 0.38748 0.05757
 C427 C 0.75986 0.37484 0.00919
 C428 C 0.74675 0.37486 -0.00397
 C429 C 0.73140 0.37490 -0.01936
 C430 C 0.71827 0.37493 -0.03250
 C431 C 0.70259 0.37498 -0.04818
 C432 C 0.69629 0.35624 -0.05723
 C433 C 0.68105 0.35626 -0.07245
 C434 C 0.67191 0.37507 -0.07883
 C435 C 0.67836 0.39384 -0.06965
 C436 C 0.69360 0.39377 -0.05442
 H437 H 0.75998 0.39738 0.04405
 H438 H 0.79470 0.35224 0.00943
 H439 H 0.82139 0.35216 0.03599
 H440 H 0.78638 0.39734 0.07090
 H441 H 0.70319 0.34161 -0.05255
 H442 H 0.67660 0.34161 -0.07941
 H443 H 0.67143 0.40853 -0.07405
 H444 H 0.69832 0.40836 -0.04748
 C445 C 0.22649 0.88748 0.45753
 C446 C 0.22440 0.87476 0.47490
 C447 C 0.20700 0.86207 0.47700
 C448 C 0.19175 0.86208 0.46179
 C449 C 0.19368 0.87482 0.44422
 C450 C 0.21126 0.88753 0.44229
 C451 C 0.24009 0.87472 0.49057
 C452 C 0.25324 0.87470 0.50369
 C453 C 0.26863 0.87469 0.51905
 C454 C 0.28178 0.87469 0.53216
 C455 C 0.29747 0.87470 0.54783
 C456 C 0.30375 0.85594 0.55685
 C457 C 0.31900 0.85592 0.57206
 C458 C 0.32817 0.87472 0.57846
 C459 C 0.32174 0.89350 0.56930
 C460 C 0.30650 0.89347 0.55408
 H461 H 0.23993 0.89735 0.45573
 H462 H 0.20520 0.85219 0.49041
 H463 H 0.17841 0.85221 0.46395
 H464 H 0.21343 0.89742 0.42897
 H465 H 0.29682 0.84132 0.55217
 H466 H 0.32344 0.84125 0.57901
 H467 H 0.32870 0.90818 0.57370
 H468 H 0.30179 0.90808 0.54715
   
