data_POSCAR
  _audit_creation_date              2014-09-24
  _audit_creation_method            'ToBaCCo'
  _symmetry_space_group_name_H-M    'P1'
  _symmetry_Int_Tables_number       1
  _symmetry_cell_setting            triclinic
  loop_
  _symmetry_equiv_pos_as_xyz
 x,y,z
_cell_length_a 52.1769
_cell_length_b 52.2192
_cell_length_c 27.7251
_cell_angle_alpha 89.961100
_cell_angle_beta 90.033300
_cell_angle_gamma 90.026100
loop_
  _atom_site_label
  _atom_site_type_symbol
  _atom_site_fract_x
  _atom_site_fract_y
  _atom_site_fract_z
C1 C -0.02374 0.26636 0.02514
 C2 C -0.02366 0.26668 -0.02585
 C3 C -0.00030 0.26688 -0.05083
 C4 C 0.02298 0.26663 -0.02563
 C5 C 0.02290 0.26636 0.02525
 C6 C -0.00042 0.26628 0.05028
 H7 H -0.00037 0.26591 0.08942
 H8 H -0.00025 0.26697 -0.09001
 C9 C 0.47686 0.76867 0.52493
 C10 C 0.47659 0.76856 0.47411
 C11 C 0.49977 0.76860 0.44866
 C12 C 0.52317 0.76855 0.47345
 C13 C 0.52343 0.76854 0.52427
 C14 C 0.50026 0.76870 0.54972
 H15 H 0.50043 0.76858 0.58885
 H16 H 0.49959 0.76841 0.40953
 C17 C 1.02349 0.73209 0.02424
 C18 C 1.02318 0.73205 -0.02665
 C19 C 0.99975 0.73204 -0.05136
 C20 C 0.97657 0.73219 -0.02586
 C21 C 0.97688 0.73214 0.02503
 C22 C 1.00031 0.73204 0.04974
 H23 H 1.00045 0.73219 0.08889
 H24 H 0.99960 0.73220 -0.09051
 C25 C 0.52323 0.23290 0.52688
 C26 C 0.52333 0.23271 0.47605
 C27 C 0.50008 0.23242 0.45081
 C28 C 0.47675 0.23250 0.47580
 C29 C 0.47664 0.23275 0.52662
 C30 C 0.49990 0.23287 0.55188
 H31 H 0.49984 0.23320 0.59100
 H32 H 0.50013 0.23240 0.41168
 C33 C 0.73237 -0.02367 0.02633
 C34 C 0.73231 -0.02341 -0.02457
 C35 C 0.73219 -0.00001 -0.04929
 C36 C 0.73226 0.02313 -0.02381
 C37 C 0.73226 0.02289 0.02700
 C38 C 0.73226 -0.00049 0.05179
 H39 H 0.73244 -0.00059 0.09094
 H40 H 0.73233 0.00019 -0.08842
 C41 C 0.23256 0.47671 0.52546
 C42 C 0.23252 0.47645 0.47464
 C43 C 0.23246 0.49960 0.44908
 C44 C 0.23260 0.52300 0.47376
 C45 C 0.23271 0.52326 0.52458
 C46 C 0.23260 0.50011 0.55014
 H47 H 0.23281 0.50030 0.58926
 H48 H 0.23255 0.49940 0.40995
 C49 C 0.26646 1.02396 0.02551
 C50 C 0.26617 1.02403 -0.02549
 C51 C 0.26610 1.00073 -0.05064
 C52 C 0.26617 0.97744 -0.02557
 C53 C 0.26647 0.97738 0.02523
 C54 C 0.26668 1.00060 0.05046
 H55 H 0.26677 1.00044 0.08961
 H56 H 0.26573 1.00069 -0.08978
 C57 C 0.76882 0.52330 0.52550
 C58 C 0.76871 0.52349 0.47468
 C59 C 0.76882 0.50031 0.44928
 C60 C 0.76886 0.47695 0.47414
 C61 C 0.76890 0.47676 0.52496
 C62 C 0.76897 0.49994 0.55035
 H63 H 0.76886 0.49980 0.58948
 H64 H 0.76860 0.50046 0.41016
 O65 O 0.22756 0.26228 0.19073
 O66 O 0.29044 0.25459 0.24919
 O67 O 0.26281 0.22706 0.19053
 O68 O 0.25520 0.28982 0.24942
 O69 O 0.23656 0.27106 0.31174
 O70 O 0.24416 0.20829 0.25285
 O71 O 0.27180 0.23582 0.31152
 O72 O 0.20891 0.24351 0.25304
 Cu73 Cu 0.26088 0.26034 0.21368
 Cu74 Cu 0.23847 0.23778 0.28859
 C75 C 0.20764 0.25411 0.21194
 C76 C 0.29173 0.24395 0.29026
 C77 C 0.25472 0.20709 0.21171
 C78 C 0.24466 0.29103 0.29057
 O79 O 0.75581 0.79130 0.25127
 O80 O 0.76318 0.72865 0.31081
 O81 O 0.79098 0.75600 0.25215
 O82 O 0.72799 0.76394 0.30992
 O83 O 0.70944 0.74508 0.24760
 O84 O 0.77242 0.73714 0.18984
 O85 O 0.74463 0.70979 0.24849
 O86 O 0.73725 0.77244 0.18896
 Cu87 Cu 0.76136 0.76188 0.28734
 Cu88 Cu 0.73906 0.73921 0.21243
 C89 C 0.74533 0.79244 0.21003
 C90 C 0.75511 0.70865 0.28973
 C91 C 0.79232 0.74527 0.21121
 C92 C 0.70810 0.75580 0.28855
 O93 O 0.79145 0.24410 0.25240
 O94 O 0.72863 0.23699 0.31176
 O95 O 0.75596 0.20906 0.25327
 O96 O 0.76412 0.27206 0.31089
 O97 O 0.74535 0.29060 0.24843
 O98 O 0.73719 0.22760 0.19081
 O99 O 0.70987 0.25552 0.24930
 O100 O 0.77268 0.26264 0.18995
 Cu101 Cu 0.76193 0.23869 0.28839
 Cu102 Cu 0.73938 0.26097 0.21333
 C103 C 0.79265 0.25450 0.21109
 C104 C 0.70866 0.24509 0.29058
 C105 C 0.74525 0.20771 0.21226
 C106 C 0.75606 0.29196 0.28944
 O107 O 0.26278 0.77218 0.18836
 O108 O 0.25509 0.70918 0.24642
 O109 O 0.22759 0.73682 0.18755
 O110 O 0.29025 0.74455 0.24726
 O111 O 0.27125 0.76301 0.30945
 O112 O 0.20860 0.75528 0.24976
 O113 O 0.23609 0.72764 0.30862
 O114 O 0.24378 0.79063 0.25057
 Cu115 Cu 0.26084 0.73882 0.21113
 Cu116 Cu 0.23801 0.76100 0.28587
 C117 C 0.25452 0.79203 0.20962
 C118 C 0.24435 0.70778 0.28738
 C119 C 0.20752 0.74481 0.20852
 C120 C 0.29132 0.75503 0.28848
 O121 O 0.70980 0.25577 0.75286
 O122 O 0.77280 0.26334 0.81096
 O123 O 0.74524 0.29081 0.75208
 O124 O 0.73737 0.22826 0.81174
 O125 O 0.75584 0.20924 0.74957
 O126 O 0.76371 0.27179 0.68990
 O127 O 0.79127 0.24432 0.74878
 O128 O 0.72828 0.23675 0.69068
 Cu129 Cu 0.73944 0.26146 0.78819
 Cu130 Cu 0.76164 0.23860 0.71346
 C131 C 0.70842 0.24505 0.71189
 C132 C 0.79266 0.25507 0.78971
 C133 C 0.75575 0.29185 0.71087
 C134 C 0.74533 0.20820 0.79077
 O135 O 0.29060 0.74542 0.75089
 O136 O 0.22761 0.73710 0.80844
 O137 O 0.25562 0.70990 0.74998
 O138 O 0.26256 0.77263 0.80933
 O139 O 0.24397 0.79135 0.74687
 O140 O 0.23703 0.72862 0.68752
 O141 O 0.20901 0.75582 0.74598
 O142 O 0.27201 0.76414 0.68842
 Cu143 Cu 0.26098 0.73938 0.78597
 Cu144 Cu 0.23863 0.76187 0.71089
 C145 C 0.29193 0.75613 0.70989
 C146 C 0.20769 0.74510 0.78697
 C147 C 0.24519 0.70868 0.70870
 C148 C 0.25438 0.79257 0.78817
 O149 O 0.26225 0.22765 0.81136
 O150 O 0.25464 0.29059 0.75308
 O151 O 0.22699 0.26289 0.81156
 O152 O 0.28991 0.25537 0.75287
 O153 O 0.27121 0.23681 0.69040
 O154 O 0.20829 0.24434 0.74908
 O155 O 0.23594 0.27204 0.69061
 O156 O 0.24354 0.20909 0.74890
 Cu157 Cu 0.26034 0.26099 0.78852
 Cu158 Cu 0.23786 0.23870 0.71345
 C159 C 0.25411 0.20776 0.79004
 C160 C 0.24406 0.29193 0.71195
 C161 C 0.20702 0.25483 0.79027
 C162 C 0.29117 0.24489 0.71166
 O163 O 0.74517 0.70939 0.75179
 O164 O 0.73718 0.77226 0.80989
 O165 O 0.70986 0.74457 0.75093
 O166 O 0.77251 0.73709 0.81074
 O167 O 0.79147 0.75571 0.74861
 O168 O 0.72882 0.76320 0.68880
 O169 O 0.75615 0.79089 0.74776
 O170 O 0.76414 0.72801 0.68965
 Cu171 Cu 0.73927 0.73895 0.78710
 Cu172 Cu 0.76205 0.76133 0.71244
 C173 C 0.75595 0.70809 0.71087
 C174 C 0.74536 0.79218 0.78868
 C175 C 0.70877 0.75510 0.70972
 C176 C 0.79256 0.74519 0.78982
 C177 C 0.26606 0.04633 0.05117
 C178 C 0.26550 0.06633 0.07283
 C179 C 0.26457 0.09049 0.09770
 C180 C 0.27300 0.11281 0.07453
 C181 C 0.27144 0.13643 0.09807
 C182 C 0.26147 0.13784 0.14491
 C183 C 0.25318 0.11549 0.16819
 C184 C 0.25472 0.09186 0.14462
 C185 C 0.25934 0.16223 0.16873
 C186 C 0.25735 0.18270 0.18847
 H187 H 0.28061 0.11196 0.03821
 H188 H 0.27786 0.15359 0.07969
 H189 H 0.24539 0.11637 0.20437
 H190 H 0.24808 0.07473 0.16281
 C191 C 0.76825 0.54692 0.55246
 C192 C 0.76756 0.56698 0.57387
 C193 C 0.76650 0.59120 0.59842
 C194 C 0.77468 0.61350 0.57485
 C195 C 0.77299 0.63719 0.59809
 C196 C 0.76314 0.63868 0.64500
 C197 C 0.75511 0.61636 0.66868
 C198 C 0.75678 0.59266 0.64542
 C199 C 0.76087 0.66313 0.66848
 C200 C 0.75874 0.68365 0.68795
 H201 H 0.78220 0.61257 0.53847
 H202 H 0.77921 0.65433 0.57941
 H203 H 0.74742 0.61731 0.70493
 H204 H 0.75034 0.57555 0.66391
 C205 C 0.73311 0.95376 0.05126
 C206 C 0.73402 0.93355 0.07223
 C207 C 0.73541 0.90914 0.09618
 C208 C 0.72791 0.90677 0.14449
 C209 C 0.72957 0.88303 0.16771
 C210 C 0.73872 0.86159 0.14269
 C211 C 0.74612 0.86397 0.09432
 C212 C 0.74448 0.88769 0.07113
 C213 C 0.74080 0.83723 0.16668
 C214 C 0.74276 0.81679 0.18658
 H215 H 0.72089 0.92324 0.16419
 H216 H 0.72382 0.88140 0.20514
 H217 H 0.75324 0.84753 0.07465
 H218 H 0.75037 0.88934 0.03379
 C219 C 0.23303 0.45311 0.55259
 C220 C 0.23359 0.43306 0.57414
 C221 C 0.23447 0.40885 0.59884
 C222 C 0.24437 0.40732 0.64573
 C223 C 0.24584 0.38363 0.66914
 C224 C 0.23743 0.36138 0.64573
 C225 C 0.22742 0.36294 0.59892
 C226 C 0.22593 0.38663 0.57553
 C227 C 0.23950 0.33692 0.66935
 C228 C 0.24146 0.31640 0.68893
 H229 H 0.25109 0.42438 0.66402
 H230 H 0.25367 0.38263 0.70530
 H231 H 0.22091 0.34585 0.58044
 H232 H 0.21827 0.38760 0.53924
 C233 C 0.95378 0.26563 0.05057
 C234 C 0.93365 0.26476 0.07188
 C235 C 0.90931 0.26346 0.09621
 C236 C 0.88772 0.25427 0.07161
 C237 C 0.86405 0.25280 0.09510
 C238 C 0.86184 0.26050 0.14332
 C239 C 0.88342 0.26976 0.16791
 C240 C 0.90711 0.27124 0.14439
 C241 C 0.83750 0.25865 0.16757
 C242 C 0.81705 0.25688 0.18759
 H243 H 0.88921 0.24816 0.03438
 H244 H 0.84751 0.24559 0.07573
 H245 H 0.88194 0.27574 0.20521
 H246 H 0.92368 0.27838 0.16376
 C247 C 0.45326 0.76822 0.55196
 C248 C 0.43320 0.76765 0.57342
 C249 C 0.40898 0.76671 0.59797
 C250 C 0.40746 0.75697 0.64496
 C251 C 0.38373 0.75536 0.66818
 C252 C 0.36145 0.76348 0.64446
 C253 C 0.36299 0.77336 0.59757
 C254 C 0.38672 0.77499 0.57437
 C255 C 0.33697 0.76118 0.66782
 C256 C 0.31641 0.75901 0.68716
 H257 H 0.42456 0.75046 0.66345
 H258 H 0.38273 0.74763 0.70441
 H259 H 0.34587 0.77963 0.57887
 H260 H 0.38769 0.78252 0.53799
 C261 C 0.04611 0.73275 0.04913
 C262 C 0.06636 0.73358 0.07010
 C263 C 0.09078 0.73488 0.09412
 C264 C 0.11235 0.74377 0.06907
 C265 C 0.13608 0.74537 0.09236
 C266 C 0.13836 0.73810 0.14083
 C267 C 0.11682 0.72913 0.16586
 C268 C 0.09307 0.72752 0.14255
 C269 C 0.16273 0.74019 0.16495
 C270 C 0.18317 0.74217 0.18495
 H271 H 0.11078 0.74957 0.03165
 H272 H 0.15259 0.75236 0.07266
 H273 H 0.11835 0.72350 0.20336
 H274 H 0.07652 0.72064 0.16227
 C275 C 0.54693 0.23367 0.55365
 C276 C 0.56709 0.23453 0.57477
 C277 C 0.59148 0.23583 0.59878
 C278 C 0.61288 0.24529 0.57403
 C279 C 0.63663 0.24676 0.59720
 C280 C 0.63907 0.23879 0.64523
 C281 C 0.61768 0.22926 0.66997
 C282 C 0.59391 0.22777 0.64677
 C283 C 0.66346 0.24069 0.66914
 C284 C 0.68396 0.24254 0.68885
 H285 H 0.61118 0.25161 0.53693
 H286 H 0.65304 0.25419 0.57776
 H287 H 0.61936 0.22307 0.70715
 H288 H 0.57746 0.22042 0.66621
 C289 C 0.73294 0.04699 0.94986
 C290 C 0.73379 0.06721 0.92896
 C291 C 0.73513 0.09162 0.90500
 C292 C 0.72745 0.09400 0.85677
 C293 C 0.72911 0.11772 0.83349
 C294 C 0.73844 0.13914 0.85837
 C295 C 0.74602 0.13677 0.90666
 C296 C 0.74437 0.11306 0.92991
 C297 C 0.74059 0.16347 0.83429
 C298 C 0.74262 0.18388 0.81431
 H299 H 0.72029 0.07754 0.83718
 H300 H 0.72323 0.11934 0.79613
 H301 H 0.75329 0.15319 0.92622
 H302 H 0.75042 0.11141 0.96718
 C303 C 0.23309 0.54659 0.44662
 C304 C 0.23369 0.56664 0.42507
 C305 C 0.23461 0.59085 0.40039
 C306 C 0.24428 0.59234 0.35334
 C307 C 0.24578 0.61603 0.32994
 C308 C 0.23764 0.63832 0.35351
 C309 C 0.22785 0.63680 0.40047
 C310 C 0.22633 0.61311 0.42385
 C311 C 0.23975 0.66277 0.32988
 C312 C 0.24173 0.68331 0.31034
 H313 H 0.25079 0.57525 0.33493
 H314 H 0.25344 0.61700 0.29366
 H315 H 0.22155 0.65392 0.41907
 H316 H 0.21885 0.61217 0.46026
 C317 C 0.26541 0.95371 0.94771
 C318 C 0.26455 0.93357 0.92657
 C319 C 0.26326 0.90922 0.90243
 C320 C 0.25389 0.88773 0.92707
 C321 C 0.25244 0.86404 0.90374
 C322 C 0.26033 0.86173 0.85565
 C323 C 0.26976 0.88320 0.83102
 C324 C 0.27123 0.90691 0.85437
 C325 C 0.25849 0.83738 0.83155
 C326 C 0.25673 0.81695 0.81161
 H327 H 0.24764 0.88932 0.96421
 H328 H 0.24509 0.84758 0.92312
 H329 H 0.27589 0.88163 0.79381
 H330 H 0.27850 0.92340 0.83499
 C331 C 0.76832 0.45332 0.44720
 C332 C 0.76767 0.43325 0.42580
 C333 C 0.76664 0.40901 0.40131
 C334 C 0.77509 0.38679 0.42478
 C335 C 0.77342 0.36307 0.40163
 C336 C 0.76332 0.36148 0.35490
 C337 C 0.75502 0.38372 0.33130
 C338 C 0.75667 0.40745 0.35448
 C339 C 0.76103 0.33699 0.33154
 C340 C 0.75888 0.31644 0.31219
 H341 H 0.78279 0.38779 0.46103
 H342 H 0.77983 0.34598 0.42024
 H343 H 0.74713 0.38270 0.29520
 H344 H 0.75003 0.42451 0.33607
 C345 C 0.04550 0.26618 0.94915
 C346 C 0.06564 0.26558 0.92783
 C347 C 0.08994 0.26460 0.90331
 C348 C 0.09143 0.25513 0.85612
 C349 C 0.11517 0.25359 0.83283
 C350 C 0.13752 0.26149 0.85663
 C351 C 0.13599 0.27107 0.90375
 C352 C 0.11226 0.27263 0.92702
 C353 C 0.16201 0.25940 0.83303
 C354 C 0.18255 0.25743 0.81342
 H355 H 0.07431 0.24880 0.83749
 H356 H 0.11612 0.24610 0.79644
 H357 H 0.15314 0.27720 0.92255
 H358 H 0.11133 0.27996 0.96353
 C359 C 0.54677 0.76799 0.44643
 C360 C 0.56683 0.76733 0.42500
 C361 C 0.59106 0.76631 0.40049
 C362 C 0.59257 0.75650 0.35357
 C363 C 0.61630 0.75485 0.33037
 C364 C 0.63859 0.76299 0.35405
 C365 C 0.63705 0.77292 0.40088
 C366 C 0.61333 0.77459 0.42405
 C367 C 0.66307 0.76071 0.33068
 C368 C 0.68362 0.75859 0.31132
 H369 H 0.57546 0.74999 0.33510
 H370 H 0.61730 0.74709 0.29419
 H371 H 0.65418 0.77922 0.41955
 H372 H 0.61236 0.78217 0.46038
 C373 C 0.95395 0.73293 0.94925
 C374 C 0.93371 0.73383 0.92827
 C375 C 0.90929 0.73522 0.90423
 C376 C 0.90696 0.72778 0.85588
 C377 C 0.88322 0.72945 0.83256
 C378 C 0.86172 0.73854 0.85752
 C379 C 0.86405 0.74588 0.90593
 C380 C 0.88777 0.74423 0.92922
 C381 C 0.83735 0.74063 0.83341
 C382 C 0.81691 0.74260 0.81341
 H383 H 0.92348 0.72080 0.83621
 H384 H 0.88165 0.72375 0.79511
 H385 H 0.84757 0.75296 0.92557
 H386 H 0.88937 0.75008 0.96659
 C387 C 0.45307 0.23283 0.44894
 C388 C 0.43297 0.23331 0.42754
 C389 C 0.40873 0.23416 0.40298
 C390 C 0.40721 0.24368 0.35582
 C391 C 0.38348 0.24517 0.33253
 C392 C 0.36119 0.23715 0.35633
 C393 C 0.36274 0.22749 0.40340
 C394 C 0.38646 0.22599 0.42667
 C395 C 0.33671 0.23927 0.33282
 C396 C 0.31618 0.24128 0.31329
 H397 H 0.42431 0.25011 0.33725
 H398 H 0.38248 0.25271 0.29617
 H399 H 0.34561 0.22129 0.42217
 H400 H 0.38744 0.21862 0.46318
 C401 C 0.73290 0.95304 0.94814
 C402 C 0.73359 0.93305 0.92649
 C403 C 0.73467 0.90890 0.90171
 C404 C 0.72601 0.88662 0.92470
 C405 C 0.72773 0.86297 0.90129
 C406 C 0.73810 0.86152 0.85477
 C407 C 0.74661 0.88383 0.83165
 C408 C 0.74491 0.90748 0.85509
 C409 C 0.74042 0.83711 0.83115
 C410 C 0.74257 0.81662 0.81162
 H411 H 0.71810 0.88750 0.96079
 H412 H 0.72114 0.84584 0.91953
 H413 H 0.75471 0.88291 0.79571
 H414 H 0.75172 0.92458 0.83705
 C415 C 0.23313 0.45257 0.44840
 C416 C 0.23390 0.43232 0.42761
 C417 C 0.23513 0.40788 0.40380
 C418 C 0.24430 0.38644 0.42884
 C419 C 0.24581 0.36269 0.40577
 C420 C 0.23817 0.36026 0.35753
 C421 C 0.22892 0.38168 0.33252
 C422 C 0.22739 0.40545 0.35562
 C423 C 0.24017 0.33588 0.33364
 C424 C 0.24208 0.31542 0.31385
 H425 H 0.25038 0.38812 0.46608
 H426 H 0.25302 0.34627 0.42544
 H427 H 0.22299 0.38003 0.29519
 H428 H 0.22029 0.42191 0.33592
 C429 C 0.26546 0.04648 0.94909
 C430 C 0.26462 0.06660 0.92784
 C431 C 0.26334 0.09096 0.90370
 C432 C 0.27111 0.09328 0.85553
 C433 C 0.26962 0.11701 0.83220
 C434 C 0.26038 0.13848 0.85699
 C435 C 0.25269 0.13615 0.90520
 C436 C 0.25416 0.11244 0.92849
 C437 C 0.25848 0.16284 0.83296
 C438 C 0.25663 0.18332 0.81318
 H439 H 0.27823 0.07678 0.83603
 H440 H 0.27559 0.11859 0.79490
 H441 H 0.24548 0.15261 0.92470
 H442 H 0.24806 0.11084 0.96572
 C443 C 0.76785 0.54732 0.44829
 C444 C 0.76686 0.56754 0.42738
 C445 C 0.76537 0.59194 0.40346
 C446 C 0.77311 0.59443 0.35531
 C447 C 0.77136 0.61817 0.33211
 C448 C 0.76187 0.63950 0.35700
 C449 C 0.75422 0.63702 0.40521
 C450 C 0.75595 0.61329 0.42837
 C451 C 0.75972 0.66386 0.33304
 C452 C 0.75772 0.68430 0.31316
 H453 H 0.78041 0.57803 0.33571
 H454 H 0.77731 0.61987 0.29481
 H455 H 0.74683 0.65337 0.42478
 H456 H 0.74986 0.61156 0.46559
 C457 C 0.04671 0.73254 0.94601
 C458 C 0.06669 0.73317 0.92432
 C459 C 0.09084 0.73418 0.89952
 C460 C 0.09229 0.74450 0.85296
 C461 C 0.11596 0.74620 0.82954
 C462 C 0.13825 0.73759 0.85264
 C463 C 0.13676 0.72712 0.89909
 C464 C 0.11310 0.72541 0.92248
 C465 C 0.16268 0.73997 0.82913
 C466 C 0.18321 0.74219 0.80972
 H467 H 0.07520 0.75141 0.83497
 H468 H 0.11692 0.75438 0.79367
 H469 H 0.15389 0.72046 0.91730
 H470 H 0.11217 0.71743 0.95853
 C471 C 0.54714 0.23333 0.44947
 C472 C 0.56731 0.23407 0.42827
 C473 C 0.59162 0.23519 0.40382
 C474 C 0.59314 0.24488 0.35676
 C475 C 0.61688 0.24652 0.33351
 C476 C 0.63921 0.23850 0.35721
 C477 C 0.63767 0.22872 0.40421
 C478 C 0.61393 0.22706 0.42745
 C479 C 0.66370 0.24062 0.33358
 C480 C 0.68422 0.24257 0.31389
 H481 H 0.57602 0.25128 0.33819
 H482 H 0.61784 0.25415 0.29720
 H483 H 0.65481 0.22250 0.42293
 H484 H 0.61299 0.21957 0.46385
 C485 C 0.95395 0.26634 0.94851
 C486 C 0.93391 0.26584 0.92694
 C487 C 0.90969 0.26498 0.90227
 C488 C 0.90817 0.25522 0.85532
 C489 C 0.88445 0.25369 0.83199
 C490 C 0.86218 0.26191 0.85557
 C491 C 0.86373 0.27181 0.90243
 C492 C 0.88745 0.27336 0.92573
 C493 C 0.83770 0.25975 0.83206
 C494 C 0.81715 0.25773 0.81260
 H495 H 0.92525 0.24862 0.83693
 H496 H 0.88344 0.24595 0.79579
 H497 H 0.84662 0.27817 0.92102
 H498 H 0.88843 0.28090 0.96208
 C499 C 0.45270 0.76778 0.44778
 C500 C 0.43246 0.76685 0.42686
 C501 C 0.40803 0.76541 0.40284
 C502 C 0.40566 0.77297 0.35454
 C503 C 0.38192 0.77123 0.33123
 C504 C 0.36047 0.76194 0.35613
 C505 C 0.36284 0.75448 0.40448
 C506 C 0.38657 0.75620 0.42777
 C507 C 0.33611 0.75976 0.33202
 C508 C 0.31568 0.75772 0.31203
 H509 H 0.42213 0.78010 0.33492
 H510 H 0.38032 0.77703 0.29382
 H511 H 0.34640 0.74724 0.42408
 H512 H 0.38820 0.75025 0.46509
 C513 C 0.26604 0.95361 0.05185
 C514 C 0.26546 0.93347 0.07307
 C515 C 0.26450 0.90918 0.09748
 C516 C 0.25500 0.90759 0.14463
 C517 C 0.25345 0.88384 0.16779
 C518 C 0.26137 0.86158 0.14387
 C519 C 0.27099 0.86319 0.09679
 C520 C 0.27256 0.88694 0.07365
 C521 C 0.25921 0.83707 0.16728
 C522 C 0.25719 0.81652 0.18672
 H523 H 0.24866 0.92466 0.16333
 H524 H 0.24593 0.88280 0.20416
 H525 H 0.27712 0.84609 0.07792
 H526 H 0.27991 0.88795 0.03715
 C527 C 0.76822 0.45294 0.55137
 C528 C 0.76737 0.43273 0.57235
 C529 C 0.76601 0.40835 0.59639
 C530 C 0.77368 0.40601 0.64463
 C531 C 0.77200 0.38231 0.66798
 C532 C 0.76266 0.36087 0.64316
 C533 C 0.75510 0.36321 0.59486
 C534 C 0.75676 0.38690 0.57153
 C535 C 0.76051 0.33656 0.66730
 C536 C 0.75846 0.31616 0.68732
 H537 H 0.78084 0.42249 0.66417
 H538 H 0.77787 0.38071 0.70535
 H539 H 0.74782 0.34677 0.57534
 H540 H 0.75073 0.38851 0.53426
 C541 C 0.73282 0.04650 0.05402
 C542 C 0.73349 0.06654 0.07549
 C543 C 0.73454 0.09075 0.10008
 C544 C 0.74454 0.09225 0.14689
 C545 C 0.74622 0.11595 0.17016
 C546 C 0.73793 0.13823 0.14666
 C547 C 0.72781 0.13670 0.09994
 C548 C 0.72610 0.11301 0.07670
 C549 C 0.74025 0.16269 0.17011
 C550 C 0.74242 0.18323 0.18949
 H551 H 0.75118 0.07517 0.16523
 H552 H 0.75413 0.11694 0.20625
 H553 H 0.72140 0.15381 0.08141
 H554 H 0.71838 0.11205 0.04046
 C555 C 0.23349 0.54713 0.55081
 C556 C 0.23438 0.56737 0.57161
 C557 C 0.23574 0.59181 0.59543
 C558 C 0.24504 0.61321 0.57043
 C559 C 0.24662 0.63697 0.59350
 C560 C 0.23892 0.63943 0.64168
 C561 C 0.22956 0.61804 0.66665
 C562 C 0.22797 0.59427 0.64356
 C563 C 0.24090 0.66383 0.66554
 C564 C 0.24276 0.68429 0.68534
 H565 H 0.25115 0.61151 0.53323
 H566 H 0.25391 0.65336 0.57386
 H567 H 0.22358 0.61972 0.70393
 H568 H 0.22076 0.57784 0.66322
 C569 C 0.95334 0.73272 0.05236
 C570 C 0.93335 0.73341 0.07401
 C571 C 0.90918 0.73447 0.09874
 C572 C 0.88692 0.72578 0.07571
 C573 C 0.86324 0.72752 0.09905
 C574 C 0.86176 0.73793 0.14551
 C575 C 0.88405 0.74647 0.16867
 C576 C 0.90774 0.74475 0.14531
 C577 C 0.83732 0.74029 0.16901
 C578 C 0.81679 0.74246 0.18843
 H579 H 0.88784 0.71784 0.03966
 H580 H 0.84611 0.72091 0.08079
 H581 H 0.88310 0.75461 0.20457
 H582 H 0.92484 0.75159 0.16335
 C583 C 0.45281 0.23345 0.55313
 C584 C 0.43258 0.23429 0.57410
 C585 C 0.40815 0.23557 0.59809
 C586 C 0.40576 0.22779 0.64626
 C587 C 0.38199 0.22931 0.66948
 C588 C 0.36052 0.23859 0.64461
 C589 C 0.36291 0.24628 0.59639
 C590 C 0.38666 0.24478 0.57320
 C591 C 0.33611 0.24052 0.66859
 C592 C 0.31562 0.24238 0.68840
 H593 H 0.42225 0.22065 0.66586
 H594 H 0.38038 0.22333 0.70679
 H595 H 0.34646 0.25352 0.57681
 H596 H 0.38829 0.25090 0.53597
 C597 C 0.04657 0.26561 0.05223
 C598 C 0.06668 0.26476 0.07353
 C599 C 0.09100 0.26346 0.09777
 C600 C 0.11244 0.25392 0.07329
 C601 C 0.13612 0.25243 0.09670
 C602 C 0.13845 0.26046 0.14470
 C603 C 0.11702 0.27006 0.16917
 C604 C 0.09332 0.27157 0.14573
 C605 C 0.16277 0.25854 0.16885
 C606 C 0.18323 0.25666 0.18873
 H607 H 0.11083 0.24756 0.03622
 H608 H 0.15256 0.24495 0.07747
 H609 H 0.11863 0.27629 0.20632
 H610 H 0.07685 0.27897 0.16496
 C611 C 0.54732 0.76774 0.55060
 C612 C 0.56757 0.76679 0.57151
 C613 C 0.59201 0.76534 0.59549
 C614 C 0.61342 0.75598 0.57063
 C615 C 0.63715 0.75427 0.59388
 C616 C 0.63959 0.76188 0.64212
 C617 C 0.61819 0.77132 0.66695
 C618 C 0.59445 0.77305 0.64367
 C619 C 0.66396 0.75973 0.66618
 C620 C 0.68441 0.75773 0.68616
 H621 H 0.61174 0.74992 0.53340
 H622 H 0.65355 0.74692 0.57434
 H623 H 0.61985 0.77723 0.70426
 H624 H 0.57801 0.78029 0.66324
   
