data_POSCAR
  _audit_creation_date              2014-09-24
  _audit_creation_method            'ToBaCCo'
  _symmetry_space_group_name_H-M    'P1'
  _symmetry_Int_Tables_number       1
  _symmetry_cell_setting            triclinic
  loop_
  _symmetry_equiv_pos_as_xyz
 x,y,z
_cell_length_a 52.5491
_cell_length_b 54.7529
_cell_length_c 52.2576
_cell_angle_alpha 90.153400
_cell_angle_beta 89.699100
_cell_angle_gamma 89.549000
loop_
  _atom_site_label
  _atom_site_type_symbol
  _atom_site_fract_x
  _atom_site_fract_y
  _atom_site_fract_z
O1 O 0.29858 0.34264 0.02563
 O2 O 0.35040 0.32174 -0.01642
 O3 O 0.31323 0.35303 -0.02004
 O4 O 0.33532 0.31103 0.02979
 O5 O 0.31061 0.28208 0.01454
 O6 O 0.28874 0.32435 -0.03623
 O7 O 0.32587 0.29273 -0.03192
 O8 O 0.27319 0.31469 0.00938
 Cu9 Cu 0.32696 0.33484 0.00634
 Cu10 Cu 0.29717 0.30035 -0.01245
 C11 C 0.27683 0.33286 0.02403
 C12 C 0.34701 0.30380 -0.03138
 C13 C 0.29696 0.34612 -0.03640
 C14 C 0.32683 0.28942 0.03074
 O15 O 0.67554 0.63846 0.03571
 O16 O 0.63511 0.67316 -0.00797
 O17 O 0.66735 0.63755 -0.01320
 O18 O 0.64425 0.67496 0.04073
 O19 O 0.67552 0.70102 0.03449
 O20 O 0.69851 0.66359 -0.01997
 O21 O 0.66592 0.69973 -0.01435
 O22 O 0.70735 0.66381 0.02890
 Cu23 Cu 0.65246 0.65345 0.01451
 Cu24 Cu 0.69000 0.68470 0.00667
 C25 C 0.69833 0.64484 0.03947
 C26 C 0.64341 0.69237 -0.01846
 C27 C 0.68691 0.64409 -0.02577
 C28 C 0.65579 0.69445 0.04671
 O29 O 0.63002 0.33187 1.05155
 O30 O 0.65434 0.36613 0.99660
 O31 O 0.62230 0.33126 1.00244
 O32 O 0.66141 0.36759 1.04552
 O33 O 0.69318 0.34123 1.04116
 O34 O 0.65358 0.30447 0.99723
 O35 O 0.68614 0.33978 0.99214
 O36 O 0.66108 0.30480 1.04697
 Cu37 Cu 0.63885 0.35180 1.02457
 Cu38 Cu 0.67663 0.31973 1.01910
 C39 C 0.64130 0.31247 1.05862
 C40 C 0.67436 0.35894 0.98508
 C41 C 0.63123 0.31203 0.99212
 C42 C 0.68404 0.36100 1.05037
 O43 O 0.36456 0.66376 0.99556
 O44 O 0.32558 0.64440 0.94092
 O45 O 0.36177 0.67561 0.94754
 O46 O 0.32996 0.63094 0.98819
 O47 O 0.30054 0.65817 0.99887
 O48 O 0.33345 0.70396 0.95813
 O49 O 0.29650 0.67210 0.95124
 O50 O 0.33559 0.69156 1.00594
 Cu51 Cu 0.34835 0.65096 0.96702
 Cu52 Cu 0.31353 0.68422 0.97954
 C53 C 0.35684 0.68109 1.00989
 C54 C 0.30427 0.65480 0.93691
 C55 C 0.35348 0.69734 0.94609
 C56 C 0.30981 0.63663 1.00029
 O57 O 0.00051 0.36742 0.32493
 O58 O 0.04921 0.33478 0.36118
 O59 O 0.04984 0.36531 0.32319
 O60 O -0.00003 0.33649 0.36204
 O61 O -0.00235 0.30607 0.33433
 O62 O 0.04890 0.33438 0.29603
 O63 O 0.04685 0.30337 0.33468
 O64 O -0.00061 0.33755 0.29644
 Cu65 Cu 0.02514 0.35406 0.34554
 Cu66 Cu 0.02312 0.31726 0.31251
 C67 C -0.00818 0.35831 0.30449
 C68 C 0.05579 0.31333 0.35468
 C69 C 0.05777 0.35488 0.30289
 C70 C -0.00967 0.31640 0.35495
 O71 O 0.01217 0.66665 0.63875
 O72 O -0.04377 0.63903 0.66833
 O73 O -0.03674 0.67457 0.63726
 O74 O 0.00463 0.63077 0.66975
 O75 O 0.00875 0.65597 0.70253
 O76 O -0.03426 0.70018 0.66979
 O77 O -0.04029 0.66358 0.70175
 O78 O 0.01507 0.69283 0.67084
 Cu79 Cu -0.01618 0.65032 0.65022
 Cu80 Cu -0.01232 0.68078 0.68953
 C81 C 0.02308 0.68444 0.64955
 C82 C -0.05140 0.64629 0.69012
 C83 C -0.04299 0.69464 0.64788
 C84 C 0.01366 0.63566 0.69159
 O85 O 1.03294 0.64361 0.33432
 O86 O 0.97911 0.66843 0.37078
 O87 O 0.98479 0.63429 0.33671
 O88 O 1.02763 0.67775 0.36749
 O89 O 1.02045 0.70462 0.33691
 O90 O 0.97712 0.66085 0.30589
 O91 O 0.97160 0.69550 0.34041
 O92 O 1.02551 0.66972 0.30298
 Cu93 Cu 1.00672 0.65342 0.35547
 Cu94 Cu 0.99782 0.68546 0.31849
 C95 C 1.03840 0.65227 0.31253
 C96 C 0.96621 0.68613 0.36198
 C97 C 0.97393 0.63997 0.31592
 C98 C 1.03179 0.69839 0.35732
 O99 O 0.97321 0.32572 0.64428
 O100 O 1.01776 0.34758 0.69272
 O101 O 1.01983 0.31470 0.65674
 O102 O 0.97039 0.35694 0.68171
 O103 O 0.95686 0.32829 0.70805
 O104 O 1.00626 0.28634 0.68336
 O105 O 1.00392 0.31984 0.71994
 O106 O 0.95978 0.29689 0.67045
 Cu107 Cu 0.99667 0.33906 0.66623
 Cu108 Cu 0.98051 0.30493 0.69814
 C109 C 0.95904 0.30762 0.64890
 C110 C 1.01819 0.33782 0.71469
 C111 C 1.02118 0.29312 0.66562
 C112 C 0.95522 0.34977 0.69915
 O113 O 0.35492 0.01169 0.31533
 O114 O 0.30963 -0.02515 0.35321
 O115 O 0.34341 -0.03448 0.31796
 O116 O 0.32476 0.02003 0.35365
 O117 O 0.29435 0.02814 0.32582
 O118 O 0.31366 -0.02755 0.28917
 O119 O 0.27962 -0.01696 0.32498
 O120 O 0.32479 0.01841 0.28680
 Cu121 Cu 0.33614 -0.00779 0.33782
 Cu122 Cu 0.30008 0.00124 0.30387
 C123 C 0.34742 0.02113 0.29444
 C124 C 0.28676 -0.02693 0.34559
 C125 C 0.33218 -0.04034 0.29748
 C126 C 0.30647 0.03331 0.34617
 O127 O 0.66009 0.03575 0.68345
 O128 O 0.69015 -0.01748 0.65193
 O129 O 0.65812 -0.01155 0.68870
 O130 O 0.68919 0.02927 0.64375
 O131 O 0.72306 0.03151 0.66849
 O132 O 0.69002 -0.00834 0.71587
 O133 O 0.72262 -0.01503 0.67847
 O134 O 0.69332 0.03899 0.70889
 Cu135 Cu 0.67112 0.00884 0.66443
 Cu136 Cu 0.71051 0.01224 0.69561
 C137 C 0.67165 0.04644 0.70158
 C138 C 0.71143 -0.02544 0.66003
 C139 C 0.66853 -0.01716 0.70967
 C140 C 0.71144 0.03692 0.64788
 O141 O 0.34353 1.01578 0.64720
 O142 O 0.36639 0.96455 0.68615
 O143 O 0.33918 0.96869 0.64534
 O144 O 0.37136 1.01096 0.68820
 O145 O 0.33664 1.01499 0.71190
 O146 O 0.30460 0.97061 0.66952
 O147 O 0.33241 0.96775 0.71103
 O148 O 0.30841 1.01801 0.67052
 Cu149 Cu 0.35852 0.98985 0.66424
 Cu150 Cu 0.31694 0.99315 0.69313
 C151 C 0.32190 1.02530 0.65184
 C152 C 0.35367 0.95777 0.70556
 C153 C 0.31653 0.96234 0.65008
 C154 C 0.35990 1.01974 0.70761
 O155 O 0.63254 0.99282 0.31081
 O156 O 0.68207 1.03532 0.33195
 O157 O 0.64762 1.03564 0.29610
 O158 O 0.66718 0.99217 0.34584
 O159 O 0.69463 0.97499 0.31900
 O160 O 0.67420 1.01802 0.26872
 O161 O 0.70945 1.01795 0.30525
 O162 O 0.65955 0.97527 0.28380
 Cu163 Cu 0.65469 1.01581 0.32381
 Cu164 Cu 0.68727 0.99503 0.29137
 C165 C 0.63750 0.97685 0.29381
 C166 C 0.70443 1.03345 0.32277
 C167 C 0.65704 1.03380 0.27375
 C168 C 0.68426 0.97628 0.34098
 C169 C 0.86096 0.78332 0.49727
 C170 C 0.85030 0.79114 0.47421
 C171 C 0.83190 0.80973 0.47457
 C172 C 0.82425 0.82105 0.49777
 C173 C 0.83581 0.81310 0.52079
 C174 C 0.85334 0.79362 0.52065
 C175 C 0.80328 0.83989 0.49786
 C176 C 0.78796 0.84377 0.51985
 C177 C 0.76734 0.86016 0.51928
 C178 C 0.76117 0.87205 0.49654
 C179 C 0.77584 0.86851 0.47436
 C180 C 0.79739 0.85328 0.47546
 H181 H 0.87558 0.76926 0.49710
 H182 H 0.82307 0.81450 0.45662
 H183 H 0.83092 0.82142 0.53895
 H184 H 0.79130 0.83368 0.53727
 H185 H 0.74538 0.88487 0.49660
 H186 H 0.80921 0.85175 0.45853
 C187 C 0.11804 0.20657 0.51490
 C188 C 0.12382 0.19579 0.49124
 C189 C 0.14279 0.17777 0.48982
 C190 C 0.15837 0.17249 0.51110
 C191 C 0.15326 0.18492 0.53439
 C192 C 0.13253 0.20111 0.53652
 C193 C 0.18022 0.15476 0.50867
 C194 C 0.18991 0.14244 0.53027
 C195 C 0.21082 0.12646 0.52812
 C196 C 0.22114 0.12139 0.50384
 C197 C 0.21154 0.13296 0.48197
 C198 C 0.19162 0.14992 0.48460
 H199 H 0.10272 0.21989 0.51636
 H200 H 0.14572 0.16863 0.47168
 H201 H 0.16517 0.18221 0.55096
 H202 H 0.18130 0.14506 0.54893
 H203 H 0.23588 0.10761 0.50184
 H204 H 0.18538 0.15939 0.46761
 C205 C 0.13124 0.77201 0.51490
 C206 C 0.13266 0.78817 0.53563
 C207 C 0.14412 0.81093 0.53220
 C208 C 0.15625 0.81694 0.50883
 C209 C 0.15435 0.80030 0.48818
 C210 C 0.14128 0.77826 0.49106
 C211 C 0.17154 0.83989 0.50647
 C212 C 0.17718 0.85021 0.48234
 C213 C 0.19254 0.87093 0.48031
 C214 C 0.20196 0.88191 0.50250
 C215 C 0.19702 0.87184 0.52659
 C216 C 0.18190 0.85101 0.52847
 H217 H 0.12121 0.75489 0.51694
 H218 H 0.14378 0.82360 0.54810
 H219 H 0.16342 0.80383 0.46999
 H220 H 0.16969 0.84247 0.46492
 H221 H 0.21388 0.89789 0.50092
 H222 H 0.17944 0.84301 0.54719
 C223 C 0.88271 0.21542 0.48914
 C224 C 0.87052 0.20613 0.51092
 C225 C 0.85497 0.18561 0.50846
 C226 C 0.85185 0.17387 0.48459
 C227 C 0.86438 0.18361 0.46296
 C228 C 0.87921 0.20474 0.46498
 C229 C 0.83555 0.15163 0.48239
 C230 C 0.82216 0.14656 0.45966
 C231 C 0.80712 0.12560 0.45756
 C232 C 0.80403 0.11038 0.47887
 C233 C 0.81588 0.11588 0.50218
 C234 C 0.83256 0.13569 0.50337
 H235 H 0.89584 0.23039 0.49113
 H236 H 0.84513 0.17908 0.52531
 H237 H 0.86278 0.17482 0.44447
 H238 H 0.82324 0.15885 0.44351
 H239 H 0.79172 0.09466 0.47744
 H240 H 0.84258 0.13895 0.52107
 C241 C 0.52225 0.90247 0.80686
 C242 C 0.49890 0.89073 0.80978
 C243 C 0.49486 0.87584 0.83119
 C244 C 0.51363 0.87338 0.85026
 C245 C 0.53646 0.88668 0.84760
 C246 C 0.54121 0.90036 0.82548
 C247 C 0.51049 0.85490 0.87107
 C248 C 0.53190 0.84200 0.88029
 C249 C 0.52913 0.82233 0.89710
 C250 C 0.50468 0.81546 0.90493
 C251 C 0.48307 0.82775 0.89586
 C252 C 0.48606 0.84800 0.87979
 H253 H 0.52572 0.91339 0.78992
 H254 H 0.47768 0.86513 0.83211
 H255 H 0.55114 0.88551 0.86201
 H256 H 0.55081 0.84619 0.87337
 H257 H 0.50228 0.80042 0.91812
 H258 H 0.46921 0.85755 0.87324
 C259 C 0.49868 0.12793 0.20829
 C260 C 0.47438 0.13858 0.21027
 C261 C 0.47012 0.16206 0.20040
 C262 C 0.48973 0.17472 0.18774
 C263 C 0.51399 0.16356 0.18594
 C264 C 0.51872 0.14059 0.19670
 C265 C 0.48542 0.19997 0.17770
 C266 C 0.50559 0.21683 0.17732
 C267 C 0.50215 0.24041 0.16754
 C268 C 0.47788 0.24796 0.16003
 C269 C 0.45749 0.23167 0.16011
 C270 C 0.46136 0.20755 0.16850
 H271 H 0.50237 0.11057 0.21751
 H272 H 0.45162 0.17053 0.20310
 H273 H 0.52956 0.17273 0.17645
 H274 H 0.52398 0.21186 0.18495
 H275 H 0.47507 0.26635 0.15284
 H276 H 0.44562 0.19493 0.16804
 C277 C 0.50782 0.12922 0.77520
 C278 C 0.52844 0.14485 0.77827
 C279 C 0.52850 0.16160 0.79862
 C280 C 0.50773 0.16284 0.81584
 C281 C 0.48738 0.14643 0.81271
 C282 C 0.48751 0.12946 0.79265
 C283 C 0.50679 0.18158 0.83657
 C284 C 0.48332 0.19230 0.84378
 C285 C 0.48200 0.21005 0.86306
 C286 C 0.50444 0.21724 0.87521
 C287 C 0.52813 0.20742 0.86787
 C288 C 0.52916 0.18919 0.84900
 H289 H 0.50773 0.11665 0.75914
 H290 H 0.54422 0.17416 0.80033
 H291 H 0.47160 0.14643 0.82612
 H292 H 0.46596 0.18720 0.83412
 H293 H 0.50349 0.22998 0.89105
 H294 H 0.54739 0.18108 0.84402
 C295 C 0.48539 0.86940 0.21375
 C296 C 0.50913 0.86253 0.20347
 C297 C 0.51035 0.84315 0.18581
 C298 C 0.48839 0.82972 0.17944
 C299 C 0.46486 0.83690 0.19041
 C300 C 0.46330 0.85662 0.20745
 C301 C 0.49008 0.80758 0.16255
 C302 C 0.46893 0.80008 0.14792
 C303 C 0.46941 0.77797 0.13427
 C304 C 0.49182 0.76392 0.13401
 C305 C 0.51333 0.77142 0.14738
 C306 C 0.51242 0.79302 0.16183
 H307 H 0.48378 0.88511 0.22627
 H308 H 0.52858 0.83848 0.17732
 H309 H 0.44774 0.82666 0.18665
 H310 H 0.45184 0.81122 0.14729
 H311 H 0.49309 0.74741 0.12261
 H312 H 0.52886 0.79779 0.17313
 C313 C 0.76149 0.49203 0.87546
 C314 C 0.77550 0.47110 0.86865
 C315 C 0.79634 0.47321 0.85198
 C316 C 0.80221 0.49584 0.84055
 C317 C 0.78723 0.51651 0.84719
 C318 C 0.76718 0.51480 0.86484
 C319 C 0.82333 0.49790 0.82129
 C320 C 0.83559 0.52045 0.81737
 C321 C 0.85313 0.52331 0.79745
 C322 C 0.86035 0.50309 0.78262
 C323 C 0.84935 0.48018 0.78667
 C324 C 0.83068 0.47776 0.80581
 H325 H 0.74669 0.49061 0.88985
 H326 H 0.80767 0.45707 0.84790
 H327 H 0.79063 0.53405 0.83842
 H328 H 0.83117 0.53614 0.82925
 H329 H 0.87510 0.50531 0.76829
 H330 H 0.82155 0.46025 0.80797
 C331 C 0.20106 0.49728 0.09900
 C332 C 0.19110 0.47756 0.11281
 C333 C 0.17683 0.48201 0.13502
 C334 C 0.17314 0.50587 0.14449
 C335 C 0.18383 0.52542 0.13063
 C336 C 0.19769 0.52136 0.10794
 C337 C 0.15920 0.51023 0.16924
 C338 C 0.14737 0.53297 0.17440
 C339 C 0.13640 0.53783 0.19835
 C340 C 0.13524 0.51924 0.21668
 C341 C 0.14522 0.49603 0.21150
 C342 C 0.15799 0.49185 0.18821
 H343 H 0.21194 0.49373 0.08175
 H344 H 0.16868 0.46651 0.14479
 H345 H 0.18235 0.54392 0.13782
 H346 H 0.14693 0.54722 0.16011
 H347 H 0.12566 0.52260 0.23480
 H348 H 0.16742 0.47444 0.18542
 C349 C 0.81592 0.49666 0.09854
 C350 C 0.82890 0.51855 0.10272
 C351 C 0.85091 0.51842 0.11771
 C352 C 0.85878 0.49703 0.13058
 C353 C 0.84508 0.47529 0.12639
 C354 C 0.82382 0.47500 0.11039
 C355 C 0.87936 0.49785 0.15026
 C356 C 0.89296 0.47649 0.15706
 C357 C 0.90905 0.47636 0.17831
 C358 C 0.91358 0.49820 0.19149
 C359 C 0.90096 0.51982 0.18467
 C360 C 0.88385 0.51952 0.16423
 H361 H 0.79958 0.49655 0.08599
 H362 H 0.86109 0.53536 0.12010
 H363 H 0.84988 0.45870 0.13651
 H364 H 0.89035 0.45960 0.14666
 H365 H 0.92706 0.49824 0.20708
 H366 H 0.87324 0.53607 0.16024
 C367 C 0.23503 0.50142 0.84991
 C368 C 0.22477 0.52152 0.83705
 C369 C 0.20036 0.52006 0.82644
 C370 C 0.18594 0.49854 0.82897
 C371 C 0.19621 0.47897 0.84331
 C372 C 0.22062 0.48031 0.85394
 C373 C 0.16056 0.49614 0.81637
 C374 C 0.15246 0.47315 0.80745
 C375 C 0.12856 0.47035 0.79619
 C376 C 0.11309 0.49095 0.79232
 C377 C 0.12148 0.51435 0.79925
 C378 C 0.14466 0.51667 0.81228
 H379 H 0.25425 0.50262 0.85710
 H380 H 0.19320 0.53542 0.81558
 H381 H 0.18510 0.46270 0.84663
 H382 H 0.16474 0.45726 0.80907
 H383 H 0.09487 0.48876 0.78305
 H384 H 0.15044 0.53462 0.81859
 C385 C 0.25529 0.34400 0.03785
 C386 C 0.25940 0.35936 0.05863
 C387 C 0.24166 0.37914 0.06557
 N388 N 0.24350 0.39001 0.08881
 N389 N 0.23001 0.41007 0.09420
 C390 C 0.21448 0.42024 0.07640
 N391 N 0.21258 0.40935 0.05315
 N392 N 0.22585 0.38909 0.04786
 C393 C 0.20186 0.44384 0.08140
 C394 C 0.19789 0.45208 0.10632
 H395 H 0.27753 0.35869 0.06840
 H396 H 0.19656 0.45522 0.06534
 H397 H 0.23648 0.34265 0.02961
 H398 H 0.20051 0.43940 0.12200
 C399 C 0.71401 0.62926 0.05593
 C400 C 0.74052 0.62859 0.05480
 C401 C 0.75472 0.60832 0.06673
 N402 N 0.78018 0.60563 0.06287
 N403 N 0.79257 0.58618 0.07205
 C404 C 0.77985 0.56876 0.08534
 N405 N 0.75453 0.57163 0.08940
 N406 N 0.74222 0.59101 0.08030
 C407 C 0.79229 0.54634 0.09439
 C408 C 0.81841 0.54187 0.09306
 H409 H 0.75069 0.64160 0.04308
 H410 H 0.78006 0.53269 0.10287
 H411 H 0.70404 0.61567 0.06708
 H412 H 0.83122 0.55619 0.08707
 C413 C 0.68361 0.37338 0.96342
 C414 C 0.70790 0.37053 0.95292
 C415 C 0.71713 0.38742 0.93315
 N416 N 0.74238 0.38909 0.92783
 N417 N 0.75088 0.40575 0.91134
 C418 C 0.73436 0.42115 0.89948
 N419 N 0.70913 0.41911 0.90443
 N420 N 0.70068 0.40259 0.92095
 C421 C 0.74303 0.44132 0.88332
 C422 C 0.76855 0.44717 0.87955
 H423 H 0.72088 0.35698 0.96060
 H424 H 0.72848 0.45339 0.87575
 H425 H 0.67128 0.38787 0.95657
 H426 H 0.78343 0.43442 0.88494
 C427 C 0.28784 0.64607 0.91612
 C428 C 0.29638 0.62853 0.89863
 C429 C 0.27908 0.61467 0.88210
 N430 N 0.28869 0.59665 0.86696
 N431 N 0.27327 0.58191 0.85410
 C432 C 0.24760 0.58462 0.85586
 N433 N 0.23797 0.60302 0.87054
 N434 N 0.25342 0.61779 0.88343
 C435 C 0.23048 0.56614 0.84495
 C436 C 0.24004 0.54393 0.83583
 H437 H 0.31627 0.62316 0.89858
 H438 H 0.21021 0.56818 0.84832
 H439 H 0.26823 0.65228 0.91570
 H440 H 0.26046 0.54161 0.83391
 C441 C 0.07317 0.30007 0.37160
 C442 C 0.07362 0.27467 0.37325
 C443 C 0.08419 0.26255 0.39601
 N444 N 0.08336 0.23787 0.39845
 N445 N 0.09125 0.22711 0.41992
 C446 C 0.10001 0.24073 0.43974
 N447 N 0.10091 0.26532 0.43722
 N448 N 0.09316 0.27601 0.41580
 C449 C 0.10824 0.22978 0.46393
 C450 C 0.11186 0.20478 0.46750
 H451 H 0.06371 0.26378 0.35919
 H452 H 0.11325 0.24228 0.47915
 H453 H 0.08283 0.31078 0.38599
 H454 H 0.10930 0.19232 0.45161
 C455 C 0.04525 0.69500 0.63676
 C456 C 0.05338 0.71881 0.64101
 C457 C 0.07321 0.72934 0.62453
 N458 N 0.07456 0.75387 0.62108
 N459 N 0.09080 0.76320 0.60407
 C460 C 0.10636 0.74828 0.59012
 N461 N 0.10544 0.72387 0.59409
 N462 N 0.08915 0.71457 0.61093
 C463 C 0.12231 0.75749 0.56922
 C464 C 0.12143 0.78155 0.56061
 H465 H 0.04336 0.73045 0.65456
 H466 H 0.13354 0.74415 0.55865
 H467 H 0.05403 0.68425 0.62163
 H468 H 0.11206 0.79555 0.57201
 C469 C 0.94493 0.69542 0.37754
 C470 C 0.93193 0.71713 0.37242
 C471 C 0.91284 0.72673 0.39065
 N472 N 0.90437 0.75017 0.38894
 N473 N 0.88866 0.75941 0.40669
 C474 C 0.88077 0.74547 0.42666
 N475 N 0.88885 0.72196 0.42803
 N476 N 0.90455 0.71277 0.41039
 C477 C 0.86589 0.75572 0.44802
 C478 C 0.85878 0.78025 0.44966
 H479 H 0.93708 0.72799 0.35592
 H480 H 0.86220 0.74380 0.46411
 H481 H 0.94030 0.68524 0.39468
 H482 H 0.86017 0.79185 0.43296
 C483 C 0.94202 0.29926 0.62852
 C484 C 0.92911 0.27713 0.62933
 C485 C 0.91508 0.26815 0.60688
 N486 N 0.90651 0.24482 0.60611
 N487 N 0.89530 0.23616 0.58514
 C488 C 0.89216 0.25059 0.56424
 N489 N 0.90038 0.27397 0.56519
 N490 N 0.91162 0.28259 0.58608
 C491 C 0.88195 0.24104 0.54009
 C492 C 0.87517 0.21667 0.53663
 H493 H 0.93073 0.26548 0.64598
 H494 H 0.88116 0.25350 0.52405
 H495 H 0.94098 0.31039 0.61144
 H496 H 0.87387 0.20477 0.55310
 C497 C 0.36502 0.03492 0.27826
 C498 C 0.38451 0.04896 0.28831
 C499 C 0.40154 0.06268 0.27134
 N500 N 0.41180 0.08406 0.27924
 N501 N 0.42710 0.09663 0.26377
 C502 C 0.43288 0.08810 0.23998
 N503 N 0.42290 0.06656 0.23225
 N504 N 0.40732 0.05419 0.24756
 C505 C 0.45073 0.10106 0.22327
 C506 C 0.45409 0.12622 0.22480
 H507 H 0.38626 0.05111 0.30884
 H508 H 0.46126 0.09056 0.20910
 H509 H 0.36149 0.03528 0.25785
 H510 H 0.44135 0.13714 0.23661
 C511 C 0.65971 0.06733 0.71485
 C512 C 0.63738 0.07816 0.70598
 C513 C 0.62272 0.09608 0.72116
 N514 N 0.60078 0.10539 0.71161
 N515 N 0.58593 0.11982 0.72590
 C516 C 0.59244 0.12554 0.75030
 N517 N 0.61467 0.11662 0.75971
 N518 N 0.62956 0.10217 0.74539
 C519 C 0.57441 0.13857 0.76731
 C520 C 0.54945 0.14294 0.75963
 H521 H 0.62951 0.07229 0.68788
 H522 H 0.57949 0.14108 0.78720
 H523 H 0.66821 0.07373 0.73245
 H524 H 0.54428 0.13910 0.73999
 C525 C 0.36440 0.93913 0.72271
 C526 C 0.38779 0.92810 0.71717
 C527 C 0.40357 0.91622 0.73670
 N528 N 0.42785 0.90981 0.73072
 N529 N 0.44357 0.90157 0.74866
 C530 C 0.43562 0.89940 0.77330
 N531 N 0.41113 0.90527 0.77922
 N532 N 0.39539 0.91363 0.76126
 C533 C 0.45362 0.89256 0.79359
 C534 C 0.47983 0.89340 0.78930
 H535 H 0.39639 0.93081 0.69851
 H536 H 0.44625 0.88929 0.81265
 H537 H 0.35527 0.93612 0.74104
 H538 H 0.48671 0.89870 0.77054
 C539 C 0.61704 0.96029 0.28594
 C540 C 0.61890 0.94478 0.26476
 C541 C 0.59740 0.92933 0.25694
 N542 N 0.59812 0.91697 0.23435
 N543 N 0.57845 0.90340 0.22700
 C544 C 0.55740 0.90163 0.24209
 N545 N 0.55680 0.91383 0.26470
 N546 N 0.57637 0.92742 0.27197
 C547 C 0.53507 0.88731 0.23448
 C548 C 0.53274 0.87551 0.21086
 H549 H 0.63608 0.94457 0.25321
 H550 H 0.51976 0.88624 0.24834
 H551 H 0.59944 0.96108 0.29681
 H552 H 0.54884 0.87508 0.19783
 C553 C 0.36818 0.29606 0.95198
 C554 C 0.36714 0.27548 0.93627
 C555 C 0.38933 0.26757 0.92097
 N556 N 0.38922 0.24574 0.90858
 N557 N 0.40971 0.23803 0.89564
 C558 C 0.43097 0.25197 0.89453
 N559 N 0.43093 0.27388 0.90665
 N560 N 0.41052 0.28154 0.91962
 C561 C 0.45444 0.24330 0.88199
 C562 C 0.45697 0.22012 0.87110
 H563 H 0.35013 0.26445 0.93592
 H564 H 0.47066 0.25535 0.88250
 H565 H 0.38547 0.30670 0.95270
 H566 H 0.44025 0.20890 0.86865
 C567 C 0.62607 0.70596 0.96483
 C568 C 0.63060 0.72970 0.95652
 C569 C 0.61070 0.74362 0.94305
 N570 N 0.61360 0.76782 0.93835
 N571 N 0.59491 0.78073 0.92753
 C572 C 0.57270 0.76983 0.92101
 N573 N 0.56997 0.74563 0.92545
 N574 N 0.58859 0.73278 0.93626
 C575 C 0.55119 0.78369 0.91045
 C576 C 0.55193 0.80871 0.90571
 H577 H 0.64820 0.73869 0.96145
 H578 H 0.53394 0.77367 0.90660
 H579 H 0.60807 0.69742 0.96046
 H580 H 0.56977 0.81835 0.90740
 C581 C 0.37314 0.68908 0.03104
 C582 C 0.36981 0.71160 0.04323
 C583 C 0.38784 0.72031 0.06264
 N584 N 0.38788 0.74419 0.06978
 N585 N 0.40488 0.75238 0.08656
 C586 C 0.42231 0.73690 0.09692
 N587 N 0.42202 0.71301 0.09002
 N588 N 0.40516 0.70487 0.07317
 C589 C 0.44213 0.74543 0.11449
 C590 C 0.44670 0.77005 0.11974
 H591 H 0.35458 0.72374 0.03730
 H592 H 0.45427 0.73152 0.12277
 H593 H 0.38928 0.67762 0.03593
 H594 H 0.43341 0.78381 0.11307
 C595 C 0.63092 0.29840 0.08015
 C596 C 0.61111 0.30776 0.09517
 C597 C 0.59656 0.29277 0.11324
 N598 N 0.57610 0.30268 0.12544
 N599 N 0.56106 0.28891 0.13992
 C600 C 0.56597 0.26469 0.14280
 N601 N 0.58674 0.25487 0.13102
 N602 N 0.60178 0.26865 0.11648
 C603 C 0.54777 0.24871 0.15597
 C604 C 0.52370 0.25715 0.16342
 H605 H 0.60468 0.32639 0.09226
 H606 H 0.55206 0.22935 0.15631
 H607 H 0.63813 0.28010 0.08343
 H608 H 0.51936 0.27646 0.16168
 C609 C 0.31241 0.04440 0.63457
 C610 C 0.28725 0.05269 0.63508
 C611 C 0.27692 0.06827 0.61462
 N612 N 0.25178 0.07422 0.61436
 N613 N 0.24201 0.08715 0.59512
 C614 C 0.25706 0.09458 0.57545
 N615 N 0.28219 0.08880 0.57584
 N616 N 0.29194 0.07590 0.59504
 C617 C 0.24664 0.10780 0.55335
 C618 C 0.22105 0.11451 0.55134
 H619 H 0.27437 0.04628 0.64982
 H620 H 0.25976 0.11228 0.53805
 H621 H 0.32514 0.05059 0.61960
 H622 H 0.20842 0.11183 0.56752
 C623 C 0.72403 0.04758 0.33283
 C624 C 0.71958 0.06561 0.35135
 C625 C 0.73994 0.07532 0.36764
 N626 N 0.73599 0.09624 0.38115
 N627 N 0.75305 0.10382 0.39816
 C628 C 0.77454 0.09057 0.40253
 N629 N 0.77851 0.06969 0.38898
 N630 N 0.76161 0.06226 0.37175
 C631 C 0.79198 0.09711 0.42337
 C632 C 0.79308 0.12059 0.43371
 H633 H 0.70030 0.07176 0.35528
 H634 H 0.80386 0.08281 0.43135
 H635 H 0.74343 0.04345 0.32706
 H636 H 0.78363 0.13560 0.42409
 C637 C 0.72365 0.95326 0.64783
 C638 C 0.71126 0.93944 0.62936
 C639 C 0.72424 0.92011 0.61460
 N640 N 0.71155 0.90845 0.59572
 N641 N 0.72351 0.89235 0.58068
 C642 C 0.74861 0.88724 0.58399
 N643 N 0.76120 0.89853 0.60323
 N644 N 0.74924 0.91467 0.61828
 C645 C 0.76271 0.87203 0.56536
 C646 C 0.75175 0.86564 0.54209
 H647 H 0.69169 0.94372 0.62459
 H648 H 0.78294 0.86926 0.56813
 H649 H 0.74300 0.94869 0.65316
 H650 H 0.73182 0.86986 0.53899
 C651 C 0.26774 0.96025 0.36106
 C652 C 0.27412 0.94168 0.37799
 C653 C 0.25494 0.93125 0.39526
 N654 N 0.25789 0.90827 0.40447
 N655 N 0.24114 0.89920 0.42109
 C656 C 0.22099 0.91289 0.42927
 N657 N 0.21814 0.93591 0.42017
 N658 N 0.23468 0.94485 0.40328
 C659 C 0.20430 0.90423 0.44987
 C660 C 0.20119 0.87950 0.45500
 H661 H 0.29340 0.93454 0.37841
 H662 H 0.19570 0.91770 0.46251
 H663 H 0.24794 0.96544 0.35877
 H664 H 0.20704 0.86602 0.44089
 C665 C 0.03452 0.34838 0.73454
 C666 C 0.05545 0.36255 0.72789
 C667 C 0.06732 0.37984 0.74568
 N668 N 0.09010 0.38983 0.73960
 N669 N 0.09977 0.40768 0.75384
 C670 C 0.08683 0.41642 0.77452
 N671 N 0.06410 0.40635 0.78069
 N672 N 0.05455 0.38831 0.76660
 C673 C 0.09585 0.43801 0.78850
 C674 C 0.12083 0.44618 0.78648
 H675 H 0.06225 0.36235 0.70828
 H676 H 0.08222 0.44828 0.79994
 H677 H 0.02899 0.34650 0.75443
 H678 H 0.13514 0.43460 0.77752
 C679 C 0.06004 0.64144 0.29876
 C680 C 0.06282 0.64229 0.27226
 C681 C 0.08196 0.62665 0.25953
 N682 N 0.07927 0.62013 0.23461
 N683 N 0.09488 0.60358 0.22402
 C684 C 0.11378 0.59313 0.23799
 N685 N 0.11686 0.60018 0.26263
 N686 N 0.10127 0.61661 0.27320
 C687 C 0.12901 0.57256 0.22823
 C688 C 0.12557 0.56216 0.20417
 H689 H 0.04903 0.65211 0.26077
 H690 H 0.14192 0.56378 0.24152
 H691 H 0.07283 0.63006 0.30983
 H692 H 0.11459 0.57162 0.18973
 C693 C 0.97297 0.37270 0.29040
 C694 C 0.96932 0.37067 0.26409
 C695 C 0.95444 0.38943 0.25047
 N696 N 0.95587 0.39146 0.22459
 N697 N 0.94422 0.40989 0.21261
 C698 C 0.93075 0.42687 0.22616
 N699 N 0.92898 0.42455 0.25190
 N700 N 0.94058 0.40621 0.26381
 C701 C 0.91942 0.44851 0.21418
 C702 C 0.91967 0.45312 0.18797
 H703 H 0.97954 0.35685 0.25320
 H704 H 0.91070 0.46184 0.22693
 H705 H 0.96384 0.38752 0.30082
 H706 H 0.92598 0.43915 0.17461
 C707 C 0.92688 0.63376 0.70160
 C708 C 0.92244 0.63303 0.72789
 C709 C 0.90494 0.61483 0.73864
 N710 N 0.90523 0.60954 0.76402
 N711 N 0.89150 0.59110 0.77321
 C712 C 0.87700 0.57739 0.75730
 N713 N 0.87631 0.58305 0.73211
 N714 N 0.88998 0.60141 0.72296
 C715 C 0.86404 0.55532 0.76601
 C716 C 0.86330 0.54763 0.79136
 H717 H 0.93408 0.64368 0.74074
 H718 H 0.85562 0.54386 0.75142
 H719 H 0.91599 0.62211 0.68903
 H720 H 0.86927 0.55965 0.80665
 C721 C 0.69619 0.62961 0.95419
 C722 C 0.68404 0.60819 0.94661
 C723 C 0.69524 0.59086 0.92810
 N724 N 0.68226 0.57039 0.92188
 N725 N 0.69266 0.55353 0.90660
 C726 C 0.71644 0.55648 0.89694
 N727 N 0.72939 0.57710 0.90291
 N728 N 0.71895 0.59401 0.91820
 C729 C 0.72833 0.53643 0.88228
 C730 C 0.75337 0.53713 0.87328
 H731 H 0.66606 0.60325 0.95536
 H732 H 0.71743 0.51987 0.88007
 H733 H 0.71366 0.63495 0.94471
 H734 H 0.76349 0.55429 0.87331
 C735 C 0.28746 0.36272 0.94572
 C736 C 0.29494 0.38715 0.94575
 C737 C 0.28306 0.40609 0.92977
 N738 N 0.26436 0.40095 0.91274
 N739 N 0.25353 0.41876 0.89910
 C740 C 0.26096 0.44232 0.90214
 N741 N 0.27964 0.44734 0.91911
 N742 N 0.29047 0.42959 0.93266
 C743 C 0.24953 0.46251 0.88759
 C744 C 0.23080 0.45947 0.86900
 H745 H 0.30940 0.39315 0.95902
 H746 H 0.25620 0.48063 0.89216
 H747 H 0.27312 0.35668 0.93234
 H748 H 0.22282 0.44152 0.86595
 C749 C 0.29818 0.61847 0.01477
 C750 C 0.27544 0.62152 0.02842
 C751 C 0.26369 0.60072 0.04191
 N752 N 0.24171 0.60376 0.05539
 N753 N 0.23097 0.58488 0.06730
 C754 C 0.24182 0.56227 0.06613
 N755 N 0.26374 0.55927 0.05266
 N756 N 0.27445 0.57809 0.04081
 C757 C 0.23043 0.54101 0.07895
 C758 C 0.20871 0.54266 0.09439
 H759 H 0.26591 0.63913 0.02886
 H760 H 0.24018 0.52366 0.07671
 H761 H 0.30735 0.60066 0.01481
 H762 H 0.20028 0.56049 0.09790
 C763 C 0.69868 0.37642 0.06538
 C764 C 0.72464 0.37296 0.06975
 C765 C 0.73993 0.39269 0.08098
 N766 N 0.76566 0.39063 0.08224
 N767 N 0.77964 0.40931 0.09042
 C768 C 0.76833 0.43068 0.09761
 N769 N 0.74264 0.43258 0.09666
 N770 N 0.72872 0.41396 0.08853
 C771 C 0.78316 0.45229 0.10456
 C772 C 0.80958 0.45211 0.10666
 H773 H 0.73426 0.35664 0.06284
 H774 H 0.77278 0.46925 0.10747
 H775 H 0.68953 0.39295 0.07243
 H776 H 0.81993 0.43493 0.10627
 C777 C 0.94025 0.71052 0.63529
 C778 C 0.92828 0.70320 0.61272
 C779 C 0.91050 0.71818 0.59772
 N780 N 0.89679 0.70701 0.57928
 N781 N 0.88174 0.71985 0.56393
 C782 C 0.87984 0.74443 0.56627
 N783 N 0.89341 0.75580 0.58488
 N784 N 0.90846 0.74285 0.60043
 C785 C 0.86488 0.75773 0.54706
 C786 C 0.86331 0.78308 0.54472
 H787 H 0.93150 0.68481 0.60560
 H788 H 0.85617 0.74663 0.53234
 H789 H 0.93591 0.72825 0.64354
 H790 H 0.86966 0.79494 0.55997
 C791 C 0.97184 0.30584 0.37051
 C792 C 0.96151 0.28278 0.36605
 C793 C 0.94366 0.27171 0.38447
 N794 N 0.93764 0.24767 0.38274
 N795 N 0.92244 0.23738 0.40012
 C796 C 0.91261 0.25085 0.41976
 N797 N 0.91840 0.27489 0.42125
 N798 N 0.93363 0.28512 0.40399
 C799 C 0.89698 0.23998 0.44011
 C800 C 0.89184 0.21505 0.44199
 H801 H 0.96764 0.27209 0.34963
 H802 H 0.88998 0.25228 0.45484
 H803 H 0.96612 0.31582 0.38757
 H804 H 0.89692 0.20293 0.42633
 C805 C 0.03840 0.27617 0.65539
 C806 C 0.05643 0.28213 0.63675
 C807 C 0.07002 0.26314 0.62195
 N808 N 0.09137 0.26874 0.60852
 N809 N 0.10242 0.25223 0.59319
 C810 C 0.09234 0.22959 0.59054
 N811 N 0.07104 0.22400 0.60401
 N812 N 0.06019 0.24039 0.61956
 C813 C 0.10202 0.21244 0.57107
 C814 C 0.12651 0.21359 0.56085
 H815 H 0.05987 0.30108 0.63202
 H816 H 0.08881 0.19930 0.56327
 H817 H 0.03704 0.25735 0.66162
 H818 H 0.14088 0.22470 0.56989
 C819 C 0.04912 0.71431 0.36852
 C820 C 0.06375 0.70720 0.38950
 C821 C 0.08168 0.72339 0.40254
 N822 N 0.09576 0.71439 0.42206
 N823 N 0.11100 0.72890 0.43537
 C824 C 0.11280 0.75300 0.42965
 N825 N 0.09899 0.76197 0.40984
 N826 N 0.08372 0.74742 0.39647
 C827 C 0.12717 0.76961 0.44632
 C828 C 0.13705 0.76145 0.46951
 H829 H 0.06202 0.68885 0.39701
 H830 H 0.12657 0.78900 0.44225
 H831 H 0.05163 0.73230 0.36033
 H832 H 0.13630 0.74214 0.47392
 C833 C 0.65521 0.96505 0.72569
 C834 C 0.65535 0.96463 0.75237
 C835 C 0.63767 0.94815 0.76586
 N836 N 0.62911 0.95332 0.78989
 N837 N 0.61082 0.93988 0.80062
 C838 C 0.60060 0.92075 0.78769
 N839 N 0.60968 0.91527 0.76405
 N840 N 0.62782 0.92866 0.75338
 C841 C 0.57830 0.90739 0.79709
 C842 C 0.56645 0.91124 0.82070
 H843 H 0.66616 0.97796 0.76300
 H844 H 0.56964 0.89475 0.78378
 H845 H 0.64225 0.95314 0.71563
 H846 H 0.57560 0.92184 0.83550
 C847 C 0.34180 0.93835 0.28295
 C848 C 0.35837 0.92187 0.29475
 C849 C 0.37643 0.90587 0.28100
 N850 N 0.39457 0.89405 0.29467
 N851 N 0.41318 0.88173 0.28295
 C852 C 0.41432 0.88058 0.25707
 N853 N 0.39590 0.89202 0.24325
 N854 N 0.37729 0.90453 0.25502
 C855 C 0.43681 0.86935 0.24490
 C856 C 0.43860 0.86390 0.21890
 H857 H 0.36060 0.92286 0.31534
 H858 H 0.45317 0.86588 0.25695
 H859 H 0.33800 0.93703 0.26265
 H860 H 0.42181 0.86461 0.20698
 C861 C 0.64669 0.04900 0.25308
 C862 C 0.63333 0.07049 0.25840
 C863 C 0.61480 0.08100 0.24049
 N864 N 0.60656 0.10434 0.24380
 N865 N 0.58732 0.11312 0.23001
 C866 C 0.57537 0.09878 0.21263
 N867 N 0.58371 0.07548 0.20921
 N868 N 0.60317 0.06678 0.22278
 C869 C 0.55175 0.10715 0.20038
 C870 C 0.54528 0.13184 0.19921
 H871 H 0.63476 0.07870 0.27722
 H872 H 0.53819 0.09354 0.19432
 H873 H 0.64746 0.04199 0.23369
 H874 H 0.55990 0.14535 0.20240
 C875 C 0.37434 0.03481 0.72564
 C876 C 0.40041 0.03066 0.72803
 C877 C 0.41734 0.04512 0.74417
 N878 N 0.44178 0.03758 0.74692
 N879 N 0.45838 0.05118 0.75959
 C880 C 0.45119 0.07287 0.76995
 N881 N 0.42659 0.08038 0.76752
 N882 N 0.40990 0.06669 0.75488
 C883 C 0.47079 0.08858 0.78095
 C884 C 0.46619 0.11236 0.78936
 H885 H 0.40916 0.01585 0.71725
 H886 H 0.49024 0.08190 0.78006
 H887 H 0.36457 0.04797 0.73777
 H888 H 0.44689 0.11878 0.79264
 C889 C 0.64563 0.71007 0.06742
 C890 C 0.62606 0.70203 0.08332
 C891 C 0.61107 0.71844 0.09999
 N892 N 0.59157 0.70915 0.11385
 N893 N 0.57590 0.72382 0.12692
 C894 C 0.57910 0.74841 0.12665
 N895 N 0.59896 0.75772 0.11322
 N896 N 0.61468 0.74300 0.10011
 C897 C 0.55977 0.76484 0.13814
 C898 C 0.53624 0.75582 0.14593
 H899 H 0.62008 0.68317 0.08213
 H900 H 0.56249 0.78439 0.13681
 H901 H 0.65262 0.72856 0.06918
 H902 H 0.53322 0.73627 0.14554
 C903 C 0.33659 0.27262 0.05046
 C904 C 0.34954 0.28169 0.07164
 C905 C 0.36464 0.26654 0.08923
 N906 N 0.37597 0.27740 0.10948
 N907 N 0.39190 0.26493 0.12431
 C908 C 0.39724 0.24105 0.11949
 N909 N 0.38556 0.22999 0.09947
 N910 N 0.36954 0.24250 0.08459
 C911 C 0.41719 0.22812 0.13413
 C912 C 0.43263 0.24087 0.15114
 H913 H 0.34993 0.30127 0.07476
 H914 H 0.42180 0.20937 0.12918
 H915 H 0.33452 0.25311 0.04779
 H916 H 0.42855 0.26002 0.15465
 C917 C 0.61512 0.29934 0.97361
 C918 C 0.62205 0.27796 0.96069
 C919 C 0.60529 0.26806 0.94072
 N920 N 0.60789 0.24466 0.93228
 N921 N 0.59192 0.23569 0.91488
 C922 C 0.57302 0.24995 0.90515
 N923 N 0.57079 0.27337 0.91327
 N924 N 0.58658 0.28225 0.93069
 C925 C 0.55377 0.24052 0.88754
 C926 C 0.55160 0.21607 0.88041
 H927 H 0.63955 0.26845 0.96540
 H928 H 0.53928 0.25338 0.88140
 H929 H 0.59691 0.30784 0.96949
 H930 H 0.56686 0.20323 0.88433
 C931 C 0.36818 0.71447 0.93042
 C932 C 0.36842 0.73969 0.93440
 C933 C 0.38898 0.75463 0.92322
 N934 N 0.39128 0.77868 0.92928
 N935 N 0.41124 0.79147 0.92098
 C936 C 0.42960 0.78057 0.90638
 N937 N 0.42708 0.75670 0.90012
 N938 N 0.40719 0.74402 0.90830
 C939 C 0.45318 0.79305 0.89904
 C940 C 0.45749 0.81803 0.90166
 H941 H 0.35517 0.74804 0.94781
 H942 H 0.46837 0.78163 0.89137
 H943 H 0.38204 0.70636 0.91749
 H944 H 0.44202 0.83039 0.90655
 C945 C 0.69188 0.95941 0.36139
 C946 C 0.71426 0.94557 0.36029
 C947 C 0.72199 0.92989 0.38177
 N948 N 0.74614 0.92098 0.38317
 N949 N 0.75338 0.90736 0.40302
 C950 C 0.73662 0.90206 0.42207
 N951 N 0.71245 0.91074 0.42048
 N952 N 0.70528 0.92443 0.40076
 C953 C 0.74400 0.88775 0.44461
 C954 C 0.76905 0.88090 0.45008
 H955 H 0.72691 0.94718 0.34396
 H956 H 0.72884 0.88295 0.45770
 H957 H 0.68009 0.95888 0.37844
 H958 H 0.78390 0.88419 0.43608
 C959 C 0.30439 0.94565 0.63202
 C960 C 0.27882 0.93928 0.63335
 C961 C 0.26693 0.92582 0.61220
 N962 N 0.24210 0.91926 0.61353
 N963 N 0.23109 0.90805 0.59383
 C964 C 0.24455 0.90313 0.57211
 N965 N 0.26933 0.90964 0.57085
 N966 N 0.28031 0.92073 0.59052
 C967 C 0.23279 0.89188 0.54966
 C968 C 0.20831 0.88235 0.54992
 H969 H 0.26716 0.94523 0.64938
 H970 H 0.24413 0.89074 0.53233
 H971 H 0.31590 0.93933 0.61603
 H972 H 0.19787 0.88121 0.56780
 C973 C 0.29969 0.05447 0.36218
 C974 C 0.27547 0.06500 0.36307
 C975 C 0.26800 0.08102 0.38467
 N976 N 0.24347 0.08852 0.38763
 N977 N 0.23625 0.10101 0.40844
 C978 C 0.25332 0.10643 0.42704
 N979 N 0.27787 0.09924 0.42388
 N980 N 0.28506 0.08682 0.40312
 C981 C 0.24546 0.11789 0.45136
 C982 C 0.22075 0.12625 0.45601
 H983 H 0.26115 0.05939 0.34948
 H984 H 0.25944 0.11875 0.46648
 H985 H 0.31355 0.05972 0.37641
 H986 H 0.20750 0.12753 0.44024
 C987 C 0.72307 0.05188 0.62775
 C988 C 0.74917 0.05526 0.62448
 C989 C 0.75899 0.06588 0.60040
 N990 N 0.78424 0.07009 0.59698
 N991 N 0.79292 0.07902 0.57484
 C992 C 0.77664 0.08386 0.55530
 N993 N 0.75152 0.07957 0.55875
 N994 N 0.74288 0.07078 0.58081
 C995 C 0.78522 0.09382 0.53062
 C996 C 0.80978 0.10229 0.52593
 H997 H 0.76240 0.04879 0.63881
 H998 H 0.77078 0.09623 0.51612
 H999 H 0.71025 0.05839 0.61306
 H1000 H 0.82364 0.10181 0.54119
 C1001 C 0.95805 0.62157 0.30343
 C1002 C 0.94889 0.62423 0.27860
 C1003 C 0.93711 0.60365 0.26503
 N1004 N 0.93122 0.60559 0.23984
 N1005 N 0.92221 0.58645 0.22703
 C1006 C 0.91875 0.56470 0.23898
 N1007 N 0.92435 0.56289 0.26419
 N1008 N 0.93335 0.58198 0.27697
 C1009 C 0.91077 0.54280 0.22499
 C1010 C 0.90528 0.54278 0.19891
 H1011 H 0.95207 0.64108 0.26828
 H1012 H 0.91000 0.52586 0.23561
 H1013 H 0.95520 0.60453 0.31348
 H1014 H 0.90376 0.55995 0.18876
 C1015 C 0.93571 0.36641 0.70976
 C1016 C 0.93120 0.38954 0.69964
 C1017 C 0.91339 0.40712 0.71160
 N1018 N 0.90917 0.42904 0.70031
 N1019 N 0.89418 0.44571 0.71144
 C1020 C 0.88283 0.44113 0.73429
 N1021 N 0.88687 0.41911 0.74556
 N1022 N 0.90184 0.40239 0.73438
 C1023 C 0.86821 0.46070 0.74708
 C1024 C 0.85802 0.45856 0.77173
 H1025 H 0.94148 0.39524 0.68268
 H1026 H 0.86688 0.47801 0.73720
 H1027 H 0.92489 0.36038 0.72624
 H1028 H 0.85724 0.44077 0.78071
 C1029 C 0.02970 0.61687 0.70366
 C1030 C 0.03976 0.61843 0.72828
 C1031 C 0.05409 0.59759 0.73918
 N1032 N 0.06472 0.59899 0.76281
 N1033 N 0.07740 0.57993 0.77254
 C1034 C 0.07980 0.55880 0.75897
 N1035 N 0.06915 0.55746 0.73546
 N1036 N 0.05659 0.57643 0.72577
 C1037 C 0.09340 0.53722 0.76880
 C1038 C 0.10690 0.53653 0.79175
 H1039 H 0.03674 0.63474 0.73970
 H1040 H 0.09361 0.52130 0.75647
 H1041 H 0.03309 0.60045 0.69251
 H1042 H 0.10872 0.55304 0.80304
 C1043 C 0.07678 0.36704 0.28659
 C1044 C 0.08735 0.38936 0.29361
 C1045 C 0.10233 0.40451 0.27593
 N1046 N 0.11057 0.42668 0.28384
 N1047 N 0.12238 0.44160 0.26767
 C1048 C 0.12644 0.43493 0.24292
 N1049 N 0.11853 0.41259 0.23508
 N1050 N 0.10668 0.39764 0.25127
 C1051 C 0.13727 0.45225 0.22431
 C1052 C 0.14151 0.47664 0.23080
 H1053 H 0.08311 0.39691 0.31236
 H1054 H 0.13915 0.44638 0.20458
 H1055 H 0.08134 0.35905 0.26812
 H1056 H 0.13817 0.48240 0.25040
   
