data_POSCAR
  _audit_creation_date              2014-09-24
  _audit_creation_method            'ToBaCCo'
  _symmetry_space_group_name_H-M    'P1'
  _symmetry_Int_Tables_number       1
  _symmetry_cell_setting            triclinic
  loop_
  _symmetry_equiv_pos_as_xyz
 x,y,z
_cell_length_a 33.8308
_cell_length_b 33.8486
_cell_length_c 37.3723
_cell_angle_alpha 89.691300
_cell_angle_beta 90.119300
_cell_angle_gamma 89.949800
loop_
  _atom_site_label
  _atom_site_type_symbol
  _atom_site_fract_x
  _atom_site_fract_y
  _atom_site_fract_z
Zr1 Zr 0.25996 0.26422 0.32027
 O2 O 0.28837 0.29559 0.36188
 O3 O 0.22089 0.22845 0.34901
 O4 O 0.21971 0.30183 0.34652
 O5 O 0.33178 0.19254 0.31229
 O6 O 0.19157 0.33766 0.30122
 O7 O 0.29427 0.22630 0.35268
 O8 O 0.18779 0.19526 0.30524
 O9 O 0.20999 0.26611 0.28708
 O10 O 0.26136 0.21239 0.29001
 O11 O 0.26561 0.31632 0.28989
 O12 O 0.31514 0.26424 0.29398
 Zr13 Zr 0.27217 0.26635 0.19648
 Zr14 Zr 0.21751 0.31615 0.25434
 Zr15 Zr 0.31421 0.21364 0.26148
 Zr16 Zr 0.21296 0.21520 0.25611
 O17 O 0.37653 0.21641 0.26554
 O18 O 0.15162 0.22758 0.25289
 O19 O 0.26587 0.21342 0.22616
 O20 O 0.21737 0.26525 0.22293
 O21 O 0.27072 0.31847 0.22609
 O22 O 0.32127 0.26433 0.23041
 C23 C 0.19518 0.20325 0.33840
 C24 C 0.32031 0.20016 0.34446
 C25 C 0.19622 0.32878 0.33446
 O26 O 0.15542 0.31280 0.24822
 O27 O 0.20127 0.33975 0.20389
 O28 O 0.24108 0.30742 0.16447
 C29 C 0.21431 0.33304 0.17210
 O30 O 0.34143 0.33474 0.31115
 Zr31 Zr 0.31854 0.31495 0.26137
 O32 O 0.31287 0.30194 0.16908
 O33 O 0.22397 0.37828 0.25605
 O34 O 0.31071 0.37711 0.26248
 O35 O 0.38066 0.30645 0.26265
 O36 O 0.34149 0.33826 0.21340
 C37 C 0.33659 0.32880 0.18045
 O38 O 0.24275 0.23685 0.15432
 O39 O 0.30745 0.15151 0.26132
 O40 O 0.31111 0.22868 0.16941
 O41 O 0.33790 0.19006 0.21354
 O42 O 0.21833 0.15278 0.25768
 O43 O 0.19235 0.18988 0.20761
 C44 C 0.33394 0.20081 0.18049
 H45 H 0.25995 0.18791 0.30453
 H46 H 0.19519 0.26549 0.20561
 H47 H 0.34684 0.26349 0.21762
 H48 H 0.26551 0.33998 0.30535
 H49 H 0.13740 0.20303 0.25948
 H50 H 0.14536 0.34030 0.24843
 H51 H 0.19716 0.38972 0.25327
 H52 H 0.33689 0.38936 0.25823
 H53 H 0.19175 0.14182 0.26275
 H54 H 0.33421 0.14010 0.26455
 H55 H 0.38620 0.18877 0.26551
 H56 H 0.39314 0.33248 0.25815
 H57 H 0.16850 0.17381 0.21250
 H58 H 0.25448 0.24647 0.13158
 H59 H 0.27649 0.28658 0.38476
 H60 H 0.36025 0.35666 0.30694
 Zr61 Zr 0.76231 0.75077 0.31086
 O62 O 0.73382 0.71990 0.35298
 O63 O 0.79929 0.78952 0.33935
 O64 O 0.80182 0.71511 0.34051
 O65 O 0.68532 0.81592 0.29657
 O66 O 0.83218 0.67797 0.29787
 O67 O 0.72318 0.78680 0.33991
 O68 O 0.83426 0.82009 0.29503
 O69 O 0.81371 0.74921 0.27979
 O70 O 0.76078 0.80156 0.27877
 O71 O 0.75901 0.69771 0.28186
 O72 O 0.70880 0.74773 0.28175
 Zr73 Zr 0.75667 0.74393 0.18583
 Zr74 Zr 0.80898 0.69792 0.24889
 Zr75 Zr 0.70976 0.79727 0.24779
 Zr76 Zr 0.81065 0.79879 0.24651
 O77 O 0.64731 0.79328 0.24668
 O78 O 0.87252 0.78881 0.24509
 O79 O 0.75960 0.79770 0.21438
 O80 O 0.80953 0.74759 0.21537
 O81 O 0.75770 0.69282 0.21755
 O82 O 0.70576 0.74612 0.21745
 C83 C 0.82574 0.81394 0.32814
 C84 C 0.69439 0.80891 0.32950
 C85 C 0.82576 0.68774 0.33058
 O86 O 0.87129 0.70296 0.24702
 O87 O 0.83067 0.67442 0.20079
 O88 O 0.79250 0.70326 0.15754
 C89 C 0.82048 0.67991 0.16795
 O90 O 0.68445 0.67350 0.29891
 Zr91 Zr 0.70786 0.69649 0.25033
 O92 O 0.71714 0.70708 0.15788
 O93 O 0.80382 0.63569 0.25165
 O94 O 0.71792 0.63466 0.24980
 O95 O 0.64585 0.70542 0.25260
 O96 O 0.68319 0.67544 0.20230
 C97 C 0.69018 0.68329 0.16920
 O98 O 0.78764 0.77054 0.14280
 O99 O 0.71497 0.85955 0.24815
 O100 O 0.72194 0.78436 0.15621
 O101 O 0.68943 0.82021 0.19864
 O102 O 0.80289 0.86098 0.24631
 O103 O 0.83172 0.82349 0.19773
 C104 C 0.69772 0.81162 0.16598
 H105 H 0.76026 0.82628 0.29279
 H106 H 0.83285 0.74770 0.19941
 H107 H 0.68095 0.74706 0.20341
 H108 H 0.75883 0.67444 0.29801
 H109 H 0.88570 0.81421 0.25059
 H110 H 0.88216 0.67582 0.24891
 H111 H 0.83105 0.62487 0.25109
 H112 H 0.69240 0.62170 0.24425
 H113 H 0.82890 0.87306 0.25166
 H114 H 0.68775 0.87023 0.24971
 H115 H 0.63697 0.82067 0.24558
 H116 H 0.63288 0.67982 0.24744
 H117 H 0.85428 0.84125 0.20276
 H118 H 0.77632 0.75995 0.12028
 H119 H 0.74398 0.73069 0.37587
 H120 H 0.66687 0.65090 0.29356
 Zr121 Zr 0.74236 0.24573 -0.31155
 O122 O 0.71395 0.27434 -0.35514
 O123 O 0.78175 0.20796 -0.33791
 O124 O 0.78193 0.28074 -0.34125
 O125 O 0.66709 0.17862 -0.29813
 O126 O 0.81087 0.31961 -0.29894
 O127 O 0.70608 0.20721 -0.34081
 O128 O 0.81630 0.17944 -0.29212
 O129 O 0.79273 0.24937 -0.27912
 O130 O 0.74074 0.19607 -0.27809
 O131 O 0.73753 0.29997 -0.28473
 O132 O 0.68772 0.24875 -0.28454
 Zr133 Zr 0.73242 0.25730 -0.18792
 Zr134 Zr 0.78631 0.30178 -0.25009
 Zr135 Zr 0.68841 0.20055 -0.24887
 Zr136 Zr 0.78958 0.20087 -0.24465
 O137 O 0.62593 0.20341 -0.25048
 O138 O 0.85114 0.21174 -0.24063
 O139 O 0.73723 0.20224 -0.21410
 O140 O 0.78657 0.25335 -0.21515
 O141 O 0.73377 0.30703 -0.22118
 O142 O 0.68260 0.25337 -0.22090
 C143 C 0.80906 0.18518 -0.32569
 C144 C 0.67774 0.18441 -0.33092
 C145 C 0.80526 0.30861 -0.33145
 O146 O 0.84849 0.29778 -0.24515
 O147 O 0.80412 0.32882 -0.20192
 O148 O 0.76576 0.29944 -0.15933
 C149 C 0.79241 0.32426 -0.16938
 O150 O 0.66186 0.31896 -0.30585
 Zr151 Zr 0.68517 0.30153 -0.25532
 O152 O 0.69434 0.29713 -0.16240
 O153 O 0.78067 0.36376 -0.25582
 O154 O 0.69368 0.36342 -0.25986
 O155 O 0.62307 0.29297 -0.25606
 O156 O 0.66215 0.32749 -0.20870
 C157 C 0.66931 0.32208 -0.17520
 O158 O 0.76179 0.23018 -0.14414
 O159 O 0.69477 0.13843 -0.24621
 O160 O 0.69337 0.22211 -0.15794
 O161 O 0.66626 0.18030 -0.19906
 O162 O 0.78339 0.13852 -0.24390
 O163 O 0.80863 0.17784 -0.19447
 C164 C 0.67063 0.19336 -0.16688
 H165 H 0.74155 0.17090 -0.29145
 H166 H 0.80912 0.25445 -0.19826
 H167 H 0.65735 0.25382 -0.20758
 H168 H 0.73747 0.32248 -0.30174
 H169 H 0.86495 0.18641 -0.24507
 H170 H 0.85893 0.32500 -0.24758
 H171 H 0.80771 0.37491 -0.25458
 H172 H 0.66772 0.37625 -0.25592
 H173 H 0.80993 0.12704 -0.24810
 H174 H 0.66779 0.12724 -0.24799
 H175 H 0.61616 0.17588 -0.24878
 H176 H 0.61050 0.31917 -0.25284
 H177 H 0.83147 0.16001 -0.19814
 H178 H 0.75065 0.24175 -0.12200
 H179 H 0.72516 0.26331 -0.37749
 H180 H 0.64335 0.34133 -0.30262
 Zr181 Zr 0.23416 0.76224 -0.31359
 O182 O 0.26305 0.73466 -0.35708
 O183 O 0.19318 0.79905 -0.33975
 O184 O 0.19480 0.72692 -0.34250
 O185 O 0.30709 0.83157 -0.30242
 O186 O 0.16980 0.68485 -0.30035
 O187 O 0.26689 0.80285 -0.34379
 O188 O 0.15755 0.82489 -0.29385
 O189 O 0.18482 0.75489 -0.28067
 O190 O 0.23321 0.81176 -0.28064
 O191 O 0.24343 0.70827 -0.28670
 O192 O 0.28945 0.76244 -0.28737
 Zr193 Zr 0.24695 0.75120 -0.18969
 Zr194 Zr 0.19564 0.70272 -0.25163
 Zr195 Zr 0.28625 0.81045 -0.25235
 Zr196 Zr 0.18534 0.80346 -0.24667
 O197 O 0.34881 0.81125 -0.25228
 O198 O 0.12464 0.78837 -0.24335
 O199 O 0.23818 0.80551 -0.21693
 O200 O 0.19242 0.75117 -0.21704
 O201 O 0.24868 0.70137 -0.22259
 O202 O 0.29595 0.75847 -0.22322
 C203 C 0.16522 0.82086 -0.32748
 C204 C 0.29535 0.82592 -0.33498
 C205 C 0.17300 0.69785 -0.33272
 O206 O 0.13378 0.70159 -0.24354
 O207 O 0.18412 0.67180 -0.20354
 O208 O 0.21189 0.71029 -0.16046
 C209 C 0.19077 0.68055 -0.17052
 O210 O 0.31995 0.69345 -0.30762
 Zr211 Zr 0.29615 0.71019 -0.25733
 O212 O 0.28791 0.71293 -0.16443
 O213 O 0.20507 0.64160 -0.25977
 O214 O 0.29137 0.64786 -0.26072
 O215 O 0.35733 0.72371 -0.25928
 O216 O 0.32241 0.68632 -0.21087
 C217 C 0.31499 0.69030 -0.17738
 O218 O 0.21891 0.77598 -0.14441
 O219 O 0.27683 0.87228 -0.25266
 O220 O 0.28292 0.79134 -0.16103
 O221 O 0.30505 0.83476 -0.20352
 O222 O 0.18754 0.86604 -0.24500
 O223 O 0.16506 0.82392 -0.19626
 C224 C 0.30180 0.82266 -0.17093
 H225 H 0.23091 0.83694 -0.29407
 H226 H 0.16991 0.74856 -0.20031
 H227 H 0.32116 0.76007 -0.20981
 H228 H 0.24446 0.68603 -0.30378
 H229 H 0.10920 0.81288 -0.24741
 H230 H 0.12538 0.67375 -0.24640
 H231 H 0.17903 0.62846 -0.25738
 H232 H 0.31809 0.63662 -0.25676
 H233 H 0.16026 0.87593 -0.24881
 H234 H 0.30316 0.88477 -0.25513
 H235 H 0.35689 0.83937 -0.25200
 H236 H 0.37211 0.69869 -0.25572
 H237 H 0.14071 0.83976 -0.19973
 H238 H 0.23182 0.76463 -0.12279
 H239 H 0.25099 0.74511 -0.37944
 H240 H 0.34005 0.67252 -0.30398
 Zr241 Zr 1.26898 1.25947 0.80441
 O242 O 1.24085 1.23386 0.84947
 O243 O 1.30907 1.29867 0.82861
 O244 O 1.30791 1.22248 0.83380
 O245 O 1.19807 1.33172 0.79058
 O246 O 1.33065 1.17874 0.79238
 O247 O 1.23610 1.30139 0.83317
 O248 O 1.34414 1.32345 0.78145
 O249 O 1.31830 1.25185 0.77147
 O250 O 1.26955 1.30803 0.76965
 O251 O 1.25931 1.20533 0.77837
 O252 O 1.21351 1.25903 0.77813
 Zr253 Zr 1.25550 1.24661 0.68048
 Zr254 Zr 1.30723 1.19938 0.74356
 Zr255 Zr 1.21645 1.30641 0.74186
 Zr256 Zr 1.31719 1.29951 0.73567
 O257 O 1.15396 1.30635 0.74425
 O258 O 1.37785 1.28393 0.73342
 O259 O 1.26419 1.30129 0.70628
 O260 O 1.31009 1.24692 0.70756
 O261 O 1.25424 1.19718 0.71442
 O262 O 1.20658 1.25424 0.71394
 C263 C 1.33571 1.32126 0.81489
 C264 C 1.20974 1.32654 0.82314
 C265 C 1.32775 1.19162 0.82461
 O266 O 1.36959 1.19875 0.73932
 O267 O 1.32349 1.17205 0.69553
 O268 O 1.28752 1.20327 0.65207
 C269 C 1.31350 1.17791 0.66268
 O270 O 1.18282 1.18963 0.79930
 Zr271 Zr 1.20664 1.20641 0.74886
 O272 O 1.21352 1.21036 0.65553
 O273 O 1.29693 1.13798 0.74888
 O274 O 1.21172 1.14411 0.75312
 O275 O 1.14543 1.21980 0.75090
 O276 O 1.18040 1.18238 0.70233
 C277 C 1.18673 1.18762 0.66861
 O278 O 1.28564 1.27059 0.63575
 O279 O 1.22539 1.36823 0.73857
 O280 O 1.22010 1.28618 0.65052
 O281 O 1.19637 1.32859 0.69263
 O282 O 1.31467 1.36197 0.73131
 O283 O 1.33783 1.31850 0.68471
 C284 C 1.20020 1.31676 0.66016
 H285 H 1.27165 1.33384 0.78180
 H286 H 1.33255 1.24430 0.69081
 H287 H 1.18123 1.25583 0.70073
 H288 H 1.25800 1.18321 0.79575
 H289 H 1.39339 1.30845 0.73672
 H290 H 1.37801 1.17078 0.74133
 H291 H 1.32300 1.12474 0.74721
 H292 H 1.18514 1.13279 0.74885
 H293 H 1.34193 1.37219 0.73423
 H294 H 1.19900 1.38081 0.74026
 H295 H 1.14537 1.33422 0.74173
 H296 H 1.13075 1.19482 0.74714
 H297 H 1.36264 1.33362 0.68772
 H298 H 1.27302 1.25973 0.61392
 H299 H 1.25347 1.24516 0.87112
 H300 H 1.16284 1.16861 0.79584
 Zr301 Zr 0.75131 0.74407 0.81681
 O302 O 0.77769 0.77311 0.86084
 O303 O 0.71583 0.70195 0.84242
 O304 O 0.70806 0.77233 0.84830
 O305 O 0.83346 0.68638 0.79904
 O306 O 0.67371 0.81027 0.80830
 O307 O 0.79234 0.70730 0.84351
 O308 O 0.68398 0.67139 0.79635
 O309 O 0.69999 0.74441 0.78558
 O310 O 0.75642 0.69639 0.78179
 O311 O 0.75027 0.79982 0.79178
 O312 O 0.80436 0.75358 0.78842
 Zr313 Zr 0.75589 0.76215 0.69316
 Zr314 Zr 0.70039 0.79870 0.75858
 Zr315 Zr 0.80696 0.70713 0.75146
 Zr316 Zr 0.70640 0.69818 0.74944
 O317 O 0.86887 0.71594 0.74966
 O318 O 0.64394 0.70323 0.74777
 O319 O 0.75717 0.70586 0.71789
 O320 O 0.70344 0.75221 0.72193
 O321 O 0.75102 0.81014 0.72794
 O322 O 0.80698 0.76120 0.72469
 C323 C 0.69105 0.67687 0.82984
 C324 C 0.82305 0.68872 0.83211
 C325 C 0.68048 0.79705 0.84010
 O326 O 0.63871 0.78969 0.75381
 O327 O 0.67914 0.82657 0.71203
 O328 O 0.71741 0.80217 0.66708
 C329 C 0.68922 0.82405 0.67895
 O330 O 0.82369 0.82647 0.81074
 Zr331 Zr 0.80111 0.80757 0.76055
 O332 O 0.79153 0.80450 0.66763
 O333 O 0.70076 0.86037 0.76752
 O334 O 0.78646 0.86824 0.76524
 O335 O 0.86371 0.80417 0.76111
 O336 O 0.82205 0.83596 0.71389
 C337 C 0.81555 0.83031 0.68033
 O338 O 0.72670 0.73585 0.64911
 O339 O 0.80698 0.64468 0.74910
 O340 O 0.79473 0.72938 0.66079
 O341 O 0.82654 0.68892 0.70059
 O342 O 0.71895 0.63693 0.74590
 O343 O 0.68757 0.67651 0.69894
 C344 C 0.81892 0.70126 0.66858
 H345 H 0.75855 0.67066 0.79439
 H346 H 0.68021 0.75203 0.70578
 H347 H 0.83160 0.76369 0.71059
 H348 H 0.74843 0.82125 0.80963
 H349 H 0.63286 0.67640 0.75129
 H350 H 0.62588 0.81570 0.75742
 H351 H 0.67284 0.86924 0.76674
 H352 H 0.81088 0.88362 0.76075
 H353 H 0.69389 0.62253 0.75018
 H354 H 0.83502 0.63623 0.74898
 H355 H 0.88109 0.68955 0.74667
 H356 H 0.87407 0.83135 0.75794
 H357 H 0.66695 0.65614 0.70254
 H358 H 0.73640 0.74914 0.62708
 H359 H 0.76826 0.75962 0.88286
 H360 H 0.83930 0.85093 0.80731
 Zr361 Zr 1.24998 0.73470 0.19437
 O362 O 1.22146 0.76346 0.15097
 O363 O 1.28822 0.69593 0.16790
 O364 O 1.29088 0.76737 0.16391
 O365 O 1.17370 0.66896 0.21008
 O366 O 1.32023 0.80817 0.20448
 O367 O 1.21241 0.69591 0.16640
 O368 O 1.32637 0.67091 0.21307
 O369 O 1.30103 0.73884 0.22572
 O370 O 1.24966 0.68535 0.22809
 O371 O 1.24563 0.78924 0.22078
 O372 O 1.19624 0.73822 0.22269
 Zr373 Zr 1.24375 0.74703 0.31882
 Zr374 Zr 1.29533 0.79160 0.25407
 Zr375 Zr 1.19822 0.69022 0.25830
 Zr376 Zr 1.29928 0.69075 0.26065
 O377 O 1.13575 0.69336 0.26001
 O378 O 1.36092 0.70134 0.26464
 O379 O 1.24788 0.69216 0.29214
 O380 O 1.29683 0.74346 0.28959
 O381 O 1.24399 0.79672 0.28508
 O382 O 1.19303 0.74274 0.28689
 C383 C 1.31737 0.67531 0.17976
 C384 C 1.18367 0.67396 0.17709
 C385 C 1.31530 0.79483 0.17254
 O386 O 1.35763 0.78826 0.25830
 O387 O 1.31407 0.81916 0.30133
 O388 O 1.28014 0.78818 0.34616
 C389 C 1.30573 0.81345 0.33448
 O390 O 1.16946 0.80927 0.20256
 Zr391 Zr 1.19443 0.79090 0.25218
 O392 O 1.20494 0.78588 0.34523
 O393 O 1.28876 0.85332 0.24705
 O394 O 1.20306 0.85280 0.24799
 O395 O 1.13243 0.78162 0.25244
 O396 O 1.17205 0.81626 0.29939
 C397 C 1.17923 0.81051 0.33287
 O398 O 1.27433 0.72137 0.36267
 O399 O 1.20423 0.62797 0.25921
 O400 O 1.20778 0.70853 0.34967
 O401 O 1.17999 0.66793 0.30804
 O402 O 1.29340 0.62837 0.26063
 O403 O 1.31861 0.66782 0.31077
 C404 C 1.18612 0.67885 0.34052
 H405 H 1.25005 0.66013 0.21480
 H406 H 1.32007 0.74465 0.30568
 H407 H 1.16834 0.74254 0.30106
 H408 H 1.24533 0.81146 0.20344
 H409 H 1.37462 0.67587 0.26058
 H410 H 1.36784 0.81552 0.25534
 H411 H 1.31568 0.86480 0.24781
 H412 H 1.17735 0.86572 0.25289
 H413 H 1.31997 0.61716 0.25604
 H414 H 1.17715 0.61688 0.25855
 H415 H 1.12594 0.66586 0.26194
 H416 H 1.11959 0.80757 0.25635
 H417 H 1.34068 0.64909 0.30694
 H418 H 1.26313 0.73288 0.38482
 H419 H 1.23206 0.75179 0.12866
 H420 H 1.15103 0.83153 0.20665
 Zr421 Zr 0.73372 1.26136 0.18607
 O422 O 0.75604 1.23067 0.14121
 O423 O 0.69379 1.30081 0.16219
 O424 O 0.68855 1.22903 0.16068
 O425 O 0.81349 1.32467 0.19227
 O426 O 0.66208 1.19127 0.20538
 O427 O 0.76842 1.29867 0.15345
 O428 O 0.66800 1.33469 0.20937
 O429 O 0.68651 1.26112 0.22213
 O430 O 0.74115 1.31120 0.21807
 O431 O 0.73846 1.20741 0.21391
 O432 O 0.79053 1.25549 0.20903
 Zr433 Zr 0.75474 1.25191 0.30931
 Zr434 Zr 0.69297 1.20878 0.25175
 Zr435 Zr 0.79572 1.30422 0.24310
 Zr436 Zr 0.69551 1.30983 0.25513
 O437 O 0.85747 1.29652 0.23743
 O438 O 0.63377 1.30207 0.26170
 O439 O 0.75041 1.30620 0.28143
 O440 O 0.69851 1.25771 0.28554
 O441 O 0.74756 1.20166 0.27752
 O442 O 0.80157 1.25223 0.27286
 C443 C 0.67120 1.32731 0.17570
 C444 C 0.79870 1.32022 0.16075
 C445 C 0.66436 1.20272 0.17251
 O446 O 0.63186 1.21595 0.26171
 O447 O 0.67949 1.18315 0.30166
 O448 O 0.72188 1.21204 0.34121
 C449 C 0.69378 1.18791 0.33331
 O450 O 0.81146 1.18355 0.18892
 Zr451 Zr 0.79313 1.20353 0.24010
 O452 O 0.79418 1.21173 0.33344
 O453 O 0.69504 1.14656 0.24676
 O454 O 0.78075 1.14219 0.23766
 O455 O 0.85537 1.20876 0.23539
 O456 O 0.81799 1.17680 0.28608
 C457 C 0.81525 1.18397 0.31977
 O458 O 0.73023 1.27991 0.35471
 O459 O 0.79391 1.36674 0.24361
 O460 O 0.79558 1.28957 0.33523
 O461 O 0.82226 1.32603 0.28972
 O462 O 0.70575 1.37162 0.25597
 O463 O 0.68115 1.33332 0.30611
 C464 C 0.81850 1.31692 0.32294
 H465 H 0.74068 1.33635 0.20445
 H466 H 0.67743 1.25800 0.30388
 H467 H 0.82775 1.25115 0.28472
 H468 H 0.73561 1.18476 0.19746
 H469 H 0.62110 1.32816 0.25788
 H470 H 0.61997 1.18922 0.26107
 H471 H 0.66782 1.13671 0.25080
 H472 H 0.80615 1.12790 0.24046
 H473 H 0.67975 1.38495 0.25374
 H474 H 0.82130 1.37609 0.23956
 H475 H 0.86935 1.32327 0.23753
 H476 H 0.86681 1.18207 0.23906
 H477 H 0.65840 1.35157 0.30366
 H478 H 0.74358 1.26865 0.37613
 H479 H 0.74327 1.24222 0.11964
 H480 H 0.82936 1.16059 0.19182
 N481 N 0.45776 1.07024 -0.03363
 N482 N 0.45265 1.09996 -0.05617
 N483 N 0.42362 1.04109 0.03864
 N484 N 0.39825 1.04509 0.06515
 N485 N 0.45228 1.06708 0.04131
 N486 N 0.44671 1.08999 0.06942
 N487 N 0.42902 1.04437 -0.03674
 N488 N 0.40365 1.05590 -0.06169
 C489 C 0.41914 1.09042 -0.07382
 C490 C 0.41282 1.07579 0.08397
 N491 N 0.44346 0.92732 0.03750
 N492 N 0.43413 0.90225 0.06335
 N493 N 0.42360 0.95828 -0.03886
 N494 N 0.39594 0.95076 -0.06296
 N495 N 0.44915 0.92898 -0.03725
 N496 N 0.43946 0.90094 -0.06002
 N497 N 0.41824 0.95680 0.03638
 N498 N 0.39150 0.95303 0.06183
 Mn499 Mn 0.42323 1.00020 -0.00034
 C500 C 0.40167 0.91884 0.07827
 C501 C 0.40668 0.91514 -0.07628
 N502 N 0.53772 1.06180 0.04598
 N503 N 0.54598 1.08771 0.07121
 N504 N 0.56770 1.03450 -0.02839
 N505 N 0.59327 1.03738 -0.05487
 N506 N 0.54281 1.06428 -0.02900
 N507 N 0.55122 1.08865 -0.05567
 N508 N 0.56282 1.03218 0.04705
 N509 N 0.58839 1.03681 0.07344
 Mn510 Mn 0.49767 1.06627 0.00622
 C511 C 0.57739 1.07145 0.08834
 C512 C 0.58284 1.07136 -0.07147
 N513 N 0.53447 0.92352 -0.03214
 N514 N 0.54158 0.89833 -0.05832
 N515 N 0.55795 0.94717 0.04448
 N516 N 0.58343 0.93655 0.06953
 N517 N 0.52844 0.92206 0.04298
 N518 N 0.53268 0.89402 0.06740
 N519 N 0.56260 0.95015 -0.03042
 N520 N 0.58914 0.94440 -0.05564
 Mn521 Mn 0.48886 0.92509 0.00279
 Mn522 Mn 0.56311 0.99103 0.00822
 Cl523 Cl 0.49316 0.99563 0.00414
 C524 C 0.57578 0.91197 -0.07268
 C525 C 0.56700 0.90363 0.08381
 N526 N 0.95279 0.44264 0.56349
 N527 N 0.92501 0.43381 0.58671
 N528 N 1.03562 0.41602 0.53822
 N529 N 1.06494 0.39047 0.54157
 N530 N 1.03574 0.44117 0.56476
 N531 N 1.06521 0.43371 0.58685
 N532 N 0.95278 0.41747 0.53697
 N533 N 0.92503 0.39052 0.54149
 C534 C 0.90771 0.40153 0.57245
 C535 C 1.08321 0.40211 0.57196
 N536 N 1.03811 0.45398 0.43974
 N537 N 1.06608 0.44851 0.41571
 N538 N 0.95413 0.42550 0.46073
 N539 N 0.92718 0.39943 0.45127
 N540 N 0.95494 0.45531 0.43811
 N541 N 0.92845 0.45020 0.41252
 N542 N 1.03685 0.42407 0.46218
 N543 N 1.06388 0.39751 0.45423
 Mn544 Mn 0.99480 0.42038 0.49949
 C545 C 1.08206 0.41331 0.42544
 C546 C 0.91108 0.41545 0.42140
 N547 N 1.03662 0.52500 0.57233
 N548 N 1.06119 0.52985 0.59931
 N549 N 0.95460 0.55723 0.54936
 N550 N 0.93070 0.58528 0.56110
 N551 N 0.95391 0.52663 0.57114
 N552 N 0.92949 0.53289 0.59792
 N553 N 1.03748 0.55562 0.55063
 N554 N 1.06263 0.58234 0.56252
 Mn555 Mn 0.99475 0.48376 0.56816
 C556 C 1.07755 0.56538 0.59260
 C557 C 0.91476 0.56919 0.59109
 N558 N 0.95664 0.54033 0.44520
 N559 N 0.93302 0.55249 0.41937
 N560 N 1.03925 0.56408 0.47346
 N561 N 1.06575 0.59221 0.46823
 N562 N 1.03947 0.53896 0.44675
 N563 N 1.06618 0.54929 0.42281
 N564 N 0.95638 0.56547 0.47191
 N565 N 0.93254 0.59546 0.46472
 Mn566 Mn 0.99730 0.49719 0.44208
 Mn567 Mn 0.99690 0.56103 0.51134
 Cl568 Cl 0.99587 0.49075 0.50520
 C569 C 0.91776 0.58655 0.43207
 C570 C 1.08271 0.58225 0.43675
 N571 N 1.04893 0.42961 -0.04646
 N572 N 1.05352 0.40588 -0.07399
 N573 N 1.07907 0.45229 0.02929
 N574 N 1.10450 0.44537 0.05555
 N575 N 1.05118 0.42534 0.02909
 N576 N 1.05644 0.39978 0.05547
 N577 N 1.07670 0.45664 -0.04588
 N578 N 1.10164 0.45144 -0.07264
 C579 C 1.08645 0.41980 -0.09000
 C580 C 1.08991 0.41243 0.07160
 N581 N 1.04971 0.56405 0.03597
 N582 N 1.05782 0.58904 0.06205
 N583 N 1.07551 0.54225 -0.04238
 N584 N 1.10252 0.55256 -0.06622
 N585 N 1.04890 0.57034 -0.03896
 N586 N 1.05799 0.60095 -0.05952
 N587 N 1.07802 0.53761 0.03301
 N588 N 1.10608 0.54402 0.05686
 Mn589 Mn 1.07772 0.49721 -0.00659
 C590 C 1.09292 0.57583 0.07504
 C591 C 1.09107 0.58919 -0.07687
 N592 N 0.96634 0.42400 0.03042
 N593 N 0.96123 0.39647 0.05509
 N594 N 0.93618 0.45453 -0.04347
 N595 N 0.90866 0.44704 -0.06774
 N596 N 0.96458 0.42817 -0.04505
 N597 N 0.95775 0.40267 -0.07093
 N598 N 0.93765 0.45010 0.03147
 N599 N 0.91177 0.44063 0.05652
 Mn600 Mn 1.00782 0.42647 -0.00795
 C601 C 0.92714 0.40722 0.07111
 C602 C 0.92286 0.41478 -0.08487
 N603 N 0.96261 0.56815 -0.03836
 N604 N 0.95367 0.59673 -0.06124
 N605 N 0.93624 0.53546 0.03536
 N606 N 0.90695 0.54327 0.05752
 N607 N 0.96341 0.56320 0.03693
 N608 N 0.95314 0.59043 0.06046
 N609 N 0.93557 0.54023 -0.03930
 N610 N 0.90750 0.54926 -0.06247
 Mn611 Mn 1.00613 0.56681 -0.00102
 Mn612 Mn 0.93613 0.49511 -0.00403
 Cl613 Cl 1.00695 0.49653 -0.00490
 C614 C 0.91941 0.58422 -0.07626
 C615 C 0.91811 0.57722 0.07344
 N616 N 0.57099 1.04361 0.52669
 N617 N 0.59983 1.06870 0.53428
 N618 N 0.54942 0.96403 0.56284
 N619 N 0.55955 0.94200 0.59066
 N620 N 0.57645 0.96186 0.53777
 N621 N 0.60554 0.93824 0.54768
 N622 N 0.54311 1.04579 0.55105
 N623 N 0.55201 1.07244 0.57524
 C624 C 0.58704 1.08704 0.56429
 C625 C 0.59445 0.92583 0.58057
 N626 N 0.43515 0.95368 0.54226
 N627 N 0.40762 0.93093 0.55684
 N628 N 0.45859 1.04059 0.55306
 N629 N 0.44773 1.06747 0.57646
 N630 N 0.43059 1.03524 0.52915
 N631 N 0.39999 1.05832 0.53584
 N632 N 0.46430 0.95912 0.56506
 N633 N 0.45745 0.94044 0.59539
 Mn634 Mn 0.50387 1.00230 0.55810
 C635 C 0.42243 0.92261 0.58985
 C636 C 0.41143 1.07874 0.56506
 N637 N 0.57511 0.94827 0.46204
 N638 N 0.60587 0.92538 0.45537
 N639 N 0.54119 1.02273 0.42607
 N640 N 0.54577 1.04531 0.39752
 N641 N 0.56891 1.03001 0.44978
 N642 N 0.59328 1.05761 0.43785
 N643 N 0.54641 0.94116 0.43924
 N644 N 0.55696 0.91351 0.41650
 Mn645 Mn 0.57319 0.99610 0.49401
 C646 C 0.59380 0.90342 0.42726
 C647 C 0.57809 1.06709 0.40531
 N648 N 0.42977 1.02188 0.45267
 N649 N 0.40409 1.04943 0.44266
 N650 N 0.46088 0.93598 0.44097
 N651 N 0.45101 0.90827 0.41787
 N652 N 0.43328 0.93966 0.46548
 N653 N 0.40411 0.91452 0.45951
 N654 N 0.45692 1.01732 0.42798
 N655 N 0.45054 1.04099 0.40062
 Mn656 Mn 0.43178 0.98763 0.49734
 Mn657 Mn 0.50136 0.97908 0.43343
 Cl658 Cl 0.50251 0.99120 0.49575
 C659 C 0.41782 1.06095 0.41007
 C660 C 0.41600 0.89458 0.43013
 N661 N 1.06603 1.05233 0.53229
 N662 N 1.09540 1.07643 0.54032
 N663 N 1.04035 0.97061 0.56285
 N664 N 1.04834 0.94574 0.58920
 N665 N 1.06807 0.96940 0.53829
 N666 N 1.09547 0.94319 0.54720
 N667 N 1.03888 1.05315 0.55747
 N668 N 1.04930 1.07774 0.58311
 C669 C 1.08424 1.09256 0.57174
 C670 C 1.08263 0.92859 0.57899
 N671 N 0.92717 0.96650 0.53854
 N672 N 0.89881 0.94220 0.54860
 N673 N 0.95329 1.05147 0.55799
 N674 N 0.94272 1.07563 0.58387
 N675 N 0.92527 1.04918 0.53361
 N676 N 0.89502 1.07190 0.54254
 N677 N 0.95464 0.96891 0.56336
 N678 N 0.94535 0.94646 0.59112
 Mn679 Mn 0.99683 1.01101 0.56058
 C680 C 0.91077 0.92956 0.58118
 C681 C 0.90666 1.08873 0.57365
 N682 N 1.06789 0.96322 0.46125
 N683 N 1.09698 0.93826 0.45461
 N684 N 1.03693 1.04255 0.43044
 N685 N 1.04353 1.06504 0.40229
 N686 N 1.06532 1.04621 0.45423
 N687 N 1.09227 1.07160 0.44246
 N688 N 1.03997 0.96013 0.43698
 N689 N 1.04943 0.93312 0.41314
 Mn690 Mn 1.06722 1.00793 0.49653
 C691 C 1.08480 0.91930 0.42479
 C692 C 1.07765 1.08345 0.41017
 N693 N 0.92525 1.04300 0.45602
 N694 N 0.89872 1.07021 0.44753
 N695 N 0.95510 0.95798 0.43790
 N696 N 0.94941 0.92828 0.41589
 N697 N 0.92669 0.95992 0.46167
 N698 N 0.90053 0.93148 0.45618
 N699 N 0.95258 1.04075 0.43124
 N700 N 0.94561 1.06645 0.40535
 Mn701 Mn 0.92572 1.00474 0.49740
 Mn702 Mn 0.99608 1.00025 0.43400
 Cl703 Cl 0.99651 1.00611 0.49721
 C704 C 0.91214 1.08476 0.41593
 C705 C 0.91555 0.91179 0.42769
 N706 N 0.54035 0.57498 0.04187
 N707 N 0.55025 0.60179 0.06593
 N708 N 0.57011 0.55301 -0.03408
 N709 N 0.59585 0.55991 -0.05979
 N710 N 0.54330 0.58109 -0.03300
 N711 N 0.55035 0.60816 -0.05769
 N712 N 0.56730 0.54705 0.04066
 N713 N 0.59594 0.55397 0.06368
 C714 C 0.58470 0.58771 0.07964
 C715 C 0.58302 0.59434 -0.07428
 N716 N 0.54261 0.44169 -0.04176
 N717 N 0.55039 0.41726 -0.06816
 N718 N 0.56616 0.46265 0.03621
 N719 N 0.58942 0.45457 0.06372
 N720 N 0.53856 0.43569 0.03309
 N721 N 0.54243 0.40825 0.05801
 N722 N 0.57040 0.46839 -0.03883
 N723 N 0.59832 0.46260 -0.06286
 Mn724 Mn 0.56886 0.50779 0.00097
 C725 C 0.58506 0.43092 -0.08121
 C726 C 0.57402 0.42060 0.07705
 N727 N 0.45779 0.58222 -0.03662
 N728 N 0.44925 0.61320 -0.05689
 N729 N 0.42667 0.54841 0.03470
 N730 N 0.39909 0.55266 0.05923
 N731 N 0.45445 0.57517 0.03851
 N732 N 0.44655 0.59830 0.06596
 N733 N 0.43018 0.55507 -0.03972
 N734 N 0.40190 0.56732 -0.06154
 Mn735 Mn 0.49895 0.57884 0.00280
 C736 C 0.41454 0.60332 -0.07249
 C737 C 0.41202 0.58359 0.07867
 N738 N 0.45375 0.43627 0.02875
 N739 N 0.44463 0.40733 0.05098
 N740 N 0.43021 0.46879 -0.04531
 N741 N 0.40270 0.45918 -0.06898
 N742 N 0.45889 0.44259 -0.04568
 N743 N 0.45246 0.41545 -0.06997
 N744 N 0.42661 0.46398 0.02940
 N745 N 0.39852 0.45500 0.05241
 Mn746 Mn 0.49847 0.43880 -0.00635
 Mn747 Mn 0.42805 0.50911 -0.00539
 Cl748 Cl 0.49852 0.50877 -0.00204
 C749 C 0.41029 0.41970 0.06566
 C750 C 0.41772 0.42624 -0.08451
 C751 C 0.35853 1.18215 0.15286
 C752 C 0.37252 1.14535 0.15508
 C753 C 0.39598 1.12926 0.12527
 C754 C 0.39353 1.09127 0.11627
 H755 H 0.36488 1.12660 0.17763
 H756 H 0.41282 1.14945 0.10862
 H757 H 0.36401 1.19922 0.12872
 H758 H 0.37401 1.07179 0.13105
 C759 C 0.83944 0.68205 0.63855
 C760 C 0.85616 0.64650 0.64229
 C761 C 0.87742 0.62712 0.61282
 C762 C 0.88951 0.58982 0.61687
 H763 H 0.85414 0.63112 0.66776
 H764 H 0.88411 0.64346 0.58856
 H765 H 0.83988 0.69685 0.61276
 H766 H 0.88213 0.57388 0.64120
 C767 C 0.67832 0.83481 0.13759
 C768 C 0.64282 0.85129 0.14236
 C769 C 0.62452 0.87563 0.11419
 C770 C 0.58533 0.87962 0.11211
 H771 H 0.62672 0.84622 0.16703
 H772 H 0.64329 0.88951 0.09428
 H773 H 0.69303 0.83755 0.11195
 H774 H 0.56634 0.86322 0.13015
 C775 C 1.17887 0.33917 0.63238
 C776 C 1.16291 0.37444 0.63989
 C777 C 1.13487 0.39617 0.61698
 C778 C 1.11662 0.38113 0.58836
 H779 H 1.16892 0.38800 0.66553
 H780 H 1.12622 0.42505 0.62659
 H781 H 1.17516 0.32575 0.60640
 H782 H 1.12420 0.35237 0.57799
 C783 C 0.64682 1.17600 -0.13789
 C784 C 0.62998 1.14044 -0.13985
 C785 C 0.60626 1.12542 -0.10970
 C786 C 0.60358 1.08679 -0.10309
 H787 H 0.63486 1.12186 -0.16297
 H788 H 0.59291 1.14629 -0.09141
 H789 H 0.64365 1.19304 -0.11356
 H790 H 0.61958 1.06607 -0.11969
 C791 C 1.16620 0.65575 0.36897
 C792 C 1.14993 0.62051 0.36149
 C793 C 1.12594 0.59590 0.38590
 C794 C 1.11175 0.60710 0.41770
 H795 H 1.15352 0.60835 0.33494
 H796 H 1.11724 0.56746 0.37531
 H797 H 1.16477 0.66794 0.39563
 H798 H 1.11938 0.63542 0.42901
 C799 C 0.32197 0.84575 -0.14296
 C800 C 0.33179 0.88382 -0.14793
 C801 C 0.35371 0.90715 -0.12113
 C802 C 0.38362 0.89188 -0.10212
 H803 H 0.32224 0.89914 -0.17196
 H804 H 0.34701 0.93836 -0.11916
 H805 H 0.32839 0.83134 -0.11765
 H806 H 0.39232 0.86142 -0.10615
 C807 C 0.84288 0.34013 0.34775
 C808 C 0.84119 0.33666 0.38340
 C809 C 0.86697 0.35984 0.40745
 C810 C 0.88178 0.39542 0.39878
 H811 H 0.82221 0.31456 0.39545
 H812 H 0.87391 0.34681 0.43324
 H813 H 0.86341 0.36076 0.33567
 H814 H 0.87336 0.40996 0.37406
 C815 C 1.19812 0.35638 0.14195
 C816 C 1.16136 0.37103 0.14191
 C817 C 1.14562 0.39275 0.11054
 C818 C 1.10687 0.39299 0.10350
 H819 H 1.14202 0.36529 0.16444
 H820 H 1.16599 0.40689 0.09215
 H821 H 1.21623 0.35970 0.11822
 H822 H 1.08702 0.37616 0.12045
 C823 C 0.66665 0.84745 0.65254
 C824 C 0.63415 0.86782 0.66178
 C825 C 0.60950 0.89149 0.63695
 C826 C 0.61930 0.90027 0.60317
 H827 H 0.62410 0.86691 0.68927
 H828 H 0.58230 0.90326 0.64783
 H829 H 0.67664 0.84666 0.62512
 H830 H 0.64670 0.89001 0.59170
 C831 C 1.17403 0.65798 -0.14482
 C832 C 1.15843 0.62025 -0.15162
 C833 C 1.13791 0.59737 -0.12634
 C834 C 1.11196 0.61316 -0.10099
 H835 H 1.16641 0.60579 -0.17639
 H836 H 1.13781 0.56566 -0.13018
 H837 H 1.17474 0.66825 -0.11738
 H838 H 1.10478 0.64435 -0.10227
 C839 C 0.67687 1.16388 0.36266
 C840 C 0.64482 1.14137 0.35764
 C841 C 0.62827 1.11597 0.38608
 C842 C 0.59546 1.09517 0.37965
 H843 H 0.63041 1.14126 0.33169
 H844 H 0.64317 1.11364 0.41171
 H845 H 0.69096 1.16466 0.38872
 H846 H 0.58087 1.09803 0.35391
 C847 C 0.84303 0.65844 0.14033
 C848 C 0.88124 0.64902 0.14542
 C849 C 0.90591 0.62876 0.11851
 C850 C 0.89262 0.59872 0.09877
 H851 H 0.89614 0.65879 0.16949
 H852 H 0.93687 0.63675 0.11724
 H853 H 0.82889 0.65237 0.11492
 H854 H 0.86248 0.58857 0.10205
 C855 C 0.33483 1.15514 0.63529
 C856 C 0.36971 1.13829 0.64327
 C857 C 0.39527 1.11654 0.61832
 C858 C 0.38488 1.10447 0.58560
 H859 H 0.38163 1.14125 0.67005
 H860 H 0.42402 1.10837 0.62884
 H861 H 0.32314 1.15465 0.60834
 H862 H 0.35596 1.11091 0.57466
 C863 C 0.81042 0.34918 -0.14137
 C864 C 0.84580 0.36637 -0.14540
 C865 C 0.86387 0.38994 -0.11648
 C866 C 0.90311 0.39423 -0.11459
 H867 H 0.86255 0.36155 -0.16970
 H868 H 0.84525 0.40202 -0.09564
 H869 H 0.79495 0.35203 -0.11614
 H870 H 0.92170 0.37930 -0.13386
 C871 C 0.32888 0.83743 0.35984
 C872 C 0.32810 0.83325 0.39552
 C873 C 0.35432 0.85683 0.41911
 C874 C 0.39116 0.86708 0.40949
 H875 H 0.30695 0.81346 0.40787
 H876 H 0.34300 0.86555 0.44498
 H877 H 0.34866 0.85903 0.34807
 H878 H 0.40331 0.85635 0.38457
 C879 C 1.17444 1.18140 0.36704
 C880 C 1.14686 1.15420 0.36068
 C881 C 1.12893 1.13111 0.39015
 C882 C 1.09739 1.10877 0.38357
 H883 H 1.13751 1.14861 0.33340
 H884 H 1.14133 1.13236 0.41689
 H885 H 1.18310 1.18720 0.39447
 H886 H 1.08473 1.10902 0.35688
 C887 C 0.66887 0.65357 -0.14389
 C888 C 0.65098 0.61959 -0.15208
 C889 C 0.62842 0.59746 -0.12507
 C890 C 0.60340 0.61565 -0.10293
 H891 H 0.65479 0.60658 -0.17827
 H892 H 0.63159 0.56562 -0.12420
 H893 H 0.66783 0.66441 -0.11665
 H894 H 0.59762 0.64699 -0.10593
 C895 C 0.83317 1.16427 0.64740
 C896 C 0.86513 1.14286 0.65617
 C897 C 0.89059 1.12173 0.63026
 C898 C 0.88067 1.11314 0.59633
 H899 H 0.87423 1.14125 0.68395
 H900 H 0.91846 1.11093 0.64079
 H901 H 0.82465 1.16771 0.61965
 H902 H 0.85232 1.12182 0.58546
 C903 C 0.34161 0.65526 0.15288
 C904 C 0.37939 0.64525 0.15880
 C905 C 0.40388 0.62690 0.13081
 C906 C 0.38894 0.60059 0.10794
 H907 H 0.39361 0.65319 0.18374
 H908 H 0.43499 0.63435 0.12984
 H909 H 0.32864 0.65087 0.12666
 H910 H 0.35864 0.59076 0.11077
 C911 C 1.14375 0.84130 0.64837
 C912 C 1.11171 0.86543 0.65779
 C913 C 1.09135 0.89073 0.63431
 C914 C 1.10348 0.90094 0.59957
 H915 H 1.10108 0.86463 0.68513
 H916 H 1.06543 0.90514 0.64517
 H917 H 1.15190 0.83873 0.62049
 H918 H 1.13059 0.88926 0.58859
 C919 C 0.64803 0.35091 0.15022
 C920 C 0.63700 0.38814 0.15689
 C921 C 0.61736 0.41267 0.12941
 C922 C 0.59100 0.39757 0.10660
 H923 H 0.64576 0.40214 0.18167
 H924 H 0.62447 0.44385 0.12837
 H925 H 0.64290 0.33838 0.12399
 H926 H 0.58147 0.36717 0.10949
 C927 C 0.84783 0.83780 0.35421
 C928 C 0.83846 0.84042 0.38903
 C929 C 0.85899 0.86804 0.41354
 C930 C 0.89647 0.87930 0.40834
 H931 H 0.81303 0.82461 0.39927
 H932 H 0.84235 0.88005 0.43570
 H933 H 0.87119 0.85605 0.34333
 H934 H 0.91375 0.86600 0.38725
 C935 C 0.35701 0.34856 -0.16183
 C936 C 0.33940 0.36619 -0.13403
 C937 C 0.35870 0.39699 -0.11216
 C938 C 0.39791 0.40099 -0.11051
 H939 H 0.30890 0.35921 -0.12786
 H940 H 0.34013 0.41461 -0.09484
 H941 H 0.38589 0.35794 -0.17081
 H942 H 0.41701 0.38112 -0.12500
 C943 C 1.19285 0.35175 -0.14882
 C944 C 1.15932 0.37199 -0.15343
 C945 C 1.14291 0.39574 -0.12416
 C946 C 1.10401 0.40106 -0.12145
 H947 H 1.14272 0.36936 -0.17816
 H948 H 1.16238 0.40623 -0.10317
 H949 H 1.20787 0.35272 -0.12317
 H950 H 1.08433 0.38737 -0.14065
 C951 C 0.67010 0.82755 0.35733
 C952 C 0.63459 0.84290 0.34946
 C953 C 0.60857 0.86320 0.37503
 C954 C 0.62015 0.87759 0.40668
 H955 H 0.62315 0.84041 0.32247
 H956 H 0.57889 0.86924 0.36553
 H957 H 0.68118 0.82743 0.38450
 H958 H 0.65003 0.87351 0.41632
 C959 C 0.84739 0.66799 -0.14106
 C960 C 0.88556 0.65945 -0.14677
 C961 C 0.90986 0.63762 -0.12045
 C962 C 0.89553 0.60687 -0.10204
 H963 H 0.90009 0.67017 -0.17073
 H964 H 0.94081 0.64535 -0.11811
 H965 H 0.83386 0.66050 -0.11566
 H966 H 0.86547 0.59708 -0.10665
 C967 C 0.33663 1.17587 0.37390
 C968 C 0.35951 1.14467 0.36706
 C969 C 0.37409 1.11757 0.39507
 C970 C 0.39970 1.08962 0.38561
 H971 H 0.36753 1.13833 0.33959
 H972 H 0.36464 1.12056 0.42262
 H973 H 0.32817 1.18239 0.40119
 H974 H 0.40974 1.08842 0.35808
 C975 C 1.16112 0.65292 0.14927
 C976 C 1.12376 0.64089 0.15424
 C977 C 1.10038 0.62138 0.12589
 C978 C 1.11616 0.59522 0.10330
 H979 H 1.10869 0.64798 0.17893
 H980 H 1.06891 0.62721 0.12501
 H981 H 1.17494 0.64917 0.12338
 H982 H 1.14694 0.58686 0.10603
 C983 C 0.65640 1.16350 0.64045
 C984 C 0.62258 1.14430 0.64679
 C985 C 0.59926 1.12286 0.61972
 C986 C 0.61147 1.11319 0.58669
 H987 H 0.61031 1.14450 0.67355
 H988 H 0.57070 1.11255 0.62890
 H989 H 0.66834 1.16520 0.61366
 H990 H 0.64028 1.12177 0.57693
 C991 C 0.81677 0.34239 0.13096
 C992 C 0.85317 0.35756 0.13327
 C993 C 0.87011 0.38118 0.10391
 C994 C 0.90921 0.38464 0.10049
 H995 H 0.87108 0.35201 0.15687
 H996 H 0.85058 0.39481 0.08438
 H997 H 0.79986 0.34614 0.10650
 H998 H 0.92868 0.36843 0.11837
 C999 C 0.31355 0.84467 0.63801
 C1000 C 0.34788 0.86688 0.64229
 C1001 C 0.36632 0.88451 0.61293
 C1002 C 0.40308 0.90220 0.61701
 H1003 H 0.36141 0.86928 0.66854
 H1004 H 0.35230 0.88391 0.58681
 H1005 H 0.30207 0.84075 0.61110
 H1006 H 0.41760 0.90071 0.64290
 C1007 C 0.34775 1.16872 -0.14689
 C1008 C 0.35357 1.12963 -0.15016
 C1009 C 0.37130 1.10445 -0.12196
 C1010 C 0.40070 1.11656 -0.10075
 H1011 H 0.34242 1.11458 -0.17361
 H1012 H 0.36158 1.07399 -0.12052
 H1013 H 0.35520 1.18348 -0.12214
 H1014 H 0.41263 1.14605 -0.10390
 C1015 C 0.84652 0.66512 0.35865
 C1016 C 0.86433 0.63084 0.35082
 C1017 C 0.88511 0.60492 0.37639
 C1018 C 0.89308 0.61345 0.41059
 H1019 H 0.86349 0.62005 0.32359
 H1020 H 0.89583 0.57742 0.36531
 H1021 H 0.84542 0.67594 0.38580
 H1022 H 0.88363 0.64090 0.42249
 C1023 C 0.63768 1.18452 0.14618
 C1024 C 0.62422 1.14761 0.15000
 C1025 C 0.59978 1.12931 0.12196
 C1026 C 0.59901 1.09011 0.11793
 H1027 H 0.63309 1.13001 0.17299
 H1028 H 0.58414 1.14817 0.10313
 H1029 H 0.63112 1.20089 0.12186
 H1030 H 0.61698 1.07146 0.13512
 C1031 C 1.15047 0.67825 0.63900
 C1032 C 1.13678 0.64168 0.64314
 C1033 C 1.11458 0.62233 0.61448
 C1034 C 1.10361 0.58483 0.61824
 H1035 H 1.14215 0.62569 0.66792
 H1036 H 1.10616 0.63906 0.59083
 H1037 H 1.14647 0.69358 0.61369
 H1038 H 1.11209 0.56835 0.64201
 C1039 C 0.65479 0.81090 -0.13064
 C1040 C 0.63132 0.84252 -0.13436
 C1041 C 0.60692 0.85707 -0.10457
 C1042 C 0.59603 0.89495 -0.10364
 H1043 H 0.63146 0.85921 -0.15921
 H1044 H 0.59998 0.83757 -0.08235
 H1045 H 0.65614 0.79555 -0.10513
 H1046 H 0.60621 0.91512 -0.12427
 C1047 C 1.17306 0.35120 0.36061
 C1048 C 1.15315 0.38391 0.35095
 C1049 C 1.12700 0.40650 0.37474
 C1050 C 1.11241 0.39217 0.40534
 H1051 H 1.15566 0.39512 0.32384
 H1052 H 1.11704 0.43501 0.36496
 H1053 H 1.17306 0.34074 0.38799
 H1054 H 1.12050 0.36314 0.41504
 C1055 C 0.33960 0.81143 0.14356
 C1056 C 0.35475 0.84780 0.14500
 C1057 C 0.37836 0.86360 0.11517
 C1058 C 0.37990 0.90238 0.10883
 H1059 H 0.34835 0.86668 0.16762
 H1060 H 0.39301 0.84324 0.09722
 H1061 H 0.34382 0.79382 0.11971
 H1062 H 0.36275 0.92245 0.12515
 C1063 C 0.82648 0.33028 0.64060
 C1064 C 0.83982 0.36677 0.64709
 C1065 C 0.86391 0.39052 0.62257
 C1066 C 0.87776 0.37820 0.59108
 H1067 H 0.83387 0.38036 0.67272
 H1068 H 0.87280 0.41912 0.63269
 H1069 H 0.83006 0.31643 0.61483
 H1070 H 0.86960 0.34999 0.57990
 C1071 C 1.16143 1.16677 0.64267
 C1072 C 1.12894 1.14688 0.65259
 C1073 C 1.10223 1.12565 0.62780
 C1074 C 1.11037 1.11765 0.59348
 H1075 H 1.12064 1.14629 0.68056
 H1076 H 1.07516 1.11435 0.63940
 H1077 H 1.16942 1.16925 0.61476
 H1078 H 1.13778 1.12707 0.58138
 C1079 C 0.66448 0.66465 0.14252
 C1080 C 0.62586 0.65923 0.14905
 C1081 C 0.59905 0.63991 0.12344
 C1082 C 0.61048 0.60834 0.10495
 H1083 H 0.61295 0.67067 0.17340
 H1084 H 0.56874 0.65010 0.12181
 H1085 H 0.67683 0.65718 0.11670
 H1086 H 0.63994 0.59644 0.10884
 C1087 C 1.15599 0.83348 0.35896
 C1088 C 1.12379 0.85392 0.34881
 C1089 C 1.09886 0.87821 0.37256
 C1090 C 1.10960 0.89110 0.40498
 H1091 H 1.11413 0.85261 0.32119
 H1092 H 1.07099 0.88804 0.36128
 H1093 H 1.16503 0.83253 0.38673
 H1094 H 1.13792 0.88317 0.41640
 C1095 C 0.64739 0.34610 -0.14946
 C1096 C 0.61291 0.36315 -0.15792
 C1097 C 0.59026 0.38583 -0.13163
 C1098 C 0.60755 0.41134 -0.10940
 H1099 H 0.59931 0.35778 -0.18371
 H1100 H 0.55846 0.38206 -0.13129
 H1101 H 0.65901 0.34843 -0.12250
 H1102 H 0.63884 0.41766 -0.11165
 C1103 C 0.83841 1.15808 0.34369
 C1104 C 0.83576 1.15906 0.37949
 C1105 C 0.85771 1.13143 0.40315
 C1106 C 0.89195 1.11455 0.39375
 H1107 H 0.81502 1.17902 0.39205
 H1108 H 0.84526 1.12527 0.42927
 H1109 H 0.85703 1.13631 0.33092
 H1110 H 0.90586 1.12216 0.36860
 C1111 C 0.34018 0.66713 -0.15282
 C1112 C 0.32829 0.65543 -0.12034
 C1113 C 0.35222 0.62861 -0.09759
 C1114 C 0.39178 0.63019 -0.09584
 H1115 H 0.29870 0.66258 -0.11142
 H1116 H 0.33638 0.60818 -0.08044
 H1117 H 0.36822 0.65668 -0.16309
 H1118 H 0.40772 0.65300 -0.11021
 C1119 C 0.83803 0.85395 0.65424
 C1120 C 0.86930 0.87589 0.66390
 C1121 C 0.89450 0.89853 0.63882
 C1122 C 0.88609 0.90449 0.60420
 H1123 H 0.87801 0.87679 0.69179
 H1124 H 0.92074 0.91196 0.65011
 H1125 H 0.82963 0.85110 0.62648
 H1126 H 0.85949 0.89280 0.59230
 C1127 C 0.36004 0.35066 0.15424
 C1128 C 0.36869 0.33585 0.12212
 C1129 C 0.39200 0.35833 0.09594
 C1130 C 0.38747 0.39730 0.09188
 H1131 H 0.36026 0.30591 0.11541
 H1132 H 0.41154 0.34210 0.07839
 H1133 H 0.37182 0.37908 0.16217
 H1134 H 0.36526 0.41304 0.10703
   
