data_POSCAR
  _audit_creation_date              2014-09-24
  _audit_creation_method            'ToBaCCo'
  _symmetry_space_group_name_H-M    'P1'
  _symmetry_Int_Tables_number       1
  _symmetry_cell_setting            triclinic
  loop_
  _symmetry_equiv_pos_as_xyz
 x,y,z
_cell_length_a 62.8934
_cell_length_b 35.5464
_cell_length_c 20.9536
_cell_angle_alpha 89.998700
_cell_angle_beta 89.992500
_cell_angle_gamma 89.999200
loop_
  _atom_site_label
  _atom_site_type_symbol
  _atom_site_fract_x
  _atom_site_fract_y
  _atom_site_fract_z
C1 C 0.73235 0.26383 0.53374
 C2 C 0.73063 0.25756 0.46696
 C3 C 0.74695 0.23864 0.43462
 C4 C 0.76561 0.22669 0.46570
 C5 C 0.76731 0.23216 0.53312
 C6 C 0.75098 0.25181 0.56504
 H7 H 0.75173 0.25417 0.61655
 H8 H 0.74579 0.23635 0.38313
 C9 C 0.23261 0.76395 0.53371
 C10 C 0.23147 0.76057 0.46660
 C11 C 0.24779 0.74189 0.43396
 C12 C 0.26539 0.72689 0.46627
 C13 C 0.26660 0.72980 0.53403
 C14 C 0.25021 0.74913 0.56626
 H15 H 0.25033 0.75070 0.61792
 H16 H 0.24724 0.74047 0.38228
 C17 C 0.26561 0.27107 -0.53361
 C18 C 0.26714 0.26599 -0.46702
 C19 C 0.25093 0.24694 -0.43463
 C20 C 0.23259 0.23374 -0.46630
 C21 C 0.23115 0.23847 -0.53413
 C22 C 0.24759 0.25797 -0.56592
 H23 H 0.24731 0.26058 -0.61747
 H24 H 0.25200 0.24511 -0.38308
 C25 C -0.23455 0.77151 -0.53354
 C26 C -0.23300 0.76651 -0.46694
 C27 C -0.24917 0.74740 -0.43450
 C28 C -0.26749 0.73405 -0.46615
 C29 C -0.26894 0.73868 -0.53399
 C30 C -0.25254 0.75826 -0.56583
 H31 H -0.25282 0.76081 -0.61738
 H32 H -0.24810 0.74563 -0.38295
 O33 O -0.02946 0.93583 0.11754
 O34 O -0.05278 0.96926 0.05556
 C35 C -0.04859 0.94552 0.10079
 O36 O 0.03013 1.06933 0.11092
 O37 O 0.05348 1.03343 0.05308
 C38 C 0.04927 1.05943 0.09460
 O39 O -0.02955 1.06610 0.11645
 O40 O -0.05285 1.03226 0.05502
 C41 C -0.04867 1.05638 0.09970
 O42 O 0.03013 0.93214 0.11072
 O43 O 0.05353 0.96841 0.05361
 C44 C 0.04929 0.94223 0.09484
 Zr45 Zr 0.00030 0.95311 0.07999
 O46 O 0.00236 0.95068 0.18071
 O47 O -0.00075 0.89385 0.07264
 Zr48 Zr 0.00026 1.04831 0.08012
 O49 O 0.00255 1.04867 0.18093
 O50 O -0.00213 1.10772 0.07886
 O51 O -0.01867 1.00071 0.09251
 O52 O 0.01868 1.00073 0.09210
 O53 O 0.03035 0.93181 -0.11017
 O54 O 0.05363 0.96826 -0.05291
 C55 C 0.04947 0.94198 -0.09404
 O56 O -0.02937 1.06584 -0.11797
 O57 O -0.05274 1.03214 -0.05659
 C58 C -0.04851 1.05612 -0.10141
 O59 O 0.03020 1.06929 -0.11134
 O60 O 0.05352 1.03302 -0.05406
 C61 C 0.04933 1.05925 -0.09521
 O62 O -0.02925 0.93507 -0.11734
 O63 O -0.05273 0.96898 -0.05658
 C64 C -0.04841 0.94480 -0.10109
 Zr65 Zr 0.00043 0.95309 -0.08060
 O66 O 0.00292 0.95282 -0.18137
 O67 O -0.00154 0.89365 -0.07939
 Zr68 Zr 0.00037 1.04817 -0.08091
 O69 O 0.00287 1.04838 -0.18167
 O70 O -0.00208 1.10758 -0.07995
 Zr71 Zr -0.03148 1.00065 -0.00054
 Zr72 Zr 0.03196 1.00081 -0.00001
 O73 O 0.01885 1.00064 -0.09239
 O74 O -0.01857 1.00058 -0.09348
 O75 O 0.01941 0.94589 -0.00007
 O76 O -0.01824 1.05505 -0.00054
 O77 O -0.01829 0.94626 -0.00034
 O78 O 0.01932 1.05572 -0.00028
 H79 H 0.02820 1.00071 0.12977
 H80 H -0.02788 1.07710 -0.00070
 H81 H 0.02846 1.00054 -0.12987
 H82 H -0.02795 0.92423 -0.00023
 H83 H 0.01014 1.11751 0.05443
 H84 H 0.01007 1.11742 -0.05505
 H85 H -0.00871 1.03241 -0.19855
 H86 H -0.00883 0.96839 -0.19832
 H87 H 0.00892 0.88453 -0.04768
 H88 H -0.00070 0.88420 0.11701
 H89 H -0.00770 0.96953 0.19780
 H90 H -0.00926 1.03322 0.19776
 O91 O 0.47083 0.43478 0.11670
 O92 O 0.44749 0.46825 0.05489
 C93 C 0.45170 0.44447 0.10003
 O94 O 0.53042 0.56825 0.11048
 O95 O 0.55384 0.53247 0.05263
 C96 C 0.54958 0.55841 0.09422
 O97 O 0.47073 0.56495 0.11621
 O98 O 0.44741 0.53122 0.05466
 C99 C 0.45161 0.55523 0.09949
 O100 O 0.53027 0.43081 0.11007
 O101 O 0.55365 0.46716 0.05319
 C102 C 0.54941 0.44086 0.09416
 Zr103 Zr 0.50060 0.45218 0.07926
 O104 O 0.50272 0.44997 0.18000
 O105 O 0.49952 0.39292 0.07187
 Zr106 Zr 0.50052 0.54728 0.07962
 O107 O 0.50285 0.54765 0.18042
 O108 O 0.49810 0.60670 0.07848
 O109 O 0.48160 0.49969 0.09193
 O110 O 0.51900 0.49977 0.09138
 O111 O 0.53044 0.43079 -0.11153
 O112 O 0.55371 0.46727 -0.05453
 C113 C 0.54955 0.44095 -0.09554
 O114 O 0.47087 0.56499 -0.11840
 O115 O 0.44750 0.53123 -0.05711
 C116 C 0.45173 0.55523 -0.10192
 O117 O 0.53051 0.56858 -0.11123
 O118 O 0.55393 0.53262 -0.05364
 C119 C 0.54967 0.55878 -0.09486
 O120 O 0.47101 0.43426 -0.11797
 O121 O 0.44753 0.46811 -0.05713
 C122 C 0.45184 0.44395 -0.10166
 Zr123 Zr 0.50070 0.45236 -0.08139
 O124 O 0.50314 0.45256 -0.18218
 O125 O 0.49875 0.39291 -0.08054
 Zr126 Zr 0.50061 0.54737 -0.08127
 O127 O 0.50314 0.54780 -0.18201
 O128 O 0.49811 0.60677 -0.08024
 Zr129 Zr 0.46879 0.49973 -0.00110
 Zr130 Zr 0.53232 0.49999 -0.00072
 O131 O 0.51915 0.49993 -0.09302
 O132 O 0.48167 0.49980 -0.09404
 O133 O 0.51971 0.44511 -0.00091
 O134 O 0.48199 0.55414 -0.00092
 O135 O 0.48201 0.44537 -0.00109
 O136 O 0.51956 0.55485 -0.00070
 H137 H 0.52851 0.49969 0.12908
 H138 H 0.47234 0.57617 -0.00099
 H139 H 0.52877 0.49997 -0.13047
 H140 H 0.47237 0.42333 -0.00103
 H141 H 0.51043 0.61654 0.05439
 H142 H 0.51020 0.61662 -0.05513
 H143 H 0.49164 0.53170 -0.19901
 H144 H 0.49118 0.46767 -0.19899
 H145 H 0.50901 0.38377 -0.04828
 H146 H 0.49944 0.38325 0.11623
 H147 H 0.49235 0.46829 0.19711
 H148 H 0.49113 0.53198 0.19726
 C149 C 0.29630 0.33418 0.35315
 C150 C 0.31691 0.31965 0.35910
 C151 C 0.32067 0.28893 0.39931
 C152 C 0.30394 0.27293 0.43378
 C153 C 0.28327 0.28769 0.42879
 C154 C 0.27954 0.31820 0.38768
 C155 C 0.33427 0.33625 0.32426
 C156 C 0.34896 0.34995 0.29552
 C157 C 0.36628 0.36583 0.26223
 C158 C 0.38112 0.37935 0.23395
 C159 C 0.39885 0.39553 0.20024
 C160 C 0.41964 0.38459 0.21518
 C161 C 0.43687 0.40040 0.18257
 C162 C 0.43351 0.42739 0.13446
 C163 C 0.41251 0.43816 0.11981
 C164 C 0.39533 0.42232 0.15251
 H165 H 0.29322 0.35792 0.32208
 H166 H 0.33653 0.27736 0.40408
 H167 H 0.30711 0.24904 0.46442
 H168 H 0.26372 0.32993 0.38308
 H169 H 0.42254 0.36387 0.25209
 H170 H 0.45279 0.39147 0.19510
 H171 H 0.40931 0.45891 0.08321
 H172 H 0.37930 0.43102 0.14059
 C173 C -0.17954 0.78963 0.39933
 C174 C -0.18336 0.82035 0.35916
 C175 C -0.20399 0.83478 0.35322
 C176 C -0.22072 0.81871 0.38775
 C177 C -0.21693 0.78820 0.42882
 C178 C -0.19624 0.77354 0.43378
 C179 C -0.16603 0.83706 0.32438
 C180 C -0.15135 0.85084 0.29572
 C181 C -0.13404 0.86681 0.26254
 C182 C -0.11920 0.88038 0.23438
 C183 C -0.10146 0.89661 0.20080
 C184 C -0.10497 0.92340 0.15307
 C185 C -0.08778 0.93925 0.12046
 C186 C -0.06679 0.92849 0.13520
 C187 C -0.06344 0.90150 0.18333
 C188 C -0.08068 0.88568 0.21585
 H189 H -0.16367 0.77815 0.40408
 H190 H -0.20711 0.85852 0.32218
 H191 H -0.23656 0.83035 0.38318
 H192 H -0.19303 0.74966 0.46441
 H193 H -0.12099 0.93209 0.14108
 H194 H -0.09096 0.96000 0.08383
 H195 H -0.04752 0.89258 0.19592
 H196 H -0.07780 0.86496 0.25277
 C197 C 0.69165 0.66826 0.40501
 C198 C 0.68275 0.68789 0.35375
 C199 C 0.69020 0.72384 0.33860
 C200 C 0.70628 0.74040 0.37511
 C201 C 0.71502 0.72146 0.42825
 C202 C 0.70773 0.68471 0.44166
 C203 C 0.66574 0.67137 0.31727
 C204 C 0.65135 0.65767 0.28720
 C205 C 0.63435 0.64167 0.25258
 C206 C 0.61973 0.62795 0.22355
 C207 C 0.60217 0.61138 0.18962
 C208 C 0.60588 0.58430 0.14245
 C209 C 0.58880 0.56741 0.11081
 C210 C 0.56771 0.57736 0.12603
 C211 C 0.56418 0.60494 0.17306
 C212 C 0.58130 0.62179 0.20461
 H213 H 0.68618 0.64019 0.41670
 H214 H 0.68342 0.73930 0.29897
 H215 H 0.71120 0.76874 0.36320
 H216 H 0.71468 0.66832 0.47987
 H217 H 0.62197 0.57602 0.13048
 H218 H 0.59213 0.54632 0.07487
 H219 H 0.54819 0.61329 0.18599
 H220 H 0.57825 0.64271 0.24108
 C221 C 0.19163 1.16837 0.40459
 C222 C 0.18274 1.18815 0.35348
 C223 C 0.19025 1.22409 0.33850
 C224 C 0.20635 1.24050 0.37505
 C225 C 0.21508 1.22140 0.42806
 C226 C 0.20774 1.18466 0.44128
 C227 C 0.16569 1.17181 0.31700
 C228 C 0.15126 1.15824 0.28695
 C229 C 0.13422 1.14238 0.25238
 C230 C 0.11956 1.12876 0.22342
 C231 C 0.10196 1.11228 0.18956
 C232 C 0.10561 1.08508 0.14256
 C233 C 0.08850 1.06823 0.11104
 C234 C 0.06744 1.07835 0.12623
 C235 C 0.06396 1.10607 0.17307
 C236 C 0.08112 1.12287 0.20450
 H237 H 0.18611 1.14031 0.41613
 H238 H 0.18347 1.23967 0.29898
 H239 H 0.21132 1.26883 0.36329
 H240 H 0.21468 1.16817 0.47938
 H241 H 0.12169 1.07666 0.13065
 H242 H 0.09178 1.04703 0.07525
 H243 H 0.04799 1.11455 0.18597
 H244 H 0.07812 1.14389 0.24085
 C245 C 0.67778 0.28662 -0.40564
 C246 C 0.68250 0.31118 -0.35553
 C247 C 0.70368 0.31977 -0.34157
 C248 C 0.72010 0.30411 -0.37786
 C249 C 0.71563 0.27981 -0.42953
 C250 C 0.69414 0.27091 -0.44204
 C251 C 0.66556 0.32750 -0.31853
 C252 C 0.65124 0.34117 -0.28809
 C253 C 0.63433 0.35721 -0.25314
 C254 C 0.61976 0.37100 -0.22397
 C255 C 0.60221 0.38764 -0.19007
 C256 C 0.60589 0.41526 -0.14378
 C257 C 0.58879 0.43227 -0.11236
 C258 C 0.56772 0.42189 -0.12696
 C259 C 0.56423 0.39376 -0.17307
 C260 C 0.58136 0.37680 -0.20437
 H261 H 0.66144 0.27933 -0.41630
 H262 H 0.70751 0.33879 -0.30283
 H263 H 0.73629 0.31217 -0.36671
 H264 H 0.68989 0.25074 -0.47852
 H265 H 0.62197 0.42388 -0.13236
 H266 H 0.59208 0.45379 -0.07714
 H267 H 0.54826 0.38506 -0.18550
 H268 H 0.57833 0.35547 -0.24017
 C269 C 0.17781 0.78365 -0.39867
 C270 C 0.18219 0.81283 -0.35576
 C271 C 0.20305 0.82598 -0.34892
 C272 C 0.21947 0.81007 -0.38493
 C273 C 0.21515 0.78097 -0.42841
 C274 C 0.19421 0.76770 -0.43464
 C275 C 0.16526 0.82922 -0.31885
 C276 C 0.15098 0.84288 -0.28828
 C277 C 0.13412 0.85887 -0.25303
 C278 C 0.11960 0.87257 -0.22355
 C279 C 0.10209 0.88905 -0.18927
 C280 C 0.10579 0.91675 -0.14314
 C281 C 0.08870 0.93361 -0.11142
 C282 C 0.06765 0.92300 -0.12555
 C283 C 0.06414 0.89476 -0.17147
 C284 C 0.08125 0.87795 -0.20308
 H285 H 0.16174 0.77317 -0.40418
 H286 H 0.20661 0.84853 -0.31582
 H287 H 0.23551 0.82064 -0.37932
 H288 H 0.19059 0.74488 -0.46712
 H289 H 0.12186 0.92556 -0.13211
 H290 H 0.09201 0.95523 -0.07637
 H291 H 0.04817 0.88588 -0.18356
 H292 H 0.07821 0.85655 -0.23874
 C293 C 0.30807 0.66148 -0.41082
 C294 C 0.31675 0.68076 -0.35889
 C295 C 0.30844 0.71571 -0.34119
 C296 C 0.29173 0.73165 -0.37593
 C297 C 0.28320 0.71311 -0.42979
 C298 C 0.29138 0.67731 -0.44566
 C299 C 0.33429 0.66474 -0.32411
 C300 C 0.34906 0.65125 -0.29549
 C301 C 0.36642 0.63535 -0.26241
 C302 C 0.38126 0.62166 -0.23437
 C303 C 0.39896 0.60516 -0.20101
 C304 C 0.39539 0.57822 -0.15354
 C305 C 0.41254 0.56202 -0.12126
 C306 C 0.43356 0.57257 -0.13606
 C307 C 0.43697 0.59970 -0.18393
 C308 C 0.41977 0.61587 -0.21612
 H309 H 0.31416 0.63409 -0.42433
 H310 H 0.31503 0.73087 -0.30094
 H311 H 0.28615 0.75928 -0.36206
 H312 H 0.28453 0.66089 -0.48396
 H313 H 0.37934 0.56969 -0.14152
 H314 H 0.40930 0.54118 -0.08482
 H315 H 0.45291 0.60846 -0.19657
 H316 H 0.42271 0.63668 -0.25285
 C317 C -0.19274 1.16252 -0.40689
 C318 C -0.18342 1.18265 -0.35691
 C319 C -0.19087 1.21863 -0.34184
 C320 C -0.20733 1.23476 -0.37738
 C321 C -0.21643 1.21534 -0.42946
 C322 C -0.20917 1.17852 -0.44254
 C323 C -0.16598 1.16655 -0.32186
 C324 C -0.15124 1.15297 -0.29323
 C325 C -0.13389 1.13695 -0.26034
 C326 C -0.11904 1.12313 -0.23256
 C327 C -0.10132 1.10647 -0.19957
 C328 C -0.10487 1.07949 -0.15216
 C329 C -0.08770 1.06313 -0.12023
 C330 C -0.06668 1.07355 -0.13533
 C331 C -0.06329 1.10071 -0.18316
 C332 C -0.08051 1.11704 -0.21501
 H333 H -0.18727 1.13442 -0.41844
 H334 H -0.18376 1.23445 -0.30313
 H335 H -0.21224 1.26314 -0.36575
 H336 H -0.21639 1.16179 -0.47988
 H337 H -0.12092 1.07106 -0.13991
 H338 H -0.09092 1.04228 -0.08380
 H339 H -0.04735 1.10938 -0.19601
 H340 H -0.07759 1.13789 -0.25171
 C341 C 0.70312 0.68230 -0.33809
 C342 C 0.68206 0.69131 -0.35283
 C343 C 0.67766 0.71522 -0.40413
 C344 C 0.69424 0.72966 -0.44120
 C345 C 0.71558 0.72000 -0.42814
 C346 C 0.71974 0.69667 -0.37501
 C347 C 0.66495 0.67547 -0.31597
 C348 C 0.65062 0.66180 -0.28561
 C349 C 0.63381 0.64540 -0.25079
 C350 C 0.61936 0.63113 -0.22180
 C351 C 0.60195 0.61383 -0.18825
 C352 C 0.58103 0.62415 -0.20263
 C353 C 0.56403 0.60655 -0.17177
 C354 C 0.56773 0.57828 -0.12603
 C355 C 0.58886 0.56839 -0.11139
 C356 C 0.60584 0.58605 -0.14238
 H357 H 0.70670 0.66378 -0.29845
 H358 H 0.66140 0.72273 -0.41553
 H359 H 0.69032 0.74893 -0.47944
 H360 H 0.73582 0.68818 -0.36339
 H361 H 0.57785 0.64559 -0.23812
 H362 H 0.54800 0.61491 -0.18421
 H363 H 0.59230 0.54678 -0.07644
 H364 H 0.62198 0.57781 -0.13095
 C365 C 0.17769 1.21499 -0.40446
 C366 C 0.18205 1.19097 -0.35327
 C367 C 0.20310 1.18188 -0.33851
 C368 C 0.21975 1.19628 -0.37531
 C369 C 0.21563 1.21970 -0.42835
 C370 C 0.19429 1.22945 -0.44141
 C371 C 0.16491 1.17510 -0.31655
 C372 C 0.15055 1.16143 -0.28629
 C373 C 0.13369 1.14506 -0.25157
 C374 C 0.11920 1.13084 -0.22263
 C375 C 0.10175 1.11365 -0.18907
 C376 C 0.10557 1.08568 -0.14347
 C377 C 0.08854 1.06821 -0.11237
 C378 C 0.06744 1.07848 -0.12662
 C379 C 0.06382 1.10691 -0.17212
 C380 C 0.08086 1.12432 -0.20310
 H381 H 0.16144 1.22256 -0.41587
 H382 H 0.20665 1.16328 -0.29897
 H383 H 0.23582 1.18773 -0.36369
 H384 H 0.19040 1.24880 -0.47956
 H385 H 0.12168 1.07717 -0.13231
 H386 H 0.09193 1.04646 -0.07762
 H387 H 0.04782 1.11556 -0.18426
 H388 H 0.07773 1.14591 -0.23837
 C389 C 0.31373 0.27562 -0.35336
 C390 C 0.31842 0.31399 -0.35910
 C391 C 0.30620 0.33671 -0.39948
 C392 C 0.28943 0.32113 -0.43426
 C393 C 0.28480 0.28256 -0.42941
 C394 C 0.29695 0.25998 -0.38822
 C395 C 0.33579 0.33016 -0.32387
 C396 C 0.35035 0.34407 -0.29487
 C397 C 0.36741 0.36066 -0.26144
 C398 C 0.38202 0.37499 -0.23326
 C399 C 0.39951 0.39221 -0.20002
 C400 C 0.39569 0.41948 -0.15325
 C401 C 0.41270 0.43634 -0.12121
 C402 C 0.43380 0.42612 -0.13559
 C403 C 0.43744 0.39868 -0.18279
 C404 C 0.42040 0.38186 -0.21472
 H405 H 0.32308 0.25781 -0.32218
 H406 H 0.30964 0.36645 -0.40408
 H407 H 0.28004 0.33915 -0.46497
 H408 H 0.29360 0.23021 -0.38372
 H409 H 0.37957 0.42774 -0.14160
 H410 H 0.40929 0.45740 -0.08528
 H411 H 0.45345 0.39013 -0.19510
 H412 H 0.42353 0.36081 -0.25091
 C413 C -0.19401 0.83745 -0.39955
 C414 C -0.18178 0.81482 -0.35907
 C415 C -0.18643 0.77644 -0.35325
 C416 C -0.20318 0.76070 -0.38809
 C417 C -0.21536 0.78319 -0.42938
 C418 C -0.21076 0.82177 -0.43432
 C419 C -0.16442 0.83108 -0.32383
 C420 C -0.14988 0.84504 -0.29478
 C421 C -0.13284 0.86166 -0.26127
 C422 C -0.11824 0.87599 -0.23303
 C423 C -0.10075 0.89318 -0.19970
 C424 C -0.07986 0.88278 -0.21429
 C425 C -0.06282 0.89955 -0.18228
 C426 C -0.06647 0.92701 -0.13509
 C427 C -0.08757 0.93728 -0.12081
 C428 C -0.10457 0.92046 -0.15294
 H429 H -0.19061 0.86720 -0.40423
 H430 H -0.17707 0.75869 -0.32199
 H431 H -0.20650 0.73092 -0.38351
 H432 H -0.22016 0.83973 -0.46509
 H433 H -0.07672 0.86172 -0.25047
 H434 H -0.04681 0.89097 -0.19451
 H435 H -0.09097 0.95835 -0.08490
 H436 H -0.12069 0.92876 -0.14136
 C437 C 0.29645 0.66852 0.34705
 C438 C 0.31702 0.68285 0.35502
 C439 C 0.32061 0.71234 0.39796
 C440 C 0.30376 0.72713 0.43346
 C441 C 0.28317 0.71227 0.42680
 C442 C 0.27958 0.68326 0.38257
 C443 C 0.33451 0.66679 0.32012
 C444 C 0.34921 0.65310 0.29145
 C445 C 0.36646 0.63685 0.25841
 C446 C 0.38123 0.62284 0.23052
 C447 C 0.39888 0.60599 0.19749
 C448 C 0.41971 0.61653 0.21271
 C449 C 0.43688 0.60005 0.18090
 C450 C 0.43344 0.57276 0.13331
 C451 C 0.41241 0.56235 0.11842
 C452 C 0.39527 0.57887 0.15034
 H453 H 0.29350 0.64573 0.31389
 H454 H 0.33646 0.72370 0.40434
 H455 H 0.30679 0.74985 0.46667
 H456 H 0.26381 0.67153 0.37662
 H457 H 0.42267 0.63747 0.24921
 H458 H 0.45284 0.60873 0.19359
 H459 H 0.40916 0.54140 0.08219
 H460 H 0.37921 0.57046 0.13827
 C461 C -0.20425 1.17481 0.33924
 C462 C -0.18331 1.18481 0.35395
 C463 C -0.17931 1.20978 0.40404
 C464 C -0.19612 1.22411 0.44022
 C465 C -0.21731 1.21326 0.42758
 C466 C -0.22112 1.18909 0.37530
 C467 C -0.16589 1.16883 0.31864
 C468 C -0.15120 1.15514 0.28988
 C469 C -0.13394 1.13883 0.25693
 C470 C -0.11915 1.12472 0.22925
 C471 C -0.10147 1.10770 0.19658
 C472 C -0.08065 1.11814 0.21204
 C473 C -0.06345 1.10147 0.18063
 C474 C -0.06686 1.07408 0.13320
 C475 C -0.08789 1.06376 0.11806
 C476 C -0.10505 1.08047 0.14958
 H477 H -0.20752 1.15549 0.30047
 H478 H -0.16317 1.21810 0.41535
 H479 H -0.19250 1.24407 0.47768
 H480 H -0.23707 1.17975 0.36397
 H481 H -0.07771 1.13916 0.24844
 H482 H -0.04750 1.11008 0.19351
 H483 H -0.09112 1.04274 0.08193
 H484 H -0.12111 1.07213 0.13732
 C485 C 0.68544 0.26879 0.34865
 C486 C 0.68134 0.30743 0.35302
 C487 C 0.69350 0.32984 0.39408
 C488 C 0.70961 0.31367 0.43092
 C489 C 0.71360 0.27482 0.42749
 C490 C 0.70154 0.25257 0.38551
 C491 C 0.66453 0.32406 0.31598
 C492 C 0.65035 0.33815 0.28555
 C493 C 0.63361 0.35480 0.25070
 C494 C 0.61918 0.36913 0.22171
 C495 C 0.60176 0.38637 0.18813
 C496 C 0.58086 0.37574 0.20213
 C497 C 0.56383 0.39316 0.17111
 C498 C 0.56749 0.42156 0.12557
 C499 C 0.58860 0.43178 0.11133
 C500 C 0.60560 0.41429 0.14248
 H501 H 0.67613 0.25121 0.31699
 H502 H 0.69051 0.35978 0.39770
 H503 H 0.71895 0.33142 0.46223
 H504 H 0.70443 0.22260 0.38200
 H505 H 0.57770 0.35418 0.23744
 H506 H 0.54782 0.38457 0.18324
 H507 H 0.59201 0.45349 0.07655
 H508 H 0.62173 0.42276 0.13133
 C509 C 0.18601 0.77220 0.34953
 C510 C 0.18123 0.81045 0.35659
 C511 C 0.19290 0.83244 0.39955
 C512 C 0.20928 0.81626 0.43535
 C513 C 0.21405 0.77782 0.42889
 C514 C 0.20237 0.75598 0.38535
 C515 C 0.16433 0.82713 0.31990
 C516 C 0.15012 0.84115 0.28947
 C517 C 0.13339 0.85763 0.25433
 C518 C 0.11898 0.87175 0.22491
 C519 C 0.10159 0.88868 0.19070
 C520 C 0.10546 0.91649 0.14487
 C521 C 0.08848 0.93364 0.11303
 C522 C 0.06736 0.92319 0.12676
 C523 C 0.06369 0.89489 0.17248
 C524 C 0.08069 0.87781 0.20418
 H525 H 0.17708 0.75493 0.31641
 H526 H 0.18938 0.86208 0.40525
 H527 H 0.21830 0.83375 0.46787
 H528 H 0.20582 0.72632 0.37957
 H529 H 0.12158 0.92514 0.13409
 H530 H 0.09190 0.95530 0.07816
 H531 H 0.04767 0.88612 0.18425
 H532 H 0.07751 0.85632 0.23960
   
