data_POSCAR
  _audit_creation_date              2014-09-24
  _audit_creation_method            'ToBaCCo'
  _symmetry_space_group_name_H-M    'P1'
  _symmetry_Int_Tables_number       1
  _symmetry_cell_setting            triclinic
  loop_
  _symmetry_equiv_pos_as_xyz
 x,y,z
_cell_length_a 68.4415
_cell_length_b 68.4407
_cell_length_c 39.3216
_cell_angle_alpha 90.061200
_cell_angle_beta 90.030700
_cell_angle_gamma 90.134200
loop_
  _atom_site_label
  _atom_site_type_symbol
  _atom_site_fract_x
  _atom_site_fract_y
  _atom_site_fract_z
C1 C -0.00059 0.26337 -0.01586
 C2 C -0.00037 0.26330 0.01883
 C3 C -0.01869 0.26170 0.03889
 C4 C 0.01823 0.26423 0.03832
 C5 C 0.01772 0.26192 -0.03593
 C6 C -0.01917 0.26437 -0.03537
 C7 C -0.02302 0.27565 0.06371
 C8 C -0.04044 0.27460 0.08212
 C9 C -0.05419 0.25934 0.07652
 C10 C -0.04916 0.24505 0.05181
 C11 C -0.03171 0.24622 0.03353
 C12 C 0.03187 0.27923 0.03253
 C13 C 0.04973 0.27937 0.04978
 C14 C 0.05423 0.26461 0.07334
 C15 C 0.04028 0.24996 0.07982
 C16 C 0.02243 0.24982 0.06256
 C17 C 0.03077 0.24641 -0.03070
 C18 C 0.04822 0.24545 -0.04899
 C19 C 0.05285 0.25986 -0.07316
 C20 C 0.03950 0.27508 -0.07898
 C21 C 0.02206 0.27605 -0.06061
 C22 C -0.02332 0.25015 -0.06008
 C23 C -0.04105 0.25044 -0.07765
 C24 C -0.05496 0.26505 -0.07103
 C25 C -0.05054 0.27960 -0.04693
 C26 C -0.03278 0.27931 -0.02937
 H27 H -0.01291 0.28752 0.06871
 H28 H -0.04236 0.28548 0.10172
 H29 H -0.05893 0.23335 0.04466
 H30 H -0.02850 0.23513 0.01469
 H31 H 0.02877 0.29067 0.01431
 H32 H 0.06021 0.29079 0.04409
 H33 H 0.01205 0.23822 0.06760
 H34 H 0.02746 0.23510 -0.01233
 H35 H 0.05803 0.23335 -0.04443
 H36 H 0.04273 0.28648 -0.09723
 H37 H 0.01211 0.28806 -0.06512
 H38 H -0.01295 0.23860 -0.06530
 H39 H -0.04387 0.23924 -0.09650
 H40 H -0.06099 0.29098 -0.04113
 H41 H -0.02972 0.29061 -0.01080
 H42 H 0.04316 0.23860 0.09827
 C43 C 0.49986 0.76568 0.48103
 C44 C 0.49988 0.76525 0.51572
 C45 C 0.48144 0.76386 0.53550
 C46 C 0.51837 0.76573 0.53552
 C47 C 0.51827 0.76428 0.46116
 C48 C 0.48140 0.76718 0.46133
 C49 C 0.47737 0.77772 0.56081
 C50 C 0.45990 0.77678 0.57913
 C51 C 0.44625 0.76184 0.57268
 C52 C 0.45057 0.74773 0.54778
 C53 C 0.46804 0.74868 0.52949
 C54 C 0.53218 0.78065 0.53054
 C55 C 0.54988 0.78047 0.54829
 C56 C 0.55400 0.76545 0.57157
 C57 C 0.53988 0.75086 0.57720
 C58 C 0.52221 0.75105 0.55943
 C59 C 0.53116 0.74860 0.46600
 C60 C 0.54865 0.74765 0.44778
 C61 C 0.55350 0.76227 0.42412
 C62 C 0.54033 0.77771 0.41878
 C63 C 0.52284 0.77865 0.43703
 C64 C 0.47707 0.75321 0.43629
 C65 C 0.45935 0.75389 0.41872
 C66 C 0.44565 0.76863 0.42572
 C67 C 0.45026 0.78293 0.45016
 C68 C 0.46802 0.78228 0.46765
 H69 H 0.48762 0.78942 0.56605
 H70 H 0.45714 0.78766 0.59853
 H71 H 0.44030 0.73613 0.54206
 H72 H 0.47107 0.73764 0.51047
 H73 H 0.52935 0.79230 0.51259
 H74 H 0.56050 0.79185 0.54325
 H75 H 0.51166 0.73950 0.56386
 H76 H 0.52773 0.73717 0.48409
 H77 H 0.55854 0.73564 0.45264
 H78 H 0.54350 0.78901 0.40033
 H79 H 0.51298 0.79075 0.43269
 H80 H 0.48722 0.74148 0.43098
 H81 H 0.45614 0.74256 0.40029
 H82 H 0.44015 0.79466 0.45566
 H83 H 0.47128 0.79344 0.48638
 H84 H 0.54248 0.73930 0.59542
 C85 C 1.00012 0.73549 -0.01888
 C86 C 0.99997 0.73561 0.01581
 C87 C 1.01834 0.73702 0.03580
 C88 C 0.98142 0.73480 0.03542
 C89 C 0.98176 0.73699 -0.03887
 C90 C 1.01866 0.73437 -0.03847
 C91 C 1.02254 0.72298 0.06069
 C92 C 1.04002 0.72389 0.07898
 C93 C 1.05358 0.73895 0.07285
 C94 C 1.04910 0.75327 0.04845
 C95 C 1.03160 0.75237 0.03025
 C96 C 0.96770 0.71986 0.02978
 C97 C 0.94996 0.71975 0.04740
 C98 C 0.94570 0.73448 0.07121
 C99 C 0.95973 0.74909 0.07747
 C100 C 0.97744 0.74920 0.05984
 C101 C 0.96880 0.75257 -0.03366
 C102 C 0.95133 0.75359 -0.05194
 C103 C 0.94658 0.73913 -0.07602
 C104 C 0.95982 0.72379 -0.08173
 C105 C 0.97729 0.72279 -0.06342
 C106 C 1.02284 0.74847 -0.06319
 C107 C 1.04057 0.74815 -0.08073
 C108 C 1.05473 0.73359 -0.07413
 C109 C 1.05003 0.71912 -0.04977
 C110 C 1.03222 0.71947 -0.03241
 H111 H 1.01243 0.71109 0.06544
 H112 H 1.04313 0.71257 0.09741
 H113 H 1.05907 0.76525 0.04365
 H114 H 1.02841 0.76361 0.01170
 H115 H 0.97063 0.70843 0.01144
 H116 H 0.93942 0.70836 0.04186
 H117 H 0.98791 0.76076 0.06478
 H118 H 0.97216 0.76386 -0.01523
 H119 H 0.94138 0.76550 -0.04679
 H120 H 0.95671 0.71262 -0.10050
 H121 H 0.98721 0.71077 -0.06803
 H122 H 1.01256 0.76013 -0.06821
 H123 H 1.04336 0.76004 -0.09812
 H124 H 1.05971 0.70703 -0.04461
 H125 H 1.02903 0.70810 -0.01408
 H126 H 0.95703 0.76043 0.09609
 C127 C 0.49999 0.23575 0.48414
 C128 C 0.49958 0.23513 0.51881
 C129 C 0.51779 0.23362 0.53923
 C130 C 0.48092 0.23641 0.53796
 C131 C 0.48176 0.23533 0.46358
 C132 C 0.51868 0.23727 0.46514
 C133 C 0.53134 0.21863 0.53320
 C134 C 0.54888 0.21799 0.55136
 C135 C 0.55311 0.23219 0.57620
 C136 C 0.53923 0.24681 0.58290
 C137 C 0.52172 0.24747 0.56466
 C138 C 0.47604 0.22188 0.56161
 C139 C 0.45830 0.22268 0.57911
 C140 C 0.44518 0.23813 0.57348
 C141 C 0.45034 0.25291 0.55032
 C142 C 0.46808 0.25210 0.53285
 C143 C 0.47824 0.25009 0.43965
 C144 C 0.46083 0.25032 0.42111
 C145 C 0.44664 0.23569 0.42596
 C146 C 0.45045 0.22061 0.44929
 C147 C 0.46789 0.22039 0.46782
 C148 C 0.53200 0.25240 0.47204
 C149 C 0.54979 0.25336 0.45475
 C150 C 0.55450 0.23935 0.42991
 C151 C 0.54091 0.22451 0.42245
 C152 C 0.52313 0.22353 0.43983
 H153 H 0.52839 0.20755 0.51418
 H154 H 0.55913 0.20635 0.54605
 H155 H 0.54213 0.25806 0.60162
 H156 H 0.51145 0.25912 0.56976
 H157 H 0.48586 0.20977 0.56614
 H158 H 0.45488 0.21126 0.59721
 H159 H 0.47175 0.26364 0.51512
 H160 H 0.48884 0.26166 0.43579
 H161 H 0.45848 0.26193 0.40289
 H162 H 0.43977 0.20920 0.45375
 H163 H 0.47047 0.20868 0.48575
 H164 H 0.52863 0.26341 0.49094
 H165 H 0.55981 0.26517 0.46059
 H166 H 0.54418 0.21342 0.40366
 H167 H 0.51300 0.21181 0.43404
 H168 H 0.44050 0.26493 0.54526
 C169 C 0.73661 0.00002 -0.01653
 C170 C 0.73640 -0.00049 0.01815
 C171 C 0.73763 -0.01921 0.03710
 C172 C 0.73544 0.01769 0.03880
 C173 C 0.73803 0.01874 -0.03545
 C174 C 0.73591 -0.01816 -0.03723
 C175 C 0.72330 -0.02398 0.06108
 C176 C 0.72402 -0.04176 0.07845
 C177 C 0.73926 -0.05528 0.07255
 C178 C 0.75388 -0.04998 0.04883
 C179 C 0.75309 -0.03219 0.03153
 C180 C 0.72054 0.03144 0.03367
 C181 C 0.72041 0.04893 0.05207
 C182 C 0.73509 0.05290 0.07616
 C183 C 0.74962 0.03880 0.08198
 C184 C 0.74975 0.02135 0.06356
 C185 C 0.75333 0.03188 -0.02918
 C186 C 0.75432 0.04965 -0.04654
 C187 C 0.74010 0.05472 -0.07113
 C188 C 0.72504 0.04103 -0.07775
 C189 C 0.72409 0.02332 -0.06021
 C190 C 0.75040 -0.02169 -0.06154
 C191 C 0.75045 -0.03905 -0.08021
 C192 C 0.73586 -0.05345 -0.07528
 C193 C 0.72095 -0.04936 -0.05138
 C194 C 0.72098 -0.03195 -0.03276
 H195 H 0.71142 -0.01397 0.06615
 H196 H 0.71285 -0.04439 0.09732
 H197 H 0.76563 -0.05979 0.04219
 H198 H 0.76446 -0.02864 0.01339
 H199 H 0.70917 0.02874 0.01506
 H200 H 0.70908 0.05953 0.04688
 H201 H 0.76127 0.01085 0.06811
 H202 H 0.76459 0.02834 -0.01084
 H203 H 0.76675 0.05894 -0.04133
 H204 H 0.71331 0.04416 -0.09531
 H205 H 0.71216 0.01332 -0.06542
 H206 H 0.76190 -0.01106 -0.06578
 H207 H 0.76173 -0.04070 -0.09921
 H208 H 0.70964 -0.05987 -0.04553
 H209 H 0.70948 -0.02938 -0.01440
 H210 H 0.76092 0.04128 0.10080
 C211 C 0.23651 0.50023 0.48218
 C212 C 0.23640 0.50016 0.51687
 C213 C 0.23543 0.48166 0.53657
 C214 C 0.23778 0.51857 0.53678
 C215 C 0.23562 0.51873 0.46249
 C216 C 0.23806 0.48182 0.46233
 C217 C 0.22048 0.46796 0.53074
 C218 C 0.22027 0.45023 0.54834
 C219 C 0.23490 0.44594 0.57230
 C220 C 0.24949 0.45995 0.57878
 C221 C 0.24971 0.47766 0.56117
 C222 C 0.22361 0.52289 0.56139
 C223 C 0.22451 0.54039 0.57966
 C224 C 0.23970 0.55384 0.57379
 C225 C 0.25414 0.54924 0.54966
 C226 C 0.25325 0.53173 0.53147
 C227 C 0.25008 0.52288 0.43827
 C228 C 0.25000 0.54066 0.42086
 C229 C 0.23537 0.55459 0.42715
 C230 C 0.22054 0.55013 0.45068
 C231 C 0.22063 0.53233 0.46807
 C232 C 0.25350 0.46876 0.46802
 C233 C 0.25447 0.45117 0.45005
 C234 C 0.24015 0.44642 0.42575
 C235 C 0.22501 0.45979 0.41944
 C236 C 0.22402 0.47736 0.43750
 H237 H 0.20914 0.47091 0.51225
 H238 H 0.20890 0.43969 0.54264
 H239 H 0.26075 0.45723 0.59753
 H240 H 0.26126 0.48810 0.56625
 H241 H 0.21163 0.51286 0.56596
 H242 H 0.21310 0.54358 0.59788
 H243 H 0.26459 0.52844 0.51315
 H244 H 0.26168 0.51252 0.43339
 H245 H 0.26141 0.54351 0.40245
 H246 H 0.20914 0.56059 0.45622
 H247 H 0.20915 0.52927 0.48627
 H248 H 0.26474 0.47215 0.48652
 H249 H 0.26653 0.44135 0.45499
 H250 H 0.21367 0.45647 0.40109
 H251 H 0.21206 0.48731 0.43263
 H252 H 0.26622 0.55913 0.54505
 C253 C 0.26452 1.00034 -0.01843
 C254 C 0.26448 1.00033 0.01627
 C255 C 0.26544 1.01880 0.03613
 C256 C 0.26309 0.98188 0.03602
 C257 C 0.26570 0.98188 -0.03826
 C258 C 0.26301 1.01878 -0.03816
 C259 C 0.28035 1.03247 0.03051
 C260 C 0.28063 1.05016 0.04826
 C261 C 0.26606 1.05463 0.07256
 C262 C 0.25148 1.04037 0.07868
 C263 C 0.25123 1.02274 0.06076
 C264 C 0.27714 0.97763 0.06089
 C265 C 0.27617 0.96016 0.07918
 C266 C 0.26101 0.94669 0.07315
 C267 C 0.24672 0.95119 0.04869
 C268 C 0.24770 0.96866 0.03042
 C269 C 0.25159 0.97771 -0.06301
 C270 C 0.25201 0.96004 -0.08080
 C271 C 0.26668 0.94597 -0.07444
 C272 C 0.28117 0.95069 -0.05006
 C273 C 0.28072 0.96841 -0.03243
 C274 C 0.24761 1.03183 -0.03251
 C275 C 0.24661 1.04942 -0.05037
 C276 C 0.26092 1.05444 -0.07485
 C277 C 0.27605 1.04081 -0.08093
 C278 C 0.27701 1.02326 -0.06289
 H279 H 0.29180 1.02944 0.01225
 H280 H 0.29274 1.05993 0.04346
 H281 H 0.23951 1.04300 0.09600
 H282 H 0.23956 1.01237 0.06544
 H283 H 0.28901 0.98774 0.06581
 H284 H 0.28721 0.95726 0.09825
 H285 H 0.23652 0.97184 0.01174
 H286 H 0.23985 0.98792 -0.06786
 H287 H 0.24011 0.95723 -0.09821
 H288 H 0.29334 0.94107 -0.04508
 H289 H 0.29210 0.97162 -0.01409
 H290 H 0.23630 1.02836 -0.01421
 H291 H 0.23411 1.05864 -0.04559
 H292 H 0.28784 1.04389 -0.09842
 H293 H 0.28902 1.01334 -0.06763
 H294 H 0.23494 0.94107 0.04329
 C295 C 0.76364 0.49975 0.48340
 C296 C 0.76346 0.50003 0.51808
 C297 C 0.76433 0.51865 0.53752
 C298 C 0.76189 0.48173 0.53820
 C299 C 0.76465 0.48114 0.46398
 C300 C 0.76232 0.51802 0.46320
 C301 C 0.77935 0.53228 0.53184
 C302 C 0.77947 0.55013 0.54915
 C303 C 0.76467 0.55461 0.57267
 C304 C 0.75000 0.54067 0.57903
 C305 C 0.74988 0.52284 0.56171
 C306 C 0.77592 0.47747 0.56308
 C307 C 0.77489 0.46003 0.58143
 C308 C 0.75968 0.44660 0.57543
 C309 C 0.74536 0.45116 0.55106
 C310 C 0.74641 0.46861 0.53273
 C311 C 0.75044 0.47695 0.43930
 C312 C 0.75072 0.45918 0.42183
 C313 C 0.76532 0.44528 0.42854
 C314 C 0.77988 0.44974 0.45260
 C315 C 0.77959 0.46755 0.47006
 C316 C 0.74682 0.53112 0.46810
 C317 C 0.74591 0.54845 0.44946
 C318 C 0.76039 0.55293 0.42532
 C319 C 0.77566 0.53957 0.41996
 C320 C 0.77656 0.52223 0.43862
 H321 H 0.79083 0.52918 0.51368
 H322 H 0.79091 0.56060 0.54356
 H323 H 0.73861 0.54354 0.59744
 H324 H 0.73827 0.51246 0.56667
 H325 H 0.78786 0.48752 0.56789
 H326 H 0.78594 0.45707 0.60044
 H327 H 0.73524 0.47180 0.51404
 H328 H 0.73889 0.48731 0.43402
 H329 H 0.73952 0.45632 0.40301
 H330 H 0.79125 0.43930 0.45847
 H331 H 0.79088 0.47064 0.48861
 H332 H 0.73549 0.52796 0.48653
 H333 H 0.73404 0.55851 0.45434
 H334 H 0.78685 0.54246 0.40115
 H335 H 0.78851 0.51220 0.43424
 H336 H 0.73354 0.44107 0.54569
 O337 O 0.23457 0.26095 0.20390
 O338 O 0.28260 0.25479 0.24484
 O339 O 0.26125 0.23387 0.20373
 O340 O 0.25607 0.28193 0.24484
 O341 O 0.24188 0.26794 0.28891
 O342 O 0.24703 0.21988 0.24777
 O343 O 0.26837 0.24078 0.28886
 O344 O 0.22039 0.24697 0.24799
 Cu345 Cu 0.26003 0.25929 0.21990
 Cu346 Cu 0.24297 0.24249 0.27277
 C347 C 0.21924 0.25498 0.21892
 C348 C 0.28371 0.24676 0.27391
 C349 C 0.25504 0.21863 0.21870
 C350 C 0.24818 0.28316 0.27400
 O351 O 0.71793 0.74442 0.24376
 O352 O 0.76606 0.73812 0.20343
 O353 O 0.74434 0.71718 0.24387
 O354 O 0.73972 0.76548 0.20347
 O355 O 0.75384 0.77915 0.24798
 O356 O 0.75847 0.73090 0.28833
 O357 O 0.78019 0.75182 0.24792
 O358 O 0.73206 0.75811 0.28826
 Cu359 Cu 0.74059 0.73994 0.21916
 Cu360 Cu 0.75755 0.75638 0.27257
 C361 C 0.71675 0.75225 0.27300
 C362 C 0.78137 0.74393 0.21873
 C363 C 0.75214 0.71578 0.27309
 C364 C 0.74606 0.78058 0.21876
 O365 O 0.74782 0.27983 0.25165
 O366 O 0.74050 0.23179 0.21131
 O367 O 0.72008 0.25381 0.25200
 O368 O 0.76827 0.25781 0.21103
 O369 O 0.78189 0.24353 0.25532
 O370 O 0.73370 0.23953 0.29630
 O371 O 0.75412 0.21750 0.25559
 O372 O 0.76144 0.26555 0.29595
 Cu373 Cu 0.74281 0.25724 0.22706
 Cu374 Cu 0.75915 0.24009 0.28022
 C375 C 0.75582 0.28092 0.28076
 C376 C 0.74611 0.21641 0.22649
 C377 C 0.71864 0.24605 0.28123
 C378 C 0.78333 0.25132 0.22612
 O379 O 0.25795 0.76888 0.21156
 O380 O 0.25269 0.72085 0.25263
 O381 O 0.23134 0.74179 0.21174
 O382 O 0.27937 0.74806 0.25247
 O383 O 0.26526 0.76205 0.29660
 O384 O 0.21719 0.75578 0.25585
 O385 O 0.23857 0.73482 0.29676
 O386 O 0.24382 0.78289 0.25566
 Cu387 Cu 0.25676 0.74347 0.22771
 Cu388 Cu 0.23980 0.76027 0.28068
 C389 C 0.25170 0.78411 0.22649
 C390 C 0.24474 0.71959 0.28173
 C391 C 0.21605 0.74782 0.22671
 C392 C 0.28055 0.75615 0.28150
 O393 O 0.76569 0.26104 0.79495
 O394 O 0.71775 0.25343 0.75433
 O395 O 0.73982 0.23317 0.79516
 O396 O 0.74362 0.28137 0.75421
 O397 O 0.75808 0.26783 0.70999
 O398 O 0.75428 0.21962 0.75094
 O399 O 0.73222 0.23989 0.71013
 O400 O 0.78013 0.24750 0.75072
 Cu401 Cu 0.74026 0.25861 0.77908
 Cu402 Cu 0.75762 0.24236 0.72601
 C403 C 0.78112 0.25549 0.77985
 C404 C 0.71677 0.24538 0.72524
 C405 C 0.74646 0.21814 0.78013
 C406 C 0.75147 0.28285 0.72505
 O407 O 0.28268 0.74475 0.75594
 O408 O 0.23464 0.73908 0.79705
 O409 O 0.25582 0.71787 0.75622
 O410 O 0.26159 0.76607 0.79678
 O411 O 0.24748 0.77997 0.75260
 O412 O 0.24171 0.73181 0.71205
 O413 O 0.22055 0.75300 0.75286
 O414 O 0.26854 0.75868 0.71178
 Cu415 Cu 0.26008 0.74057 0.78096
 Cu416 Cu 0.24314 0.75727 0.72793
 C417 C 0.28382 0.75259 0.72672
 C418 C 0.21936 0.74506 0.78198
 C419 C 0.24788 0.71660 0.72708
 C420 C 0.25553 0.78128 0.78163
 O421 O 0.25793 0.23237 0.78944
 O422 O 0.25179 0.28046 0.74892
 O423 O 0.23079 0.25885 0.78942
 O424 O 0.27904 0.25402 0.74909
 O425 O 0.26534 0.23987 0.70463
 O426 O 0.21704 0.24469 0.74501
 O427 O 0.23806 0.26630 0.70449
 O428 O 0.24421 0.21822 0.74499
 Cu429 Cu 0.25627 0.25785 0.77365
 Cu430 Cu 0.23980 0.24085 0.72031
 C431 C 0.25202 0.21706 0.77424
 C432 C 0.24390 0.28162 0.71974
 C433 C 0.21566 0.25253 0.77421
 C434 C 0.28046 0.24618 0.71990
 O435 O 0.73365 0.76143 0.70357
 O436 O 0.78177 0.75642 0.74443
 O437 O 0.76080 0.73485 0.70362
 O438 O 0.75455 0.78288 0.74455
 O439 O 0.74066 0.76863 0.78866
 O440 O 0.74692 0.72065 0.74779
 O441 O 0.76789 0.74220 0.78858
 O442 O 0.71975 0.74720 0.74770
 Cu443 Cu 0.75908 0.76031 0.71961
 Cu444 Cu 0.74242 0.74323 0.77259
 C445 C 0.71845 0.75518 0.71862
 C446 C 0.78307 0.74852 0.77356
 C447 C 0.75489 0.71951 0.71868
 C448 C 0.74656 0.78398 0.77365
 C449 C 0.26463 0.10952 0.12348
 C450 C 0.27402 0.10777 0.09211
 C451 C 0.27471 0.08972 0.07550
 C452 C 0.26590 0.07291 0.08990
 C453 C 0.25666 0.07502 0.12191
 C454 C 0.25606 0.09311 0.13840
 C455 C 0.26349 0.12822 0.14010
 C456 C 0.26233 0.14390 0.15396
 C457 C 0.26076 0.16261 0.17040
 C458 C 0.26768 0.17944 0.15416
 C459 C 0.26588 0.19768 0.16989
 C460 C 0.25711 0.19931 0.20214
 C461 C 0.25026 0.18229 0.21831
 C462 C 0.25208 0.16407 0.20251
 H463 H 0.28058 0.12045 0.08018
 H464 H 0.28139 0.08939 0.05060
 H465 H 0.25038 0.06268 0.13513
 H466 H 0.24889 0.09427 0.16288
 H467 H 0.27441 0.17847 0.12927
 H468 H 0.27131 0.21048 0.15676
 H469 H 0.24344 0.18303 0.24312
 H470 H 0.24665 0.15113 0.21529
 C471 C 0.76341 0.61050 0.62276
 C472 C 0.78120 0.60076 0.61829
 C473 C 0.78165 0.58257 0.60204
 C474 C 0.76430 0.57388 0.59009
 C475 C 0.74651 0.58381 0.59470
 C476 C 0.74609 0.60198 0.61092
 C477 C 0.76284 0.62920 0.63949
 C478 C 0.76205 0.64487 0.65347
 C479 C 0.76075 0.66355 0.67016
 C480 C 0.76749 0.68043 0.65384
 C481 C 0.76573 0.69864 0.66970
 C482 C 0.75717 0.70020 0.70213
 C483 C 0.75058 0.68311 0.71842
 C484 C 0.75236 0.66493 0.70251
 H485 H 0.79469 0.60720 0.62743
 H486 H 0.79554 0.57520 0.59919
 H487 H 0.73295 0.57766 0.58533
 H488 H 0.73226 0.60942 0.61414
 H489 H 0.77398 0.67953 0.62876
 H490 H 0.77095 0.71150 0.65647
 H491 H 0.74393 0.68379 0.74337
 H492 H 0.74706 0.65196 0.71535
 C493 C 0.74077 0.88979 0.12318
 C494 C 0.75801 0.89818 0.11103
 C495 C 0.75758 0.91624 0.09449
 C496 C 0.73979 0.92641 0.08970
 C497 C 0.72252 0.91762 0.10240
 C498 C 0.72305 0.89954 0.11887
 C499 C 0.74126 0.87111 0.13992
 C500 C 0.74175 0.85544 0.15386
 C501 C 0.74247 0.83671 0.17041
 C502 C 0.73519 0.82009 0.15392
 C503 C 0.73621 0.80183 0.16973
 C504 C 0.74455 0.79997 0.20229
 C505 C 0.75171 0.81680 0.21874
 C506 C 0.75067 0.83504 0.20287
 H507 H 0.77186 0.89081 0.11451
 H508 H 0.77144 0.92239 0.08675
 H509 H 0.70832 0.92413 0.09852
 H510 H 0.70956 0.89307 0.12795
 H511 H 0.72882 0.82123 0.12877
 H512 H 0.73057 0.78917 0.15638
 H513 H 0.75822 0.81588 0.24379
 H514 H 0.75636 0.84782 0.21585
 C515 C 0.23588 0.39042 0.62341
 C516 C 0.25327 0.39888 0.61182
 C517 C 0.25294 0.41693 0.59527
 C518 C 0.23518 0.42680 0.59007
 C519 C 0.21775 0.41817 0.60177
 C520 C 0.21812 0.40010 0.61836
 C521 C 0.23635 0.37181 0.64038
 C522 C 0.23706 0.35620 0.65452
 C523 C 0.23823 0.33756 0.67128
 C524 C 0.23149 0.32068 0.65489
 C525 C 0.23318 0.30248 0.67075
 C526 C 0.24166 0.30094 0.70326
 C527 C 0.24824 0.31803 0.71963
 C528 C 0.24654 0.33620 0.70371
 H529 H 0.26709 0.39148 0.61548
 H530 H 0.26656 0.42303 0.58610
 H531 H 0.20388 0.42550 0.59846
 H532 H 0.20457 0.39370 0.62728
 H533 H 0.22507 0.32156 0.62975
 H534 H 0.22796 0.28962 0.65746
 H535 H 0.25484 0.31735 0.74463
 H536 H 0.25184 0.34917 0.71659
 C537 C 0.89214 0.25700 0.12913
 C538 C 0.89956 0.24028 0.11357
 C539 C 0.91738 0.24095 0.09628
 C540 C 0.92842 0.25852 0.09400
 C541 C 0.92052 0.27525 0.11041
 C542 C 0.90267 0.27443 0.12760
 C543 C 0.87361 0.25629 0.14636
 C544 C 0.85802 0.25566 0.16056
 C545 C 0.83935 0.25484 0.17727
 C546 C 0.83770 0.24648 0.20960
 C547 C 0.81949 0.24542 0.22562
 C548 C 0.80268 0.25272 0.20945
 C549 C 0.80451 0.26119 0.17700
 C550 C 0.82273 0.26223 0.16105
 H551 H 0.89159 0.22659 0.11495
 H552 H 0.92261 0.22722 0.08631
 H553 H 0.92728 0.28948 0.10876
 H554 H 0.89693 0.28756 0.13932
 H555 H 0.85047 0.24071 0.22237
 H556 H 0.81858 0.23881 0.25058
 H557 H 0.79187 0.26694 0.16386
 H558 H 0.82385 0.26872 0.13600
 C559 C 0.39182 0.75954 0.62715
 C560 C 0.39931 0.77750 0.61617
 C561 C 0.41704 0.77827 0.59858
 C562 C 0.42752 0.76104 0.59170
 C563 C 0.41989 0.74306 0.60293
 C564 C 0.40217 0.74234 0.62055
 C565 C 0.37345 0.75874 0.64488
 C566 C 0.35799 0.75802 0.65953
 C567 C 0.33947 0.75706 0.67676
 C568 C 0.32263 0.76419 0.66090
 C569 C 0.30454 0.76290 0.67727
 C570 C 0.30306 0.75444 0.70978
 C571 C 0.32011 0.74745 0.72563
 C572 C 0.33818 0.74875 0.70919
 H573 H 0.39138 0.79090 0.62103
 H574 H 0.42239 0.79229 0.58987
 H575 H 0.42773 0.72958 0.59841
 H576 H 0.39652 0.72836 0.62899
 H577 H 0.32346 0.77064 0.63579
 H578 H 0.29171 0.76842 0.66436
 H579 H 0.31948 0.74085 0.75062
 H580 H 0.35113 0.74317 0.72169
 C581 C 0.10816 0.74075 0.12687
 C582 C 0.10756 0.74507 0.09211
 C583 C 0.08981 0.74452 0.07456
 C584 C 0.07240 0.73963 0.09158
 C585 C 0.07315 0.73530 0.12653
 C586 C 0.09093 0.73588 0.14405
 C587 C 0.12646 0.74140 0.14483
 C588 C 0.14188 0.74204 0.15962
 C589 C 0.16038 0.74297 0.17692
 C590 C 0.17723 0.73589 0.16103
 C591 C 0.19532 0.73726 0.17737
 C592 C 0.19679 0.74577 0.20988
 C593 C 0.17973 0.75267 0.22578
 C594 C 0.16165 0.75128 0.20938
 H595 H 0.12083 0.74881 0.07855
 H596 H 0.08974 0.74765 0.04757
 H597 H 0.05996 0.73171 0.14040
 H598 H 0.09123 0.73257 0.17098
 H599 H 0.17641 0.72944 0.13589
 H600 H 0.20817 0.73181 0.16443
 H601 H 0.18036 0.75931 0.25078
 H602 H 0.14869 0.75682 0.22189
 C603 C 0.60828 0.23329 0.62853
 C604 C 0.60752 0.22871 0.59385
 C605 C 0.58956 0.22808 0.57693
 C606 C 0.57210 0.23207 0.59449
 C607 C 0.57301 0.23645 0.62943
 C608 C 0.59099 0.23706 0.64631
 C609 C 0.62684 0.23461 0.64564
 C610 C 0.64240 0.23597 0.65984
 C611 C 0.66101 0.23786 0.67663
 C612 C 0.67806 0.23155 0.66041
 C613 C 0.69620 0.23385 0.67631
 C614 C 0.69752 0.24254 0.70870
 C615 C 0.68027 0.24871 0.72490
 C616 C 0.66215 0.24639 0.70894
 H617 H 0.62083 0.22586 0.57981
 H618 H 0.58937 0.22493 0.54994
 H619 H 0.55981 0.23936 0.64372
 H620 H 0.59141 0.24059 0.67316
 H621 H 0.67735 0.22496 0.63537
 H622 H 0.70919 0.22895 0.66314
 H623 H 0.68077 0.25544 0.74982
 H624 H 0.64904 0.25136 0.72170
 C625 C 0.74206 0.10942 0.87753
 C626 C 0.73269 0.09344 0.86252
 C627 C 0.73206 0.07545 0.87926
 C628 C 0.74086 0.07298 0.91157
 C629 C 0.75034 0.08938 0.92618
 C630 C 0.75088 0.10734 0.90933
 C631 C 0.74256 0.12797 0.86037
 C632 C 0.74300 0.14355 0.84613
 C633 C 0.74358 0.16220 0.82931
 C634 C 0.75187 0.16386 0.79691
 C635 C 0.75270 0.18204 0.78077
 C636 C 0.74524 0.19881 0.79689
 C637 C 0.73684 0.19696 0.82939
 C638 C 0.73603 0.17877 0.84547
 H639 H 0.72594 0.09486 0.83771
 H640 H 0.72526 0.06340 0.86593
 H641 H 0.75671 0.08882 0.95132
 H642 H 0.75805 0.11969 0.92132
 H643 H 0.75776 0.15112 0.78419
 H644 H 0.75926 0.18296 0.75577
 H645 H 0.73098 0.20957 0.84249
 H646 H 0.72959 0.17764 0.87056
 C647 C 0.23682 0.61044 0.37715
 C648 C 0.21901 0.60067 0.38155
 C649 C 0.21849 0.58248 0.39775
 C650 C 0.23581 0.57383 0.40972
 C651 C 0.25363 0.58379 0.40516
 C652 C 0.25411 0.60196 0.38899
 C653 C 0.23744 0.62916 0.36053
 C654 C 0.23823 0.64484 0.34665
 C655 C 0.23947 0.66355 0.33010
 C656 C 0.23251 0.68033 0.34642
 C657 C 0.23411 0.69857 0.33064
 C658 C 0.24274 0.70026 0.29828
 C659 C 0.24959 0.68328 0.28201
 C660 C 0.24797 0.66506 0.29785
 H661 H 0.20554 0.60708 0.37241
 H662 H 0.20458 0.57509 0.40056
 H663 H 0.26717 0.57767 0.41454
 H664 H 0.26797 0.60942 0.38582
 H665 H 0.22593 0.67933 0.37142
 H666 H 0.22869 0.71134 0.34385
 H667 H 0.25630 0.68406 0.25712
 H668 H 0.25343 0.65217 0.28501
 C669 C 0.26559 0.89083 0.87538
 C670 C 0.27496 0.89282 0.90675
 C671 C 0.27555 0.91096 0.92310
 C672 C 0.26667 0.92762 0.90843
 C673 C 0.25747 0.92526 0.87642
 C674 C 0.25696 0.90709 0.86019
 C675 C 0.26449 0.87203 0.85906
 C676 C 0.26333 0.85628 0.84544
 C677 C 0.26170 0.83749 0.82921
 C678 C 0.26849 0.82072 0.84570
 C679 C 0.26657 0.80242 0.83019
 C680 C 0.25780 0.80067 0.79794
 C681 C 0.25110 0.81765 0.78151
 C682 C 0.25304 0.83592 0.79708
 H683 H 0.28156 0.88025 0.91889
 H684 H 0.28222 0.91146 0.94801
 H685 H 0.25113 0.93748 0.86300
 H686 H 0.24981 0.90575 0.83570
 H687 H 0.27519 0.82177 0.87060
 H688 H 0.27188 0.78965 0.84351
 H689 H 0.24429 0.81681 0.75669
 H690 H 0.24770 0.84881 0.78411
 C691 C 0.76459 0.38966 0.37756
 C692 C 0.78232 0.39945 0.38277
 C693 C 0.78262 0.41755 0.39934
 C694 C 0.76514 0.42609 0.41087
 C695 C 0.74741 0.41610 0.40553
 C696 C 0.74715 0.39802 0.38899
 C697 C 0.76417 0.37104 0.36051
 C698 C 0.76346 0.35544 0.34629
 C699 C 0.76221 0.33682 0.32938
 C700 C 0.76877 0.31990 0.34570
 C701 C 0.76689 0.30171 0.32975
 C702 C 0.75839 0.30023 0.29724
 C703 C 0.75203 0.31737 0.28092
 C704 C 0.75393 0.33553 0.29692
 H705 H 0.79591 0.39312 0.37395
 H706 H 0.79646 0.42497 0.40276
 H707 H 0.73375 0.42213 0.41456
 H708 H 0.73335 0.39054 0.38521
 H709 H 0.77516 0.32073 0.37087
 H710 H 0.77193 0.28881 0.34301
 H711 H 0.74543 0.31674 0.25590
 H712 H 0.74876 0.34853 0.28409
 C713 C 0.10740 0.25803 0.87282
 C714 C 0.10675 0.25344 0.90747
 C715 C 0.08901 0.25398 0.92501
 C716 C 0.07165 0.25913 0.90808
 C717 C 0.07245 0.26371 0.87323
 C718 C 0.09022 0.26314 0.85572
 C719 C 0.12572 0.25750 0.85494
 C720 C 0.14118 0.25700 0.84031
 C721 C 0.15976 0.25631 0.82328
 C722 C 0.16126 0.24800 0.79086
 C723 C 0.17942 0.24692 0.77470
 C724 C 0.19633 0.25414 0.79083
 C725 C 0.19462 0.26260 0.82333
 C726 C 0.17645 0.26366 0.83942
 H727 H 0.11998 0.24952 0.92097
 H728 H 0.08891 0.25066 0.95193
 H729 H 0.05930 0.26751 0.85942
 H730 H 0.09056 0.26667 0.82888
 H731 H 0.14842 0.24225 0.77816
 H732 H 0.18024 0.24032 0.74970
 H733 H 0.20734 0.26828 0.83645
 H734 H 0.17545 0.27010 0.86454
 C735 C 0.60820 0.76000 0.37049
 C736 C 0.59730 0.74291 0.37547
 C737 C 0.57947 0.74364 0.39275
 C738 C 0.57230 0.76150 0.40530
 C739 C 0.58333 0.77861 0.40003
 C740 C 0.60117 0.77784 0.38276
 C741 C 0.62670 0.75917 0.35316
 C742 C 0.64225 0.75838 0.33882
 C743 C 0.66087 0.75730 0.32193
 C744 C 0.66222 0.74907 0.28942
 C745 C 0.68038 0.74760 0.27333
 C746 C 0.69744 0.75433 0.28959
 C747 C 0.69589 0.76273 0.32216
 C748 C 0.67772 0.76419 0.33820
 H749 H 0.60260 0.72902 0.36602
 H750 H 0.57121 0.73026 0.39603
 H751 H 0.57834 0.79253 0.40978
 H752 H 0.60952 0.79115 0.37917
 H753 H 0.64927 0.74368 0.27661
 H754 H 0.68106 0.74105 0.24827
 H755 H 0.70873 0.76805 0.33539
 H756 H 0.67684 0.77057 0.36338
 C757 C 0.89181 0.74152 0.87060
 C758 C 0.89894 0.72362 0.88241
 C759 C 0.91681 0.72281 0.89957
 C760 C 0.92778 0.73994 0.90519
 C761 C 0.92052 0.75785 0.89308
 C762 C 0.90265 0.75861 0.87589
 C763 C 0.87327 0.74238 0.85342
 C764 C 0.85768 0.74316 0.83921
 C765 C 0.83902 0.74419 0.82246
 C766 C 0.82229 0.73694 0.83859
 C767 C 0.80409 0.73823 0.82261
 C768 C 0.80240 0.74680 0.79023
 C769 C 0.81933 0.75393 0.77413
 C770 C 0.83751 0.75263 0.79018
 H771 H 0.89063 0.71031 0.87855
 H772 H 0.92188 0.70885 0.90899
 H773 H 0.92874 0.77123 0.89664
 H774 H 0.89728 0.77254 0.86680
 H775 H 0.82330 0.73039 0.86360
 H776 H 0.79135 0.73260 0.83569
 H777 H 0.81853 0.76062 0.74922
 H778 H 0.85038 0.75830 0.77748
 C779 C 0.39196 0.23782 0.37217
 C780 C 0.40150 0.21994 0.37669
 C781 C 0.41931 0.21921 0.39410
 C782 C 0.42783 0.23638 0.40717
 C783 C 0.41812 0.25428 0.40243
 C784 C 0.40032 0.25497 0.38505
 C785 C 0.37353 0.23863 0.35460
 C786 C 0.35803 0.23954 0.34010
 C787 C 0.33946 0.24089 0.32307
 C788 C 0.32253 0.23398 0.33900
 C789 C 0.30440 0.23575 0.32291
 C790 C 0.30297 0.24449 0.29062
 C791 C 0.32011 0.25126 0.27469
 C792 C 0.33822 0.24947 0.29085
 H793 H 0.39517 0.20657 0.36678
 H794 H 0.42653 0.20525 0.39701
 H795 H 0.42414 0.26771 0.41263
 H796 H 0.39302 0.26888 0.38183
 H797 H 0.32332 0.22734 0.36396
 H798 H 0.29150 0.23039 0.33586
 H799 H 0.31951 0.25805 0.24986
 H800 H 0.35124 0.25489 0.27832
 C801 C 0.73749 0.89239 0.87139
 C802 C 0.75461 0.90315 0.87635
 C803 C 0.75409 0.92097 0.89366
 C804 C 0.73632 0.92853 0.90658
 C805 C 0.71914 0.91738 0.90112
 C806 C 0.71977 0.89956 0.88372
 C807 C 0.73824 0.87390 0.85401
 C808 C 0.73914 0.85836 0.83961
 C809 C 0.74052 0.83977 0.82265
 C810 C 0.73371 0.82284 0.83868
 C811 C 0.73553 0.80469 0.82265
 C812 C 0.74423 0.80325 0.79032
 C813 C 0.75091 0.82039 0.77430
 C814 C 0.74906 0.83852 0.79040
 H815 H 0.76847 0.89763 0.86718
 H816 H 0.76791 0.92822 0.89804
 H817 H 0.70495 0.92256 0.90906
 H818 H 0.70637 0.89139 0.87979
 H819 H 0.72710 0.82364 0.86368
 H820 H 0.73024 0.79179 0.83567
 H821 H 0.75767 0.81979 0.74943
 H822 H 0.75442 0.85154 0.77779
 C823 C 0.24203 0.39147 0.37278
 C824 C 0.24648 0.39235 0.40748
 C825 C 0.24592 0.41022 0.42468
 C826 C 0.24088 0.42748 0.40737
 C827 C 0.23642 0.42644 0.37247
 C828 C 0.23701 0.40854 0.35530
 C829 C 0.24264 0.37304 0.35518
 C830 C 0.24324 0.35754 0.34065
 C831 C 0.24407 0.33895 0.32358
 C832 C 0.23684 0.32218 0.33958
 C833 C 0.23802 0.30404 0.32335
 C834 C 0.24647 0.30244 0.29085
 C835 C 0.25357 0.31942 0.27487
 C836 C 0.25238 0.33755 0.29116
 H837 H 0.25033 0.37921 0.42127
 H838 H 0.24915 0.41050 0.45164
 H839 H 0.23271 0.43950 0.35836
 H840 H 0.23359 0.40803 0.32841
 H841 H 0.23040 0.32311 0.36469
 H842 H 0.23242 0.29126 0.33635
 H843 H 0.26017 0.31870 0.24987
 H844 H 0.25803 0.35045 0.27856
 C845 C 0.25894 0.10878 0.87265
 C846 C 0.26847 0.09281 0.85813
 C847 C 0.26913 0.07492 0.87525
 C848 C 0.26018 0.07257 0.90747
 C849 C 0.25056 0.08899 0.92160
 C850 C 0.25000 0.10682 0.90437
 C851 C 0.25831 0.12720 0.85507
 C852 C 0.25768 0.14270 0.84056
 C853 C 0.25676 0.16127 0.82350
 C854 C 0.26367 0.17814 0.83972
 C855 C 0.26233 0.19627 0.82357
 C856 C 0.25402 0.19778 0.79093
 C857 C 0.24728 0.18070 0.77470
 C858 C 0.24864 0.16258 0.79092
 H859 H 0.27531 0.09412 0.83339
 H860 H 0.27606 0.06286 0.86229
 H861 H 0.24410 0.08854 0.94666
 H862 H 0.24270 0.11917 0.91600
 H863 H 0.26997 0.17729 0.86496
 H864 H 0.26765 0.20913 0.83676
 H865 H 0.24080 0.18135 0.74960
 H866 H 0.24323 0.14961 0.77815
 C867 C 0.75828 0.60722 0.37058
 C868 C 0.74113 0.59651 0.37609
 C869 C 0.74180 0.57880 0.39371
 C870 C 0.75968 0.57156 0.40607
 C871 C 0.77685 0.58239 0.40023
 C872 C 0.77614 0.60010 0.38262
 C873 C 0.75752 0.62564 0.35307
 C874 C 0.75685 0.64117 0.33868
 C875 C 0.75600 0.65980 0.32187
 C876 C 0.74763 0.66135 0.28951
 C877 C 0.74649 0.67954 0.27347
 C878 C 0.75372 0.69643 0.28966
 C879 C 0.76222 0.69468 0.32211
 C880 C 0.76334 0.67649 0.33807
 H881 H 0.72723 0.60188 0.36683
 H882 H 0.72838 0.57069 0.39744
 H883 H 0.79079 0.57734 0.40982
 H884 H 0.78949 0.60832 0.37862
 H885 H 0.74189 0.64852 0.27676
 H886 H 0.73986 0.68039 0.24852
 H887 H 0.76792 0.70739 0.33526
 H888 H 0.76985 0.67544 0.36314
 C889 C 0.11000 0.73492 0.87623
 C890 C 0.09372 0.74343 0.86086
 C891 C 0.07551 0.74285 0.87692
 C892 C 0.07313 0.73370 0.90895
 C893 C 0.08981 0.72495 0.92381
 C894 C 0.10799 0.72562 0.90763
 C895 C 0.12882 0.73606 0.86000
 C896 C 0.14455 0.73725 0.84638
 C897 C 0.16330 0.73892 0.83005
 C898 C 0.16475 0.74747 0.79784
 C899 C 0.18297 0.74941 0.78213
 C900 C 0.20003 0.74282 0.79848
 C901 C 0.19841 0.73418 0.83083
 C902 C 0.18016 0.73225 0.84648
 H903 H 0.09507 0.75053 0.83635
 H904 H 0.06329 0.74908 0.86335
 H905 H 0.08929 0.71834 0.94874
 H906 H 0.12057 0.71911 0.91991
 H907 H 0.15180 0.75271 0.78491
 H908 H 0.18370 0.75613 0.75724
 H909 H 0.21124 0.72895 0.84410
 H910 H 0.17920 0.72564 0.87145
 C911 C 0.60988 0.24121 0.37850
 C912 C 0.60883 0.24509 0.41340
 C913 C 0.59082 0.24455 0.43011
 C914 C 0.57360 0.24010 0.41209
 C915 C 0.57481 0.23623 0.37700
 C916 C 0.59285 0.23680 0.36033
 C917 C 0.62845 0.24175 0.36139
 C918 C 0.64404 0.24225 0.34717
 C919 C 0.66269 0.24291 0.33037
 C920 C 0.66432 0.25113 0.29793
 C921 C 0.68250 0.25204 0.28180
 C922 C 0.69931 0.24473 0.29798
 C923 C 0.69749 0.23639 0.33053
 C924 C 0.67930 0.23550 0.34659
 H925 H 0.62194 0.24847 0.42772
 H926 H 0.59039 0.24733 0.45721
 H927 H 0.56179 0.23298 0.36237
 H928 H 0.59350 0.23382 0.33329
 H929 H 0.65155 0.25691 0.28516
 H930 H 0.68340 0.25855 0.25677
 H931 H 0.71014 0.23065 0.34368
 H932 H 0.67820 0.22911 0.37172
 C933 C 0.88956 0.26436 0.87756
 C934 C 0.89788 0.24691 0.88904
 C935 C 0.91591 0.24715 0.90572
 C936 C 0.92590 0.26488 0.91116
 C937 C 0.91740 0.28236 0.89960
 C938 C 0.89935 0.28209 0.88288
 C939 C 0.87099 0.26396 0.86036
 C940 C 0.85544 0.26326 0.84600
 C941 C 0.83687 0.26200 0.82892
 C942 C 0.83569 0.25376 0.79640
 C943 C 0.81758 0.25185 0.78025
 C944 C 0.80038 0.25814 0.79647
 C945 C 0.80175 0.26661 0.82903
 C946 C 0.81988 0.26850 0.84513
 H947 H 0.89040 0.23312 0.88517
 H948 H 0.92191 0.23349 0.91477
 H949 H 0.92482 0.29621 0.90308
 H950 H 0.89305 0.29567 0.87403
 H951 H 0.84874 0.24865 0.78365
 H952 H 0.81704 0.24527 0.75521
 H953 H 0.78879 0.27159 0.84222
 H954 H 0.82062 0.27487 0.87034
 C955 C 0.38984 0.76755 0.37556
 C956 C 0.40688 0.76361 0.35717
 C957 C 0.42507 0.76421 0.37334
 C958 C 0.42644 0.76877 0.40816
 C959 C 0.40923 0.77294 0.42633
 C960 C 0.39106 0.77232 0.41012
 C961 C 0.37108 0.76624 0.35918
 C962 C 0.35537 0.76489 0.34551
 C963 C 0.33662 0.76302 0.32922
 C964 C 0.33520 0.75433 0.29709
 C965 C 0.31697 0.75216 0.28148
 C966 C 0.29989 0.75865 0.29786
 C967 C 0.30149 0.76745 0.33012
 C968 C 0.31975 0.76960 0.34567
 H969 H 0.40610 0.75993 0.33040
 H970 H 0.43807 0.76116 0.35859
 H971 H 0.40979 0.77623 0.45326
 H972 H 0.37795 0.77532 0.42462
 H973 H 0.34818 0.74916 0.28416
 H974 H 0.31625 0.74533 0.25665
 H975 H 0.28864 0.77260 0.34340
 H976 H 0.32069 0.77633 0.37058
 C977 C 0.25859 0.89224 0.12747
 C978 C 0.27653 0.89952 0.11597
 C979 C 0.27734 0.91727 0.09844
 C980 C 0.26018 0.92797 0.09214
 C981 C 0.24222 0.92055 0.10389
 C982 C 0.24145 0.90280 0.12144
 C983 C 0.25774 0.87385 0.14509
 C984 C 0.25698 0.85837 0.15965
 C985 C 0.25601 0.83982 0.17677
 C986 C 0.26327 0.82303 0.16090
 C987 C 0.26201 0.80492 0.17717
 C988 C 0.25346 0.80337 0.20960
 C989 C 0.24632 0.82036 0.22545
 C990 C 0.24759 0.83846 0.20911
 H991 H 0.28987 0.89143 0.12038
 H992 H 0.29134 0.92246 0.08933
 H993 H 0.22880 0.92855 0.09981
 H994 H 0.22749 0.89732 0.13028
 H995 H 0.26980 0.82392 0.13585
 H996 H 0.26764 0.79213 0.16426
 H997 H 0.23965 0.81967 0.25039
 H998 H 0.24192 0.85137 0.22162
 C999 C 0.75734 0.39181 0.62864
 C1000 C 0.77526 0.39917 0.61723
 C1001 C 0.77604 0.41705 0.60014
 C1002 C 0.75888 0.42781 0.59420
 C1003 C 0.74094 0.42032 0.60592
 C1004 C 0.74019 0.40244 0.62303
 C1005 C 0.75651 0.37324 0.64570
 C1006 C 0.75581 0.35762 0.65979
 C1007 C 0.75493 0.33891 0.67638
 C1008 C 0.76242 0.32234 0.66017
 C1009 C 0.76138 0.30410 0.67605
 C1010 C 0.75282 0.30221 0.70842
 C1011 C 0.74540 0.31899 0.72457
 C1012 C 0.74646 0.33721 0.70862
 H1013 H 0.78861 0.39102 0.62132
 H1014 H 0.79003 0.42230 0.59102
 H1015 H 0.72752 0.42837 0.60210
 H1016 H 0.72625 0.39688 0.63182
 H1017 H 0.76901 0.32350 0.63520
 H1018 H 0.76723 0.29148 0.66293
 H1019 H 0.73872 0.31804 0.74947
 H1020 H 0.74060 0.34996 0.72139
 C1021 C 0.73654 0.10791 0.12909
 C1022 C 0.71870 0.09832 0.12384
 C1023 C 0.71818 0.08040 0.10670
 C1024 C 0.73553 0.07183 0.09465
 C1025 C 0.75337 0.08161 0.10010
 C1026 C 0.75385 0.09951 0.11719
 C1027 C 0.73717 0.12642 0.14646
 C1028 C 0.73803 0.14196 0.16085
 C1029 C 0.73943 0.16056 0.17781
 C1030 C 0.74785 0.16181 0.21019
 C1031 C 0.74985 0.17996 0.22621
 C1032 C 0.74347 0.19712 0.20999
 C1033 C 0.73485 0.19568 0.17757
 C1034 C 0.73287 0.17752 0.16161
 H1035 H 0.70521 0.10468 0.13299
 H1036 H 0.70425 0.07314 0.10321
 H1037 H 0.76694 0.07556 0.09067
 H1038 H 0.76773 0.10684 0.12099
 H1039 H 0.75302 0.14878 0.22293
 H1040 H 0.75654 0.18055 0.25115
 H1041 H 0.72979 0.20860 0.16439
 H1042 H 0.72637 0.17672 0.13651
 C1043 C 0.24148 0.60847 0.62773
 C1044 C 0.23636 0.59129 0.64484
 C1045 C 0.23580 0.57350 0.62736
 C1046 C 0.24039 0.57267 0.59251
 C1047 C 0.24554 0.59004 0.57556
 C1048 C 0.24607 0.60781 0.59308
 C1049 C 0.24207 0.62680 0.64565
 C1050 C 0.24264 0.64225 0.66036
 C1051 C 0.24347 0.66080 0.67757
 C1052 C 0.25180 0.66220 0.70998
 C1053 C 0.25306 0.68032 0.72630
 C1054 C 0.24600 0.69730 0.71033
 C1055 C 0.23749 0.69569 0.67786
 C1056 C 0.23625 0.67756 0.66161
 H1057 H 0.23283 0.59164 0.67170
 H1058 H 0.23201 0.56035 0.64118
 H1059 H 0.24888 0.58992 0.54865
 H1060 H 0.25000 0.62103 0.57957
 H1061 H 0.25745 0.64931 0.72254
 H1062 H 0.25970 0.68105 0.75127
 H1063 H 0.23192 0.70847 0.66487
 H1064 H 0.22978 0.67664 0.63650
 C1065 C 0.89023 0.73567 0.12251
 C1066 C 0.89869 0.75302 0.11075
 C1067 C 0.91673 0.75263 0.09414
 C1068 C 0.92658 0.73484 0.08905
 C1069 C 0.91795 0.71745 0.10094
 C1070 C 0.89989 0.71789 0.11759
 C1071 C 0.87162 0.73620 0.13951
 C1072 C 0.85601 0.73695 0.15365
 C1073 C 0.83735 0.73816 0.17038
 C1074 C 0.83598 0.74648 0.20281
 C1075 C 0.81779 0.74821 0.21870
 C1076 C 0.80070 0.74165 0.20230
 C1077 C 0.80227 0.73315 0.16980
 C1078 C 0.82048 0.73144 0.15397
 H1079 H 0.89130 0.76686 0.11431
 H1080 H 0.92283 0.76621 0.08483
 H1081 H 0.92527 0.70357 0.09774
 H1082 H 0.89349 0.70437 0.12666
 H1083 H 0.84895 0.75176 0.21572
 H1084 H 0.81710 0.75481 0.24371
 H1085 H 0.78941 0.72796 0.15647
 H1086 H 0.82137 0.72501 0.12883
 C1087 C 0.38975 0.23995 0.62473
 C1088 C 0.40069 0.25709 0.62062
 C1089 C 0.41876 0.25651 0.60409
 C1090 C 0.42612 0.23875 0.59146
 C1091 C 0.41504 0.22159 0.59584
 C1092 C 0.39697 0.22221 0.61236
 C1093 C 0.37106 0.24062 0.64141
 C1094 C 0.35537 0.24126 0.65528
 C1095 C 0.33662 0.24216 0.67175
 C1096 C 0.33495 0.25047 0.70413
 C1097 C 0.31670 0.25166 0.71993
 C1098 C 0.29985 0.24454 0.70348
 C1099 C 0.30171 0.23610 0.67100
 C1100 C 0.31998 0.23492 0.65526
 H1101 H 0.39525 0.27090 0.63017
 H1102 H 0.42705 0.26991 0.60148
 H1103 H 0.42019 0.20775 0.58600
 H1104 H 0.38858 0.20887 0.61531
 H1105 H 0.34775 0.25613 0.71711
 H1106 H 0.31578 0.25825 0.74492
 H1107 H 0.28904 0.23049 0.65765
 H1108 H 0.32112 0.22847 0.63017
 C1109 C 0.11018 0.26337 0.12316
 C1110 C 0.10046 0.28116 0.11866
 C1111 C 0.08225 0.28161 0.10250
 C1112 C 0.07352 0.26424 0.09067
 C1113 C 0.08344 0.24645 0.09530
 C1114 C 0.10163 0.24604 0.11143
 C1115 C 0.12891 0.26281 0.13982
 C1116 C 0.14458 0.26203 0.15377
 C1117 C 0.16327 0.26075 0.17043
 C1118 C 0.18014 0.26755 0.15413
 C1119 C 0.19835 0.26581 0.16998
 C1120 C 0.19993 0.25722 0.20237
 C1121 C 0.18285 0.25056 0.21863
 C1122 C 0.16466 0.25231 0.20273
 H1123 H 0.10692 0.29466 0.12772
 H1124 H 0.07488 0.29549 0.09963
 H1125 H 0.07726 0.23288 0.08602
 H1126 H 0.10906 0.23220 0.11467
 H1127 H 0.17923 0.27407 0.12909
 H1128 H 0.21120 0.27109 0.15677
 H1129 H 0.18354 0.24388 0.24355
 H1130 H 0.15170 0.24697 0.21556
 C1131 C 0.60943 0.76340 0.62291
 C1132 C 0.59984 0.78128 0.61873
 C1133 C 0.58178 0.78199 0.60211
 C1134 C 0.57308 0.76479 0.58950
 C1135 C 0.58285 0.74690 0.59388
 C1136 C 0.60089 0.74623 0.61047
 C1137 C 0.62806 0.76261 0.63978
 C1138 C 0.64371 0.76172 0.65378
 C1139 C 0.66241 0.76043 0.67034
 C1140 C 0.67918 0.76748 0.65409
 C1141 C 0.69742 0.76586 0.66984
 C1142 C 0.69911 0.75714 0.70211
 C1143 C 0.68214 0.75018 0.71831
 C1144 C 0.66392 0.75182 0.70249
 H1145 H 0.60631 0.79465 0.62832
 H1146 H 0.57452 0.79594 0.59945
 H1147 H 0.57669 0.73345 0.58401
 H1148 H 0.60823 0.73232 0.61346
 H1149 H 0.67817 0.77414 0.62917
 H1150 H 0.71019 0.77136 0.65669
 H1151 H 0.68293 0.74340 0.74313
 H1152 H 0.65102 0.74628 0.71526
   
