data_POSCAR
  _audit_creation_date              2014-09-24
  _audit_creation_method            'ToBaCCo'
  _symmetry_space_group_name_H-M    'P1'
  _symmetry_Int_Tables_number       1
  _symmetry_cell_setting            triclinic
  loop_
  _symmetry_equiv_pos_as_xyz
 x,y,z
_cell_length_a 30.4292
_cell_length_b 30.2592
_cell_length_c 30.4104
_cell_angle_alpha 81.540900
_cell_angle_beta 97.151400
_cell_angle_gamma 99.906300
loop_
  _atom_site_label
  _atom_site_type_symbol
  _atom_site_fract_x
  _atom_site_fract_y
  _atom_site_fract_z
C1 C 0.60349 0.58506 0.00546
 C2 C 0.61103 0.53989 0.00972
 C3 C 0.57346 0.50536 0.01114
 C4 C 0.52929 0.51516 0.00474
 C5 C 0.52340 0.56115 -0.00150
 C6 C 0.56009 0.59645 0.00160
 C7 C 0.48945 0.47766 0.00554
 C8 C 0.44737 0.48600 0.01431
 C9 C 0.40918 0.45287 0.01214
 C10 C 0.41350 0.40932 0.00485
 C11 C 0.45536 0.39847 -0.00057
 C12 C 0.49276 0.43323 -0.00203
 H13 H 0.63139 0.61215 0.00141
 H14 H 0.57892 0.47071 0.01924
 H15 H 0.49006 0.56951 -0.00701
 H16 H 0.44355 0.51810 0.02358
 H17 H 0.38387 0.38384 0.00266
 H18 H 0.52426 0.42506 -0.00857
 C19 C -0.00732 0.59520 0.41505
 C20 C -0.01506 0.60184 0.45809
 C21 C -0.01514 0.56492 0.49210
 C22 C -0.00406 0.52344 0.48497
 C23 C 0.00449 0.51847 0.44141
 C24 C 0.00056 0.55326 0.40532
 C25 C -0.00277 0.48531 0.52285
 C26 C -0.00832 0.44001 0.51445
 C27 C -0.00626 0.40443 0.54948
 C28 C -0.00214 0.41368 0.59375
 C29 C 0.00237 0.45821 0.60348
 C30 C 0.00377 0.49378 0.56794
 H31 H -0.00374 0.62406 0.38955
 H32 H -0.02573 0.56812 0.52390
 H33 H 0.01276 0.48694 0.43533
 H34 H -0.01379 0.43176 0.48069
 H35 H -0.00344 0.38583 0.62059
 H36 H 0.01060 0.52807 0.57598
 C37 C 0.58221 -0.00155 0.58293
 C38 C 0.53750 -0.00782 0.59241
 C39 C 0.50312 -0.01115 0.55730
 C40 C 0.51265 -0.00434 0.51245
 C41 C 0.55820 0.00318 0.50386
 C42 C 0.59346 0.00231 0.53884
 C43 C 0.47532 -0.00482 0.47486
 C44 C 0.48241 -0.01345 0.43220
 C45 C 0.44919 -0.01057 0.39603
 C46 C 0.40679 -0.00260 0.40320
 C47 C 0.39748 0.00333 0.44584
 C48 C 0.43235 0.00375 0.48097
 H49 H 0.60838 0.00281 0.61015
 H50 H 0.46894 -0.01939 0.56561
 H51 H 0.56615 0.00828 0.46983
 H52 H 0.51363 -0.02292 0.42645
 H53 H 0.38126 0.00009 0.37518
 H54 H 0.42546 0.01048 0.51307
 O55 O 0.46313 -0.01027 -0.07124
 O56 O 0.45810 -0.02240 0.04998
 O57 O 0.45347 0.04378 -0.01468
 O58 O 0.47131 -0.07527 -0.00626
 O59 O 0.54427 -0.05280 0.00466
 O60 O 0.52665 0.06574 -0.00636
 O61 O 0.53103 0.00063 0.05993
 O62 O 0.53649 0.01026 -0.06144
 Cu63 Cu 0.45417 -0.01815 -0.01150
 Cu64 Cu 0.54189 0.00829 0.00024
 C65 C 0.50073 0.00108 -0.08701
 C66 C 0.49352 -0.01265 0.07572
 C67 C 0.48708 0.07510 -0.01193
 C68 C 0.51113 -0.08425 0.00031
 O69 O -0.04309 0.54023 0.99628
 O70 O 0.07799 0.53609 1.00420
 O71 O 0.01301 0.53441 0.93977
 O72 O 0.02236 0.54596 1.05899
 O73 O 0.00815 0.47184 1.07600
 O74 O 0.00062 0.46009 0.95544
 O75 O 0.06414 0.46195 1.02120
 O76 O -0.05658 0.46589 1.01145
 Cu77 Cu 0.01893 0.54654 0.99805
 Cu78 Cu 0.00268 0.45748 1.01753
 C79 C -0.07051 0.50374 1.00305
 C80 C 0.09174 0.49815 1.01426
 C81 C 0.00570 0.49548 0.92703
 C82 C 0.01641 0.51128 1.08792
 O83 O -0.01788 -0.04952 0.45582
 O84 O -0.00359 0.07310 0.46086
 O85 O 0.04992 0.01601 0.45253
 O86 O -0.07076 0.00828 0.46078
 O87 O -0.05877 -0.00374 0.53430
 O88 O 0.06255 0.00414 0.52601
 O89 O 0.00916 0.06041 0.53430
 O90 O -0.00567 -0.06151 0.52931
 Cu91 Cu -0.01154 0.01316 0.45009
 Cu92 Cu 0.00319 -0.00155 0.53832
 C93 C -0.01440 -0.07650 0.49185
 C94 C 0.00430 0.08755 0.49870
 C95 C 0.07689 0.01130 0.48766
 C96 C -0.08541 0.00159 0.49889
 C97 C -0.25652 0.51435 1.00887
 C98 C -0.29286 0.48236 0.99530
 C99 C -0.33659 0.49004 0.99676
 C100 C -0.34471 0.52980 1.01145
 C101 C -0.30681 0.56014 1.02601
 N102 N -0.26472 0.55189 1.02398
 C103 C -0.20943 0.50975 1.00583
 N104 N -0.17833 0.54792 1.00252
 C105 C -0.13420 0.54687 1.00044
 C106 C -0.11887 0.50541 1.00237
 C107 C -0.15032 0.46555 1.00581
 C108 C -0.19558 0.46755 1.00747
 H109 H -0.36367 0.46583 0.98371
 H110 H -0.31008 0.59009 1.03999
 H111 H -0.11112 0.57842 0.99814
 H112 H -0.13988 0.43280 1.00774
 H113 H -0.28786 0.45257 0.98197
 H114 H -0.21899 0.43633 1.01121
 C115 C 0.27810 0.48281 1.01953
 C116 C 0.30908 0.51468 0.99621
 C117 C 0.35210 0.50528 0.99470
 C118 C 0.36445 0.46424 1.01614
 C119 C 0.33274 0.43360 1.03959
 N120 N 0.29096 0.44340 1.04042
 C121 C 0.23096 0.48909 1.01969
 N122 N 0.19983 0.45177 1.02856
 C123 C 0.15557 0.45400 1.02777
 C124 C 0.14016 0.49580 1.01733
 C125 C 0.17171 0.53493 1.00909
 C126 C 0.21711 0.53178 1.01039
 H127 H 0.37525 0.52948 0.97548
 H128 H 0.34100 0.40177 1.05701
 H129 H 0.13249 0.42297 1.03474
 H130 H 0.16133 0.56793 1.00138
 H131 H 0.30005 0.54577 0.97786
 H132 H 0.24076 0.56252 1.00443
 C133 C -0.02632 -0.26653 0.48208
 C134 C -0.01097 -0.29733 0.51737
 C135 C -0.00874 -0.34123 0.50990
 C136 C -0.02117 -0.35495 0.46710
 C137 C -0.03777 -0.32311 0.43318
 N138 N -0.03951 -0.28060 0.44138
 C139 C -0.02572 -0.21834 0.48648
 N140 N -0.02709 -0.18820 0.44856
 C141 C -0.02455 -0.14307 0.44936
 C142 C -0.01985 -0.12571 0.49027
 C143 C -0.01949 -0.15620 0.52979
 C144 C -0.02268 -0.20245 0.52808
 H145 H 0.00566 -0.36313 0.53726
 H146 H -0.05009 -0.33179 0.40014
 H147 H -0.02533 -0.12084 0.41805
 H148 H -0.01655 -0.14431 0.56209
 H149 H 0.00123 -0.28751 0.54999
 H150 H -0.02285 -0.22509 0.55907
 C151 C -0.00214 0.27144 0.51997
 C152 C -0.03245 0.29728 0.49394
 C153 C -0.03455 0.34037 0.50394
 C154 C -0.00662 0.35775 0.53978
 C155 C 0.02266 0.33051 0.56534
 N156 N 0.02403 0.28868 0.55500
 C157 C 0.00104 0.22521 0.51197
 N158 N 0.01634 0.19631 0.54683
 C159 C 0.01913 0.15283 0.54290
 C160 C 0.00599 0.13601 0.50187
 C161 C -0.00846 0.16559 0.46500
 C162 C -0.01097 0.21022 0.46988
 H163 H -0.05829 0.35988 0.48393
 H164 H 0.04514 0.34274 0.59295
 H165 H 0.03084 0.13129 0.57211
 H166 H -0.01876 0.15400 0.43271
 H167 H -0.05497 0.28424 0.46677
 H168 H -0.02204 0.23250 0.44101
 C169 C 0.51252 -0.00488 -0.27278
 C170 C 0.48482 0.01458 -0.30806
 C171 C 0.49224 0.01266 -0.35204
 C172 C 0.52697 -0.00884 -0.36099
 C173 C 0.55316 -0.02879 -0.32462
 N174 N 0.54568 -0.02592 -0.28212
 C175 C 0.50806 -0.00157 -0.22571
 N176 N 0.54537 -0.00046 -0.19590
 C177 C 0.54399 0.00179 -0.15185
 C178 C 0.50304 0.00215 -0.13533
 C179 C 0.46409 0.00094 -0.16544
 C180 C 0.46647 -0.00069 -0.21068
 H181 H 0.47181 0.02938 -0.37896
 H182 H 0.57984 -0.04633 -0.32985
 H183 H 0.57474 0.00219 -0.12968
 H184 H 0.43177 0.00085 -0.15397
 H185 H 0.45884 0.03256 -0.30191
 H186 H 0.43596 -0.00253 -0.23326
 C187 C 0.47734 -0.01733 0.26289
 C188 C 0.50968 0.00606 0.29189
 C189 C 0.50071 0.00747 0.33546
 C190 C 0.45960 -0.01407 0.35038
 C191 C 0.42827 -0.03726 0.32050
 N192 N 0.43773 -0.03811 0.27814
 C193 C 0.48367 -0.01785 0.21546
 N194 N 0.44673 -0.02749 0.18624
 C195 C 0.44919 -0.02700 0.14188
 C196 C 0.49080 -0.01595 0.12433
 C197 C 0.52949 -0.00699 0.15392
 C198 C 0.52615 -0.00814 0.19944
 H199 H 0.52543 0.02661 0.35709
 H200 H 0.39628 -0.05462 0.33073
 H201 H 0.41848 -0.03447 0.12035
 H202 H 0.56233 0.00115 0.14189
 H203 H 0.54097 0.02445 0.28102
 H204 H 0.55660 -0.00169 0.22148
 C205 C 0.54274 -0.26746 0.00340
 C206 C 0.58187 -0.28297 0.02448
 C207 C 0.58751 -0.32747 0.02340
 C208 C 0.55419 -0.35775 0.00167
 C209 C 0.51486 -0.34076 -0.01819
 N210 N 0.51042 -0.29692 -0.01693
 C211 C 0.53560 -0.22007 0.00321
 N212 N 0.49304 -0.21020 -0.00266
 C213 C 0.48423 -0.16744 -0.00323
 C214 C 0.51952 -0.13139 0.00213
 C215 C 0.56358 -0.14081 0.00779
 C216 C 0.57176 -0.18478 0.00815
 H217 H 0.61742 -0.33837 0.04172
 H218 H 0.48820 -0.36130 -0.03637
 H219 H 0.44973 -0.16168 -0.00809
 H220 H 0.59192 -0.11407 0.01143
 H221 H 0.60764 -0.26154 0.04283
 H222 H 0.60617 -0.19055 0.01130
 C223 C 0.46516 0.25998 -0.00913
 C224 C 0.43609 0.27009 0.01897
 C225 C 0.43351 0.31504 0.02193
 C226 C 0.45938 0.35045 -0.00337
 C227 C 0.48867 0.33886 -0.03061
 N228 N 0.49092 0.29458 -0.03262
 C229 C 0.46920 0.21248 -0.01236
 N230 N 0.50976 0.20196 -0.01782
 C231 C 0.51604 0.15863 -0.01870
 C232 C 0.48013 0.12273 -0.01408
 C233 C 0.43776 0.13306 -0.00987
 C234 C 0.43219 0.17773 -0.00889
 H235 H 0.41160 0.32201 0.04464
 H236 H 0.50921 0.36479 -0.05084
 H237 H 0.54919 0.15224 -0.02252
 H238 H 0.40910 0.10654 -0.00645
 H239 H 0.41626 0.24358 0.03935
 H240 H 0.39923 0.18493 -0.00552
 C241 C -0.27163 0.00489 0.51463
 C242 C -0.30089 0.02511 0.48140
 C243 C -0.34526 0.02469 0.48922
 C244 C -0.36110 0.00452 0.53038
 C245 C -0.32994 -0.01467 0.56288
 N246 N -0.28711 -0.01401 0.55422
 C247 C -0.22414 0.00395 0.50872
 N248 N -0.19492 -0.00346 0.54579
 C249 C -0.15087 -0.00498 0.54353
 C250 C -0.13371 0.00108 0.50194
 C251 C -0.16335 0.00802 0.46322
 C252 C -0.20846 0.00935 0.46640
 H253 H -0.36618 0.04200 0.46334
 H254 H -0.33968 -0.03225 0.59460
 H255 H -0.12932 -0.01056 0.57427
 H256 H -0.15167 0.01257 0.43039
 H257 H -0.28973 0.04208 0.44998
 H258 H -0.23058 0.01391 0.43596
 C259 C 0.26314 0.01356 0.46844
 C260 C 0.29947 0.03844 0.49187
 C261 C 0.34328 0.03577 0.48424
 C262 C 0.35110 0.00809 0.45362
 C263 C 0.31362 -0.01602 0.43084
 N264 N 0.27140 -0.01251 0.43852
 C265 C 0.21599 0.01516 0.47463
 N266 N 0.18404 0.00882 0.43964
 C267 C 0.13982 0.00835 0.44290
 C268 C 0.12525 0.01350 0.48362
 C269 C 0.15754 0.01977 0.52030
 C270 C 0.20295 0.02091 0.51588
 H271 H 0.37087 0.05587 0.50188
 H272 H 0.31771 -0.03837 0.40748
 H273 H 0.11604 0.00308 0.41386
 H274 H 0.14770 0.02371 0.55234
 H275 H 0.29418 0.06040 0.51513
 H276 H 0.22727 0.02499 0.54473
 C277 C 0.01074 0.53575 1.27111
 C278 C -0.01265 0.56876 1.28012
 C279 C -0.01613 0.57408 1.32411
 C280 C 0.00401 0.54694 1.36027
 C281 C 0.02631 0.51322 1.34928
 N282 N 0.02901 0.50866 1.30579
 C283 C 0.01519 0.53001 1.22446
 N284 N 0.01320 0.48785 1.21281
 C285 C 0.01450 0.48086 1.16973
 C286 C 0.01800 0.51764 1.13554
 C287 C 0.02158 0.56135 1.14732
 C288 C 0.02018 0.56763 1.19150
 H289 H -0.03646 0.59854 1.32917
 H290 H 0.04330 0.49150 1.37469
 H291 H 0.01212 0.44663 1.16218
 H292 H 0.02470 0.59081 1.12227
 H293 H -0.02917 0.58971 1.25336
 H294 H 0.02292 0.60168 1.19974
 C295 C 0.00347 0.48043 0.73995
 C296 C -0.01783 0.50801 0.70551
 C297 C -0.01743 0.50133 0.66110
 C298 C 0.00418 0.46732 0.65064
 C299 C 0.02542 0.44076 0.68615
 N300 N 0.02427 0.44768 0.72917
 C301 C 0.00304 0.48531 0.78768
 N302 N 0.00539 0.44847 0.81910
 C303 C 0.00546 0.45058 0.86353
 C304 C 0.00376 0.49183 0.87872
 C305 C 0.00168 0.53026 0.84690
 C306 C 0.00122 0.52716 0.80152
 H307 H -0.03522 0.52193 0.63508
 H308 H 0.04300 0.41451 0.67984
 H309 H 0.00752 0.42020 0.88693
 H310 H 0.00062 0.56286 0.85707
 H311 H -0.03581 0.53358 0.71267
 H312 H 0.00050 0.55748 0.77780
   
