data_POSCAR
  _audit_creation_date              2014-09-24
  _audit_creation_method            'ToBaCCo'
  _symmetry_space_group_name_H-M    'P1'
  _symmetry_Int_Tables_number       1
  _symmetry_cell_setting            triclinic
  loop_
  _symmetry_equiv_pos_as_xyz
 x,y,z
_cell_length_a 27.9926
_cell_length_b 28.4043
_cell_length_c 66.4063
_cell_angle_alpha 87.917400
_cell_angle_beta 91.153500
_cell_angle_gamma 117.114700
loop_
  _atom_site_label
  _atom_site_type_symbol
  _atom_site_fract_x
  _atom_site_fract_y
  _atom_site_fract_z
C1 C 0.06127 0.07566 0.52351
 H2 H 0.10050 0.07693 0.52385
 C3 C 0.05068 0.10855 0.53579
 H4 H 0.08179 0.13466 0.54579
 C5 C -0.02683 0.04002 0.50994
 H6 H -0.05652 0.01410 0.49954
 C7 C -0.03938 0.07186 0.52220
 H8 H -0.07890 0.06993 0.52123
 N9 N 0.02273 0.04218 0.51096
 C10 C 0.07350 -0.07918 0.50060
 H11 H 0.08044 -0.07417 0.48452
 C12 C 0.07947 -0.11939 0.51136
 H13 H 0.09126 -0.14515 0.50348
 C14 C 0.04698 -0.05337 0.53023
 H15 H 0.03324 -0.02829 0.53745
 C16 C 0.05183 -0.09344 0.54150
 H17 H 0.04275 -0.09820 0.55745
 Zn18 Zn 0.04417 0.00239 0.49437
 N19 N 0.05769 -0.04707 0.51015
 C20 C 0.15381 0.04920 0.48115
 N21 N 0.10640 0.05172 0.48061
 C22 C 0.10113 0.09110 0.47013
 C23 C 0.14413 0.12936 0.45922
 C24 C 0.19792 0.08659 0.47028
 C25 C -0.05834 -0.07370 0.48196
 C26 C -0.09661 -0.10701 0.46838
 C27 C -0.03300 -0.06448 0.44151
 C28 C 0.00344 -0.03155 0.45557
 N29 N -0.00948 -0.03687 0.47539
 H30 H 0.15753 0.01825 0.48991
 H31 H 0.06305 0.09230 0.47009
 H32 H 0.13866 0.15967 0.45060
 H33 H 0.23536 0.08404 0.47073
 H34 H -0.06705 -0.07835 0.49792
 H35 H -0.13366 -0.13720 0.47469
 H36 H -0.02082 -0.05699 0.42591
 H37 H 0.04275 -0.00260 0.45060
 C38 C 0.06790 -0.12727 0.53203
 C39 C -0.00018 0.10687 0.53524
 C40 C -0.08425 -0.10411 0.44762
 C41 C 0.19324 0.12725 0.45910
 C42 C 1.09144 0.07174 0.14531
 H43 H 1.09295 0.11046 0.14556
 C44 C 1.12546 0.06301 0.13259
 H45 H 1.15276 0.09513 0.12289
 C46 C 1.05331 -0.01730 0.15753
 H47 H 1.02557 -0.04826 0.16745
 C48 C 1.08636 -0.02791 0.14488
 H49 H 1.08373 -0.06716 0.14515
 N50 N 1.05604 0.03179 0.15733
 C51 C 0.92927 0.07708 0.16721
 H52 H 0.93205 0.08214 0.18334
 C53 C 0.88966 0.08363 0.15610
 H54 H 0.86201 0.09388 0.16374
 C55 C 0.96042 0.05517 0.13778
 H56 H 0.98733 0.04305 0.13075
 C57 C 0.92108 0.06069 0.12616
 H58 H 0.91874 0.05372 0.11016
 Zn59 Zn 1.01261 0.04907 0.17396
 N60 N 0.96372 0.06325 0.15793
 C61 C 1.05776 0.15622 0.18612
 N62 N 1.05952 0.10926 0.18840
 C63 C 1.09676 0.10427 0.20052
 C64 C 1.13256 0.14679 0.21169
 C65 C 1.09346 0.20012 0.19677
 C66 C 0.93246 -0.05293 0.18374
 C67 C 0.89875 -0.09545 0.19620
 C68 C 0.94512 -0.04505 0.22514
 C69 C 0.97747 -0.00331 0.21217
 N70 N 0.97109 -0.00811 0.19185
 H71 H 1.02911 0.15995 0.17588
 H72 H 1.09801 0.06676 0.20173
 H73 H 1.16029 0.14097 0.22183
 H74 H 1.09176 0.23726 0.19451
 H75 H 0.92756 -0.05537 0.16755
 H76 H 0.86827 -0.13089 0.18951
 H77 H 0.95044 -0.04037 0.24127
 H78 H 1.00695 0.03311 0.21843
 C79 C 0.88486 0.07472 0.13534
 C80 C 1.12301 0.01259 0.13220
 C81 C 0.90507 -0.09177 0.21719
 C82 C 1.13126 0.19568 0.20997
 C83 C -0.01657 0.88817 0.86205
 H84 H -0.04696 0.84874 0.85873
 C85 C 0.02174 0.89490 0.87686
 H86 H 0.02047 0.86035 0.88478
 C87 C 0.02313 0.98054 0.85506
 H88 H 0.02379 1.01381 0.84648
 C89 C 0.06234 0.98914 0.86986
 H90 H 0.09232 1.02918 0.87268
 N91 N -0.01594 0.93066 0.85172
 C92 C -0.16535 0.92699 0.84064
 H93 H -0.15552 0.95018 0.82670
 C94 C -0.20759 0.92395 0.85233
 H95 H -0.23006 0.94405 0.84659
 C96 C -0.14943 0.87061 0.86384
 H97 H -0.12619 0.85047 0.86847
 C98 C -0.19134 0.86641 0.87603
 H99 H -0.19772 0.84392 0.89006
 Zn100 Zn -0.07252 0.91521 0.83281
 N101 N -0.13604 0.90199 0.84687
 C102 C -0.13032 0.81280 0.81636
 N103 N -0.08139 0.85482 0.81907
 C104 C -0.03621 0.85645 0.81122
 C105 C -0.03922 0.81540 0.79958
 C106 C -0.13521 0.77066 0.80477
 C107 C -0.04968 1.01982 0.81962
 C108 C -0.04408 1.05943 0.80535
 C109 C -0.05242 0.99973 0.77900
 C110 C -0.05769 0.96144 0.79371
 N111 N -0.05676 0.97172 0.81361
 H112 H -0.16564 0.81255 0.82279
 H113 H 0.00209 0.89059 0.81356
 H114 H -0.00291 0.81859 0.79285
 H115 H -0.17445 0.73768 0.80253
 H116 H -0.05072 1.02667 0.83548
 H117 H -0.04028 1.09683 0.81038
 H118 H -0.05394 0.99044 0.76326
 H119 H -0.06435 0.92289 0.78909
 C120 C -0.22036 0.89484 0.87083
 C121 C 0.06149 0.94595 0.88116
 C122 C -0.04640 1.04917 0.78474
 C123 C -0.08925 0.77196 0.79603
 C124 C 0.37320 0.07186 0.01293
 C125 C 0.36756 0.06983 -0.00763
 C126 C 0.40022 0.04898 -0.01444
 N127 N 0.42560 0.03824 0.00125
 C128 C 0.40929 0.05237 0.01799
 C129 C 0.40328 0.03674 -0.03466
 C130 C 0.44137 0.02109 -0.04140
 C131 C 0.43859 -0.00234 -0.05965
 C132 C 0.48426 -0.00863 -0.06103
 C133 C 0.51355 0.01087 -0.04356
 N134 N 0.48730 0.02915 -0.03170
 C135 C 0.56457 0.01395 -0.03949
 C136 C 0.58820 0.02259 -0.02013
 C137 C 0.64045 0.03193 -0.01600
 C138 C 0.64634 0.03434 0.00453
 C139 C 0.59745 0.02629 0.01227
 N140 N 0.56194 0.01901 -0.00284
 C141 C 0.58526 0.02199 0.03301
 C142 C 0.53787 0.02112 0.04046
 C143 C 0.51957 0.00707 0.06009
 C144 C 0.47393 0.01352 0.06146
 C145 C 0.46551 0.03120 0.04262
 N146 N 0.50488 0.03613 0.02996
 C147 C 0.42371 0.04468 0.03789
 H148 H 0.35278 0.08575 0.02302
 H149 H 0.34196 0.08188 -0.01652
 H150 H 0.51194 0.05395 0.01565
 H151 H 0.40702 -0.01363 -0.07087
 H152 H 0.49475 -0.02554 -0.07352
 H153 H 0.67099 0.03613 -0.02666
 H154 H 0.68240 0.04084 0.01283
 H155 H 0.44976 0.00610 0.07483
 H156 H 0.50267 0.05116 -0.01888
 H157 H 0.53731 -0.00632 0.07219
 C158 C 0.05455 0.35234 0.65045
 C159 C 0.05352 0.34658 0.67106
 C160 C 0.03339 0.37922 0.67819
 N161 N 0.02203 0.40463 0.66265
 C162 C 0.03518 0.38845 0.64567
 C163 C 0.02273 0.38266 0.69864
 C164 C 0.00758 0.42035 0.70559
 C165 C -0.01461 0.41786 0.72433
 C166 C -0.02036 0.46315 0.72579
 C167 C -0.00162 0.49199 0.70789
 N168 N 0.01545 0.46571 0.69567
 C169 C 0.00237 0.54277 0.70380
 C170 C 0.01009 0.56623 0.68425
 C171 C 0.02046 0.61809 0.67991
 C172 C 0.02179 0.62409 0.65932
 C173 C 0.01229 0.57571 0.65176
 N174 N 0.00495 0.54034 0.66703
 C175 C 0.00706 0.56407 0.63109
 C176 C 0.00525 0.51726 0.62362
 C177 C -0.00918 0.50015 0.60411
 C178 C -0.00350 0.45474 0.60264
 C179 C 0.01413 0.44529 0.62130
 N180 N 0.01977 0.48381 0.63394
 C181 C 0.02708 0.40341 0.62586
 H182 H 0.06786 0.33208 0.64015
 H183 H 0.06586 0.32103 0.67977
 H184 H 0.03788 0.48999 0.64805
 H185 H -0.02527 0.38680 0.73584
 H186 H -0.03621 0.47379 0.73863
 H187 H 0.02616 0.64839 0.69047
 H188 H 0.02874 0.65994 0.65088
 H189 H -0.01130 0.43144 0.58932
 H190 H 0.03706 0.48076 0.68243
 H191 H -0.02221 0.51859 0.59214
 C192 C 0.62258 0.69823 0.34383
 C193 C 0.62172 0.69805 0.32319
 C194 C 0.59366 0.64558 0.31789
 N195 N 0.57745 0.61375 0.33458
 C196 C 0.59517 0.64585 0.35047
 C197 C 0.58717 0.62760 0.29799
 C198 C 0.55074 0.57541 0.29279
 C199 C 0.54933 0.55338 0.27436
 C200 C 0.50631 0.50371 0.27487
 C201 C 0.48296 0.49640 0.29371
 N202 N 0.51000 0.54052 0.30444
 C203 C 0.43580 0.45128 0.30002
 C204 C 0.41886 0.44016 0.32032
 C205 C 0.37057 0.39907 0.32681
 C206 C 0.37115 0.39973 0.34744
 C207 C 0.42005 0.44075 0.35293
 N208 N 0.44923 0.46525 0.33634
 C209 C 0.43834 0.45268 0.37298
 C210 C 0.48645 0.49732 0.37811
 C211 C 0.51242 0.50358 0.39654
 C212 C 0.55588 0.55297 0.39588
 C213 C 0.55486 0.57577 0.37715
 N214 N 0.51237 0.54151 0.36640
 C215 C 0.59078 0.62804 0.37082
 H216 H 0.64168 0.73293 0.35292
 H217 H 0.64003 0.73257 0.31321
 H218 H 0.49834 0.55002 0.35283
 H219 H 0.57609 0.57139 0.26173
 H220 H 0.49358 0.47641 0.26264
 H221 H 0.33841 0.37100 0.31770
 H222 H 0.33944 0.37255 0.35726
 H223 H 0.58467 0.57017 0.40792
 H224 H 0.49781 0.54859 0.31801
 H225 H 0.50123 0.47544 0.40914
 C226 C 0.02518 0.19499 0.55009
 C227 C 0.01597 0.22711 0.56346
 C228 C -0.03100 0.20530 0.57536
 C229 C -0.06865 0.15217 0.57322
 C230 C -0.05926 0.12054 0.55978
 C231 C -0.01196 0.14139 0.54836
 C232 C -0.03913 0.23666 0.58941
 C233 C -0.00084 0.28950 0.59174
 C234 C 0.04543 0.31172 0.57944
 C235 C 0.05347 0.28040 0.56536
 C236 C 0.08347 0.36467 0.58172
 C237 C 0.07655 0.39494 0.59643
 C238 C 0.03159 0.37271 0.60905
 C239 C -0.00743 0.32025 0.60648
 H240 H 0.06143 0.21156 0.54111
 H241 H -0.10495 0.13485 0.58215
 H242 H -0.08827 0.07930 0.55875
 H243 H -0.07477 0.21971 0.59875
 H244 H 0.08932 0.29722 0.55614
 H245 H 0.11902 0.38236 0.57238
 H246 H 0.10690 0.43536 0.59834
 H247 H -0.04214 0.30322 0.61628
 C248 C 0.81353 0.83944 0.22780
 C249 C 0.77951 0.79993 0.24143
 C250 C 0.80183 0.78432 0.25811
 C251 C 0.85763 0.80832 0.26082
 C252 C 0.89108 0.84815 0.24738
 C253 C 0.86942 0.86424 0.23083
 C254 C 0.76806 0.74565 0.27199
 C255 C 0.71218 0.72307 0.26965
 C256 C 0.68972 0.73863 0.25302
 C257 C 0.72356 0.77662 0.23891
 C258 C 0.63371 0.71647 0.25098
 C259 C 0.60030 0.67997 0.26547
 C260 C 0.62238 0.66470 0.28208
 C261 C 0.67836 0.68587 0.28394
 H262 H 0.79648 0.85209 0.21519
 H263 H 0.87538 0.79679 0.27350
 H264 H 0.93405 0.86644 0.24988
 H265 H 0.78523 0.73386 0.28480
 H266 H 0.70636 0.78870 0.22618
 H267 H 0.61578 0.72793 0.23834
 H268 H 0.55718 0.66402 0.26388
 H269 H 0.69540 0.67396 0.29676
 C270 C 0.15579 -0.00976 -0.10517
 C271 C 0.19385 -0.00502 -0.09022
 C272 C 0.17733 -0.03730 -0.07246
 C273 C 0.12305 -0.07286 -0.06976
 C274 C 0.08554 -0.07737 -0.08467
 C275 C 0.10148 -0.04651 -0.10263
 C276 C 0.21533 -0.03410 -0.05781
 C277 C 0.26977 0.00083 -0.06068
 C278 C 0.28633 0.03389 -0.07824
 C279 C 0.24824 0.03080 -0.09289
 C280 C 0.34088 0.06896 -0.08097
 C281 C 0.37874 0.07062 -0.06660
 C282 C 0.36267 0.03720 -0.04933
 C283 C 0.30807 0.00263 -0.04638
 H284 H 0.16870 0.01398 -0.11899
 H285 H 0.10965 -0.09757 -0.05617
 H286 H 0.04384 -0.10517 -0.08214
 H287 H 0.20263 -0.05927 -0.04430
 H288 H 0.26100 0.05574 -0.10646
 H289 H 0.35431 0.09468 -0.09429
 H290 H 0.42078 0.09750 -0.06903
 H291 H 0.29570 -0.02340 -0.03310
 C292 C 0.02880 0.79590 0.55660
 C293 C 0.03119 0.75407 0.56772
 C294 C 0.07634 0.74466 0.56590
 C295 C 0.11784 0.77673 0.55268
 C296 C 0.11492 0.81808 0.54153
 C297 C 0.07070 0.82835 0.54355
 C298 C 0.07945 0.70371 0.57744
 C299 C 0.03798 0.67214 0.59078
 C300 C -0.00764 0.68101 0.59226
 C301 C -0.01076 0.72181 0.58071
 C302 C -0.04908 0.64946 0.60556
 C303 C -0.04481 0.61042 0.61770
 C304 C 0.00085 0.60220 0.61671
 C305 C 0.04180 0.63253 0.60299
 H306 H -0.00589 0.80301 0.55798
 H307 H 0.15268 0.77004 0.55104
 H308 H 0.14768 0.84269 0.53158
 H309 H 0.11434 0.69685 0.57621
 H310 H -0.04552 0.72887 0.58201
 H311 H -0.08436 0.65561 0.60683
 H312 H -0.07663 0.58720 0.62823
 H313 H 0.07711 0.62620 0.60230
 C314 C 0.22072 0.24859 0.22674
 C315 C 0.25475 0.28961 0.23914
 C316 C 0.23708 0.32498 0.24660
 C317 C 0.18564 0.31855 0.24158
 C318 C 0.15157 0.27691 0.22959
 C319 C 0.16851 0.24127 0.22208
 C320 C 0.27069 0.36559 0.25923
 C321 C 0.32122 0.37044 0.26492
 C322 C 0.33873 0.33474 0.25760
 C323 C 0.30571 0.29506 0.24454
 C324 C 0.38857 0.33866 0.26383
 C325 C 0.42033 0.37693 0.27748
 C326 C 0.40327 0.41252 0.28474
 C327 C 0.35403 0.40960 0.27822
 H328 H 0.23498 0.22226 0.22080
 H329 H 0.17132 0.34511 0.24725
 H330 H 0.11143 0.27198 0.22661
 H331 H 0.25707 0.39268 0.26496
 H332 H 0.31914 0.26769 0.23894
 H333 H 0.40251 0.31152 0.25845
 H334 H 0.45812 0.37866 0.28252
 H335 H 0.34078 0.43690 0.28401
 C336 C 0.72946 -0.06016 -0.11624
 C337 C 0.69540 -0.05611 -0.10193
 C338 C 0.67163 -0.09634 -0.08693
 C339 C 0.68116 -0.14059 -0.08683
 C340 C 0.71537 -0.14428 -0.10102
 C341 C 0.74115 -0.10373 -0.11581
 C342 C 0.63954 -0.09124 -0.07205
 C343 C 0.63138 -0.04606 -0.07190
 C344 C 0.65437 -0.00617 -0.08715
 C345 C 0.68608 -0.01155 -0.10209
 C346 C 0.64596 0.03888 -0.08701
 C347 C 0.61597 0.04490 -0.07167
 C348 C 0.59410 0.00607 -0.05626
 C349 C 0.60135 -0.03963 -0.05654
 H350 H 0.74932 -0.02720 -0.12679
 H351 H 0.66256 -0.17225 -0.07562
 H352 H 0.72040 -0.17984 -0.10046
 H353 H 0.62176 -0.12193 -0.06040
 H354 H 0.70421 0.01936 -0.11364
 H355 H 0.66311 0.06971 -0.09862
 H356 H 0.61044 0.08024 -0.07159
 H357 H 0.58416 -0.06966 -0.04464
 C358 C 0.21218 0.03928 0.11599
 C359 C 0.24451 0.03140 0.10197
 C360 C 0.22224 -0.01400 0.09004
 C361 C 0.16840 -0.05130 0.09271
 C362 C 0.13655 -0.04321 0.10675
 C363 C 0.15787 0.00240 0.11831
 C364 C 0.25386 -0.02100 0.07547
 C365 C 0.30747 0.01685 0.07266
 C366 C 0.33012 0.06167 0.08491
 C367 C 0.29850 0.06861 0.09950
 C368 C 0.38387 0.09923 0.08215
 C369 C 0.41461 0.09303 0.06712
 C370 C 0.39202 0.04934 0.05464
 C371 C 0.33864 0.01103 0.05759
 H372 H 0.22918 0.07423 0.12506
 H373 H 0.15071 -0.08637 0.08373
 H374 H 0.09475 -0.07195 0.10817
 H375 H 0.23659 -0.05551 0.06616
 H376 H 0.31569 0.10328 0.10872
 H377 H 0.40191 0.13368 0.09143
 H378 H 0.45578 0.12279 0.06495
 H379 H 0.32139 -0.02277 0.04793
 C380 C 0.82453 0.83371 0.43796
 C381 C 0.78890 0.79767 0.42420
 C382 C 0.80896 0.78742 0.40645
 C383 C 0.86387 0.81415 0.40247
 C384 C 0.89899 0.85064 0.41593
 C385 C 0.88056 0.86119 0.43416
 C386 C 0.77385 0.75080 0.39286
 C387 C 0.71853 0.72518 0.39652
 C388 C 0.69798 0.73637 0.41399
 C389 C 0.73335 0.77214 0.42784
 C390 C 0.64234 0.71182 0.41721
 C391 C 0.60745 0.67682 0.40317
 C392 C 0.62767 0.66504 0.38591
 C393 C 0.68338 0.68900 0.38281
 H394 H 0.80743 0.84189 0.45103
 H395 H 0.87992 0.80654 0.38894
 H396 H 0.94114 0.86772 0.41228
 H397 H 0.78952 0.74269 0.37931
 H398 H 0.71763 0.78037 0.44134
 H399 H 0.62581 0.72010 0.43045
 H400 H 0.56459 0.65890 0.40574
 H401 H 0.69918 0.67986 0.36954
 C402 C -0.00920 0.14240 0.77067
 C403 C -0.00891 0.17937 0.75597
 C404 C -0.04574 0.16218 0.73971
 C405 C -0.08189 0.10844 0.73834
 C406 C -0.08174 0.07196 0.75295
 C407 C -0.04553 0.08847 0.76924
 C408 C -0.04607 0.19892 0.72510
 C409 C -0.00995 0.25270 0.72649
 C410 C 0.02728 0.26996 0.74264
 C411 C 0.02754 0.23318 0.75728
 C412 C 0.06340 0.32384 0.74391
 C413 C 0.06235 0.36032 0.72944
 C414 C 0.02521 0.34347 0.71350
 C415 C -0.01076 0.28960 0.71205
 H416 H 0.01916 0.15544 0.78309
 H417 H -0.11046 0.09462 0.72601
 H418 H -0.11064 0.03076 0.75167
 H419 H -0.07452 0.18568 0.71270
 H420 H 0.05591 0.24644 0.76970
 H421 H 0.09222 0.33780 0.75615
 H422 H 0.09024 0.40184 0.73072
 H423 H -0.03966 0.27671 0.69980
 C424 C 0.81074 0.03827 0.10994
 C425 C 0.76996 0.04151 0.09827
 C426 C 0.75969 0.08556 0.09992
 C427 C 0.78976 0.12507 0.11355
 C428 C 0.83005 0.12129 0.12525
 C429 C 0.84127 0.07822 0.12338
 C430 C 0.71989 0.08957 0.08782
 C431 C 0.69025 0.05002 0.07412
 C432 C 0.69988 0.00543 0.07283
 C433 C 0.73961 0.00148 0.08491
 C434 C 0.67008 -0.03423 0.05926
 C435 C 0.63193 -0.02927 0.04672
 C436 C 0.62305 0.01542 0.04751
 C437 C 0.65173 0.05466 0.06144
 H438 H 0.81857 0.00446 0.10866
 H439 H 0.78235 0.15903 0.11507
 H440 H 0.85320 0.15255 0.13549
 H441 H 0.71238 0.12363 0.08892
 H442 H 0.74729 -0.03247 0.08375
 H443 H 0.67677 -0.06873 0.05814
 H444 H 0.60986 -0.05989 0.03609
 H445 H 0.64480 0.08915 0.06204
 C446 C 0.24997 0.22028 0.44650
 C447 C 0.28925 0.25698 0.43352
 C448 C 0.31792 0.23999 0.42080
 C449 C 0.30784 0.18685 0.42176
 C450 C 0.26848 0.15050 0.43469
 C451 C 0.23853 0.16665 0.44689
 C452 C 0.35522 0.27608 0.40705
 C453 C 0.36379 0.32877 0.40573
 C454 C 0.33606 0.34601 0.41883
 C455 C 0.29922 0.31008 0.43271
 C456 C 0.34469 0.39868 0.41751
 C457 C 0.37915 0.43359 0.40291
 C458 C 0.40552 0.41640 0.38948
 C459 C 0.39859 0.36425 0.39118
 H460 H 0.22763 0.23326 0.45609
 H461 H 0.32954 0.17316 0.41217
 H462 H 0.26016 0.10935 0.43465
 H463 H 0.37662 0.26288 0.39707
 H464 H 0.27739 0.32314 0.44253
 H465 H 0.32396 0.41258 0.42748
 H466 H 0.38434 0.47379 0.40175
 H467 H 0.41923 0.35117 0.38082
 C468 C -0.05293 0.71337 0.78257
 C469 C -0.05264 0.67882 0.76808
 C470 C -0.09380 0.65964 0.75338
 C471 C -0.13520 0.67443 0.75375
 C472 C -0.13477 0.70949 0.76807
 C473 C -0.09314 0.73008 0.78237
 C474 C -0.09217 0.62714 0.73827
 C475 C -0.04945 0.61426 0.73753
 C476 C -0.00876 0.63274 0.75246
 C477 C -0.01087 0.66453 0.76773
 C478 C 0.03400 0.61999 0.75164
 C479 C 0.03710 0.59016 0.73593
 C480 C -0.00252 0.57256 0.72087
 C481 C -0.04613 0.58407 0.72186
 H482 H -0.02112 0.72823 0.79375
 H483 H -0.16712 0.66006 0.74262
 H484 H -0.16593 0.72207 0.76744
 H485 H -0.12343 0.61290 0.72686
 H486 H 0.02066 0.67919 0.77903
 H487 H 0.06542 0.63371 0.76297
 H488 H 0.07083 0.58134 0.73532
 H489 H -0.07684 0.57016 0.71024
   
