data_POSCAR
  _audit_creation_date              2014-09-24
  _audit_creation_method            'ToBaCCo'
  _symmetry_space_group_name_H-M    'P1'
  _symmetry_Int_Tables_number       1
  _symmetry_cell_setting            triclinic
  loop_
  _symmetry_equiv_pos_as_xyz
 x,y,z
_cell_length_a 42.5686
_cell_length_b 42.6288
_cell_length_c 14.1374
_cell_angle_alpha 90.327500
_cell_angle_beta 89.996300
_cell_angle_gamma 119.747200
loop_
  _atom_site_label
  _atom_site_type_symbol
  _atom_site_fract_x
  _atom_site_fract_y
  _atom_site_fract_z
C1 C 0.18917 0.52034 0.43787
 C2 C 0.17447 0.51575 0.52873
 C3 C 0.19069 0.51050 0.60813
 C4 C 0.22521 0.51365 0.59905
 C5 C 0.24076 0.51779 0.50767
 C6 C 0.22270 0.52091 0.42661
 C7 C 0.23976 0.52649 0.33790
 C8 C 0.27123 0.52456 0.32694
 C9 C 0.28876 0.52021 0.40539
 C10 C 0.27425 0.51827 0.49716
 C11 C 0.24420 0.51194 0.67815
 C12 C 0.27780 0.51435 0.66825
 C13 C 0.29278 0.51609 0.57828
 C14 C 0.32633 0.51690 0.56703
 C15 C 0.33890 0.51689 0.47566
 C16 C 0.32022 0.51734 0.39492
 H17 H 0.22918 0.53256 0.27554
 H18 H 0.28226 0.52754 0.25653
 H19 H 0.23348 0.50920 0.74889
 H20 H 0.29167 0.51452 0.73241
 H21 H 0.14854 0.51416 0.53799
 H22 H 0.36180 0.51279 0.46622
 C23 C 0.51927 -0.31126 0.42633
 C24 C 0.52433 -0.32282 0.51400
 C25 C 0.52335 -0.30613 0.59872
 C26 C 0.51640 -0.27671 0.59437
 C27 C 0.51384 -0.26307 0.50463
 C28 C 0.51562 -0.28030 0.42038
 C29 C 0.51322 -0.26650 0.33227
 C30 C 0.51006 -0.23567 0.32659
 C31 C 0.50797 -0.21824 0.40879
 C32 C 0.50925 -0.23229 0.49877
 C33 C 0.51319 -0.25970 0.67627
 C34 C 0.50662 -0.23083 0.67043
 C35 C 0.50580 -0.21572 0.58259
 C36 C 0.50030 -0.18543 0.57543
 C37 C 0.50072 -0.17139 0.48581
 C38 C 0.50477 -0.18697 0.40330
 H39 H 0.51430 -0.27911 0.26665
 H40 H 0.50883 -0.22583 0.25702
 H41 H 0.51553 -0.26858 0.74605
 H42 H 0.50235 -0.22049 0.73621
 H43 H 0.52636 -0.34708 0.51616
 H44 H 0.50075 -0.14618 0.47948
 C45 C 1.18691 0.68757 0.39901
 C46 C 1.16877 0.66972 0.48090
 C47 C 1.18341 0.68157 0.57134
 C48 C 1.21856 0.71221 0.58049
 C49 C 1.23793 0.73050 0.49780
 C50 C 1.22209 0.71788 0.40674
 C51 C 1.24070 0.73734 0.32647
 C52 C 1.27368 0.76906 0.33461
 C53 C 1.28968 0.78284 0.42353
 C54 C 1.27158 0.76341 0.50644
 C55 C 1.23318 0.72737 0.66955
 C56 C 1.26548 0.75973 0.67797
 C57 C 1.28512 0.77854 0.59791
 C58 C 1.31571 0.81373 0.60572
 C59 C 1.33337 0.83161 0.52295
 C60 C 1.32116 0.81728 0.43255
 H61 H 1.22937 0.72898 0.25632
 H62 H 1.28537 0.78356 0.26998
 H63 H 1.21901 0.71564 0.73451
 H64 H 1.27390 0.77040 0.74855
 H65 H 1.14196 0.64622 0.47386
 H66 H 1.35797 0.85754 0.52958
 C67 C 0.81354 0.49728 0.58353
 C68 C 0.83114 0.50245 0.49622
 C69 C 0.81441 0.50162 0.41059
 C70 C 0.77843 0.49501 0.41143
 C71 C 0.75967 0.48896 0.49878
 C72 C 0.77710 0.48979 0.58518
 C73 C 0.75833 0.48536 0.67058
 C74 C 0.72315 0.47958 0.67135
 C75 C 0.70540 0.47907 0.58703
 C76 C 0.72377 0.48325 0.49977
 C77 C 0.76109 0.49530 0.32729
 C78 C 0.72591 0.48921 0.32821
 C79 C 0.70671 0.48282 0.41339
 C80 C 0.67108 0.47677 0.41424
 C81 C 0.65224 0.46981 0.49942
 C82 C 0.66921 0.47274 0.58681
 H83 H 0.77061 0.48661 0.73835
 H84 H 0.70992 0.47510 0.73918
 H85 H 0.77465 0.50056 0.25971
 H86 H 0.71391 0.48960 0.26107
 H87 H 0.85818 0.50606 0.49494
 H88 H 0.62497 0.46570 0.49763
 C89 C 0.47723 0.30178 0.41318
 C90 C 0.47433 0.31604 0.49990
 C91 C 0.47639 0.30114 0.58593
 C92 C 0.48272 0.27162 0.58640
 C93 C 0.48769 0.25795 0.49955
 C94 C 0.48467 0.27284 0.41243
 C95 C 0.48850 0.25793 0.32730
 C96 C 0.49626 0.22987 0.32751
 C97 C 0.49946 0.21490 0.41281
 C98 C 0.49494 0.22881 0.49979
 C99 C 0.48361 0.25508 0.67140
 C100 C 0.48994 0.22605 0.67149
 C101 C 0.49627 0.21275 0.58668
 C102 C 0.50195 0.18261 0.58529
 C103 C 0.50869 0.17099 0.49877
 C104 C 0.50680 0.18611 0.41327
 H105 H 0.48548 0.26766 0.25940
 H106 H 0.49954 0.21986 0.25982
 H107 H 0.47883 0.26407 0.73885
 H108 H 0.48972 0.21412 0.73895
 H109 H 0.47127 0.33979 0.50015
 H110 H 0.51435 0.14884 0.49739
 C111 C 0.68998 0.18214 0.40414
 C112 C 0.67245 0.16559 0.48792
 C113 C 0.68741 0.18006 0.57633
 C114 C 0.71992 0.21356 0.58227
 C115 C 0.73729 0.23173 0.49790
 C116 C 0.72233 0.21585 0.40840
 C117 C 0.74066 0.23351 0.32579
 C118 C 0.77311 0.26602 0.33055
 C119 C 0.78859 0.28209 0.41816
 C120 C 0.77061 0.26487 0.50292
 C121 C 0.73620 0.22864 0.66988
 C122 C 0.76899 0.26094 0.67487
 C123 C 0.78674 0.27971 0.59245
 C124 C 0.82130 0.31151 0.59624
 C125 C 0.83789 0.32844 0.51132
 C126 C 0.82234 0.31419 0.42320
 H127 H 0.73026 0.22213 0.25653
 H128 H 0.78627 0.27802 0.26447
 H129 H 0.72408 0.21525 0.73564
 H130 H 0.78060 0.27060 0.74423
 H131 H 0.64713 0.14022 0.48445
 H132 H 0.86324 0.35375 0.51338
 O133 O 1.04959 0.58865 0.15163
 O134 O 1.09064 0.57922 0.06941
 C135 C 1.08255 0.59732 0.12903
 O136 O 0.95349 0.42523 0.17870
 O137 O 0.91098 0.42960 0.08859
 C138 C 0.92034 0.41437 0.15383
 O139 O 1.05337 0.48402 0.19040
 O140 O 1.09213 0.52851 0.08951
 C141 C 1.08534 0.50834 0.16339
 O142 O 0.94824 0.53808 0.14736
 O143 O 0.90869 0.48420 0.07588
 C144 C 0.91582 0.51179 0.13006
 Zr145 Zr 0.99898 0.54516 0.10600
 O146 O 0.99627 0.54905 0.25491
 O147 O 0.99834 0.59388 0.08475
 Zr148 Zr 1.00241 0.46834 0.12915
 O149 O 0.99860 0.46951 0.27825
 O150 O 1.00746 0.42148 0.13364
 O151 O 1.03300 0.52454 0.13523
 O152 O 0.96907 0.49058 0.13596
 O153 O 0.94722 0.52705 -0.17576
 O154 O 0.90778 0.47931 -0.08443
 C155 C 0.91486 0.50333 -0.14971
 O156 O 1.05278 0.46852 -0.15307
 O157 O 1.09193 0.52120 -0.07623
 C158 C 1.08515 0.49447 -0.13289
 O159 O 0.95208 0.41386 -0.14511
 O160 O 0.91030 0.42478 -0.07179
 C161 C 0.91900 0.40565 -0.12673
 O162 O 1.04713 0.57591 -0.18879
 O163 O 1.08939 0.57285 -0.09466
 C164 C 1.08025 0.58644 -0.16438
 Zr165 Zr 0.99799 0.53612 -0.13053
 O166 O 0.99316 0.52689 -0.27859
 O167 O 0.99903 0.58583 -0.14915
 Zr168 Zr 1.00167 0.45967 -0.10710
 O169 O 0.99789 0.45424 -0.25629
 O170 O 1.00641 0.41275 -0.09489
 Zr171 Zr 1.05455 0.53110 -0.00229
 Zr172 Zr 0.94566 0.47355 0.00101
 O173 O 0.96795 0.48054 -0.13533
 O174 O 1.03229 0.51440 -0.13871
 O175 O 0.96582 0.52951 -0.01298
 O176 O 1.03407 0.47522 0.01245
 O177 O 1.02980 0.56303 -0.01497
 O178 O 0.96982 0.44094 0.01365
 H179 H 0.95310 0.48379 0.19206
 H180 H 1.05125 0.46602 0.01914
 H181 H 0.95133 0.47018 -0.19013
 H182 H 1.04506 0.58958 -0.02110
 H183 H 1.00832 0.41626 0.20152
 H184 H 0.99163 0.39911 -0.03996
 H185 H 1.01955 0.47512 -0.28337
 H186 H 1.01514 0.52670 -0.30044
 H187 H 0.98593 0.58871 -0.09501
 H188 H 0.99882 0.60384 0.14859
 H189 H 1.01802 0.54980 0.28233
 H190 H 1.01362 0.49496 0.29860
 O191 O 0.41405 0.47181 0.15741
 O192 O 0.42837 0.52241 0.07052
 C193 C 0.40846 0.49782 0.13154
 O194 O 0.57658 0.52060 0.16421
 O195 O 0.56197 0.46826 0.08392
 C196 C 0.58173 0.49388 0.14359
 O197 O 0.53102 0.57519 0.17401
 O198 O 0.48450 0.57144 0.08335
 C199 C 0.50842 0.58577 0.15023
 O200 O 0.45421 0.41129 0.15996
 O201 O 0.50353 0.41617 0.08107
 C202 C 0.47680 0.40008 0.13997
 Zr203 Zr 0.45277 0.45765 0.11313
 O204 O 0.45362 0.45672 0.26287
 O205 O 0.39933 0.41328 0.11052
 Zr206 Zr 0.53548 0.53114 0.12184
 O207 O 0.53205 0.52483 0.27073
 O208 O 0.58561 0.57931 0.13778
 O209 O 0.48037 0.51337 0.13448
 O210 O 0.50708 0.47579 0.13655
 O211 O 0.45746 0.41186 -0.16563
 O212 O 0.50505 0.41644 -0.07880
 C213 C 0.47932 0.40043 -0.14064
 O214 O 0.53695 0.57819 -0.16501
 O215 O 0.48869 0.57443 -0.08287
 C216 C 0.51512 0.59016 -0.14263
 O217 O 0.57841 0.51776 -0.16099
 O218 O 0.56170 0.46595 -0.07623
 C219 C 0.58158 0.48988 -0.13835
 O220 O 0.41999 0.47422 -0.18286
 O221 O 0.43343 0.52486 -0.09493
 C222 C 0.41593 0.50159 -0.16142
 Zr223 Zr 0.45625 0.45899 -0.12512
 O224 O 0.46172 0.45849 -0.27397
 O225 O 0.40256 0.41543 -0.13560
 Zr226 Zr 0.53955 0.53254 -0.11630
 O227 O 0.54206 0.53126 -0.26579
 O228 O 0.59079 0.58012 -0.11074
 Zr229 Zr 0.47369 0.52702 -0.00436
 Zr230 Zr 0.51822 0.46324 0.00105
 O231 O 0.51082 0.47719 -0.13658
 O232 O 0.48498 0.51505 -0.14098
 O233 O 0.46122 0.43352 -0.00507
 O234 O 0.53065 0.55570 0.00219
 O235 O 0.43554 0.47142 -0.00847
 O236 O 0.55733 0.51866 0.00491
 H237 H 0.51354 0.46616 0.19234
 H238 H 0.54380 0.58246 0.00515
 H239 H 0.51762 0.46745 -0.19181
 H240 H 0.40938 0.46336 -0.01283
 H241 H 0.59963 0.58189 0.07979
 H242 H 0.60755 0.57435 -0.07645
 H243 H 0.52194 0.53406 -0.29125
 H244 H 0.46594 0.48202 -0.29800
 H245 H 0.39995 0.39715 -0.08882
 H246 H 0.39937 0.39421 0.07047
 H247 H 0.45454 0.47907 0.28638
 H248 H 0.51249 0.52913 0.29325
 O249 O 0.47935 0.05285 0.17638
 O250 O 0.52635 0.09032 0.07973
 C251 C 0.50401 0.08454 0.14848
 O252 O 0.53577 -0.05360 0.15251
 O253 O 0.48237 -0.09314 0.07922
 C254 C 0.50944 -0.08602 0.13457
 O255 O 0.58696 0.04770 0.15428
 O256 O 0.57748 0.08802 0.06972
 C257 C 0.59533 0.08037 0.13114
 O258 O 0.42445 -0.04798 0.17894
 O259 O 0.42964 -0.09068 0.09158
 C260 C 0.41474 -0.08123 0.15741
 Zr261 Zr 0.46664 0.00113 0.12555
 O262 O 0.46990 -0.00032 0.27479
 O263 O 0.42016 0.00696 0.13612
 Zr264 Zr 0.54379 -0.00268 0.10825
 O265 O 0.54608 -0.00468 0.25758
 O266 O 0.59420 -0.00103 0.09732
 O267 O 0.52290 0.03175 0.13297
 O268 O 0.48913 -0.03190 0.13696
 O269 O 0.41384 -0.05189 -0.14774
 O270 O 0.42381 -0.09266 -0.06758
 C271 C 0.40491 -0.08466 -0.12447
 O272 O 0.57645 0.04326 -0.18862
 O273 O 0.57293 0.08596 -0.09659
 C274 C 0.58709 0.07651 -0.16455
 O275 O 0.52456 -0.05758 -0.17676
 O276 O 0.47674 -0.09511 -0.08205
 C277 C 0.49965 -0.08923 -0.14941
 O278 O 0.46935 0.04780 -0.16573
 O279 O 0.52113 0.08836 -0.08774
 C280 C 0.49497 0.08042 -0.14769
 Zr281 Zr 0.45944 -0.00207 -0.11140
 O282 O 0.45361 -0.00750 -0.26025
 O283 O 0.41324 0.00424 -0.10218
 Zr284 Zr 0.53665 -0.00571 -0.12840
 O285 O 0.53564 -0.00670 -0.27821
 O286 O 0.58678 -0.00502 -0.13060
 Zr287 Zr 0.53027 0.05188 -0.00611
 Zr288 Zr 0.47273 -0.05646 0.00273
 O289 O 0.48070 -0.03552 -0.13503
 O290 O 0.51452 0.02807 -0.14148
 O291 O 0.43974 -0.03254 0.01108
 O292 O 0.56251 0.02720 -0.01373
 O293 O 0.47415 0.03135 0.00552
 O294 O 0.52885 -0.03706 -0.00891
 H295 H 0.48246 -0.04726 0.19402
 H296 H 0.58913 0.04259 -0.01847
 H297 H 0.46979 -0.05256 -0.18881
 H298 H 0.46460 0.04834 0.00772
 H299 H 0.59046 -0.02185 0.05791
 H300 H 0.58298 -0.02800 -0.10357
 H301 H 0.51023 -0.02151 -0.29907
 H302 H 0.47734 0.00965 -0.28802
 H303 H 0.39626 -0.01403 -0.05735
 H304 H 0.40006 -0.01388 0.10325
 H305 H 0.49338 0.02041 0.29457
 H306 H 0.54501 0.01639 0.28330
 C307 C 1.14868 0.53973 0.36837
 C308 C 1.16792 0.52097 0.36200
 C309 C 1.16020 0.49844 0.28056
 C310 C 1.13440 0.49538 0.21215
 C311 C 1.11546 0.51444 0.22391
 C312 C 1.12411 0.53669 0.30269
 C313 C 1.11258 0.55933 0.35632
 C314 C 1.14077 0.56353 0.43072
 H315 H 1.17197 0.48115 0.27269
 H316 H 1.12809 0.47695 0.15297
 H317 H 1.08421 0.54342 0.38153
 H318 H 1.11939 0.58491 0.31999
 H319 H 1.12802 0.55116 0.49920
 H320 H 1.16410 0.59146 0.43620
 C321 C 0.48238 0.63343 0.32929
 C322 C 0.51480 0.66585 0.34333
 C323 C 0.54350 0.67455 0.28017
 C324 C 0.54081 0.64919 0.21170
 C325 C 0.50927 0.61513 0.20543
 C326 C 0.47988 0.60844 0.26238
 C327 C 0.45813 0.57726 0.32654
 C328 C 0.45979 0.60456 0.39837
 H329 H 0.56869 0.69978 0.28803
 H330 H 0.56398 0.65525 0.16786
 H331 H 0.47320 0.56345 0.34918
 H332 H 0.43026 0.55873 0.30114
 H333 H 0.47435 0.60497 0.46382
 H334 H 0.43319 0.60290 0.41001
 C335 C 0.34818 -0.12432 0.35360
 C336 C 0.33959 -0.16047 0.35514
 C337 C 0.35385 -0.17165 0.27951
 C338 C 0.37704 -0.14645 0.21083
 C339 C 0.38622 -0.10960 0.21571
 C340 C 0.36942 -0.10067 0.28672
 C341 C 0.36995 -0.06910 0.33406
 C342 C 0.34540 -0.09594 0.40937
 H343 H 0.34914 -0.19905 0.27680
 H344 H 0.38902 -0.15547 0.15730
 H345 H 0.35636 -0.05753 0.29105
 H346 H 0.39725 -0.04930 0.36151
 H347 H 0.31744 -0.10019 0.40954
 H348 H 0.35871 -0.09058 0.47977
 C349 C 0.86715 0.54016 0.30405
 C350 C 0.83548 0.50751 0.32195
 C351 C 0.82594 0.47942 0.25504
 C352 C 0.85055 0.48248 0.18330
 C353 C 0.88566 0.51289 0.17999
 C354 C 0.89151 0.54265 0.23581
 C355 C 0.92312 0.57071 0.29050
 C356 C 0.89621 0.56841 0.36505
 H357 H 0.80083 0.45416 0.26256
 H358 H 0.84332 0.45983 0.13635
 H359 H 0.93681 0.59712 0.25358
 H360 H 0.94130 0.56088 0.31666
 H361 H 0.89411 0.59334 0.36975
 H362 H 0.90014 0.55840 0.43374
 C363 C 0.50018 0.33509 0.25939
 C364 C 0.47251 0.31838 0.32594
 C365 C 0.44186 0.32256 0.31461
 C366 C 0.44176 0.34694 0.24774
 C367 C 0.47241 0.36779 0.19085
 C368 C 0.50001 0.35894 0.19302
 C369 C 0.53997 0.38281 0.20090
 C370 C 0.54008 0.35664 0.27321
 H371 H 0.41929 0.30936 0.36291
 H372 H 0.41895 0.35157 0.24645
 H373 H 0.54738 0.40967 0.23164
 H374 H 0.55384 0.38319 0.13397
 H375 H 0.54781 0.36844 0.34555
 H376 H 0.55401 0.34198 0.24791
 C377 C 0.67510 0.12973 0.29590
 C378 C 0.67467 0.16180 0.31479
 C379 C 0.65483 0.17102 0.25193
 C380 C 0.63163 0.14578 0.18333
 C381 C 0.62685 0.11050 0.17953
 C382 C 0.65165 0.10474 0.23098
 C383 C 0.64842 0.07356 0.28642
 C384 C 0.67466 0.10110 0.35742
 H385 H 0.65482 0.19625 0.26109
 H386 H 0.61510 0.15277 0.13993
 H387 H 0.65991 0.05872 0.24813
 H388 H 0.62092 0.05639 0.31618
 H389 H 0.70136 0.10233 0.35894
 H390 H 0.66222 0.09879 0.42782
 C391 C 0.46788 0.12509 -0.33374
 C392 C 0.49643 0.16077 -0.33529
 C393 C 0.52055 0.17217 -0.25719
 C394 C 0.51883 0.14665 -0.19000
 C395 C 0.49328 0.10948 -0.20068
 C396 C 0.46608 0.10065 -0.26819
 C397 C 0.44560 0.06934 -0.33382
 C398 C 0.44714 0.09644 -0.40616
 H399 H 0.54243 0.19985 -0.25247
 H400 H 0.53890 0.15558 -0.13429
 H401 H 0.41775 0.05069 -0.30828
 H402 H 0.46148 0.05623 -0.35539
 H403 H 0.42023 0.09363 -0.42117
 H404 H 0.46297 0.09751 -0.46953
 C405 C 0.66521 0.49995 -0.26233
 C406 C 0.65013 0.47200 -0.33026
 C407 C 0.61294 0.44647 -0.32049
 C408 C 0.59150 0.45127 -0.25260
 C409 C 0.60622 0.48219 -0.19425
 C410 C 0.64370 0.50517 -0.19685
 C411 C 0.66543 0.54526 -0.20402
 C412 C 0.68901 0.53972 -0.27545
 H413 H 0.59991 0.42380 -0.36911
 H414 H 0.56268 0.43258 -0.25206
 H415 H 0.67983 0.55802 -0.13691
 H416 H 0.64990 0.55732 -0.23532
 H417 H 0.71698 0.54932 -0.24943
 H418 H 0.68718 0.54861 -0.34807
 C419 C 0.87516 0.33015 -0.30503
 C420 C 0.84078 0.32618 -0.31889
 C421 C 0.82897 0.34175 -0.24833
 C422 C 0.85340 0.36517 -0.17792
 C423 C 0.89004 0.37353 -0.17700
 C424 C 0.89849 0.35230 -0.23607
 C425 C 0.93105 0.35790 -0.29007
 C426 C 0.90506 0.33263 -0.36563
 H427 H 0.80228 0.33891 -0.25305
 H428 H 0.84445 0.37896 -0.12995
 H429 H 0.94614 0.34650 -0.25306
 H430 H 0.94781 0.38607 -0.31554
 H431 H 0.90474 0.30644 -0.37046
 H432 H 0.90843 0.34650 -0.43405
 C433 C 0.46751 -0.16074 -0.33554
 C434 C 0.49672 -0.16730 -0.34529
 C435 C 0.52394 -0.15253 -0.27464
 C436 C 0.52375 -0.12880 -0.20508
 C437 C 0.49586 -0.12020 -0.20311
 C438 C 0.46682 -0.13852 -0.26513
 C439 C 0.44665 -0.12562 -0.32500
 C440 C 0.44617 -0.15096 -0.40180
 H441 H 0.54716 -0.15649 -0.27842
 H442 H 0.54659 -0.11528 -0.15729
 H443 H 0.46334 -0.09657 -0.34346
 H444 H 0.41927 -0.13348 -0.29843
 H445 H 0.46055 -0.13565 -0.46557
 H446 H 0.41863 -0.17412 -0.41553
 C447 C 0.38245 0.54219 -0.34058
 C448 C 0.34645 0.51511 -0.35635
 C449 C 0.33180 0.48528 -0.29422
 C450 C 0.35396 0.48122 -0.22685
 C451 C 0.39078 0.50745 -0.21859
 C452 C 0.40370 0.53873 -0.27210
 C453 C 0.43705 0.55763 -0.33062
 C454 C 0.41410 0.56242 -0.40479
 H455 H 0.30407 0.46375 -0.30267
 H456 H 0.34286 0.45692 -0.18473
 H457 H 0.44744 0.53947 -0.35359
 H458 H 0.45757 0.58350 -0.29947
 H459 H 0.41338 0.54825 -0.47126
 H460 H 0.42097 0.59104 -0.41311
 C461 C 1.17075 0.65036 -0.27557
 C462 C 1.16053 0.66454 -0.35115
 C463 C 1.12462 0.65802 -0.35192
 C464 C 1.09922 0.63460 -0.28651
 C465 C 1.10871 0.61631 -0.21958
 C466 C 1.14540 0.62677 -0.21121
 C467 C 1.16293 0.60402 -0.20749
 C468 C 1.19077 0.62992 -0.27708
 H469 H 1.11568 0.66970 -0.40622
 H470 H 1.07157 0.62905 -0.29300
 H471 H 1.14527 0.57671 -0.23811
 H472 H 1.17447 0.60478 -0.13644
 H473 H 1.18957 0.61738 -0.34719
 H474 H 1.21831 0.64582 -0.24597
 C475 C 0.82427 0.47500 -0.26604
 C476 C 0.83411 0.50214 -0.33414
 C477 C 0.86827 0.53339 -0.32392
 C478 C 0.89311 0.53500 -0.25645
 C479 C 0.88509 0.50488 -0.19938
 C480 C 0.84931 0.47627 -0.20029
 C481 C 0.83511 0.43659 -0.20778
 C482 C 0.80770 0.43514 -0.27909
 H483 H 0.87664 0.55580 -0.37222
 H484 H 0.91976 0.55877 -0.25524
 H485 H 0.82256 0.42251 -0.14064
 H486 H 0.85515 0.43009 -0.23930
 H487 H 0.77939 0.42032 -0.25286
 H488 H 0.81168 0.42750 -0.35162
 C489 C 0.44242 0.31918 -0.30117
 C490 C 0.47392 0.31855 -0.32599
 C491 C 0.50462 0.33807 -0.26784
 C492 C 0.50511 0.36214 -0.19827
 C493 C 0.47532 0.36786 -0.18840
 C494 C 0.44323 0.34341 -0.23483
 C495 C 0.41407 0.34696 -0.28381
 C496 C 0.41278 0.31978 -0.35639
 H497 H 0.52917 0.33712 -0.28168
 H498 H 0.53000 0.37884 -0.15984
 H499 H 0.42378 0.37422 -0.31430
 H500 H 0.38908 0.33635 -0.24057
 H501 H 0.42076 0.33152 -0.42804
 H502 H 0.38720 0.29343 -0.35378
 C503 C 0.65147 0.16682 -0.27387
 C504 C 0.66962 0.15736 -0.34048
 C505 C 0.66572 0.12263 -0.33471
 C506 C 0.64021 0.09675 -0.27323
 C507 C 0.61808 0.10513 -0.21640
 C508 C 0.62644 0.14132 -0.21251
 C509 C 0.60210 0.15703 -0.22013
 C510 C 0.62952 0.18491 -0.28713
 H511 H 0.68013 0.11461 -0.38343
 H512 H 0.63620 0.06960 -0.27514
 H513 H 0.60004 0.16889 -0.15184
 H514 H 0.57597 0.13818 -0.25505
 H515 H 0.64319 0.21278 -0.25739
 H516 H 0.61920 0.18232 -0.36068
 C517 C 1.13669 0.46882 -0.30299
 C518 C 1.17054 0.50051 -0.30760
 C519 C 1.17917 0.52546 -0.23225
 C520 C 1.15217 0.52147 -0.16690
 C521 C 1.11598 0.49328 -0.17808
 C522 C 1.11047 0.46534 -0.24012
 C523 C 1.08031 0.44062 -0.30423
 C524 C 1.10923 0.44365 -0.37312
 H525 H 1.20522 0.55000 -0.23008
 H526 H 1.15881 0.54238 -0.11432
 H527 H 1.06452 0.45303 -0.33152
 H528 H 1.06398 0.41312 -0.27412
 H529 H 1.10842 0.45610 -0.44102
 H530 H 1.10988 0.41802 -0.38069
 C531 C 0.55513 0.67116 -0.30201
 C532 C 0.52668 0.67838 -0.31642
 C533 C 0.49779 0.66227 -0.25069
 C534 C 0.49550 0.63580 -0.18589
 C535 C 0.52144 0.62417 -0.18759
 C536 C 0.55266 0.64549 -0.23981
 C537 C 0.58090 0.64062 -0.28914
 C538 C 0.58450 0.66990 -0.35748
 H539 H 0.47488 0.66662 -0.25663
 H540 H 0.47136 0.62162 -0.14321
 H541 H 0.56974 0.61362 -0.32342
 H542 H 0.60533 0.64911 -0.24447
 H543 H 0.57728 0.65954 -0.43088
 H544 H 0.61078 0.69540 -0.35036
 C545 C 0.33764 -0.17622 -0.22721
 C546 C 0.32686 -0.16567 -0.30951
 C547 C 0.33259 -0.13004 -0.30971
 C548 C 0.35455 -0.10468 -0.24130
 C549 C 0.37207 -0.11393 -0.17108
 C550 C 0.35946 -0.15103 -0.15908
 C551 C 0.37768 -0.17214 -0.13459
 C552 C 0.35459 -0.19913 -0.21133
 H553 H 0.32270 -0.12084 -0.36787
 H554 H 0.36085 -0.07697 -0.25056
 H555 H 0.37053 -0.18352 -0.06217
 H556 H 0.40708 -0.15771 -0.14943
 H557 H 0.33501 -0.22613 -0.18281
 H558 H 0.37048 -0.19953 -0.27327
 C559 C 0.54037 -0.13845 0.28614
 C560 C 0.50754 -0.16816 0.31346
 C561 C 0.47622 -0.17500 0.26300
 C562 C 0.47739 -0.14962 0.19720
 C563 C 0.50975 -0.11660 0.18279
 C564 C 0.54141 -0.11317 0.22312
 C565 C 0.57209 -0.08260 0.27459
 C566 C 0.57109 -0.11041 0.34329
 H567 H 0.45034 -0.19810 0.28081
 H568 H 0.45228 -0.15426 0.16541
 H569 H 0.56440 -0.06372 0.30809
 H570 H 0.59716 -0.06956 0.23141
 H571 H 0.56315 -0.10724 0.41607
 H572 H 0.59546 -0.11354 0.33907
 C573 C 0.34699 0.53094 0.22857
 C574 C 0.33090 0.50730 0.30454
 C575 C 0.33151 0.47457 0.30097
 C576 C 0.35441 0.47011 0.23759
 C577 C 0.37678 0.49807 0.17482
 C578 C 0.36837 0.52581 0.16294
 C579 C 0.39025 0.56535 0.14374
 C580 C 0.36780 0.57099 0.21930
 H581 H 0.31793 0.45438 0.35508
 H582 H 0.35709 0.44628 0.24492
 H583 H 0.38511 0.57190 0.07140
 H584 H 0.41924 0.57719 0.16118
 H585 H 0.35098 0.58200 0.19052
 H586 H 0.38346 0.58459 0.28429
 C587 C 1.17473 0.66160 0.23216
 C588 C 1.16546 0.67591 0.30970
 C589 C 1.13085 0.67276 0.30769
 C590 C 1.10455 0.64973 0.24198
 C591 C 1.11239 0.62958 0.17602
 C592 C 1.14904 0.63953 0.16575
 C593 C 1.16764 0.61806 0.14974
 C594 C 1.19528 0.64184 0.22420
 H595 H 1.12281 0.68474 0.36370
 H596 H 1.07725 0.64506 0.24958
 H597 H 1.17927 0.62209 0.07747
 H598 H 1.15114 0.58947 0.17083
 H599 H 1.22282 0.65908 0.19483
 H600 H 1.19414 0.62712 0.28989
 C601 C 0.47708 0.14512 0.27606
 C602 C 0.50870 0.16820 0.32588
 C603 C 0.54085 0.16859 0.30028
 C604 C 0.53983 0.14288 0.23555
 C605 C 0.50661 0.11602 0.19787
 C606 C 0.47596 0.11928 0.21434
 C607 C 0.43842 0.09208 0.24325
 C608 C 0.43961 0.12060 0.31061
 H609 H 0.56597 0.18650 0.33644
 H610 H 0.56418 0.14161 0.22323
 H611 H 0.43702 0.06854 0.28059
 H612 H 0.41863 0.08520 0.18461
 H613 H 0.43881 0.11349 0.38640
 H614 H 0.42067 0.13030 0.29039
 C615 C 0.65508 0.51635 0.32277
 C616 C 0.65494 0.48368 0.33036
 C617 C 0.63841 0.45807 0.25702
 C618 C 0.61749 0.46316 0.18754
 C619 C 0.61166 0.49295 0.19381
 C620 C 0.63372 0.52073 0.25698
 C621 C 0.62636 0.54397 0.32267
 C622 C 0.65030 0.53941 0.39470
 H623 H 0.63968 0.43332 0.25705
 H624 H 0.60362 0.44248 0.13439
 H625 H 0.59758 0.53102 0.34498
 H626 H 0.63809 0.57213 0.29668
 H627 H 0.63524 0.52444 0.45853
 H628 H 0.67598 0.56487 0.40927
 C629 C 0.83236 0.35007 0.27452
 C630 C 0.84361 0.33259 0.33815
 C631 C 0.87790 0.33607 0.32427
 C632 C 0.90191 0.36066 0.25784
 C633 C 0.89220 0.38252 0.20441
 C634 C 0.85604 0.37433 0.20848
 C635 C 0.84040 0.39858 0.22029
 C636 C 0.81458 0.37205 0.29254
 H637 H 0.88715 0.32194 0.36992
 H638 H 0.92901 0.36452 0.25398
 H639 H 0.82644 0.39949 0.15486
 H640 H 0.86010 0.42520 0.25154
 H641 H 0.78589 0.35798 0.26876
 H642 H 0.81930 0.38328 0.36567
   
