data_POSCAR
  _audit_creation_date              2014-09-24
  _audit_creation_method            'ToBaCCo'
  _symmetry_space_group_name_H-M    'P1'
  _symmetry_Int_Tables_number       1
  _symmetry_cell_setting            triclinic
  loop_
  _symmetry_equiv_pos_as_xyz
 x,y,z
_cell_length_a 25.3314
_cell_length_b 25.7827
_cell_length_c 29.1252
_cell_angle_alpha 89.070700
_cell_angle_beta 90.491200
_cell_angle_gamma 88.400700
loop_
  _atom_site_label
  _atom_site_type_symbol
  _atom_site_fract_x
  _atom_site_fract_y
  _atom_site_fract_z
Si1 Si 1.22975 0.26419 0.24521
 Si2 Si 0.74139 -0.23101 0.24464
 Si3 Si 0.74240 0.25092 -0.26876
 Si4 Si 1.25659 -0.25948 -0.24149
 Si5 Si 0.25817 0.26282 0.74856
 Si6 Si 0.74380 0.75053 0.75735
 Si7 Si 0.76688 0.22486 0.26767
 Si8 Si 0.25460 0.74314 0.24523
 O9 O 1.09671 0.02392 0.04987
 O10 O 0.91129 -0.00357 0.05540
 O11 O 0.98752 0.10035 0.04870
 O12 O 1.02448 -0.08446 0.05242
 O13 O 0.91070 0.08321 0.02576
 O14 O 1.09849 -0.06432 0.02456
 O15 O 0.93327 -0.07980 0.03376
 O16 O 1.07438 0.09749 0.02212
 C17 C 1.09382 0.07130 0.05474
 C18 C 0.91197 -0.05090 0.06285
 C19 C 0.93984 0.10192 0.05539
 C20 C 1.07302 -0.08705 0.05497
 O21 O 1.08824 -0.03021 -0.06311
 O22 O 0.91250 0.04547 -0.06115
 O23 O 1.03614 0.08842 -0.06607
 O24 O 0.95822 -0.07742 -0.05781
 O25 O 0.89190 -0.03815 -0.02966
 O26 O 1.10816 0.05563 -0.04063
 O27 O 1.04828 -0.09681 -0.03789
 O28 O 0.95167 0.11283 -0.04007
 Co29 Co 1.08827 -0.00228 -0.00694
 Co30 Co 0.91619 0.02061 -0.00283
 Co31 Co 1.01140 0.09104 -0.00852
 Co32 Co 0.99211 -0.07562 -0.00273
 O33 O 1.00194 0.00823 -0.00517
 C34 C 1.07597 -0.07583 -0.06790
 C35 C 0.92404 0.09088 -0.06912
 C36 C 1.08368 0.08069 -0.07159
 C37 C 0.91042 -0.06717 -0.05966
 O38 O 1.08275 0.52963 0.56552
 O39 O 0.89809 0.48106 0.54592
 O40 O 0.97452 0.61306 0.55168
 O41 O 1.03928 0.38986 0.51169
 O42 O 0.90152 0.57546 0.53021
 O43 O 1.06373 0.44671 0.55563
 O44 O 0.96665 0.43262 0.55831
 O45 O 1.07132 0.60372 0.53453
 C46 C 1.08670 0.57676 0.56795
 C47 C 0.92201 0.44767 0.57037
 C48 C 0.92580 0.60690 0.55557
 C49 C 1.06597 0.40040 0.54590
 O50 O 1.08524 0.45410 0.46146
 O51 O 0.91465 0.55348 0.43987
 O52 O 1.04896 0.59946 0.44755
 O53 O 0.94063 0.38902 0.48456
 O54 O 0.90981 0.46226 0.45445
 O55 O 1.10893 0.54406 0.47379
 O56 O 1.00581 0.43740 0.43868
 O57 O 0.95425 0.62028 0.46468
 Co58 Co 1.07883 0.49504 0.51294
 Co59 Co 0.91438 0.51765 0.49381
 Co60 Co 1.01115 0.60012 0.49999
 Co61 Co 0.98578 0.43865 0.49847
 O62 O 0.99972 0.51582 0.50231
 C63 C 1.05427 0.43790 0.43077
 C64 C 0.92520 0.59993 0.43573
 C65 C 1.09374 0.57842 0.44440
 C66 C 0.90483 0.41359 0.46002
 O67 O 0.54432 0.04929 0.56045
 O68 O 0.39105 -0.04640 0.55423
 O69 O 0.43781 0.10807 0.51380
 O70 O 0.54730 -0.10435 0.52599
 O71 O 0.40621 0.04910 0.55928
 O72 O 0.55368 -0.04033 0.56848
 O73 O 0.45231 -0.10615 0.54232
 O74 O 0.53200 0.10653 0.50867
 C75 C 0.54673 0.09518 0.54876
 C76 C 0.41412 -0.08828 0.56487
 C77 C 0.41884 0.09490 0.55227
 C78 C 0.55838 -0.08745 0.56422
 O79 O 0.59193 -0.04601 0.47818
 O80 O 0.37313 0.05968 0.47460
 O81 O 0.52515 0.05343 0.42712
 O82 O 0.43200 -0.09656 0.45435
 O83 O 0.37170 -0.03587 0.46584
 O84 O 0.58843 0.04616 0.47456
 O85 O 0.52844 -0.08071 0.43973
 O86 O 0.43430 0.06169 0.42721
 Co87 Co 0.56224 0.00177 0.51859
 Co88 Co 0.39521 0.00575 0.51210
 Co89 Co 0.48212 0.07542 0.47172
 Co90 Co 0.48913 -0.08736 0.49113
 O91 O 0.48108 -0.00208 0.49856
 C92 C 0.57545 -0.06789 0.44231
 C93 C 0.38732 0.06912 0.43497
 C94 C 0.57296 0.05359 0.43416
 C95 C 0.38754 -0.07635 0.44593
 O96 O 0.61702 0.54208 0.04097
 O97 O 0.41551 0.42126 0.02963
 O98 O 0.45454 0.57964 0.04132
 O99 O 0.57736 0.38401 0.04495
 O100 O 0.42169 0.50704 0.06037
 O101 O 0.60397 0.45592 0.06992
 O102 O 0.48651 0.39200 0.06054
 O103 O 0.54367 0.56925 0.06626
 C104 C 0.59193 0.56536 0.07104
 C105 C 0.43798 0.39591 0.06116
 C106 C 0.42669 0.55372 0.06831
 C107 C 0.59815 0.40904 0.07656
 O108 O 0.62207 0.42057 -0.01581
 O109 O 0.41650 0.54630 -0.02557
 O110 O 0.57655 0.58014 -0.02377
 O111 O 0.46357 0.38724 -0.03132
 O112 O 0.43055 0.45969 -0.05574
 O113 O 0.61063 0.50787 -0.04513
 O114 O 0.55309 0.39683 -0.04841
 O115 O 0.48940 0.57340 -0.04852
 Co116 Co 0.60371 0.48162 0.01208
 Co117 Co 0.43076 0.48344 0.00265
 Co118 Co 0.51615 0.56679 0.00885
 Co119 Co 0.52014 0.39868 0.00653
 O120 O 0.51758 0.48268 0.00771
 C121 C 0.60108 0.40180 -0.05022
 C122 C 0.44193 0.56916 -0.05562
 C123 C 0.60326 0.55490 -0.05225
 C124 C 0.44086 0.41323 -0.06272
 C125 C 1.14886 0.25401 0.17944
 C126 C 1.18496 0.22684 0.20826
 C127 C 1.19245 0.17305 0.20353
 C128 C 1.16539 0.14685 0.16900
 C129 C 1.13023 0.17488 0.13919
 C130 C 1.12132 0.22820 0.14539
 C131 C 1.10610 0.14957 0.10264
 C132 C 1.11674 0.09657 0.09521
 C133 C 1.15023 0.06859 0.12598
 C134 C 1.17445 0.09355 0.16253
 H135 H 1.22126 0.15201 0.22483
 H136 H 1.09450 0.25027 0.12286
 H137 H 1.07981 0.17140 0.07944
 H138 H 1.20111 0.07140 0.18513
 H139 H 1.14347 0.29568 0.18208
 H140 H 1.15872 0.02767 0.12114
 C141 C 1.18111 0.74694 0.68773
 C142 C 1.20753 0.71340 0.71915
 C143 C 1.20114 0.65986 0.71678
 C144 C 1.16995 0.63957 0.68185
 C145 C 1.14465 0.67340 0.64922
 C146 C 1.14960 0.72712 0.65306
 C147 C 1.11634 0.65288 0.61252
 C148 C 1.11328 0.59898 0.60793
 C149 C 1.13709 0.56579 0.64142
 C150 C 1.16521 0.58591 0.67803
 H151 H 1.22214 0.63387 0.74061
 H152 H 1.13044 0.75364 0.62850
 H153 H 1.09771 0.67874 0.58709
 H154 H 1.18412 0.55948 0.70281
 H155 H 1.18624 0.78846 0.68915
 H156 H 1.13494 0.52404 0.63883
 C157 C 0.71322 0.15555 0.69235
 C158 C 0.70424 0.20950 0.69111
 C159 C 0.66633 0.23111 0.66012
 C160 C 0.63577 0.19858 0.63253
 C161 C 0.64349 0.14420 0.63638
 C162 C 0.68268 0.12319 0.66585
 C163 C 0.61263 0.11139 0.61016
 C164 C 0.57507 0.13165 0.57840
 C165 C 0.56803 0.18575 0.57387
 C166 C 0.59768 0.21898 0.60119
 H167 H 0.66015 0.27284 0.65809
 H168 H 0.68991 0.08159 0.66830
 H169 H 0.61907 0.06975 0.61362
 H170 H 0.59122 0.26056 0.59747
 H171 H 0.74384 0.13786 0.71390
 H172 H 0.53952 0.20221 0.54943
 C173 C 0.66573 0.75711 0.17404
 C174 C 0.70363 0.73145 0.20223
 C175 C 0.71284 0.67796 0.19783
 C176 C 0.68214 0.64967 0.16742
 C177 C 0.64101 0.67513 0.14185
 C178 C 0.63361 0.72900 0.14494
 C179 C 0.60918 0.64650 0.11256
 C180 C 0.62012 0.59349 0.10649
 C181 C 0.66247 0.56902 0.13032
 C182 C 0.69242 0.59654 0.16154
 H183 H 0.74407 0.65836 0.21756
 H184 H 0.60328 0.74938 0.12468
 H185 H 0.57774 0.66583 0.09276
 H186 H 0.72444 0.57664 0.18013
 H187 H 0.65963 0.79877 0.17587
 H188 H 0.67266 0.52868 0.12438
 C189 C 0.82914 -0.22570 0.18728
 C190 C 0.79005 -0.19621 0.20954
 C191 C 0.78549 -0.14258 0.20129
 C192 C 0.81909 -0.11875 0.16962
 C193 C 0.85807 -0.14896 0.14691
 C194 C 0.86336 -0.20222 0.15661
 C195 C 0.88978 -0.12593 0.11354
 C196 C 0.88246 -0.07323 0.10165
 C197 C 0.84414 -0.04331 0.12481
 C198 C 0.81307 -0.06573 0.15881
 H199 H 0.75463 -0.11996 0.21784
 H200 H 0.89287 -0.22596 0.13944
 H201 H 0.91909 -0.14944 0.09582
 H202 H 0.78323 -0.04200 0.17556
 H203 H 0.83257 -0.26729 0.19299
 H204 H 0.83665 -0.00302 0.11541
 C205 C 0.83122 0.26134 0.67428
 C206 C 0.79126 0.28849 0.69763
 C207 C 0.78867 0.34295 0.69490
 C208 C 0.82539 0.37004 0.66826
 C209 C 0.86572 0.34225 0.64501
 C210 C 0.86852 0.28794 0.64862
 C211 C 0.90089 0.36895 0.61665
 C212 C 0.89471 0.42283 0.60931
 C213 C 0.85521 0.45024 0.63323
 C214 C 0.82142 0.42424 0.66304
 H215 H 0.75752 0.36411 0.71245
 H216 H 0.89888 0.26595 0.63080
 H217 H 0.93040 0.34728 0.59748
 H218 H 0.79077 0.44625 0.68047
 H219 H 0.83365 0.21934 0.67601
 H220 H 0.84938 0.49163 0.62767
 C221 C 0.33022 -0.26472 0.68669
 C222 C 0.30542 -0.23217 0.71863
 C223 C 0.31364 -0.17891 0.71691
 C224 C 0.34481 -0.15772 0.68243
 C225 C 0.36814 -0.19019 0.64898
 C226 C 0.36162 -0.24393 0.65213
 C227 C 0.39475 -0.16797 0.61168
 C228 C 0.39658 -0.11382 0.60726
 C229 C 0.37606 -0.08238 0.64226
 C230 C 0.35058 -0.10411 0.67959
 H231 H 0.29371 -0.15337 0.74064
 H232 H 0.37913 -0.26955 0.62700
 H233 H 0.41065 -0.19229 0.58480
 H234 H 0.33350 -0.07880 0.70520
 H235 H 0.32380 -0.30609 0.68758
 H236 H 0.37808 -0.04048 0.63989
 C237 C 0.25462 0.35372 0.19297
 C238 C 0.26877 0.30192 0.20351
 C239 C 0.31181 0.27815 0.18148
 C240 C 0.34374 0.30727 0.15249
 C241 C 0.32911 0.35937 0.14162
 C242 C 0.28410 0.38208 0.16157
 C243 C 0.35991 0.38786 0.11120
 C244 C 0.40703 0.36624 0.09414
 C245 C 0.42258 0.31527 0.10658
 C246 C 0.39051 0.28552 0.13480
 H247 H 0.32163 0.23754 0.18825
 H248 H 0.27239 0.42199 0.15363
 H249 H 0.34757 0.42692 0.10102
 H250 H 0.40256 0.24582 0.14322
 H251 H 0.22054 0.37219 0.20866
 H252 H 0.45861 0.29794 0.09319
 C253 C 0.74690 0.17212 -0.20032
 C254 C 0.77662 0.20815 -0.22489
 C255 C 0.83022 0.21346 -0.21394
 C256 C 0.85415 0.18217 -0.17923
 C257 C 0.82440 0.14418 -0.15625
 C258 C 0.77079 0.13952 -0.16706
 C259 C 0.84827 0.11266 -0.12178
 C260 C 0.90072 0.12043 -0.10831
 C261 C 0.92966 0.15902 -0.13046
 C262 C 0.90692 0.18899 -0.16626
 H263 H 0.85292 0.24268 -0.23134
 H264 H 0.74712 0.11137 -0.14921
 H265 H 0.82543 0.08368 -0.10405
 H266 H 0.93020 0.21823 -0.18308
 H267 H 0.70509 0.16871 -0.20736
 H268 H 0.96995 0.16595 -0.12002
 C269 C 0.74629 0.68577 0.30863
 C270 C 0.77500 0.72490 0.28720
 C271 C 0.82805 0.73135 0.29925
 C272 C 0.85271 0.69811 0.33196
 C273 C 0.82408 0.65742 0.35218
 C274 C 0.77085 0.65166 0.34034
 C275 C 0.84876 0.62403 0.38474
 C276 C 0.90098 0.63210 0.39870
 C277 C 0.92893 0.67299 0.37900
 C278 C 0.90523 0.70533 0.34538
 H279 H 0.84987 0.76264 0.28391
 H280 H 0.74810 0.62120 0.35597
 H281 H 0.82679 0.59304 0.40050
 H282 H 0.92766 0.73646 0.33046
 H283 H 0.70493 0.68119 0.30035
 H284 H 0.96922 0.67977 0.38958
 C285 C 0.32821 0.23036 0.28430
 C286 C 0.27372 0.22213 0.28256
 C287 C 0.25208 0.18448 0.31166
 C288 C 0.28505 0.15397 0.34100
 C289 C 0.34022 0.16090 0.34048
 C290 C 0.36134 0.19922 0.31214
 C291 C 0.37335 0.13088 0.36962
 C292 C 0.35212 0.09561 0.40108
 C293 C 0.29729 0.08905 0.40193
 C294 C 0.26400 0.11747 0.37157
 H295 H 0.20974 0.17943 0.31177
 H296 H 0.40337 0.20606 0.31240
 H297 H 0.41558 0.13670 0.36923
 H298 H 0.22181 0.11176 0.37269
 H299 H 0.34557 0.26157 0.26506
 H300 H 0.28030 0.06204 0.42614
 C301 C 0.25716 0.66469 -0.17090
 C302 C 0.28814 0.69167 -0.20237
 C303 C 0.34317 0.68536 -0.20094
 C304 C 0.36747 0.65347 -0.16722
 C305 C 0.33622 0.62710 -0.13482
 C306 C 0.28101 0.63220 -0.13748
 C307 C 0.36074 0.59779 -0.09933
 C308 C 0.41605 0.59543 -0.09537
 C309 C 0.44670 0.62043 -0.12860
 C310 C 0.42260 0.64910 -0.16432
 H311 H 0.36736 0.70683 -0.22463
 H312 H 0.25644 0.61233 -0.11295
 H313 H 0.33682 0.57844 -0.07394
 H314 H 0.44708 0.66889 -0.18900
 H315 H 0.21456 0.66977 -0.17149
 H316 H 0.48941 0.61864 -0.12650
 C317 C 1.25632 -0.17905 -0.17679
 C318 C 1.22493 -0.21054 -0.20396
 C319 C 1.16985 -0.20774 -0.19989
 C320 C 1.14613 -0.17343 -0.16892
 C321 C 1.17791 -0.14033 -0.14284
 C322 C 1.23297 -0.14329 -0.14718
 C323 C 1.15420 -0.10634 -0.11158
 C324 C 1.09955 -0.10700 -0.10443
 C325 C 1.06839 -0.14047 -0.12979
 C326 C 1.09133 -0.17281 -0.16249
 H327 H 1.14549 -0.23339 -0.21949
 H328 H 1.25797 -0.11892 -0.12685
 H329 H 1.17843 -0.08124 -0.09119
 H330 H 1.06644 -0.19824 -0.18186
 H331 H 1.29898 -0.18211 -0.17853
 H332 H 1.02633 -0.14152 -0.12421
 C333 C 1.22964 0.34021 0.31254
 C334 C 1.19714 0.31044 0.28480
 C335 C 1.14206 0.31589 0.28813
 C336 C 1.11965 0.35035 0.31998
 C337 C 1.15290 0.37901 0.34880
 C338 C 1.20778 0.37418 0.34435
 C339 C 1.13093 0.41050 0.38283
 C340 C 1.07602 0.41340 0.38913
 C341 C 1.04307 0.38727 0.35861
 C342 C 1.06469 0.35585 0.32441
 H343 H 1.11684 0.29289 0.26680
 H344 H 1.23382 0.39601 0.36600
 H345 H 1.15684 0.43081 0.40582
 H346 H 1.03848 0.33478 0.30231
 H347 H 1.27223 0.33665 0.31004
 H348 H 1.00063 0.38959 0.36221
 C349 C 0.64129 -0.19752 0.27663
 C350 C 0.69576 -0.18938 0.27865
 C351 C 0.71575 -0.15442 0.31052
 C352 C 0.68137 -0.12863 0.34085
 C353 C 0.62662 -0.13738 0.33822
 C354 C 0.60692 -0.17103 0.30550
 C355 C 0.59244 -0.11472 0.36991
 C356 C 0.61194 -0.08465 0.40572
 C357 C 0.66615 -0.07446 0.40746
 C358 C 0.70061 -0.09604 0.37502
 H359 H 0.75797 -0.14908 0.31296
 H360 H 0.56510 -0.17866 0.30360
 H361 H 0.55070 -0.12276 0.36786
 H362 H 0.74242 -0.08865 0.37755
 H363 H 0.62488 -0.22602 0.25429
 H364 H 0.68203 -0.05096 0.43450
 C365 C 0.64436 0.28830 -0.23269
 C366 C 0.69945 0.29227 -0.23190
 C367 C 0.72346 0.32133 -0.19760
 C368 C 0.69304 0.34408 -0.16285
 C369 C 0.63766 0.33871 -0.16304
 C370 C 0.61359 0.31182 -0.19875
 C371 C 0.60761 0.35865 -0.12668
 C372 C 0.63232 0.38319 -0.08973
 C373 C 0.68724 0.38943 -0.09058
 C374 C 0.71732 0.37018 -0.12685
 H375 H 0.76612 0.32375 -0.19649
 H376 H 0.57119 0.30722 -0.19941
 H377 H 0.56523 0.35395 -0.12663
 H378 H 0.75971 0.37475 -0.12625
 H379 H 0.62511 0.26517 -0.25815
 H380 H 0.70711 0.40871 -0.06284
 C381 C 1.25665 0.20764 -0.16597
 C382 C 1.22730 0.22284 -0.20530
 C383 C 1.17627 0.20414 -0.21130
 C384 C 1.15454 0.17105 -0.17810
 C385 C 1.18435 0.15622 -0.13847
 C386 C 1.23537 0.17478 -0.13280
 C387 C 1.16228 0.12393 -0.10481
 C388 C 1.11027 0.10735 -0.10979
 C389 C 1.08138 0.12143 -0.14973
 C390 C 1.10339 0.15272 -0.18371
 H391 H 1.15368 0.21470 -0.24196
 H392 H 1.25890 0.16379 -0.10277
 H393 H 1.18461 0.11371 -0.07389
 H394 H 1.08001 0.16342 -0.21390
 H395 H 1.29642 0.22039 -0.16087
 H396 H 1.04128 0.10882 -0.15431
 C397 C 1.15748 0.72219 0.28312
 C398 C 1.21070 0.70596 0.27933
 C399 C 1.23004 0.66510 0.30832
 C400 C 1.19648 0.64090 0.34026
 C401 C 1.14313 0.65776 0.34302
 C402 C 1.12396 0.69787 0.31395
 C403 C 1.11002 0.63579 0.37600
 C404 C 1.12916 0.59737 0.40737
 C405 C 1.18205 0.57984 0.40382
 C406 C 1.21536 0.60133 0.37053
 H407 H 1.27143 0.65334 0.30718
 H408 H 1.08331 0.71179 0.31620
 H409 H 1.06937 0.64983 0.37789
 H410 H 1.25613 0.58769 0.36903
 H411 H 1.14160 0.75529 0.26388
 H412 H 1.19791 0.55022 0.42727
 C413 C 0.75658 0.17406 0.35366
 C414 C 0.73502 0.18085 0.30934
 C415 C 0.68986 0.15416 0.29698
 C416 C 0.66456 0.12314 0.32944
 C417 C 0.68510 0.11839 0.37470
 C418 C 0.73177 0.14310 0.38617
 C419 C 0.65720 0.09130 0.40827
 C420 C 0.60821 0.07049 0.39740
 C421 C 0.58968 0.07267 0.35176
 C422 C 0.61782 0.09856 0.31794
 H423 H 0.67342 0.15848 0.26274
 H424 H 0.74837 0.13953 0.42053
 H425 H 0.67171 0.08971 0.44342
 H426 H 0.60183 0.10132 0.28333
 H427 H 0.79234 0.19309 0.36358
 H428 H 0.55216 0.05632 0.34263
 C429 C 0.65438 0.73422 -0.18710
 C430 C 0.70154 0.71234 -0.20382
 C431 C 0.71891 0.66305 -0.18818
 C432 C 0.68887 0.63516 -0.15658
 C433 C 0.64188 0.65779 -0.13901
 C434 C 0.62476 0.70721 -0.15477
 C435 C 0.61348 0.63105 -0.10538
 C436 C 0.63087 0.58152 -0.08986
 C437 C 0.67638 0.55851 -0.10900
 C438 C 0.70543 0.58531 -0.14176
 H439 H 0.75601 0.64660 -0.20024
 H440 H 0.58882 0.72513 -0.14176
 H441 H 0.57818 0.64889 -0.09103
 H442 H 0.74110 0.56725 -0.15517
 H443 H 0.64101 0.77267 -0.19825
 H444 H 0.69048 0.52036 -0.09756
 C445 C 0.84436 -0.22996 -0.20218
 C446 C 0.79058 -0.21563 -0.20438
 C447 C 0.77118 -0.17570 -0.17648
 C448 C 0.80562 -0.14812 -0.14862
 C449 C 0.86000 -0.16194 -0.14731
 C450 C 0.87890 -0.20324 -0.17394
 C451 C 0.89435 -0.13471 -0.11897
 C452 C 0.87515 -0.09365 -0.09201
 C453 C 0.82107 -0.07986 -0.09413
 C454 C 0.78661 -0.10688 -0.12210
 H455 H 0.72937 -0.16543 -0.17717
 H456 H 0.92034 -0.21484 -0.17294
 H457 H 0.93570 -0.14621 -0.11722
 H458 H 0.74507 -0.09565 -0.12284
 H459 H 0.85981 -0.26208 -0.22187
 H460 H 0.80521 -0.04845 -0.07369
 C461 C 0.86189 0.26193 0.30451
 C462 C 0.80688 0.26957 0.30211
 C463 C 0.78189 0.30512 0.33137
 C464 C 0.81171 0.33279 0.36301
 C465 C 0.86684 0.32310 0.36641
 C466 C 0.89165 0.28830 0.33658
 C467 C 0.89630 0.34813 0.39979
 C468 C 0.87204 0.38485 0.42819
 C469 C 0.81778 0.39604 0.42366
 C470 C 0.78749 0.36935 0.39184
 H471 H 0.73925 0.30992 0.33060
 H472 H 0.93393 0.28079 0.33860
 H473 H 0.93837 0.33991 0.40306
 H474 H 0.74538 0.37762 0.38946
 H475 H 0.88191 0.23375 0.28323
 H476 H 0.79886 0.42486 0.44512
 C477 C 0.34490 -0.23510 0.29425
 C478 C 0.29142 -0.22230 0.28605
 C479 C 0.26683 -0.18249 0.31159
 C480 C 0.29592 -0.15480 0.34400
 C481 C 0.34976 -0.16798 0.35142
 C482 C 0.37382 -0.20809 0.32652
 C483 C 0.37885 -0.14133 0.38403
 C484 C 0.35535 -0.10133 0.41000
 C485 C 0.30195 -0.08766 0.40191
 C486 C 0.27242 -0.11430 0.36922
 H487 H 0.22532 -0.17277 0.30598
 H488 H 0.41507 -0.21880 0.33217
 H489 H 0.42012 -0.15229 0.38932
 H490 H 0.23117 -0.10346 0.36387
 H491 H 0.36462 -0.26635 0.27621
 H492 H 0.28290 -0.05702 0.42128
 C493 C 0.28200 0.36331 -0.21698
 C494 C 0.30005 0.31197 -0.22330
 C495 C 0.34817 0.29524 -0.20320
 C496 C 0.37495 0.32719 -0.17286
 C497 C 0.35466 0.37766 -0.16403
 C498 C 0.30921 0.39603 -0.18767
 C499 C 0.37850 0.40761 -0.13004
 C500 C 0.42119 0.38675 -0.10387
 C501 C 0.44242 0.33750 -0.11460
 C502 C 0.41986 0.30820 -0.14906
 H503 H 0.36301 0.25600 -0.20872
 H504 H 0.29342 0.43485 -0.18194
 H505 H 0.36185 0.44557 -0.12207
 H506 H 0.43612 0.26973 -0.15563
 H507 H 0.24604 0.37793 -0.23318
 H508 H 0.47566 0.32087 -0.09529
 C509 C 1.23960 -0.16160 0.20059
 C510 C 1.22081 -0.21198 0.20741
 C511 C 1.17755 -0.22769 0.18100
 C512 C 1.15120 -0.19258 0.15066
 C513 C 1.17071 -0.14219 0.14384
 C514 C 1.21509 -0.12723 0.16887
 C515 C 1.14551 -0.10777 0.11208
 C516 C 1.09953 -0.12231 0.08888
 C517 C 1.07934 -0.17173 0.09724
 C518 C 1.10544 -0.20690 0.12721
 H519 H 1.16372 -0.26696 0.18460
 H520 H 1.23074 -0.08885 0.16408
 H521 H 1.16102 -0.06955 0.10593
 H522 H 1.08960 -0.24516 0.13232
 H523 H 1.27407 -0.14880 0.21894
 H524 H 1.04401 -0.18365 0.07956
 C525 C 1.16732 0.32633 0.72865
 C526 C 1.20520 0.29213 0.71021
 C527 C 1.20214 0.27994 0.66332
 C528 C 1.16418 0.30491 0.63446
 C529 C 1.12901 0.34239 0.65293
 C530 C 1.13001 0.35189 0.70019
 C531 C 1.09456 0.37095 0.62367
 C532 C 1.09427 0.36244 0.57613
 C533 C 1.12672 0.32288 0.55825
 C534 C 1.16170 0.29438 0.58725
 H535 H 1.22942 0.25173 0.64895
 H536 H 1.10245 0.37966 0.71503
 H537 H 1.06924 0.40133 0.63764
 H538 H 1.18803 0.26541 0.57254
 H539 H 1.16716 0.33404 0.76507
 H540 H 1.12722 0.31615 0.52164
 C541 C 0.71354 -0.14963 0.72101
 C542 C 0.70284 -0.20271 0.72232
 C543 C 0.66285 -0.22174 0.69421
 C544 C 0.63432 -0.18818 0.66420
 C545 C 0.64506 -0.13463 0.66326
 C546 C 0.68431 -0.11567 0.69219
 C547 C 0.61793 -0.10132 0.63208
 C548 C 0.58178 -0.12123 0.60059
 C549 C 0.57093 -0.17433 0.60202
 C550 C 0.59652 -0.20748 0.63399
 H551 H 0.65509 -0.26290 0.69470
 H552 H 0.69351 -0.07487 0.69150
 H553 H 0.62686 -0.06043 0.63077
 H554 H 0.58783 -0.24840 0.63422
 H555 H 0.74528 -0.13429 0.74122
 H556 H 0.54296 -0.19023 0.57808
 C557 C 0.69594 0.22729 0.19250
 C558 C 0.71875 0.25721 0.22689
 C559 C 0.70937 0.31106 0.22651
 C560 C 0.67795 0.33487 0.19172
 C561 C 0.65613 0.30447 0.15667
 C562 C 0.66471 0.25059 0.15783
 C563 C 0.62792 0.32860 0.12009
 C564 C 0.62169 0.38290 0.11780
 C565 C 0.64127 0.41247 0.15402
 C566 C 0.66930 0.38877 0.19053
 H567 H 0.72776 0.33474 0.25206
 H568 H 0.64858 0.22664 0.13120
 H569 H 0.61270 0.30529 0.09258
 H570 H 0.68509 0.41270 0.21734
 H571 H 0.70399 0.18588 0.19127
 H572 H 0.63563 0.45418 0.15376
 C573 C 0.81324 0.13267 0.23205
 C574 C 0.81072 0.18700 0.22977
 C575 C 0.83829 0.21364 0.19576
 C576 C 0.86694 0.18618 0.16288
 C577 C 0.86797 0.13126 0.16424
 C578 C 0.84184 0.10486 0.19942
 C579 C 0.89375 0.10383 0.12959
 C580 C 0.91785 0.13059 0.09369
 C581 C 0.91869 0.18485 0.09337
 C582 C 0.89325 0.21263 0.12784
 H583 H 0.83607 0.25571 0.19410
 H584 H 0.84242 0.06281 0.20097
 H585 H 0.89468 0.06186 0.13013
 H586 H 0.89308 0.25466 0.12652
 H587 H 0.79203 0.11161 0.25812
 H588 H 0.93768 0.20563 0.06572
 C589 C 0.75671 0.66145 0.70129
 C590 C 0.77737 0.70915 0.71398
 C591 C 0.82111 0.72813 0.69069
 C592 C 0.84618 0.69843 0.65695
 C593 C 0.82575 0.65001 0.64464
 C594 C 0.78074 0.63201 0.66691
 C595 C 0.85082 0.62054 0.61047
 C596 C 0.89703 0.63823 0.58975
 C597 C 0.91706 0.68624 0.60266
 C598 C 0.89157 0.71632 0.63553
 H599 H 0.83588 0.76593 0.69902
 H600 H 0.76417 0.59525 0.65775
 H601 H 0.83521 0.58352 0.60081
 H602 H 0.90778 0.75327 0.64462
 H603 H 0.72144 0.64724 0.71731
 H604 H 0.95246 0.70080 0.58699
 C605 C 0.30525 0.16604 0.72571
 C606 C 0.30225 0.21923 0.71498
 C607 C 0.33069 0.23876 0.67759
 C608 C 0.35857 0.20456 0.64886
 C609 C 0.35960 0.15082 0.65922
 C610 C 0.33418 0.13214 0.69834
 C611 C 0.38336 0.11604 0.62901
 C612 C 0.40428 0.13355 0.58720
 C613 C 0.40561 0.18716 0.57796
 C614 C 0.38320 0.22251 0.60882
 H615 H 0.32865 0.27996 0.66950
 H616 H 0.33483 0.09101 0.70671
 H617 H 0.38267 0.07482 0.63696
 H618 H 0.38309 0.26360 0.60040
 H619 H 0.28423 0.14999 0.75452
 H620 H 0.42194 0.20158 0.54614
 C621 C 0.33435 0.73595 0.18247
 C622 C 0.29783 0.70782 0.20832
 C623 C 0.29565 0.65381 0.20248
 C624 C 0.32954 0.62858 0.17102
 C625 C 0.36551 0.65769 0.14493
 C626 C 0.36775 0.71128 0.15124
 C627 C 0.39805 0.63300 0.11238
 C628 C 0.39532 0.57926 0.10525
 C629 C 0.36037 0.55053 0.13233
 C630 C 0.32779 0.57484 0.16469
 H631 H 0.26737 0.63152 0.22158
 H632 H 0.39508 0.73431 0.13169
 H633 H 0.42483 0.65583 0.09204
 H634 H 0.30084 0.55160 0.18443
 H635 H 0.33708 0.77753 0.18618
 H636 H 0.35757 0.50919 0.12807
   
