data_POSCAR
  _audit_creation_date              2014-09-24
  _audit_creation_method            'ToBaCCo'
  _symmetry_space_group_name_H-M    'P1'
  _symmetry_Int_Tables_number       1
  _symmetry_cell_setting            triclinic
  loop_
  _symmetry_equiv_pos_as_xyz
 x,y,z
_cell_length_a 24.9130
_cell_length_b 20.1528
_cell_length_c 20.1683
_cell_angle_alpha 89.326700
_cell_angle_beta 89.664700
_cell_angle_gamma 89.445500
loop_
  _atom_site_label
  _atom_site_type_symbol
  _atom_site_fract_x
  _atom_site_fract_y
  _atom_site_fract_z
O1 O 0.07706 0.11744 0.12132
 O2 O 0.13584 0.05588 0.05869
 C3 C 0.12522 0.09927 0.10401
 O4 O -0.07352 -0.11819 0.12128
 O5 O -0.13208 -0.05364 0.06076
 C6 C -0.12163 -0.09994 0.10402
 O7 O 0.07689 -0.11333 0.12566
 O8 O 0.13624 -0.05532 0.06042
 C9 C 0.12535 -0.09740 0.10765
 O10 O -0.07333 0.12563 0.11470
 O11 O -0.13250 0.06213 0.05670
 C12 C -0.12158 0.10873 0.09801
 Zr13 Zr 0.00207 0.08637 0.08446
 O14 O -0.00430 0.08715 0.18918
 O15 O 0.00855 0.19104 0.08177
 Zr16 Zr 0.00156 -0.08127 0.08844
 O17 O -0.00463 -0.07863 0.19315
 O18 O 0.00740 -0.18612 0.09148
 O19 O 0.04977 0.00184 0.09908
 O20 O -0.04493 0.00351 0.09881
 O21 O -0.07321 0.12271 -0.11493
 O22 O -0.13244 0.06069 -0.05309
 C23 C -0.12153 0.10617 -0.09698
 O24 O 0.07688 -0.11612 -0.11658
 O25 O 0.13630 -0.05691 -0.05449
 C26 C 0.12525 -0.09973 -0.09984
 O27 O -0.07405 -0.11972 -0.10878
 O28 O -0.13288 -0.05425 -0.04993
 C29 C -0.12215 -0.10110 -0.09142
 O30 O 0.07772 0.11342 -0.12183
 O31 O 0.13666 0.05344 -0.05711
 C32 C 0.12589 0.09564 -0.10427
 Zr33 Zr 0.00221 0.08439 -0.08308
 O34 O -0.00381 0.08369 -0.18773
 O35 O 0.00880 0.18906 -0.08497
 Zr36 Zr 0.00153 -0.08330 -0.07916
 O37 O -0.00463 -0.08452 -0.18379
 O38 O 0.00733 -0.18818 -0.07652
 Zr39 Zr 0.08179 0.00005 0.00206
 Zr40 Zr -0.07804 0.00296 0.00307
 O41 O -0.04475 0.00122 -0.09303
 O42 O 0.04973 -0.00048 -0.09448
 O43 O -0.04566 0.09927 0.00064
 O44 O 0.04813 -0.09533 0.00459
 O45 O 0.04890 0.09663 0.00009
 O46 O -0.04636 -0.09445 0.00524
 H47 H -0.06937 0.00438 0.13773
 H48 H 0.07233 -0.13463 0.00528
 H49 H -0.06906 0.00118 -0.13173
 H50 H 0.07339 0.13508 -0.00100
 H51 H -0.02154 -0.20347 0.06336
 H52 H -0.02311 -0.20484 -0.04961
 H53 H 0.02533 -0.05805 -0.20210
 H54 H 0.02560 0.05520 -0.20473
 H55 H -0.02172 0.20732 -0.05919
 H56 H -0.02115 0.20862 0.05417
 H57 H 0.02553 0.05970 0.20702
 H58 H 0.02650 -0.05378 0.20969
 O59 O 0.57311 0.61013 0.61870
 O60 O 0.63253 0.55130 0.55407
 C61 C 0.62138 0.59287 0.60068
 O62 O 0.42333 0.37512 0.61131
 O63 O 0.36376 0.44008 0.55236
 C64 C 0.37497 0.39307 0.59457
 O65 O 0.57379 0.37993 0.61765
 O66 O 0.63233 0.44057 0.55374
 C67 C 0.62189 0.39729 0.59993
 O68 O 0.42269 0.61772 0.61422
 O69 O 0.36384 0.55565 0.55435
 C70 C 0.37451 0.60095 0.59736
 Zr71 Zr 0.49785 0.58017 0.58145
 O72 O 0.49177 0.57777 0.68622
 O73 O 0.50347 0.68493 0.58200
 Zr74 Zr 0.49871 0.41250 0.57987
 O75 O 0.49248 0.40963 0.68458
 O76 O 0.50543 0.30771 0.57753
 O77 O 0.54613 0.49592 0.59340
 O78 O 0.45159 0.49624 0.59314
 O79 O 0.42271 0.62251 0.38312
 O80 O 0.36398 0.55773 0.44258
 C81 C 0.37461 0.60483 0.40042
 O82 O 0.57466 0.38558 0.37434
 O83 O 0.63319 0.44424 0.43814
 C84 C 0.62273 0.40255 0.39172
 O85 O 0.42419 0.37857 0.38105
 O86 O 0.36459 0.44122 0.44155
 C87 C 0.37579 0.39568 0.39858
 O88 O 0.57329 0.61567 0.37642
 O89 O 0.63258 0.55418 0.43924
 C90 C 0.62163 0.59793 0.39356
 Zr91 Zr 0.49785 0.58364 0.41393
 O92 O 0.49186 0.58499 0.30923
 O93 O 0.50332 0.68840 0.41472
 Zr94 Zr 0.49893 0.41609 0.41243
 O95 O 0.49284 0.41903 0.30776
 O96 O 0.50583 0.31133 0.41130
 Zr97 Zr 0.57822 0.49796 0.49643
 Zr98 Zr 0.41811 0.49833 0.49753
 O99 O 0.45159 0.50021 0.40145
 O100 O 0.54629 0.50004 0.39982
 O101 O 0.44979 0.59502 0.49815
 O102 O 0.54561 0.40205 0.49576
 O103 O 0.54441 0.59401 0.49751
 O104 O 0.45093 0.40143 0.49634
 H105 H 0.42735 0.49556 0.63225
 H106 H 0.57020 0.36313 0.49529
 H107 H 0.42731 0.50100 0.36271
 H108 H 0.56853 0.63281 0.49774
 H109 H 0.47429 0.29096 0.55279
 H110 H 0.47667 0.29336 0.43951
 H111 H 0.52311 0.44562 0.29045
 H112 H 0.52261 0.55920 0.29150
 H113 H 0.47355 0.70536 0.44262
 H114 H 0.47324 0.70304 0.55562
 H115 H 0.52220 0.55082 0.70323
 H116 H 0.52124 0.43783 0.70218
 C117 C 0.17126 0.13010 0.13695
 C118 C 0.16468 0.17733 0.18669
 C119 C 0.20969 0.21081 0.22033
 C120 C 0.19917 0.24420 0.27981
 C121 C 0.23999 0.27748 0.31279
 C122 C 0.29242 0.27876 0.28647
 C123 C 0.30300 0.24515 0.22714
 C124 C 0.26218 0.21188 0.19415
 C125 C 0.33720 0.31327 0.31953
 C126 C 0.33015 0.36196 0.36774
 H127 H 0.12430 0.18953 0.20306
 H128 H 0.15917 0.24418 0.30118
 H129 H 0.23019 0.30113 0.35917
 H130 H 0.34298 0.24528 0.20571
 H131 H 0.27199 0.18829 0.14775
 H132 H 0.37766 0.30136 0.30329
 H133 H 0.21099 0.11421 0.12179
 H134 H 0.29025 0.37746 0.38262
 C135 C 0.83205 0.86705 0.13538
 C136 C 0.83782 0.81531 0.18159
 C137 C 0.79193 0.78114 0.21403
 C138 C 0.74012 0.80947 0.21716
 C139 C 0.69824 0.77570 0.24888
 C140 C 0.70714 0.71345 0.27897
 C141 C 0.75890 0.68502 0.27569
 C142 C 0.80078 0.71878 0.24394
 C143 C 0.66145 0.67966 0.31222
 C144 C 0.66764 0.62940 0.35994
 H145 H 0.87790 0.79736 0.19302
 H146 H 0.73168 0.85811 0.19640
 H147 H 0.65881 0.79878 0.25068
 H148 H 0.76731 0.63640 0.29654
 H149 H 0.84023 0.69573 0.24223
 H150 H 0.62129 0.69726 0.30075
 H151 H 0.79253 0.88343 0.12009
 H152 H 0.70733 0.61361 0.37521
 C153 C 0.83246 0.14024 0.87161
 C154 C 0.83865 0.18786 0.82131
 C155 C 0.79299 0.22149 0.78742
 C156 C 0.80190 0.25157 0.72526
 C157 C 0.76005 0.28360 0.69134
 C158 C 0.70825 0.28704 0.71943
 C159 C 0.69939 0.25716 0.78170
 C160 C 0.74124 0.22512 0.81561
 C161 C 0.66239 0.31970 0.68502
 C162 C 0.66819 0.36599 0.63342
 H163 H 0.87880 0.19893 0.80374
 H164 H 0.84133 0.24951 0.70236
 H165 H 0.76850 0.30432 0.64277
 H166 H 0.65994 0.25912 0.80455
 H167 H 0.73282 0.20428 0.86415
 H168 H 0.62230 0.30831 0.70262
 H169 H 0.79277 0.12538 0.88744
 H170 H 0.70773 0.38128 0.61744
 C171 C 0.17094 0.86822 0.86600
 C172 C 0.16377 0.82031 0.81728
 C173 C 0.20837 0.78626 0.78177
 C174 C 0.19740 0.72759 0.74773
 C175 C 0.23797 0.69380 0.71329
 C176 C 0.29061 0.71853 0.71146
 C177 C 0.30154 0.77732 0.74535
 C178 C 0.26096 0.81108 0.77982
 C179 C 0.33538 0.68405 0.67665
 C180 C 0.32856 0.63459 0.62942
 H181 H 0.12325 0.80522 0.80591
 H182 H 0.15727 0.70732 0.74836
 H183 H 0.22782 0.64796 0.68934
 H184 H 0.34167 0.79756 0.74479
 H185 H 0.27107 0.85692 0.80382
 H186 H 0.37582 0.69954 0.68789
 H187 H 0.21085 0.88206 0.88096
 H188 H 0.28878 0.62015 0.61454
 C189 C 0.17163 0.12552 0.86048
 C190 C 0.16436 0.17380 0.81106
 C191 C 0.20904 0.20706 0.77583
 C192 C 0.19896 0.26839 0.74453
 C193 C 0.23987 0.30183 0.71084
 C194 C 0.29176 0.27394 0.70688
 C195 C 0.30180 0.21245 0.73799
 C196 C 0.26087 0.17905 0.77183
 C197 C 0.33660 0.30803 0.67266
 C198 C 0.32942 0.35883 0.62581
 H199 H 0.12393 0.19052 0.79972
 H200 H 0.15939 0.29104 0.74698
 H201 H 0.23064 0.34991 0.68929
 H202 H 0.34141 0.18989 0.73568
 H203 H 0.26998 0.13107 0.79374
 H204 H 0.37705 0.29128 0.68386
 H205 H 0.21155 0.11054 0.87561
 H206 H 0.28954 0.37401 0.61071
 C207 C 0.83215 0.86555 0.87912
 C208 C 0.83964 0.80908 0.82731
 C209 C 0.79183 0.77231 0.79212
 C210 C 0.80242 0.72397 0.74423
 C211 C 0.76017 0.69262 0.71239
 C212 C 0.70678 0.70907 0.72812
 C213 C 0.69618 0.75703 0.77638
 C214 C 0.73844 0.78850 0.80812
 C215 C 0.65902 0.67424 0.69093
 C216 C 0.66679 0.62245 0.63452
 H217 H 0.88149 0.78468 0.80519
 H218 H 0.84331 0.71077 0.73113
 H219 H 0.76916 0.65570 0.67530
 H220 H 0.65529 0.77047 0.78924
 H221 H 0.72947 0.82567 0.84497
 H222 H 0.61713 0.69659 0.71505
 H223 H 0.83768 0.83511 0.85122
 H224 H 0.66093 0.65033 0.66489
 C225 C 0.16697 0.87382 0.13889
 C226 C 0.16046 0.82638 0.18956
 C227 C 0.20579 0.79256 0.22336
 C228 C 0.25730 0.82028 0.22634
 C229 C 0.29883 0.78644 0.25901
 C230 C 0.28971 0.72481 0.28997
 C231 C 0.23813 0.69721 0.28699
 C232 C 0.19663 0.73109 0.25448
 C233 C 0.33510 0.69031 0.32314
 C234 C 0.32863 0.63944 0.37000
 H235 H 0.12038 0.81039 0.20311
 H236 H 0.26566 0.86840 0.20460
 H237 H 0.33818 0.80879 0.26060
 H238 H 0.22959 0.64904 0.30841
 H239 H 0.15731 0.70866 0.25281
 H240 H 0.37531 0.70686 0.31121
 H241 H 0.20706 0.88707 0.12290
 H242 H 0.28897 0.62448 0.38578
 C243 C 0.83261 0.14394 0.12786
 C244 C 0.83926 0.19307 0.17515
 C245 C 0.79377 0.22753 0.20774
 C246 C 0.80202 0.25639 0.26971
 C247 C 0.76001 0.28868 0.30264
 C248 C 0.70889 0.29369 0.27354
 C249 C 0.70075 0.26518 0.21135
 C250 C 0.74277 0.23278 0.17846
 C251 C 0.66299 0.32643 0.30713
 C252 C 0.66894 0.37241 0.35763
 H253 H 0.87942 0.20429 0.19175
 H254 H 0.84093 0.25293 0.29329
 H255 H 0.76770 0.30822 0.35131
 H256 H 0.66179 0.26842 0.18786
 H257 H 0.73517 0.21288 0.12989
 H258 H 0.62296 0.31510 0.29013
 H259 H 0.79280 0.12889 0.11356
 H260 H 0.70847 0.38776 0.37266
   
