data_POSCAR
  _audit_creation_date              2014-09-24
  _audit_creation_method            'ToBaCCo'
  _symmetry_space_group_name_H-M    'P1'
  _symmetry_Int_Tables_number       1
  _symmetry_cell_setting            triclinic
  loop_
  _symmetry_equiv_pos_as_xyz
 x,y,z
_cell_length_a 51.8002
_cell_length_b 51.7982
_cell_length_c 49.5621
_cell_angle_alpha 89.971400
_cell_angle_beta 89.968900
_cell_angle_gamma 89.771000
loop_
  _atom_site_label
  _atom_site_type_symbol
  _atom_site_fract_x
  _atom_site_fract_y
  _atom_site_fract_z
O1 O -0.02890 0.28478 0.02854
 O2 O 0.02216 0.28656 -0.02316
 O3 O -0.02814 0.28610 -0.02390
 O4 O 0.02138 0.28506 0.02939
 O5 O 0.02187 0.24238 0.02816
 O6 O -0.02760 0.24342 -0.02509
 O7 O 0.02267 0.24389 -0.02437
 O8 O -0.02840 0.24210 0.02734
 Cu9 Cu -0.00340 0.28994 0.00284
 Cu10 Cu -0.00279 0.23864 0.00138
 C11 C -0.03732 0.26314 0.03661
 C12 C 0.03102 0.26553 -0.03251
 C13 C -0.03627 0.26492 -0.03343
 C14 C 0.02997 0.26353 0.03778
 O15 O 0.47812 0.77930 0.52860
 O16 O 0.52883 0.78018 0.47653
 O17 O 0.47857 0.78036 0.47599
 O18 O 0.52838 0.77884 0.52903
 O19 O 0.52827 0.73615 0.52799
 O20 O 0.47848 0.73768 0.47497
 O21 O 0.52875 0.73750 0.47547
 O22 O 0.47800 0.73661 0.52760
 Cu23 Cu 0.50346 0.78397 0.50265
 Cu24 Cu 0.50334 0.73268 0.50140
 C25 C 0.46954 0.75782 0.53694
 C26 C 0.53735 0.75900 0.46721
 C27 C 0.47016 0.75927 0.46648
 C28 C 0.53675 0.75723 0.53745
 O29 O 0.97835 0.71457 -0.02448
 O30 O 1.02920 0.71606 0.02742
 O31 O 0.97890 0.71590 0.02809
 O32 O 1.02865 0.71492 -0.02504
 O33 O 1.02823 0.75760 -0.02612
 O34 O 0.97851 0.75858 0.02697
 O35 O 1.02880 0.75874 0.02633
 O36 O 0.97793 0.75725 -0.02558
 Cu37 Cu 1.00379 0.71106 0.00161
 Cu38 Cu 1.00330 0.76235 0.00029
 C39 C 0.96956 0.73565 -0.03381
 C40 C 1.03763 0.73764 0.03559
 C41 C 0.97033 0.73741 0.03651
 C42 C 1.03689 0.73611 -0.03450
 O43 O 0.52181 0.21991 0.52918
 O44 O 0.47098 0.21870 0.47732
 O45 O 0.52122 0.21870 0.47658
 O46 O 0.47156 0.22019 0.52982
 O47 O 0.47152 0.26287 0.52860
 O48 O 0.52116 0.26138 0.47540
 O49 O 0.47090 0.26139 0.47610
 O50 O 0.52177 0.26259 0.52800
 Cu51 Cu 0.49642 0.21507 0.50335
 Cu52 Cu 0.49635 0.26637 0.50190
 C53 C 0.53032 0.24144 0.53740
 C54 C 0.46236 0.23983 0.46796
 C55 C 0.52952 0.23980 0.46696
 C56 C 0.46316 0.24179 0.53818
 O57 O 0.71933 -0.02813 0.02222
 O58 O 0.72029 0.02287 -0.02954
 O59 O 0.72081 -0.02737 -0.03027
 O60 O 0.71904 0.02211 0.02306
 O61 O 0.76171 0.02226 0.02422
 O62 O 0.76349 -0.02719 -0.02908
 O63 O 0.76296 0.02306 -0.02839
 O64 O 0.76201 -0.02799 0.02341
 Cu65 Cu 0.71556 -0.00262 -0.00376
 Cu66 Cu 0.76685 -0.00242 -0.00234
 C67 C 0.74050 -0.03668 0.03154
 C68 C 0.74177 0.03153 -0.03777
 C69 C 0.74245 -0.03564 -0.03866
 C70 C 0.74008 0.03048 0.03269
 O71 O 0.21567 0.52850 0.47153
 O72 O 0.21400 0.47774 0.52355
 O73 O 0.21449 0.52805 0.52400
 O74 O 0.21544 0.47820 0.47098
 O75 O 0.25812 0.47772 0.47212
 O76 O 0.25717 0.52753 0.52509
 O77 O 0.25668 0.47723 0.52467
 O78 O 0.25835 0.52801 0.47263
 Cu79 Cu 0.21060 0.50315 0.49740
 Cu80 Cu 0.26189 0.50255 0.49874
 C81 C 0.23729 0.53687 0.46335
 C82 C 0.23505 0.46893 0.53290
 C83 C 0.23569 0.53624 0.53344
 C84 C 0.23695 0.46956 0.46260
 O85 O 0.27995 1.02924 0.02350
 O86 O 0.27913 0.97844 -0.02846
 O87 O 0.27858 1.02869 -0.02900
 O88 O 0.28025 0.97898 0.02416
 O89 O 0.23757 0.97880 0.02526
 O90 O 0.23591 1.02851 -0.02788
 O91 O 0.23645 0.97824 -0.02737
 O92 O 0.23727 1.02907 0.02463
 Cu93 Cu 0.28378 1.00383 -0.00257
 Cu94 Cu 0.23250 1.00361 -0.00122
 C95 C 0.25876 1.03774 0.03284
 C96 C 0.25766 0.96981 -0.03674
 C97 C 0.25696 1.03700 -0.03741
 C98 C 0.25919 0.97055 0.03373
 O99 O 0.78718 0.52203 0.52270
 O100 O 0.78508 0.47113 0.47094
 O101 O 0.78558 0.52141 0.47015
 O102 O 0.78643 0.47174 0.52337
 O103 O 0.74375 0.47249 0.52466
 O104 O 0.74290 0.52211 0.47148
 O105 O 0.74240 0.47184 0.47224
 O106 O 0.74451 0.52276 0.52401
 Cu107 Cu 0.79038 0.49653 0.49666
 Cu108 Cu 0.73908 0.49740 0.49823
 C109 C 0.76620 0.53097 0.53211
 C110 C 0.76340 0.46284 0.46290
 C111 C 0.76409 0.53013 0.46182
 C112 C 0.76521 0.46368 0.53294
 C113 C 0.23935 0.25955 0.25035
 C114 C 0.25789 0.24079 0.25020
 C115 C 0.25942 0.22125 0.22830
 C116 C 0.27752 0.23889 0.27196
 C117 C 0.23956 0.28088 0.27040
 C118 C 0.21789 0.25969 0.23048
 C119 C 0.25955 0.19484 0.23475
 C120 C 0.26030 0.17628 0.21430
 C121 C 0.26114 0.18392 0.18721
 C122 C 0.26157 0.21021 0.18065
 C123 C 0.26086 0.22880 0.20109
 C124 C 0.27008 0.23731 0.29919
 C125 C 0.28875 0.23638 0.31952
 C126 C 0.31501 0.23676 0.31282
 C127 C 0.32253 0.23770 0.28571
 C128 C 0.30388 0.23866 0.26536
 C129 C 0.26138 0.29666 0.27353
 C130 C 0.26140 0.31645 0.29270
 C131 C 0.23954 0.32084 0.30872
 C132 C 0.21760 0.30549 0.30536
 C133 C 0.21756 0.28568 0.28623
 C134 C 0.21329 0.28178 0.21475
 C135 C 0.19343 0.28201 0.19569
 C136 C 0.17784 0.26024 0.19233
 C137 C 0.18201 0.23831 0.20829
 C138 C 0.20185 0.23806 0.22739
 H139 H 0.25861 0.18864 0.25559
 H140 H 0.26003 0.15599 0.21960
 H141 H 0.26235 0.21633 0.15976
 H142 H 0.26127 0.24906 0.19571
 H143 H 0.24984 0.23697 0.30466
 H144 H 0.28272 0.23554 0.34044
 H145 H 0.30999 0.23972 0.24449
 H146 H 0.27835 0.29360 0.26116
 H147 H 0.27844 0.32830 0.29505
 H148 H 0.20057 0.30876 0.31760
 H149 H 0.20051 0.27384 0.28401
 H150 H 0.22535 0.29868 0.21696
 H151 H 0.19033 0.29909 0.18348
 H152 H 0.16997 0.22140 0.20593
 H153 H 0.20477 0.22102 0.23970
 H154 H 0.34280 0.23794 0.28031
 C155 C 0.76060 0.73974 0.24911
 C156 C 0.74188 0.75832 0.24912
 C157 C 0.74012 0.77794 0.22731
 C158 C 0.72225 0.75994 0.27093
 C159 C 0.76064 0.71834 0.26908
 C160 C 0.78201 0.73988 0.22915
 C161 C 0.73984 0.80432 0.23386
 C162 C 0.73895 0.82296 0.21349
 C163 C 0.73810 0.81543 0.18638
 C164 C 0.73780 0.78917 0.17971
 C165 C 0.73866 0.77050 0.20008
 C166 C 0.72970 0.76146 0.29816
 C167 C 0.71104 0.76222 0.31853
 C168 C 0.68477 0.76174 0.31188
 C169 C 0.67724 0.76082 0.28478
 C170 C 0.69588 0.76003 0.26440
 C171 C 0.73898 0.70234 0.27221
 C172 C 0.73916 0.68252 0.29137
 C173 C 0.76105 0.67834 0.30737
 C174 C 0.78285 0.69390 0.30398
 C175 C 0.78269 0.71373 0.28486
 C176 C 0.78678 0.71788 0.21335
 C177 C 0.80662 0.71788 0.19424
 C178 C 0.82202 0.73980 0.19087
 C179 C 0.81767 0.76165 0.20689
 C180 C 0.79785 0.76166 0.22604
 H181 H 0.74081 0.81043 0.25473
 H182 H 0.73913 0.84323 0.21886
 H183 H 0.73702 0.78314 0.15880
 H184 H 0.73836 0.75026 0.19463
 H185 H 0.74994 0.76190 0.30360
 H186 H 0.71707 0.76305 0.33944
 H187 H 0.68976 0.75902 0.24353
 H188 H 0.72197 0.70526 0.25987
 H189 H 0.72223 0.67051 0.29374
 H190 H 0.79991 0.69078 0.31621
 H191 H 0.79962 0.72575 0.28263
 H192 H 0.77489 0.70086 0.21556
 H193 H 0.80987 0.70085 0.18199
 H194 H 0.82956 0.77867 0.20454
 H195 H 0.79480 0.77864 0.23840
 H196 H 0.65697 0.76051 0.27942
 C197 C 0.73512 0.23545 0.24996
 C198 C 0.75371 0.25401 0.24988
 C199 C 0.77359 0.25538 0.22831
 C200 C 0.75516 0.27391 0.27139
 C201 C 0.71369 0.23571 0.26990
 C202 C 0.73534 0.21397 0.23010
 C203 C 0.79987 0.25566 0.23526
 C204 C 0.81879 0.25676 0.21520
 C205 C 0.81164 0.25780 0.18799
 C206 C 0.78548 0.25793 0.18090
 C207 C 0.76652 0.25686 0.20097
 C208 C 0.75673 0.26685 0.29874
 C209 C 0.75785 0.28582 0.31875
 C210 C 0.75767 0.31198 0.31161
 C211 C 0.75656 0.31911 0.28439
 C212 C 0.75541 0.30017 0.26438
 C213 C 0.69772 0.25753 0.27286
 C214 C 0.67817 0.25782 0.29232
 C215 C 0.67422 0.23622 0.30880
 C216 C 0.68967 0.21421 0.30549
 C217 C 0.70923 0.21391 0.28607
 C218 C 0.71354 0.20955 0.21395
 C219 C 0.71383 0.18999 0.19454
 C220 C 0.73584 0.17452 0.19125
 C221 C 0.75742 0.17843 0.20772
 C222 C 0.75714 0.19796 0.22717
 H223 H 0.80570 0.25469 0.25623
 H224 H 0.83898 0.25673 0.22090
 H225 H 0.77974 0.25887 0.15991
 H226 H 0.74635 0.25717 0.19522
 H227 H 0.75707 0.24669 0.30453
 H228 H 0.75885 0.28011 0.33976
 H229 H 0.75437 0.30599 0.24341
 H230 H 0.70053 0.27436 0.26024
 H231 H 0.66625 0.27491 0.29463
 H232 H 0.68673 0.19737 0.31809
 H233 H 0.72124 0.19685 0.28398
 H234 H 0.69651 0.22158 0.21602
 H235 H 0.69701 0.18709 0.18194
 H236 H 0.77450 0.16649 0.20542
 H237 H 0.77396 0.20076 0.23978
 H238 H 0.75648 0.33929 0.27865
 C239 C 0.26419 0.76425 0.24997
 C240 C 0.24564 0.74563 0.24981
 C241 C 0.22583 0.74427 0.22817
 C242 C 0.24419 0.72566 0.27128
 C243 C 0.28561 0.76392 0.26991
 C244 C 0.26394 0.78583 0.23021
 C245 C 0.19954 0.74384 0.23504
 C246 C 0.18069 0.74280 0.21492
 C247 C 0.18793 0.74199 0.18771
 C248 C 0.21413 0.74199 0.18071
 C249 C 0.23301 0.74299 0.20084
 C250 C 0.24258 0.73264 0.29864
 C251 C 0.24152 0.71361 0.31863
 C252 C 0.24179 0.68747 0.31146
 C253 C 0.24293 0.68042 0.28422
 C254 C 0.24402 0.69941 0.26423
 C255 C 0.30162 0.74210 0.27278
 C256 C 0.32116 0.74175 0.29223
 C257 C 0.32508 0.76327 0.30879
 C258 C 0.30960 0.78528 0.30558
 C259 C 0.29004 0.78565 0.28617
 C260 C 0.28578 0.79047 0.21415
 C261 C 0.28546 0.81016 0.19485
 C262 C 0.26339 0.82554 0.19157
 C263 C 0.24177 0.82142 0.20796
 C264 C 0.24208 0.80176 0.22729
 H265 H 0.19362 0.74465 0.25599
 H266 H 0.16048 0.74274 0.22056
 H267 H 0.21994 0.74123 0.15973
 H268 H 0.25319 0.74280 0.19514
 H269 H 0.24217 0.75278 0.30447
 H270 H 0.24050 0.71928 0.33964
 H271 H 0.24508 0.69364 0.24325
 H272 H 0.29883 0.72533 0.26009
 H273 H 0.33310 0.72466 0.29445
 H274 H 0.31251 0.80206 0.31825
 H275 H 0.27801 0.80270 0.28416
 H276 H 0.30286 0.77851 0.21620
 H277 H 0.30231 0.81322 0.18231
 H278 H 0.22464 0.83328 0.20568
 H279 H 0.22522 0.79881 0.23984
 H280 H 0.24308 0.66024 0.27845
 C281 C 0.75825 0.25835 0.75002
 C282 C 0.73968 0.23977 0.75014
 C283 C 0.71809 0.24007 0.73042
 C284 C 0.74005 0.21828 0.77001
 C285 C 0.77799 0.25998 0.77166
 C286 C 0.75977 0.27802 0.72825
 C287 C 0.70220 0.26197 0.72754
 C288 C 0.68242 0.26227 0.70837
 C289 C 0.67816 0.24061 0.69210
 C290 C 0.69354 0.21854 0.69530
 C291 C 0.71334 0.21822 0.71444
 C292 C 0.71825 0.21359 0.78611
 C293 C 0.71862 0.19385 0.80535
 C294 C 0.74069 0.17848 0.80854
 C295 C 0.76231 0.18269 0.79217
 C296 C 0.76196 0.20241 0.77290
 C297 C 0.80431 0.26034 0.76488
 C298 C 0.82307 0.26163 0.78506
 C299 C 0.81572 0.26277 0.81221
 C300 C 0.78950 0.26285 0.81912
 C301 C 0.77071 0.26159 0.79894
 C302 C 0.76123 0.27064 0.70099
 C303 C 0.76244 0.28937 0.68071
 C304 C 0.76248 0.31561 0.68749
 C305 C 0.76147 0.32306 0.71462
 C306 C 0.76023 0.30436 0.73490
 H307 H 0.70524 0.27883 0.74003
 H308 H 0.67055 0.27940 0.70615
 H309 H 0.69036 0.20166 0.68286
 H310 H 0.72528 0.20112 0.71647
 H311 H 0.70113 0.22551 0.78409
 H312 H 0.70176 0.19071 0.81786
 H313 H 0.77879 0.20539 0.76032
 H314 H 0.81030 0.25928 0.74396
 H315 H 0.84331 0.26161 0.77950
 H316 H 0.78361 0.26384 0.84007
 H317 H 0.75050 0.26185 0.80456
 H318 H 0.76141 0.25042 0.69547
 H319 H 0.76334 0.28340 0.65978
 H320 H 0.76155 0.34331 0.72008
 H321 H 0.75929 0.31043 0.75579
 H322 H 0.77945 0.17082 0.79438
 C323 C 0.24169 0.74198 0.75004
 C324 C 0.26025 0.76058 0.75009
 C325 C 0.28186 0.76023 0.73036
 C326 C 0.25985 0.78213 0.76988
 C327 C 0.22192 0.74040 0.77171
 C328 C 0.24021 0.72224 0.72834
 C329 C 0.29776 0.73834 0.72758
 C330 C 0.31754 0.73797 0.70838
 C331 C 0.32179 0.75956 0.69199
 C332 C 0.30640 0.78164 0.69509
 C333 C 0.28660 0.78202 0.71426
 C334 C 0.28164 0.78690 0.78594
 C335 C 0.28124 0.80667 0.80513
 C336 C 0.25913 0.82201 0.80831
 C337 C 0.23752 0.81772 0.79198
 C338 C 0.23791 0.79797 0.77275
 C339 C 0.19561 0.73997 0.76492
 C340 C 0.17682 0.73877 0.78511
 C341 C 0.18414 0.73778 0.81228
 C342 C 0.21035 0.73775 0.81918
 C343 C 0.22917 0.73891 0.79899
 C344 C 0.23880 0.72954 0.70106
 C345 C 0.23768 0.71076 0.68084
 C346 C 0.23770 0.68453 0.68772
 C347 C 0.23865 0.67716 0.71488
 C348 C 0.23979 0.69591 0.73509
 H349 H 0.29474 0.72152 0.74016
 H350 H 0.32943 0.72083 0.70624
 H351 H 0.30957 0.79847 0.68255
 H352 H 0.27465 0.79913 0.71621
 H353 H 0.29878 0.77501 0.78393
 H354 H 0.29809 0.80987 0.81761
 H355 H 0.22108 0.79493 0.76021
 H356 H 0.18964 0.74094 0.74400
 H357 H 0.15659 0.73875 0.77956
 H358 H 0.21622 0.73686 0.84014
 H359 H 0.24937 0.73870 0.80462
 H360 H 0.23859 0.74975 0.69546
 H361 H 0.23683 0.71667 0.65989
 H362 H 0.23861 0.65693 0.72041
 H363 H 0.24071 0.68990 0.75601
 H364 H 0.22036 0.82955 0.79418
 C365 C 0.25369 0.24575 0.75111
 C366 C 0.23509 0.26447 0.75109
 C367 C 0.23346 0.28407 0.72924
 C368 C 0.21546 0.26624 0.77290
 C369 C 0.25356 0.22436 0.77110
 C370 C 0.27509 0.24572 0.73114
 C371 C 0.23333 0.31045 0.73575
 C372 C 0.23253 0.32907 0.71535
 C373 C 0.23163 0.32151 0.68825
 C374 C 0.23118 0.29524 0.68163
 C375 C 0.23195 0.27659 0.70202
 C376 C 0.22289 0.26772 0.80013
 C377 C 0.20422 0.26864 0.82049
 C378 C 0.17795 0.26837 0.81382
 C379 C 0.17044 0.26749 0.78671
 C380 C 0.18909 0.26654 0.76634
 C381 C 0.23179 0.20852 0.77425
 C382 C 0.23182 0.18871 0.79342
 C383 C 0.25369 0.18437 0.80941
 C384 C 0.27560 0.19977 0.80601
 C385 C 0.27558 0.21960 0.78688
 C386 C 0.27972 0.22367 0.71537
 C387 C 0.29954 0.22352 0.69624
 C388 C 0.31507 0.24534 0.69282
 C389 C 0.31088 0.26724 0.70881
 C390 C 0.29107 0.26740 0.72798
 H391 H 0.23433 0.31659 0.75661
 H392 H 0.23283 0.34935 0.72069
 H393 H 0.23036 0.28918 0.66073
 H394 H 0.23153 0.25635 0.69661
 H395 H 0.24313 0.26800 0.80558
 H396 H 0.21024 0.26943 0.84140
 H397 H 0.18298 0.26557 0.74547
 H398 H 0.21480 0.21156 0.76191
 H399 H 0.21481 0.17682 0.79580
 H400 H 0.29264 0.19653 0.81823
 H401 H 0.29260 0.23148 0.78464
 H402 H 0.26773 0.20672 0.71762
 H403 H 0.30267 0.20646 0.68401
 H404 H 0.32286 0.28417 0.70641
 H405 H 0.28814 0.28441 0.74031
 H406 H 0.15017 0.26733 0.78132
 C407 C 0.74719 0.75449 0.74924
 C408 C 0.76598 0.73597 0.74935
 C409 C 0.76785 0.71631 0.72762
 C410 C 0.78559 0.73448 0.77120
 C411 C 0.74708 0.77597 0.76908
 C412 C 0.72582 0.75424 0.72924
 C413 C 0.76817 0.68996 0.73426
 C414 C 0.76913 0.67127 0.71395
 C415 C 0.77001 0.67875 0.68682
 C416 C 0.77029 0.70500 0.68007
 C417 C 0.76936 0.72371 0.70037
 C418 C 0.77812 0.73307 0.79844
 C419 C 0.79677 0.73235 0.81882
 C420 C 0.82304 0.73276 0.81218
 C421 C 0.83059 0.73359 0.78506
 C422 C 0.81197 0.73434 0.76467
 C423 C 0.76870 0.79204 0.77211
 C424 C 0.76847 0.81192 0.79118
 C425 C 0.74656 0.81609 0.80718
 C426 C 0.72480 0.80047 0.80388
 C427 C 0.72502 0.78057 0.78486
 C428 C 0.72095 0.77622 0.71341
 C429 C 0.70110 0.77615 0.69433
 C430 C 0.68577 0.75418 0.69101
 C431 C 0.69022 0.73234 0.70703
 C432 C 0.71006 0.73239 0.72616
 H433 H 0.76717 0.68388 0.75515
 H434 H 0.76896 0.65101 0.71938
 H435 H 0.77108 0.71100 0.65914
 H436 H 0.76963 0.74394 0.69486
 H437 H 0.75787 0.73266 0.80388
 H438 H 0.79071 0.73159 0.83973
 H439 H 0.81812 0.73527 0.74381
 H440 H 0.78572 0.78912 0.75977
 H441 H 0.78536 0.82398 0.79348
 H442 H 0.70773 0.80358 0.81612
 H443 H 0.70812 0.76850 0.78270
 H444 H 0.73277 0.79329 0.71560
 H445 H 0.69778 0.79318 0.68209
 H446 H 0.67839 0.71528 0.70472
 H447 H 0.71317 0.71543 0.73853
 H448 H 0.85087 0.73386 0.77969
 C449 C 0.27290 0.10178 0.13057
 C450 C 0.24817 0.08988 0.11829
 C451 C 0.25993 0.09297 0.09001
 C452 C 0.28466 0.10458 0.10197
 C453 C 0.26076 0.12875 0.12765
 C454 C 0.27252 0.13186 0.09937
 C455 C 0.23603 0.11714 0.11568
 C456 C 0.24778 0.11994 0.08708
 C457 C 0.25946 0.07296 0.06913
 C458 C 0.25910 0.05642 0.05203
 C459 C 0.26111 0.14857 0.14873
 C460 C 0.26123 0.16475 0.16620
 H461 H 0.28324 0.09454 0.14869
 H462 H 0.23815 0.07240 0.12584
 H463 H 0.30465 0.09919 0.09611
 H464 H 0.28254 0.14934 0.09183
 H465 H 0.21604 0.12253 0.12155
 H466 H 0.23744 0.12719 0.06896
 C467 C 0.78161 0.59630 0.63061
 C468 C 0.75677 0.58446 0.61849
 C469 C 0.76843 0.58738 0.59015
 C470 C 0.79326 0.59892 0.60194
 C471 C 0.76958 0.62331 0.62760
 C472 C 0.78124 0.62625 0.59926
 C473 C 0.74475 0.61177 0.61580
 C474 C 0.75639 0.61439 0.58714
 C475 C 0.76769 0.56731 0.56936
 C476 C 0.76702 0.55074 0.55233
 C477 C 0.77003 0.64321 0.64857
 C478 C 0.77017 0.65947 0.66594
 H479 H 0.79199 0.58909 0.64871
 H480 H 0.74670 0.56706 0.62616
 H481 H 0.81320 0.59341 0.59600
 H482 H 0.79130 0.64365 0.59160
 H483 H 0.72481 0.61728 0.62174
 H484 H 0.74601 0.62160 0.56904
 C485 C 0.72363 0.89659 0.12876
 C486 C 0.74814 0.91075 0.11880
 C487 C 0.73921 0.90678 0.08955
 C488 C 0.71470 0.89292 0.09918
 C489 C 0.73836 0.87084 0.12704
 C490 C 0.72943 0.86685 0.09779
 C491 C 0.76286 0.88470 0.11740
 C492 C 0.75394 0.88103 0.08783
 C493 C 0.73970 0.92688 0.06876
 C494 C 0.74009 0.94349 0.05174
 C495 C 0.73802 0.85093 0.14804
 C496 C 0.73793 0.83468 0.16544
 H497 H 0.71117 0.90276 0.14582
 H498 H 0.75585 0.92902 0.12722
 H499 H 0.69490 0.89653 0.09145
 H500 H 0.72172 0.84857 0.08939
 H501 H 0.78266 0.88109 0.12513
 H502 H 0.76641 0.87486 0.07077
 C503 C 0.21747 0.40261 0.63038
 C504 C 0.24205 0.41668 0.62045
 C505 C 0.23318 0.41265 0.59119
 C506 C 0.20861 0.39888 0.60079
 C507 C 0.23213 0.37681 0.62879
 C508 C 0.22326 0.37277 0.59953
 C509 C 0.25670 0.39058 0.61918
 C510 C 0.24784 0.38685 0.58959
 C511 C 0.23382 0.43268 0.57032
 C512 C 0.23439 0.44921 0.55321
 C513 C 0.23170 0.35695 0.64984
 C514 C 0.23154 0.34073 0.66728
 H515 H 0.20498 0.40887 0.64739
 H516 H 0.24978 0.43495 0.62883
 H517 H 0.18884 0.40253 0.59300
 H518 H 0.21553 0.35449 0.59116
 H519 H 0.27647 0.38694 0.62697
 H520 H 0.26033 0.38059 0.57259
 C521 C 0.86586 0.27328 0.10233
 C522 C 0.89292 0.28529 0.10650
 C523 C 0.90514 0.26125 0.09351
 C524 C 0.87840 0.24925 0.08902
 C525 C 0.86825 0.26004 0.12997
 C526 C 0.88047 0.23600 0.11697
 C527 C 0.89498 0.27203 0.13445
 C528 C 0.90752 0.24801 0.12114
 C529 C 0.92571 0.26191 0.07324
 C530 C 0.94262 0.26247 0.05655
 C531 C 0.84784 0.25932 0.15041
 C532 C 0.83123 0.25867 0.16742
 H533 H 0.84850 0.28366 0.09483
 H534 H 0.89827 0.30556 0.10198
 H535 H 0.87182 0.23988 0.07011
 H536 H 0.87512 0.21572 0.12150
 H537 H 0.90157 0.28140 0.15336
 H538 H 0.92487 0.23762 0.12865
 C539 C 0.37495 0.77039 0.60558
 C540 C 0.40223 0.78226 0.60826
 C541 C 0.41377 0.75764 0.59579
 C542 C 0.38680 0.74576 0.59279
 C543 C 0.37815 0.75816 0.63364
 C544 C 0.38969 0.73353 0.62117
 C545 C 0.40513 0.77003 0.63663
 C546 C 0.41698 0.74540 0.62384
 C547 C 0.43362 0.75751 0.57472
 C548 C 0.44998 0.75756 0.55743
 C549 C 0.35823 0.75856 0.65462
 C550 C 0.34171 0.75898 0.67175
 H551 H 0.35745 0.78068 0.59831
 H552 H 0.40759 0.80230 0.60272
 H553 H 0.37947 0.73579 0.57454
 H554 H 0.38432 0.71349 0.62673
 H555 H 0.41245 0.78001 0.65489
 H556 H 0.43449 0.73512 0.63111
 C557 C 0.12976 0.72002 0.10673
 C558 C 0.10054 0.71714 0.11271
 C559 C 0.09489 0.73917 0.09277
 C560 C 0.12379 0.74205 0.08647
 C561 C 0.13158 0.74012 0.12943
 C562 C 0.12594 0.76215 0.10950
 C563 C 0.10269 0.73724 0.13572
 C564 C 0.09673 0.75926 0.11548
 C565 C 0.07443 0.73864 0.07239
 C566 C 0.05760 0.73820 0.05562
 C567 C 0.15189 0.74069 0.14999
 C568 C 0.16842 0.74124 0.16707
 H569 H 0.14356 0.70390 0.10336
 H570 H 0.08987 0.69862 0.11382
 H571 H 0.13224 0.74402 0.06599
 H572 H 0.13661 0.78066 0.10840
 H573 H 0.09424 0.73527 0.15621
 H574 H 0.08293 0.77539 0.11886
 C575 C 0.62022 0.22199 0.61079
 C576 C 0.59081 0.21959 0.61584
 C577 C 0.58615 0.24199 0.59608
 C578 C 0.61526 0.24440 0.59071
 C579 C 0.62179 0.24172 0.63386
 C580 C 0.61714 0.26413 0.61411
 C581 C 0.59269 0.23932 0.63923
 C582 C 0.58772 0.26173 0.61915
 C583 C 0.56630 0.24199 0.57506
 C584 C 0.54991 0.24183 0.55781
 C585 C 0.64172 0.24144 0.65480
 C586 C 0.65824 0.24111 0.67190
 H587 H 0.63380 0.20564 0.60759
 H588 H 0.57977 0.20127 0.61631
 H589 H 0.62431 0.24648 0.57053
 H590 H 0.62819 0.28244 0.61364
 H591 H 0.58363 0.23723 0.65942
 H592 H 0.57413 0.27807 0.62234
 C593 C 0.74252 0.12772 0.89733
 C594 C 0.72117 0.10727 0.90163
 C595 C 0.74216 0.08644 0.90468
 C596 C 0.76352 0.10658 0.90071
 C597 C 0.74186 0.12212 0.86690
 C598 C 0.76286 0.10129 0.86994
 C599 C 0.72050 0.10197 0.87088
 C600 C 0.74150 0.08083 0.87425
 C601 C 0.74219 0.06654 0.92570
 C602 C 0.74206 0.05012 0.94293
 C603 C 0.74156 0.14206 0.84593
 C604 C 0.74122 0.15858 0.82880
 H605 H 0.74293 0.14722 0.90659
 H606 H 0.70403 0.10951 0.91489
 H607 H 0.78120 0.10826 0.91321
 H608 H 0.77999 0.09906 0.85668
 H609 H 0.70281 0.10029 0.85838
 H610 H 0.74108 0.06133 0.86499
 C611 C 0.23991 0.63559 0.40008
 C612 C 0.21824 0.61527 0.40320
 C613 C 0.23892 0.59411 0.40611
 C614 C 0.26058 0.61410 0.40331
 C615 C 0.23988 0.63085 0.36948
 C616 C 0.26056 0.60969 0.37239
 C617 C 0.21822 0.61086 0.37229
 C618 C 0.23889 0.58938 0.37551
 C619 C 0.23838 0.57363 0.42649
 C620 C 0.23790 0.55681 0.44329
 C621 C 0.24047 0.65122 0.34898
 C622 C 0.24102 0.66783 0.33197
 H623 H 0.24034 0.65481 0.40995
 H624 H 0.20082 0.61733 0.41610
 H625 H 0.27800 0.61520 0.41629
 H626 H 0.27798 0.60763 0.35950
 H627 H 0.20080 0.60975 0.35930
 H628 H 0.23847 0.57016 0.36563
 C629 C 0.24657 0.90564 0.86310
 C630 C 0.23313 0.90309 0.89091
 C631 C 0.25742 0.91400 0.90447
 C632 C 0.27086 0.91686 0.87698
 C633 C 0.25782 0.87836 0.86666
 C634 C 0.28211 0.88927 0.88021
 C635 C 0.24438 0.87550 0.89414
 C636 C 0.26867 0.88671 0.90801
 C637 C 0.25734 0.93385 0.92552
 C638 C 0.25741 0.95023 0.94280
 C639 C 0.25816 0.85843 0.84568
 C640 C 0.25855 0.84192 0.82856
 H641 H 0.23749 0.91321 0.84440
 H642 H 0.21298 0.90899 0.89555
 H643 H 0.28175 0.93408 0.87016
 H644 H 0.30226 0.88338 0.87558
 H645 H 0.23349 0.85827 0.90096
 H646 H 0.27775 0.87914 0.92670
 C647 C 0.74937 0.39600 0.36524
 C648 C 0.73643 0.39470 0.39339
 C649 C 0.76126 0.40541 0.40600
 C650 C 0.77421 0.40702 0.37816
 C651 C 0.75999 0.36857 0.36955
 C652 C 0.78482 0.37928 0.38216
 C653 C 0.74703 0.36695 0.39739
 C654 C 0.77188 0.37798 0.41032
 C655 C 0.76199 0.42595 0.42627
 C656 C 0.76261 0.44283 0.44296
 C657 C 0.75924 0.34818 0.34912
 C658 C 0.75857 0.33157 0.33213
 H659 H 0.74010 0.40317 0.34648
 H660 H 0.71654 0.40128 0.39824
 H661 H 0.78539 0.42373 0.37048
 H662 H 0.80471 0.37269 0.37731
 H663 H 0.73586 0.35024 0.40506
 H664 H 0.78115 0.37081 0.42908
 C665 C 0.12320 0.25079 0.89821
 C666 C 0.11492 0.27417 0.91573
 C667 C 0.08652 0.26732 0.91058
 C668 C 0.09449 0.24394 0.89338
 C669 C 0.12250 0.26822 0.87312
 C670 C 0.09409 0.26138 0.86798
 C671 C 0.11454 0.29161 0.89032
 C672 C 0.08582 0.28475 0.88549
 C673 C 0.06640 0.26673 0.93135
 C674 C 0.04978 0.26618 0.94837
 C675 C 0.14243 0.26855 0.85214
 C676 C 0.15869 0.26860 0.83475
 H677 H 0.13880 0.23683 0.90320
 H678 H 0.12327 0.27942 0.93560
 H679 H 0.08603 0.22434 0.89486
 H680 H 0.08574 0.25613 0.84811
 H681 H 0.12301 0.31121 0.88882
 H682 H 0.07022 0.29871 0.88049
 C683 C 0.63031 0.74388 0.39641
 C684 C 0.62204 0.76726 0.41395
 C685 C 0.59363 0.76034 0.40893
 C686 C 0.60159 0.73696 0.39172
 C687 C 0.62946 0.76128 0.37131
 C688 C 0.60105 0.75436 0.36630
 C689 C 0.62151 0.78467 0.38851
 C690 C 0.59279 0.77774 0.38382
 C691 C 0.57361 0.75980 0.42980
 C692 C 0.55708 0.75939 0.44691
 C693 C 0.64931 0.76168 0.35026
 C694 C 0.66554 0.76183 0.33283
 H695 H 0.64596 0.72997 0.40135
 H696 H 0.63045 0.77255 0.43378
 H697 H 0.59318 0.71733 0.39327
 H698 H 0.59264 0.74907 0.34648
 H699 H 0.62992 0.80429 0.38696
 H700 H 0.57714 0.79165 0.37888
 C701 C 0.87296 0.73241 0.90204
 C702 C 0.89475 0.71207 0.90536
 C703 C 0.91426 0.73404 0.90911
 C704 C 0.89278 0.75439 0.90612
 C705 C 0.87838 0.73315 0.87157
 C706 C 0.89789 0.75512 0.87533
 C707 C 0.89986 0.71281 0.87456
 C708 C 0.91967 0.73479 0.87863
 C709 C 0.93432 0.73460 0.92994
 C710 C 0.95088 0.73509 0.94701
 C711 C 0.85850 0.73278 0.85054
 C712 C 0.84227 0.73266 0.83313
 H713 H 0.85352 0.73142 0.91143
 H714 H 0.89368 0.69437 0.91794
 H715 H 0.89008 0.77149 0.91932
 H716 H 0.89897 0.77282 0.86275
 H717 H 0.90255 0.69570 0.86135
 H718 H 0.93910 0.73578 0.86923
 C719 C 0.36480 0.23654 0.40265
 C720 C 0.38659 0.21622 0.40608
 C721 C 0.40608 0.23822 0.40978
 C722 C 0.38460 0.25854 0.40667
 C723 C 0.37029 0.23717 0.37219
 C724 C 0.38978 0.25916 0.37589
 C725 C 0.39176 0.21684 0.37529
 C726 C 0.41156 0.23885 0.37932
 C727 C 0.42609 0.23883 0.43063
 C728 C 0.44262 0.23932 0.44771
 C729 C 0.35046 0.23674 0.35115
 C730 C 0.33424 0.23661 0.33374
 H731 H 0.34535 0.23558 0.41199
 H732 H 0.38551 0.19857 0.41874
 H733 H 0.38189 0.27569 0.41980
 H734 H 0.39087 0.27681 0.36324
 H735 H 0.39448 0.19969 0.36216
 H736 H 0.43100 0.23981 0.36996
 C737 C 0.73423 0.90020 0.86089
 C738 C 0.72043 0.89773 0.88850
 C739 C 0.74446 0.90888 0.90233
 C740 C 0.75826 0.91167 0.87505
 C741 C 0.74561 0.87302 0.86481
 C742 C 0.76964 0.88417 0.87864
 C743 C 0.73182 0.87024 0.89210
 C744 C 0.75583 0.88170 0.90625
 C745 C 0.74376 0.92876 0.92332
 C746 C 0.74316 0.94504 0.94065
 C747 C 0.74613 0.85292 0.84406
 C748 C 0.74641 0.83622 0.82715
 H749 H 0.72536 0.90757 0.84200
 H750 H 0.70018 0.90352 0.89280
 H751 H 0.76912 0.92893 0.86828
 H752 H 0.78989 0.87837 0.87434
 H753 H 0.72095 0.85299 0.89887
 H754 H 0.76470 0.87432 0.92513
 C755 C 0.22786 0.40505 0.36240
 C756 C 0.21414 0.40273 0.39007
 C757 C 0.23827 0.41381 0.40379
 C758 C 0.25199 0.41644 0.37644
 C759 C 0.23913 0.37783 0.36636
 C760 C 0.26326 0.38890 0.38007
 C761 C 0.22541 0.37520 0.39371
 C762 C 0.24953 0.38658 0.40774
 C763 C 0.23776 0.43377 0.42471
 C764 C 0.23736 0.45014 0.44198
 C765 C 0.23948 0.35767 0.34564
 C766 C 0.23961 0.34096 0.32873
 H767 H 0.21897 0.41242 0.34352
 H768 H 0.19393 0.40863 0.39442
 H769 H 0.26291 0.43363 0.36957
 H770 H 0.28346 0.38300 0.37572
 H771 H 0.21448 0.35801 0.40059
 H772 H 0.25842 0.37921 0.42662
 C773 C 0.25464 0.13293 0.89768
 C774 C 0.23374 0.11198 0.90176
 C775 C 0.25518 0.09160 0.90475
 C776 C 0.27609 0.11224 0.90099
 C777 C 0.25421 0.12750 0.86721
 C778 C 0.27565 0.10712 0.87021
 C779 C 0.23329 0.10686 0.87096
 C780 C 0.25474 0.08616 0.87429
 C781 C 0.25579 0.07169 0.92574
 C782 C 0.25634 0.05535 0.94306
 C783 C 0.25382 0.14760 0.84642
 C784 C 0.25366 0.16428 0.82946
 H785 H 0.25460 0.15238 0.90707
 H786 H 0.21651 0.11376 0.91497
 H787 H 0.29369 0.11424 0.91357
 H788 H 0.29288 0.10534 0.85700
 H789 H 0.21569 0.10488 0.85838
 H790 H 0.25479 0.06671 0.86490
 C791 C 0.76230 0.62695 0.39563
 C792 C 0.74136 0.60605 0.39975
 C793 C 0.76278 0.58564 0.40275
 C794 C 0.78372 0.60624 0.39895
 C795 C 0.76183 0.62149 0.36517
 C796 C 0.78324 0.60109 0.36817
 C797 C 0.74088 0.60089 0.36897
 C798 C 0.76230 0.58017 0.37229
 C799 C 0.76331 0.56575 0.42377
 C800 C 0.76371 0.54946 0.44112
 C801 C 0.76139 0.64158 0.34437
 C802 C 0.76115 0.65825 0.32741
 H803 H 0.76229 0.64642 0.40500
 H804 H 0.72415 0.60787 0.41298
 H805 H 0.80134 0.60822 0.41151
 H806 H 0.80045 0.59927 0.35494
 H807 H 0.72327 0.59892 0.35640
 H808 H 0.76232 0.56070 0.36293
 C809 C 0.12863 0.71877 0.89618
 C810 C 0.12052 0.74229 0.91358
 C811 C 0.09207 0.73576 0.90828
 C812 C 0.09985 0.71224 0.89120
 C813 C 0.12825 0.73614 0.87105
 C814 C 0.09979 0.72962 0.86575
 C815 C 0.12046 0.75966 0.88813
 C816 C 0.09170 0.75313 0.88315
 C817 C 0.07193 0.73571 0.92903
 C818 C 0.05541 0.73582 0.94614
 C819 C 0.14832 0.73652 0.85024
 C820 C 0.16472 0.73700 0.83301
 H821 H 0.14405 0.70465 0.90129
 H822 H 0.12882 0.74750 0.93349
 H823 H 0.09114 0.69274 0.89270
 H824 H 0.09150 0.72441 0.84584
 H825 H 0.12916 0.77916 0.88664
 H826 H 0.07629 0.76725 0.87802
 C827 C 0.61996 0.22076 0.39371
 C828 C 0.61274 0.24471 0.41089
 C829 C 0.58404 0.23840 0.40684
 C830 C 0.59097 0.21446 0.38999
 C831 C 0.61888 0.23762 0.36822
 C832 C 0.59019 0.23132 0.36417
 C833 C 0.61196 0.26156 0.38507
 C834 C 0.58297 0.25526 0.38135
 C835 C 0.56464 0.23885 0.42836
 C836 C 0.54865 0.23925 0.44603
 C837 C 0.63840 0.23717 0.34682
 C838 C 0.65462 0.23676 0.32938
 H839 H 0.63539 0.20656 0.39855
 H840 H 0.62180 0.25021 0.43033
 H841 H 0.58212 0.19509 0.39226
 H842 H 0.58114 0.22581 0.34472
 H843 H 0.62081 0.28093 0.38279
 H844 H 0.56754 0.26946 0.37651
 C845 C 0.86631 0.26381 0.90145
 C846 C 0.88801 0.24335 0.90448
 C847 C 0.90765 0.26521 0.90819
 C848 C 0.88626 0.28568 0.90549
 C849 C 0.87153 0.26468 0.87095
 C850 C 0.89116 0.28655 0.87466
 C851 C 0.89292 0.24422 0.87366
 C852 C 0.91287 0.26608 0.87769
 C853 C 0.92775 0.26532 0.92894
 C854 C 0.94423 0.26524 0.94607
 C855 C 0.85149 0.26421 0.85016
 C856 C 0.83511 0.26365 0.83293
 H857 H 0.84693 0.26287 0.91098
 H858 H 0.88695 0.22559 0.91697
 H859 H 0.88376 0.30272 0.91882
 H860 H 0.89222 0.30430 0.86216
 H861 H 0.89543 0.22717 0.86034
 H862 H 0.93224 0.26702 0.86816
 C863 C 0.37433 0.76000 0.39837
 C864 C 0.39572 0.73924 0.40151
 C865 C 0.41545 0.76077 0.40659
 C866 C 0.39434 0.78153 0.40377
 C867 C 0.38050 0.76167 0.36809
 C868 C 0.40022 0.78321 0.37317
 C869 C 0.40160 0.74092 0.37090
 C870 C 0.42162 0.76244 0.37631
 C871 C 0.43492 0.76027 0.42803
 C872 C 0.45097 0.75984 0.44562
 C873 C 0.36093 0.76220 0.34675
 C874 C 0.34469 0.76267 0.32935
 H875 H 0.35466 0.75900 0.40721
 H876 H 0.39408 0.72115 0.41340
 H877 H 0.39156 0.79822 0.41752
 H878 H 0.40186 0.80129 0.36127
 H879 H 0.40437 0.72422 0.35715
 H880 H 0.44129 0.76344 0.36747
 C881 C 0.24658 0.90654 0.13376
 C882 C 0.27050 0.92092 0.12261
 C883 C 0.26083 0.91596 0.09378
 C884 C 0.23691 0.90188 0.10459
 C885 C 0.26180 0.88105 0.13234
 C886 C 0.25213 0.87610 0.10350
 C887 C 0.28572 0.89513 0.12153
 C888 C 0.27604 0.89047 0.09237
 C889 C 0.26029 0.93539 0.07229
 C890 C 0.25981 0.95141 0.05465
 C891 C 0.26235 0.86148 0.15368
 C892 C 0.26282 0.84521 0.17107
 H893 H 0.23448 0.91293 0.15101
 H894 H 0.27805 0.93957 0.13023
 H895 H 0.21683 0.90487 0.09738
 H896 H 0.24458 0.85745 0.09588
 H897 H 0.30580 0.89214 0.12874
 H898 H 0.28815 0.88408 0.07511
 C899 C 0.74985 0.39708 0.63050
 C900 C 0.77432 0.41129 0.62051
 C901 C 0.76524 0.40748 0.59129
 C902 C 0.74078 0.39358 0.60096
 C903 C 0.76455 0.37133 0.62856
 C904 C 0.75547 0.36752 0.59933
 C905 C 0.78902 0.38522 0.61889
 C906 C 0.77994 0.38172 0.58934
 C907 C 0.76546 0.42761 0.57053
 C908 C 0.76545 0.44412 0.55341
 C909 C 0.76399 0.35130 0.64940
 C910 C 0.76338 0.33494 0.66668
 H911 H 0.73746 0.40317 0.64766
 H912 H 0.78207 0.42951 0.62899
 H913 H 0.72094 0.39724 0.59336
 H914 H 0.74771 0.34929 0.59086
 H915 H 0.80885 0.38155 0.62650
 H916 H 0.79233 0.37564 0.57217
 C917 C 0.71880 0.11909 0.10758
 C918 C 0.74200 0.11385 0.08859
 C919 C 0.73837 0.08473 0.09297
 C920 C 0.71518 0.08966 0.11163
 C921 C 0.73741 0.11940 0.13171
 C922 C 0.73378 0.09028 0.13610
 C923 C 0.76060 0.11447 0.11305
 C924 C 0.75698 0.08505 0.11710
 C925 C 0.73893 0.06543 0.07139
 C926 C 0.73943 0.04952 0.05368
 C927 C 0.73686 0.13883 0.15316
 C928 C 0.73640 0.15498 0.17064
 H929 H 0.70310 0.13330 0.10391
 H930 H 0.74539 0.12333 0.06882
 H931 H 0.69651 0.07925 0.11080
 H932 H 0.73039 0.08081 0.15588
 H933 H 0.77927 0.12488 0.11388
 H934 H 0.77269 0.07083 0.12077
 C935 C 0.24815 0.60179 0.63223
 C936 C 0.22352 0.58970 0.61991
 C937 C 0.23547 0.59253 0.59169
 C938 C 0.26009 0.60431 0.60370
 C939 C 0.23598 0.62870 0.62891
 C940 C 0.24792 0.63152 0.60069
 C941 C 0.21135 0.61693 0.61691
 C942 C 0.22329 0.61944 0.58835
 C943 C 0.23535 0.57238 0.57096
 C944 C 0.23541 0.55584 0.55387
 C945 C 0.23641 0.64876 0.64972
 C946 C 0.23692 0.66515 0.66696
 H947 H 0.25838 0.59476 0.65051
 H948 H 0.21349 0.57228 0.62759
 H949 H 0.28013 0.59889 0.59804
 H950 H 0.25796 0.64895 0.59301
 H951 H 0.19131 0.62235 0.62257
 H952 H 0.21307 0.62646 0.57008
 C953 C 0.87594 0.75170 0.10501
 C954 C 0.90329 0.76338 0.10788
 C955 C 0.91474 0.73867 0.09551
 C956 C 0.88770 0.72699 0.09231
 C957 C 0.87888 0.73944 0.13308
 C958 C 0.89033 0.71473 0.12070
 C959 C 0.90591 0.75113 0.13628
 C960 C 0.91768 0.72641 0.12358
 C961 C 0.93464 0.73820 0.07451
 C962 C 0.95096 0.73782 0.05718
 C963 C 0.85878 0.73975 0.15387
 C964 C 0.84211 0.73986 0.17083
 H965 H 0.85856 0.76210 0.09761
 H966 H 0.90884 0.78337 0.10237
 H967 H 0.88043 0.71705 0.07400
 H968 H 0.88477 0.69474 0.12621
 H969 H 0.91317 0.76106 0.15460
 H970 H 0.93506 0.71600 0.13097
 C971 C 0.36887 0.25666 0.60676
 C972 C 0.39624 0.26833 0.60951
 C973 C 0.40764 0.24354 0.59727
 C974 C 0.38059 0.23186 0.59421
 C975 C 0.37184 0.24456 0.63491
 C976 C 0.38325 0.21977 0.62267
 C977 C 0.39890 0.25624 0.63798
 C978 C 0.41062 0.23144 0.62541
 C979 C 0.42751 0.24292 0.57623
 C980 C 0.44380 0.24239 0.55888
 C981 C 0.35178 0.24502 0.65574
 C982 C 0.33514 0.24525 0.67273
 H983 H 0.35148 0.26704 0.59933
 H984 H 0.40180 0.28829 0.60386
 H985 H 0.37328 0.22183 0.57597
 H986 H 0.37769 0.19981 0.62831
 H987 H 0.40620 0.26627 0.65622
 H988 H 0.42801 0.22106 0.63284
 C989 C 0.11954 0.24194 0.11097
 C990 C 0.09016 0.23923 0.11604
 C991 C 0.08531 0.26210 0.09692
 C992 C 0.11438 0.26481 0.09153
 C993 C 0.12106 0.26110 0.13455
 C994 C 0.11620 0.28396 0.11543
 C995 C 0.09200 0.25839 0.13996
 C996 C 0.08683 0.28126 0.12051
 C997 C 0.06548 0.26266 0.07589
 C998 C 0.04924 0.26309 0.05851
 C999 C 0.14111 0.26064 0.15536
 C1000 C 0.15776 0.26038 0.17231
 H1001 H 0.13322 0.22577 0.10729
 H1002 H 0.07922 0.22084 0.11605
 H1003 H 0.12336 0.26746 0.07138
 H1004 H 0.12714 0.30235 0.11542
 H1005 H 0.08303 0.25574 0.16012
 H1006 H 0.07315 0.29744 0.12419
 C1007 C 0.62697 0.73541 0.60994
 C1008 C 0.59763 0.73267 0.61525
 C1009 C 0.59260 0.75552 0.59616
 C1010 C 0.62163 0.75826 0.59052
 C1011 C 0.62865 0.75459 0.63350
 C1012 C 0.62362 0.77743 0.61440
 C1013 C 0.59963 0.75185 0.63915
 C1014 C 0.59428 0.77470 0.61972
 C1015 C 0.57259 0.75611 0.57527
 C1016 C 0.55620 0.75662 0.55803
 C1017 C 0.64885 0.75422 0.65418
 C1018 C 0.66560 0.75409 0.67105
 H1019 H 0.64063 0.71925 0.60615
 H1020 H 0.58671 0.71427 0.61537
 H1021 H 0.63046 0.76091 0.57030
 H1022 H 0.63453 0.79583 0.61428
 H1023 H 0.59081 0.74920 0.65938
 H1024 H 0.58063 0.79086 0.62351
   
