data_POSCAR
  _audit_creation_date              2014-09-24
  _audit_creation_method            'ToBaCCo'
  _symmetry_space_group_name_H-M    'P1'
  _symmetry_Int_Tables_number       1
  _symmetry_cell_setting            triclinic
  loop_
  _symmetry_equiv_pos_as_xyz
 x,y,z
_cell_length_a 44.6242
_cell_length_b 45.0633
_cell_length_c 49.3973
_cell_angle_alpha 90.073400
_cell_angle_beta 89.917800
_cell_angle_gamma 117.351400
loop_
  _atom_site_label
  _atom_site_type_symbol
  _atom_site_fract_x
  _atom_site_fract_y
  _atom_site_fract_z
C1 C -0.00453 0.48515 1.31851
 C2 C 0.02584 0.50396 1.30459
 C3 C 0.02509 0.50428 1.27615
 C4 C -0.00508 0.48554 1.26164
 C5 C -0.03470 0.46529 1.27642
 C6 C -0.03519 0.46634 1.30492
 C7 C -0.00614 0.48953 1.23146
 C8 C -0.03645 0.48388 1.21837
 C9 C -0.03719 0.48972 1.19055
 C10 C -0.00705 0.50321 1.17578
 C11 C 0.02335 0.50909 1.18817
 C12 C 0.02349 0.50105 1.21560
 H13 H -0.00394 0.48322 1.34033
 H14 H 0.04772 0.52120 1.26558
 H15 H -0.05790 0.45027 1.26578
 H16 H -0.05971 0.47574 1.22957
 H17 H -0.00735 0.50815 1.15434
 H18 H 0.04708 0.50466 1.22441
 C19 C 0.51678 0.52496 1.31938
 C20 C 0.49842 0.53780 1.30475
 C21 C 0.50119 0.53901 1.27639
 C22 C 0.52266 0.52866 1.26264
 C23 C 0.54215 0.51763 1.27832
 C24 C 0.53802 0.51387 1.30662
 C25 C 0.52234 0.52676 1.23213
 C26 C 0.53235 0.50520 1.21830
 C27 C 0.52910 0.50125 1.19008
 C28 C 0.51407 0.51748 1.17552
 C29 C 0.50433 0.53921 1.18858
 C30 C 0.50985 0.54489 1.21645
 H31 H 0.51637 0.52573 1.34128
 H32 H 0.48453 0.54581 1.26520
 H33 H 0.55908 0.51005 1.26847
 H34 H 0.54179 0.49040 1.22908
 H35 H 0.51084 0.51400 1.15380
 H36 H 0.50334 0.56291 1.22566
 C37 C 0.51578 0.99323 1.32555
 C38 C 0.50050 0.96332 1.31095
 C39 C 0.50447 0.96376 1.28281
 C40 C 0.52556 0.99358 1.26904
 C41 C 0.54373 1.02268 1.28473
 C42 C 0.53774 1.02334 1.31274
 C43 C 0.52691 0.99491 1.23852
 C44 C 0.53691 1.02553 1.22471
 C45 C 0.53607 1.02687 1.19639
 C46 C 0.52340 0.99718 1.18152
 C47 C 0.51271 0.96640 1.19454
 C48 C 0.51586 0.96550 1.22276
 H49 H 0.51218 0.99247 1.34729
 H50 H 0.49013 0.94063 1.27207
 H51 H 0.56116 1.04554 1.27500
 H52 H 0.54422 1.04862 1.23558
 H53 H 0.52197 0.99794 1.15965
 H54 H 0.50844 0.94148 1.23210
 C55 C 0.98983 0.49504 0.67895
 C56 C 0.95968 0.48191 0.69358
 C57 C 0.96054 0.48105 0.72189
 C58 C 0.99122 0.49002 0.73584
 C59 C 1.02102 0.50054 0.72020
 C60 C 1.02096 0.50504 0.69196
 C61 C 0.99229 0.48884 0.76638
 C62 C 1.02294 0.50656 0.78070
 C63 C 1.02403 0.50560 0.80904
 C64 C 0.99416 0.48800 0.82363
 C65 C 0.96335 0.47087 0.81016
 C66 C 0.96262 0.47065 0.78175
 H67 H 0.98868 0.49592 0.65706
 H68 H 0.93691 0.47273 0.73250
 H69 H 1.04476 0.50681 0.72994
 H70 H 1.04624 0.52219 0.77037
 H71 H 0.99484 0.48799 0.84557
 H72 H 0.93860 0.45583 0.77213
 C73 C 0.51327 0.51697 0.67944
 C74 C 0.53303 0.50485 0.69277
 C75 C 0.53684 0.50811 0.72095
 C76 C 0.51906 0.52131 0.73642
 C77 C 0.49970 0.53392 0.72234
 C78 C 0.49742 0.53242 0.69401
 C79 C 0.51892 0.51995 0.76688
 C80 C 0.50920 0.54039 0.78256
 C81 C 0.50424 0.53566 0.81059
 C82 C 0.51151 0.51215 0.82356
 C83 C 0.52302 0.49291 0.80884
 C84 C 0.52613 0.49640 0.78063
 H85 H 0.51090 0.51509 0.65758
 H86 H 0.55311 0.49942 0.73054
 H87 H 0.48524 0.54397 0.73300
 H88 H 0.50422 0.55933 0.77321
 H89 H 0.50831 0.50893 0.84530
 H90 H 0.53282 0.47951 0.76971
 C91 C 0.51257 -0.00281 0.67438
 C92 C 0.52535 0.02757 0.68821
 C93 C 0.52410 0.02759 0.71646
 C94 C 0.51248 -0.00239 0.73140
 C95 C 0.50115 -0.03278 0.71684
 C96 C 0.49927 -0.03347 0.68827
 C97 C 0.51162 -0.00167 0.76189
 C98 C 0.49008 -0.03021 0.77712
 C99 C 0.49032 -0.02978 0.80573
 C100 C 0.51022 0.00081 0.81885
 C101 C 0.53053 0.02967 0.80428
 C102 C 0.53221 0.02799 0.77612
 H103 H 0.51434 -0.00229 0.65250
 H104 H 0.53165 0.05134 0.72635
 H105 H 0.49229 -0.05607 0.72761
 H106 H 0.47394 -0.05314 0.76685
 H107 H 0.50858 0.00292 0.84059
 H108 H 0.54999 0.05020 0.76572
 O109 O 0.37636 0.67140 0.97031
 O110 O 0.38023 0.73029 0.97982
 C111 C 0.36176 0.73881 0.96563
 O112 O 0.32988 0.72501 0.96797
 O113 O 0.27041 0.67317 0.97510
 C114 C 0.26372 0.64648 0.96217
 O115 O 0.27838 0.62870 0.96696
 O116 O 0.33220 0.62142 0.97684
 C117 C 0.35950 0.64055 0.96473
 O118 O 0.37399 0.66004 1.02389
 O119 O 0.37479 0.71736 1.03303
 C120 C 0.36081 0.73599 1.03666
 O121 O 0.33651 0.73404 1.02205
 O122 O 0.27850 0.68066 1.02882
 C123 C 0.26177 0.64959 1.03360
 O124 O 0.26614 0.62747 1.02063
 O125 O 0.32071 0.62187 1.03033
 C126 C 0.35176 0.63498 1.03631
 Cr127 Cr 0.37445 0.69396 1.00163
 Cr128 Cr 0.30468 0.70212 0.99849
 Cr129 Cr 0.30037 0.62674 0.99868
 O130 O 0.32644 0.67419 0.99958
 O131 O 0.61482 0.33029 0.97060
 O132 O 0.62057 0.27495 0.96764
 C133 C 0.63734 0.25859 0.96784
 O134 O 0.66017 0.26362 0.98524
 O135 O 0.71655 0.31893 0.98016
 C136 C 0.73104 0.34924 0.97266
 O137 O 0.72290 0.37117 0.98137
 O138 O 0.66716 0.37098 0.96636
 C139 C 0.63682 0.35588 0.95857
 O140 O 0.60761 0.32299 1.02434
 O141 O 0.60919 0.26552 1.02130
 C142 C 0.62752 0.26093 1.03877
 O143 O 0.65939 0.27693 1.03837
 O144 O 0.71673 0.33025 1.03352
 C145 C 0.72044 0.35766 1.04346
 O146 O 0.70639 0.37407 1.03371
 O147 O 0.65063 0.37436 1.01890
 C148 C 0.62274 0.35403 1.02975
 Cr149 Cr 0.61498 0.29939 0.99619
 Cr150 Cr 0.68722 0.29842 1.00900
 Cr151 Cr 0.68580 0.37073 1.00014
 O152 O 0.66280 0.32302 1.00180
 O153 O 0.65317 0.37643 0.52396
 O154 O 0.70842 0.37116 0.53169
 C155 C 0.72461 0.35444 0.53446
 O156 O 0.72024 0.33023 0.51893
 O157 O 0.66291 0.27544 0.52393
 C158 C 0.63116 0.26031 0.52736
 O159 O 0.61111 0.26836 0.51493
 O160 O 0.61177 0.32459 0.52889
 C161 C 0.62685 0.35505 0.53587
 O162 O 0.66490 0.38110 0.47011
 O163 O 0.72169 0.37855 0.47838
 C164 C 0.72789 0.35927 0.46317
 O165 O 0.71170 0.32768 0.46476
 O166 O 0.65573 0.27153 0.46960
 C167 C 0.62955 0.26839 0.45709
 O168 O 0.61424 0.28531 0.46287
 O169 O 0.61252 0.34074 0.47661
 C170 C 0.63349 0.36754 0.46521
 Cr171 Cr 0.68613 0.37497 0.50085
 Cr172 Cr 0.68672 0.30222 0.49439
 Cr173 Cr 0.61432 0.30566 0.49585
 O174 O 0.66238 0.32759 0.49696
 O175 O 0.31883 0.61611 0.53240
 O176 O 0.26224 0.61878 0.52464
 C177 C 0.25793 0.64100 0.53752
 O178 O 0.27439 0.67196 0.53248
 O179 O 0.33007 0.72623 0.52148
 C180 C 0.35652 0.73090 0.53429
 O181 O 0.37127 0.71298 0.53064
 O182 O 0.37134 0.65538 0.52374
 C183 C 0.35030 0.63011 0.53698
 O184 O 0.32688 0.61256 0.47903
 O185 O 0.27167 0.61789 0.47049
 C186 C 0.25535 0.63426 0.46662
 O187 O 0.26124 0.66065 0.47968
 O188 O 0.31849 0.71320 0.46871
 C189 C 0.34982 0.72749 0.46350
 O190 O 0.37104 0.72122 0.47632
 O191 O 0.36899 0.66275 0.46942
 C192 C 0.35295 0.63149 0.46554
 Cr193 Cr 0.29585 0.61821 0.50159
 Cr194 Cr 0.29701 0.69197 0.50060
 Cr195 Cr 0.36879 0.68722 0.50005
 O196 O 0.32062 0.66579 0.50083
 C197 C 0.45664 0.58992 0.32505
 C198 C 0.44214 0.57574 0.35033
 C199 C 0.44337 0.54614 0.35823
 C200 C 0.46129 0.53348 0.34281
 C201 C 0.47765 0.54900 0.31863
 C202 C 0.47368 0.57651 0.30938
 C203 C 0.42722 0.52947 0.38179
 C204 C 0.41009 0.54172 0.39803
 C205 C 0.40936 0.57194 0.39181
 C206 C 0.42659 0.58984 0.36806
 C207 C 0.42910 0.62185 0.36357
 C208 C 0.41557 0.63605 0.38181
 C209 C 0.39781 0.61843 0.40461
 C210 C 0.39325 0.58557 0.40929
 C211 C 0.37274 0.56767 0.43139
 C212 C 0.35923 0.58256 0.44898
 C213 C 0.36571 0.61578 0.44538
 C214 C 0.38473 0.63353 0.42292
 H215 H 0.45513 0.61132 0.31680
 H216 H 0.46185 0.51084 0.34956
 H217 H 0.48552 0.58917 0.29077
 H218 H 0.42799 0.50671 0.38786
 H219 H 0.39903 0.52765 0.41616
 H220 H 0.44281 0.63726 0.34669
 H221 H 0.41901 0.66110 0.37798
 H222 H 0.36620 0.54193 0.43544
 H223 H 0.34418 0.56810 0.46593
 H224 H 0.38916 0.65902 0.41962
 C225 C 0.47646 0.87725 0.33855
 C226 C 0.44991 0.87204 0.35672
 C227 C 0.43824 0.89650 0.35749
 C228 C 0.45454 0.92610 0.34236
 C229 C 0.48164 0.93130 0.32540
 C230 C 0.49189 0.90638 0.32312
 C231 C 0.41063 0.89149 0.37358
 C232 C 0.39422 0.86271 0.38902
 C233 C 0.40560 0.83819 0.38977
 C234 C 0.43466 0.84355 0.37413
 C235 C 0.44838 0.82107 0.37730
 C236 C 0.43433 0.79438 0.39520
 C237 C 0.40535 0.78819 0.40989
 C238 C 0.38979 0.80922 0.40661
 C239 C 0.35902 0.80035 0.42041
 C240 C 0.34561 0.77308 0.43798
 C241 C 0.36243 0.75390 0.44261
 C242 C 0.39207 0.76128 0.42817
 H243 H 0.48563 0.85915 0.33557
 H244 H 0.44621 0.94519 0.34375
 H245 H 0.51259 0.90988 0.30983
 H246 H 0.40155 0.91004 0.37422
 H247 H 0.37346 0.86111 0.40117
 H248 H 0.47102 0.82431 0.36708
 H249 H 0.44631 0.77835 0.39753
 H250 H 0.34450 0.81377 0.41786
 H251 H 0.32243 0.76763 0.44866
 H252 H 0.40484 0.74607 0.43121
 C253 C 0.11650 0.54108 0.32542
 C254 C 0.11555 0.55312 0.35174
 C255 C 0.08470 0.55168 0.36052
 C256 C 0.05558 0.53606 0.34466
 C257 C 0.05617 0.52225 0.31924
 C258 C 0.08742 0.52631 0.30939
 C259 C 0.08275 0.56541 0.38533
 C260 C 0.11082 0.58055 0.40185
 C261 C 0.14191 0.58165 0.39456
 C262 C 0.14399 0.56657 0.36960
 C263 C 0.17384 0.56416 0.36394
 C264 C 0.20071 0.57605 0.38207
 C265 C 0.19952 0.59205 0.40596
 C266 C 0.17057 0.59619 0.41200
 C267 C 0.17156 0.61496 0.43525
 C268 C 0.19934 0.62749 0.45242
 C269 C 0.22702 0.62164 0.44728
 C270 C 0.22711 0.60401 0.42391
 H271 H 0.13939 0.54290 0.31659
 H272 H 0.03240 0.53543 0.35205
 H273 H 0.08928 0.51634 0.28986
 H274 H 0.05918 0.56438 0.39213
 H275 H 0.10683 0.58982 0.42092
 H276 H 0.17662 0.55186 0.34609
 H277 H 0.22277 0.57289 0.37722
 H278 H 0.15160 0.62107 0.44046
 H279 H 0.19888 0.64144 0.47017
 H280 H 0.24885 0.60010 0.41950
 C281 C 0.59976 0.48498 0.33178
 C282 C 0.58352 0.46714 0.35550
 C283 C 0.55120 0.46408 0.36150
 C284 C 0.53681 0.47954 0.34529
 C285 C 0.55343 0.49817 0.32224
 C286 C 0.58481 0.49989 0.31536
 C287 C 0.53307 0.44560 0.38374
 C288 C 0.54602 0.42951 0.40019
 C289 C 0.57811 0.43165 0.39529
 C290 C 0.59782 0.45189 0.37329
 C291 C 0.63128 0.45678 0.37033
 C292 C 0.64489 0.44219 0.38812
 C293 C 0.62539 0.42118 0.40889
 C294 C 0.59140 0.41486 0.41221
 C295 C 0.57179 0.39154 0.43216
 C296 C 0.58575 0.37640 0.44886
 C297 C 0.61973 0.38379 0.44647
 C298 C 0.63952 0.40620 0.42634
 H299 H 0.62388 0.48756 0.32520
 H300 H 0.51160 0.47566 0.35026
 H301 H 0.59880 0.51398 0.29792
 H302 H 0.50843 0.44347 0.38852
 H303 H 0.53056 0.41645 0.41725
 H304 H 0.64800 0.47268 0.35488
 H305 H 0.67087 0.44713 0.38536
 H306 H 0.54529 0.38373 0.43506
 H307 H 0.56971 0.35894 0.46401
 H308 H 0.66568 0.41155 0.42397
 C309 C 0.59939 0.10900 0.33589
 C310 C 0.58121 0.11539 0.35660
 C311 C 0.54775 0.09065 0.36173
 C312 C 0.53427 0.05991 0.34805
 C313 C 0.55255 0.05370 0.32750
 C314 C 0.58511 0.07900 0.32139
 C315 C 0.52764 0.09682 0.38023
 C316 C 0.53981 0.12731 0.39352
 C317 C 0.57329 0.15237 0.38975
 C318 C 0.59484 0.14562 0.37208
 C319 C 0.62948 0.16866 0.37128
 C320 C 0.64265 0.19720 0.38735
 C321 C 0.62163 0.20478 0.40378
 C322 C 0.58641 0.18329 0.40418
 C323 C 0.56577 0.19363 0.41916
 C324 C 0.57992 0.22257 0.43490
 C325 C 0.61495 0.24190 0.43645
 C326 C 0.63568 0.23333 0.42035
 H327 H 0.62439 0.12712 0.32986
 H328 H 0.50852 0.04157 0.35236
 H329 H 0.60037 0.07531 0.30599
 H330 H 0.50199 0.07802 0.38423
 H331 H 0.52279 0.12994 0.40770
 H332 H 0.64744 0.16440 0.35942
 H333 H 0.66959 0.21358 0.38684
 H334 H 0.53861 0.17992 0.41900
 H335 H 0.56340 0.22896 0.44696
 H336 H 0.66283 0.24864 0.42108
 C337 C 0.87763 0.40456 0.32722
 C338 C 0.87444 0.41846 0.35215
 C339 C 0.90142 0.44946 0.35995
 C340 C 0.93076 0.46462 0.34431
 C341 C 0.93436 0.45025 0.32000
 C342 C 0.90686 0.42038 0.31134
 C343 C 0.89926 0.46546 0.38344
 C344 C 0.87066 0.45160 0.39946
 C345 C 0.84308 0.42061 0.39290
 C346 C 0.84548 0.40306 0.36949
 C347 C 0.81939 0.37047 0.36475
 C348 C 0.79193 0.35557 0.38226
 C349 C 0.78867 0.37296 0.40456
 C350 C 0.81368 0.40616 0.40960
 C351 C 0.80814 0.42377 0.43110
 C352 C 0.78008 0.40844 0.44781
 C353 C 0.75635 0.37502 0.44387
 C354 C 0.76059 0.35742 0.42196
 H355 H 0.85780 0.38169 0.31927
 H356 H 0.95041 0.48873 0.35076
 H357 H 0.90825 0.40817 0.29285
 H358 H 0.91997 0.48911 0.38955
 H359 H 0.87156 0.46536 0.41754
 H360 H 0.82008 0.35532 0.34810
 H361 H 0.77290 0.33023 0.37817
 H362 H 0.82465 0.44969 0.43533
 H363 H 0.77733 0.42292 0.46427
 H364 H 0.74200 0.33176 0.41834
 C365 C 0.59028 0.47245 1.16233
 C366 C 0.57100 0.44936 1.14200
 C367 C 0.53625 0.44077 1.14021
 C368 C 0.52243 0.45700 1.15649
 C369 C 0.54244 0.48118 1.17538
 C370 C 0.57611 0.48800 1.17871
 C371 C 0.51560 0.41654 1.12181
 C372 C 0.52865 0.40066 1.10489
 C373 C 0.56333 0.40926 1.10505
 C374 C 0.58502 0.43475 1.12333
 C375 C 0.62014 0.44585 1.12154
 C376 C 0.63367 0.43255 1.10260
 C377 C 0.61281 0.40694 1.08530
 C378 C 0.57727 0.39412 1.08681
 C379 C 0.55724 0.36657 1.07001
 C380 C 0.57203 0.35336 1.05185
 C381 C 0.60714 0.36739 1.04951
 C382 C 0.62739 0.39407 1.06641
 H383 H 0.61635 0.47898 1.16614
 H384 H 0.49612 0.45119 1.15425
 H385 H 0.59189 0.50638 1.19342
 H386 H 0.48899 0.40979 1.12041
 H387 H 0.51103 0.38266 1.09101
 H388 H 0.63811 0.46586 1.13382
 H389 H 0.66085 0.44240 1.10158
 H390 H 0.53007 0.35422 1.07076
 H391 H 0.55589 0.33239 1.03924
 H392 H 0.65462 0.40449 1.06516
 C393 C 0.89746 0.49122 1.14254
 C394 C 0.87089 0.45822 1.14476
 C395 C 0.87468 0.43663 1.16379
 C396 C 0.90382 0.44785 1.17978
 C397 C 0.93036 0.48008 1.17648
 C398 C 0.92678 0.50174 1.15800
 C399 C 0.84994 0.40354 1.16610
 C400 C 0.82250 0.39062 1.14869
 C401 C 0.81836 0.41061 1.12854
 C402 C 0.84160 0.44546 1.12783
 C403 C 0.83495 0.46621 1.11003
 C404 C 0.80796 0.45302 1.09211
 C405 C 0.78714 0.41865 1.09068
 C406 C 0.79198 0.39689 1.10888
 C407 C 0.77133 0.36209 1.10567
 C408 C 0.74760 0.34963 1.08489
 C409 C 0.74307 0.37126 1.06698
 C410 C 0.76228 0.40581 1.07045
 H411 H 0.89708 0.50902 1.12819
 H412 H 0.90671 0.43081 1.19378
 H413 H 0.94705 0.52679 1.15516
 H414 H 0.85237 0.38711 1.18098
 H415 H 0.80465 0.36477 1.15171
 H416 H 0.85005 0.49295 1.10965
 H417 H 0.80408 0.46986 1.07857
 H418 H 0.77395 0.34374 1.11801
 H419 H 0.73304 0.32281 1.08256
 H420 H 0.75922 0.42269 1.05640
 C421 C 0.59257 0.11560 1.17388
 C422 C 0.57453 0.11958 1.15175
 C423 C 0.54203 0.09308 1.14624
 C424 C 0.52935 0.06332 1.16122
 C425 C 0.54827 0.05931 1.18217
 C426 C 0.57957 0.08595 1.18875
 C427 C 0.52252 0.09608 1.12548
 C428 C 0.53468 0.12457 1.10953
 C429 C 0.56737 0.15119 1.11338
 C430 C 0.58774 0.14856 1.13472
 C431 C 0.62103 0.17441 1.13769
 C432 C 0.63432 0.20142 1.12010
 C433 C 0.61490 0.20425 1.09916
 C434 C 0.58085 0.17977 1.09594
 C435 C 0.56193 0.18477 1.07504
 C436 C 0.57685 0.21168 1.05722
 C437 C 0.61104 0.23465 1.05955
 C438 C 0.62970 0.23117 1.08102
 H439 H 0.61685 0.13479 1.18023
 H440 H 0.50472 0.04302 1.15644
 H441 H 0.59452 0.08347 1.20501
 H442 H 0.49757 0.07598 1.12131
 H443 H 0.51805 0.12438 1.09371
 H444 H 0.63805 0.17407 1.15296
 H445 H 0.66029 0.22019 1.12279
 H446 H 0.53556 0.16834 1.07175
 H447 H 0.56162 0.21394 1.04108
 H448 H 0.65604 0.24911 1.08337
 C449 C 0.48325 0.60431 1.15816
 C450 C 0.45433 0.58465 1.14232
 C451 C 0.44138 0.54945 1.14336
 C452 C 0.45804 0.53500 1.15829
 C453 C 0.48711 0.55494 1.17312
 C454 C 0.49920 0.58956 1.17337
 C455 C 0.41199 0.52877 1.12942
 C456 C 0.39504 0.54215 1.11417
 C457 C 0.40740 0.57702 1.11164
 C458 C 0.43796 0.59863 1.12547
 C459 C 0.45181 0.63340 1.12118
 C460 C 0.43680 0.64664 1.10367
 C461 C 0.40694 0.62597 1.09029
 C462 C 0.39104 0.59101 1.09478
 C463 C 0.35964 0.57156 1.08185
 C464 C 0.34608 0.58605 1.06378
 C465 C 0.36335 0.62021 1.05799
 C466 C 0.39330 0.64013 1.07187
 H467 H 0.49396 0.63109 1.15955
 H468 H 0.44820 0.50806 1.15864
 H469 H 0.52141 0.60530 1.18507
 H470 H 0.40194 0.50184 1.13026
 H471 H 0.37286 0.52436 1.10373
 H472 H 0.47513 0.65115 1.13025
 H473 H 0.44891 0.67343 1.10041
 H474 H 0.34492 0.54511 1.08519
 H475 H 0.32261 0.57024 1.05357
 H476 H 0.40639 0.66680 1.06799
 C477 C 0.10534 0.52321 1.15494
 C478 C 0.11417 0.55284 1.13984
 C479 C 0.09332 0.56875 1.14258
 C480 C 0.06389 0.55429 1.15836
 C481 C 0.05504 0.52443 1.17237
 C482 C 0.07629 0.50939 1.17099
 C483 C 0.10171 0.59889 1.12942
 C484 C 0.13040 0.61377 1.11338
 C485 C 0.15151 0.59855 1.10924
 C486 C 0.14278 0.56715 1.12214
 C487 C 0.16220 0.55054 1.11614
 C488 C 0.18899 0.56388 1.09807
 C489 C 0.19819 0.59469 1.08578
 C490 C 0.18036 0.61305 1.09180
 C491 C 0.19215 0.64511 1.07992
 C492 C 0.21918 0.65736 1.06173
 C493 C 0.23523 0.63810 1.05466
 C494 C 0.22494 0.60702 1.06715
 H495 H 0.12049 0.51026 1.15504
 H496 H 0.04780 0.56637 1.15991
 H497 H 0.07003 0.48649 1.18197
 H498 H 0.08587 0.61117 1.13152
 H499 H 0.13465 0.63675 1.10367
 H500 H 0.15656 0.52641 1.12435
 H501 H 0.20263 0.54981 1.09360
 H502 H 0.18122 0.66148 1.08436
 H503 H 0.22696 0.68166 1.05262
 H504 H 0.23776 0.59226 1.06227
 C505 C 0.48943 0.88100 1.16448
 C506 C 0.46312 0.87667 1.14629
 C507 C 0.45279 0.90209 1.14556
 C508 C 0.46916 0.93096 1.16136
 C509 C 0.49566 0.93521 1.17860
 C510 C 0.50528 0.90980 1.18043
 C511 C 0.42631 0.89887 1.12894
 C512 C 0.40966 0.87094 1.11274
 C513 C 0.41919 0.84510 1.11216
 C514 C 0.44678 0.84826 1.12880
 C515 C 0.45767 0.82344 1.12680
 C516 C 0.44252 0.79674 1.10895
 C517 C 0.41543 0.79317 1.09282
 C518 C 0.40274 0.81674 1.09475
 C519 C 0.37415 0.81103 1.07896
 C520 C 0.36028 0.78440 1.06086
 C521 C 0.37406 0.76223 1.05786
 C522 C 0.40126 0.76637 1.07441
 H523 H 0.49821 0.86255 1.16703
 H524 H 0.46110 0.95028 1.16039
 H525 H 0.52551 0.91250 1.19390
 H526 H 0.41839 0.91829 1.12836
 H527 H 0.38995 0.87097 1.10023
 H528 H 0.47863 0.82442 1.13823
 H529 H 0.45226 0.77873 1.10769
 H530 H 0.36170 0.82656 1.08006
 H531 H 0.33887 0.78157 1.04880
 H532 H 0.41186 0.74909 1.07265
 C533 C 0.59809 0.48325 0.66179
 C534 C 0.57806 0.45547 0.64515
 C535 C 0.54256 0.44318 0.64610
 C536 C 0.52825 0.45953 0.66161
 C537 C 0.54858 0.48756 0.67715
 C538 C 0.58343 0.49886 0.67761
 C539 C 0.52146 0.41479 0.63144
 C540 C 0.53470 0.39821 0.61558
 C541 C 0.56987 0.41000 0.61311
 C542 C 0.59193 0.43961 0.62758
 C543 C 0.62702 0.45311 0.62317
 C544 C 0.64013 0.43858 0.60498
 C545 C 0.61901 0.40948 0.59109
 C546 C 0.58371 0.39400 0.59568
 C547 C 0.56375 0.36330 0.58235
 C548 C 0.57804 0.35000 0.56383
 C549 C 0.61255 0.36681 0.55793
 C550 C 0.63301 0.39614 0.57213
 H551 H 0.62508 0.49327 0.66332
 H552 H 0.50111 0.45034 0.66176
 H553 H 0.59944 0.52025 0.68988
 H554 H 0.49431 0.40526 0.63219
 H555 H 0.51658 0.37686 0.60459
 H556 H 0.64509 0.47583 0.63266
 H557 H 0.66717 0.45041 0.60166
 H558 H 0.53704 0.34886 0.58579
 H559 H 0.56176 0.32702 0.55341
 H560 H 0.65993 0.40890 0.56815
 C561 C 0.58766 0.11350 0.66334
 C562 C 0.57190 0.11696 0.63949
 C563 C 0.53902 0.09136 0.63358
 C564 C 0.52370 0.06293 0.65001
 C565 C 0.54030 0.05926 0.67275
 C566 C 0.57201 0.08507 0.67964
 C567 C 0.52168 0.09383 0.61103
 C568 C 0.53612 0.12119 0.59397
 C569 C 0.56896 0.14722 0.59858
 C570 C 0.58752 0.14470 0.62131
 C571 C 0.62127 0.16947 0.62464
 C572 C 0.63632 0.19593 0.60657
 C573 C 0.61824 0.19931 0.58482
 C574 C 0.58409 0.17533 0.58082
 C575 C 0.56632 0.18067 0.55927
 C576 C 0.58196 0.20808 0.54223
 C577 C 0.61587 0.23130 0.54580
 C578 C 0.63401 0.22671 0.56712
 H579 H 0.61203 0.13223 0.66998
 H580 H 0.49882 0.04328 0.64491
 H581 H 0.58523 0.08279 0.69726
 H582 H 0.49660 0.07426 0.60640
 H583 H 0.52102 0.12058 0.57682
 H584 H 0.63715 0.16872 0.64074
 H585 H 0.66241 0.21412 0.60980
 H586 H 0.54007 0.16459 0.55521
 H587 H 0.56723 0.21099 0.52598
 H588 H 0.66014 0.24482 0.57029
 C589 C 0.87339 0.46416 0.66677
 C590 C 0.86757 0.43931 0.64688
 C591 C 0.89194 0.42751 0.64437
 C592 C 0.92145 0.44140 0.65994
 C593 C 0.92732 0.46673 0.67869
 C594 C 0.90282 0.47751 0.68247
 C595 C 0.88713 0.40220 0.62609
 C596 C 0.85872 0.38829 0.60982
 C597 C 0.83404 0.39963 0.61080
 C598 C 0.83877 0.42595 0.62929
 C599 C 0.81521 0.43875 0.62890
 C600 C 0.78835 0.42674 0.61080
 C601 C 0.78329 0.40096 0.59282
 C602 C 0.80542 0.38631 0.59314
 C603 C 0.79812 0.35906 0.57550
 C604 C 0.77144 0.34839 0.55722
 C605 C 0.75081 0.36420 0.55582
 C606 C 0.75648 0.39007 0.57417
 H607 H 0.85571 0.47374 0.67076
 H608 H 0.94017 0.43256 0.65741
 H609 H 0.90682 0.49684 0.69717
 H610 H 0.90571 0.39310 0.62418
 H611 H 0.85755 0.36935 0.59595
 H612 H 0.81744 0.45894 0.64179
 H613 H 0.77142 0.43793 0.61080
 H614 H 0.81241 0.34525 0.57528
 H615 H 0.76741 0.32793 0.54373
 H616 H 0.74036 0.40217 0.57368
 C617 C 0.47475 0.59685 0.66478
 C618 C 0.44834 0.57771 0.64657
 C619 C 0.43619 0.54256 0.64654
 C620 C 0.45191 0.52785 0.66239
 C621 C 0.47894 0.54744 0.67931
 C622 C 0.48963 0.58181 0.68093
 C623 C 0.40877 0.52229 0.63040
 C624 C 0.39300 0.53603 0.61414
 C625 C 0.40485 0.57093 0.61264
 C626 C 0.43373 0.59217 0.62837
 C627 C 0.44789 0.62706 0.62451
 C628 C 0.43443 0.64076 0.60588
 C629 C 0.40560 0.62046 0.59111
 C630 C 0.38963 0.58535 0.59502
 C631 C 0.35902 0.56612 0.58110
 C632 C 0.34602 0.58099 0.56298
 C633 C 0.36311 0.61536 0.55787
 C634 C 0.39274 0.63505 0.57224
 H635 H 0.48427 0.62343 0.66718
 H636 H 0.44329 0.50110 0.66148
 H637 H 0.51030 0.59725 0.69418
 H638 H 0.39935 0.49541 0.63032
 H639 H 0.37238 0.51859 0.60200
 H640 H 0.47042 0.64449 0.63480
 H641 H 0.44671 0.66763 0.60308
 H642 H 0.34422 0.53960 0.58404
 H643 H 0.32282 0.56528 0.55238
 H644 H 0.40571 0.66182 0.56883
 C645 C 0.46903 0.87728 0.66681
 C646 C 0.45245 0.87614 0.64209
 C647 C 0.45057 0.90539 0.63412
 C648 C 0.46627 0.93476 0.64936
 C649 C 0.48356 0.93613 0.67350
 C650 C 0.48390 0.90660 0.68233
 C651 C 0.43296 0.90545 0.61090
 C652 C 0.41661 0.87688 0.59540
 C653 C 0.41786 0.84707 0.60220
 C654 C 0.43733 0.84706 0.62518
 C655 C 0.44178 0.81842 0.62992
 C656 C 0.42759 0.79074 0.61283
 C657 C 0.40725 0.78989 0.59108
 C658 C 0.40115 0.81763 0.58611
 C659 C 0.37821 0.81470 0.56534
 C660 C 0.36358 0.78629 0.54922
 C661 C 0.37119 0.75971 0.55302
 C662 C 0.39290 0.76149 0.57419
 H663 H 0.47050 0.85578 0.67489
 H664 H 0.46354 0.95633 0.64278
 H665 H 0.49695 0.90625 0.70068
 H666 H 0.43166 0.92789 0.60463
 H667 H 0.40423 0.87942 0.57750
 H668 H 0.45722 0.81715 0.64618
 H669 H 0.43233 0.76962 0.61687
 H670 H 0.37042 0.83363 0.56133
 H671 H 0.34657 0.78548 0.53327
 H672 H 0.39835 0.74071 0.57767
 C673 C 0.10848 0.52836 0.66758
 C674 C 0.11163 0.54928 0.64527
 C675 C 0.08451 0.55655 0.64002
 C676 C 0.05457 0.54113 0.65503
 C677 C 0.05130 0.51977 0.67682
 C678 C 0.07910 0.51437 0.68328
 C679 C 0.08738 0.57936 0.61989
 C680 C 0.11683 0.59551 0.60492
 C681 C 0.14413 0.58829 0.60870
 C682 C 0.14081 0.56354 0.62822
 C683 C 0.16601 0.55290 0.62923
 C684 C 0.19344 0.56589 0.61165
 C685 C 0.19775 0.59116 0.59340
 C686 C 0.17398 0.60384 0.59261
 C687 C 0.18109 0.63162 0.57569
 C688 C 0.20933 0.64454 0.55883
 C689 C 0.23102 0.62997 0.55802
 C690 C 0.22546 0.60361 0.57562
 H691 H 0.12864 0.52299 0.67377
 H692 H 0.03430 0.54727 0.65047
 H693 H 0.07780 0.49803 0.69978
 H694 H 0.06671 0.58506 0.61580
 H695 H 0.11682 0.61243 0.58952
 H696 H 0.16430 0.53323 0.64252
 H697 H 0.21160 0.55618 0.61247
 H698 H 0.16555 0.64418 0.57531
 H699 H 0.21352 0.66526 0.54560
 H700 H 0.24274 0.59279 0.57543
 C701 C 0.48757 0.60385 0.84141
 C702 C 0.45930 0.58531 0.85828
 C703 C 0.44546 0.54999 0.85778
 C704 C 0.46036 0.53436 0.84217
 C705 C 0.48879 0.55309 0.82628
 C706 C 0.50192 0.58786 0.82558
 C707 C 0.41693 0.53025 0.87300
 C708 C 0.40156 0.54464 0.88893
 C709 C 0.41451 0.57966 0.89067
 C710 C 0.44432 0.60039 0.87561
 C711 C 0.45863 0.63537 0.87904
 C712 C 0.44458 0.64961 0.89672
 C713 C 0.41524 0.62976 0.91116
 C714 C 0.39923 0.59458 0.90773
 C715 C 0.36853 0.57574 0.92167
 C716 C 0.35558 0.59094 0.93946
 C717 C 0.37245 0.62548 0.94401
 C718 C 0.40202 0.64487 0.92932
 H719 H 0.49903 0.63066 0.83977
 H720 H 0.44965 0.50733 0.84223
 H721 H 0.52371 0.60273 0.81313
 H722 H 0.40634 0.50325 0.87267
 H723 H 0.38005 0.52741 0.90036
 H724 H 0.48145 0.65251 0.86894
 H725 H 0.45689 0.67653 0.89913
 H726 H 0.35365 0.54916 0.91922
 H727 H 0.33234 0.57527 0.95003
 H728 H 0.41504 0.67171 0.93225
 C729 C 0.11320 0.53156 0.83277
 C730 C 0.11709 0.55416 0.85407
 C731 C 0.09029 0.56223 0.85870
 C732 C 0.06019 0.54647 0.84387
 C733 C 0.05644 0.52335 0.82360
 C734 C 0.08336 0.51658 0.81776
 C735 C 0.09345 0.58574 0.87830
 C736 C 0.12266 0.60157 0.89355
 C737 C 0.14973 0.59379 0.89035
 C738 C 0.14647 0.56892 0.87090
 C739 C 0.17204 0.55875 0.86968
 C740 C 0.19969 0.57217 0.88698
 C741 C 0.20364 0.59705 0.90554
 C742 C 0.17936 0.60909 0.90680
 C743 C 0.18572 0.63593 0.92462
 C744 C 0.21368 0.64857 0.94169
 C745 C 0.23638 0.63505 0.94173
 C746 C 0.23153 0.60965 0.92317
 H747 H 0.13283 0.52520 0.82700
 H748 H 0.03955 0.55223 0.84804
 H749 H 0.08099 0.49901 0.80189
 H750 H 0.07305 0.59200 0.88191
 H751 H 0.12264 0.61892 0.90855
 H752 H 0.17076 0.53936 0.85625
 H753 H 0.21819 0.56292 0.88580
 H754 H 0.16974 0.64795 0.92575
 H755 H 0.21698 0.66855 0.95548
 H756 H 0.24929 0.59944 0.92261
 C757 C 0.42234 0.88669 0.82843
 C758 C 0.43409 0.88337 0.85431
 C759 C 0.46569 0.90905 0.86281
 C760 C 0.48365 0.93726 0.84671
 C761 C 0.47152 0.94095 0.82132
 C762 C 0.44086 0.91477 0.81221
 C763 C 0.47952 0.90668 0.88745
 C764 C 0.46300 0.87902 0.90386
 C765 C 0.43148 0.85260 0.89644
 C766 C 0.41602 0.85542 0.87189
 C767 C 0.38285 0.83069 0.86619
 C768 C 0.36556 0.80395 0.88372
 C769 C 0.38102 0.80005 0.90705
 C770 C 0.41460 0.82386 0.91325
 C771 C 0.43026 0.81771 0.93586
 C772 C 0.41286 0.79003 0.95226
 C773 C 0.37920 0.76731 0.94695
 C774 C 0.36330 0.77238 0.92421
 H775 H 0.39910 0.86783 0.82001
 H776 H 0.50815 0.95581 0.85374
 H777 H 0.43007 0.91634 0.79299
 H778 H 0.50355 0.92646 0.89416
 H779 H 0.47523 0.87970 0.92279
 H780 H 0.36912 0.83187 0.84864
 H781 H 0.33994 0.78589 0.87875
 H782 H 0.45625 0.83333 0.94116
 H783 H 0.42595 0.78666 0.96952
 H784 H 0.33745 0.75457 0.91963
 C785 C 0.51623 0.42479 0.85668
 C786 C 0.54915 0.42753 0.85588
 C787 C 0.57285 0.45137 0.83793
 C788 C 0.56356 0.47119 0.82141
 C789 C 0.53123 0.46882 0.82327
 C790 C 0.50766 0.44533 0.84081
 C791 C 0.60600 0.45612 0.83722
 C792 C 0.61679 0.43909 0.85497
 C793 C 0.59449 0.41589 0.87382
 C794 C 0.55970 0.40857 0.87312
 C795 C 0.53669 0.38271 0.88981
 C796 C 0.54751 0.36616 0.90793
 C797 C 0.58169 0.37503 0.91055
 C798 C 0.60576 0.39989 0.89351
 C799 C 0.64022 0.40860 0.89770
 C800 C 0.65016 0.39375 0.91830
 C801 C 0.62621 0.36943 0.93518
 C802 C 0.59193 0.35970 0.93072
 H803 H 0.49691 0.40809 0.87021
 H804 H 0.58201 0.48976 0.80811
 H805 H 0.48257 0.44329 0.84258
 H806 H 0.62413 0.47396 0.82330
 H807 H 0.64286 0.44446 0.85324
 H808 H 0.50988 0.37434 0.88915
 H809 H 0.52893 0.34676 0.92057
 H810 H 0.66027 0.42770 0.88613
 H811 H 0.67684 0.40179 0.92127
 H812 H 0.57311 0.34110 0.94377
 C813 C 0.87719 0.45081 0.83778
 C814 C 0.87381 0.42942 0.85983
 C815 C 0.89933 0.41932 0.86340
 C816 C 0.92820 0.43242 0.84687
 C817 C 0.93172 0.45474 0.82598
 C818 C 0.90568 0.46313 0.82115
 C819 C 0.89618 0.39657 0.88366
 C820 C 0.86819 0.38348 0.90059
 C821 C 0.84262 0.39355 0.89851
 C822 C 0.84611 0.41781 0.87843
 C823 C 0.82259 0.43064 0.87829
 C824 C 0.79645 0.42007 0.89698
 C825 C 0.79195 0.39551 0.91597
 C826 C 0.81429 0.38109 0.91649
 C827 C 0.80715 0.35463 0.93494
 C828 C 0.77985 0.34407 0.95276
 C829 C 0.75907 0.35970 0.95307
 C830 C 0.76514 0.38530 0.93450
 H831 H 0.85816 0.45827 0.83268
 H832 H 0.94810 0.42540 0.85031
 H833 H 0.90785 0.48012 0.80490
 H834 H 0.91558 0.38873 0.88647
 H835 H 0.86803 0.36644 0.91592
 H836 H 0.82447 0.45000 0.86458
 H837 H 0.77944 0.43117 0.89646
 H838 H 0.82175 0.34113 0.93578
 H839 H 0.77534 0.32390 0.96670
 H840 H 0.74861 0.39696 0.93421
 C841 C 0.55682 0.11865 0.82606
 C842 C 0.57346 0.12076 0.85094
 C843 C 0.57925 0.09338 0.85824
 C844 C 0.56649 0.06434 0.84234
 C845 C 0.54825 0.06196 0.81873
 C846 C 0.54443 0.08967 0.81030
 C847 C 0.59694 0.09467 0.88177
 C848 C 0.60861 0.12230 0.89866
 C849 C 0.60237 0.14969 0.89301
 C850 C 0.58401 0.14869 0.86898
 C851 C 0.57562 0.17492 0.86440
 C852 C 0.58443 0.20100 0.88275
 C853 C 0.60269 0.20256 0.90605
 C854 C 0.61280 0.17748 0.91113
 C855 C 0.63283 0.18122 0.93430
 C856 C 0.64098 0.20774 0.95218
 C857 C 0.62956 0.23157 0.94779
 C858 C 0.61069 0.22901 0.92445
 H859 H 0.55273 0.13880 0.81826
 H860 H 0.57005 0.04312 0.84865
 H861 H 0.53060 0.08843 0.79197
 H862 H 0.60155 0.07386 0.88736
 H863 H 0.62141 0.12074 0.91664
 H864 H 0.56111 0.17548 0.84719
 H865 H 0.57675 0.22015 0.87866
 H866 H 0.64296 0.16433 0.93916
 H867 H 0.65597 0.20922 0.96984
 H868 H 0.60226 0.24766 0.92056
   
