data_POSCAR
  _audit_creation_date              2014-09-24
  _audit_creation_method            'ToBaCCo'
  _symmetry_space_group_name_H-M    'P1'
  _symmetry_Int_Tables_number       1
  _symmetry_cell_setting            triclinic
  loop_
  _symmetry_equiv_pos_as_xyz
 x,y,z
_cell_length_a 34.8156
_cell_length_b 35.8360
_cell_length_c 35.9249
_cell_angle_alpha 89.956800
_cell_angle_beta 89.923200
_cell_angle_gamma 90.162000
loop_
  _atom_site_label
  _atom_site_type_symbol
  _atom_site_fract_x
  _atom_site_fract_y
  _atom_site_fract_z
O1 O 0.38353 0.32323 -0.03976
 O2 O 0.32620 0.37214 0.03162
 O3 O 0.38154 0.32293 0.03294
 O4 O 0.33167 0.37585 -0.04065
 O5 O 0.28737 0.33169 -0.04354
 O6 O 0.33676 0.27921 0.03015
 O7 O 0.28174 0.32814 0.02784
 O8 O 0.33887 0.27932 -0.04182
 Cu9 Cu 0.36027 0.35298 -0.00361
 Cu10 Cu 0.30682 0.30015 -0.00717
 C11 C 0.37071 0.29262 -0.05266
 C12 C 0.29392 0.35854 0.04135
 C13 C 0.36769 0.29202 0.04391
 C14 C 0.30079 0.36290 -0.05437
 O15 O 0.66898 0.62034 0.03264
 O16 O 0.61410 0.67458 -0.03650
 O17 O 0.66656 0.62180 -0.04000
 O18 O 0.61773 0.67335 0.03607
 O19 O 0.66413 0.71554 0.03481
 O20 O 0.71185 0.66508 -0.04081
 O21 O 0.66006 0.71725 -0.03676
 O22 O 0.71497 0.66296 0.03088
 Cu23 Cu 0.63716 0.64317 -0.00196
 Cu24 Cu 0.69234 0.69443 -0.00318
 C25 C 0.70146 0.63249 0.04327
 C26 C 0.62762 0.70554 -0.04779
 C27 C 0.69796 0.63467 -0.05295
 C28 C 0.63277 0.70337 0.04817
 O29 O 0.66996 0.38439 0.96459
 O30 O 0.61822 0.32868 1.03522
 O31 O 0.66855 0.38334 1.03713
 O32 O 0.62005 0.32969 0.96228
 O33 O 0.66762 0.28901 0.96286
 O34 O 0.71494 0.34142 1.03763
 O35 O 0.66526 0.28740 1.03473
 O36 O 0.71715 0.34327 0.96590
 Cu37 Cu 0.63932 0.36064 0.99980
 Cu38 Cu 0.69592 0.31118 1.00032
 C39 C 0.70268 0.37328 0.95366
 C40 C 0.63296 0.29839 1.04668
 C41 C 0.70033 0.37144 1.04984
 C42 C 0.63575 0.30015 0.94996
 O43 O 0.33431 0.61172 0.97078
 O44 O 0.38838 0.66926 1.03896
 O45 O 0.35111 0.61008 1.04496
 O46 O 0.38345 0.66958 0.96882
 O47 O 0.33226 0.70521 0.97586
 O48 O 0.29555 0.63939 1.04839
 O49 O 0.33559 0.70214 1.04820
 O50 O 0.28441 0.64899 0.97740
 Cu51 Cu 0.36825 0.63569 1.00409
 Cu52 Cu 0.30684 0.67736 1.01326
 C53 C 0.30027 0.62130 0.96208
 C54 C 0.37057 0.69560 1.05524
 C55 C 0.31837 0.61409 1.05983
 C56 C 0.36435 0.69832 0.96014
 O57 O -0.04131 0.39257 0.33424
 O58 O 0.03005 0.33823 0.38859
 O59 O 0.03038 0.38832 0.33182
 O60 O -0.04707 0.35418 0.39120
 O61 O -0.05065 0.30099 0.36045
 O62 O 0.02194 0.33988 0.29466
 O63 O 0.02292 0.29125 0.34954
 O64 O -0.05164 0.34210 0.30021
 Cu65 Cu -0.00475 0.37189 0.36634
 Cu66 Cu -0.01492 0.31353 0.32283
 C67 C -0.05862 0.37592 0.30780
 C68 C 0.03894 0.30556 0.37765
 C69 C 0.03775 0.37120 0.30183
 C70 C -0.06262 0.32258 0.38610
 O71 O 0.03910 0.66681 0.61590
 O72 O -0.03556 0.61565 0.66870
 O73 O -0.03582 0.66623 0.61583
 O74 O 0.03982 0.61647 0.66926
 O75 O 0.03879 0.66136 0.71135
 O76 O -0.03603 0.71024 0.65884
 O77 O -0.03541 0.66038 0.71102
 O78 O 0.03782 0.71120 0.65855
 Cu79 Cu 0.00201 0.63667 0.63818
 Cu80 Cu 0.00133 0.69017 0.68918
 C81 C 0.05053 0.69815 0.62817
 C82 C -0.04801 0.62947 0.69894
 C83 C -0.04848 0.69706 0.62836
 C84 C 0.05187 0.63053 0.69961
 O85 O 1.03996 0.61645 0.32590
 O86 O 0.96762 0.66888 0.38024
 O87 O 0.96493 0.61829 0.32777
 O88 O 1.04256 0.66687 0.37948
 O89 O 1.04257 0.71110 0.33664
 O90 O 0.96617 0.66300 0.28540
 O91 O 0.96877 0.71320 0.33743
 O92 O 1.04020 0.66141 0.28378
 Cu93 Cu 1.00384 0.63804 0.35765
 Cu94 Cu 1.00457 0.69158 0.30659
 C95 C 1.05184 0.62996 0.29523
 C96 C 0.95625 0.70022 0.36797
 C97 C 0.95263 0.63245 0.29761
 C98 C 1.05517 0.69779 0.36700
 O99 O 0.96341 0.32921 0.62412
 O100 O 1.03833 0.38410 0.67239
 O101 O 1.03829 0.33262 0.62076
 O102 O 0.96332 0.38342 0.67297
 O103 O 0.96550 0.34049 0.71710
 O104 O 1.03989 0.28993 0.66512
 O105 O 1.03965 0.34094 0.71636
 O106 O 0.96609 0.28660 0.66857
 Cu107 Cu 1.00057 0.36168 0.64305
 Cu108 Cu 1.00297 0.31030 0.69625
 C109 C 0.95251 0.29831 0.63807
 C110 C 1.05146 0.37158 0.70292
 C111 C 1.05159 0.30241 0.63398
 C112 C 0.95196 0.37067 0.70409
 O113 O 0.32928 -0.03371 0.38293
 O114 O 0.38176 0.03845 0.32980
 O115 O 0.32873 0.03951 0.38179
 O116 O 0.38202 -0.03425 0.33088
 O117 O 0.33637 -0.03480 0.28820
 O118 O 0.28376 0.03809 0.33848
 O119 O 0.33630 0.03695 0.28693
 O120 O 0.28418 -0.03418 0.33970
 Cu121 Cu 0.35997 0.00265 0.36083
 Cu122 Cu 0.30558 0.00148 0.30912
 C123 C 0.29775 -0.04614 0.37015
 C124 C 0.36804 0.04942 0.29896
 C125 C 0.29703 0.05116 0.36866
 C126 C 0.36818 -0.04672 0.30058
 O127 O 0.61949 0.03296 0.66773
 O128 O 0.66760 -0.04381 0.61713
 O129 O 0.61490 -0.04002 0.66973
 O130 O 0.67163 0.02879 0.61491
 O131 O 0.71707 0.02654 0.65773
 O132 O 0.66058 -0.04024 0.71236
 O133 O 0.71245 -0.04490 0.66060
 O134 O 0.66553 0.03157 0.70999
 Cu135 Cu 0.63869 -0.00542 0.63808
 Cu136 Cu 0.69337 -0.00686 0.68945
 C137 C 0.63443 0.04505 0.69767
 C138 C 0.69864 -0.05693 0.63025
 C139 C 0.62819 -0.05143 0.70067
 C140 C 0.70442 0.03875 0.62697
 O141 O 0.32903 1.03961 0.61539
 O142 O 0.37773 0.96647 0.67094
 O143 O 0.32825 0.96649 0.61615
 O144 O 0.38209 1.03915 0.66738
 O145 O 0.33573 1.04099 0.70939
 O146 O 0.28203 0.96902 0.65827
 O147 O 0.33096 0.96945 0.71249
 O148 O 0.28317 1.04126 0.65793
 Cu149 Cu 0.35895 1.00272 0.63815
 Cu150 Cu 0.30330 1.00553 0.68858
 C151 C 0.29744 1.05259 0.62751
 C152 C 0.36249 0.95592 0.70141
 C153 C 0.29600 0.95545 0.62856
 C154 C 0.36821 1.05197 0.69745
 O155 O 0.62247 0.96552 0.33000
 O156 O 0.67603 1.03870 0.38095
 O157 O 0.62232 1.03831 0.32982
 O158 O 0.67441 0.96552 0.38292
 O159 O 0.71977 0.96562 0.33987
 O160 O 0.66779 1.03707 0.28687
 O161 O 0.72091 1.03789 0.33744
 O162 O 0.66826 0.96521 0.28734
 Cu163 Cu 0.64428 1.00209 0.36037
 Cu164 Cu 0.69873 1.00131 0.30867
 C165 C 0.63632 0.95337 0.29960
 C166 C 0.70769 1.05066 0.36773
 C167 C 0.63614 1.04966 0.29905
 C168 C 0.70615 0.95342 0.37036
 C169 C 0.86418 0.74653 0.53248
 C170 C 0.88090 0.73612 0.49846
 C171 C 0.86687 0.74950 0.46434
 C172 C 0.83448 0.77334 0.46405
 C173 C 0.81805 0.78504 0.49805
 C174 C 0.83137 0.76996 0.53211
 C175 C 0.81136 0.77882 0.56489
 C176 C 0.78308 0.80622 0.56493
 C177 C 0.77406 0.82597 0.53226
 C178 C 0.78941 0.81328 0.49813
 C179 C 0.81793 0.78589 0.43063
 C180 C 0.79010 0.81374 0.43071
 C181 C 0.77763 0.82988 0.46424
 C182 C 0.75372 0.86191 0.46480
 C183 C 0.74006 0.87509 0.49915
 C184 C 0.75034 0.85802 0.53291
 H185 H 0.81727 0.76467 0.59084
 H186 H 0.76852 0.81179 0.59093
 H187 H 0.82632 0.77442 0.40402
 H188 H 0.77846 0.82234 0.40419
 H189 H 0.90716 0.72004 0.49865
 H190 H 0.72392 0.90084 0.49983
 C191 C 0.24636 0.14058 0.46317
 C192 C 0.25964 0.12577 0.49700
 C193 C 0.24905 0.14119 0.53135
 C194 C 0.22598 0.17359 0.53202
 C195 C 0.21057 0.18778 0.49853
 C196 C 0.22201 0.17241 0.46391
 C197 C 0.20881 0.18960 0.43115
 C198 C 0.18097 0.21751 0.43247
 C199 C 0.16533 0.22935 0.46660
 C200 C 0.18223 0.21630 0.49989
 C201 C 0.21763 0.19210 0.56552
 C202 C 0.19002 0.22004 0.56683
 C203 C 0.16968 0.23034 0.53470
 C204 C 0.13729 0.25418 0.53647
 C205 C 0.12025 0.26611 0.50316
 C206 C 0.13339 0.25381 0.46834
 H207 H 0.21985 0.18185 0.40413
 H208 H 0.17194 0.22971 0.40640
 H209 H 0.23229 0.18509 0.59110
 H210 H 0.18484 0.23338 0.59333
 H211 H 0.27567 0.09994 0.49674
 H212 H 0.09427 0.28255 0.50440
 C213 C 0.25012 0.86444 0.46556
 C214 C 0.26066 0.88039 0.49972
 C215 C 0.24853 0.86506 0.53372
 C216 C 0.22593 0.83210 0.53348
 C217 C 0.21416 0.81636 0.49916
 C218 C 0.22804 0.83127 0.46531
 C219 C 0.21925 0.81257 0.43201
 C220 C 0.19261 0.78353 0.43151
 C221 C 0.17353 0.77247 0.46424
 C222 C 0.18678 0.78688 0.49861
 C223 C 0.21472 0.81424 0.56657
 C224 C 0.18798 0.78528 0.56602
 C225 C 0.17132 0.77340 0.53238
 C226 C 0.13946 0.74880 0.53176
 C227 C 0.12548 0.73586 0.49742
 C228 C 0.14159 0.74775 0.46351
 H229 H 0.23278 0.82026 0.40598
 H230 H 0.18710 0.77003 0.40516
 H231 H 0.22636 0.82248 0.59322
 H232 H 0.18040 0.77250 0.59230
 H233 H 0.27567 0.90688 0.49976
 H234 H 0.09963 0.71902 0.49705
 C235 C 0.75865 0.13285 0.46446
 C236 C 0.74755 0.11410 0.49717
 C237 C 0.75969 0.12603 0.53229
 C238 C 0.78279 0.15841 0.53510
 C239 C 0.79491 0.17735 0.50245
 C240 C 0.78168 0.16554 0.46710
 C241 C 0.79162 0.18700 0.43556
 C242 C 0.81650 0.21757 0.43839
 C243 C 0.83238 0.22763 0.47279
 C244 C 0.82097 0.20779 0.50521
 C245 C 0.79360 0.17276 0.56991
 C246 C 0.81970 0.20199 0.57258
 C247 C 0.83557 0.21833 0.54053
 C248 C 0.86479 0.24568 0.54287
 C249 C 0.87537 0.26510 0.51070
 C250 C 0.85877 0.25746 0.47615
 H251 H 0.77986 0.18082 0.40844
 H252 H 0.82367 0.23295 0.41336
 H253 H 0.78179 0.16181 0.59554
 H254 H 0.82654 0.21210 0.60012
 H255 H 0.73169 0.08816 0.49519
 H256 H 0.89722 0.28658 0.51216
 C257 C 0.45647 0.86879 0.75816
 C258 C 0.49194 0.88213 0.74496
 C259 C 0.52681 0.86696 0.75699
 C260 C 0.52611 0.83645 0.78211
 C261 C 0.49068 0.82373 0.79703
 C262 C 0.45573 0.83868 0.78383
 C263 C 0.42107 0.82282 0.79657
 C264 C 0.42071 0.79651 0.82521
 C265 C 0.45503 0.78476 0.84200
 C266 C 0.49034 0.79678 0.82613
 C267 C 0.55994 0.81803 0.79258
 C268 C 0.55964 0.79168 0.82097
 C269 C 0.52548 0.78277 0.83991
 C270 C 0.52569 0.75999 0.87198
 C271 C 0.49073 0.74887 0.88787
 C272 C 0.45526 0.76076 0.87352
 H273 H 0.39378 0.83026 0.78439
 H274 H 0.39320 0.78535 0.83370
 H275 H 0.58701 0.82359 0.77884
 H276 H 0.58652 0.77828 0.82777
 H277 H 0.49252 0.90667 0.72739
 H278 H 0.49125 0.73263 0.91328
 C279 C 0.46522 0.24301 0.13249
 C280 C 0.50024 0.25517 0.11734
 C281 C 0.53559 0.24422 0.13249
 C282 C 0.53607 0.22111 0.16445
 C283 C 0.50110 0.20758 0.17932
 C284 C 0.46564 0.22004 0.16460
 C285 C 0.43158 0.20930 0.18267
 C286 C 0.43208 0.18268 0.21087
 C287 C 0.46663 0.16567 0.22179
 C288 C 0.50160 0.18022 0.20798
 C289 C 0.57057 0.21119 0.18215
 C290 C 0.57104 0.18430 0.21015
 C291 C 0.53702 0.16638 0.22148
 C292 C 0.53741 0.13525 0.24594
 C293 C 0.50231 0.12020 0.25817
 C294 C 0.46702 0.13453 0.24598
 H295 H 0.40419 0.22136 0.17530
 H296 H 0.40504 0.17559 0.22394
 H297 H 0.59758 0.22411 0.17462
 H298 H 0.59837 0.17788 0.22282
 H299 H 0.50006 0.27090 0.09162
 H300 H 0.50243 0.09506 0.27487
 C301 C 0.53988 0.13559 0.74856
 C302 C 0.50434 0.12120 0.73666
 C303 C 0.46942 0.13670 0.74840
 C304 C 0.47011 0.16842 0.77189
 C305 C 0.50557 0.18222 0.78553
 C306 C 0.54051 0.16713 0.77240
 C307 C 0.57508 0.18423 0.78353
 C308 C 0.57548 0.21159 0.81113
 C309 C 0.54131 0.22293 0.82860
 C310 C 0.50598 0.21010 0.81368
 C311 C 0.43620 0.18690 0.78218
 C312 C 0.43659 0.21404 0.80979
 C313 C 0.47091 0.22374 0.82795
 C314 C 0.47088 0.24647 0.86004
 C315 C 0.50592 0.25832 0.87514
 C316 C 0.54127 0.24684 0.86020
 H317 H 0.60223 0.17681 0.77097
 H318 H 0.60289 0.22376 0.81839
 H319 H 0.40901 0.18057 0.76912
 H320 H 0.40965 0.22726 0.81683
 H321 H 0.50379 0.09572 0.72052
 H322 H 0.50563 0.27411 0.90080
 C323 C 0.53771 0.75473 0.13833
 C324 C 0.50251 0.74224 0.12405
 C325 C 0.46728 0.75355 0.13925
 C326 C 0.46720 0.77781 0.17043
 C327 C 0.50238 0.79197 0.18426
 C328 C 0.53768 0.77891 0.16957
 C329 C 0.57193 0.79021 0.18692
 C330 C 0.57177 0.81778 0.21419
 C331 C 0.53740 0.83521 0.22501
 C332 C 0.50226 0.82027 0.21203
 C333 C 0.43301 0.78813 0.18855
 C334 C 0.43290 0.81602 0.21554
 C335 C 0.46700 0.83444 0.22564
 C336 C 0.46684 0.86627 0.24916
 C337 C 0.50205 0.88161 0.26060
 C338 C 0.53727 0.86693 0.24852
 H339 H 0.59920 0.77774 0.17984
 H340 H 0.59896 0.82513 0.22674
 H341 H 0.40596 0.77469 0.18234
 H342 H 0.40577 0.82270 0.22856
 H343 H 0.50246 0.72569 0.09889
 H344 H 0.50204 0.90714 0.27666
 C345 C 0.86109 0.53518 0.75026
 C346 C 0.87681 0.50074 0.73964
 C347 C 0.86170 0.46682 0.75271
 C348 C 0.82913 0.46742 0.77641
 C349 C 0.81376 0.50199 0.78830
 C350 C 0.82829 0.53575 0.77357
 C351 C 0.80961 0.56924 0.78281
 C352 C 0.78139 0.57007 0.81033
 C353 C 0.77103 0.53748 0.82973
 C354 C 0.78514 0.50289 0.81653
 C355 C 0.81138 0.43439 0.78872
 C356 C 0.78353 0.43527 0.81650
 C357 C 0.77236 0.46922 0.83278
 C358 C 0.74914 0.47019 0.86504
 C359 C 0.73624 0.50464 0.87865
 C360 C 0.74718 0.53847 0.86185
 H361 H 0.81664 0.59516 0.76893
 H362 H 0.76795 0.59657 0.81621
 H363 H 0.81891 0.40753 0.77721
 H364 H 0.77101 0.40902 0.82523
 H365 H 0.90317 0.50044 0.72365
 H366 H 0.72037 0.50521 0.90457
 C367 C 0.23999 0.45371 0.12652
 C368 C 0.25956 0.48624 0.11624
 C369 C 0.25248 0.52043 0.13352
 C370 C 0.22312 0.52297 0.16056
 C371 C 0.20305 0.49019 0.17155
 C372 C 0.21303 0.45523 0.15593
 C373 C 0.19685 0.42267 0.17110
 C374 C 0.16839 0.42457 0.19817
 C375 C 0.15438 0.45911 0.21059
 C376 C 0.17319 0.49221 0.19848
 C377 C 0.21401 0.55693 0.17762
 C378 C 0.18409 0.55906 0.20343
 C379 C 0.16218 0.52728 0.21303
 C380 C 0.12996 0.52953 0.23713
 C381 C 0.11140 0.49654 0.24849
 C382 C 0.12295 0.46137 0.23557
 H383 H 0.20672 0.39527 0.16307
 H384 H 0.15801 0.39849 0.20946
 H385 H 0.22972 0.58216 0.17082
 H386 H 0.17891 0.58584 0.21624
 H387 H 0.28086 0.48525 0.09427
 H388 H 0.08606 0.49837 0.26587
 C389 C 0.74979 0.53692 0.13177
 C390 C 0.73692 0.50241 0.11807
 C391 C 0.74702 0.46870 0.13535
 C392 C 0.76953 0.46981 0.16821
 C393 C 0.78402 0.50432 0.18138
 C394 C 0.77256 0.53799 0.16434
 C395 C 0.78421 0.57192 0.18046
 C396 C 0.81114 0.57263 0.20907
 C397 C 0.82749 0.53943 0.22249
 C398 C 0.81155 0.50503 0.21057
 C399 C 0.77798 0.43733 0.18844
 C400 C 0.80467 0.43805 0.21725
 C401 C 0.82423 0.47117 0.22648
 C402 C 0.85606 0.47131 0.25098
 C403 C 0.87250 0.50551 0.26148
 C404 C 0.85906 0.53961 0.24746
 H405 H 0.77268 0.59830 0.17112
 H406 H 0.81885 0.59950 0.22050
 H407 H 0.76405 0.41105 0.18227
 H408 H 0.80976 0.41229 0.23209
 H409 H 0.72166 0.50168 0.09186
 H410 H 0.89817 0.50539 0.27840
 C411 C 0.25418 0.46197 0.86269
 C412 C 0.26525 0.49515 0.88046
 C413 C 0.25278 0.53013 0.86780
 C414 C 0.22932 0.53223 0.83564
 C415 C 0.21707 0.49908 0.81801
 C416 C 0.23120 0.46410 0.83023
 C417 C 0.22176 0.43213 0.80958
 C418 C 0.19411 0.43365 0.78175
 C419 C 0.17516 0.46721 0.77350
 C420 C 0.18900 0.50068 0.78933
 C421 C 0.21762 0.56662 0.82058
 C422 C 0.19042 0.56819 0.79211
 C423 C 0.17350 0.53544 0.77800
 C424 C 0.14180 0.53623 0.75296
 C425 C 0.12696 0.50228 0.73958
 C426 C 0.14244 0.46787 0.75035
 H427 H 0.23541 0.40559 0.81482
 H428 H 0.18753 0.40816 0.76692
 H429 H 0.22941 0.59268 0.83060
 H430 H 0.18295 0.59540 0.78146
 H431 H 0.28087 0.49362 0.90643
 H432 H 0.10091 0.50249 0.72319
 N433 N 0.21867 0.39626 0.09613
 N434 N 0.23213 0.37035 0.07340
 C435 C 0.26944 0.37852 0.06761
 C436 C 0.27857 0.41007 0.08752
 N437 N 0.24617 0.42016 0.10533
 H438 H 0.30583 0.42465 0.08826
 N439 N 0.77263 0.59425 0.10250
 N440 N 0.76082 0.62007 0.07887
 C441 C 0.72441 0.61120 0.06981
 C442 C 0.71415 0.57909 0.08859
 N443 N 0.74494 0.56970 0.10916
 H444 H 0.68722 0.56398 0.08728
 N445 N 0.77277 0.41337 0.89414
 N446 N 0.76146 0.38720 0.91770
 C447 C 0.72497 0.39528 0.92701
 C448 C 0.71411 0.42732 0.90850
 N449 N 0.74469 0.43741 0.88779
 H450 H 0.68696 0.44189 0.91005
 N451 N 0.23024 0.58587 0.89957
 N452 N 0.24170 0.61003 0.92504
 C453 C 0.27802 0.60088 0.93407
 C454 C 0.28864 0.57026 0.91317
 N455 N 0.25806 0.56206 0.89158
 H456 H 0.31553 0.55520 0.91391
 N457 N 0.10150 0.23502 0.41103
 N458 N 0.07611 0.24774 0.38687
 C459 C 0.06760 0.28289 0.39717
 C460 C 0.08876 0.29147 0.42853
 N461 N 0.11000 0.26088 0.43602
 H462 H 0.08817 0.31695 0.44469
 N463 N 0.11004 0.76879 0.58993
 N464 N 0.08657 0.75625 0.61605
 C465 C 0.07787 0.72079 0.60698
 C466 C 0.09669 0.71188 0.57432
 N467 N 0.11701 0.74254 0.56489
 H468 H 0.09535 0.68605 0.55877
 N469 N 0.89653 0.77039 0.40640
 N470 N 0.92026 0.75823 0.38037
 C471 C 0.92902 0.72277 0.38927
 C472 C 0.90991 0.71345 0.42168
 N473 N 0.88942 0.74385 0.43118
 H474 H 0.91111 0.68745 0.43699
 N475 N 0.89513 0.22551 0.60082
 N476 N 0.91851 0.23864 0.62672
 C477 C 0.92492 0.27476 0.61837
 C478 C 0.90465 0.28349 0.58672
 N479 N 0.88603 0.25204 0.57671
 H480 H 0.90439 0.30983 0.57196
 N481 N 0.40570 0.10725 0.22764
 N482 N 0.37881 0.08473 0.24083
 C483 C 0.38918 0.07601 0.27584
 C484 C 0.42337 0.09384 0.28381
 N485 N 0.43245 0.11355 0.25309
 H486 H 0.44024 0.09212 0.30904
 N487 N 0.60171 0.10887 0.76610
 N488 N 0.62735 0.08482 0.75348
 C489 C 0.61542 0.07418 0.71947
 C490 C 0.58163 0.09254 0.71151
 N491 N 0.57422 0.11437 0.74123
 H492 H 0.56370 0.08947 0.68711
 N493 N 0.39514 0.89740 0.77432
 N494 N 0.36968 0.92068 0.76011
 C495 C 0.38149 0.92857 0.72527
 C496 C 0.41494 0.90930 0.71842
 N497 N 0.42231 0.88973 0.74967
 H498 H 0.43266 0.91024 0.69366
 N499 N 0.59907 0.89330 0.22992
 N500 N 0.62589 0.91615 0.24260
 C501 C 0.61518 0.92609 0.27721
 C502 C 0.58081 0.90859 0.28545
 N503 N 0.57198 0.88788 0.25530
 H504 H 0.56367 0.91119 0.31046
 N505 N 0.40967 0.22561 0.88560
 N506 N 0.38264 0.23686 0.90885
 C507 C 0.39270 0.27137 0.92002
 C508 C 0.42679 0.28107 0.90289
 N509 N 0.43616 0.25185 0.88115
 H510 H 0.44331 0.30648 0.90626
 N511 N 0.58851 0.77760 0.89631
 N512 N 0.61620 0.76400 0.91745
 C513 C 0.60551 0.72912 0.92688
 C514 C 0.57026 0.72167 0.91093
 N515 N 0.56090 0.75254 0.89159
 H516 H 0.55298 0.69664 0.91353
 N517 N 0.40312 0.76755 0.11537
 N518 N 0.37688 0.75303 0.09301
 C519 C 0.39038 0.71967 0.08196
 C520 C 0.42564 0.71401 0.09837
 N521 N 0.43242 0.74441 0.11951
 H522 H 0.44461 0.69039 0.09488
 N523 N 0.59781 0.22711 0.10632
 N524 N 0.62419 0.24055 0.08339
 C525 C 0.61253 0.27496 0.07356
 C526 C 0.57820 0.28233 0.09120
 N527 N 0.57020 0.25187 0.11184
 H528 H 0.56049 0.30699 0.08875
 N529 N 0.22917 0.11610 0.59131
 N530 N 0.24098 0.09259 0.61717
 C531 C 0.27591 0.08059 0.60653
 C532 C 0.28528 0.09754 0.57316
 N533 N 0.25543 0.11998 0.56487
 H534 H 0.31078 0.09352 0.55639
 N535 N 0.77623 0.11259 0.40184
 N536 N 0.76350 0.09001 0.37542
 C537 C 0.72888 0.07744 0.38672
 C538 C 0.72055 0.09335 0.42070
 N539 N 0.75079 0.11535 0.42916
 H540 H 0.69577 0.08822 0.43824
 N541 N 0.76776 0.87998 0.59482
 N542 N 0.75489 0.90232 0.62125
 C543 C 0.72030 0.91461 0.61002
 C544 C 0.71228 0.89908 0.57571
 N545 N 0.74253 0.87716 0.56739
 H546 H 0.68762 0.90416 0.55811
 N547 N 0.22952 0.88939 0.40574
 N548 N 0.24106 0.91332 0.38000
 C549 C 0.27595 0.92558 0.39060
 C550 C 0.28560 0.90839 0.42364
 N551 N 0.25597 0.88558 0.43194
 H552 H 0.31116 0.91253 0.44026
 N553 N 0.11631 0.40787 0.76960
 N554 N 0.09215 0.38190 0.75803
 C555 C 0.08016 0.39248 0.72405
 C556 C 0.09775 0.42586 0.71499
 N557 N 0.12059 0.43427 0.74409
 H558 H 0.09387 0.44257 0.69017
 N559 N 0.10951 0.59298 0.22264
 N560 N 0.08889 0.62025 0.23724
 C561 C 0.07831 0.60892 0.27151
 C562 C 0.09312 0.57375 0.27753
 N563 N 0.11287 0.56493 0.24644
 H564 H 0.08891 0.55594 0.30155
 N565 N 0.87915 0.40860 0.23713
 N566 N 0.90172 0.38269 0.25138
 C567 C 0.91378 0.39569 0.28450
 C568 C 0.89783 0.43038 0.29028
 N569 N 0.87584 0.43725 0.26019
 H570 H 0.90225 0.44890 0.31368
 N571 N 0.88743 0.59578 0.76765
 N572 N 0.91171 0.62125 0.75504
 C573 C 0.92318 0.60971 0.72116
 C574 C 0.90510 0.57635 0.71326
 N575 N 0.88257 0.56881 0.74288
 H576 H 0.90860 0.55896 0.68886
 N577 N 0.76517 0.60049 0.88402
 N578 N 0.75284 0.62671 0.90696
 C579 C 0.71845 0.61531 0.91995
 C580 C 0.70992 0.58116 0.90394
 N581 N 0.73978 0.57303 0.88130
 H582 H 0.68518 0.56354 0.90912
 N583 N 0.23492 0.39945 0.88274
 N584 N 0.24651 0.37237 0.90509
 C585 C 0.28066 0.38314 0.91903
 C586 C 0.28982 0.41770 0.90428
 N587 N 0.26062 0.42679 0.88136
 H588 H 0.31466 0.43488 0.91034
 N589 N 0.31592 0.54608 0.12870
 N590 N 0.33491 0.56967 0.10717
 C591 C 0.30854 0.59000 0.08882
 C592 C 0.27238 0.57830 0.10027
 N593 N 0.27837 0.55056 0.12513
 H594 H 0.24495 0.58557 0.08814
 N595 N 0.76612 0.40700 0.11359
 N596 N 0.75458 0.38057 0.09046
 C597 C 0.72030 0.39136 0.07693
 C598 C 0.71103 0.42539 0.09276
 N599 N 0.74033 0.43403 0.11584
 H600 H 0.68616 0.44257 0.08723
 N601 N 0.88780 0.76340 0.59415
 N602 N 0.91136 0.75105 0.62020
 C603 C 0.92426 0.71757 0.60874
 C604 C 0.90757 0.70965 0.57466
 N605 N 0.88457 0.73892 0.56670
 H606 H 0.91238 0.68558 0.55708
 N607 N 0.86363 0.31917 0.45111
 N608 N 0.88684 0.33800 0.42884
 C609 C 0.90675 0.31269 0.40906
 C610 C 0.89449 0.27739 0.41965
 N611 N 0.86762 0.28275 0.44633
 H612 H 0.90748 0.25091 0.41259
 N613 N 0.11497 0.23640 0.59859
 N614 N 0.09184 0.24845 0.62521
 C615 C 0.07869 0.28198 0.61418
 C616 C 0.09478 0.29026 0.57993
 N617 N 0.11767 0.26117 0.57128
 H618 H 0.08962 0.31453 0.56270
 N619 N 0.11742 0.76511 0.40216
 N620 N 0.09430 0.75251 0.37584
 C621 C 0.08225 0.71847 0.38673
 C622 C 0.09901 0.71046 0.42076
 N623 N 0.12122 0.74026 0.42924
 H624 H 0.09471 0.68599 0.43797
 N625 N 0.59008 0.89166 0.77296
 N626 N 0.61733 0.91331 0.75896
 C627 C 0.60616 0.92279 0.72437
 C628 C 0.57098 0.90614 0.71751
 N629 N 0.56216 0.88644 0.74847
 H630 H 0.55334 0.90864 0.69285
 N631 N 0.40397 0.89094 0.23192
 N632 N 0.37741 0.91400 0.24460
 C633 C 0.38902 0.92536 0.27849
 C634 C 0.42372 0.90838 0.28627
 N635 N 0.43187 0.88665 0.25659
 H636 H 0.44159 0.91211 0.31063
 N637 N 0.60003 0.10987 0.22871
 N638 N 0.62665 0.08714 0.24184
 C639 C 0.61536 0.07699 0.27626
 C640 C 0.58083 0.09435 0.28389
 N641 N 0.57243 0.11509 0.25358
 H642 H 0.56320 0.09147 0.30857
 N643 N 0.40651 0.11234 0.76659
 N644 N 0.37915 0.09000 0.75400
 C645 C 0.38996 0.07908 0.71972
 C646 C 0.42500 0.09549 0.71163
 N647 N 0.43412 0.11654 0.74149
 H648 H 0.44236 0.09193 0.68687
 N649 N 0.60009 0.77207 0.11203
 N650 N 0.62577 0.75938 0.08801
 C651 C 0.61367 0.72534 0.07724
 C652 C 0.57975 0.71745 0.09560
 N653 N 0.57237 0.74723 0.11746
 H654 H 0.56170 0.69301 0.09247
 N655 N 0.40328 0.22372 0.10678
 N656 N 0.37691 0.23569 0.08314
 C657 C 0.38785 0.27009 0.07228
 C658 C 0.42180 0.27891 0.09010
 N659 N 0.43031 0.24934 0.11179
 H660 H 0.43907 0.30386 0.08684
 N661 N 0.60418 0.23084 0.88594
 N662 N 0.62966 0.24402 0.90992
 C663 C 0.61690 0.27767 0.92101
 C664 C 0.58278 0.28482 0.90284
 N665 N 0.57594 0.25500 0.88081
 H666 H 0.56425 0.30879 0.90620
 N667 N 0.39203 0.77406 0.90120
 N668 N 0.36708 0.75841 0.92448
 C669 C 0.38061 0.72410 0.93230
 C670 C 0.41447 0.71922 0.91297
 N671 N 0.42061 0.75087 0.89358
 H672 H 0.43355 0.69544 0.91407
 N673 N 0.77563 0.89063 0.40677
 N674 N 0.76408 0.91495 0.38146
 C675 C 0.72830 0.92539 0.39109
 C676 C 0.71820 0.90654 0.42330
 N677 N 0.74843 0.88463 0.43192
 H678 H 0.69178 0.90884 0.43904
 N679 N 0.22704 0.89139 0.59292
 N680 N 0.23851 0.91561 0.61843
 C681 C 0.27395 0.92697 0.60838
 C682 C 0.28394 0.90883 0.57589
 N683 N 0.25401 0.88648 0.56734
 H684 H 0.30997 0.91219 0.55969
 N685 N 0.22661 0.11405 0.40340
 N686 N 0.23902 0.09017 0.37803
 C687 C 0.27449 0.07957 0.38850
 C688 C 0.28352 0.09794 0.42116
 N689 N 0.25298 0.11962 0.42938
 H690 H 0.30929 0.09506 0.43774
 N691 N 0.77992 0.09362 0.58863
 N692 N 0.76615 0.07058 0.61416
 C693 C 0.72918 0.06393 0.60531
 C694 C 0.72064 0.08360 0.57323
 N695 N 0.75302 0.10230 0.56410
 H696 H 0.69374 0.08440 0.55819
 N697 N 0.88825 0.59885 0.22854
 N698 N 0.91315 0.62388 0.24090
 C699 C 0.92313 0.61327 0.27551
 C700 C 0.90339 0.58090 0.28408
 N701 N 0.88146 0.57298 0.25411
 H702 H 0.90553 0.56433 0.30919
 N703 N 0.88919 0.40748 0.77290
 N704 N 0.91320 0.38153 0.76099
 C705 C 0.92346 0.39116 0.72613
 C706 C 0.90491 0.42393 0.71697
 N707 N 0.88332 0.43300 0.74681
 H708 H 0.90752 0.43995 0.69153
 N709 N 0.11431 0.59661 0.77029
 N710 N 0.09036 0.62197 0.75706
 C711 C 0.08052 0.61099 0.72250
 C712 C 0.09943 0.57801 0.71490
 N713 N 0.12070 0.57012 0.74535
 H714 H 0.09712 0.56099 0.69012
 N715 N 0.08982 0.40229 0.22213
 N716 N 0.06749 0.37742 0.23894
 C717 C 0.06348 0.38882 0.27445
 C718 C 0.08393 0.42165 0.27880
 N719 N 0.10046 0.42888 0.24563
 H720 H 0.08597 0.43892 0.30343
   
