data_POSCAR
  _audit_creation_date              2014-09-24
  _audit_creation_method            'ToBaCCo'
  _symmetry_space_group_name_H-M    'P1'
  _symmetry_Int_Tables_number       1
  _symmetry_cell_setting            triclinic
  loop_
  _symmetry_equiv_pos_as_xyz
 x,y,z
_cell_length_a 28.3455
_cell_length_b 28.0410
_cell_length_c 28.0215
_cell_angle_alpha 92.882500
_cell_angle_beta 93.407100
_cell_angle_gamma 93.873700
loop_
  _atom_site_label
  _atom_site_type_symbol
  _atom_site_fract_x
  _atom_site_fract_y
  _atom_site_fract_z
N1 N 0.19287 1.28386 0.15462
 N2 N 0.16185 1.28371 0.18770
 C3 C 0.13061 1.31666 0.17835
 C4 C 0.14247 1.33811 0.13694
 C5 C 0.18232 1.31668 0.12293
 H6 H 0.10010 1.32292 0.19861
 H7 H 0.20121 1.32330 0.09122
 Cu8 Cu 0.16127 1.23593 0.23560
 Cu9 Cu 0.24263 1.23932 0.15324
 Cu10 Cu 0.24308 1.15470 0.23941
 N11 N 0.16133 1.18787 0.28320
 N12 N 0.19276 1.15545 0.28376
 C13 C 0.18168 1.12336 0.31621
 C14 C 0.14106 1.13639 0.33695
 C15 C 0.12931 1.17769 0.31551
 H16 H 0.20066 1.09192 0.32289
 H17 H 0.09835 1.19724 0.32126
 N18 N 0.29094 1.15982 0.19139
 N19 N 0.29020 1.19145 0.15803
 C20 C 0.32487 1.18344 0.12840
 C21 C 0.34853 1.14513 0.14398
 C22 C 0.32631 1.13108 0.18401
 H23 H 0.33153 1.20292 0.09687
 H24 H 0.33404 1.10077 0.20478
 H25 H 0.20524 1.18439 0.18437
 H26 H 0.24482 1.22636 0.22519
 N27 N 0.81379 0.71158 0.13914
 N28 N 0.83285 0.69905 0.18017
 C29 C 0.85906 0.66163 0.17233
 C30 C 0.85689 0.65031 0.12367
 C31 C 0.82788 0.68274 0.10349
 H32 H 0.88005 0.64533 0.19972
 H33 H 0.81870 0.68587 0.06581
 Cu34 Cu 0.82678 0.73598 0.23941
 Cu35 Cu 0.77472 0.76642 0.13591
 Cu36 Cu 0.74349 0.81384 0.24574
 N37 N 0.82953 0.78531 0.29089
 N38 N 0.79577 0.81494 0.29456
 C39 C 0.80756 0.84693 0.33155
 C40 C 0.85175 0.83746 0.35119
 C41 C 0.86440 0.79777 0.32480
 H42 H 0.78735 0.87707 0.34083
 H43 H 0.89756 0.78088 0.32820
 N44 N 0.71033 0.82637 0.18459
 N45 N 0.72329 0.81036 0.14253
 C46 C 0.69627 0.82891 0.10778
 C47 C 0.66511 0.85794 0.12927
 C48 C 0.67490 0.85530 0.17787
 H49 H 0.69948 0.82247 0.06978
 H50 H 0.65873 0.87459 0.20629
 H51 H 0.79521 0.80375 0.20053
 H52 H 0.75031 0.75202 0.20057
 N53 N 0.79914 1.29519 -0.18598
 N54 N 0.83236 1.29130 -0.21642
 C55 C 0.86710 1.32588 -0.20552
 C56 C 0.85474 1.35328 -0.16642
 C57 C 0.81113 1.33314 -0.15518
 H58 H 0.90025 1.32889 -0.22275
 H59 H 0.79196 1.34238 -0.12416
 Cu60 Cu 0.82962 1.23844 -0.26417
 Cu61 Cu 0.74828 1.24489 -0.18367
 Cu62 Cu 0.78070 1.13491 -0.22929
 N63 N 0.83645 1.17861 -0.29960
 N64 N 0.81875 1.13755 -0.28532
 C65 C 0.83329 1.10164 -0.31350
 C66 C 0.86130 1.12171 -0.34726
 C67 C 0.86216 1.17059 -0.33752
 H68 H 0.82507 1.06395 -0.30903
 H69 H 0.88193 1.19815 -0.35523
 N70 N 0.73022 1.14142 -0.18385
 N71 N 0.71704 1.18343 -0.16821
 C72 C 0.68246 1.17664 -0.13797
 C73 C 0.67335 1.12805 -0.13421
 C74 C 0.70404 1.10662 -0.16388
 H75 H 0.66613 1.20505 -0.11894
 H76 H 0.70742 1.06865 -0.16995
 H77 H 0.80070 1.20085 -0.19417
 H78 H 0.75450 1.19826 -0.24462
 N79 N 0.17497 0.73181 -0.14382
 N80 N 0.13492 0.73955 -0.16738
 C81 C 0.10046 0.70817 -0.15418
 C82 C 0.12032 0.67953 -0.12069
 C83 C 0.16751 0.69548 -0.11513
 H84 H 0.06377 0.70645 -0.16757
 H85 H 0.19424 0.68218 -0.09110
 Cu86 Cu 0.13167 0.79024 -0.21257
 Cu87 Cu 0.23319 0.77132 -0.14842
 Cu88 Cu 0.23222 0.85597 -0.23305
 N89 N 0.13405 0.83513 -0.26365
 N90 N 0.17385 0.85923 -0.27204
 C91 C 0.16607 0.88734 -0.30868
 C92 C 0.11880 0.88095 -0.32409
 C93 C 0.09931 0.84746 -0.29482
 H94 H 0.19266 0.91152 -0.32250
 H95 H 0.06275 0.83338 -0.29602
 N96 N 0.28804 0.84776 -0.19008
 N97 N 0.28864 0.81500 -0.15795
 C98 C 0.32886 0.82249 -0.12966
 C99 C 0.35449 0.86215 -0.14445
 C100 C 0.32772 0.87710 -0.18297
 H101 H 0.33671 0.80365 -0.09772
 H102 H 0.33462 0.90954 -0.20145
 H103 H 0.20276 0.83158 -0.17199
 H104 H 0.21641 0.78519 -0.21880
 C105 C 0.48068 1.04204 0.04350
 C106 C 0.51080 1.00870 0.07211
 C107 C 0.53764 0.98097 0.04477
 C108 C 0.53169 0.98907 -0.00921
 C109 C 0.51617 1.07080 0.01525
 C110 C 0.54275 1.04337 -0.01271
 C111 C 0.45171 1.00918 0.00593
 C112 C 0.47810 0.98148 -0.02142
 H113 H 0.51157 1.00799 0.11075
 H114 H 0.55293 0.96632 -0.03197
 H115 H 0.51929 1.10957 0.01682
 H116 H 0.41336 1.00756 0.00173
 C117 C 0.03530 0.46437 1.03433
 C118 C 0.06334 0.50379 1.01007
 C119 C 0.03602 0.53124 0.98244
 C120 C -0.01754 0.51696 0.98224
 C121 C -0.00058 0.49088 1.06251
 C122 C -0.02804 0.51876 1.03559
 C123 C 0.00592 0.43627 0.99356
 C124 C -0.02191 0.46343 0.96657
 H125 H 0.10161 0.50902 1.01420
 H126 H -0.04012 0.53898 0.95974
 H127 H -0.00210 0.48982 1.10097
 H128 H 0.00617 0.39782 0.98741
 C129 C 1.03278 0.03207 0.46269
 C130 C 0.99861 0.06066 0.49110
 C131 C 0.97132 0.03387 0.51967
 C132 C 0.98036 -0.01974 0.51671
 C133 C 1.06117 0.00678 0.50071
 C134 C 1.03407 -0.02059 0.52897
 C135 C 1.00156 -0.00777 0.43508
 C136 C 0.97403 -0.03462 0.46303
 H137 H 0.99794 0.09919 0.49050
 H138 H 0.95791 -0.04208 0.53933
 H139 H 1.09949 0.01060 0.50490
 H140 H 1.00030 -0.01332 0.39645
 N141 N 0.13026 0.38553 1.06933
 C142 C 0.11725 0.37127 1.11255
 N143 N 0.07806 0.38852 1.13075
 N144 N 0.05276 0.41875 1.10660
 C145 C 0.06562 0.43290 1.06330
 N146 N 0.10477 0.41555 1.04505
 N147 N -0.09097 0.58455 1.12627
 C148 C -0.11601 0.61431 1.09962
 N149 N -0.11342 0.61160 1.05130
 N150 N -0.08620 0.58057 1.03057
 C151 C -0.06076 0.55109 1.05743
 N152 N -0.06398 0.55356 1.10561
 N153 N -0.06599 0.38628 0.86192
 C154 C -0.11359 0.38745 0.86389
 N155 N -0.13088 0.41689 0.89762
 N156 N -0.10150 0.44367 0.92872
 C157 C -0.05390 0.44152 0.92737
 N158 N -0.03670 0.41247 0.89337
 N159 N 0.12416 0.61639 0.93588
 C160 C 0.09741 0.64109 0.90541
 N161 N 0.04992 0.62986 0.90030
 N162 N 0.03006 0.59503 0.92487
 C163 C 0.05702 0.57028 0.95534
 N164 N 0.10440 0.58169 0.96025
 N165 N 1.07533 0.12860 0.38612
 C166 C 1.11520 0.11131 0.36951
 N167 N 1.12844 0.06841 0.38398
 N168 N 1.10264 0.04366 0.41376
 C169 C 1.06291 0.06110 0.43064
 N170 N 1.04970 0.10399 0.41610
 N171 N 1.04933 -0.10207 0.62784
 C172 C 1.09670 -0.09524 0.63924
 N173 N 1.12285 -0.06399 0.61434
 N174 N 1.10270 -0.04054 0.57943
 C175 C 1.05547 -0.04713 0.56795
 N176 N 1.02905 -0.07835 0.59285
 N177 N 0.92655 -0.14320 0.39386
 C178 C 0.88056 -0.13390 0.38482
 N179 N 0.86459 -0.09384 0.40583
 N180 N 0.89382 -0.06360 0.43369
 C181 C 0.94003 -0.07241 0.44165
 N182 N 0.95585 -0.11275 0.42135
 N183 N 0.88714 0.05028 0.61423
 C184 C 0.88655 0.09878 0.61820
 N185 N 0.91263 0.12527 0.58876
 N186 N 0.93867 0.10436 0.55697
 C187 C 0.93990 0.05604 0.55328
 N188 N 0.91346 0.02930 0.58241
 N189 N 0.39718 1.13304 0.07553
 C190 C 0.38548 1.12087 0.11978
 N191 N 0.40652 1.08413 0.14006
 N192 N 0.43793 1.06020 0.11675
 C193 C 0.44950 1.07217 0.07232
 N194 N 0.42839 1.10897 0.05213
 N195 N 0.61379 1.13286 -0.07494
 C196 C 0.63954 1.10524 -0.10307
 N197 N 0.63374 1.05687 -0.10134
 N198 N 0.60310 1.03696 -0.07250
 C199 C 0.57732 1.06472 -0.04432
 N200 N 0.58331 1.11301 -0.04619
 N201 N 0.40576 0.93574 -0.12813
 C202 C 0.39368 0.89014 -0.11703
 N203 N 0.41389 0.87337 -0.07661
 N204 N 0.44408 0.90160 -0.04772
 C205 C 0.45529 0.94749 -0.05836
 N206 N 0.43574 0.96400 -0.09912
 N207 N 0.60376 0.91488 0.13398
 C208 C 0.63106 0.88837 0.10644
 N209 N 0.62725 0.89180 0.05818
 N210 N 0.59729 0.92094 0.03832
 C211 C 0.57011 0.94765 0.06601
 N212 N 0.57388 0.94387 0.11417
   
