data_POSCAR
  _audit_creation_date              2014-09-24
  _audit_creation_method            'ToBaCCo'
  _symmetry_space_group_name_H-M    'P1'
  _symmetry_Int_Tables_number       1
  _symmetry_cell_setting            triclinic
  loop_
  _symmetry_equiv_pos_as_xyz
 x,y,z
_cell_length_a 46.4281
_cell_length_b 46.3569
_cell_length_c 46.4413
_cell_angle_alpha 90.005100
_cell_angle_beta 89.997100
_cell_angle_gamma 90.001100
loop_
  _atom_site_label
  _atom_site_type_symbol
  _atom_site_fract_x
  _atom_site_fract_y
  _atom_site_fract_z
C1 C 0.61252 0.64931 0.61353
 C2 C 0.63721 0.63699 0.60120
 C3 C 0.64933 0.61269 0.61331
 C4 C 0.63698 0.60031 0.63795
 C5 C 0.61274 0.61241 0.65006
 C6 C 0.60039 0.63713 0.63775
 C7 C 0.59611 0.67293 0.60639
 N8 N 0.57411 0.67559 0.62568
 C9 C 0.57679 0.65353 0.64494
 C10 C 0.60554 0.59595 0.67360
 N11 N 0.62483 0.57384 0.67636
 C12 C 0.64415 0.57667 0.65432
 C13 C 0.67293 0.60553 0.59692
 N14 N 0.67563 0.62489 0.57496
 C15 C 0.65363 0.64421 0.57765
 H16 H 0.60027 0.68696 0.58829
 H17 H 0.56282 0.64934 0.66305
 H18 H 0.58734 0.60028 0.68741
 H19 H 0.66233 0.56282 0.64996
 H20 H 0.68691 0.58738 0.60106
 H21 H 0.64948 0.66238 0.56371
 C22 C 0.88811 0.35007 0.11309
 C23 C 0.86347 0.36246 0.10072
 C24 C 0.85140 0.38678 0.11281
 C25 C 0.86374 0.39914 0.13747
 C26 C 0.88795 0.38694 0.14961
 C27 C 0.90023 0.36219 0.13730
 C28 C 0.90445 0.32641 0.10594
 N29 N 0.92650 0.32359 0.12525
 C30 C 0.92376 0.34573 0.14451
 C31 C 0.89517 0.40337 0.17317
 N32 N 0.87593 0.42546 0.17582
 C33 C 0.85663 0.42279 0.15384
 C34 C 0.82785 0.39401 0.09638
 N35 N 0.82514 0.37465 0.07441
 C36 C 0.84708 0.35527 0.07715
 H37 H 0.90007 0.31254 0.08779
 H38 H 0.93758 0.35006 0.16270
 H39 H 0.91328 0.39918 0.18714
 H40 H 0.83855 0.43684 0.14966
 H41 H 0.81392 0.41221 0.10049
 H42 H 0.85121 0.33709 0.06320
 C43 C 0.38729 0.14917 -0.11339
 C44 C 0.36263 0.13680 -0.10104
 C45 C 0.35051 0.11251 -0.11316
 C46 C 0.36284 0.10016 -0.13783
 C47 C 0.38704 0.11231 -0.14996
 C48 C 0.39938 0.13702 -0.13764
 C49 C 0.40369 0.17280 -0.10625
 N50 N 0.42565 0.17548 -0.12559
 C51 C 0.42295 0.15344 -0.14486
 C52 C 0.39422 0.09589 -0.17353
 N53 N 0.37494 0.07376 -0.17629
 C54 C 0.35566 0.07654 -0.15421
 C55 C 0.32695 0.10529 -0.09675
 N56 N 0.32426 0.12461 -0.07476
 C57 C 0.34623 0.14397 -0.07745
 H58 H 0.39955 0.18681 -0.08814
 H59 H 0.43689 0.14928 -0.16301
 H60 H 0.41239 0.10025 -0.18738
 H61 H 0.33750 0.06267 -0.14984
 H62 H 0.31299 0.08712 -0.10090
 H63 H 0.35037 0.16212 -0.06348
 C64 C 0.11198 0.85066 0.38652
 C65 C 0.13663 0.86303 0.39886
 C66 C 0.14874 0.88733 0.38675
 C67 C 0.13639 0.89966 0.36207
 C68 C 0.11219 0.88748 0.34997
 C69 C 0.09987 0.86277 0.36230
 C70 C 0.09562 0.82703 0.39369
 N71 N 0.07357 0.82421 0.37438
 C72 C 0.07632 0.84632 0.35510
 C73 C 0.10497 0.90387 0.32640
 N74 N 0.12422 0.92601 0.32360
 C75 C 0.14353 0.92327 0.34567
 C76 C 0.17230 0.89454 0.40316
 N77 N 0.17499 0.87520 0.42515
 C78 C 0.15302 0.85585 0.42244
 H79 H 0.09999 0.81318 0.41186
 H80 H 0.06250 0.85066 0.33692
 H81 H 0.08679 0.89947 0.31258
 H82 H 0.16168 0.93717 0.35001
 H83 H 0.18626 0.91270 0.39902
 H84 H 0.14887 0.83769 0.43640
 N85 N 0.09045 0.17088 0.11362
 N86 N 0.07956 0.15947 0.13719
 C87 C 0.05620 0.17478 0.14519
 C88 C 0.05252 0.19681 0.12559
 C89 C 0.07447 0.19383 0.10586
 H90 H 0.04285 0.17031 0.16374
 H91 H 0.07849 0.20732 0.08729
 Cu92 Cu 0.09713 0.12549 0.15436
 Cu93 Cu 0.12453 0.15518 0.09464
 Cu94 Cu 0.15501 0.09389 0.12518
 N95 N 0.11365 0.09090 0.17133
 N96 N 0.13634 0.07858 0.15959
 C97 C 0.14349 0.05505 0.17501
 C98 C 0.12423 0.05260 0.19744
 C99 C 0.10555 0.07554 0.19462
 H100 H 0.16132 0.04081 0.17028
 H101 H 0.08749 0.08055 0.20845
 N102 N 0.17063 0.11274 0.09041
 N103 N 0.15903 0.13604 0.07880
 C104 C 0.17462 0.14374 0.05556
 C105 C 0.19690 0.12439 0.05256
 C106 C 0.19389 0.10503 0.07484
 H107 H 0.17021 0.16207 0.04185
 H108 H 0.20768 0.08679 0.07936
 H109 H 0.11864 0.11310 0.10812
 H110 H 0.14262 0.13625 0.13049
 N111 N 0.40915 0.82941 0.61313
 N112 N 0.42029 0.84109 0.63643
 C113 C 0.44343 0.82555 0.64464
 C114 C 0.44679 0.80317 0.62539
 C115 C 0.42481 0.80614 0.60568
 H116 H 0.45680 0.83005 0.66318
 H117 H 0.42054 0.79239 0.58736
 Cu118 Cu 0.40311 0.87530 0.65360
 Cu119 Cu 0.37496 0.84501 0.59434
 Cu120 Cu 0.34402 0.90582 0.62520
 N121 N 0.38591 0.90951 0.67075
 N122 N 0.36269 0.92127 0.65951
 C123 C 0.35513 0.94445 0.67526
 C124 C 0.37464 0.94721 0.69744
 C125 C 0.39388 0.92482 0.69412
 H126 H 0.33689 0.95829 0.67090
 H127 H 0.41222 0.92013 0.70769
 N128 N 0.32846 0.88698 0.59044
 N129 N 0.34033 0.86393 0.57860
 C130 C 0.32487 0.85632 0.55524
 C131 C 0.30237 0.87545 0.55243
 C132 C 0.30514 0.89460 0.57493
 H133 H 0.32954 0.83822 0.54132
 H134 H 0.29118 0.91268 0.57958
 H135 H 0.38033 0.88714 0.60779
 H136 H 0.35724 0.86360 0.63076
 N137 N 0.90959 0.67151 0.38678
 N138 N 0.92087 0.65970 0.36361
 C139 C 0.94419 0.67506 0.35558
 C140 C 0.94743 0.69754 0.37474
 C141 C 0.92526 0.69477 0.39425
 H142 H 0.95779 0.67035 0.33727
 H143 H 0.92090 0.70861 0.41249
 Cu144 Cu 0.90387 0.62534 0.34658
 Cu145 Cu 0.87542 0.65590 0.40559
 Cu146 Cu 0.84505 0.59459 0.37517
 N147 N 0.88684 0.59099 0.32954
 N148 N 0.86378 0.57906 0.34093
 C149 C 0.85638 0.55575 0.32531
 C150 C 0.87585 0.55303 0.30310
 C151 C 0.89492 0.57559 0.30627
 H152 H 0.83823 0.54181 0.32976
 H153 H 0.91322 0.58034 0.29265
 N154 N 0.82930 0.61354 0.40979
 N155 N 0.84086 0.63687 0.42137
 C156 C 0.82527 0.64457 0.44461
 C157 C 0.80301 0.62517 0.44764
 C158 C 0.80605 0.60581 0.42537
 H159 H 0.82970 0.66289 0.45834
 H160 H 0.79233 0.58750 0.42091
 H161 H 0.88134 0.61369 0.39258
 H162 H 0.85801 0.63681 0.36944
 N163 N 0.59107 0.32886 -0.11364
 N164 N 0.57975 0.34070 -0.13678
 C165 C 0.55640 0.32539 -0.14476
 C166 C 0.55313 0.30291 -0.12560
 C167 C 0.57535 0.30563 -0.10613
 H168 H 0.54277 0.33014 -0.16304
 H169 H 0.57973 0.29178 -0.08791
 Cu170 Cu 0.59669 0.37512 -0.15382
 Cu171 Cu 0.62529 0.34441 -0.09493
 Cu172 Cu 0.65582 0.40558 -0.12537
 N173 N 0.61398 0.40933 -0.17092
 N174 N 0.63711 0.42117 -0.15957
 C175 C 0.64460 0.44445 -0.17522
 C176 C 0.62511 0.44721 -0.19742
 C177 C 0.60594 0.42473 -0.19419
 H178 H 0.66281 0.45830 -0.17081
 H179 H 0.58761 0.42004 -0.20777
 N180 N 0.67155 0.38660 -0.09078
 N181 N 0.65993 0.36331 -0.07919
 C182 C 0.67552 0.35556 -0.05597
 C183 C 0.69785 0.37487 -0.05298
 C184 C 0.69484 0.39425 -0.07523
 H185 H 0.67105 0.33726 -0.04225
 H186 H 0.70863 0.41251 -0.07971
 H187 H 0.61944 0.38667 -0.10796
 H188 H 0.64262 0.36344 -0.13125
 C189 C -0.00973 0.25895 0.12559
 C190 C -0.03093 0.25910 0.10429
 C191 C -0.05211 0.28053 0.10408
 C192 C -0.05260 0.30247 0.12532
 C193 C -0.03079 0.30186 0.14666
 C194 C -0.00970 0.28035 0.14672
 C195 C 0.01210 0.23691 0.12568
 C196 C 0.03048 0.21854 0.12570
 H197 H -0.03112 0.24261 0.08775
 H198 H -0.06787 0.27947 0.08706
 H199 H -0.02958 0.31778 0.16354
 H200 H 0.00671 0.28046 0.16332
 C201 C 0.50897 0.74093 0.62586
 C202 C 0.53028 0.74089 0.60462
 C203 C 0.55157 0.71957 0.60450
 C204 C 0.55199 0.69775 0.62573
 C205 C 0.53026 0.69816 0.64702
 C206 C 0.50902 0.71953 0.64704
 C207 C 0.48705 0.76288 0.62584
 C208 C 0.46869 0.78128 0.62571
 H209 H 0.53045 0.75738 0.58808
 H210 H 0.56753 0.72047 0.58765
 H211 H 0.52937 0.68211 0.66382
 H212 H 0.49260 0.71935 0.66362
 C213 C 1.00961 0.75975 0.37429
 C214 C 1.00962 0.78108 0.35309
 C215 C 1.03079 0.80251 0.35305
 C216 C 1.05263 0.80313 0.37436
 C217 C 1.05212 0.78124 0.39564
 C218 C 1.03087 0.75988 0.39553
 C219 C 0.98773 0.73776 0.37434
 C220 C 0.96937 0.71938 0.37447
 H221 H 0.99319 0.78119 0.33651
 H222 H 1.02962 0.81838 0.33612
 H223 H 1.06791 0.78016 0.41262
 H224 H 1.03105 0.74343 0.41211
 C225 C 0.49071 0.24090 -0.12589
 C226 C 0.49064 0.21951 -0.14709
 C227 C 0.46942 0.19811 -0.14703
 C228 C 0.44774 0.19767 -0.12568
 C229 C 0.44820 0.21948 -0.10444
 C230 C 0.46946 0.24083 -0.10460
 C231 C 0.51267 0.26283 -0.12590
 C232 C 0.53111 0.28114 -0.12581
 H233 H 0.50703 0.21933 -0.16370
 H234 H 0.47031 0.18206 -0.16382
 H235 H 0.43229 0.22034 -0.08753
 H236 H 0.46933 0.25730 -0.08804
 C237 C 0.12389 -0.00965 0.25955
 C238 C 0.10276 -0.03105 0.25961
 C239 C 0.10281 -0.05245 0.28080
 C240 C 0.12414 -0.05296 0.30263
 C241 C 0.14537 -0.03101 0.30205
 C242 C 0.14517 -0.00968 0.28078
 C243 C 0.12382 0.01232 0.23766
 C244 C 0.12390 0.03072 0.21932
 H245 H 0.08616 -0.03124 0.24320
 H246 H 0.08593 -0.06837 0.27966
 H247 H 0.16237 -0.02986 0.31783
 H248 H 0.16169 0.00682 0.28091
 C249 C 0.62467 0.50937 -0.25968
 C250 C 0.64593 0.50949 -0.28092
 C251 C 0.64607 0.53085 -0.30217
 C252 C 0.62479 0.55276 -0.30271
 C253 C 0.60345 0.55214 -0.28089
 C254 C 0.60347 0.53070 -0.25972
 C255 C 0.62471 0.48742 -0.23775
 C256 C 0.62484 0.46905 -0.21936
 H257 H 0.66252 0.49304 -0.28108
 H258 H 0.66308 0.52978 -0.31794
 H259 H 0.58652 0.56801 -0.27972
 H260 H 0.58687 0.53082 -0.24331
 C261 C 0.37502 1.00937 0.75968
 C262 C 0.39622 1.03072 0.75970
 C263 C 0.39626 1.05213 0.78090
 C264 C 0.37496 1.05271 0.80275
 C265 C 0.35368 1.03080 0.80222
 C266 C 0.35379 1.00946 0.78096
 C267 C 0.37499 0.98741 0.73777
 C268 C 0.37488 0.96904 0.71940
 H269 H 0.41279 1.03085 0.74327
 H270 H 0.41318 1.06801 0.77973
 H271 H 0.33671 1.02969 0.81803
 H272 H 0.33722 0.99300 0.78113
 C273 C 0.87621 0.49089 0.24084
 C274 C 0.89736 0.46946 0.24082
 C275 C 0.89732 0.44806 0.21961
 C276 C 0.87602 0.44766 0.19789
 C277 C 0.85482 0.46951 0.19828
 C278 C 0.85496 0.49086 0.21954
 C279 C 0.87622 0.51283 0.26277
 C280 C 0.87612 0.53119 0.28115
 H281 H 0.91394 0.46926 0.25724
 H282 H 0.91409 0.43199 0.22053
 H283 H 0.83796 0.47042 0.18232
 H284 H 0.83844 0.50737 0.21935
 C285 C 0.25912 0.12450 -0.00954
 C286 C 0.25922 0.10321 -0.03083
 C287 C 0.28047 0.10320 -0.05215
 C288 C 0.30215 0.12458 -0.05263
 C289 C 0.30167 0.14592 -0.03092
 C290 C 0.28037 0.14584 -0.00964
 C291 C 0.23720 0.12447 0.01239
 C292 C 0.21882 0.12443 0.03073
 H293 H 0.24283 0.08656 -0.03096
 H294 H 0.27962 0.08631 -0.06811
 H295 H 0.31759 0.16284 -0.03007
 H296 H 0.28049 0.16246 0.00677
 C297 C 0.74088 0.62503 0.50984
 C298 C 0.74080 0.60370 0.53110
 C299 C 0.71951 0.60361 0.55239
 C300 C 0.69778 0.62493 0.55287
 C301 C 0.69824 0.64631 0.53119
 C302 C 0.71958 0.64631 0.50995
 C303 C 0.76281 0.62507 0.48792
 C304 C 0.78116 0.62512 0.46955
 H305 H 0.75721 0.58709 0.53124
 H306 H 0.72036 0.58669 0.56832
 H307 H 0.68228 0.66319 0.53034
 H308 H 0.71943 0.66295 0.49357
 C309 C 0.76003 0.37474 0.00917
 C310 C 0.78128 0.35341 0.00928
 C311 C 0.80258 0.35333 0.03057
 C312 C 0.80304 0.37468 0.05227
 C313 C 0.78136 0.39605 0.05179
 C314 C 0.76012 0.39603 0.03046
 C315 C 0.73811 0.37477 -0.01276
 C316 C 0.71975 0.37481 -0.03112
 H317 H 0.78142 0.33678 -0.00712
 H318 H 0.81851 0.33642 0.02972
 H319 H 0.78050 0.41294 0.06774
 H320 H 0.74374 0.41268 0.03059
 C321 C 0.24011 0.87526 0.49038
 C322 C 0.21884 0.85394 0.49027
 C323 C 0.19755 0.85387 0.46899
 C324 C 0.19709 0.87522 0.44728
 C325 C 0.21877 0.89658 0.44777
 C326 C 0.24002 0.89655 0.46910
 C327 C 0.26205 0.87530 0.51228
 C328 C 0.28044 0.87536 0.53061
 H329 H 0.21870 0.83731 0.50667
 H330 H 0.18161 0.83696 0.46983
 H331 H 0.21964 0.91347 0.43182
 H332 H 0.25641 0.91319 0.46896
   
