data_POSCAR
  _audit_creation_date              2014-09-24
  _audit_creation_method            'ToBaCCo'
  _symmetry_space_group_name_H-M    'P1'
  _symmetry_Int_Tables_number       1
  _symmetry_cell_setting            triclinic
  loop_
  _symmetry_equiv_pos_as_xyz
 x,y,z
_cell_length_a 54.7287
_cell_length_b 54.7194
_cell_length_c 54.7410
_cell_angle_alpha 90.015400
_cell_angle_beta 90.016900
_cell_angle_gamma 90.016000
loop_
  _atom_site_label
  _atom_site_type_symbol
  _atom_site_fract_x
  _atom_site_fract_y
  _atom_site_fract_z
O1 O 0.35534 0.32240 -0.02427
 O2 O 0.32173 0.35590 0.02337
 O3 O 0.35555 0.32231 0.02316
 O4 O 0.32162 0.35612 -0.02407
 O5 O 0.29306 0.32752 -0.02412
 O6 O 0.32705 0.29365 0.02318
 O7 O 0.29319 0.32728 0.02337
 O8 O 0.32682 0.29376 -0.02431
 Cu9 Cu 0.34143 0.34207 -0.00046
 Cu10 Cu 0.30715 0.30766 -0.00048
 C11 C 0.34686 0.30234 -0.03220
 C12 C 0.30171 0.34734 0.03130
 C13 C 0.34712 0.30220 0.03103
 C14 C 0.30153 0.34764 -0.03195
 O15 O 0.67830 0.64415 0.02332
 O16 O 0.64472 0.67770 -0.02430
 O17 O 0.67837 0.64391 -0.02411
 O18 O 0.64457 0.67783 0.02313
 O19 O 0.67313 0.70642 0.02313
 O20 O 0.70699 0.67244 -0.02417
 O21 O 0.67330 0.70628 -0.02436
 O22 O 0.70691 0.67270 0.02331
 Cu23 Cu 0.65861 0.65802 -0.00049
 Cu24 Cu 0.69297 0.69235 -0.00053
 C25 C 0.69835 0.65268 0.03124
 C26 C 0.65325 0.69774 -0.03224
 C27 C 0.69847 0.65233 -0.03200
 C28 C 0.65305 0.69792 0.03100
 O29 O 0.67831 0.35594 0.97672
 O30 O 0.64468 0.32237 1.02429
 O31 O 0.67837 0.35614 1.02416
 O32 O 0.64453 0.32231 0.97686
 O33 O 0.67305 0.29369 0.97684
 O34 O 0.70695 0.32758 1.02420
 O35 O 0.67322 0.29377 1.02433
 O36 O 0.70688 0.32737 0.97672
 Cu37 Cu 0.65859 0.34207 1.00051
 Cu38 Cu 0.69291 0.30771 1.00053
 C39 C 0.69834 0.34741 0.96880
 C40 C 0.65318 0.30232 1.03222
 C41 C 0.69845 0.34768 1.03205
 C42 C 0.65298 0.30222 0.96897
 O43 O 0.35567 0.67744 1.02441
 O44 O 0.32197 0.64382 0.97686
 O45 O 0.35576 0.67747 0.97697
 O46 O 0.32197 0.64366 1.02430
 O47 O 0.29339 0.67222 1.02435
 O48 O 0.32724 0.70609 0.97697
 O49 O 0.29341 0.67240 0.97686
 O50 O 0.32712 0.70604 1.02446
 Cu51 Cu 0.34172 0.65772 1.00064
 Cu52 Cu 0.30741 0.69207 1.00067
 C53 C 0.34718 0.69750 1.03233
 C54 C 0.30193 0.65235 0.96895
 C55 C 0.34731 0.69756 0.96909
 C56 C 0.30188 0.65212 1.03219
 O57 O 0.02354 0.32191 0.35571
 O58 O -0.02415 0.35535 0.32210
 O59 O -0.02391 0.32166 0.35584
 O60 O 0.02330 0.35569 0.32207
 O61 O 0.02344 0.32715 0.29346
 O62 O -0.02382 0.29307 0.32728
 O63 O -0.02406 0.32679 0.29351
 O64 O 0.02367 0.29332 0.32715
 Cu65 Cu -0.00031 0.34153 0.34181
 Cu66 Cu -0.00018 0.30720 0.30746
 C67 C 0.03153 0.30189 0.34720
 C68 C -0.03203 0.34681 0.30205
 C69 C -0.03172 0.30154 0.34736
 C70 C 0.03122 0.34726 0.30198
 O71 O 0.02365 0.67778 0.64418
 O72 O -0.02408 0.64443 0.67781
 O73 O -0.02379 0.67802 0.64399
 O74 O 0.02337 0.64408 0.67791
 O75 O 0.02351 0.67270 0.70645
 O76 O -0.02371 0.70669 0.67247
 O77 O -0.02399 0.67306 0.70634
 O78 O 0.02378 0.70644 0.67267
 Cu79 Cu -0.00022 0.65819 0.65810
 Cu80 Cu -0.00009 0.69261 0.69236
 C81 C 0.03164 0.69782 0.65265
 C82 C -0.03197 0.65302 0.69783
 C83 C -0.03160 0.69816 0.65240
 C84 C 0.03128 0.65256 0.69798
 O85 O 1.02410 0.64462 0.32203
 O86 O 0.97649 0.67810 0.35570
 O87 O 0.97665 0.64436 0.32200
 O88 O 1.02393 0.67825 0.35582
 O89 O 1.02389 0.70688 0.32732
 O90 O 0.97654 0.67294 0.29344
 O91 O 0.97639 0.70672 0.32718
 O92 O 1.02404 0.67321 0.29348
 Cu93 Cu 1.00030 0.65845 0.34176
 Cu94 Cu 1.00021 0.69283 0.30748
 C95 C 1.03199 0.65317 0.30200
 C96 C 0.96853 0.69814 0.34722
 C97 C 0.96873 0.65283 0.30194
 C98 C 1.03178 0.69836 0.34739
 O99 O 0.97616 0.32211 0.64384
 O100 O 1.02379 0.35554 0.67761
 O101 O 1.02360 0.32192 0.64378
 O102 O 0.97634 0.35583 0.67757
 O103 O 0.97617 0.32724 0.70611
 O104 O 1.02350 0.29327 0.67227
 O105 O 1.02367 0.32693 0.70613
 O106 O 0.97600 0.29347 0.67234
 Cu107 Cu 0.99998 0.34173 0.65783
 Cu108 Cu 0.99982 0.30734 0.69209
 C109 C 0.96817 0.30206 0.65229
 C110 C 1.03165 0.34697 0.69765
 C111 C 1.03141 0.30179 0.65221
 C112 C 0.96840 0.34736 0.69763
 O113 O 0.35556 0.02406 0.32220
 O114 O 0.32200 -0.02364 0.35569
 O115 O 0.35579 -0.02340 0.32208
 O116 O 0.32189 0.02381 0.35595
 O117 O 0.29330 0.02384 0.32740
 O118 O 0.32727 -0.02343 0.29345
 O119 O 0.29343 -0.02367 0.32710
 O120 O 0.32701 0.02408 0.29360
 Cu121 Cu 0.34169 0.00021 0.34186
 Cu122 Cu 0.30737 0.00021 0.30750
 C123 C 0.34704 0.03200 0.30217
 C124 C 0.30197 -0.03159 0.34714
 C125 C 0.34736 -0.03127 0.30198
 C126 C 0.30179 0.03167 0.34750
 O127 O 0.64448 0.02397 0.67782
 O128 O 0.67811 -0.02371 0.64438
 O129 O 0.64430 -0.02348 0.67798
 O130 O 0.67814 0.02374 0.64406
 O131 O 0.70673 0.02387 0.67261
 O132 O 0.67283 -0.02341 0.70660
 O133 O 0.70668 -0.02363 0.67297
 O134 O 0.67303 0.02410 0.70642
 Cu135 Cu 0.65838 0.00012 0.65818
 Cu136 Cu 0.69270 0.00025 0.69254
 C137 C 0.65298 0.03196 0.69784
 C138 C 0.69815 -0.03161 0.65294
 C139 C 0.65275 -0.03130 0.69809
 C140 C 0.69823 0.03166 0.65250
 O141 O 0.35530 0.97605 0.67814
 O142 O 0.32163 1.02361 0.64458
 O143 O 0.35544 1.02350 0.67818
 O144 O 0.32163 0.97616 0.64438
 O145 O 0.29305 0.97609 0.67293
 O146 O 0.32692 1.02350 0.70680
 O147 O 0.29307 1.02360 0.67315
 O148 O 0.32676 0.97599 0.70674
 Cu149 Cu 0.34138 0.99983 0.65844
 Cu150 Cu 0.30706 0.99979 0.69279
 C151 C 0.34681 0.96812 0.69819
 C152 C 0.30159 1.03152 0.65311
 C153 C 0.34698 1.03138 0.69827
 C154 C 0.30156 0.96825 0.65284
 O155 O 0.64470 0.97648 0.32238
 O156 O 0.67838 1.02405 0.35601
 O157 O 0.64456 1.02393 0.32239
 O158 O 0.67838 0.97659 0.35615
 O159 O 0.70696 0.97656 0.32761
 O160 O 0.67308 1.02396 0.29377
 O161 O 0.70694 1.02407 0.32744
 O162 O 0.67325 0.97646 0.29379
 Cu163 Cu 0.65863 1.00026 0.34211
 Cu164 Cu 0.69294 1.00026 0.30777
 C165 C 0.65320 0.96857 0.30232
 C166 C 0.69843 1.03197 0.34750
 C167 C 0.65301 1.03182 0.30230
 C168 C 0.69845 0.96870 0.34769
 O169 O 0.85846 0.82438 0.47677
 O170 O 0.82497 0.85783 0.52443
 O171 O 0.85869 0.82424 0.52419
 O172 O 0.82489 0.85809 0.47701
 O173 O 0.79632 0.82965 0.47692
 O174 O 0.83026 0.79566 0.52420
 O175 O 0.79642 0.82937 0.52443
 O176 O 0.83000 0.79583 0.47669
 Cu177 Cu 0.84460 0.84398 0.50061
 Cu178 Cu 0.81039 0.80976 0.50056
 C179 C 0.85007 0.80431 0.46866
 C180 C 0.80488 0.84945 0.53248
 C181 C 0.85039 0.80408 0.53218
 C182 C 0.80475 0.84979 0.46898
 O183 O 0.14157 0.17563 0.47670
 O184 O 0.17499 0.14213 0.52437
 O185 O 0.14128 0.17574 0.52412
 O186 O 0.17515 0.14192 0.47696
 O187 O 0.20372 0.17036 0.47696
 O188 O 0.16972 0.20430 0.52423
 O189 O 0.20354 0.17058 0.52447
 O190 O 0.17003 0.20418 0.47672
 Cu191 Cu 0.15540 0.15601 0.50054
 Cu192 Cu 0.18961 0.19022 0.50061
 C193 C 0.14997 0.19571 0.46864
 C194 C 0.19506 0.15050 0.53248
 C195 C 0.14958 0.19588 0.53215
 C196 C 0.19530 0.15024 0.46897
 O197 O 0.17530 0.85772 0.47572
 O198 O 0.14177 0.82412 0.52323
 O199 O 0.17533 0.85784 0.52314
 O200 O 0.14159 0.82412 0.47582
 O201 O 0.17001 0.79555 0.47574
 O202 O 0.20390 0.82943 0.52317
 O203 O 0.17022 0.79559 0.52326
 O204 O 0.20384 0.82928 0.47565
 Cu205 Cu 0.15565 0.84380 0.49947
 Cu206 Cu 0.18986 0.80960 0.49945
 C207 C 0.19539 0.84937 0.46766
 C208 C 0.15015 0.80404 0.53129
 C209 C 0.19546 0.84953 0.53117
 C210 C 0.14989 0.80399 0.46777
 O211 O 0.82462 0.14184 0.47525
 O212 O 0.85816 0.17549 0.52278
 O213 O 0.82458 0.14177 0.52267
 O214 O 0.85835 0.17546 0.47536
 O215 O 0.82992 0.20402 0.47526
 O216 O 0.79601 0.17019 0.52267
 O217 O 0.82971 0.20403 0.52277
 O218 O 0.79608 0.17029 0.47515
 Cu219 Cu 0.84427 0.15580 0.49902
 Cu220 Cu 0.81007 0.18999 0.49895
 C221 C 0.80452 0.15018 0.46718
 C222 C 0.84978 0.19559 0.53083
 C223 C 0.80445 0.15009 0.53069
 C224 C 0.85005 0.19559 0.46732
 O225 O 0.47601 0.85781 0.82464
 O226 O 0.52371 0.82430 0.85802
 O227 O 0.52344 0.85806 0.82451
 O228 O 0.47628 0.82420 0.85832
 O229 O 0.47619 0.79565 0.82988
 O230 O 0.52345 0.82966 0.79591
 O231 O 0.52371 0.79579 0.82954
 O232 O 0.47592 0.82938 0.79608
 Cu233 Cu 0.49986 0.84393 0.84422
 Cu234 Cu 0.49981 0.80976 0.80998
 C235 C 0.46790 0.84945 0.80456
 C236 C 0.53179 0.80423 0.84960
 C237 C 0.53143 0.84978 0.80436
 C238 C 0.46826 0.80406 0.85002
 O239 O 0.52377 0.17582 0.14220
 O240 O 0.47612 0.14232 0.17566
 O241 O 0.47634 0.17587 0.14191
 O242 O 0.52355 0.14214 0.17580
 O243 O 0.52355 0.17061 0.20434
 O244 O 0.47624 0.20447 0.17030
 O245 O 0.47603 0.17082 0.20417
 O246 O 0.52377 0.20440 0.17062
 Cu247 Cu 0.49994 0.15619 0.15605
 Cu248 Cu 0.49989 0.19044 0.19022
 C249 C 0.53183 0.19592 0.15058
 C250 C 0.46801 0.15072 0.19572
 C251 C 0.46831 0.19601 0.15017
 C252 C 0.53155 0.15048 0.19593
 O253 O 0.52392 0.14227 0.82441
 O254 O 0.47636 0.17584 0.85793
 O255 O 0.47650 0.14209 0.82439
 O256 O 0.52379 0.17585 0.85814
 O257 O 0.52385 0.20442 0.82973
 O258 O 0.47646 0.17050 0.79582
 O259 O 0.47632 0.20436 0.82947
 O260 O 0.52398 0.17072 0.79588
 Cu261 Cu 0.50015 0.15617 0.84407
 Cu262 Cu 0.50015 0.19036 0.80986
 C263 C 0.53200 0.15064 0.80433
 C264 C 0.46828 0.19591 0.84954
 C265 C 0.46847 0.15039 0.80427
 C266 C 0.53182 0.19598 0.84984
 O267 O 0.47662 0.82445 0.14205
 O268 O 0.52420 0.85810 0.17554
 O269 O 0.52405 0.82449 0.14182
 O270 O 0.47678 0.85822 0.17559
 O271 O 0.47679 0.82982 0.20417
 O272 O 0.52417 0.79594 0.17025
 O273 O 0.52432 0.82967 0.20408
 O274 O 0.47664 0.79594 0.17053
 Cu275 Cu 0.50041 0.84416 0.15590
 Cu276 Cu 0.50049 0.80998 0.19012
 C277 C 0.46858 0.80435 0.15045
 C278 C 0.53230 0.84976 0.19562
 C279 C 0.53210 0.80436 0.15012
 C280 C 0.46878 0.84992 0.19573
 O281 O 0.85783 0.52415 0.82452
 O282 O 0.82452 0.47644 0.85807
 O283 O 0.85813 0.47671 0.82439
 O284 O 0.82432 0.52387 0.85829
 O285 O 0.79568 0.52387 0.82993
 O286 O 0.82962 0.47660 0.79590
 O287 O 0.79590 0.47634 0.82970
 O288 O 0.82932 0.52413 0.79604
 Cu289 Cu 0.84405 0.50030 0.84415
 Cu290 Cu 0.80976 0.50023 0.81004
 C291 C 0.84939 0.53221 0.80447
 C292 C 0.80443 0.46832 0.84974
 C293 C 0.84978 0.46868 0.80427
 C294 C 0.80414 0.53185 0.85003
 O295 O 0.14214 0.52411 0.17539
 O296 O 0.17546 0.47638 0.14190
 O297 O 0.14178 0.47668 0.17550
 O298 O 0.17573 0.52381 0.14170
 O299 O 0.20430 0.52379 0.17012
 O300 O 0.17023 0.47655 0.20405
 O301 O 0.20403 0.47626 0.17033
 O302 O 0.17059 0.52408 0.20393
 Cu303 Cu 0.15593 0.50025 0.15578
 Cu304 Cu 0.19015 0.50016 0.18997
 C305 C 0.15054 0.53217 0.19547
 C306 C 0.19553 0.46825 0.15026
 C307 C 0.15007 0.46864 0.19563
 C308 C 0.19589 0.53178 0.15000
 O309 O 0.82454 0.52357 0.14186
 O310 O 0.85791 0.47592 0.17544
 O311 O 0.82436 0.47613 0.14171
 O312 O 0.85820 0.52335 0.17550
 O313 O 0.82974 0.52349 0.20401
 O314 O 0.79576 0.47616 0.17009
 O315 O 0.82943 0.47595 0.20394
 O316 O 0.79597 0.52369 0.17026
 Cu317 Cu 0.84410 0.49974 0.15579
 Cu318 Cu 0.80986 0.49983 0.18994
 C319 C 0.80447 0.53169 0.15020
 C320 C 0.84949 0.46787 0.19551
 C321 C 0.80420 0.46815 0.14999
 C322 C 0.84989 0.53142 0.19561
 O323 O 0.17533 0.52339 0.85831
 O324 O 0.14189 0.47577 0.82469
 O325 O 0.17546 0.47595 0.85844
 O326 O 0.14166 0.52321 0.82466
 O327 O 0.17012 0.52332 0.79615
 O328 O 0.20405 0.47596 0.83005
 O329 O 0.17037 0.47578 0.79619
 O330 O 0.20391 0.52349 0.82991
 Cu331 Cu 0.15574 0.49957 0.84436
 Cu332 Cu 0.18998 0.49964 0.81022
 C333 C 0.19543 0.53149 0.84998
 C334 C 0.15029 0.46772 0.80460
 C335 C 0.19561 0.46796 0.85015
 C336 C 0.14998 0.53126 0.80455
 C337 C 0.24568 0.42471 0.13045
 C338 C 0.23645 0.41623 0.10816
 C339 C 0.21352 0.42411 0.10007
 C340 C 0.20001 0.44069 0.11399
 C341 C 0.28815 0.36096 0.04909
 C342 C 0.23218 0.44130 0.14444
 C343 C 0.25084 0.40029 0.09301
 C344 C 0.26276 0.38741 0.07972
 C345 C 0.27655 0.37289 0.06349
 C346 C 0.20929 0.44966 0.13623
 H347 H 0.26346 0.41878 0.13685
 H348 H 0.20624 0.41771 0.08281
 H349 H 0.18245 0.44674 0.10715
 H350 H 0.23984 0.44786 0.16147
 C351 C 0.75431 0.57521 0.13035
 C352 C 0.76355 0.58368 0.10807
 C353 C 0.78647 0.57579 0.09999
 C354 C 0.79998 0.55921 0.11392
 C355 C 0.71190 0.63903 0.04902
 C356 C 0.76781 0.55862 0.14435
 C357 C 0.74917 0.59964 0.09292
 C358 C 0.73726 0.61253 0.07963
 C359 C 0.72349 0.62708 0.06342
 C360 C 0.79070 0.55026 0.13615
 H361 H 0.73654 0.58116 0.13674
 H362 H 0.79376 0.58218 0.08273
 H363 H 0.81754 0.55316 0.10709
 H364 H 0.76015 0.55207 0.16137
 C365 C 0.75427 0.42481 0.86964
 C366 C 0.76354 0.41633 0.89191
 C367 C 0.78650 0.42420 0.89996
 C368 C 0.80000 0.44077 0.88601
 C369 C 0.71190 0.36105 0.95102
 C370 C 0.76776 0.44140 0.85563
 C371 C 0.74917 0.40040 0.90709
 C372 C 0.73726 0.38752 0.92039
 C373 C 0.72349 0.37299 0.93662
 C374 C 0.79068 0.44974 0.86380
 H375 H 0.73648 0.41889 0.86329
 H376 H 0.79381 0.41779 0.91720
 H377 H 0.81757 0.44681 0.89281
 H378 H 0.76007 0.44796 0.83863
 C379 C 0.21356 0.57549 0.90028
 C380 C 0.23649 0.58337 0.89219
 C381 C 0.24569 0.57492 0.86988
 C382 C 0.23214 0.55837 0.85586
 C383 C 0.28833 0.63868 0.95121
 C384 C 0.20000 0.55896 0.88632
 C385 C 0.25091 0.59929 0.90736
 C386 C 0.26287 0.61217 0.92063
 C387 C 0.27669 0.62672 0.93683
 C388 C 0.20924 0.55002 0.86406
 H389 H 0.20630 0.58187 0.91755
 H390 H 0.26346 0.58085 0.86349
 H391 H 0.23977 0.55184 0.83882
 H392 H 0.18244 0.55291 0.89316
 C393 C 0.09994 0.21378 0.42434
 C394 C 0.10810 0.23670 0.41650
 C395 C 0.13037 0.24592 0.42507
 C396 C 0.14427 0.23240 0.44171
 C397 C 0.04930 0.28837 0.36090
 C398 C 0.11378 0.20025 0.44098
 C399 C 0.09303 0.25110 0.40047
 C400 C 0.07981 0.26302 0.38752
 C401 C 0.06366 0.27679 0.37290
 C402 C 0.13600 0.20950 0.45003
 H403 H 0.08270 0.20651 0.41787
 H404 H 0.13681 0.26368 0.41916
 H405 H 0.16128 0.24004 0.44834
 H406 H 0.10690 0.18270 0.44699
 C407 C 0.13049 0.75379 0.57480
 C408 C 0.10821 0.76298 0.58333
 C409 C 0.10005 0.78589 0.57546
 C410 C 0.11390 0.79943 0.55885
 C411 C 0.04941 0.71133 0.63894
 C412 C 0.14442 0.76733 0.55818
 C413 C 0.09315 0.74858 0.59935
 C414 C 0.07993 0.73666 0.61230
 C415 C 0.06378 0.72289 0.62692
 C416 C 0.13615 0.79021 0.54985
 H417 H 0.13694 0.73604 0.58073
 H418 H 0.08279 0.79314 0.58190
 H419 H 0.10702 0.81698 0.55283
 H420 H 0.16144 0.75971 0.55159
 C421 C 0.90017 0.78625 0.42445
 C422 C 0.89201 0.76334 0.41654
 C423 C 0.86972 0.75414 0.42505
 C424 C 0.85579 0.76765 0.44169
 C425 C 0.95079 0.71168 0.36093
 C426 C 0.88631 0.79977 0.44108
 C427 C 0.90708 0.74896 0.40052
 C428 C 0.92030 0.73704 0.38757
 C429 C 0.93644 0.72327 0.37295
 C430 C 0.86406 0.79052 0.45007
 H431 H 0.91743 0.79351 0.41803
 H432 H 0.86327 0.73639 0.41909
 H433 H 0.83876 0.76001 0.44826
 H434 H 0.89319 0.81731 0.44714
 C435 C 0.89991 0.21383 0.57498
 C436 C 0.89174 0.23675 0.58284
 C437 C 0.86944 0.24591 0.57430
 C438 C 0.85551 0.23234 0.55769
 C439 C 0.95044 0.28852 0.63853
 C440 C 0.88605 0.20026 0.55838
 C441 C 0.90680 0.25117 0.59886
 C442 C 0.91999 0.26312 0.61183
 C443 C 0.93611 0.27692 0.62648
 C444 C 0.86379 0.20945 0.54937
 H445 H 0.91717 0.20660 0.58142
 H446 H 0.86298 0.26366 0.58022
 H447 H 0.83847 0.23994 0.55110
 H448 H 0.89294 0.18271 0.55236
 C449 C 0.42453 0.13102 0.24596
 C450 C 0.41606 0.10869 0.23680
 C451 C 0.42394 0.10052 0.21390
 C452 C 0.44050 0.11442 0.20034
 C453 C 0.36071 0.04977 0.28862
 C454 C 0.44111 0.14498 0.23241
 C455 C 0.40012 0.09357 0.25124
 C456 C 0.38722 0.08033 0.26320
 C457 C 0.37267 0.06415 0.27701
 C458 C 0.44946 0.13670 0.20954
 H459 H 0.41860 0.13747 0.26371
 H460 H 0.41754 0.08323 0.20668
 H461 H 0.44654 0.10752 0.18281
 H462 H 0.44766 0.16204 0.24001
 C463 C 0.57542 0.13091 0.75406
 C464 C 0.58389 0.10859 0.76320
 C465 C 0.57603 0.10043 0.78611
 C466 C 0.55948 0.11433 0.79969
 C467 C 0.63929 0.04972 0.71138
 C468 C 0.55886 0.14488 0.76762
 C469 C 0.59984 0.09348 0.74877
 C470 C 0.61274 0.08025 0.73680
 C471 C 0.62730 0.06408 0.72299
 C472 C 0.55053 0.13661 0.79050
 H473 H 0.58134 0.13736 0.73630
 H474 H 0.58243 0.08314 0.79333
 H475 H 0.55345 0.10745 0.81722
 H476 H 0.55231 0.16193 0.76003
 C477 C 0.42380 0.89964 0.78646
 C478 C 0.41592 0.89150 0.76355
 C479 C 0.42438 0.86919 0.75436
 C480 C 0.44097 0.85522 0.76789
 C481 C 0.36050 0.95038 0.71175
 C482 C 0.44038 0.88574 0.80001
 C483 C 0.39996 0.90662 0.74914
 C484 C 0.38705 0.91987 0.73719
 C485 C 0.37249 0.93603 0.72337
 C486 C 0.44933 0.86347 0.79078
 H487 H 0.41741 0.91692 0.79371
 H488 H 0.41844 0.86276 0.73661
 H489 H 0.44752 0.83818 0.76027
 H490 H 0.44643 0.89261 0.81755
 C491 C 0.57624 0.90009 0.21387
 C492 C 0.58413 0.89195 0.23678
 C493 C 0.57572 0.86960 0.24591
 C494 C 0.55918 0.85559 0.23234
 C495 C 0.63949 0.95084 0.28872
 C496 C 0.55972 0.88615 0.20028
 C497 C 0.60006 0.90709 0.25123
 C498 C 0.61294 0.92034 0.26321
 C499 C 0.62751 0.93650 0.27707
 C500 C 0.55082 0.86384 0.20946
 H501 H 0.58259 0.91740 0.20666
 H502 H 0.58166 0.86316 0.26366
 H503 H 0.55267 0.83851 0.23992
 H504 H 0.55366 0.89302 0.18275
 C505 C 0.42471 0.24614 0.86912
 C506 C 0.41620 0.23699 0.89142
 C507 C 0.42410 0.21410 0.89962
 C508 C 0.44073 0.20055 0.88578
 C509 C 0.36057 0.28878 0.95007
 C510 C 0.44135 0.23260 0.85522
 C511 C 0.40018 0.25140 0.90646
 C512 C 0.38721 0.26335 0.91964
 C513 C 0.37258 0.27716 0.93575
 C514 C 0.44971 0.20974 0.86353
 H515 H 0.41876 0.26388 0.86264
 H516 H 0.41768 0.20688 0.91689
 H517 H 0.44678 0.18302 0.89270
 H518 H 0.44792 0.24019 0.83818
 C519 C 0.57540 0.75401 0.86910
 C520 C 0.58395 0.76316 0.89140
 C521 C 0.57607 0.78605 0.89961
 C522 C 0.55943 0.79961 0.88579
 C523 C 0.63955 0.71132 0.95004
 C524 C 0.55875 0.76755 0.85522
 C525 C 0.59997 0.74874 0.90642
 C526 C 0.61293 0.73678 0.91960
 C527 C 0.62755 0.72295 0.93571
 C528 C 0.55040 0.79042 0.86354
 H529 H 0.58133 0.73627 0.86261
 H530 H 0.58252 0.79328 0.91688
 H531 H 0.55339 0.81714 0.89272
 H532 H 0.55214 0.75996 0.83819
 C533 C 0.42443 0.78601 0.10036
 C534 C 0.41656 0.76312 0.10857
 C535 C 0.42508 0.75401 0.13089
 C536 C 0.44169 0.76761 0.14479
 C537 C 0.36092 0.71112 0.05001
 C538 C 0.44103 0.79962 0.11419
 C539 C 0.40055 0.74865 0.09354
 C540 C 0.38759 0.73665 0.08038
 C541 C 0.37296 0.72278 0.06430
 C542 C 0.45002 0.79048 0.13647
 H543 H 0.41800 0.79320 0.08307
 H544 H 0.41916 0.73627 0.13739
 H545 H 0.44827 0.76005 0.16185
 H546 H 0.44705 0.81715 0.10726
 C547 C 0.57606 0.21404 0.10052
 C548 C 0.58392 0.23696 0.10867
 C549 C 0.57538 0.24616 0.13095
 C550 C 0.55876 0.23262 0.14486
 C551 C 0.63948 0.28875 0.04994
 C552 C 0.55944 0.20049 0.11437
 C553 C 0.59993 0.25137 0.09361
 C554 C 0.61287 0.26332 0.08040
 C555 C 0.62748 0.27713 0.06427
 C556 C 0.55042 0.20973 0.13660
 H557 H 0.58250 0.20678 0.08327
 H558 H 0.58130 0.26392 0.13739
 H559 H 0.55216 0.24025 0.16188
 H560 H 0.55341 0.18294 0.10749
 C561 C 0.21320 0.10025 0.57649
 C562 C 0.23614 0.10835 0.58433
 C563 C 0.24534 0.13067 0.57588
 C564 C 0.23178 0.14467 0.55934
 C565 C 0.28800 0.04929 0.63948
 C566 C 0.19963 0.11419 0.55996
 C567 C 0.25058 0.09319 0.60022
 C568 C 0.26255 0.07990 0.61306
 C569 C 0.27637 0.06368 0.62756
 C570 C 0.20887 0.13645 0.55102
 H571 H 0.20594 0.08297 0.58287
 H572 H 0.26312 0.13707 0.58178
 H573 H 0.23941 0.16172 0.55280
 H574 H 0.18207 0.10734 0.55394
 C575 C 0.75414 0.13024 0.42392
 C576 C 0.76329 0.10789 0.41550
 C577 C 0.78624 0.09980 0.42333
 C578 C 0.79985 0.11378 0.43979
 C579 C 0.71131 0.04875 0.36043
 C580 C 0.76774 0.14429 0.44039
 C581 C 0.74881 0.09270 0.39965
 C582 C 0.73682 0.07939 0.38683
 C583 C 0.72296 0.06316 0.37235
 C584 C 0.79066 0.13608 0.44870
 H585 H 0.73636 0.13664 0.41802
 H586 H 0.79346 0.08249 0.41697
 H587 H 0.81742 0.10694 0.44580
 H588 H 0.76014 0.16136 0.44691
 C589 C 0.78666 0.89965 0.57652
 C590 C 0.76370 0.89154 0.58429
 C591 C 0.75453 0.86922 0.57579
 C592 C 0.76812 0.85524 0.55927
 C593 C 0.71174 0.95060 0.63935
 C594 C 0.80026 0.88573 0.56001
 C595 C 0.74923 0.90669 0.60016
 C596 C 0.73723 0.91998 0.61298
 C597 C 0.72338 0.93619 0.62745
 C598 C 0.79104 0.86347 0.55101
 H599 H 0.79389 0.91693 0.58294
 H600 H 0.73674 0.86281 0.58165
 H601 H 0.76050 0.83820 0.55268
 H602 H 0.81783 0.89259 0.55403
 C603 C 0.21361 0.89964 0.42371
 C604 C 0.23655 0.89154 0.41588
 C605 C 0.24572 0.86922 0.42434
 C606 C 0.23215 0.85521 0.44086
 C607 C 0.28841 0.95061 0.36075
 C608 C 0.20002 0.88570 0.44021
 C609 C 0.25100 0.90670 0.40000
 C610 C 0.26297 0.91998 0.38716
 C611 C 0.27679 0.93621 0.37267
 C612 C 0.20924 0.86343 0.44916
 H613 H 0.20637 0.91693 0.41732
 H614 H 0.26350 0.86281 0.41845
 H615 H 0.23976 0.83816 0.44741
 H616 H 0.18246 0.89255 0.44622
 C617 C 0.13060 0.42435 0.75422
 C618 C 0.10828 0.41583 0.76335
 C619 C 0.10013 0.42363 0.78628
 C620 C 0.11402 0.44017 0.79990
 C621 C 0.04940 0.36059 0.71129
 C622 C 0.14455 0.44091 0.76783
 C623 C 0.09318 0.39991 0.74886
 C624 C 0.07993 0.38704 0.73685
 C625 C 0.06377 0.37252 0.72297
 C626 C 0.13629 0.44918 0.79073
 H627 H 0.13704 0.41848 0.73645
 H628 H 0.08285 0.41719 0.79349
 H629 H 0.10714 0.44615 0.81745
 H630 H 0.16159 0.44750 0.76025
 C631 C 0.10051 0.57643 0.21361
 C632 C 0.10865 0.58423 0.23655
 C633 C 0.13091 0.57566 0.24575
 C634 C 0.14484 0.55905 0.23220
 C635 C 0.04975 0.63955 0.28840
 C636 C 0.11437 0.55983 0.20005
 C637 C 0.09355 0.60018 0.25099
 C638 C 0.08031 0.61307 0.26295
 C639 C 0.06413 0.62761 0.27677
 C640 C 0.13658 0.55077 0.20929
 H641 H 0.08327 0.58290 0.20635
 H642 H 0.13734 0.58152 0.26353
 H643 H 0.16184 0.55241 0.23983
 H644 H 0.10750 0.55385 0.18248
 C645 C 0.89952 0.42363 0.21371
 C646 C 0.89136 0.41582 0.23663
 C647 C 0.86908 0.42439 0.24580
 C648 C 0.85518 0.44100 0.23224
 C649 C 0.95020 0.36043 0.28847
 C650 C 0.88568 0.44023 0.20014
 C651 C 0.90643 0.39984 0.25107
 C652 C 0.91965 0.38693 0.26303
 C653 C 0.93582 0.37238 0.27685
 C654 C 0.86345 0.44929 0.20935
 H655 H 0.91677 0.41715 0.20647
 H656 H 0.86264 0.41851 0.26356
 H657 H 0.83816 0.44764 0.23985
 H658 H 0.89257 0.44622 0.18259
 C659 C 0.89944 0.57644 0.78625
 C660 C 0.89128 0.58422 0.76332
 C661 C 0.86899 0.57566 0.75416
 C662 C 0.85507 0.55907 0.76773
 C663 C 0.95022 0.63944 0.71142
 C664 C 0.88558 0.55986 0.79984
 C665 C 0.90637 0.60016 0.74886
 C666 C 0.91963 0.61303 0.73688
 C667 C 0.93582 0.62753 0.72305
 C668 C 0.86335 0.55080 0.79063
 H669 H 0.91670 0.58290 0.79348
 H670 H 0.86254 0.58152 0.73638
 H671 H 0.83804 0.55243 0.76012
 H672 H 0.89248 0.55388 0.81739
 C673 C 0.75375 0.57505 0.87015
 C674 C 0.76299 0.58354 0.89244
 C675 C 0.78595 0.57569 0.90048
 C676 C 0.79951 0.55919 0.88648
 C677 C 0.71137 0.63925 0.95133
 C678 C 0.76729 0.55854 0.85609
 C679 C 0.74862 0.59953 0.90761
 C680 C 0.73673 0.61250 0.92086
 C681 C 0.72297 0.62718 0.93701
 C682 C 0.79025 0.55026 0.86421
 H683 H 0.73596 0.58095 0.86379
 H684 H 0.79326 0.58209 0.91773
 H685 H 0.81710 0.55321 0.89327
 H686 H 0.75964 0.55201 0.83905
 C687 C 0.24603 0.42476 0.87021
 C688 C 0.23682 0.41627 0.89250
 C689 C 0.21385 0.42410 0.90054
 C690 C 0.20028 0.44059 0.88656
 C691 C 0.28858 0.36068 0.95138
 C692 C 0.23246 0.44127 0.85616
 C693 C 0.25122 0.40030 0.90766
 C694 C 0.26314 0.38736 0.92091
 C695 C 0.27694 0.37272 0.93707
 C696 C 0.20951 0.44954 0.86430
 H697 H 0.26382 0.41888 0.86384
 H698 H 0.20657 0.41770 0.91780
 H699 H 0.18268 0.44657 0.89336
 H700 H 0.24010 0.44781 0.83913
 C701 C 0.21424 0.57561 0.09962
 C702 C 0.23720 0.58343 0.10770
 C703 C 0.24639 0.57494 0.13001
 C704 C 0.23279 0.55844 0.14403
 C705 C 0.28897 0.63907 0.04887
 C706 C 0.20063 0.55912 0.11358
 C707 C 0.25162 0.59941 0.09257
 C708 C 0.26355 0.61237 0.07933
 C709 C 0.27734 0.62702 0.06319
 C710 C 0.20984 0.55018 0.13586
 H711 H 0.20698 0.58201 0.08235
 H712 H 0.26418 0.58082 0.13640
 H713 H 0.24040 0.55189 0.16108
 H714 H 0.18304 0.55315 0.10676
 C715 C 0.75378 0.42491 0.12995
 C716 C 0.76302 0.41639 0.10767
 C717 C 0.78599 0.42421 0.09964
 C718 C 0.79955 0.44074 0.11360
 C719 C 0.71136 0.36072 0.04875
 C720 C 0.76734 0.44145 0.14398
 C721 C 0.74863 0.40039 0.09252
 C722 C 0.73673 0.38742 0.07926
 C723 C 0.72297 0.37277 0.06309
 C724 C 0.79030 0.44971 0.13585
 H725 H 0.73599 0.41902 0.13631
 H726 H 0.79328 0.41779 0.08239
 H727 H 0.81715 0.44671 0.10681
 H728 H 0.75969 0.44801 0.16100
 C729 C 0.87048 0.75362 0.57531
 C730 C 0.89280 0.76283 0.58378
 C731 C 0.90084 0.78580 0.57596
 C732 C 0.88684 0.79939 0.55950
 C733 C 0.95173 0.71109 0.63934
 C734 C 0.85641 0.76720 0.55883
 C735 C 0.90797 0.74842 0.59973
 C736 C 0.92124 0.73651 0.61267
 C737 C 0.93741 0.72272 0.62730
 C738 C 0.86456 0.79016 0.55057
 H739 H 0.86411 0.73582 0.58118
 H740 H 0.91811 0.79308 0.58235
 H741 H 0.89365 0.81699 0.55353
 H742 H 0.83936 0.75957 0.55229
 C743 C 0.90055 0.21382 0.42357
 C744 C 0.89252 0.23679 0.41573
 C745 C 0.87020 0.24600 0.42415
 C746 C 0.85610 0.23243 0.44061
 C747 C 0.95159 0.28859 0.36036
 C748 C 0.88652 0.20024 0.44002
 C749 C 0.90773 0.25120 0.39982
 C750 C 0.92104 0.26313 0.38693
 C751 C 0.93723 0.27694 0.37235
 C752 C 0.86423 0.20948 0.44891
 H753 H 0.91783 0.20654 0.41723
 H754 H 0.86384 0.26379 0.41825
 H755 H 0.83905 0.24006 0.44711
 H756 H 0.89331 0.18265 0.44602
 C757 C 0.09906 0.21415 0.57585
 C758 C 0.10711 0.23711 0.58372
 C759 C 0.12945 0.24631 0.57531
 C760 C 0.14353 0.23274 0.55885
 C761 C 0.04811 0.28886 0.63919
 C762 C 0.11308 0.20057 0.55940
 C763 C 0.09192 0.25152 0.59966
 C764 C 0.07863 0.26344 0.61257
 C765 C 0.06245 0.27723 0.62718
 C766 C 0.13538 0.20979 0.55053
 H767 H 0.08177 0.20688 0.58219
 H768 H 0.13582 0.26410 0.58123
 H769 H 0.16060 0.24036 0.55237
 H770 H 0.10627 0.18298 0.55339
 C771 C 0.09950 0.78585 0.42386
 C772 C 0.10753 0.76288 0.41600
 C773 C 0.12982 0.75364 0.42447
 C774 C 0.14388 0.76718 0.44101
 C775 C 0.04850 0.71127 0.36041
 C776 C 0.11349 0.79939 0.44038
 C777 C 0.09235 0.74852 0.40001
 C778 C 0.07906 0.73663 0.38707
 C779 C 0.06286 0.72287 0.37244
 C780 C 0.13575 0.79013 0.44932
 H781 H 0.08224 0.79315 0.41746
 H782 H 0.13618 0.73585 0.41856
 H783 H 0.16091 0.75952 0.44755
 H784 H 0.10670 0.81698 0.44638
 C785 C 0.57533 0.90020 0.78623
 C786 C 0.58318 0.89217 0.76327
 C787 C 0.57468 0.86988 0.75402
 C788 C 0.55814 0.85583 0.76754
 C789 C 0.63897 0.95105 0.71173
 C790 C 0.55880 0.88622 0.79976
 C791 C 0.59921 0.90733 0.74893
 C792 C 0.61220 0.92059 0.73707
 C793 C 0.62689 0.93674 0.72333
 C794 C 0.54985 0.86395 0.79048
 H795 H 0.58174 0.91746 0.79354
 H796 H 0.58059 0.86352 0.73623
 H797 H 0.55160 0.83879 0.75987
 H798 H 0.55281 0.89301 0.81735
 C799 C 0.42550 0.86996 0.24607
 C800 C 0.41697 0.89223 0.23681
 C801 C 0.42481 0.90026 0.21385
 C802 C 0.44134 0.88630 0.20032
 C803 C 0.36115 0.95109 0.28835
 C804 C 0.44205 0.85593 0.23255
 C805 C 0.40094 0.90738 0.25116
 C806 C 0.38795 0.92063 0.26303
 C807 C 0.37325 0.93678 0.27676
 C808 C 0.45033 0.86406 0.20960
 H809 H 0.41960 0.86360 0.26386
 H810 H 0.41838 0.91750 0.20654
 H811 H 0.44732 0.89309 0.18273
 H812 H 0.44862 0.83891 0.24021
 C813 C 0.57484 0.13055 0.24632
 C814 C 0.58336 0.10826 0.23711
 C815 C 0.57550 0.10016 0.21417
 C816 C 0.55896 0.11410 0.20061
 C817 C 0.63922 0.04949 0.28869
 C818 C 0.55828 0.14455 0.23277
 C819 C 0.59941 0.09315 0.25148
 C820 C 0.61242 0.07992 0.26336
 C821 C 0.62713 0.06379 0.27710
 C822 C 0.54999 0.13636 0.20984
 H823 H 0.58076 0.13696 0.26410
 H824 H 0.58193 0.08291 0.20689
 H825 H 0.55296 0.10726 0.18304
 H826 H 0.55172 0.16159 0.24040
 C827 C 0.42444 0.10005 0.78622
 C828 C 0.41657 0.10807 0.76327
 C829 C 0.42509 0.13033 0.75399
 C830 C 0.44168 0.14437 0.76748
 C831 C 0.36075 0.04909 0.71186
 C832 C 0.44101 0.11402 0.79973
 C833 C 0.40052 0.09291 0.74896
 C834 C 0.38752 0.07963 0.73712
 C835 C 0.37282 0.06344 0.72342
 C836 C 0.44999 0.13625 0.79043
 H837 H 0.41801 0.08281 0.79356
 H838 H 0.41917 0.13668 0.73620
 H839 H 0.44825 0.16138 0.75980
 H840 H 0.44701 0.10724 0.81731
 C841 C 0.57533 0.75399 0.13000
 C842 C 0.58376 0.76321 0.10769
 C843 C 0.57590 0.78618 0.09966
 C844 C 0.55942 0.79974 0.11367
 C845 C 0.63930 0.71157 0.04867
 C846 C 0.55883 0.76754 0.14408
 C847 C 0.59971 0.74884 0.09249
 C848 C 0.61264 0.73694 0.07920
 C849 C 0.62727 0.72318 0.06301
 C850 C 0.55052 0.79048 0.13595
 H851 H 0.58124 0.73620 0.13635
 H852 H 0.58226 0.79347 0.08240
 H853 H 0.55341 0.81732 0.10689
 H854 H 0.55233 0.75989 0.16112
 C855 C 0.42451 0.21412 0.09967
 C856 C 0.41663 0.23709 0.10768
 C857 C 0.42506 0.24635 0.12999
 C858 C 0.44157 0.23283 0.14408
 C859 C 0.36092 0.28859 0.04870
 C860 C 0.44100 0.20059 0.11370
 C861 C 0.40064 0.25143 0.09249
 C862 C 0.38767 0.26329 0.07920
 C863 C 0.37300 0.27702 0.06302
 C864 C 0.44989 0.20988 0.13597
 H865 H 0.41814 0.20680 0.08241
 H866 H 0.41913 0.26414 0.13633
 H867 H 0.44807 0.24050 0.16112
 H868 H 0.44702 0.18300 0.10693
 C869 C 0.57509 0.24635 0.86995
 C870 C 0.58358 0.23709 0.89222
 C871 C 0.57574 0.21411 0.90023
 C872 C 0.55922 0.20057 0.88624
 C873 C 0.63923 0.28862 0.95127
 C874 C 0.55855 0.23282 0.85588
 C875 C 0.59957 0.25144 0.90741
 C876 C 0.61253 0.26332 0.92070
 C877 C 0.62718 0.27704 0.93691
 C878 C 0.55026 0.20986 0.86399
 H879 H 0.58099 0.26415 0.86361
 H880 H 0.58214 0.20679 0.91747
 H881 H 0.55323 0.18297 0.89301
 H882 H 0.55200 0.24049 0.83887
 C883 C 0.42509 0.75361 0.87012
 C884 C 0.41665 0.76282 0.89244
 C885 C 0.42451 0.78579 0.90048
 C886 C 0.44098 0.79937 0.88648
 C887 C 0.36106 0.71118 0.95141
 C888 C 0.44157 0.76718 0.85605
 C889 C 0.40069 0.74843 0.90761
 C890 C 0.38775 0.73653 0.92089
 C891 C 0.37311 0.72277 0.93707
 C892 C 0.44987 0.79014 0.86419
 H893 H 0.41918 0.73582 0.86375
 H894 H 0.41814 0.79307 0.91776
 H895 H 0.44697 0.81696 0.89328
 H896 H 0.44807 0.75955 0.83900
 C897 C 0.75441 0.86984 0.42567
 C898 C 0.76364 0.89215 0.41722
 C899 C 0.78658 0.90022 0.42512
 C900 C 0.80012 0.88624 0.44165
 C901 C 0.71208 0.95103 0.36145
 C902 C 0.76794 0.85579 0.44221
 C903 C 0.74929 0.90730 0.40120
 C904 C 0.73741 0.92056 0.38822
 C905 C 0.72367 0.93671 0.37353
 C906 C 0.79087 0.86395 0.45055
 H907 H 0.73664 0.86346 0.41973
 H908 H 0.79388 0.91748 0.41875
 H909 H 0.81770 0.89305 0.44767
 H910 H 0.76029 0.83874 0.44872
 C911 C 0.21353 0.89981 0.57525
 C912 C 0.23647 0.89175 0.58314
 C913 C 0.24572 0.86948 0.57461
 C914 C 0.23223 0.85548 0.55800
 C915 C 0.28795 0.95057 0.63906
 C916 C 0.20002 0.88588 0.55865
 C917 C 0.25079 0.90687 0.59922
 C918 C 0.26265 0.92011 0.61225
 C919 C 0.27637 0.93625 0.62697
 C920 C 0.20930 0.86364 0.54967
 H921 H 0.20622 0.91705 0.58168
 H922 H 0.26350 0.86309 0.58055
 H923 H 0.23989 0.83846 0.55143
 H924 H 0.18245 0.89269 0.55263
 C925 C 0.24567 0.13028 0.42569
 C926 C 0.23647 0.10797 0.41719
 C927 C 0.21354 0.09987 0.42505
 C928 C 0.19998 0.11382 0.44159
 C929 C 0.28813 0.04929 0.36131
 C930 C 0.23213 0.14429 0.44224
 C931 C 0.25084 0.09286 0.40114
 C932 C 0.26274 0.07965 0.38813
 C933 C 0.27651 0.06356 0.37341
 C934 C 0.20920 0.13610 0.45054
 H935 H 0.26344 0.13670 0.41977
 H936 H 0.20626 0.08261 0.41864
 H937 H 0.18241 0.10698 0.44759
 H938 H 0.23975 0.16134 0.44878
 C939 C 0.78633 0.09983 0.57475
 C940 C 0.76340 0.10792 0.58264
 C941 C 0.75417 0.13020 0.57411
 C942 C 0.76768 0.14418 0.55750
 C943 C 0.71186 0.04927 0.63867
 C944 C 0.79985 0.11374 0.55816
 C945 C 0.74907 0.09283 0.59873
 C946 C 0.73720 0.07963 0.61178
 C947 C 0.72346 0.06354 0.62654
 C948 C 0.79059 0.13599 0.54918
 H949 H 0.79363 0.08259 0.58119
 H950 H 0.73640 0.13660 0.58004
 H951 H 0.76003 0.16120 0.55093
 H952 H 0.81741 0.10691 0.55214
 C953 C 0.90032 0.57528 0.21381
 C954 C 0.89223 0.58321 0.23673
 C955 C 0.86990 0.57478 0.24592
 C956 C 0.85586 0.55822 0.23239
 C957 C 0.95108 0.63903 0.28832
 C958 C 0.88635 0.55874 0.20027
 C959 C 0.90738 0.59924 0.25108
 C960 C 0.92062 0.61224 0.26297
 C961 C 0.93677 0.62694 0.27672
 C962 C 0.86405 0.54986 0.20949
 H963 H 0.91760 0.58164 0.20655
 H964 H 0.86350 0.58074 0.26367
 H965 H 0.83880 0.55173 0.24000
 H966 H 0.89317 0.55269 0.18272
 C967 C 0.86972 0.42541 0.75386
 C968 C 0.89207 0.41699 0.76300
 C969 C 0.90021 0.42490 0.78590
 C970 C 0.88626 0.44140 0.79950
 C971 C 0.95077 0.36118 0.71126
 C972 C 0.85570 0.44192 0.76744
 C973 C 0.90718 0.40097 0.74859
 C974 C 0.92040 0.38799 0.73667
 C975 C 0.93650 0.37328 0.72288
 C976 C 0.86392 0.45027 0.79034
 H977 H 0.86327 0.41945 0.73611
 H978 H 0.91752 0.41855 0.79313
 H979 H 0.89313 0.44744 0.81705
 H980 H 0.83861 0.44840 0.75987
 C981 C 0.09954 0.57506 0.78628
 C982 C 0.10764 0.58297 0.76337
 C983 C 0.12998 0.57455 0.75420
 C984 C 0.14402 0.55803 0.76776
 C985 C 0.04889 0.63874 0.71164
 C986 C 0.11351 0.55856 0.79985
 C987 C 0.09250 0.59898 0.74898
 C988 C 0.07927 0.61196 0.73707
 C989 C 0.06316 0.62665 0.72327
 C990 C 0.13583 0.54968 0.79066
 H991 H 0.08225 0.58141 0.79353
 H992 H 0.13640 0.58050 0.73645
 H993 H 0.16109 0.55155 0.76016
 H994 H 0.10667 0.55252 0.81740
 C995 C 0.12998 0.42536 0.24597
 C996 C 0.10763 0.41697 0.23678
 C997 C 0.09955 0.42489 0.21387
 C998 C 0.11355 0.44139 0.20031
 C999 C 0.04884 0.36111 0.28837
 C1000 C 0.14405 0.44188 0.23243
 C1001 C 0.09248 0.40095 0.25114
 C1002 C 0.07924 0.38795 0.26303
 C1003 C 0.06312 0.37323 0.27678
 C1004 C 0.13588 0.45024 0.20952
 H1005 H 0.13639 0.41940 0.26372
 H1006 H 0.08225 0.41856 0.20660
 H1007 H 0.10672 0.44744 0.18276
 H1008 H 0.16113 0.44834 0.24004
   
