data_POSCAR
  _audit_creation_date              2014-09-24
  _audit_creation_method            'ToBaCCo'
  _symmetry_space_group_name_H-M    'P1'
  _symmetry_Int_Tables_number       1
  _symmetry_cell_setting            triclinic
  loop_
  _symmetry_equiv_pos_as_xyz
 x,y,z
_cell_length_a 51.9284
_cell_length_b 51.7694
_cell_length_c 51.9168
_cell_angle_alpha 89.910400
_cell_angle_beta 89.997500
_cell_angle_gamma 90.082300
loop_
  _atom_site_label
  _atom_site_type_symbol
  _atom_site_fract_x
  _atom_site_fract_y
  _atom_site_fract_z
N1 N 0.59461 0.66593 0.61456
 N2 N 0.58453 0.65535 0.63532
 C3 C 0.56363 0.66903 0.64242
 C4 C 0.56068 0.68911 0.62520
 C5 C 0.58054 0.68668 0.60779
 H6 H 0.55147 0.66478 0.65880
 H7 H 0.58443 0.69906 0.59144
 Cu8 Cu 0.59982 0.62466 0.65067
 Cu9 Cu 0.62520 0.65205 0.59782
 Cu10 Cu 0.65247 0.59728 0.62518
 N11 N 0.61511 0.59397 0.66601
 N12 N 0.63575 0.58333 0.65585
 C13 C 0.64242 0.56248 0.66987
 C14 C 0.62500 0.56005 0.68975
 C15 C 0.60790 0.58020 0.68688
 H16 H 0.65868 0.55006 0.66591
 H17 H 0.59153 0.58443 0.69903
 N18 N 0.66654 0.61427 0.59416
 N19 N 0.65616 0.63512 0.58376
 C20 C 0.67007 0.64204 0.56294
 C21 C 0.69000 0.62474 0.56026
 C22 C 0.68732 0.60740 0.58023
 H23 H 0.66607 0.65841 0.55062
 H24 H 0.69962 0.59104 0.58423
 H25 H 0.62000 0.61425 0.60956
 H26 H 0.64082 0.63504 0.63021
 N27 N 0.90597 0.33326 0.11435
 N28 N 0.91605 0.34382 0.13508
 C29 C 0.93695 0.33016 0.14224
 C30 C 0.93988 0.31013 0.12504
 C31 C 0.92005 0.31253 0.10759
 H32 H 0.94911 0.33441 0.15861
 H33 H 0.91615 0.30017 0.09126
 Cu34 Cu 0.90079 0.37446 0.15039
 Cu35 Cu 0.87539 0.34714 0.09759
 Cu36 Cu 0.84812 0.40185 0.12489
 N37 N 0.88549 0.40510 0.16565
 N38 N 0.86485 0.41574 0.15549
 C39 C 0.85820 0.43656 0.16949
 C40 C 0.87561 0.43898 0.18935
 C41 C 0.89270 0.41884 0.18649
 H42 H 0.84194 0.44898 0.16553
 H43 H 0.90908 0.41462 0.19864
 N44 N 0.83405 0.38490 0.09394
 N45 N 0.84443 0.36407 0.08355
 C46 C 0.83049 0.35716 0.06278
 C47 C 0.81054 0.37444 0.06012
 C48 C 0.81323 0.39176 0.08003
 H49 H 0.83447 0.34081 0.05048
 H50 H 0.80092 0.40810 0.08404
 H51 H 0.88059 0.38491 0.10927
 H52 H 0.85979 0.36407 0.12996
 N53 N 0.40530 0.16624 -0.11418
 N54 N 0.41544 0.15562 -0.13483
 C55 C 0.43638 0.16929 -0.14193
 C56 C 0.43931 0.18937 -0.12479
 C57 C 0.41940 0.18699 -0.10744
 H58 H 0.44856 0.16506 -0.15829
 H59 H 0.41546 0.19941 -0.09118
 Cu60 Cu 0.40006 0.12516 -0.15043
 Cu61 Cu 0.37463 0.15242 -0.09756
 Cu62 Cu 0.34728 0.09772 -0.12481
 N63 N 0.38478 0.09433 -0.16540
 N64 N 0.36405 0.08375 -0.15530
 C65 C 0.35735 0.06293 -0.16931
 C66 C 0.37483 0.06047 -0.18911
 C67 C 0.39199 0.08058 -0.18620
 H68 H 0.34101 0.05055 -0.16543
 H69 H 0.40839 0.08482 -0.19834
 N70 N 0.33318 0.11472 -0.09395
 N71 N 0.34360 0.13556 -0.08359
 C72 C 0.32967 0.14248 -0.06282
 C73 C 0.30970 0.12519 -0.06014
 C74 C 0.31235 0.10785 -0.08004
 H75 H 0.33372 0.15884 -0.05053
 H76 H 0.30001 0.09149 -0.08402
 H77 H 0.37983 0.11470 -0.10936
 H78 H 0.35904 0.13553 -0.13007
 N79 N 0.09411 0.83342 0.38564
 N80 N 0.08396 0.84408 0.36497
 C81 C 0.06310 0.83033 0.35777
 C82 C 0.06022 0.81014 0.37488
 C83 C 0.08009 0.81254 0.39232
 H84 H 0.05094 0.83462 0.34139
 H85 H 0.08405 0.80008 0.40857
 Cu86 Cu 0.09913 0.87489 0.34971
 Cu87 Cu 0.12472 0.84740 0.40235
 Cu88 Cu 0.15197 0.90230 0.37509
 N89 N 0.11453 0.90557 0.33441
 N90 N 0.13523 0.91619 0.34452
 C91 C 0.14194 0.93701 0.33046
 C92 C 0.12453 0.93943 0.31061
 C93 C 0.10738 0.91930 0.31353
 H94 H 0.15825 0.94942 0.33435
 H95 H 0.09100 0.91506 0.30137
 N96 N 0.16604 0.88532 0.40604
 N97 N 0.15569 0.86442 0.41643
 C98 C 0.16964 0.85754 0.43722
 C99 C 0.18955 0.87493 0.43988
 C100 C 0.18682 0.89228 0.41995
 H101 H 0.16569 0.84115 0.44953
 H102 H 0.19909 0.90869 0.41594
 H103 H 0.11963 0.88524 0.39068
 H104 H 0.14031 0.86456 0.36986
 C105 C 0.10502 0.12555 0.14443
 C106 C 0.08600 0.14475 0.14426
 C107 C 0.08604 0.16385 0.12513
 C108 C 0.10508 0.16394 0.10601
 C109 C 0.12425 0.14488 0.10589
 C110 C 0.12425 0.12557 0.12517
 C111 C 0.10517 0.10634 0.16349
 C112 C 0.12427 0.08726 0.16346
 C113 C 0.14335 0.08722 0.14440
 C114 C 0.14349 0.10629 0.12519
 C115 C 0.16250 0.10645 0.10601
 C116 C 0.16245 0.12561 0.08693
 C117 C 0.14341 0.14475 0.08685
 H118 H 0.07117 0.14488 0.15898
 H119 H 0.10493 0.17883 0.09129
 H120 H 0.09048 0.10618 0.17835
 H121 H 0.15804 0.07234 0.14455
 H122 H 0.17733 0.09172 0.10588
 H123 H 0.14356 0.15949 0.07198
 C124 C 0.39445 0.87499 0.64446
 C125 C 0.41349 0.85579 0.64430
 C126 C 0.41347 0.83672 0.62519
 C127 C 0.39441 0.83667 0.60608
 C128 C 0.37522 0.85573 0.60594
 C129 C 0.37521 0.87499 0.62520
 C130 C 0.39429 0.89418 0.66350
 C131 C 0.37519 0.91326 0.66345
 C132 C 0.35610 0.91331 0.64439
 C133 C 0.35596 0.89427 0.62520
 C134 C 0.33694 0.89413 0.60602
 C135 C 0.33700 0.87502 0.58695
 C136 C 0.35605 0.85589 0.58690
 H137 H 0.42833 0.85565 0.65901
 H138 H 0.39456 0.82182 0.59138
 H139 H 0.40898 0.89432 0.67835
 H140 H 0.34140 0.92818 0.64453
 H141 H 0.32210 0.90886 0.60588
 H142 H 0.35591 0.84117 0.57205
 C143 C 0.89482 0.62494 0.35547
 C144 C 0.91386 0.64420 0.35560
 C145 C 0.91381 0.66333 0.37466
 C146 C 0.89472 0.66335 0.39375
 C147 C 0.87554 0.64424 0.39391
 C148 C 0.87555 0.62492 0.37470
 C149 C 0.89468 0.60569 0.33647
 C150 C 0.87558 0.58656 0.33653
 C151 C 0.85646 0.58650 0.35557
 C152 C 0.85630 0.60560 0.37471
 C153 C 0.83724 0.60573 0.39387
 C154 C 0.83726 0.62489 0.41289
 C155 C 0.85633 0.64407 0.41292
 H156 H 0.92871 0.64435 0.34091
 H157 H 0.89485 0.67824 0.40842
 H158 H 0.90940 0.60556 0.32164
 H159 H 0.84176 0.57160 0.35544
 H160 H 0.82240 0.59096 0.39402
 H161 H 0.85617 0.65882 0.42774
 C162 C 0.60584 0.37513 -0.14455
 C163 C 0.58677 0.35592 -0.14436
 C164 C 0.58680 0.33679 -0.12525
 C165 C 0.60587 0.33670 -0.10617
 C166 C 0.62509 0.35577 -0.10606
 C167 C 0.62511 0.37509 -0.12532
 C168 C 0.60600 0.39438 -0.16359
 C169 C 0.62514 0.41348 -0.16359
 C170 C 0.64427 0.41349 -0.14455
 C171 C 0.64440 0.39438 -0.12535
 C172 C 0.66345 0.39418 -0.10619
 C173 C 0.66337 0.37499 -0.08713
 C174 C 0.64428 0.35586 -0.08706
 H175 H 0.57191 0.35580 -0.15904
 H176 H 0.60571 0.32179 -0.09147
 H177 H 0.59128 0.39454 -0.17841
 H178 H 0.65900 0.42837 -0.14471
 H179 H 0.67833 0.40891 -0.10606
 H180 H 0.64440 0.34109 -0.07221
 C181 C -0.00514 0.25528 0.12531
 C182 C -0.00018 0.24339 0.15195
 C183 C 0.01835 0.22478 0.15191
 C184 C 0.03010 0.21990 0.12523
 C185 C 0.03979 0.24640 0.11610
 C186 C 0.02126 0.26501 0.11614
 C187 C -0.01143 0.23227 0.10777
 C188 C 0.00710 0.21366 0.10774
 C189 C -0.02509 0.27530 0.12532
 C190 C -0.04153 0.29170 0.12523
 C191 C 0.05005 0.19989 0.12518
 C192 C 0.06646 0.18346 0.12514
 H193 H -0.01035 0.24907 0.16931
 H194 H 0.02406 0.21451 0.16924
 H195 H 0.05947 0.25020 0.11013
 H196 H 0.02507 0.28476 0.11020
 H197 H -0.02891 0.23072 0.09641
 H198 H 0.00549 0.19617 0.09634
 C199 C 0.50466 0.74514 0.62536
 C200 C 0.47729 0.73455 0.62917
 C201 C 0.45878 0.75318 0.62912
 C202 C 0.46944 0.78059 0.62527
 C203 C 0.48498 0.77935 0.60015
 C204 C 0.50349 0.76071 0.60019
 C205 C 0.50814 0.76540 0.64665
 C206 C 0.48962 0.78403 0.64660
 C207 C 0.52460 0.72507 0.62540
 C208 C 0.54103 0.70862 0.62536
 C209 C 0.44949 0.80064 0.62522
 C210 C 0.43308 0.81709 0.62520
 H211 H 0.47284 0.71420 0.63167
 H212 H 0.43848 0.74880 0.63158
 H213 H 0.48174 0.79200 0.58377
 H214 H 0.51611 0.75740 0.58385
 H215 H 0.52378 0.76514 0.66052
 H216 H 0.48941 0.79974 0.66043
 C217 C 1.00510 0.75513 0.37454
 C218 C 0.98626 0.75717 0.39723
 C219 C 0.96771 0.73851 0.39725
 C220 C 0.96981 0.71963 0.37458
 C221 C 0.99732 0.70890 0.37606
 C222 C 1.01586 0.72756 0.37604
 C223 C 0.98807 0.75539 0.35038
 C224 C 0.96952 0.73673 0.35040
 C225 C 1.02511 0.77520 0.37455
 C226 C 1.04159 0.79165 0.37465
 C227 C 0.94983 0.69953 0.37460
 C228 C 0.93342 0.68303 0.37463
 H229 H 0.98738 0.77196 0.41199
 H230 H 0.95296 0.73732 0.41203
 H231 H 1.00183 0.68846 0.37705
 H232 H 1.03626 0.72308 0.37702
 H233 H 0.99036 0.76904 0.33464
 H234 H 0.95593 0.73440 0.33467
 C235 C 0.49543 0.24530 -0.12516
 C236 C 0.49229 0.26528 -0.14681
 C237 C 0.51088 0.28389 -0.14681
 C238 C 0.53077 0.28069 -0.12517
 C239 C 0.54137 0.25323 -0.12847
 C240 C 0.52279 0.23462 -0.12846
 C241 C 0.49634 0.26117 -0.10022
 C242 C 0.51492 0.27978 -0.10023
 C243 C 0.47544 0.22529 -0.12512
 C244 C 0.45897 0.20887 -0.12501
 C245 C 0.55075 0.30071 -0.12519
 C246 C 0.56718 0.31716 -0.12522
 H247 H 0.47684 0.26485 -0.16089
 H248 H 0.51135 0.29941 -0.16090
 H249 H 0.56169 0.24879 -0.13061
 H250 H 0.52718 0.21424 -0.13061
 H251 H 0.48351 0.25807 -0.08399
 H252 H 0.51802 0.29262 -0.08400
 C253 C 0.12425 -0.00445 0.25463
 C254 C 0.10540 0.01770 0.26006
 C255 C 0.10540 0.03638 0.24155
 C256 C 0.12427 0.03108 0.21942
 C257 C 0.11686 0.00423 0.20930
 C258 C 0.11685 -0.01445 0.22781
 C259 C 0.15053 0.00869 0.25098
 C260 C 0.15054 0.02737 0.23246
 C261 C 0.12425 -0.02455 0.27456
 C262 C 0.12432 -0.04103 0.29097
 C263 C 0.12427 0.05115 0.19949
 C264 C 0.12427 0.06762 0.18307
 H265 H 0.09314 0.01864 0.27698
 H266 H 0.09316 0.05332 0.24259
 H267 H 0.11205 0.00025 0.18934
 H268 H 0.11204 -0.03444 0.22372
 H269 H 0.16762 0.00377 0.26198
 H270 H 0.16763 0.03845 0.22759
 C271 C 0.62481 0.50509 -0.25506
 C272 C 0.61296 0.51391 -0.22945
 C273 C 0.61305 0.49530 -0.21086
 C274 C 0.62497 0.46968 -0.21968
 C275 C 0.65195 0.47684 -0.22946
 C276 C 0.65187 0.49545 -0.24805
 C277 C 0.60972 0.48070 -0.26250
 C278 C 0.60980 0.46208 -0.24390
 C279 C 0.62476 0.52514 -0.27510
 C280 C 0.62481 0.54157 -0.29160
 C281 C 0.62506 0.44964 -0.19966
 C282 C 0.62512 0.43317 -0.18321
 H283 H 0.60519 0.53309 -0.22621
 H284 H 0.60534 0.49853 -0.19170
 H285 H 0.66957 0.46805 -0.22240
 H286 H 0.66943 0.50261 -0.25691
 H287 H 0.59984 0.47826 -0.28076
 H288 H 0.59999 0.44370 -0.24624
 C289 C 0.37515 1.00470 0.75471
 C290 C 0.38233 1.01489 0.72786
 C291 C 0.38234 0.99630 0.70930
 C292 C 0.37517 0.96935 0.71941
 C293 C 0.34895 0.97283 0.73261
 C294 C 0.34894 0.99142 0.75117
 C295 C 0.39418 0.98266 0.75997
 C296 C 0.39419 0.96408 0.74142
 C297 C 0.37511 1.02467 0.77471
 C298 C 0.37502 1.04103 0.79120
 C299 C 0.37517 0.94934 0.69944
 C300 C 0.37518 0.93289 0.68304
 H301 H 0.38700 1.03494 0.72379
 H302 H 0.38701 1.00042 0.68933
 H303 H 0.33189 0.96168 0.72780
 H304 H 0.33187 0.99620 0.76225
 H305 H 0.40657 0.98174 0.77679
 H306 H 0.40659 0.94723 0.74235
 C307 C 0.87580 0.49490 0.24543
 C308 C 0.89340 0.48878 0.26839
 C309 C 0.89333 0.50740 0.28691
 C310 C 0.87567 0.53033 0.28066
 C311 C 0.84907 0.51831 0.27580
 C312 C 0.84914 0.49968 0.25728
 C313 C 0.88475 0.52145 0.23569
 C314 C 0.88469 0.54007 0.25421
 C315 C 0.87585 0.47487 0.22546
 C316 C 0.87580 0.45846 0.20901
 C317 C 0.87562 0.55039 0.30060
 C318 C 0.87559 0.56688 0.31697
 H319 H 0.90489 0.47134 0.26997
 H320 H 0.90477 0.50592 0.30435
 H321 H 0.83172 0.52393 0.28600
 H322 H 0.83184 0.48935 0.25161
 H323 H 0.89061 0.52529 0.21597
 H324 H 0.89049 0.55986 0.25036
 C325 C 0.25379 0.12534 -0.00422
 C326 C 0.24651 0.09826 0.00542
 C327 C 0.22793 0.09833 0.02396
 C328 C 0.21846 0.12548 0.03103
 C329 C 0.20974 0.13755 0.00545
 C330 C 0.22832 0.13748 -0.01308
 C331 C 0.26141 0.14040 0.02007
 C332 C 0.24283 0.14047 0.03861
 C333 C 0.27376 0.12527 -0.02418
 C334 C 0.29016 0.12522 -0.04060
 C335 C 0.19847 0.12556 0.05096
 C336 C 0.18204 0.12560 0.06735
 H337 H 0.25520 0.08058 -0.00167
 H338 H 0.22070 0.08071 0.03275
 H339 H 0.19066 0.14545 0.00219
 H340 H 0.22516 0.14532 -0.03223
 H341 H 0.27978 0.15013 0.02250
 H342 H 0.24528 0.15026 0.05692
 C343 C 0.74588 0.62478 0.50418
 C344 C 0.73869 0.64062 0.48021
 C345 C 0.75725 0.64064 0.46164
 C346 C 0.78118 0.62482 0.46885
 C347 C 0.77090 0.59777 0.47537
 C348 C 0.75234 0.59775 0.49394
 C349 C 0.77171 0.63600 0.51323
 C350 C 0.79027 0.63601 0.49466
 C351 C 0.72591 0.62476 0.52419
 C352 C 0.70952 0.62474 0.54065
 C353 C 0.80118 0.62484 0.44887
 C354 C 0.81762 0.62487 0.43247
 H355 H 0.72062 0.65091 0.47801
 H356 H 0.75507 0.65094 0.44354
 H357 H 0.77759 0.58018 0.46620
 H358 H 0.74314 0.58015 0.50067
 H359 H 0.77513 0.64329 0.53253
 H360 H 0.80958 0.64332 0.49806
 C361 C 0.75462 0.37455 0.00418
 C362 C 0.72737 0.36982 0.01466
 C363 C 0.70882 0.36990 -0.00390
 C364 C 0.71933 0.37470 -0.03113
 C365 C 0.73996 0.35387 -0.03510
 C366 C 0.75851 0.35379 -0.01654
 C367 C 0.75286 0.40013 -0.01071
 C368 C 0.73431 0.40021 -0.02927
 C369 C 0.77458 0.37448 0.02415
 C370 C 0.79099 0.37445 0.04057
 C371 C 0.69937 0.37481 -0.05112
 C372 C 0.68297 0.37491 -0.06754
 H373 H 0.72303 0.36668 0.03489
 H374 H 0.68859 0.36682 0.00042
 H375 H 0.73998 0.34036 -0.05108
 H376 H 0.77444 0.34022 -0.01662
 H377 H 0.76512 0.41672 -0.00699
 H378 H 0.73067 0.41687 -0.04145
 C379 C 0.24564 0.87507 0.49570
 C380 C 0.27024 0.86068 0.48782
 C381 C 0.28881 0.86068 0.50636
 C382 C 0.28099 0.87508 0.53097
 C383 C 0.25570 0.86233 0.53956
 C384 C 0.23712 0.86232 0.52102
 C385 C 0.25473 0.90223 0.50334
 C386 C 0.27331 0.90224 0.52188
 C387 C 0.22562 0.87503 0.47576
 C388 C 0.20916 0.87498 0.45939
 C389 C 0.30098 0.87507 0.55093
 C390 C 0.31740 0.87505 0.56734
 H391 H 0.27284 0.85133 0.46930
 H392 H 0.30733 0.85134 0.50372
 H393 H 0.25264 0.85405 0.55855
 H394 H 0.21815 0.85403 0.52413
 H395 H 0.24723 0.91990 0.49493
 H396 H 0.28172 0.91991 0.52936
   
