data_POSCAR
  _audit_creation_date              2014-09-24
  _audit_creation_method            'ToBaCCo'
  _symmetry_space_group_name_H-M    'P1'
  _symmetry_Int_Tables_number       1
  _symmetry_cell_setting            triclinic
  loop_
  _symmetry_equiv_pos_as_xyz
 x,y,z
_cell_length_a 23.0830
_cell_length_b 22.0927
_cell_length_c 23.1622
_cell_angle_alpha 137.895100
_cell_angle_beta 88.662100
_cell_angle_gamma 72.403400
loop_
  _atom_site_label
  _atom_site_type_symbol
  _atom_site_fract_x
  _atom_site_fract_y
  _atom_site_fract_z
C1 C 0.49979 0.47652 -0.01395
 C2 C 0.45521 0.52115 -0.02447
 C3 C 0.38510 0.54923 0.00601
 C4 C 0.47421 0.54516 -0.06502
 C5 C 0.57076 0.44471 -0.04499
 C6 C 0.47965 0.46197 0.03461
 C7 C 0.36430 0.47533 -0.05328
 C8 C 0.29818 0.50110 -0.02530
 C9 C 0.25070 0.60283 0.06117
 C10 C 0.27251 0.67663 0.12007
 C11 C 0.33913 0.64923 0.09371
 C12 C 0.52581 0.46896 -0.15255
 C13 C 0.54827 0.49476 -0.18515
 C14 C 0.51871 0.59705 -0.13119
 C15 C 0.46421 0.67169 -0.04685
 C16 C 0.44239 0.64616 -0.01395
 C17 C 0.59256 0.51713 -0.00376
 C18 C 0.66010 0.48616 -0.02883
 C19 C 0.70690 0.38247 -0.09503
 C20 C 0.68452 0.31002 -0.13767
 C21 C 0.61719 0.34104 -0.11251
 C22 C 0.47969 0.52460 0.12423
 C23 C 0.46867 0.50466 0.16711
 C24 C 0.45859 0.42025 0.12009
 C25 C 0.45650 0.35962 0.03129
 C26 C 0.46729 0.38001 -0.01130
 H27 H 0.39940 0.39749 -0.12129
 H28 H 0.28419 0.44151 -0.07313
 H29 H 0.23905 0.75555 0.18765
 H30 H 0.35467 0.70652 0.14178
 H31 H 0.54986 0.39025 -0.19394
 H32 H 0.58926 0.43540 -0.25153
 H33 H 0.40246 0.70688 0.05350
 H34 H 0.55730 0.59772 0.04923
 H35 H 0.67568 0.54380 0.00521
 H36 H 0.71854 0.22942 -0.18953
 H37 H 0.60116 0.28411 -0.14512
 H38 H 0.48995 0.58748 0.15998
 H39 H 0.47006 0.55370 0.23572
 H40 H 0.44942 0.29354 -0.00718
 H41 H 0.46862 0.32947 -0.08143
 H42 H 0.44031 0.75121 -0.00376
 C43 C 0.01152 0.51943 0.52478
 C44 C -0.01157 0.46499 0.45574
 C45 C -0.01595 0.37799 0.42156
 C46 C -0.03519 0.49299 0.41567
 C47 C 0.02192 0.60172 0.55606
 C48 C 0.02916 0.49487 0.56864
 C49 C 0.03419 0.27702 0.34008
 C50 C 0.03657 0.19680 0.31665
 C51 C -0.00976 0.21714 0.37620
 C52 C -0.06053 0.31772 0.45681
 C53 C -0.06438 0.39734 0.47835
 C54 C -0.00376 0.42447 0.32086
 C55 C -0.02161 0.45528 0.28582
 C56 C -0.07161 0.55493 0.34460
 C57 C -0.10459 0.62233 0.43899
 C58 C -0.08660 0.59150 0.47396
 C59 C -0.00728 0.70099 0.65072
 C60 C -0.00348 0.78086 0.67819
 C61 C 0.02926 0.76251 0.61116
 C62 C 0.06131 0.66225 0.51737
 C63 C 0.05868 0.58227 0.49033
 C64 C -0.01764 0.54714 0.64981
 C65 C -0.00475 0.51432 0.68362
 C66 C 0.05483 0.42787 0.63622
 C67 C 0.10242 0.37731 0.55615
 C68 C 0.08962 0.41073 0.52279
 H69 H 0.07346 0.26082 0.29722
 H70 H 0.07676 0.11985 0.25487
 H71 H -0.09661 0.33475 0.50361
 H72 H -0.10293 0.47506 0.54210
 H73 H 0.03639 0.34849 0.27440
 H74 H 0.00463 0.40143 0.21283
 H75 H -0.11168 0.64549 0.54731
 H76 H -0.03548 0.71804 0.70298
 H77 H -0.02892 0.85764 0.75093
 H78 H 0.08746 0.64606 0.46458
 H79 H 0.08336 0.50569 0.41736
 H80 H -0.06525 0.61061 0.68470
 H81 H -0.04235 0.55470 0.74529
 H82 H 0.14923 0.31138 0.51847
 H83 H 0.12590 0.36887 0.45935
 H84 H -0.14331 0.69967 0.48678
 C85 C 0.51659 0.03284 0.50041
 C86 C 0.49147 0.00520 0.52737
 C87 C 0.51280 0.00551 0.58822
 C88 C 0.44162 -0.02960 0.49445
 C89 C 0.48912 0.04324 0.44926
 C90 C 0.57162 0.05711 0.52208
 C91 C 0.51649 -0.07015 0.57346
 C92 C 0.53532 -0.07063 0.63006
 C93 C 0.55486 0.00072 0.69920
 C94 C 0.55057 0.07713 0.71488
 C95 C 0.52677 0.08228 0.66314
 C96 C 0.45726 -0.11857 0.39887
 C97 C 0.41052 -0.15218 0.36861
 C98 C 0.34737 -0.09693 0.43360
 C99 C 0.33185 -0.00755 0.52906
 C100 C 0.37883 0.02519 0.55932
 C101 C 0.42187 0.10803 0.48545
 C102 C 0.39775 0.12223 0.43951
 C103 C 0.44082 0.07318 0.35751
 C104 C 0.50794 0.00846 0.32165
 C105 C 0.53180 -0.00642 0.36696
 C106 C 0.56107 0.15546 0.57717
 C107 C 0.61113 0.18171 0.60154
 C108 C 0.67354 0.10945 0.56988
 C109 C 0.68483 0.00912 0.51078
 C110 C 0.63405 -0.01651 0.48789
 H111 H 0.50488 -0.12946 0.51781
 H112 H 0.53730 -0.12978 0.61687
 H113 H 0.56196 0.13671 0.77059
 H114 H 0.51899 0.14716 0.68278
 H115 H 0.50576 -0.16207 0.34797
 H116 H 0.42355 -0.22033 0.29454
 H117 H 0.36614 0.09378 0.63329
 H118 H 0.38838 0.14941 0.55035
 H119 H 0.34596 0.17371 0.46970
 H120 H 0.54227 -0.03049 0.25852
 H121 H 0.58388 -0.05608 0.33825
 H122 H 0.51347 0.21268 0.60279
 H123 H 0.60103 0.25782 0.64275
 H124 H 0.73240 -0.04901 0.48405
 H125 H 0.64322 -0.09338 0.44398
 H126 H 0.28353 0.03642 0.58052
 O127 O 0.50252 -0.02120 -0.10358
 O128 O 0.41855 0.06703 0.10129
 O129 O 0.43856 0.15235 0.06954
 O130 O 0.48573 -0.11211 -0.07457
 O131 O 0.58242 -0.13265 -0.06214
 O132 O 0.52587 0.14172 0.10552
 O133 O 0.51352 0.03687 0.11667
 O134 O 0.59121 -0.02185 -0.06953
 Cu135 Cu 0.45212 0.02181 -0.00501
 Cu136 Cu 0.56273 0.00325 0.02462
 C137 C 0.55885 -0.02690 -0.11538
 C138 C 0.45268 0.06371 0.14189
 C139 C 0.47496 0.19122 0.11069
 C140 C 0.54198 -0.16709 -0.09241
 O141 O -0.11182 0.50238 0.97674
 O142 O -0.00184 0.61777 1.06454
 O143 O -0.02439 0.51149 0.91224
 O144 O -0.08548 0.60363 1.12590
 O145 O -0.00548 0.46016 1.05853
 O146 O 0.05391 0.36636 0.84385
 O147 O 0.07870 0.47209 0.99298
 O148 O -0.03260 0.35812 0.90886
 Cu149 Cu -0.06385 0.57314 1.02647
 Cu150 Cu 0.03135 0.39969 0.94451
 C151 C -0.09099 0.41068 0.92835
 C152 C 0.05712 0.56460 1.04294
 C153 C 0.02557 0.42369 0.84211
 C154 C -0.05564 0.54753 1.12857
 O155 O 0.02003 -0.10756 0.49580
 O156 O 0.01171 -0.05162 0.38049
 O157 O 0.10609 -0.13670 0.39333
 O158 O -0.07484 -0.02257 0.48293
 O159 O -0.08283 0.12899 0.60978
 O160 O 0.09731 0.01526 0.52107
 O161 O 0.00294 0.10037 0.50801
 O162 O 0.01165 0.04370 0.62366
 Cu163 Cu 0.01642 -0.09482 0.42564
 Cu164 Cu 0.00641 0.08731 0.57861
 C165 C 0.01751 -0.04222 0.57872
 C166 C 0.00598 0.03400 0.42464
 C167 C 0.13233 -0.07969 0.44227
 C168 C -0.10952 0.07289 0.56090
 C169 C -0.22183 0.35219 0.88463
 C170 C -0.17149 0.25426 0.82564
 C171 C -0.11559 0.26333 0.83349
 C172 C -0.13532 0.36525 0.89571
 O173 O -0.19959 0.41949 0.92691
 H174 H -0.17451 0.18445 0.78314
 H175 H -0.06639 0.20340 0.79927
 C176 C 0.18626 0.62759 1.08488
 C177 C 0.13380 0.72613 1.16158
 C178 C 0.07858 0.71493 1.15445
 C179 C 0.10070 0.61119 1.07639
 O180 O 0.16565 0.55786 1.03363
 H181 H 0.13439 0.79855 1.21520
 H182 H 0.02794 0.77504 1.20090
 C183 C 0.02598 -0.15264 0.63573
 C184 C 0.01778 -0.05948 0.72194
 C185 C 0.01506 -0.00465 0.71243
 C186 C 0.02096 -0.06824 0.62162
 O187 O 0.02799 -0.15782 0.57513
 H188 H 0.01439 -0.03459 0.78399
 H189 H 0.00907 0.07226 0.76540
 C190 C -0.00278 0.13499 0.35755
 C191 C 0.01404 0.03622 0.27059
 C192 C 0.01749 -0.01463 0.28450
 C193 C 0.00364 0.05649 0.37859
 O194 O -0.00910 0.14762 0.42325
 H195 H 0.02277 0.00522 0.20511
 H196 H 0.02982 -0.09433 0.23191
 C197 C 0.57592 -0.00279 -0.24668
 C198 C 0.61485 0.03877 -0.19887
 C199 C 0.61996 0.02297 -0.15211
 C200 C 0.58267 -0.02477 -0.17280
 O201 O 0.55645 -0.04147 -0.23085
 H202 H 0.63644 0.07703 -0.19718
 H203 H 0.64331 0.05100 -0.10242
 C204 C 0.41802 0.09010 0.30938
 C205 C 0.35353 0.13018 0.32047
 C206 C 0.35708 0.12737 0.25942
 C207 C 0.42322 0.08677 0.21664
 O208 O 0.46000 0.06410 0.24657
 H209 H 0.30940 0.15601 0.36562
 H210 H 0.31659 0.15078 0.24680
 C211 C 0.54675 -0.37013 -0.15657
 C212 C 0.61236 -0.41862 -0.20867
 C213 C 0.61928 -0.35083 -0.19653
 C214 C 0.55724 -0.26736 -0.13973
 O215 O 0.51350 -0.27874 -0.11533
 H216 H 0.65156 -0.49055 -0.24454
 H217 H 0.66459 -0.35870 -0.22149
 C218 C 0.45688 0.38778 0.15744
 C219 C 0.47547 0.42250 0.23002
 C220 C 0.48005 0.35718 0.22718
 C221 C 0.46274 0.28895 0.15457
 O222 O 0.44880 0.30720 0.11238
 H223 H 0.48927 0.48260 0.27499
 H224 H 0.49797 0.35534 0.26885
 C225 C -0.27590 0.13564 0.59516
 C226 C -0.28407 0.23459 0.66598
 C227 C -0.22275 0.22403 0.66475
 C228 C -0.18148 0.11986 0.59330
 O229 O -0.21333 0.06598 0.55137
 H230 H -0.32899 0.30650 0.71449
 H231 H -0.20949 0.28491 0.70931
 C232 C 0.29682 -0.13016 0.40367
 C233 C 0.30885 -0.22874 0.32089
 C234 C 0.24833 -0.22399 0.32429
 C235 C 0.20410 -0.12285 0.40825
 O236 O 0.23326 -0.06612 0.45668
 H237 H 0.35585 -0.29625 0.26534
 H238 H 0.23768 -0.28643 0.27187
 C239 C -0.08714 0.58752 1.30675
 C240 C -0.13781 0.68032 1.35466
 C241 C -0.13281 0.67778 1.29404
 C242 C -0.07960 0.58398 1.21368
 O243 O -0.05188 0.52914 1.22104
 H244 H -0.17435 0.74278 1.42510
 H245 H -0.16418 0.73721 1.30690
 C246 C 0.06566 0.39111 0.67052
 C247 C 0.11458 0.29667 0.62129
 C248 C 0.10552 0.29551 0.67878
 C249 C 0.05180 0.38897 0.75862
 O250 O 0.02744 0.44687 0.75379
 H251 H 0.15211 0.23531 0.55168
 H252 H 0.13474 0.23413 0.66443
   
