data_POSCAR
  _audit_creation_date              2014-09-24
  _audit_creation_method            'ToBaCCo'
  _symmetry_space_group_name_H-M    'P1'
  _symmetry_Int_Tables_number       1
  _symmetry_cell_setting            triclinic
  loop_
  _symmetry_equiv_pos_as_xyz
 x,y,z
_cell_length_a 37.8917
_cell_length_b 50.0020
_cell_length_c 36.0269
_cell_angle_alpha 90.085900
_cell_angle_beta 90.000200
_cell_angle_gamma 90.083700
loop_
  _atom_site_label
  _atom_site_type_symbol
  _atom_site_fract_x
  _atom_site_fract_y
  _atom_site_fract_z
O1 O 0.24427 0.27552 0.20666
 O2 O 0.29187 0.22355 0.25881
 O3 O 0.24437 0.22333 0.20657
 O4 O 0.29176 0.27553 0.25890
 O5 O 0.24958 0.27545 0.30133
 O6 O 0.20218 0.22323 0.24898
 O7 O 0.24969 0.22346 0.30124
 O8 O 0.20208 0.27544 0.24907
 Cu9 Cu 0.27228 0.24949 0.22840
 Cu10 Cu 0.22158 0.24939 0.27938
 C11 C 0.21521 0.28433 0.21912
 C12 C 0.27888 0.21480 0.28888
 C13 C 0.21533 0.21440 0.21899
 C14 C 0.27873 0.28424 0.28901
 O15 O 0.79185 0.27554 0.24063
 O16 O 0.74447 0.22342 0.29290
 O17 O 0.79197 0.22356 0.24066
 O18 O 0.74436 0.27561 0.29288
 O19 O 0.70217 0.27546 0.25047
 O20 O 0.74978 0.22340 0.19823
 O21 O 0.70228 0.22325 0.25050
 O22 O 0.74966 0.27539 0.19820
 Cu23 Cu 0.77237 0.24955 0.27110
 Cu24 Cu 0.72167 0.24936 0.22012
 C25 C 0.77881 0.28421 0.21054
 C26 C 0.71543 0.21447 0.28047
 C27 C 0.77897 0.21476 0.21057
 C28 C 0.71530 0.28439 0.28043
 O29 O 0.74521 0.77659 0.70787
 O30 O 0.79249 0.72449 0.76009
 O31 O 0.74498 0.72440 0.70786
 O32 O 0.79273 0.77647 0.76009
 O33 O 0.75056 0.77658 0.80254
 O34 O 0.70281 0.72449 0.75029
 O35 O 0.75032 0.72458 0.80254
 O36 O 0.70303 0.77670 0.75030
 Cu37 Cu 0.77306 0.75048 0.72965
 Cu38 Cu 0.72238 0.75060 0.78065
 C39 C 0.71620 0.78550 0.72033
 C40 C 0.77944 0.71580 0.79018
 C41 C 0.71590 0.71559 0.72032
 C42 C 0.77977 0.78525 0.79019
 O43 O 0.29208 0.77653 0.74083
 O44 O 0.24449 0.72448 0.79304
 O45 O 0.29199 0.72455 0.74080
 O46 O 0.24457 0.77667 0.79306
 O47 O 0.20239 0.77664 0.75064
 O48 O 0.24982 0.72450 0.69836
 O49 O 0.20231 0.72443 0.75062
 O50 O 0.24991 0.77650 0.69839
 Cu51 Cu 0.27249 0.75057 0.77126
 Cu52 Cu 0.22181 0.75052 0.72027
 C53 C 0.27909 0.78524 0.71074
 C54 C 0.21543 0.71560 0.78058
 C55 C 0.27896 0.71579 0.71071
 C56 C 0.21553 0.78552 0.78062
 C57 C 0.98446 -0.00033 -0.00023
 C58 C 1.02046 -0.00029 -0.00023
 C59 C 1.04097 0.01917 0.02235
 C60 C 1.04098 -0.01970 -0.02281
 C61 C 0.96386 -0.02167 -0.01914
 C62 C 0.96385 0.02097 0.01869
 C63 C 1.06652 0.03535 0.00533
 C64 C 1.08498 0.05446 0.02599
 C65 C 1.07839 0.05763 0.06416
 C66 C 1.05341 0.04090 0.08133
 C67 C 1.03504 0.02174 0.06066
 C68 C 1.03504 -0.02229 -0.06112
 C69 C 1.05343 -0.04139 -0.08178
 C70 C 1.07843 -0.05805 -0.06461
 C71 C 1.08502 -0.05487 -0.02645
 C72 C 1.06654 -0.03581 -0.00579
 C73 C 0.96957 -0.04877 -0.01093
 C74 C 0.95047 -0.06866 -0.02942
 C75 C 0.92499 -0.06181 -0.05614
 C76 C 0.91885 -0.03464 -0.06372
 C77 C 0.93803 -0.01478 -0.04530
 C78 C 0.93804 0.01401 0.04486
 C79 C 0.91887 0.03383 0.06329
 C80 C 0.92501 0.06102 0.05571
 C81 C 0.95047 0.06792 0.02897
 C82 C 0.96956 0.04807 0.01047
 H83 H 1.07157 0.03360 -0.02417
 H84 H 1.10383 0.06719 0.01190
 H85 H 1.04824 0.04251 0.11080
 H86 H 1.01598 0.00904 0.07449
 H87 H 1.01597 -0.00963 -0.07494
 H88 H 1.04826 -0.04302 -0.11126
 H89 H 1.07159 -0.03404 0.02371
 H90 H 0.98884 -0.05449 0.00978
 H91 H 0.95534 -0.08940 -0.02251
 H92 H 0.89967 -0.02874 -0.08441
 H93 H 0.93315 0.00602 -0.05192
 H94 H 0.93317 -0.00680 0.05148
 H95 H 0.89970 0.02789 0.08399
 H96 H 0.95534 0.08867 0.02206
 H97 H 0.98882 0.05383 -0.01025
 H98 H 1.10387 -0.06755 -0.01236
 C99 C 0.48343 0.50003 0.50014
 C100 C 0.51943 0.50003 0.50019
 C101 C 0.53997 0.51948 0.52276
 C102 C 0.53993 0.48056 0.47767
 C103 C 0.46281 0.47868 0.48127
 C104 C 0.46286 0.52139 0.51896
 C105 C 0.56559 0.53560 0.50574
 C106 C 0.58408 0.55469 0.52639
 C107 C 0.57745 0.55791 0.56454
 C108 C 0.55239 0.54125 0.58170
 C109 C 0.53399 0.52211 0.56105
 C110 C 0.53402 0.47794 0.43936
 C111 C 0.55238 0.45879 0.41875
 C112 C 0.57731 0.44211 0.43598
 C113 C 0.58388 0.44533 0.47415
 C114 C 0.56543 0.46443 0.49475
 C115 C 0.46848 0.45159 0.48957
 C116 C 0.44943 0.43169 0.47107
 C117 C 0.42404 0.43851 0.44424
 C118 C 0.41792 0.46567 0.43659
 C119 C 0.43705 0.48555 0.45503
 C120 C 0.43701 0.51452 0.54514
 C121 C 0.41791 0.53440 0.56351
 C122 C 0.42417 0.56157 0.55588
 C123 C 0.44965 0.56839 0.52913
 C124 C 0.46867 0.54847 0.51068
 H125 H 0.57067 0.53380 0.47625
 H126 H 0.60299 0.56738 0.51230
 H127 H 0.54719 0.54291 0.61117
 H128 H 0.51487 0.50945 0.57487
 H129 H 0.51500 0.49062 0.42549
 H130 H 0.54723 0.45714 0.38927
 H131 H 0.57046 0.46622 0.52425
 H132 H 0.48769 0.44589 0.51035
 H133 H 0.45428 0.41096 0.47803
 H134 H 0.39881 0.47155 0.41582
 H135 H 0.43221 0.50634 0.44834
 H136 H 0.43206 0.49373 0.55181
 H137 H 0.39872 0.52853 0.58423
 H138 H 0.45461 0.58911 0.52218
 H139 H 0.48796 0.55417 0.48996
 H140 H 0.60268 0.43263 0.48827
 C141 C 0.01945 0.49993 0.00008
 C142 C -0.01655 0.49995 0.00014
 C143 C -0.03718 0.47859 0.01892
 C144 C -0.03711 0.52132 -0.01858
 C145 C 0.03998 0.51938 -0.02242
 C146 C 0.03995 0.48047 0.02252
 C147 C -0.03151 0.45151 0.01050
 C148 C -0.05056 0.43160 0.02892
 C149 C -0.07594 0.43842 0.05578
 C150 C -0.08206 0.46559 0.06355
 C151 C -0.06293 0.48547 0.04520
 C152 C -0.06297 0.51446 -0.04478
 C153 C -0.08204 0.53436 -0.06308
 C154 C -0.07576 0.56152 -0.05534
 C155 C -0.05028 0.56832 -0.02854
 C156 C -0.03129 0.54840 -0.01017
 C157 C 0.06560 0.53550 -0.00535
 C158 C 0.08407 0.55461 -0.02593
 C159 C 0.07740 0.55784 -0.06406
 C160 C 0.05235 0.54116 -0.08128
 C161 C 0.03398 0.52200 -0.06070
 C162 C 0.03404 0.47785 0.06082
 C163 C 0.05238 0.45869 0.08135
 C164 C 0.07731 0.44200 0.06405
 C165 C 0.08388 0.44522 0.02589
 C166 C 0.06544 0.46433 0.00537
 H167 H -0.01230 0.44581 -0.01031
 H168 H -0.04571 0.41087 0.02187
 H169 H -0.10117 0.47146 0.08435
 H170 H -0.06777 0.50626 0.05197
 H171 H -0.06794 0.49368 -0.05154
 H172 H -0.10123 0.52850 -0.08383
 H173 H -0.01199 0.55408 0.01058
 H174 H 0.07070 0.53371 0.02413
 H175 H 0.10296 0.56731 -0.01180
 H176 H 0.04713 0.54281 -0.11074
 H177 H 0.01486 0.50933 -0.07456
 H178 H 0.01502 0.49053 0.07474
 H179 H 0.04724 0.45704 0.11082
 H180 H 0.10268 0.43252 0.01171
 H181 H 0.07046 0.46612 -0.02412
 H182 H -0.04530 0.58905 -0.02151
 C183 C 0.52050 1.00037 0.49985
 C184 C 0.48450 1.00031 0.49983
 C185 C 0.46391 0.97901 0.51877
 C186 C 0.46390 1.02154 0.48087
 C187 C 0.54102 1.01976 0.47725
 C188 C 0.54102 0.98103 0.52248
 C189 C 0.46964 0.95190 0.51059
 C190 C 0.45056 0.93205 0.52911
 C191 C 0.42508 0.93896 0.55582
 C192 C 0.41892 0.96616 0.56335
 C193 C 0.43807 0.98598 0.54491
 C194 C 0.43809 1.01450 0.45471
 C195 C 0.41891 1.03426 0.43625
 C196 C 0.42503 1.06147 0.44379
 C197 C 0.45048 1.06846 0.47052
 C198 C 0.46958 1.04868 0.48905
 C199 C 0.56656 1.03599 0.49425
 C200 C 0.58503 1.05504 0.47357
 C201 C 0.57845 1.05810 0.43539
 C202 C 0.55348 1.04131 0.41824
 C203 C 0.53510 1.02222 0.43893
 C204 C 0.53507 0.97855 0.56079
 C205 C 0.55344 0.95951 0.58149
 C206 C 0.57844 0.94280 0.56436
 C207 C 0.58506 0.94587 0.52619
 C208 C 0.56660 0.96487 0.50549
 H209 H 0.48892 0.94613 0.48989
 H210 H 0.45546 0.91130 0.52224
 H211 H 0.39973 0.97211 0.58404
 H212 H 0.43318 1.00679 0.55150
 H213 H 0.43323 0.99367 0.44812
 H214 H 0.39974 1.02825 0.41555
 H215 H 0.48883 1.05451 0.50977
 H216 H 0.57159 1.03433 0.52375
 H217 H 0.60386 1.06782 0.48764
 H218 H 0.54832 1.04284 0.38876
 H219 H 0.51604 1.00947 0.42512
 H220 H 0.51599 0.99125 0.57458
 H221 H 0.54826 0.95797 0.61097
 H222 H 0.60392 0.93315 0.51214
 H223 H 0.57166 0.96655 0.47600
 H224 H 0.45533 1.08923 0.47740
 C225 C 1.09643 0.11400 0.13229
 C226 C 1.13231 0.11890 0.12604
 C227 C 1.15068 0.10362 0.09985
 C228 C 1.13324 0.08358 0.07985
 C229 C 1.19810 0.19492 0.19992
 C230 C 1.07893 0.09396 0.11235
 C231 C 1.15022 0.13970 0.14633
 C232 C 1.16524 0.15714 0.16325
 C233 C 1.18291 0.17755 0.18303
 C234 C 1.09714 0.07856 0.08583
 H235 H 1.08192 0.12576 0.15242
 H236 H 1.17849 0.10720 0.09486
 H237 H 1.14806 0.07186 0.05996
 H238 H 1.05103 0.09083 0.11721
 C239 C 0.64986 0.60378 0.60026
 C240 C 0.63150 0.61913 0.62639
 C241 C 0.59559 0.61431 0.63260
 C242 C 0.57806 0.59429 0.61266
 C243 C 0.69756 0.69505 0.70020
 C244 C 0.63237 0.58377 0.58027
 C245 C 0.64946 0.63991 0.64668
 C246 C 0.66455 0.65733 0.66359
 C247 C 0.68229 0.67770 0.68334
 C248 C 0.59624 0.57883 0.58620
 H249 H 0.67768 0.60730 0.59530
 H250 H 0.58110 0.62612 0.65269
 H251 H 0.55014 0.59122 0.61748
 H252 H 0.64718 0.57200 0.56042
 C253 C -0.09718 0.37437 0.10764
 C254 C -0.13319 0.37767 0.11496
 C255 C -0.15059 0.40067 0.10264
 C256 C -0.13204 0.42037 0.08322
 C257 C -0.20253 0.30429 0.18999
 C258 C -0.07859 0.39404 0.08820
 C259 C -0.15223 0.35756 0.13535
 C260 C -0.16815 0.34076 0.15253
 C261 C -0.18674 0.32111 0.17272
 C262 C -0.09580 0.41730 0.07585
 H263 H -0.08344 0.35667 0.11716
 H264 H -0.17848 0.40339 0.10807
 H265 H -0.14611 0.43789 0.07367
 H266 H -0.05062 0.39127 0.08338
 C267 C 0.35024 0.90138 0.60258
 C268 C 0.36758 0.87842 0.61513
 C269 C 0.40362 0.87510 0.60802
 C270 C 0.42230 0.89470 0.58853
 C271 C 0.29785 0.80528 0.69021
 C272 C 0.36887 0.92101 0.58311
 C273 C 0.34844 0.85838 0.63555
 C274 C 0.33243 0.84164 0.65274
 C275 C 0.31373 0.82204 0.67294
 C276 C 0.40514 0.91792 0.57594
 H277 H 0.32232 0.90411 0.60785
 H278 H 0.41732 0.85743 0.61771
 H279 H 0.45029 0.89191 0.58387
 H280 H 0.35484 0.93850 0.57338
 C281 C -0.09677 0.62558 -0.10716
 C282 C -0.13281 0.62232 -0.11439
 C283 C -0.15031 0.59934 -0.10201
 C284 C -0.13182 0.57962 -0.08263
 C285 C -0.20195 0.69572 -0.18930
 C286 C -0.07824 0.60590 -0.08776
 C287 C -0.15179 0.64244 -0.13474
 C288 C -0.16766 0.65924 -0.15189
 C289 C -0.18619 0.67890 -0.17205
 C290 C -0.09555 0.58266 -0.07536
 H291 H -0.08295 0.64326 -0.11672
 H292 H -0.17822 0.59664 -0.10737
 H293 H -0.14597 0.56212 -0.07304
 H294 H -0.05024 0.60864 -0.08301
 C295 C 0.35014 1.09883 0.39700
 C296 C 0.36745 1.12184 0.38446
 C297 C 0.40348 1.12528 0.39160
 C298 C 0.42219 1.10573 0.41109
 C299 C 0.29765 1.19480 0.30940
 C300 C 0.36880 1.07925 0.41646
 C301 C 0.34829 1.14183 0.36405
 C302 C 0.33226 1.15853 0.34686
 C303 C 0.31354 1.17807 0.32666
 C304 C 0.40506 1.08245 0.42366
 H305 H 0.32223 1.09600 0.39171
 H306 H 0.41716 1.14299 0.38192
 H307 H 0.45017 1.10861 0.41577
 H308 H 0.35479 1.06172 0.42619
 C309 C 1.09652 -0.11437 -0.13275
 C310 C 1.13241 -0.11917 -0.12650
 C311 C 1.15077 -0.10384 -0.10030
 C312 C 1.13331 -0.08386 -0.08031
 C313 C 1.19828 -0.19504 -0.20033
 C314 C 1.07901 -0.09438 -0.11281
 C315 C 1.15034 -0.13993 -0.14678
 C316 C 1.16539 -0.15733 -0.16369
 C317 C 1.18307 -0.17770 -0.18345
 C318 C 1.09720 -0.07893 -0.08629
 H319 H 1.08203 -0.12618 -0.15288
 H320 H 1.17858 -0.10734 -0.09531
 H321 H 1.14812 -0.07209 -0.06041
 H322 H 1.05111 -0.09133 -0.11767
 C323 C 0.64956 0.39619 0.40043
 C324 C 0.63118 0.38086 0.37425
 C325 C 0.59531 0.38570 0.36796
 C326 C 0.57784 0.40573 0.38785
 C327 C 0.69702 0.30492 0.30053
 C328 C 0.63213 0.41621 0.42038
 C329 C 0.64909 0.36007 0.35400
 C330 C 0.66412 0.34265 0.33711
 C331 C 0.68180 0.32227 0.31738
 C332 C 0.59604 0.42118 0.41436
 H333 H 0.67736 0.39265 0.40545
 H334 H 0.58081 0.37390 0.34784
 H335 H 0.54994 0.40882 0.38297
 H336 H 0.64696 0.42797 0.44027
 C337 C 0.90344 -0.12582 -0.10823
 C338 C 0.86741 -0.12249 -0.11535
 C339 C 0.85009 -0.09949 -0.10283
 C340 C 0.86875 -0.07981 -0.08340
 C341 C 0.79756 -0.19577 -0.19038
 C342 C 0.92215 -0.10617 -0.08878
 C343 C 0.84824 -0.14258 -0.13574
 C344 C 0.83221 -0.15935 -0.15292
 C345 C 0.81348 -0.17897 -0.17311
 C346 C 0.90502 -0.08290 -0.07622
 H347 H 0.91712 -0.14352 -0.11790
 H348 H 0.82218 -0.09675 -0.10810
 H349 H 0.85474 -0.06229 -0.07368
 H350 H 0.95014 -0.10897 -0.08411
 C351 C 0.40279 0.37446 0.39212
 C352 C 0.36678 0.37775 0.38482
 C353 C 0.34939 0.40075 0.39725
 C354 C 0.36794 0.42046 0.41674
 C355 C 0.29740 0.30435 0.30959
 C356 C 0.42139 0.39413 0.41164
 C357 C 0.34773 0.35764 0.36437
 C358 C 0.33180 0.34084 0.34714
 C359 C 0.31320 0.32117 0.32690
 C360 C 0.40418 0.41739 0.42409
 H361 H 0.41653 0.35676 0.38253
 H362 H 0.32149 0.40347 0.39184
 H363 H 0.35387 0.43798 0.42637
 H364 H 0.44936 0.39136 0.41643
 C365 C 0.09540 0.61426 -0.13188
 C366 C 0.13131 0.61911 -0.12569
 C367 C 0.14971 0.60378 -0.09964
 C368 C 0.13227 0.58375 -0.07972
 C369 C 0.19716 0.69506 -0.19933
 C370 C 0.07791 0.59422 -0.11202
 C371 C 0.14922 0.63990 -0.14591
 C372 C 0.16426 0.65733 -0.16278
 C373 C 0.18195 0.67771 -0.18249
 C374 C 0.09614 0.57877 -0.08564
 H375 H 0.08088 0.62606 -0.15191
 H376 H 0.17754 0.60732 -0.09470
 H377 H 0.14711 0.57198 -0.05993
 H378 H 0.04999 0.59113 -0.11683
 C379 C 0.59651 1.11426 0.36718
 C380 C 0.63239 1.11919 0.37344
 C381 C 0.65075 1.10398 0.39966
 C382 C 0.63331 1.08401 0.41968
 C383 C 0.69819 1.19503 0.29953
 C384 C 0.57901 1.09428 0.38714
 C385 C 0.65030 1.13993 0.35313
 C386 C 0.66533 1.15733 0.33620
 C387 C 0.68300 1.17769 0.31642
 C388 C 0.59720 1.07896 0.41369
 H389 H 0.58201 1.12597 0.34702
 H390 H 0.67856 1.10758 0.40466
 H391 H 0.64812 1.07234 0.43960
 H392 H 0.55111 1.09113 0.38227
 C393 C 0.14953 0.39606 0.09942
 C394 C 0.13115 0.38074 0.12554
 C395 C 0.09528 0.38559 0.13184
 C396 C 0.07781 0.40562 0.11202
 C397 C 0.19694 0.30484 0.19905
 C398 C 0.13212 0.41608 0.07954
 C399 C 0.14904 0.35996 0.14572
 C400 C 0.16406 0.34254 0.16256
 C401 C 0.18173 0.32217 0.18224
 C402 C 0.09603 0.42107 0.08558
 H403 H 0.17733 0.39252 0.09439
 H404 H 0.08076 0.37380 0.15192
 H405 H 0.04992 0.40872 0.11692
 H406 H 0.14695 0.42784 0.05970
 C407 C 0.65072 0.89707 0.60015
 C408 C 0.63233 0.88181 0.62634
 C409 C 0.59645 0.88665 0.63256
 C410 C 0.57897 0.90660 0.61260
 C411 C 0.69802 0.80603 0.70020
 C412 C 0.63329 0.91701 0.58013
 C413 C 0.65022 0.86109 0.64664
 C414 C 0.66523 0.84371 0.66356
 C415 C 0.68287 0.82336 0.68332
 C416 C 0.59718 0.92197 0.58608
 H417 H 0.67853 0.89354 0.59518
 H418 H 0.58192 0.87490 0.65269
 H419 H 0.55106 0.90968 0.61743
 H420 H 0.64813 0.92872 0.56023
 C421 C 0.90351 0.12497 0.10783
 C422 C 0.86748 0.12157 0.11498
 C423 C 0.85015 0.09853 0.10246
 C424 C 0.86879 0.07889 0.08301
 C425 C 0.79773 0.19472 0.19004
 C426 C 0.92220 0.10537 0.08836
 C427 C 0.84834 0.14162 0.13538
 C428 C 0.83232 0.15836 0.15257
 C429 C 0.81362 0.17795 0.17277
 C430 C 0.90506 0.08206 0.07581
 H431 H 0.91720 0.14270 0.11750
 H432 H 0.82224 0.09573 0.10776
 H433 H 0.85477 0.06134 0.07331
 H434 H 0.95018 0.10822 0.08367
 C435 C 0.40302 0.62563 0.60794
 C436 C 0.36697 0.62233 0.61512
 C437 C 0.34953 0.59933 0.60264
 C438 C 0.36805 0.57963 0.58320
 C439 C 0.29764 0.69570 0.69017
 C440 C 0.42160 0.60595 0.58847
 C441 C 0.34795 0.64244 0.63552
 C442 C 0.33203 0.65924 0.65270
 C443 C 0.31344 0.67889 0.67290
 C444 C 0.40433 0.58269 0.57597
 H445 H 0.41680 0.64332 0.61757
 H446 H 0.32161 0.59661 0.60797
 H447 H 0.35394 0.56211 0.57353
 H448 H 0.44959 0.60872 0.58376
   
