data_POSCAR
  _audit_creation_date              2014-09-24
  _audit_creation_method            'ToBaCCo'
  _symmetry_space_group_name_H-M    'P1'
  _symmetry_Int_Tables_number       1
  _symmetry_cell_setting            triclinic
  loop_
  _symmetry_equiv_pos_as_xyz
 x,y,z
_cell_length_a 27.5908
_cell_length_b 30.6603
_cell_length_c 28.1201
_cell_angle_alpha 87.855400
_cell_angle_beta 93.154600
_cell_angle_gamma 93.577200
loop_
  _atom_site_label
  _atom_site_type_symbol
  _atom_site_fract_x
  _atom_site_fract_y
  _atom_site_fract_z
C1 C 0.23301 1.24205 0.20049
 C2 C 0.21306 1.27980 0.17951
 C3 C 0.23028 1.29848 0.13650
 C4 C 0.26760 1.27856 0.11480
 C5 C 0.28645 1.24017 0.13435
 C6 C 0.26973 1.22210 0.17762
 C7 C 0.21641 1.22356 0.24358
 C8 C 0.23679 1.18589 0.26464
 C9 C 0.27357 1.16656 0.24133
 C10 C 0.28926 1.18368 0.19755
 C11 C 0.32317 1.16225 0.17271
 C12 C 0.33803 1.17907 0.12828
 C13 C 0.32068 1.21883 0.11025
 H14 H 0.18462 1.29466 0.19710
 H15 H 0.28105 1.29201 0.08147
 H16 H 0.18820 1.23908 0.26081
 H17 H 0.28911 1.13716 0.25642
 H18 H 0.33703 1.13208 0.18750
 H19 H 0.33230 1.23242 0.07630
 C20 C 0.86388 0.77789 0.25290
 C21 C 0.88655 0.73885 0.24828
 C22 C 0.86300 0.70402 0.22325
 C23 C 0.81489 0.70824 0.20469
 C24 C 0.79086 0.74661 0.21123
 C25 C 0.81567 0.78175 0.23515
 C26 C 0.88967 0.81365 0.27355
 C27 C 0.86784 0.85344 0.27808
 C28 C 0.81859 0.85644 0.26286
 C29 C 0.79273 0.82110 0.24044
 C30 C 0.74496 0.82495 0.22166
 C31 C 0.71997 0.79017 0.19760
 C32 C 0.74294 0.75095 0.19308
 H33 H 0.92376 0.73658 0.26231
 H34 H 0.79584 0.68172 0.18563
 H35 H 0.92725 0.81036 0.28590
 H36 H 0.80111 0.88681 0.26594
 H37 H 0.72743 0.85519 0.22541
 H38 H 0.72400 0.72424 0.17416
 C39 C 0.83229 1.22367 -0.19818
 C40 C 0.83812 1.25848 -0.16683
 C41 C 0.81528 1.25596 -0.12320
 C42 C 0.78593 1.21847 -0.11145
 C43 C 0.78030 1.18328 -0.14205
 C44 C 0.80372 1.18572 -0.18548
 C45 C 0.85492 1.22607 -0.24179
 C46 C 0.85022 1.19071 -0.27274
 C47 C 0.82195 1.15277 -0.25926
 C48 C 0.79868 1.15011 -0.21604
 C49 C 0.77043 1.11232 -0.20291
 C50 C 0.74671 1.10984 -0.15984
 C51 C 0.75192 1.14552 -0.12960
 H52 H 0.86030 1.28751 -0.17654
 H53 H 0.76821 1.21628 -0.07790
 H54 H 0.87673 1.25544 -0.25125
 H55 H 0.81743 1.12513 -0.28224
 H56 H 0.76652 1.08498 -0.22646
 H57 H 0.73445 1.14391 -0.09600
 C58 C 0.07788 0.79139 -0.23803
 C59 C 0.05232 0.75663 -0.21525
 C60 C 0.07328 0.73387 -0.17564
 C61 C 0.12077 0.74732 -0.15845
 C62 C 0.14714 0.78220 -0.18128
 C63 C 0.12546 0.80421 -0.22132
 C64 C 0.05668 0.81298 -0.27799
 C65 C 0.08219 0.84769 -0.30138
 C66 C 0.12965 0.86052 -0.28476
 C67 C 0.15161 0.83858 -0.24528
 C68 C 0.19972 0.84979 -0.23016
 C69 C 0.22191 0.82790 -0.19083
 C70 C 0.19526 0.79476 -0.16577
 H71 H 0.01585 0.74709 -0.22902
 H72 H 0.13777 0.73035 -0.12810
 H73 H 0.02009 0.80282 -0.29085
 H74 H 0.14995 0.88673 -0.30324
 H75 H 0.22018 0.87558 -0.24921
 H76 H 0.21257 0.77772 -0.13559
 C77 C 0.55819 1.01139 -0.03408
 H78 H 0.53659 1.03167 -0.01420
 C79 C 0.59611 1.03098 -0.05958
 H80 H 0.60193 1.06615 -0.05971
 C81 C 0.57710 0.94120 -0.05717
 H82 H 0.56947 0.90614 -0.05579
 C83 C 0.61535 0.95950 -0.08346
 H84 H 0.63711 0.93833 -0.10229
 N85 N 0.54855 0.96735 -0.03424
 C86 C 0.46015 0.99416 0.07165
 H87 H 0.47605 0.97178 0.09780
 C88 C 0.43949 1.03167 0.08648
 H89 H 0.43977 1.03813 0.12408
 C90 C 0.44141 1.01400 -0.00928
 H91 H 0.44293 1.00712 -0.04661
 C92 C 0.42139 1.05201 0.00385
 H93 H 0.40697 1.07414 -0.02352
 Zn94 Zn 0.49539 0.94160 -0.00068
 N95 N 0.46185 0.98682 0.02433
 C96 C 0.55684 0.92279 0.07807
 N97 N 0.52224 0.90442 0.04750
 C98 C 0.51230 0.86042 0.04764
 C99 C 0.53893 0.83293 0.07847
 C100 C 0.58421 0.89659 0.10952
 C101 C 0.45870 0.91170 -0.09022
 C102 C 0.42407 0.89324 -0.12262
 C103 C 0.37309 0.87241 -0.05746
 C104 C 0.40903 0.89118 -0.02608
 N105 N 0.45071 0.91058 -0.04292
 H106 H 0.56452 0.95784 0.07662
 H107 H 0.48536 0.84642 0.02234
 H108 H 0.53170 0.79790 0.07692
 H109 H 0.61206 0.91213 0.13276
 H110 H 0.49110 0.92836 -0.10338
 H111 H 0.43102 0.89542 -0.16017
 H112 H 0.33993 0.85794 -0.04332
 H113 H 0.40315 0.89137 0.01163
 C114 C 0.42107 1.06163 0.05212
 C115 C 0.62501 1.00503 -0.08519
 C116 C 0.38013 0.87393 -0.10667
 C117 C 0.57640 0.85084 0.10904
 C118 C -0.01684 0.52338 1.13040
 H119 H 0.01515 0.50531 1.13842
 C120 C -0.03275 0.55031 1.16454
 H121 H -0.01303 0.55225 1.19883
 C122 C -0.07921 0.54538 1.07500
 H123 H -0.09607 0.54429 1.03937
 C124 C -0.09642 0.57270 1.10813
 H125 H -0.12654 0.59241 1.09742
 N126 N -0.03965 0.52200 1.08635
 C127 C 0.08706 0.47580 1.03771
 H128 H 0.08968 0.50158 1.01061
 C129 C 0.12738 0.45162 1.04974
 H130 H 0.16086 0.45962 1.03213
 C131 C 0.03967 0.43224 1.09130
 H132 H 0.00483 0.42424 1.10634
 C133 C 0.07919 0.40719 1.10446
 H134 H 0.07421 0.38000 1.12967
 Zn135 Zn -0.01264 0.49352 1.03656
 N136 N 0.04417 0.46560 1.05825
 C137 C 0.03330 0.57152 1.00004
 N138 N 0.00151 0.53717 0.98897
 C139 C -0.02293 0.53544 0.94571
 C140 C -0.01572 0.56899 0.91157
 C141 C 0.04204 0.60567 0.96661
 C142 C -0.10155 0.44061 1.02748
 C143 C -0.13212 0.40702 1.00803
 C144 C -0.06920 0.39225 0.95542
 C145 C -0.03986 0.42594 0.97596
 N146 N -0.05649 0.44955 1.01096
 H147 H 0.05138 0.57262 1.03515
 H148 H -0.04911 0.50867 0.93796
 H149 H -0.03597 0.56728 0.87754
 H150 H 0.06682 0.63304 0.97625
 H151 H -0.11371 0.45919 1.05599
 H152 H -0.16786 0.40025 1.02161
 H153 H -0.05475 0.37386 0.92798
 H154 H -0.00355 0.43337 0.96405
 C155 C 0.12362 0.41634 1.08291
 C156 C -0.07223 0.57630 1.15323
 C157 C -0.11611 0.38236 0.97142
 C158 C 0.01694 0.60474 0.92183
 C159 C 1.03617 0.03196 0.55369
 H160 H 1.04339 0.06474 0.56634
 C161 C 1.04549 -0.00415 0.58398
 H162 H 1.05970 0.00104 0.62009
 C163 C 1.00708 -0.01475 0.49174
 H164 H 0.99250 -0.01901 0.45571
 C165 C 1.01517 -0.05155 0.52091
 H166 H 1.00636 -0.08375 0.50713
 N167 N 1.01671 0.02604 0.50870
 C168 C 1.05274 0.14004 0.41678
 H169 H 1.01753 0.15292 0.40845
 C170 C 1.09285 0.15613 0.39172
 H171 H 1.08791 0.18187 0.36492
 C172 C 1.10028 0.08809 0.45892
 H173 H 1.10276 0.06048 0.48375
 C174 C 1.14123 0.10322 0.43489
 H175 H 1.17492 0.08733 0.44217
 Zn176 Zn 0.99945 0.07516 0.46983
 N177 N 1.05674 0.10555 0.44835
 C178 C 0.97935 0.15309 0.51496
 N179 N 0.96424 0.11067 0.50765
 C180 C 0.92812 0.09047 0.53289
 C181 C 0.90642 0.11262 0.56778
 C182 C 0.95867 0.17648 0.54962
 C183 C 0.98782 0.04943 0.37596
 C184 C 0.97203 0.01929 0.34187
 C185 C 0.90108 0.00042 0.38652
 C186 C 0.91827 0.03116 0.42009
 N187 N 0.96241 0.05311 0.41560
 H188 H 1.00898 0.16831 0.49558
 H189 H 0.91802 0.05626 0.52797
 H190 H 0.87859 0.09522 0.58784
 H191 H 0.97228 0.20975 0.55593
 H192 H 1.02325 0.06592 0.37308
 H193 H 0.99510 0.01380 0.31301
 H194 H 0.86864 -0.02015 0.39305
 H195 H 0.89889 0.03374 0.45205
 C196 C 1.13744 0.13641 0.39930
 C197 C 1.03410 -0.04654 0.56775
 C198 C 0.92990 -0.00752 0.34855
 C199 C 0.92255 0.15593 0.57748
 N200 N 0.19992 0.38814 1.06230
 N201 N 0.22888 0.35657 1.07532
 C202 C 0.21054 0.33569 1.11408
 C203 C 0.16906 0.35601 1.12449
 N204 N 0.16356 0.38838 1.09108
 H205 H 0.14447 0.34716 1.15238
 N206 N -0.05189 0.62442 1.21899
 N207 N -0.06774 0.65930 1.23801
 C208 C -0.11117 0.66696 1.21585
 C209 C -0.12158 0.63497 1.18264
 N210 N -0.08333 0.60939 1.18535
 H211 H -0.15224 0.63239 1.15704
 N212 N -0.18669 0.33012 0.97179
 N213 N -0.20600 0.29645 0.94766
 C214 C -0.17753 0.29166 0.91095
 C215 C -0.14000 0.32358 0.91349
 N216 N -0.14685 0.34686 0.95207
 H217 H -0.11016 0.32852 0.89015
 N218 N -0.01157 0.64852 0.85339
 N219 N 0.00229 0.68310 0.82695
 C220 C 0.04651 0.69792 0.84465
 C221 C 0.05921 0.67090 0.88348
 N222 N 0.02193 0.64053 0.88755
 H223 H 0.09231 0.67254 0.90596
 N224 N 1.21497 0.12165 0.36782
 N225 N 1.24192 0.13342 0.33148
 C226 C 1.22046 0.16662 0.30755
 C227 C 1.17935 0.17503 0.33108
 N228 N 1.17700 0.14598 0.36830
 H229 H 1.15246 0.19817 0.32052
 N230 N 1.01214 -0.12144 0.59367
 N231 N 1.02354 -0.15025 0.62804
 C232 C 1.05926 -0.13089 0.65599
 C233 C 1.06931 -0.08904 0.63768
 N234 N 1.03904 -0.08445 0.59883
 H235 H 1.09575 -0.06443 0.65133
 N236 N 0.96092 -0.07145 0.31661
 N237 N 0.94558 -0.10964 0.29942
 C238 C 0.89657 -0.11065 0.29563
 C239 C 0.88227 -0.07122 0.31135
 N240 N 0.92371 -0.04785 0.32407
 H241 H 0.84579 -0.06106 0.31478
 N242 N 0.91862 0.21893 0.62774
 N243 N 0.90026 0.22915 0.66815
 C244 C 0.87402 0.19345 0.68407
 C245 C 0.87687 0.16101 0.65152
 N246 N 0.90508 0.17812 0.61698
 H247 H 0.86167 0.12774 0.65381
 N248 N 0.40634 1.13835 0.03716
 N249 N 0.38531 1.17042 0.05658
 C250 C 0.36913 1.15469 0.09865
 C251 C 0.38130 1.11155 0.10445
 N252 N 0.40424 1.10270 0.06517
 H253 H 0.37194 1.08819 0.13277
 N254 N 0.68384 1.00456 -0.14724
 N255 N 0.71626 1.03149 -0.16819
 C256 C 0.71633 1.07013 -0.14673
 C257 C 0.68280 1.06589 -0.11196
 N258 N 0.66319 1.02460 -0.11340
 H259 H 0.67334 1.09061 -0.08829
 N260 N 0.34749 0.86269 -0.18769
 N261 N 0.30624 0.85102 -0.21127
 C262 C 0.27374 0.83900 -0.17851
 C263 C 0.29653 0.84363 -0.13378
 N264 N 0.34267 0.85882 -0.14108
 H265 H 0.28016 0.83880 -0.09977
 N266 N 0.60181 0.77934 0.13877
 N267 N 0.63943 0.76187 0.16190
 C268 C 0.67081 0.79527 0.17510
 C269 C 0.65106 0.83380 0.15926
 N270 N 0.60798 0.82257 0.13665
 H271 H 0.66814 0.86643 0.16132
   
