data_POSCAR
  _audit_creation_date              2014-09-24
  _audit_creation_method            'ToBaCCo'
  _symmetry_space_group_name_H-M    'P1'
  _symmetry_Int_Tables_number       1
  _symmetry_cell_setting            triclinic
  loop_
  _symmetry_equiv_pos_as_xyz
 x,y,z
_cell_length_a 18.2742
_cell_length_b 31.5396
_cell_length_c 40.3219
_cell_angle_alpha 90.187600
_cell_angle_beta 77.000800
_cell_angle_gamma 140.150600
loop_
  _atom_site_label
  _atom_site_type_symbol
  _atom_site_fract_x
  _atom_site_fract_y
  _atom_site_fract_z
C1 C 0.11863 0.18321 0.21330
 N2 N 0.16253 0.24306 0.20417
 C3 C 0.18023 0.26475 0.17039
 N4 N 0.16876 0.23147 0.14610
 C5 C 0.12657 0.17319 0.15499
 N6 N 0.08776 0.14609 0.18946
 C7 C -0.19390 0.82809 0.22458
 N8 N -0.21897 0.84798 0.20514
 C9 C -0.23433 0.83279 0.17437
 N10 N -0.22205 0.79816 0.16187
 C11 C -0.20424 0.77370 0.18156
 N12 N -0.19176 0.78783 0.21354
 C13 C -0.12332 0.20987 -0.30816
 N14 N -0.21503 0.15340 -0.28025
 C15 C -0.24411 0.15685 -0.24775
 N16 N -0.18326 0.21857 -0.24364
 C17 C -0.08683 0.27705 -0.27024
 N18 N -0.05370 0.27368 -0.30325
 C19 C 0.22124 0.87898 -0.26387
 N20 N 0.18693 0.82216 -0.26336
 C21 C 0.23722 0.81521 -0.24777
 N22 N 0.31795 0.86367 -0.23255
 C23 C 0.34602 0.91731 -0.23072
 N24 N 0.29762 0.92459 -0.24667
 C25 C 0.15974 1.19115 0.76167
 N26 N 0.17910 1.16167 0.77504
 C27 C 0.19180 1.16499 0.80699
 N28 N 0.18433 1.19747 0.82566
 C29 C 0.16674 1.22832 0.81381
 N30 N 0.15641 1.22638 0.78094
 C31 C 0.83710 0.75601 0.78777
 N32 N 0.84169 0.72060 0.80499
 C33 C 0.84643 0.72392 0.83861
 N34 N 0.84635 0.76220 0.85375
 C35 C 0.83803 0.79523 0.83797
 N36 N 0.83319 0.79181 0.80506
 C37 C 0.09016 0.70994 1.32100
 N38 N 0.05803 0.66109 1.30548
 C39 C -0.00160 0.64106 1.28191
 N40 N -0.01485 0.67538 1.27145
 C41 C 0.02731 0.72774 1.28456
 N42 N 0.07384 0.74201 1.31013
 C43 C 0.78957 1.13964 1.28176
 N44 N 0.72797 1.10252 1.25953
 C45 C 0.67211 1.10881 1.24764
 N46 N 0.67929 1.15226 1.25810
 C47 C 0.76509 1.20182 1.27160
 N48 N 0.81656 1.19337 1.28533
 O49 O 0.37637 0.86143 0.95363
 O50 O 0.43129 1.01499 1.07491
 O51 O 0.51254 0.91772 1.03471
 O52 O 0.15953 0.88761 1.00248
 O53 O 0.40025 0.91779 1.07228
 O54 O 0.26537 0.91627 0.94792
 O55 O 0.26262 0.95662 1.05912
 O56 O 0.51529 0.91942 0.97803
 C57 C 0.45585 0.87485 0.96020
 C58 C 0.32532 0.98487 1.08326
 C59 C 0.47920 0.91794 1.06542
 C60 C 0.15967 0.88167 0.97147
 O61 O 0.36665 0.98305 0.94154
 O62 O 0.56883 1.02222 1.01922
 O63 O 0.58070 0.98332 0.96966
 O64 O 0.46918 1.05265 1.00868
 O65 O 0.46921 1.05157 1.01045
 O66 O 0.52879 0.99521 0.92741
 O67 O 0.31236 1.01237 0.98504
 O68 O 0.57042 1.02076 1.01785
 Co69 Co 0.35814 0.91240 0.95402
 Co70 Co 0.41098 0.97660 1.04116
 Co71 Co 0.44728 0.92504 1.01641
 Co72 Co 0.31519 0.96588 1.00544
 O73 O 0.35835 0.92717 1.00548
 C74 C 0.35910 1.02201 0.95185
 C75 C 0.67639 1.06383 1.01993
 C76 C 0.61071 1.01705 0.93911
 C77 C 0.49698 1.10372 1.00948
 O78 O 0.05416 0.49316 0.06715
 O79 O 0.12103 0.57963 -0.06748
 O80 O 0.03805 0.41394 -0.02242
 O81 O 0.13391 0.60358 0.02960
 O82 O 0.15353 0.51076 -0.05956
 O83 O 0.12644 0.60009 0.03395
 O84 O 0.03741 0.58599 -0.01965
 O85 O -0.00195 0.40954 0.04402
 C86 C 0.04861 0.45020 0.06434
 C87 C 0.10551 0.60960 -0.05288
 C88 C 0.12785 0.46149 -0.04988
 C89 C 0.19388 0.64244 0.05049
 O90 O -0.10932 0.52389 0.05527
 O91 O -0.00454 0.45560 -0.08495
 O92 O -0.20834 0.35272 0.04646
 O93 O -0.16814 0.45815 0.00637
 O94 O -0.09211 0.47683 -0.04966
 O95 O -0.16694 0.41546 0.08041
 O96 O -0.09919 0.53076 0.05219
 O97 O -0.14648 0.36981 -0.03069
 Co98 Co -0.02247 0.50457 0.05423
 Co99 Co 0.02619 0.49162 -0.04891
 Co100 Co -0.07465 0.39520 0.01102
 Co101 Co -0.02483 0.52171 0.02167
 O102 O 0.02810 0.49700 0.00074
 C103 C -0.08080 0.57621 0.04462
 C104 C -0.10086 0.38893 -0.06837
 C105 C -0.21123 0.36091 0.07687
 C106 C -0.16315 0.46825 -0.02721
 O107 O 1.09706 0.01595 0.44079
 O108 O 0.71521 -0.09979 0.53852
 O109 O 0.83359 -0.06305 0.46555
 O110 O 1.11888 0.06163 0.52403
 O111 O 0.83369 -0.06195 0.46696
 O112 O 1.12610 0.06319 0.51977
 O113 O 0.84647 -0.04934 0.57340
 O114 O 1.07173 0.00367 0.43537
 C115 C 1.12426 0.06363 0.42491
 C116 C 0.74915 -0.07360 0.56514
 C117 C 0.86900 -0.00830 0.45987
 C118 C 1.17493 0.11983 0.52614
 O119 O 1.11021 -0.02176 0.52909
 O120 O 0.65082 -0.18812 0.48927
 O121 O 0.95899 -0.11901 0.46180
 O122 O 0.87943 -0.11876 0.57690
 O123 O 0.71817 -0.18265 0.55611
 O124 O 1.13462 -0.03393 0.46634
 O125 O 1.10265 -0.02528 0.53198
 O126 O 0.81431 -0.13950 0.44022
 Co127 Co 1.11384 0.00875 0.48790
 Co128 Co 0.77298 -0.12154 0.50987
 Co129 Co 0.90770 -0.08642 0.46716
 Co130 Co 0.98659 -0.03265 0.55211
 O131 O 0.94686 -0.04260 0.50763
 C132 C 1.20044 0.01267 0.53876
 C133 C 0.69570 -0.18349 0.45593
 C134 C 1.06123 -0.08841 0.45749
 C135 C 0.77311 -0.17555 0.57883
 C136 C 1.18718 0.18038 0.29420
 C137 C 1.19221 0.13955 0.28837
 C138 C 1.16526 0.10879 0.26124
 C139 C 1.13301 0.12072 0.23857
 C140 C 1.13555 0.16725 0.24121
 C141 C 1.16463 0.19826 0.26976
 O142 O 1.19039 0.19136 0.32612
 C143 C 1.19736 0.15652 0.34003
 C144 C 1.20186 0.12563 0.31732
 C145 C 1.19556 0.08036 0.32683
 C146 C 1.17700 0.06273 0.36206
 C147 C 1.16412 0.09010 0.38687
 C148 C 1.18031 0.14017 0.37544
 H149 H 1.16264 0.07349 0.25869
 H150 H 1.10970 0.09406 0.21812
 H151 H 1.16379 0.23187 0.27372
 H152 H 1.19888 0.05685 0.30807
 H153 H 1.16623 0.02513 0.37022
 H154 H 1.16812 0.16047 0.39422
 C155 C 0.75726 -0.19501 0.31959
 C156 C 0.74043 -0.15958 0.32575
 C157 C 0.77748 -0.11329 0.29911
 C158 C 0.81887 -0.10999 0.26447
 C159 C 0.81497 -0.15598 0.25716
 C160 C 0.79713 -0.19328 0.28497
 O161 O 0.72305 -0.23269 0.34922
 C162 C 0.68091 -0.22204 0.37425
 C163 C 0.68650 -0.17923 0.36109
 C164 C 0.64403 -0.16273 0.38247
 C165 C 0.60844 -0.18433 0.41913
 C166 C 0.62426 -0.21726 0.43280
 C167 C 0.64601 -0.24382 0.41061
 H168 H 0.77032 -0.08282 0.30468
 H169 H 0.84301 -0.07594 0.24348
 H170 H 0.80055 -0.22564 0.28033
 H171 H 0.64572 -0.13072 0.37132
 H172 H 0.59001 -0.16467 0.43598
 H173 H 0.65882 -0.26898 0.42051
 C174 C 0.84060 0.10150 0.64271
 C175 C 0.84183 0.11941 0.61144
 C176 C 0.88206 0.17880 0.60163
 C177 C 0.91098 0.21697 0.62670
 C178 C 0.90501 0.19669 0.65952
 C179 C 0.88075 0.14212 0.66560
 O180 O 0.79235 0.04176 0.64910
 C181 C 0.76318 0.02094 0.62095
 C182 C 0.79382 0.06702 0.59657
 C183 C 0.78305 0.05815 0.56349
 C184 C 0.74629 0.00206 0.55474
 C185 C 0.71858 -0.04435 0.57945
 C186 C 0.71869 -0.03725 0.61381
 H187 H 0.88364 0.19283 0.57676
 H188 H 0.93003 0.25888 0.62159
 H189 H 0.87691 0.12561 0.69016
 H190 H 0.81402 0.09680 0.54396
 H191 H 0.75626 0.00082 0.52734
 H192 H 0.70371 -0.06980 0.63247
 C193 C 1.11848 -0.11371 0.66989
 C194 C 1.15442 -0.05699 0.67369
 C195 C 1.19494 -0.02662 0.70060
 C196 C 1.20611 -0.05301 0.72348
 C197 C 1.18049 -0.10770 0.71847
 C198 C 1.12895 -0.14110 0.69249
 O199 O 1.09627 -0.12929 0.64006
 C200 C 1.12207 -0.08024 0.62449
 C201 C 1.15998 -0.03414 0.64385
 C202 C 1.21492 0.02851 0.62997
 C203 C 1.23029 0.04399 0.59472
 C204 C 1.18670 -0.00397 0.57495
 C205 C 1.13027 -0.06743 0.59000
 H206 H 1.22307 0.01814 0.70279
 H207 H 1.24166 -0.02771 0.74386
 H208 H 1.11060 -0.18182 0.68739
 H209 H 1.25059 0.06565 0.64510
 H210 H 1.27689 0.09337 0.58269
 H211 H 1.10115 -0.10327 0.57451
 C212 C 0.22840 1.12584 1.09530
 C213 C 0.32336 1.15622 1.10593
 C214 C 0.36357 1.19756 1.12864
 C215 C 0.30000 1.20603 1.14242
 C216 C 0.19624 1.17211 1.13407
 C217 C 0.16077 1.13245 1.10947
 O218 O 0.21463 1.09366 1.07088
 C219 C 0.30254 1.10415 1.06653
 C220 C 0.36988 1.14168 1.08771
 C221 C 0.47328 1.16528 1.08552
 C222 C 0.51231 1.15170 1.05945
 C223 C 0.44227 1.10930 1.03871
 C224 C 0.33639 1.08637 1.04159
 H225 H 0.44057 1.22201 1.13575
 H226 H 0.32846 1.23703 1.16101
 H227 H 0.08348 1.10729 1.10227
 H228 H 0.52596 1.19662 1.10192
 H229 H 0.60138 1.17835 1.05378
 H230 H 0.28647 1.05979 1.02386
 C231 C 0.31197 0.97037 0.84387
 C232 C 0.27760 0.91807 0.86492
 C233 C 0.33874 0.90341 0.85529
 C234 C 0.39903 0.92284 0.81991
 C235 C 0.38747 0.94854 0.79636
 C236 C 0.37011 0.98343 0.80819
 O237 O 0.22974 0.91756 0.87444
 C238 C 0.15940 0.91702 0.89639
 C239 C 0.17457 0.87932 0.89025
 C240 C 0.09292 0.81040 0.91344
 C241 C 0.02354 0.79242 0.94746
 C242 C 0.05928 0.84623 0.95877
 C243 C 0.09062 0.89268 0.93300
 H244 H 0.31932 0.86875 0.87387
 H245 H 0.42524 0.90221 0.81143
 H246 H 0.39285 1.01859 0.78865
 H247 H 0.09931 0.78003 0.90612
 H248 H -0.02185 0.74814 0.96662
 H249 H 0.07557 0.91852 0.94202
 C250 C 0.64257 0.87695 1.15212
 C251 C 0.72523 0.91858 1.11880
 C252 C 0.80965 0.92547 1.10100
 C253 C 0.81455 0.89087 1.11926
 C254 C 0.74308 0.85574 1.15535
 C255 C 0.65524 0.84831 1.17228
 O256 O 0.55122 0.86441 1.16004
 C257 C 0.57996 0.90088 1.13096
 C258 C 0.68960 0.93729 1.10636
 C259 C 0.73979 0.97681 1.07359
 C260 C 0.67064 0.97507 1.06398
 C261 C 0.55085 0.93320 1.08625
 C262 C 0.50505 0.89683 1.12130
 H263 H 0.86560 0.95380 1.07348
 H264 H 0.87878 0.89483 1.10598
 H265 H 0.59597 0.81881 1.19955
 H266 H 0.82576 1.00425 1.05494
 H267 H 0.70873 1.00225 1.03677
 H268 H 0.41194 0.86133 1.13830
 C269 C 0.74325 1.13025 0.83903
 C270 C 0.81011 1.12046 0.82716
 C271 C 0.79174 1.08434 0.79962
 C272 C 0.74265 1.08105 0.77661
 C273 C 0.71106 1.11019 0.78135
 C274 C 0.68811 1.11832 0.81478
 O275 O 0.83504 1.14671 0.84059
 C276 C 0.87102 1.17222 0.86870
 C277 C 0.87373 1.13767 0.84744
 C278 C 0.86131 1.09074 0.86407
 C279 C 0.78778 1.05715 0.89986
 C280 C 0.73703 1.07305 0.91673
 C281 C 0.78975 1.13586 0.90411
 H282 H 0.83572 1.07315 0.79359
 H283 H 0.75750 1.07151 0.75172
 H284 H 0.63802 1.12566 0.82057
 H285 H 0.87494 1.06794 0.84860
 H286 H 0.74945 1.01007 0.91141
 H287 H 0.88461 1.18709 0.89133
 C288 C 0.23226 0.38264 0.11160
 C289 C 0.24707 0.42170 0.13257
 C290 C 0.25517 0.41746 0.16589
 C291 C 0.24019 0.36838 0.17845
 C292 C 0.21909 0.32580 0.15737
 C293 C 0.22286 0.33701 0.12274
 O294 O 0.20238 0.38192 0.08454
 C295 C 0.19544 0.42031 0.08834
 C296 C 0.22389 0.44745 0.11686
 C297 C 0.20531 0.48147 0.12784
 C298 C 0.15207 0.48513 0.10954
 C299 C 0.11561 0.45329 0.08158
 C300 C 0.14270 0.42311 0.07020
 H301 H 0.26423 0.44735 0.18252
 H302 H 0.23933 0.36149 0.20487
 H303 H 0.20484 0.30543 0.10562
 H304 H 0.22761 0.50269 0.15027
 H305 H 0.13507 0.51028 0.11804
 H306 H 0.11450 0.39713 0.04949
 C307 C -0.02661 0.34306 -0.19714
 C308 C -0.07087 0.36356 -0.19783
 C309 C -0.06741 0.38441 -0.22930
 C310 C -0.03497 0.37343 -0.26009
 C311 C -0.01133 0.34017 -0.25819
 C312 C 0.01299 0.33610 -0.22796
 O313 O -0.04146 0.32305 -0.16463
 C314 C -0.09760 0.33035 -0.14416
 C315 C -0.11917 0.35409 -0.16314
 C316 C -0.17851 0.36438 -0.14682
 C317 C -0.20389 0.35744 -0.11022
 C318 C -0.16564 0.34321 -0.09101
 C319 C -0.12283 0.32288 -0.10761
 H320 H -0.09737 0.40347 -0.22965
 H321 H -0.04654 0.38098 -0.28364
 H322 H 0.03234 0.31145 -0.22569
 H323 H -0.19667 0.38191 -0.16208
 H324 H -0.23733 0.37279 -0.09791
 H325 H -0.09345 0.31148 -0.09359
 C326 C 0.11290 0.69874 -0.17433
 C327 C 0.21547 0.71988 -0.18109
 C328 C 0.29162 0.74376 -0.21519
 C329 C 0.27020 0.75510 -0.24321
 C330 C 0.18299 0.74943 -0.23597
 C331 C 0.09095 0.71001 -0.20206
 O332 O 0.05204 0.67682 -0.13998
 C333 C 0.11904 0.68559 -0.12481
 C334 C 0.22235 0.71416 -0.14895
 C335 C 0.30816 0.73053 -0.13905
 C336 C 0.28017 0.71022 -0.10293
 C337 C 0.16377 0.66928 -0.07810
 C338 C 0.08728 0.66255 -0.08871
 H339 H 0.36942 0.75766 -0.21988
 H340 H 0.33815 0.78256 -0.26937
 H341 H 0.02311 0.70458 -0.19592
 H342 H 0.39020 0.75440 -0.15852
 H343 H 0.33856 0.71492 -0.09508
 H344 H -0.00189 0.63129 -0.07059
 C345 C -0.19313 0.68732 0.11958
 C346 C -0.23541 0.63610 0.14326
 C347 C -0.25799 0.63089 0.17938
 C348 C -0.24222 0.67840 0.19186
 C349 C -0.20684 0.72882 0.16829
 C350 C -0.18192 0.73306 0.13157
 O351 O -0.15767 0.69044 0.08597
 C352 C -0.17862 0.63962 0.08845
 C353 C -0.23127 0.60313 0.12299
 C354 C -0.25932 0.54878 0.13205
 C355 C -0.22285 0.53478 0.10498
 C356 C -0.15292 0.57752 0.06950
 C357 C -0.13865 0.62744 0.06081
 H358 H -0.28213 0.59337 0.19710
 H359 H -0.25921 0.67526 0.21981
 H360 H -0.15454 0.77097 0.11280
 H361 H -0.29977 0.52108 0.15931
 H362 H -0.23737 0.49538 0.11269
 H363 H -0.08930 0.65941 0.03400
 C364 C 1.11212 0.12137 0.68037
 C365 C 1.12629 0.16438 0.65906
 C366 C 1.13909 0.21529 0.67261
 C367 C 1.14779 0.22363 0.71024
 C368 C 1.14360 0.18399 0.72830
 C369 C 1.12328 0.13570 0.71353
 O370 O 1.12346 0.14098 0.64743
 C371 C 1.10870 0.10013 0.62716
 C372 C 1.12756 0.15414 0.62746
 C373 C 1.14541 0.18938 0.59613
 C374 C 1.15663 0.17544 0.56413
 C375 C 1.14721 0.12744 0.56170
 C376 C 1.12114 0.08985 0.59179
 H377 H 1.14166 0.24220 0.64918
 H378 H 1.14397 0.22527 0.68966
 H379 H 1.11174 0.10248 0.72964
 H380 H 1.15543 0.22775 0.59704
 H381 H 1.17568 0.20347 0.54081
 H382 H 1.09731 0.07286 0.61942
 C383 C 0.76292 -0.23470 0.71157
 C384 C 0.75970 -0.27235 0.69292
 C385 C 0.79324 -0.29682 0.70267
 C386 C 0.82260 -0.28607 0.73394
 C387 C 0.82078 -0.24992 0.75446
 C388 C 0.79557 -0.22149 0.74161
 O389 O 0.73586 -0.21188 0.69757
 C390 C 0.71473 -0.23536 0.66926
 C391 C 0.72793 -0.27272 0.66485
 C392 C 0.71955 -0.29656 0.63484
 C393 C 0.71072 -0.27468 0.60707
 C394 C 0.70706 -0.23134 0.61017
 C395 C 0.69954 -0.21644 0.64298
 H396 H 0.79691 -0.32319 0.68677
 H397 H 0.84807 -0.30507 0.74183
 H398 H 0.79753 -0.19100 0.75507
 H399 H 0.72922 -0.32630 0.63170
 H400 H 0.71724 -0.28662 0.58224
 H401 H 0.70040 -0.18191 0.64603
 C402 C 1.12968 -0.22869 0.39340
 C403 C 1.21661 -0.16319 0.37252
 C404 C 1.29739 -0.13925 0.33940
 C405 C 1.27548 -0.18803 0.32570
 C406 C 1.16307 -0.25944 0.34205
 C407 C 1.10325 -0.27805 0.37869
 O408 O 1.06195 -0.24112 0.42405
 C409 C 1.10473 -0.18264 0.42181
 C410 C 1.19591 -0.13473 0.39000
 C411 C 1.23365 -0.07743 0.37807
 C412 C 1.18513 -0.06510 0.40105
 C413 C 1.10316 -0.10825 0.43566
 C414 C 1.05788 -0.16987 0.44601
 H415 H 1.36777 -0.08682 0.32359
 H416 H 1.32846 -0.17178 0.29838
 H417 H 1.02227 -0.33138 0.39306
 H418 H 1.29159 -0.04621 0.35108
 H419 H 1.20847 -0.02277 0.39160
 H420 H 0.98839 -0.20637 0.47144
 C421 C 0.87574 0.11694 0.34916
 C422 C 0.87762 0.07742 0.33603
 C423 C 0.85819 0.06033 0.30460
 C424 C 0.83233 0.08311 0.28629
 C425 C 0.82943 0.12426 0.29882
 C426 C 0.85545 0.14305 0.33042
 O427 O 0.88315 0.12061 0.38145
 C428 C 0.88960 0.08248 0.38871
 C429 C 0.88806 0.05575 0.36149
 C430 C 0.88843 0.01200 0.36371
 C431 C 0.88518 -0.00749 0.39575
 C432 C 0.88275 0.01724 0.42499
 C433 C 0.88782 0.06426 0.42100
 H434 H 0.85908 0.02862 0.29503
 H435 H 0.81366 0.06793 0.26233
 H436 H 0.85009 0.17216 0.34163
 H437 H 0.89031 -0.00696 0.34158
 H438 H 0.88420 -0.04211 0.39769
 H439 H 0.88421 0.08315 0.44293
 C440 C 0.17454 0.34095 -0.14685
 C441 C 0.17368 0.32745 -0.11431
 C442 C 0.15591 0.27809 -0.10313
 C443 C 0.14763 0.24414 -0.12719
 C444 C 0.15971 0.25996 -0.16280
 C445 C 0.16809 0.30763 -0.17230
 O446 O 0.18247 0.38682 -0.14988
 C447 C 0.18901 0.40268 -0.11880
 C448 C 0.18671 0.36837 -0.09681
 C449 C 0.19337 0.37606 -0.06333
 C450 C 0.19644 0.41854 -0.05082
 C451 C 0.18689 0.45005 -0.07090
 C452 C 0.18759 0.44408 -0.10616
 H453 H 0.14831 0.26578 -0.07653
 H454 H 0.13305 0.20544 -0.11747
 H455 H 0.17353 0.31996 -0.19848
 H456 H 0.19176 0.34819 -0.04682
 H457 H 0.19334 0.42121 -0.02382
 H458 H 0.17532 0.46503 -0.12169
 C459 C -0.21127 0.29487 0.21144
 C460 C -0.14215 0.30115 0.18354
 C461 C -0.06344 0.30498 0.18710
 C462 C -0.06576 0.29447 0.22141
 C463 C -0.16304 0.26676 0.25136
 C464 C -0.22547 0.27616 0.24621
 O465 O -0.27134 0.29883 0.20157
 C466 C -0.24271 0.30490 0.16690
 C467 C -0.17034 0.30204 0.15527
 C468 C -0.15088 0.29275 0.12225
 C469 C -0.19615 0.29441 0.09899
 C470 C -0.24095 0.31653 0.10679
 C471 C -0.27404 0.31614 0.14248
 H472 H -0.00670 0.31251 0.16439
 H473 H -0.01276 0.29096 0.22406
 H474 H -0.29994 0.25646 0.26797
 H475 H -0.10375 0.28374 0.11484
 H476 H -0.17960 0.28826 0.07300
 H477 H -0.31405 0.32933 0.15018
 C478 C -0.20939 0.58406 -0.12643
 C479 C -0.20933 0.59475 -0.09201
 C480 C -0.18726 0.64776 -0.08085
 C481 C -0.16057 0.69159 -0.10516
 C482 C -0.16427 0.68306 -0.13920
 C483 C -0.18972 0.63014 -0.14815
 O484 O -0.21581 0.56495 -0.09400
 C485 C -0.22676 0.51654 -0.09295
 C486 C -0.22955 0.55202 -0.07205
 C487 C -0.24547 0.54421 -0.03371
 C488 C -0.24036 0.50807 -0.01789
 C489 C -0.21796 0.48141 -0.03836
 C490 C -0.21872 0.48321 -0.07345
 H491 H -0.18583 0.65486 -0.05469
 H492 H -0.13946 0.73159 -0.09653
 H493 H -0.19594 0.62270 -0.17407
 H494 H -0.24946 0.57131 -0.01880
 H495 H -0.23920 0.50821 0.00879
 H496 H -0.20885 0.45808 -0.08787
 C497 C 0.05629 0.59510 0.20564
 C498 C -0.03288 0.57275 0.19486
 C499 C -0.13525 0.54761 0.21777
 C500 C -0.13830 0.55415 0.25222
 C501 C -0.03407 0.59230 0.26156
 C502 C 0.05838 0.60623 0.23952
 O503 O 0.14654 0.61746 0.17899
 C504 C 0.11664 0.61259 0.15063
 C505 C 0.01256 0.59034 0.15904
 C506 C -0.00892 0.60651 0.13410
 C507 C 0.06394 0.63328 0.09853
 C508 C 0.14639 0.63567 0.08826
 C509 C 0.18378 0.63293 0.11479
 H510 H -0.20722 0.52667 0.20890
 H511 H -0.21372 0.53910 0.26966
 H512 H 0.13920 0.63559 0.24586
 H513 H -0.07269 0.60383 0.14239
 H514 H 0.05363 0.64975 0.07900
 H515 H 0.25929 0.64439 0.10786
 C516 C 0.21606 1.10282 0.87943
 C517 C 0.29896 1.10987 0.85679
 C518 C 0.33675 1.12654 0.81753
 C519 C 0.29454 1.13984 0.80124
 C520 C 0.21761 1.13647 0.82219
 C521 C 0.17764 1.11528 0.85931
 O522 O 0.28683 1.09970 0.87904
 C523 C 0.28012 1.08826 0.91341
 C524 C 0.33768 1.10165 0.87624
 C525 C 0.42589 1.10541 0.86422
 C526 C 0.43987 1.08445 0.88946
 C527 C 0.37202 1.06101 0.92510
 C528 C 0.30066 1.06582 0.93699
 H529 H 0.40025 1.13150 0.80155
 H530 H 0.32793 1.15698 0.77265
 H531 H 0.11447 1.11089 0.87485
 H532 H 0.47254 1.11966 0.83640
 H533 H 0.49704 1.08202 0.88111
 H534 H 0.27034 1.08367 0.93399
 C535 C 0.00920 0.81072 1.22342
 C536 C 0.12747 0.88043 1.21955
 C537 C 0.19789 0.90082 1.24267
 C538 C 0.16567 0.85117 1.26345
 C539 C 0.06101 0.78236 1.26412
 C540 C -0.01430 0.76479 1.24613
 O541 O 0.10615 0.87539 1.20118
 C542 C 0.08029 0.88220 1.17389
 C543 C 0.16584 0.92172 1.19151
 C544 C 0.28726 0.99478 1.17625
 C545 C 0.33619 1.01784 1.13974
 C546 C 0.26586 0.97291 1.11993
 C547 C 0.14025 0.91052 1.13684
 H548 H 0.28307 0.95374 1.23996
 H549 H 0.22921 0.86926 1.27661
 H550 H -0.09882 0.71154 1.25003
 H551 H 0.34764 1.02589 1.19127
 H552 H 0.43197 1.06734 1.12714
 H553 H 0.08514 0.88256 1.12042
 C554 C 0.73337 1.11088 1.15208
 C555 C 0.68927 1.12821 1.14319
 C556 C 0.61793 1.12492 1.16788
 C557 C 0.59533 1.10612 1.20341
 C558 C 0.65035 1.09522 1.21375
 C559 C 0.71629 1.09466 1.18764
 O560 O 0.78465 1.10854 1.12422
 C561 C 0.77055 1.12399 1.09758
 C562 C 0.71590 1.13823 1.10795
 C563 C 0.68011 1.14837 1.08582
 C564 C 0.68500 1.13386 1.05315
 C565 C 0.72105 1.10778 1.04441
 C566 C 0.78261 1.11350 1.06410
 H567 H 0.58267 1.13768 1.15999
 H568 H 0.54471 1.10689 1.22268
 H569 H 0.75888 1.08614 1.19449
 H570 H 0.64112 1.16162 1.09498
 H571 H 0.65134 1.13666 1.03584
 H572 H 0.82437 1.10162 1.05593
 C573 C 0.69373 0.83585 0.87523
 C574 C 0.68260 0.82480 0.90995
 C575 C 0.73723 0.81588 0.92115
 C576 C 0.80077 0.81437 0.89586
 C577 C 0.80426 0.81873 0.86031
 C578 C 0.75401 0.83254 0.84951
 O579 O 0.63805 0.84613 0.87048
 C580 C 0.58970 0.84042 0.90305
 C581 C 0.61246 0.82577 0.92808
 C582 C 0.56932 0.81595 0.96391
 C583 C 0.50493 0.82510 0.97435
 C584 C 0.48692 0.84482 0.94898
 C585 C 0.52702 0.85100 0.91287
 H586 H 0.72942 0.80906 0.94855
 H587 H 0.84074 0.80545 0.90471
 H588 H 0.75515 0.83628 0.82266
 H589 H 0.58781 0.80367 0.98293
 H590 H 0.47517 0.82079 1.00205
 H591 H 0.51733 0.86807 0.89306
   
