data_POSCAR
  _audit_creation_date              2014-09-24
  _audit_creation_method            'ToBaCCo'
  _symmetry_space_group_name_H-M    'P1'
  _symmetry_Int_Tables_number       1
  _symmetry_cell_setting            triclinic
  loop_
  _symmetry_equiv_pos_as_xyz
 x,y,z
_cell_length_a 36.4470
_cell_length_b 36.5215
_cell_length_c 36.4592
_cell_angle_alpha 86.773900
_cell_angle_beta 81.134000
_cell_angle_gamma 93.200000
loop_
  _atom_site_label
  _atom_site_type_symbol
  _atom_site_fract_x
  _atom_site_fract_y
  _atom_site_fract_z
C1 C 0.57097 0.41463 -0.02203
 C2 C 0.59686 0.44307 -0.02104
 C3 C 0.57766 0.47196 -0.00615
 N4 N 0.54080 0.46230 0.00122
 C5 C 0.53667 0.42729 -0.00859
 C6 C 0.59420 0.50602 0.00198
 C7 C 0.57277 0.53679 0.00972
 C8 C 0.58360 0.56636 0.02879
 C9 C 0.55635 0.59082 0.02927
 C10 C 0.52939 0.57564 0.01059
 N11 N 0.53935 0.54242 -0.00087
 C12 C 0.49690 0.59305 0.00407
 C13 C 0.46470 0.57250 -0.00268
 C14 C 0.43439 0.58711 -0.01567
 C15 C 0.40836 0.55854 -0.01553
 C16 C 0.42397 0.52720 -0.00355
 N17 N 0.45835 0.53577 0.00442
 C18 C 0.40557 0.49182 0.00218
 C19 C 0.42409 0.45947 0.00767
 C20 C 0.40659 0.42488 0.01785
 C21 C 0.43410 0.40048 0.01623
 C22 C 0.46766 0.42082 0.00518
 N23 N 0.46127 0.45669 -0.00012
 C24 C 0.50262 0.40581 -0.00317
 H25 H 0.57683 0.38774 -0.03159
 H26 H 0.62648 0.44243 -0.03023
 H27 H 0.48064 0.47726 -0.01285
 H28 H 0.60842 0.56981 0.04148
 H29 H 0.55618 0.61668 0.04239
 H30 H 0.43120 0.61542 -0.02433
 H31 H 0.38116 0.56070 -0.02354
 H32 H 0.42968 0.37100 0.02160
 H33 H 0.52593 0.52626 -0.01809
 H34 H 0.37702 0.41769 0.02464
 C35 C 0.01296 0.55915 0.59203
 C36 C 0.01247 0.58775 0.56621
 C37 C 0.00092 0.57289 0.53533
 N38 N -0.00481 0.53596 0.54125
 C39 C 0.00273 0.52753 0.57583
 C40 C -0.00517 0.59340 0.50278
 C41 C -0.01001 0.57624 0.46967
 C42 C -0.02620 0.59199 0.44103
 C43 C -0.02434 0.56757 0.41364
 C44 C -0.00751 0.53729 0.42634
 N45 N 0.00113 0.54270 0.46055
 C46 C 0.00087 0.50653 0.40545
 C47 C 0.00870 0.47236 0.42153
 C48 C 0.02032 0.44266 0.40175
 C49 C 0.02152 0.41408 0.42750
 C50 C 0.01090 0.42736 0.46217
 N51 N 0.00285 0.46291 0.45841
 C52 C 0.00608 0.40600 0.49630
 C53 C -0.00182 0.42091 0.53142
 C54 C -0.01222 0.40034 0.56495
 C55 C -0.01461 0.42465 0.59253
 C56 C -0.00557 0.45946 0.57515
 N57 N 0.00243 0.45688 0.53797
 C58 C -0.00159 0.49194 0.59387
 H59 H 0.02031 0.56146 0.61948
 H60 H 0.01997 0.61624 0.56985
 H61 H 0.01442 0.47787 0.51876
 H62 H -0.03835 0.61833 0.44001
 H63 H -0.03447 0.57158 0.38740
 H64 H 0.02672 0.44151 0.37187
 H65 H 0.02885 0.38655 0.42127
 H66 H -0.02133 0.41730 0.62207
 H67 H 0.01721 0.52626 0.47503
 H68 H -0.01685 0.37079 0.56932
 C69 C 0.40049 0.02393 0.57245
 C70 C 0.42512 0.02462 0.59728
 C71 C 0.45775 0.01122 0.57973
 N72 N 0.45399 0.00297 0.54474
 C73 C 0.41902 0.01078 0.54031
 C74 C 0.49006 0.00606 0.59621
 C75 C 0.52478 -0.00043 0.57464
 C76 C 0.55438 -0.01501 0.58889
 C77 C 0.58349 -0.01423 0.56012
 C78 C 0.57085 -0.00025 0.52843
 N79 N 0.53494 0.00820 0.53769
 C80 C 0.59333 0.00790 0.49306
 C81 C 0.57804 0.01475 0.46000
 C82 C 0.59850 0.02328 0.42483
 C83 C 0.57367 0.02315 0.40017
 C84 C 0.53883 0.01434 0.42088
 N85 N 0.54163 0.00891 0.45730
 C86 C 0.50582 0.00819 0.40565
 C87 C 0.47034 0.00064 0.42746
 C88 C 0.43874 -0.01210 0.41396
 C89 C 0.40973 -0.01346 0.44306
 C90 C 0.42429 -0.00117 0.47345
 N91 N 0.46122 0.00737 0.46373
 C92 C 0.40301 0.00474 0.50814
 H93 H 0.37234 0.03261 0.57731
 H94 H 0.41964 0.03430 0.62498
 H95 H 0.47810 0.02123 0.47962
 H96 H 0.55522 -0.02477 0.61731
 H97 H 0.61097 -0.02250 0.56292
 H98 H 0.62835 0.02771 0.41723
 H99 H 0.58074 0.02780 0.37028
 H100 H 0.38104 -0.02187 0.44174
 H101 H 0.51972 0.02322 0.52096
 H102 H 0.43653 -0.01919 0.38594
 O103 O 0.47474 -0.00015 -0.04590
 O104 O 0.47339 -0.00836 0.05542
 O105 O 0.47089 0.04584 0.00663
 O106 O 0.47743 -0.05419 0.00319
 O107 O 0.53864 -0.04659 -0.00411
 O108 O 0.53215 0.05369 -0.00392
 O109 O 0.53452 0.00111 0.04667
 O110 O 0.53606 0.00611 -0.05470
 Cu111 Cu 0.46797 -0.00497 0.00565
 Cu112 Cu 0.54149 0.00434 -0.00492
 C113 C 0.50565 0.00409 -0.06767
 C114 C 0.50370 -0.00473 0.06839
 C115 C 0.50041 0.06690 0.00180
 C116 C 0.50914 -0.06756 -0.00069
 O117 O -0.04922 0.52499 1.00147
 O118 O 0.05287 0.52633 0.99347
 O119 O 0.00609 0.52627 0.94661
 O120 O -0.00210 0.52516 1.04862
 O121 O -0.00560 0.46456 1.05193
 O122 O 0.00275 0.46563 0.94994
 O123 O 0.04960 0.46569 0.99738
 O124 O -0.05226 0.46438 1.00453
 Cu125 Cu 0.00217 0.53177 0.99727
 Cu126 Cu -0.00169 0.45900 1.00129
 C127 C -0.06821 0.49442 1.00416
 C128 C 0.06868 0.49622 0.99410
 C129 C 0.00583 0.49614 0.93082
 C130 C -0.00516 0.49466 1.06776
 O131 O 0.00168 -0.04659 0.46176
 O132 O 0.00154 0.05365 0.46796
 O133 O 0.05230 0.00616 0.46416
 O134 O -0.04919 0.00108 0.46595
 O135 O -0.05776 -0.00780 0.52711
 O136 O 0.04363 -0.00044 0.52545
 O137 O -0.00846 0.04601 0.52923
 O138 O -0.00587 -0.05411 0.52297
 Cu139 Cu 0.00246 0.00430 0.45881
 Cu140 Cu -0.00794 -0.00484 0.53233
 C141 C -0.00191 -0.06752 0.49130
 C142 C -0.00377 0.06698 0.49964
 C143 C 0.06536 0.00396 0.49452
 C144 C -0.07085 -0.00438 0.49685
 C145 C -0.34447 0.53974 0.98651
 C146 C -0.30624 0.54230 0.98755
 C147 C -0.28955 0.51446 1.00590
 C148 C -0.31225 0.48448 1.02437
 C149 C -0.35040 0.48178 1.02314
 C150 C -0.36710 0.50911 1.00379
 C151 C -0.24869 0.51802 1.00554
 C152 C -0.22840 0.48935 1.01164
 C153 C -0.18734 0.49200 1.00999
 C154 C -0.16856 0.45949 1.00743
 C155 C -0.12998 0.46027 1.00573
 C156 C -0.10918 0.49368 1.00661
 C157 C -0.12791 0.52624 1.00965
 C158 C -0.16659 0.52545 1.01154
 H159 H -0.35619 0.56125 0.97117
 H160 H -0.28953 0.56588 0.97341
 H161 H -0.30097 0.46325 1.04035
 H162 H -0.36709 0.45859 1.03813
 H163 H -0.23495 0.54496 0.99784
 H164 H -0.24197 0.46202 1.01624
 H165 H -0.18377 0.43330 1.00648
 H166 H -0.11644 0.43466 1.00347
 H167 H -0.11270 0.55239 1.01078
 H168 H -0.17987 0.55105 1.01468
 C169 C 0.34077 0.48349 1.03715
 C170 C 0.30225 0.48056 1.03809
 C171 C 0.28709 0.48350 1.00501
 C172 C 0.31120 0.48824 0.97077
 C173 C 0.34976 0.49054 0.96983
 C174 C 0.36472 0.48854 1.00303
 C175 C 0.24619 0.48069 1.00705
 C176 C 0.22875 0.49945 0.98299
 C177 C 0.18775 0.49794 0.98607
 C178 C 0.17061 0.52925 0.97499
 C179 C 0.13190 0.52881 0.97785
 C180 C 0.10963 0.49671 0.99109
 C181 C 0.12687 0.46509 1.00140
 C182 C 0.16554 0.46571 0.99907
 H183 H 0.35199 0.48173 1.06298
 H184 H 0.28421 0.47659 1.06473
 H185 H 0.30035 0.48961 0.94475
 H186 H 0.36798 0.49412 0.94328
 H187 H 0.22995 0.46473 1.03056
 H188 H 0.24479 0.51848 0.96186
 H189 H 0.18720 0.55427 0.96458
 H190 H 0.11942 0.55351 0.96942
 H191 H 0.11044 0.43991 1.01155
 H192 H 0.17802 0.44083 1.00692
 C193 C -0.02923 -0.35231 0.53306
 C194 C -0.03054 -0.31423 0.53401
 C195 C -0.01021 -0.29063 0.50540
 C196 C 0.01160 -0.30610 0.47562
 C197 C 0.01275 -0.34423 0.47455
 C198 C -0.00731 -0.36794 0.50346
 C199 C -0.01150 -0.25035 0.50868
 C200 C -0.00032 -0.22509 0.48038
 C201 C -0.00118 -0.18487 0.48426
 C202 C -0.00027 -0.16153 0.45215
 C203 C -0.00051 -0.12346 0.45437
 C204 C -0.00153 -0.10783 0.48884
 C205 C -0.00201 -0.13111 0.52096
 C206 C -0.00161 -0.16916 0.51872
 H207 H -0.04585 -0.36962 0.55533
 H208 H -0.04758 -0.30316 0.55729
 H209 H 0.02866 -0.28913 0.45351
 H210 H 0.03046 -0.35519 0.45165
 H211 H -0.02335 -0.24149 0.53552
 H212 H 0.00853 -0.23382 0.45275
 H213 H 0.00046 -0.17281 0.42521
 H214 H -0.00000 -0.10628 0.42908
 H215 H -0.00235 -0.11990 0.54787
 H216 H -0.00092 -0.18588 0.54399
 C217 C 0.04269 0.35029 0.48811
 C218 C 0.04453 0.31230 0.48626
 C219 C 0.01187 0.28907 0.49218
 C220 C -0.02281 0.30461 0.49914
 C221 C -0.02463 0.34263 0.50045
 C222 C 0.00810 0.36564 0.49514
 C223 C 0.01476 0.24905 0.48942
 C224 C -0.00984 0.22403 0.50927
 C225 C -0.00708 0.18400 0.50640
 C226 C -0.02063 0.16009 0.53759
 C227 C -0.01908 0.12208 0.53559
 C228 C -0.00464 0.10722 0.50205
 C229 C 0.00848 0.13116 0.47066
 C230 C 0.00739 0.16918 0.47282
 H231 H 0.06817 0.36780 0.48373
 H232 H 0.07151 0.30098 0.48050
 H233 H -0.04852 0.28755 0.50274
 H234 H -0.05153 0.35421 0.50553
 H235 H 0.03890 0.24003 0.47189
 H236 H -0.03177 0.23298 0.52970
 H237 H -0.03224 0.17087 0.56365
 H238 H -0.02966 0.10431 0.56017
 H239 H 0.01962 0.12052 0.44439
 H240 H 0.01713 0.18682 0.44797
 C241 C 0.45872 -0.01379 -0.34048
 C242 C 0.45699 -0.01394 -0.30192
 C243 C 0.48405 0.00604 -0.28631
 C244 C 0.51249 0.02707 -0.31021
 C245 C 0.51435 0.02709 -0.34878
 C246 C 0.48761 0.00653 -0.36456
 C247 C 0.48116 0.00466 -0.24516
 C248 C 0.50993 0.01299 -0.22747
 C249 C 0.50760 0.01068 -0.18636
 C250 C 0.54079 0.00977 -0.17135
 C251 C 0.54019 0.00771 -0.13288
 C252 C 0.50628 0.00659 -0.10845
 C253 C 0.47302 0.00794 -0.12337
 C254 C 0.47363 0.01019 -0.16188
 H255 H 0.43800 -0.03050 -0.35150
 H256 H 0.43466 -0.03022 -0.28420
 H257 H 0.53308 0.04408 -0.29947
 H258 H 0.53639 0.04388 -0.36637
 H259 H 0.45471 -0.00554 -0.22923
 H260 H 0.53714 0.02010 -0.24356
 H261 H 0.56737 0.01043 -0.18948
 H262 H 0.56633 0.00681 -0.12230
 H263 H 0.44646 0.00756 -0.10529
 H264 H 0.44745 0.01209 -0.17209
 C265 C 0.51283 0.04219 0.34331
 C266 C 0.51582 0.04275 0.30461
 C267 C 0.51400 0.00980 0.28672
 C268 C 0.51024 -0.02385 0.30817
 C269 C 0.50780 -0.02438 0.34684
 C270 C 0.50871 0.00864 0.36462
 C271 C 0.51704 0.01143 0.24572
 C272 C 0.49954 -0.01352 0.22779
 C273 C 0.50134 -0.01102 0.18691
 C274 C 0.47055 -0.02435 0.17167
 C275 C 0.47121 -0.02212 0.13318
 C276 C 0.50306 -0.00721 0.10911
 C277 C 0.53423 0.00536 0.12434
 C278 C 0.53336 0.00362 0.16287
 H279 H 0.51386 0.06788 0.35669
 H280 H 0.51905 0.06896 0.28862
 H281 H 0.50982 -0.04973 0.29511
 H282 H 0.50508 -0.05049 0.36297
 H283 H 0.53211 0.03523 0.23017
 H284 H 0.48125 -0.03516 0.24363
 H285 H 0.44572 -0.03605 0.18965
 H286 H 0.44687 -0.03230 0.12225
 H287 H 0.55922 0.01684 0.10649
 H288 H 0.55793 0.01322 0.17373
 C289 C 0.46588 -0.35218 0.02597
 C290 C 0.46515 -0.31406 0.02695
 C291 C 0.49482 -0.29077 0.00805
 C292 C 0.52550 -0.30664 -0.01189
 C293 C 0.52636 -0.34482 -0.01266
 C294 C 0.49633 -0.36822 0.00582
 C295 C 0.49170 -0.25040 0.00892
 C296 C 0.52015 -0.22520 -0.00186
 C297 C 0.51627 -0.18495 -0.00128
 C298 C 0.54831 -0.16162 -0.00172
 C299 C 0.54608 -0.12353 -0.00159
 C300 C 0.51167 -0.10787 -0.00113
 C301 C 0.47964 -0.13113 -0.00117
 C302 C 0.48189 -0.16919 -0.00149
 H303 H 0.44277 -0.36920 0.04159
 H304 H 0.44120 -0.30272 0.04262
 H305 H 0.54860 -0.28997 -0.02774
 H306 H 0.55004 -0.35607 -0.02892
 H307 H 0.46470 -0.24140 0.02008
 H308 H 0.54787 -0.23396 -0.01015
 H309 H 0.57520 -0.17292 -0.00197
 H310 H 0.57131 -0.10637 -0.00168
 H311 H 0.45277 -0.11990 -0.00129
 H312 H 0.45670 -0.18588 -0.00258
 C313 C 0.50946 0.35063 -0.04070
 C314 C 0.51130 0.31270 -0.04319
 C315 C 0.50655 0.28905 -0.01087
 C316 C 0.50070 0.30411 0.02411
 C317 C 0.49941 0.34208 0.02655
 C318 C 0.50366 0.36552 -0.00582
 C319 C 0.50940 0.24911 -0.01446
 C320 C 0.49028 0.22372 0.01022
 C321 C 0.49323 0.18377 0.00674
 C322 C 0.46233 0.15961 0.02067
 C323 C 0.46445 0.12167 0.01853
 C324 C 0.49784 0.10710 0.00312
 C325 C 0.52894 0.13128 -0.01043
 C326 C 0.52665 0.16925 -0.00877
 H327 H 0.51294 0.36846 -0.06592
 H328 H 0.51617 0.30176 -0.07039
 H329 H 0.49797 0.28672 0.04954
 H330 H 0.49523 0.35328 0.05366
 H331 H 0.52633 0.24050 -0.03917
 H332 H 0.47038 0.23229 0.03283
 H333 H 0.43641 0.17016 0.03306
 H334 H 0.44010 0.10372 0.02946
 H335 H 0.55509 0.12085 -0.02232
 H336 H 0.55128 0.18708 -0.01886
 C337 C -0.34536 0.04072 0.47987
 C338 C -0.30665 0.04094 0.47682
 C339 C -0.28942 0.00862 0.48457
 C340 C -0.31158 -0.02430 0.49432
 C341 C -0.35026 -0.02460 0.49702
 C342 C -0.36762 0.00801 0.49035
 C343 C -0.24835 0.01001 0.48129
 C344 C -0.23052 -0.01246 0.50184
 C345 C -0.18956 -0.01012 0.49971
 C346 C -0.17429 -0.02085 0.53137
 C347 C -0.13577 -0.01885 0.53050
 C348 C -0.11164 -0.00668 0.49767
 C349 C -0.12690 0.00333 0.46570
 C350 C -0.16547 0.00170 0.46670
 H351 H -0.35802 0.06619 0.47432
 H352 H -0.29014 0.06654 0.46886
 H353 H -0.29910 -0.04998 0.49915
 H354 H -0.36669 -0.05042 0.50393
 H355 H -0.23263 0.03181 0.46314
 H356 H -0.24649 -0.03172 0.52277
 H357 H -0.19227 -0.03038 0.55702
 H358 H -0.12488 -0.02702 0.55552
 H359 H -0.10904 0.01261 0.43993
 H360 H -0.17627 0.00915 0.44146
 C361 C 0.33893 -0.02220 0.53419
 C362 C 0.30029 -0.02294 0.53617
 C363 C 0.28392 0.00269 0.51464
 C364 C 0.30703 0.02987 0.49182
 C365 C 0.34567 0.03061 0.48990
 C366 C 0.36188 0.00443 0.51085
 C367 C 0.24281 0.00066 0.51739
 C368 C 0.22513 0.01401 0.49035
 C369 C 0.18408 0.01110 0.49247
 C370 C 0.16909 0.01361 0.45927
 C371 C 0.13060 0.01121 0.45989
 C372 C 0.10616 0.00652 0.49385
 C373 C 0.12112 0.00452 0.52717
 C374 C 0.15963 0.00691 0.52654
 H375 H 0.35100 -0.04256 0.55063
 H376 H 0.28314 -0.04390 0.55424
 H377 H 0.29550 0.05092 0.47581
 H378 H 0.36300 0.05164 0.47211
 H379 H 0.22693 -0.01432 0.54168
 H380 H 0.24125 0.02584 0.46457
 H381 H 0.18726 0.01719 0.43267
 H382 H 0.12001 0.01303 0.43373
 H383 H 0.10305 0.00128 0.55381
 H384 H 0.16997 0.00610 0.55280
 C385 C 0.02514 0.53392 1.34119
 C386 C 0.02443 0.53646 1.30291
 C387 C -0.00165 0.51475 1.28761
 C388 C -0.02794 0.49128 1.31163
 C389 C -0.02723 0.48881 1.34990
 C390 C -0.00043 0.50980 1.36488
 C391 C -0.00092 0.51779 1.24675
 C392 C -0.01414 0.49077 1.22794
 C393 C -0.01198 0.49287 1.18690
 C394 C -0.01362 0.46001 1.16887
 C395 C -0.01150 0.46058 1.13025
 C396 C -0.00800 0.49413 1.10876
 C397 C -0.00705 0.52709 1.12683
 C398 C -0.00913 0.52651 1.16549
 H399 H 0.04584 0.55051 1.35236
 H400 H 0.04469 0.55505 1.28512
 H401 H -0.04937 0.47513 1.30117
 H402 H -0.04756 0.47050 1.36793
 H403 H 0.01319 0.54223 1.23164
 H404 H -0.02502 0.46497 1.24273
 H405 H -0.01617 0.43374 1.18470
 H406 H -0.01248 0.43468 1.11724
 H407 H -0.00473 0.55339 1.11111
 H408 H -0.00903 0.55246 1.17839
 C409 C -0.03653 0.48261 0.65864
 C410 C -0.03745 0.47958 0.69715
 C411 C -0.00441 0.48327 0.71232
 C412 C 0.02979 0.48890 0.68822
 C413 C 0.03072 0.49134 0.64968
 C414 C -0.00245 0.48855 0.63472
 C415 C -0.00645 0.48035 0.75322
 C416 C 0.01726 0.49947 0.77075
 C417 C 0.01414 0.49789 0.81175
 C418 C 0.02480 0.52930 0.82895
 C419 C 0.02188 0.52883 0.86765
 C420 C 0.00901 0.49660 0.88987
 C421 C -0.00084 0.46487 0.87258
 C422 C 0.00154 0.46552 0.83390
 H423 H -0.06233 0.48024 0.64741
 H424 H -0.06405 0.47493 0.71517
 H425 H 0.05580 0.49087 0.69907
 H426 H 0.05724 0.49562 0.63147
 H427 H -0.02970 0.46396 0.76939
 H428 H 0.03808 0.51888 0.75480
 H429 H 0.03491 0.55444 0.81241
 H430 H 0.02996 0.55362 0.88017
 H431 H -0.01071 0.43960 0.88897
 H432 H -0.00596 0.44056 0.82138
   
