data_POSCAR
  _audit_creation_date              2014-09-24
  _audit_creation_method            'ToBaCCo'
  _symmetry_space_group_name_H-M    'P1'
  _symmetry_Int_Tables_number       1
  _symmetry_cell_setting            triclinic
  loop_
  _symmetry_equiv_pos_as_xyz
 x,y,z
_cell_length_a 53.7746
_cell_length_b 53.8183
_cell_length_c 53.6917
_cell_angle_alpha 90.000000
_cell_angle_beta 90.000000
_cell_angle_gamma 89.927400
loop_
  _atom_site_label
  _atom_site_type_symbol
  _atom_site_fract_x
  _atom_site_fract_y
  _atom_site_fract_z
C1 C 0.16070 0.17789 0.19708
 C2 C 0.16069 0.19631 0.17860
 C3 C 0.17890 0.19630 0.16039
 C4 C 0.19737 0.17787 0.16041
 C5 C 0.19738 0.15970 0.17864
 C6 C 0.17891 0.15971 0.19710
 C7 C 0.14540 0.17341 0.21712
 N8 N 0.15389 0.15294 0.22932
 C9 C 0.17440 0.14445 0.21717
 C10 C 0.21744 0.14443 0.17414
 N11 N 0.22960 0.15291 0.15363
 C12 C 0.21741 0.17338 0.14512
 C13 C 0.17438 0.21632 0.14508
 N14 N 0.15390 0.22843 0.15358
 C15 C 0.14539 0.21633 0.17407
 H16 H 0.12931 0.18430 0.22245
 H17 H 0.18530 0.12838 0.22254
 H18 H 0.22280 0.12837 0.18505
 H19 H 0.22274 0.18427 0.12902
 H20 H 0.18523 0.22172 0.12898
 H21 H 0.12930 0.22174 0.18491
 C22 C -0.15985 0.82253 0.19708
 C23 C -0.15984 0.80411 0.17860
 C24 C -0.17805 0.80412 0.16039
 C25 C -0.19651 0.82255 0.16041
 C26 C -0.19652 0.84072 0.17864
 C27 C -0.17806 0.84072 0.19710
 C28 C -0.14455 0.82702 0.21712
 N29 N -0.15304 0.84748 0.22932
 C30 C -0.17355 0.85598 0.21717
 C31 C -0.21659 0.85600 0.17414
 N32 N -0.22874 0.84751 0.15363
 C33 C -0.21656 0.82704 0.14512
 C34 C -0.17353 0.78410 0.14508
 N35 N -0.15305 0.77199 0.15358
 C36 C -0.14454 0.78409 0.17407
 H37 H -0.12845 0.81612 0.22245
 H38 H -0.18445 0.87204 0.22254
 H39 H -0.22195 0.87206 0.18505
 H40 H -0.22189 0.81616 0.12902
 H41 H -0.18438 0.77871 0.12898
 H42 H -0.12845 0.77868 0.18491
 C43 C -0.16040 0.17821 -0.19689
 C44 C -0.16043 0.19666 -0.17845
 C45 C -0.17864 0.19671 -0.16023
 C46 C -0.19707 0.17828 -0.16023
 C47 C -0.19704 0.16008 -0.17843
 C48 C -0.17858 0.16004 -0.19688
 C49 C -0.14508 0.17369 -0.21692
 N50 N -0.15353 0.15320 -0.22909
 C51 C -0.17403 0.14474 -0.21693
 C52 C -0.21706 0.14482 -0.17391
 N53 N -0.22924 0.15333 -0.15341
 C54 C -0.21711 0.17381 -0.14492
 C55 C -0.17413 0.21675 -0.14496
 N56 N -0.15367 0.22882 -0.15349
 C57 C -0.14515 0.21667 -0.17396
 H58 H -0.12901 0.18456 -0.22226
 H59 H -0.18490 0.12867 -0.22227
 H60 H -0.22237 0.12874 -0.18480
 H61 H -0.22247 0.18471 -0.12884
 H62 H -0.18498 0.22219 -0.12886
 H63 H -0.12907 0.22203 -0.18482
 C64 C 0.16125 0.82221 -0.19689
 C65 C 0.16128 0.80376 -0.17845
 C66 C 0.17949 0.80372 -0.16023
 C67 C 0.19792 0.82214 -0.16023
 C68 C 0.19789 0.84034 -0.17843
 C69 C 0.17943 0.84038 -0.19688
 C70 C 0.14594 0.82674 -0.21692
 N71 N 0.15439 0.84722 -0.22909
 C72 C 0.17488 0.85568 -0.21693
 C73 C 0.21791 0.85561 -0.17391
 N74 N 0.23010 0.84710 -0.15341
 C75 C 0.21796 0.82662 -0.14492
 C76 C 0.17499 0.78367 -0.14496
 N77 N 0.15452 0.77161 -0.15349
 C78 C 0.14601 0.78376 -0.17396
 H79 H 0.12986 0.81587 -0.22226
 H80 H 0.18575 0.87175 -0.22227
 H81 H 0.22323 0.87168 -0.18480
 H82 H 0.22333 0.81571 -0.12884
 H83 H 0.18583 0.77823 -0.12886
 H84 H 0.12992 0.77839 -0.18482
 C85 C 0.17701 1.15963 0.80409
 C86 C 0.19545 1.15963 0.82256
 C87 C 0.19546 1.17784 0.84075
 C88 C 0.17704 1.19630 0.84071
 C89 C 0.15884 1.19630 0.82249
 C90 C 0.15883 1.17784 0.80405
 C91 C 0.17256 1.14437 0.78403
 N92 N 0.15211 1.15288 0.77181
 C93 C 0.14359 1.17337 0.78396
 C94 C 0.14361 1.21640 0.82693
 N95 N 0.15215 1.22858 0.84740
 C96 C 0.17260 1.21638 0.85595
 C97 C 0.21553 1.17336 0.85601
 N98 N 0.22765 1.15290 0.84750
 C99 C 0.21550 1.14437 0.82705
 H100 H 0.18347 1.12830 0.77870
 H101 H 0.12754 1.18429 0.77855
 H102 H 0.12757 1.22177 0.81598
 H103 H 0.18352 1.22175 0.87201
 H104 H 0.22098 1.18424 0.87207
 H105 H 0.22092 1.12830 0.81618
 C106 C 0.82384 0.84079 0.80409
 C107 C 0.80541 0.84079 0.82256
 C108 C 0.80539 0.82259 0.84075
 C109 C 0.82382 0.80412 0.84071
 C110 C 0.84201 0.80412 0.82249
 C111 C 0.84202 0.82258 0.80406
 C112 C 0.82830 0.85606 0.78403
 N113 N 0.84875 0.84754 0.77181
 C114 C 0.85726 0.82706 0.78396
 C115 C 0.85724 0.78403 0.82693
 N116 N 0.84871 0.77184 0.84740
 C117 C 0.82826 0.78404 0.85595
 C118 C 0.78532 0.82706 0.85601
 N119 N 0.77321 0.84752 0.84750
 C120 C 0.78535 0.85605 0.82705
 H121 H 0.81738 0.87213 0.77870
 H122 H 0.87331 0.81613 0.77855
 H123 H 0.87329 0.77865 0.81598
 H124 H 0.81733 0.77868 0.87201
 H125 H 0.77987 0.81619 0.87207
 H126 H 0.77993 0.87212 0.81618
 C127 C 0.17725 0.84130 1.19602
 C128 C 0.19568 0.84131 1.17754
 C129 C 0.19570 0.82313 1.15932
 C130 C 0.17729 0.80471 1.15932
 C131 C 0.15910 0.80470 1.17755
 C132 C 0.15908 0.82313 1.19603
 C133 C 0.17280 0.85653 1.21612
 N134 N 0.15236 0.84803 1.22833
 C135 C 0.14385 0.82758 1.21614
 C136 C 0.14390 0.78464 1.17308
 N137 N 0.15245 0.77253 1.15261
 C138 C 0.17286 0.78466 1.14406
 C139 C 0.21576 0.82759 1.14406
 N140 N 0.22787 0.84800 1.15260
 C141 C 0.21573 0.85653 1.17307
 H142 H 0.18371 0.87257 1.22148
 H143 H 0.12782 0.81668 1.22153
 H144 H 0.12785 0.77920 1.18397
 H145 H 0.18374 0.77924 1.12798
 H146 H 0.22121 0.81673 1.12798
 H147 H 0.22116 0.87257 1.18396
 C148 C 0.82360 1.15912 1.19602
 C149 C 0.80517 1.15912 1.17754
 C150 C 0.80515 1.17729 1.15932
 C151 C 0.82356 1.19571 1.15932
 C152 C 0.84175 1.19572 1.17755
 C153 C 0.84177 1.17730 1.19603
 C154 C 0.82805 1.14389 1.21612
 N155 N 0.84849 1.15240 1.22833
 C156 C 0.85700 1.17284 1.21614
 C157 C 0.85696 1.21578 1.17308
 N158 N 0.84841 1.22790 1.15261
 C159 C 0.82799 1.21576 1.14406
 C160 C 0.78509 1.17284 1.14406
 N161 N 0.77298 1.15242 1.15260
 C162 C 0.78512 1.14389 1.17307
 H163 H 0.81715 1.12786 1.22148
 H164 H 0.87304 1.18375 1.22153
 H165 H 0.87300 1.22123 1.18397
 H166 H 0.81712 1.22119 1.12798
 H167 H 0.77964 1.18370 1.12798
 H168 H 0.77970 1.12786 1.18396
 N169 N 0.52654 1.04424 0.97320
 N170 N 0.54548 1.05952 0.97014
 N171 N 0.47422 1.02696 0.95591
 N172 N 0.45519 1.02996 0.94066
 N173 N 0.47420 1.04422 0.97321
 N174 N 0.45516 1.05943 0.97021
 N175 N 0.52657 1.02698 0.95590
 N176 N 0.54553 1.03004 0.94060
 C177 C 0.55712 1.05042 0.94972
 C178 C 0.44353 1.05030 0.94983
 N179 N 0.47432 0.95619 0.97320
 N180 N 0.45537 0.94091 0.97014
 N181 N 0.52663 0.97346 0.95591
 N182 N 0.54566 0.97046 0.94066
 N183 N 0.52666 0.95621 0.97321
 N184 N 0.54569 0.94099 0.97021
 N185 N 0.47429 0.97344 0.95590
 N186 N 0.45532 0.97038 0.94060
 Mn187 Mn 0.50043 1.00021 0.95560
 C188 C 0.44374 0.95001 0.94972
 C189 C 0.55732 0.95013 0.94983
 N190 N 0.47417 1.04422 1.02685
 N191 N 0.45517 1.05947 1.02991
 N192 N 0.52654 1.02698 1.04413
 N193 N 0.54556 1.02996 1.05938
 N194 N 0.52652 1.04423 1.02684
 N195 N 0.54552 1.05944 1.02983
 N196 N 0.47420 1.02696 1.04414
 N197 N 0.45523 1.02999 1.05945
 Mn198 Mn 0.50035 1.04453 1.00002
 C199 C 0.44357 1.05035 1.05033
 C200 C 0.55717 1.05030 1.05021
 N201 N 0.52668 0.95621 1.02685
 N202 N 0.54569 0.94095 1.02991
 N203 N 0.47431 0.97345 1.04413
 N204 N 0.45529 0.97046 1.05938
 N205 N 0.47434 0.95619 1.02684
 N206 N 0.45533 0.94098 1.02983
 N207 N 0.52665 0.97347 1.04414
 N208 N 0.54562 0.97044 1.05945
 Mn209 Mn 0.50050 0.95590 1.00002
 Mn210 Mn 0.50043 1.00021 1.04444
 Cl211 Cl 0.50043 1.00021 1.00002
 C212 C 0.55728 0.95007 1.05033
 C213 C 0.44368 0.95012 1.05021
 N214 N 0.04444 0.47395 -0.02714
 N215 N 0.05964 0.45491 -0.03014
 N216 N 0.02725 0.52630 -0.04444
 N217 N 0.03033 0.54527 -0.05972
 N218 N 0.04452 0.52625 -0.02714
 N219 N 0.05982 0.54517 -0.03016
 N220 N 0.02717 0.47400 -0.04443
 N221 N 0.03014 0.45499 -0.05969
 C222 C 0.05048 0.44331 -0.05053
 C223 C 0.05073 0.55682 -0.05057
 N224 N -0.04358 0.52648 -0.02714
 N225 N -0.05879 0.54552 -0.03014
 N226 N -0.02640 0.47412 -0.04444
 N227 N -0.02948 0.45515 -0.05972
 N228 N -0.04366 0.47418 -0.02714
 N229 N -0.05896 0.45526 -0.03016
 N230 N -0.02631 0.52643 -0.04443
 N231 N -0.02928 0.54544 -0.05969
 Mn232 Mn 0.00043 0.50021 -0.04474
 C233 C -0.04962 0.55712 -0.05053
 C234 C -0.04987 0.44361 -0.05057
 N235 N 0.04451 0.52624 0.02651
 N236 N 0.05974 0.54522 0.02951
 N237 N 0.02717 0.47398 0.04380
 N238 N 0.03020 0.45502 0.05910
 N239 N 0.04444 0.47394 0.02650
 N240 N 0.05970 0.45494 0.02956
 N241 N 0.02723 0.52628 0.04380
 N242 N 0.03023 0.54528 0.05904
 Mn243 Mn 0.04478 0.50009 -0.00032
 C244 C 0.05059 0.55687 0.04989
 C245 C 0.05057 0.44336 0.04998
 N246 N -0.04365 0.47418 0.02651
 N247 N -0.05889 0.45520 0.02951
 N248 N -0.02632 0.52644 0.04380
 N249 N -0.02934 0.54541 0.05910
 N250 N -0.04359 0.52649 0.02650
 N251 N -0.05884 0.54548 0.02956
 N252 N -0.02638 0.47415 0.04380
 N253 N -0.02938 0.45515 0.05904
 Mn254 Mn -0.04392 0.50033 -0.00032
 Mn255 Mn 0.00043 0.50021 0.04410
 Cl256 Cl 0.00043 0.50021 -0.00032
 C257 C -0.04974 0.44356 0.04989
 C258 C -0.04971 0.55707 0.04998
 N259 N 1.02712 0.04424 0.52641
 N260 N 1.03009 0.05948 0.54544
 N261 N 1.04444 0.02699 0.47400
 N262 N 1.05972 0.03003 0.45501
 N263 N 1.02714 0.04424 0.47398
 N264 N 1.03018 0.05950 0.45498
 N265 N 1.04442 0.02700 0.52642
 N266 N 1.05965 0.03002 0.54547
 C267 C 1.05046 0.05037 0.55710
 C268 C 1.05059 0.05039 0.44336
 N269 N 1.02727 -0.04378 0.47401
 N270 N 1.03029 -0.05900 0.45497
 N271 N 1.04452 -0.02652 0.52643
 N272 N 1.05982 -0.02957 0.54542
 N273 N 1.02729 -0.04379 0.52643
 N274 N 1.03038 -0.05907 0.54543
 N275 N 1.04452 -0.02653 0.47401
 N276 N 1.05975 -0.02952 0.45496
 Mn277 Mn 1.04478 0.00023 0.50022
 C278 C 1.05063 -0.04987 0.44331
 C279 C 1.05076 -0.04994 0.55705
 N280 N 0.97358 0.04421 0.47401
 N281 N 0.97057 0.05943 0.45497
 N282 N 0.95633 0.02695 0.52643
 N283 N 0.94103 0.02999 0.54542
 N284 N 0.97356 0.04422 0.52643
 N285 N 0.97047 0.05949 0.54543
 N286 N 0.95633 0.02695 0.47401
 N287 N 0.94110 0.02995 0.45496
 Mn288 Mn 1.00035 0.04453 0.50021
 C289 C 0.95023 0.05029 0.44331
 C290 C 0.95009 0.05037 0.55705
 N291 N 0.97373 -0.04381 0.52641
 N292 N 0.97076 -0.05905 0.54544
 N293 N 0.95642 -0.02656 0.47400
 N294 N 0.94113 -0.02961 0.45501
 N295 N 0.97371 -0.04381 0.47398
 N296 N 0.97067 -0.05908 0.45498
 N297 N 0.95643 -0.02657 0.52642
 N298 N 0.94120 -0.02959 0.54547
 Mn299 Mn 1.00050 -0.04410 0.50021
 Mn300 Mn 0.95608 0.00019 0.50022
 Cl301 Cl 1.00043 0.00021 0.50021
 C302 C 0.95039 -0.04994 0.55710
 C303 C 0.95026 -0.04997 0.44336
 C304 C 1.12334 0.12260 0.29181
 N305 N 1.14387 0.11236 0.28127
 N306 N 1.15385 0.12225 0.26084
 C307 C 1.14368 0.14279 0.25015
 N308 N 1.12310 0.15299 0.26075
 N309 N 1.11313 0.14309 0.28118
 C310 C 1.11238 0.11173 0.31439
 N311 N 1.09188 0.12202 0.32497
 N312 N 1.08198 0.11221 0.34548
 C313 C 1.09223 0.09176 0.35617
 N314 N 1.11273 0.08146 0.34558
 N315 N 1.12262 0.09127 0.32507
 C316 C 1.08136 0.08098 0.37883
 N317 N 1.09165 0.06055 0.38954
 N318 N 1.08184 0.05081 0.41012
 C319 C 1.06139 0.06114 0.42073
 N320 N 1.05107 0.08155 0.41003
 N321 N 1.06089 0.09130 0.38945
 C322 C 0.87752 -0.12217 0.29181
 N323 N 0.85698 -0.11193 0.28127
 N324 N 0.84700 -0.12183 0.26084
 C325 C 0.85718 -0.14236 0.25015
 N326 N 0.87776 -0.15257 0.26075
 N327 N 0.88772 -0.14267 0.28118
 C328 C 0.88847 -0.11131 0.31439
 N329 N 0.90898 -0.12160 0.32497
 N330 N 0.91887 -0.11179 0.34548
 C331 C 0.90863 -0.09133 0.35617
 N332 N 0.88813 -0.08104 0.34558
 N333 N 0.87823 -0.09085 0.32507
 C334 C 0.91949 -0.08056 0.37883
 N335 N 0.90920 -0.06013 0.38954
 N336 N 0.91902 -0.05038 0.41012
 C337 C 0.93947 -0.06072 0.42073
 N338 N 0.94978 -0.08112 0.41003
 N339 N 0.93996 -0.09087 0.38945
 C340 C 0.87711 0.12274 0.70849
 N341 N 0.85659 0.11253 0.71904
 N342 N 0.84658 0.12246 0.73945
 C343 C 0.85671 0.14301 0.75011
 N344 N 0.87727 0.15319 0.73950
 N345 N 0.88727 0.14325 0.71909
 C346 C 0.88809 0.11184 0.68593
 N347 N 0.90858 0.12211 0.67535
 N348 N 0.91851 0.11228 0.65485
 C349 C 0.90831 0.09181 0.64419
 N350 N 0.88784 0.08153 0.65478
 N351 N 0.87791 0.09136 0.67528
 C352 C 0.91921 0.08101 0.62155
 N353 N 0.90899 0.06056 0.61086
 N354 N 0.91884 0.05080 0.59029
 C355 C 0.93926 0.06113 0.57967
 N356 N 0.94951 0.08155 0.59035
 N357 N 0.93966 0.09132 0.61092
 C358 C 1.12375 -0.12232 0.70849
 N359 N 1.11359 -0.14282 0.71909
 N360 N 1.12358 -0.15276 0.73950
 C361 C 1.14414 -0.14258 0.75011
 N362 N 1.15427 -0.12204 0.73945
 N363 N 1.14427 -0.11210 0.71904
 C364 C 1.11276 -0.11142 0.68593
 N365 N 1.12294 -0.09094 0.67528
 N366 N 1.11302 -0.08110 0.65478
 C367 C 1.09254 -0.09138 0.64419
 N368 N 1.08235 -0.11185 0.65485
 N369 N 1.09227 -0.12169 0.67535
 C370 C 1.08164 -0.08058 0.62155
 N371 N 1.06120 -0.09090 0.61092
 N372 N 1.05135 -0.08113 0.59035
 C373 C 1.06159 -0.06070 0.57967
 N374 N 1.08201 -0.05037 0.59029
 N375 N 1.09187 -0.06014 0.61086
 C376 C 0.29207 1.12255 1.12310
 N377 N 0.28145 1.14304 1.11287
 N378 N 0.26102 1.15295 1.12283
 C379 C 0.25042 1.14275 1.14342
 N380 N 0.26109 1.12222 1.15361
 N381 N 0.28152 1.11231 1.14364
 C382 C 0.31464 1.11168 1.11215
 N383 N 0.32532 1.09122 1.12240
 N384 N 0.34582 1.08140 1.11250
 C385 C 0.35641 1.09170 1.09200
 N386 N 0.34572 1.11215 1.08174
 N387 N 0.32522 1.12196 1.09163
 C388 C 0.37906 1.08092 1.08113
 N389 N 0.38968 1.09124 1.06065
 N390 N 0.41025 1.08150 1.05083
 C391 C 0.42095 1.06109 1.06114
 N392 N 0.41035 1.05075 1.08160
 N393 N 0.38977 1.06049 1.09142
 C394 C 0.29249 0.87751 0.87710
 N395 N 0.28188 0.88774 0.85657
 N396 N 0.26149 0.87782 0.84661
 C397 C 0.25089 0.85727 0.85680
 N398 N 0.26155 0.84707 0.87737
 N399 N 0.28194 0.85700 0.88732
 C400 C 0.31502 0.88842 0.88803
 N401 N 0.32566 0.87816 0.90853
 N402 N 0.34614 0.88801 0.91841
 C403 C 0.35672 0.90848 0.90813
 N404 N 0.34607 0.91875 0.88764
 N405 N 0.32560 0.90889 0.87776
 C406 C 0.37934 0.91931 0.91898
 N407 N 0.38995 0.93975 0.90867
 N408 N 0.41049 0.94954 0.91847
 C409 C 0.42115 0.93923 0.93893
 N410 N 0.41055 0.91881 0.94926
 N411 N 0.39001 0.90902 0.93945
 C412 C 0.70878 0.87788 1.12310
 N413 N 0.71941 0.85739 1.11287
 N414 N 0.73983 0.84748 1.12283
 C415 C 0.75043 0.85767 1.14342
 N416 N 0.73976 0.87821 1.15361
 N417 N 0.71933 0.88811 1.14364
 C418 C 0.68621 0.88875 1.11215
 N419 N 0.67554 0.90921 1.12240
 N420 N 0.65503 0.91902 1.11250
 C421 C 0.64444 0.90873 1.09200
 N422 N 0.65513 0.88828 1.08174
 N423 N 0.67564 0.87847 1.09163
 C424 C 0.62179 0.91950 1.08113
 N425 N 0.61118 0.90918 1.06065
 N426 N 0.59060 0.91893 1.05083
 C427 C 0.57991 0.93933 1.06114
 N428 N 0.59051 0.94967 1.08160
 N429 N 0.61108 0.93993 1.09142
 C430 C 0.70837 1.12291 0.87710
 N431 N 0.71891 1.14342 0.88732
 N432 N 0.73930 1.15335 0.87737
 C433 C 0.74996 1.14316 0.85680
 N434 N 0.73937 1.12261 0.84661
 N435 N 0.71897 1.11268 0.85657
 C436 C 0.68583 1.11201 0.88803
 N437 N 0.67525 1.09153 0.87776
 N438 N 0.65478 1.08168 0.88764
 C439 C 0.64413 1.09194 0.90813
 N440 N 0.65472 1.11241 0.91841
 N441 N 0.67519 1.12227 0.90853
 C442 C 0.62152 1.08112 0.91898
 N443 N 0.61084 1.09141 0.93945
 N444 N 0.59030 1.08162 0.94926
 C445 C 0.57970 1.06120 0.93893
 N446 N 0.59036 1.05089 0.91847
 N447 N 0.61090 1.06068 0.90867
 C448 C 0.12293 0.29195 0.12255
 N449 N 0.14345 0.28136 0.11231
 N450 N 0.15338 0.26095 0.12226
 C451 C 0.14316 0.25037 0.14282
 N452 N 0.12262 0.26098 0.15303
 N453 N 0.11269 0.28139 0.14308
 C454 C 0.11203 0.31450 0.11162
 N455 N 0.09155 0.32515 0.12190
 N456 N 0.08171 0.34564 0.11204
 C457 C 0.09199 0.35625 0.09154
 N458 N 0.11246 0.34560 0.08125
 N459 N 0.12230 0.32510 0.09112
 C460 C 0.08119 0.37888 0.08070
 N461 N 0.09150 0.38951 0.06023
 N462 N 0.08173 0.41007 0.05043
 C463 C 0.06132 0.42075 0.06077
 N464 N 0.05098 0.41013 0.08122
 N465 N 0.06075 0.38957 0.09102
 C466 C -0.12263 0.29233 -0.12265
 N467 N -0.11243 0.28168 -0.14317
 N468 N -0.12238 0.26127 -0.15306
 C469 C -0.14291 0.25076 -0.14279
 N470 N -0.15311 0.26142 -0.12225
 N471 N -0.14315 0.28183 -0.11237
 C472 C -0.11169 0.31487 -0.11181
 N473 N -0.12192 0.32558 -0.09132
 N474 N -0.11203 0.34606 -0.08153
 C475 C -0.09155 0.35659 -0.09187
 N476 N -0.08132 0.34588 -0.11236
 N477 N -0.09121 0.32540 -0.12215
 C478 C -0.08068 0.37921 -0.08112
 N479 N -0.06023 0.38977 -0.09149
 N480 N -0.05041 0.41031 -0.08175
 C481 C -0.06069 0.42103 -0.06131
 N482 N -0.08112 0.41047 -0.05093
 N483 N -0.09095 0.38994 -0.06066
 C484 C 0.12349 0.70809 -0.12265
 N485 N 0.11328 0.71875 -0.14317
 N486 N 0.12323 0.73915 -0.15306
 C487 C 0.14377 0.74967 -0.14279
 N488 N 0.15396 0.73900 -0.12225
 N489 N 0.14400 0.71860 -0.11237
 C490 C 0.11255 0.68555 -0.11181
 N491 N 0.12277 0.67485 -0.09132
 N492 N 0.11288 0.65437 -0.08153
 C493 C 0.09240 0.64383 -0.09187
 N494 N 0.08217 0.65454 -0.11236
 N495 N 0.09206 0.67502 -0.12215
 C496 C 0.08154 0.62122 -0.08112
 N497 N 0.06109 0.61065 -0.09149
 N498 N 0.05126 0.59011 -0.08175
 C499 C 0.06154 0.57940 -0.06131
 N500 N 0.08197 0.58995 -0.05093
 N501 N 0.09180 0.61049 -0.06066
 C502 C -0.12207 0.70847 0.12255
 N503 N -0.11184 0.71904 0.14308
 N504 N -0.12177 0.73945 0.15303
 C505 C -0.14231 0.75006 0.14282
 N506 N -0.15252 0.73948 0.12226
 N507 N -0.14259 0.71907 0.11231
 C508 C -0.11117 0.68592 0.11162
 N509 N -0.12145 0.67532 0.09112
 N510 N -0.11161 0.65483 0.08125
 C511 C -0.09114 0.64418 0.09154
 N512 N -0.08086 0.65478 0.11204
 N513 N -0.09070 0.67528 0.12190
 C514 C -0.08033 0.62154 0.08070
 N515 N -0.05989 0.61085 0.09102
 N516 N -0.05013 0.59029 0.08122
 C517 C -0.06046 0.57968 0.06077
 N518 N -0.08088 0.59035 0.05043
 N519 N -0.09064 0.61091 0.06023
 C520 C 1.12196 0.12253 0.70916
 N521 N 1.14243 0.11229 0.71984
 N522 N 1.15226 0.12219 0.74033
 C523 C 1.14201 0.14273 0.75094
 N524 N 1.12150 0.15293 0.74021
 N525 N 1.11167 0.14302 0.71972
 C526 C 1.11120 0.11167 0.68651
 N527 N 1.09076 0.12193 0.67578
 N528 N 1.08105 0.11212 0.65519
 C529 C 1.09142 0.09168 0.64457
 N530 N 1.11184 0.08141 0.65531
 N531 N 1.12156 0.09123 0.67591
 C532 C 1.08076 0.08091 0.62184
 N533 N 1.09116 0.06052 0.61118
 N534 N 1.08151 0.05077 0.59053
 C535 C 1.06112 0.06109 0.57979
 N536 N 1.05070 0.08147 0.59043
 N537 N 1.06035 0.09121 0.61108
 C538 C 0.87889 -0.12211 0.70916
 N539 N 0.88918 -0.14260 0.71972
 N540 N 0.87935 -0.15251 0.74021
 C541 C 0.85884 -0.14230 0.75094
 N542 N 0.84860 -0.12177 0.74033
 N543 N 0.85843 -0.11187 0.71984
 C544 C 0.88966 -0.11124 0.68651
 N545 N 0.87930 -0.09080 0.67591
 N546 N 0.88901 -0.08099 0.65531
 C547 C 0.90943 -0.09126 0.64457
 N548 N 0.91980 -0.11169 0.65519
 N549 N 0.91009 -0.12151 0.67578
 C550 C 0.92010 -0.08049 0.62184
 N551 N 0.94050 -0.09079 0.61108
 N552 N 0.95016 -0.08105 0.59043
 C553 C 0.93974 -0.06067 0.57979
 N554 N 0.91934 -0.05035 0.59053
 N555 N 0.90969 -0.06009 0.61118
 C556 C 1.12222 -0.12174 0.29107
 N557 N 1.14266 -0.11150 0.28041
 N558 N 1.15249 -0.12136 0.25989
 C559 C 1.14226 -0.14185 0.24923
 N560 N 1.12177 -0.15206 0.25995
 N561 N 1.11194 -0.14219 0.28047
 C562 C 1.11144 -0.11092 0.31375
 N563 N 1.09104 -0.12120 0.32447
 N564 N 1.08132 -0.11143 0.34509
 C565 C 1.09165 -0.09102 0.35574
 N566 N 1.11205 -0.08073 0.34502
 N567 N 1.12177 -0.09050 0.32439
 C568 C 1.08097 -0.08030 0.37851
 N569 N 1.09133 -0.05992 0.38919
 N570 N 1.08166 -0.05021 0.40987
 C571 C 1.06130 -0.06056 0.42060
 N572 N 1.05093 -0.08092 0.40993
 N573 N 1.06060 -0.09062 0.38925
 C574 C 0.87864 0.12216 0.29107
 N575 N 0.85819 0.11192 0.28041
 N576 N 0.84836 0.12178 0.25989
 C577 C 0.85859 0.14228 0.24923
 N578 N 0.87908 0.15248 0.25995
 N579 N 0.88891 0.14261 0.28047
 C580 C 0.88941 0.11134 0.31375
 N581 N 0.90982 0.12162 0.32447
 N582 N 0.91954 0.11185 0.34509
 C583 C 0.90920 0.09145 0.35574
 N584 N 0.88880 0.08116 0.34502
 N585 N 0.87908 0.09093 0.32439
 C586 C 0.91988 0.08072 0.37851
 N587 N 0.90953 0.06034 0.38919
 N588 N 0.91919 0.05064 0.40987
 C589 C 0.93955 0.06098 0.42060
 N590 N 0.94992 0.08134 0.40993
 N591 N 0.94026 0.09104 0.38925
 C592 C 0.12201 0.29126 -0.12240
 N593 N 0.11172 0.28065 -0.14289
 N594 N 0.12155 0.26016 -0.15274
 C595 C 0.14205 0.24946 -0.14249
 N596 N 0.15230 0.26012 -0.12196
 N597 N 0.14247 0.28061 -0.11211
 C598 C 0.11124 0.31391 -0.11159
 N599 N 0.12157 0.32454 -0.09114
 N600 N 0.11185 0.34514 -0.08138
 C601 C 0.09144 0.35585 -0.09171
 N602 N 0.08110 0.34521 -0.11216
 N603 N 0.09082 0.32461 -0.12192
 C604 C 0.08077 0.37858 -0.08099
 N605 N 0.06039 0.38933 -0.09135
 N606 N 0.05073 0.40998 -0.08164
 C607 C 0.06113 0.42062 -0.06124
 N608 N 0.08149 0.40990 -0.05086
 N609 N 0.09115 0.38924 -0.06056
 C610 C -0.12107 0.29165 0.12182
 N611 N -0.14152 0.28100 0.11155
 N612 N -0.15130 0.26051 0.12142
 C613 C -0.14100 0.24990 0.14193
 N614 N -0.12053 0.26056 0.15219
 N615 N -0.11075 0.28105 0.14231
 C616 C -0.11036 0.31428 0.11100
 N617 N -0.08995 0.32497 0.12131
 N618 N -0.08027 0.34555 0.11153
 C619 C -0.09065 0.35620 0.09109
 N620 N -0.11105 0.34550 0.08077
 N621 N -0.12073 0.32492 0.09055
 C622 C -0.08001 0.37891 0.08036
 N623 N -0.09041 0.38960 0.05994
 N624 N -0.08076 0.41023 0.05023
 C625 C -0.06039 0.42091 0.06059
 N626 N -0.04998 0.41024 0.08099
 N627 N -0.05962 0.38961 0.09070
 C628 C -0.12115 0.70917 -0.12240
 N629 N -0.14161 0.71981 -0.11211
 N630 N -0.15145 0.74031 -0.12196
 C631 C -0.14120 0.75096 -0.14249
 N632 N -0.12070 0.74027 -0.15274
 N633 N -0.11087 0.71977 -0.14289
 C634 C -0.11038 0.68652 -0.11159
 N635 N -0.08997 0.67582 -0.12192
 N636 N -0.08024 0.65522 -0.11216
 C637 C -0.09059 0.64458 -0.09171
 N638 N -0.11100 0.65529 -0.08138
 N639 N -0.12072 0.67588 -0.09114
 C640 C -0.07992 0.62184 -0.08099
 N641 N -0.09029 0.61118 -0.06056
 N642 N -0.08064 0.59053 -0.05086
 C643 C -0.06027 0.57980 -0.06124
 N644 N -0.04988 0.59045 -0.08164
 N645 N -0.05954 0.61110 -0.09135
 C646 C 0.12193 0.70878 0.12182
 N647 N 0.11161 0.71937 0.14231
 N648 N 0.12139 0.73986 0.15219
 C649 C 0.14185 0.75052 0.14193
 N650 N 0.15215 0.73991 0.12142
 N651 N 0.14237 0.71942 0.11155
 C652 C 0.11121 0.68614 0.11100
 N653 N 0.12158 0.67550 0.09055
 N654 N 0.11190 0.65492 0.08077
 C655 C 0.09150 0.64423 0.09109
 N656 N 0.08112 0.65487 0.11153
 N657 N 0.09080 0.67546 0.12131
 C658 C 0.08086 0.62151 0.08036
 N659 N 0.06048 0.61081 0.09070
 N660 N 0.05084 0.59018 0.08099
 C661 C 0.06125 0.57952 0.06059
 N662 N 0.08162 0.59020 0.05023
 N663 N 0.09126 0.61083 0.05994
 C664 C 0.29143 1.12213 0.87820
 N665 N 0.28078 1.11187 0.85772
 N666 N 0.26028 1.12173 0.84788
 C667 C 0.24966 1.14223 0.85816
 N668 N 0.26033 1.15247 0.87866
 N669 N 0.28083 1.14260 0.88849
 C670 C 0.31409 1.11132 0.88898
 N671 N 0.32478 1.12161 0.90942
 N672 N 0.34538 1.11185 0.91915
 C673 C 0.35604 1.09143 0.90879
 N674 N 0.34534 1.08113 0.88835
 N675 N 0.32474 1.09090 0.87863
 C676 C 0.37878 1.08071 0.91947
 N677 N 0.38948 1.06033 0.90908
 N678 N 0.41014 1.05064 0.91875
 C679 C 0.42084 1.06098 0.93915
 N680 N 0.41016 1.08135 0.94956
 N681 N 0.38950 1.09104 0.93989
 C682 C 0.29165 0.87863 1.12190
 N683 N 0.28104 0.85819 1.11159
 N684 N 0.26054 0.84837 1.12143
 C685 C 0.24989 0.85863 1.14194
 N686 N 0.26051 0.87909 1.15223
 N687 N 0.28100 0.88890 1.14238
 C688 C 0.31429 0.88938 1.11111
 N689 N 0.32495 0.90978 1.12146
 N690 N 0.34554 0.91949 1.11172
 C691 C 0.35624 0.90916 1.09128
 N692 N 0.34558 0.88877 1.08093
 N693 N 0.32498 0.87906 1.09067
 C694 C 0.37897 0.91982 1.08059
 N695 N 0.38969 0.90946 1.06018
 N696 N 0.41034 0.91912 1.05049
 C697 C 0.42101 0.93947 1.06089
 N698 N 0.41030 0.94984 1.08129
 N699 N 0.38965 0.94019 1.09097
 C700 C 0.70921 1.12180 1.12190
 N701 N 0.71985 1.11152 1.14238
 N702 N 0.74035 1.12133 1.15223
 C703 C 0.75097 1.14179 1.14194
 N704 N 0.74032 1.15205 1.12143
 N705 N 0.71982 1.14224 1.11159
 C706 C 0.68656 1.11104 1.11111
 N707 N 0.67587 1.12137 1.09067
 N708 N 0.65527 1.11166 1.08093
 C709 C 0.64461 1.09127 1.09128
 N710 N 0.65531 1.08094 1.11172
 N711 N 0.67591 1.09065 1.12146
 C712 C 0.62188 1.08061 1.08059
 N713 N 0.61120 1.06024 1.09097
 N714 N 0.59055 1.05058 1.08129
 C715 C 0.57984 1.06096 1.06089
 N716 N 0.59051 1.08131 1.05049
 N717 N 0.61116 1.09096 1.06018
 C718 C 0.70942 0.87829 0.87820
 N719 N 0.72007 0.88855 0.85772
 N720 N 0.74057 0.87869 0.84788
 C721 C 0.75119 0.85820 0.85816
 N722 N 0.74053 0.84796 0.87866
 N723 N 0.72002 0.85782 0.88849
 C724 C 0.68677 0.88911 0.88898
 N725 N 0.67607 0.87881 0.90942
 N726 N 0.65547 0.88858 0.91915
 C727 C 0.64481 0.90899 0.90879
 N728 N 0.65551 0.91929 0.88835
 N729 N 0.67612 0.90953 0.87863
 C730 C 0.62207 0.91971 0.91947
 N731 N 0.61137 0.94009 0.90908
 N732 N 0.59071 0.94979 0.91875
 C733 C 0.58001 0.93944 0.93915
 N734 N 0.59069 0.91908 0.94956
 N735 N 0.61135 0.90938 0.93989
   
