data_POSCAR
  _audit_creation_date              2014-09-24
  _audit_creation_method            'ToBaCCo'
  _symmetry_space_group_name_H-M    'P1'
  _symmetry_Int_Tables_number       1
  _symmetry_cell_setting            triclinic
  loop_
  _symmetry_equiv_pos_as_xyz
 x,y,z
_cell_length_a 39.7656
_cell_length_b 34.8261
_cell_length_c 29.8899
_cell_angle_alpha 89.817900
_cell_angle_beta 89.847000
_cell_angle_gamma 91.764000
loop_
  _atom_site_label
  _atom_site_type_symbol
  _atom_site_fract_x
  _atom_site_fract_y
  _atom_site_fract_z
C1 C 1.25059 0.25915 0.28718
 C2 C 0.75057 -0.23957 0.23905
 C3 C 0.74851 0.23876 -0.25046
 C4 C 1.24254 -0.27147 -0.22887
 C5 C 0.25291 0.26220 0.71123
 C6 C 0.75156 0.75976 0.76066
 C7 C 0.75066 0.23834 0.25275
 C8 C 0.24362 0.73417 0.23177
 N9 N 1.07508 0.05431 0.04512
 N10 N 1.09686 0.08319 0.05037
 N11 N 1.05182 -0.02666 0.07762
 N12 N 1.05984 -0.05031 0.11023
 N13 N 1.07476 -0.02672 0.04594
 N14 N 1.09874 -0.05073 0.05597
 N15 N 1.05220 0.05405 0.07684
 N16 N 1.05832 0.08240 0.10533
 C17 C 1.08609 0.10053 0.08788
 C18 C 1.08886 -0.06567 0.09592
 N19 N 0.95566 -0.02939 0.04624
 N20 N 0.93171 -0.05514 0.05615
 N21 N 0.97913 0.05187 0.07689
 N22 N 0.97080 0.07505 0.10967
 N23 N 0.95578 0.05121 0.04580
 N24 N 0.93108 0.07396 0.05680
 N25 N 0.97904 -0.02883 0.07726
 N26 N 0.97168 -0.05440 0.10881
 Mn27 Mn 1.01554 0.01265 0.07757
 C28 C 0.94224 -0.07091 0.09496
 C29 C 0.94104 0.08916 0.09643
 N30 N 1.07486 -0.02653 -0.05030
 N31 N 1.09840 -0.05124 -0.05970
 N32 N 1.05257 0.05429 -0.08171
 N33 N 1.05879 0.08287 -0.11013
 N34 N 1.07526 0.05442 -0.04991
 N35 N 1.09699 0.08340 -0.05503
 N36 N 1.05202 -0.02639 -0.08192
 N37 N 1.05956 -0.05075 -0.11383
 Mn38 Mn 1.07523 0.01375 -0.00230
 C39 C 1.08827 -0.06647 -0.09922
 C40 C 1.08643 0.10096 -0.09254
 N41 N 0.95588 0.05114 -0.05125
 N42 N 0.93037 0.07215 -0.06356
 N43 N 0.97945 -0.02868 -0.08187
 N44 N 0.97237 -0.05438 -0.11313
 N45 N 0.95598 -0.02939 -0.05080
 N46 N 0.93224 -0.05535 -0.06036
 N47 N 0.97936 0.05192 -0.08237
 N48 N 0.97019 0.07340 -0.11647
 Mn49 Mn 0.95560 0.01088 -0.00248
 Mn50 Mn 1.01587 0.01285 -0.08236
 Cl51 Cl 1.01547 0.01253 -0.00239
 C52 C 0.93985 0.08645 -0.10398
 C53 C 0.94300 -0.07109 -0.09902
 N54 N 0.94866 0.53847 0.41826
 N55 N 0.92958 0.54381 0.38294
 N56 N 1.01045 0.58425 0.45273
 N57 N 1.03057 0.61490 0.44912
 N58 N 1.01725 0.55904 0.42174
 N59 N 1.04191 0.57213 0.39565
 N60 N 0.94172 0.56319 0.44988
 N61 N 0.91766 0.58592 0.43652
 C62 C 0.90989 0.57292 0.39503
 C63 C 1.04995 0.60705 0.41330
 N64 N 1.01511 0.55686 0.57829
 N65 N 1.03982 0.56876 0.60472
 N66 N 0.94044 0.56191 0.54753
 N67 N 0.91653 0.58478 0.56099
 N68 N 0.94652 0.53632 0.57870
 N69 N 0.92698 0.54122 0.61376
 N70 N 1.00910 0.58284 0.54771
 N71 N 1.02979 0.61284 0.55193
 Mn72 Mn 0.97511 0.57325 0.49947
 C73 C 1.04862 0.60379 0.58772
 C74 C 0.90792 0.57096 0.60200
 N75 N 1.03322 0.47837 0.42037
 N76 N 1.05549 0.47505 0.38788
 N77 N 0.96796 0.43255 0.44892
 N78 N 0.95032 0.40102 0.43842
 N79 N 0.96472 0.45890 0.41780
 N80 N 0.94519 0.44610 0.38533
 N81 N 1.03743 0.45190 0.45110
 N82 N 1.06320 0.43060 0.44082
 Mn83 Mn 0.99111 0.50874 0.41928
 C84 C 1.07454 0.44579 0.40169
 C85 C 0.93605 0.41025 0.39879
 N86 N 0.96246 0.45670 0.57781
 N87 N 0.94232 0.44280 0.60936
 N88 N 1.03624 0.45065 0.54695
 N89 N 1.06228 0.42970 0.55705
 N90 N 1.03115 0.47622 0.57825
 N91 N 1.05309 0.47266 0.61096
 N92 N 0.96680 0.43115 0.54623
 N93 N 0.94951 0.39904 0.55556
 Mn94 Mn 0.98894 0.50656 0.57855
 Mn95 Mn 1.00202 0.44109 0.49829
 Cl96 Cl 0.98918 0.50733 0.49890
 C97 C 0.93397 0.40719 0.59467
 C98 C 1.07284 0.44416 0.59674
 N99 N 0.55193 0.02210 0.55316
 N100 N 0.57704 0.04525 0.56595
 N101 N 0.52492 -0.05917 0.57988
 N102 N 0.53155 -0.08365 0.61220
 N103 N 0.54910 -0.05833 0.54975
 N104 N 0.57301 -0.08184 0.56136
 N105 N 0.52782 0.02137 0.58329
 N106 N 0.53592 0.04392 0.61723
 C107 C 0.56647 0.05910 0.60575
 C108 C 0.56136 -0.09801 0.59991
 N109 N 0.42984 -0.05820 0.54715
 N110 N 0.40353 -0.08026 0.55857
 N111 N 0.45535 0.02209 0.58121
 N112 N 0.45113 0.05016 0.61005
 N113 N 0.43221 0.02257 0.55003
 N114 N 0.41170 0.05106 0.55661
 N115 N 0.45268 -0.05843 0.57886
 N116 N 0.44231 -0.08029 0.61253
 Mn117 Mn 0.49017 -0.01849 0.58106
 C118 C 0.41212 -0.09459 0.59893
 C119 C 0.42384 0.06808 0.59414
 N120 N 0.55043 -0.05473 0.45221
 N121 N 0.57398 -0.07862 0.44026
 N122 N 0.52968 0.02764 0.42583
 N123 N 0.53649 0.05637 0.39796
 N124 N 0.55313 0.02559 0.45653
 N125 N 0.57682 0.05239 0.44993
 N126 N 0.52712 -0.05328 0.42120
 N127 N 0.53389 -0.07658 0.38788
 Mn128 Mn 0.55146 -0.01645 0.50286
 C129 C 0.56296 -0.09255 0.40043
 C130 C 0.56585 0.07164 0.41364
 N131 N 0.43343 0.02592 0.45444
 N132 N 0.41233 0.05394 0.44823
 N133 N 0.45469 -0.05279 0.41936
 N134 N 0.44568 -0.07361 0.38434
 N135 N 0.43125 -0.05496 0.45043
 N136 N 0.40595 -0.07774 0.43742
 N137 N 0.45747 0.02757 0.42434
 N138 N 0.45338 0.05659 0.39667
 Mn139 Mn 0.43138 -0.01631 0.50050
 Mn140 Mn 0.49229 -0.01267 0.42232
 Cl141 Cl 0.49137 -0.01616 0.50169
 C142 C 0.42522 0.07296 0.41218
 C143 C 0.41565 -0.08979 0.39649
 N144 N 0.47784 0.56632 -0.04324
 N145 N 0.47189 0.59802 -0.06599
 N146 N 0.45015 0.54019 0.04916
 N147 N 0.42498 0.55480 0.07167
 N148 N 0.47645 0.56399 0.04985
 N149 N 0.46944 0.59547 0.07215
 N150 N 0.45168 0.54242 -0.04489
 N151 N 0.42773 0.55689 -0.06948
 C152 C 0.44083 0.59120 -0.08314
 C153 C 0.43755 0.58890 0.08658
 N154 N 0.45788 0.42728 0.04487
 N155 N 0.44696 0.40191 0.07506
 N156 N 0.44069 0.46100 -0.04818
 N157 N 0.41721 0.45889 -0.07919
 N158 N 0.45911 0.43037 -0.04889
 N159 N 0.44803 0.40607 -0.07985
 N160 N 0.43963 0.45809 0.04608
 N161 N 0.41643 0.45497 0.07749
 Mn162 Mn 0.44544 0.50027 0.00061
 C163 C 0.42132 0.41997 0.09542
 C164 C 0.42223 0.42469 -0.09891
 N165 N 0.54770 0.55238 0.05182
 N166 N 0.55684 0.57711 0.08314
 N167 N 0.56930 0.52561 -0.04263
 N168 N 0.59282 0.53042 -0.07365
 N169 N 0.54916 0.55479 -0.04257
 N170 N 0.55801 0.57988 -0.07389
 N171 N 0.56773 0.52307 0.05136
 N172 N 0.59152 0.52760 0.08192
 Mn173 Mn 0.51303 0.55947 0.00395
 C174 C 0.58378 0.56099 0.10213
 C175 C 0.58498 0.56408 -0.09329
 N176 N 0.53152 0.42017 -0.04833
 N177 N 0.53624 0.39292 -0.07824
 N178 N 0.55666 0.44001 0.04790
 N179 N 0.58046 0.42485 0.07246
 N180 N 0.53035 0.41618 0.04546
 N181 N 0.53600 0.38429 0.06801
 N182 N 0.55835 0.44313 -0.04576
 N183 N 0.58196 0.43185 -0.07343
 Mn184 Mn 0.49464 0.42312 -0.00176
 Mn185 Mn 0.56329 0.48297 0.00283
 Cl186 Cl 0.50410 0.49138 0.00154
 C187 C 0.56769 0.40092 -0.09402
 C188 C 0.56706 0.39041 0.08550
 C189 C 1.20841 0.23697 0.22473
 C190 C 1.18309 0.21222 0.20742
 C191 C 1.16867 0.18303 0.23474
 C192 C 1.17965 0.17922 0.27870
 C193 C 1.20548 0.20310 0.29521
 C194 C 1.22165 0.23189 0.26844
 C195 C 1.14382 0.15773 0.21764
 C196 C 1.13419 0.16020 0.17272
 C197 C 1.14883 0.18925 0.14501
 C198 C 1.17256 0.21565 0.16282
 C199 C 1.14049 0.19038 0.09949
 C200 C 1.11908 0.16203 0.08125
 C201 C 1.10462 0.13305 0.10851
 C202 C 1.11144 0.13288 0.15449
 H203 H 1.21775 0.26026 0.20363
 H204 H 1.16848 0.15731 0.30042
 H205 H 1.21188 0.19800 0.32933
 H206 H 1.13287 0.13528 0.23885
 H207 H 1.18381 0.23784 0.14152
 H208 H 1.15155 0.21227 0.07768
 H209 H 1.11418 0.16233 0.04561
 H210 H 1.10083 0.11002 0.17538
 C211 C 1.19743 0.71382 0.71005
 C212 C 1.16896 0.69295 0.69519
 C213 C 1.15213 0.66671 0.72437
 C214 C 1.16290 0.66334 0.76860
 C215 C 1.19116 0.68424 0.78312
 C216 C 1.21031 0.70783 0.75335
 C217 C 1.12484 0.64423 0.70893
 C218 C 1.11398 0.64786 0.66468
 C219 C 1.12991 0.67523 0.63592
 C220 C 1.15733 0.69759 0.65135
 C221 C 1.11832 0.67949 0.59203
 C222 C 1.09148 0.65651 0.57663
 C223 C 1.07622 0.62856 0.60464
 C224 C 1.08747 0.62442 0.64867
 H225 H 1.20922 0.73468 0.68768
 H226 H 1.14972 0.64421 0.79184
 H227 H 1.19907 0.68086 0.81752
 H228 H 1.11227 0.62369 0.73119
 H229 H 1.16992 0.71809 0.62907
 H230 H 1.13009 0.70043 0.56960
 H231 H 1.08302 0.66011 0.54251
 H232 H 1.07545 0.60317 0.67052
 C233 C 0.69839 0.19093 0.73670
 C234 C 0.67891 0.16659 0.70885
 C235 C 0.69079 0.15761 0.66565
 C236 C 0.72213 0.17234 0.65149
 C237 C 0.74065 0.19757 0.67867
 C238 C 0.72807 0.20960 0.72051
 C239 C 0.67118 0.13418 0.63719
 C240 C 0.63936 0.12025 0.65092
 C241 C 0.62734 0.12923 0.69412
 C242 C 0.64736 0.15191 0.72303
 C243 C 0.59531 0.11564 0.70747
 C244 C 0.57540 0.09335 0.67841
 C245 C 0.58721 0.08401 0.63554
 C246 C 0.61928 0.09763 0.62201
 H247 H 0.68971 0.19659 0.77035
 H248 H 0.73215 0.16482 0.61904
 H249 H 0.76488 0.20797 0.66640
 H250 H 0.68045 0.12733 0.60408
 H251 H 0.63807 0.15886 0.75609
 H252 H 0.58561 0.12229 0.74037
 H253 H 0.55081 0.08313 0.68970
 H254 H 0.62864 0.09061 0.58903
 C255 C 0.70450 0.70767 0.22718
 C256 C 0.68762 0.67965 0.20102
 C257 C 0.69867 0.67286 0.15688
 C258 C 0.72628 0.69386 0.13975
 C259 C 0.74239 0.72212 0.16547
 C260 C 0.73106 0.73094 0.20913
 C261 C 0.68199 0.64524 0.13035
 C262 C 0.65355 0.62509 0.14678
 C263 C 0.64210 0.63197 0.19082
 C264 C 0.65960 0.65869 0.21798
 C265 C 0.61264 0.61292 0.20627
 C266 C 0.59413 0.58848 0.17779
 C267 C 0.60548 0.58166 0.13418
 C268 C 0.63552 0.59937 0.11910
 H269 H 0.69673 0.71180 0.26157
 H270 H 0.73558 0.68836 0.10634
 H271 H 0.76445 0.73614 0.15096
 H272 H 0.69062 0.64017 0.09647
 H273 H 0.65083 0.66401 0.25172
 H274 H 0.60331 0.61798 0.23975
 H275 H 0.57062 0.57545 0.18946
 H276 H 0.64374 0.59480 0.08495
 C277 C 0.80902 -0.20712 0.21936
 C278 C 0.82902 -0.18217 0.19249
 C279 C 0.81425 -0.16236 0.15656
 C280 C 0.77975 -0.16706 0.14865
 C281 C 0.76005 -0.19154 0.17559
 C282 C 0.77432 -0.21314 0.21043
 C283 C 0.83404 -0.13765 0.12947
 C284 C 0.86843 -0.13190 0.13821
 C285 C 0.88325 -0.15119 0.17451
 C286 C 0.86351 -0.17640 0.20126
 C287 C 0.91753 -0.14457 0.18369
 C288 C 0.93679 -0.11872 0.15754
 C289 C 0.92227 -0.09949 0.12137
 C290 C 0.88810 -0.10656 0.11163
 H291 H 0.82060 -0.22095 0.24756
 H292 H 0.76790 -0.15160 0.12172
 H293 H 0.73334 -0.19424 0.16882
 H294 H 0.82259 -0.12257 0.10188
 H295 H 0.87493 -0.19128 0.22901
 H296 H 0.92934 -0.15902 0.21140
 H297 H 0.96308 -0.11372 0.16567
 H298 H 0.87657 -0.09162 0.08402
 C299 C 0.80327 0.27830 0.73043
 C300 C 0.82259 0.30154 0.70111
 C301 C 0.80796 0.31581 0.66164
 C302 C 0.77393 0.30759 0.65300
 C303 C 0.75504 0.28392 0.68202
 C304 C 0.76991 0.26671 0.71968
 C305 C 0.82748 0.33830 0.63171
 C306 C 0.86148 0.34681 0.64091
 C307 C 0.87597 0.33288 0.68079
 C308 C 0.85645 0.31037 0.71057
 C309 C 0.90971 0.34210 0.69053
 C310 C 0.92877 0.36552 0.66150
 C311 C 0.91462 0.37932 0.62194
 C312 C 0.88111 0.36969 0.61140
 H313 H 0.81458 0.26908 0.76137
 H314 H 0.76197 0.31914 0.62357
 H315 H 0.72880 0.27804 0.67431
 H316 H 0.81621 0.34924 0.60141
 H317 H 0.86766 0.29959 0.74100
 H318 H 0.92116 0.33181 0.72098
 H319 H 0.95452 0.37331 0.67015
 H320 H 0.87010 0.38109 0.58117
 C321 C 0.27995 -0.21493 0.74230
 C322 C 0.30234 -0.19819 0.71124
 C323 C 0.30937 -0.21736 0.67092
 C324 C 0.29486 -0.25394 0.66340
 C325 C 0.27349 -0.27111 0.69542
 C326 C 0.26424 -0.25121 0.73446
 C327 C 0.33155 -0.20013 0.63957
 C328 C 0.34774 -0.16467 0.64907
 C329 C 0.34159 -0.14644 0.69046
 C330 C 0.31852 -0.16293 0.72080
 C331 C 0.35894 -0.11215 0.70122
 C332 C 0.38231 -0.09599 0.67137
 C333 C 0.38798 -0.11320 0.62981
 C334 C 0.37049 -0.14736 0.61842
 H335 H 0.27593 -0.19999 0.77346
 H336 H 0.30070 -0.26968 0.63330
 H337 H 0.26397 -0.30013 0.68961
 H338 H 0.33673 -0.21463 0.60835
 H339 H 0.31360 -0.14862 0.75223
 H340 H 0.35467 -0.09802 0.73290
 H341 H 0.39559 -0.06951 0.68038
 H342 H 0.37517 -0.16076 0.58640
 C343 C 0.28836 0.31353 0.25227
 C344 C 0.31222 0.32695 0.22073
 C345 C 0.32128 0.30331 0.18463
 C346 C 0.30584 0.26691 0.18022
 C347 C 0.28224 0.25365 0.21176
 C348 C 0.27271 0.27662 0.24851
 C349 C 0.34607 0.31613 0.15401
 C350 C 0.36158 0.35263 0.15869
 C351 C 0.35194 0.37662 0.19435
 C352 C 0.32762 0.36349 0.22532
 C353 C 0.36642 0.41365 0.19809
 C354 C 0.38965 0.42717 0.16625
 C355 C 0.39962 0.40354 0.13100
 C356 C 0.38598 0.36601 0.12769
 H357 H 0.28306 0.33169 0.28054
 H358 H 0.31275 0.24815 0.15307
 H359 H 0.27281 0.22429 0.20877
 H360 H 0.35317 0.29779 0.12651
 H361 H 0.32054 0.38183 0.25284
 H362 H 0.35920 0.43247 0.22503
 H363 H 0.39974 0.45633 0.16894
 H364 H 0.39312 0.34803 0.09990
 C365 C 0.79957 0.19639 -0.23614
 C366 C 0.82073 0.17620 -0.20745
 C367 C 0.81074 0.16902 -0.16276
 C368 C 0.77955 0.18161 -0.14786
 C369 C 0.75933 0.20307 -0.17609
 C370 C 0.76994 0.21303 -0.21989
 C371 C 0.83214 0.14961 -0.13364
 C372 C 0.86386 0.13815 -0.14836
 C373 C 0.87397 0.14566 -0.19302
 C374 C 0.85218 0.16414 -0.22243
 C375 C 0.90586 0.13479 -0.20747
 C376 C 0.92748 0.11638 -0.17814
 C377 C 0.91758 0.10822 -0.13386
 C378 C 0.88569 0.11937 -0.11913
 H379 H 0.80712 0.20093 -0.27064
 H380 H 0.77102 0.17549 -0.11405
 H381 H 0.73544 0.21223 -0.16320
 H382 H 0.82434 0.14398 -0.09937
 H383 H 0.86000 0.16989 -0.25666
 H384 H 0.91407 0.14045 -0.24151
 H385 H 0.95183 0.10802 -0.19037
 H386 H 0.87777 0.11326 -0.08505
 C387 C 0.79395 0.70982 0.25772
 C388 C 0.81066 0.68574 0.28753
 C389 C 0.80296 0.68678 0.33366
 C390 C 0.77745 0.71013 0.34883
 C391 C 0.76027 0.73306 0.31891
 C392 C 0.76936 0.73513 0.27306
 C393 C 0.82056 0.66414 0.36392
 C394 C 0.84534 0.63972 0.34851
 C395 C 0.85197 0.63721 0.30209
 C396 C 0.83484 0.66052 0.27192
 C397 C 0.87588 0.61165 0.28668
 C398 C 0.89369 0.58957 0.31703
 C399 C 0.88831 0.59316 0.36331
 C400 C 0.86381 0.61798 0.37886
 H401 H 0.80017 0.70913 0.22242
 H402 H 0.77036 0.71021 0.38387
 H403 H 0.73951 0.74868 0.33236
 H404 H 0.81497 0.66555 0.39942
 H405 H 0.84040 0.65912 0.23642
 H406 H 0.88111 0.60907 0.25124
 H407 H 0.91255 0.57063 0.30430
 H408 H 0.85936 0.62060 0.41451
 C409 C 0.30656 0.22462 0.30607
 C410 C 0.32573 0.20063 0.33286
 C411 C 0.31312 0.18773 0.37452
 C412 C 0.28221 0.20067 0.38961
 C413 C 0.26320 0.22453 0.36264
 C414 C 0.27394 0.23583 0.31910
 C415 C 0.33139 0.16172 0.40002
 C416 C 0.36198 0.14817 0.38383
 C417 C 0.37514 0.16223 0.34272
 C418 C 0.35708 0.18858 0.31771
 C419 C 0.40571 0.14883 0.32658
 C420 C 0.42250 0.12059 0.35004
 C421 C 0.40904 0.10538 0.39004
 C422 C 0.37914 0.11994 0.40735
 H423 H 0.31778 0.23362 0.27485
 H424 H 0.27242 0.19190 0.42206
 H425 H 0.23955 0.23389 0.37612
 H426 H 0.32141 0.15127 0.43176
 H427 H 0.36695 0.19878 0.28579
 H428 H 0.41622 0.15951 0.29528
 H429 H 0.44563 0.10998 0.33624
 H430 H 0.36870 0.10853 0.43838
 C431 C 0.29574 0.71256 -0.18471
 C432 C 0.32030 0.68682 -0.17098
 C433 C 0.31545 0.64717 -0.17960
 C434 C 0.28721 0.63403 -0.20310
 C435 C 0.26381 0.65977 -0.21822
 C436 C 0.26663 0.69942 -0.20788
 C437 C 0.33927 0.62111 -0.16563
 C438 C 0.36839 0.63411 -0.14371
 C439 C 0.37419 0.67381 -0.13622
 C440 C 0.34993 0.70002 -0.14964
 C441 C 0.40397 0.68634 -0.11489
 C442 C 0.42700 0.65959 -0.09966
 C443 C 0.42037 0.62007 -0.10540
 C444 C 0.39144 0.60766 -0.12839
 H445 H 0.29968 0.74301 -0.17857
 H446 H 0.28376 0.60385 -0.21122
 H447 H 0.24414 0.64805 -0.23945
 H448 H 0.33515 0.59064 -0.17186
 H449 H 0.35407 0.73047 -0.14350
 H450 H 0.40906 0.71665 -0.10906
 H451 H 0.44915 0.66970 -0.08171
 H452 H 0.38633 0.57717 -0.13317
 C453 C 1.20773 -0.21334 -0.21445
 C454 C 1.18960 -0.18886 -0.18731
 C455 C 1.19269 -0.19102 -0.14040
 C456 C 1.21368 -0.21851 -0.12164
 C457 C 1.23068 -0.24421 -0.14912
 C458 C 1.22813 -0.24185 -0.19613
 C459 C 1.17400 -0.16643 -0.11329
 C460 C 1.15142 -0.14092 -0.13279
 C461 C 1.14784 -0.13994 -0.17988
 C462 C 1.16741 -0.16329 -0.20675
 C463 C 1.12439 -0.11596 -0.19951
 C464 C 1.10458 -0.09292 -0.17289
 C465 C 1.10838 -0.09273 -0.12624
 C466 C 1.13195 -0.11671 -0.10623
 H467 H 1.20491 -0.21142 -0.25045
 H468 H 1.21602 -0.22103 -0.08565
 H469 H 1.24482 -0.26644 -0.13324
 H470 H 1.17645 -0.16775 -0.07719
 H471 H 1.16474 -0.16224 -0.24286
 H472 H 1.12126 -0.11515 -0.23551
 H473 H 1.08671 -0.07453 -0.18896
 H474 H 1.13477 -0.11688 -0.07016
 C475 C 1.20615 0.31123 0.29237
 C476 C 1.18846 0.33907 0.31573
 C477 C 1.19824 0.34914 0.35959
 C478 C 1.22754 0.33414 0.37745
 C479 C 1.24557 0.30729 0.35338
 C480 C 1.23348 0.29253 0.31215
 C481 C 1.17857 0.37392 0.38482
 C482 C 1.14957 0.38935 0.36621
 C483 C 1.14136 0.38173 0.32100
 C484 C 1.16070 0.35639 0.29615
 C485 C 1.11335 0.39876 0.30177
 C486 C 1.09272 0.42167 0.32766
 C487 C 1.09939 0.42713 0.37330
 C488 C 1.12816 0.41152 0.39231
 H489 H 1.19806 0.30385 0.25897
 H490 H 1.23653 0.34312 0.41009
 H491 H 1.26888 0.29799 0.36769
 H492 H 1.18548 0.38063 0.41906
 H493 H 1.15368 0.34946 0.26200
 H494 H 1.10694 0.39363 0.26704
 H495 H 1.07054 0.43348 0.31259
 H496 H 1.13345 0.41606 0.42751
 C497 C 0.69299 -0.20852 0.25801
 C498 C 0.67395 -0.18485 0.28579
 C499 C 0.69033 -0.16153 0.31822
 C500 C 0.72537 -0.16081 0.32101
 C501 C 0.74398 -0.18467 0.29390
 C502 C 0.72815 -0.21078 0.26386
 C503 C 0.67150 -0.13941 0.34759
 C504 C 0.63636 -0.14007 0.34495
 C505 C 0.61984 -0.16240 0.31169
 C506 C 0.63873 -0.18469 0.28232
 C507 C 0.58467 -0.16198 0.30844
 C508 C 0.56613 -0.13949 0.33765
 C509 C 0.58238 -0.11772 0.37115
 C510 C 0.61750 -0.11836 0.37483
 H511 H 0.68010 -0.22524 0.23258
 H512 H 0.73841 -0.14245 0.34496
 H513 H 0.77104 -0.18428 0.29802
 H514 H 0.68420 -0.12188 0.37270
 H515 H 0.62603 -0.20223 0.25723
 H516 H 0.57154 -0.17874 0.28308
 H517 H 0.53904 -0.13918 0.33416
 H518 H 0.63024 -0.10112 0.40016
 C519 C 0.69292 0.27395 -0.23163
 C520 C 0.67475 0.29909 -0.20454
 C521 C 0.69150 0.31980 -0.17020
 C522 C 0.72580 0.31476 -0.16312
 C523 C 0.74325 0.28861 -0.18881
 C524 C 0.72706 0.26651 -0.22249
 C525 C 0.67376 0.34521 -0.14335
 C526 C 0.63909 0.34921 -0.14916
 C527 C 0.62193 0.32777 -0.18259
 C528 C 0.64001 0.30346 -0.21075
 C529 C 0.58690 0.33060 -0.18667
 C530 C 0.56908 0.35419 -0.15768
 C531 C 0.58613 0.37616 -0.12510
 C532 C 0.62120 0.37377 -0.12133
 H533 H 0.68024 0.26056 -0.25974
 H534 H 0.73914 0.33075 -0.13729
 H535 H 0.76975 0.28541 -0.18212
 H536 H 0.68684 0.36133 -0.11733
 H537 H 0.62691 0.28724 -0.23665
 H538 H 0.57324 0.31420 -0.21185
 H539 H 0.54203 0.35561 -0.16102
 H540 H 0.63447 0.39021 -0.09577
 C541 C 1.21048 0.23886 -0.22656
 C542 C 1.18494 0.21390 -0.20985
 C543 C 1.17075 0.18516 -0.23769
 C544 C 1.18208 0.18210 -0.28163
 C545 C 1.20799 0.20631 -0.29762
 C546 C 1.22408 0.23449 -0.27024
 C547 C 1.14567 0.15967 -0.22116
 C548 C 1.13547 0.16159 -0.17636
 C549 C 1.14979 0.19028 -0.14820
 C550 C 1.17385 0.21680 -0.16539
 C551 C 1.14081 0.19097 -0.10284
 C552 C 1.11909 0.16249 -0.08516
 C553 C 1.10500 0.13379 -0.11282
 C554 C 1.11244 0.13409 -0.15869
 H555 H 1.21953 0.26189 -0.20513
 H556 H 1.17102 0.16065 -0.30380
 H557 H 1.21448 0.20214 -0.33193
 H558 H 1.13492 0.13754 -0.24275
 H559 H 1.18487 0.23869 -0.14371
 H560 H 1.15161 0.21259 -0.08069
 H561 H 1.11373 0.16241 -0.04960
 H562 H 1.10212 0.11145 -0.17988
 C563 C 1.19772 0.72194 0.29112
 C564 C 1.16934 0.70041 0.30599
 C565 C 1.15384 0.67298 0.27737
 C566 C 1.16559 0.66901 0.23371
 C567 C 1.19381 0.69013 0.21932
 C568 C 1.21228 0.71491 0.24866
 C569 C 1.12688 0.64974 0.29278
 C570 C 1.11508 0.65355 0.33660
 C571 C 1.12957 0.68201 0.36488
 C572 C 1.15659 0.70535 0.34936
 C573 C 1.11702 0.68626 0.40839
 C574 C 1.09073 0.66217 0.42388
 C575 C 1.07694 0.63313 0.39636
 C576 C 1.08910 0.62909 0.35266
 H577 H 1.20828 0.74381 0.31302
 H578 H 1.15333 0.64901 0.21083
 H579 H 1.20239 0.68573 0.18534
 H580 H 1.11541 0.62831 0.27087
 H581 H 1.16811 0.72669 0.37132
 H582 H 1.12765 0.70801 0.43050
 H583 H 1.08157 0.66581 0.45770
 H584 H 1.07826 0.60703 0.33109
 C585 C 0.69505 0.21361 0.29169
 C586 C 0.67594 0.18517 0.31475
 C587 C 0.69117 0.15092 0.32805
 C588 C 0.72476 0.14522 0.31717
 C589 C 0.74308 0.17271 0.29256
 C590 C 0.72865 0.20724 0.27797
 C591 C 0.67272 0.12287 0.35218
 C592 C 0.63862 0.12781 0.36157
 C593 C 0.62276 0.16133 0.34673
 C594 C 0.64173 0.19026 0.32437
 C595 C 0.58809 0.16493 0.35391
 C596 C 0.56937 0.13549 0.37531
 C597 C 0.58528 0.10280 0.39127
 C598 C 0.61995 0.09927 0.38472
 H599 H 0.68354 0.24077 0.28527
 H600 H 0.73697 0.11927 0.32759
 H601 H 0.76895 0.16657 0.28615
 H602 H 0.68473 0.09686 0.36292
 H603 H 0.62971 0.21622 0.31352
 H604 H 0.57539 0.19020 0.34241
 H605 H 0.54255 0.13846 0.38001
 H606 H 0.63213 0.07365 0.39634
 C607 C 0.70572 0.70695 -0.22560
 C608 C 0.68892 0.67941 -0.19841
 C609 C 0.70072 0.67257 -0.15465
 C610 C 0.72892 0.69309 -0.13890
 C611 C 0.74474 0.72115 -0.16547
 C612 C 0.73262 0.73011 -0.20869
 C613 C 0.68409 0.64549 -0.12707
 C614 C 0.65485 0.62618 -0.14192
 C615 C 0.64257 0.63324 -0.18548
 C616 C 0.66013 0.65919 -0.21385
 C617 C 0.61228 0.61521 -0.19922
 C618 C 0.59383 0.59158 -0.16951
 C619 C 0.60607 0.58453 -0.12643
 C620 C 0.63687 0.60120 -0.11306
 H621 H 0.69742 0.71102 -0.25975
 H622 H 0.73878 0.68752 -0.10582
 H623 H 0.76714 0.73502 -0.15194
 H624 H 0.69331 0.64033 -0.09351
 H625 H 0.65075 0.66463 -0.24725
 H626 H 0.60231 0.62044 -0.23231
 H627 H 0.56976 0.57923 -0.17986
 H628 H 0.64583 0.59638 -0.07931
 C629 C 0.81001 -0.20764 -0.22092
 C630 C 0.83006 -0.18270 -0.19447
 C631 C 0.81540 -0.16305 -0.15837
 C632 C 0.78096 -0.16787 -0.14987
 C633 C 0.76122 -0.19234 -0.17637
 C634 C 0.77538 -0.21374 -0.21140
 C635 C 0.83521 -0.13836 -0.13169
 C636 C 0.86951 -0.13244 -0.14099
 C637 C 0.88427 -0.15156 -0.17743
 C638 C 0.86450 -0.17678 -0.20379
 C639 C 0.91848 -0.14473 -0.18712
 C640 C 0.93773 -0.11882 -0.16134
 C641 C 0.92322 -0.09978 -0.12507
 C642 C 0.88914 -0.10708 -0.11480
 H643 H 0.82148 -0.22144 -0.24921
 H644 H 0.76921 -0.15255 -0.12279
 H645 H 0.73455 -0.19519 -0.16912
 H646 H 0.82383 -0.12339 -0.10398
 H647 H 0.87584 -0.19154 -0.23165
 H648 H 0.93025 -0.15904 -0.21494
 H649 H 0.96396 -0.11361 -0.16985
 H650 H 0.87763 -0.09229 -0.08711
 C651 C 0.80313 0.27996 0.27160
 C652 C 0.82527 0.29883 0.30095
 C653 C 0.81928 0.29720 0.34745
 C654 C 0.79084 0.27675 0.36359
 C655 C 0.76856 0.25813 0.33397
 C656 C 0.77447 0.25885 0.28724
 C657 C 0.84142 0.31674 0.37679
 C658 C 0.86893 0.33859 0.35981
 C659 C 0.87452 0.34021 0.31301
 C660 C 0.85297 0.31994 0.28405
 C661 C 0.90106 0.36297 0.29563
 C662 C 0.92133 0.38502 0.32412
 C663 C 0.91604 0.38388 0.37052
 C664 C 0.89030 0.35997 0.38851
 H665 H 0.80775 0.28228 0.23590
 H666 H 0.78558 0.27550 0.39916
 H667 H 0.74667 0.24347 0.34815
 H668 H 0.83681 0.31567 0.41256
 H669 H 0.85735 0.32132 0.24822
 H670 H 0.90560 0.36453 0.25989
 H671 H 0.94114 0.40330 0.30983
 H672 H 0.88596 0.35951 0.42433
 C673 C 0.28286 -0.21143 0.25611
 C674 C 0.30560 -0.19460 0.28650
 C675 C 0.31022 -0.21155 0.32883
 C676 C 0.29343 -0.24649 0.33884
 C677 C 0.27200 -0.26415 0.30743
 C678 C 0.26437 -0.24596 0.26629
 C679 C 0.33235 -0.19388 0.35975
 C680 C 0.35096 -0.16035 0.34786
 C681 C 0.34756 -0.14481 0.30435
 C682 C 0.32448 -0.16154 0.27439
 C683 C 0.36748 -0.11282 0.29129
 C684 C 0.39036 -0.09600 0.32114
 C685 C 0.39303 -0.11009 0.36495
 C686 C 0.37322 -0.14226 0.37835
 H687 H 0.28067 -0.19795 0.22359
 H688 H 0.29763 -0.26079 0.37049
 H689 H 0.26122 -0.29225 0.31550
 H690 H 0.33552 -0.20653 0.39261
 H691 H 0.32153 -0.14908 0.24136
 H692 H 0.36539 -0.10084 0.25795
 H693 H 0.40534 -0.07112 0.31038
 H694 H 0.37550 -0.15337 0.41209
 C695 C 0.28987 0.31726 -0.25436
 C696 C 0.31326 0.33122 -0.22273
 C697 C 0.32231 0.30783 -0.18630
 C698 C 0.30713 0.27132 -0.18141
 C699 C 0.28385 0.25763 -0.21284
 C700 C 0.27456 0.28015 -0.25018
 C701 C 0.34687 0.32098 -0.15585
 C702 C 0.36209 0.35763 -0.16088
 C703 C 0.35224 0.38156 -0.19658
 C704 C 0.32821 0.36805 -0.22752
 C705 C 0.36630 0.41884 -0.20041
 C706 C 0.38950 0.43252 -0.16882
 C707 C 0.39989 0.40876 -0.13383
 C708 C 0.38647 0.37113 -0.13026
 H709 H 0.28465 0.33517 -0.28296
 H710 H 0.31399 0.25280 -0.15392
 H711 H 0.27467 0.22820 -0.20940
 H712 H 0.35407 0.30274 -0.12821
 H713 H 0.32105 0.38626 -0.25520
 H714 H 0.35887 0.43767 -0.22732
 H715 H 0.39940 0.46176 -0.17165
 H716 H 0.39391 0.35306 -0.10261
 C717 C 1.21112 -0.20746 0.21612
 C718 C 1.19251 -0.18404 0.18806
 C719 C 1.19411 -0.18882 0.14133
 C720 C 1.21400 -0.21783 0.12373
 C721 C 1.23121 -0.24264 0.15218
 C722 C 1.23044 -0.23788 0.19926
 C723 C 1.17485 -0.16545 0.11331
 C724 C 1.15298 -0.13864 0.13189
 C725 C 1.15080 -0.13508 0.17895
 C726 C 1.17110 -0.15708 0.20656
 C727 C 1.12792 -0.10997 0.19786
 C728 C 1.10730 -0.08837 0.17056
 C729 C 1.10974 -0.09065 0.12382
 C730 C 1.13279 -0.11575 0.10451
 H731 H 1.20912 -0.20344 0.25199
 H732 H 1.21507 -0.22244 0.08793
 H733 H 1.24383 -0.26632 0.13692
 H734 H 1.17619 -0.16884 0.07731
 H735 H 1.16948 -0.15403 0.24261
 H736 H 1.12583 -0.10719 0.23386
 H737 H 1.08991 -0.06910 0.18611
 H738 H 1.13458 -0.11785 0.06841
 C739 C 1.20775 0.31339 0.70590
 C740 C 1.18938 0.34058 0.68239
 C741 C 1.19886 0.35076 0.63831
 C742 C 1.22853 0.33657 0.62040
 C743 C 1.24719 0.31028 0.64461
 C744 C 1.23539 0.29528 0.68605
 C745 C 1.17852 0.37484 0.61299
 C746 C 1.14914 0.38942 0.63171
 C747 C 1.14120 0.38167 0.67710
 C748 C 1.16122 0.35707 0.70203
 C749 C 1.11280 0.39785 0.69646
 C750 C 1.09160 0.42011 0.67061
 C751 C 1.09805 0.42577 0.62486
 C752 C 1.12714 0.41093 0.60565
 H753 H 1.19988 0.30594 0.73949
 H754 H 1.23729 0.34571 0.58758
 H755 H 1.27070 0.30155 0.63026
 H756 H 1.18522 0.38166 0.57861
 H757 H 1.15441 0.35003 0.73633
 H758 H 1.10659 0.39259 0.73131
 H759 H 1.06922 0.43134 0.68588
 H760 H 1.13229 0.41564 0.57038
 C761 C 0.69356 -0.20987 0.74281
 C762 C 0.67407 -0.18677 0.71497
 C763 C 0.69001 -0.16309 0.68223
 C764 C 0.72505 -0.16152 0.67913
 C765 C 0.74410 -0.18507 0.70609
 C766 C 0.72871 -0.21156 0.73639
 C767 C 0.67075 -0.14155 0.65278
 C768 C 0.63560 -0.14334 0.65550
 C769 C 0.61949 -0.16615 0.68894
 C770 C 0.63883 -0.18768 0.71856
 C771 C 0.58428 -0.16701 0.69208
 C772 C 0.56529 -0.14524 0.66261
 C773 C 0.58117 -0.12287 0.62907
 C774 C 0.61634 -0.12230 0.62546
 H775 H 0.68097 -0.22669 0.76862
 H776 H 0.73774 -0.14287 0.65493
 H777 H 0.77114 -0.18421 0.70156
 H778 H 0.68311 -0.12369 0.62747
 H779 H 0.62647 -0.20558 0.74383
 H780 H 0.57146 -0.18420 0.71755
 H781 H 0.53816 -0.14585 0.66606
 H782 H 0.62879 -0.10461 0.60009
 C783 C 0.69920 0.25866 0.20470
 C784 C 0.67806 0.28640 0.18621
 C785 C 0.68670 0.32577 0.19082
 C786 C 0.71531 0.33684 0.21479
 C787 C 0.73528 0.30946 0.23453
 C788 C 0.72838 0.26939 0.22971
 C789 C 0.66635 0.35374 0.17214
 C790 C 0.63671 0.34302 0.14972
 C791 C 0.62716 0.30372 0.14614
 C792 C 0.64811 0.27556 0.16394
 C793 C 0.59684 0.29340 0.12473
 C794 C 0.57661 0.32168 0.10640
 C795 C 0.58654 0.36072 0.10864
 C796 C 0.61654 0.37114 0.13074
 H797 H 0.69220 0.22852 0.20102
 H798 H 0.72195 0.36701 0.21926
 H799 H 0.75579 0.32109 0.25406
 H800 H 0.67345 0.38394 0.17543
 H801 H 0.64097 0.24539 0.16080
 H802 H 0.58890 0.26347 0.12184
 H803 H 0.55365 0.31290 0.08937
 H804 H 0.62434 0.40119 0.13290
 C805 C 0.80459 0.20289 0.23009
 C806 C 0.82564 0.18466 0.19982
 C807 C 0.81514 0.17872 0.15541
 C808 C 0.78381 0.19208 0.14206
 C809 C 0.76316 0.21123 0.17234
 C810 C 0.77298 0.21740 0.21732
 C811 C 0.83609 0.15937 0.12541
 C812 C 0.86759 0.14645 0.13953
 C813 C 0.87824 0.15358 0.18393
 C814 C 0.85717 0.17234 0.21376
 C815 C 0.90975 0.14151 0.19809
 C816 C 0.93037 0.12167 0.16899
 C817 C 0.91987 0.11323 0.12519
 C818 C 0.88851 0.12615 0.11039
 H819 H 0.81321 0.20559 0.26430
 H820 H 0.77523 0.18784 0.10800
 H821 H 0.73965 0.22086 0.15954
 H822 H 0.82787 0.15429 0.09131
 H823 H 0.86532 0.17734 0.24792
 H824 H 0.91830 0.14701 0.23193
 H825 H 0.95435 0.11216 0.18121
 H826 H 0.88021 0.11994 0.07660
 C827 C 0.79471 0.70924 0.74105
 C828 C 0.81094 0.68504 0.71097
 C829 C 0.80291 0.68634 0.66499
 C830 C 0.77752 0.71004 0.65029
 C831 C 0.76068 0.73295 0.68054
 C832 C 0.77009 0.73470 0.72622
 C833 C 0.82002 0.66354 0.63445
 C834 C 0.84454 0.63861 0.64946
 C835 C 0.85142 0.63580 0.69577
 C836 C 0.83488 0.65936 0.72619
 C837 C 0.87498 0.60967 0.71081
 C838 C 0.89224 0.58734 0.68020
 C839 C 0.88667 0.59128 0.63401
 C840 C 0.86249 0.61665 0.61883
 H841 H 0.80123 0.70836 0.77621
 H842 H 0.77018 0.71034 0.61539
 H843 H 0.73991 0.74874 0.66746
 H844 H 0.81422 0.66517 0.59905
 H845 H 0.84065 0.65773 0.76158
 H846 H 0.88037 0.60684 0.74617
 H847 H 0.91088 0.56798 0.69262
 H848 H 0.85793 0.61954 0.58324
 C849 C 0.30851 0.22615 0.69438
 C850 C 0.32748 0.20107 0.66873
 C851 C 0.31572 0.18892 0.62654
 C852 C 0.28585 0.20343 0.60996
 C853 C 0.26686 0.22803 0.63598
 C854 C 0.27675 0.23893 0.67985
 C855 C 0.33363 0.16191 0.60211
 C856 C 0.36291 0.14644 0.61997
 C857 C 0.37520 0.15947 0.66177
 C858 C 0.35762 0.18700 0.68564
 C859 C 0.40438 0.14396 0.67965
 C860 C 0.42066 0.11481 0.65707
 C861 C 0.40810 0.10084 0.61620
 C862 C 0.37957 0.11734 0.59735
 H863 H 0.31906 0.23448 0.72606
 H864 H 0.27667 0.19505 0.57719
 H865 H 0.24369 0.23786 0.62165
 H866 H 0.32429 0.15213 0.56990
 H867 H 0.36680 0.19650 0.71804
 H868 H 0.41420 0.15377 0.71155
 H869 H 0.44272 0.10267 0.67206
 H870 H 0.36980 0.10689 0.56567
 C871 C 0.29517 0.71678 0.18690
 C872 C 0.31893 0.68990 0.17325
 C873 C 0.31408 0.65081 0.18501
 C874 C 0.28710 0.63949 0.21216
 C875 C 0.26470 0.66634 0.22732
 C876 C 0.26658 0.70543 0.21301
 C877 C 0.33680 0.62353 0.17063
 C878 C 0.36520 0.63487 0.14574
 C879 C 0.37127 0.67417 0.13559
 C880 C 0.34783 0.70144 0.14885
 C881 C 0.40064 0.68532 0.11219
 C882 C 0.42319 0.65768 0.09809
 C883 C 0.41641 0.61847 0.10647
 C884 C 0.38754 0.60733 0.13073
 H885 H 0.29924 0.74671 0.17784
 H886 H 0.28386 0.60987 0.22304
 H887 H 0.24614 0.65587 0.25126
 H888 H 0.33255 0.59347 0.17923
 H889 H 0.35216 0.73151 0.14045
 H890 H 0.40596 0.71529 0.10435
 H891 H 0.44526 0.66685 0.07911
 H892 H 0.38231 0.57711 0.13751
   
