data_POSCAR
  _audit_creation_date              2014-09-24
  _audit_creation_method            'ToBaCCo'
  _symmetry_space_group_name_H-M    'P1'
  _symmetry_Int_Tables_number       1
  _symmetry_cell_setting            triclinic
  loop_
  _symmetry_equiv_pos_as_xyz
 x,y,z
_cell_length_a 31.4541
_cell_length_b 31.4527
_cell_length_c 31.4527
_cell_angle_alpha 89.710600
_cell_angle_beta 89.999900
_cell_angle_gamma 90.000000
loop_
  _atom_site_label
  _atom_site_type_symbol
  _atom_site_fract_x
  _atom_site_fract_y
  _atom_site_fract_z
N1 N 0.22488 0.22352 0.22353
 N2 N -0.22372 0.77491 0.22509
 N3 N -0.22372 0.22508 -0.22508
 N4 N 0.22488 0.77647 -0.22353
 N5 N 0.22120 1.22224 0.77776
 N6 N 0.77916 0.78019 0.78019
 N7 N 0.22120 0.77775 1.22225
 N8 N 0.77916 1.21980 1.21981
 N9 N 0.54564 1.04560 1.07519
 N10 N 0.57643 1.05234 1.10286
 N11 N 0.45623 1.07521 1.04563
 N12 N 0.42581 1.10319 1.05268
 N13 N 0.45623 1.04562 1.07521
 N14 N 0.42581 1.05267 1.10319
 N15 N 0.54564 1.07518 1.04560
 N16 N 0.57643 1.10286 1.05235
 C17 C 0.59554 1.08809 1.08809
 C18 C 0.40690 1.08858 1.08859
 N19 N 0.45615 1.04598 0.92458
 N20 N 0.42542 1.05291 0.89682
 N21 N 0.54555 1.07544 0.95400
 N22 N 0.57590 1.10352 0.94675
 N23 N 0.54555 1.04600 0.92456
 N24 N 0.57590 1.05325 0.89648
 N25 N 0.45615 1.07541 0.95402
 N26 N 0.42542 1.10318 0.94708
 Mn27 Mn 0.50089 1.07578 0.99981
 C28 C 0.40635 1.08862 0.91138
 C29 C 0.59477 1.08912 0.91088
 N30 N 0.45615 0.95402 1.07542
 N31 N 0.42542 0.94708 1.10318
 N32 N 0.54555 0.92456 1.04601
 N33 N 0.57590 0.89648 1.05326
 N34 N 0.54555 0.95399 1.07544
 N35 N 0.57590 0.94674 1.10352
 N36 N 0.45615 0.92458 1.04598
 N37 N 0.42542 0.89682 1.05292
 Mn38 Mn 0.50089 0.99981 1.07579
 C39 C 0.40635 0.91138 1.08862
 C40 C 0.59477 0.91087 1.08913
 N41 N 0.54564 0.95440 0.92481
 N42 N 0.57643 0.94765 0.89714
 N43 N 0.45623 0.92479 0.95438
 N44 N 0.42581 0.89680 0.94733
 N45 N 0.45623 0.95437 0.92479
 N46 N 0.42581 0.94732 0.89681
 N47 N 0.54564 0.92481 0.95440
 N48 N 0.57643 0.89713 0.94766
 Mn49 Mn 0.50089 1.00019 0.92421
 Mn50 Mn 0.50089 0.92421 1.00019
 Cl51 Cl 0.50089 1.00000 1.00000
 C52 C 0.59554 0.91190 0.91191
 C53 C 0.40690 0.91141 0.91142
 N54 N 0.04504 0.54546 -0.07508
 N55 N 0.05233 0.57604 -0.10302
 N56 N 0.07449 0.45575 -0.04600
 N57 N 0.10222 0.42507 -0.05297
 N58 N 0.04500 0.45605 -0.07554
 N59 N 0.05188 0.42557 -0.10342
 N60 N 0.07452 0.54513 -0.04554
 N61 N 0.10266 0.57547 -0.05258
 C62 C 0.08826 0.59469 -0.08842
 C63 C 0.08760 0.40634 -0.08880
 N64 N 0.04504 0.45454 0.07508
 N65 N 0.05233 0.42396 0.10302
 N66 N 0.07449 0.54425 0.04601
 N67 N 0.10222 0.57493 0.05297
 N68 N 0.04500 0.54395 0.07554
 N69 N 0.05188 0.57442 0.10342
 N70 N 0.07452 0.45487 0.04555
 N71 N 0.10266 0.42453 0.05258
 Mn72 Mn 0.07496 0.50000 0.00000
 C73 C 0.08826 0.40530 0.08842
 C74 C 0.08760 0.59365 0.08881
 N75 N -0.04659 0.45614 -0.07557
 N76 N -0.05360 0.42595 -0.10369
 N77 N -0.07611 0.54524 -0.04557
 N78 N -0.10382 0.57608 -0.05229
 N79 N -0.04657 0.54554 -0.07506
 N80 N -0.05337 0.57658 -0.10262
 N81 N -0.07612 0.45581 -0.04608
 N82 N -0.10404 0.42537 -0.05335
 Mn83 Mn -0.00078 0.50080 -0.07579
 C84 C -0.08944 0.40683 -0.08929
 C85 C -0.08911 0.59553 -0.08791
 N86 N -0.04659 0.54386 0.07557
 N87 N -0.05360 0.57405 0.10369
 N88 N -0.07611 0.45475 0.04557
 N89 N -0.10382 0.42392 0.05229
 N90 N -0.04657 0.45445 0.07506
 N91 N -0.05337 0.42342 0.10263
 N92 N -0.07612 0.54419 0.04608
 N93 N -0.10404 0.57462 0.05335
 Mn94 Mn -0.00078 0.49919 0.07579
 Mn95 Mn -0.07660 0.50000 0.00000
 Cl96 Cl -0.00081 0.50000 0.00000
 C97 C -0.08944 0.59317 0.08929
 C98 C -0.08911 0.40446 0.08791
 N99 N 0.92388 0.04608 0.54419
 N100 N 0.89596 0.05335 0.57463
 N101 N 0.95343 0.07506 0.45446
 N102 N 0.94663 0.10262 0.42342
 N103 N 0.92389 0.04557 0.45476
 N104 N 0.89618 0.05229 0.42392
 N105 N 0.95341 0.07557 0.54386
 N106 N 0.94640 0.10369 0.57405
 C107 C 0.91056 0.08929 0.59317
 C108 C 0.91089 0.08790 0.40447
 N109 N 1.07452 0.04554 0.45487
 N110 N 1.10266 0.05258 0.42453
 N111 N 1.04500 0.07554 0.54395
 N112 N 1.05188 0.10342 0.57442
 N113 N 1.07449 0.04600 0.54425
 N114 N 1.10222 0.05297 0.57493
 N115 N 1.04504 0.07507 0.45454
 N116 N 1.05233 0.10302 0.42396
 Mn117 Mn 0.99922 0.07578 0.49920
 C118 C 1.08826 0.08841 0.40531
 C119 C 1.08760 0.08880 0.59366
 N120 N 0.92388 -0.04609 0.45581
 N121 N 0.89596 -0.05335 0.42538
 N122 N 0.95343 -0.07506 0.54555
 N123 N 0.94663 -0.10263 0.57658
 N124 N 0.92389 -0.04557 0.54525
 N125 N 0.89618 -0.05229 0.57608
 N126 N 0.95341 -0.07557 0.45614
 N127 N 0.94640 -0.10369 0.42595
 Mn128 Mn 0.92340 -0.00000 0.50000
 C129 C 0.91056 -0.08929 0.40683
 C130 C 0.91089 -0.08791 0.59554
 N131 N 1.07452 -0.04555 0.54513
 N132 N 1.10266 -0.05258 0.57547
 N133 N 1.04500 -0.07555 0.45605
 N134 N 1.05188 -0.10342 0.42558
 N135 N 1.07449 -0.04601 0.45575
 N136 N 1.10222 -0.05298 0.42507
 N137 N 1.04504 -0.07508 0.54546
 N138 N 1.05233 -0.10302 0.57604
 Mn139 Mn 1.07496 -0.00000 0.50000
 Mn140 Mn 0.99922 -0.07579 0.50081
 Cl141 Cl 0.99919 -0.00000 0.50000
 C142 C 1.08826 -0.08842 0.59470
 C143 C 1.08760 -0.08881 0.40635
 C144 C 1.15567 0.15479 0.30691
 C145 C 1.11709 0.17085 0.32213
 C146 C 1.09464 0.14879 0.35362
 C147 C 1.20075 0.19939 0.25154
 C148 C 1.14897 0.09410 0.35423
 C149 C 1.17137 0.11621 0.32275
 C150 C 1.17999 0.17877 0.27641
 C151 C 1.11062 0.11044 0.37030
 H152 H 1.10471 0.20073 0.31013
 H153 H 1.06515 0.16208 0.36537
 H154 H 1.16199 0.06460 0.36646
 H155 H 1.20124 0.10354 0.31123
 C156 C 0.84464 -0.15625 0.30845
 C157 C 0.88312 -0.17205 0.32431
 C158 C 0.90506 -0.14981 0.35582
 C159 C 0.80031 -0.20106 0.25305
 C160 C 0.85039 -0.09547 0.35520
 C161 C 0.82850 -0.11776 0.32369
 C162 C 0.82081 -0.18041 0.27791
 C163 C 0.88865 -0.11154 0.37188
 H164 H 0.89584 -0.20186 0.31279
 H165 H 0.93449 -0.16289 0.36804
 H166 H 0.83704 -0.06604 0.36694
 H167 H 0.79868 -0.10530 0.31168
 C168 C 0.84464 0.15625 0.69156
 C169 C 0.88312 0.17204 0.67569
 C170 C 0.90506 0.14980 0.64419
 C171 C 0.80031 0.20106 0.74696
 C172 C 0.85039 0.09547 0.64481
 C173 C 0.82850 0.11776 0.67632
 C174 C 0.82082 0.18041 0.72210
 C175 C 0.88865 0.11153 0.62813
 H176 H 0.89584 0.20185 0.68722
 H177 H 0.93449 0.16289 0.63196
 H178 H 0.83704 0.06604 0.63306
 H179 H 0.79868 0.10530 0.68832
 C180 C 1.15567 -0.15479 0.69309
 C181 C 1.11709 -0.17085 0.67787
 C182 C 1.09464 -0.14880 0.64638
 C183 C 1.20076 -0.19939 0.74846
 C184 C 1.14897 -0.09411 0.64577
 C185 C 1.17137 -0.11621 0.67726
 C186 C 1.17999 -0.17877 0.72360
 C187 C 1.11062 -0.11045 0.62971
 H188 H 1.10471 -0.20073 0.68987
 H189 H 1.06515 -0.16209 0.63463
 H190 H 1.16199 -0.06461 0.63354
 H191 H 1.20124 -0.10355 0.68877
 C192 C 0.30833 1.15495 1.15496
 C193 C 0.32390 1.17100 1.11640
 C194 C 0.35546 1.14895 1.09430
 C195 C 0.25287 1.19951 1.19951
 C196 C 0.35546 1.09430 1.14895
 C197 C 0.32390 1.11640 1.17100
 C198 C 0.27776 1.17894 1.17894
 C199 C 0.37186 1.11062 1.11062
 H200 H 0.31212 1.20086 1.10376
 H201 H 0.36747 1.16222 1.06483
 H202 H 0.36747 1.06482 1.16223
 H203 H 0.31212 1.10375 1.20086
 C204 C 0.30833 0.84504 0.84505
 C205 C 0.32390 0.88360 0.82900
 C206 C 0.35546 0.90570 0.85105
 C207 C 0.25287 0.80049 0.80049
 C208 C 0.35546 0.85105 0.90570
 C209 C 0.32390 0.82900 0.88360
 C210 C 0.27776 0.82106 0.82106
 C211 C 0.37186 0.88938 0.88938
 H212 H 0.31212 0.89624 0.79914
 H213 H 0.36747 0.93517 0.83778
 H214 H 0.36747 0.83777 0.93518
 H215 H 0.31212 0.79914 0.89625
 C216 C 0.69298 0.84391 1.15609
 C217 C 0.67747 0.82810 1.11758
 C218 C 0.64603 0.85035 1.09528
 C219 C 0.74830 0.79905 1.20095
 C220 C 0.64603 0.90472 1.14965
 C221 C 0.67747 0.88242 1.17190
 C222 C 0.72346 0.81975 1.18025
 C223 C 0.62969 0.88864 1.11136
 H224 H 0.68921 0.79827 1.10511
 H225 H 0.63406 0.83725 1.06584
 H226 H 0.63406 0.93416 1.16275
 H227 H 0.68921 0.89489 1.20173
 C228 C 0.69298 1.15608 0.84391
 C229 C 0.67747 1.11757 0.82811
 C230 C 0.64603 1.09527 0.85035
 C231 C 0.74830 1.20094 0.79906
 C232 C 0.64603 1.14965 0.90472
 C233 C 0.67747 1.17189 0.88243
 C234 C 0.72346 1.18024 0.81976
 C235 C 0.62969 1.11136 0.88864
 H236 H 0.68921 1.10510 0.79828
 H237 H 0.63406 1.06583 0.83726
 H238 H 0.63406 1.16274 0.93417
 H239 H 0.68921 1.20172 0.89490
 C240 C 0.15567 0.30691 0.15479
 C241 C 0.11709 0.32213 0.17085
 C242 C 0.09464 0.35362 0.14879
 C243 C 0.20075 0.25154 0.19939
 C244 C 0.14897 0.35423 0.09410
 C245 C 0.17137 0.32274 0.11621
 C246 C 0.17999 0.27640 0.17877
 C247 C 0.11062 0.37029 0.11045
 H248 H 0.10471 0.31013 0.20073
 H249 H 0.06515 0.36537 0.16208
 H250 H 0.16199 0.36646 0.06461
 H251 H 0.20124 0.31122 0.10355
 C252 C -0.15536 0.30844 -0.15625
 C253 C -0.17150 0.32368 -0.11776
 C254 C -0.14961 0.35519 -0.09547
 C255 C -0.19969 0.25304 -0.20106
 C256 C -0.09494 0.35581 -0.14981
 C257 C -0.11688 0.32431 -0.17204
 C258 C -0.17918 0.27790 -0.18041
 C259 C -0.11135 0.37187 -0.11153
 H260 H -0.20132 0.31167 -0.10530
 H261 H -0.16296 0.36694 -0.06604
 H262 H -0.06551 0.36804 -0.16289
 H263 H -0.10416 0.31278 -0.20185
 C264 C 0.15567 0.69309 -0.15479
 C265 C 0.11709 0.67787 -0.17085
 C266 C 0.09464 0.64638 -0.14879
 C267 C 0.20076 0.74846 -0.19939
 C268 C 0.14897 0.64576 -0.09410
 C269 C 0.17137 0.67725 -0.11621
 C270 C 0.17999 0.72359 -0.17877
 C271 C 0.11062 0.62970 -0.11044
 H272 H 0.10471 0.68987 -0.20073
 H273 H 0.06516 0.63463 -0.16208
 H274 H 0.16199 0.63354 -0.06460
 H275 H 0.20124 0.68877 -0.10355
 C276 C -0.15536 0.69155 0.15625
 C277 C -0.17150 0.67631 0.11776
 C278 C -0.14962 0.64480 0.09547
 C279 C -0.19969 0.74695 0.20106
 C280 C -0.09494 0.64418 0.14981
 C281 C -0.11688 0.67569 0.17205
 C282 C -0.17919 0.72209 0.18041
 C283 C -0.11135 0.62812 0.11154
 H284 H -0.20132 0.68832 0.10530
 H285 H -0.16296 0.63306 0.06604
 H286 H -0.06551 0.63196 0.16289
 H287 H -0.10416 0.68721 0.20186
 C288 C 1.15301 0.15426 0.69348
 C289 C 1.16902 0.11582 0.67796
 C290 C 1.14729 0.09405 0.64597
 C291 C 1.19724 0.19834 0.74960
 C292 C 1.09303 0.14880 0.64538
 C293 C 1.11481 0.17052 0.67737
 C294 C 1.17678 0.17796 0.72447
 C295 C 1.10931 0.11058 0.62905
 H296 H 1.19862 0.10301 0.69012
 H297 H 1.16054 0.06466 0.63405
 H298 H 1.06382 0.16223 0.63298
 H299 H 1.10220 0.20030 0.68908
 C300 C 0.84588 -0.15289 0.69665
 C301 C 0.88425 -0.16895 0.68092
 C302 C 0.90588 -0.14736 0.64852
 C303 C 0.80182 -0.19709 0.75335
 C304 C 0.85115 -0.09310 0.64793
 C305 C 0.82956 -0.11475 0.68033
 C306 C 0.82223 -0.17660 0.72798
 C307 C 0.88929 -0.10946 0.63139
 H308 H 0.89711 -0.19851 0.69322
 H309 H 0.93522 -0.16067 0.63644
 H310 H 0.83766 -0.06395 0.63538
 H311 H 0.79982 -0.10209 0.69218
 C312 C 1.15301 -0.15426 0.30652
 C313 C 1.11481 -0.17052 0.32263
 C314 C 1.09303 -0.14880 0.35463
 C315 C 1.19724 -0.19835 0.25040
 C316 C 1.14729 -0.09406 0.35403
 C317 C 1.16902 -0.11583 0.32204
 C318 C 1.17678 -0.17796 0.27553
 C319 C 1.10931 -0.11059 0.37095
 H320 H 1.10220 -0.20031 0.31092
 H321 H 1.06382 -0.16224 0.36702
 H322 H 1.16054 -0.06466 0.36596
 H323 H 1.19862 -0.10301 0.30988
 C324 C 0.84588 0.15289 0.30335
 C325 C 0.82956 0.11474 0.31967
 C326 C 0.85115 0.09309 0.35207
 C327 C 0.80182 0.19708 0.24665
 C328 C 0.90588 0.14735 0.35148
 C329 C 0.88425 0.16894 0.31908
 C330 C 0.82223 0.17660 0.27202
 C331 C 0.88929 0.10945 0.36862
 H332 H 0.79982 0.10209 0.30782
 H333 H 0.83766 0.06394 0.36462
 H334 H 0.93522 0.16066 0.36356
 H335 H 0.89711 0.19851 0.30678
 C336 C 0.15301 0.30652 -0.15426
 C337 C 0.11481 0.32263 -0.17052
 C338 C 0.09303 0.35462 -0.14880
 C339 C 0.19724 0.25040 -0.19834
 C340 C 0.14729 0.35403 -0.09406
 C341 C 0.16902 0.32204 -0.11582
 C342 C 0.17678 0.27553 -0.17796
 C343 C 0.10931 0.37094 -0.11058
 H344 H 0.10220 0.31092 -0.20030
 H345 H 0.06382 0.36702 -0.16223
 H346 H 0.16054 0.36595 -0.06466
 H347 H 0.19862 0.30987 -0.10301
 C348 C -0.15412 0.30335 0.15289
 C349 C -0.17044 0.31966 0.11474
 C350 C -0.14885 0.35207 0.09309
 C351 C -0.19818 0.24665 0.19708
 C352 C -0.09412 0.35148 0.14735
 C353 C -0.11575 0.31908 0.16895
 C354 C -0.17777 0.27202 0.17660
 C355 C -0.11071 0.36861 0.10945
 H356 H -0.20018 0.30782 0.10209
 H357 H -0.16234 0.36462 0.06395
 H358 H -0.06478 0.36356 0.16066
 H359 H -0.10289 0.30678 0.19851
 C360 C -0.15412 0.69665 -0.15289
 C361 C -0.17044 0.68033 -0.11474
 C362 C -0.14885 0.64792 -0.09309
 C363 C -0.19818 0.75335 -0.19708
 C364 C -0.09412 0.64851 -0.14735
 C365 C -0.11575 0.68092 -0.16895
 C366 C -0.17777 0.72797 -0.17660
 C367 C -0.11071 0.63138 -0.10945
 H368 H -0.20018 0.69218 -0.10209
 H369 H -0.16234 0.63538 -0.06394
 H370 H -0.06478 0.63643 -0.16066
 H371 H -0.10289 0.69322 -0.19851
 C372 C 0.15301 0.69348 0.15426
 C373 C 0.11481 0.67737 0.17052
 C374 C 0.09303 0.64537 0.14880
 C375 C 0.19724 0.74960 0.19835
 C376 C 0.14729 0.64597 0.09406
 C377 C 0.16902 0.67796 0.11582
 C378 C 0.17678 0.72446 0.17796
 C379 C 0.10931 0.62905 0.11059
 H380 H 0.10220 0.68908 0.20030
 H381 H 0.06382 0.63298 0.16224
 H382 H 0.16054 0.63404 0.06466
 H383 H 0.19862 0.69012 0.10301
 C384 C 0.30598 1.15407 0.84593
 C385 C 0.32188 1.17012 0.88419
 C386 C 0.35406 1.14839 0.90597
 C387 C 0.24952 1.19827 0.80173
 C388 C 0.35406 1.09403 0.85161
 C389 C 0.32188 1.11581 0.82987
 C390 C 0.27480 1.17782 0.82218
 C391 C 0.37077 1.11037 0.88963
 H392 H 0.30988 1.19977 0.89684
 H393 H 0.36628 1.16168 0.93522
 H394 H 0.36628 1.06478 0.83832
 H395 H 0.30988 1.10315 0.80023
 C396 C 0.30598 0.84593 1.15407
 C397 C 0.32188 0.88418 1.17013
 C398 C 0.35406 0.90597 1.14840
 C399 C 0.24952 0.80172 1.19828
 C400 C 0.35406 0.85160 1.09403
 C401 C 0.32188 0.82987 1.11581
 C402 C 0.27480 0.82217 1.17783
 C403 C 0.37077 0.88963 1.11037
 H404 H 0.30988 0.89684 1.19977
 H405 H 0.36628 0.93521 1.16169
 H406 H 0.36628 0.83831 1.06479
 H407 H 0.30988 0.80023 1.10316
 C408 C 0.69611 1.15307 1.15307
 C409 C 0.68018 1.11474 1.16934
 C410 C 0.64795 1.09311 1.14775
 C411 C 0.75247 1.19714 1.19715
 C412 C 0.64795 1.14775 1.09312
 C413 C 0.68018 1.16933 1.11475
 C414 C 0.72725 1.17672 1.17673
 C415 C 0.63121 1.10966 1.10967
 H416 H 0.69219 1.10193 1.19904
 H417 H 0.63570 1.06381 1.16121
 H418 H 0.63570 1.16121 1.06382
 H419 H 0.69219 1.19903 1.10194
 C420 C 0.69611 0.84693 0.84693
 C421 C 0.68018 0.83066 0.88526
 C422 C 0.64795 0.85224 0.90689
 C423 C 0.75247 0.80285 0.80285
 C424 C 0.64795 0.90688 0.85225
 C425 C 0.68018 0.88525 0.83067
 C426 C 0.72725 0.82327 0.82327
 C427 C 0.63121 0.89033 0.89033
 H428 H 0.69219 0.80096 0.89807
 H429 H 0.63570 0.83879 0.93618
 H430 H 0.63570 0.93618 0.83879
 H431 H 0.69219 0.89806 0.80096
   
