data_POSCAR
  _audit_creation_date              2014-09-24
  _audit_creation_method            'ToBaCCo'
  _symmetry_space_group_name_H-M    'P1'
  _symmetry_Int_Tables_number       1
  _symmetry_cell_setting            triclinic
  loop_
  _symmetry_equiv_pos_as_xyz
 x,y,z
_cell_length_a 31.7722
_cell_length_b 32.5765
_cell_length_c 32.0860
_cell_angle_alpha 88.519200
_cell_angle_beta 89.399500
_cell_angle_gamma 90.042000
loop_
  _atom_site_label
  _atom_site_type_symbol
  _atom_site_fract_x
  _atom_site_fract_y
  _atom_site_fract_z
Si1 Si 0.77362 0.61579 0.98809
 Si2 Si 0.74527 0.39296 0.49547
 Si3 Si 0.26650 -0.12142 0.00300
 Si4 Si 0.23943 0.13205 0.50378
 Si5 Si 0.12350 0.50310 0.26884
 Si6 Si -0.11864 -0.00292 0.23881
 Si7 Si 0.38489 0.49699 0.76499
 Si8 Si 0.61974 0.99518 0.73885
 Si9 Si -0.01011 0.24134 -0.10388
 Si10 Si 0.48892 0.25708 0.12563
 Si11 Si 1.00400 0.75225 0.62504
 Si12 Si 0.50145 0.75617 0.35086
 C13 C 0.42455 -0.02931 0.29522
 H14 H 0.42838 0.00069 0.30818
 C15 C 0.45137 -0.06109 0.30776
 H16 H 0.47543 -0.05563 0.33062
 C17 C 0.38976 -0.07312 0.24883
 H18 H 0.36659 -0.07771 0.22513
 C19 C 0.41493 -0.10614 0.26168
 H20 H 0.41070 -0.13594 0.24813
 N21 N 0.39457 -0.03561 0.26601
 C22 C 0.37532 0.09227 0.23110
 H23 H 0.34187 0.09482 0.23711
 C24 C 0.39844 0.12685 0.21856
 H25 H 0.38277 0.15621 0.21511
 C26 C 0.43643 0.05063 0.22767
 H27 H 0.45087 0.02067 0.23017
 C28 C 0.46093 0.08464 0.21592
 H29 H 0.49422 0.08081 0.20964
 Zn30 Zn 0.35994 0.00981 0.25003
 N31 N 0.39443 0.05505 0.23492
 C32 C 0.34841 0.04602 0.32662
 N33 N 0.32738 0.02569 0.29674
 C34 C 0.28527 0.01862 0.30023
 C35 C 0.26291 0.03167 0.33529
 C36 C 0.32732 0.05984 0.36185
 C37 C 0.33143 0.02020 0.16750
 C38 C 0.31104 0.00993 0.13094
 C39 C 0.27891 -0.04758 0.16799
 C40 C 0.29900 -0.03549 0.20432
 N41 N 0.32585 -0.00284 0.20319
 H42 H 0.38163 0.05223 0.32279
 H43 H 0.26892 0.00298 0.27594
 H44 H 0.22942 0.02581 0.33772
 H45 H 0.34499 0.07560 0.38522
 H46 H 0.35297 0.04580 0.16664
 H47 H 0.31711 0.02775 0.10256
 H48 H 0.25918 -0.07471 0.16879
 H49 H 0.29478 -0.05339 0.23292
 C50 C 0.44172 0.12309 0.21066
 C51 C 0.44625 -0.10001 0.29122
 C52 C 0.28552 -0.02505 0.13060
 C53 C 0.28397 0.05276 0.36655
 C54 C 0.06085 1.02946 0.81866
 H55 H 0.05992 0.99761 0.82901
 C56 C 0.04066 1.05907 0.84225
 H57 H 0.02347 1.04952 0.87015
 C58 C 0.08691 1.08079 0.77152
 H59 H 0.10612 1.08935 0.74473
 C60 C 0.06701 1.11148 0.79418
 H61 H 0.07104 1.14322 0.78425
 N62 N 0.08390 1.04068 0.78429
 C63 C 0.10221 0.93459 0.70585
 H64 H 0.13384 0.94204 0.69542
 C65 C 0.08168 0.90090 0.68939
 H66 H 0.09817 0.88292 0.66661
 C67 C 0.04303 0.94943 0.74824
 H68 H 0.02793 0.96834 0.77108
 C69 C 0.02129 0.91585 0.73262
 H70 H -0.01032 0.90935 0.74385
 Zn71 Zn 0.11686 0.99975 0.75818
 N72 N 0.08318 0.95763 0.73535
 C73 C 0.17338 0.94005 0.78900
 N74 N 0.15325 0.97544 0.79853
 C75 C 0.15764 0.99229 0.83666
 C76 C 0.18147 0.97243 0.86753
 C77 C 0.19750 0.91928 0.81881
 C78 C 0.12766 1.03892 0.68037
 C79 C 0.14964 1.05490 0.64575
 C80 C 0.21483 1.03836 0.68049
 C81 C 0.19159 1.02314 0.71470
 N82 N 0.14882 1.02354 0.71391
 H83 H 0.17017 0.92741 0.75846
 H84 H 0.14236 1.02099 0.84345
 H85 H 0.18378 0.98613 0.89774
 H86 H 0.21250 0.89072 0.81067
 H87 H 0.09361 1.03827 0.68043
 H88 H 0.13220 1.06638 0.61914
 H89 H 0.24888 1.03757 0.68133
 H90 H 0.20773 1.01055 0.74161
 C91 C 0.04083 0.89065 0.70322
 C92 C 0.04416 1.10077 0.83055
 C93 C 0.19383 1.05449 0.64547
 C94 C 0.20121 0.93495 0.85897
 C95 C 0.56908 0.55688 0.27749
 H96 H 0.56289 0.52946 0.29631
 C97 C 0.55136 0.59441 0.28876
 H98 H 0.53087 0.59535 0.31584
 C99 C 0.60456 0.58917 0.22022
 H100 H 0.62648 0.58771 0.19445
 C101 C 0.58727 0.62701 0.23005
 H102 H 0.59566 0.65387 0.21119
 N103 N 0.59533 0.55497 0.24381
 C104 C 0.60811 0.42952 0.20081
 H105 H 0.64206 0.42926 0.19783
 C106 C 0.58487 0.39576 0.18850
 H107 H 0.60125 0.36946 0.17639
 C108 C 0.54593 0.46412 0.22135
 H109 H 0.53102 0.49092 0.23406
 C110 C 0.52140 0.43067 0.20985
 H111 H 0.48755 0.43189 0.21377
 Zn112 Zn 0.62447 0.50540 0.23296
 N113 N 0.58851 0.46266 0.21705
 C114 C 0.64663 0.45153 0.29966
 N115 N 0.65294 0.48941 0.28189
 C116 C 0.67843 0.51736 0.29962
 C117 C 0.69935 0.50741 0.33650
 C118 C 0.66692 0.44028 0.33656
 C119 C 0.64611 0.52329 0.15070
 C120 C 0.67204 0.53403 0.11695
 C121 C 0.73260 0.52317 0.16087
 C122 C 0.70539 0.51310 0.19406
 N123 N 0.66299 0.51456 0.18864
 H124 H 0.62563 0.43002 0.28546
 H125 H 0.68236 0.54748 0.28508
 H126 H 0.71953 0.53010 0.35015
 H127 H 0.66139 0.40995 0.34991
 H128 H 0.61228 0.52330 0.14716
 H129 H 0.65801 0.54193 0.08722
 H130 H 0.76626 0.52320 0.16572
 H131 H 0.71817 0.50500 0.22422
 C132 C 0.54093 0.39597 0.19317
 C133 C 0.56087 0.63020 0.26505
 C134 C 0.71581 0.53494 0.12214
 C135 C 0.69369 0.46845 0.35553
 C136 C 0.96372 0.44468 0.79007
 H137 H 0.97414 0.47460 0.79947
 C138 C 0.98368 0.40936 0.80587
 H139 H 1.00998 0.41215 0.82680
 C140 C 0.91516 0.40385 0.75380
 H141 H 0.88788 0.40170 0.73416
 C142 C 0.93321 0.36795 0.77003
 H143 H 0.92020 0.33836 0.76247
 N144 N 0.93066 0.44133 0.76372
 C145 C 0.91012 0.56244 0.70445
 H146 H 0.87659 0.55794 0.70111
 C147 C 0.92833 0.59938 0.69102
 H148 H 0.90851 0.62306 0.67747
 C149 C 0.97592 0.53721 0.72785
 H150 H 0.99443 0.51287 0.74183
 C151 C 0.99546 0.57413 0.71523
 H152 H 1.02892 0.57795 0.71986
 Zn153 Zn 0.90024 0.48764 0.74302
 N154 N 0.93367 0.53258 0.72327
 C155 C 0.87375 0.54417 0.80149
 N156 N 0.86487 0.50669 0.78604
 C157 C 0.83323 0.48304 0.80252
 C158 C 0.80864 0.49738 0.83553
 C159 C 0.85023 0.55952 0.83432
 C160 C 0.89613 0.46104 0.66425
 C161 C 0.87970 0.45043 0.62615
 C162 C 0.80960 0.45979 0.65442
 C163 C 0.82756 0.47088 0.69223
 N164 N 0.87017 0.47126 0.69618
 H165 H 0.89973 0.56212 0.78900
 H166 H 0.82736 0.45297 0.79027
 H167 H 0.78369 0.47825 0.84862
 H168 H 0.85785 0.58956 0.84566
 H169 H 0.92987 0.46183 0.66840
 H170 H 0.90098 0.44282 0.60094
 H171 H 0.77574 0.46016 0.65112
 H172 H 0.80759 0.47976 0.71793
 C173 C 0.97142 0.60590 0.69696
 C174 C 0.96802 0.37058 0.79606
 C175 C 0.83603 0.44991 0.62077
 C176 C 0.81739 0.53596 0.85203
 C177 C 0.28949 0.40113 -0.05464
 H178 H 0.30774 0.37762 -0.03898
 C179 C 0.30430 0.41749 -0.09247
 H180 H 0.33387 0.40634 -0.10470
 C181 C 0.22773 0.44155 -0.05912
 H182 H 0.19750 0.45012 -0.04620
 C183 C 0.24146 0.45880 -0.09748
 H184 H 0.22198 0.48118 -0.11364
 N185 N 0.25198 0.41341 -0.03841
 C186 C 0.21198 0.39884 0.09235
 H187 H 0.21277 0.36563 0.09314
 C188 C 0.20075 0.41967 0.12807
 H189 H 0.19333 0.40231 0.15641
 C190 C 0.22113 0.46155 0.05416
 H191 H 0.22904 0.47754 0.02518
 C192 C 0.21066 0.48379 0.08965
 H193 H 0.21030 0.51702 0.08785
 Zn194 Zn 0.23298 0.38522 0.01103
 N195 N 0.22088 0.41978 0.05610
 C196 C 0.31052 0.36950 0.04525
 N197 N 0.27632 0.35011 0.02996
 C198 C 0.27449 0.30846 0.02836
 C199 C 0.30882 0.28472 0.04124
 C200 C 0.34527 0.34704 0.05866
 C201 C 0.14799 0.36153 0.02037
 C202 C 0.11181 0.33918 0.01215
 C203 C 0.14985 0.30474 -0.04235
 C204 C 0.18557 0.32758 -0.03279
 N205 N 0.18415 0.35497 -0.00153
 H206 H 0.31098 0.40267 0.04621
 H207 H 0.24675 0.29361 0.01674
 H208 H 0.30729 0.25162 0.03940
 H209 H 0.37247 0.36333 0.06966
 H210 H 0.14681 0.38438 0.04408
 H211 H 0.08334 0.34494 0.02987
 H212 H 0.15167 0.28280 -0.06703
 H213 H 0.21454 0.32342 -0.05019
 C214 C 0.19955 0.46265 0.12692
 C215 C 0.28039 0.44683 -0.11449
 C216 C 0.11238 0.31045 -0.01958
 C217 C 0.34483 0.30407 0.05648
 C218 C 0.78187 0.05754 1.04400
 H219 H 0.79939 0.05797 1.01489
 C220 C 0.79813 0.03683 1.07908
 H221 H 0.82792 0.02094 1.07663
 C222 C 0.72267 0.07910 1.08314
 H223 H 0.69413 0.09674 1.08543
 C224 C 0.73728 0.05808 1.11861
 H225 H 0.71947 0.05950 1.14749
 N226 N 0.74489 0.07846 1.04662
 C227 C 0.69165 0.09952 0.92240
 H228 H 0.68598 0.13212 0.92480
 C229 C 0.68053 0.07950 0.88623
 H230 H 0.66633 0.09708 0.86103
 C231 C 0.71876 0.03778 0.95208
 H232 H 0.73403 0.02183 0.97771
 C233 C 0.70845 0.01653 0.91617
 H234 H 0.71555 -0.01588 0.91457
 Zn235 Zn 0.72779 0.11098 0.99932
 N236 N 0.71066 0.07866 0.95425
 C237 C 0.79151 0.13823 0.94290
 N238 N 0.77457 0.14316 0.98158
 C239 C 0.79065 0.17094 1.00808
 C240 C 0.82366 0.19671 0.99511
 C241 C 0.82525 0.16261 0.92912
 C242 C 0.64555 0.12911 1.02777
 C243 C 0.61255 0.15411 1.04101
 C244 C 0.65378 0.21363 1.02029
 C245 C 0.68618 0.18754 1.00807
 N246 N 0.68217 0.14610 1.01328
 H247 H 0.77894 0.11540 0.92261
 H248 H 0.77708 0.17371 1.03894
 H249 H 0.83580 0.21920 1.01616
 H250 H 0.83825 0.15862 0.89817
 H251 H 0.64239 0.09606 1.03004
 H252 H 0.58404 0.14004 1.05337
 H253 H 0.65791 0.24654 1.01685
 H254 H 0.71450 0.20066 0.99452
 C255 C 0.68921 0.03749 0.88257
 C256 C 0.77581 0.03724 1.11709
 C257 C 0.61688 0.19701 1.03804
 C258 C 0.84124 0.19261 0.95520
 C259 C 0.32405 0.57800 0.54608
 H260 H 0.33626 0.57680 0.51459
 C261 C 0.34674 0.55974 0.57859
 H262 H 0.37582 0.54387 0.57170
 C263 C 0.27315 0.60241 0.59382
 H264 H 0.24522 0.62013 0.60001
 C265 C 0.29451 0.58390 0.62726
 H266 H 0.28266 0.58753 0.65869
 N267 N 0.28811 0.59922 0.55405
 C268 C 0.19981 0.60072 0.45334
 H269 H 0.18361 0.62799 0.46315
 C270 C 0.18260 0.57774 0.42165
 H271 H 0.15275 0.58713 0.40867
 C272 C 0.25901 0.55676 0.45704
 H273 H 0.28919 0.54909 0.47013
 C274 C 0.24280 0.53276 0.42538
 H275 H 0.26070 0.50674 0.41468
 Zn276 Zn 0.26140 0.62745 0.50856
 N277 N 0.23751 0.59019 0.47033
 C278 C 0.28981 0.67305 0.43953
 N279 N 0.30155 0.65966 0.47812
 C280 C 0.34116 0.66641 0.49225
 C281 C 0.37137 0.68563 0.46630
 C282 C 0.31885 0.69234 0.41269
 C283 C 0.18397 0.64193 0.54736
 C284 C 0.14909 0.66431 0.56034
 C285 C 0.18321 0.72630 0.53441
 C286 C 0.21772 0.70265 0.52211
 N287 N 0.21736 0.66121 0.52861
 H288 H 0.25811 0.66753 0.42907
 H289 H 0.34973 0.65613 0.52330
 H290 H 0.40294 0.68957 0.47776
 H291 H 0.30898 0.70177 0.38171
 H292 H 0.18415 0.60885 0.55140
 H293 H 0.12268 0.64798 0.57435
 H294 H 0.18374 0.75921 0.52880
 H295 H 0.24445 0.71732 0.50682
 C296 C 0.20446 0.54362 0.40673
 C297 C 0.33214 0.56274 0.61979
 C298 C 0.14828 0.70711 0.55378
 C299 C 0.36053 0.69809 0.42552
 C300 C 0.80963 0.91619 0.45734
 H301 H 0.82078 0.91581 0.48909
 C302 C 0.83309 0.93611 0.42589
 H303 H 0.86208 0.95137 0.43387
 C304 C 0.75919 0.89522 0.40837
 H305 H 0.73100 0.87822 0.40150
 C306 C 0.78166 0.91506 0.37583
 H307 H 0.77031 0.91318 0.34428
 N308 N 0.77357 0.89604 0.44820
 C309 C 0.70602 0.88133 0.56690
 H310 H 0.70118 0.84845 0.56681
 C311 C 0.69071 0.90403 0.60006
 H312 H 0.67441 0.88811 0.62542
 C313 C 0.73423 0.94136 0.53400
 H314 H 0.75104 0.95577 0.50809
 C315 C 0.71964 0.96528 0.56674
 H316 H 0.72544 0.99803 0.56575
 Zn317 Zn 0.74818 0.86526 0.49292
 N318 N 0.72770 0.90007 0.53499
 C319 C 0.80515 0.83763 0.55479
 N320 N 0.79110 0.83096 0.51561
 C321 C 0.81059 0.80353 0.49065
 C322 C 0.84584 0.78176 0.50481
 C323 C 0.84042 0.81681 0.57002
 C324 C 0.66829 0.85689 0.45954
 C325 C 0.63207 0.83726 0.44597
 C326 C 0.66396 0.77199 0.46393
 C327 C 0.69974 0.79296 0.47713
 N328 N 0.70145 0.83468 0.47417
 H329 H 0.79002 0.86021 0.57389
 H330 H 0.79947 0.79945 0.45928
 H331 H 0.86142 0.76059 0.48428
 H332 H 0.85113 0.82295 0.60113
 H333 H 0.67008 0.89007 0.45846
 H334 H 0.60622 0.85577 0.43452
 H335 H 0.66332 0.73878 0.46591
 H336 H 0.72599 0.77588 0.48984
 C337 C 0.69767 0.94662 0.60043
 C338 C 0.81952 0.93540 0.38440
 C339 C 0.62967 0.79416 0.44761
 C340 C 0.86168 0.78889 0.54469
 C341 C -0.06408 0.29732 0.42382
 H342 H -0.03480 0.31391 0.42685
 C343 C -0.10099 0.31236 0.44192
 H344 H -0.09965 0.34017 0.45955
 C345 C -0.10157 0.24151 0.39618
 H346 H -0.10217 0.21458 0.37735
 C347 C -0.13903 0.25512 0.41424
 H348 H -0.16790 0.23830 0.40945
 N349 N -0.06503 0.26265 0.40116
 C350 C 0.05920 0.20733 0.38932
 H351 H 0.05855 0.20291 0.35603
 C352 C 0.09390 0.19416 0.41220
 H353 H 0.11970 0.17969 0.39603
 C354 C 0.02672 0.23349 0.44993
 H355 H 0.00061 0.24923 0.46428
 C356 C 0.06111 0.22102 0.47407
 H357 H 0.06110 0.22699 0.50710
 Zn358 Zn -0.01551 0.24700 0.37202
 N359 N 0.02675 0.22693 0.40824
 C360 C 0.04528 0.30758 0.35198
 N361 N 0.00599 0.29403 0.34279
 C362 C -0.01868 0.31515 0.31530
 C363 C -0.00372 0.35106 0.29539
 C364 C 0.06128 0.34342 0.33312
 C365 C -0.03808 0.16728 0.35443
 C366 C -0.05087 0.13430 0.33085
 C367 C -0.04281 0.17712 0.26867
 C368 C -0.03016 0.20943 0.29356
 N369 N -0.02893 0.20416 0.33571
 H370 H 0.06423 0.29104 0.37450
 H371 H -0.05016 0.30431 0.30919
 H372 H -0.02376 0.36759 0.27367
 H373 H 0.09269 0.35332 0.34081
 H374 H -0.03623 0.16382 0.38799
 H375 H -0.05817 0.10548 0.34673
 H376 H -0.04443 0.18197 0.23522
 H377 H -0.02199 0.23874 0.27919
 C378 C 0.09541 0.20131 0.45512
 C379 C -0.13919 0.29136 0.43675
 C380 C -0.05407 0.13915 0.28737
 C381 C 0.03664 0.36578 0.30452
 C382 C 1.06529 0.79337 0.07001
 H383 H 1.03665 0.80992 0.06281
 C384 C 1.10365 0.80650 0.05249
 H385 H 1.10403 0.83277 0.03120
 C386 C 1.09959 0.73974 0.10755
 H387 H 1.09842 0.71455 0.12998
 C388 C 1.13839 0.75157 0.09057
 H389 H 1.16638 0.73491 0.09985
 N390 N 1.06397 0.76062 0.09716
 C391 C 0.93783 0.70889 0.10663
 H392 H 0.93522 0.70721 0.14028
 C393 C 0.90623 0.69236 0.08245
 H394 H 0.87912 0.67857 0.09789
 C395 C 0.97655 0.72957 0.04611
 H396 H 1.00426 0.74372 0.03221
 C397 C 0.94540 0.71364 0.02061
 H398 H 0.94923 0.71581 -0.01294
 Zn399 Zn 1.01278 0.74684 0.12512
 N400 N 0.97197 0.72721 0.08829
 C401 C 0.95215 0.80695 0.14616
 N402 N 0.99270 0.79447 0.15119
 C403 C 1.02098 0.81783 0.17150
 C404 C 1.00911 0.85591 0.18677
 C405 C 0.93876 0.84445 0.16166
 C406 C 1.03204 0.66708 0.14730
 C407 C 1.04349 0.63381 0.17268
 C408 C 1.03409 0.67616 0.23285
 C409 C 1.02312 0.70898 0.20610
 N410 N 1.02322 0.70396 0.16414
 H411 H 0.93033 0.78844 0.12921
 H412 H 1.05316 0.80744 0.17456
 H413 H 1.03217 0.87465 0.20204
 H414 H 0.90667 0.85433 0.15657
 H415 H 1.03134 0.66395 0.11383
 H416 H 1.05100 0.60489 0.15853
 H417 H 1.03505 0.68056 0.26615
 H418 H 1.01552 0.73856 0.21872
 C419 C 0.90978 0.69459 0.03880
 C420 C 1.14095 0.78570 0.06320
 C421 C 1.04543 0.63835 0.21596
 C422 C 0.96762 0.86969 0.18164
 C423 C 0.52878 0.31696 0.57583
 H424 H 0.49673 0.32806 0.57751
 C425 C 0.56037 0.34224 0.55883
 H426 H 0.55232 0.37256 0.54681
 C427 C 0.57864 0.26506 0.59204
 H428 H 0.58601 0.23578 0.60668
 C429 C 0.61118 0.28915 0.57464
 H430 H 0.64318 0.27786 0.57568
 N431 N 0.53841 0.27946 0.59267
 C432 C 0.41883 0.21455 0.61127
 H433 H 0.42149 0.20818 0.64440
 C434 C 0.38369 0.20088 0.58996
 H435 H 0.35945 0.18430 0.60726
 C436 C 0.44737 0.24479 0.54924
 H437 H 0.47240 0.26181 0.53360
 C438 C 0.41255 0.23177 0.52663
 H439 H 0.41105 0.23890 0.49355
 Zn440 Zn 0.49489 0.25309 0.62430
 N441 N 0.44963 0.23624 0.59088
 C442 C 0.43555 0.30737 0.66088
 N443 N 0.47560 0.29264 0.66222
 C444 C 0.50460 0.30871 0.68802
 C445 C 0.49388 0.34104 0.71372
 C446 C 0.42353 0.33993 0.68592
 C447 C 0.53151 0.17457 0.63109
 C448 C 0.54536 0.13862 0.65132
 C449 C 0.52367 0.16693 0.71697
 C450 C 0.51076 0.20251 0.69558
 N451 N 0.51515 0.20583 0.65341
 H452 H 0.41319 0.29478 0.63952
 H453 H 0.53644 0.29693 0.68787
 H454 H 0.51767 0.35385 0.73351
 H455 H 0.39166 0.35139 0.68408
 H456 H 0.53359 0.17754 0.59747
 H457 H 0.55808 0.11403 0.63300
 H458 H 0.51987 0.16477 0.75052
 H459 H 0.49651 0.22710 0.71269
 C460 C 0.38011 0.20944 0.54700
 C461 C 0.60226 0.32870 0.55870
 C462 C 0.54144 0.13451 0.69487
 C463 C 0.45311 0.35758 0.71237
 C464 C 0.48514 0.80708 0.93602
 H465 H 0.51655 0.81952 0.93198
 C466 C 0.45519 0.82808 0.95946
 H467 H 0.46376 0.85670 0.97355
 C468 C 0.43522 0.75562 0.92090
 H469 H 0.42718 0.72788 0.90509
 C470 C 0.40431 0.77568 0.94383
 H471 H 0.37310 0.76248 0.94606
 N472 N 0.47470 0.77158 0.91727
 C473 C 0.59162 0.70826 0.88899
 H474 H 0.58597 0.70262 0.85644
 C475 C 0.62796 0.69317 0.90782
 H476 H 0.65034 0.67638 0.88925
 C477 C 0.56883 0.73737 0.95230
 H478 H 0.54536 0.75403 0.96961
 C479 C 0.60494 0.72296 0.97239
 H480 H 0.60913 0.72893 1.00512
 Zn481 Zn 0.51464 0.74672 0.88190
 N482 N 0.56310 0.73004 0.91124
 C483 C 0.56977 0.80111 0.83985
 N484 N 0.52983 0.78607 0.84005
 C485 C 0.49992 0.80260 0.81466
 C486 C 0.50964 0.83624 0.78826
 C487 C 0.58069 0.83472 0.81430
 C488 C 0.48598 0.66827 0.89042
 C489 C 0.47058 0.63005 0.87993
 C490 C 0.46709 0.65375 0.80803
 C491 C 0.48295 0.69182 0.81998
 N492 N 0.49170 0.69826 0.86072
 H493 H 0.59290 0.78834 0.86087
 H494 H 0.46813 0.79067 0.81611
 H495 H 0.48530 0.84989 0.76906
 H496 H 0.61250 0.84650 0.81518
 H497 H 0.49359 0.67420 0.92249
 H498 H 0.46622 0.60673 0.90424
 H499 H 0.46049 0.64891 0.77553
 H500 H 0.48847 0.71595 0.79681
 C501 C 0.63495 0.70037 0.95013
 C502 C 0.41396 0.81274 0.96296
 C503 C 0.46081 0.62228 0.83837
 C504 C 0.55021 0.85331 0.78879
 N505 N 0.51457 -0.13121 0.30488
 N506 N 0.53022 -0.16653 0.31903
 C507 C 0.49721 -0.19133 0.32813
 C508 C 0.46080 -0.17038 0.31856
 N509 N 0.47299 -0.13310 0.30425
 H510 H 0.42859 -0.18073 0.32233
 N511 N 1.02675 0.32568 0.81446
 N512 N 1.03385 0.29219 0.83766
 C513 C 0.99621 0.27908 0.85261
 C514 C 0.96572 0.30549 0.83769
 N515 N 0.98603 0.33409 0.81415
 H516 H 0.93261 0.30599 0.84599
 N517 N 0.01535 1.12373 0.89648
 N518 N 0.00220 1.15760 0.91430
 C519 C 0.00552 1.18816 0.88542
 C520 C 0.02124 1.17200 0.84913
 N521 N 0.02696 1.13152 0.85732
 H522 H 0.02758 1.18815 0.81986
 N523 N 0.54652 0.70291 0.25161
 N524 N 0.53241 0.73548 0.27125
 C525 C 0.52206 0.72263 0.31021
 C526 C 0.52997 0.68114 0.31388
 N527 N 0.54526 0.66987 0.27658
 H528 H 0.52601 0.66157 0.34140
 N529 N 0.47855 0.35220 0.19777
 N530 N 0.46422 0.31757 0.18246
 C531 C 0.49402 0.30394 0.15605
 C532 C 0.52712 0.33115 0.15564
 N533 N 0.51634 0.36090 0.18212
 H534 H 0.55592 0.32958 0.13747
 N535 N -0.01772 0.84176 0.70249
 N536 N -0.02861 0.80727 0.68440
 C537 C 0.00295 0.79789 0.65799
 C538 C 0.03350 0.82766 0.66042
 N539 N 0.01955 0.85467 0.68858
 H540 H 0.06303 0.82898 0.64342
 N541 N 1.02542 0.65897 0.70215
 N542 N 1.03453 0.69589 0.68622
 C543 C 1.00399 0.70555 0.65885
 C544 C 0.97590 0.67343 0.65839
 N545 N 0.99032 0.64486 0.68581
 H546 H 0.94838 0.67076 0.63908
 N547 N 0.50615 0.16372 0.20324
 N548 N 0.51973 0.19730 0.18313
 C549 C 0.48662 0.21271 0.16198
 C550 C 0.45236 0.18795 0.16990
 N551 N 0.46574 0.15776 0.19576
 H552 H 0.42116 0.19073 0.15690
 N553 N 0.27273 0.48334 -0.18222
 N554 N 0.29671 0.49602 -0.21425
 C555 C 0.33632 0.48404 -0.20550
 C556 C 0.33591 0.46407 -0.16737
 N557 N 0.29580 0.46403 -0.15364
 H558 H 0.36288 0.45224 -0.15064
 N559 N 0.88596 0.96207 0.35669
 N560 N 0.90270 0.97711 0.32162
 C561 C 0.87199 0.97813 0.29304
 C562 C 0.83561 0.96288 0.31178
 N563 N 0.84568 0.95322 0.35166
 H564 H 0.80506 0.95931 0.29780
 N565 N 0.76982 0.00617 1.18716
 N566 N 0.79437 -0.00495 1.21866
 C567 C 0.83438 0.00075 1.20546
 C568 C 0.83360 0.01550 1.16482
 N569 N 0.79276 0.01855 1.15446
 H570 H 0.86011 0.02570 1.14576
 N571 N 0.39843 0.54222 0.65128
 N572 N 0.41311 0.52678 0.68677
 C573 C 0.37984 0.52104 0.71261
 C574 C 0.34406 0.53355 0.69184
 N575 N 0.35706 0.54657 0.65356
 H576 H 0.31184 0.53243 0.70307
 N577 N 0.20290 0.48464 0.36086
 N578 N 0.18382 0.47272 0.32665
 C579 C 0.15669 0.50278 0.31572
 C580 C 0.15969 0.53342 0.34422
 N581 N 0.18879 0.52104 0.37206
 H582 H 0.14328 0.56249 0.34367
 N583 N 0.69623 -0.01902 0.83408
 N584 N 0.68078 -0.03084 0.79806
 C585 C 0.65313 -0.00181 0.78558
 C586 C 0.65214 0.02819 0.81503
 N587 N 0.67941 0.01640 0.84491
 H588 H 0.63249 0.05527 0.81516
 N589 N 0.69712 1.00813 0.64273
 N590 N 0.67908 1.02198 0.67706
 C591 C 0.65288 0.99222 0.69146
 C592 C 0.65541 0.95974 0.66499
 N593 N 0.68343 0.97070 0.63492
 H594 H 0.63824 0.93110 0.66752
 N595 N 0.19971 0.52176 0.17255
 N596 N 0.18240 0.53323 0.20819
 C597 C 0.15752 0.50203 0.22186
 C598 C 0.16015 0.47110 0.19363
 N599 N 0.18680 0.48446 0.16332
 H600 H 0.14350 0.44209 0.19462
 N601 N -0.21184 0.28477 0.46271
 N602 N -0.24243 0.30829 0.47734
 C603 C -0.22744 0.34700 0.47658
 C604 C -0.18690 0.34649 0.46124
 N605 N -0.17806 0.30716 0.45321
 H606 H -0.16593 0.37238 0.45631
 N607 N 0.38932 0.86632 1.00938
 N608 N 0.35358 0.88390 1.02086
 C609 C 0.32239 0.86368 1.00199
 C610 C 0.33998 0.83315 0.97878
 N611 N 0.38187 0.83572 0.98406
 H612 H 0.32382 0.81266 0.95831
 N613 N 1.21656 0.77778 0.05134
 N614 N 1.24928 0.79929 0.03704
 C615 C 1.23427 0.83606 0.02426
 C616 C 1.19145 0.83649 0.03091
 N617 N 1.18145 0.79950 0.04790
 H618 H 1.17014 0.86184 0.02512
 N619 N 0.63243 0.39674 0.54613
 N620 N 0.66751 0.41421 0.53182
 C621 C 0.69382 0.38368 0.52133
 C622 C 0.67371 0.34675 0.52971
 N623 N 0.63539 0.35624 0.54511
 H624 H 0.68528 0.31615 0.52409
 N625 N 0.33380 0.20948 0.48636
 N626 N 0.29879 0.19157 0.47383
 C627 C 0.28628 0.16566 0.50494
 C628 C 0.31462 0.16827 0.53689
 N629 N 0.34389 0.19596 0.52426
 H630 H 0.31400 0.15116 0.56620
 N631 N 0.87094 0.68956 -0.02630
 N632 N 0.83732 0.67083 -0.04090
 C633 C 0.82203 0.64664 -0.00958
 C634 C 0.84704 0.65120 0.02463
 N635 N 0.87722 0.67833 0.01312
 H636 H 0.84312 0.63650 0.05503
 N637 N 0.68545 0.69768 1.00699
 N638 N 0.72012 0.67782 1.01799
 C639 C 0.72891 0.65157 0.98735
 C640 C 0.69872 0.65588 0.95723
 N641 N 0.67207 0.68503 0.97053
 H642 H 0.69619 0.63881 0.92889
 N643 N 0.14129 0.20472 0.51582
 N644 N 0.17729 0.18908 0.52946
 C645 C 0.19116 0.16333 0.50015
 C646 C 0.16264 0.16359 0.46824
 N647 N 0.13189 0.18982 0.47902
 H648 H 0.16408 0.14592 0.44020
 N649 N 0.54040 0.08614 0.75429
 N650 N 0.55848 0.05139 0.76678
 C651 C 0.58508 0.04052 0.73604
 C652 C 0.58263 0.06954 0.70417
 N653 N 0.55440 0.09759 0.71673
 H654 H 0.60043 0.07058 0.67523
 N655 N 1.04958 0.59902 0.28198
 N656 N 1.06813 0.56544 0.29716
 C657 C 1.09148 0.55015 0.26586
 C658 C 1.08647 0.57499 0.23112
 N659 N 1.06007 0.60510 0.24224
 H660 H 1.10084 0.57152 0.20069
 N661 N 0.98216 0.94107 0.19755
 N662 N 0.96218 0.97409 0.21057
 C663 C 0.92153 0.96336 0.21626
 C664 C 0.91712 0.92271 0.20647
 N665 N 0.95568 0.90986 0.19489
 H666 H 0.88892 0.90410 0.20879
 N667 N 0.46734 0.40726 0.76609
 N668 N 0.45195 0.44194 0.78050
 C669 C 0.41636 0.44990 0.75939
 C670 C 0.41028 0.41899 0.73161
 N671 N 0.44287 0.39288 0.73663
 H672 H 0.38568 0.41706 0.70869
 N673 N 0.44577 0.55030 0.85412
 N674 N 0.42750 0.51825 0.83750
 C675 C 0.41474 0.53042 0.79930
 C676 C 0.42580 0.57105 0.79286
 N677 N 0.44512 0.58242 0.82797
 H678 H 0.41907 0.59054 0.76595
 N679 N -0.06602 0.10561 0.22110
 N680 N -0.08192 0.07104 0.20702
 C681 C -0.09535 0.04887 0.24060
 C682 C -0.08723 0.07082 0.27562
 N683 N -0.06871 0.10605 0.26232
 H684 H -0.09444 0.06188 0.30757
 N685 N 0.03660 0.41982 0.25028
 N686 N 0.05717 0.45399 0.23977
 C687 C 0.08687 0.45917 0.26883
 C688 C 0.08396 0.42712 0.29750
 N689 N 0.05223 0.40308 0.28484
 H690 H 0.10270 0.42234 0.32515
 N691 N 0.53947 0.90348 0.73163
 N692 N 0.55538 0.93895 0.71765
 C693 C 0.58677 0.94863 0.74358
 C694 C 0.58973 0.91809 0.77370
 N695 N 0.55988 0.89031 0.76518
 H696 H 0.61105 0.91668 0.79975
 N697 N 0.78269 0.53849 0.08362
 N698 N 0.79912 0.55784 0.05041
 C699 C 0.76852 0.58204 0.03454
 C700 C 0.73290 0.57676 0.05855
 N701 N 0.74284 0.54931 0.08880
 H702 H 0.70283 0.59190 0.05467
 N703 N 0.25632 1.05770 0.60052
 N704 N 0.26937 1.07576 0.56523
 C705 C 0.23752 1.09969 0.55165
 C706 C 0.20450 1.09568 0.57950
 N707 N 0.21738 1.06918 0.60960
 H708 H 0.17425 1.11086 0.57807
 N709 N 0.24126 0.87571 0.88387
 N710 N 0.25779 0.86036 0.91854
 C711 C 0.25073 0.88780 0.94845
 C712 C 0.22920 0.92062 0.93104
 N713 N 0.22382 0.91191 0.89050
 H714 H 0.21778 0.94744 0.94674
 N715 N 0.74114 0.48331 0.41248
 N716 N 0.75513 0.46623 0.44753
 C717 C 0.73701 0.42894 0.45129
 C718 C 0.71147 0.42358 0.41757
 N719 N 0.71481 0.45827 0.39390
 H720 H 0.69213 0.39712 0.41151
 N721 N 0.84185 0.44593 0.54567
 N722 N 0.82058 0.43249 0.51365
 C723 C 0.78353 0.41829 0.52875
 C724 C 0.78245 0.42364 0.57125
 N725 N 0.81966 0.44088 0.58056
 H726 H 0.75806 0.41420 0.59327
 N727 N 0.26129 -0.01567 0.05886
 N728 N 0.25560 -0.03811 0.02547
 C729 C 0.26126 -0.07755 0.03774
 C730 C 0.27025 -0.07866 0.07959
 N731 N 0.26998 -0.03951 0.09175
 H732 H 0.27982 -0.10503 0.09840
 N733 N 0.22417 0.05240 0.41515
 N734 N 0.21155 0.07082 0.44944
 C735 C 0.24191 0.09778 0.45898
 C736 C 0.27358 0.09531 0.42963
 N737 N 0.26144 0.06659 0.40273
 H738 H 0.30227 0.11319 0.42786
 N739 N 0.75640 0.53686 0.89931
 N740 N 0.74348 0.55605 0.93306
 C741 C 0.77395 0.58301 0.94235
 C742 C 0.80586 0.57979 0.91354
 N743 N 0.79383 0.55076 0.88704
 H744 H 0.83553 0.59608 0.91293
 N745 N 0.10308 0.76814 0.55131
 N746 N 0.06711 0.78123 0.56762
 C747 C 0.05294 0.75099 0.59357
 C748 C 0.08115 0.71908 0.59261
 N749 N 0.11204 0.73075 0.56587
 H750 H 0.07929 0.69024 0.60998
 N751 N 0.57927 0.26241 1.04097
 N752 N 0.54784 0.27932 1.06190
 C753 C 0.53307 0.25026 1.08888
 C754 C 0.55601 0.21496 1.08362
 N755 N 0.58453 0.22366 1.05341
 H756 H 0.55261 0.18598 1.10056
 N757 N 0.88137 0.25663 0.95304
 N758 N 0.91763 0.27100 0.93798
 C759 C 0.93542 0.24049 0.91634
 C760 C 0.90894 0.20708 0.91839
 N761 N 0.87565 0.21829 0.94161
 H762 H 0.91446 0.17680 0.90637
 N763 N 0.38333 0.72151 0.35626
 N764 N 0.41720 0.73552 0.33628
 C765 C 0.44799 0.73786 0.36458
 C766 C 0.43194 0.72472 0.40278
 N767 N 0.39126 0.71478 0.39630
 H768 H 0.44841 0.72267 0.43208
 N769 N 0.58553 0.73338 0.43765
 N770 N 0.55288 0.72213 0.41512
 C771 C 0.53956 0.75597 0.39414
 C772 C 0.56504 0.78823 0.40461
 N773 N 0.59352 0.77304 0.43167
 H774 H 0.56476 0.81906 0.39140
 N775 N 0.04098 0.28640 -0.00438
 N776 N 0.00922 0.26887 -0.02353
 C777 C 0.02327 0.25972 -0.06190
 C778 C 0.06460 0.27188 -0.06569
 N779 N 0.07453 0.28865 -0.02921
 H780 H 0.08439 0.27118 -0.09330
 N781 N 0.38848 0.24225 0.05727
 N782 N 0.42443 0.22886 0.07318
 C783 C 0.43992 0.25961 0.09577
 C784 C 0.41259 0.29214 0.09327
 N785 N 0.38084 0.28026 0.06893
 H786 H 0.41545 0.32138 0.10820
 N787 N 0.91561 0.73534 0.54194
 N788 N 0.95114 0.72467 0.56062
 C789 C 0.95800 0.75244 0.59019
 C790 C 0.92553 0.78041 0.58915
 N791 N 0.89956 0.76870 0.55869
 H792 H 0.92182 0.80713 0.60816
   
