data_POSCAR
  _audit_creation_date              2014-09-24
  _audit_creation_method            'ToBaCCo'
  _symmetry_space_group_name_H-M    'P1'
  _symmetry_Int_Tables_number       1
  _symmetry_cell_setting            triclinic
  loop_
  _symmetry_equiv_pos_as_xyz
 x,y,z
_cell_length_a 30.3541
_cell_length_b 30.3595
_cell_length_c 49.1790
_cell_angle_alpha 89.919000
_cell_angle_beta 91.023200
_cell_angle_gamma 89.993900
loop_
  _atom_site_label
  _atom_site_type_symbol
  _atom_site_fract_x
  _atom_site_fract_y
  _atom_site_fract_z
O1 O -0.03738 0.45710 1.02507
 O2 O -0.03524 0.54329 0.97224
 O3 O -0.03575 0.45737 0.97225
 O4 O -0.03785 0.54300 1.02509
 O5 O 0.03493 0.54312 1.02701
 O6 O 0.03702 0.45720 0.97415
 O7 O 0.03750 0.54313 0.97415
 O8 O 0.03540 0.45723 1.02697
 Cu9 Cu -0.04386 0.50022 0.99847
 Cu10 Cu 0.04352 0.50020 1.00076
 C11 C -0.00130 0.44236 1.03490
 C12 C 0.00153 0.55803 0.96426
 C13 C 0.00094 0.44251 0.96433
 C14 C -0.00186 0.55775 1.03497
 O15 O 0.45903 0.03907 0.52644
 O16 O 0.54227 0.03906 0.47274
 O17 O 0.45635 0.03960 0.47355
 O18 O 0.54492 0.03957 0.52563
 O19 O 0.54507 -0.03321 0.52568
 O20 O 0.45620 -0.03317 0.47361
 O21 O 0.54208 -0.03368 0.47281
 O22 O 0.45921 -0.03371 0.52648
 Cu23 Cu 0.50064 0.04663 0.49958
 Cu24 Cu 0.50064 -0.04074 0.49965
 C25 C 0.44486 0.00262 0.53551
 C26 C 0.55653 0.00263 0.46372
 C27 C 0.44103 0.00326 0.46482
 C28 C 0.56022 0.00322 0.53442
 C29 C 0.08177 0.00381 0.26212
 H30 H 0.08438 0.00396 0.24021
 C31 C 0.11984 0.00517 0.27848
 H32 H 0.15167 0.00626 0.26892
 C33 C 0.03687 0.00248 0.30101
 H34 H 0.00452 0.00204 0.30977
 C35 C 0.07402 0.00386 0.31813
 H36 H 0.06960 0.00400 0.33993
 N37 N 0.04136 0.00173 0.27355
 C38 C -0.04383 -0.06142 0.21274
 H39 H -0.07068 -0.03800 0.21175
 C40 C -0.04513 -0.09908 0.19648
 H41 H -0.07320 -0.10428 0.18298
 C42 C 0.02527 -0.08273 0.23165
 H43 H 0.05243 -0.07656 0.24559
 C44 C 0.02533 -0.12083 0.21578
 H45 H 0.05293 -0.14330 0.21757
 Zn46 Zn -0.00881 -0.00082 0.25010
 N47 N -0.00860 -0.05352 0.22949
 C48 C -0.00643 0.04372 0.19930
 N49 N -0.00689 0.04885 0.22676
 C50 C -0.00480 0.08953 0.23826
 C51 C -0.00363 0.12721 0.22194
 C52 C -0.00525 0.08045 0.18223
 C53 C -0.06848 -0.03553 0.28713
 C54 C -0.10584 -0.03685 0.30326
 C55 C -0.12833 0.03324 0.28430
 C56 C -0.09052 0.03320 0.26853
 N57 N -0.06109 -0.00048 0.27059
 H58 H -0.00686 0.01118 0.19050
 H59 H -0.00441 0.09266 0.26017
 H60 H -0.00245 0.15927 0.23154
 H61 H -0.00525 0.07550 0.16044
 H62 H -0.04490 -0.06224 0.28803
 H63 H -0.11062 -0.06479 0.31659
 H64 H -0.15100 0.06069 0.28259
 H65 H -0.08474 0.06023 0.25476
 C66 C -0.00999 -0.12920 0.19765
 C67 C 0.11627 0.00486 0.30693
 C68 C -0.13618 -0.00191 0.30219
 C69 C -0.00413 0.12296 0.19349
 C70 C 0.00462 0.08925 0.76188
 H71 H 0.00430 0.09231 0.73996
 C72 C 0.00340 0.12697 0.77809
 H73 H 0.00226 0.15900 0.76840
 C74 C 0.00611 0.04354 0.80096
 H75 H 0.00650 0.01102 0.80985
 C76 C 0.00488 0.08032 0.81793
 H77 H 0.00482 0.07544 0.83974
 N78 N 0.00666 0.04860 0.77349
 C79 C 0.06849 -0.03594 0.71345
 H80 H 0.04492 -0.06265 0.71259
 C81 C 0.10587 -0.03727 0.69734
 H82 H 0.11069 -0.06523 0.68408
 C83 C 0.09045 0.03285 0.73188
 H84 H 0.08463 0.05991 0.74557
 C85 C 0.12829 0.03287 0.71613
 H86 H 0.15092 0.06034 0.71777
 Zn87 Zn 0.00866 -0.00112 0.75028
 N88 N 0.06105 -0.00085 0.72989
 C89 C -0.03668 0.00222 0.69926
 N90 N -0.04136 0.00145 0.72671
 C91 C -0.08186 0.00353 0.73803
 C92 C -0.11982 0.00490 0.72156
 C93 C -0.07371 0.00362 0.68204
 C94 C 0.04345 -0.06173 0.78783
 C95 C 0.04469 -0.09944 0.80411
 C96 C -0.02564 -0.12117 0.78468
 C97 C -0.02552 -0.08302 0.76878
 N98 N 0.00832 -0.05381 0.77100
 H99 H -0.00427 0.00179 0.69059
 H100 H -0.08462 0.00366 0.75993
 H101 H -0.15172 0.00599 0.73103
 H102 H -0.06913 0.00379 0.66026
 H103 H 0.07029 -0.03831 0.78886
 H104 H 0.07270 -0.10466 0.81768
 H105 H -0.05321 -0.14366 0.78283
 H106 H -0.05260 -0.07684 0.75477
 C107 C 0.13618 -0.00230 0.69833
 C108 C 0.00381 0.12280 0.80655
 C109 C 0.00959 -0.12958 0.80288
 C110 C -0.11604 0.00462 0.69312
 N111 N -0.04292 -0.35874 0.08242
 C112 C -0.00493 -0.34182 0.09287
 N113 N 0.03411 -0.35822 0.08451
 N114 N 0.03512 -0.39052 0.06621
 C115 C -0.00288 -0.40747 0.05565
 N116 N -0.04192 -0.39104 0.06412
 C117 C -0.00605 -0.30618 0.11198
 C118 C -0.00710 -0.27582 0.12772
 C119 C -0.00838 -0.23919 0.14610
 N120 N 0.02539 -0.23182 0.16391
 N121 N 0.02468 -0.19713 0.18046
 C122 C -0.00979 -0.16852 0.17980
 N123 N -0.04361 -0.17621 0.16193
 N124 N -0.04291 -0.21090 0.14538
 N125 N -0.04108 0.35686 0.08161
 C126 C -0.00278 0.34016 0.09181
 N127 N 0.03595 0.35748 0.08361
 N128 N 0.03638 0.39043 0.06570
 C129 C -0.00191 0.40715 0.05537
 N130 N -0.04066 0.38983 0.06370
 C131 C -0.00313 0.30352 0.11027
 C132 C -0.00329 0.27220 0.12536
 C133 C -0.00339 0.23431 0.14283
 N134 N -0.00415 0.19329 0.13203
 N135 N -0.00428 0.15798 0.14814
 C136 C -0.00362 0.16237 0.17564
 N137 N -0.00283 0.20364 0.18636
 N138 N -0.00270 0.23898 0.17025
 N139 N 0.36341 -0.03677 0.58445
 C140 C 0.34666 0.00153 0.59393
 N141 N 0.36257 0.04026 0.58446
 N142 N 0.39422 0.04066 0.56602
 C143 C 0.41098 0.00234 0.55644
 N144 N 0.39505 -0.03638 0.56602
 C145 C 0.31153 0.00098 0.61307
 C146 C 0.28154 0.00023 0.62880
 C147 C 0.24526 -0.00092 0.64709
 N148 N 0.23834 0.03282 0.66453
 N149 N 0.20393 0.03218 0.68098
 C150 C 0.17518 -0.00217 0.68060
 N151 N 0.18243 -0.03594 0.66311
 N152 N 0.21682 -0.03532 0.64666
 N153 N -0.35298 0.04228 0.58171
 C154 C -0.33538 0.00389 0.59091
 N155 N -0.35245 -0.03475 0.58180
 N156 N -0.38606 -0.03501 0.56399
 C157 C -0.40368 0.00339 0.55468
 N158 N -0.38658 0.04203 0.56390
 C159 C -0.29823 0.00420 0.60936
 C160 C -0.26655 0.00452 0.62450
 C161 C -0.22832 0.00487 0.64208
 N162 N -0.23250 0.00544 0.66947
 N163 N -0.19686 0.00553 0.68570
 C164 C -0.15577 0.00508 0.67513
 N165 N -0.15187 0.00457 0.64764
 N166 N -0.18748 0.00448 0.63142
 N167 N -0.03452 -0.35946 0.91578
 C168 C 0.00451 -0.34296 0.90745
 N169 N 0.04250 -0.35991 0.91791
 N170 N 0.04152 -0.39230 0.93619
 C171 C 0.00249 -0.40885 0.94468
 N172 N -0.03552 -0.39186 0.93406
 C173 C 0.00561 -0.30718 0.88838
 C174 C 0.00665 -0.27670 0.87267
 C175 C 0.00793 -0.23992 0.85434
 N176 N -0.02578 -0.23248 0.83648
 N177 N -0.02506 -0.19767 0.81997
 C178 C 0.00936 -0.16900 0.82071
 N179 N 0.04311 -0.17676 0.83863
 N180 N 0.04240 -0.21157 0.85515
 N181 N -0.03633 0.35767 0.91576
 C182 C 0.00240 0.34031 0.90759
 N183 N 0.04071 0.35700 0.91776
 N184 N 0.04030 0.38999 0.93561
 C185 C 0.00155 0.40734 0.94390
 N186 N -0.03675 0.39064 0.93360
 C187 C 0.00275 0.30362 0.88924
 C188 C 0.00290 0.27226 0.87423
 C189 C 0.00301 0.23431 0.85688
 N190 N 0.00371 0.19332 0.86780
 N191 N 0.00385 0.15797 0.85180
 C192 C 0.00327 0.16226 0.82428
 N193 N 0.00254 0.20350 0.81344
 N194 N 0.00239 0.23889 0.82945
 N195 N -0.36297 0.04039 0.41574
 C196 C -0.34694 0.00169 0.40638
 N197 N -0.36358 -0.03663 0.41594
 N198 N -0.39523 -0.03629 0.43437
 C199 C -0.41129 0.00240 0.44390
 N200 N -0.39464 0.04075 0.43417
 C201 C -0.31177 0.00120 0.38727
 C202 C -0.28172 0.00049 0.37158
 C203 C -0.24538 -0.00061 0.35332
 N204 N -0.21688 -0.03497 0.35387
 N205 N -0.18245 -0.03555 0.33745
 C206 C -0.17522 -0.00180 0.31990
 N207 N -0.20403 0.03251 0.31941
 N208 N -0.23848 0.03311 0.33583
 N209 N 0.35403 0.04238 0.41762
 C210 C 0.33637 0.00401 0.40852
 N211 N 0.35349 -0.03465 0.41765
 N212 N 0.38720 -0.03493 0.43539
 C213 C 0.40488 0.00346 0.44460
 N214 N 0.38773 0.04212 0.43536
 C215 C 0.29909 0.00434 0.39017
 C216 C 0.26730 0.00468 0.37512
 C217 C 0.22893 0.00506 0.35765
 N218 N 0.23290 0.00565 0.33024
 N219 N 0.19714 0.00576 0.31412
 C220 C 0.15613 0.00531 0.32481
 N221 N 0.15245 0.00476 0.35231
 N222 N 0.18817 0.00465 0.36844
   
