data_POSCAR
  _audit_creation_date              2014-09-24
  _audit_creation_method            'ToBaCCo'
  _symmetry_space_group_name_H-M    'P1'
  _symmetry_Int_Tables_number       1
  _symmetry_cell_setting            triclinic
  loop_
  _symmetry_equiv_pos_as_xyz
 x,y,z
_cell_length_a 50.0351
_cell_length_b 50.2184
_cell_length_c 36.0271
_cell_angle_alpha 89.964300
_cell_angle_beta 89.991400
_cell_angle_gamma 120.165100
loop_
  _atom_site_label
  _atom_site_type_symbol
  _atom_site_fract_x
  _atom_site_fract_y
  _atom_site_fract_z
C1 C 0.07904 0.54720 0.06574
 C2 C 0.07887 0.51988 0.06548
 C3 C 0.05266 0.49898 0.04616
 N4 N 0.03664 0.51269 0.03494
 C5 C 0.05292 0.54231 0.04659
 C6 C 0.04276 0.46726 0.04221
 C7 C 0.01635 0.44630 0.02177
 C8 C 0.00198 0.41447 0.02434
 C9 C -0.02229 0.40257 -0.00029
 C10 C -0.02164 0.42743 -0.01800
 N11 N 0.00206 0.45398 -0.00442
 C12 C -0.04230 0.42547 -0.04619
 C13 C -0.04336 0.45178 -0.05817
 C14 C -0.05439 0.45440 -0.09248
 C15 C -0.05424 0.48166 -0.09218
 C16 C -0.04319 0.49484 -0.05766
 N17 N -0.03614 0.47673 -0.03693
 C18 C -0.04197 0.52212 -0.04500
 C19 C -0.02139 0.54032 -0.01643
 C20 C -0.02205 0.56423 0.00199
 C21 C 0.00235 0.57642 0.02641
 C22 C 0.01676 0.55906 0.02314
 N23 N 0.00235 0.53735 -0.00333
 C24 C 0.04330 0.56437 0.04318
 H25 H 0.09606 0.56797 0.07958
 H26 H 0.09577 0.51581 0.07907
 H27 H 0.01002 0.52322 -0.01430
 H28 H 0.00802 0.40105 0.04231
 H29 H -0.03858 0.37835 -0.00443
 H30 H -0.06190 0.43819 -0.11528
 H31 H -0.06159 0.49074 -0.11473
 H32 H 0.00843 0.59571 0.04469
 H33 H 0.00972 0.47598 -0.01478
 H34 H -0.03839 0.57215 -0.00157
 C35 C 0.44456 0.52304 0.06407
 C36 C 0.47238 0.54984 0.06663
 C37 C 0.49437 0.54393 0.05159
 N38 N 0.48080 0.51445 0.03954
 C39 C 0.45027 0.50164 0.04701
 C40 C 0.52665 0.56479 0.05226
 C41 C 0.54808 0.55984 0.03233
 C42 C 0.57985 0.57594 0.03762
 C43 C 0.59231 0.56506 0.01176
 C44 C 0.56776 0.54263 -0.00847
 N45 N 0.54096 0.53977 0.00402
 C46 C 0.57033 0.52634 -0.03879
 C47 C 0.54464 0.49977 -0.05345
 C48 C 0.54428 0.48694 -0.08759
 C49 C 0.51681 0.45978 -0.08960
 C50 C 0.50140 0.45675 -0.05643
 N51 N 0.51834 0.48142 -0.03445
 C52 C 0.47333 0.43029 -0.04576
 C53 C 0.45398 0.43166 -0.01792
 C54 C 0.42937 0.40642 -0.00094
 C55 C 0.41646 0.41772 0.02362
 C56 C 0.43400 0.44957 0.02179
 N57 N 0.45655 0.45787 -0.00390
 C58 C 0.42811 0.47010 0.04223
 H59 H 0.42279 0.51970 0.07441
 H60 H 0.47604 0.57108 0.07890
 H61 H 0.47112 0.48011 -0.01362
 H62 H 0.59275 0.59370 0.05796
 H63 H 0.61661 0.57279 0.00823
 H64 H 0.56214 0.49606 -0.10865
 H65 H 0.50917 0.44382 -0.11266
 H66 H 0.39661 0.40392 0.04108
 H67 H 0.51942 0.52706 -0.00852
 H68 H 0.42154 0.38230 -0.00546
 C69 C 0.51308 1.04929 -0.10274
 C70 C 0.53987 1.04827 -0.10223
 C71 C 0.54017 1.03469 -0.06889
 N72 N 0.51457 1.02750 -0.04884
 C73 C 0.49808 1.03672 -0.06940
 C74 C 0.56539 1.03214 -0.05597
 C75 C 0.56270 1.01178 -0.02733
 C76 C 0.58725 1.01081 -0.01098
 C77 C 0.57472 0.98676 0.01389
 C78 C 0.54284 0.97404 0.01256
 N79 N 0.53577 0.98913 -0.01315
 C80 C 0.52119 0.94833 0.03356
 C81 C 0.48966 0.93982 0.03749
 C82 C 0.46802 0.91454 0.05754
 C83 C 0.44119 0.91552 0.05707
 C84 C 0.44709 0.94143 0.03682
 N85 N 0.47686 0.95642 0.02519
 C86 C 0.42583 0.95203 0.03242
 C87 C 0.43192 0.97831 0.01141
 C88 C 0.41527 0.99350 0.01398
 C89 C 0.42811 1.01744 -0.01098
 C90 C 0.45178 1.01581 -0.02897
 N91 N 0.45383 0.99177 -0.01517
 C92 C 0.47086 1.03620 -0.05731
 H93 H 0.50565 1.05862 -0.12494
 H94 H 0.55733 1.05680 -0.12377
 H95 H 0.46755 0.98334 -0.02550
 H96 H 0.61162 1.02557 -0.01671
 H97 H 0.58780 0.97957 0.03085
 H98 H 0.47126 0.89750 0.07202
 H99 H 0.42004 0.89939 0.07112
 H100 H 0.42090 1.03425 -0.01500
 H101 H 0.51383 0.98250 -0.02312
 H102 H 0.39611 0.98828 0.03229
 C103 C 0.92263 0.45010 0.56728
 C104 C 0.92275 0.47739 0.56758
 C105 C 0.94895 0.49852 0.54840
 N106 N 0.96503 0.48498 0.53676
 C107 C 0.94878 0.45522 0.54796
 C108 C 0.95879 0.53026 0.54489
 C109 C 0.98521 0.55133 0.52449
 C110 C 0.99965 0.58315 0.52731
 C111 C 1.02388 0.59515 0.50259
 C112 C 1.02312 0.57037 0.48457
 N113 N 0.99944 0.54378 0.49806
 C114 C 1.04359 0.57246 0.45604
 C115 C 1.04458 0.54623 0.44359
 C116 C 1.05533 0.54380 0.40899
 C117 C 1.05538 0.51665 0.40891
 C118 C 1.04467 0.50332 0.44346
 N119 N 1.03768 0.52125 0.46461
 C120 C 1.04367 0.47605 0.45574
 C121 C 1.02308 0.45761 0.48421
 C122 C 1.02373 0.43357 0.50235
 C123 C 0.99935 0.42125 0.52684
 C124 C 0.98497 0.43866 0.52387
 N125 N 0.99935 0.46051 0.49755
 C126 C 0.95841 0.43322 0.54400
 H127 H 0.90560 0.42916 0.58086
 H128 H 0.90582 0.48129 0.58140
 H129 H 0.99165 0.47472 0.48686
 H130 H 0.99367 0.59650 0.54546
 H131 H 1.04019 0.61939 0.49857
 H132 H 1.06257 0.56009 0.38626
 H133 H 1.06263 0.50772 0.38609
 H134 H 0.99326 0.40187 0.54499
 H135 H 0.99172 0.52186 0.48741
 H136 H 1.04007 0.42567 0.49857
 C137 C 0.52690 0.45681 0.57950
 C138 C 0.55407 0.48436 0.58006
 C139 C 0.54910 0.50508 0.56004
 N140 N 0.51954 0.49105 0.54774
 C141 C 0.50601 0.46136 0.55912
 C142 C 0.57131 0.53674 0.55549
 C143 C 0.56608 0.55761 0.53473
 C144 C 0.58452 0.58944 0.53590
 C145 C 0.57237 0.60117 0.51079
 C146 C 0.54714 0.57619 0.49452
 N147 N 0.54362 0.54977 0.50909
 C148 C 0.52917 0.57818 0.46554
 C149 C 0.50138 0.55267 0.45278
 C150 C 0.48635 0.55231 0.42030
 C151 C 0.45927 0.52466 0.41949
 C152 C 0.45858 0.50902 0.45154
 N153 N 0.48437 0.52618 0.47184
 C154 C 0.43325 0.48051 0.46287
 C155 C 0.43515 0.46230 0.49157
 C156 C 0.41011 0.43640 0.50673
 C157 C 0.42182 0.42434 0.53197
 C158 C 0.45369 0.44350 0.53204
 N159 N 0.46159 0.46632 0.50697
 C160 C 0.47460 0.43863 0.55341
 H161 H 0.52295 0.43599 0.59330
 H162 H 0.57487 0.48866 0.59436
 H163 H 0.48385 0.48167 0.49796
 H164 H 0.60473 0.60296 0.55292
 H165 H 0.58140 0.62533 0.50487
 H166 H 0.49402 0.57020 0.39944
 H167 H 0.44194 0.51704 0.39788
 H168 H 0.40825 0.40373 0.54825
 H169 H 0.52895 0.52770 0.49921
 H170 H 0.38592 0.42690 0.50002
 C171 C 0.44022 -0.08553 0.44337
 C172 C 0.46812 -0.08419 0.44126
 C173 C 0.49030 -0.05494 0.45265
 N174 N 0.47663 -0.03868 0.46282
 C175 C 0.44584 -0.05737 0.45730
 C176 C 0.52273 -0.04296 0.45039
 C177 C 0.54399 -0.01693 0.47134
 C178 C 0.57570 0.00010 0.46533
 C179 C 0.58780 0.02279 0.49193
 C180 C 0.56314 0.01944 0.51297
 N181 N 0.53657 -0.00491 0.50050
 C182 C 0.56561 0.03833 0.54326
 C183 C 0.54022 0.04029 0.55695
 C184 C 0.54057 0.05562 0.58909
 C185 C 0.51327 0.05578 0.58984
 C186 C 0.49712 0.04046 0.55819
 N187 N 0.51360 0.03095 0.53814
 C188 C 0.46909 0.03817 0.54652
 C189 C 0.45050 0.01810 0.51801
 C190 C 0.42534 0.01818 0.50209
 C191 C 0.41233 -0.00612 0.47764
 C192 C 0.43028 -0.02010 0.47870
 N193 N 0.45319 -0.00537 0.50384
 C194 C 0.42367 -0.04763 0.46004
 H195 H 0.41863 -0.10503 0.43452
 H196 H 0.47173 -0.10251 0.43145
 H197 H 0.46758 -0.01309 0.51393
 H198 H 0.58883 -0.00313 0.44373
 H199 H 0.61192 0.04018 0.49492
 H200 H 0.55892 0.06622 0.60942
 H201 H 0.50633 0.06644 0.61093
 H202 H 0.39154 -0.01298 0.46177
 H203 H 0.51497 -0.01428 0.51311
 H204 H 0.41676 0.03365 0.50808
 O205 O 0.17716 0.40529 0.21955
 O206 O 0.23284 0.41120 0.29106
 O207 O 0.18040 0.41137 0.29130
 O208 O 0.23010 0.40549 0.21934
 O209 O 0.25513 0.45615 0.21314
 O210 O 0.20610 0.46188 0.28435
 O211 O 0.25767 0.46184 0.28511
 O212 O 0.20357 0.45588 0.21265
 Cu213 Cu 0.20253 0.40317 0.25586
 Cu214 Cu 0.23318 0.46397 0.24822
 C215 C 0.18101 0.42970 0.20404
 C216 C 0.25469 0.43768 0.30032
 C217 C 0.18488 0.43785 0.29998
 C218 C 0.25112 0.42998 0.20418
 O219 O 0.59110 0.82463 0.28255
 O220 O 0.59332 0.76950 0.21609
 O221 O 0.59176 0.82130 0.21091
 O222 O 0.59134 0.77265 0.28812
 O223 O 0.54039 0.74961 0.28960
 O224 O 0.54108 0.79174 0.20596
 O225 O 0.54239 0.74130 0.21941
 O226 O 0.54032 0.80051 0.27619
 Cu227 Cu 0.59712 0.79964 0.24941
 Cu228 Cu 0.53594 0.76813 0.24760
 C229 C 0.56517 0.82253 0.28926
 C230 C 0.56811 0.74529 0.20794
 C231 C 0.56635 0.81477 0.19545
 C232 C 0.56559 0.75300 0.30230
 O233 O 0.17783 0.76872 0.28375
 O234 O 0.22672 0.82196 0.20958
 O235 O 0.17518 0.76766 0.21175
 O236 O 0.22903 0.82219 0.28151
 O237 O 0.25541 0.79770 0.28020
 O238 O 0.20360 0.74538 0.20855
 O239 O 0.25390 0.79829 0.20786
 O240 O 0.20504 0.74523 0.28057
 Cu241 Cu 0.19941 0.79753 0.24668
 Cu242 Cu 0.23224 0.76936 0.24401
 C243 C 0.18321 0.74781 0.29474
 C244 C 0.24881 0.81923 0.19649
 C245 C 0.18027 0.74718 0.19849
 C246 C 0.25118 0.81884 0.29295
 O247 O 0.82621 0.59604 0.72072
 O248 O 0.77174 0.59162 0.79328
 O249 O 0.82343 0.59023 0.79246
 O250 O 0.77409 0.59782 0.72167
 O251 O 0.74795 0.54719 0.71527
 O252 O 0.79659 0.53975 0.78554
 O253 O 0.74571 0.54103 0.78706
 O254 O 0.79863 0.54552 0.71382
 Cu255 Cu 0.80160 0.59910 0.75749
 Cu256 Cu 0.76956 0.53836 0.74977
 C257 C 0.82166 0.57139 0.70517
 C258 C 0.74946 0.56536 0.80258
 C259 C 0.81828 0.56350 0.80103
 C260 C 0.75245 0.57364 0.70677
 O261 O 0.40950 0.23286 0.71409
 O262 O 0.41308 0.18021 0.78329
 O263 O 0.41274 0.23232 0.78593
 O264 O 0.41006 0.18036 0.71117
 O265 O 0.46102 0.20687 0.70796
 O266 O 0.46366 0.25783 0.78192
 O267 O 0.46399 0.20662 0.77971
 O268 O 0.46048 0.25792 0.71006
 Cu269 Cu 0.40614 0.20377 0.74882
 Cu270 Cu 0.46733 0.23488 0.74457
 C271 C 0.43452 0.25447 0.70059
 C272 C 0.43936 0.18458 0.79330
 C273 C 0.43891 0.25407 0.79653
 C274 C 0.43529 0.18475 0.69712
 O275 O 0.76906 0.17749 0.70782
 O276 O 0.81937 0.22870 0.78309
 O277 O 0.76707 0.17590 0.78000
 O278 O 0.82233 0.23002 0.71102
 O279 O 0.79592 0.25446 0.70891
 O280 O 0.74235 0.20200 0.77923
 O281 O 0.79368 0.25376 0.78086
 O282 O 0.74405 0.20329 0.70719
 Cu283 Cu 0.79704 0.20044 0.74550
 Cu284 Cu 0.76647 0.23088 0.74392
 C285 C 0.74779 0.18173 0.69494
 C286 C 0.81495 0.25012 0.79466
 C287 C 0.74534 0.17992 0.79146
 C288 C 0.81846 0.25146 0.69839
 C289 C 0.09788 0.44027 0.10462
 C290 C 0.06775 0.43098 0.11675
 C291 C 0.04924 0.43887 0.09552
 C292 C 0.06057 0.45532 0.06214
 C293 C 0.09024 0.46321 0.04949
 C294 C 0.10928 0.45631 0.07104
 C295 C 0.11844 0.43458 0.12847
 C296 C 0.14935 0.44619 0.11778
 C297 C 0.16956 0.44325 0.14213
 C298 C 0.15880 0.42826 0.17643
 C299 C 0.12748 0.41540 0.18605
 C300 C 0.10726 0.41909 0.16243
 C301 C 0.13993 0.46631 0.06051
 C302 C 0.15971 0.46154 0.08364
 C303 C 0.05719 0.41500 0.15051
 C304 C 0.07655 0.40895 0.17283
 H305 H 0.14896 0.47870 0.03468
 H306 H 0.18345 0.47041 0.07501
 H307 H 0.03394 0.40755 0.16004
 H308 H 0.06766 0.39701 0.19895
 H309 H 0.02646 0.43307 0.10531
 H310 H 0.09896 0.47618 0.02393
 H311 H 0.19379 0.45326 0.13496
 H312 H 0.11945 0.40437 0.21285
 C313 C 0.55427 0.64376 0.12119
 C314 C 0.53926 0.61420 0.13708
 C315 C 0.53191 0.58867 0.11470
 C316 C 0.53844 0.59242 0.07646
 C317 C 0.55426 0.62222 0.06105
 C318 C 0.56230 0.64807 0.08340
 C319 C 0.56043 0.67053 0.14419
 C320 C 0.57486 0.70010 0.12822
 C321 C 0.57915 0.72526 0.14984
 C322 C 0.56812 0.72050 0.18653
 C323 C 0.55424 0.69091 0.20225
 C324 C 0.55052 0.66583 0.18131
 C325 C 0.57727 0.67804 0.06858
 C326 C 0.58357 0.70362 0.09065
 C327 C 0.53082 0.61064 0.17471
 C328 C 0.53621 0.63602 0.19642
 H329 H 0.58373 0.68169 0.03952
 H330 H 0.59472 0.72626 0.07797
 H331 H 0.51927 0.58794 0.18724
 H332 H 0.52867 0.63221 0.22511
 H333 H 0.51987 0.56570 0.12653
 H334 H 0.55932 0.62506 0.03158
 H335 H 0.58952 0.74809 0.13773
 H336 H 0.54579 0.68742 0.23059
 C337 C 0.34335 0.89959 0.09587
 C338 C 0.34710 0.88773 0.06220
 C339 C 0.37326 0.90593 0.04036
 C340 C 0.39602 0.93523 0.05271
 C341 C 0.39177 0.94703 0.08619
 C342 C 0.36525 0.92935 0.10779
 C343 C 0.31686 0.87986 0.12003
 C344 C 0.31348 0.89144 0.15414
 C345 C 0.28935 0.87192 0.17806
 C346 C 0.26964 0.84091 0.16850
 C347 C 0.27293 0.82975 0.13407
 C348 C 0.29637 0.84926 0.10947
 C349 C 0.36074 0.94035 0.14170
 C350 C 0.33517 0.92178 0.16437
 C351 C 0.32535 0.85745 0.05186
 C352 C 0.30053 0.83845 0.07523
 H353 H 0.37738 0.96333 0.15109
 H354 H 0.33284 0.93096 0.19061
 H355 H 0.32802 0.84807 0.02596
 H356 H 0.28477 0.81495 0.06672
 H357 H 0.37685 0.89681 0.01475
 H358 H 0.40952 0.96950 0.09578
 H359 H 0.28709 0.88021 0.20501
 H360 H 0.25783 0.80570 0.12706
 C361 C 0.90384 0.55785 0.60697
 C362 C 0.89225 0.54135 0.57375
 C363 C 0.91113 0.53405 0.55244
 C364 C 0.94086 0.54203 0.56496
 C365 C 0.95231 0.55881 0.59810
 C366 C 0.93397 0.56711 0.61906
 C367 C 0.88354 0.56423 0.63043
 C368 C 0.89495 0.58032 0.66397
 C369 C 0.87500 0.58478 0.68720
 C370 C 0.84368 0.57212 0.67766
 C371 C 0.83270 0.55649 0.64378
 C372 C 0.85265 0.55278 0.61979
 C373 C 0.94474 0.58361 0.65243
 C374 C 0.92564 0.59030 0.67436
 C375 C 0.86161 0.53144 0.56326
 C376 C 0.84207 0.53684 0.58605
 H377 H 0.96799 0.59104 0.66194
 H378 H 0.93470 0.60268 0.70017
 H379 H 0.85242 0.51869 0.53772
 H380 H 0.81834 0.52807 0.57745
 H381 H 0.90229 0.52085 0.52708
 H382 H 0.97513 0.56470 0.60784
 H383 H 0.88323 0.59627 0.71369
 H384 H 0.80848 0.54659 0.63666
 C385 C 0.44789 0.35365 0.60925
 C386 C 0.46632 0.36142 0.57719
 C387 C 0.47336 0.38839 0.55785
 C388 C 0.46316 0.40808 0.57123
 C389 C 0.44444 0.39987 0.60313
 C390 C 0.43644 0.37242 0.62209
 C391 C 0.44173 0.32612 0.63075
 C392 C 0.42371 0.31856 0.66316
 C393 C 0.41938 0.29333 0.68462
 C394 C 0.43403 0.27674 0.67455
 C395 C 0.45160 0.28428 0.64177
 C396 C 0.45526 0.30878 0.61948
 C397 C 0.41806 0.36382 0.65426
 C398 C 0.41162 0.33722 0.67429
 C399 C 0.47833 0.34274 0.56594
 C400 C 0.47309 0.31699 0.58691
 H401 H 0.40894 0.37799 0.66433
 H402 H 0.39773 0.33168 0.69925
 H403 H 0.49257 0.34853 0.54127
 H404 H 0.48348 0.30366 0.57783
 H405 H 0.48801 0.39496 0.53344
 H406 H 0.43681 0.41522 0.61352
 H407 H 0.40634 0.28783 0.71030
 H408 H 0.46301 0.27154 0.63423
 C409 C 0.65103 0.10006 0.59674
 C410 C 0.63596 0.11188 0.57518
 C411 C 0.60894 0.09149 0.55611
 C412 C 0.59660 0.05951 0.55917
 C413 C 0.61247 0.04793 0.57973
 C414 C 0.63974 0.06821 0.59881
 C415 C 0.67818 0.12134 0.61906
 C416 C 0.69260 0.10954 0.64186
 C417 C 0.71706 0.12974 0.66508
 C418 C 0.72630 0.16125 0.66615
 C419 C 0.71227 0.17275 0.64214
 C420 C 0.68821 0.15294 0.61858
 C421 C 0.65532 0.05732 0.62107
 C422 C 0.68132 0.07763 0.64216
 C423 C 0.64747 0.14378 0.57432
 C424 C 0.67314 0.16397 0.59574
 H425 H 0.64695 0.03284 0.62281
 H426 H 0.69222 0.06819 0.65955
 H427 H 0.63608 0.15314 0.55769
 H428 H 0.68081 0.18835 0.59504
 H429 H 0.59667 0.10031 0.54016
 H430 H 0.60287 0.02325 0.58203
 H431 H 0.72759 0.12074 0.68378
 H432 H 0.71942 0.19703 0.64273
 C433 C 0.45371 0.10088 0.88888
 C434 C 0.48285 0.11042 0.90440
 C435 C 0.48772 0.08909 0.92368
 C436 C 0.46399 0.05803 0.92704
 C437 C 0.43442 0.04914 0.91255
 C438 C 0.42927 0.07049 0.89315
 C439 C 0.44913 0.12289 0.86652
 C440 C 0.42031 0.11323 0.84986
 C441 C 0.41662 0.13389 0.82701
 C442 C 0.44176 0.16372 0.82037
 C443 C 0.47021 0.17314 0.83810
 C444 C 0.47404 0.15286 0.86112
 C445 C 0.40053 0.06185 0.87677
 C446 C 0.39612 0.08285 0.85554
 C447 C 0.50692 0.14088 0.89935
 C448 C 0.50260 0.16175 0.87801
 H449 H 0.38143 0.03851 0.87986
 H450 H 0.37374 0.07508 0.84293
 H451 H 0.52948 0.14847 0.91135
 H452 H 0.52193 0.18487 0.87416
 H453 H 0.51032 0.09650 0.93554
 H454 H 0.41603 0.02533 0.91446
 H455 H 0.39468 0.12641 0.81335
 H456 H 0.48962 0.19610 0.83341
 C457 C 0.65407 0.54872 0.90454
 C458 C 0.64476 0.57086 0.90620
 C459 C 0.61821 0.56433 0.92663
 C460 C 0.60120 0.53589 0.94504
 C461 C 0.61177 0.51470 0.94462
 C462 C 0.63790 0.52076 0.92394
 C463 C 0.68026 0.55422 0.88057
 C464 C 0.68821 0.53120 0.87719
 C465 C 0.71159 0.53552 0.85238
 C466 C 0.72718 0.56270 0.83124
 C467 C 0.71982 0.58613 0.83596
 C468 C 0.69596 0.58178 0.86026
 C469 C 0.64731 0.49880 0.92093
 C470 C 0.67199 0.50389 0.89783
 C471 C 0.66147 0.59846 0.88614
 C472 C 0.68672 0.60388 0.86369
 H473 H 0.63500 0.47717 0.93583
 H474 H 0.67806 0.48606 0.89558
 H475 H 0.65465 0.61578 0.88727
 H476 H 0.69863 0.62525 0.84822
 H477 H 0.60994 0.58057 0.92685
 H478 H 0.59860 0.49280 0.95883
 H479 H 0.71733 0.51751 0.84901
 H480 H 0.73160 0.60699 0.81951
 C481 C 0.89500 0.34416 0.89720
 C482 C 0.88456 0.36268 0.91340
 C483 C 0.90523 0.38863 0.93367
 C484 C 0.93650 0.39670 0.93762
 C485 C 0.94626 0.37697 0.92266
 C486 C 0.92562 0.35083 0.90198
 C487 C 0.87380 0.31815 0.87337
 C488 C 0.88447 0.30034 0.85563
 C489 C 0.86468 0.27685 0.83105
 C490 C 0.83475 0.27173 0.82389
 C491 C 0.82425 0.28921 0.84296
 C492 C 0.84365 0.31248 0.86752
 C493 C 0.93522 0.33194 0.88466
 C494 C 0.91501 0.30715 0.86190
 C495 C 0.85390 0.35560 0.90789
 C496 C 0.83377 0.33089 0.88532
 H497 H 0.95874 0.33673 0.88811
 H498 H 0.92357 0.29358 0.84851
 H499 H 0.84561 0.36970 0.92045
 H500 H 0.81048 0.32659 0.88111
 H501 H 0.89720 0.40314 0.94577
 H502 H 0.97027 0.38302 0.92494
 H503 H 0.87298 0.26358 0.81638
 H504 H 0.80118 0.28527 0.83791
 C505 C 0.54916 0.90824 0.37792
 C506 C 0.56347 0.91725 0.41280
 C507 C 0.55577 0.93467 0.43643
 C508 C 0.53376 0.94289 0.42533
 C509 C 0.52118 0.93503 0.38922
 C510 C 0.52826 0.91728 0.36582
 C511 C 0.55516 0.88789 0.35421
 C512 C 0.53937 0.87753 0.32034
 C513 C 0.54342 0.85656 0.29910
 C514 C 0.56340 0.84627 0.31114
 C515 C 0.58014 0.85774 0.34435
 C516 C 0.57564 0.87825 0.36643
 C517 C 0.51389 0.90743 0.33108
 C518 C 0.51922 0.88773 0.30879
 C519 C 0.58426 0.90763 0.42383
 C520 C 0.59037 0.88861 0.40096
 H521 H 0.49777 0.91437 0.32148
 H522 H 0.50712 0.88004 0.28256
 H523 H 0.59558 0.91450 0.45060
 H524 H 0.60623 0.88141 0.41075
 H525 H 0.56550 0.94022 0.46414
 H526 H 0.50507 0.94206 0.37974
 H527 H 0.53082 0.84796 0.27327
 H528 H 0.59546 0.84968 0.35364
 C529 C 0.35059 0.45632 0.40240
 C530 C 0.36233 0.43611 0.40193
 C531 C 0.38872 0.44330 0.42305
 C532 C 0.40300 0.47034 0.44455
 C533 C 0.39002 0.48951 0.44606
 C534 C 0.36416 0.48293 0.42453
 C535 C 0.32443 0.45025 0.37807
 C536 C 0.31404 0.47153 0.37688
 C537 C 0.29062 0.46679 0.35191
 C538 C 0.27730 0.44078 0.32866
 C539 C 0.28709 0.41901 0.33111
 C540 C 0.31111 0.42393 0.35540
 C541 C 0.35237 0.50307 0.42358
 C542 C 0.32782 0.49755 0.39999
 C543 C 0.34808 0.40974 0.37936
 C544 C 0.32279 0.40366 0.35665
 H545 H 0.36268 0.52366 0.44056
 H546 H 0.31986 0.51402 0.39945
 H547 H 0.35681 0.39390 0.37884
 H548 H 0.31274 0.38328 0.33931
 H549 H 0.39880 0.42861 0.42182
 H550 H 0.40108 0.51033 0.46266
 H551 H 0.28297 0.48349 0.35020
 H552 H 0.27704 0.39911 0.31295
 C553 C 0.10520 0.65360 0.39846
 C554 C 0.07468 0.64694 0.40422
 C555 C 0.05445 0.62089 0.42528
 C556 C 0.06453 0.60126 0.43975
 C557 C 0.09575 0.60939 0.43498
 C558 C 0.11599 0.63521 0.41418
 C559 C 0.12587 0.67943 0.37408
 C560 C 0.15588 0.68506 0.36715
 C561 C 0.17477 0.70824 0.34214
 C562 C 0.16388 0.72572 0.32383
 C563 C 0.13409 0.72057 0.33200
 C564 C 0.11482 0.69716 0.35694
 C565 C 0.14652 0.64224 0.40762
 C566 C 0.16615 0.66677 0.38446
 C567 C 0.06470 0.66573 0.38742
 C568 C 0.08443 0.69042 0.36422
 H569 H 0.15507 0.62821 0.41979
 H570 H 0.18933 0.67103 0.37944
 H571 H 0.04126 0.66094 0.39165
 H572 H 0.07562 0.70394 0.35129
 H573 H 0.03046 0.61478 0.42820
 H574 H 0.10402 0.59494 0.44670
 H575 H 0.19775 0.71222 0.33630
 H576 H 0.12552 0.73387 0.31794
 C577 C 0.89673 0.54330 0.89945
 C578 C 0.88584 0.51365 0.91381
 C579 C 0.90601 0.50742 0.93375
 C580 C 0.93726 0.53032 0.93894
 C581 C 0.94749 0.56040 0.92555
 C582 C 0.92732 0.56692 0.90552
 C583 C 0.87603 0.54934 0.87633
 C584 C 0.88709 0.57870 0.86079
 C585 C 0.86770 0.58380 0.83722
 C586 C 0.83777 0.55953 0.82874
 C587 C 0.82692 0.53049 0.84534
 C588 C 0.84590 0.52526 0.86908
 C589 C 0.93736 0.59622 0.89021
 C590 C 0.91758 0.60202 0.86829
 C591 C 0.85524 0.49043 0.90693
 C592 C 0.83560 0.49613 0.88487
 H593 H 0.96087 0.61469 0.89470
 H594 H 0.92642 0.62480 0.85656
 H595 H 0.84661 0.46747 0.91803
 H596 H 0.81235 0.47743 0.87959
 H597 H 0.89757 0.48441 0.94468
 H598 H 0.97151 0.57816 0.92869
 H599 H 0.87626 0.60619 0.82443
 H600 H 0.80384 0.51176 0.83922
 C601 C 0.45421 0.34906 0.89755
 C602 C 0.48323 0.36744 0.91402
 C603 C 0.48873 0.39344 0.93418
 C604 C 0.46574 0.40176 0.93756
 C605 C 0.43622 0.38225 0.92212
 C606 C 0.43046 0.35599 0.90176
 C607 C 0.44911 0.32285 0.87411
 C608 C 0.42050 0.30505 0.85632
 C609 C 0.41650 0.28130 0.83221
 C610 C 0.44115 0.27594 0.82543
 C611 C 0.46929 0.29344 0.84444
 C612 C 0.47343 0.31693 0.86870
 C613 C 0.40185 0.33716 0.88434
 C614 C 0.39695 0.31212 0.86204
 C615 C 0.50663 0.36011 0.90900
 C616 C 0.50182 0.33528 0.88665
 H617 H 0.38328 0.34216 0.88740
 H618 H 0.37475 0.29856 0.84857
 H619 H 0.52907 0.37412 0.92176
 H620 H 0.52067 0.33079 0.88279
 H621 H 0.51124 0.40771 0.94676
 H622 H 0.41841 0.38847 0.92402
 H623 H 0.39483 0.26801 0.81751
 H624 H 0.48829 0.28930 0.83961
 C625 C 0.64921 0.09556 0.88898
 C626 C 0.63883 0.06389 0.88663
 C627 C 0.61218 0.04295 0.90630
 C628 C 0.59622 0.05374 0.92803
 C629 C 0.60780 0.08560 0.93143
 C630 C 0.63399 0.10660 0.91154
 C631 C 0.67555 0.11747 0.86602
 C632 C 0.68456 0.14885 0.86670
 C633 C 0.70810 0.16927 0.84292
 C634 C 0.72281 0.15861 0.81882
 C635 C 0.71440 0.12731 0.81944
 C636 C 0.69035 0.10648 0.84265
 C637 C 0.64444 0.13829 0.91251
 C638 C 0.66924 0.15907 0.89034
 C639 C 0.65464 0.05382 0.86353
 C640 C 0.68005 0.07477 0.84205
 H641 H 0.63285 0.14701 0.92987
 H642 H 0.67613 0.18325 0.89123
 H643 H 0.64699 0.02950 0.86155
 H644 H 0.69127 0.06598 0.82418
 H645 H 0.60309 0.01838 0.90354
 H646 H 0.59537 0.09380 0.94813
 H647 H 0.71467 0.19340 0.84269
 H648 H 0.72553 0.11898 0.80069
 C649 C 0.10563 0.45610 0.39944
 C650 C 0.11618 0.48562 0.41400
 C651 C 0.09581 0.49141 0.43418
 C652 C 0.06466 0.46821 0.43945
 C653 C 0.05479 0.43826 0.42586
 C654 C 0.07518 0.43219 0.40556
 C655 C 0.12655 0.45053 0.37607
 C656 C 0.11583 0.42131 0.36032
 C657 C 0.13542 0.41666 0.33652
 C658 C 0.16520 0.44125 0.32802
 C659 C 0.17571 0.47012 0.34485
 C660 C 0.15653 0.47491 0.36881
 C661 C 0.06548 0.40304 0.39003
 C662 C 0.08546 0.39769 0.36786
 C663 C 0.14665 0.50915 0.40708
 C664 C 0.16649 0.50389 0.38481
 H665 H 0.04209 0.38434 0.39454
 H666 H 0.07687 0.37501 0.35597
 H667 H 0.15503 0.53200 0.41834
 H668 H 0.18963 0.52282 0.37952
 H669 H 0.10401 0.51432 0.44523
 H670 H 0.03086 0.42027 0.42904
 H671 H 0.12711 0.39440 0.32354
 H672 H 0.19866 0.48910 0.33873
 C673 C 0.55183 0.66099 0.40708
 C674 C 0.52522 0.64681 0.42939
 C675 C 0.51913 0.62088 0.45035
 C676 C 0.53891 0.60859 0.44823
 C677 C 0.56602 0.62357 0.42673
 C678 C 0.57261 0.64988 0.40601
 C679 C 0.55714 0.68691 0.38289
 C680 C 0.58318 0.70048 0.35959
 C681 C 0.58700 0.72376 0.33483
 C682 C 0.56446 0.73265 0.33257
 C683 C 0.53896 0.71940 0.35685
 C684 C 0.53523 0.69657 0.38215
 C685 C 0.59883 0.66458 0.38307
 C686 C 0.60409 0.68953 0.36037
 C687 C 0.50451 0.65797 0.42902
 C688 C 0.50936 0.68237 0.40567
 H689 H 0.61511 0.65635 0.38210
 H690 H 0.62428 0.69981 0.34256
 H691 H 0.48394 0.64722 0.44618
 H692 H 0.49240 0.68976 0.40548
 H693 H 0.49823 0.60923 0.46690
 H694 H 0.58114 0.61397 0.42501
 H695 H 0.60648 0.73363 0.31589
 H696 H 0.52159 0.72622 0.35527
 C697 C 0.34363 0.89848 0.39665
 C698 C 0.34916 0.88573 0.42840
 C699 C 0.37454 0.90444 0.45105
 C700 C 0.39526 0.93529 0.44115
 C701 C 0.38879 0.94795 0.40979
 C702 C 0.36289 0.92967 0.38756
 C703 C 0.31814 0.87844 0.37146
 C704 C 0.31288 0.89107 0.33935
 C705 C 0.28954 0.87159 0.31456
 C706 C 0.27256 0.83970 0.32118
 C707 C 0.27787 0.82741 0.35354
 C708 C 0.30042 0.84677 0.37908
 C709 C 0.35659 0.94159 0.35556
 C710 C 0.33186 0.92267 0.33201
 C711 C 0.33004 0.85419 0.43593
 C712 C 0.30623 0.83498 0.41152
 H713 H 0.37119 0.96565 0.34835
 H714 H 0.32808 0.93269 0.30735
 H715 H 0.33409 0.84410 0.46034
 H716 H 0.29256 0.81063 0.41782
 H717 H 0.37915 0.89467 0.47541
 H718 H 0.40476 0.97155 0.40168
 H719 H 0.28563 0.88088 0.28929
 H720 H 0.26470 0.80278 0.35846
 C721 C 0.54857 0.89346 0.09618
 C722 C 0.52986 0.88087 0.06465
 C723 C 0.52232 0.89948 0.04318
 C724 C 0.53225 0.92997 0.05404
 C725 C 0.55097 0.94226 0.08570
 C726 C 0.55961 0.92421 0.10660
 C727 C 0.55568 0.87372 0.11962
 C728 C 0.57425 0.88627 0.15126
 C729 C 0.57969 0.86705 0.17445
 C730 C 0.56555 0.83534 0.16700
 C731 C 0.54727 0.82310 0.13503
 C732 C 0.54260 0.84234 0.11088
 C733 C 0.57841 0.93603 0.13820
 C734 C 0.58582 0.91745 0.15999
 C735 C 0.51825 0.84969 0.05596
 C736 C 0.52427 0.83067 0.07888
 H737 H 0.58721 0.95976 0.14638
 H738 H 0.60009 0.92737 0.18439
 H739 H 0.50376 0.83971 0.03174
 H740 H 0.51421 0.80656 0.07171
 H741 H 0.50767 0.89000 0.01896
 H742 H 0.55838 0.96567 0.09420
 H743 H 0.59319 0.87630 0.19957
 H744 H 0.53619 0.79860 0.12953
 C745 C 0.34537 0.44189 0.10447
 C746 C 0.36644 0.43299 0.11653
 C747 C 0.39299 0.44127 0.09527
 C748 C 0.39812 0.45780 0.06197
 C749 C 0.37610 0.46528 0.04937
 C750 C 0.34995 0.45794 0.07094
 C751 C 0.31893 0.43576 0.12837
 C752 C 0.29937 0.44695 0.11775
 C753 C 0.27606 0.44362 0.14215
 C754 C 0.27192 0.42868 0.17645
 C755 C 0.29065 0.41624 0.18600
 C756 C 0.31471 0.42029 0.16231
 C757 C 0.32904 0.46752 0.06049
 C758 C 0.30431 0.46233 0.08365
 C759 C 0.36109 0.41700 0.15025
 C760 C 0.33554 0.41056 0.17263
 H761 H 0.33233 0.47992 0.03471
 H762 H 0.28924 0.47088 0.07507
 H763 H 0.37708 0.40985 0.15973
 H764 H 0.33257 0.39865 0.19873
 H765 H 0.41014 0.43575 0.10502
 H766 H 0.38030 0.47828 0.02386
 H767 H 0.26167 0.45335 0.13504
 H768 H 0.28776 0.40527 0.21281
 C769 C 0.09871 0.64768 0.10390
 C770 C 0.06862 0.62696 0.11631
 C771 C 0.05024 0.59996 0.09598
 C772 C 0.06155 0.59416 0.06302
 C773 C 0.09131 0.61568 0.05026
 C774 C 0.11026 0.64222 0.07101
 C775 C 0.11896 0.67495 0.12658
 C776 C 0.14978 0.69438 0.11559
 C777 C 0.16961 0.71886 0.13873
 C778 C 0.15852 0.72435 0.17202
 C779 C 0.12729 0.70556 0.18192
 C780 C 0.10750 0.68034 0.15962
 C781 C 0.14086 0.66285 0.06020
 C782 C 0.16037 0.68835 0.08228
 C783 C 0.05786 0.63332 0.14927
 C784 C 0.07689 0.65969 0.17040
 H785 H 0.15003 0.65884 0.03491
 H786 H 0.18404 0.70327 0.07342
 H787 H 0.03464 0.61762 0.15902
 H788 H 0.06779 0.66354 0.19586
 H789 H 0.02742 0.58319 0.10595
 H790 H 0.10006 0.61097 0.02506
 H791 H 0.19375 0.73332 0.13132
 H792 H 0.11898 0.70952 0.20797
 C793 C 0.44767 0.10083 0.60095
 C794 C 0.42725 0.06900 0.60475
 C795 C 0.43361 0.04836 0.58581
 C796 C 0.46020 0.05955 0.56347
 C797 C 0.47978 0.09146 0.55897
 C798 C 0.47383 0.11223 0.57794
 C799 C 0.44241 0.12260 0.62281
 C800 C 0.46388 0.15425 0.62055
 C801 C 0.46028 0.17463 0.64360
 C802 C 0.43547 0.16363 0.66882
 C803 C 0.41325 0.13202 0.66954
 C804 C 0.41689 0.11127 0.64688
 C805 C 0.49411 0.14413 0.57538
 C806 C 0.48926 0.16480 0.59642
 C807 C 0.40151 0.05856 0.62833
 C808 C 0.39638 0.07933 0.64898
 H809 H 0.51430 0.15315 0.55762
 H810 H 0.50588 0.18920 0.59435
 H811 H 0.38551 0.03410 0.63139
 H812 H 0.37659 0.07026 0.66738
 H813 H 0.41860 0.02373 0.58926
 H814 H 0.50022 0.09997 0.54169
 H815 H 0.47737 0.19898 0.64286
 H816 H 0.39431 0.12342 0.68921
 C817 C 0.65581 0.56354 0.61299
 C818 C 0.63600 0.57364 0.62634
 C819 C 0.60877 0.56578 0.60676
 C820 C 0.60176 0.54846 0.57386
 C821 C 0.62248 0.53970 0.56001
 C822 C 0.64928 0.54665 0.57986
 C823 C 0.68299 0.56931 0.63513
 C824 C 0.70128 0.55697 0.62329
 C825 C 0.72527 0.55993 0.64617
 C826 C 0.73131 0.57560 0.68018
 C827 C 0.71388 0.58922 0.69087
 C828 C 0.68917 0.58558 0.66873
 C829 C 0.66895 0.53592 0.56808
 C830 C 0.69440 0.54079 0.58959
 C831 C 0.64332 0.59041 0.65964
 C832 C 0.66957 0.59647 0.68035
 H833 H 0.66413 0.52288 0.54257
 H834 H 0.70847 0.53134 0.58008
 H835 H 0.62834 0.59849 0.67011
 H836 H 0.67406 0.60901 0.70621
 H837 H 0.59261 0.57228 0.61748
 H838 H 0.61681 0.52611 0.53482
 H839 H 0.73863 0.54926 0.63820
 H840 H 0.71823 0.60074 0.71750
 C841 C 0.90206 0.34977 0.60386
 C842 C 0.89102 0.35542 0.57066
 C843 C 0.91039 0.38192 0.55006
 C844 C 0.94004 0.40321 0.56328
 C845 C 0.95091 0.39716 0.59641
 C846 C 0.93210 0.37020 0.61663
 C847 C 0.88129 0.32270 0.62653
 C848 C 0.89219 0.31720 0.65996
 C849 C 0.87186 0.29227 0.68232
 C850 C 0.84069 0.27392 0.67204
 C851 C 0.83015 0.27947 0.63838
 C852 C 0.85050 0.30366 0.61521
 C853 C 0.94233 0.36369 0.64992
 C854 C 0.92278 0.33750 0.67107
 C855 C 0.86046 0.33512 0.55950
 C856 C 0.84045 0.30981 0.58156
 H857 H 0.96550 0.37917 0.65994
 H858 H 0.93145 0.33353 0.69681
 H859 H 0.85170 0.33928 0.53397
 H860 H 0.81681 0.29516 0.57244
 H861 H 0.90200 0.38686 0.52472
 H862 H 0.97366 0.41378 0.60670
 H863 H 0.87971 0.28822 0.70865
 H864 H 0.80603 0.26533 0.63071
   
