data_POSCAR
  _audit_creation_date              2014-09-24
  _audit_creation_method            'ToBaCCo'
  _symmetry_space_group_name_H-M    'P1'
  _symmetry_Int_Tables_number       1
  _symmetry_cell_setting            triclinic
  loop_
  _symmetry_equiv_pos_as_xyz
 x,y,z
_cell_length_a 31.7266
_cell_length_b 32.3386
_cell_length_c 32.3351
_cell_angle_alpha 90.039900
_cell_angle_beta 89.998200
_cell_angle_gamma 90.059300
loop_
  _atom_site_label
  _atom_site_type_symbol
  _atom_site_fract_x
  _atom_site_fract_y
  _atom_site_fract_z
C1 C 0.28477 0.22983 0.23247
 C2 C 0.26721 0.21261 0.26836
 C3 C 0.23221 0.23067 0.28645
 C4 C 0.21465 0.26652 0.26919
 C5 C 0.23201 0.28350 0.23380
 C6 C 0.26741 0.26518 0.21546
 C7 C 0.31845 0.21871 0.20804
 N8 N 0.32211 0.24673 0.17700
 C9 C 0.29112 0.27531 0.18132
 C10 C 0.20836 0.31766 0.22370
 N11 N 0.17741 0.32202 0.25235
 C12 C 0.18103 0.29099 0.28038
 C13 C 0.22170 0.20716 0.32039
 N14 N 0.24975 0.17565 0.32352
 C15 C 0.27777 0.17875 0.29194
 H16 H 0.33905 0.19245 0.21271
 H17 H 0.28609 0.30142 0.16096
 H18 H 0.21343 0.33803 0.19760
 H19 H 0.16048 0.28637 0.30671
 H20 H 0.19581 0.21273 0.34147
 H21 H 0.30370 0.15772 0.28638
 C22 C 0.71492 -0.23093 0.23202
 C23 C 0.73231 -0.21383 0.26807
 C24 C 0.76691 -0.23224 0.28648
 C25 C 0.78431 -0.26823 0.26934
 C26 C 0.76722 -0.28502 0.23373
 C27 C 0.73202 -0.26650 0.21519
 C28 C 0.68152 -0.21952 0.20738
 N29 N 0.67751 -0.24774 0.17642
 C30 C 0.70825 -0.27663 0.18104
 C31 C 0.79102 -0.31911 0.22355
 N32 N 0.82177 -0.32371 0.25247
 C33 C 0.81773 -0.29282 0.28074
 C34 C 0.77737 -0.20878 0.32051
 N35 N 0.74964 -0.17697 0.32340
 C36 C 0.72188 -0.17983 0.29158
 H37 H 0.66125 -0.19300 0.21205
 H38 H 0.71316 -0.30299 0.16093
 H39 H 0.78615 -0.33917 0.19714
 H40 H 0.83800 -0.28814 0.30729
 H41 H 0.80303 -0.21459 0.34180
 H42 H 0.69625 -0.15853 0.28578
 C43 C 0.71543 0.23157 0.76711
 C44 C 0.73292 0.21439 0.73119
 C45 C 0.76750 0.23285 0.71271
 C46 C 0.78477 0.26902 0.72970
 C47 C 0.76755 0.28589 0.76521
 C48 C 0.73240 0.26729 0.78380
 C49 C 0.68206 0.22010 0.79177
 N50 N 0.67795 0.24841 0.82261
 C51 C 0.70859 0.27745 0.81790
 C52 C 0.79122 0.32011 0.77531
 N53 N 0.82203 0.32476 0.74646
 C54 C 0.81816 0.29374 0.71829
 C55 C 0.77804 0.20921 0.67883
 N56 N 0.75036 0.17728 0.67613
 C57 C 0.72258 0.18022 0.70791
 H58 H 0.66190 0.19344 0.78721
 H59 H 0.71341 0.30390 0.83791
 H60 H 0.78622 0.34023 0.80165
 H61 H 0.83853 0.28906 0.69182
 H62 H 0.80369 0.21498 0.65751
 H63 H 0.69698 0.15886 0.71382
 C64 C 0.28475 -0.23062 0.76897
 C65 C 0.26738 -0.21355 0.73294
 C66 C 0.23265 -0.23191 0.71461
 C67 C 0.21511 -0.26780 0.73181
 C68 C 0.23217 -0.28458 0.76740
 C69 C 0.26750 -0.26611 0.78586
 C70 C 0.31828 -0.21929 0.79353
 N71 N 0.32222 -0.24747 0.82448
 C72 C 0.29130 -0.27627 0.81995
 C73 C 0.20823 -0.31861 0.77760
 N74 N 0.17743 -0.32318 0.74871
 C75 C 0.18157 -0.29232 0.72045
 C76 C 0.22226 -0.20854 0.68056
 N77 N 0.25015 -0.17683 0.67756
 C78 C 0.27795 -0.17966 0.70935
 H79 H 0.33868 -0.19284 0.78879
 H80 H 0.28632 -0.30259 0.84007
 H81 H 0.21306 -0.33867 0.80398
 H82 H 0.16132 -0.28764 0.69390
 H83 H 0.19654 -0.21435 0.65932
 H84 H 0.30371 -0.15843 0.71504
 C85 C 0.71491 -0.23052 0.76859
 C86 C 0.73230 -0.21342 0.73256
 C87 C 0.76692 -0.23182 0.71414
 C88 C 0.78433 -0.26779 0.73124
 C89 C 0.76724 -0.28459 0.76682
 C90 C 0.73203 -0.26608 0.78538
 C91 C 0.68149 -0.21915 0.79324
 N92 N 0.67749 -0.24738 0.82416
 C93 C 0.70826 -0.27624 0.81950
 C94 C 0.79105 -0.31867 0.77695
 N95 N 0.82181 -0.32326 0.74803
 C96 C 0.81776 -0.29237 0.71981
 C97 C 0.77737 -0.20839 0.68013
 N98 N 0.74963 -0.17660 0.67725
 C99 C 0.72186 -0.17944 0.70907
 H100 H 0.66120 -0.19265 0.78861
 H101 H 0.71318 -0.30260 0.83957
 H102 H 0.78618 -0.33874 0.80333
 H103 H 0.83802 -0.28769 0.69326
 H104 H 0.80304 -0.21420 0.65884
 H105 H 0.69621 -0.15816 0.71487
 C106 C 0.28554 0.23107 0.76725
 C107 C 0.26759 0.21345 0.73172
 C108 C 0.23270 0.23158 0.71356
 C109 C 0.21559 0.26784 0.73042
 C110 C 0.23340 0.28527 0.76541
 C111 C 0.26880 0.26695 0.78375
 C112 C 0.31911 0.21982 0.79173
 N113 N 0.32351 0.24838 0.82231
 C114 C 0.29292 0.27740 0.81756
 C115 C 0.20992 0.31962 0.77535
 N116 N 0.17864 0.32363 0.74699
 C117 C 0.18192 0.29223 0.71929
 C118 C 0.22186 0.20771 0.67992
 N119 N 0.24967 0.17597 0.67702
 C120 C 0.27780 0.17923 0.70849
 H121 H 0.33910 0.19305 0.78731
 H122 H 0.28825 0.30397 0.83744
 H123 H 0.21521 0.34025 0.80123
 H124 H 0.16098 0.28721 0.69332
 H125 H 0.19601 0.21330 0.65880
 H126 H 0.30365 0.15814 0.71412
 C127 C 0.28479 -0.23102 0.23172
 C128 C 0.26741 -0.21395 0.26778
 C129 C 0.23270 -0.23232 0.28609
 C130 C 0.21516 -0.26822 0.26884
 C131 C 0.23223 -0.28500 0.23322
 C132 C 0.26755 -0.26652 0.21478
 C133 C 0.31830 -0.21965 0.20717
 N134 N 0.32225 -0.24782 0.17617
 C135 C 0.29136 -0.27665 0.18067
 C136 C 0.20830 -0.31903 0.22297
 N137 N 0.17750 -0.32361 0.25185
 C138 C 0.18163 -0.29276 0.28016
 C139 C 0.22229 -0.20893 0.32016
 N140 N 0.25016 -0.17720 0.32318
 C141 C 0.27796 -0.18005 0.29139
 H142 H 0.33868 -0.19319 0.21195
 H143 H 0.28638 -0.30296 0.16050
 H144 H 0.21314 -0.33908 0.19655
 H145 H 0.16137 -0.28809 0.30671
 H146 H 0.19657 -0.21473 0.34139
 H147 H 0.30371 -0.15880 0.28569
 C148 C 0.71631 0.23028 0.23246
 C149 C 0.73338 0.21350 0.26876
 C150 C 0.76803 0.23193 0.28718
 C151 C 0.78575 0.26770 0.26983
 C152 C 0.76901 0.28411 0.23391
 C153 C 0.73390 0.26548 0.21529
 C154 C 0.68284 0.21892 0.20783
 N155 N 0.67950 0.24669 0.17654
 C156 C 0.71052 0.27530 0.18085
 C157 C 0.79281 0.31817 0.22368
 N158 N 0.82324 0.32321 0.25285
 C159 C 0.81905 0.29253 0.28131
 C160 C 0.77823 0.20866 0.32137
 N161 N 0.75033 0.17694 0.32429
 C162 C 0.72269 0.17971 0.29238
 H163 H 0.66207 0.19277 0.21263
 H164 H 0.71568 0.30131 0.16039
 H165 H 0.78805 0.33802 0.19712
 H166 H 0.83901 0.28828 0.30814
 H167 H 0.80390 0.21444 0.34267
 H168 H 0.69703 0.15838 0.28653
 O169 O 0.28478 0.03935 0.45989
 O170 O 0.28494 -0.04075 0.54079
 O171 O 0.28491 -0.04082 0.45986
 O172 O 0.28467 0.03940 0.54077
 O173 O 0.21502 0.03955 0.54039
 O174 O 0.21526 -0.04139 0.46021
 O175 O 0.21529 -0.04131 0.54042
 O176 O 0.21513 0.03949 0.46021
 Cu177 Cu 0.29183 -0.00069 0.50033
 Cu178 Cu 0.20818 -0.00095 0.50030
 C179 C 0.24993 0.05309 0.44636
 C180 C 0.25014 -0.05468 0.55432
 C181 C 0.25012 -0.05478 0.44633
 C182 C 0.24981 0.05316 0.55427
 O183 O 0.71542 0.03988 0.54068
 O184 O 0.71514 -0.04037 0.45981
 O185 O 0.71510 -0.04029 0.54075
 O186 O 0.71532 0.03982 0.45987
 O187 O 0.78497 0.04008 0.46020
 O188 O 0.78475 -0.04076 0.54038
 O189 O 0.78478 -0.04083 0.46015
 O190 O 0.78507 0.04014 0.54030
 Cu191 Cu 0.70824 -0.00025 0.50028
 Cu192 Cu 0.79189 -0.00038 0.50025
 C193 C 0.75028 0.05374 0.55413
 C194 C 0.74992 -0.05428 0.44628
 C195 C 0.74989 -0.05418 0.55428
 C196 C 0.75017 0.05367 0.44640
 O197 O 0.45951 0.28053 0.03918
 O198 O 0.54193 0.28107 -0.04094
 O199 O 0.45936 0.28110 -0.04096
 O200 O 0.54179 0.28049 0.03913
 O201 O 0.54145 0.21216 0.03890
 O202 O 0.45978 0.21277 -0.04207
 O203 O 0.54130 0.21274 -0.04206
 O204 O 0.45966 0.21220 0.03895
 Cu205 Cu 0.50064 0.28767 -0.00087
 Cu206 Cu 0.50052 0.20559 -0.00160
 C207 C 0.44570 0.24629 0.05280
 C208 C 0.55554 0.24701 -0.05519
 C209 C 0.44568 0.24705 -0.05524
 C210 C 0.55555 0.24624 0.05271
 O211 O 0.54128 0.71905 0.04026
 O212 O 0.45869 0.71910 -0.03976
 O213 O 0.54126 0.71915 -0.03979
 O214 O 0.45870 0.71901 0.04025
 O215 O 0.45922 0.78734 0.04090
 O216 O 0.54082 0.78748 -0.04019
 O217 O 0.45922 0.78744 -0.04016
 O218 O 0.54084 0.78738 0.04090
 Cu219 Cu 0.49999 0.71221 0.00023
 Cu220 Cu 0.50003 0.79429 0.00038
 C221 C 0.55499 0.75319 0.05426
 C222 C 0.44501 0.75327 -0.05364
 C223 C 0.55497 0.75333 -0.05368
 C224 C 0.44502 0.75314 0.05425
 O225 O 0.04061 0.46044 0.28755
 O226 O -0.04130 0.54113 0.28753
 O227 O -0.04101 0.46002 0.28783
 O228 O 0.04033 0.54141 0.28725
 O229 O 0.04084 0.54034 0.21892
 O230 O -0.04199 0.46052 0.21949
 O231 O -0.04180 0.54052 0.21918
 O232 O 0.04033 0.46019 0.21921
 Cu233 Cu -0.00033 0.50080 0.29442
 Cu234 Cu -0.00066 0.50041 0.21233
 C235 C 0.05433 0.44656 0.25336
 C236 C -0.05550 0.55448 0.25334
 C237 C -0.05536 0.44651 0.25373
 C238 C 0.05454 0.55455 0.25298
 O239 O 0.04029 0.54189 0.71297
 O240 O -0.04106 0.46052 0.71214
 O241 O -0.04130 0.54160 0.71269
 O242 O 0.04063 0.46096 0.71243
 O243 O 0.04035 0.46060 0.78077
 O244 O -0.04181 0.54091 0.78103
 O245 O -0.04208 0.46094 0.78048
 O246 O 0.04079 0.54071 0.78131
 Cu247 Cu -0.00035 0.50128 0.70568
 Cu248 Cu -0.00069 0.50077 0.78776
 C249 C 0.05449 0.55498 0.74729
 C250 C -0.05550 0.44704 0.74619
 C251 C -0.05549 0.55492 0.74691
 C252 C 0.05442 0.44709 0.74657
 N253 N 0.36175 0.28123 0.12301
 C254 C 0.35356 0.24649 0.14518
 N255 N 0.37574 0.21159 0.13671
 N256 N 0.40490 0.21141 0.10705
 C257 C 0.41322 0.24623 0.08507
 N258 N 0.39119 0.28115 0.09364
 N259 N 0.62132 0.78551 0.14185
 C260 C 0.64762 0.75264 0.14626
 N261 N 0.64327 0.72003 0.12003
 N262 N 0.61361 0.72013 0.09087
 C263 C 0.58758 0.75310 0.08639
 N264 N 0.59207 0.78586 0.11228
 N265 N 0.64366 0.28057 -0.12103
 C266 C 0.64808 0.24796 -0.14722
 N267 N 0.62187 0.21497 -0.14277
 N268 N 0.59264 0.21452 -0.11319
 C269 C 0.58809 0.24728 -0.08734
 N270 N 0.61402 0.28036 -0.09185
 N271 N 0.37865 0.78566 -0.14107
 C272 C 0.35219 0.75285 -0.14544
 N273 N 0.35645 0.72026 -0.11925
 N274 N 0.38618 0.72031 -0.09015
 C275 C 0.41237 0.75322 -0.08572
 N276 N 0.40797 0.78597 -0.11157
 N277 N 0.12409 0.36248 0.28772
 C278 C 0.14609 0.35393 0.25272
 N279 N 0.13786 0.37611 0.21800
 N280 N 0.10855 0.40557 0.21821
 C281 C 0.08670 0.41422 0.25324
 N282 N 0.09506 0.39222 0.28803
 N283 N 0.14293 0.62055 0.78084
 C284 C 0.14740 0.64677 0.74829
 N285 N 0.12109 0.64246 0.71537
 N286 N 0.09173 0.61299 0.71492
 C287 C 0.08713 0.58709 0.74761
 N288 N 0.11315 0.59147 0.78064
 N289 N -0.14390 0.62004 0.22018
 C290 C -0.14829 0.64621 0.25283
 N291 N -0.12198 0.64182 0.28572
 N292 N -0.09267 0.61234 0.28605
 C293 C -0.08814 0.58652 0.25326
 N294 N -0.11418 0.59097 0.22027
 N295 N -0.14397 0.38119 0.77881
 C296 C -0.14812 0.35497 0.74618
 N297 N -0.12164 0.35944 0.71341
 N298 N -0.09240 0.38905 0.71321
 C299 C -0.08812 0.41492 0.74601
 N300 N -0.11434 0.41039 0.77885
 N301 N 0.28509 0.12191 0.36259
 C302 C 0.24980 0.14436 0.35490
 N303 N 0.21455 0.13664 0.37745
 N304 N 0.21453 0.10740 0.40646
 C305 C 0.24988 0.08513 0.41428
 N306 N 0.28519 0.09298 0.39190
 N307 N 0.71518 0.12296 0.63761
 C308 C 0.75038 0.14574 0.64496
 N309 N 0.78557 0.13808 0.62232
 N310 N 0.78562 0.10858 0.59354
 C311 C 0.75036 0.08597 0.58605
 N312 N 0.71510 0.09377 0.60852
 N313 N 0.21497 -0.13824 0.62339
 C314 C 0.25017 -0.14563 0.64610
 N315 N 0.28538 -0.12297 0.63846
 N316 N 0.28545 -0.09414 0.60903
 C317 C 0.25018 -0.08663 0.58649
 N318 N 0.21491 -0.10911 0.59427
 N319 N 0.78492 -0.13816 0.37747
 C320 C 0.74971 -0.14564 0.35477
 N321 N 0.71456 -0.12291 0.36233
 N322 N 0.71456 -0.09395 0.39165
 C323 C 0.74984 -0.08635 0.41418
 N324 N 0.78505 -0.10890 0.40649
 N325 N 0.64328 0.72032 -0.11953
 C326 C 0.64760 0.75295 -0.14569
 N327 N 0.62126 0.78579 -0.14120
 N328 N 0.59202 0.78609 -0.11163
 C329 C 0.58756 0.75330 -0.08582
 N330 N 0.61362 0.72036 -0.09037
 N331 N 0.35795 0.28070 -0.12147
 C332 C 0.35341 0.24800 -0.14754
 N333 N 0.37942 0.21494 -0.14290
 N334 N 0.40857 0.21450 -0.11325
 C335 C 0.41323 0.24733 -0.08749
 N336 N 0.38751 0.28049 -0.09220
 N337 N 0.37865 0.78539 0.14178
 C338 C 0.35221 0.75255 0.14608
 N339 N 0.35650 0.71998 0.11981
 N340 N 0.38623 0.72009 0.09071
 C341 C 0.41238 0.75302 0.08634
 N342 N 0.40796 0.78575 0.11227
 N343 N 0.62568 0.21153 0.13641
 C344 C 0.64805 0.24640 0.14472
 N345 N 0.63994 0.28111 0.12251
 N346 N 0.61038 0.28105 0.09326
 C347 C 0.58815 0.24616 0.08485
 N348 N 0.59640 0.21136 0.10687
 N349 N -0.14386 0.62048 0.78021
 C350 C -0.14826 0.64666 0.74762
 N351 N -0.12195 0.64229 0.71472
 N352 N -0.09265 0.61281 0.71432
 C353 C -0.08811 0.58697 0.74707
 N354 N -0.11415 0.59140 0.78007
 N355 N -0.14284 0.37966 0.22053
 C356 C -0.14713 0.35363 0.25327
 N357 N -0.12110 0.35859 0.28631
 N358 N -0.09216 0.38848 0.28668
 C359 C -0.08775 0.41417 0.25379
 N360 N -0.11351 0.40914 0.22066
 N361 N 0.13887 0.37752 0.78150
 C362 C 0.14709 0.35532 0.74677
 N363 N 0.12473 0.36352 0.71191
 N364 N 0.09539 0.39297 0.71176
 C365 C 0.08703 0.41498 0.74657
 N366 N 0.10924 0.40667 0.78146
 N367 N 0.14301 0.62013 0.21960
 C368 C 0.14747 0.64634 0.25221
 N369 N 0.12115 0.64200 0.28511
 N370 N 0.09178 0.61253 0.28549
 C371 C 0.08719 0.58665 0.25274
 N372 N 0.11323 0.59105 0.21974
 N373 N 0.71454 -0.12261 0.63831
 C374 C 0.74969 -0.14531 0.64588
 N375 N 0.78490 -0.13788 0.62317
 N376 N 0.78502 -0.10868 0.59412
 C377 C 0.74981 -0.08616 0.58642
 N378 N 0.71453 -0.09371 0.60895
 N379 N 0.28538 -0.12327 0.36227
 C380 C 0.25018 -0.14595 0.35463
 N381 N 0.21498 -0.13851 0.37734
 N382 N 0.21491 -0.10932 0.40643
 C383 C 0.25017 -0.08681 0.41419
 N384 N 0.28544 -0.09437 0.39166
 N385 N 0.78547 0.13789 0.37818
 C386 C 0.75027 0.14555 0.35556
 N387 N 0.71505 0.12282 0.36295
 N388 N 0.71496 0.09368 0.39205
 C389 C 0.75023 0.08588 0.41449
 N390 N 0.78551 0.10844 0.40698
 N391 N 0.21441 0.13683 0.62315
 C392 C 0.24965 0.14454 0.64575
 N393 N 0.28492 0.12203 0.63811
 N394 N 0.28502 0.09304 0.60881
 C395 C 0.24973 0.08522 0.58638
 N396 N 0.21440 0.10754 0.59415
   
