data_POSCAR
  _audit_creation_date              2014-09-24
  _audit_creation_method            'ToBaCCo'
  _symmetry_space_group_name_H-M    'P1'
  _symmetry_Int_Tables_number       1
  _symmetry_cell_setting            triclinic
  loop_
  _symmetry_equiv_pos_as_xyz
 x,y,z
_cell_length_a 20.3865
_cell_length_b 20.3444
_cell_length_c 50.2135
_cell_angle_alpha 86.691700
_cell_angle_beta 89.238700
_cell_angle_gamma 119.485500
loop_
  _atom_site_label
  _atom_site_type_symbol
  _atom_site_fract_x
  _atom_site_fract_y
  _atom_site_fract_z
C1 C 0.01928 0.10335 0.53453
 H2 H 0.07476 0.10981 0.53142
 C3 C 0.00961 0.14984 0.55149
 H4 H 0.05747 0.18948 0.56205
 C5 C -0.10951 0.04398 0.52427
 H6 H -0.15549 0.00360 0.51332
 C7 C -0.12186 0.08967 0.54122
 H8 H -0.17762 0.08342 0.54328
 N9 N -0.03993 0.05051 0.52173
 C10 C -0.03747 -0.15226 0.51668
 H11 H -0.06713 -0.16841 0.49846
 C12 C -0.04136 -0.20858 0.53495
 H13 H -0.07349 -0.26725 0.53038
 C14 C 0.03967 -0.05697 0.54482
 H15 H 0.07010 0.00186 0.54895
 C16 C 0.03708 -0.11155 0.56370
 H17 H 0.06520 -0.09355 0.58220
 Zn18 Zn -0.01333 -0.00711 0.50000
 N19 N 0.00045 -0.07817 0.52224
 C20 C 0.13973 0.06004 0.47765
 N21 N 0.07566 0.06463 0.48039
 C22 C 0.06904 0.12156 0.46755
 C23 C 0.12749 0.17626 0.45073
 C24 C 0.19985 0.11362 0.46064
 C25 C -0.16029 -0.11098 0.48191
 C26 C -0.20829 -0.15984 0.46354
 C27 C -0.10279 -0.10829 0.43143
 C28 C -0.05801 -0.05933 0.45000
 N29 N -0.08645 -0.06208 0.47488
 H30 H 0.14333 0.01388 0.48800
 H31 H 0.01705 0.12320 0.46991
 H32 H 0.11963 0.21948 0.44006
 H33 H 0.25011 0.10882 0.45811
 H34 H -0.18117 -0.11532 0.50220
 H35 H -0.26550 -0.19999 0.47052
 H36 H -0.07686 -0.10184 0.41182
 H37 H 0.00089 -0.02136 0.44469
 C38 C -0.00584 -0.18874 0.55925
 C39 C -0.06174 0.14317 0.55524
 C40 C -0.17938 -0.16161 0.43793
 C41 C 0.19371 0.17241 0.44681
 C42 C 1.15651 0.10467 0.12872
 H43 H 1.16383 0.15940 0.13288
 C44 C 1.20581 0.10050 0.11037
 H45 H 1.24894 0.15232 0.09992
 C46 C 1.09054 -0.02857 0.13736
 H47 H 1.04595 -0.07856 0.14814
 C48 C 1.13939 -0.03538 0.11925
 H49 H 1.13183 -0.09097 0.11637
 N50 N 1.09920 0.04078 0.14135
 C51 C 0.90016 0.05388 0.15456
 H52 H 0.88254 0.02528 0.17429
 C53 C 0.84634 0.05498 0.13788
 H54 H 0.78788 0.02773 0.14504
 C55 C 0.99669 0.12119 0.12085
 H56 H 1.05457 0.14479 0.11378
 C57 C 0.94488 0.12399 0.10359
 H58 H 0.96411 0.14962 0.08348
 Zn59 Zn 1.03705 0.05759 0.16526
 N60 N 0.97331 0.08418 0.14551
 C61 C 1.09629 0.19583 0.19203
 N62 N 1.10323 0.13489 0.18641
 C63 C 1.15752 0.12281 0.19718
 C64 C 1.20644 0.17172 0.21498
 C65 C 1.14425 0.24644 0.20996
 C66 C 0.91875 -0.09364 0.17850
 C67 C 0.86176 -0.15046 0.19567
 C68 C 0.92011 -0.07471 0.23270
 C69 C 0.97590 -0.02001 0.21502
 N70 N 0.97343 -0.02920 0.18837
 H71 H 1.05242 0.20394 0.18323
 H72 H 1.16114 0.07341 0.19251
 H73 H 1.24716 0.15898 0.22406
 H74 H 1.13754 0.29414 0.21466
 H75 H 0.91665 -0.09884 0.15717
 H76 H 0.81667 -0.20000 0.18754
 H77 H 0.92169 -0.06507 0.25374
 H78 H 1.01844 0.03180 0.22261
 C79 C 0.86810 0.08811 0.11169
 C80 C 1.19772 0.02983 0.10527
 C81 C 0.86094 -0.13972 0.22299
 C82 C 1.19974 0.23406 0.22189
 C83 C 0.08741 0.92028 0.86710
 H84 H 0.03663 0.86561 0.86807
 C85 C 0.14697 0.93102 0.88284
 H86 H 0.14101 0.88425 0.89606
 C87 C 0.15365 1.04849 0.84980
 H88 H 0.15519 1.09404 0.83710
 C89 C 0.21485 1.06198 0.86548
 H90 H 0.26369 1.11814 0.86464
 N91 N 0.09106 0.97873 0.85138
 C92 C -0.14466 0.92214 0.85542
 H93 H -0.16486 0.90216 0.83608
 C94 C -0.19185 0.93061 0.87384
 H95 H -0.24827 0.91596 0.86827
 C96 C -0.04424 0.97239 0.88473
 H97 H 0.01380 0.99071 0.88887
 C98 C -0.08825 0.98386 0.90322
 H99 H -0.06347 1.00709 0.92174
 Zn100 Zn 0.00007 0.95344 0.83457
 N101 N -0.07206 0.94360 0.86108
 C102 C -0.09494 0.80187 0.81759
 N103 N -0.02526 0.86423 0.81733
 C104 C 0.03369 0.86969 0.80250
 C105 C 0.02361 0.81269 0.78627
 C106 C -0.10781 0.74331 0.80130
 C107 C 0.02091 1.09696 0.81614
 C108 C 0.01108 1.14642 0.79820
 C109 C -0.02269 1.05503 0.76502
 C110 C -0.01193 1.00777 0.78341
 N111 N 0.00804 1.02854 0.80860
 H112 H -0.14092 0.79847 0.82965
 H113 H 0.08832 0.92021 0.80252
 H114 H 0.07084 0.82026 0.77376
 H115 H -0.16390 0.69484 0.80101
 H116 H 0.03489 1.11137 0.83648
 H117 H 0.01860 1.19942 0.80471
 H118 H -0.04036 1.03656 0.74527
 H119 H -0.02356 0.95278 0.77782
 C120 C -0.16285 0.96498 0.89780
 C121 C 0.21134 1.00284 0.88256
 C122 C -0.01326 1.12433 0.77254
 C123 C -0.04809 0.74904 0.78509
 C124 C 0.38730 0.02539 0.01937
 C125 C 0.35876 0.02644 -0.00573
 C126 C 0.39725 0.02844 -0.02929
 C127 C 0.46651 0.02842 -0.02790
 C128 C 0.49676 0.02804 -0.00262
 C129 C 0.45750 0.02726 0.02110
 C130 C 0.48916 0.02753 0.04585
 C131 C 0.55952 0.03240 0.04723
 C132 C 0.59909 0.03296 0.02405
 C133 C 0.56664 0.02874 -0.00106
 C134 C 0.50716 0.03053 -0.05108
 C135 C 0.57448 0.02894 -0.04948
 C136 C 0.60457 0.02652 -0.02466
 C137 C 0.67290 0.02457 -0.02276
 C138 C 0.70539 0.03216 0.00209
 C139 C 0.67067 0.03833 0.02521
 H140 H 0.46027 0.02454 0.06447
 H141 H 0.58212 0.03452 0.06674
 H142 H 0.48752 0.03378 -0.07075
 H143 H 0.60362 0.03152 -0.06800
 H144 H 0.30523 0.02556 -0.00695
 H145 H 0.75874 0.03280 0.00360
 C146 C -0.08094 0.30454 0.64263
 C147 C -0.07968 0.26585 0.66638
 C148 C -0.07516 0.29536 0.69119
 C149 C -0.07591 0.36421 0.69257
 C150 C -0.07477 0.40552 0.66863
 C151 C -0.07643 0.37609 0.64352
 C152 C -0.07426 0.41865 0.62011
 C153 C -0.06730 0.49003 0.62124
 C154 C -0.06592 0.52005 0.64588
 C155 C -0.07144 0.47668 0.66983
 C156 C -0.07928 0.39200 0.71722
 C157 C -0.07880 0.46040 0.71840
 C158 C -0.07287 0.50465 0.69497
 C159 C -0.06928 0.57574 0.69594
 C160 C -0.06126 0.61884 0.67213
 C161 C -0.05845 0.59262 0.64727
 H162 H -0.07724 0.39757 0.60063
 H163 H -0.06385 0.52111 0.60256
 H164 H -0.08368 0.36038 0.73588
 H165 H -0.08276 0.47833 0.73794
 H166 H -0.07907 0.21300 0.66540
 H167 H -0.05585 0.67447 0.67298
 C168 C 0.37533 0.38919 0.31014
 C169 C 0.34599 0.34690 0.33458
 C170 C 0.38214 0.37209 0.35839
 C171 C 0.45015 0.44216 0.35792
 C172 C 0.48074 0.48583 0.33328
 C173 C 0.44340 0.45925 0.30929
 C174 C 0.47437 0.50405 0.28520
 C175 C 0.54212 0.57205 0.28445
 C176 C 0.58060 0.59882 0.30784
 C177 C 0.54877 0.55640 0.33263
 C178 C 0.48908 0.46908 0.38129
 C179 C 0.55496 0.53891 0.38072
 C180 C 0.58501 0.58420 0.35672
 C181 C 0.65147 0.65570 0.35592
 C182 C 0.68247 0.69573 0.33122
 C183 C 0.64933 0.66786 0.30725
 H184 H 0.44647 0.48721 0.26663
 H185 H 0.56340 0.60420 0.26537
 H186 H 0.46918 0.43623 0.40028
 H187 H 0.58273 0.55644 0.39928
 H188 H 0.29364 0.29337 0.33509
 H189 H 0.73431 0.74976 0.33058
 C190 C -0.13680 0.15662 0.59247
 C191 C -0.07285 0.18937 0.57481
 C192 C -0.01577 0.26421 0.57789
 C193 C -0.02013 0.30341 0.59917
 C194 C -0.08236 0.26920 0.61746
 C195 C -0.14137 0.19615 0.61363
 H196 H -0.18127 0.09889 0.59087
 H197 H 0.03369 0.29152 0.56438
 H198 H 0.02653 0.35921 0.60201
 H199 H -0.18944 0.16848 0.62777
 C200 C 0.76386 0.83601 0.25856
 C201 C 0.79716 0.80726 0.24147
 C202 C 0.77325 0.72952 0.24379
 C203 C 0.72081 0.68240 0.26424
 C204 C 0.69095 0.71238 0.28227
 C205 C 0.71123 0.78903 0.27874
 H206 H 0.78073 0.89564 0.25689
 H207 H 0.79835 0.70628 0.23084
 H208 H 0.70667 0.62360 0.26691
 H209 H 0.68905 0.81323 0.29249
 C210 C 0.29992 0.08035 -0.08327
 C211 C 0.27037 0.01610 -0.09811
 C212 C 0.29043 -0.03988 -0.09193
 C213 C 0.33495 -0.03413 -0.07031
 C214 C 0.36115 0.02822 -0.05474
 C215 C 0.34470 0.08618 -0.06172
 H216 H 0.28472 0.12388 -0.08729
 H217 H 0.26917 -0.08965 -0.10317
 H218 H 0.34635 -0.07981 -0.06505
 H219 H 0.36394 0.13441 -0.04975
 C220 C -0.08924 0.68718 0.58537
 C221 C -0.01765 0.75193 0.58051
 C222 C 0.04099 0.76139 0.59708
 C223 C 0.02787 0.70837 0.61837
 C224 C -0.04385 0.64475 0.62337
 C225 C -0.10222 0.63413 0.60666
 H226 H -0.13599 0.67883 0.57331
 H227 H 0.09686 0.81010 0.59372
 H228 H 0.07341 0.71740 0.63122
 H229 H -0.15812 0.58572 0.61050
 C230 C 0.32323 0.29945 0.24417
 C231 C 0.24753 0.28217 0.24273
 C232 C 0.21610 0.30528 0.26276
 C233 C 0.25854 0.34221 0.28424
 C234 C 0.33323 0.35716 0.28600
 C235 C 0.36545 0.33606 0.26570
 H236 H 0.34933 0.28314 0.22892
 H237 H 0.15771 0.29183 0.26246
 H238 H 0.23258 0.35755 0.29988
 H239 H 0.42275 0.34643 0.26687
 C240 C 0.71532 -0.06287 -0.08088
 C241 C 0.79446 -0.01752 -0.08433
 C242 C 0.83082 0.04594 -0.06902
 C243 C 0.79038 0.06167 -0.05030
 C244 C 0.71252 0.01391 -0.04581
 C245 C 0.67517 -0.04825 -0.06141
 H246 H 0.68473 -0.11276 -0.09181
 H247 H 0.89077 0.08505 -0.07178
 H248 H 0.82042 0.11052 -0.03878
 H249 H 0.61530 -0.08696 -0.05792
 C250 C 0.22082 -0.03519 0.06808
 C251 C 0.24858 0.02495 0.08487
 C252 C 0.32427 0.08298 0.08087
 C253 C 0.36988 0.08253 0.05995
 C254 C 0.34160 0.02295 0.04306
 C255 C 0.26691 -0.03615 0.04741
 H256 H 0.16266 -0.08014 0.07022
 H257 H 0.34813 0.12953 0.09366
 H258 H 0.42695 0.12931 0.05666
 H259 H 0.24375 -0.08220 0.03436
 C260 C 0.69792 0.75438 0.42059
 C261 C 0.77757 0.78744 0.42012
 C262 C 0.81168 0.76651 0.39999
 C263 C 0.76945 0.71934 0.38051
 C264 C 0.69175 0.69199 0.37997
 C265 C 0.65601 0.70876 0.40042
 H266 H 0.66776 0.76846 0.43500
 H267 H 0.87120 0.78434 0.39940
 H268 H 0.79812 0.70607 0.36518
 H269 H 0.59613 0.68937 0.40012
 C270 C -0.09900 0.13566 0.73981
 C271 C -0.03252 0.17071 0.75388
 C272 C 0.01631 0.24892 0.74901
 C273 C 0.00076 0.29045 0.72940
 C274 C -0.06445 0.25461 0.71471
 C275 C -0.11476 0.17717 0.72042
 H276 H -0.13822 0.07565 0.74350
 H277 H 0.06803 0.27712 0.75951
 H278 H 0.04101 0.34990 0.72495
 H279 H -0.16519 0.14843 0.70927
 C280 C 0.82544 0.13770 0.07264
 C281 C 0.81096 0.07885 0.09199
 C282 C 0.74506 0.00831 0.09065
 C283 C 0.69689 -0.00416 0.06961
 C284 C 0.71357 0.05385 0.04976
 C285 C 0.77726 0.12518 0.05167
 H286 H 0.87527 0.19276 0.07328
 H287 H 0.73295 -0.03849 0.10501
 H288 H 0.64845 -0.05983 0.06817
 H289 H 0.79105 0.17037 0.03636
 C290 C 0.28419 0.20076 0.40784
 C291 C 0.25258 0.22665 0.42680
 C292 C 0.27079 0.30311 0.42452
 C293 C 0.31599 0.35147 0.40293
 C294 C 0.34452 0.32453 0.38335
 C295 C 0.32947 0.24925 0.38622
 H296 H 0.27041 0.14200 0.40887
 H297 H 0.24775 0.32480 0.43897
 H298 H 0.32625 0.40911 0.40090
 H299 H 0.35050 0.22733 0.37115
 C300 C -0.00530 0.67252 0.76010
 C301 C -0.06040 0.69339 0.76518
 C302 C -0.12244 0.66829 0.74883
 C303 C -0.12701 0.62690 0.72697
 C304 C -0.07008 0.60932 0.72125
 C305 C -0.00987 0.63128 0.73823
 H306 H 0.04283 0.69055 0.77249
 H307 H -0.16514 0.68437 0.75199
 H308 H -0.17352 0.61095 0.71390
 H309 H 0.03500 0.61892 0.73394
   
