data_POSCAR
  _audit_creation_date              2014-09-24
  _audit_creation_method            'ToBaCCo'
  _symmetry_space_group_name_H-M    'P1'
  _symmetry_Int_Tables_number       1
  _symmetry_cell_setting            triclinic
  loop_
  _symmetry_equiv_pos_as_xyz
 x,y,z
_cell_length_a 18.6158
_cell_length_b 19.0031
_cell_length_c 35.9636
_cell_angle_alpha 90.000000
_cell_angle_beta 89.999900
_cell_angle_gamma 113.304200
loop_
  _atom_site_label
  _atom_site_type_symbol
  _atom_site_fract_x
  _atom_site_fract_y
  _atom_site_fract_z
Zn1 Zn 0.94078 0.05020 1.01871
 Zn2 Zn 1.09549 0.03559 1.01978
 Zn3 Zn 0.94621 -0.10362 1.01140
 Zn4 Zn 1.00388 0.01028 0.94987
 O5 O 0.99670 -0.00196 1.00003
 O6 O 0.99940 0.12920 1.04719
 O7 O 1.11484 -0.03507 1.04628
 O8 O 0.86112 -0.12341 1.03977
 O9 O 1.11202 0.11562 1.05008
 O10 O 0.86110 -0.00806 1.04733
 O11 O 1.00591 -0.13845 1.03846
 O12 O 0.96608 -0.07891 0.92565
 O13 O 1.17153 0.07134 0.98525
 O14 O 0.91636 -0.16366 0.97082
 O15 O 1.10180 0.05936 0.93405
 O16 O 0.95018 0.06296 0.93244
 O17 O 0.89825 0.08834 0.98341
 C18 C 1.06928 0.15119 1.05889
 C19 C 1.07391 -0.10562 1.05225
 C20 C 0.83243 -0.07933 1.05425
 C21 C 0.92950 -0.14741 0.93654
 C22 C 1.16722 0.08107 0.95053
 C23 C 0.90678 0.09107 0.94837
 Zn24 Zn 0.05922 0.94980 0.51872
 Zn25 Zn -0.09549 0.96441 0.51978
 Zn26 Zn 0.05379 1.10362 0.51140
 Zn27 Zn -0.00388 0.98972 0.44987
 O28 O 0.00330 1.00196 0.50003
 O29 O 0.00059 0.87080 0.54719
 O30 O -0.11484 1.03507 0.54628
 O31 O 0.13888 1.12341 0.53978
 O32 O -0.11203 0.88438 0.55008
 O33 O 0.13890 1.00806 0.54734
 O34 O -0.00592 1.13845 0.53846
 O35 O 0.03393 1.07891 0.42565
 O36 O -0.17153 0.92867 0.48524
 O37 O 0.08365 1.16366 0.47082
 O38 O -0.10179 0.94064 0.43404
 O39 O 0.04983 0.93704 0.43244
 O40 O 0.10175 0.91166 0.48341
 C41 C -0.06929 0.84881 0.55888
 C42 C -0.07392 1.10562 0.55225
 C43 C 0.16756 1.07933 0.55426
 C44 C 0.07051 1.14741 0.43654
 C45 C -0.16722 0.91894 0.45052
 C46 C 0.09322 0.90893 0.44838
 O47 O 0.23904 0.50731 0.27709
 O48 O 0.22825 0.63905 0.28750
 C49 C 0.26072 0.70870 0.29705
 O50 O 0.32534 0.75515 0.28366
 O51 O 0.45595 0.74063 0.29790
 C52 C 0.49945 0.70449 0.30253
 O53 O 0.49269 0.64672 0.28296
 O54 O 0.36137 0.52669 0.29392
 C55 C 0.28767 0.49437 0.29818
 O56 O 0.25221 0.53720 0.20310
 O57 O 0.23807 0.66650 0.21400
 C58 C 0.28714 0.72788 0.19958
 O59 O 0.35751 0.75953 0.21038
 O60 O 0.49007 0.74866 0.22398
 C61 C 0.50401 0.69966 0.20418
 O62 O 0.47069 0.62783 0.20963
 O63 O 0.34655 0.50080 0.22033
 C64 C 0.28926 0.49447 0.19954
 Cr65 Cr 0.24370 0.58929 0.24562
 Cr66 Cr 0.40534 0.74685 0.25390
 Cr67 Cr 0.41544 0.57774 0.25171
 O68 O 0.35450 0.63827 0.25045
 O69 O 0.76097 0.49268 0.77709
 O70 O 0.77176 0.36095 0.78749
 C71 C 0.73928 0.29130 0.79704
 O72 O 0.67467 0.24485 0.78366
 O73 O 0.54406 0.25937 0.79791
 C74 C 0.50056 0.29551 0.80253
 O75 O 0.50731 0.35329 0.78296
 O76 O 0.63864 0.47331 0.79392
 C77 C 0.71233 0.50563 0.79818
 O78 O 0.74779 0.46280 0.70310
 O79 O 0.76193 0.33350 0.71399
 C80 C 0.71285 0.27212 0.69957
 O81 O 0.64249 0.24046 0.71038
 O82 O 0.50993 0.25134 0.72398
 C83 C 0.49599 0.30034 0.70419
 O84 O 0.52930 0.37217 0.70963
 O85 O 0.65345 0.49920 0.72033
 C86 C 0.71073 0.50553 0.69954
 Cr87 Cr 0.75631 0.41071 0.74562
 Cr88 Cr 0.59466 0.25315 0.75390
 Cr89 Cr 0.58456 0.42226 0.75171
 O90 O 0.64550 0.36173 0.75045
 C91 C 0.05642 0.26239 0.09123
 C92 C 0.10122 0.21950 0.08327
 C93 C 0.17649 0.24243 0.09878
 C94 C 0.20604 0.30650 0.12232
 C95 C 0.16019 0.34876 0.13023
 C96 C 0.08569 0.32648 0.11439
 C97 C 0.18889 0.41173 0.15441
 C98 C 0.26248 0.43248 0.17142
 C99 C 0.30802 0.39058 0.16300
 C100 C 0.28023 0.32841 0.13853
 H101 H 0.21178 0.21003 0.09291
 H102 H 0.04973 0.35821 0.12017
 H103 H 0.15284 0.44311 0.16078
 H104 H 0.31627 0.29677 0.13275
 H105 H -0.00154 0.24637 0.07958
 H106 H 0.36493 0.40535 0.17564
 C107 C 0.73512 0.93792 0.09743
 C108 C 0.76602 0.88916 0.08056
 C109 C 0.73583 0.81121 0.09058
 C110 C 0.67719 0.78290 0.11775
 C111 C 0.64796 0.83294 0.13505
 C112 C 0.67665 0.91008 0.12438
 C113 C 0.59121 0.80532 0.16305
 C114 C 0.56285 0.72805 0.17408
 C115 C 0.59135 0.67843 0.15621
 C116 C 0.64811 0.70564 0.12837
 H117 H 0.75899 0.77287 0.07784
 H118 H 0.65465 0.94917 0.13725
 H119 H 0.56933 0.84418 0.17629
 H120 H 0.66969 0.66637 0.11536
 H121 H 0.75708 0.99814 0.09028
 H122 H 0.57048 0.61863 0.16406
 C123 C 0.05615 0.77545 0.08808
 C124 C 0.10480 0.85003 0.07671
 C125 C 0.18179 0.88316 0.09037
 C126 C 0.20904 0.84336 0.11582
 C127 C 0.15890 0.76933 0.12783
 C128 C 0.08291 0.73553 0.11342
 C129 C 0.18505 0.73097 0.15457
 C130 C 0.26087 0.76571 0.16954
 C131 C 0.31084 0.83859 0.15655
 C132 C 0.28517 0.87703 0.13001
 H133 H 0.22013 0.94043 0.08176
 H134 H 0.04372 0.67870 0.12217
 H135 H 0.14593 0.67469 0.16409
 H136 H 0.32453 0.93360 0.12101
 H137 H -0.00340 0.74843 0.07804
 H138 H 0.36959 0.86683 0.16743
 C139 C 0.94356 0.73760 0.59122
 C140 C 0.89877 0.78049 0.58326
 C141 C 0.82350 0.75757 0.59877
 C142 C 0.79395 0.69350 0.62232
 C143 C 0.83980 0.65123 0.63023
 C144 C 0.91429 0.67351 0.61438
 C145 C 0.81109 0.58826 0.65440
 C146 C 0.73751 0.56751 0.67142
 C147 C 0.69198 0.60942 0.66299
 C148 C 0.71976 0.67158 0.63853
 H149 H 0.78821 0.78997 0.59291
 H150 H 0.95025 0.64177 0.62016
 H151 H 0.84715 0.55688 0.66078
 H152 H 0.68372 0.70323 0.63275
 H153 H 1.00152 0.75362 0.57957
 H154 H 0.63506 0.59465 0.67564
 C155 C 0.26488 0.06208 0.59744
 C156 C 0.23397 0.11083 0.58056
 C157 C 0.26415 0.18879 0.59058
 C158 C 0.32280 0.21710 0.61776
 C159 C 0.35203 0.16706 0.63506
 C160 C 0.32335 0.08992 0.62439
 C161 C 0.40879 0.19468 0.66305
 C162 C 0.43714 0.27195 0.67409
 C163 C 0.40863 0.32157 0.65622
 C164 C 0.35188 0.29436 0.62838
 H165 H 0.24099 0.22713 0.57785
 H166 H 0.34535 0.05083 0.63725
 H167 H 0.43067 0.15583 0.67629
 H168 H 0.33029 0.33362 0.61537
 H169 H 0.24291 0.00186 0.59028
 H170 H 0.42950 0.38137 0.66407
 C171 C 0.94384 0.22455 0.58808
 C172 C 0.89520 0.14997 0.57670
 C173 C 0.81820 0.11684 0.59037
 C174 C 0.79095 0.15664 0.61581
 C175 C 0.84109 0.23068 0.62783
 C176 C 0.91708 0.26448 0.61341
 C177 C 0.81494 0.26903 0.65456
 C178 C 0.73912 0.23430 0.66953
 C179 C 0.68915 0.16141 0.65654
 C180 C 0.71483 0.12297 0.63001
 H181 H 0.77986 0.05957 0.58176
 H182 H 0.95627 0.32131 0.62216
 H183 H 0.85406 0.32531 0.66408
 H184 H 0.67546 0.06640 0.62100
 H185 H 1.00339 0.25158 0.57803
 H186 H 0.63040 0.13317 0.66742
 C187 C 0.30761 0.10802 0.93628
 C188 C 0.23907 0.11946 0.92854
 C189 C 0.23842 0.16713 0.89887
 C190 C 0.30490 0.20215 0.87667
 C191 C 0.37277 0.18792 0.88348
 C192 C 0.37377 0.14133 0.91364
 C193 C 0.43773 0.21971 0.85972
 C194 C 0.43597 0.26684 0.82982
 C195 C 0.36922 0.28296 0.82445
 C196 C 0.30412 0.25048 0.84745
 H197 H 0.18602 0.17713 0.89314
 H198 H 0.42541 0.13022 0.91953
 H199 H 0.48915 0.20737 0.86426
 H200 H 0.25275 0.26239 0.84207
 H201 H 0.30918 0.07157 0.95914
 H202 H 0.36619 0.31872 0.80156
 C203 C 0.94399 0.79784 0.87543
 C204 C 0.90144 0.79117 0.90844
 C205 C 0.83076 0.72735 0.91360
 C206 C 0.80177 0.67176 0.88555
 C207 C 0.84553 0.67868 0.85259
 C208 C 0.91680 0.74160 0.84794
 C209 C 0.81666 0.62335 0.82451
 C210 C 0.74334 0.56238 0.82834
 C211 C 0.69972 0.55648 0.86094
 C212 C 0.72907 0.61022 0.88950
 H213 H 0.79715 0.72242 0.93881
 H214 H 0.95090 0.74797 0.82280
 H215 H 0.85031 0.62883 0.79927
 H216 H 0.69453 0.60417 0.91446
 H217 H 0.99865 0.84659 0.87098
 H218 H 0.64319 0.50972 0.86450
 C219 C 0.78715 0.11427 0.93296
 C220 C 0.86533 0.12709 0.92540
 C221 C 0.90308 0.17200 0.89471
 C222 C 0.86305 0.20345 0.87148
 C223 C 0.78321 0.18759 0.87821
 C224 C 0.74601 0.14348 0.90925
 C225 C 0.74220 0.21596 0.85370
 C226 C 0.78113 0.26236 0.82358
 C227 C 0.86105 0.28018 0.81804
 C228 C 0.90150 0.25016 0.84149
 H229 H 0.96375 0.18269 0.88907
 H230 H 0.68514 0.13131 0.91508
 H231 H 0.68064 0.20285 0.85821
 H232 H 0.96276 0.26336 0.83614
 H233 H 0.75722 0.07955 0.95653
 H234 H 0.89171 0.31576 0.79483
 C235 C 0.69240 0.89200 0.43627
 C236 C 0.76093 0.88055 0.42854
 C237 C 0.76159 0.83288 0.39887
 C238 C 0.69511 0.79785 0.37666
 C239 C 0.62724 0.81209 0.38348
 C240 C 0.62624 0.85869 0.41363
 C241 C 0.56228 0.78031 0.35971
 C242 C 0.56403 0.73317 0.32982
 C243 C 0.63079 0.71704 0.32445
 C244 C 0.69588 0.74952 0.34745
 H245 H 0.81398 0.82287 0.39314
 H246 H 0.57461 0.86980 0.41952
 H247 H 0.51086 0.79265 0.36425
 H248 H 0.74725 0.73760 0.34207
 H249 H 0.69084 0.92846 0.45913
 H250 H 0.63381 0.68128 0.30156
 C251 C 0.05603 0.20216 0.37543
 C252 C 0.09857 0.20883 0.40844
 C253 C 0.16926 0.27265 0.41360
 C254 C 0.19824 0.32824 0.38555
 C255 C 0.15448 0.32132 0.35259
 C256 C 0.08321 0.25839 0.34794
 C257 C 0.18336 0.37665 0.32451
 C258 C 0.25667 0.43762 0.32834
 C259 C 0.30030 0.44352 0.36094
 C260 C 0.27094 0.38977 0.38950
 H261 H 0.20286 0.27758 0.43881
 H262 H 0.04912 0.25202 0.32280
 H263 H 0.14970 0.37116 0.29927
 H264 H 0.30549 0.39582 0.41446
 H265 H 0.00136 0.15341 0.37098
 H266 H 0.35682 0.49028 0.36450
 C267 C 0.21286 0.88574 0.43297
 C268 C 0.13468 0.87291 0.42541
 C269 C 0.09693 0.82799 0.39472
 C270 C 0.13696 0.79654 0.37149
 C271 C 0.21680 0.81241 0.37822
 C272 C 0.25401 0.85653 0.40926
 C273 C 0.25780 0.78404 0.35371
 C274 C 0.21888 0.73764 0.32358
 C275 C 0.13895 0.71981 0.31805
 C276 C 0.09850 0.74982 0.34151
 H277 H 0.03625 0.81729 0.38908
 H278 H 0.31488 0.86871 0.41508
 H279 H 0.31937 0.79716 0.35821
 H280 H 0.03724 0.73662 0.33615
 H281 H 0.24279 0.92046 0.45653
 H282 H 0.10829 0.68422 0.29484
   
