data_POSCAR
  _audit_creation_date              2014-09-24
  _audit_creation_method            'ToBaCCo'
  _symmetry_space_group_name_H-M    'P1'
  _symmetry_Int_Tables_number       1
  _symmetry_cell_setting            triclinic
  loop_
  _symmetry_equiv_pos_as_xyz
 x,y,z
_cell_length_a 30.2380
_cell_length_b 31.0452
_cell_length_c 32.0056
_cell_angle_alpha 89.240300
_cell_angle_beta 90.577100
_cell_angle_gamma 90.341500
loop_
  _atom_site_label
  _atom_site_type_symbol
  _atom_site_fract_x
  _atom_site_fract_y
  _atom_site_fract_z
C1 C 0.32080 0.38986 1.37627
 C2 C 0.33892 0.35181 1.39339
 C3 C 0.37489 0.33093 1.37487
 C4 C 0.39267 0.34890 1.33791
 C5 C 0.37645 0.38801 1.32111
 C6 C 0.34075 0.40812 1.34059
 H7 H 0.32456 0.33798 1.42135
 H8 H 0.42087 0.33396 1.32353
 H9 H 0.32668 0.43659 1.32595
 C10 C 1.19715 0.61947 0.87127
 C11 C 1.17355 0.60164 0.83713
 C12 C 1.13534 0.62127 0.82073
 C13 C 1.12003 0.65924 0.83851
 C14 C 1.14233 0.67782 0.87247
 C15 C 1.18024 0.65741 0.88902
 H16 H 1.18358 0.57151 0.82367
 H17 H 1.09175 0.67532 0.82449
 H18 H 1.19755 0.67272 0.91453
 C19 C 0.69632 -0.13932 0.14756
 C20 C 0.68003 -0.12202 0.18478
 C21 C 0.64187 -0.13828 0.20355
 C22 C 0.61864 -0.17227 0.18507
 C23 C 0.63380 -0.19127 0.14808
 C24 C 0.67234 -0.17363 0.12929
 H25 H 0.69565 -0.09423 0.19885
 H26 H 0.59050 -0.18546 0.20159
 H27 H 0.68410 -0.18708 0.10061
 C28 C -0.18742 1.12799 -0.37708
 C29 C -0.16749 1.16421 -0.39566
 C30 C -0.13361 1.18709 -0.37497
 C31 C -0.11950 1.17205 -0.33532
 C32 C -0.13870 1.13534 -0.31654
 C33 C -0.17267 1.11343 -0.33778
 H34 H -0.18036 1.17560 -0.42548
 H35 H -0.09200 1.18768 -0.31967
 H36 H -0.18898 1.08609 -0.32309
 C37 C 0.67804 0.63758 0.63768
 C38 C 0.65863 0.61566 0.67157
 C39 C 0.61780 0.62842 0.68748
 C40 C 0.59537 0.66296 0.66828
 C41 C 0.61365 0.68514 0.63386
 C42 C 0.65503 0.67199 0.61861
 H43 H 0.67547 0.58840 0.68580
 H44 H 0.56460 0.67385 0.68147
 H45 H 0.66976 0.68905 0.59246
 C46 C 0.82417 0.33978 0.15352
 C47 C 0.83908 0.35841 0.19072
 C48 C 0.87678 0.34233 0.21155
 C49 C 0.89969 0.30755 0.19402
 C50 C 0.88562 0.28894 0.15605
 C51 C 0.84755 0.30576 0.13622
 H52 H 0.82016 0.38418 0.20423
 H53 H 0.92965 0.29630 0.20926
 H54 H 0.83423 0.29114 0.10821
 C55 C 0.30320 0.15478 0.84638
 C56 C 0.32650 0.19102 0.86151
 C57 C 0.36313 0.20784 0.84029
 C58 C 0.37661 0.18884 0.80326
 C59 C 0.35424 0.15285 0.78726
 C60 C 0.31832 0.13527 0.80946
 H61 H 0.31689 0.20602 0.89037
 H62 H 0.40501 0.20204 0.78701
 H63 H 0.30027 0.10850 0.79605
 C64 C 0.16552 0.87885 0.36078
 C65 C 0.14549 0.89748 0.32492
 C66 C 0.10554 0.88170 0.30869
 C67 C 0.08395 0.84762 0.32908
 C68 C 0.10251 0.82864 0.36508
 C69 C 0.14282 0.84476 0.38110
 H70 H 0.16010 0.92529 0.30958
 H71 H 0.05392 0.83435 0.31554
 H72 H 0.15732 0.82877 0.40809
 Zn73 Zn 0.00633 1.04595 -0.04070
 Zn74 Zn -0.03682 0.95838 -0.04558
 Zn75 Zn 0.05404 0.96856 -0.00859
 Zn76 Zn -0.02392 1.00182 0.03638
 O77 O -0.00015 0.99361 -0.01479
 O78 O -0.02510 1.04892 -0.08792
 O79 O -0.01043 0.90903 -0.06032
 O80 O 0.09740 0.99902 -0.03268
 O81 O -0.05565 0.98412 -0.09311
 O82 O 0.06246 1.05735 -0.05547
 O83 O 0.05622 0.91722 -0.03240
 O84 O 0.01023 0.98219 0.07753
 O85 O -0.08580 0.94203 -0.01772
 O86 O 0.06960 0.95923 0.04506
 O87 O -0.07522 0.97432 0.04273
 O88 O -0.03378 1.05710 0.04793
 O89 O -0.01182 1.09027 -0.00983
 C90 C -0.04920 1.02204 -0.10734
 C91 C 0.02837 0.89515 -0.05298
 C92 C 0.09746 1.03518 -0.05160
 C93 C 0.04818 0.96517 0.07840
 C94 C -0.09814 0.95021 0.01915
 C95 C -0.02790 1.09134 0.02662
 Zn96 Zn 0.46012 0.00834 0.44306
 Zn97 Zn 0.45702 -0.03394 0.52831
 Zn98 Zn 0.54339 -0.01795 0.48526
 Zn99 Zn 0.49195 0.05620 0.51618
 O100 O 0.48803 0.00297 0.49341
 O101 O 0.40904 -0.01977 0.44255
 O102 O 0.48931 -0.08051 0.54521
 O103 O 0.55393 -0.03150 0.43191
 O104 O 0.40694 -0.05380 0.50380
 O105 O 0.49052 -0.01406 0.40153
 O106 O 0.55278 -0.06624 0.51397
 O107 O 0.54756 0.07170 0.52778
 O108 O 0.43883 -0.00754 0.57510
 O109 O 0.58616 0.01768 0.50273
 O110 O 0.46274 0.05916 0.56397
 O111 O 0.47083 0.09840 0.48313
 O112 O 0.44881 0.06300 0.42723
 C113 C 0.38992 -0.04501 0.46820
 C114 C 0.52935 -0.08994 0.53760
 C115 C 0.52895 -0.02989 0.39979
 C116 C 0.58425 0.05366 0.52095
 C117 C 0.44219 0.03157 0.58617
 C118 C 0.45454 0.09809 0.44647
 Zn119 Zn 1.00256 0.45243 0.48692
 Zn120 Zn 1.05375 0.52881 0.51256
 Zn121 Zn 0.96467 0.54025 0.47165
 Zn122 Zn 0.97328 0.50427 0.55937
 O123 O 0.99829 0.50657 0.50755
 O124 O 1.05805 0.43646 0.47590
 O125 O 1.05963 0.57756 0.48432
 O126 O 0.94654 0.51140 0.42537
 O127 O 1.09572 0.49491 0.49277
 O128 O 0.97356 0.44661 0.43883
 O129 O 0.99453 0.58761 0.45352
 O130 O 0.92310 0.53448 0.56102
 O131 O 1.06945 0.54046 0.56514
 O132 O 0.91522 0.55964 0.49626
 O133 O 1.00882 0.52457 0.60018
 O134 O 0.95886 0.45032 0.57532
 O135 O 0.98027 0.41256 0.52105
 C136 C 1.09423 0.45718 0.47829
 C137 C 1.03416 0.59954 0.46086
 C138 C 0.95199 0.47225 0.41530
 C139 C 0.90137 0.55567 0.53354
 C140 C 1.04853 0.53808 0.59924
 C141 C 0.96291 0.41464 0.55684
 Zn142 Zn 0.49163 0.48765 0.95534
 Zn143 Zn 0.57351 0.51631 0.99714
 Zn144 Zn 0.48693 0.52609 1.04144
 Zn145 Zn 0.52736 0.43866 1.02840
 O146 O 0.51954 0.49232 1.00581
 O147 O 0.52267 0.50926 0.91228
 O148 O 0.57942 0.56546 1.02331
 O149 O 0.43584 0.54456 1.01688
 O150 O 0.58487 0.52853 0.94364
 O151 O 0.44060 0.51550 0.95428
 O152 O 0.51718 0.57426 1.05782
 O153 O 0.49922 0.43247 1.07636
 O154 O 0.61807 0.48465 1.01693
 O155 O 0.47064 0.49654 1.08857
 O156 O 0.58408 0.42631 1.04061
 O157 O 0.50576 0.39657 0.99627
 O158 O 0.47834 0.43321 0.94239
 C159 C 0.56128 0.52537 0.91083
 C160 C 0.55581 0.58708 1.04774
 C161 C 0.41996 0.53795 0.98047
 C162 C 0.47697 0.45729 1.09909
 C163 C 0.61915 0.44833 1.03542
 C164 C 0.48522 0.39777 0.96151
 C165 C 1.27641 0.45364 0.39276
 C166 C 1.28284 0.40863 0.39407
 C167 C 1.25004 0.38257 0.41316
 C168 C 1.21200 0.40080 0.43005
 C169 C 1.20673 0.44593 0.42918
 C170 C 1.23912 0.47203 0.41056
 C171 C 1.16875 0.46415 0.44623
 C172 C 1.13517 0.43771 0.46281
 C173 C 1.14032 0.39281 0.46292
 C174 C 1.17867 0.37450 0.44711
 H175 H 1.25263 0.34779 0.41304
 H176 H 1.23555 0.50675 0.40958
 H177 H 1.16467 0.49884 0.44540
 H178 H 1.18203 0.33977 0.44778
 H179 H 1.30101 0.47511 0.37949
 H180 H 1.11477 0.37191 0.47549
 C181 C 0.26386 0.57596 0.85937
 C182 C 0.23751 0.60082 0.88612
 C183 C 0.25342 0.60742 0.92746
 C184 C 0.29420 0.59036 0.94110
 C185 C 0.31964 0.56597 0.91349
 C186 C 0.30412 0.55881 0.87288
 C187 C 0.36041 0.54917 0.92672
 C188 C 0.37660 0.55628 0.96748
 C189 C 0.35099 0.58049 0.99495
 C190 C 0.31011 0.59732 0.98190
 H191 H 0.23386 0.62461 0.94983
 H192 H 0.32352 0.54042 0.85119
 H193 H 0.37957 0.53054 0.90502
 H194 H 0.29104 0.61592 1.00367
 H195 H 0.25494 0.57115 0.82697
 H196 H 0.36251 0.58640 1.02651
 C197 C -0.23137 0.89680 0.15541
 C198 C -0.26401 0.87737 0.12973
 C199 C -0.25578 0.87546 0.08626
 C200 C -0.21698 0.89344 0.06922
 C201 C -0.18572 0.91351 0.09568
 C202 C -0.19306 0.91470 0.13862
 C203 C -0.14740 0.93209 0.07893
 C204 C -0.13932 0.93079 0.03582
 C205 C -0.17032 0.91041 0.00955
 C206 C -0.20895 0.89207 0.02609
 H207 H -0.28011 0.86197 0.06508
 H208 H -0.16894 0.92931 0.15943
 H209 H -0.12364 0.94729 0.09971
 H210 H -0.23247 0.87680 0.00517
 H211 H -0.23421 0.89710 0.18906
 H212 H -0.16486 0.90888 -0.02378
 C213 C 0.77262 0.06256 0.59705
 C214 C 0.77417 0.10734 0.60238
 C215 C 0.73844 0.13268 0.58867
 C216 C 0.70117 0.11352 0.57026
 C217 C 0.69992 0.06843 0.56465
 C218 C 0.73590 0.04325 0.57796
 C219 C 0.66225 0.04923 0.54681
 C220 C 0.62534 0.07439 0.53578
 C221 C 0.62696 0.11915 0.54148
 C222 C 0.66476 0.13863 0.55818
 H223 H 0.73924 0.16721 0.59334
 H224 H 0.73541 0.00863 0.57408
 H225 H 0.66100 0.01459 0.54302
 H226 H 0.66520 0.17321 0.56237
 H227 H 0.80000 0.04262 0.60741
 H228 H 0.59885 0.13907 0.53316
 C229 C 0.39261 0.28732 0.43731
 C230 C 0.39201 0.29267 0.39339
 C231 C 0.40696 0.25829 0.36880
 C232 C 0.41937 0.21883 0.38761
 C233 C 0.41943 0.21434 0.43160
 C234 C 0.40666 0.24896 0.45609
 C235 C 0.43153 0.17507 0.45051
 C236 C 0.44214 0.13942 0.42607
 C237 C 0.44130 0.14381 0.38229
 C238 C 0.43052 0.18330 0.36323
 H239 H 0.40610 0.26100 0.33501
 H240 H 0.40682 0.24618 0.48988
 H241 H 0.43168 0.17195 0.48430
 H242 H 0.43041 0.18590 0.32943
 H243 H 0.38331 0.31332 0.45758
 H244 H 0.44960 0.11683 0.36281
 C245 C 0.88816 0.22940 0.56302
 C246 C 0.88490 0.22482 0.60684
 C247 C 0.89943 0.25932 0.63200
 C248 C 0.91550 0.29762 0.61385
 C249 C 0.91880 0.30123 0.56998
 C250 C 0.90535 0.26691 0.54492
 C251 C 0.93494 0.33934 0.55179
 C252 C 0.94669 0.37456 0.57675
 C253 C 0.94258 0.37110 0.62032
 C254 C 0.92751 0.33274 0.63878
 H255 H 0.89598 0.25764 0.66564
 H256 H 0.90783 0.26916 0.51120
 H257 H 0.93746 0.34191 0.51807
 H258 H 0.92493 0.33067 0.67249
 H259 H 0.87891 0.20341 0.54243
 H260 H 0.95153 0.39786 0.64012
 C261 C 0.15893 0.75124 -0.09899
 C262 C 0.12758 0.72003 -0.11116
 C263 C 0.08225 0.73009 -0.10914
 C264 C 0.06858 0.77072 -0.09566
 C265 C 0.10052 0.80145 -0.08317
 C266 C 0.14554 0.79136 -0.08483
 C267 C 0.08703 0.84190 -0.06941
 C268 C 0.04191 0.85254 -0.06841
 C269 C 0.01033 0.82203 -0.08146
 C270 C 0.02354 0.78134 -0.09473
 H271 H 0.05759 0.70635 -0.11800
 H272 H 0.17046 0.81474 -0.07570
 H273 H 0.11179 0.86523 -0.05975
 H274 H -0.00144 0.75824 -0.10433
 H275 H 0.19401 0.74509 -0.10123
 H276 H -0.02461 0.82940 -0.08086
 C277 C 0.56677 0.76321 1.13861
 C278 C 0.61220 0.77163 1.13154
 C279 C 0.63603 0.74106 1.10868
 C280 C 0.61565 0.70354 1.09383
 C281 C 0.57040 0.69552 1.10145
 C282 C 0.54624 0.72577 1.12373
 C283 C 0.55036 0.65738 1.08676
 C284 C 0.57532 0.62743 1.06441
 C285 C 0.62042 0.63615 1.05728
 C286 C 0.64031 0.67362 1.07183
 H287 H 0.67126 0.74473 1.10408
 H288 H 0.51138 0.72055 1.12963
 H289 H 0.51562 0.65118 1.09249
 H290 H 0.67510 0.67917 1.06581
 H291 H 0.54625 0.78605 1.15456
 H292 H 0.64076 0.61380 1.04041
 C293 C 0.40071 0.45293 1.27894
 C294 C 0.39589 0.40787 1.28272
 C295 C 0.40845 0.38211 1.24911
 C296 C 0.42503 0.40095 1.21227
 C297 C 0.42906 0.44628 1.20857
 C298 C 0.41697 0.47192 1.24226
 C299 C 0.44528 0.46504 1.17136
 C300 C 0.45819 0.43887 1.13814
 C301 C 0.45406 0.39382 1.14247
 C302 C 0.43748 0.37510 1.17898
 H303 H 0.40447 0.34743 1.25123
 H304 H 0.42010 0.50667 1.24026
 H305 H 0.44852 0.49975 1.16856
 H306 H 0.43460 0.34034 1.18121
 H307 H 0.39200 0.47360 1.30453
 H308 H 0.46349 0.37280 1.11737
 C309 C 0.65724 -0.11554 0.27680
 C310 C 0.62714 -0.11995 0.24339
 C311 C 0.58360 -0.10548 0.24765
 C312 C 0.57036 -0.08614 0.28480
 C313 C 0.60080 -0.08200 0.31840
 C314 C 0.64412 -0.09694 0.31412
 C315 C 0.58741 -0.06304 0.35571
 C316 C 0.54402 -0.04782 0.35983
 C317 C 0.51427 -0.05154 0.32594
 C318 C 0.52727 -0.07063 0.28884
 H319 H 0.56045 -0.10845 0.22173
 H320 H 0.66790 -0.09404 0.33950
 H321 H 0.61070 -0.06035 0.38153
 H322 H 0.50357 -0.07338 0.26338
 H323 H 0.69095 -0.12668 0.27400
 H324 H 0.48057 -0.04026 0.32828
 C325 C -0.11167 1.15069 -0.24390
 C326 C -0.12349 1.12048 -0.27450
 C327 C -0.12011 1.07623 -0.26482
 C328 C -0.10433 1.06244 -0.22550
 C329 C -0.09137 1.09326 -0.19562
 C330 C -0.09555 1.13723 -0.20496
 C331 C -0.07401 1.07968 -0.15698
 C332 C -0.06970 1.03560 -0.14742
 C333 C -0.08382 1.00508 -0.17679
 C334 C -0.10078 1.01841 -0.21565
 H335 H -0.12876 1.05252 -0.28812
 H336 H -0.08620 1.16124 -0.18218
 H337 H -0.06369 1.10353 -0.13437
 H338 H -0.11075 0.99431 -0.23810
 H339 H -0.11498 1.18491 -0.25002
 H340 H -0.08080 0.97094 -0.17010
 C341 C 1.06624 0.59859 0.78275
 C342 C 1.11249 0.60337 0.78354
 C343 C 1.13678 0.59274 0.74798
 C344 C 1.11512 0.57836 0.71172
 C345 C 1.06858 0.57361 0.71118
 C346 C 1.04449 0.58352 0.74700
 C347 C 1.04691 0.55971 0.67465
 C348 C 1.07113 0.55136 0.63835
 C349 C 1.11740 0.55632 0.63937
 C350 C 1.13920 0.56941 0.67574
 H351 H 1.17241 0.59693 0.74816
 H352 H 1.00880 0.58015 0.74718
 H353 H 1.01121 0.55627 0.67424
 H354 H 1.17487 0.57296 0.67558
 H355 H 1.04696 0.60650 0.80990
 H356 H 1.13690 0.54991 0.61196
 C357 C 0.75542 0.61401 0.65407
 C358 C 0.72310 0.62514 0.62394
 C359 C 0.73391 0.62303 0.58128
 C360 C 0.77583 0.60842 0.56908
 C361 C 0.80723 0.59595 0.59987
 C362 C 0.79691 0.59945 0.64220
 C363 C 0.84829 0.57958 0.58795
 C364 C 0.85886 0.57550 0.54551
 C365 C 0.82795 0.58911 0.51502
 C366 C 0.78675 0.60527 0.52670
 H367 H 0.70938 0.63144 0.55768
 H368 H 0.82079 0.59050 0.66621
 H369 H 0.87190 0.56963 0.61185
 H370 H 0.76325 0.61481 0.50258
 H371 H 0.74854 0.61639 0.68710
 H372 H 0.83522 0.58636 0.48211
 C373 C 0.74641 0.32558 1.13132
 C374 C 0.78262 0.35397 1.13342
 C375 C 0.77970 0.39492 1.11469
 C376 C 0.74080 0.40739 1.09362
 C377 C 0.70413 0.37888 1.09213
 C378 C 0.70730 0.33804 1.11112
 C379 C 0.66484 0.39178 1.07199
 C380 C 0.66174 0.43278 1.05302
 C381 C 0.69887 0.46035 1.05375
 C382 C 0.73794 0.44784 1.07396
 H383 H 0.80793 0.41659 1.11591
 H384 H 0.67964 0.31571 1.11020
 H385 H 0.63655 0.37017 1.07165
 H386 H 0.76577 0.46998 1.07457
 H387 H 0.74849 0.29376 1.14548
 H388 H 0.69742 0.49218 1.03958
 C389 C 0.23653 1.16829 -0.11244
 C390 C 0.26481 1.13946 -0.13294
 C391 C 0.25360 1.09523 -0.13239
 C392 C 0.21572 1.08029 -0.11151
 C393 C 0.18724 1.10990 -0.09237
 C394 C 0.19801 1.15377 -0.09300
 C395 C 0.14850 1.09514 -0.07284
 C396 C 0.13879 1.05090 -0.07078
 C397 C 0.16812 1.02154 -0.08852
 C398 C 0.20597 1.03611 -0.10917
 H399 H 0.27527 1.07201 -0.14653
 H400 H 0.17659 1.17695 -0.07845
 H401 H 0.12621 1.11793 -0.05884
 H402 H 0.22759 1.01284 -0.12330
 H403 H 0.24279 1.20266 -0.11303
 H404 H 0.16109 0.98729 -0.08741
 C405 C 0.23784 -0.08788 0.34599
 C406 C 0.20793 -0.10689 0.37463
 C407 C 0.22194 -0.11153 0.41685
 C408 C 0.26380 -0.09660 0.42992
 C409 C 0.29226 -0.07689 0.40065
 C410 C 0.27917 -0.07301 0.35886
 C411 C 0.33343 -0.06096 0.41350
 C412 C 0.34703 -0.06418 0.45550
 C413 C 0.31900 -0.08453 0.48454
 C414 C 0.27760 -0.10052 0.47186
 H415 H 0.19995 -0.12490 0.44019
 H416 H 0.30105 -0.05859 0.33591
 H417 H 0.35483 -0.04572 0.39060
 H418 H 0.25631 -0.11563 0.49487
 H419 H 0.23048 -0.08570 0.31291
 H420 H 0.32872 -0.08742 0.51711
 C421 C 0.54423 -0.27569 0.61170
 C422 C 0.59065 -0.27646 0.61574
 C423 C 0.61496 -0.23965 0.60382
 C424 C 0.59346 -0.20277 0.58823
 C425 C 0.54679 -0.20213 0.58469
 C426 C 0.52252 -0.23890 0.59644
 C427 C 0.52540 -0.16490 0.56916
 C428 C 0.55035 -0.12874 0.55640
 C429 C 0.59674 -0.13002 0.56020
 C430 C 0.61802 -0.16646 0.57616
 H431 H 0.65064 -0.23930 0.60742
 H432 H 0.48678 -0.23926 0.59375
 H433 H 0.48967 -0.16442 0.56613
 H434 H 0.65379 -0.16634 0.57873
 H435 H 0.52463 -0.30370 0.62020
 H436 H 0.61678 -0.10257 0.55086
 C437 C 1.03589 0.78561 0.38760
 C438 C 1.08203 0.78925 0.38334
 C439 C 1.10875 0.75410 0.39464
 C440 C 1.08991 0.71592 0.41009
 C441 C 1.04349 0.71231 0.41414
 C442 C 1.01676 0.74745 0.40287
 C443 C 1.02482 0.67377 0.42966
 C444 C 1.05227 0.63935 0.44185
 C445 C 1.09834 0.64349 0.43742
 C446 C 1.11695 0.68127 0.42149
 H447 H 1.14426 0.75608 0.39059
 H448 H 0.98115 0.74543 0.40585
 H449 H 0.98930 0.67094 0.43321
 H450 H 1.15256 0.68351 0.41846
 H451 H 1.01462 0.81235 0.37917
 H452 H 1.12018 0.61732 0.44633
 C453 C -0.07178 1.22186 0.16474
 C454 C -0.09227 1.25319 0.13880
 C455 C -0.09188 1.24696 0.09511
 C456 C -0.07348 1.20983 0.07804
 C457 C -0.05565 1.17767 0.10472
 C458 C -0.05425 1.18435 0.14792
 C459 C -0.04014 1.13916 0.08775
 C460 C -0.04116 1.13296 0.04429
 C461 C -0.05688 1.16608 0.01791
 C462 C -0.07327 1.20405 0.03464
 H463 H -0.10517 1.27133 0.07403
 H464 H -0.04033 1.16016 0.16884
 H465 H -0.02747 1.11396 0.10829
 H466 H -0.08641 1.22861 0.01367
 H467 H -0.07170 1.22467 0.19841
 H468 H -0.05794 1.16196 -0.01564
 C469 C 0.39326 0.28224 0.83024
 C470 C 0.38687 0.24604 0.85628
 C471 C 0.40316 0.24644 0.89750
 C472 C 0.42544 0.28287 0.91272
 C473 C 0.43076 0.31960 0.88661
 C474 C 0.41479 0.31886 0.84535
 C475 C 0.45141 0.35665 0.90234
 C476 C 0.46721 0.35746 0.94380
 C477 C 0.46304 0.32026 0.96905
 C478 C 0.44217 0.28336 0.95370
 H479 H 0.39871 0.21832 0.91750
 H480 H 0.41872 0.34666 0.82486
 H481 H 0.45465 0.38502 0.88246
 H482 H 0.43862 0.25541 0.97407
 H483 H 0.38084 0.28240 0.79837
 H484 H 0.47478 0.32007 1.00113
 C485 C 0.55499 0.59649 0.72878
 C486 C 0.60009 0.60716 0.72569
 C487 C 0.62851 0.59797 0.75966
 C488 C 0.61222 0.57865 0.79627
 C489 C 0.56685 0.56798 0.79911
 C490 C 0.53854 0.57689 0.76511
 C491 C 0.55050 0.54930 0.83614
 C492 C 0.57886 0.54190 0.87064
 C493 C 0.62397 0.55242 0.86719
 C494 C 0.64053 0.57042 0.83031
 H495 H 0.66321 0.60675 0.75796
 H496 H 0.50364 0.56898 0.76670
 H497 H 0.51558 0.54165 0.83847
 H498 H 0.67541 0.57841 0.82862
 H499 H 0.53254 0.60299 0.70292
 H500 H 0.64655 0.54700 0.89319
 C501 C 0.37810 0.16439 0.71350
 C502 C 0.36750 0.13557 0.74620
 C503 C 0.37113 0.09095 0.73965
 C504 C 0.38686 0.07557 0.70139
 C505 C 0.39873 0.10520 0.66945
 C506 C 0.39362 0.14941 0.67559
 C507 C 0.41611 0.09033 0.63198
 C508 C 0.42191 0.04605 0.62548
 C509 C 0.40899 0.01659 0.65686
 C510 C 0.39176 0.03125 0.69459
 H511 H 0.36306 0.06842 0.76462
 H512 H 0.40213 0.17248 0.65122
 H513 H 0.42538 0.11344 0.60788
 H514 H 0.38271 0.00797 0.71859
 H515 H 0.37460 0.19881 0.71735
 H516 H 0.41301 -0.01770 0.65257
 C517 C 0.04326 0.91004 0.26442
 C518 C 0.08807 0.89923 0.26874
 C519 C 0.11643 0.90460 0.23451
 C520 C 0.10021 0.92041 0.19621
 C521 C 0.05512 0.93152 0.19222
 C522 C 0.02693 0.92633 0.22649
 C523 C 0.03879 0.94705 0.15388
 C524 C 0.06668 0.95092 0.11909
 C525 C 0.11144 0.93969 0.12331
 C526 C 0.12815 0.92480 0.16167
 H527 H 0.15095 0.89566 0.23751
 H528 H -0.00776 0.93461 0.22386
 H529 H 0.00407 0.95520 0.15095
 H530 H 0.16279 0.91632 0.16423
 H531 H 0.02102 0.90623 0.29054
 H532 H 0.13351 0.94239 0.09695
 C533 C 0.90755 0.33330 0.28424
 C534 C 0.89146 0.36070 0.25228
 C535 C 0.88921 0.40534 0.25973
 C536 C 0.90331 0.42223 0.29829
 C537 C 0.91998 0.39419 0.32969
 C538 C 0.92177 0.34985 0.32243
 C539 C 0.93496 0.41086 0.36781
 C540 C 0.93368 0.45542 0.37542
 C541 C 0.91633 0.48307 0.34430
 C542 C 0.90136 0.46663 0.30603
 H543 H 0.87720 0.42700 0.23539
 H544 H 0.93417 0.32789 0.34634
 H545 H 0.94796 0.38896 0.39150
 H546 H 0.88858 0.48868 0.28239
 H547 H 0.90874 0.29879 0.27992
 H548 H 0.91498 0.51747 0.34926
   
