data_POSCAR
  _audit_creation_date              2014-09-24
  _audit_creation_method            'ToBaCCo'
  _symmetry_space_group_name_H-M    'P1'
  _symmetry_Int_Tables_number       1
  _symmetry_cell_setting            triclinic
  loop_
  _symmetry_equiv_pos_as_xyz
 x,y,z
_cell_length_a 21.3906
_cell_length_b 21.5522
_cell_length_c 53.1806
_cell_angle_alpha 82.578300
_cell_angle_beta 92.464000
_cell_angle_gamma 121.309100
loop_
  _atom_site_label
  _atom_site_type_symbol
  _atom_site_fract_x
  _atom_site_fract_y
  _atom_site_fract_z
C1 C -0.00105 0.10912 0.53849
 H2 H 0.04506 0.10131 0.53901
 C3 C -0.00520 0.15151 0.55518
 H4 H 0.03737 0.17380 0.56884
 C5 C -0.11345 0.08524 0.52040
 H6 H -0.15502 0.05952 0.50665
 C7 C -0.11952 0.12818 0.53672
 H8 H -0.16636 0.13493 0.53554
 N9 N -0.05463 0.07678 0.52167
 C10 C -0.01071 -0.09303 0.50955
 H11 H 0.00825 -0.07819 0.48993
 C12 C -0.01679 -0.15576 0.52344
 H13 H -0.00104 -0.18839 0.51462
 C14 C -0.05776 -0.07088 0.54465
 H15 H -0.07583 -0.03914 0.55270
 C16 C -0.06566 -0.13344 0.55903
 H17 H -0.08708 -0.14731 0.57834
 Zn18 Zn -0.03483 0.02522 0.50034
 N19 N -0.03087 -0.05190 0.52035
 C20 C 0.11618 0.09172 0.48357
 N21 N 0.05499 0.09615 0.48340
 C22 C 0.05442 0.15501 0.47093
 C23 C 0.11642 0.21200 0.45753
 C24 C 0.17962 0.14757 0.47015
 C25 C -0.17654 -0.07195 0.48392
 C26 C -0.22555 -0.11731 0.46685
 C27 C -0.13143 -0.05114 0.43390
 C28 C -0.08482 -0.00694 0.45150
 N29 N -0.10711 -0.01922 0.47611
 H30 H 0.11589 0.04504 0.49394
 H31 H 0.00497 0.15704 0.47116
 H32 H 0.11330 0.25681 0.44710
 H33 H 0.22774 0.14310 0.47003
 H34 H -0.19259 -0.08150 0.50372
 H35 H -0.27970 -0.16066 0.47383
 H36 H -0.11006 -0.03850 0.41472
 H37 H -0.02923 0.03454 0.44564
 C38 C -0.04625 -0.17745 0.54828
 C39 C -0.06441 0.16279 0.55419
 C40 C -0.20238 -0.11001 0.44164
 C41 C 0.18030 0.20886 0.45706
 C42 C 1.19851 0.10139 0.13121
 H43 H 1.20735 0.15461 0.13333
 C44 C 1.24714 0.09601 0.11634
 H45 H 1.29344 0.14545 0.10696
 C46 C 1.12704 -0.02769 0.14093
 H47 H 1.08034 -0.07553 0.15074
 C48 C 1.17423 -0.03566 0.12606
 H49 H 1.16365 -0.09003 0.12490
 N50 N 1.13950 0.04009 0.14289
 C51 C 0.96485 0.08358 0.14984
 H52 H 0.95681 0.07604 0.17021
 C53 C 0.91333 0.08822 0.13389
 H54 H 0.86639 0.08450 0.14244
 C55 C 1.03233 0.08975 0.11446
 H56 H 1.07699 0.08741 0.10691
 C57 C 0.98256 0.09497 0.09786
 H58 H 0.99033 0.09766 0.07767
 Zn59 Zn 1.07718 0.05471 0.16211
 N60 N 1.02196 0.08275 0.13996
 C61 C 1.12958 0.18472 0.18566
 N62 N 1.13692 0.12678 0.18321
 C63 C 1.18842 0.11749 0.19603
 C64 C 1.23338 0.16593 0.21286
 C65 C 1.17359 0.23470 0.20237
 C66 C 0.94913 -0.08360 0.17118
 C67 C 0.89106 -0.14235 0.18595
 C68 C 0.95931 -0.09712 0.22347
 C69 C 1.01533 -0.03864 0.20807
 N70 N 1.00899 -0.03237 0.18244
 H71 H 1.08905 0.19166 0.17497
 H72 H 1.19390 0.07161 0.19333
 H73 H 1.27428 0.15742 0.22259
 H74 H 1.16652 0.28003 0.20449
 H75 H 0.94517 -0.07702 0.15077
 H76 H 0.84332 -0.18180 0.17669
 H77 H 0.96450 -0.10035 0.24388
 H78 H 1.06258 0.00289 0.21677
 C79 C 0.92108 0.09233 0.10746
 C80 C 1.23473 0.02694 0.11324
 C81 C 0.89529 -0.14838 0.21252
 C82 C 1.22516 0.22468 0.21663
 C83 C 0.04730 0.88162 0.87167
 H84 H -0.00061 0.82883 0.86948
 C85 C 0.10315 0.88583 0.88723
 H86 H 0.09769 0.83564 0.89669
 C87 C 0.11336 1.01035 0.86060
 H88 H 0.11732 1.05850 0.84990
 C89 C 0.17079 1.01710 0.87598
 H90 H 0.21858 1.07080 0.87723
 N91 N 0.05277 0.94332 0.85903
 C92 C -0.16274 0.91116 0.84631
 H93 H -0.15973 0.92631 0.82600
 C94 C -0.21784 0.90726 0.86090
 H95 H -0.25716 0.91792 0.85109
 C96 C -0.11174 0.88278 0.88314
 H97 H -0.06895 0.87597 0.89194
 C98 C -0.16664 0.87663 0.89838
 H99 H -0.16536 0.86408 0.91873
 Zn100 Zn -0.02557 0.92940 0.83778
 N101 N -0.10988 0.90118 0.85764
 C102 C -0.10796 0.79858 0.81388
 N103 N -0.04095 0.85751 0.81738
 C104 C 0.02055 0.86784 0.80645
 C105 C 0.01624 0.81889 0.79077
 C106 C -0.11488 0.74817 0.79812
 C107 C -0.00096 1.07193 0.82737
 C108 C 0.00159 1.13115 0.81207
 C109 C 0.00231 1.07705 0.77512
 C110 C -0.00094 1.01871 0.79107
 N111 N -0.00369 1.01653 0.81669
 H112 H -0.15596 0.79114 0.82305
 H113 H 0.07324 0.91460 0.80994
 H114 H 0.06645 0.82810 0.78278
 H115 H -0.16860 0.70197 0.79513
 H116 H -0.00404 1.06848 0.84780
 H117 H 0.00273 1.17407 0.82099
 H118 H 0.00236 1.07675 0.75476
 H119 H -0.00437 0.97381 0.78286
 C120 C -0.21906 0.89197 0.88755
 C121 C 0.16560 0.95446 0.88982
 C122 C 0.00111 1.13295 0.78552
 C123 C -0.05241 0.75881 0.78595
 C124 C 0.74450 0.03072 0.00677
 C125 C 0.73212 0.01306 -0.01750
 C126 C 0.65755 -0.01751 -0.02124
 N127 N 0.62422 -0.01849 0.00002
 C128 C 0.67740 0.01085 0.01715
 C129 C 0.62094 -0.04685 -0.04354
 C130 C 0.54879 -0.06139 -0.04817
 C131 C 0.49969 -0.10901 -0.06442
 C132 C 0.43892 -0.10267 -0.06483
 C133 C 0.45115 -0.05359 -0.04811
 N134 N 0.51784 -0.02895 -0.03790
 C135 C 0.40212 -0.03114 -0.04318
 C136 C 0.40269 -0.00405 -0.02036
 C137 C 0.36307 0.02767 -0.01540
 C138 C 0.37120 0.03693 0.00982
 C139 C 0.41608 0.01126 0.01927
 N140 N 0.43547 -0.01353 0.00080
 C141 C 0.43423 0.00570 0.04493
 C142 C 0.49424 -0.00182 0.05247
 C143 C 0.50846 -0.01865 0.07729
 C144 C 0.57416 -0.01577 0.07667
 C145 C 0.59814 0.00280 0.05149
 N146 N 0.54913 0.01105 0.03687
 C147 C 0.66554 0.01552 0.04259
 H148 H 0.79707 0.05553 0.01572
 H149 H 0.77386 0.02272 -0.03089
 H150 H 0.55698 0.03210 0.01776
 H151 H 0.50610 -0.14553 -0.07474
 H152 H 0.39044 -0.13223 -0.07569
 H153 H 0.33065 0.04150 -0.02844
 H154 H 0.34670 0.05968 0.02004
 H155 H 0.60109 -0.02621 0.09292
 H156 H 0.54344 0.01308 -0.02648
 H157 H 0.47527 -0.03123 0.09413
 C158 C -0.08610 0.25964 0.65871
 C159 C -0.07533 0.25791 0.68432
 C160 C -0.05698 0.32587 0.69048
 N161 N -0.05549 0.36926 0.66946
 C162 C -0.07314 0.32889 0.64999
 C163 C -0.03718 0.34818 0.71486
 C164 C -0.03135 0.41235 0.72168
 C165 C 0.00099 0.44382 0.74345
 C166 C -0.00773 0.50261 0.74369
 C167 C -0.04420 0.50620 0.72188
 N168 N -0.05896 0.45067 0.70867
 C169 C -0.06363 0.55940 0.71498
 C170 C -0.08136 0.57499 0.68995
 C171 C -0.10585 0.62270 0.68266
 C172 C -0.10684 0.63022 0.65669
 C173 C -0.08498 0.58520 0.64892
 N174 N -0.06907 0.55183 0.66930
 C175 C -0.07317 0.58079 0.62343
 C176 C -0.06284 0.52606 0.61599
 C177 C -0.04245 0.52530 0.59166
 C178 C -0.04346 0.46097 0.59173
 C179 C -0.06393 0.42445 0.61613
 N180 N -0.07659 0.46396 0.63071
 C181 C -0.07165 0.35573 0.62417
 H182 H -0.10068 0.21530 0.64772
 H183 H -0.08026 0.21190 0.69697
 H184 H -0.10015 0.44605 0.64888
 H185 H 0.02836 0.42658 0.75770
 H186 H 0.01174 0.53929 0.75809
 H187 H -0.11979 0.65081 0.69470
 H188 H -0.12138 0.66554 0.64503
 H189 H -0.03011 0.44338 0.57567
 H190 H -0.09199 0.43588 0.69297
 H191 H -0.02912 0.56636 0.57542
 C192 C 0.67564 0.76390 0.31015
 C193 C 0.66493 0.76743 0.33503
 C194 C 0.62958 0.69609 0.34717
 N195 N 0.61534 0.64893 0.33022
 C196 C 0.64386 0.69045 0.30768
 C197 C 0.61510 0.67473 0.37367
 C198 C 0.55957 0.60250 0.38315
 C199 C 0.55277 0.56967 0.40796
 C200 C 0.49144 0.50062 0.40929
 C201 C 0.46214 0.49300 0.38533
 N202 N 0.50407 0.55519 0.36950
 C203 C 0.39615 0.43131 0.37886
 C204 C 0.37746 0.41826 0.35354
 C205 C 0.30827 0.36864 0.34577
 C206 C 0.31442 0.36864 0.32020
 C207 C 0.38744 0.41730 0.31331
 N208 N 0.42581 0.44793 0.33370
 C209 C 0.41930 0.42905 0.28911
 C210 C 0.49173 0.48578 0.28264
 C211 C 0.53409 0.48799 0.26315
 C212 C 0.59952 0.55363 0.26246
 C213 C 0.59438 0.59027 0.28115
 N214 N 0.52879 0.54809 0.29353
 C215 C 0.64623 0.66289 0.28537
 H216 H 0.70276 0.80991 0.29545
 H217 H 0.68178 0.81706 0.34323
 H218 H 0.50726 0.56432 0.30672
 H219 H 0.58875 0.59231 0.42347
 H220 H 0.47110 0.46055 0.42601
 H221 H 0.25852 0.33594 0.35732
 H222 H 0.27021 0.33592 0.30820
 H223 H 0.64510 0.57219 0.24946
 H224 H 0.49173 0.56721 0.35102
 H225 H 0.51952 0.44642 0.25085
 C226 C -0.07108 0.20802 0.57155
 C227 C -0.01375 0.25764 0.58364
 C228 C -0.01895 0.29851 0.60282
 C229 C -0.07248 0.31266 0.60440
 H230 H 0.04041 0.26754 0.58055
 H231 H 0.02553 0.32019 0.61594
 H232 H -0.12499 0.19911 0.57463
 H233 H -0.11389 0.29810 0.59016
 C234 C 0.83392 0.79457 0.22947
 C235 C 0.76339 0.76862 0.22393
 C236 C 0.70162 0.71825 0.24195
 C237 C 0.70858 0.71177 0.26719
 H238 H 0.74939 0.78526 0.20554
 H239 H 0.64777 0.68863 0.23409
 H240 H 0.84813 0.77786 0.24779
 H241 H 0.76063 0.74711 0.27534
 C242 C 0.22625 -0.03787 -0.09367
 C243 C 0.21609 -0.08601 -0.07321
 C244 C 0.27446 -0.07694 -0.05552
 C245 C 0.34574 -0.04048 -0.06213
 H246 H 0.16153 -0.13109 -0.06768
 H247 H 0.25740 -0.10316 -0.03622
 H248 H 0.27958 0.01121 -0.09759
 H249 H 0.36330 -0.02040 -0.08181
 C250 C -0.05553 0.75486 0.56283
 C251 C -0.11178 0.71216 0.57939
 C252 C -0.12039 0.64777 0.59609
 C253 C -0.06395 0.64048 0.60378
 H254 H -0.15459 0.72425 0.58089
 H255 H -0.17436 0.60865 0.60438
 H256 H -0.01651 0.73918 0.55920
 H257 H -0.00901 0.67970 0.59642
 C258 C 0.26988 0.27652 0.23490
 C259 C 0.29895 0.25821 0.25529
 C260 C 0.34137 0.30788 0.27428
 C261 C 0.37672 0.38097 0.26953
 H262 H 0.28765 0.20281 0.25947
 H263 H 0.34560 0.28279 0.29278
 H264 H 0.27510 0.32968 0.23217
 H265 H 0.37946 0.40709 0.25046
 C266 C 0.73300 -0.10474 -0.09601
 C267 C 0.68575 -0.07898 -0.10345
 C268 C 0.64789 -0.06369 -0.08668
 C269 C 0.65784 -0.06413 -0.06038
 H270 H 0.67772 -0.06809 -0.12333
 H271 H 0.61306 -0.04480 -0.09535
 H272 H 0.73623 -0.12012 -0.07607
 H273 H 0.70139 -0.07134 -0.05270
 C274 C 0.28611 0.02310 0.09661
 C275 C 0.26748 -0.03500 0.08464
 C276 C 0.31590 -0.03577 0.06585
 C277 C 0.38902 0.00785 0.06483
 H278 H 0.21235 -0.08199 0.08678
 H279 H 0.28971 -0.07515 0.05240
 H280 H 0.33906 0.07248 0.09250
 H281 H 0.41707 0.04268 0.07945
 C282 C 0.75252 0.83951 0.42635
 C283 C 0.77378 0.83375 0.40247
 C284 C 0.72997 0.78094 0.38658
 C285 C 0.65679 0.72436 0.39134
 H286 H 0.82903 0.87068 0.39520
 H287 H 0.75744 0.78387 0.36946
 H288 H 0.69804 0.79877 0.43370
 H289 H 0.63303 0.71401 0.41003
 C290 C -0.00295 0.19009 0.76804
 C291 C -0.03374 0.22666 0.77459
 C292 C -0.04716 0.27675 0.75655
 C293 C -0.01671 0.30389 0.73317
 H294 H -0.05579 0.21567 0.79366
 H295 H -0.08508 0.29098 0.76288
 H296 H 0.01376 0.19637 0.74854
 H297 H 0.02085 0.29035 0.72618
 C298 C 0.86369 0.08625 0.08947
 C299 C 0.80620 0.09135 0.09524
 C300 C 0.74655 0.07742 0.07742
 C301 C 0.72505 0.02901 0.06066
 H302 H 0.80278 0.10828 0.11313
 H303 H 0.71744 0.10554 0.07904
 H304 H 0.86892 0.07600 0.07048
 H305 H 0.75308 -0.00030 0.05933
 C306 C 0.24587 0.26609 0.44170
 C307 C 0.26191 0.33557 0.43638
 C308 C 0.32112 0.39143 0.41846
 C309 C 0.34521 0.37476 0.39906
 H310 H 0.23070 0.35334 0.44552
 H311 H 0.34003 0.44825 0.41981
 H312 H 0.28161 0.25019 0.43465
 H313 H 0.32108 0.31804 0.39611
 C314 C -0.06019 0.70668 0.76858
 C315 C -0.01129 0.72563 0.74975
 C316 C -0.01826 0.67715 0.73121
 C317 C -0.06020 0.60397 0.73472
 H318 H 0.03442 0.78130 0.74629
 H319 H 0.01479 0.70363 0.71389
 H320 H -0.10957 0.65308 0.77051
 H321 H -0.08829 0.57556 0.75275
   
