data_POSCAR
  _audit_creation_date              2014-09-24
  _audit_creation_method            'ToBaCCo'
  _symmetry_space_group_name_H-M    'P1'
  _symmetry_Int_Tables_number       1
  _symmetry_cell_setting            triclinic
  loop_
  _symmetry_equiv_pos_as_xyz
 x,y,z
_cell_length_a 31.6797
_cell_length_b 29.7117
_cell_length_c 30.6148
_cell_angle_alpha 90.877100
_cell_angle_beta 87.017600
_cell_angle_gamma 91.966400
loop_
  _atom_site_label
  _atom_site_type_symbol
  _atom_site_fract_x
  _atom_site_fract_y
  _atom_site_fract_z
N1 N 0.17498 1.25855 0.17882
 N2 N 0.14439 1.25418 0.20931
 C3 C 0.11773 1.28819 0.20637
 C4 C 0.13224 1.31528 0.17186
 C5 C 0.16889 1.29553 0.15539
 H6 H 0.08922 1.29182 0.22688
 H7 H 0.18854 1.30602 0.12716
 Cu8 Cu 0.14003 1.20206 0.24715
 Cu9 Cu 0.21712 1.21261 0.16857
 Cu10 Cu 0.22725 1.14361 0.25757
 N11 N 0.14074 1.15244 0.28780
 N12 N 0.17543 1.13041 0.29254
 C13 C 0.16798 1.09875 0.32320
 C14 C 0.12596 1.10057 0.33813
 C15 C 0.10972 1.13515 0.31492
 H16 H 0.19134 1.07570 0.33288
 H17 H 0.07767 1.14673 0.31759
 N18 N 0.26885 1.14684 0.20754
 N19 N 0.26504 1.17267 0.17336
 C20 C 0.29598 1.16342 0.14297
 C21 C 0.31976 1.12948 0.15849
 C22 C 0.30179 1.12002 0.19960
 H23 H 0.29932 1.17812 0.11082
 H24 H 0.31063 1.09398 0.22131
 H25 H 0.19216 1.15818 0.20564
 H26 H 0.21666 1.20808 0.23369
 N27 N 0.80908 0.72938 0.13205
 N28 N 0.82843 0.72509 0.16860
 C29 C 0.86033 0.69651 0.16165
 C30 C 0.86098 0.68237 0.11829
 C31 C 0.82788 0.70388 0.10063
 H32 H 0.88200 0.68746 0.18598
 H33 H 0.81836 0.70179 0.06727
 Cu34 Cu 0.81096 0.75915 0.22076
 Cu35 Cu 0.76237 0.76929 0.12678
 Cu36 Cu 0.73998 0.84080 0.21442
 N37 N 0.80394 0.80502 0.26617
 N38 N 0.77613 0.83661 0.26378
 C39 C 0.78016 0.86560 0.29765
 C40 C 0.81261 0.85162 0.32246
 C41 C 0.82671 0.81284 0.30157
 H42 H 0.76216 0.89568 0.30241
 H43 H 0.85291 0.79297 0.31032
 N44 N 0.70756 0.83937 0.16099
 N45 N 0.71633 0.81201 0.12764
 C46 C 0.69095 0.82058 0.09511
 C47 C 0.66497 0.85518 0.10842
 C48 C 0.67622 0.86615 0.15046
 H49 H 0.69223 0.80371 0.06359
 H50 H 0.66349 0.89277 0.17114
 H51 H 0.78587 0.81501 0.17217
 H52 H 0.74249 0.77507 0.19241
 N53 N 0.85122 1.28711 -0.14480
 N54 N 0.87226 1.29252 -0.18258
 C55 C 0.90195 1.32567 -0.17864
 C56 C 0.89943 1.34168 -0.13586
 C57 C 0.86686 1.31643 -0.11541
 H58 H 0.92483 1.33572 -0.20438
 H59 H 0.85618 1.31832 -0.08131
 Cu60 Cu 0.86201 1.25224 -0.23160
 Cu61 Cu 0.80754 1.24008 -0.13560
 Cu62 Cu 0.77809 1.18026 -0.22796
 N63 N 0.85907 1.20014 -0.27052
 N64 N 0.82604 1.17212 -0.26976
 C65 C 0.83285 1.13916 -0.29978
 C66 C 0.87263 1.14670 -0.32005
 C67 C 0.88821 1.18592 -0.30061
 H68 H 0.81098 1.11119 -0.30556
 H69 H 0.91861 1.20279 -0.30704
 N70 N 0.74391 1.17953 -0.17231
 N71 N 0.75574 1.20154 -0.13698
 C72 C 0.72707 1.19320 -0.10389
 C73 C 0.69575 1.16423 -0.11897
 C74 C 0.70746 1.15629 -0.16255
 H75 H 0.72925 1.20689 -0.07117
 H76 H 0.69118 1.13438 -0.18517
 H77 H 0.82372 1.19582 -0.18665
 H78 H 0.79007 1.24399 -0.19862
 N79 N 0.19747 0.73428 -0.17568
 N80 N 0.17103 0.72918 -0.20722
 C81 C 0.14413 0.69408 -0.19804
 C82 C 0.15427 0.67637 -0.15847
 C83 C 0.18824 0.70274 -0.14529
 H84 H 0.11807 0.68364 -0.21770
 H85 H 0.20413 0.70004 -0.11506
 Cu86 Cu 0.17208 0.77117 -0.25527
 Cu87 Cu 0.23980 0.78346 -0.17458
 Cu88 Cu 0.23482 0.86466 -0.25397
 N89 N 0.16412 0.82082 -0.29423
 N90 N 0.18991 0.85642 -0.29474
 C91 C 0.17723 0.88594 -0.32381
 C92 C 0.14105 0.86820 -0.34219
 C93 C 0.13371 0.82670 -0.32258
 H94 H 0.19218 0.91872 -0.32938
 H95 H 0.10773 0.80301 -0.32789
 N96 N 0.27759 0.86686 -0.20942
 N97 N 0.27967 0.83586 -0.17924
 C98 C 0.31023 0.84837 -0.15208
 C99 C 0.32785 0.88940 -0.16549
 C100 C 0.30651 0.90001 -0.20206
 H101 H 0.31790 0.83008 -0.12343
 H102 H 0.31080 0.93027 -0.22113
 H103 H 0.20243 0.82699 -0.20614
 H104 H 0.24387 0.79777 -0.24051
 Si105 Si 0.49808 1.01471 -0.00734
 Si106 Si 0.03838 0.50728 1.02294
 Si107 Si 0.96278 -0.03838 0.50423
 C108 C 0.11244 0.40718 1.09906
 C109 C 0.07198 0.41978 1.11439
 N110 N 0.05319 0.39927 1.14995
 C111 C 0.07266 0.36613 1.17055
 C112 C 0.11263 0.35199 1.15427
 N113 N 0.13158 0.37350 1.11904
 N114 N 0.13120 0.42756 1.06336
 C115 C 0.11102 0.45956 1.04189
 C116 C 0.07008 0.47133 1.05648
 N117 N 0.05149 0.45106 1.09244
 H118 H 0.05635 0.35041 1.19850
 H119 H 0.12619 0.47433 1.01278
 C120 C -0.05181 0.60266 1.09776
 C121 C -0.05272 0.59588 1.05237
 N122 N -0.08132 0.61721 1.02946
 C123 C -0.10933 0.64511 1.04982
 C124 C -0.10881 0.65217 1.09538
 N125 N -0.07979 0.63071 1.11827
 N126 N -0.02309 0.58089 1.12048
 C127 C 0.00459 0.55249 1.09977
 C128 C 0.00340 0.54570 1.05438
 N129 N -0.02518 0.56775 1.03186
 H130 H -0.13152 0.66160 1.03033
 H131 H 0.02718 0.53562 1.11850
 C132 C -0.05058 0.40951 0.95114
 C133 C -0.01945 0.43512 0.92736
 N134 N -0.01564 0.43028 0.88316
 C135 C -0.04142 0.40084 0.86166
 C136 C -0.07254 0.37503 0.88546
 N137 N -0.07628 0.38028 0.92972
 N138 N -0.05433 0.41390 0.99531
 C139 C -0.02827 0.44275 1.01689
 C140 C 0.00284 0.46843 0.99327
 N141 N 0.00659 0.46409 0.94892
 H142 H -0.03754 0.39772 0.82646
 H143 H -0.03185 0.44566 1.05217
 C144 C 0.11901 0.60444 0.93525
 C145 C 0.08710 0.57699 0.91746
 N146 N 0.07835 0.58159 0.87484
 C147 C 0.09982 0.61269 0.84926
 C148 C 0.13153 0.64059 0.86712
 N149 N 0.14042 0.63539 0.90975
 N150 N 0.12716 0.60075 0.97810
 C151 C 0.10457 0.57102 1.00413
 C152 C 0.07258 0.54364 0.98651
 N153 N 0.06453 0.54723 0.94348
 H154 H 0.09199 0.61564 0.81549
 H155 H 0.11110 0.56923 1.03841
 C156 C 1.03859 0.05265 0.40630
 C157 C 1.05866 0.01936 0.42885
 N158 N 1.10069 0.01363 0.42112
 C159 C 1.12370 0.03962 0.39177
 C160 C 1.10378 0.07323 0.36902
 N161 N 1.06153 0.07877 0.37717
 N162 N 0.99641 0.05801 0.41358
 C163 C 0.97337 0.03153 0.44248
 C164 C 0.99346 -0.00153 0.46527
 N165 N 1.03571 -0.00691 0.45786
 H166 H 1.15710 0.03392 0.38658
 H167 H 0.93975 0.03629 0.44768
 C168 C 1.05188 -0.11215 0.59066
 C169 C 1.06365 -0.07028 0.57241
 N170 N 1.10107 -0.04999 0.58199
 C171 C 1.12731 -0.06945 0.60932
 C172 C 1.11566 -0.11142 0.62813
 N173 N 1.07812 -0.13179 0.61788
 N174 N 1.01385 -0.13182 0.58185
 C175 C 0.98709 -0.11143 0.55557
 C176 C 0.99913 -0.06977 0.53693
 N177 N 1.03705 -0.05006 0.54614
 H178 H 1.15681 -0.05205 0.61606
 H179 H 0.95661 -0.12729 0.54974
 C180 C 0.88546 -0.12262 0.40821
 C181 C 0.87130 -0.08095 0.42407
 N182 N 0.83664 -0.06338 0.40752
 C183 C 0.81580 -0.08521 0.37526
 C184 C 0.83066 -0.12644 0.35817
 N185 N 0.86499 -0.14420 0.37571
 N186 N 0.92067 -0.13978 0.42403
 C187 C 0.94269 -0.11685 0.45471
 C188 C 0.92892 -0.07486 0.47019
 N189 N 0.89355 -0.05781 0.45433
 H190 H 0.78855 -0.06983 0.36272
 H191 H 0.97151 -0.13053 0.46554
 C192 C 0.89193 0.05388 0.60278
 C193 C 0.93349 0.06428 0.58723
 N194 N 0.95378 0.10197 0.60189
 C195 C 0.93457 0.12986 0.63170
 C196 C 0.89298 0.11946 0.64811
 N197 N 0.87271 0.08152 0.63290
 N198 N 0.87171 0.01606 0.58779
 C199 C 0.89132 -0.01185 0.55802
 C200 C 0.93301 -0.00150 0.54283
 N201 N 0.95308 0.03632 0.55792
 H202 H 0.95207 0.15945 0.64252
 H203 H 0.87476 -0.04197 0.54683
 C204 C 0.40407 1.10026 0.07493
 C205 C 0.41139 1.05581 0.08523
 N206 N 0.38993 1.03643 0.11991
 C207 C 0.36111 1.05978 0.14469
 C208 C 0.35283 1.10439 0.13387
 N209 N 0.37470 1.12365 0.09901
 N210 N 0.42757 1.11988 0.03909
 C211 C 0.45725 1.09593 0.01352
 C212 C 0.46234 1.05103 0.02568
 N213 N 0.43969 1.03239 0.06024
 H214 H 0.34411 1.04314 0.17178
 H215 H 0.44105 1.12633 0.02096
 C216 C 0.60004 1.09258 -0.09074
 C217 C 0.59343 1.10176 -0.04586
 N218 N 0.61929 1.13208 -0.02596
 C219 C 0.65183 1.15341 -0.04878
 C220 C 0.65921 1.14373 -0.09365
 N221 N 0.63277 1.11360 -0.11354
 N222 N 0.57438 1.06182 -0.11047
 C223 C 0.54264 1.03949 -0.08722
 C224 C 0.53647 1.04815 -0.04216
 N225 N 0.56206 1.07919 -0.02260
 H226 H 0.67190 1.17715 -0.03171
 H227 H 0.52337 1.01439 -0.10357
 C228 C 0.40855 0.92441 -0.08686
 C229 C 0.41576 0.97005 -0.09684
 N230 N 0.39527 0.98823 -0.12979
 C231 C 0.36759 0.96292 -0.15313
 C232 C 0.35957 0.91732 -0.14273
 N233 N 0.38047 0.89923 -0.10974
 N234 N 0.42922 0.90622 -0.05398
 C235 C 0.45673 0.93169 -0.03051
 C236 C 0.46360 0.97748 -0.04016
 N237 N 0.44274 0.99560 -0.07304
 H238 H 0.35149 0.97865 -0.17885
 H239 H 0.47230 0.91649 -0.00411
 C240 C 0.58398 0.93481 0.07759
 C241 C 0.58010 0.92422 0.03312
 N242 N 0.60299 0.89071 0.01431
 C243 C 0.62988 0.86737 0.03786
 C244 C 0.63447 0.87825 0.08235
 N245 N 0.61114 0.91180 0.10110
 N246 N 0.56109 0.96849 0.09629
 C247 C 0.53453 0.99211 0.07248
 C248 C 0.53085 0.98168 0.02792
 N249 N 0.55396 0.94806 0.00929
 H250 H 0.64780 0.84111 0.02163
 H251 H 0.51734 1.01930 0.08804
   
