data_POSCAR
  _audit_creation_date              2014-09-24
  _audit_creation_method            'ToBaCCo'
  _symmetry_space_group_name_H-M    'P1'
  _symmetry_Int_Tables_number       1
  _symmetry_cell_setting            triclinic
  loop_
  _symmetry_equiv_pos_as_xyz
 x,y,z
_cell_length_a 17.6549
_cell_length_b 18.7271
_cell_length_c 43.5530
_cell_angle_alpha 101.691400
_cell_angle_beta 82.865400
_cell_angle_gamma 118.324200
loop_
  _atom_site_label
  _atom_site_type_symbol
  _atom_site_fract_x
  _atom_site_fract_y
  _atom_site_fract_z
C1 C 0.04784 0.05790 0.54330
 H2 H 0.10768 0.05560 0.54398
 C3 C 0.03421 0.11956 0.56311
 H4 H 0.08337 0.16340 0.57938
 C5 C -0.08693 0.00498 0.52015
 H6 H -0.13202 -0.03697 0.50236
 C7 C -0.10360 0.06534 0.53980
 H8 H -0.16272 0.06760 0.53741
 N9 N -0.01215 0.00226 0.52233
 C10 C 0.09157 -0.17315 0.49771
 H11 H 0.10674 -0.17019 0.47302
 C12 C 0.10748 -0.22550 0.51155
 H13 H 0.13638 -0.26153 0.49747
 C14 C 0.03190 -0.13261 0.54565
 H15 H 0.00043 -0.09786 0.55862
 C16 C 0.04524 -0.18542 0.56030
 H17 H 0.02594 -0.18904 0.58474
 Zn18 Zn 0.02443 -0.06676 0.49359
 N19 N 0.05526 -0.12734 0.51489
 C20 C 0.19800 0.01120 0.46746
 N21 N 0.11766 0.00525 0.47042
 C22 C 0.09761 0.05181 0.45602
 C23 C 0.15887 0.10618 0.43734
 C24 C 0.26093 0.06366 0.44832
 C25 C -0.14405 -0.18884 0.47285
 C26 C -0.20057 -0.25324 0.45130
 C27 C -0.08009 -0.23169 0.41464
 C28 C -0.02709 -0.16603 0.43631
 N29 N -0.05939 -0.14557 0.46475
 H30 H 0.21321 -0.02518 0.47952
 H31 H 0.03322 0.04585 0.45884
 H32 H 0.14087 0.14150 0.42569
 H33 H 0.32419 0.06677 0.44558
 H34 H -0.16751 -0.17508 0.49626
 H35 H -0.26750 -0.28629 0.45849
 H36 H -0.05140 -0.24660 0.39242
 H37 H 0.04100 -0.13314 0.43079
 C38 C 0.08330 -0.23281 0.54312
 C39 C -0.04190 0.12441 0.56125
 C40 C -0.16857 -0.27654 0.42173
 C41 C 0.24137 0.11176 0.43299
 C42 C 0.98776 -0.08187 0.12298
 H43 H 0.93497 -0.09037 0.11002
 C44 C 1.06614 -0.06844 0.10719
 H45 H 1.07215 -0.06757 0.08222
 C46 C 1.04637 -0.06620 0.17138
 H47 H 1.03948 -0.06386 0.19643
 C48 C 1.12638 -0.05054 0.15665
 H49 H 1.17986 -0.03664 0.17059
 N50 N 0.98063 -0.07614 0.15477
 C51 C 0.74252 -0.12391 0.14256
 H52 H 0.72362 -0.17119 0.15670
 C53 C 0.68753 -0.13594 0.11959
 H54 H 0.62634 -0.19121 0.11699
 C55 C 0.84637 0.00254 0.12754
 H56 H 0.90999 0.05433 0.12965
 C57 C 0.79230 -0.00645 0.10448
 H58 H 0.81417 0.03992 0.08959
 Zn59 Zn 0.89181 -0.05328 0.17641
 N60 N 0.82014 -0.05530 0.14643
 C61 C 0.96438 0.12440 0.19851
 N62 N 0.94859 0.04904 0.20361
 C63 C 0.98042 0.04126 0.22894
 C64 C 1.03664 0.11019 0.24854
 C65 C 1.01893 0.19569 0.21830
 C66 C 0.81381 -0.20204 0.20473
 C67 C 0.75143 -0.25297 0.22459
 C68 C 0.70197 -0.15026 0.24051
 C69 C 0.76434 -0.10204 0.22049
 N70 N 0.81828 -0.12842 0.20300
 H71 H 0.93720 0.12987 0.17880
 H72 H 0.96408 -0.01909 0.23347
 H73 H 1.06370 0.10234 0.26785
 H74 H 1.03347 0.25562 0.21363
 H75 H 0.85739 -0.22164 0.19045
 H76 H 0.74800 -0.31162 0.22569
 H77 H 0.65957 -0.12772 0.25397
 H78 H 0.76928 -0.04335 0.21843
 C79 C 0.71186 -0.07678 0.10029
 C80 C 1.13780 -0.04796 0.12441
 C81 C 0.69430 -0.22701 0.24268
 C82 C 1.05802 0.18847 0.24288
 C83 C 0.14824 1.07794 0.87444
 H84 H 0.09657 1.01821 0.86584
 C85 C 0.20141 1.08546 0.89715
 H86 H 0.18939 1.03085 0.90590
 C87 C 0.22490 1.22100 0.87294
 H88 H 0.23363 1.27315 0.86312
 C89 C 0.28012 1.23143 0.89585
 H90 H 0.33157 1.29211 0.90363
 N91 N 0.16071 1.14486 0.86280
 C92 C -0.09888 1.04451 0.83172
 H93 H -0.09070 1.03449 0.80645
 C94 C -0.18087 1.02406 0.84548
 H95 H -0.23552 0.99661 0.83046
 C96 C -0.03676 1.09630 0.88169
 H97 H 0.01978 1.12661 0.89574
 C98 C -0.11691 1.07923 0.89635
 H99 H -0.12031 1.09473 0.92162
 Zn100 Zn 0.08321 1.11811 0.83138
 N101 N -0.02904 1.07884 0.84994
 C102 C 0.03380 0.95881 0.79409
 N103 N 0.09778 1.03709 0.80096
 C104 C 0.17921 1.05878 0.78894
 C105 C 0.19903 1.00083 0.76917
 C106 C 0.05066 0.89899 0.77419
 C107 C 0.07657 1.26333 0.83144
 C108 C 0.06565 1.31911 0.81782
 C109 C 0.11257 1.26686 0.76786
 C110 C 0.12076 1.21078 0.78230
 N111 N 0.10104 1.20893 0.81343
 H112 H -0.02964 0.94174 0.80479
 H113 H 0.22941 1.12094 0.79544
 H114 H 0.26448 1.01920 0.76015
 H115 H -0.00096 0.83687 0.76950
 H116 H 0.05972 1.25951 0.85600
 H117 H 0.04182 1.35911 0.83218
 H118 H 0.12474 1.26484 0.74280
 H119 H 0.13779 1.16568 0.76819
 C120 C -0.19065 1.04264 0.87825
 C121 C 0.26892 1.16276 0.90801
 C122 C 0.08164 1.31980 0.78550
 C123 C 0.13446 0.91961 0.76170
 O124 O 0.48170 -0.07690 0.01129
 O125 O 0.39186 0.02495 -0.02661
 O126 O 0.49504 -0.03937 -0.04465
 O127 O 0.35809 -0.03631 0.02514
 O128 O 0.46071 0.08327 0.04635
 O129 O 0.59932 0.08073 -0.02469
 O130 O 0.49404 0.14563 -0.00612
 O131 O 0.58409 0.04505 0.03077
 Cu132 Cu 0.42167 -0.04366 -0.01072
 Cu133 Cu 0.54418 0.10105 0.01339
 C134 C 0.54825 -0.03258 0.02776
 C135 C 0.42856 0.10319 -0.02287
 C136 C 0.57013 0.01925 -0.04673
 C137 C 0.38592 0.02254 0.04788
 O138 O 0.07910 0.42835 0.63298
 O139 O 0.16631 0.63566 0.68153
 O140 O 0.11872 0.48656 0.69151
 O141 O 0.14227 0.57834 0.62196
 O142 O 0.01287 0.57037 0.63142
 O143 O -0.01231 0.47451 0.70095
 O144 O 0.03412 0.62079 0.69069
 O145 O -0.05152 0.41760 0.64148
 Cu146 Cu 0.13956 0.53332 0.65612
 Cu147 Cu -0.01769 0.51861 0.66682
 C148 C -0.00162 0.38786 0.62896
 C149 C 0.11448 0.66339 0.69430
 C150 C 0.04976 0.46519 0.70818
 C151 C 0.08293 0.59172 0.61514
 O152 O 0.46467 0.55762 0.33261
 O153 O 0.38104 0.38116 0.37460
 O154 O 0.52329 0.52114 0.37490
 O155 O 0.31981 0.42585 0.33359
 O156 O 0.37017 0.35724 0.29708
 O157 O 0.57840 0.46262 0.33589
 O158 O 0.44129 0.32216 0.33800
 O159 O 0.51443 0.49280 0.29404
 Cu160 Cu 0.41596 0.47670 0.35789
 Cu161 Cu 0.48021 0.40104 0.31246
 C162 C 0.50507 0.55569 0.30642
 C163 C 0.39907 0.32247 0.36374
 C164 C 0.58687 0.51168 0.36159
 C165 C 0.31060 0.37599 0.30816
 N166 N -0.11900 0.26418 0.60263
 N167 N -0.13229 0.19341 0.58462
 C168 C -0.05594 0.19199 0.58069
 C169 C 0.00485 0.26474 0.59685
 N170 N -0.03713 0.30781 0.61013
 H171 H 0.07298 0.28521 0.59845
 N172 N 0.52724 0.69027 0.30025
 N173 N 0.57720 0.74949 0.28391
 C174 C 0.62693 0.72260 0.26409
 C175 C 0.60504 0.64411 0.26867
 N176 N 0.54276 0.62651 0.29135
 H177 H 0.63315 0.60466 0.25749
 N178 N 0.43108 0.22458 -0.03643
 N179 N 0.39030 0.24291 -0.05473
 C180 C 0.32792 0.17094 -0.06864
 C181 C 0.33194 0.10790 -0.05818
 N182 N 0.39680 0.14388 -0.03822
 H183 H 0.29352 0.04223 -0.06495
 N184 N 0.15473 0.63708 0.56625
 N185 N 0.15684 0.68361 0.54663
 C186 C 0.09842 0.71051 0.55769
 C187 C 0.05951 0.67798 0.58465
 N188 N 0.09647 0.63262 0.58907
 H189 H 0.01081 0.68764 0.59993
 N190 N 0.18425 0.37810 0.29201
 N191 N 0.11676 0.33065 0.27412
 C192 C 0.12275 0.26111 0.26225
 C193 C 0.19619 0.26757 0.27321
 N194 N 0.23250 0.34120 0.29166
 H195 H 0.22019 0.22274 0.26859
 N196 N 0.59010 -0.02504 -0.10218
 N197 N 0.65319 -0.01959 -0.12303
 C198 C 0.72776 0.02530 -0.10773
 C199 C 0.70795 0.04820 -0.07669
 N200 N 0.62180 0.01558 -0.07437
 H201 H 0.75095 0.08402 -0.05752
 N202 N 0.36197 0.05883 0.10396
 N203 N 0.29762 0.03889 0.12515
 C204 C 0.22527 -0.01583 0.10972
 C205 C 0.24742 -0.02861 0.07833
 N206 N 0.33294 0.01908 0.07575
 H207 H 0.20568 -0.06835 0.05920
 N208 N 0.74226 0.57085 0.35810
 N209 N 0.80999 0.63035 0.37344
 C210 C 0.78034 0.65974 0.40055
 C211 C 0.69120 0.61505 0.40131
 N212 N 0.67049 0.56079 0.37438
 H213 H 0.64544 0.62403 0.41855
 N214 N -0.01191 0.42893 0.75951
 N215 N -0.00336 0.39240 0.78099
 C216 C 0.05836 0.36970 0.77001
 C217 C 0.08758 0.39381 0.74108
 N218 N 0.04212 0.43025 0.73543
 H219 H 0.13584 0.38450 0.72537
 N220 N 0.54460 -0.14922 0.04588
 N221 N 0.58650 -0.16302 0.06533
 C222 C 0.65285 -0.08971 0.07608
 C223 C 0.65030 -0.03051 0.06253
 N224 N 0.58195 -0.07004 0.04396
 H225 H 0.69133 0.03530 0.06689
 N226 N 0.40803 0.20660 0.37705
 N227 N 0.36865 0.15039 0.39562
 C228 C 0.30524 0.16467 0.41152
 C229 C 0.30741 0.23197 0.40221
 N230 N 0.37221 0.25601 0.38071
 H231 H 0.26533 0.25987 0.40982
 N232 N 0.22860 0.79785 0.71594
 N233 N 0.23609 0.86741 0.73357
 C234 C 0.15547 0.85683 0.74175
 C235 C 0.09840 0.77842 0.72850
 N236 N 0.14637 0.74383 0.71271
 H237 H 0.02876 0.74929 0.72979
   
