data_POSCAR
  _audit_creation_date              2014-09-24
  _audit_creation_method            'ToBaCCo'
  _symmetry_space_group_name_H-M    'P1'
  _symmetry_Int_Tables_number       1
  _symmetry_cell_setting            triclinic
  loop_
  _symmetry_equiv_pos_as_xyz
 x,y,z
_cell_length_a 58.1382
_cell_length_b 58.0989
_cell_length_c 21.3493
_cell_angle_alpha 89.956500
_cell_angle_beta 90.017900
_cell_angle_gamma 119.980600
loop_
  _atom_site_label
  _atom_site_type_symbol
  _atom_site_fract_x
  _atom_site_fract_y
  _atom_site_fract_z
O1 O 0.25112 0.45771 0.55827
 O2 O 0.20580 0.45760 0.43739
 O3 O 0.25082 0.45770 0.43673
 O4 O 0.20614 0.45768 0.55895
 O5 O 0.22805 0.50163 0.55878
 O6 O 0.27270 0.50165 0.43660
 O7 O 0.22769 0.50154 0.43726
 O8 O 0.27301 0.50165 0.55810
 Cu9 Cu 0.22626 0.45324 0.49784
 Cu10 Cu 0.25257 0.50605 0.49766
 C11 C 0.26988 0.47970 0.57812
 C12 C 0.20893 0.47956 0.41738
 C13 C 0.26948 0.47968 0.41654
 C14 C 0.20940 0.47965 0.57903
 O15 O 0.54242 -0.20612 0.56325
 O16 O 0.54255 -0.25123 0.44216
 O17 O 0.54244 -0.20631 0.44170
 O18 O 0.54246 -0.25112 0.56371
 O19 O 0.49855 -0.27311 0.56360
 O20 O 0.49852 -0.22834 0.44163
 O21 O 0.49863 -0.27324 0.44209
 O22 O 0.49851 -0.22813 0.56314
 Cu23 Cu 0.54690 -0.22647 0.50274
 Cu24 Cu 0.49412 -0.25293 0.50264
 C25 C 0.52044 -0.20933 0.58314
 C26 C 0.52061 -0.27000 0.42211
 C27 C 0.52046 -0.20961 0.42151
 C28 C 0.52050 -0.26987 0.58374
 O29 O 1.25096 0.79336 0.44087
 O30 O 1.20570 0.74807 0.56175
 O31 O 1.25070 0.79303 0.56242
 O32 O 1.20602 0.74838 0.44019
 O33 O 1.22798 0.72640 0.44022
 O34 O 1.27263 0.77101 0.56241
 O35 O 1.22763 0.72607 0.56173
 O36 O 1.27290 0.77136 0.44090
 Cu37 Cu 1.22613 0.77293 0.50133
 Cu38 Cu 1.25250 0.74649 0.50133
 C39 C 1.26973 0.79016 0.42093
 C40 C 1.20885 0.72925 0.58167
 C41 C 1.26939 0.78973 0.58253
 C42 C 1.20931 0.72970 0.42003
 O43 O 0.79354 0.54249 0.44062
 O44 O 0.74819 0.54261 0.56109
 O45 O 0.79312 0.54250 0.56216
 O46 O 0.74861 0.54256 0.43953
 O47 O 0.72661 0.49861 0.43968
 O48 O 0.77109 0.49855 0.56226
 O49 O 0.72619 0.49867 0.56119
 O50 O 0.77152 0.49854 0.44076
 Cu51 Cu 0.77308 0.54697 0.50084
 Cu52 Cu 0.74663 0.49416 0.50100
 C53 C 0.79034 0.52049 0.42081
 C54 C 0.72937 0.52065 0.58102
 C55 C 0.78979 0.52051 0.58240
 C56 C 0.72994 0.52059 0.41938
 O57 O 0.45788 0.25132 0.44075
 O58 O 0.45792 0.20592 0.56139
 O59 O 0.45798 0.25097 0.56230
 O60 O 0.45786 0.20633 0.43984
 O61 O 0.50178 0.22828 0.43971
 O62 O 0.50190 0.27289 0.56213
 O63 O 0.50183 0.22786 0.56122
 O64 O 0.50179 0.27325 0.44062
 Cu65 Cu 0.45348 0.22642 0.50111
 Cu66 Cu 0.50626 0.25278 0.50092
 C67 C 0.47983 0.27010 0.42076
 C68 C 0.47988 0.20905 0.58118
 C69 C 0.47997 0.26965 0.58236
 C70 C 0.47981 0.20962 0.41956
 O71 O 0.79421 0.25171 0.56168
 O72 O 0.74886 0.20626 0.44121
 O73 O 0.79380 0.25124 0.44013
 O74 O 0.74924 0.20672 0.56276
 O75 O 0.72729 0.22872 0.56253
 O76 O 0.77183 0.27321 0.43993
 O77 O 0.72691 0.22825 0.44103
 O78 O 0.77225 0.27369 0.56145
 Cu79 Cu 0.77375 0.22677 0.50148
 Cu80 Cu 0.74735 0.25319 0.50123
 C81 C 0.79105 0.27054 0.58143
 C82 C 0.73007 0.20943 0.42123
 C83 C 0.79049 0.26990 0.41979
 C84 C 0.73056 0.21004 0.58283
 N85 N 0.97201 0.52673 0.06752
 N86 N 0.95294 0.53230 0.07846
 N87 N 1.02788 0.53851 0.11037
 N88 N 1.04700 0.55166 0.15144
 N89 N 1.02790 0.55464 0.06721
 N90 N 1.04706 0.57926 0.07774
 N91 N 0.97207 0.51061 0.11063
 N92 N 0.95308 0.50476 0.15205
 C93 C 0.94126 0.51825 0.13101
 C94 C 1.05883 0.57692 0.13010
 N95 N 1.02791 0.47292 0.06686
 N96 N 1.04701 0.46737 0.07748
 N97 N 0.97208 0.46107 0.11028
 N98 N 0.95297 0.44788 0.15136
 N99 N 0.97202 0.44500 0.06696
 N100 N 0.95283 0.42038 0.07738
 N101 N 1.02789 0.48897 0.11015
 N102 N 1.04694 0.49480 0.15136
 Mn103 Mn 0.99998 0.49979 0.11098
 C104 C 1.05876 0.48136 0.13001
 C105 C 0.94109 0.42266 0.12986
 N106 N 1.02783 0.55476 -0.06792
 N107 N 1.04695 0.57940 -0.07862
 N108 N 0.97194 0.51076 -0.11092
 N109 N 0.95276 0.50480 -0.15181
 N110 N 0.97194 0.52680 -0.06759
 N111 N 0.95273 0.53221 -0.07781
 N112 N 1.02776 0.53867 -0.11122
 N113 N 1.04678 0.55186 -0.15252
 Mn114 Mn 0.99992 0.54101 -0.00020
 C115 C 1.05863 0.57712 -0.13123
 C116 C 0.94091 0.51816 -0.13018
 N117 N 0.97190 0.44505 -0.06816
 N118 N 0.95282 0.42041 -0.07897
 N119 N 1.02773 0.48910 -0.11143
 N120 N 1.04683 0.49509 -0.15258
 N121 N 1.02780 0.47302 -0.06827
 N122 N 1.04697 0.46759 -0.07887
 N123 N 0.97191 0.46120 -0.11128
 N124 N 0.95288 0.44804 -0.15256
 Mn125 Mn 0.99991 0.45872 -0.00065
 Mn126 Mn 0.99983 0.49993 -0.11184
 Cl127 Cl 0.99991 0.49986 -0.00043
 C128 C 0.94108 0.42274 -0.13144
 C129 C 1.05870 0.48169 -0.13129
 N130 N 0.55498 0.52722 -0.06850
 N131 N 0.57962 0.53278 -0.07925
 N132 N 0.51096 0.53906 -0.11175
 N133 N 0.50498 0.55224 -0.15280
 N134 N 0.52699 0.55515 -0.06849
 N135 N 0.53238 0.57977 -0.07894
 N136 N 0.53889 0.51114 -0.11169
 N137 N 0.55208 0.50531 -0.15298
 C138 C 0.57734 0.51876 -0.13178
 C139 C 0.51832 0.57748 -0.13135
 N140 N 0.44535 0.47344 -0.06857
 N141 N 0.42071 0.46788 -0.07938
 N142 N 0.48939 0.46160 -0.11158
 N143 N 0.49541 0.44843 -0.15250
 N144 N 0.47334 0.44551 -0.06830
 N145 N 0.46798 0.42090 -0.07859
 N146 N 0.46145 0.48952 -0.11178
 N147 N 0.44827 0.49535 -0.15314
 Mn148 Mn 0.50017 0.50033 -0.11233
 C149 C 0.42301 0.48189 -0.13196
 C150 C 0.48208 0.42320 -0.13094
 N151 N 0.52698 0.55518 0.06664
 N152 N 0.53257 0.57984 0.07749
 N153 N 0.53883 0.51114 0.10989
 N154 N 0.55200 0.50517 0.15098
 N155 N 0.55492 0.52720 0.06663
 N156 N 0.57953 0.53262 0.07712
 N157 N 0.51090 0.53905 0.10983
 N158 N 0.50511 0.55224 0.15121
 Mn159 Mn 0.54124 0.54146 -0.00093
 C160 C 0.51858 0.57753 0.13007
 C161 C 0.57722 0.51855 0.12956
 N162 N 0.47330 0.44547 0.06681
 N163 N 0.46776 0.42082 0.07767
 N164 N 0.46142 0.48950 0.10979
 N165 N 0.44823 0.49547 0.15078
 N166 N 0.44535 0.47344 0.06654
 N167 N 0.42074 0.46802 0.07692
 N168 N 0.48935 0.46159 0.11000
 N169 N 0.49519 0.44841 0.15138
 Mn170 Mn 0.45906 0.45919 -0.00088
 Mn171 Mn 0.50012 0.50032 0.11050
 Cl172 Cl 0.50015 0.50033 -0.00091
 C173 C 0.48176 0.42313 0.13025
 C174 C 0.42301 0.48209 0.12929
 N175 N 0.44509 -0.02803 0.06746
 N176 N 0.42044 -0.04710 0.07817
 N177 N 0.48914 0.02783 0.11054
 N178 N 0.49511 0.04697 0.15153
 N179 N 0.47314 0.02790 0.06720
 N180 N 0.46775 0.04713 0.07753
 N181 N 0.46115 -0.02802 0.11076
 N182 N 0.44793 -0.04704 0.15208
 C183 C 0.42268 -0.05883 0.13078
 C184 C 0.48179 0.05888 0.12996
 N185 N 0.55472 0.02772 0.06786
 N186 N 0.57937 0.04676 0.07874
 N187 N 0.51061 -0.02813 0.11104
 N188 N 0.50464 -0.04722 0.15226
 N189 N 0.52667 -0.02821 0.06790
 N190 N 0.53210 -0.04739 0.07861
 N191 N 0.53860 0.02772 0.11095
 N192 N 0.55178 0.04673 0.15229
 Mn193 Mn 0.49987 -0.00015 0.11144
 C194 C 0.57706 0.05849 0.13123
 C195 C 0.51802 -0.05911 0.13104
 N196 N 0.47321 0.02790 -0.06793
 N197 N 0.46771 0.04702 -0.07887
 N198 N 0.46129 -0.02805 -0.11082
 N199 N 0.44812 -0.04722 -0.15179
 N200 N 0.44520 -0.02803 -0.06766
 N201 N 0.42059 -0.04722 -0.07809
 N202 N 0.48929 0.02781 -0.11104
 N203 N 0.49517 0.04683 -0.15244
 Mn204 Mn 0.45889 -0.00007 -0.00024
 C205 C 0.48175 0.05870 -0.13141
 C206 C 0.42289 -0.05903 -0.13039
 N207 N 0.52676 -0.02826 -0.06722
 N208 N 0.53226 -0.04740 -0.07782
 N209 N 0.53874 0.02767 -0.11062
 N210 N 0.55195 0.04685 -0.15157
 N211 N 0.55477 0.02767 -0.06725
 N212 N 0.57938 0.04688 -0.07752
 N213 N 0.51075 -0.02819 -0.11054
 N214 N 0.50489 -0.04724 -0.15176
 Mn215 Mn 0.54101 -0.00027 0.00032
 Mn216 Mn 0.50002 -0.00019 -0.11138
 Cl217 Cl 0.49995 -0.00017 0.00003
 C218 C 0.51828 -0.05912 -0.13038
 C219 C 0.57715 0.05870 -0.12995
 C220 C 1.15478 0.47972 0.29983
 C221 C 1.12689 0.46481 0.32866
 C222 C 1.10779 0.46498 0.29208
 C223 C 1.11841 0.48005 0.23014
 C224 C 1.13282 0.46704 0.19866
 C225 C 1.15196 0.46687 0.23535
 C226 C 1.15963 0.50772 0.28581
 C227 C 1.14051 0.50789 0.24918
 C228 C 1.17513 0.47958 0.34030
 C229 C 1.19131 0.47954 0.37560
 C230 C 1.09759 0.48031 0.19171
 C231 C 1.08007 0.48068 0.16232
 H232 H 1.12250 0.45494 0.37388
 H233 H 1.08707 0.45526 0.30598
 H234 H 1.12840 0.45873 0.15175
 H235 H 1.16395 0.45841 0.21987
 H236 H 1.17661 0.52583 0.30301
 H237 H 1.14113 0.52615 0.23504
 C238 C 0.52042 0.67491 0.30144
 C239 C 0.52941 0.65746 0.33540
 C240 C 0.52921 0.63827 0.29850
 C241 C 0.52004 0.63834 0.23113
 C242 C 0.53847 0.66667 0.20702
 C243 C 0.53867 0.68592 0.24402
 C244 C 0.49291 0.65535 0.27478
 C245 C 0.49271 0.63613 0.23783
 C246 C 0.52059 0.69533 0.34221
 C247 C 0.52064 0.71150 0.37768
 C248 C 0.51974 0.61735 0.19235
 C249 C 0.51932 0.59949 0.16268
 H250 H 0.53543 0.65997 0.38422
 H251 H 0.53506 0.62436 0.31574
 H252 H 0.55028 0.67121 0.16464
 H253 H 0.55066 0.70694 0.23335
 H254 H 0.47516 0.65653 0.28402
 H255 H 0.47479 0.62085 0.21541
 C256 C 0.32504 -0.15475 0.30092
 C257 C 0.34482 -0.16254 0.27490
 C258 C 0.36411 -0.14344 0.23822
 C259 C 0.36174 -0.11841 0.23113
 C260 C 0.36147 -0.10923 0.29838
 C261 C 0.34222 -0.12831 0.33500
 C262 C 0.31419 -0.14755 0.24311
 C263 C 0.33350 -0.12842 0.20638
 C264 C 0.30455 -0.17508 0.34141
 C265 C 0.28831 -0.19126 0.37668
 C266 C 0.38280 -0.09762 0.19265
 C267 C 0.40070 -0.08011 0.16320
 H268 H 0.34374 -0.18143 0.28435
 H269 H 0.37955 -0.14597 0.21625
 H270 H 0.37522 -0.08945 0.31573
 H271 H 0.33947 -0.12485 0.38370
 H272 H 0.29321 -0.15668 0.23197
 H273 H 0.32907 -0.12117 0.16379
 C274 C 0.84544 0.52009 0.30120
 C275 C 0.87182 0.52919 0.33545
 C276 C 0.89087 0.52895 0.29890
 C277 C 0.88176 0.51964 0.23155
 C278 C 0.87187 0.53801 0.20689
 C279 C 0.85276 0.53825 0.24355
 C280 C 0.83758 0.49253 0.27497
 C281 C 0.85667 0.49229 0.23836
 C282 C 0.82512 0.52031 0.34159
 C283 C 0.80894 0.52043 0.37674
 C284 C 0.90253 0.51933 0.19310
 C285 C 0.92001 0.51893 0.16360
 H286 H 0.87524 0.53530 0.38421
 H287 H 0.91060 0.53486 0.31637
 H288 H 0.87920 0.54976 0.16441
 H289 H 0.84372 0.55020 0.23245
 H290 H 0.81866 0.47477 0.28422
 H291 H 0.85410 0.47433 0.21626
 C292 C 0.48008 0.32550 0.30076
 C293 C 0.46316 0.33682 0.32671
 C294 C 0.46335 0.35610 0.29003
 C295 C 0.48044 0.36221 0.23089
 C296 C 0.46968 0.33537 0.19748
 C297 C 0.46948 0.31604 0.23426
 C298 C 0.50785 0.34974 0.29151
 C299 C 0.50804 0.36903 0.25480
 C300 C 0.47991 0.30499 0.34129
 C301 C 0.47984 0.28872 0.37655
 C302 C 0.48071 0.38328 0.19233
 C303 C 0.48109 0.40117 0.16279
 H304 H 0.45196 0.33025 0.37010
 H305 H 0.45232 0.36602 0.30202
 H306 H 0.46284 0.33185 0.14926
 H307 H 0.46248 0.29597 0.21755
 H308 H 0.52580 0.35157 0.31189
 H309 H 0.52616 0.38737 0.24375
 C310 C 0.67469 0.15429 0.30150
 C311 C 0.68473 0.15140 0.23708
 C312 C 0.66541 0.13229 0.20037
 C313 C 0.63797 0.11798 0.23176
 C314 C 0.63236 0.14019 0.25068
 C315 C 0.65165 0.15927 0.28732
 C316 C 0.66158 0.12637 0.33039
 C317 C 0.64230 0.10732 0.29378
 C318 C 0.69520 0.17462 0.34194
 C319 C 0.71146 0.19081 0.37712
 C320 C 0.61690 0.09721 0.19327
 C321 C 0.59902 0.07974 0.16377
 H322 H 0.70518 0.16331 0.22165
 H323 H 0.66930 0.12783 0.15351
 H324 H 0.61479 0.14090 0.23644
 H325 H 0.65061 0.17632 0.30445
 H326 H 0.66698 0.12195 0.37565
 H327 H 0.63121 0.08658 0.30772
 C328 C 0.48015 0.15480 -0.30156
 C329 C 0.46841 0.12763 -0.33376
 C330 C 0.46860 0.10852 -0.29721
 C331 C 0.48051 0.11838 -0.23192
 C332 C 0.46442 0.13030 -0.20397
 C333 C 0.46423 0.14946 -0.24061
 C334 C 0.50806 0.16141 -0.28066
 C335 C 0.50825 0.14227 -0.24406
 C336 C 0.47998 0.17518 -0.34196
 C337 C 0.47991 0.19139 -0.37717
 C338 C 0.48077 0.09755 -0.19348
 C339 C 0.48112 0.08002 -0.16398
 H340 H 0.46060 0.12373 -0.38116
 H341 H 0.46095 0.08826 -0.31334
 H342 H 0.45412 0.12425 -0.15936
 H343 H 0.45377 0.15983 -0.22739
 H344 H 0.52609 0.17955 -0.29338
 H345 H 0.52644 0.14402 -0.22545
 C346 C 0.67499 0.52046 -0.30169
 C347 C 0.68470 0.53212 -0.23606
 C348 C 0.66538 0.53193 -0.19941
 C349 C 0.63827 0.52010 -0.23204
 C350 C 0.63198 0.49235 -0.25365
 C351 C 0.65127 0.49254 -0.29024
 C352 C 0.66288 0.53646 -0.32911
 C353 C 0.64361 0.53627 -0.29255
 C354 C 0.69550 0.52062 -0.34210
 C355 C 0.71174 0.52067 -0.37733
 C356 C 0.61719 0.51982 -0.19362
 C357 C 0.59930 0.51944 -0.16420
 H358 H 0.70494 0.53982 -0.21983
 H359 H 0.66905 0.53946 -0.15177
 H360 H 0.61397 0.47414 -0.24119
 H361 H 0.64978 0.47450 -0.30911
 H362 H 0.66895 0.54706 -0.37338
 H363 H 0.63318 0.54670 -0.30553
 C364 C 0.84517 0.32504 -0.30135
 C365 C 0.86720 0.31925 -0.28175
 C366 C 0.88630 0.33858 -0.24516
 C367 C 0.88150 0.36180 -0.23174
 C368 C 0.85356 0.34895 -0.20305
 C369 C 0.83445 0.32960 -0.23968
 C370 C 0.85971 0.35241 -0.33299
 C371 C 0.87878 0.37170 -0.29647
 C372 C 0.82485 0.30450 -0.34174
 C373 C 0.80868 0.28822 -0.37694
 C374 C 0.90229 0.38289 -0.19333
 C375 C 0.91980 0.40079 -0.16390
 H376 H 0.86772 0.30151 -0.29530
 H377 H 0.90317 0.33738 -0.22738
 H378 H 0.84919 0.35452 -0.15797
 H379 H 0.81370 0.31860 -0.22598
 H380 H 0.85539 0.35630 -0.38003
 H381 H 0.89077 0.39211 -0.31224
 C382 C 0.52005 -0.15521 -0.29963
 C383 C 0.54225 -0.14365 -0.25033
 C384 C 0.54202 -0.12450 -0.21382
 C385 C 0.51961 -0.11882 -0.23024
 C386 C 0.49399 -0.14587 -0.22589
 C387 C 0.49422 -0.16501 -0.26239
 C388 C 0.52338 -0.13110 -0.33672
 C389 C 0.52315 -0.11200 -0.30030
 C390 C 0.52027 -0.17557 -0.33993
 C391 C 0.52038 -0.19174 -0.37514
 C392 C 0.51931 -0.09799 -0.19196
 C393 C 0.51893 -0.08045 -0.16266
 H394 H 0.55682 -0.14997 -0.24454
 H395 H 0.55640 -0.11442 -0.17676
 H396 H 0.47717 -0.14967 -0.19665
 H397 H 0.47761 -0.18520 -0.26439
 H398 H 0.52572 -0.12918 -0.38724
 H399 H 0.52529 -0.09374 -0.31966
 C400 C 0.32532 0.48008 -0.30204
 C401 C 0.34237 0.47064 -0.33604
 C402 C 0.36166 0.47086 -0.29947
 C403 C 0.36207 0.48050 -0.23236
 C404 C 0.33386 0.46241 -0.20728
 C405 C 0.31451 0.46219 -0.24395
 C406 C 0.34520 0.50770 -0.27647
 C407 C 0.36452 0.50793 -0.23984
 C408 C 0.30478 0.47987 -0.34246
 C409 C 0.28851 0.47976 -0.37767
 C410 C 0.38316 0.48081 -0.19391
 C411 C 0.40105 0.48121 -0.16445
 H412 H 0.33953 0.46431 -0.38464
 H413 H 0.37533 0.46472 -0.31677
 H414 H 0.32947 0.45084 -0.16451
 H415 H 0.29355 0.45042 -0.23259
 H416 H 0.34416 0.52551 -0.28617
 H417 H 0.38003 0.52593 -0.21818
 C418 C 1.15470 0.67484 -0.30094
 C419 C 1.15570 0.64894 -0.29976
 C420 C 1.13659 0.62964 -0.26320
 C421 C 1.11830 0.63809 -0.23135
 C422 C 1.10720 0.64726 -0.28502
 C423 C 1.12630 0.66655 -0.32155
 C424 C 1.15620 0.68290 -0.23190
 C425 C 1.13704 0.66355 -0.19527
 C426 C 1.17505 0.69536 -0.34134
 C427 C 1.19123 0.71161 -0.37660
 C428 C 1.09748 0.61700 -0.19298
 C429 C 1.07994 0.59910 -0.16360
 H430 H 1.17020 0.64604 -0.32530
 H431 H 1.13472 0.61021 -0.25745
 H432 H 1.08615 0.63931 -0.29352
 H433 H 1.12161 0.67512 -0.36134
 H434 H 1.17099 0.70207 -0.21344
 H435 H 1.13542 0.66615 -0.14543
 C436 C 0.84462 0.52003 -0.29769
 C437 C 0.83579 0.49307 -0.26644
 C438 C 0.85495 0.49278 -0.23021
 C439 C 0.88105 0.51947 -0.22883
 C440 C 0.87320 0.53985 -0.20739
 C441 C 0.85403 0.54014 -0.24366
 C442 C 0.86994 0.52649 -0.33392
 C443 C 0.88907 0.52620 -0.29777
 C444 C 0.82429 0.52030 -0.33777
 C445 C 0.80818 0.52045 -0.37303
 C446 C 0.90190 0.51912 -0.19094
 C447 C 0.91949 0.51874 -0.16202
 H448 H 0.81620 0.47576 -0.27214
 H449 H 0.85178 0.47522 -0.20487
 H450 H 0.88190 0.55284 -0.16727
 H451 H 0.84628 0.55338 -0.23462
 H452 H 0.87263 0.53093 -0.38369
 H453 H 0.90813 0.53038 -0.31657
 C454 C 0.48044 0.32506 -0.29808
 C455 C 0.46524 0.33775 -0.32698
 C456 C 0.46550 0.35718 -0.29093
 C457 C 0.48093 0.36206 -0.22944
 C458 C 0.50870 0.36782 -0.24915
 C459 C 0.50844 0.34836 -0.28525
 C460 C 0.46797 0.31535 -0.23310
 C461 C 0.46823 0.33484 -0.19695
 C462 C 0.48018 0.30443 -0.33803
 C463 C 0.48005 0.28815 -0.37318
 C464 C 0.48124 0.38327 -0.19166
 C465 C 0.48157 0.40124 -0.16279
 H466 H 0.45513 0.33196 -0.37185
 H467 H 0.45560 0.36802 -0.30491
 H468 H 0.52696 0.38558 -0.23583
 H469 H 0.52648 0.34946 -0.30284
 H470 H 0.45971 0.29501 -0.21693
 H471 H 0.46019 0.33121 -0.14978
 C472 C 0.67525 0.15513 -0.29733
 C473 C 0.65383 0.16169 -0.27715
 C474 C 0.63439 0.14250 -0.24098
 C475 C 0.63829 0.11864 -0.22855
 C476 C 0.66615 0.13055 -0.19983
 C477 C 0.68562 0.14977 -0.23606
 C478 C 0.66004 0.12800 -0.32978
 C479 C 0.64063 0.10884 -0.29366
 C480 C 0.69585 0.17550 -0.33737
 C481 C 0.71210 0.19163 -0.37261
 C482 C 0.61709 0.09776 -0.19070
 C483 C 0.59912 0.08013 -0.16180
 H484 H 0.65396 0.17983 -0.29002
 H485 H 0.61786 0.14420 -0.22285
 H486 H 0.67022 0.12446 -0.15503
 H487 H 0.70637 0.16015 -0.22232
 H488 H 0.66417 0.12416 -0.37702
 H489 H 0.62814 0.08859 -0.30997
 C490 C 1.15465 0.48001 -0.30055
 C491 C 1.12644 0.45768 -0.31588
 C492 C 1.10737 0.45792 -0.27936
 C493 C 1.11836 0.48047 -0.23103
 C494 C 1.13442 0.50600 -0.26935
 C495 C 1.15349 0.50576 -0.30588
 C496 C 1.15824 0.47693 -0.23034
 C497 C 1.13913 0.47718 -0.19372
 C498 C 1.17492 0.47979 -0.34095
 C499 C 1.19100 0.47968 -0.37637
 C500 C 1.09758 0.48078 -0.19276
 C501 C 1.08004 0.48113 -0.16351
 H502 H 1.12183 0.44292 -0.35219
 H503 H 1.08644 0.44337 -0.28437
 H504 H 1.13114 0.52282 -0.26783
 H505 H 1.16654 0.52237 -0.33565
 H506 H 1.17435 0.47477 -0.21113
 H507 H 1.13884 0.47521 -0.14312
 C508 C 0.52010 0.67566 -0.29910
 C509 C 0.52965 0.65877 -0.33348
 C510 C 0.52937 0.63934 -0.29734
 C511 C 0.51957 0.63864 -0.23027
 C512 C 0.49217 0.63617 -0.23778
 C513 C 0.49244 0.65564 -0.27398
 C514 C 0.53785 0.68626 -0.24080
 C515 C 0.53757 0.66677 -0.20455
 C516 C 0.52036 0.69629 -0.33914
 C517 C 0.52047 0.71257 -0.37436
 C518 C 0.51924 0.61743 -0.19237
 C519 C 0.51887 0.59945 -0.16337
 H520 H 0.53609 0.66183 -0.38201
 H521 H 0.53558 0.62576 -0.31493
 H522 H 0.47414 0.62054 -0.21643
 H523 H 0.47466 0.65669 -0.28365
 H524 H 0.54955 0.70719 -0.22900
 H525 H 0.54903 0.67099 -0.16167
 C526 C 0.32479 -0.15533 -0.29792
 C527 C 0.31412 -0.14701 -0.24173
 C528 C 0.33359 -0.12782 -0.20552
 C529 C 0.36177 -0.11888 -0.22917
 C530 C 0.36211 -0.11030 -0.29730
 C531 C 0.34269 -0.12943 -0.33339
 C532 C 0.34383 -0.16364 -0.26966
 C533 C 0.36329 -0.14447 -0.23349
 C534 C 0.30416 -0.17568 -0.33791
 C535 C 0.28789 -0.19182 -0.37306
 C536 C 0.38298 -0.09803 -0.19131
 C537 C 0.40094 -0.08043 -0.16236
 H538 H 0.29315 -0.15547 -0.23125
 H539 H 0.32932 -0.11983 -0.16402
 H540 H 0.37636 -0.09086 -0.31561
 H541 H 0.34032 -0.12638 -0.38262
 H542 H 0.34215 -0.18290 -0.27726
 H543 H 0.37828 -0.14730 -0.21011
 C544 C 0.51998 -0.15489 0.30095
 C545 C 0.53894 -0.14678 0.24473
 C546 C 0.53863 -0.12770 0.20800
 C547 C 0.51940 -0.11867 0.23121
 C548 C 0.52766 -0.10986 0.29919
 C549 C 0.52796 -0.12888 0.33580
 C550 C 0.49263 -0.16328 0.27263
 C551 C 0.49233 -0.14422 0.23594
 C552 C 0.52027 -0.17513 0.34145
 C553 C 0.52041 -0.19120 0.37691
 C554 C 0.51903 -0.09793 0.19279
 C555 C 0.51863 -0.08043 0.16342
 H556 H 0.55144 -0.15528 0.23461
 H557 H 0.55088 -0.11985 0.16641
 H558 H 0.53284 -0.09035 0.31703
 H559 H 0.53340 -0.12566 0.38500
 H560 H 0.47507 -0.18250 0.28057
 H561 H 0.47451 -0.14712 0.21246
 C562 C 0.32487 0.48017 0.29692
 C563 C 0.33937 0.50503 0.25558
 C564 C 0.35884 0.50533 0.21938
 C565 C 0.36187 0.48075 0.22812
 C566 C 0.33417 0.45693 0.21519
 C567 C 0.31469 0.45662 0.25141
 C568 C 0.34685 0.47926 0.33475
 C569 C 0.36627 0.47957 0.29863
 C570 C 0.30425 0.47988 0.33694
 C571 C 0.28797 0.47974 0.37211
 C572 C 0.38307 0.48112 0.19023
 C573 C 0.40105 0.48151 0.16126
 H574 H 0.33472 0.52095 0.25472
 H575 H 0.37087 0.52152 0.18750
 H576 H 0.33019 0.44170 0.18060
 H577 H 0.29403 0.44113 0.24787
 H578 H 0.34714 0.47844 0.38554
 H579 H 0.38319 0.47902 0.31849
 C580 C 1.15464 0.67461 0.29948
 C581 C 1.12632 0.66405 0.32410
 C582 C 1.10729 0.64475 0.28754
 C583 C 1.11841 0.63785 0.22987
 C584 C 1.13858 0.63061 0.25601
 C585 C 1.15763 0.64994 0.29260
 C586 C 1.15423 0.68372 0.23214
 C587 C 1.13514 0.66436 0.19548
 C588 C 1.17487 0.69511 0.33993
 C589 C 1.19093 0.71128 0.37539
 C590 C 1.09767 0.61676 0.19156
 C591 C 1.08015 0.59885 0.16230
 H592 H 1.12161 0.67115 0.36652
 H593 H 1.08628 0.63531 0.29865
 H594 H 1.13800 0.61197 0.24650
 H595 H 1.17336 0.64785 0.31443
 H596 H 1.16772 0.70358 0.21481
 H597 H 1.13228 0.66762 0.14672
 C598 C 0.48010 0.15490 0.29895
 C599 C 0.46757 0.12751 0.33040
 C600 C 0.46781 0.10845 0.29388
 C601 C 0.48055 0.11860 0.22941
 C602 C 0.50834 0.14207 0.24331
 C603 C 0.50810 0.16116 0.27988
 C604 C 0.46495 0.15023 0.23703
 C605 C 0.46518 0.13111 0.20040
 C606 C 0.47989 0.17517 0.33938
 C607 C 0.47981 0.19124 0.37485
 C608 C 0.48085 0.09781 0.19116
 C609 C 0.48121 0.08026 0.16199
 H610 H 0.45921 0.12343 0.37728
 H611 H 0.45965 0.08804 0.30950
 H612 H 0.52659 0.14359 0.22585
 H613 H 0.52615 0.17904 0.29375
 H614 H 0.45496 0.16100 0.22316
 H615 H 0.45540 0.12549 0.15513
 C616 C 0.67491 0.52026 0.29872
 C617 C 0.68399 0.52980 0.23140
 C618 C 0.66463 0.52956 0.19476
 C619 C 0.63815 0.51981 0.22917
 C620 C 0.64506 0.53781 0.28687
 C621 C 0.66437 0.53805 0.32340
 C622 C 0.65025 0.49262 0.29181
 C623 C 0.63093 0.49238 0.25525
 C624 C 0.69539 0.52048 0.33916
 C625 C 0.71156 0.52058 0.37464
 C626 C 0.61707 0.51950 0.19090
 C627 C 0.59916 0.51913 0.16169
 H628 H 0.70384 0.53616 0.21406
 H629 H 0.66788 0.53571 0.14601
 H630 H 0.63564 0.54940 0.29802
 H631 H 0.67148 0.54984 0.36584
 H632 H 0.64817 0.47478 0.31360
 H633 H 0.61230 0.47434 0.24573
 C634 C 0.84516 0.32492 0.29903
 C635 C 0.84571 0.35157 0.30265
 C636 C 0.86477 0.37089 0.26607
 C637 C 0.88143 0.36168 0.22943
 C638 C 0.86119 0.33722 0.19240
 C639 C 0.84208 0.31786 0.22907
 C640 C 0.87345 0.33145 0.31579
 C641 C 0.89251 0.35076 0.27922
 C642 C 0.82490 0.30444 0.33951
 C643 C 0.80885 0.28828 0.37503
 C644 C 0.90220 0.38277 0.19115
 C645 C 0.91974 0.40070 0.16195
 H646 H 0.83227 0.35496 0.33133
 H647 H 0.86766 0.39083 0.26342
 H648 H 0.86180 0.33529 0.14194
 H649 H 0.82631 0.29933 0.21005
 H650 H 0.87812 0.32171 0.35305
 H651 H 0.91350 0.35756 0.28515
   
