data_POSCAR
  _audit_creation_date              2014-09-24
  _audit_creation_method            'ToBaCCo'
  _symmetry_space_group_name_H-M    'P1'
  _symmetry_Int_Tables_number       1
  _symmetry_cell_setting            triclinic
  loop_
  _symmetry_equiv_pos_as_xyz
 x,y,z
_cell_length_a 69.6446
_cell_length_b 69.6738
_cell_length_c 21.0612
_cell_angle_alpha 90.016900
_cell_angle_beta 89.987300
_cell_angle_gamma 120.024500
loop_
  _atom_site_label
  _atom_site_type_symbol
  _atom_site_fract_x
  _atom_site_fract_y
  _atom_site_fract_z
C1 C 0.24528 0.49154 0.52815
 C2 C 0.24492 0.49140 0.46338
 C3 C 0.22586 0.48988 0.42733
 C4 C 0.26345 0.49251 0.42550
 C5 C 0.26278 0.48998 0.56422
 C6 C 0.22805 0.49303 0.56596
 C7 C 0.20415 0.47253 0.43873
 C8 C 0.18628 0.47159 0.40580
 C9 C 0.18994 0.48785 0.36060
 C10 C 0.21162 0.50489 0.34800
 C11 C 0.22949 0.50583 0.38101
 C12 C 0.25912 0.47620 0.37966
 C13 C 0.27652 0.47658 0.34554
 C14 C 0.29840 0.49338 0.35652
 C15 C 0.30278 0.51002 0.40100
 C16 C 0.28539 0.50968 0.43510
 C17 C 0.27537 0.50610 0.60993
 C18 C 0.29230 0.50512 0.64279
 C19 C 0.29667 0.48791 0.63067
 C20 C 0.28384 0.47150 0.58620
 C21 C 0.26689 0.47244 0.55338
 C22 C 0.22347 0.51028 0.55569
 C23 C 0.20658 0.51095 0.58968
 C24 C 0.19428 0.49455 0.63474
 C25 C 0.19917 0.47768 0.64640
 C26 C 0.21604 0.47697 0.61239
 H27 H 0.20107 0.45983 0.47338
 H28 H 0.16964 0.45823 0.41595
 H29 H 0.21477 0.51757 0.31308
 H30 H 0.24612 0.51924 0.37128
 H31 H 0.24232 0.46291 0.37135
 H32 H 0.27295 0.46364 0.31118
 H33 H 0.28903 0.52264 0.46940
 H34 H 0.27235 0.51966 0.61924
 H35 H 0.30210 0.51788 0.67720
 H36 H 0.28701 0.45805 0.57667
 H37 H 0.25708 0.45961 0.51922
 H38 H 0.23283 0.52305 0.52092
 H39 H 0.20298 0.52413 0.58044
 H40 H 0.18977 0.46492 0.68122
 H41 H 0.21940 0.46361 0.62124
 H42 H 0.31964 0.52314 0.40969
 C43 C 0.50845 -0.24653 0.53308
 C44 C 0.50858 -0.24631 0.46831
 C45 C 0.50738 -0.26494 0.43078
 C46 C 0.51015 -0.22732 0.43187
 C47 C 0.50711 -0.22916 0.57053
 C48 C 0.50988 -0.26403 0.56952
 C49 C 0.52366 -0.26074 0.38491
 C50 C 0.52315 -0.27821 0.35087
 C51 C 0.50626 -0.30003 0.36194
 C52 C 0.48967 -0.30429 0.40652
 C53 C 0.49015 -0.28683 0.44055
 C54 C 0.52758 -0.20562 0.44282
 C55 C 0.52857 -0.18782 0.40939
 C56 C 0.51230 -0.19156 0.36425
 C57 C 0.49518 -0.21319 0.35210
 C58 C 0.49416 -0.23100 0.38555
 C59 C 0.48994 -0.22446 0.56006
 C60 C 0.48943 -0.20741 0.59364
 C61 C 0.50590 -0.19507 0.63848
 C62 C 0.52269 -0.20008 0.65036
 C63 C 0.52324 -0.21710 0.61676
 C64 C 0.49366 -0.27652 0.61510
 C65 C 0.49443 -0.29353 0.64809
 C66 C 0.51156 -0.29809 0.63622
 C67 C 0.52809 -0.28532 0.59191
 C68 C 0.52733 -0.26830 0.55898
 H69 H 0.53701 -0.24398 0.37645
 H70 H 0.53605 -0.27473 0.31642
 H71 H 0.47648 -0.32111 0.41529
 H72 H 0.47721 -0.29037 0.47487
 H73 H 0.54031 -0.20249 0.47746
 H74 H 0.54194 -0.17115 0.41895
 H75 H 0.48069 -0.24762 0.37615
 H76 H 0.47711 -0.23384 0.52543
 H77 H 0.47631 -0.20373 0.58424
 H78 H 0.53550 -0.19065 0.68501
 H79 H 0.53654 -0.22055 0.62576
 H80 H 0.48016 -0.27338 0.62416
 H81 H 0.48156 -0.30324 0.68234
 H82 H 0.54149 -0.28858 0.58243
 H83 H 0.54023 -0.25856 0.52489
 H84 H 0.48254 -0.21626 0.31717
 C85 C 1.24624 0.75473 0.53482
 C86 C 1.24672 0.75489 0.47006
 C87 C 1.26442 0.77383 0.43403
 C88 C 1.22944 0.73626 0.43216
 C89 C 1.22706 0.73730 0.57074
 C90 C 1.26476 0.77211 0.57282
 C91 C 1.26872 0.79556 0.44441
 C92 C 1.28581 0.81332 0.41152
 C93 C 1.29861 0.80952 0.36742
 C94 C 1.29406 0.78783 0.35584
 C95 C 1.27698 0.77007 0.38878
 C96 C 1.21761 0.74045 0.38547
 C97 C 1.20068 0.72296 0.35138
 C98 C 1.19553 0.70112 0.36322
 C99 C 1.20764 0.69687 0.40854
 C100 C 1.22460 0.71435 0.44261
 C101 C 1.23049 0.72491 0.61730
 C102 C 1.21250 0.70809 0.65020
 C103 C 1.19091 0.70361 0.63726
 C104 C 1.18743 0.71625 0.59184
 C105 C 1.20542 0.73309 0.55900
 C106 C 1.28666 0.77671 0.56378
 C107 C 1.30405 0.79371 0.59802
 C108 C 1.29970 0.80611 0.64214
 C109 C 1.27783 0.80120 0.65254
 C110 C 1.26044 0.78422 0.61826
 H111 H 1.25893 0.79875 0.47822
 H112 H 1.28906 0.82999 0.42075
 H113 H 1.30378 0.78464 0.32174
 H114 H 1.27381 0.75342 0.37984
 H115 H 1.22117 0.75723 0.37649
 H116 H 1.19143 0.72644 0.31638
 H117 H 1.23380 0.71081 0.47759
 H118 H 1.24706 0.72802 0.62730
 H119 H 1.21545 0.69848 0.68532
 H120 H 1.17083 0.71304 0.58153
 H121 H 1.20247 0.74276 0.52415
 H122 H 1.29027 0.76728 0.52979
 H123 H 1.32088 0.79727 0.58963
 H124 H 1.27421 0.81063 0.68658
 H125 H 1.24366 0.78084 0.62615
 H126 H 1.20383 0.68004 0.41792
 C127 C 0.75444 0.50891 0.53524
 C128 C 0.75418 0.50868 0.47047
 C129 C 0.77161 0.50743 0.43305
 C130 C 0.73657 0.50990 0.43397
 C131 C 0.73575 0.50761 0.57274
 C132 C 0.77355 0.51070 0.57167
 C133 C 0.78353 0.52350 0.38654
 C134 C 0.80055 0.52300 0.35280
 C135 C 0.80571 0.50633 0.36481
 C136 C 0.79353 0.48993 0.40997
 C137 C 0.77647 0.49039 0.44370
 C138 C 0.73214 0.52726 0.44425
 C139 C 0.71510 0.52788 0.41097
 C140 C 0.70249 0.51132 0.36663
 C141 C 0.70716 0.49429 0.35510
 C142 C 0.72418 0.49363 0.38840
 C143 C 0.71391 0.49025 0.56308
 C144 C 0.69636 0.48972 0.59682
 C145 C 0.70049 0.50638 0.64106
 C146 C 0.72229 0.52338 0.65208
 C147 C 0.73984 0.52393 0.61830
 C148 C 0.77004 0.49483 0.61815
 C149 C 0.78797 0.49601 0.65140
 C150 C 0.80957 0.51319 0.63889
 C151 C 0.81312 0.52936 0.59360
 C152 C 0.79519 0.52820 0.56040
 H153 H 0.77995 0.53669 0.37741
 H154 H 0.80986 0.53576 0.31790
 H155 H 0.79733 0.47691 0.41947
 H156 H 0.76720 0.47761 0.47853
 H157 H 0.74179 0.54020 0.47830
 H158 H 0.71169 0.54120 0.42005
 H159 H 0.72744 0.48021 0.37953
 H160 H 0.71047 0.47728 0.52900
 H161 H 0.67959 0.47641 0.58796
 H162 H 0.72574 0.53636 0.68622
 H163 H 0.75657 0.53737 0.62666
 H164 H 0.75346 0.48131 0.62778
 H165 H 0.78497 0.48341 0.68641
 H166 H 0.82972 0.54281 0.58362
 H167 H 0.79818 0.54085 0.52562
 H168 H 0.69753 0.48142 0.32079
 C169 C 0.49098 0.24500 0.53489
 C170 C 0.49110 0.24521 0.47012
 C171 C 0.48961 0.26267 0.43361
 C172 C 0.49246 0.22785 0.43269
 C173 C 0.48935 0.22599 0.57133
 C174 C 0.49222 0.26367 0.57234
 C175 C 0.47213 0.26690 0.44416
 C176 C 0.47123 0.28376 0.41076
 C177 C 0.48762 0.29638 0.36603
 C178 C 0.50479 0.29191 0.35427
 C179 C 0.50573 0.27507 0.38769
 C180 C 0.47636 0.21581 0.38634
 C181 C 0.47699 0.19886 0.35257
 C182 C 0.49381 0.19390 0.36441
 C183 C 0.51023 0.20620 0.40943
 C184 C 0.50964 0.22318 0.44318
 C185 C 0.50533 0.22961 0.61760
 C186 C 0.50433 0.21175 0.65075
 C187 C 0.48722 0.19011 0.63835
 C188 C 0.47093 0.18645 0.59330
 C189 C 0.47192 0.20430 0.56021
 C190 C 0.50945 0.28554 0.56233
 C191 C 0.50991 0.30307 0.59598
 C192 C 0.49331 0.29889 0.64047
 C193 C 0.47643 0.27706 0.65186
 C194 C 0.47595 0.25954 0.61817
 H195 H 0.45930 0.25722 0.47848
 H196 H 0.45781 0.28701 0.42002
 H197 H 0.51753 0.30156 0.31965
 H198 H 0.51924 0.27196 0.37860
 H199 H 0.46306 0.21924 0.37733
 H200 H 0.46422 0.18947 0.31778
 H201 H 0.52244 0.23254 0.47789
 H202 H 0.51880 0.24622 0.62712
 H203 H 0.51702 0.21483 0.68557
 H204 H 0.45754 0.16981 0.58340
 H205 H 0.45919 0.20122 0.52560
 H206 H 0.52238 0.28902 0.52803
 H207 H 0.52312 0.31986 0.58683
 H208 H 0.46349 0.27357 0.68620
 H209 H 0.46260 0.24279 0.62680
 H210 H 0.52337 0.20255 0.41880
 C211 C 0.75475 0.24684 0.53385
 C212 C 0.75466 0.24636 0.46909
 C213 C 0.73726 0.22720 0.43306
 C214 C 0.77209 0.26486 0.43117
 C215 C 0.77367 0.26451 0.56997
 C216 C 0.73605 0.22957 0.57160
 C217 C 0.73302 0.20556 0.44484
 C218 C 0.71621 0.18760 0.41180
 C219 C 0.70366 0.19112 0.36622
 C220 C 0.70815 0.21268 0.35324
 C221 C 0.72493 0.23065 0.38630
 C222 C 0.78422 0.26052 0.38580
 C223 C 0.80119 0.27788 0.35146
 C224 C 0.80609 0.29973 0.36173
 C225 C 0.79371 0.30412 0.40577
 C226 C 0.77671 0.28676 0.44010
 C227 C 0.76991 0.27715 0.61497
 C228 C 0.78768 0.29427 0.64775
 C229 C 0.80938 0.29881 0.63627
 C230 C 0.81317 0.28592 0.59250
 C231 C 0.79541 0.26878 0.55977
 C232 C 0.71415 0.22474 0.56084
 C233 C 0.69659 0.20774 0.59459
 C234 C 0.70077 0.19557 0.63990
 C235 C 0.72260 0.20072 0.65210
 C236 C 0.74016 0.21770 0.61833
 H237 H 0.74263 0.20260 0.47983
 H238 H 0.71294 0.17099 0.42201
 H239 H 0.69856 0.21558 0.31797
 H240 H 0.72806 0.24722 0.37626
 H241 H 0.78083 0.24374 0.37799
 H242 H 0.81065 0.27430 0.31743
 H243 H 0.76727 0.29041 0.47402
 H244 H 0.75326 0.27401 0.62376
 H245 H 0.78449 0.30407 0.68160
 H246 H 0.82985 0.28916 0.58336
 H247 H 0.79860 0.25894 0.52615
 H248 H 0.71067 0.23397 0.52582
 H249 H 0.67977 0.20394 0.58493
 H250 H 0.72601 0.19143 0.68710
 H251 H 0.75693 0.22125 0.62754
 H252 H 0.79731 0.32095 0.41392
 N253 N 0.97714 0.52307 0.07087
 N254 N 0.96033 0.52651 0.07986
 N255 N 1.02388 0.53283 0.11360
 N256 N 1.04074 0.54347 0.15291
 N257 N 1.02384 0.54638 0.07031
 N258 N 1.04068 0.56664 0.07894
 N259 N 0.97721 0.50955 0.11419
 N260 N 0.96046 0.50340 0.15389
 C261 C 0.95017 0.51413 0.13174
 C262 C 1.05099 0.56447 0.13056
 N263 N 1.02372 0.47831 0.06656
 N264 N 1.04004 0.47411 0.07512
 N265 N 0.97715 0.46821 0.11184
 N266 N 0.96043 0.45724 0.15135
 N267 N 0.97704 0.45503 0.06704
 N268 N 0.96022 0.43471 0.07480
 N269 N 1.02380 0.49146 0.11137
 N270 N 1.04018 0.49659 0.15171
 Mn271 Mn 1.00051 0.50052 0.11348
 C272 C 1.05013 0.48570 0.12820
 C273 C 0.95009 0.43644 0.12751
 N274 N 1.02360 0.54699 -0.06648
 N275 N 1.03997 0.56748 -0.07533
 N276 N 0.97686 0.51053 -0.11072
 N277 N 0.96045 0.50536 -0.15097
 N278 N 0.97695 0.52370 -0.06592
 N279 N 0.96060 0.52786 -0.07442
 N280 N 1.02351 0.53384 -0.11132
 N281 N 1.03982 0.54500 -0.15195
 Mn282 Mn 1.00038 0.53526 0.00224
 C283 C 1.04991 0.56587 -0.12862
 C284 C 0.95049 0.51624 -0.12744
 N285 N 0.97690 0.45562 -0.06973
 N286 N 0.96047 0.43522 -0.07937
 N287 N 1.02349 0.49249 -0.11356
 N288 N 1.04022 0.49860 -0.15332
 N289 N 1.02356 0.47896 -0.07023
 N290 N 1.04035 0.47549 -0.07929
 N291 N 0.97682 0.46914 -0.11306
 N292 N 0.96033 0.45831 -0.15343
 Mn293 Mn 1.00031 0.46676 -0.00161
 Mn294 Mn 1.00017 0.50149 -0.11290
 Cl295 Cl 1.00034 0.50101 0.00028
 C296 C 0.95032 0.43725 -0.13153
 C297 C 1.05050 0.48786 -0.13120
 N298 N 0.47699 0.45346 0.06586
 N299 N 0.47289 0.43301 0.07506
 N300 N 0.46699 0.49010 0.10968
 N301 N 0.45611 0.49606 0.14890
 N302 N 0.45370 0.47682 0.06541
 N303 N 0.43339 0.47336 0.07324
 N304 N 0.49027 0.46676 0.11010
 N305 N 0.49560 0.45574 0.15068
 C306 C 0.48468 0.43479 0.12794
 C307 C 0.43525 0.48548 0.12544
 N308 N 0.52175 0.54483 0.06641
 N309 N 0.52530 0.56513 0.07483
 N310 N 0.53168 0.50814 0.11069
 N311 N 0.54258 0.50266 0.15126
 N312 N 0.54510 0.52153 0.06683
 N313 N 0.56553 0.52555 0.07630
 N314 N 0.50834 0.53143 0.11030
 N315 N 0.50239 0.54223 0.14981
 Mn316 Mn 0.49932 0.49910 0.11093
 C317 C 0.51309 0.56316 0.12693
 C318 C 0.56360 0.51361 0.12893
 N319 N 0.45393 0.47687 -0.07139
 N320 N 0.43350 0.47281 -0.08094
 N321 N 0.49070 0.46695 -0.11483
 N322 N 0.49672 0.45616 -0.15415
 N323 N 0.47728 0.45357 -0.07094
 N324 N 0.47380 0.43328 -0.07915
 N325 N 0.46736 0.49025 -0.11527
 N326 N 0.45644 0.49568 -0.15593
 Mn327 Mn 0.46525 0.46495 -0.00277
 C328 C 0.43542 0.48472 -0.13363
 C329 C 0.48604 0.43525 -0.13115
 N330 N 0.54534 0.52159 -0.06998
 N331 N 0.56566 0.52511 -0.07790
 N332 N 0.50875 0.53163 -0.11466
 N333 N 0.50333 0.54263 -0.15504
 N334 N 0.52204 0.54494 -0.07040
 N335 N 0.52602 0.56536 -0.07940
 N336 N 0.53205 0.50830 -0.11425
 N337 N 0.54295 0.50239 -0.15355
 Mn338 Mn 0.53378 0.53345 -0.00178
 Mn339 Mn 0.49971 0.49929 -0.11549
 Cl340 Cl 0.49952 0.49920 -0.00228
 C341 C 0.56382 0.51301 -0.13014
 C342 C 0.51420 0.56357 -0.13219
 N343 N 0.45485 -0.02355 0.06974
 N344 N 0.43444 -0.03994 0.07954
 N345 N 0.49170 0.02308 0.11335
 N346 N 0.49779 0.03981 0.15303
 N347 N 0.47816 0.02310 0.06996
 N348 N 0.47466 0.03986 0.07890
 N349 N 0.46839 -0.02357 0.11313
 N350 N 0.45756 -0.03999 0.15370
 C351 C 0.43649 -0.05002 0.13185
 C352 C 0.48702 0.05005 0.13080
 N353 N 0.54626 0.02321 0.06656
 N354 N 0.56676 0.03956 0.07549
 N355 N 0.50981 -0.02349 0.11097
 N356 N 0.50457 -0.03992 0.15118
 N357 N 0.52299 -0.02342 0.06624
 N358 N 0.52710 -0.03980 0.07474
 N359 N 0.53309 0.02313 0.11132
 N360 N 0.54424 0.03942 0.15198
 Mn361 Mn 0.50074 -0.00022 0.11293
 C362 C 0.56513 0.04949 0.12874
 C363 C 0.51544 -0.04991 0.12770
 N364 N 0.47752 0.02314 -0.06684
 N365 N 0.47334 0.03947 -0.07549
 N366 N 0.46747 -0.02343 -0.11178
 N367 N 0.45651 -0.04019 -0.15115
 N368 N 0.45428 -0.02351 -0.06704
 N369 N 0.43396 -0.04036 -0.07470
 N370 N 0.49069 0.02320 -0.11159
 N371 N 0.49584 0.03957 -0.15197
 Mn372 Mn 0.46598 -0.00021 0.00147
 C373 C 0.48495 0.04953 -0.12856
 C374 C 0.43570 -0.05053 -0.12729
 N375 N 0.52239 -0.02334 -0.07054
 N376 N 0.52584 -0.04013 -0.07932
 N377 N 0.53211 0.02334 -0.11361
 N378 N 0.54274 0.04020 -0.15290
 N379 N 0.54567 0.02335 -0.07024
 N380 N 0.56591 0.04022 -0.07879
 N381 N 0.50885 -0.02332 -0.11393
 N382 N 0.50271 -0.04010 -0.15348
 Mn383 Mn 0.53455 -0.00005 -0.00204
 Mn384 Mn 0.49978 -0.00005 -0.11347
 Cl385 Cl 0.50026 -0.00013 -0.00026
 C386 C 0.51347 -0.05035 -0.13116
 C387 C 0.56374 0.05050 -0.13046
 C388 C 1.17318 0.48729 0.33096
 C389 C 1.15768 0.48687 0.30405
 C390 C 1.13914 0.48644 0.27255
 C391 C 1.11758 0.47264 0.29523
 C392 C 1.09957 0.47245 0.26528
 C393 C 1.10304 0.48606 0.21252
 C394 C 1.12459 0.49981 0.18970
 C395 C 1.14262 0.50000 0.21966
 C396 C 1.08449 0.48601 0.18224
 C397 C 1.06886 0.48591 0.15733
 H398 H 1.11471 0.46212 0.33615
 H399 H 1.08297 0.46177 0.28335
 H400 H 1.12746 0.51041 0.14897
 H401 H 1.15923 0.51075 0.20180
 C402 C 0.50627 0.68195 0.32860
 C403 C 0.50655 0.66690 0.30117
 C404 C 0.50717 0.64899 0.26904
 C405 C 0.52315 0.65353 0.22210
 C406 C 0.52416 0.63614 0.19214
 C407 C 0.50920 0.61414 0.20902
 C408 C 0.49313 0.60960 0.25566
 C409 C 0.49212 0.62699 0.28562
 C410 C 0.51057 0.59625 0.17936
 C411 C 0.51174 0.58120 0.15511
 H412 H 0.53490 0.67048 0.20903
 H413 H 0.53668 0.63983 0.15621
 H414 H 0.48150 0.59265 0.26914
 H415 H 0.47973 0.62329 0.32196
 C416 C 0.31561 -0.17312 0.33650
 C417 C 0.33075 -0.15772 0.30950
 C418 C 0.34891 -0.13930 0.27773
 C419 C 0.34802 -0.12000 0.26543
 C420 C 0.36579 -0.10198 0.23530
 C421 C 0.38454 -0.10318 0.21736
 C422 C 0.38541 -0.12250 0.22950
 C423 C 0.36763 -0.14052 0.25963
 C424 C 0.40291 -0.08453 0.18696
 C425 C 0.41827 -0.06883 0.16170
 H426 H 0.33364 -0.11886 0.27930
 H427 H 0.36495 -0.08711 0.22618
 H428 H 0.39983 -0.12360 0.21587
 H429 H 0.36850 -0.15536 0.26899
 C430 C 0.82386 0.50641 0.33191
 C431 C 0.83929 0.50676 0.30488
 C432 C 0.85795 0.50748 0.27320
 C433 C 0.86881 0.52281 0.22435
 C434 C 0.88733 0.52395 0.19475
 C435 C 0.89507 0.50977 0.21390
 C436 C 0.88413 0.49434 0.26249
 C437 C 0.86560 0.49320 0.29209
 C438 C 0.91442 0.51126 0.18445
 C439 C 0.93071 0.51257 0.16018
 H440 H 0.86306 0.53396 0.20948
 H441 H 0.89569 0.53595 0.15729
 H442 H 0.88999 0.48332 0.27772
 H443 H 0.85736 0.48133 0.32992
 C444 C 0.48701 0.31413 0.33292
 C445 C 0.48659 0.32912 0.30566
 C446 C 0.48614 0.34714 0.27367
 C447 C 0.46791 0.35028 0.28119
 C448 C 0.46762 0.36800 0.25094
 C449 C 0.48555 0.38265 0.21306
 C450 C 0.50375 0.37947 0.20535
 C451 C 0.50405 0.36174 0.23561
 C452 C 0.48534 0.40103 0.18262
 C453 C 0.48509 0.41644 0.15748
 H454 H 0.45399 0.33910 0.31059
 H455 H 0.45347 0.37032 0.25726
 H456 H 0.51772 0.39071 0.17621
 H457 H 0.51824 0.35948 0.22955
 C458 C 0.68595 0.17258 0.33352
 C459 C 0.67096 0.15703 0.30661
 C460 C 0.65291 0.13843 0.27506
 C461 C 0.64045 0.11836 0.30755
 C462 C 0.62273 0.10034 0.27729
 C463 C 0.61737 0.10231 0.21441
 C464 C 0.62987 0.12237 0.18185
 C465 C 0.64760 0.14039 0.21213
 C466 C 0.59901 0.08379 0.18360
 C467 C 0.58357 0.06818 0.15828
 H468 H 0.64440 0.11666 0.35625
 H469 H 0.61317 0.08491 0.30292
 H470 H 0.62586 0.12407 0.13323
 H471 H 0.65711 0.15585 0.18660
 C472 C 0.48664 0.17264 -0.33085
 C473 C 0.48622 0.15712 -0.30417
 C474 C 0.48581 0.13854 -0.27305
 C475 C 0.47876 0.11871 -0.30636
 C476 C 0.47857 0.10069 -0.27650
 C477 C 0.48543 0.10242 -0.21320
 C478 C 0.49244 0.12224 -0.17982
 C479 C 0.49264 0.14027 -0.20970
 C480 C 0.48533 0.08388 -0.18276
 C481 C 0.48519 0.06826 -0.15776
 H482 H 0.47347 0.11721 -0.35538
 H483 H 0.47312 0.08545 -0.30276
 H484 H 0.49779 0.12375 -0.13086
 H485 H 0.49815 0.15554 -0.18353
 C486 C 0.68334 0.50637 -0.32784
 C487 C 0.66819 0.50661 -0.30084
 C488 C 0.65016 0.50718 -0.26930
 C489 C 0.62820 0.49189 -0.28567
 C490 C 0.61069 0.49287 -0.25635
 C491 C 0.61507 0.50916 -0.21057
 C492 C 0.63703 0.52436 -0.19390
 C493 C 0.65454 0.52338 -0.22322
 C494 C 0.59706 0.51049 -0.18159
 C495 C 0.58193 0.51165 -0.15783
 H496 H 0.62463 0.47933 -0.32136
 H497 H 0.59377 0.48105 -0.26967
 H498 H 0.64060 0.53704 -0.15864
 H499 H 0.67146 0.53532 -0.21033
 C500 C 0.82676 0.31589 -0.33313
 C501 C 0.84219 0.33112 -0.30649
 C502 C 0.86067 0.34938 -0.27522
 C503 C 0.86011 0.36879 -0.26173
 C504 C 0.87821 0.38666 -0.23213
 C505 C 0.89694 0.38519 -0.21592
 C506 C 0.89747 0.36576 -0.22925
 C507 C 0.87938 0.34790 -0.25884
 C508 C 0.91567 0.40364 -0.18602
 C509 C 0.93144 0.41903 -0.16111
 H510 H 0.84573 0.37013 -0.27427
 H511 H 0.87762 0.40161 -0.22208
 H512 H 0.91188 0.36445 -0.21694
 H513 H 0.88000 0.33298 -0.26913
 C514 C 0.50595 -0.17690 -0.32890
 C515 C 0.50627 -0.16144 -0.30214
 C516 C 0.50697 -0.14274 -0.27083
 C517 C 0.52279 -0.13132 -0.22351
 C518 C 0.52389 -0.11276 -0.19432
 C519 C 0.50918 -0.10554 -0.21236
 C520 C 0.49327 -0.11704 -0.25941
 C521 C 0.49217 -0.13560 -0.28860
 C522 C 0.51063 -0.08615 -0.18331
 C523 C 0.51191 -0.06984 -0.15934
 H524 H 0.53435 -0.13667 -0.20953
 H525 H 0.53627 -0.10397 -0.15805
 H526 H 0.48183 -0.11158 -0.27377
 H527 H 0.47991 -0.14428 -0.32525
 C528 C 0.31454 0.48729 -0.33695
 C529 C 0.32964 0.48685 -0.31036
 C530 C 0.34780 0.48639 -0.27923
 C531 C 0.35929 0.47744 -0.31055
 C532 C 0.37707 0.47715 -0.28065
 C533 C 0.38344 0.48581 -0.21928
 C534 C 0.37193 0.49474 -0.18790
 C535 C 0.35415 0.49503 -0.21783
 C536 C 0.40177 0.48553 -0.18869
 C537 C 0.41714 0.48522 -0.16339
 H538 H 0.35454 0.47074 -0.35806
 H539 H 0.38585 0.47021 -0.30534
 H540 H 0.37672 0.50147 -0.14045
 H541 H 0.34539 0.50201 -0.19321
 C542 C 1.17334 0.68681 -0.33194
 C543 C 1.15776 0.67181 -0.30510
 C544 C 1.13914 0.65377 -0.27361
 C545 C 1.14234 0.64469 -0.21799
 C546 C 1.12426 0.62693 -0.18797
 C547 C 1.10291 0.61818 -0.21348
 C548 C 1.09971 0.62731 -0.26899
 C549 C 1.11779 0.64506 -0.29900
 C550 C 1.08431 0.59977 -0.18306
 C551 C 1.06865 0.58431 -0.15799
 H552 H 1.15879 0.65128 -0.19802
 H553 H 1.12692 0.61999 -0.14509
 H554 H 1.08328 0.62067 -0.28914
 H555 H 1.11513 0.65193 -0.34203
 C556 C 0.82710 0.51395 -0.33011
 C557 C 0.84266 0.51452 -0.30318
 C558 C 0.86128 0.51511 -0.27170
 C559 C 0.88250 0.52708 -0.29839
 C560 C 0.90056 0.52737 -0.26844
 C561 C 0.89749 0.51570 -0.21168
 C562 C 0.87627 0.50378 -0.18485
 C563 C 0.85820 0.50348 -0.21482
 C564 C 0.91607 0.51583 -0.18138
 C565 C 0.93173 0.51598 -0.15649
 H566 H 0.88506 0.53609 -0.34241
 H567 H 0.91689 0.53663 -0.28962
 H568 H 0.87370 0.49468 -0.14100
 H569 H 0.84185 0.49414 -0.19383
 C570 C 0.49324 0.31601 -0.32854
 C571 C 0.49293 0.33114 -0.30165
 C572 C 0.49227 0.34914 -0.27023
 C573 C 0.50738 0.37110 -0.28711
 C574 C 0.50632 0.38858 -0.25789
 C575 C 0.49014 0.38417 -0.21170
 C576 C 0.47512 0.36221 -0.19453
 C577 C 0.47619 0.34474 -0.22375
 C578 C 0.48873 0.40213 -0.18275
 C579 C 0.48750 0.41722 -0.15896
 H580 H 0.51985 0.37469 -0.32311
 H581 H 0.51799 0.40549 -0.27158
 H582 H 0.46253 0.35862 -0.15894
 H583 H 0.46439 0.32782 -0.21047
 C584 C 0.68265 0.17740 -0.32742
 C585 C 0.66751 0.16193 -0.30069
 C586 C 0.64947 0.14321 -0.26950
 C587 C 0.65364 0.13339 -0.21723
 C588 C 0.63620 0.11478 -0.18813
 C589 C 0.61453 0.10590 -0.21121
 C590 C 0.61034 0.11580 -0.26322
 C591 C 0.62778 0.13442 -0.29232
 C592 C 0.59665 0.08644 -0.18223
 C593 C 0.58165 0.07006 -0.15839
 H594 H 0.67037 0.14002 -0.19931
 H595 H 0.63963 0.10723 -0.14799
 H596 H 0.59365 0.10906 -0.28150
 H597 H 0.62438 0.14184 -0.33281
 C598 C 1.17626 0.49468 -0.33222
 C599 C 1.16092 0.49451 -0.30514
 C600 C 1.14237 0.49402 -0.27352
 C601 C 1.13213 0.50506 -0.30007
 C602 C 1.11369 0.50406 -0.27036
 C603 C 1.10541 0.49201 -0.21398
 C604 C 1.11573 0.48108 -0.18720
 C605 C 1.13418 0.48208 -0.21692
 C606 C 1.08614 0.49059 -0.18424
 C607 C 1.06990 0.48935 -0.15980
 H608 H 1.13829 0.51429 -0.34390
 H609 H 1.10581 0.51255 -0.29151
 H610 H 1.10945 0.47169 -0.14367
 H611 H 1.14194 0.47343 -0.19608
 C612 C 0.51190 0.68487 -0.33321
 C613 C 0.51211 0.66963 -0.30672
 C614 C 0.51225 0.65129 -0.27579
 C615 C 0.52320 0.65441 -0.21764
 C616 C 0.52345 0.63657 -0.18796
 C617 C 0.51274 0.61555 -0.21631
 C618 C 0.50174 0.61243 -0.27437
 C619 C 0.50150 0.63026 -0.30404
 C620 C 0.51318 0.59724 -0.18623
 C621 C 0.51361 0.58187 -0.16139
 H622 H 0.53158 0.67060 -0.19540
 H623 H 0.53202 0.63917 -0.14309
 H624 H 0.49343 0.59626 -0.29673
 H625 H 0.49298 0.62767 -0.34900
 C626 C 0.31670 -0.17675 -0.32630
 C627 C 0.33172 -0.16137 -0.29892
 C628 C 0.34961 -0.14276 -0.26697
 C629 C 0.34508 -0.13000 -0.22464
 C630 C 0.36250 -0.11150 -0.19506
 C631 C 0.38451 -0.10568 -0.20771
 C632 C 0.38903 -0.11853 -0.24970
 C633 C 0.37162 -0.13703 -0.27928
 C634 C 0.40246 -0.08632 -0.17861
 C635 C 0.41757 -0.07001 -0.15485
 H636 H 0.32813 -0.13426 -0.21492
 H637 H 0.35882 -0.10166 -0.16276
 H638 H 0.40599 -0.11415 -0.25990
 H639 H 0.37530 -0.14674 -0.31206
 C640 C 0.51297 -0.17318 0.33110
 C641 C 0.51342 -0.15776 0.30377
 C642 C 0.51384 -0.13933 0.27169
 C643 C 0.49418 -0.14130 0.24758
 C644 C 0.49451 -0.12325 0.21744
 C645 C 0.51450 -0.10317 0.21128
 C646 C 0.53417 -0.10123 0.23515
 C647 C 0.53384 -0.11928 0.26530
 C648 C 0.51478 -0.08447 0.18130
 C649 C 0.51505 -0.06874 0.15660
 H650 H 0.47862 -0.15672 0.25237
 H651 H 0.47920 -0.12491 0.19923
 H652 H 0.54971 -0.08577 0.23072
 H653 H 0.54913 -0.11757 0.28386
 C654 C 0.31636 0.49319 0.32335
 C655 C 0.33138 0.49276 0.29618
 C656 C 0.34927 0.49198 0.26448
 C657 C 0.37129 0.50801 0.27768
 C658 C 0.38870 0.50687 0.24830
 C659 C 0.38416 0.48967 0.20562
 C660 C 0.36214 0.47372 0.19209
 C661 C 0.34473 0.47487 0.22147
 C662 C 0.40209 0.48819 0.17667
 C663 C 0.41718 0.48693 0.15298
 H664 H 0.37499 0.52128 0.31099
 H665 H 0.40567 0.51927 0.25918
 H666 H 0.35844 0.46034 0.15924
 H667 H 0.32776 0.46235 0.21105
 C668 C 1.17743 0.68308 0.33010
 C669 C 1.16203 0.66801 0.30295
 C670 C 1.14339 0.65006 0.27124
 C671 C 1.13302 0.65445 0.22085
 C672 C 1.11448 0.63707 0.19130
 C673 C 1.10623 0.61522 0.21204
 C674 C 1.11670 0.61081 0.26214
 C675 C 1.13524 0.62819 0.29169
 C676 C 1.08684 0.59738 0.18271
 C677 C 1.07050 0.58239 0.15865
 H678 H 1.13916 0.67131 0.20478
 H679 H 1.10650 0.64067 0.15267
 H680 H 1.11044 0.59398 0.27861
 H681 H 1.14309 0.62462 0.33071
 C682 C 0.49388 0.17584 0.33147
 C683 C 0.49366 0.16048 0.30442
 C684 C 0.49312 0.14191 0.27277
 C685 C 0.50557 0.13275 0.29649
 C686 C 0.50456 0.11431 0.26681
 C687 C 0.49110 0.10495 0.21329
 C688 C 0.47875 0.11419 0.18933
 C689 C 0.47976 0.13264 0.21902
 C690 C 0.48970 0.08568 0.18365
 C691 C 0.48848 0.06945 0.15929
 H692 H 0.51591 0.13976 0.33812
 H693 H 0.51415 0.10728 0.28578
 H694 H 0.46826 0.10707 0.14802
 H695 H 0.47002 0.13956 0.20038
 C696 C 0.68452 0.51161 0.33376
 C697 C 0.66933 0.51175 0.30673
 C698 C 0.65107 0.51182 0.27504
 C699 C 0.62932 0.49774 0.29595
 C700 C 0.61156 0.49794 0.26567
 C701 C 0.61546 0.51222 0.21434
 C702 C 0.63720 0.52626 0.19329
 C703 C 0.65497 0.52606 0.22358
 C704 C 0.59718 0.51263 0.18380
 C705 C 0.58185 0.51304 0.15857
 H706 H 0.62612 0.48667 0.33571
 H707 H 0.59481 0.48703 0.28237
 H708 H 0.64040 0.53739 0.15369
 H709 H 0.67172 0.53703 0.20706
 C710 C 0.82415 0.31764 0.32816
 C711 C 0.83951 0.33262 0.30061
 C712 C 0.85809 0.35046 0.26841
 C713 C 0.86367 0.37246 0.27992
 C714 C 0.88212 0.38984 0.25006
 C715 C 0.89507 0.38529 0.20857
 C716 C 0.88941 0.36328 0.19672
 C717 C 0.87095 0.34590 0.22659
 C718 C 0.91439 0.40320 0.17920
 C719 C 0.93066 0.41831 0.15524
 H720 H 0.85387 0.37617 0.31230
 H721 H 0.88638 0.40680 0.25964
 H722 H 0.89933 0.35958 0.16482
 H723 H 0.86682 0.32895 0.21748
   
