data_POSCAR
  _audit_creation_date              2014-09-24
  _audit_creation_method            'ToBaCCo'
  _symmetry_space_group_name_H-M    'P1'
  _symmetry_Int_Tables_number       1
  _symmetry_cell_setting            triclinic
  loop_
  _symmetry_equiv_pos_as_xyz
 x,y,z
_cell_length_a 44.2060
_cell_length_b 44.2333
_cell_length_c 44.2075
_cell_angle_alpha 89.901900
_cell_angle_beta 90.430100
_cell_angle_gamma 90.100400
loop_
  _atom_site_label
  _atom_site_type_symbol
  _atom_site_fract_x
  _atom_site_fract_y
  _atom_site_fract_z
C1 C 0.24985 0.49963 1.00133
 C2 C 0.74970 0.50087 -0.00094
 C3 C 0.00097 0.25002 0.50157
 C4 C 0.99976 0.74939 0.49881
 C5 C 0.49875 -0.00005 0.24979
 C6 C 0.50236 0.00071 0.74969
 C7 C 0.29584 0.02389 0.46382
 H8 H 0.29626 0.04091 0.48136
 C9 C 0.31660 0.02526 0.44023
 H10 H 0.33265 0.04376 0.43952
 C11 C 0.27451 -0.02108 0.44380
 H12 H 0.25859 -0.03952 0.44569
 C13 C 0.29489 -0.02059 0.41979
 H14 H 0.29438 -0.03875 0.40340
 N15 N 0.27533 0.00100 0.46517
 C16 C 0.20446 0.03500 0.52400
 H17 H 0.20435 0.01732 0.54094
 C18 C 0.18364 0.05860 0.52562
 H19 H 0.16785 0.05916 0.54421
 C20 C 0.22515 0.05542 0.47907
 H21 H 0.24087 0.05370 0.46057
 C22 C 0.20468 0.07945 0.47980
 H23 H 0.20492 0.09604 0.46176
 Zn24 Zn 0.25016 -0.00042 0.49955
 N25 N 0.22470 0.03385 0.50104
 C26 C 0.27567 0.02031 0.55515
 N27 N 0.27603 -0.00180 0.53380
 C28 C 0.29652 -0.02465 0.53509
 C29 C 0.31772 -0.02598 0.55860
 C30 C 0.29650 0.01987 0.57907
 C31 C 0.20386 -0.03592 0.47540
 C32 C 0.18289 -0.05949 0.47399
 C33 C 0.20480 -0.08023 0.51974
 C34 C 0.22540 -0.05623 0.52027
 N35 N 0.22458 -0.03472 0.49824
 H36 H 0.25977 0.03873 0.55330
 H37 H 0.29657 -0.04170 0.51757
 H38 H 0.33374 -0.04446 0.55927
 H39 H 0.29633 0.03804 0.59545
 H40 H 0.20347 -0.01828 0.45842
 H41 H 0.16669 -0.06008 0.45551
 H42 H 0.20533 -0.09675 0.53783
 H43 H 0.24151 -0.05447 0.53867
 C44 C 0.18341 0.08113 0.50319
 C45 C 0.31648 0.00267 0.41794
 C46 C 0.18301 -0.08194 0.49650
 C47 C 0.31806 -0.00337 0.58088
 C48 C 0.70491 0.02291 0.53675
 H49 H 0.70398 0.04024 0.51947
 C50 C 0.68478 0.02372 0.56090
 H51 H 0.66824 0.04171 0.56193
 C52 C 0.72676 -0.02236 0.55545
 H53 H 0.74279 -0.04056 0.55298
 C54 C 0.70702 -0.02245 0.57998
 H55 H 0.70852 -0.04050 0.59649
 N56 N 0.72545 0.00020 0.53453
 C57 C 0.79666 0.03563 0.47673
 H58 H 0.79684 0.01829 0.45949
 C59 C 0.81767 0.05917 0.47575
 H60 H 0.83367 0.06005 0.45735
 C61 C 0.77562 0.05520 0.52177
 H62 H 0.75967 0.05316 0.54005
 C63 C 0.79626 0.07917 0.52168
 H64 H 0.79594 0.09539 0.53998
 Zn65 Zn 0.75048 -0.00017 0.49999
 N66 N 0.77616 0.03408 0.49944
 C67 C 0.72572 0.02211 0.44471
 N68 N 0.72471 -0.00046 0.46562
 C69 C 0.70399 -0.02312 0.46351
 C70 C 0.68334 -0.02385 0.43947
 C71 C 0.70547 0.02227 0.42030
 C72 C 0.79694 -0.03607 0.52295
 C73 C 0.81784 -0.05965 0.52379
 C74 C 0.79533 -0.07961 0.47801
 C75 C 0.77481 -0.05561 0.47806
 N76 N 0.77595 -0.03449 0.50038
 H77 H 0.74190 0.04027 0.44709
 H78 H 0.70332 -0.04046 0.48078
 H79 H 0.66668 -0.04180 0.43852
 H80 H 0.70673 0.04033 0.40380
 H81 H 0.79758 -0.01874 0.54019
 H82 H 0.83424 -0.06056 0.54208
 H83 H 0.79453 -0.09584 0.45971
 H84 H 0.75848 -0.05354 0.45989
 C85 C 0.81782 0.08123 0.49856
 C86 C 0.68558 0.00075 0.58288
 C87 C 0.81738 -0.08171 0.50098
 C88 C 0.68383 -0.00087 0.41751
 C89 C 0.47679 0.20381 1.03579
 H90 H 0.45952 0.20306 1.01834
 C91 C 0.47588 0.18334 1.05984
 H92 H 0.45788 0.16673 1.06061
 C93 C 0.52200 0.22555 1.05507
 H94 H 0.54022 0.24167 1.05287
 C95 C 0.52199 0.20547 1.07949
 H96 H 0.53997 0.20681 1.09619
 N97 N 0.49952 0.22445 1.03391
 C98 C 0.46430 0.29631 0.97611
 H99 H 0.48170 0.29678 0.95904
 C100 C 0.44078 0.31728 0.97505
 H101 H 0.43999 0.33355 0.95673
 C102 C 0.44455 0.27459 1.02086
 H103 H 0.44650 0.25840 1.03908
 C104 C 0.42060 0.29519 1.02068
 H105 H 0.40432 0.29458 1.03884
 Zn106 Zn 0.50003 0.24998 0.99952
 N107 N 0.46575 0.27550 0.99873
 C108 C 0.47811 0.22594 0.94382
 N109 N 0.50055 0.22474 0.96501
 C110 C 0.52328 0.20418 0.96306
 C111 C 0.52422 0.18392 0.93891
 C112 C 0.47815 0.20607 0.91929
 C113 C 0.53581 0.29622 1.02313
 C114 C 0.55935 0.31723 1.02431
 C115 C 0.57951 0.29556 0.97857
 C116 C 0.55554 0.27491 0.97828
 N117 N 0.53434 0.27559 1.00042
 H118 H 0.45989 0.24198 0.94607
 H119 H 0.54052 0.20334 0.98054
 H120 H 0.54222 0.16738 0.93809
 H121 H 0.46020 0.20749 0.90256
 H122 H 0.51841 0.29651 1.04021
 H123 H 0.56017 0.33335 1.04270
 H124 H 0.59579 0.29514 0.96040
 H125 H 0.55356 0.25887 0.95999
 C126 C 0.41865 0.31707 0.99767
 C127 C 0.49877 0.18392 1.08205
 C128 C 0.58149 0.31726 1.00168
 C129 C 0.50138 0.18462 0.91666
 C130 C 0.47611 0.79698 -0.03561
 H131 H 0.45898 0.79741 -0.01826
 C132 C 0.47529 0.81810 -0.05907
 H133 H 0.45711 0.83446 -0.05988
 C134 C 0.52075 0.77518 -0.05528
 H135 H 0.53884 0.75891 -0.05331
 C136 C 0.52080 0.79592 -0.07917
 H137 H 0.53902 0.79532 -0.09539
 N138 N 0.49855 0.77604 -0.03416
 C139 C 0.46238 0.70443 0.02306
 H140 H 0.47993 0.70342 0.04022
 C141 C 0.43820 0.68414 0.02395
 H142 H 0.43742 0.66740 0.04183
 C143 C 0.44306 0.72661 -0.02191
 H144 H 0.44531 0.74283 -0.04005
 C145 C 0.41849 0.70671 -0.02192
 H146 H 0.40172 0.70825 -0.03983
 Zn147 Zn 0.49909 0.75019 -0.00003
 N148 N 0.46432 0.72519 0.00044
 C149 C 0.47801 0.77485 0.05545
 N150 N 0.50037 0.77538 0.03448
 C151 C 0.52344 0.79567 0.03629
 C152 C 0.52470 0.81651 0.05992
 C153 C 0.47838 0.79532 0.07949
 C154 C 0.53432 0.70396 -0.02392
 C155 C 0.55784 0.68301 -0.02520
 C156 C 0.57835 0.70408 0.02100
 C157 C 0.55441 0.72466 0.02139
 N158 N 0.53307 0.72428 -0.00094
 H159 H 0.45944 0.75909 0.05319
 H160 H 0.54069 0.79586 0.01906
 H161 H 0.54334 0.83239 0.06099
 H162 H 0.45999 0.79505 0.09553
 H163 H 0.51682 0.70392 -0.04116
 H164 H 0.55851 0.66717 -0.04383
 H165 H 0.59477 0.70429 0.03929
 H166 H 0.55261 0.74046 0.03989
 C167 C 0.41590 0.68501 0.00117
 C168 C 0.49797 0.81790 -0.08114
 C169 C 0.58017 0.68275 -0.00244
 C170 C 0.50181 0.81671 0.08178
 C171 C 1.03702 0.47595 0.20370
 H172 H 1.01958 0.45879 0.20250
 C173 C 1.06112 0.47529 0.18350
 H174 H 1.06195 0.45760 0.16664
 C175 C 1.05621 0.52062 0.22637
 H176 H 1.05396 0.53852 0.24277
 C177 C 1.08069 0.52085 0.20658
 H178 H 1.09739 0.53870 0.20838
 N179 N 1.03508 0.49827 0.22470
 C180 C 0.97797 0.46141 0.29577
 H181 H 0.96077 0.47874 0.29666
 C182 C 0.97729 0.43733 0.31619
 H183 H 0.95952 0.43640 0.33288
 C184 C 1.02288 0.44257 0.27381
 H185 H 1.04092 0.44497 0.25764
 C186 C 1.02310 0.41811 0.29385
 H187 H 1.04106 0.40158 0.29245
 Zn188 Zn 1.00071 0.49823 0.24996
 N189 N 1.00046 0.46354 0.27506
 C190 C 0.94518 0.47640 0.22525
 N191 N 0.96621 0.49886 0.22437
 C192 C 0.96416 0.52172 0.20387
 C193 C 0.94005 0.52278 0.18332
 C194 C 0.92070 0.47656 0.20509
 C195 C 1.02381 0.53369 0.29679
 C196 C 1.02473 0.55719 0.31779
 C197 C 0.97887 0.57724 0.29554
 C198 C 0.97882 0.55331 0.27494
 N199 N 1.00117 0.53221 0.27587
 H200 H 0.94751 0.45808 0.24127
 H201 H 0.98152 0.53897 0.20329
 H202 H 0.93915 0.54089 0.16683
 H203 H 0.90409 0.45859 0.20624
 H204 H 1.04106 0.51637 0.29727
 H205 H 1.04310 0.55805 0.33410
 H206 H 0.96057 0.59347 0.29486
 H207 H 0.96059 0.55134 0.25866
 C208 C 1.00015 0.41533 0.31550
 C209 C 1.08334 0.49801 0.18472
 C210 C 1.00195 0.57928 0.31747
 C211 C 0.91796 0.49992 0.18367
 C212 C -0.03850 0.47813 0.79582
 H213 H -0.02114 0.46095 0.79709
 C214 C -0.06267 0.47743 0.81594
 H215 H -0.06363 0.45967 0.83279
 C216 C -0.05734 0.52296 0.77317
 H217 H -0.05490 0.54097 0.75684
 C218 C -0.08188 0.52316 0.79290
 H219 H -0.09845 0.54108 0.79110
 N220 N -0.03633 0.50058 0.77490
 C221 C 0.02191 0.46401 0.70477
 H222 H 0.03925 0.48129 0.70421
 C223 C 0.02290 0.43990 0.68449
 H224 H 0.04104 0.43889 0.66820
 C225 C -0.02358 0.44529 0.72583
 H226 H -0.04193 0.44774 0.74161
 C227 C -0.02349 0.42081 0.70592
 H228 H -0.04157 0.40430 0.70703
 Zn229 Zn -0.00158 0.50074 0.75018
 N230 N -0.00100 0.46621 0.72499
 C231 C 0.05347 0.47882 0.77603
 N232 N 0.03238 0.50118 0.77646
 C233 C 0.03386 0.52387 0.79713
 C234 C 0.05735 0.52483 0.81835
 C235 C 0.07738 0.47890 0.79688
 C236 C -0.02371 0.53701 0.70328
 C237 C -0.02422 0.56102 0.68277
 C238 C 0.02146 0.58041 0.70604
 C239 C 0.02107 0.55603 0.72615
 N240 N -0.00140 0.53503 0.72453
 H241 H 0.05149 0.46057 0.75994
 H242 H 0.01656 0.54114 0.79721
 H243 H 0.05822 0.54323 0.83445
 H244 H 0.09360 0.46060 0.79659
 H245 H -0.04097 0.51967 0.70213
 H246 H -0.04190 0.56188 0.66571
 H247 H 0.03941 0.59701 0.70781
 H248 H 0.03897 0.55375 0.74275
 C249 C -0.00009 0.41794 0.68480
 C250 C -0.08471 0.50023 0.81473
 C251 C -0.00136 0.58310 0.68392
 C252 C 0.07943 0.50203 0.81854
 C253 C 0.14615 0.15820 0.49563
 C254 C 0.11632 0.15143 0.50366
 C255 C 0.10853 0.12186 0.51176
 C256 C 0.13037 0.09909 0.51177
 C257 C 0.02787 0.23069 0.50204
 C258 C 0.16809 0.13541 0.49560
 C259 C 0.09341 0.17450 0.50319
 C260 C 0.07347 0.19305 0.50282
 C261 C 0.04928 0.21382 0.50240
 C262 C 0.16042 0.10557 0.50365
 H263 H 0.15243 0.18103 0.48932
 H264 H 0.08547 0.11633 0.51786
 H265 H 0.12361 0.07628 0.51758
 H266 H 0.19107 0.14117 0.48954
 C267 C 0.65725 0.64556 0.00593
 C268 C 0.65055 0.61574 -0.00236
 C269 C 0.62102 0.60792 -0.01085
 C270 C 0.59821 0.62973 -0.01100
 C271 C 0.73023 0.52766 -0.00105
 C272 C 0.63443 0.66745 0.00580
 C273 C 0.67370 0.59290 -0.00185
 C274 C 0.69234 0.57304 -0.00151
 C275 C 0.71324 0.54897 -0.00121
 C276 C 0.60463 0.65976 -0.00266
 H277 H 0.68005 0.65186 0.01252
 H278 H 0.61555 0.58488 -0.01716
 H279 H 0.57544 0.62296 -0.01715
 H280 H 0.64014 0.69044 0.01204
 C281 C 0.85443 -0.15864 0.49192
 C282 C 0.88448 -0.15197 0.49963
 C283 C 0.89252 -0.12249 0.50785
 C284 C 0.87069 -0.09973 0.50835
 C285 C 0.97283 -0.23131 0.49852
 C286 C 0.83250 -0.13585 0.49239
 C287 C 0.90733 -0.17510 0.49898
 C288 C 0.92724 -0.19368 0.49864
 C289 C 0.95142 -0.21445 0.49848
 C290 C 0.84041 -0.10612 0.50065
 H291 H 0.84796 -0.18140 0.48555
 H292 H 0.91574 -0.11705 0.51372
 H293 H 0.87762 -0.07700 0.51431
 H294 H 0.80934 -0.14153 0.48663
 C295 C 0.37822 0.39234 0.99057
 C296 C 0.34870 0.38451 0.99867
 C297 C 0.34188 0.35455 1.00630
 C298 C 0.36455 0.33251 1.00589
 C299 C 0.26942 0.47291 1.00090
 C300 C 0.40088 0.37039 0.99013
 C301 C 0.32570 0.40749 0.99942
 C302 C 0.30718 0.42744 0.99996
 C303 C 0.28638 0.45159 1.00050
 C304 C 0.39433 0.34021 0.99779
 H305 H 0.38379 0.41549 0.98477
 H306 H 0.31908 0.34824 1.01259
 H307 H 0.35875 0.30942 1.01162
 H308 H 0.42365 0.37717 0.98430
 C309 C 0.89302 0.12191 0.49127
 C310 C 0.88531 0.15138 0.49961
 C311 C 0.85546 0.15808 0.50750
 C312 C 0.83340 0.13533 0.50709
 C313 C 0.97403 0.23064 0.50139
 C314 C 0.87105 0.09918 0.49083
 C315 C 0.90831 0.17444 0.50031
 C316 C 0.92831 0.19299 0.50076
 C317 C 0.95258 0.21376 0.50116
 C318 C 0.84097 0.10561 0.49874
 H319 H 0.91609 0.11643 0.48526
 H320 H 0.84924 0.18083 0.51397
 H321 H 0.81039 0.14104 0.51301
 H322 H 0.87774 0.07645 0.48479
 C323 C 0.35851 0.62710 -0.02626
 C324 C 0.34513 0.61819 0.00092
 C325 C 0.35415 0.63181 0.02809
 C326 C 0.37679 0.65393 0.02814
 C327 C 0.26891 0.52678 0.00132
 C328 C 0.38113 0.64923 -0.02627
 C329 C 0.32317 0.59413 0.00109
 C330 C 0.30541 0.57343 0.00119
 C331 C 0.28536 0.54857 0.00128
 C332 C 0.39074 0.66270 0.00098
 H333 H 0.35184 0.61657 -0.04740
 H334 H 0.34396 0.62507 0.04927
 H335 H 0.38341 0.66415 0.04943
 H336 H 0.39170 0.65516 -0.04749
 C337 C 0.10769 -0.12248 0.48861
 C338 C 0.11547 -0.15204 0.49676
 C339 C 0.14543 -0.15887 0.50461
 C340 C 0.16751 -0.13615 0.50440
 C341 C 0.02669 -0.23123 0.49855
 C342 C 0.12967 -0.09977 0.48838
 C343 C 0.09243 -0.17507 0.49739
 C344 C 0.07241 -0.19359 0.49783
 C345 C 0.04814 -0.21435 0.49826
 C346 C 0.15985 -0.10632 0.49630
 H347 H 0.08453 -0.11691 0.48265
 H348 H 0.15170 -0.18170 0.51093
 H349 H 0.19059 -0.14196 0.51032
 H350 H 0.12293 -0.07697 0.48253
 C351 C 0.62197 0.39257 1.00913
 C352 C 0.65149 0.38489 1.00099
 C353 C 0.65829 0.35501 0.99322
 C354 C 0.63560 0.33290 0.99353
 C355 C 0.73044 0.47386 0.99927
 C356 C 0.59930 0.37056 1.00947
 C357 C 0.67449 0.40795 1.00034
 C358 C 0.69297 0.42801 0.99991
 C359 C 0.71364 0.45234 0.99952
 C360 C 0.60583 0.34045 1.00167
 H361 H 0.61642 0.41566 1.01503
 H362 H 0.68108 0.34882 0.98690
 H363 H 0.64139 0.30988 0.98769
 H364 H 0.57654 0.37723 1.01533
 C365 C 0.52607 0.12599 1.13948
 C366 C 0.49889 0.11733 1.15305
 C367 C 0.47176 0.13099 1.14402
 C368 C 0.47173 0.15297 1.12124
 C369 C 0.49870 0.02690 1.23045
 C370 C 0.52610 0.14796 1.11672
 C371 C 0.49874 0.09353 1.17530
 C372 C 0.49869 0.07307 1.19335
 C373 C 0.49868 0.04848 1.21373
 C374 C 0.49888 0.16155 1.10716
 H375 H 0.54718 0.11541 1.14616
 H376 H 0.45058 0.12444 1.15435
 H377 H 0.45047 0.16327 1.11465
 H378 H 0.54731 0.15374 1.10606
 C379 C -0.02759 0.64512 0.63039
 C380 C -0.00027 0.65397 0.61724
 C381 C 0.02679 0.64032 0.62651
 C382 C 0.02652 0.61762 0.64855
 C383 C -0.00010 0.73044 0.52605
 C384 C -0.02793 0.62241 0.65242
 C385 C -0.00014 0.67604 0.59328
 C386 C -0.00008 0.69390 0.57266
 C387 C -0.00005 0.71401 0.54785
 C388 C -0.00089 0.60821 0.66158
 H389 H -0.04868 0.65552 0.62335
 H390 H 0.04805 0.64685 0.61634
 H391 H 0.04765 0.60687 0.65480
 H392 H -0.04933 0.61594 0.66229
 C393 C 0.49162 0.89336 -0.12157
 C394 C 0.49975 0.88559 -0.15107
 C395 C 0.50714 0.85561 -0.15787
 C396 C 0.50647 0.83350 -0.13520
 C397 C 0.50223 0.97402 -0.23062
 C398 C 0.49092 0.87133 -0.09892
 C399 C 0.50070 0.90861 -0.17409
 C400 C 0.50135 0.92857 -0.19266
 C401 C 0.50192 0.95272 -0.21355
 C402 C 0.49834 0.84113 -0.10545
 H403 H 0.48599 0.91652 -0.11603
 H404 H 0.51343 0.84934 -0.18065
 H405 H 0.51201 0.81040 -0.14099
 H406 H 0.48506 0.87805 -0.07617
 C407 C 0.97379 0.35355 0.36895
 C408 C 1.00106 0.34498 0.38273
 C409 C 1.02814 0.35868 0.37385
 C410 C 1.02794 0.38116 0.35159
 C411 C 1.00108 0.26910 0.47442
 C412 C 0.97351 0.37605 0.34669
 C413 C 1.00111 0.32316 0.40691
 C414 C 1.00113 0.30548 0.42769
 C415 C 1.00113 0.28551 0.45261
 C416 C 1.00057 0.39031 0.33795
 H417 H 0.95268 0.34312 0.37567
 H418 H 1.04936 0.35235 0.38451
 H419 H 1.04908 0.39198 0.34567
 H420 H 0.95215 0.38233 0.33635
 C421 C 0.49253 0.85443 0.15836
 C422 C 0.50074 0.88426 0.15163
 C423 C 0.50955 0.89189 0.12227
 C424 C 0.51007 0.86989 0.09966
 C425 C 0.49867 0.97305 0.23046
 C426 C 0.49302 0.83234 0.13573
 C427 C 0.49987 0.90730 0.17455
 C428 C 0.49930 0.92733 0.19299
 C429 C 0.49885 0.95161 0.21365
 C430 C 0.50178 0.83985 0.10610
 H431 H 0.48570 0.84827 0.18103
 H432 H 0.51581 0.91494 0.11678
 H433 H 0.51642 0.87654 0.07699
 H434 H 0.48680 0.80936 0.14146
 C435 C 0.02713 0.35567 0.63266
 C436 C 0.00009 0.34694 0.61849
 C437 C -0.02710 0.36078 0.62658
 C438 C -0.02724 0.38353 0.64849
 C439 C 0.00086 0.26950 0.52836
 C440 C 0.02705 0.37844 0.65456
 C441 C 0.00038 0.32471 0.59475
 C442 C 0.00057 0.30667 0.57434
 C443 C 0.00074 0.28627 0.54984
 C444 C -0.00012 0.39280 0.66256
 H445 H 0.04832 0.34512 0.62654
 H446 H -0.04814 0.35433 0.61561
 H447 H -0.04846 0.39441 0.65382
 H448 H 0.04823 0.38481 0.66525
 C449 C 0.52853 0.13224 0.85457
 C450 C 0.50143 0.11849 0.84547
 C451 C 0.47421 0.12697 0.85899
 C452 C 0.47412 0.14883 0.88179
 C453 C 0.50216 0.02786 0.76865
 C454 C 0.52850 0.15409 0.87739
 C455 C 0.50167 0.09471 0.82329
 C456 C 0.50184 0.07423 0.80534
 C457 C 0.50201 0.04956 0.78514
 C458 C 0.50131 0.16246 0.89144
 H459 H 0.54973 0.12581 0.84429
 H460 H 0.45313 0.11632 0.85226
 H461 H 0.45288 0.15445 0.89243
 H462 H 0.54974 0.16444 0.88405
 C463 C 0.99314 0.65627 0.35441
 C464 C 1.00097 0.64967 0.38444
 C465 C 1.00923 0.62021 0.39250
 C466 C 1.00965 0.59739 0.37072
 C467 C 0.99963 0.72969 0.47218
 C468 C 0.99352 0.63344 0.33253
 C469 C 1.00034 0.67285 0.40722
 C470 C 0.99996 0.69156 0.42701
 C471 C 0.99970 0.71256 0.45099
 C472 C 1.00180 0.60372 0.34046
 H473 H 0.98674 0.67901 0.34791
 H474 H 1.01520 0.61482 0.41571
 H475 H 1.01563 0.57468 0.37766
 H476 H 0.98766 0.63908 0.30938
 C477 C 1.14096 0.52579 0.12779
 C478 C 1.15449 0.49866 0.11894
 C479 C 1.14543 0.47141 0.13223
 C480 C 1.12263 0.47121 0.15398
 C481 C 1.23101 0.49920 0.02847
 C482 C 1.11817 0.52565 0.14955
 C483 C 1.17662 0.49868 0.09523
 C484 C 1.19451 0.49876 0.07479
 C485 C 1.21461 0.49895 0.05015
 C486 C 1.10856 0.49831 0.16271
 H487 H 1.14766 0.54699 0.11750
 H488 H 1.15573 0.45027 0.12552
 H489 H 1.11600 0.44986 0.16397
 H490 H 1.10752 0.54683 0.15545
 C491 C 0.63346 0.02749 0.64525
 C492 C 0.61975 0.00034 0.65400
 C493 C 0.62817 -0.02676 0.64016
 C494 C 0.64993 -0.02671 0.61738
 C495 C 0.52943 0.00060 0.73074
 C496 C 0.65522 0.02760 0.62245
 C497 C 0.59606 0.00044 0.67617
 C498 C 0.57565 0.00050 0.69409
 C499 C 0.55106 0.00054 0.71427
 C500 C 0.66353 0.00052 0.60807
 H501 H 0.62708 0.04861 0.65579
 H502 H 0.61754 -0.04787 0.64661
 H503 H 0.65550 -0.04786 0.60648
 H504 H 0.66555 0.04887 0.61606
 C505 C -0.14170 0.52806 0.87208
 C506 C -0.15536 0.50095 0.88104
 C507 C -0.14668 0.47372 0.86760
 C508 C -0.12409 0.47352 0.84563
 C509 C -0.23129 0.50087 0.97203
 C510 C -0.11912 0.52791 0.85010
 C511 C -0.17723 0.50093 0.90498
 C512 C -0.19494 0.50091 0.92559
 C513 C -0.21491 0.50088 0.95034
 C514 C -0.10985 0.50059 0.83683
 H515 H -0.14811 0.54924 0.88248
 H516 H -0.15709 0.45260 0.87438
 H517 H -0.11772 0.45218 0.83556
 H518 H -0.10833 0.54907 0.84414
 C519 C 0.35364 -0.00590 0.34116
 C520 C 0.38360 0.00198 0.34801
 C521 C 0.39151 0.01033 0.37753
 C522 C 0.36965 0.01073 0.40017
 C523 C 0.47193 -0.00002 0.26909
 C524 C 0.33169 -0.00552 0.36381
 C525 C 0.40650 0.00119 0.32506
 C526 C 0.42642 0.00066 0.30659
 C527 C 0.45057 0.00020 0.28591
 C528 C 0.33948 0.00278 0.39360
 H529 H 0.34727 -0.01238 0.31836
 H530 H 0.41466 0.01633 0.38312
 H531 H 0.37650 0.01673 0.42295
 H532 H 0.30861 -0.01148 0.35799
 C533 C 0.15644 0.49328 0.85634
 C534 C 0.14983 0.50122 0.88620
 C535 C 0.12036 0.50953 0.89388
 C536 C 0.09754 0.50989 0.87187
 C537 C 0.23001 0.49971 0.97461
 C538 C 0.13361 0.49361 0.83424
 C539 C 0.17302 0.50060 0.90922
 C540 C 0.19175 0.50021 0.92917
 C541 C 0.21281 0.49988 0.95331
 C542 C 0.10388 0.50193 0.84177
 H543 H 0.17920 0.48684 0.85014
 H544 H 0.11497 0.51557 0.91696
 H545 H 0.07482 0.51592 0.87852
 H546 H 0.13925 0.48767 0.81121
 C547 C 0.63042 -0.02744 0.35529
 C548 C 0.61674 -0.00025 0.34657
 C549 C 0.62554 0.02682 0.36043
 C550 C 0.64767 0.02669 0.38318
 C551 C 0.52581 -0.00008 0.26916
 C552 C 0.65256 -0.02763 0.37805
 C553 C 0.59278 -0.00025 0.32433
 C554 C 0.57221 -0.00020 0.30628
 C555 C 0.54749 -0.00013 0.28589
 C556 C 0.66128 -0.00058 0.39242
 H557 H 0.62376 -0.04853 0.34472
 H558 H 0.61495 0.04797 0.35400
 H559 H 0.65356 0.04782 0.39407
 H560 H 0.66287 -0.04892 0.38440
 C561 C 0.85581 0.52739 0.13065
 C562 C 0.84691 0.50039 0.11670
 C563 C 0.86061 0.47315 0.12522
 C564 C 0.88338 0.47292 0.14734
 C565 C 0.76928 0.50103 0.02597
 C566 C 0.87859 0.52722 0.15277
 C567 C 0.82466 0.50075 0.09277
 C568 C 0.80658 0.50094 0.07222
 C569 C 0.78612 0.50105 0.04757
 C570 C 0.89281 0.50000 0.16120
 H571 H 0.84537 0.54861 0.12420
 H572 H 0.85404 0.45214 0.11443
 H573 H 0.89415 0.45167 0.15300
 H574 H 0.88508 0.54837 0.16328
 C575 C 0.35653 0.00534 0.65757
 C576 C 0.38636 -0.00247 0.65067
 C577 C 0.39376 -0.01087 0.62115
 C578 C 0.37152 -0.01136 0.59855
 C579 C 0.47554 0.00033 0.72998
 C580 C 0.33420 0.00488 0.63496
 C581 C 0.40964 -0.00155 0.67359
 C582 C 0.42978 -0.00085 0.69210
 C583 C 0.45411 -0.00015 0.71293
 C584 C 0.34147 -0.00344 0.60516
 H585 H 0.35055 0.01185 0.68036
 H586 H 0.41681 -0.01683 0.61553
 H587 H 0.37797 -0.01738 0.57577
 H588 H 0.31123 0.01080 0.64082
   
