data_POSCAR
  _audit_creation_date              2014-09-24
  _audit_creation_method            'ToBaCCo'
  _symmetry_space_group_name_H-M    'P1'
  _symmetry_Int_Tables_number       1
  _symmetry_cell_setting            triclinic
  loop_
  _symmetry_equiv_pos_as_xyz
 x,y,z
_cell_length_a 47.4809
_cell_length_b 47.0826
_cell_length_c 8.7964
_cell_angle_alpha 90.400600
_cell_angle_beta 89.980700
_cell_angle_gamma 90.066900
loop_
  _atom_site_label
  _atom_site_type_symbol
  _atom_site_fract_x
  _atom_site_fract_y
  _atom_site_fract_z
O1 O 0.28087 0.22165 0.15658
 O2 O 0.22722 0.27689 0.09573
 O3 O 0.28093 0.27695 0.15521
 O4 O 0.22721 0.22154 0.09468
 O5 O 0.21786 0.22188 0.34094
 O6 O 0.27161 0.27729 0.40154
 O7 O 0.21790 0.27719 0.34205
 O8 O 0.27151 0.22196 0.40284
 Cu9 Cu 0.25503 0.24922 0.10097
 Cu10 Cu 0.24373 0.24961 0.39644
 C11 C 0.28527 0.21250 0.28974
 C12 C 0.21351 0.28638 0.20901
 C13 C 0.28534 0.28648 0.28828
 C14 C 0.21345 0.21235 0.20782
 O15 O 0.78122 0.27715 0.34331
 O16 O 0.72744 0.22198 0.40444
 O17 O 0.78108 0.22185 0.34175
 O18 O 0.72744 0.27729 0.40144
 O19 O 0.71816 0.27685 0.15512
 O20 O 0.77176 0.22143 0.09548
 O21 O 0.71812 0.22157 0.15819
 O22 O 0.77195 0.27676 0.09698
 Cu23 Cu 0.75527 0.24961 0.39722
 Cu24 Cu 0.74403 0.24910 0.10181
 C25 C 0.78568 0.28627 0.21017
 C26 C 0.71366 0.21248 0.29146
 C27 C 0.78549 0.21230 0.20869
 C28 C 0.71372 0.28641 0.28807
 O29 O 0.72847 0.77814 0.59652
 O30 O 0.78192 0.72271 0.65779
 O31 O 0.72823 0.72277 0.59739
 O32 O 0.78210 0.77804 0.65858
 O33 O 0.77269 0.77838 0.90477
 O34 O 0.71880 0.72312 0.84358
 O35 O 0.77248 0.72303 0.90396
 O36 O 0.71905 0.77845 0.84270
 Cu37 Cu 0.75617 0.75038 0.60302
 Cu38 Cu 0.74477 0.75079 0.89826
 C39 C 0.71473 0.78766 0.70960
 C40 C 0.78622 0.71350 0.79090
 C41 C 0.71443 0.71360 0.71045
 C42 C 0.78650 0.78755 0.79175
 O43 O 0.28123 0.77836 0.84275
 O44 O 0.22760 0.72307 0.90549
 O45 O 0.28128 0.72308 0.84396
 O46 O 0.22757 0.77841 0.90492
 O47 O 0.21815 0.77794 0.65879
 O48 O 0.27183 0.72262 0.59783
 O49 O 0.21815 0.72265 0.65936
 O50 O 0.27180 0.77794 0.59659
 Cu51 Cu 0.25541 0.75078 0.89880
 Cu52 Cu 0.24399 0.75024 0.60357
 C53 C 0.28560 0.78747 0.70945
 C54 C 0.21380 0.71354 0.79266
 C55 C 0.28564 0.71352 0.71088
 C56 C 0.21377 0.78751 0.79185
 C57 C 1.01472 -0.08340 -0.16206
 C58 C 0.98582 -0.08339 -0.16206
 C59 C 0.97753 -0.05861 -0.08891
 N60 N 1.00032 -0.04354 -0.04399
 C61 C 1.02308 -0.05862 -0.08896
 C62 C 0.94938 -0.05110 -0.05613
 C63 C 0.94156 -0.02402 -0.00026
 C64 C 0.91561 -0.01757 0.06357
 C65 C 0.91564 0.01114 0.09334
 C66 C 0.94162 0.02144 0.04699
 N67 N 0.95728 -0.00012 -0.01003
 C68 C 0.94949 0.05040 0.04912
 C69 C 0.97766 0.05961 0.03428
 C70 C 0.98602 0.08762 0.01664
 C71 C 1.01491 0.08762 0.01638
 C72 C 1.02323 0.05962 0.03379
 N73 N 1.00043 0.04256 0.04527
 C74 C 1.05139 0.05042 0.04800
 C75 C 1.05923 0.02147 0.04572
 C76 C 1.08518 0.01119 0.09207
 C77 C 1.08512 -0.01754 0.06293
 C78 C 1.05915 -0.02401 -0.00073
 N79 N 1.04350 -0.00011 -0.01086
 C80 C 1.05125 -0.05113 -0.05625
 H81 H 1.02803 -0.09982 -0.20999
 H82 H 0.97246 -0.09979 -0.21006
 H83 H 1.02460 0.00192 -0.06938
 H84 H 0.89833 -0.03199 0.08523
 H85 H 0.89840 0.02310 0.14234
 H86 H 0.97271 0.10613 0.00592
 H87 H 1.02826 0.10614 0.00537
 H88 H 1.10234 -0.03197 0.08500
 H89 H 0.97617 0.00193 -0.06874
 H90 H 1.10245 0.02318 0.14097
 C91 C 0.51461 0.58809 0.51921
 C92 C 0.48572 0.58817 0.51913
 C93 C 0.47727 0.56018 0.53574
 N94 N 0.49998 0.54303 0.54652
 C95 C 0.52283 0.56005 0.53587
 C96 C 0.44906 0.55104 0.54966
 C97 C 0.44106 0.52212 0.54653
 C98 C 0.41504 0.51188 0.59250
 C99 C 0.41495 0.48318 0.56268
 C100 C 0.44091 0.47667 0.49909
 N101 N 0.45669 0.50053 0.48944
 C102 C 0.44870 0.44955 0.44344
 C103 C 0.47682 0.44201 0.41029
 C104 C 0.48505 0.41722 0.33702
 C105 C 0.51395 0.41713 0.33703
 C106 C 0.52237 0.44188 0.41034
 N107 N 0.49965 0.45701 0.45529
 C108 C 0.55054 0.44927 0.44337
 C109 C 0.55855 0.47634 0.49906
 C110 C 0.58459 0.48272 0.56209
 C111 C 0.58473 0.51142 0.59198
 C112 C 0.55875 0.52179 0.54664
 N113 N 0.54293 0.50028 0.48990
 C114 C 0.55098 0.55076 0.54978
 H115 H 0.52801 0.60659 0.50886
 H116 H 0.47246 0.60674 0.50879
 H117 H 0.52399 0.50240 0.43197
 H118 H 0.39782 0.52387 0.64158
 H119 H 0.39763 0.46879 0.58420
 H120 H 0.47165 0.40085 0.28899
 H121 H 0.52723 0.40069 0.28902
 H122 H 0.60208 0.52333 0.64051
 H123 H 0.47560 0.50255 0.43098
 H124 H 0.60183 0.46825 0.58307
 C125 C -0.01488 0.58781 -0.01664
 C126 C 0.01401 0.58791 -0.01671
 C127 C 0.02241 0.55989 -0.03410
 N128 N -0.00034 0.54272 -0.04524
 C129 C -0.02315 0.55974 -0.03403
 C130 C 0.05061 0.55075 -0.04837
 C131 C 0.05856 0.52183 -0.04562
 C132 C 0.08460 0.51152 -0.09118
 C133 C 0.08465 0.48289 -0.06156
 C134 C 0.05865 0.47649 0.00150
 N135 N 0.04288 0.50035 0.01091
 C136 C 0.05080 0.44949 0.05694
 C137 C 0.02265 0.44203 0.08996
 C138 C 0.01436 0.41741 0.16306
 C139 C -0.01454 0.41731 0.16297
 C140 C -0.02290 0.44188 0.08979
 N141 N -0.00015 0.45691 0.04500
 C142 C -0.05106 0.44916 0.05652
 C143 C -0.05899 0.47609 0.00095
 C144 C -0.08492 0.48227 -0.06334
 C145 C -0.08500 0.51091 -0.09286
 C146 C -0.05911 0.52144 -0.04593
 N147 N -0.04339 0.50009 0.01135
 C148 C -0.05131 0.55041 -0.04848
 H149 H -0.02825 0.60632 -0.00578
 H150 H 0.02730 0.60651 -0.00593
 H151 H -0.02455 0.50238 0.07036
 H152 H 0.10188 0.52343 -0.13969
 H153 H 0.10198 0.46848 -0.08273
 H154 H 0.02772 0.40115 0.21088
 H155 H -0.02786 0.40098 0.21080
 H156 H -0.10222 0.52267 -0.14269
 H157 H 0.02391 0.50248 0.06886
 H158 H -0.10209 0.46770 -0.08577
 C159 C 0.48551 1.08838 0.48172
 C160 C 0.51440 1.08854 0.48179
 C161 C 0.52286 1.06053 0.46460
 N162 N 0.50015 1.04331 0.45333
 C163 C 0.47729 1.06029 0.46433
 C164 C 0.55107 1.05142 0.45065
 C165 C 0.55904 1.02252 0.45379
 C166 C 0.58504 1.01220 0.40771
 C167 C 0.58515 0.98359 0.43810
 C168 C 0.55922 0.97722 0.50198
 N169 N 0.54343 1.00107 0.51134
 C170 C 0.55142 0.95023 0.55777
 C171 C 0.52326 0.94269 0.59008
 C172 C 0.51497 0.91801 0.66262
 C173 C 0.48608 0.91785 0.66195
 C174 C 0.47770 0.94244 0.58909
 N175 N 0.50045 0.95755 0.54492
 C176 C 0.44953 0.94971 0.55588
 C177 C 0.44160 0.97658 0.49942
 C178 C 0.41566 0.98270 0.43504
 C179 C 0.41555 1.01133 0.40515
 C180 C 0.44143 1.02190 0.45192
 N181 N 0.45719 1.00059 0.50924
 C182 C 0.44916 1.05089 0.44965
 H183 H 0.47210 1.10686 0.49237
 H184 H 0.52766 1.10716 0.49246
 H185 H 0.47604 1.00293 0.56805
 H186 H 0.60224 1.02408 0.35815
 H187 H 0.60246 0.96917 0.41647
 H188 H 0.52833 0.90176 0.71050
 H189 H 0.47278 0.90144 0.70915
 H190 H 0.39829 1.02306 0.35555
 H191 H 0.52452 1.00323 0.56987
 H192 H 0.39849 0.96811 0.41304
 C193 C 1.09493 0.10991 0.22118
 C194 C 1.11587 0.11340 0.11070
 C195 C 1.11585 0.09614 -0.01967
 C196 C 1.09491 0.07557 -0.03985
 C197 C 1.19360 0.19195 0.18634
 C198 C 1.07397 0.08935 0.20111
 C199 C 1.13726 0.13477 0.13071
 C200 C 1.15510 0.15275 0.14772
 C201 C 1.17590 0.17387 0.16817
 C202 C 1.07377 0.07211 0.07018
 H203 H 1.09477 0.12311 0.32257
 H204 H 1.13197 0.09865 -0.10576
 H205 H 1.09503 0.06244 -0.14146
 H206 H 1.05787 0.08686 0.28727
 C207 C 0.61559 0.59624 0.48141
 C208 C 0.61566 0.61356 0.61151
 C209 C 0.59472 0.61019 0.72211
 C210 C 0.57372 0.58966 0.70253
 C211 C 0.69344 0.69205 0.68762
 C212 C 0.59458 0.57572 0.46166
 C213 C 0.63711 0.63490 0.63136
 C214 C 0.65496 0.65286 0.64854
 C215 C 0.67576 0.67397 0.66930
 C216 C 0.57344 0.57237 0.57180
 H217 H 0.63169 0.59867 0.39514
 H218 H 0.59460 0.62345 0.82322
 H219 H 0.55764 0.58724 0.78888
 H220 H 0.59467 0.56252 0.36030
 C221 C -0.09370 0.38163 0.00631
 C222 C -0.11531 0.38586 0.11242
 C223 C -0.11595 0.41081 0.20003
 C224 C -0.09502 0.43142 0.18193
 C225 C -0.19328 0.30771 0.18751
 C226 C -0.07277 0.40223 -0.01194
 C227 C -0.13674 0.36455 0.13204
 C228 C -0.15463 0.34667 0.14902
 C229 C -0.17551 0.32568 0.16947
 C230 C -0.07326 0.42724 0.07599
 H231 H -0.09302 0.36243 -0.06219
 H232 H -0.13258 0.41430 0.28236
 H233 H -0.09569 0.45059 0.25060
 H234 H -0.05618 0.39874 -0.09454
 C235 C 0.40678 0.88217 0.50938
 C236 C 0.38507 0.88669 0.61453
 C237 C 0.38448 0.91178 0.70099
 C238 C 0.40550 0.93228 0.68221
 C239 C 0.30663 0.80891 0.68642
 C240 C 0.42777 0.90266 0.49033
 C241 C 0.36344 0.86556 0.63356
 C242 C 0.34542 0.84778 0.64951
 C243 C 0.32444 0.82685 0.66880
 C244 C 0.42729 0.92786 0.57669
 H245 H 0.40745 0.86283 0.44202
 H246 H 0.36778 0.91548 0.78272
 H247 H 0.40485 0.95158 0.74987
 H248 H 0.44439 0.89896 0.40822
 C249 C -0.11590 0.59605 0.01805
 C250 C -0.11575 0.61312 -0.11167
 C251 C -0.09469 0.60950 -0.22162
 C252 C -0.07377 0.58899 -0.20156
 C253 C -0.19297 0.69188 -0.18632
 C254 C -0.09499 0.57554 0.03827
 C255 C -0.13704 0.63452 -0.13145
 C256 C -0.15477 0.65254 -0.14819
 C257 C -0.17541 0.67373 -0.16834
 C258 C -0.07371 0.57197 -0.07110
 H259 H -0.13210 0.59867 0.10375
 H260 H -0.09439 0.62257 -0.32250
 H261 H -0.05759 0.58640 -0.28734
 H262 H -0.09523 0.56257 0.13946
 C263 C 0.38437 1.09619 0.51664
 C264 C 0.38435 1.11320 0.38668
 C265 C 0.40541 1.10971 0.27665
 C266 C 0.42649 1.08937 0.29676
 C267 C 0.30627 1.19107 0.31253
 C268 C 0.40544 1.07585 0.53690
 C269 C 0.36284 1.13437 0.36685
 C270 C 0.34491 1.15218 0.35028
 C271 C 0.32402 1.17312 0.33042
 C272 C 0.42670 1.07238 0.42735
 H273 H 0.36817 1.09871 0.60243
 H274 H 0.40558 1.12274 0.17561
 H275 H 0.44267 1.08685 0.21088
 H276 H 0.40531 1.06290 0.63820
 C277 C 1.09396 -0.11844 -0.00881
 C278 C 1.11561 -0.11424 -0.11441
 C279 C 1.11621 -0.08942 -0.20122
 C280 C 1.09524 -0.06887 -0.18242
 C281 C 1.19387 -0.19219 -0.18675
 C282 C 1.07301 -0.09789 0.01025
 C283 C 1.13717 -0.13543 -0.13361
 C284 C 1.15515 -0.15325 -0.14971
 C285 C 1.17609 -0.17421 -0.16916
 C286 C 1.07349 -0.07298 -0.07659
 H287 H 1.09329 -0.13757 0.05887
 H288 H 1.13286 -0.08597 -0.28330
 H289 H 1.09590 -0.04977 -0.25032
 H290 H 1.05643 -0.10134 0.09273
 C291 C 0.61538 0.41074 0.29895
 C292 C 0.61478 0.38601 0.38643
 C293 C 0.59317 0.38195 0.49253
 C294 C 0.57224 0.40253 0.51111
 C295 C 0.69272 0.30789 0.31042
 C296 C 0.59444 0.43133 0.31731
 C297 C 0.63622 0.36473 0.36666
 C298 C 0.65411 0.34686 0.34944
 C299 C 0.67498 0.32588 0.32860
 C300 C 0.57271 0.42734 0.42337
 H301 H 0.63200 0.41409 0.21657
 H302 H 0.59252 0.36289 0.56078
 H303 H 0.55569 0.39920 0.59388
 H304 H 0.59509 0.45035 0.24886
 C305 C 0.88433 -0.08931 -0.20165
 C306 C 0.88478 -0.11410 -0.11460
 C307 C 0.90636 -0.11832 -0.00874
 C308 C 0.92739 -0.09781 0.01042
 C309 C 0.80641 -0.19212 -0.18665
 C310 C 0.90538 -0.06879 -0.18267
 C311 C 0.86315 -0.13526 -0.13377
 C312 C 0.84514 -0.15310 -0.14973
 C313 C 0.82419 -0.17410 -0.16899
 C314 C 0.92706 -0.07293 -0.07663
 H315 H 0.86776 -0.08587 -0.28416
 H316 H 0.90693 -0.13745 0.05890
 H317 H 0.94391 -0.10127 0.09311
 H318 H 0.90484 -0.04970 -0.25066
 C319 C 0.40573 0.38237 0.49338
 C320 C 0.38421 0.38640 0.38686
 C321 C 0.38370 0.41113 0.29937
 C322 C 0.40470 0.43171 0.31775
 C323 C 0.30633 0.30804 0.31079
 C324 C 0.42672 0.40294 0.51195
 C325 C 0.36276 0.36509 0.36674
 C326 C 0.34488 0.34716 0.34946
 C327 C 0.32404 0.32609 0.32885
 C328 C 0.42639 0.42770 0.42389
 H329 H 0.40629 0.36335 0.56190
 H330 H 0.36712 0.41447 0.21687
 H331 H 0.40414 0.45071 0.24911
 H332 H 0.44323 0.39961 0.59485
 C333 C 0.09399 0.61004 -0.22076
 C334 C 0.11502 0.61368 -0.11065
 C335 C 0.11510 0.59661 0.01907
 C336 C 0.09416 0.57608 0.03912
 C337 C 0.19281 0.69205 -0.18422
 C338 C 0.07305 0.58949 -0.20088
 C339 C 0.13640 0.63504 -0.13024
 C340 C 0.15426 0.65298 -0.14660
 C341 C 0.17509 0.67404 -0.16628
 C342 C 0.07294 0.57245 -0.07045
 H343 H 0.09375 0.62311 -0.32164
 H344 H 0.13128 0.59924 0.10485
 H345 H 0.09437 0.56309 0.14028
 H346 H 0.05690 0.58686 -0.28678
 C347 C 0.59457 1.11057 0.27779
 C348 C 0.61556 1.11426 0.38808
 C349 C 0.61555 1.09729 0.51820
 C350 C 0.59456 1.07681 0.53838
 C351 C 0.69371 1.19224 0.31325
 C352 C 0.57358 1.09008 0.29783
 C353 C 0.63704 1.13551 0.36810
 C354 C 0.65498 1.15335 0.35143
 C355 C 0.67591 1.17430 0.33140
 C356 C 0.57339 1.07314 0.42859
 H357 H 0.59443 1.12353 0.17648
 H358 H 0.63171 1.09993 0.60401
 H359 H 0.59472 1.06387 0.63972
 H360 H 0.55749 1.08739 0.21163
 C361 C 0.11581 0.41141 0.19992
 C362 C 0.11509 0.38637 0.11303
 C363 C 0.09343 0.38204 0.00735
 C364 C 0.07252 0.40260 -0.01110
 C365 C 0.19261 0.30792 0.18670
 C366 C 0.09489 0.43198 0.18170
 C367 C 0.13645 0.36506 0.13285
 C368 C 0.15424 0.34711 0.14952
 C369 C 0.17497 0.32600 0.16923
 C370 C 0.07306 0.42768 0.07630
 H371 H 0.13249 0.41498 0.28187
 H372 H 0.09268 0.36277 -0.06056
 H373 H 0.05590 0.39902 -0.09334
 H374 H 0.09561 0.45121 0.24989
 C375 C 0.59424 0.88285 0.51021
 C376 C 0.61594 0.88737 0.61540
 C377 C 0.61656 0.91246 0.70193
 C378 C 0.59555 0.93294 0.68329
 C379 C 0.69385 0.80922 0.68702
 C380 C 0.57327 0.90333 0.49126
 C381 C 0.63748 0.86620 0.63454
 C382 C 0.65538 0.84834 0.65045
 C383 C 0.67620 0.82728 0.66960
 C384 C 0.57374 0.92849 0.57789
 H385 H 0.59354 0.86351 0.44288
 H386 H 0.63323 0.91615 0.78377
 H387 H 0.59621 0.95222 0.75109
 H388 H 0.55665 0.89961 0.40915
 C389 C 0.90605 0.11009 0.22041
 C390 C 0.88479 0.11303 0.11133
 C391 C 0.88464 0.09543 -0.01768
 C392 C 0.90569 0.07502 -0.03774
 C393 C 0.80652 0.19085 0.18610
 C394 C 0.92710 0.08966 0.20055
 C395 C 0.86324 0.13419 0.13132
 C396 C 0.84526 0.15198 0.14810
 C397 C 0.82431 0.17290 0.16815
 C398 C 0.92711 0.07206 0.07103
 H399 H 0.90636 0.12360 0.32058
 H400 H 0.86830 0.09753 -0.10283
 H401 H 0.90540 0.06159 -0.13818
 H402 H 0.94339 0.08754 0.28583
 C403 C 0.40565 0.61052 0.72338
 C404 C 0.38465 0.61392 0.61324
 C405 C 0.38463 0.59667 0.48290
 C406 C 0.40558 0.57617 0.46241
 C407 C 0.30666 0.69206 0.68812
 C408 C 0.42661 0.59001 0.70304
 C409 C 0.36322 0.63520 0.63346
 C410 C 0.34531 0.65308 0.65022
 C411 C 0.32443 0.67408 0.67023
 C412 C 0.42676 0.57276 0.57212
 H413 H 0.40585 0.62374 0.82470
 H414 H 0.36848 0.59913 0.39702
 H415 H 0.40541 0.56302 0.36087
 H416 H 0.44273 0.58755 0.78904
   
