data_POSCAR
  _audit_creation_date              2014-09-24
  _audit_creation_method            'ToBaCCo'
  _symmetry_space_group_name_H-M    'P1'
  _symmetry_Int_Tables_number       1
  _symmetry_cell_setting            triclinic
  loop_
  _symmetry_equiv_pos_as_xyz
 x,y,z
_cell_length_a 51.6156
_cell_length_b 52.2248
_cell_length_c 52.1430
_cell_angle_alpha 88.939900
_cell_angle_beta 89.316600
_cell_angle_gamma 90.074400
loop_
  _atom_site_label
  _atom_site_type_symbol
  _atom_site_fract_x
  _atom_site_fract_y
  _atom_site_fract_z
N1 N 0.27848 0.24427 0.22719
 N2 N 0.26716 0.26519 0.21851
 C3 C 0.27924 0.27314 0.19678
 C4 C 0.29913 0.25639 0.19153
 C5 C 0.29819 0.23823 0.21122
 H6 H 0.27389 0.28976 0.18536
 H7 H 0.31063 0.22175 0.21365
 Cu8 Cu 0.23741 0.27993 0.23592
 Cu9 Cu 0.26621 0.22613 0.25813
 Cu10 Cu 0.21186 0.25116 0.28836
 N11 N 0.20704 0.29371 0.25319
 N12 N 0.19716 0.28232 0.27375
 C13 C 0.17664 0.29581 0.28211
 C14 C 0.17343 0.31670 0.26589
 C15 C 0.19305 0.31483 0.24769
 H16 H 0.16492 0.29088 0.29881
 H17 H 0.19698 0.32793 0.23183
 N18 N 0.22938 0.21990 0.30048
 N19 N 0.25055 0.21068 0.28960
 C20 C 0.25811 0.18966 0.30297
 C21 C 0.24069 0.18554 0.32302
 C22 C 0.22277 0.20491 0.32077
 H23 H 0.27472 0.17798 0.29824
 H24 H 0.20618 0.20786 0.33322
 H25 H 0.22835 0.23769 0.25459
 H26 H 0.24958 0.25731 0.27532
 N27 N 0.70206 -0.23315 0.23028
 N28 N 0.71161 -0.25527 0.22319
 C29 C 0.69659 -0.26488 0.20465
 C30 C 0.67653 -0.24777 0.20013
 C31 C 0.68063 -0.22797 0.21674
 H32 H 0.70004 -0.28287 0.19528
 H33 H 0.66893 -0.21093 0.21867
 Cu34 Cu 0.74263 -0.26950 0.23900
 Cu35 Cu 0.71799 -0.21253 0.25633
 Cu36 Cu 0.77654 -0.23326 0.28022
 N37 N 0.77701 -0.27928 0.25075
 N38 N 0.79055 -0.26463 0.26588
 C39 C 0.81385 -0.27547 0.26990
 C40 C 0.81485 -0.29829 0.25691
 C41 C 0.79109 -0.30016 0.24495
 H42 H 0.82886 -0.26755 0.28169
 H43 H 0.78471 -0.31519 0.23252
 N44 N 0.75900 -0.20205 0.29232
 N45 N 0.73677 -0.19409 0.28281
 C46 C 0.72973 -0.17232 0.29439
 C47 C 0.74820 -0.16636 0.31217
 C48 C 0.76657 -0.18559 0.31044
 H49 H 0.71230 -0.16158 0.29039
 H50 H 0.78415 -0.18737 0.32139
 H51 H 0.75517 -0.22565 0.24791
 H52 H 0.73789 -0.24148 0.27576
 N53 N 0.70217 0.24965 0.78571
 N54 N 0.71046 0.27280 0.79076
 C55 C 0.69741 0.28167 0.81124
 C56 C 0.67983 0.26319 0.81929
 C57 C 0.68334 0.24306 0.80269
 H58 H 0.70046 0.30018 0.81966
 H59 H 0.67329 0.22488 0.80310
 Cu60 Cu 0.73745 0.28932 0.77024
 Cu61 Cu 0.71682 0.22987 0.75777
 Cu62 Cu 0.77267 0.25414 0.72902
 N63 N 0.77092 0.30074 0.75733
 N64 N 0.78550 0.28640 0.74257
 C65 C 0.80815 0.29863 0.73779
 C66 C 0.80733 0.32201 0.75001
 C67 C 0.78343 0.32270 0.76208
 H68 H 0.82358 0.29139 0.72576
 H69 H 0.77588 0.33791 0.77382
 N70 N 0.75598 0.22206 0.71812
 N71 N 0.73466 0.21292 0.72916
 C72 C 0.72720 0.19176 0.71687
 C73 C 0.74446 0.18743 0.69706
 C74 C 0.76256 0.20697 0.69837
 H75 H 0.71002 0.18065 0.72148
 H76 H 0.77890 0.21031 0.68558
 H77 H 0.75306 0.24635 0.76288
 H78 H 0.73353 0.25928 0.73545
 N79 N 0.29638 -0.24698 0.78952
 N80 N 0.28456 -0.26713 0.79959
 C81 C 0.29713 -0.27483 0.82082
 C82 C 0.31795 -0.25874 0.82418
 C83 C 0.31699 -0.24120 0.80397
 H84 H 0.29166 -0.29099 0.83301
 H85 H 0.33008 -0.22540 0.80010
 Cu86 Cu 0.25393 -0.28135 0.78400
 Cu87 Cu 0.28372 -0.22986 0.75860
 Cu88 Cu 0.22864 -0.25524 0.73049
 N89 N 0.22335 -0.29558 0.76842
 N90 N 0.21326 -0.28551 0.74752
 C91 C 0.19218 -0.29929 0.74119
 C92 C 0.18915 -0.31895 0.75927
 C93 C 0.20920 -0.31596 0.77614
 H94 H 0.18014 -0.29527 0.72478
 H95 H 0.21312 -0.32790 0.79282
 N96 N 0.24725 -0.22470 0.71647
 N97 N 0.26808 -0.21519 0.72735
 C98 C 0.27608 -0.19441 0.71383
 C99 C 0.25970 -0.19060 0.69350
 C100 C 0.24156 -0.21011 0.69563
 H101 H 0.29261 -0.18268 0.71842
 H102 H 0.22536 -0.21329 0.68313
 H103 H 0.24506 -0.24037 0.76274
 H104 H 0.26584 -0.26145 0.74283
 N105 N 0.71715 -0.23403 0.77104
 N106 N 0.72612 -0.25539 0.78131
 C107 C 0.71184 -0.26145 0.80239
 C108 C 0.69298 -0.24284 0.80531
 C109 C 0.69694 -0.22581 0.78514
 H110 H 0.71475 -0.27821 0.81448
 H111 H 0.68573 -0.20880 0.78094
 Cu112 Cu 0.75517 -0.27334 0.76555
 Cu113 Cu 0.73166 -0.21851 0.73988
 Cu114 Cu 0.78354 -0.24966 0.71185
 N115 N 0.78502 -0.29016 0.74993
 N116 N 0.79561 -0.28076 0.72870
 C117 C 0.81533 -0.29582 0.72143
 C118 C 0.81739 -0.31572 0.73898
 C119 C 0.79786 -0.31164 0.75696
 H120 H 0.82741 -0.29254 0.70459
 H121 H 0.79323 -0.32338 0.77368
 N122 N 0.76873 -0.21795 0.69756
 N123 N 0.74904 -0.20591 0.70827
 C124 C 0.74350 -0.18490 0.69398
 C125 C 0.76057 -0.18382 0.67334
 C126 C 0.77621 -0.20499 0.67620
 H127 H 0.72814 -0.17152 0.69820
 H128 H 0.79191 -0.21047 0.66353
 H129 H 0.74547 -0.25204 0.72476
 H130 H 0.76832 -0.23323 0.74461
 N131 N 0.28791 0.23103 0.77116
 N132 N 0.27829 0.25189 0.78134
 C133 C 0.29225 0.25777 0.80216
 C134 C 0.31160 0.23960 0.80497
 C135 C 0.30825 0.22302 0.78501
 H136 H 0.28882 0.27414 0.81411
 H137 H 0.31993 0.20640 0.78082
 Cu138 Cu 0.24892 0.26952 0.76569
 Cu139 Cu 0.27383 0.21566 0.74055
 Cu140 Cu 0.22119 0.24591 0.71314
 N141 N 0.21873 0.28592 0.75025
 N142 N 0.20826 0.27636 0.72964
 C143 C 0.18812 0.29094 0.72247
 C144 C 0.18569 0.31074 0.73936
 C145 C 0.20541 0.30710 0.75689
 H146 H 0.17604 0.28748 0.70608
 H147 H 0.20975 0.31893 0.77309
 N148 N 0.23682 0.21489 0.69906
 N149 N 0.25681 0.20312 0.70952
 C150 C 0.26297 0.18263 0.69531
 C151 C 0.24601 0.18166 0.67498
 C152 C 0.22980 0.20233 0.67795
 H153 H 0.27877 0.16965 0.69926
 H154 H 0.21411 0.20780 0.66546
 H155 H 0.25918 0.24909 0.72510
 H156 H 0.23684 0.22938 0.74591
 N157 N 0.29749 -0.24056 0.22175
 N158 N 0.28777 -0.25935 0.20843
 C159 C 0.30388 -0.26427 0.18859
 C160 C 0.32477 -0.24766 0.18970
 C161 C 0.32008 -0.23296 0.21095
 H162 H 0.30081 -0.27899 0.17466
 H163 H 0.33232 -0.21790 0.21804
 Cu164 Cu 0.25538 -0.27588 0.21893
 Cu165 Cu 0.28040 -0.22733 0.25220
 Cu166 Cu 0.22258 -0.25616 0.27096
 N167 N 0.22247 -0.29149 0.22933
 N168 N 0.21007 -0.28381 0.24996
 C169 C 0.18830 -0.29767 0.25326
 C170 C 0.18689 -0.31501 0.23361
 C171 C 0.20883 -0.31053 0.21871
 H172 H 0.17446 -0.29510 0.26870
 H173 H 0.21442 -0.32054 0.20155
 N174 N 0.23826 -0.22785 0.28970
 N175 N 0.26019 -0.21671 0.28246
 C176 C 0.26552 -0.19779 0.29880
 C177 C 0.24598 -0.19707 0.31715
 C178 C 0.22910 -0.21636 0.31085
 H179 H 0.28233 -0.18547 0.29738
 H180 H 0.21133 -0.22144 0.32091
 H181 H 0.26150 -0.26086 0.26245
 H182 H 0.24331 -0.23748 0.24200
 N183 N 0.70572 0.24396 0.20629
 N184 N 0.71240 0.26768 0.20047
 C185 C 0.69934 0.27557 0.17957
 C186 C 0.68349 0.25583 0.17208
 C187 C 0.68799 0.23601 0.18945
 H188 H 0.70123 0.29422 0.17036
 H189 H 0.67940 0.21713 0.18966
 Cu190 Cu 0.73792 0.28518 0.22083
 Cu191 Cu 0.72127 0.22478 0.23471
 Cu192 Cu 0.77059 0.25536 0.26747
 N193 N 0.76589 0.30238 0.23809
 N194 N 0.77942 0.29014 0.25567
 C195 C 0.79853 0.30557 0.26365
 C196 C 0.79660 0.32873 0.25048
 C197 C 0.77568 0.32611 0.23454
 H198 H 0.81253 0.30046 0.27812
 H199 H 0.76857 0.34028 0.22100
 N200 N 0.75837 0.22033 0.27632
 N201 N 0.73957 0.20883 0.26393
 C202 C 0.73513 0.18570 0.27497
 C203 C 0.75176 0.18252 0.29526
 C204 C 0.76628 0.20480 0.29561
 H205 H 0.72052 0.17225 0.26906
 H206 H 0.78116 0.20956 0.30913
 H207 H 0.73225 0.25536 0.25689
 H208 H 0.75630 0.24392 0.23279
 C209 C 0.25882 -0.01607 0.41858
 C210 C 0.26146 0.00995 0.42031
 C211 C 0.26575 0.01496 0.44593
 N212 N 0.26597 -0.00713 0.45984
 C213 C 0.26161 -0.02612 0.44319
 C214 C 0.27173 0.03928 0.45567
 C215 C 0.27543 0.04367 0.48199
 C216 C 0.28740 0.06509 0.49178
 C217 C 0.28557 0.06287 0.51807
 C218 C 0.27215 0.04035 0.52362
 N219 N 0.26611 0.02875 0.50150
 C220 C 0.26436 0.03190 0.54849
 C221 C 0.25551 0.00678 0.55399
 C222 C 0.24384 -0.00109 0.57688
 C223 C 0.23935 -0.02688 0.57499
 C224 C 0.24870 -0.03396 0.55112
 N225 N 0.25852 -0.01333 0.53829
 C226 C 0.24974 -0.05933 0.54218
 C227 C 0.25604 -0.06521 0.51653
 C228 C 0.26380 -0.08914 0.50837
 C229 C 0.26753 -0.08715 0.48228
 C230 C 0.26161 -0.06213 0.47511
 N231 N 0.25461 -0.04887 0.49615
 C232 C 0.26190 -0.05249 0.44954
 H233 H 0.25551 -0.02642 0.40112
 H234 H 0.26088 0.02350 0.40438
 H235 H 0.24681 -0.03052 0.49631
 H236 H 0.29642 0.08074 0.48110
 H237 H 0.29304 0.07650 0.53151
 H238 H 0.23897 0.01053 0.59321
 H239 H 0.23033 -0.03899 0.58960
 H240 H 0.27399 -0.10246 0.47006
 H241 H 0.25364 0.01325 0.49973
 H242 H 0.26679 -0.10622 0.52004
 C243 C 0.76150 0.00437 0.57963
 C244 C 0.76540 0.03034 0.57841
 C245 C 0.76066 0.03806 0.55331
 N246 N 0.75421 0.01763 0.53914
 C247 C 0.75485 -0.00298 0.55517
 C248 C 0.76129 0.06365 0.54397
 C249 C 0.76065 0.07003 0.51753
 C250 C 0.75555 0.09430 0.50763
 C251 C 0.75830 0.09297 0.48144
 C252 C 0.76516 0.06794 0.47600
 N253 N 0.76651 0.05407 0.49813
 C254 C 0.77170 0.05911 0.45127
 C255 C 0.77441 0.03289 0.44555
 C256 C 0.78604 0.02350 0.42356
 C257 C 0.78381 -0.00269 0.42502
 C258 C 0.77074 -0.00840 0.44779
 N259 N 0.76501 0.01338 0.46029
 C260 C 0.76326 -0.03320 0.45632
 C261 C 0.75340 -0.03821 0.48127
 C262 C 0.73986 -0.06011 0.48867
 C263 C 0.73535 -0.05852 0.51463
 C264 C 0.74657 -0.03584 0.52244
 N265 N 0.75734 -0.02346 0.50193
 C266 C 0.74865 -0.02821 0.54823
 H267 H 0.76368 -0.00774 0.59653
 H268 H 0.77127 0.04207 0.59421
 H269 H 0.76955 -0.00765 0.50257
 H270 H 0.75048 0.11126 0.51819
 H271 H 0.75581 0.10877 0.46798
 H272 H 0.79543 0.03433 0.40818
 H273 H 0.79112 -0.01593 0.41098
 H274 H 0.72534 -0.07271 0.52646
 H275 H 0.77396 0.03568 0.50009
 H276 H 0.73397 -0.07569 0.47663
 C277 C 0.40472 0.23683 -0.00721
 C278 C 0.40611 0.23232 0.01874
 C279 C 0.43147 0.23726 0.02562
 N280 N 0.44561 0.24455 0.00473
 C281 C 0.42933 0.24416 -0.01538
 C282 C 0.44099 0.23598 0.05093
 C283 C 0.46760 0.23758 0.05673
 C284 C 0.47723 0.24193 0.08099
 C285 C 0.50374 0.24051 0.07905
 C286 C 0.50964 0.23524 0.05366
 N287 N 0.48749 0.23349 0.04017
 C288 C 0.53490 0.23061 0.04410
 C289 C 0.54104 0.22981 0.01768
 C290 C 0.56404 0.22065 0.00746
 C291 C 0.56254 0.22394 -0.01864
 C292 C 0.53874 0.23521 -0.02348
 N293 N 0.52565 0.23880 -0.00124
 C294 C 0.52982 0.24299 -0.04792
 C295 C 0.50410 0.25098 -0.05236
 C296 C 0.49610 0.26438 -0.07404
 C297 C 0.46966 0.26694 -0.07194
 C298 C 0.46216 0.25476 -0.04916
 N299 N 0.48332 0.24523 -0.03726
 C300 C 0.43617 0.25114 -0.04086
 H301 H 0.38760 0.23470 -0.01876
 H302 H 0.39025 0.22597 0.03104
 H303 H 0.48326 0.23278 -0.02148
 H304 H 0.46629 0.24564 0.09836
 H305 H 0.51713 0.24286 0.09465
 H306 H 0.58013 0.21221 0.01771
 H307 H 0.57728 0.21852 -0.03242
 H308 H 0.45735 0.27644 -0.08580
 H309 H 0.48588 0.22691 0.02159
 H310 H 0.50807 0.27151 -0.08981
 C311 C 0.59350 0.73635 -0.00739
 C312 C 0.59137 0.73387 0.01876
 C313 C 0.56527 0.73030 0.02437
 N314 N 0.55139 0.73053 0.00253
 C315 C 0.56864 0.73432 -0.01690
 C316 C 0.55493 0.72545 0.04918
 C317 C 0.52801 0.72416 0.05442
 C318 C 0.51693 0.71255 0.07601
 C319 C 0.49062 0.71615 0.07435
 C320 C 0.48633 0.73007 0.05188
 N321 N 0.50926 0.73485 0.03983
 C322 C 0.46184 0.73888 0.04357
 C323 C 0.45734 0.74788 0.01836
 C324 C 0.43508 0.76045 0.01051
 C325 C 0.43748 0.76422 -0.01550
 C326 C 0.46097 0.75353 -0.02272
 N327 N 0.47313 0.74365 -0.00197
 C328 C 0.46992 0.75117 -0.04827
 C329 C 0.49537 0.74339 -0.05453
 C330 C 0.50324 0.73497 -0.07844
 C331 C 0.52931 0.73002 -0.07695
 C332 C 0.53675 0.73578 -0.05223
 N333 N 0.51591 0.74390 -0.03866
 C334 C 0.56247 0.73461 -0.04320
 H335 H 0.61135 0.73932 -0.01814
 H336 H 0.60727 0.73452 0.03207
 H337 H 0.51623 0.75188 -0.02054
 H338 H 0.52676 0.70234 0.09129
 H339 H 0.47632 0.70921 0.08814
 H340 H 0.41879 0.76624 0.02230
 H341 H 0.42337 0.77352 -0.02769
 H342 H 0.54137 0.72293 -0.09237
 H343 H 0.51221 0.74694 0.02398
 H344 H 0.49139 0.73247 -0.09521
 C345 C -0.01696 0.42660 0.25079
 C346 C 0.00952 0.42818 0.24971
 C347 C 0.01563 0.45372 0.24500
 N348 N -0.00632 0.46763 0.24258
 C349 C -0.02628 0.45113 0.24618
 C350 C 0.04098 0.46351 0.24118
 C351 C 0.04665 0.48995 0.23876
 C352 C 0.07067 0.49995 0.23181
 C353 C 0.06918 0.52601 0.23464
 C354 C 0.04416 0.53139 0.24301
 N355 N 0.03067 0.50924 0.24561
 C356 C 0.03517 0.55571 0.25077
 C357 C 0.00883 0.56085 0.25617
 C358 C -0.00039 0.58256 0.26813
 C359 C -0.02695 0.58094 0.26802
 C360 C -0.03308 0.55859 0.25550
 N361 N -0.01118 0.54632 0.24839
 C362 C -0.05833 0.55034 0.24929
 C363 C -0.06352 0.52479 0.24234
 C364 C -0.08606 0.51664 0.23075
 C365 C -0.08450 0.49043 0.22917
 C366 C -0.06114 0.48322 0.23997
 N367 N -0.04835 0.50429 0.24776
 C368 C -0.05270 0.45762 0.24349
 H369 H -0.02796 0.40921 0.25423
 H370 H 0.02260 0.41215 0.25185
 H371 H -0.03173 0.50436 0.25887
 H372 H 0.08788 0.48953 0.22620
 H373 H 0.08517 0.53915 0.23172
 H374 H 0.01078 0.59796 0.27614
 H375 H -0.04013 0.59468 0.27631
 H376 H -0.09896 0.47812 0.22095
 H377 H 0.01283 0.50716 0.25480
 H378 H -0.10203 0.52832 0.22414
 C379 C -0.02246 0.57591 0.75733
 C380 C 0.00370 0.57906 0.75388
 C381 C 0.01431 0.55472 0.75301
 N382 N -0.00456 0.53689 0.75569
 C383 C -0.02712 0.54972 0.75824
 C384 C 0.04100 0.54955 0.74980
 C385 C 0.05189 0.52459 0.75061
 C386 C 0.07725 0.51910 0.74348
 C387 C 0.08075 0.49333 0.74746
 C388 C 0.05733 0.48350 0.75649
 N389 N 0.03986 0.50270 0.75863
 C390 C 0.05294 0.45719 0.76184
 C391 C 0.02808 0.44576 0.76391
 C392 C 0.02363 0.41966 0.76670
 C393 C -0.00260 0.41614 0.76559
 C394 C -0.01359 0.44027 0.76307
 N395 N 0.00526 0.45831 0.76198
 C396 C -0.04056 0.44520 0.76259
 C397 C -0.05128 0.47007 0.76510
 C398 C -0.07635 0.47480 0.77359
 C399 C -0.07941 0.50086 0.77377
 C400 C -0.05606 0.51159 0.76561
 N401 N -0.03900 0.49263 0.76022
 C402 C -0.05171 0.53831 0.76277
 H403 H -0.03628 0.59128 0.75953
 H404 H 0.01375 0.59725 0.75266
 H405 H -0.02096 0.49477 0.75147
 H406 H 0.09178 0.53220 0.73584
 H407 H 0.09838 0.48289 0.74341
 H408 H 0.03774 0.40451 0.76891
 H409 H -0.01222 0.39777 0.76696
 H410 H -0.09692 0.51069 0.77949
 H411 H 0.02161 0.50116 0.76708
 H412 H -0.09088 0.46094 0.77965
 C413 C 0.31663 0.25816 0.16908
 C414 C 0.33630 0.24056 0.16440
 C415 C 0.35325 0.24277 0.14155
 N416 N 0.37259 0.22561 0.13792
 N417 N 0.38807 0.22744 0.11733
 C418 C 0.38475 0.24649 0.09957
 N419 N 0.36538 0.26361 0.10317
 N420 N 0.34992 0.26180 0.12376
 C421 C 0.40177 0.24888 0.07681
 C422 C 0.42263 0.23248 0.07283
 H423 H 0.33944 0.22477 0.17774
 H424 H 0.39818 0.26428 0.06311
 H425 H 0.31372 0.27398 0.15570
 H426 H 0.42728 0.21821 0.08740
 C427 C 0.65617 0.75095 0.18283
 C428 C 0.65311 0.73125 0.16540
 C429 C 0.63163 0.73143 0.14701
 N430 N 0.63127 0.71440 0.12767
 N431 N 0.61232 0.71495 0.11051
 C432 C 0.59295 0.73247 0.11216
 N433 N 0.59316 0.74929 0.13166
 N434 N 0.61215 0.74880 0.14873
 C435 C 0.57243 0.73411 0.09286
 C436 C 0.57341 0.72033 0.07025
 H437 H 0.66710 0.71586 0.16446
 H438 H 0.55699 0.74786 0.09567
 H439 H 0.64232 0.76652 0.18282
 H440 H 0.58974 0.70785 0.06661
 C441 C 0.66178 0.26509 -0.15877
 C442 C 0.64155 0.24778 -0.15461
 C443 C 0.62338 0.24990 -0.13282
 N444 N 0.60183 0.23501 -0.13172
 N445 N 0.58520 0.23663 -0.11209
 C446 C 0.58956 0.25313 -0.09277
 N447 N 0.61119 0.26791 -0.09378
 N448 N 0.62776 0.26639 -0.11349
 C449 C 0.57161 0.25469 -0.07073
 C450 C 0.54771 0.24225 -0.07036
 H451 H 0.63841 0.23258 -0.16807
 H452 H 0.57728 0.26583 -0.05439
 H453 H 0.66409 0.28105 -0.14602
 H454 H 0.54102 0.23303 -0.08751
 C455 C 0.33644 0.73935 -0.15466
 C456 C 0.35820 0.75501 -0.15286
 C457 C 0.37632 0.75214 -0.13140
 N458 N 0.39838 0.76629 -0.13098
 N459 N 0.41495 0.76360 -0.11170
 C460 C 0.41002 0.74669 -0.09213
 N461 N 0.38792 0.73266 -0.09249
 N462 N 0.37140 0.73530 -0.11177
 C463 C 0.42796 0.74334 -0.07066
 C464 C 0.45174 0.75592 -0.06968
 H465 H 0.36229 0.76937 -0.16758
 H466 H 0.42246 0.73017 -0.05523
 H467 H 0.33281 0.72469 -0.14009
 H468 H 0.45828 0.76755 -0.08592
 C469 C 0.15337 0.33651 0.26839
 C470 C 0.14986 0.35586 0.25001
 C471 C 0.12946 0.37530 0.25264
 N472 N 0.12486 0.39206 0.23304
 N473 N 0.10621 0.40955 0.23504
 C474 C 0.09155 0.41099 0.25678
 N475 N 0.09628 0.39435 0.27644
 N476 N 0.11486 0.37681 0.27441
 C477 C 0.07052 0.42978 0.25913
 C478 C 0.06279 0.44527 0.23861
 H479 H 0.16193 0.35653 0.23290
 H480 H 0.06017 0.43088 0.27728
 H481 H 0.14072 0.33547 0.28510
 H482 H 0.07355 0.44510 0.22066
 C483 C 0.17054 0.66175 0.76140
 C484 C 0.15006 0.65857 0.74452
 C485 C 0.13139 0.63738 0.74851
 N486 N 0.11138 0.63418 0.73219
 N487 N 0.09464 0.61491 0.73583
 C488 C 0.09733 0.59819 0.75592
 N489 N 0.11728 0.60143 0.77219
 N490 N 0.13396 0.62064 0.76857
 C491 C 0.07947 0.57656 0.76028
 C492 C 0.05846 0.57175 0.74459
 H493 H 0.14764 0.67155 0.72829
 H494 H 0.08312 0.56372 0.77640
 H495 H 0.17238 0.64843 0.77745
 H496 H 0.05363 0.58523 0.72935
 C497 C -0.16418 0.68483 0.25628
 C498 C -0.16552 0.66056 0.24558
 C499 C -0.14299 0.64332 0.24493
 N500 N -0.14656 0.61762 0.24372
 N501 N -0.12631 0.60181 0.24302
 C502 C -0.10175 0.61116 0.24315
 N503 N -0.09818 0.63688 0.24401
 N504 N -0.11842 0.65267 0.24505
 C505 C -0.07920 0.59398 0.24207
 C506 C -0.08066 0.56842 0.25032
 H507 H -0.18379 0.65332 0.23873
 H508 H -0.06096 0.60187 0.23515
 H509 H -0.14636 0.69063 0.26531
 H510 H -0.09930 0.56089 0.25660
 C511 C -0.17429 0.34158 0.75026
 C512 C -0.14896 0.33897 0.74116
 C513 C -0.13087 0.36069 0.74192
 N514 N -0.10540 0.35679 0.74685
 N515 N -0.08915 0.37657 0.74829
 C516 C -0.09776 0.40091 0.74449
 N517 N -0.12311 0.40475 0.73909
 N518 N -0.13941 0.38502 0.73804
 C519 C -0.08016 0.42295 0.74581
 C520 C -0.05851 0.42284 0.76156
 H521 H -0.14176 0.32052 0.73522
 H522 H -0.08505 0.44012 0.73497
 H523 H -0.17987 0.35948 0.75897
 H524 H -0.05429 0.40566 0.77264
 C525 C 0.23992 0.16496 0.34263
 C526 C 0.26093 0.14911 0.34801
 C527 C 0.25923 0.12914 0.36829
 N528 N 0.28094 0.11708 0.37663
 N529 N 0.27947 0.09906 0.39505
 C530 C 0.25621 0.09240 0.40573
 N531 N 0.23454 0.10433 0.39728
 N532 N 0.23603 0.12241 0.37899
 C533 C 0.25394 0.07207 0.42550
 C534 C 0.27530 0.06098 0.43732
 H535 H 0.27914 0.15191 0.33782
 H536 H 0.23472 0.06527 0.43077
 H537 H 0.22231 0.16300 0.35400
 H538 H 0.29464 0.06827 0.43351
 C539 C 0.74233 0.16685 0.67824
 C540 C 0.75884 0.16482 0.65703
 C541 C 0.75562 0.14461 0.63796
 N542 N 0.77177 0.14371 0.61727
 N543 N 0.76908 0.12555 0.59987
 C544 C 0.75009 0.10761 0.60248
 N545 N 0.73394 0.10852 0.62316
 N546 N 0.73663 0.12668 0.64055
 C547 C 0.74718 0.08707 0.58376
 C548 C 0.76337 0.08503 0.56229
 H549 H 0.77434 0.17856 0.65403
 H550 H 0.73216 0.07286 0.58718
 H551 H 0.72670 0.15317 0.68098
 H552 H 0.77712 0.10021 0.55784
 C553 C 0.26194 -0.16951 0.67451
 C554 C 0.24577 -0.16667 0.65344
 C555 C 0.24900 -0.14504 0.63510
 N556 N 0.23404 -0.14330 0.61390
 N557 N 0.23696 -0.12377 0.59726
 C558 C 0.25493 -0.10526 0.60126
 N559 N 0.26980 -0.10698 0.62247
 N560 N 0.26691 -0.12649 0.63905
 C561 C 0.25851 -0.08347 0.58329
 C562 C 0.24496 -0.08106 0.56043
 H563 H 0.23065 -0.18057 0.65015
 H564 H 0.27260 -0.06896 0.58804
 H565 H 0.27727 -0.15569 0.67730
 H566 H 0.23238 -0.09645 0.55456
 C567 C 0.74750 -0.14389 0.32880
 C568 C 0.76394 -0.14085 0.34953
 C569 C 0.76194 -0.11849 0.36629
 N570 N 0.77536 -0.11794 0.38849
 N571 N 0.77343 -0.09795 0.40394
 C572 C 0.75807 -0.07771 0.39770
 N573 N 0.74481 -0.07818 0.37540
 N574 N 0.74666 -0.09820 0.36003
 C575 C 0.75572 -0.05544 0.41450
 C576 C 0.76621 -0.05530 0.43900
 H577 H 0.77797 -0.15556 0.35416
 H578 H 0.74500 -0.03891 0.40765
 H579 H 0.73272 -0.12965 0.32502
 H580 H 0.77494 -0.07261 0.44670
 C581 C 0.67229 0.75902 -0.17518
 C582 C 0.66913 0.74130 -0.15509
 C583 C 0.64785 0.74347 -0.13621
 N584 N 0.64565 0.72616 -0.11659
 N585 N 0.62636 0.72785 -0.09948
 C586 C 0.60857 0.74692 -0.10140
 N587 N 0.61076 0.76420 -0.12103
 N588 N 0.63005 0.76253 -0.13811
 C589 C 0.58702 0.74896 -0.08287
 C590 C 0.58415 0.73217 -0.06195
 H591 H 0.68245 0.72543 -0.15309
 H592 H 0.57300 0.76415 -0.08570
 H593 H 0.65900 0.77497 -0.17690
 H594 H 0.59900 0.71801 -0.05814
 C595 C 0.33224 0.23770 -0.17584
 C596 C 0.33388 0.25369 -0.15480
 C597 C 0.35496 0.25102 -0.13611
 N598 N 0.35485 0.26522 -0.11456
 N599 N 0.37381 0.26283 -0.09752
 C600 C 0.39362 0.24617 -0.10147
 N601 N 0.39378 0.23209 -0.12306
 N602 N 0.37481 0.23443 -0.14003
 C603 C 0.41481 0.24321 -0.08303
 C604 C 0.41491 0.25534 -0.05944
 H605 H 0.31928 0.26820 -0.15171
 H606 H 0.43073 0.23065 -0.08798
 H607 H 0.34655 0.22278 -0.17836
 H608 H 0.39820 0.26639 -0.05353
 C609 C 0.34774 0.75421 0.17275
 C610 C 0.35024 0.74021 0.15038
 C611 C 0.37336 0.74216 0.13366
 N612 N 0.37389 0.72985 0.11099
 N613 N 0.39465 0.73138 0.09563
 C614 C 0.41571 0.74524 0.10239
 N615 N 0.41523 0.75747 0.12512
 N616 N 0.39442 0.75600 0.14046
 C617 C 0.43879 0.74699 0.08559
 C618 C 0.43907 0.73674 0.06111
 H619 H 0.33472 0.72767 0.14466
 H620 H 0.45578 0.75686 0.09240
 H621 H 0.36298 0.76731 0.17800
 H622 H 0.42145 0.72858 0.05364
 C623 C 0.66603 0.25642 0.14997
 C624 C 0.64861 0.23671 0.14522
 C625 C 0.63066 0.23779 0.12353
 N626 N 0.61184 0.21979 0.12165
 N627 N 0.59510 0.22076 0.10241
 C628 C 0.59663 0.23972 0.08426
 N629 N 0.61560 0.25759 0.08601
 N630 N 0.63229 0.25667 0.10531
 C631 C 0.57779 0.24150 0.06337
 C632 C 0.55565 0.22623 0.06310
 H633 H 0.64742 0.22031 0.15817
 H634 H 0.58057 0.25617 0.04861
 H635 H 0.66654 0.27320 0.13746
 H636 H 0.55183 0.21292 0.07888
 C637 C -0.16430 0.66477 0.73761
 C638 C -0.16181 0.64517 0.75595
 C639 C -0.14164 0.62543 0.75322
 N640 N -0.13692 0.60854 0.77270
 N641 N -0.11824 0.59107 0.77047
 C642 C -0.10371 0.58981 0.74861
 N643 N -0.10860 0.60653 0.72910
 N644 N -0.12718 0.62401 0.73136
 C645 C -0.08246 0.57133 0.74591
 C646 C -0.07437 0.55547 0.76599
 H647 H -0.17422 0.64456 0.77284
 H648 H -0.07200 0.57095 0.72777
 H649 H -0.15107 0.66529 0.72132
 H650 H -0.08506 0.55493 0.78398
 C651 C -0.18694 0.35156 0.25234
 C652 C -0.16111 0.34997 0.25951
 C653 C -0.14419 0.37262 0.25889
 N654 N -0.11828 0.36982 0.25534
 N655 N -0.10281 0.39025 0.25402
 C656 C -0.11265 0.41420 0.25647
 N657 N -0.13851 0.41697 0.26048
 N658 N -0.15403 0.39656 0.26147
 C659 C -0.09567 0.43681 0.25526
 C660 C -0.07173 0.43624 0.24262
 H661 H -0.15255 0.33141 0.26348
 H662 H -0.10213 0.45411 0.26449
 H663 H -0.19472 0.36976 0.24577
 H664 H -0.06596 0.41874 0.23332
 C665 C 0.16581 0.33078 0.73769
 C666 C 0.16323 0.35056 0.75508
 C667 C 0.14233 0.36960 0.75241
 N668 N 0.13923 0.38819 0.77004
 N669 N 0.11999 0.40510 0.76792
 C670 C 0.10321 0.40405 0.74806
 N671 N 0.10641 0.38556 0.73041
 N672 N 0.12559 0.36868 0.73254
 C673 C 0.08127 0.42182 0.74580
 C674 C 0.07610 0.44052 0.76381
 H675 H 0.17637 0.35193 0.77101
 H676 H 0.06812 0.41952 0.72995
 H677 H 0.15240 0.32960 0.72193
 H678 H 0.08989 0.44424 0.77878
 C679 C 0.16652 0.66585 0.22913
 C680 C 0.14705 0.66066 0.24726
 C681 C 0.12655 0.64164 0.24333
 N682 N 0.11023 0.63526 0.26301
 N683 N 0.09160 0.61796 0.25997
 C684 C 0.08850 0.60649 0.23704
 N685 N 0.10470 0.61300 0.21728
 N686 N 0.12342 0.63025 0.22036
 C687 C 0.06844 0.58689 0.23360
 C688 C 0.05414 0.57664 0.25418
 H689 H 0.14702 0.67039 0.26539
 H690 H 0.06563 0.57943 0.21458
 H691 H 0.16722 0.65533 0.21144
 H692 H 0.05610 0.58456 0.27311
 C693 C 0.76238 -0.16482 0.65227
 C694 C 0.74676 -0.14312 0.65093
 C695 C 0.74929 -0.12438 0.62966
 N696 N 0.73488 -0.10268 0.62964
 N697 N 0.73720 -0.08550 0.61053
 C698 C 0.75401 -0.08945 0.59074
 N699 N 0.76832 -0.11120 0.59073
 N700 N 0.76602 -0.12833 0.60983
 C701 C 0.75702 -0.07074 0.56957
 C702 C 0.74408 -0.04736 0.56915
 H703 H 0.73258 -0.13954 0.66589
 H704 H 0.77028 -0.07524 0.55404
 H705 H 0.77679 -0.16803 0.63742
 H706 H 0.73223 -0.04196 0.58546
 C707 C 0.24294 -0.17965 0.33882
 C708 C 0.26000 -0.15949 0.34289
 C709 C 0.25671 -0.14192 0.36437
 N710 N 0.27346 -0.12213 0.36692
 N711 N 0.27081 -0.10600 0.38624
 C712 C 0.25131 -0.10906 0.40375
 N713 N 0.23456 -0.12886 0.40123
 N714 N 0.23719 -0.14500 0.38187
 C715 C 0.24834 -0.09148 0.42528
 C716 C 0.26476 -0.07056 0.42809
 H717 H 0.27619 -0.15621 0.32988
 H718 H 0.23293 -0.09498 0.43919
 H719 H 0.22655 -0.18266 0.35169
 H720 H 0.27910 -0.06616 0.41332
 C721 C 0.75236 0.16027 0.31300
 C722 C 0.76826 0.15921 0.33440
 C723 C 0.76740 0.13761 0.35292
 N724 N 0.78202 0.13827 0.37434
 N725 N 0.78095 0.11918 0.39163
 C726 C 0.76524 0.09869 0.38810
 N727 N 0.75075 0.09794 0.36660
 N728 N 0.75179 0.11705 0.34933
 C729 C 0.76328 0.07782 0.40736
 C730 C 0.77615 0.07867 0.43068
 H731 H 0.78122 0.17495 0.33823
 H732 H 0.75050 0.06188 0.40361
 H733 H 0.73925 0.14457 0.30941
 H734 H 0.78760 0.09538 0.43511
 C735 C 0.24502 0.16348 0.65383
 C736 C 0.26048 0.14168 0.65272
 C737 C 0.25904 0.12404 0.63110
 N738 N 0.27245 0.10171 0.63173
 N739 N 0.27124 0.08560 0.61225
 C740 C 0.25663 0.09127 0.59140
 N741 N 0.24334 0.11364 0.59072
 N742 N 0.24448 0.12970 0.61022
 C743 C 0.25518 0.07382 0.56967
 C744 C 0.26649 0.04963 0.57027
 H745 H 0.27367 0.13720 0.66813
 H746 H 0.24461 0.08000 0.55283
 H747 H 0.23128 0.16738 0.63871
 H748 H 0.27535 0.04262 0.58776
   
