data_POSCAR
  _audit_creation_date              2014-09-24
  _audit_creation_method            'ToBaCCo'
  _symmetry_space_group_name_H-M    'P1'
  _symmetry_Int_Tables_number       1
  _symmetry_cell_setting            triclinic
  loop_
  _symmetry_equiv_pos_as_xyz
 x,y,z
_cell_length_a 14.4324
_cell_length_b 14.4327
_cell_length_c 14.4602
_cell_angle_alpha 90.025600
_cell_angle_beta 90.117100
_cell_angle_gamma 89.912600
loop_
  _atom_site_label
  _atom_site_type_symbol
  _atom_site_fract_x
  _atom_site_fract_y
  _atom_site_fract_z
C1 C -0.00020 0.50022 0.25015
 C2 C 0.00093 0.50017 0.75023
 C3 C 0.25000 -0.00019 0.50078
 C4 C 0.75014 0.00050 0.50000
 C5 C 0.49829 0.25100 1.00078
 C6 C 0.49970 0.74930 0.99934
 B7 B 0.99893 1.10316 0.06148
 B8 B 1.00049 1.10337 -0.06075
 B9 B 1.10272 1.06089 -0.00014
 B10 B 1.06078 0.99904 0.10338
 B11 B 0.93830 1.00095 0.10307
 B12 B 0.89645 1.06172 0.00076
 B13 B 0.99869 0.89708 -0.06108
 B14 B 1.00018 0.89692 0.06116
 B15 B 0.89636 0.93925 -0.00082
 B16 B 0.93838 0.99972 -0.10289
 B17 B 1.06086 1.00084 -0.10270
 B18 B 1.10260 0.93858 0.00107
 B19 B 0.60341 0.49976 0.43775
 B20 B 0.49925 0.56175 0.39631
 B21 B 0.50090 0.43931 0.39597
 B22 B 0.56188 0.39720 0.49752
 B23 B 0.60391 0.50090 0.55980
 B24 B 0.56161 0.60345 0.50002
 B25 B 0.39793 0.49932 0.56029
 B26 B 0.50047 0.43863 0.60045
 B27 B 0.50175 0.56096 0.60202
 B28 B 0.43921 0.60323 0.49887
 B29 B 0.39707 0.50111 0.43826
 B30 B 0.43931 0.39712 0.49936
 C31 C 1.00256 1.39903 0.19292
 C32 C 1.09545 1.35698 0.16188
 C33 C 1.09097 1.26794 0.13045
 C34 C 0.99459 1.22351 0.11316
 C35 C 0.95006 1.23428 0.20603
 C36 C 0.95919 1.31647 0.25003
 C37 C 0.95185 1.39548 0.10202
 C38 C 0.94060 1.30798 0.06780
 H39 H 1.16007 1.39451 0.15730
 H40 H 1.15236 1.23776 0.10781
 H41 H 0.89074 1.19581 0.22512
 H42 H 0.92070 1.31983 0.31238
 H43 H 0.91674 1.45495 0.07206
 H44 H 0.88742 1.30600 0.01997
 C45 C 0.99680 0.60116 0.19271
 C46 C 0.90387 0.64307 0.16116
 C47 C 0.90834 0.73197 0.12944
 C48 C 1.00470 0.77644 0.11264
 C49 C 1.04919 0.76591 0.20573
 C50 C 1.04001 0.68387 0.24988
 C51 C 1.04758 0.60442 0.10208
 C52 C 1.05873 0.69178 0.06765
 H53 H 0.83927 0.60556 0.15629
 H54 H 0.84701 0.76195 0.10620
 H55 H 1.10855 0.80434 0.22494
 H56 H 1.07797 0.68058 0.31274
 H57 H 1.08291 0.54490 0.07259
 H58 H 1.11195 0.69340 0.02006
 C59 C 0.99783 1.39937 -0.19231
 C60 C 1.04856 1.39590 -0.10151
 C61 C 1.05937 1.30852 -0.06692
 C62 C 1.00528 1.22399 -0.11227
 C63 C 0.90902 1.26891 -0.12960
 C64 C 0.90479 1.35792 -0.16111
 C65 C 1.04099 1.31657 -0.24928
 C66 C 1.04978 1.23438 -0.20525
 H67 H 1.08384 1.45529 -0.07178
 H68 H 1.11227 1.30678 -0.01871
 H69 H 0.84757 1.23905 -0.10680
 H70 H 0.84029 1.39584 -0.15646
 H71 H 1.07922 1.31976 -0.31181
 H72 H 1.10891 1.19553 -0.22444
 C73 C 1.00306 0.60120 -0.19256
 C74 C 1.09558 0.64311 -0.16061
 C75 C 1.09063 0.73212 -0.12928
 C76 C 0.99414 0.77663 -0.11281
 C77 C 0.95003 0.76587 -0.20613
 C78 C 0.95991 0.68376 -0.25015
 C79 C 0.95183 0.60464 -0.10214
 C80 C 0.94021 0.69208 -0.06787
 H81 H 1.16017 0.60542 -0.15502
 H82 H 1.15157 0.76182 -0.10549
 H83 H 0.89060 0.80427 -0.22590
 H84 H 0.92265 0.68040 -0.31341
 H85 H 0.91666 0.54516 -0.07265
 H86 H 0.88701 0.69383 -0.02017
 C87 C 1.19257 1.00217 0.39950
 C88 C 1.16120 1.09505 0.35752
 C89 C 1.12983 1.09062 0.26854
 C90 C 1.11273 0.99430 0.22386
 C91 C 1.20602 0.94967 0.23477
 C92 C 1.24986 0.95845 0.31716
 C93 C 1.10159 0.95163 0.39559
 C94 C 1.06736 0.94037 0.30813
 H95 H 1.15632 1.15966 0.39511
 H96 H 1.10698 1.15204 0.23846
 H97 H 1.22549 0.89056 0.19598
 H98 H 1.31200 0.91922 0.32087
 H99 H 1.07137 0.91700 0.45493
 H100 H 1.01925 0.88747 0.30607
 C101 C 1.19263 0.99738 -0.39840
 C102 C 1.10192 1.04863 -0.39482
 C103 C 1.06756 1.05971 -0.30751
 C104 C 1.11284 1.00549 -0.22311
 C105 C 1.12967 0.90911 -0.26784
 C106 C 1.16108 0.90459 -0.35666
 C107 C 1.25018 1.04042 -0.31590
 C108 C 1.20632 1.04962 -0.23375
 H109 H 1.07222 1.08410 -0.45411
 H110 H 1.01954 1.11283 -0.30558
 H111 H 1.10694 0.84769 -0.23776
 H112 H 1.15618 0.83997 -0.39415
 H113 H 1.31291 1.07855 -0.31950
 H114 H 1.22601 1.10882 -0.19526
 C115 C 0.80727 0.99761 0.39880
 C116 C 0.89829 1.04798 0.39506
 C117 C 0.93219 1.05930 0.30766
 C118 C 0.88659 1.00546 0.22332
 C119 C 0.86952 0.90910 0.26777
 C120 C 0.83834 0.90466 0.35672
 C121 C 0.74974 1.04122 0.31636
 C122 C 0.79341 1.05012 0.23413
 H123 H 0.92869 1.08263 0.45446
 H124 H 0.98008 1.11233 0.30571
 H125 H 0.89233 0.84770 0.23768
 H126 H 0.84329 0.84002 0.39421
 H127 H 0.68729 1.07994 0.31976
 H128 H 0.77388 1.10935 0.19554
 C129 C 0.80732 1.00332 -0.39879
 C130 C 0.74975 0.96022 -0.31650
 C131 C 0.79350 0.95125 -0.23417
 C132 C 0.88672 0.99544 -0.22318
 C133 C 0.93219 0.94127 -0.30726
 C134 C 0.89816 0.95244 -0.39476
 C135 C 0.83865 1.09622 -0.35684
 C136 C 0.86982 1.09179 -0.26777
 H137 H 0.68744 0.92149 -0.32005
 H138 H 0.77416 0.89199 -0.19582
 H139 H 0.97994 0.88805 -0.30510
 H140 H 0.92823 0.91728 -0.45396
 H141 H 0.84380 1.16074 -0.39443
 H142 H 0.89283 1.15311 -0.23772
 C143 C 1.39770 1.19287 0.00388
 C144 C 1.31431 1.24967 -0.03899
 C145 C 1.23270 1.20497 -0.04814
 C146 C 1.22297 1.11198 -0.00404
 C147 C 1.30747 1.06723 -0.05828
 C148 C 1.39473 1.10190 -0.04689
 C149 C 1.35648 1.16113 0.09663
 C150 C 1.26778 1.12889 0.09220
 H151 H 1.31657 1.31168 -0.07818
 H152 H 1.19417 1.22345 -0.10754
 H153 H 1.30566 1.01906 -0.11111
 H154 H 1.45429 1.07239 -0.08201
 H155 H 1.39435 1.15637 0.16104
 H156 H 1.23834 1.10534 0.15336
 C157 C 0.60002 1.19396 -0.00253
 C158 C 0.64197 1.16350 -0.09550
 C159 C 0.73102 1.13158 -0.09123
 C160 C 0.77590 1.11390 0.00495
 C161 C 0.76510 1.20686 0.04994
 C162 C 0.68270 1.25091 0.04130
 C163 C 0.60405 1.10263 0.04747
 C164 C 0.69166 1.06837 0.05854
 H165 H 0.60435 1.15958 -0.16012
 H166 H 0.76095 1.10889 -0.15271
 H167 H 0.80387 1.22589 0.10914
 H168 H 0.67932 1.31299 0.08052
 H169 H 0.54481 1.07240 0.08237
 H170 H 0.69401 1.02041 0.11144
 C171 C 1.39828 0.80611 -0.00353
 C172 C 1.35556 0.83664 -0.09608
 C173 C 1.26704 0.86940 -0.09090
 C174 C 1.22299 0.88652 0.00551
 C175 C 1.23384 0.79334 0.04994
 C176 C 1.31587 0.74898 0.04018
 C177 C 1.39512 0.89730 0.04685
 C178 C 1.30774 0.93147 0.05912
 H179 H 1.39224 0.84092 -0.16098
 H180 H 1.23697 0.89305 -0.15176
 H181 H 1.19554 0.77401 0.10921
 H182 H 1.31904 0.68583 0.07755
 H183 H 1.45485 0.92714 0.08153
 H184 H 1.30616 0.97890 0.11270
 C185 C 0.60070 0.80727 0.00151
 C186 C 0.68369 0.75054 -0.04198
 C187 C 0.76579 0.79480 -0.05017
 C188 C 0.77597 0.88777 -0.00556
 C189 C 0.69143 0.93302 -0.05979
 C190 C 0.60403 0.89830 -0.04912
 C191 C 0.64243 0.83876 0.09438
 C192 C 0.73130 0.87045 0.09037
 H193 H 0.68066 0.69027 -0.08378
 H194 H 0.80462 0.77632 -0.10934
 H195 H 0.69357 0.98163 -0.11219
 H196 H 0.54439 0.92854 -0.08371
 H197 H 0.60465 0.84380 0.15867
 H198 H 0.76112 0.89350 0.15180
 C199 C 0.89887 0.50296 0.30723
 C200 C 0.89531 0.45199 0.39786
 C201 C 0.80780 0.44088 0.43184
 C202 C 0.72354 0.49517 0.38647
 C203 C 0.76815 0.59150 0.36993
 C204 C 0.85710 0.59588 0.33862
 C205 C 0.81628 0.45989 0.24969
 C206 C 0.73413 0.45078 0.29346
 H207 H 0.95481 0.41705 0.42802
 H208 H 0.80553 0.38848 0.48034
 H209 H 0.73820 0.65283 0.39311
 H210 H 0.89476 0.66039 0.34372
 H211 H 0.81963 0.42154 0.18717
 H212 H 0.69571 0.39140 0.27416
 C213 C 0.10084 0.49775 0.30772
 C214 C 0.14274 0.40480 0.33900
 C215 C 0.23180 0.40911 0.37035
 C216 C 0.27641 0.50544 0.38742
 C217 C 0.26554 0.55012 0.29459
 C218 C 0.18330 0.54111 0.25061
 C219 C 0.10457 0.54853 0.39860
 C220 C 0.19211 0.55924 0.43314
 H221 H 0.10505 0.34031 0.34397
 H222 H 0.26184 0.34770 0.39326
 H223 H 0.30418 0.60933 0.27551
 H224 H 0.17975 0.57993 0.18839
 H225 H 0.04514 0.58347 0.42863
 H226 H 0.19449 0.61136 0.48211
 C227 C 0.89975 0.49750 0.69244
 C228 C 0.85762 0.40458 0.66153
 C229 C 0.76846 0.40902 0.63020
 C230 C 0.72422 0.50536 0.61201
 C231 C 0.73486 0.55050 0.70459
 C232 C 0.81696 0.54147 0.74905
 C233 C 0.89633 0.54778 0.60144
 C234 C 0.80883 0.55917 0.56694
 H235 H 0.89528 0.33994 0.65667
 H236 H 0.73889 0.34767 0.60691
 H237 H 0.69627 0.61010 0.72312
 H238 H 0.82013 0.58075 0.81103
 H239 H 0.95580 0.58283 0.57185
 H240 H 0.80683 0.61265 0.51945
 C241 C 0.10280 0.50260 0.69393
 C242 C 0.18549 0.45904 0.75151
 C243 C 0.26838 0.45040 0.70834
 C244 C 0.27849 0.49462 0.61434
 C245 C 0.19400 0.44109 0.56897
 C246 C 0.10662 0.45199 0.60321
 C247 C 0.14484 0.59548 0.66297
 C248 C 0.23391 0.59100 0.63170
 H249 H 0.18145 0.41968 0.81338
 H250 H 0.30618 0.39078 0.72772
 H251 H 0.19600 0.38900 0.52021
 H252 H 0.04715 0.41740 0.57277
 H253 H 0.10705 0.66003 0.65777
 H254 H 0.26324 0.65208 0.60817
 C255 C 0.50249 0.69271 0.10073
 C256 C 0.59534 0.66160 0.14281
 C257 C 0.59082 0.63044 0.23177
 C258 C 0.49441 0.61358 0.27620
 C259 C 0.44980 0.70679 0.26528
 C260 C 0.45894 0.75045 0.18302
 C261 C 0.45193 0.60181 0.10456
 C262 C 0.44026 0.56813 0.19199
 H263 H 0.65995 0.65691 0.10530
 H264 H 0.65218 0.60757 0.26193
 H265 H 0.39049 0.72640 0.30384
 H266 H 0.42050 0.81306 0.17954
 H267 H 0.41721 0.57153 0.04518
 H268 H 0.38690 0.52050 0.19397
 C269 C 0.49705 0.69125 0.89884
 C270 C 0.55073 0.60180 0.89527
 C271 C 0.56280 0.56762 0.80793
 C272 C 0.50612 0.61103 0.72366
 C273 C 0.40944 0.62286 0.77011
 C274 C 0.40472 0.65690 0.85822
 C275 C 0.53741 0.74946 0.81585
 C276 C 0.54738 0.70552 0.73390
 H277 H 0.58643 0.57277 0.95477
 H278 H 0.61618 0.51977 0.80637
 H279 H 0.34971 0.59326 0.74367
 H280 H 0.34120 0.64989 0.89715
 H281 H 0.57332 0.81346 0.81902
 H282 H 0.60691 0.72541 0.69590
 C283 C 0.49599 0.30784 0.10156
 C284 C 0.40333 0.33918 0.14361
 C285 C 0.40843 0.37073 0.23234
 C286 C 0.50507 0.38759 0.27630
 C287 C 0.54953 0.29437 0.26560
 C288 C 0.53975 0.25028 0.18369
 C289 C 0.54684 0.39862 0.10482
 C290 C 0.55874 0.43279 0.19202
 H291 H 0.33847 0.34391 0.10635
 H292 H 0.34739 0.39398 0.26250
 H293 H 0.60916 0.27501 0.30374
 H294 H 0.57742 0.18717 0.18018
 H295 H 0.58164 0.42842 0.04538
 H296 H 0.61186 0.48064 0.19383
 C297 C 0.49923 0.30980 0.90068
 C298 C 0.59220 0.34169 0.85989
 C299 C 0.58986 0.37018 0.77043
 C300 C 0.49109 0.39054 0.72601
 C301 C 0.44951 0.29202 0.73553
 C302 C 0.45676 0.25179 0.81876
 C303 C 0.44616 0.40022 0.89854
 C304 C 0.43323 0.44117 0.81463
 H305 H 0.65635 0.34655 0.89824
 H306 H 0.65207 0.39115 0.73970
 H307 H 0.39074 0.27090 0.69699
 H308 H 0.41928 0.18883 0.82255
 H309 H 0.41240 0.42818 0.95934
 H310 H 0.45448 0.44181 0.75031
 C311 C 0.69276 0.89948 0.49724
 C312 C 0.75032 0.81679 0.54034
 C313 C 0.70637 0.73458 0.54937
 C314 C 0.61312 0.72396 0.50498
 C315 C 0.56793 0.80838 0.55922
 C316 C 0.60198 0.89589 0.54795
 C317 C 0.66109 0.85774 0.40451
 C318 C 0.62982 0.76871 0.40883
 H319 H 0.81286 0.82019 0.57887
 H320 H 0.72567 0.69616 0.60858
 H321 H 0.51989 0.80647 0.61207
 H322 H 0.57201 0.95537 0.58289
 H323 H 0.65587 0.89550 0.34013
 H324 H 0.60670 0.73875 0.34753
 C325 C 0.69284 0.10166 0.50272
 C326 C 0.66138 0.14429 0.59520
 C327 C 0.62996 0.23344 0.58999
 C328 C 0.61330 0.27710 0.49339
 C329 C 0.70653 0.26603 0.44944
 C330 C 0.75042 0.18388 0.45942
 C331 C 0.60201 0.10507 0.45176
 C332 C 0.56784 0.19250 0.43987
 H333 H 0.65656 0.10716 0.65995
 H334 H 0.60685 0.26491 0.65077
 H335 H 0.72623 0.30416 0.39014
 H336 H 0.81384 0.18048 0.42266
 H337 H 0.57207 0.04545 0.41704
 H338 H 0.51985 0.19419 0.38679
 C339 C 0.30739 0.89859 0.50407
 C340 C 0.24980 0.81607 0.46099
 C341 C 0.29383 0.73388 0.45140
 C342 C 0.38722 0.72315 0.49547
 C343 C 0.43205 0.80745 0.44146
 C344 C 0.39798 0.89496 0.45310
 C345 C 0.33911 0.85639 0.59686
 C346 C 0.37072 0.76724 0.59216
 H347 H 0.18655 0.81938 0.42366
 H348 H 0.27438 0.69564 0.39203
 H349 H 0.47961 0.80529 0.38830
 H350 H 0.42763 0.95438 0.41798
 H351 H 0.34264 0.89335 0.66180
 H352 H 0.39133 0.73502 0.65391
 C353 C 0.30752 0.10096 0.49787
 C354 C 0.25050 0.18387 0.54108
 C355 C 0.29472 0.26609 0.54964
 C356 C 0.38757 0.27656 0.50459
 C357 C 0.43315 0.19229 0.55876
 C358 C 0.39865 0.10474 0.54837
 C359 C 0.33855 0.14240 0.40487
 C360 C 0.36993 0.23144 0.40869
 H361 H 0.18893 0.18037 0.58096
 H362 H 0.27650 0.30462 0.60929
 H363 H 0.48100 0.19462 0.61187
 H364 H 0.42855 0.04553 0.58389
 H365 H 0.34329 0.10440 0.34060
 H366 H 0.39243 0.26118 0.34705
   
