data_POSCAR
  _audit_creation_date              2014-09-24
  _audit_creation_method            'ToBaCCo'
  _symmetry_space_group_name_H-M    'P1'
  _symmetry_Int_Tables_number       1
  _symmetry_cell_setting            triclinic
  loop_
  _symmetry_equiv_pos_as_xyz
 x,y,z
_cell_length_a 21.0793
_cell_length_b 21.1195
_cell_length_c 21.0209
_cell_angle_alpha 87.623500
_cell_angle_beta 90.748800
_cell_angle_gamma 90.933800
loop_
  _atom_site_label
  _atom_site_type_symbol
  _atom_site_fract_x
  _atom_site_fract_y
  _atom_site_fract_z
Zn1 Zn 0.80138 0.68299 0.81371
 Zn2 Zn 0.78759 0.78765 0.71422
 Zn3 Zn 0.68998 0.68344 0.72280
 Zn4 Zn 0.69995 0.77760 0.82476
 O5 O 0.74479 0.73279 0.76874
 O6 O 0.88245 0.70085 0.79284
 O7 O 0.76690 0.77678 0.63275
 O8 O 0.70583 0.60009 0.73414
 O9 O 0.87162 0.77717 0.71801
 O10 O 0.78858 0.60065 0.80035
 O11 O 0.69312 0.70101 0.63852
 O12 O 0.61678 0.76011 0.82232
 O13 O 0.77266 0.86978 0.72834
 O14 O 0.60878 0.69349 0.74381
 O15 O 0.70707 0.86090 0.80980
 O16 O 0.72392 0.76355 0.90563
 O17 O 0.79668 0.68999 0.89847
 C18 C 0.90610 0.74011 0.75191
 C19 C 0.72739 0.74004 0.60627
 C20 C 0.74799 0.57102 0.76728
 C21 C 0.58373 0.72582 0.78613
 C22 C 0.73772 0.89458 0.76910
 C23 C 0.76346 0.72558 0.93141
 Zn24 Zn 0.18816 0.69227 0.71472
 Zn25 Zn 0.20427 0.79299 0.81114
 Zn26 Zn 0.29733 0.68897 0.80732
 Zn27 Zn 0.29384 0.78737 0.70260
 O28 O 0.24564 0.74042 0.75889
 O29 O 0.10798 0.70518 0.73840
 O30 O 0.22642 0.78108 0.89346
 O31 O 0.28271 0.60746 0.79440
 O32 O 0.12007 0.77910 0.80982
 O33 O 0.20245 0.60820 0.72528
 O34 O 0.28866 0.69781 0.89070
 O35 O 0.37662 0.77114 0.70944
 O36 O 0.21775 0.87584 0.79043
 O37 O 0.37984 0.70162 0.79108
 O38 O 0.28605 0.87071 0.71161
 O39 O 0.27275 0.77442 0.62183
 O40 O 0.18999 0.70886 0.63020
 C41 C 0.08512 0.74172 0.77851
 C42 C 0.25947 0.73835 0.92145
 C43 C 0.24357 0.57855 0.75929
 C44 C 0.40745 0.73565 0.74834
 C45 C 0.25301 0.90267 0.74834
 C46 C 0.22845 0.74233 0.59670
 Zn47 Zn 0.68793 0.17300 0.78833
 Zn48 Zn 0.78444 0.19558 0.68624
 Zn49 Zn 0.67192 0.27950 0.69125
 Zn50 Zn 0.77372 0.28642 0.79027
 O51 O 0.72937 0.23351 0.73899
 O52 O 0.71140 0.09457 0.77142
 O53 O 0.76930 0.21485 0.60376
 O54 O 0.59157 0.25675 0.70879
 O55 O 0.78119 0.11060 0.69443
 O56 O 0.60311 0.17463 0.77693
 O57 O 0.68126 0.27057 0.60724
 O58 O 0.75554 0.36814 0.77498
 O59 O 0.86560 0.21604 0.70210
 O60 O 0.67854 0.36336 0.70268
 O61 O 0.85763 0.28002 0.78233
 O62 O 0.76002 0.26987 0.87281
 O63 O 0.70230 0.18135 0.87239
 C64 C 0.74993 0.07351 0.73174
 C65 C 0.72417 0.24453 0.57606
 C66 C 0.56813 0.21219 0.74398
 C67 C 0.71539 0.39518 0.73787
 C68 C 0.89085 0.24970 0.74448
 C69 C 0.73171 0.22420 0.90213
 Zn70 Zn 0.28080 0.18555 0.69818
 Zn71 Zn 0.17192 0.19895 0.78645
 Zn72 Zn 0.27574 0.29596 0.78170
 Zn73 Zn 0.18570 0.28715 0.67234
 O74 O 0.22853 0.24169 0.73465
 O75 O 0.26423 0.10515 0.72395
 O76 O 0.17849 0.22064 0.86785
 O77 O 0.35916 0.28782 0.77072
 O78 O 0.18256 0.11443 0.78800
 O79 O 0.36363 0.20123 0.71491
 O80 O 0.26199 0.28572 0.86557
 O81 O 0.19298 0.37142 0.67974
 O82 O 0.09128 0.21221 0.76218
 O83 O 0.25847 0.37713 0.76241
 O84 O 0.10222 0.27131 0.67325
 O85 O 0.21049 0.26977 0.59416
 O86 O 0.27387 0.18812 0.61262
 C87 C 0.22238 0.08051 0.76069
 C88 C 0.21898 0.25503 0.89599
 C89 C 0.39074 0.24644 0.74337
 C90 C 0.22330 0.40365 0.72002
 C91 C 0.06775 0.24152 0.71371
 C92 C 0.24526 0.22638 0.57439
 Zn93 Zn 0.72107 0.70693 0.21765
 Zn94 Zn 0.80765 0.82035 0.21845
 Zn95 Zn 0.70974 0.80123 0.31883
 Zn96 Zn 0.82206 0.71587 0.31705
 O97 O 0.76507 0.76113 0.26804
 O98 O 0.73436 0.72336 0.13451
 O99 O 0.78665 0.89945 0.23431
 O100 O 0.62843 0.78129 0.30196
 O101 O 0.79344 0.81121 0.13510
 O102 O 0.63690 0.70980 0.22840
 O103 O 0.71500 0.88613 0.30978
 O104 O 0.81175 0.72674 0.40017
 O105 O 0.89199 0.81769 0.22972
 O106 O 0.72371 0.78285 0.40205
 O107 O 0.90269 0.73742 0.30005
 O108 O 0.81597 0.63195 0.30740
 O109 O 0.74119 0.62607 0.23308
 C110 C 0.76387 0.76852 0.10543
 C111 C 0.74842 0.92200 0.27325
 C112 C 0.60346 0.74279 0.26379
 C113 C 0.76870 0.75346 0.43047
 C114 C 0.92647 0.78077 0.26374
 C115 C 0.78056 0.59967 0.27138
 Zn116 Zn 0.30961 0.82286 0.21120
 Zn117 Zn 0.21859 0.71247 0.20613
 Zn118 Zn 0.31989 0.71450 0.30570
 Zn119 Zn 0.21094 0.80352 0.31083
 O120 O 0.26470 0.76337 0.25846
 O121 O 0.29503 0.81740 0.12744
 O122 O 0.23690 0.63026 0.21659
 O123 O 0.40129 0.73427 0.29060
 O124 O 0.23072 0.73336 0.12377
 O125 O 0.39393 0.81721 0.22312
 O126 O 0.31111 0.63176 0.29186
 O127 O 0.22549 0.78326 0.39338
 O128 O 0.13488 0.71597 0.21914
 O129 O 0.30973 0.72204 0.38930
 O130 O 0.12923 0.78488 0.29544
 O131 O 0.21758 0.88839 0.30334
 O132 O 0.29074 0.90196 0.22938
 C133 C 0.26243 0.77801 0.09628
 C134 C 0.27546 0.60169 0.25413
 C135 C 0.42692 0.77824 0.25642
 C136 C 0.26869 0.75045 0.42068
 C137 C 0.10285 0.74768 0.25690
 C138 C 0.25225 0.92436 0.26814
 Zn139 Zn 0.70496 0.31146 0.19140
 Zn140 Zn 0.80941 0.21770 0.18503
 Zn141 Zn 0.81108 0.31339 0.28615
 Zn142 Zn 0.71574 0.20661 0.29029
 O143 O 0.76038 0.26225 0.23820
 O144 O 0.71343 0.30373 0.10752
 O145 O 0.89265 0.23722 0.19229
 O146 O 0.79246 0.39578 0.27587
 O147 O 0.78766 0.23097 0.10255
 O148 O 0.71434 0.39392 0.20469
 O149 O 0.89301 0.30910 0.26624
 O150 O 0.73017 0.21954 0.37301
 O151 O 0.80322 0.13406 0.20013
 O152 O 0.80536 0.29430 0.36997
 O153 O 0.73432 0.12537 0.27865
 O154 O 0.63186 0.21138 0.27812
 O155 O 0.62369 0.29210 0.20795
 C156 C 0.74782 0.26821 0.07574
 C157 C 0.92190 0.27619 0.22708
 C158 C 0.75177 0.42413 0.24049
 C159 C 0.76905 0.25602 0.40089
 C160 C 0.77104 0.10048 0.23971
 C161 C 0.59861 0.24896 0.24360
 Zn162 Zn 0.20585 0.30802 0.18012
 Zn163 Zn 0.31722 0.22142 0.18768
 Zn164 Zn 0.30382 0.32042 0.28266
 Zn165 Zn 0.21610 0.20773 0.28519
 O166 O 0.26055 0.26438 0.23384
 O167 O 0.22052 0.29441 0.09769
 O168 O 0.39788 0.24192 0.20532
 O169 O 0.28438 0.40035 0.26346
 O170 O 0.30676 0.23556 0.10376
 O171 O 0.21140 0.39282 0.18755
 O172 O 0.38812 0.31739 0.27434
 O173 O 0.22656 0.22219 0.36853
 O174 O 0.31117 0.13741 0.20108
 O175 O 0.28793 0.30852 0.36555
 O176 O 0.23744 0.12713 0.27488
 O177 O 0.13229 0.21005 0.26944
 O178 O 0.12436 0.28611 0.19393
 C179 C 0.26452 0.26491 0.07136
 C180 C 0.42217 0.28266 0.24141
 C181 C 0.24611 0.42597 0.22361
 C182 C 0.25615 0.26631 0.39633
 C183 C 0.27681 0.10305 0.23806
 C184 C 0.09913 0.24454 0.23146
 C185 C -0.02517 0.74163 0.74148
 C186 C 0.01651 0.74038 0.78980
 H187 H -0.00848 0.74700 0.69296
 H188 H 0.00006 0.74168 0.83836
 C189 C 0.73095 -0.03629 0.77032
 C190 C 0.75914 0.00461 0.72894
 H191 H 0.70070 -0.01865 0.80673
 H192 H 0.78977 -0.01254 0.69264
 C193 C 0.76962 0.72164 0.00111
 C194 C 0.76249 0.77270 0.03565
 H195 H 0.78088 0.67636 0.02435
 H196 H 0.75713 0.81902 0.01220
 C197 C 0.51470 0.72449 0.79309
 C198 C 0.47660 0.73341 0.74243
 H199 H 0.49520 0.72155 0.84059
 H200 H 0.49688 0.74291 0.69579
 C201 C 0.25654 -0.02768 0.74057
 C202 C 0.21921 0.01101 0.77176
 H203 H 0.29024 -0.00781 0.70642
 H204 H 0.18459 -0.00861 0.80507
 C205 C 0.26262 0.73366 -0.00882
 C206 C 0.26111 0.78460 0.02657
 H207 H 0.26823 0.68705 0.01397
 H208 H 0.26158 0.83174 0.00413
 C209 C -0.03988 0.25210 0.75194
 C210 C -0.00115 0.24129 0.70401
 H211 H -0.02018 0.26372 0.79800
 H212 H -0.02005 0.23521 0.65642
 C213 C 0.75087 0.50132 0.76863
 C214 C 0.71102 0.46493 0.73532
 H215 H 0.78743 0.47936 0.79838
 H216 H 0.67469 0.48660 0.70510
 C217 C 0.73471 0.21998 -0.02784
 C218 C 0.74206 0.27183 0.00610
 H219 H 0.73005 0.17379 -0.00376
 H220 H 0.74092 0.31842 -0.01749
 C221 C 0.49876 0.20338 0.74607
 C222 C 0.46027 0.25313 0.74321
 H223 H 0.47922 0.15579 0.75238
 H224 H 0.48040 0.30071 0.74295
 C225 C 0.24748 0.50908 0.75954
 C226 C 0.21696 0.47321 0.71760
 H227 H 0.27851 0.48691 0.79514
 H228 H 0.18667 0.49502 0.68116
 C229 C 0.21532 0.25933 -0.03456
 C230 C 0.26755 0.26457 0.00163
 H231 H 0.16932 0.25370 -0.01240
 H232 H 0.31391 0.26373 -0.02003
 C233 C -0.00444 0.78923 0.26181
 C234 C 0.03362 0.73982 0.25689
 H235 H 0.01532 0.83694 0.26179
 H236 H 0.01349 0.69292 0.25043
 C237 C 0.74238 -0.00880 0.27620
 C238 C 0.77677 0.03124 0.23896
 H239 H 0.70889 0.00936 0.30934
 H240 H 0.81000 0.01280 0.20571
 C241 C 0.72142 0.74264 0.53654
 C242 C 0.77263 0.75126 0.50021
 H243 H 0.67532 0.73406 0.51487
 H244 H 0.81937 0.75335 0.52225
 C245 C 0.53420 0.73523 0.26119
 C246 C 0.49636 0.78541 0.25668
 H247 H 0.51409 0.68771 0.26026
 H248 H 0.51680 0.83274 0.25134
 C249 C 0.24705 -0.00649 0.27224
 C250 C 0.28302 0.03387 0.23690
 H251 H 0.21243 0.01140 0.30437
 H252 H 0.31756 0.01578 0.20480
 C253 C 0.22182 0.74405 0.52708
 C254 C 0.27311 0.74646 0.49034
 H255 H 0.17477 0.74108 0.50590
 H256 H 0.31999 0.74328 0.51198
 C257 C -0.00911 0.28438 0.22201
 C258 C 0.02982 0.23553 0.23120
 H259 H 0.01018 0.33215 0.21664
 H260 H 0.01043 0.18879 0.24339
 C261 C 0.78563 0.53015 0.27424
 C262 C 0.74736 0.49353 0.23953
 H263 H 0.82133 0.50888 0.30553
 H264 H 0.71156 0.51505 0.20851
 C265 C 0.72065 0.24805 0.50617
 C266 C 0.77281 0.25354 0.47074
 H267 H 0.67420 0.24861 0.48342
 H268 H 0.81892 0.25927 0.49339
 C269 C 0.52947 0.24109 0.24400
 C270 C 0.49129 0.29086 0.24408
 H271 H 0.50960 0.19339 0.24633
 H272 H 0.51107 0.33825 0.24806
 C273 C 0.27932 0.53221 0.25521
 C274 C 0.24184 0.49563 0.21941
 H275 H 0.31376 0.51056 0.28770
 H276 H 0.20734 0.51694 0.18678
 C277 C 0.25185 0.21985 0.50544
 C278 C 0.25206 0.27081 0.46561
 H279 H 0.25844 0.17310 0.48743
 H280 H 0.25147 0.31778 0.48452
   
