data_POSCAR
  _audit_creation_date              2014-09-24
  _audit_creation_method            'ToBaCCo'
  _symmetry_space_group_name_H-M    'P1'
  _symmetry_Int_Tables_number       1
  _symmetry_cell_setting            triclinic
  loop_
  _symmetry_equiv_pos_as_xyz
 x,y,z
_cell_length_a 29.9902
_cell_length_b 29.9662
_cell_length_c 16.7972
_cell_angle_alpha 89.989200
_cell_angle_beta 90.008700
_cell_angle_gamma 120.034600
loop_
  _atom_site_label
  _atom_site_type_symbol
  _atom_site_fract_x
  _atom_site_fract_y
  _atom_site_fract_z
C1 C 0.39502 0.83841 0.46453
 C2 C 0.39714 0.83865 0.54595
 C3 C 0.43228 0.88870 0.56859
 N4 N 0.45147 0.91883 0.50324
 C5 C 0.42937 0.88806 0.43948
 C6 C 0.45015 0.90567 0.64694
 C7 C 0.48942 0.95706 0.66025
 C8 C 0.52905 0.97260 0.71494
 C9 C 0.55534 1.02552 0.71495
 C10 C 0.53103 1.04078 0.66021
 N11 N 0.49210 0.99884 0.62462
 C12 C 0.54287 1.09206 0.64673
 C13 C 0.54219 1.10896 0.56826
 C14 C 0.55727 1.15901 0.54539
 C15 C 0.55568 1.15920 0.46395
 C16 C 0.54036 1.10950 0.43913
 N17 N 0.53141 1.07877 0.50303
 C18 C 0.53375 1.09304 0.35897
 C19 C 0.50152 1.04078 0.33686
 C20 C 0.47680 1.02511 0.26402
 C21 C 0.45028 0.97243 0.26413
 C22 C 0.45924 0.95672 0.33701
 N23 N 0.48988 0.99875 0.38191
 C24 C 0.43898 0.90444 0.35925
 H25 H 0.36939 0.80549 0.42875
 H26 H 0.37559 0.80511 0.58284
 H27 H 0.50629 0.99874 0.43642
 H28 H 0.53864 0.94837 0.75025
 H29 H 0.58907 1.04995 0.75029
 H30 H 0.56922 1.19259 0.58216
 H31 H 0.56321 1.19212 0.42799
 H32 H 0.42560 0.94872 0.21652
 H33 H 0.46526 0.99874 0.58487
 H34 H 0.47599 1.04885 0.21632
 C35 C -0.16144 0.42993 0.45477
 C36 C -0.16177 0.43197 0.53616
 C37 C -0.11236 0.44655 0.56170
 N38 N -0.08167 0.45464 0.49800
 C39 C -0.11160 0.44410 0.43243
 C40 C -0.09597 0.45354 0.64223
 C41 C -0.04350 0.48621 0.66373
 C42 C -0.02742 0.51274 0.73525
 C43 C 0.02520 0.53878 0.73507
 C44 C 0.04058 0.52803 0.66338
 N45 N -0.00160 0.49662 0.61923
 C46 C 0.09278 0.54784 0.64132
 C47 C 0.10906 0.55692 0.56111
 C48 C 0.15862 0.59127 0.53564
 C49 C 0.15812 0.58890 0.45424
 C50 C 0.10811 0.55357 0.43226
 N51 N 0.07815 0.53446 0.49771
 C52 C 0.09114 0.53567 0.35425
 C53 C 0.04001 0.49659 0.34043
 C54 C 0.02468 0.45782 0.28434
 C55 C -0.02821 0.43124 0.28464
 C56 C -0.04355 0.45481 0.34061
 N57 N -0.00172 0.49340 0.37679
 C58 C -0.09467 0.44328 0.35398
 H59 H -0.19477 0.41843 0.41764
 H60 H -0.19463 0.42525 0.57155
 H61 H -0.00166 0.51991 0.41723
 H62 H -0.05083 0.51504 0.78209
 H63 H 0.04912 0.56448 0.78162
 H64 H 0.19163 0.61708 0.57108
 H65 H 0.19137 0.61044 0.41678
 H66 H -0.05257 0.39791 0.24845
 H67 H -0.00177 0.47906 0.56573
 H68 H 0.04901 0.44888 0.24812
 C69 C 0.44487 0.60371 0.46356
 C70 C 0.44337 0.60202 0.54501
 C71 C 0.45856 0.56717 0.56793
 N72 N 0.46934 0.54776 0.50273
 C73 C 0.46028 0.56942 0.43880
 C74 C 0.45794 0.54966 0.64643
 C75 C 0.46977 0.51023 0.65998
 C76 C 0.44545 0.47065 0.71473
 C77 C 0.47166 0.44400 0.71471
 C78 C 0.51128 0.46809 0.65999
 N79 N 0.50866 0.50723 0.62436
 C80 C 0.55049 0.45595 0.64666
 C81 C 0.56837 0.45690 0.56832
 C82 C 0.60346 0.44198 0.54567
 C83 C 0.60563 0.44393 0.46425
 C84 C 0.57135 0.45925 0.43921
 N85 N 0.54925 0.46789 0.50297
 C86 C 0.56181 0.46610 0.35898
 C87 C 0.54158 0.49809 0.33679
 C88 C 0.55060 0.52285 0.26396
 C89 C 0.52402 0.54891 0.26383
 C90 C 0.49921 0.53970 0.33660
 N91 N 0.51085 0.50933 0.38164
 C92 C 0.46689 0.55956 0.35865
 H93 H 0.43724 0.62901 0.42755
 H94 H 0.43139 0.62362 0.58175
 H95 H 0.49437 0.49280 0.43608
 H96 H 0.41173 0.46132 0.75008
 H97 H 0.46203 0.41015 0.75002
 H98 H 0.62496 0.42995 0.58254
 H99 H 0.63124 0.43666 0.42849
 H100 H 0.52482 0.57347 0.21615
 H101 H 0.53549 0.53398 0.58458
 H102 H 0.57533 0.52394 0.21640
 O103 O 0.41057 0.67065 -0.09158
 O104 O 0.40985 0.75616 -0.06615
 C105 C 0.37712 0.76230 -0.10531
 O106 O 0.32926 0.73764 -0.09118
 O107 O 0.24415 0.65101 -0.06936
 C108 C 0.23861 0.61241 -0.10885
 O109 O 0.26279 0.58880 -0.09383
 O110 O 0.34909 0.58968 -0.06677
 C111 C 0.38777 0.62278 -0.10595
 O112 O 0.41233 0.65635 0.06720
 O113 O 0.40737 0.73940 0.09172
 C114 C 0.38093 0.76053 0.10734
 O115 O 0.34135 0.75227 0.06807
 O116 O 0.25846 0.66388 0.08978
 C117 C 0.23613 0.61595 0.10326
 O118 O 0.24461 0.58495 0.06357
 O119 O 0.33305 0.59070 0.09074
 C120 C 0.38067 0.61683 0.10646
 Cr121 Cr 0.40719 0.70409 0.00019
 Cr122 Cr 0.29478 0.69987 -0.00070
 Cr123 Cr 0.29877 0.59141 -0.00157
 O124 O 0.33358 0.66518 -0.00073
 O125 O 0.59069 0.34667 -0.06637
 O126 O 0.59004 0.26043 -0.09140
 C127 C 0.61285 0.23537 -0.10551
 O128 O 0.65145 0.24101 -0.06608
 O129 O 0.73769 0.32644 -0.09348
 C130 C 0.76171 0.37419 -0.10913
 O131 O 0.75637 0.40741 -0.06971
 O132 O 0.67128 0.40874 -0.09176
 C133 C 0.62340 0.38550 -0.10573
 O134 O 0.59323 0.33263 0.09156
 O135 O 0.58821 0.24454 0.06743
 C136 C 0.61986 0.23683 0.10693
 O137 O 0.66750 0.25848 0.09139
 O138 O 0.75592 0.34129 0.06408
 C139 C 0.76414 0.38073 0.10378
 O140 O 0.74198 0.40635 0.08962
 O141 O 0.65915 0.41163 0.06742
 C142 C 0.61966 0.38028 0.10693
 Cr143 Cr 0.59337 0.29736 0.00020
 Cr144 Cr 0.70178 0.29331 -0.00103
 Cr145 Cr 0.70575 0.40573 -0.00112
 O146 O 0.66696 0.33218 -0.00070
 C147 C 0.45363 0.83822 -0.18841
 C148 C 0.44297 0.82543 -0.27819
 C149 C 0.43133 0.86968 -0.28740
 C150 C 0.44182 0.88268 -0.19773
 C151 C 0.37379 0.83262 -0.26911
 C152 C 0.38534 0.78790 -0.25957
 C153 C 0.39636 0.80110 -0.17086
 C154 C 0.38441 0.84505 -0.17942
 H155 H 0.48655 0.84050 -0.15469
 H156 H 0.46718 0.81737 -0.31905
 H157 H 0.46335 0.92096 -0.16863
 H158 H 0.34063 0.83052 -0.30187
 H159 H 0.36171 0.74846 -0.28425
 H160 H 0.36011 0.85272 -0.13816
 C161 C 0.17605 0.54063 -0.21535
 C162 C 0.12310 0.53753 -0.21095
 C163 C 0.13307 0.56443 -0.29286
 C164 C 0.18573 0.56686 -0.29776
 C165 C 0.15821 0.61759 -0.25248
 C166 C 0.14834 0.59098 -0.17017
 C167 C 0.20084 0.59389 -0.17563
 C168 C 0.21120 0.62051 -0.25710
 H169 H 0.18370 0.50912 -0.19949
 H170 H 0.08693 0.50292 -0.19152
 H171 H 0.20152 0.55606 -0.34930
 H172 H 0.15072 0.64925 -0.26801
 H173 H 0.13310 0.60080 -0.11684
 H174 H 0.24798 0.65474 -0.27558
 C175 C 0.38754 0.54650 -0.18870
 C176 C 0.38504 0.55680 -0.27850
 C177 C 0.44097 0.56871 -0.28804
 C178 C 0.44384 0.55860 -0.19833
 C179 C 0.46132 0.62633 -0.27023
 C180 C 0.40500 0.61449 -0.26036
 C181 C 0.40753 0.60384 -0.17158
 C182 C 0.46348 0.61607 -0.18045
 H183 H 0.35710 0.51357 -0.15466
 H184 H 0.35266 0.53229 -0.31905
 H185 H 0.46080 0.53726 -0.16930
 H186 H 0.49219 0.65946 -0.30337
 H187 H 0.38896 0.63787 -0.28513
 H188 H 0.49557 0.64067 -0.13951
 C189 C 0.61325 0.15940 -0.18833
 C190 C 0.55697 0.11504 -0.19800
 C191 C 0.55983 0.12808 -0.28769
 C192 C 0.61574 0.17224 -0.27812
 C193 C 0.53940 0.16523 -0.26982
 C194 C 0.53726 0.15277 -0.18006
 C195 C 0.59318 0.19664 -0.17115
 C196 C 0.59570 0.20987 -0.25990
 H197 H 0.64371 0.15700 -0.15429
 H198 H 0.54005 0.07671 -0.16901
 H199 H 0.64812 0.18023 -0.31868
 H200 H 0.50851 0.16742 -0.30293
 H201 H 0.50516 0.14517 -0.13911
 H202 H 0.61170 0.24932 -0.28462
 C203 C 0.82304 0.36424 -0.21720
 C204 C 0.81308 0.38095 -0.29929
 C205 C 0.86605 0.43105 -0.29495
 C206 C 0.87629 0.41384 -0.21338
 C207 C 0.84161 0.45944 -0.25374
 C208 C 0.78833 0.40955 -0.25776
 C209 C 0.79899 0.39312 -0.17663
 C210 C 0.85177 0.44247 -0.17179
 H211 H 0.81510 0.32493 -0.20156
 H212 H 0.79661 0.35417 -0.35053
 H213 H 0.91227 0.41490 -0.19445
 H214 H 0.84930 0.49873 -0.26890
 H215 H 0.75160 0.40731 -0.27549
 H216 H 0.86752 0.46749 -0.11849
 C217 C 0.61515 0.40291 -0.25999
 C218 C 0.55753 0.38277 -0.27859
 C219 C 0.56924 0.43872 -0.28771
 C220 C 0.62678 0.45923 -0.26943
 C221 C 0.55876 0.44116 -0.19803
 C222 C 0.54688 0.38484 -0.18880
 C223 C 0.60414 0.40501 -0.17127
 C224 C 0.61616 0.46097 -0.17972
 H225 H 0.63874 0.38710 -0.28471
 H226 H 0.53329 0.35050 -0.31950
 H227 H 0.65996 0.49034 -0.30214
 H228 H 0.53729 0.45791 -0.16886
 H229 H 0.51395 0.35415 -0.15511
 H230 H 0.64050 0.49295 -0.13843
 C231 C 0.84731 0.45323 0.18083
 C232 C 0.83428 0.45027 0.27043
 C233 C 0.86983 0.42788 0.28782
 C234 C 0.88342 0.43153 0.19823
 C235 C 0.82458 0.37268 0.27637
 C236 C 0.78857 0.39472 0.25862
 C237 C 0.80237 0.39800 0.16999
 C238 C 0.83796 0.37595 0.18666
 H239 H 0.85629 0.48621 0.14090
 H240 H 0.83295 0.48133 0.30449
 H241 H 0.92173 0.44781 0.16950
 H242 H 0.81523 0.33944 0.31592
 H243 H 0.74910 0.37954 0.28268
 H244 H 0.83945 0.34531 0.15164
 C245 C 0.54985 0.14686 0.16834
 C246 C 0.57742 0.12240 0.21317
 C247 C 0.55869 0.13305 0.29293
 C248 C 0.53131 0.15742 0.24851
 C249 C 0.60867 0.18600 0.29843
 C250 C 0.62700 0.17561 0.21816
 C251 C 0.59914 0.19962 0.17438
 C252 C 0.58112 0.21069 0.25373
 H253 H 0.52596 0.13094 0.11398
 H254 H 0.57647 0.08614 0.19609
 H255 H 0.49180 0.14983 0.26128
 H256 H 0.63433 0.20261 0.35085
 H257 H 0.66653 0.18335 0.20507
 H258 H 0.58308 0.24756 0.26989
 C259 C 0.59985 0.45042 0.16838
 C260 C 0.54779 0.42262 0.21316
 C261 C 0.57713 0.44139 0.29297
 C262 C 0.62891 0.46900 0.24861
 C263 C 0.58025 0.39150 0.29840
 C264 C 0.55156 0.37314 0.21811
 C265 C 0.60344 0.40122 0.17436
 C266 C 0.63251 0.41927 0.25374
 H267 H 0.60778 0.47434 0.11405
 H268 H 0.51242 0.42338 0.19606
 H269 H 0.66076 0.50859 0.26145
 H270 H 0.57121 0.36574 0.35070
 H271 H 0.51983 0.33354 0.20498
 H272 H 0.66746 0.41744 0.26989
 C273 C 0.16221 0.53678 0.18547
 C274 C 0.17474 0.54738 0.27530
 C275 C 0.12889 0.55649 0.28496
 C276 C 0.11614 0.54602 0.19531
 C277 C 0.16402 0.61449 0.26732
 C278 C 0.21029 0.60549 0.25735
 C279 C 0.19733 0.59455 0.16857
 C280 C 0.15177 0.60396 0.17760
 H281 H 0.16156 0.50477 0.15124
 H282 H 0.18408 0.52394 0.31585
 H283 H 0.07798 0.52312 0.16643
 H284 H 0.16452 0.64665 0.30089
 H285 H 0.24946 0.63036 0.28215
 H286 H 0.14271 0.62750 0.13680
 C287 C 0.40090 0.85055 0.16871
 C288 C 0.37186 0.84011 0.24893
 C289 C 0.42364 0.86435 0.29328
 C290 C 0.45296 0.87489 0.21347
 C291 C 0.42046 0.81131 0.29880
 C292 C 0.36819 0.78674 0.25416
 C293 C 0.39724 0.79772 0.17478
 C294 C 0.44913 0.82161 0.21851
 H295 H 0.39298 0.86651 0.11434
 H296 H 0.34004 0.84783 0.26174
 H297 H 0.48835 0.91105 0.19632
 H298 H 0.42948 0.79463 0.35116
 H299 H 0.33322 0.74993 0.27037
 H300 H 0.48082 0.81374 0.20541
 C301 C 0.45073 0.59713 0.16799
 C302 C 0.46919 0.62627 0.24816
 C303 C 0.44188 0.57447 0.29258
 C304 C 0.42324 0.54504 0.21281
 C305 C 0.39183 0.57722 0.29800
 C306 C 0.41930 0.62951 0.25329
 C307 C 0.40136 0.60036 0.17394
 C308 C 0.37359 0.54845 0.21772
 H309 H 0.47465 0.60518 0.11366
 H310 H 0.50866 0.65833 0.26097
 H311 H 0.42430 0.50979 0.19578
 H312 H 0.36616 0.56808 0.35040
 H313 H 0.41724 0.66436 0.26941
 H314 H 0.33409 0.51653 0.20459
   
