data_POSCAR
  _audit_creation_date              2014-09-24
  _audit_creation_method            'ToBaCCo'
  _symmetry_space_group_name_H-M    'P1'
  _symmetry_Int_Tables_number       1
  _symmetry_cell_setting            triclinic
  loop_
  _symmetry_equiv_pos_as_xyz
 x,y,z
_cell_length_a 47.5576
_cell_length_b 35.0854
_cell_length_c 21.2935
_cell_angle_alpha 90.125700
_cell_angle_beta 89.867800
_cell_angle_gamma 90.414800
loop_
  _atom_site_label
  _atom_site_type_symbol
  _atom_site_fract_x
  _atom_site_fract_y
  _atom_site_fract_z
C1 C 0.79692 0.18933 0.45438
 C2 C 0.80802 0.18290 0.51454
 C3 C 0.79580 0.19784 0.56927
 C4 C 0.77098 0.21977 0.56395
 C5 C 0.75886 0.22614 0.50393
 C6 C 0.77193 0.21121 0.44895
 C7 C 0.76046 0.22056 0.39003
 C8 C 0.73654 0.24290 0.38511
 C9 C 0.72264 0.25653 0.43878
 C10 C 0.73367 0.24789 0.49888
 C11 C 0.75719 0.23417 0.61734
 C12 C 0.73263 0.25484 0.61242
 C13 C 0.71992 0.26155 0.55391
 C14 C 0.69455 0.28273 0.54877
 C15 C 0.68472 0.29172 0.48840
 C16 C 0.69852 0.27964 0.43384
 H17 H 0.77017 0.21184 0.34649
 H18 H 0.72920 0.24956 0.33839
 H19 H 0.76477 0.22945 0.66438
 H20 H 0.72445 0.26611 0.65586
 H21 H 0.82681 0.16595 0.51898
 H22 H 0.66508 0.30663 0.48257
 C23 C 0.30133 0.70646 0.44240
 C24 C 0.31362 0.69732 0.50005
 C25 C 0.30125 0.70784 0.55711
 C26 C 0.27558 0.72791 0.55689
 C27 C 0.26323 0.73855 0.49902
 C28 C 0.27629 0.72804 0.44151
 C29 C 0.26415 0.73978 0.38473
 C30 C 0.23959 0.76117 0.38430
 C31 C 0.22588 0.77098 0.44058
 C32 C 0.23753 0.75914 0.49863
 C33 C 0.26140 0.73623 0.61302
 C34 C 0.23572 0.75484 0.61267
 C35 C 0.22342 0.76736 0.55618
 C36 C 0.19697 0.78626 0.55510
 C37 C 0.18643 0.79837 0.49678
 C38 C 0.20052 0.79163 0.44019
 H39 H 0.27371 0.73291 0.33999
 H40 H 0.23113 0.76925 0.33916
 H41 H 0.26958 0.72741 0.65803
 H42 H 0.22577 0.75851 0.65778
 H43 H 0.33293 0.68107 0.50061
 H44 H 0.16792 0.81608 0.49504
 C45 C 0.20223 0.20557 -0.45507
 C46 C 0.19067 0.19940 -0.51473
 C47 C 0.20444 0.21032 -0.57033
 C48 C 0.23064 0.22990 -0.56593
 C49 C 0.24236 0.23787 -0.50589
 C50 C 0.22841 0.22503 -0.45043
 C51 C 0.24023 0.23408 -0.39166
 C52 C 0.26494 0.25499 -0.38708
 C53 C 0.27871 0.26865 -0.44085
 C54 C 0.26767 0.25980 -0.50105
 C55 C 0.24451 0.24407 -0.61955
 C56 C 0.26909 0.26565 -0.61478
 C57 C 0.28127 0.27408 -0.55607
 C58 C 0.30553 0.29811 -0.55005
 C59 C 0.31642 0.30472 -0.48957
 C60 C 0.30333 0.29088 -0.43559
 H61 H 0.23028 0.22626 -0.34790
 H62 H 0.27292 0.26077 -0.34044
 H63 H 0.23602 0.24001 -0.66613
 H64 H 0.27775 0.27628 -0.65823
 H65 H 0.17190 0.18191 -0.51827
 H66 H 0.33565 0.32105 -0.48357
 C67 C -0.30401 0.71634 -0.45610
 C68 C -0.31554 0.70942 -0.51580
 C69 C -0.30149 0.71928 -0.57167
 C70 C -0.27508 0.73841 -0.56755
 C71 C -0.26286 0.74570 -0.50782
 C72 C -0.27716 0.73423 -0.45206
 C73 C -0.26352 0.73937 -0.39396
 C74 C -0.23743 0.75703 -0.39013
 C75 C -0.22362 0.77034 -0.44410
 C76 C -0.23627 0.76473 -0.50371
 C77 C -0.26130 0.75254 -0.62131
 C78 C -0.23602 0.77253 -0.61707
 C79 C -0.22268 0.77873 -0.55889
 C80 C -0.19707 0.80010 -0.55353
 C81 C -0.18506 0.80451 -0.49350
 C82 C -0.19771 0.78981 -0.43950
 H83 H -0.27236 0.72930 -0.35029
 H84 H -0.22837 0.76056 -0.34389
 H85 H -0.27038 0.74982 -0.66758
 H86 H -0.22763 0.78339 -0.66060
 H87 H -0.33587 0.69559 -0.51881
 H88 H -0.16465 0.81797 -0.48813
 N89 N 0.02770 1.07335 -0.07472
 N90 N 0.04590 1.10103 -0.08624
 N91 N -0.02972 1.04250 -0.11710
 N92 N -0.05136 1.04448 -0.15513
 N93 N -0.03135 1.06843 -0.07282
 N94 N -0.05421 1.08933 -0.08017
 N95 N 0.02932 1.04667 -0.11778
 N96 N 0.04879 1.05534 -0.15976
 C97 C 0.05912 1.08912 -0.13891
 C98 C -0.06635 1.07374 -0.13196
 N99 N -0.02776 0.93449 -0.07836
 N100 N -0.04911 0.91075 -0.08828
 N101 N 0.03131 0.96480 -0.12127
 N102 N 0.04974 0.95913 -0.16645
 N103 N 0.03154 0.93658 -0.08087
 N104 N 0.05031 0.91081 -0.09778
 N105 N -0.02759 0.96175 -0.12046
 N106 N -0.04880 0.95778 -0.15947
 Mn107 Mn 0.00100 1.00395 -0.11955
 C108 C -0.06197 0.92596 -0.13922
 C109 C 0.06170 0.92576 -0.15085
 N110 N -0.02981 1.06712 0.06314
 N111 N -0.04935 1.09208 0.07793
 N112 N 0.03129 1.04439 0.10129
 N113 N 0.05160 1.05277 0.14155
 N114 N 0.02890 1.07162 0.05940
 N115 N 0.04731 1.09910 0.06988
 N116 N -0.02815 1.04047 0.10620
 N117 N -0.04698 1.04630 0.15093
 Mn118 Mn -0.00130 1.07049 -0.00620
 C119 C -0.06021 1.07839 0.13211
 C120 C 0.06153 1.08683 0.12060
 N121 N 0.03254 0.93482 0.05450
 N122 N 0.05106 0.90794 0.06583
 N123 N -0.02582 0.95866 0.10295
 N124 N -0.04546 0.95182 0.14525
 N125 N -0.02647 0.93271 0.05836
 N126 N -0.04648 0.90722 0.06970
 N127 N 0.03333 0.96113 0.09859
 N128 N 0.05251 0.95259 0.14116
 Mn129 Mn 0.00235 0.93415 -0.01156
 Mn130 Mn 0.00284 1.00116 0.10305
 Cl131 Cl 0.00126 1.00237 -0.00838
 C132 C 0.06367 0.91962 0.11933
 C133 C -0.05826 0.91978 0.12392
 N134 N 0.53196 0.55295 0.09269
 N135 N 0.55175 0.56554 0.13097
 N136 N 0.47080 0.56871 0.05183
 N137 N 0.45127 0.59453 0.06213
 N138 N 0.47289 0.54558 0.10006
 N139 N 0.45464 0.55501 0.14426
 N140 N 0.52938 0.57582 0.04425
 N141 N 0.54700 0.60498 0.04902
 C142 C 0.56111 0.59779 0.10282
 C143 C 0.44106 0.58526 0.11940
 N144 N 0.46807 0.52649 -0.11762
 N145 N 0.44696 0.52633 -0.15754
 N146 N 0.52663 0.56423 -0.09088
 N147 N 0.54521 0.58976 -0.11117
 N148 N 0.52651 0.53417 -0.12766
 N149 N 0.54481 0.53816 -0.17355
 N150 N 0.46758 0.55715 -0.08220
 N151 N 0.44598 0.57884 -0.09731
 Mn152 Mn 0.49866 0.56695 -0.01936
 C153 C 0.43326 0.55891 -0.14411
 C154 C 0.55640 0.57268 -0.16273
 N155 N 0.47881 0.46384 0.11723
 N156 N 0.45860 0.45891 0.15919
 N157 N 0.53930 0.44241 0.07292
 N158 N 0.56066 0.42058 0.08888
 N159 N 0.53773 0.47215 0.11035
 N160 N 0.55809 0.47156 0.15225
 N161 N 0.48063 0.43388 0.08035
 N162 N 0.46171 0.40789 0.09596
 Mn163 Mn 0.50526 0.50866 0.10580
 C164 C 0.44813 0.42386 0.14511
 C165 C 0.57233 0.43947 0.13804
 N166 N 0.53289 0.45444 -0.10978
 N167 N 0.55324 0.45063 -0.15121
 N168 N 0.47786 0.42244 -0.05293
 N169 N 0.46015 0.39333 -0.05650
 N170 N 0.47412 0.44588 -0.10001
 N171 N 0.45365 0.43365 -0.13664
 N172 N 0.53644 0.43124 -0.06222
 N173 N 0.55910 0.41014 -0.07092
 Mn174 Mn 0.50028 0.49016 -0.11414
 Mn175 Mn 0.50871 0.43206 0.00968
 Cl176 Cl 0.50324 0.49952 -0.00436
 C177 C 0.56930 0.42295 -0.12665
 C178 C 0.44499 0.40106 -0.10858
 C179 C 0.31914 0.31568 0.39801
 C180 C 0.33406 0.35020 0.40392
 C181 C 0.35166 0.36780 0.35428
 C182 C 0.36315 0.34669 0.30442
 C183 C 0.38215 0.36379 0.26252
 C184 C 0.39005 0.40240 0.26976
 C185 C 0.37794 0.42348 0.31876
 C186 C 0.35909 0.40639 0.36057
 C187 C 0.41156 0.42156 0.22983
 C188 C 0.42532 0.40444 0.17934
 H189 H 0.33194 0.36649 0.44691
 H190 H 0.35839 0.31667 0.29895
 H191 H 0.39094 0.34617 0.22593
 H192 H 0.38355 0.45319 0.32564
 H193 H 0.35068 0.42329 0.39880
 H194 H 0.41744 0.45057 0.24191
 H195 H 0.31718 0.30373 0.35154
 H196 H 0.41986 0.37597 0.16419
 C197 C -0.18299 0.81635 0.39393
 C198 C -0.16518 0.84825 0.39908
 C199 C -0.14885 0.86501 0.34654
 C200 C -0.14022 0.84370 0.29394
 C201 C -0.12256 0.86013 0.24839
 C202 C -0.11328 0.89818 0.25478
 C203 C -0.12256 0.91944 0.30663
 C204 C -0.13997 0.90304 0.35200
 C205 C -0.09284 0.91662 0.21150
 C206 C -0.08117 0.90008 0.15777
 H207 H -0.16454 0.86383 0.44300
 H208 H -0.14618 0.81403 0.28896
 H209 H -0.11578 0.84259 0.20953
 H210 H -0.11579 0.94875 0.31294
 H211 H -0.14619 0.92007 0.39214
 H212 H -0.08570 0.94501 0.22427
 H213 H -0.18677 0.80558 0.34728
 H214 H -0.08810 0.87252 0.14092
 C215 C 0.68672 0.70782 0.37018
 C216 C 0.65774 0.70343 0.36082
 C217 C 0.64551 0.68316 0.30643
 C218 C 0.61930 0.69459 0.28326
 C219 C 0.60530 0.67271 0.23798
 C220 C 0.61697 0.63841 0.21633
 C221 C 0.64340 0.62731 0.23869
 C222 C 0.65778 0.64976 0.28275
 C223 C 0.60050 0.61190 0.17658
 C224 C 0.58154 0.62422 0.13128
 H225 H 0.64319 0.71593 0.39410
 H226 H 0.60931 0.71995 0.30158
 H227 H 0.58465 0.68154 0.22268
 H228 H 0.65260 0.60073 0.22321
 H229 H 0.67767 0.63986 0.30091
 H230 H 0.60292 0.58158 0.18433
 H231 H 0.70034 0.70213 0.33056
 H232 H 0.58112 0.65393 0.11769
 C233 C 0.19235 1.19902 0.37183
 C234 C 0.16324 1.19492 0.36475
 C235 C 0.14963 1.17248 0.31465
 C236 C 0.12251 1.18263 0.29575
 C237 C 0.10700 1.15885 0.25610
 C238 C 0.11813 1.12397 0.23555
 C239 C 0.14538 1.11384 0.25402
 C240 C 0.16121 1.13818 0.29270
 C241 C 0.10077 1.09732 0.19798
 C242 C 0.08240 1.11084 0.15263
 H243 H 0.14944 1.20825 0.39882
 H244 H 0.11299 1.20856 0.31317
 H245 H 0.08580 1.16701 0.24383
 H246 H 0.15423 1.08693 0.23914
 H247 H 0.18182 1.12925 0.30808
 H248 H 0.10256 1.06694 0.20581
 H249 H 0.20558 1.19308 0.33164
 H250 H 0.08309 1.14073 0.14005
 C251 C 0.67867 0.29338 -0.39757
 C252 C 0.65926 0.32319 -0.39632
 C253 C 0.64379 0.33458 -0.33887
 C254 C 0.63436 0.37220 -0.33413
 C255 C 0.61960 0.38438 -0.28121
 C256 C 0.61391 0.35912 -0.23138
 C257 C 0.62274 0.32118 -0.23667
 C258 C 0.63760 0.30895 -0.28982
 C259 C 0.59686 0.37098 -0.17639
 C260 C 0.59433 0.40907 -0.15902
 H261 H 0.65748 0.34190 -0.43640
 H262 H 0.63838 0.39233 -0.37168
 H263 H 0.61202 0.41335 -0.28073
 H264 H 0.61797 0.30091 -0.19977
 H265 H 0.64360 0.27933 -0.29275
 H266 H 0.58414 0.34970 -0.15257
 H267 H 0.68204 0.27886 -0.35381
 H268 H 0.60739 0.43045 -0.18139
 C269 C 0.18182 0.79511 -0.38935
 C270 C 0.15276 0.80145 -0.38842
 C271 C 0.13726 0.81681 -0.33377
 C272 C 0.11233 0.83659 -0.34545
 C273 C 0.09747 0.85340 -0.29641
 C274 C 0.10707 0.85050 -0.23428
 C275 C 0.13117 0.82902 -0.22181
 C276 C 0.14636 0.81249 -0.27127
 C277 C 0.09205 0.87029 -0.18307
 C278 C 0.08136 0.90656 -0.19316
 H279 H 0.14054 0.79651 -0.43050
 H280 H 0.10463 0.83981 -0.39299
 H281 H 0.07842 0.86878 -0.30718
 H282 H 0.13862 0.82591 -0.17408
 H283 H 0.16495 0.79629 -0.26026
 H284 H 0.08961 0.85663 -0.13780
 H285 H 0.19283 0.79775 -0.34543
 H286 H 0.08628 0.92107 -0.23674
 C287 C 0.31569 0.69740 -0.38387
 C288 C 0.32494 0.66031 -0.37388
 C289 C 0.34125 0.64844 -0.31835
 C290 C 0.34122 0.60979 -0.30194
 C291 C 0.35844 0.59662 -0.25378
 C292 C 0.37664 0.62181 -0.22189
 C293 C 0.37575 0.66080 -0.23631
 C294 C 0.35829 0.67406 -0.28428
 C295 C 0.39772 0.60797 -0.17626
 C296 C 0.40893 0.57146 -0.18059
 H297 H 0.31948 0.63865 -0.40823
 H298 H 0.32807 0.58958 -0.32710
 H299 H 0.35763 0.56661 -0.24237
 H300 H 0.38944 0.68081 -0.21222
 H301 H 0.35916 0.70399 -0.29627
 H302 H 0.40693 0.62812 -0.14346
 H303 H 0.31809 0.71875 -0.34750
 H304 H 0.40150 0.55195 -0.21635
 C305 C -0.19101 1.19128 -0.37234
 C306 C -0.17711 1.15740 -0.35887
 C307 C -0.16259 1.15067 -0.29897
 C308 C -0.16342 1.11401 -0.27332
 C309 C -0.14667 1.10501 -0.22195
 C310 C -0.12791 1.13220 -0.19681
 C311 C -0.12861 1.16971 -0.21944
 C312 C -0.14590 1.17896 -0.27030
 C313 C -0.10532 1.12060 -0.15324
 C314 C -0.09271 1.08525 -0.16122
 H315 H -0.17896 1.13349 -0.39093
 H316 H -0.17648 1.09197 -0.29422
 H317 H -0.14752 1.07622 -0.20383
 H318 H -0.11449 1.19119 -0.20054
 H319 H -0.14487 1.20748 -0.28957
 H320 H -0.09572 1.14157 -0.12246
 H321 H -0.19284 1.21176 -0.33463
 H322 H -0.10055 1.06606 -0.19710
 C323 C 0.68041 0.70581 -0.40201
 C324 C 0.66223 0.67436 -0.40083
 C325 C 0.64676 0.66243 -0.34405
 C326 C 0.64387 0.62343 -0.33201
 C327 C 0.62737 0.61067 -0.28210
 C328 C 0.61239 0.63668 -0.24451
 C329 C 0.61637 0.67589 -0.25466
 C330 C 0.63350 0.68875 -0.30411
 C331 C 0.59167 0.62321 -0.19710
 C332 C 0.57770 0.58851 -0.20519
 H333 H 0.66187 0.65482 -0.44027
 H334 H 0.65431 0.60272 -0.36164
 H335 H 0.62616 0.58030 -0.27385
 H336 H 0.60536 0.69651 -0.22595
 H337 H 0.63536 0.71907 -0.31275
 H338 H 0.58591 0.64167 -0.15838
 H339 H 0.68365 0.72064 -0.35809
 H340 H 0.58189 0.57152 -0.24656
 C341 C 0.18814 1.19019 -0.40224
 C342 C 0.15895 1.18535 -0.39998
 C343 C 0.14460 1.16440 -0.34930
 C344 C 0.11810 1.17662 -0.32907
 C345 C 0.10296 1.15551 -0.28483
 C346 C 0.11384 1.12127 -0.26133
 C347 C 0.14028 1.10889 -0.28183
 C348 C 0.15578 1.13057 -0.32491
 C349 C 0.09690 1.09700 -0.21921
 C350 C 0.07965 1.11247 -0.17309
 H351 H 0.14589 1.19911 -0.43472
 H352 H 0.10899 1.20234 -0.34808
 H353 H 0.08230 1.16520 -0.27091
 H354 H 0.14882 1.08230 -0.26481
 H355 H 0.17592 1.12013 -0.34103
 H356 H 0.09803 1.06633 -0.22463
 H357 H 0.19985 1.18223 -0.36092
 H358 H 0.08078 1.14266 -0.16259
 C359 C 0.31473 0.30319 -0.37420
 C360 C 0.34317 0.29964 -0.36027
 C361 C 0.35668 0.32019 -0.30778
 C362 C 0.38130 0.30553 -0.28128
 C363 C 0.39639 0.32667 -0.23682
 C364 C 0.38732 0.36322 -0.21916
 C365 C 0.36247 0.37759 -0.24491
 C366 C 0.34712 0.35618 -0.28843
 C367 C 0.40497 0.38858 -0.18025
 C368 C 0.42368 0.37539 -0.13522
 H369 H 0.35625 0.28235 -0.39064
 H370 H 0.38923 0.27809 -0.29624
 H371 H 0.41587 0.31524 -0.21899
 H372 H 0.35535 0.40591 -0.23262
 H373 H 0.32865 0.36874 -0.30927
 H374 H 0.40373 0.41898 -0.18871
 H375 H 0.30071 0.31676 -0.34097
 H376 H 0.42329 0.34583 -0.12074
 C377 C -0.18303 0.79527 -0.37882
 C378 C -0.17539 0.83168 -0.35876
 C379 C -0.15853 0.83965 -0.30195
 C380 C -0.16005 0.87605 -0.27508
 C381 C -0.14178 0.88675 -0.22696
 C382 C -0.12105 0.86150 -0.20567
 C383 C -0.12068 0.82420 -0.22956
 C384 C -0.13922 0.81331 -0.27757
 C385 C -0.09823 0.87485 -0.16355
 C386 C -0.08740 0.91160 -0.17019
 H387 H -0.18232 0.85580 -0.38632
 H388 H -0.17495 0.89668 -0.29258
 H389 H -0.14332 0.91529 -0.20791
 H390 H -0.10500 0.80419 -0.21367
 H391 H -0.13729 0.78511 -0.29771
 H392 H -0.08750 0.85460 -0.13387
 H393 H -0.17916 0.77075 -0.34940
 H394 H -0.09636 0.93031 -0.20508
 C395 C 0.31408 0.69040 0.38462
 C396 C 0.34303 0.69193 0.37434
 C397 C 0.35738 0.66849 0.32651
 C398 C 0.38189 0.68255 0.29781
 C399 C 0.39739 0.65957 0.25690
 C400 C 0.38901 0.62169 0.24532
 C401 C 0.36458 0.60753 0.27428
 C402 C 0.34865 0.63087 0.31390
 C403 C 0.40655 0.59606 0.20670
 C404 C 0.42065 0.60888 0.15334
 H405 H 0.35581 0.71047 0.40360
 H406 H 0.38924 0.71123 0.30772
 H407 H 0.41651 0.67095 0.23633
 H408 H 0.35796 0.57828 0.26657
 H409 H 0.33022 0.61897 0.33675
 H410 H 0.40799 0.56633 0.21994
 H411 H 0.30065 0.67558 0.35146
 H412 H 0.41682 0.63736 0.13597
 C413 C -0.18935 1.17292 0.40181
 C414 C -0.16025 1.16703 0.40015
 C415 C -0.14577 1.14691 0.34869
 C416 C -0.11928 1.16011 0.32917
 C417 C -0.10378 1.13981 0.28470
 C418 C -0.11418 1.10528 0.26022
 C419 C -0.14061 1.09185 0.28002
 C420 C -0.15654 1.11283 0.32327
 C421 C -0.09683 1.08229 0.21697
 C422 C -0.08090 1.09935 0.16971
 H423 H -0.14705 1.18027 0.43552
 H424 H -0.11043 1.18602 0.34892
 H425 H -0.08319 1.15039 0.27121
 H426 H -0.14885 1.06509 0.26217
 H427 H -0.17668 1.10168 0.33876
 H428 H -0.09681 1.05156 0.22195
 H429 H -0.20107 1.16586 0.35990
 H430 H -0.08350 1.12942 0.16007
 C431 C 0.68654 0.29131 0.37255
 C432 C 0.67936 0.32930 0.36215
 C433 C 0.66343 0.34326 0.30724
 C434 C 0.66318 0.38261 0.29574
 C435 C 0.64596 0.39783 0.24922
 C436 C 0.62818 0.37398 0.21370
 C437 C 0.62939 0.33441 0.22306
 C438 C 0.64674 0.31912 0.26960
 C439 C 0.60744 0.38957 0.16877
 C440 C 0.59599 0.42586 0.17589
 H441 H 0.68540 0.35014 0.39740
 H442 H 0.67599 0.40181 0.32374
 H443 H 0.64648 0.42831 0.24184
 H444 H 0.61604 0.31540 0.19602
 H445 H 0.64605 0.28870 0.27754
 H446 H 0.59882 0.37071 0.13323
 H447 H 0.68340 0.27010 0.33628
 H448 H 0.60280 0.44411 0.21398
 C449 C 0.18906 0.80934 0.38242
 C450 C 0.16032 0.80820 0.36943
 C451 C 0.14660 0.83287 0.32255
 C452 C 0.12154 0.82032 0.29453
 C453 C 0.10646 0.84434 0.25488
 C454 C 0.11587 0.88179 0.24346
 C455 C 0.14087 0.89448 0.27173
 C456 C 0.15633 0.87011 0.31040
 C457 C 0.09898 0.90833 0.20520
 C458 C 0.08378 0.89569 0.15328
 H459 H 0.14705 0.78894 0.39627
 H460 H 0.11339 0.79201 0.30414
 H461 H 0.08688 0.83403 0.23508
 H462 H 0.14834 0.92336 0.26419
 H463 H 0.17518 0.88094 0.33277
 H464 H 0.09881 0.93829 0.21760
 H465 H 0.20319 0.82495 0.35175
 H466 H 0.08631 0.86664 0.13704
   
