data_POSCAR
  _audit_creation_date              2014-09-24
  _audit_creation_method            'ToBaCCo'
  _symmetry_space_group_name_H-M    'P1'
  _symmetry_Int_Tables_number       1
  _symmetry_cell_setting            triclinic
  loop_
  _symmetry_equiv_pos_as_xyz
 x,y,z
_cell_length_a 34.7879
_cell_length_b 35.4611
_cell_length_c 34.2431
_cell_angle_alpha 90.306100
_cell_angle_beta 89.649700
_cell_angle_gamma 90.514600
loop_
  _atom_site_label
  _atom_site_type_symbol
  _atom_site_fract_x
  _atom_site_fract_y
  _atom_site_fract_z
C1 C 0.31687 0.36330 1.38505
 C2 C 0.32944 0.32969 1.40228
 C3 C 0.35057 0.30265 1.38125
 C4 C 0.36271 0.31175 1.34320
 C5 C 0.35056 0.34512 1.32503
 C6 C 0.32683 0.37030 1.34580
 H7 H 0.32132 0.32377 1.43219
 H8 H 0.37980 0.29193 1.32658
 H9 H 0.31695 0.39566 1.33165
 C10 C 1.18076 0.64059 0.88943
 C11 C 1.16710 0.67674 0.89977
 C12 C 1.14541 0.69808 0.87369
 C13 C 1.13601 0.68302 0.83719
 C14 C 1.14889 0.64715 0.82621
 C15 C 1.17082 0.62596 0.85229
 H16 H 1.17584 0.69013 0.92682
 H17 H 1.12056 0.70007 0.81641
 H18 H 1.18044 0.59836 0.84303
 C19 C 0.68978 -0.15646 0.12160
 C20 C 0.67850 -0.13174 0.15197
 C21 C 0.64584 -0.13899 0.17481
 C22 C 0.62368 -0.17129 0.16730
 C23 C 0.63292 -0.19659 0.13681
 C24 C 0.66652 -0.18887 0.11451
 H25 H 0.69423 -0.10589 0.15756
 H26 H 0.59940 -0.17669 0.18629
 H27 H 0.67454 -0.20806 0.09147
 C28 C -0.20127 1.15491 -0.37558
 C29 C -0.18819 1.13525 -0.34299
 C30 C -0.15420 1.14638 -0.32368
 C31 C -0.13346 1.17832 -0.33697
 C32 C -0.14555 1.19759 -0.37064
 C33 C -0.18055 1.18668 -0.38793
 H34 H -0.20360 1.11024 -0.33349
 H35 H -0.10628 1.18566 -0.32353
 H36 H -0.19176 1.20317 -0.41176
 C37 C 0.72312 0.67034 0.68662
 C38 C 0.69798 0.65220 0.71275
 C39 C 0.65976 0.66437 0.71671
 C40 C 0.64707 0.69482 0.69407
 C41 C 0.67184 0.71238 0.66718
 C42 C 0.71001 0.70043 0.66421
 H43 H 0.70788 0.62809 0.72904
 H44 H 0.61746 0.70387 0.69620
 H45 H 0.72927 0.71364 0.64324
 C46 C 0.81245 0.35586 0.14083
 C47 C 0.83679 0.32561 0.13157
 C48 C 0.86457 0.31273 0.15803
 C49 C 0.87001 0.33352 0.19286
 C50 C 0.84780 0.36551 0.20160
 C51 C 0.81878 0.37620 0.17554
 H52 H 0.83160 0.31023 0.10478
 H53 H 0.89171 0.32504 0.21343
 H54 H 0.80044 0.39974 0.18282
 C55 C 0.29675 0.16398 0.84438
 C56 C 0.32121 0.19557 0.84839
 C57 C 0.35567 0.19837 0.82698
 C58 C 0.36471 0.17036 0.79936
 C59 C 0.34067 0.13868 0.79431
 C60 C 0.30758 0.13531 0.81792
 H61 H 0.31504 0.21675 0.87037
 H62 H 0.39032 0.17372 0.78158
 H63 H 0.28931 0.11078 0.81434
 C64 C 0.18950 0.83233 0.34694
 C65 C 0.17928 0.85897 0.31847
 C66 C 0.14758 0.85294 0.29379
 C67 C 0.12418 0.82092 0.29950
 C68 C 0.13256 0.79511 0.32903
 C69 C 0.16542 0.80061 0.35201
 H70 H 0.19732 0.88351 0.31364
 H71 H 0.09972 0.81571 0.28075
 H72 H 0.17160 0.78020 0.37448
 Zn73 Zn -0.01212 1.05937 -0.02446
 Zn74 Zn -0.02551 0.97676 -0.04079
 Zn75 Zn 0.04693 1.00298 -0.00497
 Zn76 Zn -0.02476 1.00488 0.04169
 O77 O -0.00412 1.01108 -0.00717
 O78 O -0.03994 1.06039 -0.06870
 O79 O 0.00788 0.94152 -0.05880
 O80 O 0.07508 1.04103 -0.02264
 O81 O -0.04530 0.99943 -0.08255
 O82 O 0.03188 1.08398 -0.03688
 O83 O 0.06148 0.96355 -0.03281
 O84 O 0.00948 0.98819 0.07703
 O85 O -0.06478 0.95148 -0.01892
 O86 O 0.06322 0.99311 0.04266
 O87 O -0.06497 0.97245 0.04209
 O88 O -0.04176 1.04860 0.06133
 O89 O -0.03487 1.08844 0.01204
 C90 C -0.05064 1.03378 -0.09134
 C91 C 0.04391 0.93933 -0.05346
 C92 C 0.06654 1.07323 -0.03556
 C93 C 0.04583 0.98581 0.07436
 C94 C -0.07930 0.95190 0.01520
 C95 C -0.04446 1.08154 0.04721
 Zn96 Zn 0.49847 -0.06038 0.46996
 Zn97 Zn 0.51618 -0.01569 0.54256
 Zn98 Zn 0.51243 0.02242 0.46381
 Zn99 Zn 0.44165 -0.00731 0.50102
 O100 O 0.49246 -0.01521 0.49447
 O101 O 0.52661 -0.09173 0.49765
 O102 O 0.55493 0.01839 0.54527
 O103 O 0.53101 0.00549 0.41795
 O104 O 0.53840 -0.06056 0.55261
 O105 O 0.52260 -0.05604 0.42416
 O106 O 0.55228 0.04478 0.48683
 O107 O 0.42648 0.03580 0.48080
 O108 O 0.48346 -0.00576 0.58272
 O109 O 0.47876 0.05940 0.45306
 O110 O 0.42843 -0.00383 0.55072
 O111 O 0.41174 -0.04291 0.48019
 O112 O 0.45411 -0.08459 0.45945
 C113 C 0.54187 -0.08974 0.53114
 C114 C 0.56808 0.04128 0.51993
 C115 C 0.53464 -0.02785 0.40483
 C116 C 0.44346 0.06195 0.46227
 C117 C 0.44713 -0.00208 0.58231
 C118 C 0.41961 -0.07412 0.46401
 Zn119 Zn 0.95504 0.49576 0.51389
 Zn120 Zn 1.03114 0.48092 0.54626
 Zn121 Zn 1.02015 0.49926 0.46245
 Zn122 Zn 1.01191 0.55536 0.52451
 O123 O 1.00454 0.50767 0.51156
 O124 O 0.94978 0.44895 0.53210
 O125 O 1.07599 0.46770 0.52444
 O126 O 0.98564 0.47067 0.43633
 O127 O 1.00632 0.43774 0.55960
 O128 O 0.93450 0.49462 0.46572
 O129 O 1.06700 0.47809 0.46119
 O130 O 1.01865 0.58506 0.48318
 O131 O 1.04329 0.50889 0.58922
 O132 O 1.02452 0.54267 0.43578
 O133 O 1.05324 0.56036 0.55452
 O134 O 0.97230 0.57258 0.55252
 O135 O 0.92836 0.52742 0.54513
 C136 C 0.97275 0.42707 0.54950
 C137 C 1.08827 0.46782 0.48930
 C138 C 0.94962 0.47702 0.43700
 C139 C 1.02357 0.57680 0.44735
 C140 C 1.05856 0.54149 0.58541
 C141 C 0.93930 0.55866 0.56015
 Zn142 Zn 0.46829 0.49020 0.95952
 Zn143 Zn 0.46538 0.51024 1.04439
 Zn144 Zn 0.50233 0.43972 1.01752
 Zn145 Zn 0.54121 0.51289 1.00121
 O146 O 0.49436 0.48854 1.00565
 O147 O 0.42212 0.51169 0.96405
 O148 O 0.45250 0.47806 1.08330
 O149 O 0.48873 0.40787 0.97985
 O150 O 0.42019 0.52700 1.02668
 O151 O 0.46036 0.44475 0.93722
 O152 O 0.47685 0.42505 1.05997
 O153 O 0.58188 0.48335 1.01340
 O154 O 0.48885 0.55087 1.06521
 O155 O 0.55117 0.42984 1.02582
 O156 O 0.54417 0.55328 1.03282
 O157 O 0.54927 0.53104 0.95254
 O158 O 0.49413 0.51652 0.92386
 C159 C 0.40479 0.52612 0.99315
 C160 C 0.45733 0.44264 1.08549
 C161 C 0.47142 0.41245 0.94787
 C162 C 0.58206 0.44884 1.02328
 C163 C 0.52091 0.56692 1.05780
 C164 C 0.52729 0.53172 0.92297
 C165 C 1.23173 0.41982 0.41377
 C166 C 1.23745 0.42212 0.45341
 C167 C 1.27046 0.40935 0.47131
 C168 C 1.29808 0.39193 0.44769
 C169 C 1.29253 0.38745 0.40670
 C170 C 1.25948 0.40351 0.38936
 O171 O 1.19678 0.43066 0.40332
 C172 C 1.18021 0.43978 0.43714
 C173 C 1.20400 0.43507 0.46860
 C174 C 1.19195 0.44027 0.50696
 C175 C 1.15375 0.45098 0.51329
 C176 C 1.12836 0.45616 0.48147
 C177 C 1.14201 0.45067 0.44274
 H178 H 1.27415 0.41132 0.50262
 H179 H 1.32363 0.38129 0.46164
 H180 H 1.25342 0.39986 0.35860
 H181 H 1.21111 0.43571 0.53123
 H182 H 1.14404 0.45516 0.54309
 H183 H 1.12334 0.45395 0.41783
 C184 C 0.26371 0.58368 0.92356
 C185 C 0.26229 0.59094 0.96298
 C186 C 0.23346 0.61227 0.98017
 C187 C 0.20547 0.62751 0.95565
 C188 C 0.20651 0.62144 0.91439
 C189 C 0.23588 0.59801 0.89865
 O190 O 0.29477 0.56473 0.91272
 C191 C 0.31335 0.55995 0.94605
 C192 C 0.29467 0.57538 0.97772
 C193 C 0.30997 0.57513 1.01514
 C194 C 0.34605 0.55838 1.02009
 C195 C 0.36613 0.54247 0.98779
 C196 C 0.34917 0.54313 0.95027
 H197 H 0.23294 0.61764 1.01131
 H198 H 0.18284 0.64380 0.96922
 H199 H 0.23927 0.59339 0.86758
 H200 H 0.29494 0.58785 1.03957
 H201 H 0.35847 0.55824 1.04900
 H202 H 0.36373 0.53163 0.92489
 C203 C -0.21545 0.88422 0.08944
 C204 C -0.21336 0.87094 0.05181
 C205 C -0.24156 0.84778 0.03571
 C206 C -0.27343 0.83820 0.05919
 C207 C -0.27693 0.85178 0.09844
 C208 C -0.24655 0.87486 0.11344
 O209 O -0.18622 0.90672 0.09896
 C210 C -0.16527 0.90784 0.06647
 C211 C -0.18055 0.88635 0.03674
 C212 C -0.16374 0.88427 -0.00013
 C213 C -0.13001 0.90543 -0.00669
 C214 C -0.11379 0.92824 0.02339
 C215 C -0.13173 0.92907 0.06064
 H216 H -0.23957 0.83808 0.00575
 H217 H -0.29602 0.82185 0.04550
 H218 H -0.24615 0.88496 0.14327
 H219 H -0.17638 0.86733 -0.02318
 H220 H -0.11686 0.90437 -0.03541
 H221 H -0.12044 0.94629 0.08420
 C222 C 0.70364 0.11009 0.59368
 C223 C 0.70548 0.11599 0.55408
 C224 C 0.73660 0.13314 0.53578
 C225 C 0.76712 0.14515 0.55926
 C226 C 0.76581 0.14080 0.60058
 C227 C 0.73349 0.12257 0.61791
 O228 O 0.67187 0.09176 0.60468
 C229 C 0.65337 0.08618 0.57121
 C230 C 0.67271 0.10082 0.53954
 C231 C 0.65894 0.09839 0.50167
 C232 C 0.62384 0.07968 0.49599
 C233 C 0.60346 0.06337 0.52787
 C234 C 0.61845 0.06690 0.56617
 H235 H 0.73766 0.13662 0.50441
 H236 H 0.79203 0.15738 0.54492
 H237 H 0.73141 0.11849 0.64915
 H238 H 0.67481 0.11022 0.47730
 H239 H 0.61308 0.07711 0.46647
 H240 H 0.60369 0.05472 0.59108
 C241 C 0.39434 0.20933 0.40433
 C242 C 0.36654 0.19500 0.42884
 C243 C 0.33359 0.21444 0.43892
 C244 C 0.32891 0.25035 0.42316
 C245 C 0.35690 0.26647 0.39736
 C246 C 0.39005 0.24496 0.38762
 O247 O 0.42402 0.18628 0.39967
 C248 C 0.41443 0.15677 0.42162
 C249 C 0.37935 0.16079 0.43977
 C250 C 0.36341 0.13370 0.46417
 C251 C 0.38462 0.10103 0.47047
 C252 C 0.42132 0.09609 0.45278
 C253 C 0.43638 0.12446 0.42779
 H254 H 0.31207 0.20232 0.45819
 H255 H 0.30231 0.26461 0.42995
 H256 H 0.41266 0.25597 0.36895
 H257 H 0.33571 0.13768 0.47808
 H258 H 0.37258 0.07990 0.48983
 H259 H 0.46426 0.12164 0.41392
 C260 C 0.91711 0.28194 0.60988
 C261 C 0.91561 0.28196 0.56977
 C262 C 0.89697 0.25434 0.54822
 C263 C 0.87795 0.22585 0.56870
 C264 C 0.87759 0.22503 0.61037
 C265 C 0.89908 0.25288 0.63121
 O266 O 0.93371 0.31305 0.62425
 C267 C 0.94257 0.33291 0.59241
 C268 C 0.93203 0.31479 0.55846
 C269 C 0.93522 0.33108 0.52182
 C270 C 0.94958 0.36790 0.51989
 C271 C 0.96070 0.38755 0.55416
 C272 C 0.95780 0.36972 0.59107
 H273 H 0.89612 0.25526 0.51665
 H274 H 0.86351 0.20417 0.55171
 H275 H 0.89907 0.25376 0.66281
 H276 H 0.92588 0.31637 0.49573
 H277 H 0.95157 0.38146 0.49165
 H278 H 0.96527 0.38462 0.61768
 C279 C 0.09555 0.79084 -0.10721
 C280 C 0.12708 0.81399 -0.10209
 C281 C 0.16465 0.80114 -0.10426
 C282 C 0.17006 0.76276 -0.11210
 C283 C 0.13818 0.73824 -0.11783
 C284 C 0.10032 0.75250 -0.11572
 O285 O 0.06240 0.80858 -0.10166
 C286 C 0.07334 0.84365 -0.09288
 C287 C 0.11265 0.84829 -0.09305
 C288 C 0.13070 0.88204 -0.08330
 C289 C 0.10739 0.91217 -0.07204
 C290 C 0.06670 0.90817 -0.07045
 C291 C 0.04938 0.87350 -0.08186
 H292 H 0.18892 0.81990 -0.09959
 H293 H 0.19908 0.75204 -0.11389
 H294 H 0.07557 0.73417 -0.11966
 H295 H 0.16171 0.88484 -0.08348
 H296 H 0.12123 0.93843 -0.06361
 H297 H 0.01854 0.86935 -0.08039
 C298 C 0.59835 0.70743 1.10457
 C299 C 0.56099 0.70845 1.11758
 C300 C 0.54532 0.73984 1.13556
 C301 C 0.56921 0.77141 1.14095
 C302 C 0.60881 0.77135 1.12923
 C303 C 0.62301 0.73836 1.11011
 O304 O 0.60708 0.67509 1.08696
 C305 C 0.57443 0.65540 1.08901
 C306 C 0.54544 0.67450 1.10774
 C307 C 0.50879 0.65937 1.11302
 C308 C 0.50147 0.62323 1.09777
 C309 C 0.53052 0.60316 1.07730
 C310 C 0.56772 0.61950 1.07331
 H311 H 0.51544 0.74031 1.14454
 H312 H 0.55572 0.79622 1.15304
 H313 H 0.65264 0.73563 1.10100
 H314 H 0.48646 0.67502 1.12791
 H315 H 0.47282 0.61142 1.10096
 H316 H 0.59052 0.60511 1.05775
 C317 C 0.38743 0.39372 1.23354
 C318 C 0.38807 0.36366 1.20803
 C319 C 0.37527 0.32779 1.21810
 C320 C 0.36180 0.32242 1.25631
 C321 C 0.36183 0.35256 1.28383
 C322 C 0.37428 0.38896 1.27191
 O323 O 0.40156 0.42529 1.21801
 C324 C 0.41146 0.41477 1.18201
 C325 C 0.40394 0.37726 1.17467
 C326 C 0.41333 0.35970 1.13962
 C327 C 0.43120 0.38168 1.11080
 C328 C 0.43898 0.42062 1.11719
 C329 C 0.42870 0.43746 1.15337
 H330 H 0.37593 0.30466 1.19737
 H331 H 0.35160 0.29462 1.26453
 H332 H 0.37501 0.41246 1.29221
 H333 H 0.40742 0.33003 1.13475
 H334 H 0.43861 0.36835 1.08327
 H335 H 0.43455 0.46699 1.15923
 C336 C 0.60625 -0.10130 0.27011
 C337 C 0.60667 -0.06313 0.26320
 C338 C 0.62080 -0.04777 0.22861
 C339 C 0.63452 -0.07284 0.19988
 C340 C 0.63396 -0.11242 0.20627
 C341 C 0.62006 -0.12657 0.24229
 O342 O 0.59074 -0.11042 0.30424
 C343 C 0.58105 -0.07732 0.31927
 C344 C 0.59019 -0.04738 0.29550
 C345 C 0.58198 -0.01024 0.30570
 C346 C 0.56368 -0.00382 0.34186
 C347 C 0.55378 -0.03440 0.36673
 C348 C 0.56276 -0.07165 0.35501
 H349 H 0.62058 -0.01766 0.22360
 H350 H 0.64450 -0.06150 0.17230
 H351 H 0.61951 -0.15650 0.24839
 H352 H 0.58931 0.01293 0.28652
 H353 H 0.55707 0.02487 0.35033
 H354 H 0.55579 -0.09569 0.37318
 C355 C -0.11108 1.11147 -0.22890
 C356 C -0.11311 1.07317 -0.23524
 C357 C -0.12678 1.05731 -0.26963
 C358 C -0.13943 1.08187 -0.29861
 C359 C -0.13859 1.12160 -0.29280
 C360 C -0.12360 1.13661 -0.25750
 O361 O -0.09693 1.12040 -0.19400
 C362 C -0.09001 1.08698 -0.17812
 C363 C -0.09955 1.05727 -0.20222
 C364 C -0.09495 1.01984 -0.19166
 C365 C -0.07952 1.01258 -0.15480
 C366 C -0.06887 1.04257 -0.12924
 C367 C -0.07448 1.08041 -0.14118
 H368 H -0.12773 1.02707 -0.27400
 H369 H -0.14985 1.06986 -0.32573
 H370 H -0.12256 1.16672 -0.25217
 H371 H -0.10281 0.99699 -0.21121
 H372 H -0.07550 0.98349 -0.14643
 H373 H -0.06662 1.10398 -0.12255
 C374 C 1.11676 0.59215 0.73717
 C375 C 1.13358 0.61362 0.70829
 C376 C 1.15579 0.64553 0.71600
 C377 C 1.16080 0.65592 0.75515
 C378 C 1.14389 0.63434 0.78553
 C379 C 1.12189 0.60170 0.77651
 O380 O 1.09475 0.56439 0.72321
 C381 C 1.09779 0.56852 0.68472
 C382 C 1.12138 0.59817 0.67426
 C383 C 1.12725 0.60903 0.63581
 C384 C 1.10743 0.58899 0.60684
 C385 C 1.08219 0.55871 0.61661
 C386 C 1.07790 0.54784 0.65618
 H387 H 1.16821 0.66224 0.69268
 H388 H 1.17766 0.68091 0.76194
 H389 H 1.10827 0.58516 0.79930
 H390 H 1.14569 0.63271 0.62843
 H391 H 1.11115 0.59766 0.57677
 H392 H 1.05834 0.52536 0.66461
 C393 C 0.80467 0.61301 0.64665
 C394 C 0.83522 0.63667 0.65466
 C395 C 0.83129 0.67019 0.67556
 C396 C 0.79420 0.68014 0.68796
 C397 C 0.76229 0.65641 0.67965
 C398 C 0.76767 0.62204 0.65935
 O399 O 0.81409 0.58408 0.62383
 C400 C 0.85135 0.58966 0.61719
 C401 C 0.86563 0.62142 0.63546
 C402 C 0.90334 0.63381 0.63074
 C403 C 0.92736 0.61264 0.60617
 C404 C 0.91340 0.57980 0.58668
 C405 C 0.87479 0.56806 0.59266
 H406 H 0.85563 0.68871 0.68081
 H407 H 0.79002 0.70684 0.70282
 H408 H 0.74345 0.60421 0.65151
 H409 H 0.91378 0.65917 0.64502
 H410 H 0.95678 0.62212 0.60214
 H411 H 0.86305 0.54345 0.57799
 C412 C 0.73013 0.40425 1.08841
 C413 C 0.71242 0.37335 1.07185
 C414 C 0.72540 0.33684 1.07657
 C415 C 0.75821 0.33176 1.09919
 C416 C 0.77806 0.36300 1.11616
 C417 C 0.76350 0.39994 1.11063
 O418 O 0.71112 0.43613 1.08239
 C419 C 0.68080 0.42488 1.06165
 C420 C 0.68060 0.38670 1.05439
 C421 C 0.65092 0.36815 1.03520
 C422 C 0.61955 0.38965 1.02367
 C423 C 0.61823 0.42899 1.03146
 C424 C 0.64978 0.44712 1.04998
 H425 H 0.71015 0.31293 1.06415
 H426 H 0.76735 0.30313 1.10431
 H427 H 0.77740 0.42442 1.12344
 H428 H 0.65139 0.33799 1.03022
 H429 H 0.59574 0.37540 1.00944
 H430 H 0.64918 0.47691 1.05700
 C431 C 0.21177 1.12288 -0.10418
 C432 C 0.19100 1.15474 -0.09592
 C433 C 0.20450 1.19069 -0.10489
 C434 C 0.24051 1.19378 -0.12361
 C435 C 0.26201 1.16103 -0.13392
 C436 C 0.24711 1.12514 -0.12314
 O437 O 0.19424 1.09131 -0.09340
 C438 C 0.16144 1.10339 -0.07833
 C439 C 0.15768 1.14194 -0.07932
 C440 C 0.12450 1.16005 -0.06641
 C441 C 0.09414 1.13740 -0.05201
 C442 C 0.09791 1.09762 -0.05028
 C443 C 0.13220 1.08062 -0.06357
 H444 H 0.18771 1.21548 -0.09820
 H445 H 0.25033 1.22166 -0.13190
 H446 H 0.26269 1.09934 -0.12848
 H447 H 0.12188 1.19040 -0.06785
 H448 H 0.06796 1.15074 -0.04203
 H449 H 0.13577 1.05031 -0.06333
 C450 C 0.27427 -0.12411 0.39643
 C451 C 0.29461 -0.15573 0.40604
 C452 C 0.28101 -0.19197 0.39866
 C453 C 0.24524 -0.19577 0.38017
 C454 C 0.22398 -0.16349 0.36849
 C455 C 0.23909 -0.12710 0.37745
 O456 O 0.29208 -0.09221 0.40603
 C457 C 0.32458 -0.10395 0.42170
 C458 C 0.32782 -0.14256 0.42212
 C459 C 0.36050 -0.16064 0.43560
 C460 C 0.39100 -0.13792 0.44918
 C461 C 0.38784 -0.09806 0.44969
 C462 C 0.35402 -0.08097 0.43588
 H463 H 0.29756 -0.21650 0.40638
 H464 H 0.23553 -0.22403 0.37304
 H465 H 0.22378 -0.10156 0.37066
 H466 H 0.36264 -0.19107 0.43520
 H467 H 0.41683 -0.15127 0.45963
 H468 H 0.35108 -0.05060 0.43531
 C469 C 0.62018 -0.20455 0.62331
 C470 C 0.62765 -0.21084 0.58435
 C471 C 0.64960 -0.24075 0.57081
 C472 C 0.66448 -0.26538 0.59860
 C473 C 0.65695 -0.25994 0.63901
 C474 C 0.63436 -0.22905 0.65154
 O475 O 0.59852 -0.17439 0.62969
 C476 C 0.59209 -0.16156 0.59392
 C477 C 0.60915 -0.18310 0.56526
 C478 C 0.60536 -0.17577 0.52572
 C479 C 0.58294 -0.14495 0.51515
 C480 C 0.56521 -0.12187 0.54399
 C481 C 0.57012 -0.13017 0.58406
 H482 H 0.65491 -0.24509 0.53995
 H483 H 0.68121 -0.28920 0.58860
 H484 H 0.62815 -0.22431 0.68219
 H485 H 0.61890 -0.19334 0.50377
 H486 H 0.57968 -0.13886 0.48439
 H487 H 0.55669 -0.11327 0.60666
 C488 C 1.07710 0.71850 0.38064
 C489 C 1.06807 0.69486 0.34999
 C490 C 1.07734 0.70349 0.31141
 C491 C 1.09722 0.73752 0.30436
 C492 C 1.10774 0.76168 0.33578
 C493 C 1.09680 0.75221 0.37432
 O494 O 1.06798 0.70437 0.41523
 C495 C 1.05310 0.67092 0.40638
 C496 C 1.05249 0.66354 0.36690
 C497 C 1.04085 0.62881 0.35170
 C498 C 1.03000 0.60050 0.37831
 C499 C 1.03084 0.60750 0.41919
 C500 C 1.04189 0.64357 0.43316
 H501 H 1.07046 0.68428 0.28775
 H502 H 1.10582 0.74430 0.27475
 H503 H 1.10460 0.77000 0.39888
 H504 H 1.04124 0.62332 0.32058
 H505 H 1.02181 0.57298 0.36714
 H506 H 1.04379 0.64965 0.46412
 C507 C -0.09583 1.22808 0.10676
 C508 C -0.08756 1.20567 0.13809
 C509 C -0.09155 1.21793 0.17646
 C510 C -0.10567 1.25444 0.18289
 C511 C -0.11627 1.27802 0.15108
 C512 C -0.11007 1.26434 0.11235
 O513 O -0.09012 1.21108 0.07258
 C514 C -0.07832 1.17700 0.08260
 C515 C -0.07652 1.17215 0.12236
 C516 C -0.06605 1.13824 0.13926
 C517 C -0.05664 1.10824 0.11415
 C518 C -0.05745 1.11269 0.07293
 C519 C -0.06862 1.14771 0.05705
 H520 H -0.08489 1.19970 0.20070
 H521 H -0.11069 1.26286 0.21286
 H522 H -0.11589 1.28125 0.08690
 H523 H -0.06515 1.13497 0.17065
 H524 H -0.04793 1.08180 0.12690
 H525 H -0.06967 1.15206 0.02580
 C526 C 0.39729 0.29252 0.85812
 C527 C 0.43502 0.28282 0.86376
 C528 C 0.44909 0.24714 0.85518
 C529 C 0.42302 0.22007 0.84096
 C530 C 0.38362 0.22894 0.83604
 C531 C 0.37087 0.26605 0.84399
 O532 O 0.38920 0.32705 0.87071
 C533 C 0.42248 0.33928 0.88497
 C534 C 0.45138 0.31317 0.88157
 C535 C 0.48749 0.31850 0.89794
 C536 C 0.49394 0.35191 0.91905
 C537 C 0.46467 0.37929 0.92286
 C538 C 0.42864 0.37321 0.90495
 H539 H 0.47878 0.24001 0.86054
 H540 H 0.43313 0.19168 0.83574
 H541 H 0.34097 0.27362 0.84090
 H542 H 0.50945 0.29716 0.89570
 H543 H 0.52155 0.35631 0.93289
 H544 H 0.40552 0.39322 0.90845
 C545 C 0.61588 0.61276 0.80292
 C546 C 0.57991 0.60470 0.78851
 C547 C 0.56832 0.61515 0.75140
 C548 C 0.59489 0.63483 0.72809
 C549 C 0.63225 0.64367 0.74214
 C550 C 0.64288 0.63222 0.78014
 O551 O 0.62086 0.60036 0.83910
 C552 C 0.58729 0.58410 0.84761
 C553 C 0.56136 0.58600 0.81755
 C554 C 0.52451 0.57086 0.81993
 C555 C 0.51383 0.55300 0.85477
 C556 C 0.53986 0.55062 0.88651
 C557 C 0.57725 0.56650 0.88272
 H558 H 0.53986 0.60833 0.74072
 H559 H 0.58651 0.64275 0.69888
 H560 H 0.67108 0.63868 0.79174
 H561 H 0.50465 0.57274 0.79583
 H562 H 0.48510 0.54115 0.85694
 H563 H 0.59783 0.56521 0.90624
 C564 C 0.39366 0.07451 0.72294
 C565 C 0.36315 0.05596 0.70603
 C566 C 0.32520 0.06315 0.71595
 C567 C 0.31828 0.09045 0.74474
 C568 C 0.34913 0.10954 0.76384
 C569 C 0.38752 0.10110 0.75256
 O570 O 0.42720 0.06620 0.70630
 C571 C 0.41751 0.04189 0.67826
 C572 C 0.37864 0.03447 0.67727
 C573 C 0.36157 0.01204 0.64882
 C574 C 0.38529 -0.00229 0.61926
 C575 C 0.42526 0.00623 0.61837
 C576 C 0.44184 0.02764 0.64910
 H577 H 0.30164 0.04917 0.70108
 H578 H 0.28867 0.09732 0.75112
 H579 H 0.41194 0.11501 0.76595
 H580 H 0.33084 0.00702 0.64848
 H581 H 0.37215 -0.01859 0.59597
 H582 H 0.47199 0.03550 0.64861
 C583 C 0.09808 0.91058 0.21597
 C584 C 0.12952 0.92515 0.19660
 C585 C 0.16707 0.91761 0.20732
 C586 C 0.17255 0.89404 0.23944
 C587 C 0.14071 0.87880 0.26052
 C588 C 0.10284 0.88743 0.24844
 O589 O 0.06494 0.91956 0.19945
 C590 C 0.07581 0.94018 0.16895
 C591 C 0.11506 0.94449 0.16611
 C592 C 0.13301 0.96350 0.13565
 C593 C 0.10961 0.97816 0.10642
 C594 C 0.06900 0.97351 0.10796
 C595 C 0.05183 0.95477 0.14019
 H596 H 0.19131 0.92875 0.19097
 H597 H 0.20172 0.88691 0.24711
 H598 H 0.07786 0.87627 0.26358
 H599 H 0.16398 0.96623 0.13398
 H600 H 0.12333 0.99246 0.08212
 H601 H 0.02105 0.95024 0.14195
 C602 C 0.89557 0.41040 0.28989
 C603 C 0.86403 0.42272 0.31051
 C604 C 0.82665 0.41786 0.29707
 C605 C 0.82158 0.39938 0.26104
 C606 C 0.85366 0.38630 0.23907
 C607 C 0.89123 0.39224 0.25390
 O608 O 0.92855 0.41715 0.30807
 C609 C 0.91759 0.43407 0.34093
 C610 C 0.87841 0.43823 0.34384
 C611 C 0.86080 0.45494 0.37605
 C612 C 0.88451 0.46784 0.40649
 C613 C 0.92508 0.46373 0.40435
 C614 C 0.94170 0.44657 0.37088
 H615 H 0.80221 0.42750 0.31397
 H616 H 0.79258 0.39453 0.25077
 H617 H 0.91642 0.38298 0.23794
 H618 H 0.82989 0.45785 0.37776
 H619 H 0.87117 0.48080 0.43180
 H620 H 0.97247 0.44291 0.36820
   
