data_POSCAR
  _audit_creation_date              2014-09-24
  _audit_creation_method            'ToBaCCo'
  _symmetry_space_group_name_H-M    'P1'
  _symmetry_Int_Tables_number       1
  _symmetry_cell_setting            triclinic
  loop_
  _symmetry_equiv_pos_as_xyz
 x,y,z
_cell_length_a 29.4361
_cell_length_b 29.3800
_cell_length_c 24.9194
_cell_angle_alpha 90.233000
_cell_angle_beta 89.770800
_cell_angle_gamma 100.996600
loop_
  _atom_site_label
  _atom_site_type_symbol
  _atom_site_fract_x
  _atom_site_fract_y
  _atom_site_fract_z
O1 O -0.06436 0.31869 0.04367
 O2 O 0.01842 0.27832 -0.04840
 O3 O -0.05662 0.31155 -0.05987
 O4 O 0.01204 0.28345 0.05471
 O5 O -0.02894 0.21213 0.05522
 O6 O -0.10161 0.24241 -0.05275
 O7 O -0.02610 0.20872 -0.04885
 O8 O -0.10343 0.24684 0.05040
 Cu9 Cu -0.01840 0.30534 -0.00223
 Cu10 Cu -0.06911 0.22047 0.00134
 C11 C -0.09814 0.28951 0.06234
 C12 C 0.00973 0.23661 -0.06490
 C13 C -0.09135 0.28178 -0.07505
 C14 C 0.00399 0.24244 0.07323
 O15 O 0.52012 0.83698 0.55423
 O16 O 0.59574 0.80825 0.44528
 O17 O 0.51621 0.83702 0.45129
 O18 O 0.60029 0.80891 0.55043
 O19 O 0.56206 0.73653 0.55153
 O20 O 0.47975 0.76392 0.45183
 O21 O 0.55759 0.73582 0.44618
 O22 O 0.48343 0.76399 0.55546
 Cu23 Cu 0.56223 0.83003 0.50019
 Cu24 Cu 0.51739 0.74270 0.50144
 C25 C 0.48823 0.80541 0.57243
 C26 C 0.58891 0.76716 0.42675
 C27 C 0.48328 0.80532 0.43551
 C28 C 0.59486 0.76777 0.56830
 O29 O 1.05572 0.68096 0.05507
 O30 O 0.98515 0.71758 -0.05325
 O31 O 1.05836 0.68003 -0.05036
 O32 O 0.98261 0.71878 0.05181
 O33 O 1.02821 0.78784 0.05318
 O34 O 1.10301 0.74956 -0.04879
 O35 O 1.03042 0.78682 -0.05306
 O36 O 1.10081 0.75025 0.05414
 Cu37 Cu 1.01589 0.69237 0.00080
 Cu38 Cu 1.06973 0.77580 0.00142
 C39 C 1.09038 0.70949 0.07298
 C40 C 0.99648 0.75824 -0.07224
 C41 C 1.09362 0.70845 -0.06704
 C42 C 0.99320 0.75966 0.07061
 O43 O 0.47550 0.17998 0.54765
 O44 O 0.39799 0.21732 0.44843
 O45 O 0.47233 0.18143 0.44445
 O46 O 0.40051 0.21545 0.55322
 O47 O 0.44323 0.28600 0.55373
 O48 O 0.51408 0.25248 0.44426
 O49 O 0.44064 0.28791 0.44899
 O50 O 0.51725 0.25102 0.54872
 Cu51 Cu 0.43197 0.19148 0.49852
 Cu52 Cu 0.48302 0.27650 0.49906
 C53 C 0.50979 0.20929 0.56470
 C54 C 0.40661 0.25872 0.43125
 C55 C 0.50548 0.21135 0.42595
 C56 C 0.40995 0.25631 0.57228
 O57 O 0.71744 -0.05822 0.04802
 O58 O 0.68146 0.00736 -0.06494
 O59 O 0.72377 -0.06206 -0.05682
 O60 O 0.67462 0.01238 0.03856
 O61 O 0.74200 0.06064 0.04276
 O62 O 0.78997 -0.01186 -0.05428
 O63 O 0.74794 0.05703 -0.06100
 O64 O 0.78395 -0.00855 0.05119
 Cu65 Cu 0.69262 -0.03029 -0.00873
 Cu66 Cu 0.77283 0.02884 -0.00484
 C67 C 0.75679 -0.04403 0.06913
 C68 C 0.70851 0.04333 -0.08220
 C69 C 0.76503 -0.04843 -0.07308
 C70 C 0.69981 0.04931 0.05638
 O71 O 0.21755 0.54351 0.45595
 O72 O 0.17301 0.45729 0.55995
 O73 O 0.22006 0.54296 0.56091
 O74 O 0.17084 0.45808 0.45734
 O75 O 0.23734 0.43364 0.45378
 O76 O 0.28577 0.51710 0.55846
 O77 O 0.23948 0.43276 0.55794
 O78 O 0.28332 0.51779 0.45314
 Cu79 Cu 0.18892 0.50352 0.50893
 Cu80 Cu 0.26818 0.47295 0.50560
 C81 C 0.25769 0.54483 0.43633
 C82 C 0.19860 0.42988 0.57590
 C83 C 0.26099 0.54416 0.57764
 C84 C 0.19585 0.43109 0.43844
 O85 O 0.31480 1.05321 0.05841
 O86 O 0.30310 0.96125 -0.04506
 O87 O 0.31665 1.05198 -0.04410
 O88 O 0.30170 0.96216 0.06124
 O89 O 0.22641 0.96067 0.06015
 O90 O 0.24107 1.04883 -0.04569
 O91 O 0.22781 0.95972 -0.04643
 O92 O 0.23919 1.04982 0.05756
 Cu93 Cu 0.31663 1.00675 0.00787
 Cu94 Cu 0.22591 1.00365 0.00630
 C95 C 0.27916 1.06792 0.07458
 C96 C 0.26331 0.94624 -0.06471
 C97 C 0.28153 1.06635 -0.06197
 C98 C 0.26138 0.94739 0.07978
 O99 O 0.82620 0.53776 0.54074
 O100 O 0.77433 0.44900 0.44176
 O101 O 0.81844 0.53398 0.43584
 O102 O 0.78019 0.45150 0.54601
 O103 O 0.71424 0.47680 0.55030
 O104 O 0.75469 0.56259 0.44570
 O105 O 0.71002 0.47730 0.44537
 O106 O 0.75940 0.56093 0.54929
 Cu107 Cu 0.80657 0.49056 0.49089
 Cu108 Cu 0.72788 0.52172 0.49816
 C109 C 0.80156 0.56415 0.56201
 C110 C 0.73345 0.44905 0.42583
 C111 C 0.79300 0.56240 0.42229
 C112 C 0.74039 0.45011 0.56657
 O113 O 0.17244 0.26221 0.31451
 O114 O 0.21950 0.17902 0.22936
 O115 O 0.24916 0.23094 0.31169
 O116 O 0.14052 0.20696 0.23598
 O117 O 0.16864 0.26416 0.18096
 O118 O 0.27778 0.28836 0.25677
 O119 O 0.25306 0.23704 0.17793
 O120 O 0.20644 0.31945 0.26216
 Cu121 Cu 0.19227 0.21388 0.27815
 Cu122 Cu 0.22703 0.28200 0.21188
 C123 C 0.18301 0.30517 0.30363
 C124 C 0.24567 0.19441 0.19024
 C125 C 0.28153 0.26395 0.29786
 C126 C 0.13582 0.23212 0.19607
 O127 O 0.80255 0.83980 0.24948
 O128 O 0.81675 0.73288 0.31773
 O129 O 0.86542 0.79021 0.24860
 O130 O 0.75268 0.78295 0.31667
 O131 O 0.71935 0.73845 0.25072
 O132 O 0.83089 0.74985 0.18016
 O133 O 0.78635 0.69147 0.24793
 O134 O 0.76617 0.79853 0.18277
 Cu135 Cu 0.81271 0.79045 0.29011
 Cu136 Cu 0.77183 0.74040 0.20875
 C137 C 0.78262 0.83748 0.20426
 C138 C 0.80459 0.69413 0.29418
 C139 C 0.86712 0.77221 0.20233
 C140 C 0.71691 0.75861 0.29551
 O141 O 0.76898 0.26176 0.21978
 O142 O 0.66721 0.21028 0.29905
 O143 O 0.70810 0.18553 0.21386
 O144 O 0.72184 0.29150 0.29854
 O145 O 0.67426 0.31915 0.24459
 O146 O 0.65768 0.21327 0.16416
 O147 O 0.62201 0.24279 0.24668
 O148 O 0.72425 0.29180 0.16456
 Cu149 Cu 0.72131 0.23445 0.26318
 Cu150 Cu 0.66703 0.27020 0.19793
 C151 C 0.76395 0.28496 0.17831
 C152 C 0.62769 0.21837 0.28720
 C153 C 0.67942 0.18122 0.17527
 C154 C 0.69906 0.32279 0.28635
 O155 O 0.29773 0.80070 0.19918
 O156 O 0.30286 0.68912 0.26527
 O157 O 0.25091 0.71757 0.19193
 O158 O 0.35193 0.77203 0.27132
 O159 O 0.30539 0.79102 0.33385
 O160 O 0.20408 0.73078 0.25740
 O161 O 0.25745 0.70609 0.33016
 O162 O 0.24890 0.81441 0.26206
 Cu163 Cu 0.30579 0.74331 0.22568
 Cu164 Cu 0.24966 0.76231 0.30267
 C165 C 0.27036 0.82532 0.21835
 C166 C 0.28121 0.67891 0.30916
 C167 C 0.21048 0.71549 0.21080
 C168 C 0.34584 0.79061 0.31611
 O169 O 0.73379 0.28658 0.67656
 O170 O 0.72640 0.17576 0.74961
 O171 O 0.68007 0.20482 0.67264
 O172 O 0.78582 0.25480 0.74574
 O173 O 0.74298 0.27411 0.81189
 O174 O 0.63766 0.23432 0.73214
 O175 O 0.67652 0.19789 0.80599
 O176 O 0.69163 0.31060 0.74051
 Cu177 Cu 0.73606 0.22803 0.70495
 Cu178 Cu 0.68480 0.25726 0.78011
 C179 C 0.71335 0.31729 0.69637
 C180 C 0.69861 0.16765 0.78919
 C181 C 0.64123 0.21207 0.68899
 C182 C 0.78227 0.27205 0.79179
 O183 O 0.25674 0.81461 0.75143
 O184 O 0.26656 0.70692 0.68225
 O185 O 0.21240 0.73093 0.75431
 O186 O 0.31449 0.79183 0.67975
 O187 O 0.36027 0.77322 0.74276
 O188 O 0.25837 0.71693 0.81978
 O189 O 0.31164 0.68982 0.74684
 O190 O 0.30432 0.80057 0.81496
 Cu191 Cu 0.25844 0.76297 0.71005
 Cu192 Cu 0.31362 0.74369 0.78734
 C193 C 0.27708 0.82511 0.79578
 C194 C 0.29005 0.67964 0.70302
 C195 C 0.21823 0.71483 0.80043
 C196 C 0.35469 0.79173 0.69802
 O197 O 0.14670 0.20200 0.77429
 O198 O 0.25466 0.22729 0.69657
 O199 O 0.22595 0.17553 0.77912
 O200 O 0.17786 0.25885 0.69624
 O201 O 0.21222 0.31595 0.74873
 O202 O 0.25896 0.23338 0.83136
 O203 O 0.28361 0.28418 0.75227
 O204 O 0.17444 0.25945 0.82943
 Cu205 Cu 0.19814 0.21016 0.73112
 Cu206 Cu 0.23284 0.27807 0.79786
 C207 C 0.14209 0.22661 0.81499
 C208 C 0.28723 0.25999 0.71066
 C209 C 0.25171 0.19080 0.81854
 C210 C 0.18856 0.30182 0.70748
 O211 O 0.76437 0.78309 0.67255
 O212 O 0.87601 0.79188 0.74434
 O213 O 0.83817 0.73958 0.66976
 O214 O 0.81601 0.84034 0.74418
 O215 O 0.77778 0.79516 0.80667
 O216 O 0.79715 0.69269 0.72877
 O217 O 0.84046 0.74402 0.80613
 O218 O 0.72968 0.73781 0.73683
 Cu219 Cu 0.82499 0.79278 0.70016
 Cu220 Cu 0.78242 0.73777 0.77568
 C221 C 0.72800 0.75860 0.69269
 C222 C 0.87678 0.76985 0.78811
 C223 C 0.82183 0.69908 0.68644
 C224 C 0.79547 0.83532 0.78914
 N225 N 0.31536 0.16873 0.15447
 N226 N 0.32484 0.13196 0.12353
 C227 C 0.28398 0.10524 0.11007
 C228 C 0.24801 0.12326 0.13296
 C229 C 0.26913 0.16284 0.16003
 H230 H 0.21121 0.11018 0.12903
 H231 H 0.34014 0.19561 0.17028
 H232 H 0.35781 0.12806 0.11107
 N233 N 0.87259 0.65554 0.63536
 N234 N 0.86729 0.61925 0.60283
 C235 C 0.82199 0.59996 0.60078
 C236 C 0.79750 0.62436 0.63436
 C237 C 0.83090 0.65929 0.65541
 H238 H 0.76035 0.61973 0.63930
 H239 H 0.90397 0.67820 0.64213
 H240 H 0.89390 0.60968 0.58014
 N241 N 0.80795 0.92175 0.18849
 N242 N 0.80224 0.95262 0.15205
 C243 C 0.77114 0.93202 0.11579
 C244 C 0.75640 0.88584 0.12950
 C245 C 0.78094 0.88078 0.17581
 H246 H 0.73263 0.85949 0.10792
 H247 H 0.83110 0.92846 0.22049
 H248 H 0.81960 0.98712 0.15204
 N249 N 0.13407 0.33431 0.64888
 N250 N 0.13662 0.36939 0.61516
 C251 C 0.18053 0.39330 0.61447
 C252 C 0.20684 0.37322 0.64981
 C253 C 0.17609 0.33608 0.67078
 H254 H 0.24369 0.38270 0.65702
 H255 H 0.10432 0.30934 0.65596
 H256 H 0.10933 0.37536 0.59120
 N257 N 0.81269 0.34244 0.11793
 N258 N 0.85074 0.34435 0.08885
 C259 C 0.86687 0.30488 0.09633
 C260 C 0.83847 0.27709 0.13230
 C261 C 0.80460 0.30207 0.14489
 H262 H 0.84017 0.24212 0.14444
 H263 H 0.79216 0.36778 0.11811
 H264 H 0.86359 0.37087 0.06189
 N265 N 0.40648 0.85506 0.64856
 N266 N 0.44289 0.85884 0.61642
 C267 C 0.45497 0.81696 0.61194
 C268 C 0.42551 0.78537 0.64325
 C269 C 0.39542 0.81094 0.66572
 H270 H 0.42417 0.74840 0.64640
 H271 H 0.38895 0.88193 0.65740
 H272 H 0.45748 0.88897 0.59572
 N273 N 0.14120 0.65805 0.18127
 N274 N 0.10757 0.65637 0.14147
 C275 C 0.11723 0.69663 0.11415
 C276 C 0.15690 0.72410 0.13483
 C277 C 0.17068 0.69888 0.17634
 H278 H 0.17326 0.75857 0.12210
 H279 H 0.14252 0.63219 0.20953
 H280 H 0.07949 0.62913 0.13579
 N281 N 0.58743 0.15269 0.63691
 N282 N 0.55176 0.15181 0.60461
 C283 C 0.54211 0.19479 0.60250
 C284 C 0.57213 0.22405 0.63558
 C285 C 0.60016 0.19597 0.65655
 H286 H 0.57516 0.26111 0.64082
 H287 H 0.60337 0.12446 0.64419
 H288 H 0.53604 0.12290 0.58236
 N289 N 0.64997 0.09281 0.81519
 N290 N 0.65251 0.05806 0.85237
 C291 C 0.69457 0.06819 0.87546
 C292 C 0.71994 0.10844 0.85303
 C293 C 0.69082 0.12258 0.81571
 H294 H 0.75395 0.12673 0.86477
 H295 H 0.62043 0.09616 0.79364
 H296 H 0.62534 0.03087 0.86197
 N297 N 0.31644 0.60964 0.32655
 N298 N 0.31081 0.57483 0.36092
 C299 C 0.27469 0.57780 0.39329
 C300 C 0.25665 0.61624 0.37918
 C301 C 0.28425 0.63554 0.33679
 H302 H 0.22800 0.62876 0.39762
 H303 H 0.34241 0.61586 0.29735
 H304 H 0.33135 0.54952 0.36195
 N305 N 0.22784 0.88247 0.81554
 N306 N 0.22301 0.91267 0.85339
 C307 C 0.25773 0.91481 0.88883
 C308 C 0.28609 0.88438 0.87297
 C309 C 0.26554 0.86436 0.82623
 H310 H 0.31626 0.87692 0.89326
 H311 H 0.20469 0.87344 0.78387
 H312 H 0.19631 0.93153 0.85469
 N313 N 0.66665 0.38984 0.31840
 N314 N 0.67491 0.42228 0.35573
 C315 C 0.71293 0.41718 0.38309
 C316 C 0.72957 0.37943 0.36253
 C317 C 0.69902 0.36314 0.32142
 H318 H 0.75957 0.36606 0.37531
 H319 H 0.63896 0.38598 0.29160
 H320 H 0.65508 0.44781 0.36171
 N321 N 0.06836 0.17584 0.84213
 N322 N 0.03140 0.17857 0.87633
 C323 C 0.03971 0.22100 0.89911
 C324 C 0.08190 0.24587 0.88091
 C325 C 0.09862 0.21636 0.84550
 H326 H 0.09819 0.28090 0.89170
 H327 H 0.07150 0.14703 0.81872
 H328 H 0.00251 0.15221 0.88193
 N329 N 0.63628 0.71773 0.31293
 N330 N 0.60303 0.71937 0.34820
 C331 C 0.61696 0.75530 0.38179
 C332 C 0.66123 0.77746 0.36757
 C333 C 0.67225 0.75227 0.32378
 H334 H 0.68275 0.80678 0.38713
 H335 H 0.63467 0.69259 0.28288
 H336 H 0.57141 0.69610 0.34919
 N337 N 0.95625 0.81071 0.81209
 N338 N 0.98705 0.80858 0.84999
 C339 C 0.97088 0.77221 0.88202
 C340 C 0.92780 0.75022 0.86383
 C341 C 0.91976 0.77589 0.81945
 H342 H 0.90521 0.72039 0.88098
 H343 H 0.95985 0.83626 0.78252
 H344 H 1.01863 0.83164 0.85359
 N345 N 0.35573 0.31378 0.32567
 N346 N 0.38830 0.31284 0.36171
 C347 C 0.37747 0.27298 0.38947
 C348 C 0.33620 0.24748 0.37065
 C349 C 0.32362 0.27465 0.33021
 H350 H 0.31807 0.21392 0.38421
 H351 H 0.35550 0.34094 0.29880
 H352 H 0.41758 0.33886 0.36663
 N353 N 0.82646 0.91651 0.81521
 N354 N 0.81973 0.94639 0.85263
 C355 C 0.78401 0.92657 0.88380
 C356 C 0.76732 0.88173 0.86571
 C357 C 0.79543 0.87687 0.82203
 H358 H 0.73894 0.85652 0.88180
 H359 H 0.85241 0.92310 0.78600
 H360 H 0.83889 0.98008 0.85602
 N361 N 0.12967 0.33628 0.36587
 N362 N 0.13294 0.37082 0.40074
 C363 C 0.17653 0.39544 0.39931
 C364 C 0.20181 0.37650 0.36139
 C365 C 0.17086 0.33922 0.34115
 H366 H 0.23836 0.38649 0.35238
 H367 H 0.10015 0.31069 0.36019
 H368 H 0.10656 0.37574 0.42704
 N369 N 0.32041 0.16464 0.85557
 N370 N 0.32883 0.12857 0.88800
 C371 C 0.28748 0.10265 0.90135
 C372 C 0.25227 0.12044 0.87692
 C373 C 0.27434 0.15907 0.84901
 H374 H 0.21532 0.10805 0.88065
 H375 H 0.34572 0.19111 0.83993
 H376 H 0.36141 0.12470 0.90152
 N377 N 0.83352 0.62000 0.30013
 N378 N 0.83166 0.58578 0.33486
 C379 C 0.80728 0.59492 0.37814
 C380 C 0.79365 0.63707 0.37116
 C381 C 0.81107 0.65174 0.32127
 H382 H 0.77261 0.65381 0.39766
 H383 H 0.84962 0.62135 0.26259
 H384 H 0.84536 0.55598 0.32804
 N385 N 0.14949 0.65614 0.82873
 N386 N 0.11437 0.65442 0.86703
 C387 C 0.12232 0.69521 0.89371
 C388 C 0.16224 0.72303 0.87417
 C389 C 0.17799 0.69753 0.83399
 H390 H 0.17736 0.75801 0.88654
 H391 H 0.15218 0.63009 0.80093
 H392 H 0.08646 0.62690 0.87201
 N393 N 0.57661 0.15709 0.33969
 N394 N 0.54361 0.15521 0.37622
 C395 C 0.53497 0.19824 0.38340
 C396 C 0.56278 0.22862 0.34932
 C397 C 0.58850 0.20110 0.32235
 H398 H 0.56610 0.26591 0.34710
 H399 H 0.59150 0.12902 0.32809
 H400 H 0.52913 0.12547 0.39769
 N401 N 0.86132 0.31869 0.80451
 N402 N 0.89485 0.32165 0.84024
 C403 C 0.87977 0.29254 0.88090
 C404 C 0.83454 0.27086 0.87138
 C405 C 0.82424 0.28851 0.82268
 H406 H 0.81314 0.24408 0.89494
 H407 H 0.86426 0.33619 0.76789
 H408 H 0.92800 0.34161 0.83553
 N409 N 0.39557 0.85316 0.36916
 N410 N 0.43301 0.85738 0.39940
 C411 C 0.44758 0.81657 0.39950
 C412 C 0.41866 0.78527 0.36725
 C413 C 0.38628 0.80988 0.34880
 H414 H 0.41944 0.74899 0.36063
 H415 H 0.37638 0.87920 0.36345
 H416 H 0.44682 0.88696 0.42165
 N417 N 0.22267 0.88397 0.19865
 N418 N 0.21915 0.91453 0.16104
 C419 C 0.25453 0.91625 0.12627
 C420 C 0.28195 0.88520 0.14233
 C421 C 0.26015 0.86520 0.18843
 H422 H 0.31219 0.87717 0.12239
 H423 H 0.19875 0.87507 0.22974
 H424 H 0.19282 0.93381 0.15934
 N425 N 0.68314 0.38893 0.67891
 N426 N 0.68963 0.42337 0.64422
 C427 C 0.72406 0.41798 0.61048
 C428 C 0.74014 0.37812 0.62397
 C429 C 0.71298 0.36069 0.66759
 H430 H 0.76702 0.36356 0.60439
 H431 H 0.65802 0.38453 0.70916
 H432 H 0.67074 0.45007 0.64387
 N433 N 0.62944 0.11875 0.12311
 N434 N 0.63464 0.08311 0.09273
 C435 C 0.67977 0.08027 0.09196
 C436 C 0.70430 0.11507 0.12404
 C437 C 0.67103 0.13867 0.14291
 H438 H 0.74133 0.12363 0.13026
 H439 H 0.59805 0.12964 0.12932
 H440 H 0.60802 0.06253 0.07104
 N441 N 0.32435 0.60980 0.68400
 N442 N 0.31710 0.57442 0.65010
 C443 C 0.27994 0.57734 0.61979
 C444 C 0.26298 0.61628 0.63464
 C445 C 0.29220 0.63597 0.67532
 H446 H 0.23387 0.62885 0.61778
 H447 H 0.35129 0.61618 0.71181
 H448 H 0.33723 0.54878 0.64801
 N449 N 0.94810 0.81214 0.18387
 N450 N 0.98075 0.80978 0.14797
 C451 C 0.96544 0.77427 0.11422
 C452 C 0.92104 0.75321 0.12900
 C453 C 0.91134 0.77842 0.17329
 H454 H 0.89888 0.72397 0.11006
 H455 H 0.95082 0.83696 0.21442
 H456 H 1.01307 0.83187 0.14710
 N457 N 0.36213 0.30909 0.68325
 N458 N 0.39415 0.30850 0.64609
 C459 C 0.38235 0.26942 0.61679
 C460 C 0.34101 0.24407 0.63584
 C461 C 0.32936 0.27054 0.67793
 H462 H 0.32199 0.21128 0.62098
 H463 H 0.36260 0.33576 0.71122
 H464 H 0.42355 0.33438 0.64118
 N465 N 0.05767 0.18667 0.17575
 N466 N 0.02274 0.18960 0.14374
 C467 C 0.03353 0.22903 0.11519
 C468 C 0.07740 0.25216 0.12922
 C469 C 0.09151 0.22389 0.16762
 H470 H 0.09657 0.28436 0.11314
 H471 H 0.05836 0.15930 0.20217
 H472 H -0.00775 0.16478 0.14138
 N473 N 0.64800 0.71686 0.67561
 N474 N 0.61354 0.71871 0.64252
 C475 C 0.62575 0.75547 0.60993
 C476 C 0.67045 0.77800 0.62255
 C477 C 0.68327 0.75206 0.66452
 H478 H 0.69074 0.80834 0.60366
 H479 H 0.64747 0.69130 0.70475
 H480 H 0.58208 0.69519 0.64262
   
