data_POSCAR
  _audit_creation_date              2014-09-24
  _audit_creation_method            'ToBaCCo'
  _symmetry_space_group_name_H-M    'P1'
  _symmetry_Int_Tables_number       1
  _symmetry_cell_setting            triclinic
  loop_
  _symmetry_equiv_pos_as_xyz
 x,y,z
_cell_length_a 60.0275
_cell_length_b 60.0672
_cell_length_c 15.7355
_cell_angle_alpha 90.084000
_cell_angle_beta 90.001400
_cell_angle_gamma 119.891400
loop_
  _atom_site_label
  _atom_site_type_symbol
  _atom_site_fract_x
  _atom_site_fract_y
  _atom_site_fract_z
C1 C 0.22678 0.49493 0.45792
 C2 C 0.22703 0.49498 0.54779
 C3 C 0.24742 0.49506 0.59157
 C4 C 0.26753 0.49497 0.54660
 C5 C 0.26728 0.49500 0.45693
 C6 C 0.24699 0.49503 0.41312
 H7 H 0.24684 0.49485 0.34415
 H8 H 0.24750 0.49491 0.66057
 C9 C 0.50490 -0.26786 0.45571
 C10 C 0.50481 -0.26759 0.54540
 C11 C 0.50474 -0.24727 0.58907
 C12 C 0.50488 -0.22710 0.54400
 C13 C 0.50493 -0.22741 0.45431
 C14 C 0.50487 -0.24778 0.41066
 H15 H 0.50509 -0.24781 0.34169
 H16 H 0.50486 -0.24707 0.65803
 C17 C 1.26818 0.77323 0.45183
 C18 C 1.26788 0.77299 0.54154
 C19 C 1.24761 0.75267 0.58512
 C20 C 1.22754 0.73260 0.53999
 C21 C 1.22785 0.73280 0.45045
 C22 C 1.24816 0.75304 0.40674
 H23 H 1.24819 0.75318 0.33777
 H24 H 1.24733 0.75262 0.65404
 C25 C 0.77275 0.50504 0.45949
 C26 C 0.77266 0.50481 0.54918
 C27 C 0.75235 0.50464 0.59369
 C28 C 0.73218 0.50483 0.54937
 C29 C 0.73229 0.50502 0.45968
 C30 C 0.75253 0.50506 0.41528
 H31 H 0.75267 0.50539 0.34636
 H32 H 0.75237 0.50464 0.66270
 C33 C 0.49485 0.26771 0.46017
 C34 C 0.49498 0.26778 0.54986
 C35 C 0.49510 0.24761 0.59419
 C36 C 0.49496 0.22731 0.54968
 C37 C 0.49485 0.22729 0.45998
 C38 C 0.49487 0.24751 0.41576
 H39 H 0.49461 0.24738 0.34684
 H40 H 0.49503 0.24757 0.66319
 C41 C 0.73280 0.22753 0.45641
 C42 C 0.73282 0.22764 0.54595
 C43 C 0.75299 0.24788 0.59035
 C44 C 0.77324 0.26799 0.54593
 C45 C 0.77318 0.26788 0.45621
 C46 C 0.75293 0.24769 0.41195
 H47 H 0.75298 0.24752 0.34303
 H48 H 0.75302 0.24779 0.65931
 N49 N 0.97333 0.46273 0.14926
 N50 N 0.95378 0.45029 0.20165
 N51 N 1.02742 0.47423 0.09001
 N52 N 1.04697 0.47024 0.10078
 N53 N 1.02744 0.48978 0.14885
 N54 N 1.04701 0.49681 0.20131
 N55 N 0.97332 0.44720 0.09039
 N56 N 0.95377 0.42375 0.10103
 C57 C 0.94187 0.42607 0.17061
 C58 C 1.05892 0.48444 0.17037
 N59 N 1.02707 0.48923 -0.15229
 N60 N 1.04674 0.49634 -0.20423
 N61 N 0.97309 0.44687 -0.09262
 N62 N 0.95352 0.42338 -0.10265
 N63 N 0.97299 0.46220 -0.15190
 N64 N 0.95333 0.44956 -0.20394
 N65 N 1.02714 0.47390 -0.09299
 N66 N 1.04685 0.47013 -0.10286
 Mn67 Mn 1.00024 0.46029 -0.00131
 C68 C 1.05876 0.48420 -0.17246
 C69 C 0.94148 0.42544 -0.17228
 N70 N 1.02725 0.53763 0.14803
 N71 N 1.04694 0.55024 0.19988
 N72 N 0.97309 0.52594 0.08927
 N73 N 0.95350 0.52988 0.09978
 N74 N 0.97319 0.51061 0.14853
 N75 N 0.95367 0.50368 0.20104
 N76 N 1.02714 0.55295 0.08875
 N77 N 1.04675 0.57641 0.09855
 Mn78 Mn 1.00030 0.50019 0.14970
 C79 C 1.05879 0.57433 0.16806
 C80 C 0.94167 0.51590 0.16968
 N81 N 0.97290 0.51011 -0.15263
 N82 N 0.95319 0.50291 -0.20457
 N83 N 1.02704 0.55270 -0.09426
 N84 N 1.04654 0.57618 -0.10517
 N85 N 1.02702 0.53717 -0.15313
 N86 N 1.04652 0.54964 -0.20575
 N87 N 0.97294 0.52566 -0.09374
 N88 N 0.95328 0.52948 -0.10390
 Mn89 Mn 0.99999 0.49967 -0.15354
 Mn90 Mn 1.00005 0.53958 -0.00250
 Cl91 Cl 1.00015 0.49993 -0.00192
 C92 C 0.94125 0.51521 -0.17323
 C93 C 1.05842 0.57390 -0.17489
 N94 N 0.47396 0.44713 0.09130
 N95 N 0.47004 0.42364 0.10187
 N96 N 0.46227 0.48963 0.14998
 N97 N 0.44968 0.49671 0.20203
 N98 N 0.44688 0.47418 0.09078
 N99 N 0.42339 0.47030 0.10084
 N100 N 0.48935 0.46258 0.15050
 N101 N 0.49635 0.45004 0.20302
 C102 C 0.48411 0.42585 0.17173
 C103 C 0.42553 0.48445 0.17040
 N104 N 0.52561 0.55296 0.09162
 N105 N 0.52957 0.57647 0.10224
 N106 N 0.53723 0.51047 0.15101
 N107 N 0.54975 0.50344 0.20351
 N108 N 0.55270 0.52588 0.09208
 N109 N 0.57619 0.52978 0.10278
 N110 N 0.51012 0.53755 0.15055
 N111 N 0.50311 0.55015 0.20292
 Mn112 Mn 0.49974 0.50006 0.15154
 C113 C 0.51543 0.57434 0.17184
 C114 C 0.57396 0.51568 0.17246
 N115 N 0.44693 0.47412 -0.09222
 N116 N 0.42344 0.47026 -0.10284
 N117 N 0.48951 0.46245 -0.15067
 N118 N 0.49667 0.44988 -0.20261
 N119 N 0.47403 0.44706 -0.09171
 N120 N 0.47021 0.42359 -0.10183
 N121 N 0.46240 0.48953 -0.15118
 N122 N 0.44986 0.49659 -0.20358
 Mn123 Mn 0.46019 0.46036 -0.00046
 C124 C 0.42564 0.48437 -0.17250
 C125 C 0.48441 0.42573 -0.17120
 N126 N 0.55283 0.52577 -0.09093
 N127 N 0.57633 0.52962 -0.10092
 N128 N 0.51036 0.53738 -0.15061
 N129 N 0.50321 0.54988 -0.20270
 N130 N 0.52575 0.55281 -0.09138
 N131 N 0.52953 0.57625 -0.10146
 N132 N 0.53745 0.51031 -0.15015
 N133 N 0.55006 0.50321 -0.20212
 Mn134 Mn 0.53949 0.53962 0.00033
 Mn135 Mn 0.49993 0.49992 -0.15171
 Cl136 Cl 0.49984 0.49999 -0.00008
 C137 C 0.57422 0.51545 -0.17047
 C138 C 0.51539 0.57403 -0.17109
 N139 N 0.44706 -0.02702 0.09060
 N140 N 0.42355 -0.04655 0.10099
 N141 N 0.48956 0.02698 0.15028
 N142 N 0.49661 0.04652 0.20286
 N143 N 0.47409 0.02705 0.09138
 N144 N 0.47017 0.04662 0.10218
 N145 N 0.46252 -0.02710 0.14951
 N146 N 0.44998 -0.04669 0.20164
 C147 C 0.42575 -0.05855 0.17045
 C148 C 0.48432 0.05847 0.17190
 N149 N 0.55296 0.02697 0.09044
 N150 N 0.57644 0.04652 0.10096
 N151 N 0.51051 -0.02708 0.14886
 N152 N 0.50344 -0.04673 0.20069
 N153 N 0.52595 -0.02705 0.08964
 N154 N 0.52982 -0.04668 0.09946
 N155 N 0.53753 0.02695 0.14967
 N156 N 0.55008 0.04650 0.20217
 Mn157 Mn 0.50003 -0.00006 0.15062
 C158 C 0.57426 0.05841 0.17084
 C159 C 0.51569 -0.05865 0.16892
 N160 N 0.47409 0.02725 -0.09163
 N161 N 0.47020 0.04688 -0.10150
 N162 N 0.46251 -0.02676 -0.15164
 N163 N 0.44998 -0.04636 -0.20391
 N164 N 0.44709 -0.02677 -0.09240
 N165 N 0.42363 -0.04636 -0.10265
 N166 N 0.48953 0.02728 -0.15088
 N167 N 0.49658 0.04695 -0.20273
 Mn168 Mn 0.46032 0.00013 -0.00052
 C169 C 0.48433 0.05888 -0.17099
 C170 C 0.42583 -0.05827 -0.17240
 N171 N 0.52588 -0.02700 -0.09337
 N172 N 0.52979 -0.04660 -0.10417
 N173 N 0.53745 0.02715 -0.15149
 N174 N 0.54998 0.04677 -0.20347
 N175 N 0.55291 0.02706 -0.09257
 N176 N 0.57639 0.04661 -0.10277
 N177 N 0.51041 -0.02694 -0.15229
 N178 N 0.50335 -0.04650 -0.20485
 Mn179 Mn 0.53969 -0.00001 -0.00146
 Mn180 Mn 0.49997 0.00019 -0.15262
 Cl181 Cl 0.50000 0.00006 -0.00100
 C182 C 0.51564 -0.05848 -0.17391
 C183 C 0.57417 0.05862 -0.17212
 C184 C 1.13930 0.47784 0.23372
 C185 C 1.16459 0.50305 0.25352
 C186 C 1.16558 0.49209 0.34066
 C187 C 1.14064 0.46692 0.32151
 C188 C 1.12405 0.48940 0.27444
 C189 C 1.12506 0.47845 0.36166
 C190 C 1.14898 0.51458 0.29370
 C191 C 1.15033 0.50364 0.38146
 C192 C 1.18843 0.49339 0.37922
 C193 C 1.20672 0.49423 0.41407
 C194 C 1.10084 0.48774 0.23742
 C195 C 1.08172 0.48627 0.20689
 H196 H 1.13450 0.46720 0.17258
 H197 H 1.18109 0.51317 0.20946
 H198 H 1.13747 0.44733 0.33332
 H199 H 1.10861 0.46835 0.40591
 H200 H 1.15215 0.53417 0.28198
 H201 H 1.15514 0.51424 0.44271
 C202 C 0.49816 0.63405 0.36122
 C203 C 0.52151 0.66069 0.38232
 C204 C 0.50769 0.67354 0.34019
 C205 C 0.48430 0.64722 0.31974
 C206 C 0.51043 0.63461 0.27495
 C207 C 0.49659 0.64744 0.23287
 C208 C 0.53381 0.66093 0.29554
 C209 C 0.51997 0.67411 0.25400
 C210 C 0.50639 0.69516 0.37816
 C211 C 0.50557 0.71270 0.41251
 C212 C 0.51210 0.61300 0.23838
 C213 C 0.51358 0.59532 0.20813
 H214 H 0.48925 0.61739 0.40510
 H215 H 0.53171 0.66638 0.44428
 H216 H 0.46393 0.64182 0.33005
 H217 H 0.48635 0.64175 0.17100
 H218 H 0.55419 0.66634 0.28534
 H219 H 0.52890 0.69080 0.21029
 C220 C 0.36616 -0.13554 0.35859
 C221 C 0.33945 -0.13888 0.37946
 C222 C 0.32669 -0.16547 0.33693
 C223 C 0.35309 -0.16249 0.31670
 C224 C 0.36558 -0.12381 0.27245
 C225 C 0.35284 -0.15040 0.22997
 C226 C 0.33919 -0.12680 0.29283
 C227 C 0.32611 -0.15374 0.25087
 C228 C 0.30510 -0.18838 0.37455
 C229 C 0.28758 -0.20671 0.40871
 C230 C 0.38716 -0.10054 0.23632
 C231 C 0.40481 -0.08138 0.20640
 H232 H 0.38281 -0.12782 0.40268
 H233 H 0.33370 -0.13443 0.44144
 H234 H 0.35855 -0.17742 0.32687
 H235 H 0.35860 -0.15489 0.16809
 H236 H 0.33370 -0.11188 0.28277
 H237 H 0.30942 -0.16148 0.20695
 C238 C 0.86140 0.52258 0.23292
 C239 C 0.83606 0.49734 0.25170
 C240 C 0.83499 0.50809 0.33926
 C241 C 0.85997 0.53328 0.32114
 C242 C 0.87655 0.51087 0.27321
 C243 C 0.87546 0.52160 0.36084
 C244 C 0.85157 0.48566 0.29143
 C245 C 0.85014 0.49639 0.37961
 C246 C 0.81215 0.50674 0.37778
 C247 C 0.79386 0.50584 0.41266
 C248 C 0.89976 0.51257 0.23635
 C249 C 0.91888 0.51406 0.20597
 H250 H 0.86631 0.53338 0.17220
 H251 H 0.81961 0.48736 0.20726
 H252 H 0.86315 0.55285 0.33375
 H253 H 0.89186 0.53156 0.40548
 H254 H 0.84840 0.46610 0.27891
 H255 H 0.84523 0.48563 0.44045
 C256 C 0.51441 0.36597 0.29355
 C257 C 0.50359 0.35375 0.38144
 C258 C 0.49193 0.32699 0.34059
 C259 C 0.50278 0.33886 0.25333
 C260 C 0.48920 0.36581 0.27499
 C261 C 0.47754 0.33904 0.23421
 C262 C 0.47837 0.35393 0.36232
 C263 C 0.46673 0.32685 0.32213
 C264 C 0.49325 0.30547 0.37885
 C265 C 0.49410 0.28805 0.41354
 C266 C 0.48751 0.38733 0.23832
 C267 C 0.48600 0.40494 0.20803
 H268 H 0.53400 0.38231 0.28151
 H269 H 0.51429 0.35951 0.44249
 H270 H 0.51281 0.33241 0.20894
 H271 H 0.46678 0.33323 0.17327
 H272 H 0.46836 0.36035 0.40690
 H273 H 0.44715 0.31051 0.33426
 C274 C 0.64680 0.12473 0.35983
 C275 C 0.67365 0.14034 0.31838
 C276 C 0.67331 0.16522 0.33815
 C277 C 0.64678 0.14995 0.38024
 C278 C 0.63439 0.12361 0.27336
 C279 C 0.63402 0.14848 0.29322
 C280 C 0.66092 0.13888 0.23134
 C281 C 0.66090 0.16412 0.25175
 C282 C 0.69490 0.18809 0.37594
 C283 C 0.71239 0.20641 0.41025
 C284 C 0.61282 0.10037 0.23707
 C285 C 0.59518 0.08122 0.20700
 H286 H 0.64077 0.10832 0.40404
 H287 H 0.69020 0.13727 0.32910
 H288 H 0.64125 0.15477 0.44196
 H289 H 0.61747 0.15155 0.28260
 H290 H 0.66650 0.13406 0.16972
 H291 H 0.66695 0.18057 0.20773
 C292 C 0.50210 0.13638 -0.35682
 C293 C 0.47875 0.13969 -0.37836
 C294 C 0.49229 0.16615 -0.33490
 C295 C 0.51568 0.16319 -0.31400
 C296 C 0.48953 0.12437 -0.27131
 C297 C 0.50308 0.15082 -0.22789
 C298 C 0.46615 0.12734 -0.29235
 C299 C 0.47971 0.15414 -0.24947
 C300 C 0.49357 0.18906 -0.37232
 C301 C 0.49436 0.20736 -0.40667
 C302 C 0.48782 0.10103 -0.23578
 C303 C 0.48628 0.08180 -0.20638
 H304 H 0.51126 0.12883 -0.40074
 H305 H 0.46879 0.13541 -0.44073
 H306 H 0.53607 0.17821 -0.32326
 H307 H 0.51309 0.15514 -0.16561
 H308 H 0.44575 0.11233 -0.28320
 H309 H 0.47054 0.16171 -0.20573
 C310 C 0.64748 0.49660 -0.22789
 C311 C 0.64732 0.48404 -0.31419
 C312 C 0.67361 0.50742 -0.33482
 C313 C 0.67411 0.51997 -0.24921
 C314 C 0.63455 0.51018 -0.27109
 C315 C 0.66083 0.53355 -0.29187
 C316 C 0.63406 0.49764 -0.35679
 C317 C 0.66066 0.52098 -0.37805
 C318 C 0.69527 0.50615 -0.37233
 C319 C 0.71281 0.50539 -0.40680
 C320 C 0.61289 0.51190 -0.23548
 C321 C 0.59519 0.51346 -0.20599
 H322 H 0.64179 0.48658 -0.16574
 H323 H 0.64203 0.46368 -0.32373
 H324 H 0.69081 0.52911 -0.20538
 H325 H 0.66614 0.55392 -0.28244
 H326 H 0.61740 0.48852 -0.40079
 H327 H 0.66634 0.53096 -0.44029
 C328 C 0.87321 0.33895 -0.29485
 C329 C 0.84636 0.32571 -0.25238
 C330 C 0.83438 0.32634 -0.33795
 C331 C 0.86088 0.33924 -0.38099
 C332 C 0.87610 0.36523 -0.27355
 C333 C 0.86412 0.36585 -0.35920
 C334 C 0.84960 0.35234 -0.23054
 C335 C 0.83726 0.35262 -0.31679
 C336 C 0.81149 0.30477 -0.37574
 C337 C 0.79320 0.28730 -0.41030
 C338 C 0.89940 0.38681 -0.23760
 C339 C 0.91860 0.40448 -0.20791
 H340 H 0.88825 0.33357 -0.28557
 H341 H 0.83878 0.30898 -0.20886
 H342 H 0.86522 0.33360 -0.44337
 H343 H 0.87167 0.38254 -0.40289
 H344 H 0.84522 0.35799 -0.16826
 H345 H 0.82221 0.35798 -0.32618
 C346 C 0.49662 -0.15043 -0.23415
 C347 C 0.48429 -0.16258 -0.32092
 C348 C 0.50766 -0.16564 -0.34108
 C349 C 0.51998 -0.15386 -0.25498
 C350 C 0.51044 -0.12388 -0.27657
 C351 C 0.53381 -0.12695 -0.29687
 C352 C 0.49813 -0.13566 -0.36276
 C353 C 0.52147 -0.13909 -0.38355
 C354 C 0.50636 -0.18861 -0.37870
 C355 C 0.50554 -0.20699 -0.41285
 C356 C 0.51215 -0.10055 -0.24034
 C357 C 0.51369 -0.08135 -0.21024
 H358 H 0.48640 -0.15485 -0.17231
 H359 H 0.46391 -0.17749 -0.33117
 H360 H 0.52892 -0.16159 -0.21102
 H361 H 0.55420 -0.11205 -0.28674
 H362 H 0.48920 -0.12795 -0.40688
 H363 H 0.53165 -0.13471 -0.44549
 C364 C 0.33890 0.47852 -0.23188
 C365 C 0.33887 0.50373 -0.25260
 C366 C 0.32625 0.49223 -0.33862
 C367 C 0.32595 0.46706 -0.31852
 C368 C 0.36534 0.48955 -0.27453
 C369 C 0.35271 0.47807 -0.36062
 C370 C 0.36566 0.51473 -0.29472
 C371 C 0.35269 0.50326 -0.38135
 C372 C 0.30455 0.49351 -0.37607
 C373 C 0.28697 0.49432 -0.41019
 C374 C 0.38701 0.48787 -0.23853
 C375 C 0.40470 0.48633 -0.20862
 H376 H 0.33345 0.46831 -0.17002
 H377 H 0.33294 0.51428 -0.20856
 H378 H 0.30938 0.44747 -0.32865
 H379 H 0.35862 0.46754 -0.40485
 H380 H 0.38224 0.53433 -0.28469
 H381 H 0.35809 0.51342 -0.44330
 C382 C 1.13865 0.66063 -0.23655
 C383 C 1.16400 0.66075 -0.25626
 C384 C 1.16507 0.67293 -0.34301
 C385 C 1.14007 0.67313 -0.32393
 C386 C 1.12350 0.63399 -0.27817
 C387 C 1.12459 0.64618 -0.36499
 C388 C 1.14850 0.63377 -0.29735
 C389 C 1.14993 0.64630 -0.38471
 C390 C 1.18796 0.69455 -0.38063
 C391 C 1.20632 0.71209 -0.41454
 C392 C 1.10029 0.61242 -0.24169
 C393 C 1.08119 0.59479 -0.21140
 H394 H 1.13375 0.66630 -0.17524
 H395 H 1.18045 0.66698 -0.21194
 H396 H 1.13685 0.68955 -0.33522
 H397 H 1.10818 0.63997 -0.40950
 H398 H 1.15171 0.61734 -0.28615
 H399 H 1.15483 0.64068 -0.44613
 C400 C 0.84923 0.49637 -0.22937
 C401 C 0.84594 0.51977 -0.25047
 C402 C 0.83378 0.50720 -0.33588
 C403 C 0.83670 0.48379 -0.31548
 C404 C 0.87562 0.50986 -0.27307
 C405 C 0.86346 0.49731 -0.35857
 C406 C 0.87269 0.53327 -0.29362
 C407 C 0.86017 0.52068 -0.37961
 C408 C 0.81086 0.50601 -0.37294
 C409 C 0.79258 0.50531 -0.40716
 C410 C 0.89900 0.51156 -0.23792
 C411 C 0.91828 0.51314 -0.20867
 H412 H 0.84501 0.48637 -0.16719
 H413 H 0.83847 0.52896 -0.20643
 H414 H 0.82161 0.46343 -0.32483
 H415 H 0.87091 0.48814 -0.40277
 H416 H 0.88776 0.55363 -0.28439
 H417 H 0.86436 0.53064 -0.44188
 C418 C 0.50321 0.35251 -0.22763
 C419 C 0.47981 0.32592 -0.24933
 C420 C 0.49246 0.32636 -0.33458
 C421 C 0.51587 0.35259 -0.31357
 C422 C 0.48975 0.36547 -0.27135
 C423 C 0.50239 0.36590 -0.35669
 C424 C 0.46634 0.33923 -0.29250
 C425 C 0.47901 0.33934 -0.37833
 C426 C 0.49369 0.30468 -0.37187
 C427 C 0.49443 0.28714 -0.40629
 C428 C 0.48804 0.38713 -0.23601
 C429 C 0.48646 0.40482 -0.20667
 H430 H 0.51316 0.35820 -0.16525
 H431 H 0.47057 0.30925 -0.20561
 H432 H 0.53625 0.35781 -0.32260
 H433 H 0.51161 0.38253 -0.40057
 H434 H 0.44596 0.33400 -0.28359
 H435 H 0.46911 0.33365 -0.44079
 C436 C 0.63384 0.13576 -0.35874
 C437 C 0.64693 0.16264 -0.31635
 C438 C 0.67329 0.16555 -0.33637
 C439 C 0.66054 0.13904 -0.37940
 C440 C 0.63431 0.12390 -0.27279
 C441 C 0.66068 0.12682 -0.29296
 C442 C 0.64705 0.15040 -0.22980
 C443 C 0.67377 0.15369 -0.25052
 C444 C 0.69491 0.18840 -0.37368
 C445 C 0.71242 0.20666 -0.40783
 C446 C 0.61271 0.10063 -0.23722
 C447 C 0.59506 0.08146 -0.20771
 H448 H 0.61723 0.12814 -0.40297
 H449 H 0.64155 0.17764 -0.32635
 H450 H 0.66635 0.13468 -0.44141
 H451 H 0.66607 0.11182 -0.28307
 H452 H 0.64123 0.15480 -0.16788
 H453 H 0.69041 0.16133 -0.20644
 C454 C 1.13645 0.50219 -0.35734
 C455 C 1.16324 0.51579 -0.31433
 C456 C 1.16620 0.49241 -0.33502
 C457 C 1.13978 0.47885 -0.37867
 C458 C 1.12439 0.48965 -0.27188
 C459 C 1.12736 0.46628 -0.29273
 C460 C 1.15080 0.50322 -0.22825
 C461 C 1.15414 0.47985 -0.24965
 C462 C 1.18906 0.49366 -0.37254
 C463 C 1.20725 0.49441 -0.40747
 C464 C 1.10102 0.48791 -0.23675
 C465 C 1.08173 0.48629 -0.20764
 H466 H 1.12890 0.51131 -0.40133
 H467 H 1.17828 0.53615 -0.32358
 H468 H 1.13557 0.46888 -0.44103
 H469 H 1.11233 0.44591 -0.28359
 H470 H 1.15504 0.51324 -0.16598
 H471 H 1.16171 0.47072 -0.20584
 C472 C 0.52104 0.66048 -0.22833
 C473 C 0.53253 0.67343 -0.31478
 C474 C 0.50734 0.67312 -0.33497
 C475 C 0.49581 0.66050 -0.24917
 C476 C 0.51000 0.63409 -0.27138
 C477 C 0.48480 0.63375 -0.29166
 C478 C 0.52151 0.64672 -0.35724
 C479 C 0.49631 0.64673 -0.37807
 C480 C 0.50612 0.69471 -0.37255
 C481 C 0.50538 0.71215 -0.40729
 C482 C 0.51171 0.61250 -0.23594
 C483 C 0.51331 0.59487 -0.20656
 H484 H 0.53124 0.66586 -0.16635
 H485 H 0.55212 0.69001 -0.32466
 H486 H 0.48525 0.66644 -0.20522
 H487 H 0.46521 0.61716 -0.28187
 H488 H 0.53205 0.64080 -0.40140
 H489 H 0.48616 0.64139 -0.44015
 C490 C 0.36628 -0.14835 -0.29379
 C491 C 0.33946 -0.16406 -0.25195
 C492 C 0.32695 -0.16515 -0.33809
 C493 C 0.35341 -0.14982 -0.38055
 C494 C 0.36584 -0.12354 -0.27366
 C495 C 0.35332 -0.12466 -0.35987
 C496 C 0.33938 -0.13887 -0.23125
 C497 C 0.32654 -0.14033 -0.31805
 C498 C 0.30545 -0.18794 -0.37607
 C499 C 0.28807 -0.20613 -0.41104
 C500 C 0.38737 -0.10030 -0.23779
 C501 C 0.40499 -0.08112 -0.20811
 H502 H 0.38290 -0.15134 -0.28352
 H503 H 0.33349 -0.18053 -0.20807
 H504 H 0.35887 -0.15463 -0.44245
 H505 H 0.35927 -0.10824 -0.40395
 H506 H 0.33388 -0.13406 -0.16945
 H507 H 0.30993 -0.13733 -0.32842
 C508 C 0.52159 -0.13936 0.22723
 C509 C 0.53293 -0.14079 0.31413
 C510 C 0.50773 -0.16557 0.33396
 C511 C 0.49634 -0.16451 0.24772
 C512 C 0.51046 -0.12396 0.26952
 C513 C 0.48524 -0.14872 0.28945
 C514 C 0.52182 -0.12505 0.35584
 C515 C 0.49660 -0.15016 0.37631
 C516 C 0.50644 -0.18835 0.37196
 C517 C 0.50562 -0.20653 0.40693
 C518 C 0.51217 -0.10071 0.23374
 C519 C 0.51372 -0.08152 0.20424
 H520 H 0.53191 -0.13461 0.16552
 H521 H 0.55251 -0.13783 0.32468
 H522 H 0.48588 -0.18100 0.20376
 H523 H 0.46566 -0.15167 0.27899
 H524 H 0.53227 -0.10861 0.40000
 H525 H 0.48633 -0.15491 0.43812
 C526 C 0.35274 0.50364 0.22988
 C527 C 0.32600 0.48028 0.25004
 C528 C 0.32652 0.49237 0.33655
 C529 C 0.35290 0.51574 0.31711
 C530 C 0.36542 0.48964 0.27177
 C531 C 0.36592 0.50172 0.35836
 C532 C 0.33903 0.46628 0.29135
 C533 C 0.33921 0.47839 0.37846
 C534 C 0.30499 0.49363 0.37467
 C535 C 0.28756 0.49439 0.40965
 C536 C 0.38697 0.48794 0.23574
 C537 C 0.40462 0.48640 0.20602
 H538 H 0.35859 0.51402 0.16837
 H539 H 0.30934 0.47151 0.20597
 H540 H 0.35831 0.53609 0.32811
 H541 H 0.38254 0.51047 0.40260
 H542 H 0.33360 0.44592 0.28047
 H543 H 0.33338 0.46806 0.44007
 C544 C 1.15064 0.64734 0.22445
 C545 C 1.15385 0.67397 0.24608
 C546 C 1.16594 0.67345 0.33147
 C547 C 1.16311 0.64718 0.31054
 C548 C 1.12422 0.63447 0.26793
 C549 C 1.13632 0.63396 0.35340
 C550 C 1.12707 0.66074 0.28900
 C551 C 1.13952 0.66055 0.37497
 C552 C 1.18877 0.69503 0.36896
 C553 C 1.20698 0.71250 0.40354
 C554 C 1.10092 0.61289 0.23255
 C555 C 1.08169 0.59523 0.20328
 H556 H 1.15492 0.64162 0.16214
 H557 H 1.16134 0.69066 0.20242
 H558 H 1.17822 0.64189 0.31978
 H559 H 1.12885 0.61731 0.39724
 H560 H 1.11196 0.66604 0.27987
 H561 H 1.13527 0.66626 0.43737
 C562 C 0.47837 0.12474 0.36188
 C563 C 0.50357 0.14999 0.38166
 C564 C 0.49209 0.16519 0.34023
 C565 C 0.46690 0.14027 0.32111
 C566 C 0.48943 0.12362 0.27496
 C567 C 0.47794 0.13881 0.23361
 C568 C 0.51462 0.14853 0.29418
 C569 C 0.50316 0.16410 0.25338
 C570 C 0.49335 0.18800 0.37840
 C571 C 0.49416 0.20626 0.41315
 C572 C 0.48776 0.10041 0.23847
 C573 C 0.48625 0.08127 0.20825
 H574 H 0.46820 0.10834 0.40622
 H575 H 0.51409 0.15487 0.44304
 H576 H 0.44731 0.13716 0.33257
 H577 H 0.46737 0.13393 0.17233
 H578 H 0.53422 0.15163 0.28281
 H579 H 0.51335 0.18054 0.20923
 C580 C 0.66071 0.52212 0.23409
 C581 C 0.67310 0.53305 0.32181
 C582 C 0.67295 0.50788 0.34036
 C583 C 0.66089 0.49690 0.25330
 C584 C 0.63403 0.51056 0.27525
 C585 C 0.63385 0.48538 0.29390
 C586 C 0.64609 0.52152 0.36239
 C587 C 0.64626 0.49633 0.38159
 C588 C 0.69450 0.50660 0.37841
 C589 C 0.71195 0.50576 0.41304
 C590 C 0.61247 0.51224 0.23885
 C591 C 0.59484 0.51376 0.20870
 H592 H 0.66641 0.53276 0.17304
 H593 H 0.68950 0.55263 0.33368
 H594 H 0.66724 0.48679 0.20890
 H595 H 0.61745 0.46580 0.28212
 H596 H 0.63977 0.53162 0.40698
 H597 H 0.64062 0.48574 0.44276
 C598 C 0.86156 0.33953 0.23068
 C599 C 0.86014 0.32693 0.31784
 C600 C 0.83518 0.32718 0.33715
 C601 C 0.83623 0.33946 0.25065
 C602 C 0.87673 0.36610 0.27268
 C603 C 0.85179 0.36637 0.29209
 C604 C 0.87565 0.35381 0.35926
 C605 C 0.85036 0.35374 0.37922
 C606 C 0.81239 0.30563 0.37494
 C607 C 0.79416 0.28819 0.40949
 C608 C 0.89994 0.38764 0.23662
 C609 C 0.91908 0.40524 0.20670
 H610 H 0.86645 0.33394 0.16921
 H611 H 0.86329 0.31045 0.32880
 H612 H 0.81977 0.33329 0.20644
 H613 H 0.84864 0.38286 0.28122
 H614 H 0.89207 0.35995 0.40366
 H615 H 0.84546 0.35929 0.44081
   
