data_POSCAR
  _audit_creation_date              2014-09-24
  _audit_creation_method            'ToBaCCo'
  _symmetry_space_group_name_H-M    'P1'
  _symmetry_Int_Tables_number       1
  _symmetry_cell_setting            triclinic
  loop_
  _symmetry_equiv_pos_as_xyz
 x,y,z
_cell_length_a 20.6596
_cell_length_b 20.4682
_cell_length_c 33.4451
_cell_angle_alpha 89.082700
_cell_angle_beta 89.818900
_cell_angle_gamma 92.260200
loop_
  _atom_site_label
  _atom_site_type_symbol
  _atom_site_fract_x
  _atom_site_fract_y
  _atom_site_fract_z
C1 C 0.00731 0.36159 1.03776
 C2 C 0.00177 0.32982 1.00108
 C3 C -0.00697 0.36447 0.96537
 C4 C -0.00899 0.43328 0.96564
 C5 C 0.00020 0.46683 1.00209
 C6 C 0.00924 0.43098 1.03821
 C7 C 0.02218 0.46532 1.07351
 C8 C 0.02337 0.53329 1.07377
 C9 C 0.01038 0.56989 1.03890
 C10 C 0.00016 0.53632 1.00243
 C11 C -0.02082 0.46916 0.93053
 C12 C -0.02226 0.53699 0.93093
 C13 C -0.00998 0.57187 0.96625
 C14 C -0.01073 0.64115 0.96681
 C15 C -0.00026 0.67318 1.00306
 C16 C 0.01080 0.63927 1.03899
 H17 H 0.03233 0.43978 1.10124
 H18 H 0.03530 0.55676 1.10167
 H19 H -0.02978 0.44498 0.90241
 H20 H -0.03364 0.56168 0.90316
 H21 H 0.00115 0.27677 1.00040
 H22 H -0.00046 0.72623 1.00330
 C23 C 0.36760 0.02577 0.53957
 C24 C 0.33418 0.02558 0.50328
 C25 C 0.36646 0.02134 0.46675
 C26 C 0.43464 0.01828 0.46607
 C27 C 0.46921 0.01601 0.50265
 C28 C 0.43556 0.01948 0.53958
 C29 C 0.47066 0.01630 0.57539
 C30 C 0.53716 0.00771 0.57507
 C31 C 0.57191 0.00498 0.53887
 C32 C 0.53739 0.00932 0.50226
 C33 C 0.46892 0.01683 0.42979
 C34 C 0.53575 0.01104 0.42937
 C35 C 0.57065 0.00573 0.46521
 C36 C 0.63800 -0.00336 0.46495
 C37 C 0.67113 -0.00907 0.50103
 C38 C 0.63954 -0.00540 0.53808
 H39 H 0.44688 0.01927 0.60413
 H40 H 0.56076 0.00243 0.60367
 H41 H 0.44421 0.01987 0.40137
 H42 H 0.55976 0.00983 0.40060
 H43 H 0.28180 0.02804 0.50352
 H44 H 0.72305 -0.01541 0.50016
 C45 C 0.13582 0.00271 0.27278
 H46 H 0.14286 -0.00028 0.24080
 C47 C 0.18946 0.00710 0.29817
 H48 H 0.23800 0.00705 0.28585
 C49 C 0.06419 0.00680 0.32813
 H50 H 0.01552 0.00788 0.33981
 C51 C 0.11624 0.01153 0.35446
 H52 H 0.10732 0.01503 0.38628
 N53 N 0.07465 0.00098 0.28817
 C54 C -0.04694 -0.09884 0.19945
 H55 H -0.08747 -0.06693 0.19922
 C56 C -0.04513 -0.15003 0.17247
 H57 H -0.08428 -0.15749 0.15137
 C58 C 0.05519 -0.12588 0.22576
 H59 H 0.09433 -0.11619 0.24640
 C60 C 0.05872 -0.17804 0.19949
 H61 H 0.10089 -0.20784 0.19968
 Zn62 Zn 0.00271 -0.00717 0.25318
 N63 N 0.00417 -0.08583 0.22402
 C64 C 0.00746 0.05554 0.17710
 N65 N 0.00671 0.06559 0.21721
 C66 C 0.01017 0.12716 0.23210
 C67 C 0.01224 0.18162 0.20621
 C68 C 0.00839 0.10834 0.15030
 C69 C -0.08555 -0.06034 0.30912
 C70 C -0.13941 -0.06268 0.33442
 C71 C -0.17378 0.03787 0.30382
 C72 C -0.11880 0.03866 0.27932
 N73 N -0.07531 -0.00927 0.28307
 H74 H 0.00722 0.00665 0.16559
 H75 H 0.01097 0.13387 0.26412
 H76 H 0.01487 0.23043 0.21828
 H77 H 0.00763 0.09945 0.11845
 H78 H -0.05037 -0.09801 0.31125
 H79 H -0.14517 -0.10190 0.35642
 H80 H -0.20721 0.07717 0.30138
 H81 H -0.11038 0.07822 0.25794
 C82 C 0.00936 -0.18852 0.17136
 C83 C 0.17951 0.01066 0.33952
 C84 C -0.18414 -0.01297 0.33204
 C85 C 0.00977 0.17222 0.16477
 C86 C 0.00101 0.13933 0.77116
 H87 H 0.01041 0.14753 0.73960
 C88 C -0.00377 0.19259 0.79658
 H89 H 0.00239 0.24197 0.78469
 C90 C -0.01911 0.06515 0.82537
 H91 H -0.02641 0.01562 0.83650
 C92 C -0.02470 0.11675 0.85165
 H93 H -0.03480 0.10655 0.88298
 N94 N -0.00556 0.07708 0.78603
 C95 C 0.08628 -0.03776 0.69422
 H96 H 0.04942 -0.07642 0.69137
 C97 C 0.13846 -0.03383 0.66767
 H98 H 0.14155 -0.06950 0.64423
 C99 C 0.12547 0.05738 0.72723
 H100 H 0.12015 0.09281 0.75049
 C101 C 0.17951 0.06214 0.70191
 H102 H 0.21554 0.10142 0.70569
 Zn103 Zn 0.00019 0.00541 0.75115
 N104 N 0.07899 0.00935 0.72192
 C105 C -0.06009 0.01691 0.67549
 N106 N -0.07101 0.00802 0.71541
 C107 C -0.13240 0.00140 0.73030
 C108 C -0.18550 -0.00124 0.70442
 C109 C -0.11155 0.01441 0.64867
 C110 C 0.04671 -0.08033 0.80849
 C111 C 0.04469 -0.13244 0.83590
 C112 C -0.05474 -0.17273 0.80545
 C113 C -0.05094 -0.11963 0.77863
 N114 N -0.00200 -0.07347 0.78165
 H115 H -0.01151 0.02547 0.66418
 H116 H -0.13995 -0.00369 0.76225
 H117 H -0.23405 -0.00890 0.71634
 H118 H -0.10214 0.01948 0.61687
 H119 H 0.08548 -0.04334 0.80984
 H120 H 0.08196 -0.13564 0.85848
 H121 H -0.09526 -0.20783 0.80405
 H122 H -0.08813 -0.11447 0.75634
 C123 C 0.18454 0.01801 0.67045
 C124 C -0.01713 0.18123 0.83726
 C125 C -0.00763 -0.17798 0.83528
 C126 C -0.17477 0.00372 0.66311
 C127 C 0.06594 -0.27039 0.07596
 C128 C 0.01925 -0.32334 0.07397
 C129 C -0.02571 -0.33280 0.10535
 C130 C -0.02687 -0.28978 0.13717
 C131 C 0.01658 -0.23569 0.13870
 C132 C 0.06361 -0.22550 0.10800
 C133 C 0.11590 -0.26192 0.04709
 C134 C 0.15966 -0.20843 0.04832
 C135 C 0.15497 -0.16257 0.07829
 C136 C 0.10757 -0.17077 0.10789
 H137 H 0.12189 -0.29683 0.02354
 H138 H 0.19724 -0.20241 0.02578
 H139 H 0.18857 -0.12065 0.07881
 H140 H 0.10583 -0.13366 0.13045
 H141 H -0.06262 -0.37184 0.10419
 H142 H -0.06333 -0.29765 0.16029
 C143 C -0.04168 0.31994 0.10180
 C144 C 0.00900 0.32208 0.07271
 C145 C 0.05867 0.27756 0.07608
 C146 C 0.05948 0.23206 0.10727
 C147 C 0.00990 0.22804 0.13591
 C148 C -0.04116 0.27243 0.13359
 C149 C -0.09540 0.36045 0.09839
 C150 C -0.14580 0.35607 0.12620
 C151 C -0.14490 0.31027 0.15729
 C152 C -0.09370 0.26828 0.16080
 H153 H -0.09975 0.39518 0.07398
 H154 H -0.18631 0.38774 0.12323
 H155 H -0.18468 0.30651 0.17846
 H156 H -0.09653 0.23207 0.18465
 H157 H 0.09720 0.27770 0.05398
 H158 H 0.09841 0.19812 0.10842
 C159 C 0.29164 0.08623 0.58419
 C160 C 0.32831 0.03062 0.57665
 C161 C 0.32019 -0.02492 0.60136
 C162 C 0.27546 -0.02673 0.63260
 C163 C 0.23616 0.02628 0.63956
 C164 C 0.24384 0.08354 0.61507
 C165 C 0.30055 0.14405 0.56087
 C166 C 0.26149 0.19706 0.56666
 C167 C 0.21264 0.19336 0.59540
 C168 C 0.20344 0.13722 0.61924
 H169 H 0.33773 0.14872 0.53802
 H170 H 0.26865 0.24093 0.54842
 H171 H 0.18159 0.23420 0.59922
 H172 H 0.16387 0.13643 0.64041
 H173 H 0.34724 -0.06808 0.59554
 H174 H 0.26991 -0.07091 0.65078
 C175 C -0.28205 -0.06455 0.57975
 C176 C -0.32218 -0.01051 0.57288
 C177 C -0.31724 0.04304 0.59865
 C178 C -0.27126 0.04548 0.62904
 C179 C -0.22857 -0.00522 0.63448
 C180 C -0.23481 -0.06163 0.61062
 C181 C -0.28930 -0.12240 0.55733
 C182 C -0.24952 -0.17483 0.56424
 C183 C -0.20249 -0.17130 0.59387
 C184 C -0.19525 -0.11553 0.61706
 H185 H -0.32639 -0.12806 0.53474
 H186 H -0.25558 -0.21864 0.54671
 H187 H -0.17195 -0.21229 0.59924
 H188 H -0.15907 -0.11545 0.64039
 H189 H -0.34651 0.08519 0.59371
 H190 H -0.26683 0.08875 0.64723
 C191 C -0.06558 -0.27072 0.92981
 C192 C -0.01840 -0.31955 0.93207
 C193 C 0.02757 -0.32285 0.90118
 C194 C 0.02911 -0.27774 0.86955
 C195 C -0.01508 -0.22775 0.86768
 C196 C -0.06315 -0.22390 0.89781
 C197 C -0.11622 -0.26843 0.95827
 C198 C -0.16083 -0.21914 0.95655
 C199 C -0.15637 -0.17152 0.92644
 C200 C -0.10818 -0.17367 0.89729
 H201 H -0.12214 -0.30501 0.98185
 H202 H -0.19898 -0.21784 0.97875
 H203 H -0.19077 -0.13298 0.92548
 H204 H -0.10671 -0.13559 0.87449
 H205 H 0.06486 -0.35861 0.90258
 H206 H 0.06635 -0.28071 0.84684
 C207 C -0.07467 0.29117 0.92033
 C208 C -0.01570 0.32582 0.92856
 C209 C 0.03819 0.31824 0.90386
 C210 C 0.03557 0.27396 0.87266
 C211 C -0.02093 0.23589 0.86550
 C212 C -0.07745 0.24602 0.88840
 C213 C -0.13079 0.30001 0.94348
 C214 C -0.18855 0.26545 0.93508
 C215 C -0.19151 0.22180 0.90358
 C216 C -0.13666 0.21209 0.88032
 H217 H -0.13061 0.33401 0.96795
 H218 H -0.23131 0.27282 0.95299
 H219 H -0.23661 0.19546 0.89705
 H220 H -0.14122 0.17841 0.85578
 H221 H 0.08349 0.34459 0.91000
 H222 H 0.07904 0.26673 0.85534
 C223 C -0.32397 -0.06258 0.40340
 C224 C -0.32340 -0.00638 0.42759
 C225 C -0.28191 0.04721 0.41789
 C226 C -0.23949 0.04512 0.38563
 C227 C -0.23729 -0.01060 0.36191
 C228 C -0.28145 -0.06423 0.36979
 C229 C -0.36532 -0.11751 0.41216
 C230 C -0.36649 -0.17186 0.38753
 C231 C -0.32668 -0.17256 0.35390
 C232 C -0.28455 -0.11936 0.34495
 H233 H -0.39725 -0.11878 0.43790
 H234 H -0.39879 -0.21347 0.39443
 H235 H -0.32838 -0.21460 0.33464
 H236 H -0.25508 -0.12156 0.31826
 H237 H -0.28097 0.09032 0.43630
 H238 H -0.20608 0.08646 0.38017
 C239 C 0.31390 -0.04192 0.40990
 C240 C 0.32608 0.01764 0.43016
 C241 C 0.29377 0.07354 0.41830
 C242 C 0.24850 0.07094 0.38760
 C243 C 0.23441 0.01245 0.36773
 C244 C 0.26788 -0.04444 0.37825
 C245 C 0.34475 -0.09964 0.42132
 C246 C 0.33144 -0.15808 0.40156
 C247 C 0.28672 -0.16046 0.37053
 C248 C 0.25481 -0.10443 0.35904
 H249 H 0.37917 -0.10028 0.44560
 H250 H 0.35568 -0.20187 0.41053
 H251 H 0.27634 -0.20608 0.35547
 H252 H 0.21979 -0.10871 0.33517
 H253 H 0.30216 0.11906 0.43392
 H254 H 0.22269 0.11451 0.38005
   
