data_POSCAR
  _audit_creation_date              2014-09-24
  _audit_creation_method            'ToBaCCo'
  _symmetry_space_group_name_H-M    'P1'
  _symmetry_Int_Tables_number       1
  _symmetry_cell_setting            triclinic
  loop_
  _symmetry_equiv_pos_as_xyz
 x,y,z
_cell_length_a 52.9153
_cell_length_b 30.2812
_cell_length_c 18.0279
_cell_angle_alpha 89.980300
_cell_angle_beta 89.857200
_cell_angle_gamma 90.183900
loop_
  _atom_site_label
  _atom_site_type_symbol
  _atom_site_fract_x
  _atom_site_fract_y
  _atom_site_fract_z
C1 C 0.74963 0.25048 0.46626
 C2 C 0.74944 0.25061 0.54196
 C3 C 0.72713 0.26613 0.58473
 C4 C 0.77157 0.23529 0.58536
 C5 C 0.77049 0.22969 0.42353
 C6 C 0.72901 0.27119 0.42282
 C7 C 0.72997 0.29958 0.63801
 C8 C 0.70890 0.31595 0.67589
 C9 C 0.68479 0.29872 0.66137
 C10 C 0.68196 0.26443 0.60979
 C11 C 0.70303 0.24806 0.57200
 C12 C 0.79569 0.25352 0.57310
 C13 C 0.81662 0.23718 0.61124
 C14 C 0.81363 0.20286 0.66260
 C15 C 0.78953 0.18552 0.67676
 C16 C 0.76857 0.20181 0.63858
 C17 C 0.77734 0.18553 0.43635
 C18 C 0.79779 0.16697 0.39850
 C19 C 0.81142 0.19216 0.34688
 C20 C 0.80423 0.23576 0.33228
 C21 C 0.78379 0.25438 0.37017
 C22 C 0.71590 0.24635 0.36949
 C23 C 0.69562 0.26490 0.33106
 C24 C 0.68842 0.30856 0.34510
 C25 C 0.70188 0.33390 0.39664
 C26 C 0.72217 0.31542 0.43502
 H27 H 0.74842 0.31374 0.64886
 H28 H 0.71146 0.34244 0.71566
 H29 H 0.66347 0.25060 0.59803
 H30 H 0.70053 0.22168 0.53212
 H31 H 0.79831 0.27991 0.53324
 H32 H 0.83517 0.25091 0.60002
 H33 H 0.75011 0.18752 0.64906
 H34 H 0.76703 0.16568 0.47629
 H35 H 0.80314 0.13315 0.41005
 H36 H 0.81463 0.25552 0.29239
 H37 H 0.77871 0.28838 0.35923
 H38 H 0.72098 0.21229 0.35903
 H39 H 0.68534 0.24502 0.29124
 H40 H 0.69652 0.36777 0.40775
 H41 H 0.73235 0.33536 0.47495
 H42 H 0.78701 0.15897 0.71642
 C43 C 0.25007 0.75010 0.46214
 C44 C 0.25021 0.75011 0.53783
 C45 C 0.22965 0.77123 0.58125
 C46 C 0.27094 0.72907 0.58047
 C47 C 0.27218 0.73454 0.41861
 C48 C 0.22783 0.76570 0.41945
 C49 C 0.22301 0.81551 0.56862
 C50 C 0.20268 0.83433 0.60662
 C51 C 0.18897 0.80927 0.65822
 C52 C 0.19600 0.76558 0.67279
 C53 C 0.21632 0.74670 0.63474
 C54 C 0.28435 0.75363 0.63353
 C55 C 0.30475 0.73479 0.67103
 C56 C 0.31179 0.69111 0.65635
 C57 C 0.29803 0.66604 0.60511
 C58 C 0.27761 0.68482 0.56765
 C59 C 0.26910 0.70113 0.36538
 C60 C 0.29001 0.68476 0.32681
 C61 C 0.31414 0.70194 0.34061
 C62 C 0.31723 0.73615 0.39204
 C63 C 0.29633 0.75257 0.43056
 C64 C 0.20367 0.74784 0.43253
 C65 C 0.18269 0.76419 0.39454
 C66 C 0.18569 0.79815 0.34251
 C67 C 0.20981 0.81519 0.32768
 C68 C 0.23080 0.79890 0.36571
 H69 H 0.23335 0.83522 0.52854
 H70 H 0.19745 0.86820 0.59510
 H71 H 0.18552 0.74592 0.71266
 H72 H 0.22124 0.71261 0.64552
 H73 H 0.27941 0.78770 0.64446
 H74 H 0.31526 0.75446 0.71064
 H75 H 0.26722 0.66507 0.52793
 H76 H 0.25060 0.68700 0.35511
 H77 H 0.28743 0.65829 0.28710
 H78 H 0.33581 0.74975 0.40298
 H79 H 0.29902 0.77892 0.47041
 H80 H 0.20105 0.72165 0.47277
 H81 H 0.16413 0.75068 0.40629
 H82 H 0.21233 0.84146 0.28750
 H83 H 0.24928 0.81291 0.35455
 H84 H 0.30325 0.63217 0.59351
 C85 C 0.24974 0.24953 -0.46402
 C86 C 0.24988 0.24955 -0.53972
 C87 C 0.27072 0.27053 -0.58263
 C88 C 0.22921 0.22855 -0.58287
 C89 C 0.22743 0.23398 -0.42100
 C90 C 0.27192 0.26500 -0.42078
 C91 C 0.27760 0.31475 -0.56987
 C92 C 0.29812 0.33347 -0.60756
 C93 C 0.31179 0.30836 -0.65903
 C94 C 0.30452 0.26469 -0.67365
 C95 C 0.28401 0.24594 -0.63588
 C96 C 0.21603 0.25315 -0.63618
 C97 C 0.19562 0.23439 -0.67404
 C98 C 0.18835 0.19070 -0.65945
 C99 C 0.20193 0.16556 -0.60797
 C100 C 0.22234 0.18430 -0.57020
 C101 C 0.23027 0.20081 -0.36725
 C102 C 0.20923 0.18462 -0.32875
 C103 C 0.18516 0.20174 -0.34313
 C104 C 0.18231 0.23569 -0.39524
 C105 C 0.20336 0.25191 -0.43367
 C106 C 0.29600 0.24691 -0.43308
 C107 C 0.31695 0.26318 -0.39467
 C108 C 0.31400 0.29730 -0.34301
 C109 C 0.28995 0.31455 -0.32891
 C110 C 0.26898 0.29834 -0.36736
 H111 H 0.26729 0.33451 -0.53000
 H112 H 0.30345 0.36734 -0.59585
 H113 H 0.31489 0.24488 -0.71340
 H114 H 0.27890 0.21189 -0.64677
 H115 H 0.22114 0.28722 -0.64699
 H116 H 0.18531 0.25421 -0.71379
 H117 H 0.23257 0.16454 -0.53026
 H118 H 0.24869 0.18676 -0.35641
 H119 H 0.21172 0.15837 -0.28856
 H120 H 0.16383 0.24936 -0.40680
 H121 H 0.20086 0.27810 -0.47390
 H122 H 0.29857 0.22062 -0.47307
 H123 H 0.33547 0.24952 -0.40585
 H124 H 0.28747 0.34095 -0.28902
 H125 H 0.25055 0.31251 -0.35682
 H126 H 0.19658 0.13168 -0.59629
 C127 C -0.25032 0.74987 -0.54034
 C128 C -0.25026 0.74976 -0.46464
 C129 C -0.27096 0.72867 -0.42141
 C130 C -0.22949 0.77068 -0.42171
 C131 C -0.22812 0.76559 -0.58358
 C132 C -0.27254 0.73420 -0.58326
 C133 C -0.28418 0.75318 -0.36790
 C134 C -0.30453 0.73429 -0.32968
 C135 C -0.31171 0.69055 -0.34410
 C136 C -0.29811 0.66552 -0.39585
 C137 C -0.27775 0.68439 -0.43400
 C138 C -0.22264 0.81497 -0.43414
 C139 C -0.20226 0.83367 -0.39615
 C140 C -0.18871 0.80848 -0.34475
 C141 C -0.19591 0.76475 -0.33052
 C142 C -0.21628 0.74599 -0.36856
 C143 C -0.20402 0.74761 -0.57147
 C144 C -0.18302 0.76429 -0.60946
 C145 C -0.18592 0.79875 -0.66058
 C146 C -0.21002 0.81586 -0.67457
 C147 C -0.23103 0.79920 -0.63650
 C148 C -0.26960 0.70095 -0.63683
 C149 C -0.29060 0.68446 -0.67486
 C150 C -0.31472 0.70134 -0.66020
 C151 C -0.31767 0.73542 -0.60835
 C152 C -0.29667 0.75194 -0.57039
 H153 H -0.27912 0.78727 -0.35716
 H154 H -0.31486 0.75403 -0.28973
 H155 H -0.30339 0.63160 -0.40740
 H156 H -0.26748 0.66470 -0.47407
 H157 H -0.23289 0.83481 -0.47392
 H158 H -0.19690 0.86758 -0.40741
 H159 H -0.22136 0.71189 -0.35792
 H160 H -0.20147 0.72112 -0.53184
 H161 H -0.16450 0.75063 -0.59825
 H162 H -0.21255 0.84249 -0.71402
 H163 H -0.24948 0.81329 -0.64686
 H164 H -0.25113 0.68704 -0.64780
 H165 H -0.28802 0.65813 -0.71486
 H166 H -0.33620 0.74891 -0.59659
 H167 H -0.29926 0.77817 -0.53028
 H168 H -0.18557 0.74499 -0.29081
 N169 N -0.02677 0.95157 0.13069
 N170 N -0.04608 0.94570 0.17614
 N171 N 0.02636 0.92142 0.07804
 N172 N 0.04555 0.89412 0.08649
 N173 N 0.02638 0.95152 0.13042
 N174 N 0.04557 0.94554 0.17589
 N175 N -0.02684 0.92149 0.07829
 N176 N -0.04620 0.89432 0.08667
 C177 C -0.05803 0.90983 0.14803
 C178 C 0.05737 0.90959 0.14786
 N179 N 0.02646 0.95468 -0.13205
 N180 N 0.04611 0.95053 -0.17668
 N181 N -0.02684 0.92342 -0.08139
 N182 N -0.04647 0.89697 -0.09059
 N183 N -0.02674 0.95475 -0.13173
 N184 N -0.04628 0.95047 -0.17653
 N185 N 0.02640 0.92338 -0.08165
 N186 N 0.04601 0.89708 -0.09064
 Mn187 Mn -0.00023 0.92185 -0.00173
 C188 C 0.05812 0.91436 -0.15032
 C189 C -0.05841 0.91421 -0.15032
 N190 N 0.02663 1.04653 0.13348
 N191 N 0.04626 1.05066 0.17796
 N192 N -0.02651 1.07793 0.08347
 N193 N -0.04606 1.10436 0.09279
 N194 N -0.02657 1.04659 0.13381
 N195 N -0.04614 1.05085 0.17872
 N196 N 0.02673 1.07783 0.08308
 N197 N 0.04645 1.10411 0.09193
 Mn198 Mn -0.00008 0.99906 0.13300
 C199 C 0.05844 1.08681 0.15151
 C200 C -0.05811 1.08710 0.15260
 N201 N -0.02652 1.04976 -0.12860
 N202 N -0.04580 1.05563 -0.17376
 N203 N 0.02675 1.07979 -0.07665
 N204 N 0.04603 1.10709 -0.08550
 N205 N 0.02663 1.04968 -0.12901
 N206 N 0.04581 1.05565 -0.17486
 N207 N -0.02646 1.07986 -0.07622
 N208 N -0.04572 1.10703 -0.08433
 Mn209 Mn -0.00004 1.00221 -0.13125
 Mn210 Mn 0.00013 1.07943 0.00347
 Cl211 Cl -0.00006 1.00064 0.00088
 C212 C -0.05761 1.09151 -0.14551
 C213 C 0.05776 1.09160 -0.14708
 N214 N 0.52669 0.42209 0.08180
 N215 N 0.54627 0.39576 0.09099
 N216 N 0.47344 0.45336 0.13194
 N217 N 0.45380 0.44910 0.17663
 N218 N 0.47344 0.42204 0.08162
 N219 N 0.45378 0.39562 0.09071
 N220 N 0.52664 0.45340 0.13214
 N221 N 0.54617 0.44923 0.17693
 C222 C 0.55823 0.41305 0.15073
 C223 C 0.44171 0.41286 0.15037
 N224 N 0.47376 0.57849 0.07639
 N225 N 0.45453 0.60572 0.08473
 N226 N 0.52681 0.54840 0.12899
 N227 N 0.54597 0.55437 0.17463
 N228 N 0.52696 0.57850 0.07657
 N229 N 0.54625 0.60578 0.08515
 N230 N 0.47366 0.54838 0.12878
 N231 N 0.45437 0.55428 0.17416
 Mn232 Mn 0.50013 0.50087 0.13136
 C233 C 0.44259 0.59020 0.14604
 C234 C 0.55795 0.59031 0.14664
 N235 N 0.47367 0.42013 -0.07808
 N236 N 0.45436 0.39290 -0.08655
 N237 N 0.52695 0.45027 -0.13035
 N238 N 0.54621 0.44434 -0.17584
 N239 N 0.52688 0.42016 -0.07794
 N240 N 0.54610 0.39292 -0.08639
 N241 N 0.47380 0.45025 -0.13046
 N242 N 0.45460 0.44435 -0.17597
 Mn243 Mn 0.50017 0.42053 0.00190
 C244 C 0.44263 0.40843 -0.14794
 C245 C 0.55801 0.40842 -0.14778
 N246 N 0.52715 0.57657 -0.08314
 N247 N 0.54681 0.60297 -0.09227
 N248 N 0.47392 0.54527 -0.13361
 N249 N 0.45436 0.54949 -0.17833
 N250 N 0.47391 0.57658 -0.08327
 N251 N 0.45434 0.60294 -0.09238
 N252 N 0.52712 0.54527 -0.13349
 N253 N 0.54675 0.54952 -0.17824
 Mn254 Mn 0.50045 0.57810 -0.00341
 Mn255 Mn 0.50045 0.49777 -0.13288
 Cl256 Cl 0.50030 0.49932 -0.00076
 C257 C 0.55885 0.58573 -0.15198
 C258 C 0.44233 0.58570 -0.15206
 C259 C 0.37353 0.35990 0.24465
 C260 C 0.38457 0.33960 0.18285
 C261 C 0.40673 0.35694 0.15181
 C262 C 0.33252 0.32596 0.30696
 C263 C 0.40681 0.41513 0.24413
 C264 C 0.38466 0.39776 0.27506
 C265 C 0.35110 0.34146 0.27795
 C266 C 0.41812 0.39477 0.18239
 H267 H 0.37613 0.31025 0.15893
 H268 H 0.41501 0.34064 0.10416
 H269 H 0.41513 0.44437 0.26873
 H270 H 0.37629 0.41370 0.32294
 C271 C -0.12481 0.85230 0.24310
 C272 C -0.11405 0.83385 0.17926
 C273 C -0.09234 0.85269 0.14796
 C274 C -0.16527 0.81650 0.30530
 C275 C -0.09216 0.90863 0.24416
 C276 C -0.11385 0.88976 0.27533
 C277 C -0.14688 0.83262 0.27628
 C278 C -0.08114 0.89017 0.18033
 H279 H -0.12238 0.80485 0.15388
 H280 H -0.08427 0.83785 0.09868
 H281 H -0.08397 0.93754 0.27016
 H282 H -0.12203 0.90429 0.32475
 C283 C 0.62433 0.64810 0.24281
 C284 C 0.61375 0.66659 0.17887
 C285 C 0.59216 0.64769 0.14721
 C286 C 0.66466 0.68377 0.30552
 C287 C 0.59176 0.59162 0.24324
 C288 C 0.61332 0.61054 0.27477
 C289 C 0.64632 0.66775 0.27628
 C290 C 0.58092 0.61010 0.17929
 H291 H 0.62212 0.69566 0.15367
 H292 H 0.58423 0.66255 0.09786
 H293 H 0.58354 0.56262 0.26905
 H294 H 0.62136 0.59596 0.32424
 C295 C 0.12669 1.13933 0.24477
 C296 C 0.11571 1.15968 0.18307
 C297 C 0.09352 1.14248 0.15236
 C298 C 0.16766 1.17313 0.30665
 C299 C 0.09330 1.08431 0.24482
 C300 C 0.11548 1.10155 0.27542
 C301 C 0.14910 1.15768 0.27780
 C302 C 0.08205 1.10474 0.18319
 H303 H 0.12421 1.18898 0.15900
 H304 H 0.08529 1.15882 0.10478
 H305 H 0.08491 1.05514 0.26959
 H306 H 0.12380 1.08558 0.32324
 C307 C 0.62450 0.35089 -0.24346
 C308 C 0.61371 0.33234 -0.17963
 C309 C 0.59208 0.35115 -0.14813
 C310 C 0.66493 0.31547 -0.30590
 C311 C 0.59207 0.40725 -0.24411
 C312 C 0.61367 0.38842 -0.27548
 C313 C 0.64654 0.33136 -0.27677
 C314 C 0.58101 0.38871 -0.18027
 H315 H 0.62195 0.30330 -0.15439
 H316 H 0.58398 0.33624 -0.09886
 H317 H 0.58399 0.43622 -0.26996
 H318 H 0.62188 0.40305 -0.32487
 C319 C 0.12627 0.86181 -0.24384
 C320 C 0.11523 0.89955 -0.27452
 C321 C 0.09308 0.91680 -0.24385
 C322 C 0.16718 0.82792 -0.30581
 C323 C 0.09300 0.85871 -0.15124
 C324 C 0.11516 0.84150 -0.18203
 C325 C 0.14866 0.84342 -0.27693
 C326 C 0.08169 0.89642 -0.18211
 H327 H 0.12366 0.91548 -0.32243
 H328 H 0.08482 0.94595 -0.26864
 H329 H 0.08466 0.84242 -0.10358
 H330 H 0.12354 0.81223 -0.15793
 C331 C 0.37443 0.63852 -0.24605
 C332 C 0.38543 0.65879 -0.18422
 C333 C 0.40751 0.64150 -0.15329
 C334 C 0.33358 0.67244 -0.30795
 C335 C 0.40757 0.58341 -0.24581
 C336 C 0.38551 0.60074 -0.27662
 C337 C 0.35209 0.65693 -0.27917
 C338 C 0.41885 0.60374 -0.18403
 H339 H 0.37703 0.68808 -0.16017
 H340 H 0.41576 0.65777 -0.10561
 H341 H 0.41585 0.55423 -0.27052
 H342 H 0.37716 0.58482 -0.32454
 C343 C -0.12423 1.14885 -0.23962
 C344 C -0.11341 1.16737 -0.17600
 C345 C -0.09174 1.14861 -0.14500
 C346 C -0.16461 1.18439 -0.30135
 C347 C -0.09174 1.09261 -0.24109
 C348 C -0.11339 1.11139 -0.27196
 C349 C -0.14626 1.16842 -0.27251
 C350 C -0.08066 1.11113 -0.17747
 H351 H -0.12166 1.19637 -0.15055
 H352 H -0.08362 1.16350 -0.09589
 H353 H -0.08365 1.06369 -0.26717
 H354 H -0.12162 1.09680 -0.32121
 C355 C 0.62689 0.63872 -0.24673
 C356 C 0.61590 0.65904 -0.18487
 C357 C 0.59379 0.64167 -0.15363
 C358 C 0.66769 0.67284 -0.30968
 C359 C 0.59367 0.58343 -0.24589
 C360 C 0.61577 0.60083 -0.27700
 C361 C 0.64921 0.65725 -0.28034
 C362 C 0.58240 0.60381 -0.18411
 H363 H 0.62434 0.68843 -0.16109
 H364 H 0.58554 0.65798 -0.10595
 H365 H 0.58534 0.55417 -0.27039
 H366 H 0.62410 0.58489 -0.32495
 C367 C 0.12414 1.14920 -0.24460
 C368 C 0.11313 1.11158 -0.27612
 C369 C 0.09157 1.09274 -0.24413
 C370 C 0.16450 1.18449 -0.30829
 C371 C 0.09198 1.14900 -0.14848
 C372 C 0.11357 1.16783 -0.18062
 C373 C 0.14614 1.16869 -0.27856
 C374 C 0.08073 1.11135 -0.18014
 H375 H 0.12116 1.09689 -0.32561
 H376 H 0.08335 1.06369 -0.26962
 H377 H 0.08405 1.16396 -0.09912
 H378 H 0.12195 1.19694 -0.15576
 C379 C 0.37612 0.35102 -0.24370
 C380 C 0.38672 0.33241 -0.17990
 C381 C 0.40836 0.35119 -0.14834
 C382 C 0.33577 0.31562 -0.30646
 C383 C 0.40875 0.40737 -0.24423
 C384 C 0.38714 0.38856 -0.27565
 C385 C 0.35411 0.33149 -0.27714
 C386 C 0.41961 0.38876 -0.18043
 H387 H 0.37833 0.30334 -0.15475
 H388 H 0.41631 0.33625 -0.09910
 H389 H 0.41698 0.43636 -0.27001
 H390 H 0.37908 0.40322 -0.32502
 C391 C -0.12623 0.86111 -0.24544
 C392 C -0.11536 0.84078 -0.18354
 C393 C -0.09331 0.85817 -0.15219
 C394 C -0.16697 0.82711 -0.30839
 C395 C -0.09303 0.91647 -0.24440
 C396 C -0.11506 0.89905 -0.27563
 C397 C -0.14851 0.84262 -0.27908
 C398 C -0.08188 0.89607 -0.18257
 H399 H -0.12383 0.81136 -0.15980
 H400 H -0.08516 0.84185 -0.10449
 H401 H -0.08468 0.94576 -0.26885
 H402 H -0.12330 0.91502 -0.32358
 C403 C 0.37612 0.64778 0.24139
 C404 C 0.38689 0.61021 0.27343
 C405 C 0.40849 0.59134 0.24214
 C406 C 0.33585 0.68343 0.30405
 C407 C 0.40856 0.64747 0.14617
 C408 C 0.38694 0.66631 0.17761
 C409 C 0.35415 0.66742 0.27476
 C410 C 0.41958 0.60989 0.17837
 H411 H 0.37866 0.59561 0.32281
 H412 H 0.41654 0.56235 0.26801
 H413 H 0.41669 0.66237 0.09695
 H414 H 0.37874 0.69540 0.15238
 C415 C -0.12597 1.13993 0.24780
 C416 C -0.11495 1.16031 0.18589
 C417 C -0.09289 1.14302 0.15454
 C418 C -0.16678 1.17368 0.31063
 C419 C -0.09288 1.08474 0.24678
 C420 C -0.11492 1.10206 0.27801
 C421 C -0.14829 1.15828 0.28139
 C422 C -0.08159 1.10517 0.18493
 H423 H -0.12333 1.18967 0.16213
 H424 H -0.08463 1.15937 0.10681
 H425 H -0.08462 1.05549 0.27123
 H426 H -0.12327 1.08606 0.32597
 C427 C 0.62603 0.36055 0.24555
 C428 C 0.61512 0.34011 0.18375
 C429 C 0.59307 0.35730 0.15249
 C430 C 0.66673 0.32693 0.30853
 C431 C 0.59289 0.41561 0.24463
 C432 C 0.61492 0.39839 0.27576
 C433 C 0.64830 0.34226 0.27916
 C434 C 0.58169 0.39511 0.18289
 H435 H 0.62355 0.31077 0.16001
 H436 H 0.58488 0.34091 0.10485
 H437 H 0.58457 0.44483 0.26908
 H438 H 0.62320 0.41443 0.32366
 C439 C 0.12365 0.85194 0.24365
 C440 C 0.11295 0.83340 0.17985
 C441 C 0.09139 0.85224 0.14830
 C442 C 0.16392 0.81649 0.30621
 C443 C 0.09126 0.90837 0.24417
 C444 C 0.11279 0.88951 0.27558
 C445 C 0.14561 0.83239 0.27703
 C446 C 0.08030 0.88984 0.18036
 H447 H 0.12121 0.80433 0.15468
 H448 H 0.08337 0.83734 0.09905
 H449 H 0.08316 0.93738 0.26995
 H450 H 0.12092 0.90414 0.32494
   
