data_POSCAR
  _audit_creation_date              2014-09-24
  _audit_creation_method            'ToBaCCo'
  _symmetry_space_group_name_H-M    'P1'
  _symmetry_Int_Tables_number       1
  _symmetry_cell_setting            triclinic
  loop_
  _symmetry_equiv_pos_as_xyz
 x,y,z
_cell_length_a 23.9814
_cell_length_b 23.7535
_cell_length_c 26.8179
_cell_angle_alpha 90.084400
_cell_angle_beta 89.665800
_cell_angle_gamma 89.156800
loop_
  _atom_site_label
  _atom_site_type_symbol
  _atom_site_fract_x
  _atom_site_fract_y
  _atom_site_fract_z
B1 B 0.27248 0.25267 0.31330
 B2 B 0.20609 0.24289 0.29423
 B3 B 0.22795 0.30880 0.30521
 B4 B 0.29571 0.31235 0.28589
 B5 B 0.31488 0.24886 0.26288
 B6 B 0.25841 0.20541 0.26847
 B7 B 0.22988 0.29006 0.20492
 B8 B 0.29598 0.30079 0.22360
 B9 B 0.27466 0.23380 0.21362
 B10 B 0.20735 0.23069 0.23243
 B11 B 0.18793 0.29518 0.25511
 B12 B 0.24279 0.33836 0.25001
 B13 B 0.71699 0.76826 0.19003
 B14 B 0.70784 0.70264 0.21063
 B15 B 0.77156 0.72054 0.19005
 B16 B 0.78372 0.78794 0.20858
 B17 B 0.72677 0.81135 0.23826
 B18 B 0.67899 0.75973 0.24093
 B19 B 0.76899 0.72264 0.29113
 B20 B 0.78230 0.78710 0.27328
 B21 B 0.71738 0.77562 0.28963
 B22 B 0.70467 0.70651 0.27342
 B23 B 0.76293 0.68123 0.24197
 B24 B 0.81046 0.73267 0.24058
 B25 B 0.73474 0.20058 -0.20619
 B26 B 0.71588 0.26961 -0.20869
 B27 B 0.78441 0.25097 -0.20301
 B28 B 0.79589 0.19206 -0.23808
 B29 B 0.73565 0.17565 -0.26512
 B30 B 0.68616 0.22371 -0.24674
 B31 B 0.76547 0.28050 -0.29992
 B32 B 0.78343 0.21170 -0.29896
 B33 B 0.71459 0.22873 -0.30302
 B34 B 0.70435 0.28820 -0.26826
 B35 B 0.76557 0.30435 -0.24109
 B36 B 0.81388 0.25613 -0.25971
 B37 B 0.27612 0.77746 -0.30967
 B38 B 0.20811 0.77876 -0.29214
 B39 B 0.23920 0.71612 -0.31084
 B40 B 0.30690 0.71812 -0.28996
 B41 B 0.31499 0.77883 -0.25726
 B42 B 0.25430 0.81588 -0.25823
 B43 B 0.23437 0.71682 -0.20931
 B44 B 0.30327 0.71897 -0.22628
 B45 B 0.27067 0.77834 -0.20704
 B46 B 0.20417 0.77857 -0.22888
 B47 B 0.19647 0.71900 -0.26162
 B48 B 0.25965 0.68252 -0.26052
 B49 B 1.23065 1.25877 0.80172
 B50 B 1.29047 1.28413 0.77874
 B51 B 1.28547 1.21431 0.78432
 B52 B 1.21885 1.19702 0.77117
 B53 B 1.18440 1.25687 0.75631
 B54 B 1.22861 1.31161 0.76014
 B55 B 1.26778 1.24032 0.68722
 B56 B 1.20881 1.21382 0.71026
 B57 B 1.21245 1.28365 0.70508
 B58 B 1.27977 1.30142 0.71775
 B59 B 1.31481 1.24143 0.73275
 B60 B 1.27067 1.18677 0.72861
 B61 B 0.78779 0.73705 0.79409
 B62 B 0.72314 0.71161 0.78192
 B63 B 0.72953 0.77646 0.80790
 B64 B 0.78603 0.80681 0.78104
 B65 B 0.81355 0.75989 0.73957
 B66 B 0.77466 0.70172 0.74050
 B67 B 0.70645 0.79057 0.71021
 B68 B 0.77209 0.81293 0.71919
 B69 B 0.76453 0.74945 0.69515
 B70 B 0.70846 0.72026 0.72154
 B71 B 0.68161 0.76577 0.76364
 B72 B 0.72148 0.82472 0.76278
 B73 B 1.25876 0.69940 0.31813
 B74 B 1.24076 0.77047 0.30758
 B75 B 1.30716 0.75111 0.31122
 B76 B 1.31764 0.68855 0.28451
 B77 B 1.25752 0.66795 0.26406
 B78 B 1.20710 0.71861 0.28201
 B79 B 1.27667 0.76082 0.21196
 B80 B 1.29830 0.69463 0.22416
 B81 B 1.22556 0.70711 0.22551
 B82 B 1.22000 0.77492 0.24807
 B83 B 1.28420 0.79659 0.26538
 B84 B 1.33171 0.74752 0.25137
 B85 B 0.77796 1.27657 0.30473
 B86 B 0.78272 1.20903 0.28791
 B87 B 0.71950 1.23496 0.30421
 B88 B 0.71448 1.30180 0.28383
 B89 B 0.77337 1.31638 0.25449
 B90 B 0.81619 1.25823 0.25600
 B91 B 0.72593 1.23134 0.20198
 B92 B 0.71852 1.29982 0.22087
 B93 B 0.78336 1.27512 0.20498
 B94 B 0.78718 1.20636 0.22423
 B95 B 0.72683 1.19151 0.25499
 B96 B 0.68415 1.24863 0.25113
 O97 O 0.42812 1.09459 0.04882
 O98 O 0.54129 0.89161 0.03536
 O99 O 0.40832 0.97191 0.07067
 O100 O 0.60126 1.06284 0.04073
 O101 O 0.43860 0.89457 0.03905
 O102 O 0.52558 1.10134 0.06488
 O103 O 0.58512 0.96394 0.06715
 O104 O 0.35252 1.04776 0.02799
 C105 C 0.37577 1.08820 0.05269
 C106 C 0.57336 0.91313 0.06767
 C107 C 0.40932 0.91878 0.07256
 C108 C 0.57700 1.09798 0.06738
 O109 O 0.55161 1.10877 -0.03496
 O110 O 0.43755 0.92342 -0.06056
 O111 O 0.39999 1.02830 -0.05571
 O112 O 0.60596 0.93258 -0.02201
 O113 O 0.53629 0.91687 -0.06609
 O114 O 0.44820 1.10317 -0.05067
 O115 O 0.59922 1.03133 -0.05121
 O116 O 0.36890 0.94381 -0.01506
 Co117 Co 0.48855 1.09231 0.00591
 Co118 Co 0.48921 0.91389 -0.01171
 Co119 Co 0.41011 1.00347 0.00754
 Co120 Co 0.58707 0.99800 0.00812
 O121 O 0.49607 1.00043 0.00196
 C122 C 0.59087 1.08265 -0.05853
 C123 C 0.38673 0.91687 -0.05176
 C124 C 0.41262 1.07486 -0.07262
 C125 C 0.58749 0.91253 -0.06050
 O126 O 0.94511 0.62419 0.54934
 O127 O 1.01996 0.43748 0.57458
 O128 O 0.88062 0.49862 0.55831
 O129 O 1.06808 0.56140 0.57614
 O130 O 0.92725 0.42139 0.54836
 O131 O 1.04241 0.63565 0.53898
 O132 O 1.09723 0.46605 0.55042
 O133 O 0.87521 0.58965 0.51403
 C134 C 0.89370 0.61981 0.54774
 C135 C 1.07056 0.43670 0.58006
 C136 C 0.88802 0.44802 0.56996
 C137 C 1.06467 0.61314 0.57703
 O138 O 1.02758 0.61049 0.43304
 O139 O 0.96426 0.41804 0.45013
 O140 O 0.90435 0.53522 0.42918
 O141 O 1.09732 0.49633 0.45670
 O142 O 1.05904 0.41883 0.47875
 O143 O 0.93099 0.61781 0.44774
 O144 O 1.09566 0.59362 0.47799
 O145 O 0.88538 0.44802 0.47201
 Co146 Co 0.98708 0.61297 0.49328
 Co147 Co 0.99253 0.43313 0.51204
 Co148 Co 0.89777 0.51904 0.49399
 Co149 Co 1.07853 0.52951 0.51501
 O150 O 0.98878 0.52296 0.50367
 C151 C 1.07896 0.60914 0.43550
 C152 C 0.91309 0.41565 0.44544
 C153 C 0.90803 0.58496 0.41789
 C154 C 1.09385 0.44451 0.45228
 O155 O 1.07034 0.46568 0.06904
 O156 O 1.05052 0.53398 -0.10765
 O157 O 1.06387 0.38475 -0.03138
 O158 O 1.07303 0.56901 0.05766
 O159 O 1.04314 0.42637 -0.10228
 O160 O 1.01822 0.53767 0.11868
 O161 O 1.08533 0.57378 -0.04065
 O162 O 1.03314 0.38876 0.05398
 C163 C 1.07269 0.41313 0.07221
 C164 C 1.08385 0.56749 -0.08768
 C165 C 1.07235 0.39081 -0.07713
 C166 C 1.06095 0.56916 0.10539
 O167 O 0.92812 0.52976 0.06240
 O168 O 0.92748 0.44738 -0.09169
 O169 O 0.92846 0.40388 0.02486
 O170 O 0.98148 0.60893 -0.04928
 O171 O 0.94340 0.54580 -0.09599
 O172 O 0.96119 0.44245 0.09054
 O173 O 0.96711 0.60393 0.04112
 O174 O 0.96390 0.37591 -0.05953
 Co175 Co 0.99935 0.49993 0.06201
 Co176 Co 0.99256 0.48769 -0.09135
 Co177 Co 0.99680 0.39860 -0.00321
 Co178 Co 1.02458 0.57846 0.00108
 O179 O 1.00113 0.48862 -0.01104
 C180 C 0.92486 0.58160 0.05881
 C181 C 0.92722 0.39619 -0.08572
 C182 C 0.92848 0.40776 0.07110
 C183 C 0.94737 0.59573 -0.08275
 O184 O 0.50365 0.96532 0.60762
 O185 O 0.52260 1.07061 0.39639
 O186 O 0.57732 0.92046 0.46229
 O187 O 0.56877 1.07936 0.54573
 O188 O 0.53614 0.96294 0.39875
 O189 O 0.50714 1.06887 0.60196
 O190 O 0.57459 1.08429 0.45817
 O191 O 0.56805 0.94071 0.55574
 C192 C 0.55045 0.94220 0.59926
 C193 C 0.56557 1.09127 0.41379
 C194 C 0.57247 0.92848 0.41642
 C195 C 0.55473 1.08530 0.58961
 O196 O 0.40790 1.06726 0.54992
 O197 O 0.42891 0.95413 0.41406
 O198 O 0.46395 0.90022 0.54947
 O199 O 0.46816 1.12765 0.45415
 O200 O 0.41804 1.06088 0.42436
 O201 O 0.40525 0.96780 0.55884
 O202 O 0.46698 1.13080 0.54397
 O203 O 0.47472 0.89255 0.45936
 Co204 Co 0.45940 1.01732 0.57291
 Co205 Co 0.47817 1.01271 0.41737
 Co206 Co 0.51868 0.92337 0.50684
 Co207 Co 0.51749 1.09774 0.50026
 O208 O 0.49314 1.01197 0.49867
 C209 C 0.41779 1.11807 0.55239
 C210 C 0.43918 0.90465 0.42689
 C211 C 0.41545 0.91664 0.55935
 C212 C 0.42346 1.11207 0.43420
 O213 O 1.08659 1.07840 0.46088
 O214 O 0.89411 1.04763 0.52166
 O215 O 0.97643 1.04676 0.38993
 O216 O 1.04633 1.02310 0.60471
 O217 O 0.90123 1.02178 0.43117
 O218 O 1.06908 1.07197 0.54413
 O219 O 0.96693 1.07093 0.56090
 O220 O 1.07911 1.02979 0.39601
 C221 C 1.08847 1.07619 0.41482
 C222 C 0.91712 1.08016 0.55166
 C223 C 0.92527 1.05038 0.39775
 C224 C 1.07048 1.06532 0.58972
 O225 O 1.10010 0.95906 0.54719
 O226 O 0.92210 0.91443 0.45901
 O227 O 1.06003 0.92411 0.41267
 O228 O 0.94798 0.98720 0.61291
 O229 O 0.91468 0.94147 0.54852
 O230 O 1.12139 0.96613 0.45871
 O231 O 1.01951 0.92729 0.56976
 O232 O 0.96116 0.94213 0.39223
 Co233 Co 1.08799 1.01699 0.50177
 Co234 Co 0.91698 0.98285 0.48932
 Co235 Co 1.01818 0.98649 0.40650
 Co236 Co 0.99278 0.99886 0.56157
 O237 O 1.00598 0.99733 0.48720
 C238 C 1.07155 0.92178 0.56938
 C239 C 0.93013 0.90890 0.41344
 C240 C 1.10797 0.92702 0.42929
 C241 C 0.90867 0.95761 0.59410
 O242 O 0.58628 0.55707 -0.06107
 O243 O 0.39505 0.56039 0.02225
 O244 O 0.49149 0.57090 -0.08479
 O245 O 0.54132 0.52361 0.09119
 O246 O 0.40723 0.54787 -0.07088
 O247 O 0.57611 0.57203 0.03083
 O248 O 0.43944 0.52129 0.08605
 O249 O 0.56225 0.51389 -0.12998
 C250 C 0.59855 0.54482 -0.10634
 C251 C 0.40689 0.55919 0.06785
 C252 C 0.44102 0.58103 -0.09013
 C253 C 0.57128 0.56328 0.07666
 O254 O 0.61263 0.47008 0.04689
 O255 O 0.40571 0.43825 -0.05760
 O256 O 0.54252 0.42520 -0.08350
 O257 O 0.45092 0.40926 0.05854
 O258 O 0.38099 0.45486 0.03235
 O259 O 0.61358 0.45047 -0.04213
 O260 O 0.54740 0.41431 0.05882
 O261 O 0.45891 0.47073 -0.11601
 Co262 Co 0.58815 0.51055 -0.00683
 Co263 Co 0.40711 0.49952 -0.01816
 Co264 Co 0.51698 0.49732 -0.07959
 Co265 Co 0.49514 0.46930 0.06762
 O266 O 0.49825 0.49247 -0.00687
 C267 C 0.59637 0.42608 0.06630
 C268 C 0.42475 0.43509 -0.10096
 C269 C 0.59109 0.41610 -0.07016
 C270 C 0.40036 0.41550 0.05765
 C271 C 0.30974 1.16247 0.08386
 C272 C 0.28901 1.19758 0.12182
 C273 C 0.30133 1.18842 0.17262
 C274 C 0.33956 1.14201 0.18409
 C275 C 0.36334 1.10920 0.14438
 C276 C 0.34682 1.11831 0.09432
 C277 C 0.40443 1.06797 0.15569
 N278 N 0.41891 1.05728 0.20321
 N279 N 0.39560 1.08548 0.24064
 C280 C 0.35720 1.12676 0.23303
 H281 H 0.29922 1.17200 0.04552
 H282 H 0.26455 1.23385 0.11059
 H283 H 0.42613 1.04428 0.12750
 H284 H 0.34268 1.14542 0.26661
 C285 C 0.87809 0.70457 0.60012
 C286 C 0.84645 0.73941 0.63138
 C287 C 0.78998 0.72827 0.64182
 C288 C 0.76435 0.68566 0.61341
 C289 C 0.79779 0.64594 0.58673
 C290 C 0.85587 0.65573 0.57950
 C291 C 0.77141 0.59723 0.56983
 N292 N 0.71511 0.59314 0.57191
 N293 N 0.68332 0.63446 0.59061
 C294 C 0.70620 0.68073 0.61116
 H295 H 0.92115 0.71482 0.59339
 H296 H 0.86799 0.77305 0.65001
 H297 H 0.79478 0.56167 0.55701
 H298 H 0.67911 0.71399 0.62441
 C299 C 0.66390 0.87535 0.09273
 C300 C 0.69707 0.83747 0.11865
 C301 C 0.67378 0.79663 0.14971
 C302 C 0.61246 0.79496 0.15313
 C303 C 0.58038 0.83822 0.13066
 C304 C 0.60614 0.87623 0.09915
 C305 C 0.52291 0.84391 0.14119
 N306 N 0.49716 0.80551 0.16967
 N307 N 0.52513 0.76156 0.18741
 C308 C 0.58055 0.75423 0.17928
 H309 H 0.68377 0.90508 0.06803
 H310 H 0.74134 0.84291 0.11599
 H311 H 0.49847 0.87920 0.12778
 H312 H 0.59733 0.71673 0.19484
 C313 C 1.15675 0.40706 0.62309
 C314 C 1.18953 0.37051 0.65107
 C315 C 1.16737 0.32290 0.67434
 C316 C 1.10745 0.31433 0.67046
 C317 C 1.07474 0.35067 0.63927
 C318 C 1.09984 0.39787 0.61558
 C319 C 1.01803 0.33729 0.63198
 N320 N 0.99447 0.29354 0.65543
 N321 N 1.02349 0.26128 0.68609
 C322 C 1.07799 0.27018 0.69468
 H323 H 1.17696 0.44280 0.60608
 H324 H 1.23324 0.38027 0.65430
 H325 H 0.99083 0.35966 0.60802
 H326 H 1.09535 0.24020 0.71939
 C327 C 0.62610 1.10004 -0.14445
 C328 C 0.66411 1.12202 -0.17887
 C329 C 0.70840 1.15728 -0.16408
 C330 C 0.71990 1.15844 -0.11228
 C331 C 0.68012 1.13777 -0.07704
 C332 C 0.63047 1.11135 -0.09345
 C333 C 0.69340 1.14105 -0.02630
 N334 N 0.74347 1.16084 -0.01175
 N335 N 0.78193 1.17610 -0.04480
 C336 C 0.77206 1.17436 -0.09447
 H337 H 0.59218 1.07483 -0.15809
 H338 H 0.65534 1.11485 -0.21788
 H339 H 0.66524 1.12655 0.00179
 H340 H 0.80636 1.18069 -0.11962
 C341 C 1.16988 0.64984 0.42136
 C342 C 1.22229 0.65398 0.39944
 C343 C 1.23064 0.64664 0.34909
 C344 C 1.19047 0.61132 0.32436
 C345 C 1.12504 0.62398 0.34128
 C346 C 1.12089 0.63312 0.39621
 C347 C 1.07325 0.59650 0.31059
 N348 N 1.08716 0.55015 0.27022
 N349 N 1.16105 0.53058 0.25309
 C350 C 1.21059 0.56246 0.28054
 H351 H 1.16884 0.65766 0.46121
 H352 H 1.25762 0.66296 0.42283
 H353 H 1.03068 0.60287 0.32315
 H354 H 1.25380 0.55277 0.27208
 C355 C 0.38055 0.84866 -0.12037
 C356 C 0.35361 0.81627 -0.15533
 C357 C 0.29489 0.81321 -0.15836
 C358 C 0.26353 0.84463 -0.12171
 C359 C 0.29182 0.87710 -0.08429
 C360 C 0.35140 0.88068 -0.08494
 C361 C 0.25888 0.90496 -0.04789
 N362 N 0.20260 0.90271 -0.04948
 N363 N 0.17650 0.87433 -0.08481
 C364 C 0.20480 0.84558 -0.12069
 H365 H 0.42572 0.84895 -0.12195
 H366 H 0.38090 0.79470 -0.18142
 H367 H 0.27616 0.92787 -0.01744
 H368 H 0.18016 0.82362 -0.14712
 C369 C 0.82581 0.38358 0.40564
 C370 C 0.79485 0.35009 0.37388
 C371 C 0.81971 0.30674 0.34570
 C372 C 0.87979 0.29589 0.35310
 C373 C 0.90925 0.32768 0.38953
 C374 C 0.88331 0.37471 0.41280
 C375 C 0.96363 0.31017 0.40286
 N376 N 0.99044 0.26885 0.37757
 N377 N 0.96599 0.24245 0.34042
 C378 C 0.91271 0.25412 0.32746
 H379 H 0.80384 0.41737 0.42487
 H380 H 0.75076 0.35975 0.37033
 H381 H 0.98519 0.32701 0.43403
 H382 H 0.89867 0.22733 0.29874
 C383 C 1.16380 0.40357 0.11722
 C384 C 1.20309 0.37352 0.14529
 C385 C 1.19889 0.31515 0.15485
 C386 C 1.15396 0.28675 0.13158
 C387 C 1.10949 0.31836 0.10932
 C388 C 1.11534 0.37811 0.10032
 C389 C 1.06014 0.28817 0.09904
 N390 N 1.05911 0.23143 0.10245
 N391 N 1.10334 0.20183 0.11692
 C392 C 1.15036 0.22742 0.13155
 H393 H 1.16980 0.44821 0.11143
 H394 H 1.23441 0.39817 0.16301
 H395 H 1.02086 0.30752 0.09090
 H396 H 1.18404 0.20044 0.14298
 C397 C 0.63095 0.92517 0.65422
 C398 C 0.66707 0.88822 0.67855
 C399 C 0.65816 0.82905 0.68107
 C400 C 0.60385 0.81075 0.66641
 C401 C 0.56431 0.85077 0.64707
 C402 C 0.57992 0.90703 0.63699
 C403 C 0.50944 0.83348 0.63910
 N404 N 0.49561 0.77894 0.64499
 N405 N 0.53293 0.74075 0.65981
 C406 C 0.58586 0.75473 0.67141
 H407 H 0.64342 0.96834 0.64831
 H408 H 0.70391 0.90702 0.69380
 H409 H 0.47689 0.86337 0.63087
 H410 H 0.61207 0.72134 0.68461
 C411 C 1.13526 0.65651 -0.10052
 C412 C 1.17232 0.69254 -0.12599
 C413 C 1.20354 0.67272 -0.16678
 C414 C 1.19697 0.61303 -0.17569
 C415 C 1.14418 0.58606 -0.16656
 C416 C 1.12019 0.60268 -0.11980
 C417 C 1.11843 0.55828 -0.21303
 N418 N 1.14064 0.57305 -0.26161
 N419 N 1.17961 0.60795 -0.24928
 C420 C 1.21949 0.59124 -0.21651
 H421 H 1.11570 0.67240 -0.06677
 H422 H 1.17657 0.73527 -0.11328
 H423 H 1.07837 0.53814 -0.21022
 H424 H 1.23080 0.54679 -0.21444
 C425 C 0.65780 1.11979 0.38950
 C426 C 0.69500 1.15548 0.36743
 C427 C 0.67896 1.20788 0.34690
 C428 C 0.62112 1.22320 0.35154
 C429 C 0.58185 1.18181 0.36598
 C430 C 0.60108 1.12995 0.38601
 C431 C 0.52482 1.19461 0.36090
 N432 N 0.50807 1.24707 0.34736
 N433 N 0.54457 1.28769 0.33923
 C434 C 0.60028 1.27778 0.34158
 H435 H 0.67375 1.08201 0.40737
 H436 H 0.73559 1.13787 0.36486
 H437 H 0.49335 1.16355 0.36696
 H438 H 0.62722 1.31319 0.33729
 C439 C 0.84355 0.59305 0.11756
 C440 C 0.80736 0.62614 0.14695
 C441 C 0.80489 0.68591 0.14390
 C442 C 0.83676 0.71036 0.10414
 C443 C 0.87008 0.67542 0.07134
 C444 C 0.87752 0.61677 0.08094
 C445 C 0.89505 0.70068 0.02950
 N446 N 0.89144 0.75704 0.02292
 N447 N 0.86439 0.78999 0.05531
 C448 C 0.83753 0.76867 0.09548
 H449 H 0.84690 0.54847 0.12543
 H450 H 0.78345 0.60369 0.17458
 H451 H 0.91605 0.67627 0.00105
 H452 H 0.81772 0.79802 0.11982
 C453 C 0.32399 1.13551 0.58756
 C454 C 0.28683 1.16485 0.61793
 C455 C 0.29658 1.22046 0.63395
 C456 C 0.34175 1.24872 0.61057
 C457 C 0.38235 1.21753 0.58189
 C458 C 0.37463 1.15879 0.57267
 C459 C 0.42887 1.24690 0.56389
 N460 N 0.43280 1.30315 0.57116
 N461 N 0.39340 1.33244 0.59524
 C462 C 0.34806 1.30723 0.61484
 H463 H 0.31492 1.09182 0.57977
 H464 H 0.25358 1.14017 0.63305
 H465 H 0.46217 1.22678 0.54364
 H466 H 0.31640 1.33368 0.63155
 C467 C 0.83777 0.34615 -0.09699
 C468 C 0.80613 0.30374 -0.11907
 C469 C 0.82715 0.27166 -0.15929
 C470 C 0.88573 0.27465 -0.16851
 C471 C 0.91589 0.32117 -0.15056
 C472 C 0.89160 0.35764 -0.11444
 C473 C 0.97026 0.32900 -0.16893
 N474 N 0.99522 0.28884 -0.19759
 N475 N 0.96926 0.24154 -0.20919
 C476 C 0.91574 0.23279 -0.19509
 H477 H 0.82012 0.37005 -0.06613
 H478 H 0.76465 0.29663 -0.10495
 H479 H 0.99331 0.36623 -0.16031
 H480 H 0.89762 0.19285 -0.20400
 C481 C 0.43260 0.82858 0.36548
 C482 C 0.40246 0.78759 0.34075
 C483 C 0.34733 0.77530 0.35512
 C484 C 0.32765 0.79877 0.40161
 C485 C 0.35595 0.84425 0.42333
 C486 C 0.40816 0.85923 0.40450
 C487 C 0.33054 0.87423 0.46297
 N488 N 0.28293 0.85524 0.48377
 N489 N 0.25858 0.80945 0.46636
 C490 C 0.27959 0.78103 0.42642
 H491 H 0.47402 0.83874 0.35221
 H492 H 0.42141 0.76861 0.30796
 H493 H 0.34855 0.91189 0.47812
 H494 H 0.25562 0.74859 0.41168
 C495 C 1.14459 1.16254 0.40704
 C496 C 1.17014 1.20473 0.37956
 C497 C 1.16041 1.21071 0.32823
 C498 C 1.11350 1.18287 0.30813
 C499 C 1.09023 1.13700 0.33455
 C500 C 1.10784 1.12506 0.38440
 C501 C 1.04888 1.10632 0.31018
 N502 N 1.02813 1.12328 0.26578
 N503 N 1.04608 1.16947 0.24353
 C504 C 1.08750 1.20008 0.26337
 H505 H 1.15633 1.15725 0.44573
 H506 H 1.20003 1.23078 0.39837
 H507 H 1.03227 1.06959 0.32545
 H508 H 1.09732 1.23865 0.24478
 C509 C 0.66308 0.62335 -0.11076
 C510 C 0.69232 0.66218 -0.13805
 C511 C 0.69742 0.65776 -0.19010
 C512 C 0.68376 0.60461 -0.21289
 C513 C 0.65647 0.56337 -0.18359
 C514 C 0.64098 0.57624 -0.13386
 C515 C 0.64715 0.50977 -0.20438
 N516 N 0.66171 0.49868 -0.25214
 N517 N 0.68596 0.53719 -0.28033
 C518 C 0.69781 0.58902 -0.26257
 H519 H 0.65588 0.63177 -0.07150
 H520 H 0.71012 0.69650 -0.11755
 H521 H 0.63067 0.47554 -0.18285
 H522 H 0.71993 0.61506 -0.28794
 C523 C 0.90513 1.13263 0.63082
 C524 C 0.87315 1.16160 0.66635
 C525 C 0.82133 1.18616 0.65443
 C526 C 0.80547 1.18451 0.60278
 C527 C 0.83238 1.14584 0.56944
 C528 C 0.88468 1.12165 0.58271
 C529 C 0.80537 1.13354 0.52416
 N530 N 0.75953 1.16346 0.51045
 N531 N 0.73971 1.20560 0.53823
 C532 C 0.76241 1.21814 0.58290
 H533 H 0.94467 1.11477 0.64273
 H534 H 0.88946 1.16409 0.70382
 H535 H 0.82047 1.10237 0.49818
 H536 H 0.74445 1.25235 0.60310
 C537 C 0.32435 0.61062 0.10236
 C538 C 0.29902 0.63861 0.14234
 C539 C 0.33019 0.65573 0.18401
 C540 C 0.38954 0.64547 0.18366
 C541 C 0.41446 0.62464 0.13960
 C542 C 0.38193 0.60142 0.10183
 C543 C 0.47206 0.62824 0.13356
 N544 N 0.50466 0.64034 0.17284
 N545 N 0.48240 0.65181 0.21718
 C546 C 0.42644 0.65554 0.22390
 H547 H 0.29865 0.59418 0.07278
 H548 H 0.25447 0.64600 0.14062
 H549 H 0.49029 0.62314 0.09718
 H550 H 0.41355 0.66475 0.26105
 C551 C 1.15079 0.89908 0.62302
 C552 C 1.17889 0.86850 0.65895
 C553 C 1.16203 0.81518 0.67502
 C554 C 1.10716 0.79894 0.66047
 C555 C 1.07779 0.83030 0.62269
 C556 C 1.10073 0.88064 0.60298
 C557 C 1.02599 0.81042 0.60675
 N558 N 1.00248 0.76620 0.63014
 N559 N 1.02741 0.73993 0.66783
 C560 C 1.07866 0.75473 0.68375
 H561 H 1.16768 0.93956 0.61274
 H562 H 1.21339 0.88907 0.67545
 H563 H 1.00368 0.82931 0.57608
 H564 H 1.09502 0.73261 0.71532
 C565 C 0.60115 0.36110 0.13842
 C566 C 0.62822 0.33574 0.17844
 C567 C 0.68444 0.34686 0.18882
 C568 C 0.71028 0.39130 0.16177
 C569 C 0.68560 0.41113 0.11694
 C570 C 0.62945 0.39720 0.10584
 C571 C 0.71886 0.44358 0.08476
 N572 N 0.76858 0.46300 0.10040
 N573 N 0.78754 0.45164 0.14580
 C574 C 0.75986 0.41704 0.17710
 H575 H 0.55800 0.35055 0.13198
 H576 H 0.60541 0.30456 0.19929
 H577 H 0.70711 0.45246 0.04691
 H578 H 0.77633 0.41187 0.21392
 C579 C 0.90026 0.87759 0.32969
 C580 C 0.86322 0.85137 0.29796
 C581 C 0.81949 0.81912 0.31655
 C582 C 0.81644 0.81099 0.37109
 C583 C 0.85953 0.83228 0.40177
 C584 C 0.89795 0.87002 0.38172
 C585 C 0.86370 0.81456 0.45193
 N586 N 0.82300 0.78402 0.47290
 N587 N 0.77935 0.76847 0.44656
 C588 C 0.77470 0.78057 0.39744
 H589 H 0.93057 0.90525 0.31295
 H590 H 0.86810 0.85790 0.25819
 H591 H 0.89971 0.82284 0.47454
 H592 H 0.73986 0.76163 0.38077
 C593 C 0.39102 0.40272 -0.18240
 C594 C 0.35707 0.36697 -0.20916
 C595 C 0.33304 0.31925 -0.18681
 C596 C 0.34847 0.30584 -0.13612
 C597 C 0.38898 0.33866 -0.11218
 C598 C 0.40486 0.39019 -0.13333
 C599 C 0.41071 0.32072 -0.06597
 N600 N 0.38837 0.27634 -0.04214
 N601 N 0.34550 0.24934 -0.06139
 C602 C 0.32423 0.26336 -0.10648
 H603 H 0.40390 0.44192 -0.19924
 H604 H 0.34736 0.37923 -0.24699
 H605 H 0.44484 0.34208 -0.04838
 H606 H 0.28829 0.24100 -0.11718
 C607 C 1.16706 0.37378 -0.11222
 C608 C 1.20847 0.33948 -0.13367
 C609 C 1.19870 0.28264 -0.14746
 C610 C 1.14858 0.25862 -0.12877
 C611 C 1.10627 0.29379 -0.10684
 C612 C 1.11463 0.35266 -0.10108
 C613 C 1.05607 0.26872 -0.09224
 N614 N 1.04916 0.21256 -0.09734
 N615 N 1.08926 0.17949 -0.11610
 C616 C 1.13846 0.20056 -0.13185
 H617 H 1.17569 0.41780 -0.10551
 H618 H 1.24582 0.36065 -0.14504
 H619 H 1.02179 0.29321 -0.07784
 H620 H 1.16943 0.17130 -0.14517
 C621 C 0.60455 0.83555 0.38381
 C622 C 0.64012 0.80059 0.35567
 C623 C 0.68415 0.82221 0.32696
 C624 C 0.69058 0.88400 0.32745
 C625 C 0.65200 0.91856 0.35503
 C626 C 0.60941 0.89429 0.38322
 C627 C 0.65693 0.97755 0.35447
 N628 N 0.69821 1.00208 0.32861
 N629 N 0.73490 0.97137 0.30302
 C630 C 0.73262 0.91449 0.30144
 H631 H 0.57202 0.81640 0.40597
 H632 H 0.63278 0.75571 0.35627
 H633 H 0.62812 1.00457 0.37435
 H634 H 0.76436 0.89630 0.27884
 C635 C 0.85988 0.61701 -0.12725
 C636 C 0.82489 0.64910 -0.15715
 C637 C 0.83357 0.70642 -0.16740
 C638 C 0.88529 0.72920 -0.14893
 C639 C 0.92266 0.69488 -0.11921
 C640 C 0.90941 0.63804 -0.10796
 C641 C 0.97368 0.71792 -0.10408
 N642 N 0.98685 0.77114 -0.11669
 N643 N 0.95298 0.80291 -0.14410
 C644 C 0.90356 0.78385 -0.16083
 H645 H 0.84884 0.57344 -0.12121
 H646 H 0.79244 0.62596 -0.17469
 H647 H 1.00418 0.69450 -0.08313
 H648 H 0.88058 0.81240 -0.18355
 C649 C 0.33179 1.13130 0.39512
 C650 C 0.29395 1.16460 0.36900
 C651 C 0.30123 1.22305 0.36270
 C652 C 0.34390 1.24802 0.39151
 C653 C 0.38458 1.21394 0.41679
 C654 C 0.37993 1.15381 0.41629
 C655 C 0.42812 1.24225 0.44102
 N656 N 0.42887 1.29923 0.44252
 N657 N 0.38907 1.33038 0.42153
 C658 C 0.34680 1.30646 0.39646
 H659 H 0.32470 1.08637 0.39578
 H660 H 0.26091 1.14264 0.35021
 H661 H 0.46182 1.22105 0.45912
 H662 H 0.31438 1.33288 0.38250
 C663 C 1.11110 0.65332 0.13918
 C664 C 1.14379 0.68408 0.17231
 C665 C 1.16667 0.66532 0.21837
 C666 C 1.13828 0.61419 0.24563
 C667 C 1.11032 0.57255 0.19245
 C668 C 1.09683 0.59755 0.14571
 C669 C 1.09562 0.49954 0.19893
 N670 N 1.10035 0.46049 0.24835
 N671 N 1.11797 0.46966 0.30204
 C672 C 1.13944 0.52655 0.32731
 H673 H 1.09846 0.67405 0.10499
 H674 H 1.15529 0.72496 0.15762
 H675 H 1.08319 0.47765 0.16588
 H676 H 1.15731 0.52609 0.36455
 C677 C 0.64662 1.10981 0.61936
 C678 C 0.68451 1.14692 0.63882
 C679 C 0.66907 1.20044 0.65855
 C680 C 0.61030 1.21417 0.65828
 C681 C 0.57093 1.17322 0.64218
 C682 C 0.58981 1.12138 0.62116
 C683 C 0.51366 1.18571 0.64770
 N684 N 0.49653 1.23627 0.66580
 N685 N 0.53271 1.27556 0.67832
 C686 C 0.58847 1.26649 0.67489
 H687 H 0.66206 1.07057 0.60335
 H688 H 0.72639 1.13041 0.64149
 H689 H 0.48199 1.15577 0.63887
 H690 H 0.61421 1.30112 0.68456
 C691 C 0.85809 0.33174 0.08489
 C692 C 0.82741 0.29824 0.11766
 C693 C 0.83064 0.30610 0.16953
 C694 C 0.87842 0.33901 0.18772
 C695 C 0.91735 0.35901 0.15281
 C696 C 0.90082 0.36559 0.10294
 C697 C 0.97134 0.37353 0.16915
 N698 N 0.98228 0.37916 0.21798
 N699 N 0.94235 0.37207 0.25139
 C700 C 0.89113 0.35459 0.23807
 H701 H 0.84898 0.33053 0.04540
 H702 H 0.80037 0.26713 0.10200
 H703 H 1.00516 0.38078 0.14405
 H704 H 0.86270 0.35658 0.26810
 C705 C 0.34440 0.90210 0.62208
 C706 C 0.31410 0.86903 0.65361
 C707 C 0.30600 0.81119 0.64493
 C708 C 0.33493 0.78634 0.60311
 C709 C 0.37070 0.82017 0.57308
 C710 C 0.37489 0.87870 0.58293
 C711 C 0.40111 0.79419 0.53415
 N712 N 0.39561 0.73858 0.52495
 N713 N 0.36219 0.70694 0.55246
 C714 C 0.33209 0.72872 0.59098
 H715 H 0.34809 0.94615 0.63184
 H716 H 0.30030 0.89024 0.68713
 H717 H 0.42827 0.81744 0.51007
 H718 H 0.30693 0.70005 0.61123
 C719 C 0.32619 1.10037 -0.11680
 C720 C 0.29750 1.13553 -0.14956
 C721 C 0.32537 1.17332 -0.18134
 C722 C 0.38570 1.16937 -0.18304
 C723 C 0.41364 1.12826 -0.15335
 C724 C 0.38426 1.09832 -0.11681
 C725 C 0.47075 1.11746 -0.16109
 N726 N 0.49954 1.14849 -0.19432
 N727 N 0.47559 1.19162 -0.21778
 C728 C 0.42065 1.20434 -0.21189
 H729 H 0.30273 1.07656 -0.08959
 H730 H 0.25275 1.13471 -0.14778
 H731 H 0.49228 1.08382 -0.14161
 H732 H 0.40701 1.24278 -0.22864
 C733 C 0.89621 0.65790 0.35722
 C734 C 0.86111 0.69596 0.33468
 C735 C 0.80265 0.68818 0.33329
 C736 C 0.78085 0.63950 0.35665
 C737 C 0.81806 0.59650 0.37209
 C738 C 0.87536 0.60872 0.37727
 C739 C 0.79606 0.54339 0.38273
 N740 N 0.74010 0.53693 0.38617
 N741 N 0.70502 0.58010 0.37919
 C742 C 0.72356 0.63137 0.36516
 H743 H 0.94005 0.66785 0.36052
 H744 H 0.88127 0.73101 0.31691
 H745 H 0.82269 0.50691 0.38758
 H746 H 0.69351 0.66532 0.36189
 C747 C 0.64036 1.11017 0.13835
 C748 C 0.68015 1.13931 0.16541
 C749 C 0.69271 1.19690 0.15660
 C750 C 0.66897 1.22044 0.11233
 C751 C 0.62784 1.19038 0.08462
 C752 C 0.61160 1.13544 0.09926
 C753 C 0.60660 1.21514 0.04101
 N754 N 0.62673 1.26465 0.02448
 N755 N 0.66602 1.29166 0.04921
 C756 C 0.68726 1.27131 0.09239
 H757 H 0.63263 1.06658 0.14773
 H758 H 0.70032 1.11514 0.19440
 H759 H 0.57649 1.19425 0.01843
 H760 H 0.71800 1.29547 0.11069
 C761 C 1.13261 0.68831 0.58908
 C762 C 1.18552 0.70365 0.60688
 C763 C 1.21219 0.67247 0.64484
 C764 C 1.18529 0.61779 0.65443
 C765 C 1.12692 0.62024 0.65567
 C766 C 1.10125 0.64551 0.61256
 C767 C 1.10265 0.60146 0.70247
 N768 N 1.17298 0.53476 0.70652
 C769 C 1.20739 0.56311 0.67071
 H770 H 1.11626 0.71008 0.55672
 H771 H 1.20367 0.74222 0.59321
 H772 H 1.05804 0.60358 0.70878
 H773 H 1.18778 0.52603 0.68562
 C774 C 0.60641 0.82605 -0.10995
 C775 C 0.64261 0.78806 -0.13373
 C776 C 0.70005 0.79958 -0.14082
 C777 C 0.72108 0.84720 -0.11589
 C778 C 0.68376 0.88862 -0.09625
 C779 C 0.62555 0.87753 -0.09233
 C780 C 0.70646 0.94051 -0.08229
 N781 N 0.76250 0.94712 -0.08112
 N782 N 0.79750 0.90548 -0.09381
 C783 C 0.77854 0.85568 -0.11095
 H784 H 0.56290 0.81523 -0.10583
 H785 H 0.62389 0.75152 -0.15051
 H786 H 0.68036 0.97627 -0.07380
 H787 H 0.80816 0.82267 -0.11985
 C788 C 1.10843 0.36869 0.39105
 C789 C 1.13979 0.33798 0.35677
 C790 C 1.19653 0.34921 0.34687
 C791 C 1.21888 0.39804 0.37064
 C792 C 1.18823 0.42552 0.40946
 C793 C 1.13155 0.41227 0.41814
 C794 C 1.21548 0.46604 0.43806
 N795 N 1.26613 0.48488 0.42414
 N796 N 1.29174 0.46473 0.38376
 C797 C 1.26953 0.42263 0.35659
 H798 H 1.06486 0.35927 0.39531
 H799 H 1.11717 0.30690 0.33614
 H800 H 1.19750 0.48199 0.47155
 H801 H 1.29235 0.40878 0.32513
 C802 C 0.38291 0.82400 0.11034
 C803 C 0.34993 0.78623 0.13833
 C804 C 0.30025 0.80225 0.16395
 C805 C 0.28376 0.86025 0.15597
 C806 C 0.31989 0.90015 0.13056
 C807 C 0.37131 0.88235 0.10708
 C808 C 0.30180 0.95674 0.12874
 N809 N 0.25130 0.97234 0.14731
 N810 N 0.21681 0.93527 0.16728
 C811 C 0.23101 0.88016 0.17167
 H812 H 0.41954 0.80681 0.09169
 H813 H 0.36584 0.74396 0.14107
 H814 H 0.32668 0.98932 0.11296
 H815 H 0.19947 0.85230 0.18507
 C816 C 0.87703 0.38480 0.64222
 C817 C 0.85061 0.34188 0.66806
 C818 C 0.79338 0.32829 0.66149
 C819 C 0.76398 0.36236 0.62617
 C820 C 0.79238 0.40509 0.59796
 C821 C 0.85041 0.41564 0.60519
 C822 C 0.76123 0.43590 0.56330
 N823 N 0.70627 0.42608 0.55683
 N824 N 0.68006 0.38672 0.58273
 C825 C 0.70699 0.35484 0.61704
 H826 H 0.91978 0.39374 0.65119
 H827 H 0.87722 0.32024 0.69426
 H828 H 0.77965 0.46847 0.54226
 H829 H 0.68394 0.32276 0.63551
 C830 C 1.11423 1.09136 0.66901
 C831 C 1.14883 1.12648 0.69569
 C832 C 1.16822 1.17724 0.67513
 C833 C 1.14930 1.19285 0.62591
 C834 C 1.10635 1.16171 0.60389
 C835 C 1.09426 1.10780 0.62254
 C836 C 1.07780 1.18475 0.56258
 N837 N 1.09780 1.23063 0.53926
 N838 N 1.14382 1.25516 0.55506
 C839 C 1.17055 1.23740 0.59669
 H840 H 1.10457 1.05031 0.68408
 H841 H 1.16237 1.11185 0.73190
 H842 H 1.03972 1.16684 0.54870
 H843 H 1.20686 1.26012 0.60613
 C844 C 0.63529 0.63953 0.09558
 C845 C 0.67057 0.66891 0.12599
 C846 C 0.67615 0.65630 0.17702
 C847 C 0.65411 0.60427 0.19446
 C848 C 0.62070 0.57141 0.16190
 C849 C 0.60773 0.59225 0.11293
 C850 C 0.60385 0.51797 0.17930
 N851 N 0.61694 0.50015 0.22563
 N852 N 0.64704 0.53118 0.25610
 C853 C 0.66635 0.58188 0.24208
 H854 H 0.63003 0.65411 0.05760
 H855 H 0.69250 0.70310 0.10867
 H856 H 0.58283 0.48805 0.15703
 H857 H 0.69308 0.60156 0.26813
 C858 C 1.13477 0.83333 0.40131
 C859 C 1.16463 0.79787 0.36997
 C860 C 1.21233 0.81631 0.34465
 C861 C 1.23061 0.87380 0.35271
 C862 C 1.19688 0.91074 0.38205
 C863 C 1.14951 0.88957 0.40684
 C864 C 1.21080 0.96844 0.38457
 N865 N 1.25803 0.98706 0.36315
 N866 N 1.29261 0.95207 0.33953
 C867 C 1.28111 0.89685 0.33409
 H868 H 1.09766 0.81745 0.41943
 H869 H 1.14978 0.75534 0.36568
 H870 H 1.18535 0.99963 0.40311
 H871 H 1.31438 0.87282 0.31808
 C872 C 0.67240 0.39106 -0.11921
 C873 C 0.69795 0.35805 -0.15522
 C874 C 0.67890 0.30371 -0.16696
 C875 C 0.62883 0.28515 -0.14209
 C876 C 0.60466 0.31883 -0.10362
 C877 C 0.62490 0.37274 -0.09462
 C878 C 0.55955 0.29847 -0.07563
 N879 N 0.53654 0.24892 -0.08790
 N880 N 0.55510 0.21971 -0.12697
 C881 C 0.59905 0.23670 -0.15495
 H882 H 0.68797 0.43310 -0.11291
 H883 H 0.73380 0.37618 -0.17338
 H884 H 0.54286 0.32146 -0.04391
 H885 H 0.60749 0.21288 -0.18768
 C886 C 0.87374 1.07846 0.32288
 C887 C 0.83810 1.11559 0.29822
 C888 C 0.81739 1.16454 0.32203
 C889 C 0.83234 1.17351 0.37356
 C890 C 0.87615 1.14147 0.39405
 C891 C 0.89305 1.09164 0.37033
 C892 C 0.90176 1.16026 0.43807
 N893 N 0.87979 1.20483 0.46315
 N894 N 0.83240 1.22912 0.44846
 C895 C 0.80630 1.21256 0.40627
 H896 H 0.88688 1.03966 0.30470
 H897 H 0.82633 1.10524 0.26043
 H898 H 0.93901 1.14022 0.45246
 H899 H 0.76742 1.23308 0.39786
 C900 C 0.36648 0.64926 -0.10762
 C901 C 0.33391 0.68008 -0.14037
 C902 C 0.35011 0.68923 -0.19025
 C903 C 0.40653 0.67439 -0.20349
 C904 C 0.44059 0.64336 -0.16904
 C905 C 0.41838 0.62732 -0.12194
 C906 C 0.49577 0.62983 -0.18306
 N907 N 0.51586 0.64563 -0.22800
 N908 N 0.48472 0.67487 -0.25980
 C909 C 0.43145 0.69029 -0.24901
 H910 H 0.34958 0.64041 -0.07091
 H911 H 0.29510 0.69640 -0.12554
 H912 H 0.52422 0.60911 -0.15844
 H913 H 0.41102 0.71656 -0.27580
 C914 C 0.88406 0.91749 0.67594
 C915 C 0.85020 0.88363 0.70482
 C916 C 0.80236 0.85864 0.68447
 C917 C 0.78724 0.87350 0.63414
 C918 C 0.81466 0.91857 0.61158
 C919 C 0.86760 0.93304 0.62804
 C920 C 0.78790 0.94808 0.57347
 N921 N 0.74418 0.92468 0.54992
 N922 N 0.72562 0.87452 0.56370
 C923 C 0.74644 0.84753 0.60430
 H924 H 0.92394 0.93007 0.69071
 H925 H 0.86456 0.87371 0.74197
 H926 H 0.80135 0.98974 0.56322
 H927 H 0.72857 0.80790 0.61305
 C928 C 0.38082 0.32870 0.10375
 C929 C 0.36571 0.30232 0.14818
 C930 C 0.33889 0.33261 0.18660
 C931 C 0.33778 0.39200 0.18233
 C932 C 0.34299 0.41703 0.13505
 C933 C 0.36775 0.38577 0.09570
 C934 C 0.32613 0.47360 0.13025
 N935 N 0.31511 0.50493 0.17156
 N936 N 0.32008 0.48316 0.21701
 C937 C 0.33195 0.42777 0.22355
 H938 H 0.40392 0.30476 0.07584
 H939 H 0.37613 0.25838 0.15250
 H940 H 0.32088 0.49285 0.09428
 H941 H 0.33979 0.41227 0.26025
   
