data_POSCAR
  _audit_creation_date              2014-09-24
  _audit_creation_method            'ToBaCCo'
  _symmetry_space_group_name_H-M    'P1'
  _symmetry_Int_Tables_number       1
  _symmetry_cell_setting            triclinic
  loop_
  _symmetry_equiv_pos_as_xyz
 x,y,z
_cell_length_a 26.1842
_cell_length_b 27.1450
_cell_length_c 26.3195
_cell_angle_alpha 91.192900
_cell_angle_beta 91.387000
_cell_angle_gamma 89.663100
loop_
  _atom_site_label
  _atom_site_type_symbol
  _atom_site_fract_x
  _atom_site_fract_y
  _atom_site_fract_z
C1 C 0.20391 0.19187 0.25048
 C2 C 0.17876 0.23534 0.23651
 C3 C 0.17752 0.25113 0.18653
 C4 C 0.20664 0.22592 0.15043
 C5 C 0.23579 0.18356 0.16361
 C6 C 0.23255 0.16570 0.21378
 H7 H 0.15653 0.25556 0.26423
 H8 H 0.20690 0.24046 0.11253
 H9 H 0.25235 0.13215 0.22439
 C10 C -0.15491 0.86915 0.21303
 C11 C -0.14096 0.82025 0.20026
 C12 C -0.15451 0.80058 0.15201
 C13 C -0.17745 0.83070 0.11541
 C14 C -0.19028 0.87943 0.12723
 C15 C -0.17813 0.89863 0.17548
 H16 H -0.12573 0.79597 0.22913
 H17 H -0.18994 0.81447 0.07927
 H18 H -0.18862 0.93653 0.18383
 C19 C -0.14767 0.16368 -0.21698
 C20 C -0.19140 0.13400 -0.21464
 C21 C -0.22645 0.14013 -0.17554
 C22 C -0.21797 0.17708 -0.13822
 C23 C -0.17479 0.20736 -0.13951
 C24 C -0.13953 0.19969 -0.17839
 H25 H -0.19952 0.10705 -0.24428
 H26 H -0.24537 0.18256 -0.10861
 H27 H -0.10566 0.22200 -0.17806
 C28 C 0.15189 0.82987 -0.22459
 C29 C 0.12135 0.78947 -0.21268
 C30 C 0.14060 0.75126 -0.18259
 C31 C 0.18934 0.75642 -0.15988
 C32 C 0.21932 0.79842 -0.16787
 C33 C 0.20155 0.83345 -0.20320
 H34 H 0.08314 0.78674 -0.22904
 H35 H 0.20392 0.72726 -0.13629
 H36 H 0.22435 0.86542 -0.21104
 C37 C 0.15601 1.16305 0.77608
 C38 C 0.13920 1.20288 0.80715
 C39 C 0.14655 1.20229 0.86019
 C40 C 0.16989 1.16120 0.88227
 C41 C 0.18868 1.12250 0.85219
 C42 C 0.18046 1.12285 0.79946
 H43 H 0.12095 1.23474 0.79065
 H44 H 0.17667 1.16082 0.92293
 H45 H 0.19633 1.09307 0.77672
 C46 C 0.84972 0.81248 0.76934
 C47 C 0.81147 0.84122 0.79178
 C48 C 0.78015 0.82158 0.82930
 C49 C 0.78609 0.77157 0.84261
 C50 C 0.82103 0.74116 0.81662
 C51 C 0.85285 0.76240 0.78105
 H52 H 0.80725 0.87929 0.78104
 H53 H 0.76187 0.75593 0.87083
 H54 H 0.88059 0.73924 0.76209
 C55 C 0.14919 0.85884 1.20464
 C56 C 0.13865 0.81268 1.18163
 C57 C 0.17517 0.78999 1.15018
 C58 C 0.22401 0.81091 1.14727
 C59 C 0.23550 0.85542 1.17250
 C60 C 0.19723 0.88017 1.19888
 H61 H 0.10122 0.79649 1.18524
 H62 H 0.25353 0.79222 1.12606
 H63 H 0.20552 0.91550 1.21702
 C64 C 0.81839 1.16781 1.23342
 C65 C 0.78116 1.15736 1.19495
 C66 C 0.77169 1.18975 1.15468
 C67 C 0.80010 1.23342 1.15307
 C68 C 0.83772 1.24495 1.19049
 C69 C 0.84658 1.21169 1.23017
 H70 H 0.76012 1.12335 1.19511
 H71 H 0.79236 1.25885 1.12289
 H72 H 0.87453 1.22068 1.25950
 N73 N 0.53973 1.07096 0.90917
 N74 N 0.58078 1.09628 0.89818
 N75 N 0.43054 1.02673 0.89347
 N76 N 0.38335 1.01854 0.87679
 N77 N 0.43276 1.06720 0.92183
 N78 N 0.38684 1.08703 0.92540
 N79 N 0.53659 1.03064 0.88082
 N80 N 0.57526 1.02762 0.84975
 C81 C 0.60205 1.06898 0.86060
 C82 C 0.35694 1.05694 0.89627
 N83 N 0.44452 0.89717 0.95396
 N84 N 0.40967 0.86242 0.95604
 N85 N 0.54426 0.92736 0.90066
 N86 N 0.58388 0.92331 0.87086
 N87 N 0.55096 0.90022 0.94102
 N88 N 0.59515 0.87636 0.93900
 N89 N 0.43770 0.92314 0.91281
 N90 N 0.39784 0.90681 0.88577
 Mn91 Mn 0.48716 0.97700 0.89639
 C92 C 0.38068 0.86908 0.91344
 C93 C 0.61478 0.89059 0.89456
 N94 N 0.44739 1.09056 1.02806
 N95 N 0.40508 1.11688 1.02914
 N96 N 0.55985 1.06824 1.05757
 N97 N 0.60025 1.08315 1.08450
 N98 N 0.55416 1.09398 1.01615
 N99 N 0.59081 1.12718 1.01376
 N100 N 0.45255 1.06437 1.06931
 N101 N 0.41331 1.07255 1.09962
 Mn102 Mn 0.49363 1.08125 0.96850
 C103 C 0.38420 1.10588 1.07382
 C104 C 0.61933 1.11976 1.05671
 N105 N 0.56529 0.92380 1.04755
 N106 N 0.61093 0.90413 1.04203
 N107 N 0.46235 0.96044 1.08926
 N108 N 0.42894 0.96023 1.12576
 N109 N 0.45875 0.92020 1.06086
 N110 N 0.42196 0.89172 1.07694
 N111 N 0.56831 0.96443 1.07574
 N112 N 0.61632 0.97278 1.09014
 Mn113 Mn 0.50476 0.90976 1.00121
 Mn114 Mn 0.51075 1.01435 1.07367
 Cl115 Cl 0.49904 0.99560 0.98497
 C116 C 0.64204 0.93442 1.06921
 C117 C 0.40420 0.91727 1.11766
 N118 N 0.05568 0.47240 0.10428
 N119 N 0.05981 0.43838 0.13902
 N120 N 0.08309 0.56374 0.04246
 N121 N 0.11563 0.60003 0.03796
 N122 N 0.05212 0.57276 0.08002
 N123 N 0.06306 0.61563 0.10245
 N124 N 0.08719 0.46311 0.06713
 N125 N 0.11364 0.42227 0.07598
 C126 C 0.09642 0.40781 0.12142
 C127 C 0.10267 0.63212 0.07537
 N128 N 0.03226 0.52847 -0.09472
 N129 N 0.02946 0.56127 -0.13100
 N130 N 0.07590 0.43759 -0.03878
 N131 N 0.10797 0.40019 -0.03675
 N132 N 0.03742 0.42775 -0.07013
 N133 N 0.04261 0.38310 -0.09075
 N134 N 0.07099 0.53806 -0.06345
 N135 N 0.09545 0.57777 -0.07769
 Mn136 Mn 0.07987 0.50066 0.00175
 C137 C 0.06936 0.59142 -0.12023
 C138 C 0.08703 0.36664 -0.06936
 N139 N -0.05733 0.57204 0.08952
 N140 N -0.06452 0.61358 0.11545
 N141 N -0.09224 0.46232 0.08253
 N142 N -0.11729 0.42294 0.09647
 N143 N -0.05353 0.47145 0.11396
 N144 N -0.05149 0.43852 0.15024
 N145 N -0.09663 0.56258 0.05899
 N146 N -0.13190 0.59701 0.06372
 Mn147 Mn -0.00068 0.52247 0.09752
 C148 C -0.11112 0.62865 0.09861
 C149 C -0.09174 0.40885 0.13905
 N150 N -0.07229 0.42727 -0.06030
 N151 N -0.08092 0.38361 -0.08155
 N152 N -0.10797 0.53721 -0.04779
 N153 N -0.14090 0.57232 -0.06087
 N154 N -0.07706 0.52701 -0.08521
 N155 N -0.08853 0.55408 -0.12482
 N156 N -0.10408 0.43604 -0.02332
 N157 N -0.13494 0.39827 -0.01804
 Mn158 Mn -0.01995 0.47734 -0.07817
 Mn159 Mn -0.10088 0.49964 0.01764
 Cl160 Cl -0.01046 0.50007 0.00968
 C161 C -0.11996 0.36597 -0.05465
 C162 C -0.12814 0.58224 -0.10925
 N163 N 0.91271 -0.05545 0.46217
 N164 N 0.87651 -0.05749 0.42700
 N165 N 0.96626 -0.08646 0.55828
 N166 N 0.96731 -0.11803 0.59532
 N167 N 0.93267 -0.05131 0.56688
 N168 N 0.90900 -0.05907 0.61013
 N169 N 0.94918 -0.08733 0.45210
 N170 N 0.93849 -0.11173 0.40893
 C171 C 0.89240 -0.09272 0.39434
 C172 C 0.93189 -0.10089 0.62743
 N173 N 1.10626 -0.05063 0.54713
 N174 N 1.13104 -0.04809 0.59171
 N175 N 1.05957 -0.08818 0.43983
 N176 N 1.05226 -0.10947 0.39460
 N177 N 1.09614 -0.05521 0.43874
 N178 N 1.11365 -0.05281 0.39234
 N179 N 1.07354 -0.08717 0.54619
 N180 N 1.07588 -0.11040 0.58958
 Mn181 Mn 1.01219 -0.08785 0.49831
 C182 C 1.11252 -0.08679 0.61724
 C183 C 1.08707 -0.08755 0.36572
 N184 N 0.93161 0.05686 0.56160
 N185 N 0.91001 0.06585 0.60571
 N186 N 0.94736 0.08109 0.44538
 N187 N 0.93411 0.10584 0.40421
 N188 N 0.91189 0.04906 0.45606
 N189 N 0.87413 0.05065 0.42202
 N190 N 0.96397 0.09185 0.55130
 N191 N 0.96602 0.12507 0.58850
 Mn192 Mn 0.92173 -0.00007 0.51257
 C193 C 0.93208 0.10859 0.62186
 C194 C 0.88821 0.08624 0.39012
 N195 N 1.09641 0.04900 0.43526
 N196 N 1.13357 0.06054 0.40463
 N197 N 1.07075 0.09248 0.53807
 N198 N 1.07920 0.12813 0.57154
 N199 N 1.10505 0.05726 0.54258
 N200 N 1.13786 0.06819 0.58036
 N201 N 1.05951 0.08211 0.43336
 N202 N 1.07210 0.11775 0.40262
 Mn203 Mn 1.10175 -0.00021 0.49168
 Mn204 Mn 1.01009 0.08717 0.49121
 Cl205 Cl 1.01149 -0.00014 0.49833
 C206 C 1.11736 0.10280 0.38345
 C207 C 1.12088 0.11289 0.59759
 N208 N 1.16094 0.18215 0.37587
 N209 N 1.18842 0.20642 0.33957
 C210 C 1.19568 0.17505 0.29979
 C211 C 1.17467 0.12941 0.31099
 C212 C 1.15197 0.13628 0.35810
 H213 H 1.16939 0.09817 0.28520
 H214 H 1.14680 0.19848 0.40899
 H215 H 1.19699 0.24397 0.34158
 N216 N 0.82649 -0.06991 0.33208
 N217 N 0.81503 -0.07797 0.28098
 C218 C 0.84733 -0.11293 0.26341
 C219 C 0.88007 -0.12788 0.30306
 C220 C 0.86616 -0.09910 0.34492
 H221 H 0.91146 -0.15391 0.30105
 H222 H 0.80833 -0.04375 0.35512
 H223 H 0.78425 -0.06134 0.26195
 N224 N 0.94791 0.17324 0.68812
 N225 N 0.92589 0.18853 0.73351
 C226 C 0.88619 0.15831 0.74213
 C227 C 0.88306 0.12308 0.70272
 C228 C 0.92168 0.13402 0.67009
 H229 H 0.85594 0.09349 0.69707
 H230 H 0.97875 0.19029 0.67135
 H231 H 0.93802 0.21951 0.75444
 N232 N 1.07235 -0.09342 0.69945
 N233 N 1.08218 -0.12012 0.74312
 C234 C 1.13166 -0.13396 0.74320
 C235 C 1.15449 -0.11609 0.69984
 C236 C 1.11546 -0.09229 0.67269
 H237 H 1.19152 -0.12669 0.68568
 H238 H 1.03583 -0.08335 0.68645
 H239 H 1.05443 -0.13014 0.76878
 N240 N 0.30231 1.14576 1.05198
 N241 N 0.26138 1.16785 1.07635
 C242 C 0.26734 1.16075 1.12679
 C243 C 0.31192 1.13254 1.13520
 C244 C 0.33319 1.12528 1.08732
 H245 H 0.32918 1.12289 1.17144
 H246 H 0.30853 1.14750 1.01300
 H247 H 0.23167 1.18595 1.05715
 N248 N 0.32163 0.79978 0.92656
 N249 N 0.27991 0.78081 0.90516
 C250 C 0.26710 0.80654 0.86322
 C251 C 0.30289 0.84384 0.85815
 C252 C 0.33654 0.83811 0.89918
 H253 H 0.30382 0.87203 0.82976
 H254 H 0.33887 0.78712 0.96007
 H255 H 0.26004 0.75182 0.92077
 N256 N 0.72263 0.91145 1.02811
 N257 N 0.76871 0.89737 1.04334
 C258 C 0.77351 0.90590 1.09385
 C259 C 0.72902 0.92789 1.11108
 C260 C 0.69751 0.92956 1.06849
 H261 H 0.71786 0.93329 1.15016
 H262 H 0.70735 0.90495 0.99156
 H263 H 0.79438 0.87830 1.02027
 N264 N 0.67645 1.04739 0.80808
 N265 N 0.72202 1.06540 0.79933
 C266 C 0.72740 1.10875 0.82503
 C267 C 0.68308 1.11841 0.85146
 C268 C 0.65201 1.07870 0.83952
 H269 H 0.67444 1.14955 0.87616
 H270 H 0.66300 1.01363 0.79360
 H271 H 0.74901 1.04719 0.77713
 N272 N 0.07818 0.34229 0.18128
 N273 N 0.09861 0.30100 0.19766
 C274 C 0.14257 0.29229 0.17327
 C275 C 0.14984 0.32957 0.13859
 C276 C 0.10821 0.36083 0.14574
 H277 H 0.18173 0.33449 0.11384
 H278 H 0.04416 0.35749 0.19455
 H279 H 0.08232 0.27938 0.22528
 N280 N -0.17875 0.29687 -0.03618
 N281 N -0.19298 0.25478 -0.05830
 C282 C -0.16727 0.24848 -0.10192
 C283 C -0.13512 0.28839 -0.10724
 C284 C -0.14373 0.31801 -0.06514
 H285 H -0.11030 0.29626 -0.13828
 H286 H -0.19308 0.31079 -0.00204
 H287 H -0.21990 0.23124 -0.04337
 N288 N 0.05261 0.64943 -0.19052
 N289 N 0.07075 0.69146 -0.20666
 C290 C 0.11000 0.70590 -0.17569
 C291 C 0.11704 0.67091 -0.13815
 C292 C 0.07984 0.63591 -0.14908
 H293 H 0.14467 0.67099 -0.10692
 H294 H 0.02206 0.63042 -0.20782
 H295 H 0.05666 0.70905 -0.23902
 N296 N -0.18818 0.67977 0.10944
 N297 N -0.19969 0.72487 0.12472
 C298 C -0.15679 0.74723 0.14231
 C299 C -0.11598 0.71475 0.13878
 C300 C -0.13778 0.67260 0.11705
 H301 H -0.07590 0.72219 0.14619
 H302 H -0.21419 0.65515 0.09233
 H303 H -0.23597 0.74078 0.12083
 N304 N 1.13232 0.19066 0.64538
 N305 N 1.13857 0.20478 0.69623
 C306 C 1.15050 0.16408 0.72269
 C307 C 1.15319 0.12364 0.68889
 C308 C 1.14054 0.14177 0.64137
 H309 H 1.15721 0.08516 0.69821
 H310 H 1.11801 0.21357 0.61692
 H311 H 1.13396 0.24089 0.70974
 N312 N 0.95503 -0.16216 0.69086
 N313 N 0.93181 -0.18778 0.72894
 C314 C 0.88523 -0.16768 0.73608
 C315 C 0.87835 -0.12788 0.70336
 C316 C 0.92249 -0.12695 0.67475
 H317 H 0.84404 -0.10613 0.69741
 H318 H 0.99024 -0.17172 0.67551
 H319 H 0.94921 -0.21677 0.74839
 N320 N 1.09258 -0.05088 0.28183
 N321 N 1.10942 -0.06655 0.23452
 C322 C 1.11408 -0.11608 0.23483
 C323 C 1.09874 -0.13308 0.28162
 C324 C 1.08753 -0.09100 0.31025
 H325 H 1.10528 -0.16961 0.29631
 H326 H 1.09180 -0.01419 0.29461
 H327 H 1.12322 -0.04300 0.20717
 N328 N 0.81533 0.07514 0.32906
 N329 N 0.79621 0.09716 0.28513
 C330 C 0.82680 0.13543 0.27459
 C331 C 0.86619 0.13782 0.31170
 C332 C 0.85749 0.09964 0.34467
 H333 H 0.89756 0.16352 0.31478
 H334 H 0.79885 0.04513 0.34646
 H335 H 0.76249 0.08608 0.26647
 N336 N 0.14676 0.30009 -0.04597
 N337 N 0.16227 0.25707 -0.06396
 C338 C 0.13573 0.24624 -0.10733
 C339 C 0.10139 0.28448 -0.11717
 C340 C 0.10995 0.31777 -0.07718
 H341 H 0.07530 0.28833 -0.14937
 H342 H 0.16207 0.31739 -0.01325
 H343 H 0.19221 0.23691 -0.04752
 N344 N -0.07643 0.34846 0.20773
 N345 N -0.09436 0.30531 0.22103
 C346 C -0.13283 0.29191 0.18844
 C347 C -0.13925 0.32886 0.15286
 C348 C -0.10282 0.36371 0.16651
 H349 H -0.16582 0.33038 0.12083
 H350 H -0.04619 0.36674 0.22641
 H351 H -0.07946 0.28574 0.25172
 N352 N -0.14960 0.61352 -0.19372
 N353 N -0.16296 0.65842 -0.21465
 C354 C -0.17512 0.68996 -0.17647
 C355 C -0.17122 0.66530 -0.13033
 C356 C -0.15328 0.61805 -0.14301
 H357 H -0.17311 0.68164 -0.09255
 H358 H -0.13395 0.58384 -0.21403
 H359 H -0.16089 0.66602 -0.25329
 N360 N 0.16729 0.69380 0.05482
 N361 N 0.18669 0.73482 0.07446
 C362 C 0.16266 0.74617 0.11799
 C363 C 0.12562 0.71084 0.12601
 C364 C 0.13035 0.67819 0.08513
 H365 H 0.10000 0.70845 0.15750
 H366 H 0.17941 0.67687 0.02117
 H367 H 0.21543 0.75476 0.05749
 N368 N 0.27295 1.05976 0.93669
 N369 N 0.22674 1.07604 0.92461
 C370 C 0.22540 1.08761 0.87498
 C371 C 0.27247 1.07684 0.85442
 C372 C 0.30147 1.06013 0.89491
 H373 H 0.28614 1.08732 0.81770
 H374 H 0.28563 1.05199 0.97362
 H375 H 0.19822 1.08272 0.95099
 N376 N 0.35085 0.92384 1.19340
 N377 N 0.30621 0.90785 1.20793
 C378 C 0.28719 0.87660 1.17181
 C379 C 0.32188 0.87167 1.13301
 C380 C 0.36126 0.90276 1.14813
 H381 H 0.31737 0.85156 1.09726
 H382 H 0.37302 0.94980 1.21364
 H383 H 0.28913 0.91896 1.24176
 N384 N 0.68761 1.18190 1.04346
 N385 N 0.72763 1.20009 1.06898
 C386 C 0.73178 1.17824 1.11464
 C387 C 0.69235 1.14436 1.11773
 C388 C 0.66530 1.14801 1.07202
 H389 H 0.68367 1.12088 1.14905
 H390 H 0.67608 1.19250 1.00700
 H391 H 0.75175 1.22661 1.05459
 N392 N 0.69892 0.92120 0.87006
 N393 N 0.74266 0.90344 0.85370
 C394 C 0.74070 0.85373 0.85283
 C395 C 0.69358 0.83933 0.87092
 C396 C 0.66826 0.88346 0.88069
 H397 H 0.67840 0.80244 0.87274
 H398 H 0.69000 0.95869 0.87305
 H399 H 0.77276 0.92552 0.84262
   
