data_POSCAR
  _audit_creation_date              2014-09-24
  _audit_creation_method            'ToBaCCo'
  _symmetry_space_group_name_H-M    'P1'
  _symmetry_Int_Tables_number       1
  _symmetry_cell_setting            triclinic
  loop_
  _symmetry_equiv_pos_as_xyz
 x,y,z
_cell_length_a 31.0761
_cell_length_b 30.4762
_cell_length_c 32.4818
_cell_angle_alpha 92.490400
_cell_angle_beta 89.985100
_cell_angle_gamma 89.887200
loop_
  _atom_site_label
  _atom_site_type_symbol
  _atom_site_fract_x
  _atom_site_fract_y
  _atom_site_fract_z
C1 C 0.72046 0.67490 0.96573
 H2 H 0.74783 0.66856 0.94573
 C3 C 0.68200 0.69059 0.94942
 H4 H 0.68018 0.69699 0.91693
 C5 C 0.68856 0.67126 1.03176
 H6 H 0.69096 0.66309 1.06371
 C7 C 0.64949 0.68641 1.01669
 H8 H 0.62246 0.69036 1.03754
 N9 N 0.72257 0.66428 1.00594
 C10 C 0.85576 0.63906 1.04188
 H11 H 0.85255 0.60436 1.04697
 C12 C 0.89482 0.65992 1.04983
 H13 H 0.92162 0.64097 1.06094
 C14 C 0.82403 0.70579 1.02226
 H15 H 0.79605 0.72347 1.01208
 C16 C 0.86296 0.72803 1.02943
 H17 H 0.86451 0.76295 1.02491
 Zn18 Zn 0.76926 0.62958 1.02316
 N19 N 0.82114 0.66214 1.02899
 C20 C 0.81458 0.58397 0.95894
 N21 N 0.77723 0.58509 0.98091
 C22 C 0.74321 0.55958 0.96893
 C23 C 0.74587 0.53192 0.93357
 C24 C 0.81857 0.55694 0.92341
 C25 C 0.77842 0.62118 1.10883
 C26 C 0.76764 0.60905 1.14835
 C27 C 0.70806 0.56749 1.11950
 C28 C 0.72072 0.57972 1.08023
 N29 N 0.75529 0.60643 1.07551
 H30 H 0.84076 0.60564 0.96743
 H31 H 0.71309 0.56247 0.98535
 H32 H 0.71782 0.51317 0.92406
 H33 H 0.84821 0.55750 0.90590
 H34 H 0.80448 0.64399 1.10536
 H35 H 0.78697 0.62237 1.17352
 H36 H 0.67986 0.54696 1.12219
 H37 H 0.70171 0.56927 1.05383
 C38 C 0.89877 0.70497 1.04396
 C39 C 0.64546 0.69473 0.97468
 C40 C 0.73144 0.58233 1.15457
 C41 C 0.78376 0.53101 0.90990
 C42 C 0.64622 0.34515 0.52923
 H43 H 0.64525 0.38006 0.53680
 C44 C 0.61198 0.31878 0.54016
 H45 H 0.58454 0.33373 0.55588
 C46 C 0.68412 0.28344 0.50081
 H47 H 0.71305 0.26948 0.48735
 C48 C 0.65006 0.25573 0.51076
 H49 H 0.65295 0.22077 0.50400
 N50 N 0.68128 0.32742 0.50975
 C51 C 0.80832 0.37833 0.48074
 H52 H 0.80563 0.40500 0.50364
 C53 C 0.84648 0.37262 0.45884
 H54 H 0.87321 0.39448 0.46566
 C55 C 0.77609 0.31873 0.44303
 H56 H 0.74789 0.29951 0.43524
 C57 C 0.81436 0.31106 0.42098
 H58 H 0.81579 0.28501 0.39725
 Zn59 Zn 0.72434 0.37021 0.50232
 N60 N 0.77409 0.35155 0.47280
 C61 C 0.76122 0.35320 0.57535
 N62 N 0.74241 0.38695 0.55612
 C63 C 0.73816 0.42739 0.57516
 C64 C 0.75446 0.43515 0.61501
 C65 C 0.77728 0.35928 0.61511
 C66 C 0.66853 0.40512 0.44579
 C67 C 0.65464 0.43451 0.41692
 C68 C 0.70588 0.48750 0.44465
 C69 C 0.71963 0.45658 0.47240
 N70 N 0.70064 0.41639 0.47264
 H71 H 0.76402 0.32140 0.55941
 H72 H 0.72217 0.45352 0.55972
 H73 H 0.75132 0.46749 0.62991
 H74 H 0.79278 0.33196 0.62932
 H75 H 0.65522 0.37236 0.44522
 H76 H 0.63011 0.42445 0.39480
 H77 H 0.72207 0.51889 0.44398
 H78 H 0.74670 0.46401 0.49236
 C79 C 0.84976 0.33877 0.42849
 C80 C 0.61353 0.27353 0.53092
 C81 C 0.67363 0.47604 0.41594
 C82 C 0.77415 0.40070 0.63541
 C83 C 0.24344 -0.19859 0.00510
 H84 H 0.27521 -0.20806 -0.00555
 C85 C 0.21665 -0.22972 0.02246
 H86 H 0.22815 -0.26306 0.02435
 C87 C 0.19091 -0.14311 0.01743
 H88 H 0.18154 -0.10899 0.01610
 C89 C 0.16320 -0.17298 0.03487
 H90 H 0.13234 -0.16155 0.04659
 N91 N 0.23016 -0.15620 0.00308
 C92 C 0.35558 -0.10714 -0.01512
 H93 H 0.35090 -0.08040 0.00732
 C94 C 0.39719 -0.11752 -0.02809
 H95 H 0.42360 -0.09929 -0.01416
 C96 C 0.32655 -0.16172 -0.06113
 H97 H 0.29868 -0.17818 -0.07439
 C98 C 0.36792 -0.17339 -0.07498
 H99 H 0.37169 -0.19923 -0.09866
 Zn100 Zn 0.26559 -0.11021 -0.01413
 N101 N 0.32122 -0.12939 -0.03131
 C102 C 0.29036 -0.08914 0.06602
 N103 N 0.27150 -0.07156 0.03273
 C104 C 0.25764 -0.02917 0.03396
 C105 C 0.26364 -0.00237 0.06954
 C106 C 0.29750 -0.06345 0.10190
 C107 C 0.20361 -0.09769 -0.07724
 C108 C 0.18626 -0.07702 -0.11109
 C109 C 0.24418 -0.02427 -0.10608
 C110 C 0.26048 -0.04619 -0.07263
 N111 N 0.23992 -0.08184 -0.05862
 H112 H 0.30054 -0.12315 0.06433
 H113 H 0.24193 -0.01607 0.00747
 H114 H 0.25289 0.03143 0.06978
 H115 H 0.31302 -0.07796 0.12789
 H116 H 0.18832 -0.12679 -0.06631
 H117 H 0.15735 -0.09054 -0.12527
 H118 H 0.26179 0.00396 -0.11586
 H119 H 0.28977 -0.03480 -0.05772
 C120 C 0.40390 -0.15093 -0.05855
 C121 C 0.17607 -0.21682 0.03809
 C122 C 0.20640 -0.03956 -0.12618
 C123 C 0.28409 -0.01950 0.10399
 C124 C 0.15245 0.19535 0.48221
 H125 H 0.18156 0.21426 0.47986
 C126 C 0.11389 0.21199 0.46708
 H127 H 0.11370 0.24380 0.45344
 C128 C 0.11733 0.12984 0.49994
 H129 H 0.11916 0.09688 0.51082
 C130 C 0.07807 0.14555 0.48599
 H131 H 0.05009 0.12453 0.48676
 N132 N 0.15367 0.15445 0.49738
 C133 C 0.27002 0.15478 0.56345
 H134 H 0.25778 0.12992 0.58299
 C135 C 0.30736 0.17743 0.57512
 H136 H 0.32291 0.17033 0.60394
 C137 C 0.26700 0.19188 0.50090
 H138 H 0.25267 0.19546 0.47092
 C139 C 0.30392 0.21576 0.51169
 H140 H 0.31700 0.23827 0.49008
 Zn141 Zn 0.20601 0.12441 0.50723
 N142 N 0.25070 0.16214 0.52676
 C143 C 0.26425 0.07795 0.45406
 N144 N 0.22558 0.09903 0.45634
 C145 C 0.20430 0.11020 0.42170
 C146 C 0.22337 0.10357 0.38315
 C147 C 0.28403 0.06956 0.41574
 C148 C 0.17548 0.10056 0.58212
 C149 C 0.16379 0.07390 0.61391
 C150 C 0.19074 0.01111 0.57371
 C151 C 0.20170 0.03916 0.54231
 N152 N 0.19414 0.08303 0.54730
 H153 H 0.28096 0.07030 0.48207
 H154 H 0.17379 0.12710 0.42393
 H155 H 0.20719 0.11501 0.35608
 H156 H 0.31574 0.05477 0.41424
 H157 H 0.16955 0.13555 0.58501
 H158 H 0.14907 0.08874 0.64136
 H159 H 0.19687 -0.02371 0.56924
 H160 H 0.21603 0.02594 0.51408
 C161 C 0.32491 0.20809 0.54898
 C162 C 0.07633 0.18659 0.46823
 C163 C 0.17152 0.02861 0.61011
 C164 C 0.26418 0.08426 0.38011
 C165 C 0.21554 0.43706 0.21683
 H166 H 0.20098 0.41146 0.23396
 C167 C 0.23700 0.42576 0.18018
 H168 H 0.23795 0.39173 0.16910
 C169 C 0.23259 0.51205 0.21022
 H170 H 0.23054 0.54569 0.22164
 C171 C 0.25524 0.50210 0.17384
 H172 H 0.26986 0.52846 0.15752
 N173 N 0.21132 0.47996 0.22977
 C174 C 0.18075 0.55266 0.34142
 H175 H 0.15295 0.56942 0.32967
 C176 C 0.19778 0.56594 0.37966
 H177 H 0.18332 0.59359 0.39661
 C178 C 0.23194 0.49507 0.33444
 H179 H 0.24432 0.46681 0.31689
 C180 C 0.25008 0.50730 0.37262
 H181 H 0.27675 0.48842 0.38390
 Zn182 Zn 0.17010 0.49585 0.27144
 N183 N 0.19785 0.51767 0.31977
 C184 C 0.13362 0.43499 0.32472
 N185 N 0.13804 0.44546 0.28461
 C186 C 0.12060 0.41987 0.25355
 C187 C 0.10037 0.38053 0.26205
 C188 C 0.11215 0.39669 0.33469
 C189 C 0.14753 0.57935 0.24267
 C190 C 0.12176 0.60963 0.22300
 C191 C 0.06342 0.55747 0.22287
 C192 C 0.09041 0.52808 0.24227
 N193 N 0.13206 0.53886 0.25073
 H194 H 0.14692 0.45616 0.34902
 H195 H 0.12365 0.42941 0.22199
 H196 H 0.08771 0.35972 0.23704
 H197 H 0.10900 0.38836 0.36663
 H198 H 0.18001 0.58821 0.25130
 H199 H 0.13504 0.64127 0.21598
 H200 H 0.03094 0.54737 0.21531
 H201 H 0.07813 0.49629 0.24962
 C202 C 0.23265 0.54297 0.39594
 C203 C 0.25591 0.45870 0.15759
 C204 C 0.07934 0.59855 0.21219
 C205 C 0.09640 0.36866 0.30299
 C206 C -0.14580 0.03696 0.16715
 H207 H -0.13236 0.06385 0.18548
 C208 C -0.16560 0.04570 0.12995
 H209 H -0.16609 0.07925 0.12019
 C210 C -0.16323 -0.03842 0.15869
 H211 H -0.16204 -0.07119 0.17020
 C212 C -0.18351 -0.03121 0.12116
 H213 H -0.19782 -0.05893 0.10445
 N214 N -0.14332 -0.00485 0.17999
 C215 C -0.14424 -0.07516 0.28789
 H216 H -0.11662 -0.09569 0.28092
 C217 C -0.17255 -0.08646 0.31915
 H218 H -0.16628 -0.11562 0.33611
 C219 C -0.18590 -0.01206 0.27484
 H220 H -0.19039 0.01733 0.25781
 C221 C -0.21511 -0.02228 0.30550
 H222 H -0.24185 -0.00025 0.31173
 Zn223 Zn -0.11152 -0.01697 0.22827
 N224 N -0.15082 -0.03784 0.26724
 C225 C -0.09678 0.05180 0.28815
 N226 N -0.08617 0.03554 0.24978
 C227 C -0.06037 0.05837 0.22457
 C228 C -0.04869 0.10146 0.23558
 C229 C -0.08458 0.09427 0.30097
 C230 C -0.04107 -0.07189 0.24632
 C231 C -0.01073 -0.10520 0.23836
 C232 C -0.03354 -0.10871 0.16722
 C233 C -0.06298 -0.07522 0.17642
 N234 N -0.06743 -0.05865 0.21575
 H235 H -0.11616 0.03261 0.30828
 H236 H -0.05169 0.04428 0.19456
 H237 H -0.03034 0.12032 0.21422
 H238 H -0.09472 0.10763 0.33087
 H239 H -0.04453 -0.05747 0.27717
 H240 H 0.00872 -0.11653 0.26340
 H241 H -0.03151 -0.12239 0.13593
 H242 H -0.08260 -0.06306 0.15204
 C243 C -0.20820 -0.05953 0.32865
 C244 C -0.18401 0.01132 0.10577
 C245 C -0.00755 -0.12469 0.19848
 C246 C -0.06207 0.12014 0.27369
 C247 C 0.32476 0.55909 0.73651
 H248 H 0.32842 0.56979 0.76851
 C249 C 0.29951 0.58345 0.71049
 H250 H 0.28404 0.61283 0.72314
 C251 C 0.34304 0.50894 0.68146
 H252 H 0.36098 0.48052 0.67013
 C253 C 0.31822 0.53266 0.65411
 H254 H 0.31674 0.52187 0.62193
 N255 N 0.34561 0.52245 0.72188
 C256 C 0.37039 0.45572 0.83550
 H257 H 0.40485 0.45097 0.83353
 C258 C 0.34790 0.44242 0.87002
 H259 H 0.36530 0.42743 0.89467
 C260 C 0.30591 0.48136 0.80584
 H261 H 0.28944 0.49584 0.78051
 C262 C 0.28225 0.46892 0.83989
 H263 H 0.24781 0.47417 0.84020
 Zn264 Zn 0.38208 0.49627 0.76044
 N265 N 0.34934 0.47576 0.80477
 C266 C 0.42176 0.55589 0.81953
 N267 N 0.41938 0.54189 0.77919
 C268 C 0.43756 0.56522 0.74903
 C269 C 0.45652 0.60580 0.75853
 C270 C 0.44145 0.59598 0.83052
 C271 C 0.38941 0.41409 0.71962
 C272 C 0.41018 0.37719 0.70207
 C273 C 0.47851 0.41089 0.71943
 C274 C 0.45640 0.44750 0.73611
 N275 N 0.41265 0.44838 0.73588
 H276 H 0.40630 0.53746 0.84299
 H277 H 0.43466 0.55364 0.71719
 H278 H 0.46901 0.62492 0.73387
 H279 H 0.44153 0.60778 0.86246
 H280 H 0.35463 0.41547 0.72039
 H281 H 0.39115 0.35020 0.68920
 H282 H 0.51332 0.41086 0.71981
 H283 H 0.47417 0.47496 0.74966
 C284 C 0.30341 0.44988 0.87287
 C285 C 0.29604 0.57044 0.66861
 C286 C 0.45527 0.37510 0.70218
 C287 C 0.45740 0.62214 0.79956
 C288 C 0.71889 0.96941 0.67980
 H289 H 0.73219 0.96042 0.70903
 C290 C 0.74106 0.95839 0.64348
 H291 H 0.77175 0.94162 0.64485
 C292 C 0.66129 0.99907 0.64195
 H293 H 0.62985 1.01422 0.64140
 C294 C 0.68163 0.98708 0.60485
 H295 H 0.66597 0.99332 0.57589
 N296 N 0.68004 0.99007 0.67851
 C297 C 0.66432 1.04417 0.80466
 H298 H 0.62995 1.04101 0.80805
 C299 C 0.68888 1.05973 0.83808
 H300 H 0.67280 1.06767 0.86707
 C301 C 0.72632 1.03869 0.76254
 H302 H 0.74084 1.03202 0.73282
 C303 C 0.75234 1.05327 0.79536
 H304 H 0.78648 1.05672 0.79000
 Zn305 Zn 0.64863 1.00251 0.72782
 N306 N 0.68351 1.03194 0.76835
 C307 C 0.60454 0.94828 0.78325
 N308 N 0.62958 0.94837 0.74886
 C309 C 0.64366 0.91001 0.73042
 C310 C 0.63482 0.86994 0.74775
 C311 C 0.59459 0.90882 0.80143
 C312 C 0.61243 1.08087 0.70517
 C313 C 0.58073 1.10943 0.69195
 C314 C 0.52772 1.05284 0.70144
 C315 C 0.56059 1.02523 0.71447
 N316 N 0.60201 1.03952 0.71558
 H317 H 0.59243 0.97876 0.79687
 H318 H 0.66243 0.91019 0.70253
 H319 H 0.64682 0.84007 0.73259
 H320 H 0.57517 0.90948 0.82915
 H321 H 0.64571 1.09120 0.70612
 H322 H 0.58994 1.14192 0.68298
 H323 H 0.49519 1.04040 0.69984
 H324 H 0.55319 0.99200 0.72243
 C325 C 0.73384 1.06250 0.83430
 C326 C 0.72204 0.96689 0.60560
 C327 C 0.53779 1.09541 0.68936
 C328 C 0.61067 0.86909 0.78419
 C329 C 0.01411 0.21373 -0.18223
 H330 H -0.00347 0.24168 -0.19287
 C331 C 0.02219 0.17794 -0.20956
 H332 H 0.01156 0.17950 -0.24117
 C333 C 0.04767 0.17724 -0.12793
 H334 H 0.05668 0.17651 -0.09591
 C335 C 0.05682 0.14094 -0.15433
 H336 H 0.07314 0.11282 -0.14226
 N337 N 0.02660 0.21276 -0.14211
 C338 C -0.05057 0.32400 -0.12565
 H339 H -0.07043 0.30892 -0.10294
 C340 C -0.06651 0.35984 -0.14621
 H341 H -0.09863 0.37180 -0.13915
 C342 C 0.01508 0.32684 -0.16251
 H343 H 0.04674 0.31341 -0.16899
 C344 C 0.00061 0.36328 -0.18338
 H345 H 0.02128 0.37747 -0.20606
 Zn346 Zn 0.00972 0.25949 -0.10436
 N347 N -0.01035 0.30825 -0.13391
 C348 C 0.07671 0.31593 -0.07467
 N349 N 0.05673 0.27685 -0.06950
 C350 C 0.07012 0.24961 -0.03990
 C351 C 0.10566 0.26062 -0.01514
 C352 C 0.11257 0.32797 -0.05096
 C353 C -0.06510 0.21218 -0.09293
 C354 C -0.10065 0.19578 -0.07258
 C355 C -0.07752 0.23512 -0.01028
 C356 C -0.04207 0.25063 -0.03201
 N357 N -0.03646 0.23868 -0.07251
 H358 H 0.06535 0.33781 -0.09748
 H359 H 0.05315 0.21928 -0.03539
 H360 H 0.11613 0.23800 0.00760
 H361 H 0.12841 0.35887 -0.05618
 H362 H -0.06034 0.20378 -0.12530
 H363 H -0.12251 0.17445 -0.09002
 H364 H -0.08081 0.24518 0.02189
 H365 H -0.01924 0.27246 -0.01662
 C366 C -0.04074 0.38019 -0.17522
 C367 C 0.04342 0.14066 -0.19557
 C368 C -0.10751 0.20683 -0.03048
 C369 C 0.12771 0.30007 -0.02096
 C370 C 0.45816 0.19920 0.16677
 H371 H 0.43704 0.22070 0.15073
 C372 C 0.44048 0.16346 0.18618
 H373 H 0.40595 0.15876 0.18529
 C374 C 0.52842 0.17734 0.18520
 H375 H 0.56283 0.18177 0.18324
 C376 C 0.51207 0.14088 0.20476
 H377 H 0.53429 0.11856 0.21867
 N378 N 0.50151 0.20548 0.16631
 C379 C 0.54274 0.33732 0.15685
 H380 H 0.51880 0.34493 0.13418
 C381 C 0.56366 0.37172 0.17850
 H382 H 0.55520 0.40535 0.17254
 C383 C 0.58435 0.28478 0.19089
 H384 H 0.59270 0.25092 0.19532
 C385 C 0.60640 0.31814 0.21283
 H386 H 0.63104 0.30923 0.23447
 Zn387 Zn 0.52611 0.24825 0.13202
 N388 N 0.55327 0.29475 0.16335
 C389 C 0.44980 0.29497 0.11545
 N390 N 0.48271 0.27142 0.09779
 C391 C 0.48439 0.26337 0.05627
 C392 C 0.45115 0.27735 0.03107
 C393 C 0.41610 0.30991 0.09136
 C394 C 0.60786 0.23225 0.09299
 C395 C 0.63644 0.20779 0.06772
 C396 C 0.58008 0.15452 0.05441
 C397 C 0.55285 0.17974 0.07989
 N398 N 0.56689 0.21790 0.09834
 H399 H 0.44937 0.30141 0.14847
 H400 H 0.51122 0.24562 0.04251
 H401 H 0.45301 0.27010 -0.00178
 H402 H 0.38977 0.32784 0.10612
 H403 H 0.61833 0.26268 0.10811
 H404 H 0.66895 0.21954 0.06360
 H405 H 0.56785 0.12415 0.04061
 H406 H 0.52020 0.16897 0.08500
 C407 C 0.59636 0.36234 0.20647
 C408 C 0.46750 0.13317 0.20475
 C409 C 0.62251 0.16850 0.04782
 C410 C 0.41610 0.30034 0.04872
 C411 C 0.89794 0.70144 0.67206
 H412 H 0.88601 0.73460 0.66959
 C413 C 0.87317 0.67051 0.69174
 H414 H 0.84247 0.68053 0.70480
 C415 C 0.95233 0.64848 0.65736
 H416 H 0.98277 0.63980 0.64313
 C417 C 0.92870 0.61649 0.67733
 H418 H 0.94131 0.58341 0.67845
 N419 N 0.93655 0.69003 0.65506
 C420 C 1.00666 0.81335 0.64502
 H421 H 1.01247 0.81237 0.61215
 C422 C 1.02374 0.84745 0.67003
 H423 H 1.04242 0.87280 0.65602
 C424 C 0.97593 0.78087 0.70305
 H425 H 0.95793 0.75442 0.71588
 C426 C 0.99223 0.81456 0.72922
 H427 H 0.98627 0.81350 0.76196
 Zn428 Zn 0.96397 0.73457 0.62540
 N429 N 0.98316 0.78101 0.66173
 C430 C 0.91104 0.79813 0.58744
 N431 N 0.92298 0.75517 0.58751
 C432 C 0.90596 0.72495 0.56011
 C433 C 0.87700 0.73775 0.53004
 C434 C 0.88167 0.81226 0.55822
 C435 C 1.04694 0.69720 0.61643
 C436 C 1.08492 0.68567 0.59550
 C437 C 1.05211 0.70767 0.53224
 C438 C 1.01486 0.71869 0.55430
 N439 N 1.01283 0.71333 0.59564
 H440 H 0.92431 0.82149 0.60994
 H441 H 0.91556 0.69088 0.56127
 H442 H 0.86403 0.71308 0.50855
 H443 H 0.87257 0.84660 0.55848
 H444 H 1.04499 0.69432 0.64946
 H445 H 1.11195 0.67344 0.61268
 H446 H 1.05271 0.71265 0.49950
 H447 H 0.98819 0.73293 0.53834
 C448 C 1.01660 0.84846 0.71274
 C449 C 0.88819 0.62720 0.69412
 C450 C 1.08800 0.69140 0.55291
 C451 C 0.86472 0.78201 0.52870
 C452 C 0.53313 0.71137 0.32617
 H453 H 0.55488 0.73449 0.34124
 C454 C 0.54993 0.67431 0.30529
 H455 H 0.58446 0.66937 0.30504
 C456 C 0.46216 0.68981 0.30839
 H457 H 0.42789 0.69592 0.31017
 C458 C 0.47768 0.65197 0.28709
 H459 H 0.45498 0.62923 0.27274
 N460 N 0.48986 0.71772 0.32870
 C461 C 0.39557 0.80454 0.33579
 H462 H 0.38080 0.77793 0.35151
 C463 C 0.36940 0.83645 0.31933
 H464 H 0.33509 0.83335 0.32348
 C465 C 0.45805 0.83912 0.31142
 H466 H 0.49255 0.83932 0.30737
 C467 C 0.43301 0.87269 0.29528
 H468 H 0.44887 0.89884 0.27962
 Zn469 Zn 0.46978 0.76514 0.36388
 N470 N 0.43913 0.80717 0.33315
 C471 C 0.53458 0.82961 0.39048
 N472 N 0.51731 0.78894 0.39420
 C473 C 0.53400 0.76049 0.42114
 C474 C 0.57014 0.77173 0.44460
 C475 C 0.57153 0.84185 0.41275
 C476 C 0.41738 0.70338 0.40665
 C477 C 0.38693 0.69272 0.43631
 C478 C 0.38788 0.76819 0.46232
 C479 C 0.41798 0.77742 0.43213
 N480 N 0.43154 0.74544 0.40463
 H481 H 0.52031 0.85255 0.37018
 H482 H 0.51955 0.72846 0.42375
 H483 H 0.58339 0.74801 0.46500
 H484 H 0.58566 0.87386 0.40884
 H485 H 0.42911 0.67821 0.38506
 H486 H 0.37530 0.65928 0.43705
 H487 H 0.37695 0.79466 0.48298
 H488 H 0.42997 0.81054 0.42989
 C489 C 0.38795 0.87228 0.29998
 C490 C 0.52218 0.64332 0.28638
 C491 C 0.37149 0.72545 0.46438
 C492 C 0.58971 0.81261 0.44007
 Si493 Si 0.34727 0.02608 0.24861
 Si494 Si 0.10659 0.98876 0.75169
 Si495 Si 0.63637 0.52021 0.26716
 Si496 Si 0.84289 0.48163 0.76454
 Si497 Si 0.27300 0.37869 0.01308
 Si498 Si 0.76651 0.10390 0.98607
 Si499 Si 0.24670 0.63896 0.53096
 Si500 Si 0.74306 0.87686 0.46805
 Si501 Si -0.01749 0.26131 0.35884
 Si502 Si 1.04360 0.73163 0.12186
 Si503 Si 0.47796 0.22966 0.61363
 Si504 Si 0.53113 0.75793 0.87468
 C505 C 0.36248 -0.09260 0.28681
 C506 C 0.31786 -0.09098 0.28796
 C507 C 0.30696 -0.05083 0.27465
 C508 C 0.34521 -0.03060 0.26640
 O509 O 0.37902 -0.05569 0.27339
 H510 H 0.29535 -0.11559 0.29735
 H511 H 0.27484 -0.03756 0.27166
 C512 C 0.94173 0.41789 0.80286
 C513 C 0.96528 0.44848 0.78222
 C514 C 0.93554 0.47651 0.76672
 C515 C 0.89629 0.46080 0.77896
 O516 O 0.89996 0.42551 0.80082
 H517 H 0.99985 0.45029 0.77883
 H518 H 0.94177 0.50433 0.74805
 C519 C 0.05077 1.10109 0.77699
 C520 C 0.02940 1.09155 0.74035
 C521 C 0.04488 1.05170 0.72643
 C522 C 0.07456 1.03994 0.75532
 O523 O 0.07818 1.06960 0.78606
 H524 H 0.00489 1.11073 0.72575
 H525 H 0.03574 1.03338 0.69852
 C526 C 0.54063 0.60144 0.26918
 C527 C 0.51862 0.56756 0.24881
 C528 C 0.54812 0.53441 0.24288
 C529 C 0.58571 0.55059 0.25995
 O530 O 0.58125 0.59095 0.27564
 H531 H 0.48498 0.56641 0.24034
 H532 H 0.54249 0.50200 0.22906
 C533 C 0.62063 0.39853 0.22765
 C534 C 0.66135 0.39415 0.24405
 C535 C 0.67218 0.43492 0.25913
 C536 C 0.63745 0.46123 0.25115
 O537 O 0.60607 0.43947 0.23183
 H538 H 0.68127 0.36503 0.24434
 H539 H 0.70193 0.44447 0.27432
 C540 C 0.03514 0.88470 0.73915
 C541 C 0.02581 0.89378 0.78031
 C542 C 0.04914 0.93040 0.79128
 C543 C 0.07105 0.94077 0.75627
 O544 O 0.06262 0.91336 0.72470
 H545 H 0.00412 0.87651 0.79996
 H546 H 0.04982 0.94775 0.82106
 C547 C 0.86109 0.59317 0.71258
 C548 C 0.81672 0.59514 0.71510
 C549 C 0.80460 0.55746 0.73277
 C550 C 0.84220 0.53528 0.73999
 O551 O 0.87665 0.55659 0.72762
 H552 H 0.79552 0.62052 0.70460
 H553 H 0.77214 0.54725 0.73965
 C554 C 0.44844 0.09331 0.22205
 C555 C 0.47077 0.05765 0.23622
 C556 C 0.43998 0.02844 0.24736
 C557 C 0.40135 0.04838 0.23918
 O558 O 0.40636 0.08748 0.22394
 H559 H 0.50521 0.05296 0.23789
 H560 H 0.44520 -0.00339 0.25997
 C561 C 0.27986 0.43828 -0.08958
 C562 C 0.23992 0.45444 -0.07772
 C563 C 0.23162 0.43667 -0.04079
 C564 C 0.26683 0.41097 -0.03304
 O565 O 0.29620 0.41192 -0.06232
 H566 H 0.21958 0.47716 -0.09347
 H567 H 0.20336 0.44183 -0.02170
 C568 C 0.76365 0.93075 0.36389
 C569 C 0.72455 0.95081 0.37268
 C570 C 0.71159 0.93465 0.40903
 C571 C 0.74336 0.90584 0.41960
 O572 O 0.77496 0.90320 0.39243
 H573 H 0.70751 0.97473 0.35520
 H574 H 0.68265 0.94320 0.42614
 C575 C 0.79801 0.02041 1.06735
 C576 C 0.77797 -0.00943 1.04027
 C577 C 0.76528 0.01435 1.00777
 C578 C 0.77881 0.05652 1.01710
 O579 O 0.79838 0.06042 1.05303
 H580 H 0.77247 -0.04410 1.04360
 H581 H 0.74765 0.00258 0.98078
 C582 C 0.27104 0.59707 0.63992
 C583 C 0.24265 0.63015 0.65200
 C584 C 0.22950 0.64806 0.61662
 C585 C 0.25000 0.62431 0.58541
 O586 O 0.27554 0.59352 0.59931
 H587 H 0.23305 0.64082 0.68282
 H588 H 0.20842 0.67610 0.61410
 C589 C 0.24954 0.55676 0.43717
 C590 C 0.28616 0.54094 0.45577
 C591 C 0.29007 0.56509 0.49204
 C592 C 0.25548 0.59331 0.49297
 O593 O 0.23110 0.58846 0.45991
 H594 H 0.30822 0.51594 0.44400
 H595 H 0.31574 0.56339 0.51443
 C596 C 0.75888 0.07282 0.86937
 C597 C 0.80334 0.07039 0.87197
 C598 C 0.81284 0.07995 0.91236
 C599 C 0.77382 0.08809 0.93116
 O600 O 0.74124 0.08376 0.90541
 H601 H 0.82628 0.06145 0.84802
 H602 H 0.84440 0.08088 0.92643
 C603 C 0.74256 0.95151 0.56702
 C604 C 0.78512 0.95819 0.55718
 C605 C 0.79103 0.93589 0.52033
 C606 C 0.75187 0.91684 0.51110
 O607 O 0.72231 0.92638 0.53920
 H608 H 0.80897 0.97643 0.57511
 H609 H 0.82076 0.93221 0.50315
 C610 C 0.27343 0.44779 0.11620
 C611 C 0.30516 0.47102 0.09695
 C612 C 0.30990 0.45057 0.05908
 C613 C 0.28049 0.41685 0.05796
 O614 O 0.25844 0.41483 0.09252
 H615 H 0.32281 0.49930 0.10904
 H616 H 0.33191 0.45931 0.03495
 C617 C -0.11019 0.33329 0.40452
 C618 C -0.08473 0.36764 0.39287
 C619 C -0.04994 0.34855 0.37400
 C620 C -0.05658 0.30400 0.37579
 O621 O -0.09329 0.29458 0.39401
 H622 H -0.09064 0.40246 0.39792
 H623 H -0.02278 0.36546 0.36143
 C624 C 0.44798 0.83762 0.92700
 C625 C 0.48450 0.86208 0.93617
 C626 C 0.51772 0.83897 0.91869
 C627 C 0.49927 0.80250 0.89977
 O628 O 0.45704 0.80135 0.90466
 H629 H 0.48713 0.89291 0.95372
 H630 H 0.55153 0.84734 0.92002
 C631 C 1.14738 0.75259 0.05934
 C632 C 1.15602 0.70903 0.06641
 C633 C 1.12180 0.69487 0.08854
 C634 C 1.09491 0.73065 0.09328
 O635 O 1.11018 0.76553 0.07563
 H636 H 1.18392 0.68978 0.05715
 H637 H 1.11716 0.66239 0.09993
 C638 C 0.57745 0.24594 0.54414
 C639 C 0.56746 0.20435 0.52845
 C640 C 0.53141 0.19243 0.54927
 C641 C 0.52247 0.22741 0.57614
 O642 O 0.55011 0.25982 0.57307
 H643 H 0.58398 0.18523 0.50444
 H644 H 0.51391 0.16184 0.54562
 C645 C 0.36639 0.22930 0.55965
 C646 C 0.38132 0.26783 0.54396
 C647 C 0.42115 0.27397 0.56075
 C648 C 0.42758 0.23882 0.58521
 O649 O 0.39449 0.21175 0.58477
 H650 H 0.36527 0.28892 0.52283
 H651 H 0.44320 0.30058 0.55545
 C652 C 0.93963 0.72703 0.05556
 C653 C 0.95288 0.76787 0.04379
 C654 C 0.99136 0.77506 0.06328
 C655 C 0.99845 0.73833 0.08558
 O656 O 0.96742 0.70919 0.08073
 H657 H 0.93650 0.78991 0.02376
 H658 H 1.01130 0.80407 0.06232
 C659 C 0.60309 0.70534 0.95676
 C660 C 0.56385 0.69433 0.97348
 C661 C 0.53367 0.70909 0.94702
 C662 C 0.55657 0.72794 0.91623
 O663 O 0.59865 0.72567 0.92181
 H664 H 0.55781 0.67722 1.00138
 H665 H 0.49906 0.70716 0.95013
 C666 C 0.03700 0.20109 0.44725
 C667 C -0.00427 0.18658 0.45477
 C668 C -0.02953 0.20559 0.42616
 C669 C -0.00179 0.22992 0.40339
 O670 O 0.03841 0.22751 0.41611
 H671 H -0.01472 0.16450 0.47795
 H672 H -0.06387 0.20166 0.42191
 C673 C 0.50504 0.12490 0.67207
 C674 C 0.46149 0.11644 0.66825
 C675 C 0.44484 0.15126 0.64844
 C676 C 0.47931 0.17832 0.64174
 O677 O 0.51565 0.16256 0.65606
 H678 H 0.44381 0.08823 0.67807
 H679 H 0.41164 0.15594 0.63972
 C680 C 1.05304 0.62932 0.18861
 C681 C 1.00927 0.62597 0.18166
 C682 C 0.99916 0.66012 0.15772
 C683 C 1.03740 0.68159 0.15153
 O684 O 1.06997 0.66335 0.17057
 H685 H 0.98708 0.60195 0.19288
 H686 H 0.96750 0.66853 0.14677
 C687 C 1.02025 0.83680 0.18901
 C688 C 1.05446 0.82287 0.21233
 C689 C 1.06888 0.78520 0.19243
 C690 C 1.04230 0.77906 0.15882
 O691 O 1.01302 0.81017 0.15661
 H692 H 1.06726 0.83804 0.24044
 H693 H 1.09499 0.76425 0.20168
 C694 C 0.47722 0.33551 0.68442
 C695 C 0.51872 0.32265 0.69344
 C696 C 0.52504 0.28421 0.67116
 C697 C 0.48719 0.27668 0.65012
 O698 O 0.45809 0.30750 0.65813
 H699 H 0.54148 0.33883 0.71417
 H700 H 0.55383 0.26417 0.67009
 C701 C 0.47121 0.66768 0.80937
 C702 C 0.46283 0.70225 0.78448
 C703 C 0.48005 0.73814 0.80449
 C704 C 0.49785 0.72287 0.83989
 O705 O 0.49242 0.68012 0.84326
 H706 H 0.44601 0.70137 0.75529
 H707 H 0.48078 0.77135 0.79398
 C708 C -0.05456 0.16689 0.28426
 C709 C -0.05749 0.19989 0.25663
 C710 C -0.04845 0.23759 0.27894
 C711 C -0.04042 0.22464 0.31826
 O712 O -0.04430 0.18183 0.32176
 H713 H -0.06511 0.19675 0.22413
 H714 H -0.04600 0.27035 0.26758
 C715 C 0.07574 0.32721 0.31254
 C716 C 0.08759 0.28680 0.29554
 C717 C 0.05902 0.25799 0.31101
 C718 C 0.03164 0.28322 0.33562
 O719 O 0.04186 0.32522 0.33686
 H720 H 0.11354 0.27948 0.27408
 H721 H 0.05714 0.22303 0.30386
 C722 C 0.60155 0.82736 0.80412
 C723 C 0.62252 0.78786 0.79592
 C724 C 0.60287 0.75847 0.82016
 C725 C 0.57172 0.78218 0.84139
 O726 O 0.57078 0.82383 0.83187
 H727 H 0.64874 0.78097 0.77471
 H728 H 0.60966 0.72373 0.82151
 C729 C 0.71851 0.57200 0.19284
 C730 C 0.73980 0.58308 0.22942
 C731 C 0.71525 0.56687 0.25983
 C732 C 0.68062 0.54741 0.24019
 O733 O 0.68252 0.55006 0.19970
 H734 H 0.76981 0.60040 0.23418
 H735 H 0.72212 0.56895 0.29248
 C736 C 0.15940 1.00098 0.64462
 C737 C 0.17216 0.95806 0.64953
 C738 C 0.15554 0.94708 0.68659
 C739 C 0.13372 0.98384 0.70125
 O740 O 0.13606 1.01652 0.67609
 H741 H 0.19206 0.93750 0.62931
 H742 H 0.15929 0.91621 0.70145
 C743 C 0.18978 0.98037 0.84083
 C744 C 0.20612 1.01773 0.82345
 C745 C 0.17983 1.02569 0.79118
 C746 C 0.14945 0.99306 0.79085
 O747 O 0.15510 0.96554 0.82074
 H748 H 0.23370 1.03736 0.83257
 H749 H 0.18254 1.05211 0.77012
 C750 C 0.66256 0.50490 0.38230
 C751 C 0.66348 0.55020 0.38464
 C752 C 0.65300 0.56262 0.34604
 C753 C 0.64722 0.52400 0.32309
 O754 O 0.65257 0.48902 0.34504
 H755 H 0.67109 0.57150 0.41115
 H756 H 0.65102 0.59577 0.33552
 C757 C 0.79193 0.40799 0.67730
 C758 C 0.79870 0.37531 0.70480
 C759 C 0.81662 0.39578 0.73859
 C760 C 0.81945 0.43926 0.72931
 O761 O 0.80442 0.44699 0.69227
 H762 H 0.79133 0.34071 0.70092
 H763 H 0.82658 0.38085 0.76668
 C764 C 0.29154 0.00752 0.14223
 C765 C 0.26929 0.04531 0.15381
 C766 C 0.28496 0.05779 0.19170
 C767 C 0.31586 0.02704 0.20029
 O768 O 0.31978 -0.00357 0.17048
 H769 H 0.24382 0.06124 0.13734
 H770 H 0.27447 0.08567 0.21080
 C771 C 0.28740 0.08398 0.34065
 C772 C 0.29244 0.12072 0.31782
 C773 C 0.31508 0.10680 0.28386
 C774 C 0.32139 0.06253 0.28815
 O775 O 0.30516 0.04855 0.32288
 H776 H 0.28104 0.15369 0.32526
 H777 H 0.32507 0.12634 0.25853
 C778 C 0.78676 0.50591 0.86994
 C779 C 0.75708 0.47562 0.85478
 C780 C 0.77177 0.46255 0.81668
 C781 C 0.80923 0.48566 0.81138
 O782 O 0.81845 0.51191 0.84352
 H783 H 0.72809 0.46437 0.86937
 H784 H 0.75666 0.43923 0.79522
 C785 C 0.12904 0.68172 0.53107
 C786 C 0.13857 0.69180 0.49093
 C787 C 0.18014 0.67873 0.48472
 C788 C 0.19284 0.66175 0.52130
 O789 O 0.16208 0.66339 0.54933
 H790 H 0.11825 0.70743 0.46885
 H791 H 0.19908 0.68146 0.45698
 C792 C 0.65226 0.14190 1.02114
 C793 C 0.63988 0.10685 0.99539
 C794 C 0.67689 0.09019 0.97896
 C795 C 0.70915 0.11647 0.99511
 O796 O 0.69454 0.14782 1.02090
 H797 H 0.60791 0.09417 0.98950
 H798 H 0.68008 0.06149 0.95837
 C799 C 0.85834 0.18944 0.98897
 C800 C 0.84692 0.19591 1.03016
 C801 C 0.81202 0.16938 1.03569
 C802 C 0.80463 0.14903 0.99777
 O803 O 0.83220 0.16123 0.96969
 H804 H 0.86239 0.21629 1.05384
 H805 H 0.79509 0.16424 1.06418
 C806 C 0.33736 0.71497 0.49425
 C807 C 0.32306 0.74243 0.52649
 C808 C 0.29028 0.72041 0.54427
 C809 C 0.28711 0.68134 0.52178
 O810 O 0.31549 0.67778 0.49157
 H811 H 0.33468 0.77470 0.53602
 H812 H 0.27076 0.73157 0.57028
 C813 C 0.62978 0.82400 0.46242
 C814 C 0.64168 0.80766 0.49978
 C815 C 0.68157 0.82435 0.50776
 C816 C 0.69105 0.84935 0.47473
 O817 O 0.65975 0.84946 0.44723
 H818 H 0.62363 0.78595 0.51879
 H819 H 0.70179 0.81837 0.53407
 C820 C 0.16711 0.31215 0.00257
 C821 C 0.18125 0.29326 0.03810
 C822 C 0.21919 0.31374 0.04789
 C823 C 0.22531 0.34338 0.01772
 O824 O 0.19393 0.34260 -0.00965
 H825 H 0.16601 0.26765 0.05490
 H826 H 0.24019 0.30746 0.07355
 C827 C 0.37909 0.31385 0.02364
 C828 C 0.36900 0.29729 -0.01549
 C829 C 0.33118 0.31704 -0.02537
 C830 C 0.32133 0.34420 0.00822
 O831 O 0.35005 0.34231 0.03794
 H832 H 0.38629 0.27292 -0.03422
 H833 H 0.31279 0.31205 -0.05346
 C834 C 0.83327 0.79686 0.49799
 C835 C 0.82147 0.77403 0.46202
 C836 C 0.79017 0.79892 0.44487
 C837 C 0.78540 0.83490 0.47148
 O838 O 0.81140 0.83383 0.50355
 H839 H 0.83362 0.74280 0.44991
 H840 H 0.77204 0.79116 0.41707
   
