data_POSCAR
  _audit_creation_date              2014-09-24
  _audit_creation_method            'ToBaCCo'
  _symmetry_space_group_name_H-M    'P1'
  _symmetry_Int_Tables_number       1
  _symmetry_cell_setting            triclinic
  loop_
  _symmetry_equiv_pos_as_xyz
 x,y,z
_cell_length_a 33.4502
_cell_length_b 33.4302
_cell_length_c 54.1708
_cell_angle_alpha 90.087600
_cell_angle_beta 89.896600
_cell_angle_gamma 92.580300
loop_
  _atom_site_label
  _atom_site_type_symbol
  _atom_site_fract_x
  _atom_site_fract_y
  _atom_site_fract_z
O1 O 0.03131 0.46057 0.97518
 O2 O 0.03103 0.53975 1.02249
 O3 O 0.03351 0.46200 1.02329
 O4 O 0.02924 0.53825 0.97455
 O5 O -0.03671 0.53382 0.97591
 O6 O -0.03237 0.45641 1.02403
 O7 O -0.03489 0.53437 1.02397
 O8 O -0.03466 0.45584 0.97623
 Cu9 Cu 0.03787 0.50061 0.99878
 Cu10 Cu -0.04127 0.49467 1.00016
 C11 C -0.00164 0.44458 0.96764
 C12 C -0.00198 0.55070 1.03129
 C13 C 0.00133 0.44578 1.03190
 C14 C -0.00444 0.54929 0.96698
 O15 O 0.54235 0.03549 0.47510
 O16 O 0.46348 0.03511 0.52263
 O17 O 0.54132 0.03516 0.52309
 O18 O 0.46449 0.03622 0.47460
 O19 O 0.46009 -0.02982 0.47482
 O20 O 0.53929 -0.03087 0.52196
 O21 O 0.46126 -0.03092 0.52279
 O22 O 0.53804 -0.03045 0.47401
 Cu23 Cu 0.50322 0.04210 0.49889
 Cu24 Cu 0.49934 -0.03713 0.49835
 C25 C 0.55377 0.00257 0.46635
 C26 C 0.44893 0.00201 0.53090
 C27 C 0.55381 0.00201 0.53063
 C28 C 0.44882 0.00341 0.46659
 C29 C 0.08230 0.00712 0.25937
 H30 H 0.08463 0.00933 0.23949
 C31 C 0.11686 0.00936 0.27383
 H32 H 0.14568 0.01373 0.26489
 C33 C 0.04161 0.00008 0.29506
 H34 H 0.01230 -0.00309 0.30335
 C35 C 0.07536 0.00186 0.31021
 H36 H 0.07140 -0.00095 0.32997
 N37 N 0.04564 0.00211 0.27010
 C38 C -0.03308 -0.05715 0.21579
 H39 H -0.05732 -0.03680 0.21525
 C40 C -0.03459 -0.09145 0.20100
 H41 H -0.05989 -0.09691 0.18883
 C42 C 0.02972 -0.07400 0.23195
 H43 H 0.05455 -0.06737 0.24421
 C44 C 0.02937 -0.10870 0.21757
 H45 H 0.05401 -0.12846 0.21904
 Zn46 Zn 0.00018 -0.00070 0.24920
 N47 N -0.00085 -0.04863 0.23045
 C48 C -0.00023 0.04068 0.20327
 N49 N 0.00360 0.04460 0.22816
 C50 C 0.01063 0.08111 0.23878
 C51 C 0.01335 0.11565 0.22428
 C52 C 0.00175 0.07444 0.18812
 C53 C -0.05635 -0.03224 0.28313
 C54 C -0.09062 -0.03291 0.29791
 C55 C -0.10712 0.03080 0.28059
 C56 C -0.07241 0.03037 0.26627
 N57 N -0.04749 -0.00053 0.26809
 H58 H -0.00515 0.01147 0.19506
 H59 H 0.01413 0.08334 0.25859
 H60 H 0.01949 0.14429 0.23315
 H61 H -0.00267 0.07056 0.16846
 H62 H -0.03631 -0.05672 0.28394
 H63 H -0.09635 -0.05782 0.31036
 H64 H -0.12660 0.05563 0.27879
 H65 H -0.06544 0.05481 0.25375
 C66 C -0.00284 -0.11756 0.20156
 C67 C 0.11370 0.00646 0.29965
 C68 C -0.11640 -0.00090 0.29693
 C69 C 0.00857 0.11267 0.19855
 C70 C 0.00226 0.07818 0.75975
 H71 H 0.00481 0.08108 0.73992
 C72 C 0.00207 0.11241 0.77456
 H73 H 0.00520 0.14156 0.76593
 C74 C -0.00416 0.03644 0.79496
 H75 H -0.00732 0.00682 0.80284
 C76 C -0.00486 0.06982 0.81043
 H77 H -0.00865 0.06531 0.83009
 N78 N 0.00003 0.04114 0.77014
 C79 C 0.05513 -0.03485 0.71514
 H80 H 0.03239 -0.05879 0.71367
 C81 C 0.08955 -0.03554 0.70055
 H82 H 0.09272 -0.05989 0.68760
 C83 C 0.07791 0.02634 0.73349
 H84 H 0.07368 0.05008 0.74663
 C85 C 0.11286 0.02676 0.71934
 H86 H 0.13508 0.05099 0.72178
 Zn87 Zn 0.00103 -0.00408 0.74903
 N88 N 0.04946 -0.00370 0.73075
 C89 C -0.03909 -0.00267 0.70268
 N90 N -0.04359 -0.00204 0.72763
 C91 C -0.08025 0.00109 0.73816
 C92 C -0.11438 0.00282 0.72346
 C93 C -0.07244 -0.00139 0.68730
 C94 C 0.02866 -0.05819 0.78358
 C95 C 0.02812 -0.09254 0.79821
 C96 C -0.03483 -0.11388 0.77954
 C97 C -0.03314 -0.07903 0.76531
 N98 N -0.00197 -0.05178 0.76782
 H99 H -0.00972 -0.00424 0.69458
 H100 H -0.08291 0.00224 0.75805
 H101 H -0.14318 0.00576 0.73226
 H102 H -0.06818 -0.00303 0.66752
 H103 H 0.05330 -0.03621 0.78500
 H104 H 0.05229 -0.09646 0.81112
 H105 H -0.05978 -0.13531 0.77718
 H106 H -0.05671 -0.07389 0.75225
 C107 C 0.11879 -0.00416 0.70232
 C108 C -0.00128 0.10851 0.80033
 C109 C -0.00405 -0.12088 0.79640
 C110 C -0.11081 0.00132 0.69762
 C111 C -0.00232 -0.35352 0.08454
 C112 C 0.03369 -0.36498 0.07381
 C113 C 0.03385 -0.39638 0.05678
 C114 C -0.00205 -0.41695 0.05000
 C115 C -0.03805 -0.40574 0.06092
 C116 C -0.03816 -0.37443 0.07805
 C117 C -0.00251 -0.31942 0.10212
 C118 C -0.02614 -0.32160 0.12359
 C119 C -0.02621 -0.28938 0.14009
 C120 C -0.00278 -0.25422 0.13541
 C121 C 0.02068 -0.25204 0.11385
 C122 C 0.02086 -0.28428 0.09743
 C123 C -0.00277 -0.21985 0.15286
 C124 C 0.03284 -0.19742 0.15790
 C125 C 0.03280 -0.16450 0.17380
 C126 C -0.00282 -0.15325 0.18515
 C127 C -0.03838 -0.17593 0.18033
 C128 C -0.03835 -0.20884 0.16436
 H129 H 0.06183 -0.34975 0.07870
 H130 H 0.06210 -0.40431 0.04876
 H131 H -0.06621 -0.42097 0.05608
 H132 H -0.06641 -0.36601 0.08585
 H133 H -0.04408 -0.34849 0.12783
 H134 H -0.04416 -0.29224 0.15670
 H135 H 0.03845 -0.22513 0.10944
 H136 H 0.03883 -0.28147 0.08082
 H137 H 0.06087 -0.20540 0.14961
 H138 H 0.06063 -0.14742 0.17686
 H139 H -0.06624 -0.16835 0.18899
 H140 H -0.06636 -0.22524 0.16069
 C141 C 0.00660 0.35319 0.08510
 C142 C 0.04164 0.37434 0.07729
 C143 C 0.03994 0.40497 0.05984
 C144 C 0.00302 0.41571 0.04995
 C145 C -0.03213 0.39510 0.05820
 C146 C -0.03031 0.36409 0.07538
 C147 C 0.00855 0.31934 0.10286
 C148 C -0.02208 0.31188 0.12029
 C149 C -0.02104 0.27914 0.13625
 C150 C 0.01094 0.25325 0.13544
 C151 C 0.04200 0.26121 0.11837
 C152 C 0.04069 0.29363 0.10219
 C153 C 0.01144 0.21764 0.15193
 C154 C 0.02675 0.18157 0.14350
 C155 C 0.02645 0.14786 0.15873
 C156 C 0.01031 0.14909 0.18269
 C157 C -0.00480 0.18522 0.19119
 C158 C -0.00402 0.21910 0.17607
 H159 H 0.07052 0.36738 0.08473
 H160 H 0.06769 0.42026 0.05418
 H161 H -0.06116 0.40224 0.05103
 H162 H -0.05787 0.34807 0.08058
 H163 H -0.04698 0.33136 0.12165
 H164 H -0.04577 0.27374 0.14890
 H165 H 0.06745 0.24237 0.11746
 H166 H 0.06458 0.29804 0.08884
 H167 H 0.03839 0.17904 0.12494
 H168 H 0.03899 0.12083 0.15166
 H169 H -0.01792 0.18724 0.20940
 H170 H -0.01550 0.24648 0.18336
 C171 C 0.35449 0.00122 0.58507
 C172 C 0.37110 -0.03472 0.57759
 C173 C 0.40197 -0.03445 0.56016
 C174 C 0.41704 0.00179 0.54991
 C175 C 0.40080 0.03779 0.55766
 C176 C 0.36981 0.03749 0.57501
 C177 C 0.32079 0.00084 0.60295
 C178 C 0.28826 0.02523 0.59912
 C179 C 0.25619 0.02453 0.61569
 C180 C 0.25596 -0.00047 0.63654
 C181 C 0.28860 -0.02478 0.64042
 C182 C 0.32063 -0.02417 0.62378
 C183 C 0.22160 -0.00136 0.65401
 C184 C 0.20690 -0.03768 0.66434
 C185 C 0.17388 -0.03859 0.68023
 C186 C 0.15475 -0.00320 0.68613
 C187 C 0.16975 0.03316 0.67599
 C188 C 0.20279 0.03407 0.66016
 H189 H 0.35962 -0.06315 0.58483
 H190 H 0.41381 -0.06270 0.55457
 H191 H 0.41178 0.06623 0.55017
 H192 H 0.35794 0.06569 0.58065
 H193 H 0.28722 0.04431 0.58302
 H194 H 0.23119 0.04305 0.61190
 H195 H 0.28963 -0.04391 0.65649
 H196 H 0.34554 -0.04292 0.62737
 H197 H 0.22045 -0.06557 0.65980
 H198 H 0.16338 -0.06702 0.68794
 H199 H 0.15547 0.06090 0.67990
 H200 H 0.21368 0.06261 0.65278
 C201 C -0.35081 0.00221 0.58395
 C202 C -0.37213 0.03689 0.57982
 C203 C -0.40326 0.03674 0.56264
 C204 C -0.41413 0.00177 0.54940
 C205 C -0.39342 -0.03312 0.55383
 C206 C -0.36199 -0.03286 0.57081
 C207 C -0.31657 0.00283 0.60149
 C208 C -0.30921 -0.03078 0.61610
 C209 C -0.27636 -0.03053 0.63202
 C210 C -0.25021 0.00346 0.63391
 C211 C -0.25791 0.03727 0.61956
 C212 C -0.29052 0.03689 0.60348
 C213 C -0.21473 0.00347 0.65047
 C214 C -0.17834 0.02282 0.64334
 C215 C -0.14488 0.02250 0.65872
 C216 C -0.14677 0.00247 0.68153
 C217 C -0.18318 -0.01681 0.68869
 C218 C -0.21677 -0.01619 0.67340
 H219 H -0.36490 0.06421 0.58994
 H220 H -0.41887 0.06402 0.55977
 H221 H -0.40093 -0.06047 0.54379
 H222 H -0.34586 -0.05993 0.57320
 H223 H -0.32893 -0.05733 0.61531
 H224 H -0.27112 -0.05729 0.64255
 H225 H -0.23878 0.06419 0.62080
 H226 H -0.29490 0.06313 0.59230
 H227 H -0.17547 0.03780 0.62569
 H228 H -0.11755 0.03819 0.65275
 H229 H -0.18564 -0.03295 0.70597
 H230 H -0.24443 -0.03095 0.67964
 C231 C -0.00850 -0.35767 0.91226
 C232 C -0.04390 -0.37320 0.92334
 C233 C -0.04268 -0.40376 0.94088
 C234 C -0.00600 -0.41929 0.94781
 C235 C 0.02936 -0.40396 0.93657
 C236 C 0.02810 -0.37356 0.91895
 C237 C -0.00955 -0.32442 0.89419
 C238 C 0.01437 -0.32450 0.87284
 C239 C 0.01438 -0.29251 0.85625
 C240 C -0.00942 -0.25963 0.86070
 C241 C -0.03367 -0.25979 0.88193
 C242 C -0.03379 -0.29185 0.89846
 C243 C -0.00832 -0.22489 0.84357
 C244 C -0.04340 -0.20512 0.83802
 C245 C -0.04209 -0.17167 0.82255
 C246 C -0.00566 -0.15722 0.81222
 C247 C 0.02934 -0.17731 0.81751
 C248 C 0.02803 -0.21070 0.83302
 H249 H -0.07259 -0.36182 0.91834
 H250 H -0.07046 -0.41495 0.94917
 H251 H 0.05812 -0.41524 0.94150
 H252 H 0.05592 -0.36188 0.91094
 H253 H 0.03290 -0.34947 0.86888
 H254 H 0.03285 -0.29364 0.83986
 H255 H -0.05184 -0.23465 0.88612
 H256 H -0.05208 -0.29068 0.91493
 H257 H -0.07196 -0.21557 0.84561
 H258 H -0.06952 -0.15666 0.81906
 H259 H 0.05780 -0.16728 0.80961
 H260 H 0.05568 -0.22495 0.83712
 C261 C -0.00090 0.34889 0.91431
 C262 C 0.03393 0.37291 0.91886
 C263 C 0.03366 0.40410 0.93607
 C264 C -0.00155 0.41227 0.94895
 C265 C -0.03653 0.38874 0.94414
 C266 C -0.03617 0.35731 0.92712
 C267 C -0.00029 0.31471 0.89669
 C268 C -0.03357 0.30493 0.88167
 C269 C -0.03343 0.27202 0.86573
 C270 C 0.00010 0.24822 0.86426
 C271 C 0.03361 0.25839 0.87899
 C272 C 0.03335 0.29109 0.89508
 C273 C -0.00006 0.21260 0.84773
 C274 C 0.01822 0.17755 0.85517
 C275 C 0.01798 0.14400 0.83977
 C276 C -0.00087 0.14445 0.81659
 C277 C -0.01922 0.17948 0.80915
 C278 C -0.01871 0.21318 0.82449
 H279 H 0.06143 0.36777 0.90903
 H280 H 0.06103 0.42190 0.93924
 H281 H -0.06408 0.39412 0.95388
 H282 H -0.06336 0.33905 0.92441
 H283 H -0.05977 0.32278 0.88217
 H284 H -0.05993 0.26484 0.85487
 H285 H 0.06019 0.24113 0.87808
 H286 H 0.05932 0.29739 0.90657
 H287 H 0.03236 0.17579 0.87307
 H288 H 0.03294 0.11779 0.84597
 H289 H -0.03443 0.18077 0.79157
 H290 H -0.03267 0.23981 0.81803
 C291 C -0.35293 0.00273 0.41334
 C292 C -0.37217 -0.03341 0.42088
 C293 C -0.40315 -0.03349 0.43822
 C294 C -0.41585 0.00267 0.44837
 C295 C -0.39690 0.03890 0.44040
 C296 C -0.36574 0.03887 0.42318
 C297 C -0.31904 0.00267 0.39564
 C298 C -0.28445 0.02712 0.39980
 C299 C -0.25217 0.02663 0.38342
 C300 C -0.25381 0.00186 0.36241
 C301 C -0.28856 -0.02245 0.35819
 C302 C -0.32076 -0.02213 0.37467
 C303 C -0.21925 0.00122 0.34512
 C304 C -0.20800 -0.03487 0.33431
 C305 C -0.17496 -0.03554 0.31850
 C306 C -0.15227 -0.00016 0.31318
 C307 C -0.16372 0.03595 0.32385
 C308 C -0.19684 0.03665 0.33955
 H309 H -0.36265 -0.06174 0.41375
 H310 H -0.41689 -0.06203 0.44380
 H311 H -0.40577 0.06741 0.44762
 H312 H -0.35173 0.06720 0.41746
 H313 H -0.28204 0.04605 0.41601
 H314 H -0.22560 0.04513 0.38750
 H315 H -0.29107 -0.04138 0.34199
 H316 H -0.34726 -0.04092 0.37086
 H317 H -0.22433 -0.06278 0.33840
 H318 H -0.16729 -0.06378 0.31036
 H319 H -0.14665 0.06368 0.32041
 H320 H -0.20498 0.06504 0.34728
 C321 C 0.35399 0.00575 0.41297
 C322 C 0.36210 -0.02990 0.42540
 C323 C 0.39330 -0.03082 0.44249
 C324 C 0.41686 0.00398 0.44775
 C325 C 0.40903 0.03955 0.43523
 C326 C 0.37810 0.04038 0.41796
 C327 C 0.32003 0.00700 0.39531
 C328 C 0.29665 0.04085 0.39402
 C329 C 0.26415 0.04170 0.37789
 C330 C 0.25393 0.00858 0.36278
 C331 C 0.27750 -0.02516 0.36393
 C332 C 0.31021 -0.02588 0.37991
 C333 C 0.21841 0.00892 0.34629
 C334 C 0.21895 -0.00943 0.32292
 C335 C 0.18515 -0.01004 0.30776
 C336 C 0.15004 0.00795 0.31550
 C337 C 0.14972 0.02680 0.33872
 C338 C 0.18338 0.02712 0.35395
 H339 H 0.34377 -0.05696 0.42235
 H340 H 0.39843 -0.05863 0.45195
 H341 H 0.42687 0.06679 0.43875
 H342 H 0.37322 0.06816 0.40841
 H343 H 0.30298 0.06653 0.40581
 H344 H 0.24706 0.06842 0.37725
 H345 H 0.27025 -0.05140 0.35279
 H346 H 0.32787 -0.05223 0.38015
 H347 H 0.24557 -0.02326 0.31627
 H348 H 0.18635 -0.02523 0.29013
 H349 H 0.12345 0.04149 0.34514
 H350 H 0.18167 0.04109 0.37194
   
