data_POSCAR
  _audit_creation_date              2014-09-24
  _audit_creation_method            'ToBaCCo'
  _symmetry_space_group_name_H-M    'P1'
  _symmetry_Int_Tables_number       1
  _symmetry_cell_setting            triclinic
  loop_
  _symmetry_equiv_pos_as_xyz
 x,y,z
_cell_length_a 47.6338
_cell_length_b 47.5484
_cell_length_c 47.5383
_cell_angle_alpha 89.857500
_cell_angle_beta 90.016100
_cell_angle_gamma 90.019700
loop_
  _atom_site_label
  _atom_site_type_symbol
  _atom_site_fract_x
  _atom_site_fract_y
  _atom_site_fract_z
O1 O 0.37692 0.33925 -0.02878
 O2 O 0.33757 0.37697 0.02620
 O3 O 0.37663 0.33832 0.02598
 O4 O 0.33819 0.37787 -0.02854
 O5 O 0.30551 0.34482 -0.02921
 O6 O 0.34393 0.30531 0.02526
 O7 O 0.30492 0.34390 0.02546
 O8 O 0.34419 0.30625 -0.02943
 Cu9 Cu 0.36063 0.36144 -0.00115
 Cu10 Cu 0.32135 0.32174 -0.00200
 C11 C 0.36716 0.31637 -0.03838
 C12 C 0.31450 0.36689 0.03496
 C13 C 0.36686 0.31505 0.03469
 C14 C 0.31534 0.36800 -0.03807
 O15 O 0.66112 0.62283 0.02738
 O16 O 0.62369 0.66040 -0.02915
 O17 O 0.66273 0.62193 -0.02735
 O18 O 0.62264 0.66183 0.02558
 O19 O 0.65550 0.69471 0.02554
 O20 O 0.69547 0.65492 -0.02728
 O21 O 0.65649 0.69334 -0.02912
 O22 O 0.69392 0.65576 0.02739
 Cu23 Cu 0.63924 0.63842 -0.00089
 Cu24 Cu 0.67865 0.67800 -0.00087
 C25 C 0.68389 0.63290 0.03686
 C26 C 0.63371 0.68327 -0.03859
 C27 C 0.68593 0.63168 -0.03617
 C28 C 0.63231 0.68507 0.03443
 O29 O 0.62346 0.33985 1.02912
 O30 O 0.66095 0.37743 0.97264
 O31 O 0.62237 0.33851 0.97438
 O32 O 0.66255 0.37827 1.02736
 O33 O 0.69522 0.34523 1.02725
 O34 O 0.65514 0.30558 0.97439
 O35 O 0.69367 0.34444 0.97260
 O36 O 0.65618 0.30686 1.02905
 Cu37 Cu 0.63903 0.36185 1.00089
 Cu38 Cu 0.67835 0.32220 1.00082
 C39 C 0.63343 0.31696 1.03854
 C40 C 0.68369 0.36732 0.96315
 C41 C 0.63198 0.31528 0.96551
 C42 C 0.68574 0.36848 1.03617
 O43 O 0.37707 0.66079 1.02896
 O44 O 0.33758 0.62290 0.97413
 O45 O 0.37663 0.66160 0.97420
 O46 O 0.33838 0.62207 1.02887
 O47 O 0.30568 0.65506 1.02957
 O48 O 0.34390 0.69456 0.97495
 O49 O 0.30490 0.65591 0.97489
 O50 O 0.34430 0.69372 1.02963
 Cu51 Cu 0.36072 0.63851 1.00141
 Cu52 Cu 0.32140 0.67814 1.00229
 C53 C 0.36732 0.68367 1.03854
 C54 C 0.31447 0.63293 0.96540
 C55 C 0.36681 0.68484 0.96549
 C56 C 0.31556 0.63191 1.03844
 O57 O -0.02769 0.37906 0.34050
 O58 O 0.02688 0.34021 0.37957
 O59 O 0.02706 0.37910 0.34078
 O60 O -0.02787 0.34014 0.37923
 O61 O -0.02761 0.30740 0.34627
 O62 O 0.02720 0.34627 0.30791
 O63 O 0.02703 0.30746 0.34662
 O64 O -0.02744 0.34624 0.30762
 Cu65 Cu -0.00042 0.36294 0.36334
 Cu66 Cu -0.00018 0.32355 0.32379
 C67 C -0.03677 0.36918 0.31745
 C68 C 0.03614 0.31726 0.36967
 C69 C 0.03639 0.36924 0.31783
 C70 C -0.03700 0.31717 0.36922
 O71 O 0.02701 0.65941 0.62032
 O72 O -0.02762 0.62070 0.65943
 O73 O -0.02774 0.65949 0.62057
 O74 O 0.02713 0.62064 0.65922
 O75 O 0.02726 0.65357 0.69199
 O76 O -0.02748 0.69233 0.65343
 O77 O -0.02737 0.65362 0.69221
 O78 O 0.02716 0.69226 0.65317
 Cu79 Cu -0.00032 0.63674 0.63657
 Cu80 Cu -0.00008 0.67626 0.67600
 C81 C 0.03629 0.68240 0.63015
 C82 C -0.03671 0.63064 0.68244
 C83 C -0.03686 0.68248 0.63050
 C84 C 0.03643 0.63057 0.68216
 O85 O 1.02746 0.62551 0.33579
 O86 O 0.97319 0.66431 0.37491
 O87 O 0.97292 0.62555 0.33610
 O88 O 1.02773 0.66430 0.37456
 O89 O 1.02754 0.69721 0.34161
 O90 O 0.97275 0.65850 0.30318
 O91 O 0.97302 0.69724 0.34197
 O92 O 1.02727 0.65845 0.30286
 Cu93 Cu 1.00034 0.64159 0.35867
 Cu94 Cu 1.00013 0.68118 0.31908
 C95 C 1.03640 0.63536 0.31264
 C96 C 0.96408 0.68742 0.36513
 C97 C 0.96372 0.63541 0.31306
 C98 C 1.03676 0.68739 0.36466
 O99 O 1.02721 0.37427 0.66418
 O100 O 0.97291 0.33553 0.62494
 O101 O 0.97266 0.37427 0.66380
 O102 O 1.02745 0.33551 0.62537
 O103 O 1.02719 0.30256 0.65828
 O104 O 0.97243 0.34130 0.69669
 O105 O 0.97267 0.30257 0.65785
 O106 O 1.02695 0.34131 0.69708
 Cu107 Cu 1.00008 0.35822 0.64125
 Cu108 Cu 0.99978 0.31861 0.68079
 C109 C 1.03611 0.36441 0.68734
 C110 C 0.96376 0.31242 0.63468
 C111 C 0.96343 0.36441 0.68683
 C112 C 1.03644 0.31240 0.63525
 O113 O 0.33921 -0.02779 0.37695
 O114 O 0.37659 0.02888 0.33951
 O115 O 0.33753 0.02692 0.37796
 O116 O 0.37781 -0.02584 0.33805
 O117 O 0.34503 -0.02583 0.30510
 O118 O 0.30485 0.02682 0.34490
 O119 O 0.34386 0.02881 0.30651
 O120 O 0.30648 -0.02782 0.34393
 Cu121 Cu 0.36109 0.00055 0.36145
 Cu122 Cu 0.32176 0.00049 0.32179
 C123 C 0.31648 -0.03730 0.36681
 C124 C 0.36659 0.03833 0.31663
 C125 C 0.31433 0.03569 0.36818
 C126 C 0.36823 -0.03467 0.31478
 O127 O 0.62285 0.02842 0.66099
 O128 O 0.66220 -0.02666 0.62339
 O129 O 0.62312 -0.02633 0.66203
 O130 O 0.66148 0.02806 0.62227
 O131 O 0.69420 0.02886 0.65528
 O132 O 0.65585 -0.02549 0.69502
 O133 O 0.69488 -0.02579 0.65643
 O134 O 0.65563 0.02919 0.69395
 Cu135 Cu 0.63910 0.00072 0.63884
 Cu136 Cu 0.67843 0.00172 0.67850
 C137 C 0.63265 0.03810 0.68383
 C138 C 0.68529 -0.03537 0.63348
 C139 C 0.63291 -0.03496 0.68532
 C140 C 0.68433 0.03763 0.63208
 O141 O 0.33899 1.02774 0.62317
 O142 O 0.37648 0.97120 0.66069
 O143 O 0.33743 0.97303 0.62222
 O144 O 0.37763 1.02592 0.66204
 O145 O 0.34486 1.02588 0.69500
 O146 O 0.30476 0.97309 0.65526
 O147 O 0.34375 0.97123 0.69368
 O148 O 0.30628 1.02773 0.65618
 Cu149 Cu 0.36094 0.99946 0.63870
 Cu150 Cu 0.32162 0.99949 0.67836
 C151 C 0.31626 1.03721 0.63330
 C152 C 0.36649 0.96174 0.68357
 C153 C 0.31425 0.96421 0.63200
 C154 C 0.36803 1.03476 0.68529
 O155 O 0.62353 0.97210 0.33900
 O156 O 0.66295 1.02704 0.37682
 O157 O 0.62383 1.02684 0.33818
 O158 O 0.66216 0.97231 0.37775
 O159 O 0.69487 0.97161 0.34474
 O160 O 0.65654 1.02611 0.30518
 O161 O 0.69561 1.02628 0.34378
 O162 O 0.65629 0.97144 0.30605
 Cu163 Cu 0.63981 0.99971 0.36127
 Cu164 Cu 0.67912 0.99884 0.32162
 C165 C 0.63329 0.96250 0.31613
 C166 C 0.68605 1.03579 0.36677
 C167 C 0.63361 1.03554 0.31491
 C168 C 0.68499 0.96276 0.36791
 C169 C 0.81390 0.81331 0.51594
 C170 C 0.81420 0.81324 0.48725
 C171 C 0.83430 0.79569 0.47111
 C172 C 0.79532 0.83166 0.47049
 C173 C 0.79641 0.83353 0.53203
 C174 C 0.83198 0.79405 0.53265
 C175 C 0.86339 0.79816 0.47543
 C176 C 0.88209 0.78177 0.45986
 C177 C 0.87194 0.76297 0.43963
 C178 C 0.84301 0.76068 0.43498
 C179 C 0.82428 0.77704 0.45056
 C180 C 0.80686 0.85009 0.45047
 C181 C 0.78957 0.86823 0.43516
 C182 C 0.76052 0.86803 0.43953
 C183 C 0.74875 0.84930 0.45903
 C184 C 0.76606 0.83107 0.47435
 C185 C 0.77728 0.82358 0.55220
 C186 C 0.76058 0.84242 0.56730
 C187 C 0.76302 0.87139 0.56256
 C188 C 0.78241 0.88147 0.54282
 C189 C 0.79914 0.86266 0.52773
 C190 C 0.83127 0.76480 0.52839
 C191 C 0.84954 0.74717 0.54327
 C192 C 0.86845 0.75857 0.56272
 C193 C 0.86867 0.78759 0.56760
 C194 C 0.85048 0.80522 0.55273
 H195 H 0.87156 0.81287 0.49075
 H196 H 0.90445 0.78385 0.46349
 H197 H 0.83494 0.74630 0.41929
 H198 H 0.80195 0.77505 0.44676
 H199 H 0.82934 0.85080 0.44711
 H200 H 0.79888 0.88261 0.42011
 H201 H 0.75670 0.81668 0.48935
 H202 H 0.77507 0.80121 0.55596
 H203 H 0.74574 0.83440 0.58262
 H204 H 0.78462 0.90385 0.53912
 H205 H 0.81419 0.87078 0.51269
 H206 H 0.81684 0.75572 0.51333
 H207 H 0.84912 0.72472 0.53941
 H208 H 0.88318 0.79663 0.58263
 H209 H 0.85130 0.82768 0.55639
 H210 H 0.72628 0.84890 0.46250
 C211 C 0.18600 0.18691 0.51551
 C212 C 0.18609 0.18648 0.48682
 C213 C 0.16786 0.20552 0.47000
 C214 C 0.20351 0.16612 0.47086
 C215 C 0.20514 0.16881 0.53235
 C216 C 0.16587 0.20450 0.53156
 C217 C 0.14935 0.19411 0.45006
 C218 C 0.13115 0.21155 0.43498
 C219 C 0.13138 0.24063 0.43948
 C220 C 0.15026 0.25227 0.45882
 C221 C 0.16854 0.23482 0.47391
 C222 C 0.20094 0.13703 0.47555
 C223 C 0.21756 0.11809 0.46052
 C224 C 0.23670 0.12799 0.44045
 C225 C 0.23901 0.15691 0.43534
 C226 C 0.22241 0.17588 0.45038
 C227 C 0.23436 0.16946 0.52818
 C228 C 0.25188 0.15145 0.54349
 C229 C 0.24039 0.13287 0.56330
 C230 C 0.21140 0.13266 0.56802
 C231 C 0.19388 0.15058 0.55272
 C232 C 0.17585 0.22346 0.55183
 C233 C 0.15708 0.23992 0.56726
 C234 C 0.12815 0.23741 0.56273
 C235 C 0.11804 0.21828 0.54280
 C236 C 0.13678 0.20180 0.52737
 H237 H 0.14856 0.17161 0.44666
 H238 H 0.11666 0.20233 0.42004
 H239 H 0.15070 0.27476 0.46239
 H240 H 0.18299 0.24409 0.48884
 H241 H 0.18606 0.12905 0.49084
 H242 H 0.21546 0.09574 0.46451
 H243 H 0.22451 0.19821 0.44631
 H244 H 0.24350 0.18370 0.51291
 H245 H 0.27431 0.15184 0.53974
 H246 H 0.20229 0.11839 0.58331
 H247 H 0.17144 0.14983 0.55633
 H248 H 0.19819 0.22564 0.55552
 H249 H 0.16511 0.25456 0.58273
 H250 H 0.09568 0.21603 0.53926
 H251 H 0.12865 0.18685 0.51227
 H252 H 0.25365 0.16478 0.41976
 C253 C 0.18639 0.81275 0.48451
 C254 C 0.18644 0.81314 0.51320
 C255 C 0.16818 0.79407 0.52997
 C256 C 0.20381 0.83352 0.52921
 C257 C 0.20552 0.83090 0.46771
 C258 C 0.16627 0.79517 0.46842
 C259 C 0.14965 0.80547 0.54989
 C260 C 0.13143 0.78801 0.56493
 C261 C 0.13165 0.75894 0.56040
 C262 C 0.15054 0.74731 0.54108
 C263 C 0.16884 0.76478 0.52603
 C264 C 0.20117 0.86260 0.52454
 C265 C 0.21774 0.88157 0.53961
 C266 C 0.23688 0.87170 0.55970
 C267 C 0.23925 0.84278 0.56478
 C268 C 0.22271 0.82378 0.54969
 C269 C 0.23473 0.83032 0.47193
 C270 C 0.25225 0.84836 0.45663
 C271 C 0.24075 0.86690 0.43679
 C272 C 0.21176 0.86706 0.43204
 C273 C 0.19425 0.84910 0.44732
 C274 C 0.17626 0.77620 0.44818
 C275 C 0.15749 0.75975 0.43271
 C276 C 0.12855 0.76229 0.43719
 C277 C 0.11844 0.78143 0.45710
 C278 C 0.13718 0.79791 0.47255
 H279 H 0.14887 0.82797 0.55331
 H280 H 0.11693 0.79722 0.57985
 H281 H 0.15097 0.72483 0.53749
 H282 H 0.18330 0.75552 0.51112
 H283 H 0.18628 0.87055 0.50924
 H284 H 0.21559 0.90392 0.53565
 H285 H 0.22484 0.80146 0.55374
 H286 H 0.24388 0.81610 0.48721
 H287 H 0.27467 0.84801 0.46042
 H288 H 0.20265 0.88130 0.41673
 H289 H 0.17182 0.84981 0.44368
 H290 H 0.19860 0.77401 0.44454
 H291 H 0.16552 0.74510 0.41727
 H292 H 0.09608 0.78370 0.46059
 H293 H 0.12904 0.81286 0.48763
 H294 H 0.25390 0.83493 0.58037
 C295 C 0.81368 0.18626 0.48361
 C296 C 0.81396 0.18645 0.51230
 C297 C 0.83405 0.20406 0.52842
 C298 C 0.79502 0.16811 0.52910
 C299 C 0.79620 0.16598 0.46756
 C300 C 0.83176 0.20551 0.46688
 C301 C 0.86315 0.20162 0.52414
 C302 C 0.88184 0.21804 0.53972
 C303 C 0.87168 0.23685 0.55993
 C304 C 0.84274 0.23912 0.56453
 C305 C 0.82403 0.22273 0.54894
 C306 C 0.80650 0.14976 0.54922
 C307 C 0.78914 0.13171 0.56457
 C308 C 0.76010 0.13194 0.56014
 C309 C 0.74840 0.15060 0.54054
 C310 C 0.76577 0.16872 0.52517
 C311 C 0.77714 0.17585 0.44727
 C312 C 0.76046 0.15696 0.43219
 C313 C 0.76284 0.12800 0.43706
 C314 C 0.78215 0.11800 0.45693
 C315 C 0.79886 0.13687 0.47200
 C316 C 0.83102 0.23477 0.47104
 C317 C 0.84929 0.25239 0.45616
 C318 C 0.86824 0.24096 0.43678
 C319 C 0.86850 0.21193 0.43198
 C320 C 0.85030 0.19431 0.44686
 H321 H 0.87133 0.18689 0.50885
 H322 H 0.90420 0.21597 0.53613
 H323 H 0.83467 0.25351 0.58020
 H324 H 0.80169 0.22471 0.55271
 H325 H 0.82897 0.14903 0.55264
 H326 H 0.79841 0.11739 0.57971
 H327 H 0.75646 0.18306 0.51009
 H328 H 0.77498 0.19821 0.44339
 H329 H 0.74569 0.16492 0.41678
 H330 H 0.78431 0.09563 0.46073
 H331 H 0.81385 0.12880 0.48712
 H332 H 0.81656 0.24386 0.48605
 H333 H 0.84885 0.27484 0.45996
 H334 H 0.88304 0.20287 0.41701
 H335 H 0.85114 0.17184 0.44326
 H336 H 0.72594 0.15101 0.53702
 C337 C 0.51400 0.81285 0.81257
 C338 C 0.48538 0.81225 0.81313
 C339 C 0.46824 0.83025 0.79416
 C340 C 0.46972 0.79453 0.83360
 C341 C 0.53116 0.79389 0.83057
 C342 C 0.52966 0.83332 0.79487
 C343 C 0.44801 0.84835 0.80567
 C344 C 0.43248 0.86624 0.78829
 C345 C 0.43684 0.86610 0.75918
 C346 C 0.45649 0.84763 0.74744
 C347 C 0.47203 0.82967 0.76483
 C348 C 0.47442 0.79712 0.86267
 C349 C 0.45933 0.78055 0.88172
 C350 C 0.43921 0.76144 0.87195
 C351 C 0.43419 0.75902 0.84304
 C352 C 0.44928 0.77556 0.82396
 C353 C 0.52741 0.76456 0.82994
 C354 C 0.54306 0.74718 0.84782
 C355 C 0.56278 0.75892 0.86623
 C356 C 0.56707 0.78804 0.86642
 C357 C 0.55143 0.80541 0.84863
 C358 C 0.55009 0.82370 0.77591
 C359 C 0.56523 0.84279 0.75942
 C360 C 0.56024 0.87169 0.76188
 C361 C 0.54012 0.88145 0.78098
 C362 C 0.52499 0.86239 0.79750
 H363 H 0.44469 0.84906 0.82820
 H364 H 0.41732 0.88043 0.79759
 H365 H 0.45997 0.84730 0.72493
 H366 H 0.48719 0.81552 0.75549
 H367 H 0.48964 0.81207 0.87057
 H368 H 0.46325 0.78273 0.90406
 H369 H 0.44519 0.77346 0.80165
 H370 H 0.51222 0.75521 0.81582
 H371 H 0.53963 0.72466 0.84745
 H372 H 0.58228 0.79734 0.88057
 H373 H 0.55472 0.82794 0.84936
 H374 H 0.55416 0.80139 0.77378
 H375 H 0.58083 0.83502 0.74480
 H376 H 0.53623 0.90378 0.78319
 H377 H 0.50977 0.87027 0.81244
 H378 H 0.41859 0.74439 0.83525
 C379 C 0.51417 0.18734 0.18771
 C380 C 0.48555 0.18784 0.18711
 C381 C 0.46843 0.16981 0.20609
 C382 C 0.46987 0.20550 0.16662
 C383 C 0.53128 0.20632 0.16969
 C384 C 0.52988 0.16694 0.20545
 C385 C 0.44822 0.15168 0.19457
 C386 C 0.43268 0.13380 0.21195
 C387 C 0.43701 0.13398 0.24107
 C388 C 0.45666 0.15247 0.25281
 C389 C 0.47221 0.17043 0.23542
 C390 C 0.47456 0.20288 0.13755
 C391 C 0.45947 0.21942 0.11847
 C392 C 0.43935 0.23853 0.12822
 C393 C 0.43432 0.24097 0.15712
 C394 C 0.44942 0.22446 0.17623
 C395 C 0.52747 0.23564 0.17026
 C396 C 0.54305 0.25303 0.15234
 C397 C 0.56276 0.24131 0.13392
 C398 C 0.56711 0.21221 0.13377
 C399 C 0.55155 0.19482 0.15161
 C400 C 0.55032 0.17665 0.22438
 C401 C 0.56553 0.15764 0.24088
 C402 C 0.56062 0.12871 0.23846
 C403 C 0.54049 0.11886 0.21940
 C404 C 0.52529 0.13785 0.20287
 H405 H 0.44491 0.15095 0.17203
 H406 H 0.41753 0.11959 0.20265
 H407 H 0.46012 0.15283 0.27533
 H408 H 0.48735 0.18460 0.24476
 H409 H 0.48979 0.18794 0.12968
 H410 H 0.46339 0.21722 0.09614
 H411 H 0.44533 0.22659 0.19853
 H412 H 0.51229 0.24496 0.18439
 H413 H 0.53957 0.27554 0.15267
 H414 H 0.58231 0.20292 0.11961
 H415 H 0.55488 0.17229 0.15091
 H416 H 0.55434 0.19897 0.22647
 H417 H 0.58114 0.16548 0.25547
 H418 H 0.53665 0.09651 0.21722
 H419 H 0.51006 0.12990 0.18795
 H420 H 0.41872 0.25559 0.16489
 C421 C 0.48592 0.18683 0.81279
 C422 C 0.51453 0.18744 0.81336
 C423 C 0.53165 0.16957 0.79436
 C424 C 0.53013 0.20503 0.83388
 C425 C 0.46879 0.20581 0.83067
 C426 C 0.47032 0.16630 0.79521
 C427 C 0.55179 0.15128 0.80584
 C428 C 0.56707 0.13330 0.78843
 C429 C 0.56254 0.13354 0.75934
 C430 C 0.54303 0.15224 0.74764
 C431 C 0.52775 0.17030 0.76505
 C432 C 0.52534 0.20222 0.86293
 C433 C 0.54011 0.21890 0.88205
 C434 C 0.56000 0.23833 0.87237
 C435 C 0.56518 0.24090 0.84348
 C436 C 0.55040 0.22425 0.82434
 C437 C 0.47263 0.23513 0.82991
 C438 C 0.45727 0.25253 0.84790
 C439 C 0.43773 0.24081 0.86656
 C440 C 0.43328 0.21172 0.86685
 C441 C 0.44864 0.19432 0.84893
 C442 C 0.45000 0.17584 0.77603
 C443 C 0.43516 0.15669 0.75944
 C444 C 0.44032 0.12781 0.76204
 C445 C 0.46027 0.11814 0.78142
 C446 C 0.47510 0.13726 0.79804
 H447 H 0.55518 0.15046 0.82836
 H448 H 0.58214 0.11894 0.79769
 H449 H 0.53944 0.15266 0.72514
 H450 H 0.51265 0.18458 0.75575
 H451 H 0.51023 0.18709 0.87075
 H452 H 0.53609 0.21659 0.90437
 H453 H 0.55454 0.22652 0.80204
 H454 H 0.48774 0.24444 0.81563
 H455 H 0.46080 0.27503 0.84745
 H456 H 0.41819 0.20244 0.88119
 H457 H 0.44529 0.17180 0.84978
 H458 H 0.44586 0.19813 0.77375
 H459 H 0.41967 0.16438 0.74461
 H460 H 0.46428 0.09582 0.78375
 H461 H 0.49025 0.12946 0.81314
 H462 H 0.58063 0.25577 0.83578
 C463 C 0.48635 0.81389 0.18681
 C464 C 0.51497 0.81338 0.18623
 C465 C 0.53207 0.83129 0.20523
 C466 C 0.53060 0.79578 0.16573
 C467 C 0.46924 0.79484 0.16895
 C468 C 0.47071 0.83435 0.20442
 C469 C 0.55218 0.84962 0.19377
 C470 C 0.56747 0.86760 0.21120
 C471 C 0.56298 0.86732 0.24030
 C472 C 0.54349 0.84858 0.25198
 C473 C 0.52819 0.83053 0.23455
 C474 C 0.52577 0.79848 0.13668
 C475 C 0.54054 0.78176 0.11760
 C476 C 0.56046 0.76240 0.12733
 C477 C 0.56568 0.75994 0.15622
 C478 C 0.55091 0.77663 0.17533
 C479 C 0.47315 0.76553 0.16975
 C480 C 0.45778 0.74806 0.15181
 C481 C 0.43817 0.75968 0.13316
 C482 C 0.43367 0.78877 0.13283
 C483 C 0.44903 0.80624 0.15069
 C484 C 0.45043 0.82472 0.22359
 C485 C 0.43556 0.84379 0.24024
 C486 C 0.44066 0.87269 0.23771
 C487 C 0.46057 0.88246 0.21834
 C488 C 0.47542 0.86341 0.20167
 H489 H 0.55555 0.85047 0.17125
 H490 H 0.58252 0.88199 0.20195
 H491 H 0.53992 0.84812 0.27448
 H492 H 0.51312 0.81621 0.24384
 H493 H 0.51062 0.81355 0.12882
 H494 H 0.53648 0.78398 0.09528
 H495 H 0.55508 0.77443 0.19762
 H496 H 0.48830 0.75628 0.18402
 H497 H 0.46135 0.72556 0.15230
 H498 H 0.41852 0.79798 0.11851
 H499 H 0.44563 0.82875 0.14982
 H500 H 0.44633 0.80241 0.22583
 H501 H 0.42010 0.83602 0.25505
 H502 H 0.46454 0.90479 0.21607
 H503 H 0.49054 0.87130 0.18658
 H504 H 0.58115 0.74512 0.16397
 C505 C 0.81315 0.51425 0.81364
 C506 C 0.81327 0.48557 0.81320
 C507 C 0.79425 0.46869 0.83138
 C508 C 0.83334 0.46955 0.79550
 C509 C 0.83131 0.53109 0.79455
 C510 C 0.79576 0.53018 0.83407
 C511 C 0.80562 0.44834 0.84955
 C512 C 0.78821 0.43298 0.86753
 C513 C 0.75920 0.43761 0.86741
 C514 C 0.74759 0.45741 0.84890
 C515 C 0.76501 0.47279 0.83084
 C516 C 0.86243 0.47372 0.79810
 C517 C 0.88112 0.45827 0.78156
 C518 C 0.87093 0.43832 0.76250
 C519 C 0.84199 0.43381 0.76008
 C520 C 0.82328 0.44927 0.77659
 C521 C 0.83055 0.52719 0.76525
 C522 C 0.84883 0.54223 0.74776
 C523 C 0.86780 0.56150 0.75936
 C524 C 0.86809 0.56602 0.78844
 C525 C 0.84988 0.55099 0.80593
 C526 C 0.77678 0.55060 0.82436
 C527 C 0.76018 0.56558 0.84339
 C528 C 0.76256 0.56044 0.87231
 C529 C 0.78179 0.54043 0.88215
 C530 C 0.79842 0.52547 0.86315
 H531 H 0.82807 0.44479 0.85023
 H532 H 0.79740 0.41771 0.88176
 H533 H 0.72515 0.46110 0.84858
 H534 H 0.75578 0.48804 0.81663
 H535 H 0.87063 0.48882 0.81301
 H536 H 0.90348 0.46179 0.78374
 H537 H 0.80093 0.44558 0.77449
 H538 H 0.81606 0.51228 0.75601
 H539 H 0.84836 0.53864 0.72527
 H540 H 0.88264 0.58091 0.79764
 H541 H 0.85074 0.55438 0.82844
 H542 H 0.77462 0.55468 0.80204
 H543 H 0.74547 0.58111 0.83556
 H544 H 0.78395 0.53644 0.90449
 H545 H 0.81336 0.51023 0.87109
 H546 H 0.83389 0.41833 0.74549
 C547 C 0.18647 0.51375 0.18654
 C548 C 0.18667 0.48507 0.18643
 C549 C 0.20408 0.46894 0.16619
 C550 C 0.16852 0.46840 0.20568
 C551 C 0.16636 0.52993 0.20405
 C552 C 0.20549 0.53046 0.16820
 C553 C 0.20139 0.47331 0.13706
 C554 C 0.21799 0.45813 0.11821
 C555 C 0.23723 0.43823 0.12826
 C556 C 0.23965 0.43343 0.15723
 C557 C 0.22307 0.44863 0.17610
 C558 C 0.15000 0.44835 0.19448
 C559 C 0.13181 0.43346 0.21210
 C560 C 0.13206 0.43829 0.24113
 C561 C 0.15096 0.45773 0.25256
 C562 C 0.16923 0.47262 0.23494
 C563 C 0.17637 0.55041 0.22276
 C564 C 0.15763 0.56598 0.23913
 C565 C 0.12869 0.56137 0.23677
 C566 C 0.11856 0.54121 0.21789
 C567 C 0.13728 0.52566 0.20149
 C568 C 0.23472 0.52643 0.16882
 C569 C 0.25215 0.54170 0.15066
 C570 C 0.24053 0.56130 0.13195
 C571 C 0.21150 0.56584 0.13171
 C572 C 0.19409 0.55059 0.14979
 H573 H 0.18643 0.48846 0.12896
 H574 H 0.21580 0.46188 0.09583
 H575 H 0.25438 0.41800 0.16522
 H576 H 0.22526 0.44480 0.19847
 H577 H 0.14918 0.44472 0.17201
 H578 H 0.11730 0.41845 0.20304
 H579 H 0.18368 0.48765 0.24404
 H580 H 0.19871 0.55417 0.22482
 H581 H 0.16568 0.58161 0.25358
 H582 H 0.09620 0.53761 0.21576
 H583 H 0.12912 0.51039 0.18673
 H584 H 0.24397 0.51135 0.18320
 H585 H 0.27460 0.53810 0.15108
 H586 H 0.20230 0.58097 0.11735
 H587 H 0.17163 0.55408 0.14905
 H588 H 0.15140 0.46154 0.27501
 C589 C 0.81308 0.48575 0.18642
 C590 C 0.81323 0.51443 0.18684
 C591 C 0.79423 0.53132 0.16864
 C592 C 0.83334 0.53044 0.20451
 C593 C 0.83125 0.46890 0.20550
 C594 C 0.79567 0.46983 0.16600
 C595 C 0.80565 0.55165 0.15048
 C596 C 0.78826 0.56705 0.13250
 C597 C 0.75924 0.56245 0.13260
 C598 C 0.74760 0.54265 0.15109
 C599 C 0.76500 0.52724 0.16916
 C600 C 0.86242 0.52626 0.20186
 C601 C 0.88115 0.54169 0.21838
 C602 C 0.87101 0.56163 0.23748
 C603 C 0.84208 0.56614 0.23994
 C604 C 0.82333 0.55070 0.22346
 C605 C 0.83055 0.47281 0.23480
 C606 C 0.84883 0.45777 0.25227
 C607 C 0.86775 0.43848 0.24065
 C608 C 0.86799 0.43396 0.21157
 C609 C 0.84978 0.44900 0.19410
 C610 C 0.77665 0.44943 0.17570
 C611 C 0.76004 0.43446 0.15667
 C612 C 0.76245 0.43956 0.12775
 C613 C 0.78172 0.45954 0.11791
 C614 C 0.79836 0.47450 0.13692
 H615 H 0.82810 0.55518 0.14982
 H616 H 0.79748 0.58232 0.11829
 H617 H 0.72515 0.53899 0.15139
 H618 H 0.75574 0.51200 0.18335
 H619 H 0.87058 0.51117 0.18693
 H620 H 0.90351 0.53818 0.21617
 H621 H 0.80099 0.55438 0.22558
 H622 H 0.81609 0.48773 0.24405
 H623 H 0.84839 0.46135 0.27476
 H624 H 0.88251 0.41906 0.20236
 H625 H 0.85060 0.44560 0.17159
 H626 H 0.77447 0.44538 0.19803
 H627 H 0.74529 0.41895 0.16450
 H628 H 0.78390 0.46351 0.09557
 H629 H 0.81333 0.48972 0.12899
 H630 H 0.83403 0.58161 0.25456
 C631 C 0.18607 0.48602 0.81388
 C632 C 0.18629 0.51471 0.81401
 C633 C 0.20374 0.53082 0.83427
 C634 C 0.16820 0.53139 0.79473
 C635 C 0.16596 0.46985 0.79632
 C636 C 0.20507 0.46930 0.83221
 C637 C 0.20108 0.52642 0.86340
 C638 C 0.21772 0.54158 0.88226
 C639 C 0.23696 0.56149 0.87223
 C640 C 0.23935 0.56632 0.84325
 C641 C 0.22274 0.55114 0.82437
 C642 C 0.14969 0.55146 0.80589
 C643 C 0.13156 0.56637 0.78822
 C644 C 0.13186 0.56155 0.75919
 C645 C 0.15075 0.54210 0.74781
 C646 C 0.16896 0.52718 0.76547
 C647 C 0.17598 0.44934 0.77764
 C648 C 0.15725 0.43378 0.76123
 C649 C 0.12831 0.43841 0.76350
 C650 C 0.11817 0.45859 0.78233
 C651 C 0.13687 0.47415 0.79878
 C652 C 0.23431 0.47333 0.83158
 C653 C 0.25174 0.45808 0.84974
 C654 C 0.24012 0.43849 0.86847
 C655 C 0.21109 0.43395 0.86871
 C656 C 0.19368 0.44918 0.85063
 H657 H 0.18612 0.51127 0.87149
 H658 H 0.21555 0.53782 0.90464
 H659 H 0.25408 0.58176 0.83527
 H660 H 0.22490 0.55499 0.80201
 H661 H 0.14884 0.55508 0.82836
 H662 H 0.11706 0.58139 0.79725
 H663 H 0.18340 0.51214 0.75640
 H664 H 0.19831 0.44556 0.77565
 H665 H 0.16532 0.41813 0.74682
 H666 H 0.09581 0.46222 0.78439
 H667 H 0.12870 0.48943 0.81350
 H668 H 0.24356 0.48840 0.81720
 H669 H 0.27419 0.46168 0.84932
 H670 H 0.20189 0.41882 0.88309
 H671 H 0.17122 0.44569 0.85138
 H672 H 0.15123 0.53829 0.72535
 C673 C 0.29865 0.38197 0.05567
 C674 C 0.28495 0.39474 0.07270
 C675 C 0.26856 0.40977 0.09230
 C676 C 0.25436 0.42270 0.10879
 C677 C 0.69885 0.61795 0.05838
 C678 C 0.71185 0.60529 0.07609
 C679 C 0.72764 0.59039 0.09634
 C680 C 0.74170 0.57764 0.11316
 C681 C 0.69867 0.38226 0.94163
 C682 C 0.71170 0.39490 0.92393
 C683 C 0.72753 0.40976 0.90368
 C684 C 0.74162 0.42246 0.88686
 C685 C 0.29856 0.61779 0.94475
 C686 C 0.28482 0.60500 0.92774
 C687 C 0.26838 0.58994 0.90818
 C688 C 0.25413 0.57702 0.89169
 C689 C 0.05720 0.30192 0.38489
 C690 C 0.07470 0.28861 0.39752
 C691 C 0.09487 0.27252 0.41219
 C692 C 0.11175 0.25828 0.42465
 C693 C 0.05738 0.69769 0.61493
 C694 C 0.07489 0.71097 0.60229
 C695 C 0.09510 0.72704 0.58763
 C696 C 0.11200 0.74128 0.57519
 C697 C 0.94365 0.70302 0.38081
 C698 C 0.92686 0.71644 0.39416
 C699 C 0.90753 0.73243 0.40993
 C700 C 0.89124 0.74627 0.42346
 C701 C 0.94334 0.29682 0.61894
 C702 C 0.92656 0.28341 0.60554
 C703 C 0.90726 0.26741 0.58971
 C704 C 0.89097 0.25356 0.57614
 C705 C 0.38149 0.05987 0.30164
 C706 C 0.39412 0.07758 0.28858
 C707 C 0.40899 0.09780 0.27272
 C708 C 0.42175 0.11459 0.25862
 C709 C 0.61737 0.05934 0.69873
 C710 C 0.60469 0.07693 0.71176
 C711 C 0.58997 0.09716 0.72764
 C712 C 0.57746 0.11402 0.74176
 C713 C 0.38140 0.94023 0.69858
 C714 C 0.39402 0.92253 0.71165
 C715 C 0.40887 0.90230 0.72752
 C716 C 0.42160 0.88550 0.74162
 C717 C 0.61798 0.94133 0.30113
 C718 C 0.60526 0.92379 0.28803
 C719 C 0.59049 0.90363 0.27208
 C720 C 0.57794 0.88681 0.25791
 C721 C 0.38248 0.30142 0.94045
 C722 C 0.39523 0.28838 0.92291
 C723 C 0.41007 0.27250 0.90278
 C724 C 0.42269 0.25838 0.88600
 C725 C 0.61875 0.69832 0.93995
 C726 C 0.60605 0.71140 0.92232
 C727 C 0.59105 0.72727 0.90220
 C728 C 0.57818 0.74137 0.88551
 C729 C 0.38271 0.69871 0.05963
 C730 C 0.39552 0.71184 0.07707
 C731 C 0.41041 0.72782 0.09711
 C732 C 0.42308 0.74203 0.11381
 C733 C 0.61849 0.30192 0.06002
 C734 C 0.60581 0.28884 0.07767
 C735 C 0.59088 0.27297 0.09783
 C736 C 0.57807 0.25887 0.11458
 C737 C 0.30125 0.05873 0.61839
 C738 C 0.28817 0.07643 0.60580
 C739 C 0.27225 0.09666 0.59101
 C740 C 0.25807 0.11346 0.57837
 C741 C 0.70110 0.05536 0.38107
 C742 C 0.71484 0.07240 0.39381
 C743 C 0.73131 0.09201 0.40879
 C744 C 0.74560 0.10851 0.42163
 C745 C 0.70118 0.94391 0.61844
 C746 C 0.71494 0.92688 0.60575
 C747 C 0.73144 0.90730 0.59081
 C748 C 0.74575 0.89082 0.57798
 C749 C 0.30151 0.94114 0.38170
 C750 C 0.28845 0.92341 0.39429
 C751 C 0.27257 0.90315 0.40909
 C752 C 0.25842 0.88633 0.42173
 C753 C 0.05656 0.37995 0.70310
 C754 C 0.07337 0.39319 0.71664
 C755 C 0.09271 0.40886 0.73276
 C756 C 0.10901 0.42231 0.74670
 C757 C 0.05686 0.61982 0.29694
 C758 C 0.07369 0.60658 0.28346
 C759 C 0.09305 0.59092 0.26740
 C760 C 0.10938 0.57747 0.25351
 C761 C 0.94213 0.38428 0.30205
 C762 C 0.92459 0.39681 0.28871
 C763 C 0.90436 0.41137 0.27258
 C764 C 0.88743 0.42373 0.25832
 C765 C 0.94218 0.61559 0.69787
 C766 C 0.92464 0.60309 0.71123
 C767 C 0.90440 0.58857 0.72739
 C768 C 0.88747 0.57622 0.74167
 C769 C 0.70103 0.61688 0.94470
 C770 C 0.71478 0.60385 0.92790
 C771 C 0.73121 0.58870 0.90842
 C772 C 0.74543 0.57582 0.89191
 C773 C 0.30096 0.38263 0.94206
 C774 C 0.28781 0.39555 0.92465
 C775 C 0.27188 0.41059 0.90462
 C776 C 0.25773 0.42336 0.88789
 C777 C 0.30124 0.61727 0.05834
 C778 C 0.28814 0.60432 0.07577
 C779 C 0.27225 0.58925 0.09581
 C780 C 0.25812 0.57646 0.11254
 C781 C 0.70086 0.38322 0.05532
 C782 C 0.71463 0.39622 0.07214
 C783 C 0.73107 0.41133 0.09164
 C784 C 0.74531 0.42420 0.10815
 C785 C 0.94308 0.69699 0.61630
 C786 C 0.92545 0.71030 0.60386
 C787 C 0.90513 0.72645 0.58946
 C788 C 0.88815 0.74077 0.57725
 C789 C 0.94292 0.30262 0.38335
 C790 C 0.92528 0.28928 0.39574
 C791 C 0.90495 0.27310 0.41008
 C792 C 0.88796 0.25876 0.42226
 C793 C 0.05595 0.29763 0.62067
 C794 C 0.07292 0.28420 0.60755
 C795 C 0.09240 0.26815 0.59203
 C796 C 0.10879 0.25423 0.57870
 C797 C 0.05629 0.70214 0.37924
 C798 C 0.07328 0.71555 0.39236
 C799 C 0.09279 0.73157 0.40787
 C800 C 0.10920 0.74548 0.42120
 C801 C 0.61755 0.94449 0.70123
 C802 C 0.60450 0.92753 0.71485
 C803 C 0.58913 0.90793 0.73104
 C804 C 0.57596 0.89136 0.74503
 C805 C 0.38399 0.94514 0.29892
 C806 C 0.39711 0.92836 0.28525
 C807 C 0.41235 0.90887 0.26892
 C808 C 0.42528 0.89234 0.25477
 C809 C 0.61821 0.05610 0.29904
 C810 C 0.60512 0.07305 0.28545
 C811 C 0.58967 0.09260 0.26928
 C812 C 0.57643 0.10912 0.25531
 C813 C 0.38375 0.05503 0.70110
 C814 C 0.39684 0.07189 0.71472
 C815 C 0.41205 0.09147 0.73097
 C816 C 0.42496 0.10808 0.74506
 C817 C 0.61664 0.70094 0.05469
 C818 C 0.60363 0.71465 0.07153
 C819 C 0.58853 0.73104 0.09107
 C820 C 0.57571 0.74525 0.10765
 C821 C 0.38224 0.29921 0.05529
 C822 C 0.39526 0.28562 0.07229
 C823 C 0.41058 0.26942 0.09193
 C824 C 0.42369 0.25541 0.10853
 C825 C 0.61629 0.29949 0.94520
 C826 C 0.60325 0.28585 0.92832
 C827 C 0.58812 0.26954 0.90872
 C828 C 0.57528 0.25540 0.89210
 C829 C 0.38214 0.70069 0.94485
 C830 C 0.39513 0.71430 0.92783
 C831 C 0.41044 0.73051 0.90820
 C832 C 0.42355 0.74453 0.89161
 C833 C 0.70011 0.94172 0.38338
 C834 C 0.71318 0.92429 0.39634
 C835 C 0.72900 0.90424 0.41146
 C836 C 0.74304 0.88748 0.42431
 C837 C 0.29827 0.94400 0.61639
 C838 C 0.28452 0.92721 0.60334
 C839 C 0.26812 0.90776 0.58814
 C840 C 0.25394 0.89127 0.57518
 C841 C 0.29831 0.05585 0.38382
 C842 C 0.28452 0.07259 0.39687
 C843 C 0.26806 0.09199 0.41207
 C844 C 0.25383 0.10845 0.42501
 C845 C 0.69948 0.05859 0.61653
 C846 C 0.71259 0.07594 0.60350
 C847 C 0.72847 0.09591 0.58832
 C848 C 0.74256 0.11258 0.57543
 C849 C 0.94309 0.61988 0.29756
 C850 C 0.92616 0.60666 0.28418
 C851 C 0.90671 0.59105 0.26818
 C852 C 0.89034 0.57765 0.25428
 C853 C 0.94284 0.37997 0.70234
 C854 C 0.92595 0.39321 0.71573
 C855 C 0.90654 0.40885 0.73175
 C856 C 0.89022 0.42227 0.74567
 C857 C 0.05759 0.61546 0.69746
 C858 C 0.07514 0.60295 0.71079
 C859 C 0.09536 0.58845 0.72698
 C860 C 0.11225 0.57617 0.74135
 C861 C 0.05758 0.38438 0.30262
 C862 C 0.07518 0.39691 0.28936
 C863 C 0.09545 0.41141 0.27324
 C864 C 0.11239 0.42369 0.25893
   
