data_POSCAR
  _audit_creation_date              2014-09-24
  _audit_creation_method            'ToBaCCo'
  _symmetry_space_group_name_H-M    'P1'
  _symmetry_Int_Tables_number       1
  _symmetry_cell_setting            triclinic
  loop_
  _symmetry_equiv_pos_as_xyz
 x,y,z
_cell_length_a 43.4625
_cell_length_b 40.7977
_cell_length_c 41.2604
_cell_angle_alpha 89.624800
_cell_angle_beta 90.119800
_cell_angle_gamma 89.749200
loop_
  _atom_site_label
  _atom_site_type_symbol
  _atom_site_fract_x
  _atom_site_fract_y
  _atom_site_fract_z
C1 C 0.20172 0.53359 1.04025
 H2 H 0.20083 0.55061 1.02005
 C3 C 0.17986 0.53559 1.06479
 H4 H 0.16312 0.55524 1.06340
 C5 C 0.22546 0.48804 1.06596
 H6 H 0.24255 0.46877 1.06574
 C7 C 0.20430 0.48941 1.09139
 H8 H 0.20569 0.47068 1.11001
 N9 N 0.22376 0.50994 1.04105
 C10 C 0.29565 0.54501 0.97620
 H11 H 0.29632 0.52512 0.95899
 C12 C 0.31690 0.57047 0.97387
 H13 H 0.33399 0.56984 0.95483
 C14 C 0.27362 0.56872 1.02306
 H15 H 0.25711 0.56761 1.04257
 C16 C 0.29445 0.59467 1.02163
 H17 H 0.29333 0.61366 1.03981
 Zn18 Zn 0.24904 0.50728 1.00391
 N19 N 0.27463 0.54452 1.00055
 C20 C 0.22281 0.52608 0.94282
 N21 N 0.22203 0.50446 0.96803
 C22 C 0.20000 0.48099 0.96993
 C23 C 0.17729 0.47882 0.94612
 C24 C 0.20070 0.52454 0.91820
 C25 C 0.29547 0.46742 1.03073
 C26 C 0.31664 0.44158 1.03176
 C27 C 0.29628 0.42237 0.98077
 C28 C 0.27504 0.44814 0.98106
 N29 N 0.27509 0.47008 1.00576
 H30 H 0.24023 0.54487 0.94198
 H31 H 0.19965 0.46446 0.99054
 H32 H 0.15942 0.46064 0.94889
 H33 H 0.20190 0.54181 0.89822
 H34 H 0.29558 0.48572 1.04958
 H35 H 0.33302 0.43985 1.05153
 H36 H 0.29661 0.40547 0.96063
 H37 H 0.25920 0.45118 0.96104
 C38 C 0.31669 0.59561 0.99698
 C39 C 0.18041 0.51299 1.09085
 C40 C 0.31733 0.41903 1.00634
 C41 C 0.17727 0.50089 0.91982
 C42 C 0.79961 0.51807 -0.03176
 H43 H 0.79908 0.53681 -0.01333
 C44 C 0.82221 0.51890 -0.05575
 H45 H 0.83911 0.53827 -0.05513
 C46 C 0.77934 0.46894 -0.05306
 H47 H 0.76335 0.44885 -0.05138
 C48 C 0.80117 0.46918 -0.07791
 H49 H 0.80067 0.44979 -0.09567
 N50 N 0.77879 0.49334 -0.03074
 C51 C 0.71111 0.53766 0.03328
 H52 H 0.71456 0.52207 0.05430
 C53 C 0.69003 0.56346 0.03461
 H54 H 0.67822 0.56796 0.05720
 C55 C 0.72270 0.55027 -0.02143
 H56 H 0.73502 0.54441 -0.04341
 C57 C 0.70113 0.57587 -0.02146
 H58 H 0.69706 0.58933 -0.04375
 Zn59 Zn 0.75163 0.49329 0.00527
 N60 N 0.72699 0.53160 0.00564
 C61 C 0.78282 0.51915 0.05967
 N62 N 0.77679 0.49138 0.04278
 C63 C 0.79112 0.46261 0.05022
 C64 C 0.81201 0.46084 0.07592
 C65 C 0.80392 0.51862 0.08523
 C66 C 0.70737 0.45352 -0.02377
 C67 C 0.68492 0.42929 -0.02573
 C68 C 0.69508 0.41513 0.03018
 C69 C 0.71795 0.43913 0.03080
 N70 N 0.72376 0.45764 0.00397
 H71 H 0.77224 0.54210 0.05250
 H72 H 0.78659 0.44107 0.03585
 H73 H 0.82281 0.43754 0.08157
 H74 H 0.80921 0.54134 0.09739
 H75 H 0.71158 0.46934 -0.04441
 H76 H 0.67295 0.42609 -0.04849
 H77 H 0.69014 0.40167 0.05223
 H78 H 0.73013 0.44380 0.05313
 C79 C 0.68406 0.58254 0.00675
 C80 C 0.82332 0.49421 -0.07938
 C81 C 0.67803 0.40994 0.00164
 C82 C 0.81910 0.48923 0.09355
 C83 C -0.02788 0.29410 0.45705
 H84 H -0.04516 0.29354 0.47589
 C85 C -0.03130 0.31548 0.43082
 H86 H -0.05231 0.32961 0.42995
 C87 C 0.01902 0.27407 0.43604
 H88 H 0.03886 0.25818 0.43852
 C89 C 0.01707 0.29581 0.40977
 H90 H 0.03631 0.29619 0.39330
 N91 N -0.00329 0.27365 0.45901
 C92 C -0.03426 0.19426 0.52208
 H93 H -0.01516 0.19287 0.53890
 C94 C -0.05827 0.17170 0.52433
 H95 H -0.05772 0.15294 0.54302
 C96 C -0.05796 0.21982 0.47665
 H97 H -0.05745 0.23781 0.45741
 C98 C -0.08272 0.19826 0.47849
 H99 H -0.10116 0.20010 0.46085
 Zn100 Zn -0.00037 0.24648 0.49619
 N101 N -0.03456 0.21781 0.49857
 C102 C -0.02115 0.27267 0.55621
 N103 N 0.00054 0.27457 0.53256
 C104 C 0.02257 0.29811 0.53307
 C105 C 0.02367 0.32069 0.55830
 C106 C -0.02104 0.29495 0.58182
 C107 C 0.03640 0.19613 0.47186
 C108 C 0.06140 0.17458 0.47037
 C109 C 0.08478 0.20349 0.51491
 C110 C 0.05911 0.22417 0.51586
 N111 N 0.03562 0.22023 0.49443
 H112 H -0.03893 0.25429 0.55496
 H113 H 0.03925 0.29941 0.51368
 H114 H 0.04175 0.33885 0.55840
 H115 H -0.03893 0.29346 0.59997
 H116 H 0.01720 0.19326 0.45540
 H117 H 0.06093 0.15495 0.45287
 H118 H 0.10337 0.20747 0.53190
 H119 H 0.05795 0.24311 0.53395
 C120 C -0.08293 0.17380 0.50244
 C121 C -0.00835 0.31750 0.40657
 C122 C 0.08608 0.17799 0.49218
 C123 C 0.00153 0.31950 0.58306
 C124 C 0.98148 0.72925 0.56393
 H125 H 0.96422 0.74835 0.56359
 C126 C 0.98170 0.70639 0.58925
 H127 H 0.96501 0.70886 0.60852
 C128 C 1.02393 0.70284 0.53923
 H129 H 1.03998 0.70139 0.51928
 C130 C 1.02471 0.67918 0.56384
 H131 H 1.04139 0.65947 0.56238
 N132 N 1.00243 0.72713 0.53959
 C133 C 0.94343 0.78178 0.48217
 H134 H 0.94530 0.76436 0.46266
 C135 C 0.91852 0.80347 0.48287
 H136 H 0.90151 0.80254 0.46370
 C137 C 0.96427 0.80548 0.52964
 H138 H 0.98250 0.80631 0.54751
 C139 C 0.93969 0.82748 0.53139
 H140 H 0.93890 0.84482 0.55112
 Zn141 Zn 1.00071 0.75583 0.50335
 N142 N 0.96561 0.78311 0.50541
 C143 C 0.97792 0.70513 0.46549
 N144 N 0.99906 0.72960 0.46578
 C145 C 1.01898 0.73396 0.44073
 C146 C 1.01793 0.71332 0.41389
 C147 C 0.97642 0.68361 0.43942
 C148 C 1.05826 0.78127 0.52451
 C149 C 1.08296 0.80310 0.52358
 C150 C 1.05999 0.82914 0.47660
 C151 C 1.03566 0.80709 0.47864
 N152 N 1.03536 0.78356 0.50209
 H153 H 0.96254 0.70206 0.48587
 H154 H 1.03606 0.75303 0.44163
 H155 H 1.03423 0.71669 0.39435
 H156 H 0.95977 0.66394 0.43970
 H157 H 1.05721 0.76283 0.54339
 H158 H 1.10065 0.80129 0.54201
 H159 H 1.05999 0.84718 0.45725
 H160 H 1.01690 0.80864 0.46142
 C161 C 0.91648 0.82684 0.50765
 C162 C 1.00327 0.68060 0.58927
 C163 C 1.08404 0.82750 0.49937
 C164 C 0.99669 0.68757 0.41329
 C165 C 0.46883 -0.02854 0.30365
 H166 H 0.48843 -0.04442 0.30797
 C167 C 0.44418 -0.02859 0.32532
 H168 H 0.44521 -0.04451 0.34638
 C169 C 0.44480 0.01287 0.27190
 H170 H 0.44530 0.02936 0.25135
 C171 C 0.41954 0.01338 0.29275
 H172 H 0.40058 0.02986 0.28745
 N173 N 0.46879 -0.00790 0.27766
 C174 C 0.52812 -0.04389 0.20090
 H175 H 0.54192 -0.02220 0.19708
 C176 C 0.53115 -0.07047 0.18006
 H177 H 0.54681 -0.06768 0.15996
 C178 C 0.48940 -0.07123 0.23060
 H179 H 0.47310 -0.07135 0.25034
 C180 C 0.49175 -0.09857 0.21044
 H181 H 0.47759 -0.11950 0.21620
 Zn182 Zn 0.50440 -0.00652 0.25130
 N183 N 0.50752 -0.04466 0.22554
 C184 C 0.56353 -0.02401 0.27515
 N185 N 0.53905 -0.00352 0.27894
 C186 C 0.53802 0.01833 0.30365
 C187 C 0.56214 0.01996 0.32599
 C188 C 0.58830 -0.02294 0.29669
 C189 C 0.48264 0.02832 0.19749
 C190 C 0.48111 0.05363 0.17465
 C191 C 0.52020 0.08252 0.20467
 C192 C 0.52118 0.05647 0.22686
 N193 N 0.50250 0.03010 0.22291
 H194 H 0.56385 -0.04142 0.25557
 H195 H 0.51808 0.03403 0.30638
 H196 H 0.56034 0.03685 0.34602
 H197 H 0.60768 -0.03921 0.29290
 H198 H 0.46821 0.00697 0.19482
 H199 H 0.46515 0.05175 0.15456
 H200 H 0.53549 0.10314 0.20786
 H201 H 0.53708 0.05721 0.24699
 C202 C 0.51278 -0.09872 0.18430
 C203 C 0.41910 -0.00727 0.32014
 C204 C 0.50017 0.08110 0.17798
 C205 C 0.58772 -0.00099 0.32279
 C206 C 0.53290 -0.02183 0.69229
 H207 H 0.51449 -0.03944 0.69011
 C208 C 0.55702 -0.02195 0.67003
 H209 H 0.55669 -0.03964 0.65060
 C210 C 0.55436 0.02381 0.71922
 H211 H 0.55297 0.04212 0.73790
 C212 C 0.57919 0.02422 0.69784
 H213 H 0.59702 0.04233 0.70115
 N214 N 0.53199 0.00079 0.71630
 C215 C 0.47560 -0.03805 0.79441
 H216 H 0.45871 -0.01858 0.79610
 C217 C 0.47547 -0.06367 0.81692
 H218 H 0.45809 -0.06399 0.83569
 C219 C 0.51906 -0.06086 0.76810
 H220 H 0.53638 -0.05927 0.74942
 C221 C 0.51969 -0.08709 0.79008
 H222 H 0.53759 -0.10552 0.78816
 Zn223 Zn 0.49703 0.00047 0.74356
 N224 N 0.49722 -0.03702 0.77069
 C225 C 0.43905 -0.02148 0.71966
 N226 N 0.46204 0.00077 0.71629
 C227 C 0.46168 0.02331 0.69191
 C228 C 0.43768 0.02389 0.66943
 C229 C 0.41430 -0.02144 0.69800
 C230 C 0.51992 0.04120 0.79241
 C231 C 0.51993 0.06747 0.81389
 C232 C 0.47087 0.08482 0.79187
 C233 C 0.47216 0.05867 0.77022
 N234 N 0.49649 0.03756 0.77083
 H235 H 0.43991 -0.03944 0.73899
 H236 H 0.48049 0.04044 0.68957
 H237 H 0.43855 0.04138 0.64963
 H238 H 0.39602 -0.03903 0.70148
 H239 H 0.53854 0.02351 0.79301
 H240 H 0.53869 0.07014 0.83099
 H241 H 0.45124 0.10127 0.79153
 H242 H 0.45342 0.05488 0.75344
 C243 C 0.49791 -0.08845 0.81514
 C244 C 0.58071 0.00127 0.67263
 C245 C 0.49506 0.08942 0.81386
 C246 C 0.41348 0.00128 0.67221
 C247 C 0.25175 0.00027 0.49274
 C248 C 0.74961 0.00194 0.50156
 C249 C 0.49347 0.25415 0.99850
 C250 C 0.50336 0.74372 -0.00199
 C251 C 1.00178 0.50726 0.24735
 C252 C -0.00007 0.49557 0.75703
 C253 C 0.16063 0.10740 0.49198
 C254 C 0.14638 0.11718 0.46281
 C255 C 0.12274 0.14053 0.46277
 C256 C 0.11241 0.15444 0.49192
 C257 C 0.12695 0.14496 0.52102
 C258 C 0.15087 0.12198 0.52101
 C259 C 0.18479 0.08137 0.49232
 C260 C 0.18638 0.05867 0.51800
 C261 C 0.20837 0.03369 0.51808
 C262 C 0.22978 0.03039 0.49257
 C263 C 0.22756 0.05289 0.46646
 C264 C 0.20576 0.07822 0.46664
 H265 H 0.11250 0.14758 0.43981
 H266 H 0.11945 0.15471 0.54403
 H267 H 0.20850 0.01640 0.53811
 H268 H 0.24192 0.05085 0.44526
 H269 H 0.16161 0.11553 0.54388
 H270 H 0.17007 0.05960 0.53776
 H271 H 0.15297 0.10626 0.44001
 H272 H 0.20526 0.09526 0.44642
 C273 C 0.60969 0.65368 0.00521
 C274 C 0.60871 0.62604 0.02571
 C275 C 0.63272 0.60325 0.02614
 C276 C 0.65899 0.60775 0.00677
 C277 C 0.66048 0.63595 -0.01303
 C278 C 0.63606 0.65850 -0.01395
 C279 C 0.58286 0.67660 0.00327
 C280 C 0.58685 0.71040 -0.00192
 C281 C 0.56139 0.73152 -0.00384
 C282 C 0.53103 0.71953 -0.00119
 C283 C 0.52751 0.68580 0.00580
 C284 C 0.55281 0.66471 0.00708
 H285 H 0.63018 0.58168 0.04127
 H286 H 0.68045 0.64065 -0.02793
 H287 H 0.56540 0.75745 -0.00747
 H288 H 0.50532 0.67519 0.01088
 H289 H 0.63762 0.67933 -0.03024
 H290 H 0.60967 0.72072 -0.00397
 H291 H 0.58925 0.62176 0.04147
 H292 H 0.54859 0.63888 0.01107
 C293 C 0.84267 -0.10232 0.50772
 C294 C 0.83708 -0.13487 0.49863
 C295 C 0.86092 -0.15798 0.49895
 C296 C 0.89087 -0.14895 0.50814
 C297 C 0.89636 -0.11634 0.51724
 C298 C 0.87251 -0.09333 0.51713
 C299 C 0.81769 -0.07753 0.50680
 C300 C 0.81449 -0.05492 0.53199
 C301 C 0.79207 -0.03044 0.53033
 C302 C 0.77175 -0.02793 0.50362
 C303 C 0.77546 -0.05070 0.47821
 C304 C 0.79781 -0.07537 0.48005
 H305 H 0.85583 -0.18300 0.49226
 H306 H 0.91926 -0.10837 0.52379
 H307 H 0.79070 -0.01295 0.54992
 H308 H 0.76212 -0.04911 0.45616
 H309 H 0.87757 -0.06826 0.52370
 H310 H 0.82952 -0.05603 0.55294
 H311 H 0.81420 -0.14248 0.49158
 H312 H 0.80036 -0.09202 0.45989
 C313 C 0.38843 0.34571 1.00321
 C314 C 0.38812 0.37224 0.98115
 C315 C 0.36465 0.39566 0.98195
 C316 C 0.34140 0.39358 1.00527
 C317 C 0.34165 0.36762 1.02766
 C318 C 0.36477 0.34368 1.02644
 C319 C 0.41355 0.32071 1.00205
 C320 C 0.42475 0.30571 1.03052
 C321 C 0.44936 0.28351 1.02947
 C322 C 0.46370 0.27549 0.99983
 C323 C 0.45248 0.29120 0.97147
 C324 C 0.42747 0.31265 0.97247
 H325 H 0.36494 0.41584 0.96475
 H326 H 0.32375 0.36572 1.04580
 H327 H 0.45761 0.27363 1.05224
 H328 H 0.46368 0.28760 0.94836
 H329 H 0.36391 0.32345 1.04351
 H330 H 0.41523 0.31192 1.05391
 H331 H 0.40628 0.37535 0.96353
 H332 H 0.41942 0.32330 0.94990
 C333 C 0.84325 0.10440 0.50285
 C334 C 0.83691 0.13808 0.50474
 C335 C 0.86096 0.16072 0.50476
 C336 C 0.89167 0.14992 0.50370
 C337 C 0.89800 0.11620 0.50260
 C338 C 0.87395 0.09362 0.50184
 C339 C 0.81798 0.08041 0.50162
 C340 C 0.81660 0.05773 0.47638
 C341 C 0.79367 0.03394 0.47595
 C342 C 0.77152 0.03184 0.50093
 C343 C 0.77332 0.05491 0.52633
 C344 C 0.79592 0.07920 0.52628
 H345 H 0.85566 0.18666 0.50566
 H346 H 0.92153 0.10741 0.50155
 H347 H 0.79362 0.01638 0.45637
 H348 H 0.75829 0.05382 0.54708
 H349 H 0.87927 0.06769 0.50057
 H350 H 0.83348 0.05826 0.45711
 H351 H 0.81336 0.14682 0.50550
 H352 H 0.79699 0.09625 0.54626
 C353 C 0.38927 0.66732 -0.00511
 C354 C 0.37493 0.65743 -0.03399
 C355 C 0.35085 0.63482 -0.03329
 C356 C 0.34057 0.62157 -0.00371
 C357 C 0.35435 0.63219 0.02521
 C358 C 0.37839 0.65481 0.02452
 C359 C 0.41662 0.68903 -0.00582
 C360 C 0.42058 0.71347 0.01760
 C361 C 0.44765 0.73183 0.01870
 C362 C 0.47213 0.72540 -0.00287
 C363 C 0.46664 0.70288 -0.02809
 C364 C 0.43960 0.68459 -0.02922
 H365 H 0.34036 0.62756 -0.05595
 H366 H 0.34734 0.62210 0.04837
 H367 H 0.44892 0.75113 0.03642
 H368 H 0.48407 0.69849 -0.04630
 H369 H 0.38925 0.66155 0.04715
 H370 H 0.40264 0.71844 0.03510
 H371 H 0.38247 0.66703 -0.05716
 H372 H 0.43720 0.66618 -0.04781
 C373 C 0.15830 -0.10282 0.49499
 C374 C 0.12812 -0.09328 0.48710
 C375 C 0.10409 -0.11580 0.48879
 C376 C 0.10971 -0.14853 0.49808
 C377 C 0.13998 -0.15804 0.50600
 C378 C 0.16400 -0.13536 0.50463
 C379 C 0.18353 -0.07858 0.49366
 C380 C 0.20432 -0.07579 0.51950
 C381 C 0.22677 -0.05137 0.51934
 C382 C 0.22969 -0.02953 0.49275
 C383 C 0.20863 -0.03284 0.46684
 C384 C 0.18603 -0.05701 0.46724
 H385 H 0.08101 -0.10738 0.48326
 H386 H 0.14522 -0.18312 0.51280
 H387 H 0.24078 -0.04917 0.54083
 H388 H 0.20945 -0.01613 0.44636
 H389 H 0.18713 -0.14334 0.51064
 H390 H 0.20237 -0.09168 0.54052
 H391 H 0.12302 -0.06818 0.48019
 H392 H 0.17026 -0.05865 0.44695
 C393 C 0.60191 0.34168 1.00071
 C394 C 0.60182 0.36974 0.98071
 C395 C 0.62633 0.39167 0.98111
 C396 C 0.65226 0.38583 1.00083
 C397 C 0.65282 0.35725 1.02016
 C398 C 0.62789 0.33560 1.02030
 C399 C 0.57467 0.31952 1.00138
 C400 C 0.57780 0.28561 1.00653
 C401 C 0.55198 0.26519 1.00634
 C402 C 0.52204 0.27756 0.99988
 C403 C 0.51938 0.31201 0.99590
 C404 C 0.54500 0.33238 0.99685
 H405 H 0.62451 0.41357 0.96631
 H406 H 0.67252 0.35150 1.03528
 H407 H 0.55553 0.23933 1.01115
 H408 H 0.49763 0.32424 0.99228
 H409 H 0.62880 0.31447 1.03626
 H410 H 0.60023 0.27461 1.01028
 H411 H 0.58268 0.37498 0.96465
 H412 H 0.54133 0.35853 0.99426
 C413 C 0.49698 0.15746 1.10530
 C414 C 0.49773 0.12421 1.09651
 C415 C 0.49890 0.09961 1.12011
 C416 C 0.49964 0.10756 1.15314
 C417 C 0.49965 0.14076 1.16208
 C418 C 0.49823 0.16548 1.13839
 C419 C 0.49459 0.18330 1.07978
 C420 C 0.51057 0.21301 1.08226
 C421 C 0.50950 0.23612 1.05701
 C422 C 0.49342 0.22973 1.02781
 C423 C 0.47536 0.20100 1.02712
 C424 C 0.47622 0.17816 1.05236
 H425 H 0.49952 0.07426 1.11250
 H426 H 0.50002 0.14755 1.18740
 H427 H 0.52142 0.25900 1.06064
 H428 H 0.46034 0.19555 1.00717
 H429 H 0.49741 0.19081 1.14601
 H430 H 0.52438 0.21821 1.10345
 H431 H 0.49761 0.11714 1.07126
 H432 H 0.46228 0.15632 1.05037
 C433 C 0.00165 0.60473 0.66293
 C434 C 0.02967 0.61533 0.64955
 C435 C 0.03025 0.64019 0.62609
 C436 C 0.00280 0.65487 0.61507
 C437 C -0.02522 0.64430 0.62848
 C438 C -0.02577 0.61972 0.65222
 C439 C 0.00097 0.57790 0.68759
 C440 C -0.02295 0.55489 0.68780
 C441 C -0.02328 0.52939 0.71053
 C442 C 0.00017 0.52600 0.73412
 C443 C 0.02456 0.54882 0.73309
 C444 C 0.02463 0.57457 0.71061
 H445 H 0.05230 0.64795 0.61668
 H446 H -0.04689 0.65460 0.62029
 H447 H -0.04190 0.51186 0.70959
 H448 H 0.04429 0.54681 0.74890
 H449 H -0.04775 0.61256 0.66226
 H450 H -0.04116 0.55605 0.66988
 H451 H 0.05123 0.60407 0.65679
 H452 H 0.04345 0.59185 0.71125
 C453 C 0.50012 0.83584 -0.11156
 C454 C 0.50496 0.82790 -0.14428
 C455 C 0.50456 0.85245 -0.16819
 C456 C 0.49920 0.88533 -0.15981
 C457 C 0.49495 0.89325 -0.12706
 C458 C 0.49550 0.86886 -0.10326
 C459 C 0.49964 0.81016 -0.08585
 C460 C 0.47844 0.81248 -0.06040
 C461 C 0.47953 0.79048 -0.03451
 C462 C 0.50216 0.76560 -0.03280
 C463 C 0.52167 0.76159 -0.05985
 C464 C 0.52068 0.78390 -0.08582
 H465 H 0.50777 0.84565 -0.19328
 H466 H 0.49150 0.91845 -0.11978
 H467 H 0.46322 0.79360 -0.01495
 H468 H 0.53792 0.74155 -0.06118
 H469 H 0.49253 0.87594 -0.07821
 H470 H 0.46112 0.83164 -0.06027
 H471 H 0.50840 0.80267 -0.15146
 H472 H 0.53696 0.78109 -0.10544
 C473 C 0.98984 0.39195 0.33298
 C474 C 0.96951 0.39306 0.35929
 C475 C 0.96973 0.36857 0.38295
 C476 C 0.98984 0.34125 0.38094
 C477 C 1.00871 0.33930 0.35300
 C478 C 1.00887 0.36436 0.32963
 C479 C 0.99253 0.42070 0.31081
 C480 C 0.99785 0.41714 0.27743
 C481 C 1.00084 0.44480 0.25733
 C482 C 0.99954 0.47685 0.27014
 C483 C 0.99241 0.47979 0.30344
 C484 C 0.98983 0.45240 0.32339
 H485 H 0.95497 0.37274 0.40349
 H486 H 1.02352 0.31851 0.34856
 H487 H 1.00439 0.44124 0.23162
 H488 H 0.98813 0.50317 0.31469
 H489 H 1.02467 0.36256 0.30945
 H490 H 0.99926 0.39301 0.26675
 H491 H 0.95383 0.41352 0.36222
 H492 H 0.98576 0.45626 0.34896
 C493 C 0.51642 0.82535 0.11375
 C494 C 0.54174 0.84582 0.11872
 C495 C 0.54109 0.86974 0.14274
 C496 C 0.51475 0.87445 0.16233
 C497 C 0.49005 0.85230 0.15822
 C498 C 0.49096 0.82811 0.13433
 C499 C 0.51533 0.80364 0.08514
 C500 C 0.52256 0.81640 0.05453
 C501 C 0.51918 0.79739 0.02686
 C502 C 0.50774 0.76501 0.02873
 C503 C 0.50344 0.75142 0.05999
 C504 C 0.50621 0.77079 0.08777
 H505 H 0.56165 0.88419 0.14581
 H506 H 0.46889 0.85462 0.17171
 H507 H 0.52575 0.80843 0.00403
 H508 H 0.49686 0.72600 0.06278
 H509 H 0.47100 0.81274 0.13073
 H510 H 0.53021 0.84152 0.05188
 H511 H 0.56196 0.84363 0.10357
 H512 H 0.50131 0.76013 0.11129
 C513 C 0.00183 0.39135 0.65948
 C514 C 0.00994 0.40015 0.62767
 C515 C 0.00973 0.37691 0.60298
 C516 C 0.00163 0.34418 0.60950
 C517 C -0.00651 0.33539 0.64139
 C518 C -0.00652 0.35876 0.66607
 C519 C 0.00184 0.41629 0.68550
 C520 C -0.02276 0.41850 0.70734
 C521 C -0.02355 0.44313 0.73076
 C522 C 0.00078 0.46587 0.73365
 C523 C 0.02535 0.46328 0.71139
 C524 C 0.02595 0.43887 0.68787
 H525 H 0.01543 0.38476 0.57862
 H526 H -0.01245 0.31034 0.64739
 H527 H -0.04390 0.44462 0.74561
 H528 H 0.04413 0.48063 0.71209
 H529 H -0.01261 0.35125 0.69044
 H530 H -0.04202 0.40185 0.70553
 H531 H 0.01593 0.42522 0.62177
 H532 H 0.04528 0.43773 0.67140
 C533 C 0.49283 0.16505 0.88582
 C534 C 0.46947 0.14125 0.88431
 C535 C 0.46977 0.11729 0.86029
 C536 C 0.49379 0.11609 0.83775
 C537 C 0.51708 0.13969 0.83893
 C538 C 0.51641 0.16420 0.86245
 C539 C 0.49312 0.18974 0.91237
 C540 C 0.52095 0.20105 0.92534
 C541 C 0.52132 0.22256 0.95156
 C542 C 0.49383 0.23336 0.96652
 C543 C 0.46595 0.22193 0.95269
 C544 C 0.46560 0.20113 0.92600
 H545 H 0.45178 0.09901 0.85992
 H546 H 0.53571 0.13919 0.82153
 H547 H 0.54370 0.22966 0.95972
 H548 H 0.44391 0.22816 0.96316
 H549 H 0.53443 0.18241 0.86226
 H550 H 0.54276 0.19251 0.91594
 H551 H 0.45132 0.14043 0.90220
 H552 H 0.44355 0.19363 0.91643
 C553 C 1.00018 0.61763 0.33619
 C554 C 1.00022 0.60725 0.36868
 C555 C 0.99842 0.63003 0.39363
 C556 C 0.99702 0.66368 0.38655
 C557 C 0.99689 0.67416 0.35403
 C558 C 0.99810 0.65123 0.32896
 C559 C 1.00262 0.59301 0.31029
 C560 C 0.98047 0.59128 0.28560
 C561 C 0.98043 0.56483 0.26413
 C562 C 1.00233 0.53928 0.26737
 C563 C 1.02648 0.54356 0.28993
 C564 C 1.02622 0.56960 0.31153
 H565 H 0.99881 0.62142 0.41852
 H566 H 0.99574 0.70003 0.34809
 H567 H 0.96290 0.56448 0.24557
 H568 H 1.04456 0.52533 0.29219
 H569 H 0.99805 0.65967 0.30402
 H570 H 0.96249 0.60966 0.28378
 H571 H 1.00157 0.58140 0.37474
 H572 H 1.04402 0.57099 0.32988
 C573 C 1.10964 0.51301 0.16227
 C574 C 1.13923 0.50134 0.16998
 C575 C 1.16256 0.50123 0.14662
 C576 C 1.15710 0.51329 0.11492
 C577 C 1.12730 0.52508 0.10757
 C578 C 1.10401 0.52464 0.13071
 C579 C 1.08432 0.51263 0.18651
 C580 C 1.06191 0.53749 0.18616
 C581 C 1.03628 0.53556 0.20621
 C582 C 1.03198 0.50869 0.22745
 C583 C 1.05603 0.48540 0.22993
 C584 C 1.08152 0.48703 0.20928
 H585 H 1.18514 0.49282 0.15406
 H586 H 1.12112 0.53316 0.08339
 H587 H 1.01901 0.55471 0.20440
 H588 H 1.05546 0.46564 0.24741
 H589 H 1.08124 0.53274 0.12347
 H590 H 1.06389 0.55836 0.16997
 H591 H 1.14457 0.49271 0.19422
 H592 H 1.09860 0.46768 0.21062
 C593 C 0.65499 0.00288 0.60316
 C594 C 0.64407 0.03212 0.61694
 C595 C 0.62000 0.03163 0.63933
 C596 C 0.60651 0.00183 0.64894
 C597 C 0.61769 -0.02743 0.63545
 C598 C 0.64139 -0.02689 0.61266
 C599 C 0.68012 0.00336 0.57870
 C600 C 0.70145 -0.02252 0.57709
 C601 C 0.72398 -0.02315 0.55307
 C602 C 0.72687 0.00286 0.53049
 C603 C 0.70533 0.02881 0.53239
 C604 C 0.68241 0.02908 0.55605
 H605 H 0.61173 0.05474 0.64874
 H606 H 0.60827 -0.05090 0.64256
 H607 H 0.73831 -0.04478 0.55206
 H608 H 0.70598 0.04873 0.51493
 H609 H 0.64871 -0.04988 0.60220
 H610 H 0.70059 -0.04269 0.59423
 H611 H 0.65420 0.05547 0.61056
 H612 H 0.66594 0.04905 0.55593
 C613 C -0.10419 0.49413 0.84854
 C614 C -0.11696 0.46454 0.85979
 C615 C -0.14035 0.46454 0.88302
 C616 C -0.15215 0.49416 0.89528
 C617 C -0.13978 0.52376 0.88354
 C618 C -0.11596 0.52373 0.86083
 C619 C -0.07853 0.49416 0.82447
 C620 C -0.07544 0.51991 0.80192
 C621 C -0.05077 0.52075 0.78027
 C622 C -0.02886 0.49506 0.77934
 C623 C -0.03212 0.46935 0.80216
 C624 C -0.05641 0.46892 0.82431
 H625 H -0.14878 0.44118 0.89171
 H626 H -0.14849 0.54713 0.89182
 H627 H -0.04901 0.54215 0.76492
 H628 H -0.01540 0.44959 0.80304
 H629 H -0.10651 0.54707 0.85336
 H630 H -0.09205 0.53972 0.80097
 H631 H -0.10898 0.44122 0.85061
 H632 H -0.05733 0.44909 0.84181
 C633 C 0.34472 -0.00320 0.38943
 C634 C 0.35923 -0.03316 0.38219
 C635 C 0.38298 -0.03455 0.35946
 C636 C 0.39310 -0.00599 0.34358
 C637 C 0.37852 0.02396 0.35074
 C638 C 0.35456 0.02530 0.37325
 C639 C 0.31987 -0.00166 0.41420
 C640 C 0.31767 0.02506 0.43537
 C641 C 0.29519 0.02580 0.45950
 C642 C 0.27386 0.00002 0.46322
 C643 C 0.27656 -0.02693 0.44201
 C644 C 0.29883 -0.02745 0.41766
 H645 H 0.39336 -0.05811 0.35428
 H646 H 0.38595 0.04655 0.33938
 H647 H 0.29473 0.04642 0.47590
 H648 H 0.26233 -0.04840 0.44445
 H649 H 0.34369 0.04873 0.37791
 H650 H 0.33395 0.04502 0.43401
 H651 H 0.35262 -0.05555 0.39450
 H652 H 0.29975 -0.04840 0.40172
 C653 C 0.10328 0.49785 0.84965
 C654 C 0.11668 0.52785 0.85840
 C655 C 0.14079 0.52883 0.88086
 C656 C 0.15239 0.49979 0.89493
 C657 C 0.13934 0.46975 0.88574
 C658 C 0.11500 0.46881 0.86358
 C659 C 0.07715 0.49687 0.82622
 C660 C 0.07423 0.47087 0.80430
 C661 C 0.04971 0.46983 0.78238
 C662 C 0.02777 0.49549 0.78074
 C663 C 0.03034 0.52089 0.80370
 C664 C 0.05464 0.52168 0.82588
 H665 H 0.14991 0.55246 0.88764
 H666 H 0.14792 0.44684 0.89564
 H667 H 0.04820 0.44848 0.76720
 H668 H 0.01343 0.54046 0.80420
 H669 H 0.10506 0.44527 0.85782
 H670 H 0.09104 0.45123 0.80387
 H671 H 0.10862 0.55068 0.84782
 H672 H 0.05552 0.54158 0.84307
 C673 C 0.66035 -0.00025 0.39443
 C674 C 0.64558 0.02904 0.38498
 C675 C 0.62241 0.02890 0.36145
 C676 C 0.61318 -0.00059 0.34698
 C677 C 0.62811 -0.02984 0.35628
 C678 C 0.65149 -0.02965 0.37956
 C679 C 0.68430 -0.00025 0.42028
 C680 C 0.68604 -0.02601 0.44294
 C681 C 0.70765 -0.02542 0.46799
 C682 C 0.72850 0.00082 0.47123
 C683 C 0.72630 0.02682 0.44851
 C684 C 0.70488 0.02600 0.42323
 H685 H 0.61175 0.05195 0.35458
 H686 H 0.62136 -0.05309 0.34604
 H687 H 0.70781 -0.04537 0.48544
 H688 H 0.74031 0.04850 0.45039
 H689 H 0.66262 -0.05260 0.38591
 H690 H 0.67006 -0.04626 0.44198
 H691 H 0.65147 0.05209 0.39621
 H692 H 0.70427 0.04623 0.40614
 C693 C 0.89315 0.49204 0.16342
 C694 C 0.89418 0.47037 0.13708
 C695 C 0.86993 0.46898 0.11494
 C696 C 0.84367 0.48881 0.11879
 C697 C 0.84200 0.50940 0.14599
 C698 C 0.86650 0.51109 0.16798
 C699 C 0.92047 0.49590 0.18484
 C700 C 0.91735 0.50104 0.21830
 C701 C 0.94337 0.50499 0.23794
 C702 C 0.97334 0.50463 0.22469
 C703 C 0.97605 0.49814 0.19118
 C704 C 0.95015 0.49452 0.17164
 H705 H 0.87234 0.45310 0.09419
 H706 H 0.82192 0.52459 0.15009
 H707 H 0.94015 0.50836 0.26373
 H708 H 0.99809 0.49512 0.17953
 H709 H 0.86496 0.52812 0.18792
 H710 H 0.89482 0.50148 0.22943
 H711 H 0.91403 0.45477 0.13320
 H712 H 0.95352 0.49072 0.14594
 C713 C 0.34146 0.00028 0.59977
 C714 C 0.35505 0.02992 0.60935
 C715 C 0.37782 0.03030 0.63328
 C716 C 0.38807 0.00099 0.64791
 C717 C 0.37436 -0.02865 0.63848
 C718 C 0.35122 -0.02896 0.61491
 C719 C 0.31772 -0.00012 0.57367
 C720 C 0.31633 -0.02616 0.55162
 C721 C 0.29468 -0.02603 0.52657
 C722 C 0.27352 0.00009 0.52262
 C723 C 0.27561 0.02652 0.54449
 C724 C 0.29690 0.02606 0.56988
 H725 H 0.38738 0.05367 0.64024
 H726 H 0.38188 -0.05178 0.64882
 H727 H 0.29462 -0.04632 0.50978
 H728 H 0.26150 0.04822 0.54198
 H729 H 0.34099 -0.05220 0.60857
 H730 H 0.33251 -0.04636 0.55312
 H731 H 0.34857 0.05291 0.59797
 H732 H 0.29713 0.04651 0.58645
   
