data_POSCAR
  _audit_creation_date              2014-09-24
  _audit_creation_method            'ToBaCCo'
  _symmetry_space_group_name_H-M    'P1'
  _symmetry_Int_Tables_number       1
  _symmetry_cell_setting            triclinic
  loop_
  _symmetry_equiv_pos_as_xyz
 x,y,z
_cell_length_a 20.7258
_cell_length_b 20.8346
_cell_length_c 42.6711
_cell_angle_alpha 90.476100
_cell_angle_beta 86.973300
_cell_angle_gamma 120.672300
loop_
  _atom_site_label
  _atom_site_type_symbol
  _atom_site_fract_x
  _atom_site_fract_y
  _atom_site_fract_z
C1 C 0.05734 0.09613 0.54082
 H2 H 0.10597 0.09111 0.53497
 C3 C 0.06516 0.15593 0.55843
 H4 H 0.11991 0.19676 0.56627
 C5 C -0.07239 0.05109 0.53622
 H6 H -0.12514 0.01164 0.52653
 C7 C -0.06744 0.10928 0.55469
 H8 H -0.11659 0.11421 0.55934
 N9 N -0.01009 0.04617 0.52952
 C10 C 0.02427 -0.13829 0.50586
 H11 H 0.02644 -0.13560 0.48048
 C12 C 0.03192 -0.19296 0.52105
 H13 H 0.04027 -0.23215 0.50719
 C14 C 0.00784 -0.09199 0.55471
 H15 H -0.00269 -0.05319 0.56770
 C16 C 0.01393 -0.14651 0.57085
 H17 H 0.00953 -0.14818 0.59625
 Zn18 Zn -0.00389 -0.02083 0.50106
 N19 N 0.01307 -0.08891 0.52280
 C20 C 0.14240 0.03848 0.47041
 N21 N 0.07777 0.04051 0.47260
 C22 C 0.07155 0.09341 0.45691
 C23 C 0.13195 0.14762 0.43829
 C24 C 0.20444 0.09183 0.45198
 C25 C -0.08732 -0.08072 0.44743
 C26 C -0.14965 -0.13088 0.43117
 C27 C -0.22216 -0.17327 0.48059
 C28 C -0.15800 -0.12294 0.49592
 N29 N -0.09232 -0.07804 0.47925
 H30 H 0.14686 -0.00286 0.48370
 H31 H 0.02000 0.09465 0.45966
 H32 H 0.12577 0.19003 0.42674
 H33 H 0.25530 0.08924 0.45070
 H34 H -0.03414 -0.04604 0.43461
 H35 H -0.14288 -0.13157 0.40590
 H36 H -0.27256 -0.20914 0.49490
 H37 H -0.15992 -0.12143 0.52129
 C38 C 0.02610 -0.19785 0.55395
 C39 C 0.00258 0.16338 0.56520
 C40 C -0.21855 -0.17923 0.44766
 C41 C 0.20000 0.14801 0.43592
 C42 C 1.11951 0.07243 0.12147
 H43 H 1.12126 0.12520 0.12078
 C44 C 1.17375 0.06408 0.10425
 H45 H 1.21698 0.11076 0.09021
 C46 C 1.06264 -0.05121 0.14196
 H47 H 1.01983 -0.09540 0.15711
 C48 C 1.11633 -0.06176 0.12533
 H49 H 1.11327 -0.11498 0.12738
 N50 N 1.06552 0.01527 0.13983
 C51 C 0.88279 0.05785 0.15636
 H52 H 0.88058 0.05877 0.18174
 C53 C 0.82279 0.05094 0.14027
 H54 H 0.77531 0.04839 0.15337
 C55 C 0.94411 0.05297 0.10867
 H56 H 0.98931 0.04952 0.09658
 C57 C 0.88592 0.04769 0.09156
 H58 H 0.88755 0.04137 0.06636
 Zn59 Zn 1.00140 0.03567 0.16532
 N60 N 0.94047 0.05595 0.14056
 C61 C 1.06216 0.18124 0.19111
 N62 N 1.06395 0.11694 0.19020
 C63 C 1.11499 0.10925 0.20594
 C64 C 1.16669 0.16732 0.22376
 C65 C 1.11306 0.24104 0.20875
 C66 C 0.87399 -0.10308 0.17643
 C67 C 0.81157 -0.15789 0.19399
 C68 C 0.87512 -0.10261 0.24134
 C69 C 0.93560 -0.04729 0.22287
 N70 N 0.93327 -0.04782 0.19103
 H71 H 1.02170 0.18639 0.17802
 H72 H 1.11592 0.05787 0.20430
 H73 H 1.20717 0.15976 0.23570
 H74 H 1.11011 0.29137 0.20943
 H75 H 0.87312 -0.10159 0.15113
 H76 H 0.76314 -0.19931 0.18208
 H77 H 0.87621 -0.10006 0.26668
 H78 H 0.98235 -0.00211 0.23411
 C79 C 0.82294 0.04339 0.10759
 C80 C 1.17318 -0.00336 0.10639
 C81 C 0.81119 -0.15693 0.22682
 C82 C 1.16639 0.23450 0.22536
 C83 C 0.07105 0.93890 0.87284
 H84 H 0.01991 0.88757 0.86810
 C85 C 0.12642 0.93639 0.88879
 H86 H 0.11732 0.88299 0.89673
 C87 C 0.14639 1.07057 0.86662
 H88 H 0.15453 1.12210 0.85686
 C89 C 0.20299 1.07077 0.88336
 H90 H 0.25470 1.12275 0.88677
 N91 N 0.08261 1.00481 0.86138
 C92 C -0.14743 0.93573 0.84249
 H93 H -0.14712 0.93043 0.81725
 C94 C -0.21207 0.92525 0.85919
 H95 H -0.26082 0.91084 0.84614
 C96 C -0.08109 0.96805 0.88899
 H97 H -0.02920 0.98709 0.90038
 C98 C -0.14356 0.96040 0.90643
 H99 H -0.13878 0.97129 0.93127
 Zn100 Zn 0.00841 0.99112 0.83403
 N101 N -0.08356 0.95716 0.85751
 C102 C -0.05423 0.85367 0.79933
 N103 N 0.00680 0.92146 0.80486
 C104 C 0.07639 0.94102 0.79248
 C105 C 0.08754 0.89078 0.77480
 C106 C -0.04579 0.80210 0.78091
 C107 C 0.02137 1.13066 0.83018
 C108 C 0.01715 1.18765 0.81520
 C109 C 0.03572 1.14233 0.76523
 C110 C 0.03832 1.08543 0.78113
 N111 N 0.02948 1.07972 0.81300
 H112 H -0.10871 0.83837 0.81005
 H113 H 0.12402 0.99489 0.79761
 H114 H 0.14377 0.90669 0.76592
 H115 H -0.09415 0.74758 0.77716
 H116 H 0.01324 1.12409 0.85546
 H117 H 0.00751 1.22585 0.82920
 H118 H 0.03924 1.14382 0.73982
 H119 H 0.04288 1.04343 0.76785
 C120 C -0.21016 0.94021 0.89153
 C121 C 0.19372 1.00256 0.89367
 C122 C 0.02217 1.19257 0.78229
 C123 C 0.02626 0.82011 0.76923
 C124 C 0.63449 -0.01264 -0.03050
 C125 C 0.66831 -0.00579 -0.00192
 C126 C 0.63874 0.00567 0.02647
 C127 C 0.57381 0.01202 0.02657
 C128 C 0.54084 0.00866 -0.00211
 C129 C 0.57368 0.00079 -0.03082
 C130 C 0.54799 0.01209 -0.05900
 C131 C 0.48445 0.01855 -0.05907
 C132 C 0.44453 0.01519 -0.03091
 C133 C 0.47496 0.01382 -0.00215
 C134 C 0.54235 0.02451 0.05435
 C135 C 0.47537 0.02480 0.05449
 C136 C 0.43917 0.01662 0.02660
 C137 C 0.36935 0.01348 0.02658
 C138 C 0.34021 0.01526 -0.00204
 C139 C 0.37640 0.01558 -0.03073
 H140 H 0.57790 0.01819 -0.08133
 H141 H 0.46736 0.02687 -0.08147
 H142 H 0.56902 0.03461 0.07637
 H143 H 0.45324 0.03354 0.07661
 H144 H 0.71497 -0.01522 -0.00104
 H145 H 0.28573 0.01076 -0.00201
 C146 C -0.00211 0.34415 0.64274
 C147 C -0.00383 0.31340 0.67201
 C148 C -0.00195 0.35004 0.69996
 C149 C 0.00383 0.42088 0.69850
 C150 C 0.00232 0.45110 0.66903
 C151 C -0.00254 0.41169 0.64120
 C152 C -0.00871 0.44032 0.61253
 C153 C -0.00545 0.50856 0.61090
 C154 C 0.00607 0.55192 0.63772
 C155 C 0.00754 0.52180 0.66724
 C156 C 0.01338 0.46348 0.72547
 C157 C 0.01764 0.53220 0.72380
 C158 C 0.01531 0.56266 0.69492
 C159 C 0.02043 0.63285 0.69298
 C160 C 0.01903 0.66182 0.66378
 C161 C 0.01457 0.62383 0.63601
 H162 H -0.01732 0.40955 0.59108
 H163 H -0.01295 0.52639 0.58835
 H164 H 0.01918 0.44519 0.74820
 H165 H 0.02302 0.56127 0.74550
 H166 H -0.00483 0.26091 0.67296
 H167 H 0.02661 0.71725 0.66255
 C168 C 0.61980 0.65195 0.36686
 C169 C 0.65363 0.69281 0.33868
 C170 C 0.62294 0.66608 0.30965
 C171 C 0.55694 0.59502 0.30821
 C172 C 0.52437 0.55081 0.33602
 C173 C 0.55755 0.57776 0.36515
 C174 C 0.53051 0.52778 0.39114
 C175 C 0.46815 0.45632 0.38948
 C176 C 0.43118 0.43062 0.36146
 C177 C 0.45912 0.47859 0.33456
 C178 C 0.52433 0.56528 0.27956
 C179 C 0.45718 0.49752 0.27865
 C180 C 0.42229 0.45430 0.30607
 C181 C 0.35332 0.38582 0.30553
 C182 C 0.32767 0.33835 0.33203
 C183 C 0.36697 0.35841 0.35950
 H184 H 0.55869 0.54214 0.41289
 H185 H 0.44883 0.42195 0.41063
 H186 H 0.55027 0.59337 0.25734
 H187 H 0.43449 0.47797 0.25596
 H188 H 0.70148 0.74905 0.33928
 H189 H 0.27632 0.28461 0.33123
 N190 N 0.06718 0.34777 0.59279
 N191 N 0.06925 0.30020 0.57276
 C192 C 0.01305 0.23090 0.58092
 C193 C -0.02655 0.23423 0.60749
 C194 C 0.00983 0.30971 0.61423
 H195 H -0.07239 0.18822 0.62090
 H196 H 0.10661 0.40489 0.59252
 H197 H 0.10961 0.31500 0.55423
 N198 N 0.62341 0.73116 0.26031
 N199 N 0.67284 0.77617 0.23832
 C200 C 0.74183 0.79189 0.24555
 C201 C 0.73616 0.75526 0.27343
 C202 C 0.65970 0.71581 0.28162
 H203 H 0.78098 0.75617 0.28571
 H204 H 0.56605 0.71255 0.26086
 H205 H 0.65953 0.79725 0.21916
 N206 N 0.32083 -0.05054 -0.07979
 N207 N 0.27200 -0.05450 -0.09946
 C208 C 0.25460 -0.00188 -0.09222
 C209 C 0.29422 0.03759 -0.06680
 C210 C 0.33562 0.00473 -0.05958
 H211 H 0.28899 0.07978 -0.05387
 H212 H 0.33978 -0.08831 -0.07907
 H213 H 0.24881 -0.09466 -0.11673
 N214 N 0.07063 0.66729 0.58121
 N215 N 0.07398 0.71448 0.55977
 C216 C 0.03228 0.74364 0.57053
 C217 C 0.00042 0.71295 0.59999
 C218 C 0.02544 0.66413 0.60583
 H219 H -0.03483 0.72541 0.61536
 H220 H 0.10189 0.64075 0.57948
 H221 H 0.10708 0.72867 0.53882
 N222 N 0.28867 0.40820 0.26250
 N223 N 0.23863 0.36840 0.24183
 C224 C 0.22152 0.29678 0.24421
 C225 C 0.26292 0.29128 0.26746
 C226 C 0.30505 0.36308 0.27833
 H227 H 0.26146 0.24180 0.27602
 H228 H 0.30929 0.46485 0.26625
 H229 H 0.21685 0.39057 0.22659
 N230 N 0.61532 -0.07706 -0.08062
 N231 N 0.65894 -0.09081 -0.10251
 C232 C 0.72851 -0.06084 -0.09190
 C233 C 0.73012 -0.02798 -0.06310
 C234 C 0.65910 -0.03711 -0.05723
 H235 H 0.77824 0.00314 -0.04909
 H236 H 0.55734 -0.10046 -0.08153
 H237 H 0.63833 -0.12166 -0.12272
 N238 N 0.30651 -0.05451 0.07729
 N239 N 0.25352 -0.06059 0.09777
 C240 C 0.23241 -0.01197 0.08945
 C241 C 0.27421 0.02688 0.06248
 C242 C 0.32076 -0.00155 0.05560
 H243 H 0.26958 0.06801 0.04903
 H244 H 0.33022 -0.08829 0.07760
 H245 H 0.23231 -0.09787 0.11694
 N246 N 0.60367 0.67510 0.42240
 N247 N 0.64895 0.72337 0.44507
 C248 C 0.71898 0.76630 0.43181
 C249 C 0.71907 0.74616 0.40055
 C250 C 0.64660 0.68794 0.39565
 H251 H 0.76653 0.76844 0.38364
 H252 H 0.54536 0.64126 0.42546
 H253 H 0.62895 0.72588 0.46772
 N254 N -0.04932 0.30618 0.75559
 N255 N -0.04166 0.26613 0.77733
 C256 C 0.00657 0.24516 0.76592
 C257 C 0.03088 0.27358 0.73556
 C258 C -0.00512 0.31280 0.73002
 H259 H 0.06830 0.26571 0.71948
 H260 H -0.08668 0.32581 0.75792
 H261 H -0.07208 0.25052 0.79898
 N262 N 0.63593 -0.03508 0.08192
 N263 N 0.68429 -0.02353 0.10331
 C264 C 0.75441 0.02298 0.09106
 C265 C 0.75045 0.04190 0.06042
 C266 C 0.67403 0.00512 0.05578
 H267 H 0.79643 0.07727 0.04387
 H268 H 0.57800 -0.07164 0.08504
 H269 H 0.66931 -0.04958 0.12547
 N270 N 0.38168 0.28118 0.40013
 N271 N 0.33774 0.22484 0.41967
 C272 C 0.26597 0.20782 0.41748
 C273 C 0.26473 0.25589 0.39552
 C274 C 0.33910 0.30181 0.38530
 H275 H 0.21661 0.25684 0.38746
 H276 H 0.43956 0.30361 0.39650
 H277 H 0.35736 0.19911 0.43415
 N278 N 0.09679 0.70693 0.73703
 N279 N 0.09923 0.75745 0.75658
 C280 C 0.03924 0.76493 0.75275
 C281 C -0.00334 0.71711 0.72968
 C282 C 0.03526 0.68132 0.72036
 H283 H -0.05285 0.71200 0.71991
 H284 H 0.13830 0.69270 0.73429
 H285 H 0.14208 0.78703 0.77188
   
