data_POSCAR
  _audit_creation_date              2014-09-24
  _audit_creation_method            'ToBaCCo'
  _symmetry_space_group_name_H-M    'P1'
  _symmetry_Int_Tables_number       1
  _symmetry_cell_setting            triclinic
  loop_
  _symmetry_equiv_pos_as_xyz
 x,y,z
_cell_length_a 21.3062
_cell_length_b 21.3125
_cell_length_c 34.9075
_cell_angle_alpha 89.890400
_cell_angle_beta 90.924900
_cell_angle_gamma 89.991400
loop_
  _atom_site_label
  _atom_site_type_symbol
  _atom_site_fract_x
  _atom_site_fract_y
  _atom_site_fract_z
O1 O -0.05083 0.55978 0.96229
 O2 O -0.05255 0.43706 1.03685
 O3 O -0.05358 0.55956 1.03678
 O4 O -0.05192 0.43737 0.96244
 O5 O 0.05189 0.43716 0.96432
 O6 O 0.05022 0.55967 1.03872
 O7 O 0.05124 0.43719 1.03873
 O8 O 0.05297 0.55958 0.96424
 Cu9 Cu -0.06269 0.49850 0.99941
 Cu10 Cu 0.06205 0.49844 1.00170
 C11 C 0.00143 0.58052 0.95079
 C12 C -0.00087 0.41610 1.05017
 C13 C -0.00203 0.58048 1.05017
 C14 C 0.00019 0.41634 0.95100
 O15 O 0.56407 -0.04783 0.53738
 O16 O 0.43802 -0.04771 0.46379
 O17 O 0.56042 -0.04880 0.46292
 O18 O 0.44159 -0.04887 0.53825
 O19 O 0.44142 0.05489 0.53822
 O20 O 0.56060 0.05497 0.46280
 O21 O 0.43818 0.05606 0.46375
 O22 O 0.56392 0.05593 0.53729
 Cu23 Cu 0.50103 -0.05876 0.50060
 Cu24 Cu 0.50104 0.06593 0.50052
 C25 C 0.58552 0.00410 0.54960
 C26 C 0.41663 0.00426 0.45149
 C27 C 0.58082 0.00302 0.45027
 C28 C 0.42114 0.00292 0.55079
 C29 C 0.12293 0.00576 0.26647
 H30 H 0.12679 0.00628 0.23561
 C31 C 0.17709 0.00711 0.28960
 H32 H 0.22287 0.00853 0.27658
 C33 C 0.05866 0.00351 0.32131
 H34 H 0.01256 0.00298 0.33366
 C35 C 0.11153 0.00488 0.34543
 H36 H 0.10589 0.00471 0.37622
 N37 N 0.06522 0.00286 0.28258
 C38 C -0.05636 -0.08618 0.19671
 H39 H -0.09476 -0.05296 0.19562
 C40 C -0.05785 -0.13923 0.17329
 H41 H -0.09741 -0.14692 0.15399
 C42 C 0.04246 -0.11662 0.22292
 H43 H 0.08121 -0.10805 0.24251
 C44 C 0.04281 -0.17028 0.20001
 H45 H 0.08215 -0.20243 0.20173
 Zn46 Zn -0.00634 -0.00040 0.24964
 N47 N -0.00609 -0.07518 0.22031
 C48 C -0.00356 0.06367 0.17823
 N49 N -0.00378 0.07072 0.21698
 C50 C -0.00077 0.12862 0.23333
 C51 C 0.00038 0.18246 0.21042
 C52 C -0.00241 0.11621 0.15432
 C53 C -0.09105 -0.05024 0.30201
 C54 C -0.14353 -0.05166 0.32545
 C55 C -0.17535 0.04877 0.29940
 C56 C -0.12223 0.04835 0.27645
 N57 N -0.08067 -0.00011 0.27875
 H58 H -0.00419 0.01742 0.16570
 H59 H 0.00012 0.13287 0.26422
 H60 H 0.00201 0.22840 0.22363
 H61 H -0.00283 0.11018 0.12351
 H62 H -0.05772 -0.08855 0.30287
 H63 H -0.15069 -0.09109 0.34452
 H64 H -0.20758 0.08807 0.29797
 H65 H -0.11413 0.08701 0.25714
 C66 C -0.00749 -0.18130 0.17469
 C67 C 0.17124 0.00620 0.32945
 C68 C -0.18568 -0.00137 0.32441
 C69 C -0.00086 0.17611 0.17055
 C70 C 0.00038 0.12776 0.76612
 H71 H -0.00034 0.13225 0.73524
 C72 C -0.00087 0.18142 0.78906
 H73 H -0.00240 0.22746 0.77588
 C74 C 0.00285 0.06238 0.82118
 H75 H 0.00339 0.01603 0.83369
 C76 C 0.00159 0.11473 0.84512
 H77 H 0.00185 0.10844 0.87593
 N78 N 0.00329 0.06973 0.78244
 C79 C 0.09108 -0.05062 0.69754
 H80 H 0.05775 -0.08890 0.69655
 C81 C 0.14383 -0.05193 0.67432
 H82 H 0.15116 -0.09124 0.65527
 C83 C 0.12210 0.04775 0.72326
 H84 H 0.11386 0.08626 0.74257
 C85 C 0.17548 0.04827 0.70053
 H86 H 0.20774 0.08749 0.70211
 Zn87 Zn 0.00606 -0.00119 0.74979
 N88 N 0.08052 -0.00065 0.72079
 C89 C -0.05890 0.00283 0.67807
 N90 N -0.06545 0.00213 0.71681
 C91 C -0.12316 0.00498 0.73291
 C92 C -0.17732 0.00638 0.70979
 C93 C -0.11178 0.00424 0.65395
 C94 C 0.05615 -0.08706 0.80281
 C95 C 0.05761 -0.14005 0.82641
 C96 C -0.04308 -0.17106 0.79981
 C97 C -0.04269 -0.11747 0.77670
 N98 N 0.00588 -0.07607 0.77920
 H99 H -0.01279 0.00230 0.66573
 H100 H -0.12701 0.00546 0.76378
 H101 H -0.22310 0.00779 0.72281
 H102 H -0.10615 0.00413 0.62316
 H103 H 0.09455 -0.05386 0.80381
 H104 H 0.09716 -0.14771 0.84575
 H105 H -0.08245 -0.20316 0.79821
 H106 H -0.08146 -0.10889 0.75711
 C107 C 0.18605 -0.00172 0.67556
 C108 C 0.00016 0.17475 0.82893
 C109 C 0.00720 -0.18205 0.82517
 C110 C -0.17149 0.00556 0.66995
 C111 C -0.00293 -0.37052 0.07826
 C112 C -0.00401 -0.32845 0.10127
 C113 C -0.00542 -0.27821 0.12753
 C114 C -0.00653 -0.23448 0.14936
 C115 C -0.00124 0.36919 0.07652
 C116 C -0.00121 0.32650 0.09922
 C117 C -0.00095 0.27530 0.12493
 C118 C -0.00078 0.23060 0.14613
 C119 C 0.37312 0.00255 0.57913
 C120 C 0.33173 0.00177 0.60225
 C121 C 0.28212 0.00053 0.62856
 C122 C 0.23883 -0.00058 0.65035
 C123 C -0.36665 0.00427 0.57575
 C124 C -0.32329 0.00468 0.59836
 C125 C -0.27147 0.00525 0.62406
 C126 C -0.22635 0.00558 0.64534
 C127 C 0.00236 -0.37057 0.92252
 C128 C 0.00349 -0.32865 0.89932
 C129 C 0.00497 -0.27861 0.87281
 C130 C 0.00615 -0.23505 0.85075
 C131 C 0.00054 0.36701 0.92311
 C132 C 0.00047 0.32450 0.90039
 C133 C 0.00021 0.27353 0.87464
 C134 C 0.00004 0.22903 0.85338
 C135 C -0.37140 0.00272 0.42179
 C136 C -0.33028 0.00198 0.39849
 C137 C -0.28105 0.00079 0.37193
 C138 C -0.23809 -0.00028 0.34989
 C139 C 0.36620 0.00456 0.42377
 C140 C 0.32289 0.00507 0.40113
 C141 C 0.27114 0.00574 0.37538
 C142 C 0.22608 0.00616 0.35406
   
