data_POSCAR
  _audit_creation_date              2014-09-24
  _audit_creation_method            'ToBaCCo'
  _symmetry_space_group_name_H-M    'P1'
  _symmetry_Int_Tables_number       1
  _symmetry_cell_setting            triclinic
  loop_
  _symmetry_equiv_pos_as_xyz
 x,y,z
_cell_length_a 51.6967
_cell_length_b 51.6961
_cell_length_c 51.6325
_cell_angle_alpha 90.202300
_cell_angle_beta 90.305700
_cell_angle_gamma 90.287400
loop_
  _atom_site_label
  _atom_site_type_symbol
  _atom_site_fract_x
  _atom_site_fract_y
  _atom_site_fract_z
C1 C 0.72565 0.66774 0.96892
 H2 H 0.74434 0.66793 0.95959
 C3 C 0.70503 0.68146 0.95811
 H4 H 0.70786 0.69241 0.94049
 C5 C 0.69861 0.65207 1.00243
 H6 H 0.69589 0.63997 1.01919
 C7 C 0.67754 0.66550 0.99228
 H8 H 0.65880 0.66390 1.00146
 N9 N 0.72207 0.65331 0.99062
 C10 C 0.79797 0.63769 1.02434
 H11 H 0.79603 0.61695 1.02637
 C12 C 0.82044 0.65013 1.03286
 H13 H 0.83590 0.63897 1.04152
 C14 C 0.78012 0.67759 1.01061
 H15 H 0.76427 0.68818 1.00208
 C16 C 0.80236 0.69084 1.01892
 H17 H 0.80367 0.71164 1.01670
 Zn18 Zn 0.74942 0.63189 1.00216
 N19 N 0.77852 0.65143 1.01319
 C20 C 0.78324 0.61137 0.96454
 N21 N 0.75870 0.61042 0.97393
 C22 C 0.74005 0.59580 0.96214
 C23 C 0.74586 0.58129 0.94002
 C24 C 0.78984 0.59717 0.94256
 C25 C 0.73371 0.62560 1.05305
 C26 C 0.72508 0.61282 1.07514
 C27 C 0.72704 0.57237 1.05153
 C28 C 0.73569 0.58598 1.02983
 N29 N 0.73844 0.61217 1.03089
 H30 H 0.79763 0.62361 0.97365
 H31 H 0.72056 0.59581 0.96967
 H32 H 0.73087 0.56994 0.93053
 H33 H 0.80935 0.59832 0.93507
 H34 H 0.73637 0.64637 1.05339
 H35 H 0.72102 0.62387 1.09253
 H36 H 0.72454 0.55157 1.05039
 H37 H 0.74000 0.57563 1.01218
 C38 C 0.82273 0.67691 1.03002
 C39 C 0.68070 0.68010 0.96978
 C40 C 0.72152 0.58598 1.07435
 C41 C 0.77098 0.58212 0.93011
 C42 C 0.72996 0.33783 0.52306
 H43 H 0.74867 0.33691 0.53250
 C44 C 0.70909 0.32371 0.53289
 H45 H 0.71173 0.31174 0.54987
 C46 C 0.70320 0.35560 0.49024
 H47 H 0.70071 0.36861 0.47413
 C48 C 0.68188 0.34181 0.49943
 H49 H 0.66317 0.34408 0.49017
 N50 N 0.72666 0.35345 0.50214
 C51 C 0.80309 0.36907 0.47007
 H52 H 0.80209 0.38996 0.46938
 C53 C 0.82490 0.35640 0.46073
 H54 H 0.84080 0.36754 0.45283
 C55 C 0.78343 0.32901 0.48095
 H56 H 0.76711 0.31845 0.48860
 C57 C 0.80496 0.31554 0.47177
 H58 H 0.80523 0.29460 0.47248
 Zn59 Zn 0.75455 0.37492 0.49185
 N60 N 0.78304 0.35533 0.48015
 C61 C 0.78885 0.39347 0.53073
 N62 N 0.76435 0.39501 0.52107
 C63 C 0.74597 0.40941 0.53311
 C64 C 0.75202 0.42320 0.55571
 C65 C 0.79569 0.40695 0.55322
 C66 C 0.73878 0.38381 0.44120
 C67 C 0.73027 0.39776 0.41975
 C68 C 0.73360 0.43701 0.44517
 C69 C 0.74209 0.42229 0.46621
 N70 N 0.74407 0.39612 0.46397
 H71 H 0.80301 0.38141 0.52137
 H72 H 0.72651 0.40987 0.52532
 H73 H 0.73726 0.43445 0.56531
 H74 H 0.81517 0.40542 0.56089
 H75 H 0.74081 0.36302 0.43991
 H76 H 0.72565 0.38772 0.40185
 H77 H 0.73162 0.45777 0.44715
 H78 H 0.74686 0.43175 0.48431
 C79 C 0.82589 0.32941 0.46165
 C80 C 0.68479 0.32593 0.52108
 C81 C 0.72746 0.42456 0.42181
 C82 C 0.77711 0.42185 0.56587
 C83 C 0.22963 -0.16142 0.02261
 H84 H 0.24834 -0.16236 0.03205
 C85 C 0.20873 -0.17544 0.03251
 H86 H 0.21133 -0.18735 0.04954
 C87 C 0.20292 -0.14373 -0.01028
 H88 H 0.20047 -0.13078 -0.02646
 C89 C 0.18157 -0.15742 -0.00104
 H90 H 0.16287 -0.15515 -0.01032
 N91 N 0.22637 -0.14589 0.00162
 C92 C 0.30278 -0.13070 -0.03068
 H93 H 0.30184 -0.10982 -0.03151
 C94 C 0.32455 -0.14349 -0.03996
 H95 H 0.34046 -0.13245 -0.04797
 C96 C 0.28306 -0.17064 -0.01947
 H97 H 0.26672 -0.18110 -0.01172
 C98 C 0.30453 -0.18423 -0.02859
 H99 H 0.30476 -0.20516 -0.02773
 Zn100 Zn 0.25433 -0.12457 -0.00881
 N101 N 0.28272 -0.14432 -0.02046
 C102 C 0.28877 -0.10597 0.02989
 N103 N 0.26426 -0.10436 0.02028
 C104 C 0.24597 -0.08982 0.03230
 C105 C 0.25214 -0.07597 0.05483
 C106 C 0.29573 -0.09243 0.05231
 C107 C 0.23856 -0.11595 -0.05949
 C108 C 0.23003 -0.10214 -0.08102
 C109 C 0.23337 -0.06271 -0.05582
 C110 C 0.24189 -0.07733 -0.03470
 N111 N 0.24387 -0.10350 -0.03681
 H112 H 0.30285 -0.11814 0.02056
 H113 H 0.22649 -0.08931 0.02455
 H114 H 0.23745 -0.06461 0.06442
 H115 H 0.31522 -0.09402 0.05994
 H116 H 0.24060 -0.13674 -0.06065
 H117 H 0.22542 -0.11241 -0.09882
 H118 H 0.23142 -0.04193 -0.05382
 H119 H 0.24667 -0.06777 -0.01666
 C120 C 0.32548 -0.17047 -0.03885
 C121 C 0.18443 -0.17322 0.02067
 C122 C 0.22718 -0.07530 -0.07914
 C123 C 0.27725 -0.07739 0.06494
 C124 C 0.22618 0.16800 0.46807
 H125 H 0.24488 0.16826 0.45877
 C126 C 0.20556 0.18177 0.45730
 H127 H 0.20841 0.19283 0.43976
 C128 C 0.19910 0.15209 0.50142
 H129 H 0.19636 0.13989 0.51811
 C130 C 0.17803 0.16557 0.49133
 H131 H 0.15928 0.16389 0.50047
 N132 N 0.22258 0.15342 0.48967
 C133 C 0.29843 0.13760 0.52337
 H134 H 0.29649 0.11684 0.52525
 C135 C 0.32089 0.14997 0.53202
 H136 H 0.33633 0.13874 0.54063
 C137 C 0.28062 0.17760 0.50990
 H138 H 0.26478 0.18825 0.50143
 C139 C 0.30285 0.19079 0.51835
 H140 H 0.30416 0.21160 0.51628
 Zn141 Zn 0.24991 0.13195 0.50111
 N142 N 0.27900 0.15142 0.51229
 C143 C 0.28378 0.11165 0.46342
 N144 N 0.25923 0.11063 0.47279
 C145 C 0.24061 0.09603 0.46093
 C146 C 0.24645 0.08160 0.43876
 C147 C 0.29041 0.09753 0.44140
 C148 C 0.23414 0.12538 0.55196
 C149 C 0.22556 0.11245 0.57397
 C150 C 0.22765 0.07215 0.55019
 C151 C 0.23624 0.08587 0.52855
 N152 N 0.23892 0.11207 0.52973
 H153 H 0.29815 0.12387 0.47259
 H154 H 0.22112 0.09599 0.46845
 H155 H 0.23149 0.07026 0.42923
 H156 H 0.30993 0.09872 0.43393
 H157 H 0.23673 0.14616 0.55241
 H158 H 0.22143 0.12328 0.59146
 H159 H 0.22519 0.05136 0.54908
 H160 H 0.24060 0.07561 0.51085
 C161 C 0.32320 0.17677 0.52938
 C162 C 0.18122 0.18031 0.46893
 C163 C 0.22212 0.08563 0.57304
 C164 C 0.27158 0.08250 0.42888
 C165 C 0.16852 0.46815 0.22563
 H166 H 0.16871 0.45892 0.24440
 C167 C 0.18225 0.45728 0.20506
 H168 H 0.19320 0.43971 0.20801
 C169 C 0.15283 0.50145 0.19832
 H170 H 0.14071 0.51815 0.19548
 C171 C 0.16628 0.49124 0.17730
 H172 H 0.16466 0.50030 0.15847
 N173 N 0.15406 0.48977 0.22189
 C174 C 0.13813 0.52357 0.29767
 H175 H 0.11738 0.52546 0.29565
 C176 C 0.15046 0.53224 0.32017
 H177 H 0.13921 0.54088 0.33555
 C178 C 0.17815 0.51005 0.28001
 H179 H 0.18882 0.50154 0.26422
 C180 C 0.19130 0.51851 0.30228
 H181 H 0.21210 0.51643 0.30367
 Zn182 Zn 0.13257 0.50130 0.24915
 N183 N 0.15198 0.51246 0.27830
 C184 C 0.11204 0.46371 0.28309
 N185 N 0.11112 0.47306 0.25849
 C186 C 0.09654 0.46124 0.23982
 C187 C 0.08203 0.43912 0.24566
 C188 C 0.09784 0.44174 0.28973
 C189 C 0.12619 0.55206 0.23315
 C190 C 0.11333 0.57408 0.22454
 C191 C 0.07295 0.55043 0.22674
 C192 C 0.08660 0.52877 0.23535
 N193 N 0.11280 0.52990 0.23800
 H194 H 0.12425 0.47285 0.29749
 H195 H 0.09658 0.46875 0.22029
 H196 H 0.07071 0.42962 0.23066
 H197 H 0.09896 0.43427 0.30928
 H198 H 0.14698 0.55246 0.23572
 H199 H 0.12422 0.59153 0.22037
 H200 H 0.05214 0.54936 0.22432
 H201 H 0.07628 0.51113 0.23977
 C202 C 0.17725 0.52959 0.32256
 C203 C 0.18087 0.46881 0.18062
 C204 C 0.08651 0.57321 0.22115
 C205 C 0.08283 0.42926 0.27084
 C206 C -0.16312 0.02349 0.22940
 H207 H -0.16411 0.03290 0.24811
 C208 C -0.17714 0.03334 0.20843
 H209 H -0.18909 0.05030 0.21107
 C210 C -0.14528 -0.00926 0.20272
 H211 H -0.13227 -0.02534 0.20031
 C212 C -0.15895 -0.00008 0.18130
 H213 H -0.15658 -0.00937 0.16261
 N214 N -0.14751 0.00261 0.22619
 C215 C -0.13199 -0.02945 0.30278
 H216 H -0.11111 -0.03015 0.30177
 C217 C -0.14465 -0.03879 0.32464
 H218 H -0.13351 -0.04670 0.34055
 C219 C -0.17205 -0.01854 0.28312
 H220 H -0.18261 -0.01088 0.26678
 C221 C -0.18552 -0.02773 0.30470
 H222 H -0.20645 -0.02701 0.30499
 Zn223 Zn -0.12611 -0.00766 0.25419
 N224 N -0.14573 -0.01936 0.28271
 C225 C -0.10751 0.03112 0.28851
 N226 N -0.10598 0.02150 0.26399
 C227 C -0.09150 0.03352 0.24560
 C228 C -0.07762 0.05604 0.25169
 C229 C -0.09394 0.05353 0.29538
 C230 C -0.11726 -0.05825 0.23850
 C231 C -0.10332 -0.07968 0.23008
 C232 C -0.06404 -0.05430 0.23349
 C233 C -0.07875 -0.03327 0.24190
 N234 N -0.10493 -0.03552 0.24380
 H235 H -0.11963 0.02179 0.30267
 H236 H -0.09105 0.02576 0.22612
 H237 H -0.06630 0.06561 0.23692
 H238 H -0.09545 0.06116 0.31489
 H239 H -0.13805 -0.05954 0.24047
 H240 H -0.11338 -0.09756 0.22545
 H241 H -0.04327 -0.05231 0.23157
 H242 H -0.06927 -0.01520 0.24668
 C243 C -0.17163 -0.03787 0.32565
 C244 C -0.17483 0.02156 0.18410
 C245 C -0.07651 -0.07762 0.22735
 C246 C -0.07895 0.06614 0.27681
 C247 C 0.33722 0.52301 0.72982
 H248 H 0.33626 0.53236 0.74857
 C249 C 0.32315 0.53292 0.70892
 H250 H 0.31118 0.54985 0.71158
 C251 C 0.35502 0.49037 0.70299
 H252 H 0.36804 0.47431 0.70048
 C253 C 0.34129 0.49963 0.68163
 H254 H 0.34359 0.49047 0.66288
 N255 N 0.35283 0.50215 0.72650
 C256 C 0.36831 0.46983 0.80297
 H257 H 0.38920 0.46920 0.80202
 C258 C 0.35560 0.46035 0.82474
 H259 H 0.36672 0.45238 0.84065
 C260 C 0.32828 0.48071 0.78324
 H261 H 0.31775 0.48839 0.76688
 C262 C 0.31477 0.47137 0.80471
 H263 H 0.29383 0.47201 0.80494
 Zn264 Zn 0.37424 0.49178 0.75445
 N265 N 0.35460 0.47998 0.78290
 C266 C 0.39283 0.53050 0.78887
 N267 N 0.39436 0.52092 0.76433
 C268 C 0.40882 0.53299 0.74596
 C269 C 0.42267 0.55551 0.75207
 C270 C 0.40637 0.55292 0.79577
 C271 C 0.38309 0.44126 0.73857
 C272 C 0.39703 0.41986 0.73008
 C273 C 0.43631 0.44523 0.73360
 C274 C 0.42160 0.46622 0.74207
 N275 N 0.39542 0.46398 0.74395
 H276 H 0.38072 0.52112 0.80302
 H277 H 0.40927 0.52527 0.72647
 H278 H 0.43397 0.56513 0.73732
 H279 H 0.40485 0.56052 0.81529
 H280 H 0.36230 0.43997 0.74053
 H281 H 0.38698 0.40200 0.72539
 H282 H 0.45709 0.44721 0.73171
 H283 H 0.43108 0.48428 0.74692
 C284 C 0.32861 0.46117 0.82566
 C285 C 0.32541 0.52123 0.68456
 C286 C 0.42384 0.42192 0.72738
 C287 C 0.42133 0.56558 0.77721
 C288 C 0.66891 0.96851 0.72698
 H289 H 0.66916 0.95917 0.74569
 C290 C 0.68263 0.95778 0.70632
 H291 H 0.69362 0.94022 0.70915
 C292 C 0.65309 1.00192 0.69989
 H293 H 0.64093 1.01861 0.69716
 C294 C 0.66652 0.99186 0.67878
 H295 H 0.66484 1.00102 0.66001
 N296 N 0.65440 0.99011 0.72339
 C297 C 0.63844 1.02345 0.79938
 H298 H 0.61768 1.02528 0.79740
 C299 C 0.65077 1.03207 0.82190
 H300 H 0.63944 1.04059 0.83731
 C301 C 0.67848 1.01017 0.78159
 H302 H 0.68915 1.00179 0.76573
 C303 C 0.69164 1.01858 0.80387
 H304 H 0.71246 1.01656 0.80514
 Zn305 Zn 0.63289 1.00142 0.75073
 N306 N 0.65230 1.01249 0.77993
 C307 C 0.61243 0.96362 0.78448
 N308 N 0.61151 0.97308 0.75993
 C309 C 0.59698 0.96132 0.74119
 C310 C 0.58249 0.93916 0.74691
 C311 C 0.59824 0.94159 0.79100
 C312 C 0.62634 1.05226 0.73501
 C313 C 0.61342 1.07424 0.72638
 C314 C 0.57313 1.05040 0.72837
 C315 C 0.58684 1.02879 0.73700
 N316 N 0.61303 1.03002 0.73974
 H317 H 0.62460 0.97271 0.79895
 H318 H 0.59702 0.96893 0.72169
 H319 H 0.57119 0.92972 0.73185
 H320 H 0.59934 0.93404 0.81052
 H321 H 0.64711 1.05275 0.73765
 H322 H 0.62424 1.09174 0.72228
 H323 H 0.55234 1.04925 0.72584
 H324 H 0.57658 1.01109 0.74133
 C325 C 0.67759 1.02952 0.82425
 C326 C 0.68117 0.96944 0.68194
 C327 C 0.58661 1.07325 0.72286
 C328 C 0.58326 0.92918 0.77204
 C329 C 0.02256 0.22888 -0.16184
 H330 H 0.03194 0.24761 -0.16267
 C331 C 0.03251 0.20809 -0.17596
 H332 H 0.04951 0.21082 -0.18784
 C333 C -0.01020 0.20196 -0.14430
 H334 H -0.02633 0.19937 -0.13137
 C335 C -0.00090 0.18071 -0.15809
 H336 H -0.01010 0.16197 -0.15592
 N337 N 0.00162 0.22546 -0.14633
 C338 C -0.03072 0.30171 -0.13059
 H339 H -0.03150 0.30059 -0.10969
 C340 C -0.04005 0.32358 -0.14323
 H341 H -0.04805 0.33938 -0.13206
 C342 C -0.01960 0.28234 -0.17071
 H343 H -0.01186 0.26609 -0.18131
 C344 C -0.02877 0.30392 -0.18416
 H345 H -0.02797 0.30433 -0.20512
 Zn346 Zn -0.00881 0.25322 -0.12480
 N347 N -0.02052 0.28178 -0.14437
 C348 C 0.02987 0.28754 -0.10595
 N349 N 0.02029 0.26301 -0.10452
 C350 C 0.03235 0.24459 -0.09012
 C351 C 0.05490 0.25064 -0.07625
 C352 C 0.05231 0.29437 -0.09240
 C353 C -0.05937 0.23730 -0.11622
 C354 C -0.08084 0.22869 -0.10241
 C355 C -0.05558 0.23187 -0.06293
 C356 C -0.03453 0.24046 -0.07755
 N357 N -0.03670 0.24257 -0.10375
 H358 H 0.02050 0.30173 -0.11802
 H359 H 0.02462 0.22511 -0.08975
 H360 H 0.06453 0.23584 -0.06502
 H361 H 0.05993 0.31387 -0.09386
 H362 H -0.06059 0.23944 -0.13702
 H363 H -0.09865 0.22414 -0.11269
 H364 H -0.05354 0.22985 -0.04213
 H365 H -0.01649 0.24522 -0.06797
 C366 C -0.03901 0.32473 -0.17024
 C367 C 0.02078 0.18374 -0.17386
 C368 C -0.07890 0.22574 -0.07554
 C369 C 0.06499 0.27575 -0.07751
 C370 C 0.46923 0.22622 0.16815
 H371 H 0.45987 0.24489 0.16831
 C372 C 0.45850 0.20559 0.18196
 H373 H 0.44093 0.20840 0.19292
 C374 C 0.50268 0.19922 0.15247
 H375 H 0.51939 0.19651 0.14033
 C376 C 0.49263 0.17814 0.16598
 H377 H 0.50182 0.15941 0.16440
 N378 N 0.49085 0.22266 0.15366
 C379 C 0.52414 0.29861 0.13746
 H380 H 0.52601 0.29661 0.11669
 C381 C 0.53268 0.32115 0.14975
 H382 H 0.54119 0.33659 0.13844
 C383 C 0.51080 0.28087 0.17759
 H384 H 0.50242 0.26504 0.18832
 C385 C 0.51914 0.30319 0.19069
 H386 H 0.51708 0.30456 0.21152
 Zn387 Zn 0.50214 0.24996 0.13204
 N388 N 0.51318 0.27918 0.15138
 C389 C 0.46430 0.28356 0.11146
 N390 N 0.47378 0.25905 0.11061
 C391 C 0.46199 0.24029 0.09615
 C392 C 0.43977 0.24593 0.08170
 C393 C 0.44222 0.29000 0.09731
 C394 C 0.55299 0.23437 0.12557
 C395 C 0.57499 0.22580 0.11268
 C396 C 0.55115 0.22760 0.07232
 C397 C 0.52953 0.23619 0.08600
 N398 N 0.53075 0.23901 0.11221
 H399 H 0.47341 0.29804 0.12358
 H400 H 0.46960 0.22083 0.09625
 H401 H 0.43029 0.23085 0.07048
 H402 H 0.43465 0.30948 0.09837
 H403 H 0.55347 0.23707 0.14635
 H404 H 0.59249 0.22178 0.12354
 H405 H 0.55000 0.22502 0.05151
 H406 H 0.51182 0.24043 0.07570
 C407 C 0.53005 0.32353 0.17657
 C408 C 0.47019 0.18127 0.18061
 C409 C 0.57401 0.22220 0.08585
 C410 C 0.42977 0.27101 0.08242
 C411 C 0.96807 0.72563 0.66897
 H412 H 0.95880 0.74434 0.66926
 C413 C 0.95736 0.70499 0.68276
 H414 H 0.93987 0.70782 0.69386
 C415 C 1.00133 0.69856 0.65297
 H416 H 1.01795 0.69584 0.64072
 C417 C 0.99128 0.67747 0.66646
 H418 H 1.00039 0.65871 0.66475
 N419 N 0.98960 0.72205 0.65434
 C420 C 1.02320 0.79792 0.63846
 H421 H 1.02498 0.79602 0.61767
 C422 C 1.03191 0.82035 0.65083
 H423 H 1.04047 0.83580 0.63957
 C424 C 1.00992 0.78004 0.67854
 H425 H 1.00149 0.76420 0.68921
 C426 C 1.01843 0.80224 0.69173
 H427 H 1.01646 0.80351 0.71257
 Zn428 Zn 1.00096 0.74942 0.63284
 N429 N 1.01218 0.77848 0.65231
 C430 C 0.96325 0.78332 0.61253
 N431 N 0.97261 0.75877 0.61151
 C432 C 0.96075 0.74017 0.59689
 C433 C 0.93860 0.74603 0.58242
 C434 C 0.94124 0.78997 0.59837
 C435 C 1.05172 0.73364 0.62618
 C436 C 1.07368 0.72512 0.61318
 C437 C 1.04981 0.72737 0.57287
 C438 C 1.02822 0.73589 0.58665
 N439 N 1.02948 0.73847 0.61288
 H440 H 0.97241 0.79767 0.62477
 H441 H 0.96827 0.72067 0.59685
 H442 H 0.92909 0.73109 0.57105
 H443 H 0.93378 0.80949 0.59955
 H444 H 1.05223 0.73616 0.64698
 H445 H 1.09118 0.72097 0.62399
 H446 H 1.04863 0.72499 0.55204
 H447 H 1.01052 0.74029 0.57641
 C448 C 1.02941 0.82260 0.67767
 C449 C 0.96895 0.68063 0.68125
 C450 C 1.07267 0.72180 0.58633
 C451 C 0.92873 0.77116 0.58330
 C452 C 0.52300 0.73078 0.33670
 H453 H 0.53241 0.74949 0.33578
 C454 C 0.53285 0.70992 0.32261
 H455 H 0.54982 0.71257 0.31067
 C456 C 0.49023 0.70399 0.35443
 H457 H 0.47414 0.70148 0.36743
 C458 C 0.49944 0.68268 0.34068
 H459 H 0.49021 0.66397 0.34295
 N460 N 0.50210 0.72746 0.35229
 C461 C 0.47000 0.80384 0.36793
 H462 H 0.46929 0.80276 0.38883
 C463 C 0.46064 0.82569 0.35527
 H464 H 0.45272 0.84151 0.36651
 C465 C 0.48094 0.78435 0.32781
 H466 H 0.48862 0.76807 0.31723
 C467 C 0.47175 0.80591 0.31433
 H468 H 0.47251 0.80620 0.29336
 Zn469 Zn 0.49179 0.75532 0.37377
 N470 N 0.48011 0.78386 0.35416
 C471 C 0.53055 0.78958 0.39254
 N472 N 0.52093 0.76507 0.39399
 C473 C 0.53292 0.74667 0.40846
 C474 C 0.55541 0.75272 0.42242
 C475 C 0.55294 0.79642 0.40618
 C476 C 0.44120 0.73951 0.38251
 C477 C 0.41975 0.73101 0.39643
 C478 C 0.44507 0.73436 0.43580
 C479 C 0.46612 0.74284 0.42112
 N480 N 0.46391 0.74480 0.39491
 H481 H 0.52124 0.80376 0.38041
 H482 H 0.52516 0.72720 0.40886
 H483 H 0.56497 0.73794 0.43374
 H484 H 0.56058 0.81592 0.40473
 H485 H 0.43993 0.74154 0.36170
 H486 H 0.40188 0.72639 0.38632
 H487 H 0.44703 0.73239 0.45660
 H488 H 0.48417 0.74762 0.43065
 C489 C 0.46157 0.82679 0.32824
 C490 C 0.52108 0.68560 0.32483
 C491 C 0.42176 0.72821 0.42327
 C492 C 0.56552 0.77783 0.42118
 Si493 Si 0.36345 0.00296 0.24922
 Si494 Si 0.12337 1.00643 0.75057
 Si495 Si 0.62306 0.50786 0.24946
 Si496 Si 0.86254 0.50236 0.75041
 Si497 Si 0.24940 0.36138 0.00275
 Si498 Si 0.75081 0.12271 1.00677
 Si499 Si 0.24988 0.62358 0.50663
 Si500 Si 0.74931 0.86314 0.50324
 Si501 Si 0.00285 0.24971 0.36270
 Si502 Si 1.00687 0.75069 0.12277
 Si503 Si 0.50712 0.24999 0.62306
 Si504 Si 0.50266 0.74942 0.86296
 C505 C 0.45225 -0.15199 0.31578
 C506 C 0.44364 -0.13292 0.30555
 C507 C 0.43281 -0.10994 0.29427
 C508 C 0.43887 -0.08563 0.30483
 C509 C 0.42695 -0.06340 0.29517
 C510 C 0.40892 -0.06539 0.27490
 C511 C 0.40320 -0.08965 0.26403
 C512 C 0.41512 -0.11188 0.27370
 C513 C 0.39525 -0.04282 0.26620
 C514 C 0.38311 -0.02423 0.25924
 H515 H 0.45241 -0.08392 0.32084
 H516 H 0.43141 -0.04477 0.30381
 H517 H 0.38918 -0.09143 0.24845
 H518 H 0.41017 -0.13059 0.26549
 C519 C 0.95120 0.34720 0.81665
 C520 C 0.94261 0.36633 0.80652
 C521 C 0.93182 0.38938 0.79534
 C522 C 0.93761 0.41361 0.80624
 C523 C 0.92573 0.43588 0.79663
 C524 C 0.90801 0.43401 0.77608
 C525 C 0.90256 0.40984 0.76489
 C526 C 0.91443 0.38757 0.77450
 C527 C 0.89436 0.45660 0.76741
 C528 C 0.88222 0.47519 0.76046
 H529 H 0.95091 0.41521 0.82246
 H530 H 0.92998 0.45444 0.80553
 H531 H 0.88877 0.40816 0.74909
 H532 H 0.90970 0.36892 0.76603
 C533 C 0.03186 1.16151 0.81363
 C534 C 0.04132 1.14253 0.80399
 C535 C 0.05290 1.11959 0.79336
 C536 C 0.04538 1.09517 0.80241
 C537 C 0.05769 1.07291 0.79330
 C538 C 0.07758 1.07499 0.77510
 C539 C 0.08485 1.09938 0.76577
 C540 C 0.07254 1.12163 0.77488
 C541 C 0.09137 1.05231 0.76688
 C542 C 0.10358 1.03365 0.76025
 H543 H 0.03030 1.09337 0.81680
 H544 H 0.05200 1.05417 0.80074
 H545 H 0.10029 1.10121 0.75178
 H546 H 0.07860 1.14042 0.76785
 C547 C 0.53206 0.66331 0.31236
 C548 C 0.54144 0.64426 0.30274
 C549 C 0.55292 0.62126 0.29214
 C550 C 0.57241 0.62318 0.27350
 C551 C 0.58462 0.60086 0.26440
 C552 C 0.57739 0.57653 0.27391
 C553 C 0.55764 0.57457 0.29227
 C554 C 0.54543 0.59689 0.30136
 C555 C 0.59110 0.55379 0.26571
 C556 C 0.60328 0.53509 0.25910
 H557 H 0.57845 0.64192 0.26633
 H558 H 0.59996 0.60260 0.25029
 H559 H 0.55198 0.55588 0.29985
 H560 H 0.53046 0.59519 0.31588
 C561 C 0.53876 0.34688 0.18923
 C562 C 0.54647 0.36679 0.19882
 C563 C 0.55627 0.39081 0.20921
 C564 C 0.57317 0.39079 0.23050
 C565 C 0.58429 0.41398 0.23923
 C566 C 0.57857 0.43728 0.22669
 C567 C 0.56128 0.43737 0.20571
 C568 C 0.55016 0.41418 0.19699
 C569 C 0.59167 0.46073 0.23436
 C570 C 0.60350 0.47996 0.24050
 H571 H 0.57817 0.37282 0.23999
 H572 H 0.59777 0.41367 0.25537
 H573 H 0.55685 0.45524 0.19577
 H574 H 0.53724 0.41440 0.18040
 C575 C 0.03829 0.84583 0.69042
 C576 C 0.04615 0.86565 0.70007
 C577 C 0.05612 0.88958 0.71052
 C578 C 0.04952 0.91309 0.69884
 C579 C 0.06078 0.93621 0.70756
 C580 C 0.07870 0.93591 0.72800
 C581 C 0.08492 0.91246 0.74001
 C582 C 0.07366 0.88934 0.73129
 C583 C 0.09189 0.95933 0.73563
 C584 C 0.10378 0.97853 0.74172
 H585 H 0.03610 0.91348 0.68265
 H586 H 0.05595 0.95420 0.69802
 H587 H 0.09888 0.91199 0.75573
 H588 H 0.07904 0.87126 0.74035
 C589 C 0.95707 0.65849 0.69322
 C590 C 0.94699 0.63953 0.70233
 C591 C 0.93473 0.61657 0.71224
 C592 C 0.94395 0.59212 0.70510
 C593 C 0.93111 0.56976 0.71336
 C594 C 0.90900 0.57176 0.72879
 C595 C 0.90001 0.59620 0.73624
 C596 C 0.91284 0.61856 0.72798
 C597 C 0.89489 0.54888 0.73609
 C598 C 0.88248 0.53000 0.74193
 H599 H 0.96078 0.59037 0.69283
 H600 H 0.93817 0.55098 0.70739
 H601 H 0.88286 0.59797 0.74809
 H602 H 0.90546 0.63735 0.73350
 C603 C 0.45827 0.15912 0.19252
 C604 C 0.44814 0.14015 0.20157
 C605 C 0.43582 0.11719 0.21140
 C606 C 0.44507 0.09275 0.20429
 C607 C 0.43218 0.07038 0.21246
 C608 C 0.40999 0.07237 0.22777
 C609 C 0.40095 0.09681 0.23518
 C610 C 0.41383 0.11917 0.22700
 C611 C 0.39584 0.04948 0.23499
 C612 C 0.38341 0.03060 0.24078
 H613 H 0.46198 0.09100 0.19211
 H614 H 0.43928 0.05160 0.20653
 H615 H 0.38374 0.09857 0.24692
 H616 H 0.40643 0.13796 0.23249
 C617 C 0.31544 0.45117 -0.15200
 C618 C 0.30526 0.44239 -0.13297
 C619 C 0.29405 0.43137 -0.11004
 C620 C 0.30437 0.43757 -0.08562
 C621 C 0.29478 0.42549 -0.06343
 C622 C 0.27483 0.40716 -0.06557
 C623 C 0.26421 0.40128 -0.08993
 C624 C 0.27380 0.41336 -0.11212
 C625 C 0.26620 0.39336 -0.04302
 C626 C 0.25931 0.38113 -0.02445
 H627 H 0.32013 0.45136 -0.08381
 H628 H 0.30323 0.43007 -0.04472
 H629 H 0.24887 0.38703 -0.09181
 H630 H 0.26578 0.40831 -0.13091
 C631 C 0.81525 0.95231 0.34810
 C632 C 0.80513 0.94367 0.36722
 C633 C 0.79399 0.93281 0.39027
 C634 C 0.80489 0.93854 0.41455
 C635 C 0.79534 0.92658 0.43682
 C636 C 0.77484 0.90884 0.43491
 C637 C 0.76364 0.90345 0.41069
 C638 C 0.77319 0.91541 0.38842
 C639 C 0.76622 0.89511 0.45750
 C640 C 0.75932 0.88291 0.47609
 H641 H 0.82107 0.95185 0.41619
 H642 H 0.80423 0.93078 0.45542
 H643 H 0.74787 0.88965 0.40898
 H644 H 0.76472 0.91072 0.36973
 C645 C 0.81343 0.03196 1.16289
 C646 C 0.80382 0.04132 1.14379
 C647 C 0.79325 0.05277 1.12070
 C648 C 0.77488 0.07251 1.12253
 C649 C 0.76583 0.08470 1.10012
 C650 C 0.77512 0.07720 1.07578
 C651 C 0.79321 0.05721 1.07392
 C652 C 0.80225 0.04502 1.09633
 C653 C 0.76698 0.09087 1.05293
 C654 C 0.76042 0.10300 1.03415
 H655 H 0.76788 0.07875 1.14127
 H656 H 0.75194 0.10023 1.10179
 H657 H 0.80062 0.05134 1.05522
 H658 H 0.81655 0.02986 1.09470
 C659 C 0.31295 0.53227 0.66223
 C660 C 0.30333 0.54169 0.64317
 C661 C 0.29274 0.55324 0.62014
 C662 C 0.27418 0.57279 0.62208
 C663 C 0.26508 0.58507 0.59974
 C664 C 0.27450 0.57785 0.57538
 C665 C 0.29278 0.55804 0.57340
 C666 C 0.30187 0.54576 0.59574
 C667 C 0.26628 0.59161 0.55262
 C668 C 0.25963 0.60380 0.53390
 H669 H 0.26708 0.57882 0.64085
 H670 H 0.25103 0.60045 0.60150
 H671 H 0.30029 0.55239 0.55468
 H672 H 0.31632 0.53074 0.59403
 C673 C 0.18994 0.53844 0.34586
 C674 C 0.19955 0.54628 0.36573
 C675 C 0.20994 0.55623 0.38971
 C676 C 0.23090 0.57350 0.38955
 C677 C 0.23959 0.58477 0.41270
 C678 C 0.22734 0.57882 0.43611
 C679 C 0.20671 0.56117 0.43634
 C680 C 0.19803 0.54989 0.41319
 C681 C 0.23494 0.59205 0.45953
 C682 C 0.24102 0.60396 0.47874
 H683 H 0.24015 0.57867 0.37149
 H684 H 0.25546 0.59853 0.41228
 H685 H 0.19699 0.55656 0.45429
 H686 H 0.18169 0.53669 0.41352
 C687 C 0.68966 0.03786 0.84629
 C688 C 0.69941 0.04563 0.86613
 C689 C 0.70997 0.05550 0.89007
 C690 C 0.69805 0.04933 0.91359
 C691 C 0.70691 0.06054 0.93670
 C692 C 0.72773 0.07797 0.93640
 C693 C 0.73998 0.08375 0.91295
 C694 C 0.73111 0.07255 0.88983
 C695 C 0.73552 0.09117 0.95978
 C696 C 0.74175 0.10307 0.97895
 H697 H 0.68157 0.03630 0.91398
 H698 H 0.69719 0.05606 0.95469
 H699 H 0.75599 0.09734 0.91247
 H700 H 0.74036 0.07759 0.87175
 C701 C 0.69299 0.95752 0.65976
 C702 C 0.70197 0.94741 0.64076
 C703 C 0.71171 0.93513 0.61776
 C704 C 0.70472 0.94456 0.59330
 C705 C 0.71281 0.93173 0.57088
 C706 C 0.72793 0.90941 0.57283
 C707 C 0.73523 0.90018 0.59728
 C708 C 0.72713 0.91300 0.61970
 C709 C 0.73511 0.89535 0.54988
 C710 C 0.74087 0.88299 0.53096
 H711 H 0.69269 0.96158 0.59158
 H712 H 0.70697 0.93898 0.55209
 H713 H 0.74683 0.88287 0.59901
 H714 H 0.73253 0.90545 0.63850
 C715 C 0.19275 0.45674 0.15854
 C716 C 0.20178 0.44650 0.13964
 C717 C 0.21160 0.43405 0.11677
 C718 C 0.20495 0.44349 0.09222
 C719 C 0.21310 0.43050 0.06992
 C720 C 0.22794 0.40800 0.07208
 C721 C 0.23490 0.39877 0.09662
 C722 C 0.22674 0.41176 0.11892
 C723 C 0.23516 0.39379 0.04924
 C724 C 0.24095 0.38133 0.03039
 H725 H 0.19313 0.46063 0.09033
 H726 H 0.20752 0.43775 0.05105
 H727 H 0.24629 0.38133 0.09852
 H728 H 0.23188 0.40420 0.13780
 C729 C -0.15172 0.31627 0.45183
 C730 C -0.13266 0.30610 0.44320
 C731 C -0.10969 0.29487 0.43236
 C732 C -0.08541 0.30577 0.43796
 C733 C -0.06322 0.29610 0.42602
 C734 C -0.06522 0.27549 0.40843
 C735 C -0.08944 0.26429 0.40318
 C736 C -0.11163 0.27396 0.41512
 C737 C -0.04272 0.26675 0.39471
 C738 C -0.02420 0.25977 0.38250
 H739 H -0.08370 0.32204 0.45115
 H740 H -0.04462 0.30500 0.43011
 H741 H -0.09122 0.24843 0.38950
 H742 H -0.13032 0.26548 0.41054
 C743 C 0.34784 0.81627 0.95142
 C744 C 0.36689 0.80601 0.94286
 C745 C 0.38986 0.79470 0.93212
 C746 C 0.38790 0.77408 0.91454
 C747 C 0.41012 0.76437 0.90269
 C748 C 0.43439 0.77525 0.90837
 C749 C 0.43640 0.79558 0.92629
 C750 C 0.41418 0.80528 0.93814
 C751 C 0.45695 0.76650 0.89475
 C752 C 0.47552 0.75951 0.88263
 H753 H 0.36918 0.76585 0.90963
 H754 H 0.40833 0.74873 0.88875
 H755 H 0.45505 0.80423 0.93071
 H756 H 0.41591 0.82134 0.95159
 C757 C 1.16210 0.81434 0.03166
 C758 C 1.14302 0.80474 0.04102
 C759 C 1.11997 0.79415 0.05247
 C760 C 1.09579 0.80474 0.04639
 C761 C 1.07349 0.79554 0.05859
 C762 C 1.07528 0.77571 0.07692
 C763 C 1.09941 0.76487 0.08273
 C764 C 1.12171 0.77407 0.07053
 C765 C 1.05262 0.76733 0.09070
 C766 C 1.03400 0.76057 0.10292
 H767 H 1.09424 0.82036 0.03254
 H768 H 1.05496 0.80416 0.05406
 H769 H 1.10102 0.74961 0.09697
 H770 H 1.14032 0.76583 0.07546
 C771 C 0.66249 0.31339 0.53204
 C772 C 0.64345 0.30372 0.54140
 C773 C 0.62046 0.29305 0.55287
 C774 C 0.62240 0.27429 0.57229
 C775 C 0.60009 0.26512 0.58451
 C776 C 0.57576 0.27467 0.57737
 C777 C 0.57379 0.29315 0.55769
 C778 C 0.59609 0.30232 0.54547
 C779 C 0.55304 0.26639 0.59110
 C780 C 0.53436 0.25972 0.60328
 H781 H 0.64114 0.26709 0.57826
 H782 H 0.60185 0.25091 0.59979
 H783 H 0.55509 0.30076 0.55211
 H784 H 0.59438 0.31692 0.53056
 C785 C 0.34646 0.18951 0.53819
 C786 C 0.36632 0.19917 0.54599
 C787 C 0.39028 0.20962 0.55588
 C788 C 0.39013 0.23067 0.57304
 C789 C 0.41327 0.23943 0.58425
 C790 C 0.43665 0.22718 0.57836
 C791 C 0.43686 0.20645 0.56083
 C792 C 0.41373 0.19769 0.54961
 C793 C 0.46006 0.23487 0.59155
 C794 C 0.47926 0.24102 0.60344
 H795 H 0.37210 0.23993 0.57816
 H796 H 0.41286 0.25538 0.59791
 H797 H 0.45480 0.19673 0.55626
 H798 H 0.41404 0.18129 0.53650
 C799 C 0.84601 0.68973 0.03868
 C800 C 0.86588 0.69946 0.04635
 C801 C 0.88985 0.71002 0.05610
 C802 C 0.91331 0.69818 0.04971
 C803 C 0.93647 0.70703 0.06081
 C804 C 0.93627 0.72777 0.07833
 C805 C 0.91288 0.73994 0.08433
 C806 C 0.88971 0.73108 0.07324
 C807 C 0.95972 0.73553 0.09142
 C808 C 0.97895 0.74172 0.10323
 H809 H 0.91362 0.68176 0.03662
 H810 H 0.95442 0.69737 0.05616
 H811 H 0.91248 0.75589 0.09799
 H812 H 0.87167 0.74028 0.07845
 C813 C 0.65857 0.69201 0.95782
 C814 C 0.63963 0.70109 0.94769
 C815 C 0.61670 0.71098 0.93536
 C816 C 0.59223 0.70375 0.94450
 C817 C 0.56990 0.71202 0.93162
 C818 C 0.57194 0.72756 0.90954
 C819 C 0.59639 0.73509 0.90062
 C820 C 0.61873 0.72681 0.91350
 C821 C 0.54908 0.73491 0.89540
 C822 C 0.53024 0.74081 0.88296
 H823 H 0.59044 0.69139 0.96131
 H824 H 0.55110 0.70599 0.93862
 H825 H 0.59820 0.74702 0.88351
 H826 H 0.63754 0.73241 0.90619
 C827 C 0.15909 0.19226 0.45701
 C828 C 0.14014 0.20137 0.44691
 C829 C 0.11718 0.21129 0.43465
 C830 C 0.09274 0.20433 0.44405
 C831 C 0.07037 0.21261 0.43124
 C832 C 0.07234 0.22787 0.40897
 C833 C 0.09678 0.23512 0.39978
 C834 C 0.11915 0.22684 0.41258
 C835 C 0.04943 0.23521 0.39491
 C836 C 0.03053 0.24111 0.38256
 H837 H 0.09100 0.19219 0.46102
 H838 H 0.05158 0.20679 0.43846
 H839 H 0.09853 0.24683 0.38251
 H840 H 0.13794 0.23222 0.40506
 C841 C 0.57332 0.09551 0.71290
 C842 C 0.56298 0.11439 0.70405
 C843 C 0.55155 0.13711 0.69289
 C844 C 0.56064 0.16170 0.70010
 C845 C 0.55094 0.18375 0.68788
 C846 C 0.53212 0.18129 0.66840
 C847 C 0.52269 0.15674 0.66151
 C848 C 0.53239 0.13469 0.67372
 C849 C 0.52347 0.20377 0.65456
 C850 C 0.51668 0.22242 0.64241
 H851 H 0.57557 0.16378 0.71477
 H852 H 0.55846 0.20262 0.69325
 H853 H 0.50823 0.15462 0.64637
 H854 H 0.52535 0.11576 0.66789
 C855 C 1.07326 0.59556 0.21133
 C856 C 1.06295 0.61453 0.20264
 C857 C 1.05154 0.63737 0.19170
 C858 C 1.06097 0.66186 0.19880
 C859 C 1.05126 0.68402 0.18678
 C860 C 1.03209 0.68176 0.16762
 C861 C 1.02234 0.65730 0.16084
 C862 C 1.03206 0.63515 0.17285
 C863 C 1.02340 0.70434 0.15397
 C864 C 1.01655 0.72305 0.14196
 H865 H 1.07615 0.66379 0.21323
 H866 H 1.05902 0.70282 0.19207
 H867 H 1.00761 0.65534 0.14594
 H868 H 1.02475 0.61629 0.16710
 C869 C 0.93780 0.90077 0.21737
 C870 C 0.94897 0.88243 0.20839
 C871 C 0.96134 0.86036 0.19691
 C872 C 0.95332 0.83534 0.20359
 C873 C 0.96363 0.81389 0.19078
 C874 C 0.98200 0.81739 0.17124
 C875 C 0.99043 0.84238 0.16494
 C876 C 0.98011 0.86383 0.17775
 C877 C 0.99089 0.79554 0.15650
 C878 C 0.99771 0.77744 0.14351
 H879 H 0.93867 0.83245 0.21825
 H880 H 0.95686 0.79466 0.19568
 H881 H 1.00450 0.84530 0.14973
 H882 H 0.98631 0.88310 0.17230
 C883 C 0.43816 0.40033 0.71737
 C884 C 0.44932 0.38200 0.70836
 C885 C 0.46167 0.35992 0.69688
 C886 C 0.45386 0.33490 0.70381
 C887 C 0.46415 0.31343 0.69102
 C888 C 0.48228 0.31689 0.67126
 C889 C 0.49051 0.34188 0.66470
 C890 C 0.48021 0.36336 0.67749
 C891 C 0.49116 0.29500 0.65659
 C892 C 0.49796 0.27684 0.64367
 H893 H 0.43939 0.33203 0.71864
 H894 H 0.45753 0.29420 0.69612
 H895 H 0.50439 0.34478 0.64933
 H896 H 0.48625 0.38263 0.67185
 C897 C 0.43444 0.58930 0.78395
 C898 C 0.44479 0.60927 0.79037
 C899 C 0.45643 0.63315 0.79900
 C900 C 0.47958 0.63281 0.81322
 C901 C 0.48965 0.65579 0.82362
 C902 C 0.47662 0.67918 0.81983
 C903 C 0.45377 0.67960 0.80513
 C904 C 0.44370 0.65663 0.79473
 C905 C 0.48567 0.70234 0.83254
 C906 C 0.49278 0.72143 0.84404
 H907 H 0.48948 0.61474 0.81680
 H908 H 0.50723 0.65522 0.83512
 H909 H 0.44344 0.69755 0.80224
 H910 H 0.42569 0.65708 0.78391
 C911 C -0.06578 0.08982 0.28353
 C912 C -0.05537 0.10977 0.28996
 C913 C -0.04367 0.13361 0.29861
 C914 C -0.05634 0.15713 0.29438
 C915 C -0.04621 0.18006 0.30482
 C916 C -0.02337 0.17955 0.31952
 C917 C -0.01039 0.15612 0.32327
 C918 C -0.02052 0.13319 0.31283
 C919 C -0.01426 0.20267 0.33227
 C920 C -0.00711 0.22173 0.34379
 H921 H -0.07435 0.15764 0.28357
 H922 H -0.05651 0.19804 0.30196
 H923 H 0.00719 0.15549 0.33477
 H924 H -0.01066 0.11509 0.31638
 C925 C 0.06929 0.40581 0.27737
 C926 C 0.05874 0.38606 0.28389
 C927 C 0.04706 0.36246 0.29292
 C928 C 0.05992 0.33889 0.28961
 C929 C 0.05009 0.31636 0.30088
 C930 C 0.02737 0.31731 0.31550
 C931 C 0.01414 0.34074 0.31823
 C932 C 0.02397 0.36328 0.30697
 C933 C 0.01879 0.29482 0.32942
 C934 C 0.01211 0.27642 0.34202
 H935 H 0.07791 0.33809 0.27898
 H936 H 0.06059 0.29839 0.29883
 H937 H -0.00334 0.34173 0.32968
 H938 H 0.01399 0.38144 0.30984
 C939 C 0.56971 0.90570 0.77844
 C940 C 0.55914 0.88592 0.78484
 C941 C 0.54741 0.86228 0.79371
 C942 C 0.56039 0.83876 0.79058
 C943 C 0.55048 0.81619 0.80171
 C944 C 0.52754 0.81706 0.81600
 C945 C 0.51420 0.84045 0.81854
 C946 C 0.52412 0.86302 0.80743
 C947 C 0.51885 0.79454 0.82981
 C948 C 0.51206 0.77613 0.84234
 H949 H 0.57854 0.83801 0.78021
 H950 H 0.56106 0.79825 0.79980
 H951 H 0.49656 0.84138 0.82974
 H952 H 0.51404 0.88115 0.81016
 C953 C 0.71247 0.57399 0.09464
 C954 C 0.70369 0.56363 0.11357
 C955 C 0.69262 0.55219 0.13635
 C956 C 0.69986 0.56131 0.16094
 C957 C 0.68771 0.55163 0.18305
 C958 C 0.66826 0.53280 0.18064
 C959 C 0.66133 0.52335 0.15608
 C960 C 0.67348 0.53303 0.13398
 C961 C 0.65447 0.52418 0.20317
 C962 C 0.64236 0.51740 0.22185
 H963 H 0.71452 0.57624 0.16299
 H964 H 0.69311 0.55917 0.20193
 H965 H 0.64621 0.50889 0.15400
 H966 H 0.66761 0.52597 0.11505
 C967 C 0.21226 1.07233 0.59536
 C968 C 0.20352 1.06201 0.61431
 C969 C 0.19250 1.05060 0.63714
 C970 C 0.20000 1.05957 0.66171
 C971 C 0.18792 1.04993 0.68386
 C972 C 0.16829 1.03127 0.68154
 C973 C 0.16110 1.02197 0.65700
 C974 C 0.17318 1.03161 0.63484
 C975 C 0.15460 1.02270 0.70414
 C976 C 0.14257 1.01594 0.72287
 H977 H 0.21480 1.07437 0.66369
 H978 H 0.19353 1.05736 0.70273
 H979 H 0.14585 1.00764 0.65497
 H980 H 0.16712 1.02466 0.61593
 C981 C 0.21800 0.93762 0.90117
 C982 C 0.20898 0.94881 0.88279
 C983 C 0.19748 0.96116 0.86066
 C984 C 0.20432 0.95332 0.83563
 C985 C 0.19149 0.96359 0.81411
 C986 C 0.17177 0.98174 0.81756
 C987 C 0.16530 0.99000 0.84256
 C988 C 0.17813 0.97973 0.86408
 C989 C 0.15704 0.99058 0.79563
 C990 C 0.14407 0.99734 0.77745
 H991 H 0.21912 0.93883 0.83278
 H992 H 0.19652 0.95694 0.79487
 H993 H 0.14996 1.00390 0.84545
 H994 H 0.17256 0.98578 0.88336
 C995 C 0.71742 0.43887 0.40017
 C996 C 0.70839 0.45004 0.38180
 C997 C 0.69688 0.46240 0.35968
 C998 C 0.70386 0.45469 0.33463
 C999 C 0.69107 0.46499 0.31311
 C1000 C 0.67125 0.48304 0.31655
 C1001 C 0.66464 0.49116 0.34156
 C1002 C 0.67743 0.48086 0.36309
 C1003 C 0.65658 0.49192 0.29460
 C1004 C 0.64366 0.49872 0.27639
 H1005 H 0.71874 0.44029 0.33178
 H1006 H 0.69621 0.45845 0.29386
 H1007 H 0.64922 0.50498 0.34444
 H1008 H 0.67175 0.48681 0.38237
 C1009 C 0.78379 0.43487 0.58967
 C1010 C 0.79017 0.44514 0.60971
 C1011 C 0.79876 0.45667 0.63368
 C1012 C 0.79444 0.44385 0.65715
 C1013 C 0.80480 0.45382 0.68021
 C1014 C 0.81952 0.47664 0.67989
 C1015 C 0.82336 0.48976 0.65651
 C1016 C 0.81300 0.47980 0.63345
 C1017 C 0.83220 0.48557 0.70315
 C1018 C 0.84367 0.49260 0.72231
 H1019 H 0.78361 0.42586 0.65752
 H1020 H 0.80188 0.44341 0.69814
 H1021 H 0.83487 0.50732 0.65603
 H1022 H 0.81662 0.48976 0.61540
 C1023 C 0.28405 -0.06433 0.08868
 C1024 C 0.29054 -0.05404 0.10868
 C1025 C 0.29927 -0.04251 0.13260
 C1026 C 0.29474 -0.05514 0.15612
 C1027 C 0.30523 -0.04521 0.17914
 C1028 C 0.32029 -0.02261 0.17873
 C1029 C 0.32434 -0.00967 0.15528
 C1030 C 0.31386 -0.01960 0.13226
 C1031 C 0.33305 -0.01373 0.20195
 C1032 C 0.34457 -0.00675 0.22110
 H1033 H 0.28365 -0.07297 0.15658
 H1034 H 0.30213 -0.05548 0.19713
 H1035 H 0.33611 0.00772 0.15472
 H1036 H 0.31764 -0.00979 0.11416
 C1037 C 0.27811 0.06903 0.40540
 C1038 C 0.28463 0.05855 0.38561
 C1039 C 0.29366 0.04695 0.36198
 C1040 C 0.30755 0.02375 0.36278
 C1041 C 0.31882 0.01398 0.34023
 C1042 C 0.31626 0.02737 0.31681
 C1043 C 0.30181 0.05020 0.31588
 C1044 C 0.29053 0.05997 0.33842
 C1045 C 0.33019 0.01883 0.29433
 C1046 C 0.34279 0.01217 0.27593
 H1047 H 0.31029 0.01365 0.38093
 H1048 H 0.33013 -0.00358 0.34121
 H1049 H 0.29989 0.06081 0.29792
 H1050 H 0.28003 0.07804 0.33764
 C1051 C 0.77746 0.56860 0.90665
 C1052 C 0.78394 0.55808 0.88686
 C1053 C 0.79292 0.54644 0.86324
 C1054 C 0.78969 0.55940 0.83966
 C1055 C 0.80092 0.54961 0.81710
 C1056 C 0.81542 0.52681 0.81804
 C1057 C 0.81807 0.51347 0.84148
 C1058 C 0.80685 0.52327 0.86404
 C1059 C 0.82931 0.51826 0.79554
 C1060 C 0.84189 0.51159 0.77713
 H1061 H 0.77916 0.57745 0.83887
 H1062 H 0.79893 0.56018 0.79913
 H1063 H 0.82942 0.49594 0.84246
 H1064 H 0.80966 0.51322 0.88220
 C1065 C 0.09494 0.71203 0.57295
 C1066 C 0.11384 0.70336 0.56255
 C1067 C 0.13661 0.69242 0.55105
 C1068 C 0.16118 0.70002 0.55992
 C1069 C 0.18329 0.68801 0.55019
 C1070 C 0.18093 0.66836 0.53157
 C1071 C 0.15640 0.66109 0.52236
 C1072 C 0.13428 0.67309 0.53209
 C1073 C 0.20350 0.65473 0.52293
 C1074 C 0.22222 0.64273 0.51614
 H1075 H 0.16319 0.71483 0.57470
 H1076 H 0.20216 0.69368 0.55755
 H1077 H 0.15435 0.64582 0.50806
 H1078 H 0.11537 0.66696 0.52522
 C1079 C 0.59630 0.21230 1.07260
 C1080 C 0.61521 0.20352 1.06230
 C1081 C 0.63796 0.19243 1.05091
 C1082 C 0.63558 0.17342 1.03163
 C1083 C 0.65765 0.16126 1.02197
 C1084 C 0.68218 0.16806 1.03157
 C1085 C 0.68458 0.18739 1.05053
 C1086 C 0.66252 0.19954 1.06018
 C1087 C 0.70466 0.15425 1.02298
 C1088 C 0.72329 0.14211 1.01623
 H1089 H 0.61668 0.16765 1.02445
 H1090 H 0.65557 0.14624 1.00741
 H1091 H 0.70344 0.19269 1.05819
 H1092 H 0.66456 0.21410 1.07521
 C1093 C 0.90145 0.21656 0.93739
 C1094 C 0.88310 0.20758 0.94861
 C1095 C 0.86100 0.19614 0.96101
 C1096 C 0.86439 0.17668 0.97952
 C1097 C 0.84288 0.16396 0.98986
 C1098 C 0.81790 0.17065 0.98173
 C1099 C 0.81448 0.19048 0.96363
 C1100 C 0.83599 0.20320 0.95329
 C1101 C 0.79595 0.15606 0.99067
 C1102 C 0.77774 0.14321 0.99752
 H1103 H 0.88365 0.17094 0.98548
 H1104 H 0.84574 0.14854 1.00372
 H1105 H 0.79526 0.19569 0.95709
 H1106 H 0.83316 0.21810 0.93886
 C1107 C 0.40014 0.71818 0.43755
 C1108 C 0.38179 0.70916 0.44871
 C1109 C 0.35969 0.69765 0.46106
 C1110 C 0.33468 0.70436 0.45303
 C1111 C 0.31321 0.69155 0.46335
 C1112 C 0.31667 0.67199 0.48173
 C1113 C 0.34165 0.66566 0.49017
 C1114 C 0.36313 0.67847 0.47984
 C1115 C 0.29480 0.65727 0.49064
 C1116 C 0.27667 0.64430 0.49746
 H1117 H 0.33182 0.71903 0.43838
 H1118 H 0.29399 0.69646 0.45657
 H1119 H 0.34455 0.65044 0.50425
 H1120 H 0.38239 0.67301 0.48605
 C1121 C 0.58918 0.78452 0.43443
 C1122 C 0.60912 0.79090 0.44490
 C1123 C 0.63295 0.79949 0.45668
 C1124 C 0.65652 0.79496 0.44421
 C1125 C 0.67948 0.80531 0.45440
 C1126 C 0.67895 0.82022 0.47709
 C1127 C 0.65547 0.82428 0.48987
 C1128 C 0.63251 0.81393 0.47968
 C1129 C 0.70213 0.83288 0.48622
 C1130 C 0.72124 0.84432 0.49337
 H1131 H 0.65706 0.78398 0.42631
 H1132 H 0.69750 0.80222 0.44425
 H1133 H 0.65482 0.83594 0.50733
 H1134 H 0.61438 0.81771 0.48938
 C1135 C 0.08877 0.28242 -0.06446
 C1136 C 0.10882 0.28879 -0.05419
 C1137 C 0.13278 0.29739 -0.04268
 C1138 C 0.15618 0.29306 -0.05553
 C1139 C 0.17923 0.30346 -0.04561
 C1140 C 0.17897 0.31822 -0.02281
 C1141 C 0.15566 0.32206 -0.00965
 C1142 C 0.13260 0.31167 -0.01957
 C1143 C 0.20221 0.33094 -0.01393
 C1144 C 0.22134 0.34245 -0.00696
 H1145 H 0.15651 0.28221 -0.07351
 H1146 H 0.19712 0.30053 -0.05604
 H1147 H 0.15521 0.33361 0.00789
 H1148 H 0.11460 0.31529 -0.00959
 C1149 C 0.40621 0.27732 0.06896
 C1150 C 0.38635 0.28364 0.05847
 C1151 C 0.36263 0.29244 0.04686
 C1152 C 0.36319 0.30614 0.02350
 C1153 C 0.34053 0.31719 0.01371
 C1154 C 0.31724 0.31459 0.02723
 C1155 C 0.31655 0.30031 0.05023
 C1156 C 0.33920 0.28925 0.06002
 C1157 C 0.29466 0.32835 0.01868
 C1158 C 0.27619 0.34083 0.01200
 H1159 H 0.38124 0.30892 0.01329
 H1160 H 0.34133 0.32838 -0.00398
 H1161 H 0.29869 0.29837 0.06095
 H1162 H 0.33859 0.27890 0.07822
 C1163 C 0.90528 0.77772 0.56977
 C1164 C 0.88552 0.78425 0.55922
 C1165 C 0.86193 0.79330 0.54754
 C1166 C 0.83840 0.79014 0.56051
 C1167 C 0.81588 0.80143 0.55067
 C1168 C 0.81682 0.81590 0.52780
 C1169 C 0.84022 0.81847 0.51446
 C1170 C 0.86274 0.80720 0.52431
 C1171 C 0.79436 0.82983 0.51919
 C1172 C 0.77599 0.84245 0.51249
 H1173 H 0.83760 0.77963 0.57861
 H1174 H 0.79794 0.79950 0.56125
 H1175 H 0.84120 0.82980 0.49687
 H1176 H 0.88087 0.80995 0.51424
   
