data_POSCAR
  _audit_creation_date              2014-09-24
  _audit_creation_method            'ToBaCCo'
  _symmetry_space_group_name_H-M    'P1'
  _symmetry_Int_Tables_number       1
  _symmetry_cell_setting            triclinic
  loop_
  _symmetry_equiv_pos_as_xyz
 x,y,z
_cell_length_a 61.7529
_cell_length_b 61.8519
_cell_length_c 22.6577
_cell_angle_alpha 89.905300
_cell_angle_beta 90.154300
_cell_angle_gamma 119.990600
loop_
  _atom_site_label
  _atom_site_type_symbol
  _atom_site_fract_x
  _atom_site_fract_y
  _atom_site_fract_z
C1 C 0.30430 0.51185 0.55496
 C2 C 0.31477 0.51224 0.49984
 C3 C 0.30126 0.50785 0.44754
 C4 C 0.27704 0.50475 0.44883
 C5 C 0.26623 0.50520 0.50366
 C6 C 0.27963 0.50818 0.55711
 C7 C 0.26855 0.50890 0.61063
 C8 C 0.24489 0.50634 0.61200
 C9 C 0.23170 0.50443 0.55972
 C10 C 0.24218 0.50311 0.50489
 C11 C 0.26377 0.50208 0.39646
 C12 C 0.24033 0.50007 0.39753
 C13 C 0.22887 0.50006 0.45117
 C14 C 0.20525 0.49876 0.45254
 C15 C 0.19536 0.50006 0.50708
 C16 C 0.20787 0.50270 0.56064
 H17 H 0.27816 0.51187 0.65232
 H18 H 0.23719 0.50595 0.65497
 H19 H 0.27172 0.50220 0.35384
 H20 H 0.23165 0.49914 0.35545
 H21 H 0.33328 0.51431 0.49768
 H22 H 0.17728 0.49903 0.50782
 C23 C 0.49623 -0.20526 0.55507
 C24 C 0.50070 -0.19196 0.50237
 C25 C 0.50196 -0.20211 0.44830
 C26 C 0.49859 -0.22648 0.44640
 C27 C 0.49417 -0.24023 0.49954
 C28 C 0.49312 -0.22951 0.55416
 C29 C 0.49003 -0.24285 0.60662
 C30 C 0.48828 -0.26613 0.60575
 C31 C 0.48929 -0.27710 0.55234
 C32 C 0.49185 -0.26430 0.49844
 C33 C 0.50073 -0.23694 0.39333
 C34 C 0.49838 -0.26052 0.39215
 C35 C 0.49345 -0.27488 0.44391
 C36 C 0.49239 -0.29845 0.44384
 C37 C 0.49060 -0.31021 0.49817
 C38 C 0.48900 -0.30003 0.55172
 H39 H 0.48959 -0.23515 0.64914
 H40 H 0.48652 -0.27527 0.64767
 H41 H 0.50491 -0.22669 0.35224
 H42 H 0.50151 -0.26681 0.35029
 H43 H 0.50324 -0.17329 0.50347
 H44 H 0.48989 -0.32810 0.49913
 C45 C 1.20431 0.70113 0.55140
 C46 C 1.19559 0.68948 0.49650
 C47 C 1.20923 0.69909 0.44481
 C48 C 1.23243 0.72142 0.44663
 C49 C 1.24177 0.73396 0.50122
 C50 C 1.22779 0.72373 0.55403
 C51 C 1.23641 0.73772 0.60633
 C52 C 1.25820 0.76086 0.60726
 C53 C 1.27253 0.77123 0.55595
 C54 C 1.26418 0.75766 0.50214
 C55 C 1.24563 0.73229 0.39455
 C56 C 1.26729 0.75537 0.39532
 C57 C 1.27714 0.76845 0.44844
 C58 C 1.29804 0.79306 0.44858
 C59 C 1.30508 0.80640 0.50171
 C60 C 1.29339 0.79588 0.55557
 H61 H 1.22579 0.73160 0.64677
 H62 H 1.26287 0.77109 0.64834
 H63 H 1.23879 0.72348 0.35206
 H64 H 1.27541 0.76327 0.35301
 H65 H 1.17776 0.67225 0.49371
 H66 H 1.32140 0.82500 0.50186
 C67 C 0.70283 0.49537 0.45328
 C68 C 0.69161 0.49243 0.50826
 C69 C 0.70336 0.49184 0.56104
 C70 C 0.72733 0.49375 0.55771
 C71 C 0.73861 0.49597 0.50165
 C72 C 0.72618 0.49657 0.44934
 C73 C 0.73762 0.49886 0.39442
 C74 C 0.76075 0.50033 0.39060
 C75 C 0.77357 0.50008 0.44162
 C76 C 0.76258 0.49799 0.49780
 C77 C 0.73996 0.49246 0.60820
 C78 C 0.76404 0.49612 0.60475
 C79 C 0.77575 0.49858 0.55003
 C80 C 0.80069 0.50300 0.54559
 C81 C 0.81100 0.50512 0.48928
 C82 C 0.79754 0.50270 0.43783
 H83 H 0.72879 0.49956 0.35371
 H84 H 0.76879 0.50233 0.34716
 H85 H 0.73155 0.48873 0.65144
 H86 H 0.77321 0.49708 0.64603
 H87 H 0.67396 0.49226 0.50987
 H88 H 0.82958 0.50747 0.48520
 C89 C 0.50174 0.20531 0.55147
 C90 C 0.50165 0.19488 0.49634
 C91 C 0.50245 0.20672 0.44326
 C92 C 0.50285 0.22973 0.44413
 C93 C 0.50224 0.24045 0.49908
 C94 C 0.50172 0.22833 0.55301
 C95 C 0.49905 0.23853 0.60628
 C96 C 0.49823 0.26060 0.60703
 C97 C 0.49918 0.27301 0.55443
 C98 C 0.50105 0.26281 0.49992
 C99 C 0.50282 0.24176 0.39145
 C100 C 0.50197 0.26380 0.39243
 C101 C 0.50085 0.27450 0.44611
 C102 C 0.49897 0.29633 0.44742
 C103 C 0.49760 0.30638 0.50142
 C104 C 0.49756 0.29501 0.55471
 H105 H 0.49673 0.22924 0.64811
 H106 H 0.49626 0.26758 0.64930
 H107 H 0.50308 0.23404 0.34882
 H108 H 0.50185 0.27222 0.35059
 H109 H 0.50182 0.17743 0.49437
 H110 H 0.49592 0.32303 0.50194
 C111 C 0.70276 0.20449 0.44255
 C112 C 0.68935 0.19453 0.49462
 C113 C 0.69951 0.20455 0.55018
 C114 C 0.72325 0.22676 0.55274
 C115 C 0.73697 0.23720 0.49992
 C116 C 0.72685 0.22577 0.44473
 C117 C 0.74079 0.23622 0.39306
 C118 C 0.76420 0.25772 0.39536
 C119 C 0.77440 0.26968 0.44934
 C120 C 0.76072 0.25937 0.50216
 C121 C 0.73276 0.23989 0.60594
 C122 C 0.75581 0.26177 0.60801
 C123 C 0.77046 0.27149 0.55702
 C124 C 0.79415 0.29355 0.55888
 C125 C 0.80739 0.30333 0.50627
 C126 C 0.79783 0.29188 0.45187
 H127 H 0.73361 0.22796 0.35024
 H128 H 0.77414 0.26505 0.35428
 H129 H 0.72211 0.23385 0.64640
 H130 H 0.76173 0.27120 0.65005
 H131 H 0.67136 0.17751 0.49169
 H132 H 0.82552 0.32022 0.50760
 O133 O 1.03541 0.55386 0.10812
 O134 O 1.06331 0.54789 0.05398
 C135 C 1.05798 0.55956 0.09389
 O136 O 0.96487 0.44215 0.10663
 O137 O 0.93748 0.44909 0.05247
 C138 C 0.94239 0.43687 0.09188
 O139 O 1.03486 0.47823 0.11234
 O140 O 1.06272 0.51142 0.05612
 C141 C 1.05744 0.49514 0.09785
 O142 O 0.96600 0.52203 0.10071
 O143 O 0.93785 0.48679 0.05081
 C144 C 0.94338 0.50517 0.08680
 Zr145 Zr 1.00059 0.52620 0.07463
 O146 O 0.99787 0.52619 0.16777
 O147 O 1.00228 0.56109 0.06750
 Zr148 Zr 1.00004 0.47130 0.07740
 O149 O 0.99731 0.47013 0.17058
 O150 O 1.00231 0.43826 0.07678
 O151 O 1.02262 0.50981 0.08806
 O152 O 0.97857 0.48818 0.08678
 O153 O 0.96593 0.52053 -0.10247
 O154 O 0.93797 0.48628 -0.04932
 C155 C 0.94329 0.50360 -0.08835
 O156 O 1.03472 0.47812 -0.10580
 O157 O 1.06299 0.51100 -0.04948
 C158 C 1.05740 0.49451 -0.09084
 O159 O 0.96528 0.44296 -0.10405
 O160 O 0.93744 0.44885 -0.04918
 C161 C 0.94278 0.43770 -0.09030
 O162 O 1.03590 0.55301 -0.10695
 O163 O 1.06336 0.54727 -0.05002
 C164 C 1.05840 0.55854 -0.09176
 Zr165 Zr 1.00082 0.52563 -0.07320
 O166 O 0.99862 0.52443 -0.16652
 O167 O 1.00339 0.56107 -0.07275
 Zr168 Zr 1.00018 0.47057 -0.07032
 O169 O 0.99961 0.46603 -0.16282
 O170 O 1.00184 0.43738 -0.05985
 Zr171 Zr 1.03799 0.51695 0.00242
 Zr172 Zr 0.96290 0.48000 0.00153
 O173 O 0.97896 0.48756 -0.08324
 O174 O 1.02270 0.50894 -0.08349
 O175 O 0.97825 0.51902 0.00029
 O176 O 1.02218 0.47790 0.00381
 O177 O 1.02274 0.54067 0.00087
 O178 O 0.97740 0.45552 0.00327
 H179 H 0.96740 0.48304 0.12158
 H180 H 1.03358 0.47095 0.00426
 H181 H 0.96816 0.48250 -0.11878
 H182 H 1.03413 0.55899 0.00037
 H183 H 0.98787 0.42555 0.05395
 H184 H 0.98478 0.42367 -0.05071
 H185 H 0.99785 0.47970 -0.18039
 H186 H 1.01205 0.52156 -0.18119
 H187 H 0.99088 0.56024 -0.04424
 H188 H 1.00215 0.56667 0.10841
 H189 H 1.01096 0.52314 0.18412
 H190 H 1.01073 0.48632 0.18572
 O191 O 0.45006 0.48426 0.11088
 O192 O 0.45566 0.51727 0.05353
 C193 C 0.44477 0.50141 0.09598
 O194 O 0.56143 0.52410 0.09882
 O195 O 0.55351 0.48929 0.04607
 C196 C 0.56631 0.50665 0.08442
 O197 O 0.52545 0.55780 0.10579
 O198 O 0.49187 0.55290 0.05165
 C199 C 0.50875 0.56388 0.09244
 O200 O 0.48233 0.44647 0.10420
 O201 O 0.51611 0.45268 0.04913
 C202 C 0.49918 0.44081 0.08895
 Zr203 Zr 0.47694 0.47608 0.07520
 O204 O 0.47818 0.47453 0.16843
 O205 O 0.44197 0.44279 0.07126
 Zr206 Zr 0.53226 0.53031 0.07025
 O207 O 0.53663 0.53163 0.16300
 O208 O 0.56526 0.56550 0.06246
 O209 O 0.49395 0.51470 0.08487
 O210 O 0.51525 0.49225 0.08338
 O211 O 0.47944 0.44440 -0.10124
 O212 O 0.51475 0.45176 -0.05080
 C213 C 0.49684 0.43916 -0.08808
 O214 O 0.52216 0.55562 -0.11341
 O215 O 0.49050 0.55206 -0.05417
 C216 C 0.50624 0.56232 -0.09728
 O217 O 0.55732 0.52138 -0.11153
 O218 O 0.55215 0.48844 -0.05455
 C219 C 0.56289 0.50447 -0.09680
 O220 O 0.44636 0.48131 -0.10368
 O221 O 0.45399 0.51615 -0.05109
 C222 C 0.44150 0.49880 -0.08983
 Zr223 Zr 0.47475 0.47454 -0.07267
 O224 O 0.47414 0.47224 -0.16597
 O225 O 0.43934 0.44170 -0.06754
 Zr226 Zr 0.53002 0.52893 -0.07730
 O227 O 0.53260 0.53083 -0.17031
 O228 O 0.56339 0.56396 -0.07234
 Zr229 Zr 0.48522 0.52175 -0.00058
 Zr230 Zr 0.52179 0.48346 -0.00199
 O231 O 0.51267 0.49059 -0.08669
 O232 O 0.49136 0.51295 -0.08659
 O233 O 0.48271 0.45972 0.00128
 O234 O 0.52431 0.54483 -0.00340
 O235 O 0.46124 0.48280 0.00211
 O236 O 0.54650 0.52230 -0.00452
 H237 H 0.52103 0.48688 0.11835
 H238 H 0.53127 0.56315 -0.00415
 H239 H 0.51723 0.48443 -0.12220
 H240 H 0.44292 0.47600 0.00370
 H241 H 0.57812 0.56278 0.04347
 H242 H 0.57715 0.56093 -0.06114
 H243 H 0.51719 0.51631 -0.18549
 H244 H 0.47570 0.48790 -0.18167
 H245 H 0.44095 0.43022 -0.03974
 H246 H 0.43693 0.43770 0.11274
 H247 H 0.48200 0.49103 0.18370
 H248 H 0.51992 0.52568 0.18033
 O249 O 0.47381 0.03105 0.10705
 O250 O 0.50634 0.06005 0.05123
 C251 C 0.48966 0.05390 0.09241
 O252 O 0.52141 -0.03368 0.10387
 O253 O 0.48788 -0.06250 0.04994
 C254 C 0.50531 -0.05653 0.08909
 O255 O 0.55112 0.03599 0.10770
 O256 O 0.54361 0.06234 0.05097
 C257 C 0.55560 0.05810 0.09235
 O258 O 0.44025 -0.03840 0.10143
 O259 O 0.44918 -0.06507 0.05072
 C260 C 0.43591 -0.06059 0.08784
 Zr261 Zr 0.46879 -0.00296 0.07358
 O262 O 0.46802 -0.00529 0.16686
 O263 O 0.43488 -0.00221 0.07364
 Zr264 Zr 0.52517 0.00049 0.07329
 O265 O 0.52848 0.00081 0.16629
 O266 O 0.56050 0.00331 0.06344
 O267 O 0.50702 0.02096 0.08497
 O268 O 0.48713 -0.02288 0.08482
 O269 O 0.43993 -0.03898 -0.10223
 O270 O 0.44878 -0.06522 -0.04928
 C271 C 0.43551 -0.06109 -0.08728
 O272 O 0.55126 0.03566 -0.10894
 O273 O 0.54323 0.06205 -0.05420
 C274 C 0.55521 0.05773 -0.09518
 O275 O 0.52180 -0.03379 -0.10202
 O276 O 0.48756 -0.06277 -0.05040
 C277 C 0.50552 -0.05663 -0.08806
 O278 O 0.47365 0.03052 -0.10939
 O279 O 0.50613 0.05985 -0.05386
 C280 C 0.48946 0.05346 -0.09535
 Zr281 Zr 0.46844 -0.00334 -0.07463
 O282 O 0.46661 -0.00654 -0.16776
 O283 O 0.43459 -0.00247 -0.07359
 Zr284 Zr 0.52485 0.00027 -0.07454
 O285 O 0.52359 -0.00265 -0.16773
 O286 O 0.56125 0.00498 -0.07305
 Zr287 Zr 0.51362 0.03607 -0.00102
 Zr288 Zr 0.47979 -0.03876 -0.00005
 O289 O 0.48682 -0.02323 -0.08535
 O290 O 0.50664 0.02066 -0.08665
 O291 O 0.45405 -0.02578 -0.00020
 O292 O 0.53896 0.02267 -0.00080
 O293 O 0.47437 0.01845 -0.00084
 O294 O 0.51910 -0.02185 -0.00029
 H295 H 0.48192 -0.03408 0.11960
 H296 H 0.55713 0.03487 -0.00096
 H297 H 0.48165 -0.03447 -0.12005
 H298 H 0.46640 0.02893 -0.00104
 H299 H 0.56695 0.00415 0.10395
 H300 H 0.56090 -0.00778 -0.04601
 H301 H 0.52054 0.01052 -0.18346
 H302 H 0.48232 0.00737 -0.18369
 H303 H 0.42218 -0.01719 -0.05116
 H304 H 0.42270 -0.01632 0.04916
 H305 H 0.48394 0.00876 0.18166
 H306 H 0.51147 -0.00634 0.18274
 C307 C 1.18219 0.51358 0.39363
 C308 C 1.16619 0.51066 0.34697
 C309 C 1.15796 0.49036 0.30822
 C310 C 1.16658 0.47344 0.31594
 C311 C 1.18326 0.47676 0.36183
 C312 C 1.19108 0.49679 0.40166
 N313 N 1.13980 0.48604 0.26338
 N314 N 1.13709 0.50389 0.24403
 C315 C 1.11787 0.50037 0.20320
 C316 C 1.12068 0.52096 0.17121
 C317 C 1.10139 0.51888 0.13506
 C318 C 1.07854 0.49634 0.13180
 C319 C 1.07583 0.47553 0.16340
 C320 C 1.09547 0.47745 0.19839
 H321 H 1.18773 0.52913 0.42361
 H322 H 1.15956 0.52381 0.34240
 H323 H 1.16013 0.45753 0.28680
 H324 H 1.18904 0.46300 0.36795
 H325 H 1.13777 0.53877 0.17494
 H326 H 1.10407 0.53518 0.11119
 H327 H 1.05847 0.45787 0.16151
 H328 H 1.09283 0.46137 0.22335
 C329 C 0.47819 0.68526 0.34301
 C330 C 0.47829 0.67098 0.29498
 C331 C 0.49413 0.66083 0.29502
 C332 C 0.51010 0.66540 0.34348
 C333 C 0.50980 0.67928 0.39144
 C334 C 0.49388 0.68946 0.39221
 N335 N 0.49318 0.64506 0.24737
 N336 N 0.50882 0.63737 0.24582
 C337 C 0.50900 0.62058 0.20274
 C338 C 0.52796 0.61464 0.20687
 C339 C 0.52813 0.59682 0.16984
 C340 C 0.50916 0.58435 0.12750
 C341 C 0.49044 0.59093 0.12189
 C342 C 0.49029 0.60891 0.15951
 H343 H 0.46502 0.69199 0.34284
 H344 H 0.46569 0.66743 0.25826
 H345 H 0.52254 0.65782 0.34502
 H346 H 0.52231 0.68225 0.42808
 H347 H 0.54241 0.62348 0.24015
 H348 H 0.54296 0.59247 0.17549
 H349 H 0.47569 0.58184 0.08948
 H350 H 0.47538 0.61323 0.15575
 C351 C 0.32213 -0.20577 0.36065
 C352 C 0.33729 -0.19260 0.31257
 C353 C 0.34241 -0.16831 0.30015
 C354 C 0.33229 -0.15726 0.33668
 C355 C 0.31758 -0.17014 0.38502
 C356 C 0.31200 -0.19470 0.39750
 N357 N 0.35877 -0.15456 0.25238
 N358 N 0.36059 -0.13408 0.23558
 C359 C 0.37770 -0.11807 0.19163
 C360 C 0.37706 -0.09647 0.17691
 C361 C 0.39538 -0.07841 0.14077
 C362 C 0.41478 -0.08164 0.11842
 C363 C 0.41471 -0.10399 0.13044
 C364 C 0.39629 -0.12212 0.16721
 H365 H 0.31906 -0.22426 0.37027
 H366 H 0.34525 -0.20124 0.28535
 H367 H 0.33613 -0.13841 0.32857
 H368 H 0.31016 -0.16098 0.41229
 H369 H 0.36281 -0.09319 0.19547
 H370 H 0.39478 -0.06151 0.13177
 H371 H 0.42952 -0.10687 0.11398
 H372 H 0.39715 -0.13870 0.17833
 C373 C 0.79901 0.48012 0.34793
 C374 C 0.81191 0.47850 0.29903
 C375 C 0.83496 0.49889 0.28276
 C376 C 0.84452 0.52137 0.31464
 C377 C 0.83173 0.52294 0.36362
 C378 C 0.80911 0.50222 0.38112
 N379 N 0.84940 0.49581 0.23761
 N380 N 0.87060 0.51387 0.22258
 C381 C 0.88687 0.51146 0.18173
 C382 C 0.91015 0.53246 0.17108
 C383 C 0.92810 0.53047 0.13826
 C384 C 0.92301 0.50732 0.11510
 C385 C 0.89911 0.48640 0.12306
 C386 C 0.88113 0.48841 0.15658
 H387 H 0.78169 0.46387 0.36136
 H388 H 0.80441 0.46105 0.27514
 H389 H 0.86234 0.53741 0.30317
 H390 H 0.83983 0.54005 0.38904
 H391 H 0.91475 0.55028 0.19031
 H392 H 0.94623 0.54700 0.13230
 H393 H 0.89470 0.46836 0.10567
 H394 H 0.86320 0.47189 0.16447
 C395 C 0.47292 0.30198 0.37206
 C396 C 0.47042 0.31547 0.32567
 C397 C 0.49160 0.33543 0.30013
 C398 C 0.51551 0.34135 0.32035
 C399 C 0.51801 0.32793 0.36704
 C400 C 0.49670 0.30841 0.39350
 N401 N 0.48827 0.35060 0.25741
 N402 N 0.50652 0.36779 0.22900
 C403 C 0.50335 0.38420 0.18987
 C404 C 0.52351 0.40080 0.15498
 C405 C 0.52179 0.41857 0.12032
 C406 C 0.49992 0.42030 0.12080
 C407 C 0.47947 0.40322 0.15488
 C408 C 0.48111 0.38521 0.18889
 H409 H 0.45632 0.28705 0.39254
 H410 H 0.45193 0.31083 0.31066
 H411 H 0.53216 0.35686 0.30166
 H412 H 0.53646 0.33323 0.38377
 H413 H 0.54080 0.40031 0.15566
 H414 H 0.53792 0.43153 0.09481
 H415 H 0.46236 0.40404 0.15605
 H416 H 0.46531 0.37265 0.21581
 C417 C 0.69810 0.17453 0.36339
 C418 C 0.68424 0.15854 0.31730
 C419 C 0.66336 0.15895 0.29440
 C420 C 0.65703 0.17628 0.31660
 C421 C 0.67074 0.19211 0.36307
 C422 C 0.69109 0.19103 0.38726
 N423 N 0.64760 0.14009 0.25304
 N424 N 0.62934 0.14029 0.22739
 C425 C 0.61235 0.12019 0.19020
 C426 C 0.59501 0.12306 0.15613
 C427 C 0.57697 0.10310 0.12288
 C428 C 0.57563 0.07974 0.12434
 C429 C 0.59331 0.07704 0.15797
 C430 C 0.61160 0.09711 0.19031
 H431 H 0.71358 0.17328 0.38226
 H432 H 0.68920 0.14516 0.30085
 H433 H 0.64085 0.17681 0.29995
 H434 H 0.66494 0.20453 0.38167
 H435 H 0.59530 0.14070 0.15595
 H436 H 0.56371 0.10580 0.09722
 H437 H 0.59291 0.05934 0.15968
 H438 H 0.62468 0.09437 0.21666
 C439 C 0.51835 0.20324 -0.35064
 C440 C 0.51865 0.18904 -0.30264
 C441 C 0.50195 0.16329 -0.30057
 C442 C 0.48482 0.15191 -0.34704
 C443 C 0.48465 0.16592 -0.39496
 C444 C 0.50127 0.19183 -0.39752
 N445 N 0.50316 0.14865 -0.25280
 N446 N 0.48729 0.12544 -0.24996
 C447 C 0.48741 0.10877 -0.20642
 C448 C 0.46904 0.08369 -0.21073
 C449 C 0.46939 0.06603 -0.17334
 C450 C 0.48823 0.07309 -0.13035
 C451 C 0.50614 0.09858 -0.12416
 C452 C 0.50587 0.11635 -0.16235
 H453 H 0.53213 0.22294 -0.35220
 H454 H 0.53218 0.19803 -0.26757
 H455 H 0.47174 0.13202 -0.34695
 H456 H 0.47115 0.15644 -0.42990
 H457 H 0.45474 0.07770 -0.24452
 H458 H 0.45511 0.04668 -0.17926
 H459 H 0.52062 0.10468 -0.09089
 H460 H 0.52023 0.13576 -0.15827
 C461 C 0.70347 0.50749 -0.33847
 C462 C 0.69022 0.50808 -0.28899
 C463 C 0.66424 0.49274 -0.28644
 C464 C 0.65178 0.47568 -0.33214
 C465 C 0.66497 0.47465 -0.38079
 C466 C 0.69101 0.49077 -0.38539
 N467 N 0.65036 0.49636 -0.24086
 N468 N 0.62897 0.49348 -0.25308
 C469 C 0.61351 0.49675 -0.21158
 C470 C 0.59618 0.50292 -0.23360
 C471 C 0.58033 0.50604 -0.19556
 C472 C 0.58098 0.50224 -0.13466
 C473 C 0.59808 0.49555 -0.11223
 C474 C 0.61464 0.49322 -0.15056
 H475 H 0.72316 0.52121 -0.34149
 H476 H 0.69997 0.52166 -0.25450
 H477 H 0.63170 0.46352 -0.33078
 H478 H 0.65466 0.46134 -0.41544
 H479 H 0.59508 0.50549 -0.28060
 H480 H 0.56706 0.51081 -0.21403
 H481 H 0.59874 0.49239 -0.06539
 H482 H 0.62781 0.48814 -0.13298
 C483 C 0.81083 0.29554 -0.33845
 C484 C 0.82410 0.30934 -0.28886
 C485 C 0.83334 0.33512 -0.28676
 C486 C 0.82791 0.34673 -0.33326
 C487 C 0.81418 0.33289 -0.38203
 C488 C 0.80589 0.30726 -0.38564
 N489 N 0.85016 0.34964 -0.24042
 N490 N 0.86718 0.37197 -0.25084
 C491 C 0.88532 0.38777 -0.20834
 C492 C 0.90810 0.40692 -0.22939
 C493 C 0.92675 0.42261 -0.19031
 C494 C 0.92265 0.41995 -0.12920
 C495 C 0.89948 0.40121 -0.10761
 C496 C 0.88096 0.38481 -0.14713
 H497 H 0.80502 0.27589 -0.34077
 H498 H 0.82836 0.30022 -0.25359
 H499 H 0.83477 0.36662 -0.33240
 H500 H 0.81060 0.34231 -0.41787
 H501 H 0.91153 0.40945 -0.27644
 H502 H 0.94431 0.43723 -0.20795
 H503 H 0.89592 0.39909 -0.06057
 H504 H 0.86325 0.37023 -0.13020
 C505 C 0.47354 -0.20092 -0.35819
 C506 C 0.47278 -0.18721 -0.30992
 C507 C 0.49418 -0.16502 -0.29301
 C508 C 0.51666 -0.15707 -0.32390
 C509 C 0.51741 -0.17072 -0.37206
 C510 C 0.49582 -0.19258 -0.38992
 N511 N 0.49231 -0.14996 -0.24750
 N512 N 0.51107 -0.12914 -0.23275
 C513 C 0.50971 -0.11267 -0.19056
 C514 C 0.53098 -0.08936 -0.18152
 C515 C 0.52982 -0.07147 -0.14639
 C516 C 0.50729 -0.07670 -0.11909
 C517 C 0.48619 -0.10060 -0.12578
 C518 C 0.48734 -0.11844 -0.16160
 H519 H 0.45664 -0.21761 -0.37187
 H520 H 0.45532 -0.19346 -0.28678
 H521 H 0.53346 -0.13996 -0.31195
 H522 H 0.53470 -0.16394 -0.39635
 H523 H 0.54831 -0.08473 -0.20356
 H524 H 0.54644 -0.05332 -0.14170
 H525 H 0.46857 -0.10511 -0.10547
 H526 H 0.47063 -0.13639 -0.16799
 C527 C 0.34391 0.53399 -0.39162
 C528 C 0.35945 0.53533 -0.34526
 C529 C 0.35074 0.51670 -0.30215
 C530 C 0.32577 0.49719 -0.30420
 C531 C 0.30991 0.49619 -0.34975
 C532 C 0.31888 0.51446 -0.39452
 N533 N 0.36813 0.51728 -0.25936
 N534 N 0.36417 0.49800 -0.23040
 C535 C 0.38231 0.49855 -0.18995
 C536 C 0.38115 0.47608 -0.17472
 C537 C 0.40017 0.47614 -0.14105
 C538 C 0.42037 0.49872 -0.12071
 C539 C 0.42080 0.52117 -0.13331
 C540 C 0.40209 0.52115 -0.16833
 H541 H 0.35146 0.54829 -0.42547
 H542 H 0.37868 0.55039 -0.34427
 H543 H 0.31870 0.48250 -0.27137
 H544 H 0.29107 0.48039 -0.35178
 H545 H 0.36602 0.45855 -0.19110
 H546 H 0.39927 0.45854 -0.13158
 H547 H 0.43612 0.53877 -0.11816
 H548 H 0.40329 0.53876 -0.17931
 C549 C 1.16285 0.68275 -0.40464
 C550 C 1.14597 0.66892 -0.36032
 C551 C 1.15389 0.66146 -0.31053
 C552 C 1.17938 0.66914 -0.30385
 C553 C 1.19655 0.68353 -0.34794
 C554 C 1.18836 0.69009 -0.39957
 N555 N 1.13518 0.64480 -0.27009
 N556 N 1.13943 0.63399 -0.22749
 C557 C 1.11934 0.61641 -0.19092
 C558 C 1.12408 0.60326 -0.14719
 C559 C 1.10440 0.58470 -0.11410
 C560 C 1.07958 0.57896 -0.12437
 C561 C 1.07503 0.59264 -0.16738
 C562 C 1.09465 0.61113 -0.20023
 H563 H 1.15588 0.68762 -0.44343
 H564 H 1.12639 0.66317 -0.36584
 H565 H 1.18587 0.66348 -0.26559
 H566 H 1.21588 0.68821 -0.34327
 H567 H 1.14298 0.60707 -0.13956
 H568 H 1.10859 0.57458 -0.08122
 H569 H 1.05623 0.58889 -0.17630
 H570 H 1.09040 0.62100 -0.23361
 C571 C 0.84076 0.52657 -0.40395
 C572 C 0.85723 0.52911 -0.35879
 C573 C 0.84988 0.51106 -0.31462
 C574 C 0.82548 0.49043 -0.31532
 C575 C 0.80880 0.48791 -0.36050
 C576 C 0.81621 0.50605 -0.40540
 N577 N 0.86818 0.51362 -0.27203
 N578 N 0.86390 0.49778 -0.23135
 C579 C 0.88339 0.50071 -0.19184
 C580 C 0.87840 0.48221 -0.14980
 C581 C 0.89767 0.48353 -0.11448
 C582 C 0.92233 0.50346 -0.12081
 C583 C 0.92705 0.52247 -0.16160
 C584 C 0.90780 0.52113 -0.19672
 H585 H 0.84720 0.54084 -0.43784
 H586 H 0.87603 0.54500 -0.35888
 H587 H 0.81954 0.47603 -0.28197
 H588 H 0.79055 0.47122 -0.36177
 H589 H 0.85969 0.46637 -0.14556
 H590 H 0.89336 0.46854 -0.08356
 H591 H 0.94575 0.53814 -0.16752
 H592 H 0.91219 0.53576 -0.22872
 C593 C 0.47070 0.29974 -0.37061
 C594 C 0.46777 0.31306 -0.32453
 C595 C 0.48871 0.33305 -0.29804
 C596 C 0.51279 0.33904 -0.31685
 C597 C 0.51571 0.32579 -0.36314
 C598 C 0.49467 0.30633 -0.39075
 N599 N 0.48507 0.34816 -0.25578
 N600 N 0.50326 0.36550 -0.22739
 C601 C 0.50021 0.38201 -0.18845
 C602 C 0.52066 0.39892 -0.15463
 C603 C 0.51918 0.41685 -0.12026
 C604 C 0.49720 0.41840 -0.11970
 C605 C 0.47645 0.40101 -0.15271
 C606 C 0.47789 0.38286 -0.18663
 H607 H 0.45431 0.28490 -0.39204
 H608 H 0.44914 0.30832 -0.31065
 H609 H 0.52927 0.35453 -0.29744
 H610 H 0.53431 0.33128 -0.37889
 H611 H 0.53803 0.39860 -0.15602
 H612 H 0.53560 0.43007 -0.09582
 H613 H 0.45928 0.40171 -0.15320
 H614 H 0.46188 0.37006 -0.21278
 C615 C 0.69819 0.18506 -0.35428
 C616 C 0.68440 0.16915 -0.30795
 C617 C 0.65854 0.15939 -0.30471
 C618 C 0.64653 0.16573 -0.34840
 C619 C 0.66012 0.18103 -0.39557
 C620 C 0.68620 0.19105 -0.39917
 N621 N 0.64454 0.14178 -0.25930
 N622 N 0.62289 0.13753 -0.24444
 C623 C 0.60770 0.11853 -0.20282
 C624 C 0.58792 0.11953 -0.17559
 C625 C 0.57151 0.10023 -0.13844
 C626 C 0.57416 0.07920 -0.12942
 C627 C 0.59421 0.07834 -0.15628
 C628 C 0.61104 0.09799 -0.19221
 H629 H 0.71803 0.19154 -0.35668
 H630 H 0.69383 0.16411 -0.27499
 H631 H 0.62649 0.15815 -0.34718
 H632 H 0.65022 0.18520 -0.42917
 H633 H 0.58503 0.13516 -0.18381
 H634 H 0.55618 0.10131 -0.11857
 H635 H 0.59671 0.06236 -0.14998
 H636 H 0.62606 0.09672 -0.21338
 C637 C 1.20692 0.52302 -0.34644
 C638 C 1.19320 0.52451 -0.29889
 C639 C 1.16806 0.50627 -0.29126
 C640 C 1.15692 0.48624 -0.33123
 C641 C 1.17039 0.48490 -0.37876
 C642 C 1.19558 0.50321 -0.38728
 N643 N 1.15356 0.50882 -0.24525
 N644 N 1.13105 0.49163 -0.23730
 C645 C 1.11423 0.49262 -0.19566
 C646 C 1.09014 0.47205 -0.19290
 C647 C 1.07205 0.47260 -0.15762
 C648 C 1.07769 0.49387 -0.12397
 C649 C 1.10224 0.51435 -0.12503
 C650 C 1.12045 0.51379 -0.16098
 H651 H 1.22597 0.53798 -0.35290
 H652 H 1.20198 0.54020 -0.26887
 H653 H 1.13752 0.47187 -0.32675
 H654 H 1.16105 0.46938 -0.40917
 H655 H 1.08517 0.45570 -0.21959
 H656 H 1.05344 0.45640 -0.15754
 H657 H 1.10711 0.53100 -0.09964
 H658 H 1.13904 0.52995 -0.16278
 C659 C 0.46754 0.67358 -0.35942
 C660 C 0.46745 0.65916 -0.31155
 C661 C 0.48885 0.65770 -0.29799
 C662 C 0.51067 0.67162 -0.33162
 C663 C 0.51076 0.68598 -0.37915
 C664 C 0.48915 0.68682 -0.39384
 N665 N 0.48773 0.64083 -0.25299
 N666 N 0.50611 0.63727 -0.24497
 C667 C 0.50618 0.61988 -0.20351
 C668 C 0.52629 0.61557 -0.20502
 C669 C 0.52642 0.59725 -0.16956
 C670 C 0.50643 0.58295 -0.13105
 C671 C 0.48672 0.58813 -0.12734
 C672 C 0.48642 0.60631 -0.16393
 H673 H 0.45065 0.67392 -0.37060
 H674 H 0.45050 0.64848 -0.28622
 H675 H 0.52750 0.67091 -0.32219
 H676 H 0.52754 0.69602 -0.40548
 H677 H 0.54163 0.62600 -0.23523
 H678 H 0.54211 0.59410 -0.17301
 H679 H 0.47135 0.57781 -0.09726
 H680 H 0.47074 0.60951 -0.16188
 C681 C 0.30899 -0.16420 -0.39413
 C682 C 0.32210 -0.14814 -0.34783
 C683 C 0.33056 -0.15640 -0.30048
 C684 C 0.32447 -0.18152 -0.29797
 C685 C 0.31077 -0.19790 -0.34390
 C686 C 0.30336 -0.18926 -0.39333
 N687 N 0.34686 -0.13823 -0.25861
 N688 N 0.35892 -0.14248 -0.21904
 C689 C 0.37628 -0.12269 -0.18146
 C690 C 0.39160 -0.12685 -0.14290
 C691 C 0.41051 -0.10702 -0.11072
 C692 C 0.41433 -0.08269 -0.11682
 C693 C 0.39824 -0.07887 -0.15387
 C694 C 0.37947 -0.09860 -0.18578
 H695 H 0.30343 -0.15694 -0.43118
 H696 H 0.32667 -0.12881 -0.35012
 H697 H 0.33094 -0.18823 -0.26166
 H698 H 0.30741 -0.21685 -0.34255
 H699 H 0.38940 -0.14530 -0.13917
 H700 H 0.42253 -0.11060 -0.08246
 H701 H 0.40045 -0.06048 -0.15930
 H702 H 0.36785 -0.09483 -0.21501
 C703 C 0.52996 -0.16340 0.39206
 C704 C 0.53384 -0.14641 0.34701
 C705 C 0.51520 -0.15181 0.30495
 C706 C 0.49289 -0.17498 0.30692
 C707 C 0.48899 -0.19202 0.35204
 C708 C 0.50736 -0.18613 0.39544
 N709 N 0.51855 -0.13268 0.26415
 N710 N 0.50221 -0.13601 0.22541
 C711 C 0.50481 -0.11623 0.18775
 C712 C 0.48629 -0.12131 0.14562
 C713 C 0.48693 -0.10203 0.11210
 C714 C 0.50611 -0.07717 0.12050
 C715 C 0.52513 -0.07221 0.16165
 C716 C 0.52452 -0.09157 0.19494
 H717 H 0.54425 -0.15849 0.42549
 H718 H 0.55105 -0.12860 0.34610
 H719 H 0.47815 -0.17952 0.27501
 H720 H 0.47132 -0.20934 0.35447
 H721 H 0.47095 -0.14020 0.13987
 H722 H 0.47195 -0.10656 0.08086
 H723 H 0.54020 -0.05332 0.16913
 H724 H 0.53903 -0.08715 0.22742
 C725 C 0.30470 0.48123 0.36993
 C726 C 0.31825 0.47793 0.32500
 C727 C 0.33989 0.49840 0.30246
 C728 C 0.34740 0.52247 0.32399
 C729 C 0.33404 0.52573 0.36942
 C730 C 0.31283 0.50509 0.39316
 N731 N 0.35500 0.49413 0.26153
 N732 N 0.37347 0.51204 0.23534
 C733 C 0.38987 0.50822 0.19782
 C734 C 0.40694 0.52801 0.16273
 C735 C 0.42433 0.52552 0.12848
 C736 C 0.42530 0.50329 0.12975
 C737 C 0.40799 0.48332 0.16472
 C738 C 0.39028 0.48569 0.19819
 H739 H 0.28856 0.46509 0.38848
 H740 H 0.31235 0.45930 0.30902
 H741 H 0.36415 0.53857 0.30757
 H742 H 0.34069 0.54421 0.38749
 H743 H 0.40693 0.54551 0.16240
 H744 H 0.43741 0.54125 0.10211
 H745 H 0.40822 0.46593 0.16641
 H746 H 0.37737 0.47020 0.22543
 C747 C 1.20540 0.67192 0.35869
 C748 C 1.19188 0.65752 0.30998
 C749 C 1.17002 0.65721 0.29166
 C750 C 1.16247 0.67238 0.32100
 C751 C 1.17592 0.68669 0.36938
 C752 C 1.19718 0.68623 0.38915
 N753 N 1.15458 0.63995 0.24698
 N754 N 1.13310 0.63708 0.23588
 C755 C 1.11576 0.61917 0.19512
 C756 C 1.09153 0.61540 0.19425
 C757 C 1.07303 0.59639 0.16030
 C758 C 1.07850 0.58087 0.12570
 C759 C 1.10327 0.58557 0.12399
 C760 C 1.12178 0.60444 0.15914
 H761 H 1.22173 0.67130 0.37381
 H762 H 1.19785 0.64587 0.28797
 H763 H 1.14571 0.67258 0.30777
 H764 H 1.16935 0.69762 0.39259
 H765 H 1.08676 0.62673 0.22168
 H766 H 1.05430 0.59366 0.16202
 H767 H 1.10819 0.57436 0.09671
 H768 H 1.14055 0.60726 0.15889
 C769 C 0.52307 0.20268 0.35184
 C770 C 0.52330 0.18842 0.30407
 C771 C 0.50247 0.16495 0.29229
 C772 C 0.48099 0.15633 0.32758
 C773 C 0.48076 0.17053 0.37510
 C774 C 0.50188 0.19362 0.38808
 N775 N 0.50401 0.14943 0.24740
 N776 N 0.48615 0.12722 0.23949
 C777 C 0.48689 0.11017 0.19804
 C778 C 0.46701 0.08563 0.19785
 C779 C 0.46772 0.06762 0.16239
 C780 C 0.48839 0.07385 0.12574
 C781 C 0.50796 0.09882 0.12400
 C782 C 0.50734 0.11687 0.16030
 H783 H 0.53964 0.22034 0.36174
 H784 H 0.54000 0.19526 0.27748
 H785 H 0.46461 0.13830 0.31957
 H786 H 0.46433 0.16320 0.40290
 H787 H 0.45116 0.08027 0.22670
 H788 H 0.45219 0.04866 0.16453
 H789 H 0.52400 0.10425 0.09588
 H790 H 0.52292 0.13581 0.15966
 C791 C 0.69092 0.52259 0.39778
 C792 C 0.67795 0.52656 0.35247
 C793 C 0.66443 0.50788 0.31085
 C794 C 0.66447 0.48517 0.31426
 C795 C 0.67748 0.48116 0.35979
 C796 C 0.69063 0.49982 0.40203
 N797 N 0.64977 0.51205 0.26810
 N798 N 0.63705 0.49633 0.22807
 C799 C 0.62145 0.50057 0.18821
 C800 C 0.60782 0.48275 0.14489
 C801 C 0.59070 0.48527 0.10912
 C802 C 0.58678 0.50566 0.11645
 C803 C 0.60127 0.52404 0.15844
 C804 C 0.61844 0.52154 0.19389
 H805 H 0.70087 0.53711 0.43025
 H806 H 0.67798 0.54407 0.35047
 H807 H 0.65403 0.47041 0.28270
 H808 H 0.67693 0.46342 0.36281
 H809 H 0.60999 0.46652 0.13989
 H810 H 0.57997 0.47083 0.07707
 H811 H 0.59886 0.54004 0.16518
 H812 H 0.62880 0.53565 0.22690
 C813 C 0.83152 0.29895 0.38056
 C814 C 0.84781 0.31271 0.33480
 C815 C 0.84571 0.33178 0.30667
 C816 C 0.82658 0.33649 0.32385
 C817 C 0.81036 0.32280 0.36979
 C818 C 0.81292 0.30415 0.39878
 N819 N 0.86423 0.34715 0.26409
 N820 N 0.86261 0.36366 0.23387
 C821 C 0.88203 0.38016 0.19438
 C822 C 0.87809 0.39635 0.15857
 C823 C 0.89738 0.41414 0.12333
 C824 C 0.92117 0.41629 0.12401
 C825 C 0.92486 0.39955 0.15885
 C826 C 0.90546 0.38158 0.19348
 H827 H 0.83383 0.28473 0.40291
 H828 H 0.86250 0.30893 0.32217
 H829 H 0.82470 0.35127 0.30320
 H830 H 0.79627 0.32721 0.38395
 H831 H 0.86015 0.39551 0.15890
 H832 H 0.89390 0.42675 0.09713
 H833 H 0.94290 0.40060 0.16019
 H834 H 0.90902 0.36931 0.22082
   
