data_POSCAR
  _audit_creation_date              2014-09-24
  _audit_creation_method            'ToBaCCo'
  _symmetry_space_group_name_H-M    'P1'
  _symmetry_Int_Tables_number       1
  _symmetry_cell_setting            triclinic
  loop_
  _symmetry_equiv_pos_as_xyz
 x,y,z
_cell_length_a 21.0380
_cell_length_b 21.1837
_cell_length_c 35.5930
_cell_angle_alpha 88.564000
_cell_angle_beta 89.027100
_cell_angle_gamma 82.869400
loop_
  _atom_site_label
  _atom_site_type_symbol
  _atom_site_fract_x
  _atom_site_fract_y
  _atom_site_fract_z
O1 O -0.05226 0.44558 1.03757
 O2 O -0.05438 0.57203 0.96458
 O3 O -0.05735 0.44910 0.96476
 O4 O -0.04936 0.56846 1.03740
 O5 O 0.05650 0.55314 1.03406
 O6 O 0.04850 0.43379 0.96143
 O7 O 0.05146 0.55671 0.96125
 O8 O 0.05359 0.43026 1.03424
 Cu9 Cu -0.06403 0.51035 1.00141
 Cu10 Cu 0.06320 0.49193 0.99739
 C11 C 0.00099 0.41623 1.04799
 C12 C -0.00178 0.58611 0.95084
 C13 C -0.00574 0.42089 0.95109
 C14 C 0.00488 0.58131 1.04777
 O15 O 0.55712 0.05141 0.46153
 O16 O 0.42999 0.05279 0.53403
 O17 O 0.55357 0.05521 0.53451
 O18 O 0.43347 0.04915 0.46103
 O19 O 0.44846 -0.05603 0.46435
 O20 O 0.56858 -0.04997 0.53783
 O21 O 0.44499 -0.05239 0.53734
 O22 O 0.57211 -0.05375 0.46484
 Cu23 Cu 0.49202 0.06276 0.49743
 Cu24 Cu 0.51005 -0.06366 0.50141
 C25 C 0.58626 -0.00140 0.45105
 C26 C 0.41590 0.00042 0.54783
 C27 C 0.58150 0.00364 0.54847
 C28 C 0.42051 -0.00445 0.45040
 Si29 Si 0.00770 -0.01054 0.24913
 Si30 Si -0.00804 0.01038 0.75135
 C31 C 0.01423 -0.17552 0.17308
 C32 C 0.01593 -0.23877 0.18719
 C33 C 0.01499 -0.28954 0.16191
 C34 C 0.01225 -0.27669 0.12270
 C35 C 0.01106 -0.21344 0.10857
 C36 C 0.01214 -0.16271 0.13384
 C37 C 0.01091 -0.09986 0.11908
 C38 C 0.00860 -0.08749 0.08046
 C39 C 0.00735 -0.13707 0.05575
 C40 C 0.00862 -0.19941 0.06947
 C41 C 0.01664 -0.35238 0.17667
 C42 C 0.01914 -0.36470 0.21530
 C43 C 0.02000 -0.31504 0.24001
 C44 C 0.01840 -0.25269 0.22628
 C45 C 0.01003 -0.32826 0.09683
 C46 C 0.00784 -0.37019 0.07480
 C47 C 0.01342 -0.12340 0.19881
 C48 C 0.01188 -0.07916 0.21953
 H49 H 0.01183 -0.05968 0.13715
 H50 H 0.00781 -0.03919 0.06965
 H51 H 0.00538 -0.12720 0.02578
 H52 H 0.00767 -0.23634 0.04910
 H53 H 0.01606 -0.39257 0.15855
 H54 H 0.02042 -0.41306 0.22610
 H55 H 0.02194 -0.32486 0.26999
 H56 H 0.01921 -0.21564 0.24659
 C57 C 0.00237 0.16038 0.17290
 C58 C -0.02088 0.15720 0.13599
 C59 C -0.02103 0.21045 0.11089
 C60 C 0.00201 0.26659 0.12290
 C61 C 0.02548 0.26966 0.15978
 C62 C 0.02575 0.21632 0.18485
 C63 C 0.04982 0.22029 0.22151
 C64 C 0.07289 0.27543 0.23308
 C65 C 0.07249 0.32764 0.20860
 C66 C 0.04910 0.32507 0.17233
 C67 C -0.04430 0.20606 0.07406
 C68 C -0.06686 0.15069 0.06241
 C69 C -0.06675 0.09864 0.08697
 C70 C -0.04406 0.10156 0.12336
 C71 C 0.00194 0.32082 0.09713
 C72 C 0.00163 0.36500 0.07510
 C73 C 0.00310 0.10575 0.19833
 C74 C 0.00425 0.05982 0.21902
 H75 H 0.05114 0.18091 0.24157
 H76 H 0.09117 0.27765 0.26121
 H77 H 0.09044 0.37038 0.21773
 H78 H 0.04983 0.36686 0.15429
 H79 H -0.04534 0.24525 0.05390
 H80 H -0.08461 0.14821 0.03419
 H81 H -0.08440 0.05577 0.07781
 H82 H -0.04495 0.05981 0.14142
 C83 C 0.16489 0.00384 0.67639
 C84 C 0.18954 0.06123 0.66627
 C85 C 0.24234 0.06032 0.64075
 C86 C 0.27017 0.00202 0.62552
 C87 C 0.24613 -0.05550 0.63610
 C88 C 0.19333 -0.05458 0.66162
 C89 C 0.16994 -0.11262 0.67167
 C90 C 0.19794 -0.16996 0.65692
 C91 C 0.24957 -0.17088 0.63197
 C92 C 0.27358 -0.11446 0.62157
 C93 C 0.26596 0.11833 0.63093
 C94 C 0.23822 0.17561 0.64589
 C95 C 0.18659 0.17649 0.67084
 C96 C 0.16232 0.12012 0.68102
 C97 C 0.32258 0.00138 0.59838
 C98 C 0.36552 0.00093 0.57549
 C99 C 0.10945 0.00517 0.70131
 C100 C 0.06291 0.00678 0.72160
 H101 H 0.12991 -0.11434 0.69101
 H102 H 0.17947 -0.21392 0.66492
 H103 H 0.27116 -0.21555 0.62060
 H104 H 0.31385 -0.11761 0.60210
 H105 H 0.30607 0.12007 0.61165
 H106 H 0.25690 0.21953 0.63808
 H107 H 0.16521 0.22110 0.68240
 H108 H 0.12214 0.12325 0.70056
 C109 C -0.17790 0.01367 0.67762
 C110 C -0.20405 0.07008 0.65849
 C111 C -0.25512 0.06840 0.63304
 C112 C -0.27970 0.01029 0.62689
 C113 C -0.25441 -0.04587 0.64664
 C114 C -0.20336 -0.04416 0.67210
 C115 C -0.17863 -0.10096 0.69140
 C116 C -0.20364 -0.15780 0.68572
 C117 C -0.25354 -0.15948 0.66081
 C118 C -0.27881 -0.10431 0.64140
 C119 C -0.28025 0.12535 0.61408
 C120 C -0.25568 0.18233 0.62012
 C121 C -0.20575 0.18396 0.64502
 C122 C -0.18002 0.12861 0.66405
 C123 C -0.32981 0.00797 0.59957
 C124 C -0.37071 0.00600 0.57646
 C125 C -0.12366 0.01456 0.70214
 C126 C -0.07794 0.01406 0.72208
 H127 H -0.13988 -0.10206 0.71112
 H128 H -0.18420 -0.20077 0.70074
 H129 H -0.27282 -0.20376 0.65648
 H130 H -0.31766 -0.10799 0.62236
 H131 H -0.31916 0.12651 0.59447
 H132 H -0.27551 0.22546 0.60541
 H133 H -0.18684 0.22834 0.64963
 H134 H -0.14127 0.13227 0.68318
 C135 C -0.00323 -0.16042 0.82765
 C136 C -0.02540 -0.21677 0.81540
 C137 C -0.02508 -0.27019 0.84040
 C138 C -0.00277 -0.26681 0.87753
 C139 C 0.01907 -0.21027 0.88983
 C140 C 0.01885 -0.15691 0.86481
 C141 C 0.04076 -0.10085 0.87775
 C142 C 0.06234 -0.09763 0.91436
 C143 C 0.06259 -0.14981 0.93884
 C144 C 0.04123 -0.20558 0.92689
 C145 C -0.04746 -0.32603 0.82754
 C146 C -0.06970 -0.32893 0.79103
 C147 C -0.07016 -0.27663 0.76661
 C148 C -0.04828 -0.22108 0.77849
 C149 C -0.00269 -0.32111 0.90324
 C150 C -0.00238 -0.36533 0.92525
 C151 C -0.00386 -0.10575 0.80226
 C152 C -0.00489 -0.05984 0.78155
 H153 H 0.04151 -0.05899 0.85976
 H154 H 0.07903 -0.05443 0.92377
 H155 H 0.07953 -0.14712 0.96723
 H156 H 0.04232 -0.24484 0.94700
 H157 H -0.04810 -0.36790 0.84552
 H158 H -0.08671 -0.37200 0.78166
 H159 H -0.08754 -0.27910 0.73829
 H160 H -0.04959 -0.18165 0.75846
 C161 C -0.01472 0.17625 0.82675
 C162 C -0.01420 0.16414 0.86606
 C163 C -0.01328 0.21523 0.89110
 C164 C -0.01299 0.27813 0.87665
 C165 C -0.01409 0.29027 0.83735
 C166 C -0.01491 0.23915 0.81232
 C167 C -0.01570 0.25236 0.77313
 C168 C -0.01578 0.31437 0.75908
 C169 C -0.01506 0.36438 0.78356
 C170 C -0.01421 0.35275 0.82228
 C171 C -0.01246 0.20190 0.93029
 C172 C -0.01256 0.13989 0.94432
 C173 C -0.01359 0.08996 0.91984
 C174 C -0.01437 0.10164 0.88114
 C175 C -0.01084 0.33003 0.90229
 C176 C -0.00868 0.37220 0.92417
 C177 C -0.01384 0.12375 0.80128
 C178 C -0.01228 0.07926 0.78075
 H179 H -0.01633 0.21503 0.75299
 H180 H -0.01643 0.32364 0.72904
 H181 H -0.01515 0.41246 0.77251
 H182 H -0.01366 0.39319 0.84020
 H183 H -0.01173 0.23913 0.95049
 H184 H -0.01182 0.13056 0.97436
 H185 H -0.01382 0.04190 0.93088
 H186 H -0.01519 0.06121 0.86325
 C187 C -0.16498 -0.00456 0.32429
 C188 C -0.19343 0.05381 0.33912
 C189 C -0.24632 0.05466 0.36458
 C190 C -0.27042 -0.00288 0.37505
 C191 C -0.24251 -0.06114 0.35978
 C192 C -0.18963 -0.06197 0.33432
 C193 C -0.16236 -0.12082 0.31955
 C194 C -0.18665 -0.17722 0.32963
 C195 C -0.23835 -0.17641 0.35453
 C196 C -0.26615 -0.11918 0.36952
 C197 C -0.27380 0.11357 0.37916
 C198 C -0.24974 0.17001 0.36887
 C199 C -0.19803 0.16917 0.34398
 C200 C -0.17000 0.11188 0.32919
 C201 C -0.32293 -0.00231 0.40210
 C202 C -0.36596 -0.00187 0.42495
 C203 C -0.10956 -0.00577 0.29936
 C204 C -0.06307 -0.00724 0.27902
 H205 H -0.12212 -0.12389 0.30005
 H206 H -0.16523 -0.22179 0.31806
 H207 H -0.25705 -0.22035 0.36228
 H208 H -0.30632 -0.12097 0.38875
 H209 H -0.31413 0.11666 0.39859
 H210 H -0.27134 0.21464 0.38029
 H211 H -0.17952 0.21315 0.33607
 H212 H -0.12991 0.11365 0.30989
 C213 C 0.17851 -0.01408 0.32214
 C214 C 0.20444 0.04359 0.32733
 C215 C 0.25589 0.04518 0.35253
 C216 C 0.28109 -0.01093 0.37235
 C217 C 0.25606 -0.06891 0.36650
 C218 C 0.20460 -0.07048 0.34131
 C219 C 0.18013 -0.12888 0.33605
 C220 C 0.20581 -0.18420 0.35512
 C221 C 0.25613 -0.18269 0.37975
 C222 C 0.28114 -0.12584 0.38550
 C223 C 0.28077 0.10347 0.35744
 C224 C 0.25560 0.15860 0.33797
 C225 C 0.20531 0.15704 0.31331
 C226 C 0.17982 0.10034 0.30795
 C227 C 0.33149 -0.00869 0.39949
 C228 C 0.37258 -0.00677 0.42249
 C229 C 0.12388 -0.01485 0.29790
 C230 C 0.07789 -0.01427 0.27816
 H231 H 0.14107 -0.13244 0.31712
 H232 H 0.18656 -0.22848 0.35074
 H233 H 0.27593 -0.22581 0.39449
 H234 H 0.32035 -0.12709 0.40490
 H235 H 0.31995 0.10705 0.37627
 H236 H 0.27525 0.20276 0.34203
 H237 H 0.18594 0.19997 0.29823
 H238 H 0.14077 0.10153 0.28843
   
