data_POSCAR
  _audit_creation_date              2014-09-24
  _audit_creation_method            'ToBaCCo'
  _symmetry_space_group_name_H-M    'P1'
  _symmetry_Int_Tables_number       1
  _symmetry_cell_setting            triclinic
  loop_
  _symmetry_equiv_pos_as_xyz
 x,y,z
_cell_length_a 28.1412
_cell_length_b 28.7257
_cell_length_c 28.2916
_cell_angle_alpha 90.213000
_cell_angle_beta 89.585900
_cell_angle_gamma 89.812300
loop_
  _atom_site_label
  _atom_site_type_symbol
  _atom_site_fract_x
  _atom_site_fract_y
  _atom_site_fract_z
C1 C 0.13812 0.12649 0.18947
 C2 C 0.17754 0.11222 0.16220
 C3 C 0.19197 0.13727 0.12182
 C4 C 0.16493 0.17578 0.10771
 C5 C 0.12595 0.19118 0.13482
 C6 C 0.11251 0.16642 0.17541
 H7 H 0.19643 0.08092 0.17230
 H8 H 0.17471 0.19439 0.07583
 H9 H 0.08125 0.17783 0.19476
 C10 C -0.13747 0.87467 0.19238
 C11 C -0.17378 0.88862 0.16166
 C12 C -0.18407 0.86278 0.12077
 C13 C -0.15614 0.82389 0.10920
 C14 C -0.11890 0.81015 0.13880
 C15 C -0.10982 0.83521 0.18032
 H16 H -0.19470 0.91943 0.16989
 H17 H -0.16315 0.80447 0.07707
 H18 H -0.08004 0.82469 0.20186
 C19 C -0.13813 0.13373 -0.19239
 C20 C -0.17709 0.11836 -0.16552
 C21 C -0.19205 0.14244 -0.12454
 C22 C -0.16556 0.18074 -0.10910
 C23 C -0.12671 0.19691 -0.13565
 C24 C -0.11307 0.17341 -0.17711
 H25 H -0.19533 0.08704 -0.17657
 H26 H -0.17565 0.19858 -0.07668
 H27 H -0.08201 0.18548 -0.19618
 C28 C 0.13072 0.87601 -0.18666
 C29 C 0.10231 0.83876 -0.17149
 C30 C 0.11607 0.81160 -0.13291
 C31 C 0.15809 0.82238 -0.10875
 C32 C 0.18739 0.85918 -0.12367
 C33 C 0.17296 0.88612 -0.16275
 H34 H 0.06933 0.83111 -0.18947
 H35 H 0.16807 0.80168 -0.07838
 H36 H 0.19339 0.91598 -0.17409
 C37 C 0.12353 1.13904 0.80929
 C38 C 0.10967 1.17879 0.83481
 C39 C 0.13447 1.19229 0.87553
 C40 C 0.17283 1.16523 0.89099
 C41 C 0.18699 1.12528 0.86568
 C42 C 0.16201 1.11218 0.82513
 H43 H 0.07919 1.19882 0.82331
 H44 H 0.19131 1.17501 0.92299
 H45 H 0.17224 1.08077 0.80622
 C46 C 0.87834 0.86702 0.80925
 C47 C 0.90297 0.83099 0.83205
 C48 C 0.88190 0.80570 0.86886
 C49 C 0.83775 0.82073 0.88699
 C50 C 0.81397 0.85877 0.86713
 C51 C 0.83322 0.88064 0.82689
 H52 H 0.93770 0.82038 0.81884
 H53 H 0.82248 0.80437 0.91798
 H54 H 0.81485 0.91030 0.81210
 C55 C 0.13768 0.87051 1.19364
 C56 C 0.11244 0.83049 1.17941
 C57 C 0.12492 0.80664 1.13786
 C58 C 0.16238 0.82300 1.10960
 C59 C 0.18770 0.86263 1.12300
 C60 C 0.17502 0.88651 1.16465
 H61 H 0.08218 0.81809 1.19946
 H62 H 0.17162 0.80508 1.07699
 H63 H 0.19450 0.91757 1.17444
 C64 C 0.87626 1.14027 1.19071
 C65 C 0.88846 1.18003 1.16466
 C66 C 0.86284 1.19301 1.12407
 C67 C 0.82631 1.16368 1.10823
 C68 C 0.81393 1.12344 1.13351
 C69 C 0.83871 1.11202 1.17469
 H70 H 0.91854 1.20047 1.17614
 H71 H 0.80714 1.17225 1.07628
 H72 H 0.82949 1.08022 1.19298
 O73 O 0.43313 0.91650 0.90828
 O74 O 0.38140 0.95745 0.95601
 C75 C 0.39059 0.92807 0.92223
 O76 O 0.56863 0.91502 1.08022
 O77 O 0.62058 0.95573 1.03326
 C78 C 0.61118 0.92669 1.06702
 O79 O 0.43613 0.90938 1.07734
 O80 O 0.38306 0.95406 1.03597
 C81 C 0.39324 0.92200 1.06648
 O82 O 0.56632 0.92170 0.90080
 O83 O 0.61940 0.95863 0.94929
 C84 C 0.60926 0.93220 0.91347
 Zr85 Zr 0.50042 0.93861 0.93357
 O86 O 0.50526 0.86513 0.93762
 O87 O 0.49764 0.93265 0.85917
 Zr88 Zr 0.50217 0.93475 1.05193
 O89 O 0.50467 0.86205 1.04064
 O90 O 0.50037 0.92494 1.12592
 O91 O 0.45834 0.92767 0.99334
 O92 O 0.54351 0.92828 0.99161
 O93 O 0.56606 1.07755 0.90855
 O94 O 0.61908 1.03612 0.95321
 C95 C 0.60885 1.06556 0.92025
 O96 O 0.43514 1.07579 1.08404
 O97 O 0.38254 1.03420 1.03891
 C98 C 0.39242 1.06399 1.07188
 O99 O 0.56836 1.07614 1.08142
 O100 O 0.62059 1.03419 1.03518
 C101 C 0.61099 1.06474 1.06786
 O102 O 0.43349 1.08563 0.91973
 O103 O 0.38176 1.03816 0.95975
 C104 C 0.39101 1.07280 0.93194
 Zr105 Zr 0.50007 1.05639 0.93781
 O106 O 0.50661 1.12976 0.93971
 O107 O 0.49283 1.05849 0.86340
 Zr108 Zr 0.50166 1.05264 1.05682
 O109 O 0.50479 1.12630 1.05788
 O110 O 0.49964 1.05053 1.13162
 Zr111 Zr 0.43013 0.99574 0.99653
 Zr112 Zr 0.57224 0.99578 0.99380
 O113 O 0.54226 1.06301 0.99663
 O114 O 0.45832 1.06363 0.99865
 O115 O 0.54220 0.99787 0.92564
 O116 O 0.46104 0.99333 1.06400
 O117 O 0.45887 0.99805 0.92771
 O118 O 0.54424 0.99355 1.06306
 H119 H 0.56596 0.90163 0.99013
 H120 H 0.44068 0.99224 1.09267
 H121 H 0.56343 1.09050 0.99654
 H122 H 0.43704 1.00000 0.90049
 H123 H 0.50304 0.95619 1.14033
 H124 H 0.52735 1.03205 1.14211
 H125 H 0.47517 1.13830 1.04367
 H126 H 0.48330 1.14158 0.96319
 H127 H 0.51792 1.03825 0.84964
 H128 H 0.48978 0.96387 0.84692
 H129 H 0.47454 0.85355 0.95007
 H130 H 0.50603 0.84788 1.07247
 O131 O 0.07620 0.43630 -0.09131
 O132 O 0.03713 0.38468 -0.04322
 C133 C 0.06570 0.39439 -0.07793
 O134 O 0.09566 0.56316 0.07848
 O135 O 0.04605 0.61513 0.04194
 C136 C 0.08142 0.60514 0.06922
 O137 O 0.09826 0.43295 0.07091
 O138 O 0.04582 0.38287 0.03571
 C139 C 0.08320 0.39148 0.06071
 O140 O 0.07409 0.56656 -0.09010
 O141 O 0.03584 0.61712 -0.03945
 C142 C 0.06366 0.60819 -0.07515
 Zr143 Zr 0.05182 0.50093 -0.06397
 O144 O 0.12515 0.50006 -0.08097
 O145 O 0.03352 0.50203 -0.13624
 Zr146 Zr 0.06810 0.49867 0.05454
 O147 O 0.14262 0.50242 0.04468
 O148 O 0.07660 0.49242 0.12855
 O149 O 0.06909 0.45840 -0.00690
 O150 O 0.06882 0.54008 -0.00492
 O151 O -0.09436 0.56724 -0.06685
 O152 O -0.04409 0.61709 -0.02836
 C153 C -0.07987 0.60864 -0.05555
 O154 O -0.07304 0.43307 0.09654
 O155 O -0.03578 0.38252 0.04504
 C156 C -0.06321 0.39148 0.08098
 O157 O -0.07191 0.56429 0.10065
 O158 O -0.03354 0.61604 0.05201
 C159 C -0.06148 0.60626 0.08725
 O160 O -0.09856 0.43689 -0.06433
 O161 O -0.04578 0.38487 -0.03254
 C162 C -0.08359 0.39489 -0.05634
 Zr163 Zr -0.06641 0.50139 -0.04727
 O164 O -0.14129 0.50542 -0.04281
 O165 O -0.07110 0.49810 -0.12192
 Zr166 Zr -0.05064 0.49919 0.07140
 O167 O -0.12497 0.50300 0.08309
 O168 O -0.03886 0.49406 0.14504
 Zr169 Zr 0.00040 0.43062 0.00234
 Zr170 Zr 0.00098 0.56954 0.00542
 O171 O -0.06713 0.54042 0.01415
 O172 O -0.06815 0.45903 0.01257
 O173 O -0.00830 0.54337 -0.06365
 O174 O 0.00976 0.45827 0.07062
 O175 O -0.00857 0.46028 -0.06491
 O176 O 0.01007 0.54056 0.07311
 H177 H 0.09673 0.56079 -0.00790
 H178 H 0.01357 0.43679 0.09765
 H179 H -0.09529 0.56081 0.01842
 H180 H -0.01240 0.43938 -0.09256
 H181 H 0.06028 0.51925 0.14357
 H182 H -0.02122 0.52214 0.15498
 H183 H -0.13963 0.47651 0.06621
 H184 H -0.15010 0.49553 -0.01054
 H185 H -0.05729 0.52714 -0.13470
 H186 H 0.06398 0.50144 -0.15401
 H187 H 0.14229 0.51225 -0.05324
 H188 H 0.15141 0.47911 0.02027
 O189 O 1.07600 -0.08573 0.56739
 O190 O 1.03687 -0.03674 0.61892
 C191 C 1.06537 -0.07126 0.60970
 O192 O 1.08059 0.08483 0.43081
 O193 O 1.03782 0.03868 0.38045
 C194 C 1.06741 0.07218 0.38885
 O195 O 1.09199 0.07728 0.56301
 O196 O 1.04321 0.04097 0.61673
 C197 C 1.07874 0.06758 0.60595
 O198 O 1.06889 -0.09383 0.43526
 O199 O 1.03371 -0.04410 0.38264
 C200 C 1.05903 -0.08047 0.39265
 Zr201 Zr 1.05372 -0.06054 0.50062
 O202 O 1.12874 -0.05946 0.49404
 O203 O 1.05687 -0.13394 0.50441
 Zr204 Zr 1.06266 0.05599 0.49730
 O205 O 1.13674 0.04566 0.48829
 O206 O 1.07465 0.12847 0.50139
 O207 O 1.06789 -0.00185 0.54135
 O208 O 1.06629 -0.00402 0.45700
 O209 O 0.91178 -0.08049 0.43695
 O210 O 0.95547 -0.03861 0.38308
 C211 C 0.92469 -0.07031 0.39400
 O212 O 0.92111 0.09434 0.56548
 O213 O 0.96182 0.04826 0.61761
 C214 C 0.93316 0.08225 0.60790
 O215 O 0.91767 0.08890 0.43294
 O216 O 0.95872 0.04125 0.38158
 C217 C 0.92842 0.07420 0.39073
 O218 O 0.90298 -0.06671 0.56959
 O219 O 0.95406 -0.02912 0.61950
 C220 C 0.91709 -0.05468 0.61144
 Zr221 Zr 0.93370 -0.05170 0.50271
 O222 O 0.85890 -0.04779 0.49661
 O223 O 0.92861 -0.12467 0.51169
 Zr224 Zr 0.94245 0.06549 0.49951
 O225 O 0.86733 0.07005 0.49817
 O226 O 0.94849 0.13894 0.49977
 Zr227 Zr 0.99885 0.00439 0.57046
 Zr228 Zr 0.99713 0.00044 0.42967
 O229 O 0.92890 0.00606 0.46024
 O230 O 0.92936 0.00899 0.54344
 O231 O 0.99252 -0.06638 0.46020
 O232 O 1.00392 0.07050 0.53898
 O233 O 0.99326 -0.06353 0.54299
 O234 O 1.00243 0.06879 0.45639
 H235 H 1.09293 -0.00630 0.43398
 H236 H 1.00700 0.09857 0.55915
 H237 H 0.90066 0.00638 0.43952
 H238 H 0.99030 -0.08991 0.56526
 H239 H 1.04433 0.14371 0.49307
 H240 H 0.96593 0.14796 0.47072
 H241 H 0.85501 0.05638 0.52786
 H242 H 0.84797 -0.02234 0.51767
 H243 H 0.94802 -0.13948 0.48645
 H244 H 1.02447 -0.14466 0.51233
 H245 H 1.14188 -0.05132 0.52535
 H246 H 1.14882 0.03117 0.51753
 C247 C 1.12509 0.09939 0.22888
 C248 C 1.09848 0.11487 0.26510
 C249 C 1.08602 0.08388 0.30457
 C250 C 1.08474 0.10007 0.34885
 H251 H 1.08790 0.15105 0.26764
 H252 H 1.07816 0.04765 0.29727
 H253 H 1.13978 0.06450 0.23153
 H254 H 1.09602 0.13544 0.35600
 C255 C 0.87109 -0.09833 0.23297
 C256 C 0.89311 -0.11430 0.27145
 C257 C 0.90407 -0.08293 0.31097
 C258 C 0.90523 -0.09853 0.35535
 H259 H 0.90233 -0.15076 0.27483
 H260 H 0.91263 -0.04693 0.30335
 H261 H 0.85696 -0.06312 0.23421
 H262 H 0.89360 -0.13362 0.36319
 C263 C 0.87505 0.10786 0.76733
 C264 C 0.90059 0.12475 0.73129
 C265 C 0.91364 0.09444 0.69140
 C266 C 0.91532 0.11080 0.64737
 H267 H 0.91005 0.16121 0.72954
 H268 H 0.92159 0.05813 0.69829
 H269 H 0.86135 0.07271 0.76385
 H270 H 0.90409 0.14621 0.64025
 C271 C 1.11571 -0.09407 0.77377
 C272 C 1.10126 -0.11200 0.73271
 C273 C 1.08558 -0.08190 0.69373
 C274 C 1.08503 -0.09800 0.64936
 H275 H 1.10163 -0.14943 0.72753
 H276 H 1.07414 -0.04658 0.70145
 H277 H 1.11895 -0.05666 0.77768
 H278 H 1.09889 -0.13253 0.64183
 C279 C 0.23202 1.12453 1.09469
 C280 C 0.26878 1.10047 1.11196
 C281 C 0.30907 1.08712 1.08159
 C282 C 0.35274 1.08367 1.09935
 H283 H 0.27079 1.09220 1.14921
 H284 H 0.30275 1.07946 1.04460
 H285 H 0.23496 1.13761 1.05884
 H286 H 0.35935 1.09451 1.13546
 C287 C 0.22898 0.86892 0.90199
 C288 C 0.26600 0.89283 0.88461
 C289 C 0.30691 0.90475 0.91441
 C290 C 0.35036 0.90902 0.89554
 H291 H 0.26738 0.90282 0.84777
 H292 H 0.30114 0.91115 0.95181
 H293 H 0.23227 0.85443 0.93721
 H294 H 0.35639 0.89947 0.85887
 C295 C 0.77654 0.87679 1.08962
 C296 C 0.73432 0.88946 1.10743
 C297 C 0.69542 0.90556 1.07709
 C298 C 0.65087 0.90671 1.09372
 H299 H 0.72819 0.88777 1.14528
 H300 H 0.70333 0.91711 1.04145
 H301 H 0.78172 0.87491 1.05165
 H302 H 0.64317 0.89279 1.12851
 C303 C 0.76778 1.12895 0.90169
 C304 C 0.73172 1.10497 0.88310
 C305 C 0.69127 1.09060 0.91233
 C306 C 0.64833 1.08561 0.89335
 H307 H 0.73041 1.09740 0.84561
 H308 H 0.69684 1.08354 0.94953
 H309 H 0.76416 1.14128 0.93786
 H310 H 0.64219 1.09588 0.85707
 C311 C 0.09806 0.23229 0.12013
 C312 C 0.11881 0.27039 0.10255
 C313 C 0.09047 0.31013 0.08596
 C314 C 0.11045 0.35173 0.07892
 H315 H 0.15723 0.27249 0.10063
 H316 H 0.05282 0.30531 0.07967
 H317 H 0.05985 0.23175 0.12531
 H318 H 0.14742 0.35709 0.08790
 C319 C -0.09910 0.23749 -0.11961
 C320 C -0.12008 0.27532 -0.10126
 C321 C -0.09173 0.31443 -0.08365
 C322 C -0.11143 0.35612 -0.07556
 H323 H -0.15852 0.27761 -0.09948
 H324 H -0.05411 0.30905 -0.07748
 H325 H -0.06085 0.23687 -0.12455
 H326 H -0.14836 0.36222 -0.08430
 C327 C 0.08570 0.77274 -0.11716
 C328 C 0.10344 0.72999 -0.11117
 C329 C 0.07400 0.69167 -0.09286
 C330 C 0.08772 0.64737 -0.09863
 H331 H 0.14049 0.72321 -0.11965
 H332 H 0.04171 0.69990 -0.07339
 H333 H 0.04798 0.77901 -0.11220
 H334 H 0.11887 0.63958 -0.12003
 C335 C -0.08770 0.77113 0.12503
 C336 C -0.10390 0.72759 0.12303
 C337 C -0.07373 0.68942 0.10502
 C338 C -0.08581 0.64496 0.11178
 H339 H -0.14022 0.72028 0.13368
 H340 H -0.04237 0.69791 0.08433
 H341 H -0.05075 0.77842 0.11696
 H342 H -0.11622 0.63679 0.13396
 C343 C 1.09582 0.12457 0.76773
 C344 C 1.11656 0.10899 0.72808
 C345 C 1.08780 0.09225 0.68838
 C346 C 1.10627 0.08772 0.64494
 H347 H 1.15498 0.10851 0.72491
 H348 H 1.05093 0.08326 0.69496
 H349 H 1.05747 0.12823 0.76933
 H350 H 1.14227 0.09918 0.63781
 C351 C 0.90070 -0.11181 0.77030
 C352 C 0.87834 -0.08806 0.73642
 C353 C 0.90602 -0.07024 0.69606
 C354 C 0.88868 -0.07057 0.65221
 H355 H 0.83999 -0.08500 0.73602
 H356 H 0.94242 -0.05954 0.70206
 H357 H 0.93847 -0.11826 0.76524
 H358 H 0.85343 -0.08427 0.64590
 C359 C 1.12578 -0.10402 0.23470
 C360 C 1.09992 -0.12092 0.27071
 C361 C 1.08619 -0.09104 0.31086
 C362 C 1.07670 -0.10925 0.35326
 H363 H 1.08964 -0.15716 0.27189
 H364 H 1.08369 -0.05373 0.30558
 H365 H 1.13989 -0.06906 0.23830
 H366 H 1.08243 -0.14607 0.35933
 C367 C 0.90319 0.12933 0.23089
 C368 C 0.88708 0.10354 0.26682
 C369 C 0.91803 0.09210 0.30673
 C370 C 0.90147 0.09350 0.35104
 H371 H 0.85038 0.09240 0.26844
 H372 H 0.95442 0.08159 0.29953
 H373 H 0.93799 0.14510 0.23453
 H374 H 0.86618 0.10721 0.35813
 C375 C 0.11914 0.23305 -0.09629
 C376 C 0.10626 0.27316 -0.11634
 C377 C 0.08881 0.31237 -0.08742
 C378 C 0.08658 0.35546 -0.10498
 H379 H 0.10863 0.27712 -0.15438
 H380 H 0.07732 0.30576 -0.05140
 H381 H 0.12005 0.23045 -0.05807
 H382 H 0.10040 0.36235 -0.14012
 C383 C -0.12637 0.23355 0.09827
 C384 C -0.10338 0.27019 0.11661
 C385 C -0.09006 0.31043 0.08747
 C386 C -0.08284 0.35201 0.10747
 H387 H -0.09522 0.27179 0.15391
 H388 H -0.08499 0.30573 0.04972
 H389 H -0.13939 0.23637 0.06238
 H390 H -0.09091 0.35710 0.14467
 C391 C -0.09399 0.76659 -0.11358
 C392 C -0.11547 0.73137 -0.09122
 C393 C -0.08770 0.69107 -0.07548
 C394 C -0.10687 0.64864 -0.07340
 H395 H -0.15374 0.73035 -0.08708
 H396 H -0.05067 0.69615 -0.06652
 H397 H -0.05647 0.76274 -0.12204
 H398 H -0.14292 0.64310 -0.08539
 C399 C 0.09713 0.76577 0.12330
 C400 C 0.11810 0.72630 0.10927
 C401 C 0.08966 0.68676 0.09285
 C402 C 0.10822 0.64398 0.08976
 H403 H 0.15652 0.72320 0.10987
 H404 H 0.05309 0.69292 0.08270
 H405 H 0.05871 0.76762 0.12601
 H406 H 0.14394 0.63742 0.10223
 C407 C 0.22663 1.09591 0.88208
 C408 C 0.26752 1.11426 0.89670
 C409 C 0.30668 1.08446 0.91292
 C410 C 0.35117 1.10047 0.91372
 H411 H 0.27260 1.15165 0.89564
 H412 H 0.29908 1.04910 0.92388
 H413 H 0.22307 1.05841 0.87957
 H414 H 0.35874 1.13496 0.90023
 C415 C 0.22670 0.87941 1.09262
 C416 C 0.27002 0.88687 1.10988
 C417 C 0.30865 0.90438 1.07962
 C418 C 0.35398 0.90012 1.09274
 H419 H 0.27712 0.87962 1.14677
 H420 H 0.29980 0.92155 1.04675
 H421 H 0.22035 0.88315 1.05507
 H422 H 0.36251 0.88107 1.12460
 C423 C 0.77605 1.09221 1.11643
 C424 C 0.73341 1.10858 1.10422
 C425 C 0.69573 1.07766 1.08658
 C426 C 0.65024 1.09096 1.08933
 H427 H 0.72584 1.14546 1.10807
 H428 H 0.70524 1.04436 1.07095
 H429 H 0.78251 1.05498 1.11635
 H430 H 0.64131 1.12326 1.10732
 C431 C 0.77221 0.87784 0.89272
 C432 C 0.73291 0.89323 0.87160
 C433 C 0.69335 0.91189 0.90054
 C434 C 0.64879 0.91341 0.88453
 H435 H 0.72951 0.89098 0.83353
 H436 H 0.70079 0.92339 0.93629
 H437 H 0.77324 0.87719 0.93105
 H438 H 0.64091 0.89954 0.84979
   
