data_POSCAR
  _audit_creation_date              2014-09-24
  _audit_creation_method            'ToBaCCo'
  _symmetry_space_group_name_H-M    'P1'
  _symmetry_Int_Tables_number       1
  _symmetry_cell_setting            triclinic
  loop_
  _symmetry_equiv_pos_as_xyz
 x,y,z
_cell_length_a 30.5166
_cell_length_b 28.5293
_cell_length_c 13.8061
_cell_angle_alpha 91.114300
_cell_angle_beta 90.083500
_cell_angle_gamma 89.748800
loop_
  _atom_site_label
  _atom_site_type_symbol
  _atom_site_fract_x
  _atom_site_fract_y
  _atom_site_fract_z
C1 C 0.84171 0.16389 0.42327
 C2 C 0.83153 0.15378 0.51669
 C3 C 0.80722 0.19129 0.55393
 N4 N 0.80083 0.22318 0.48374
 C5 C 0.82284 0.20700 0.40438
 C6 C 0.78766 0.19272 0.64787
 C7 C 0.75272 0.22376 0.67083
 C8 C 0.71877 0.21481 0.73445
 C9 C 0.69396 0.25516 0.74176
 C10 C 0.71425 0.28839 0.68521
 N11 N 0.74965 0.26851 0.64100
 C12 C 0.70083 0.33588 0.67459
 C13 C 0.71612 0.36226 0.59569
 C14 C 0.71402 0.41080 0.58960
 C15 C 0.72638 0.42160 0.49750
 C16 C 0.73614 0.37951 0.45078
 N17 N 0.73014 0.34326 0.51076
 C18 C 0.74276 0.37447 0.35020
 C19 C 0.76383 0.33513 0.30796
 C20 C 0.76648 0.32554 0.20933
 C21 C 0.78977 0.28442 0.19875
 C22 C 0.80007 0.26971 0.29132
 N23 N 0.78497 0.30139 0.35733
 C24 C 0.82323 0.22820 0.31219
 H25 H 0.85917 0.14063 0.37390
 H26 H 0.83915 0.12091 0.55077
 H27 H 0.79134 0.30193 0.43135
 H28 H 0.71165 0.18225 0.76992
 H29 H 0.66392 0.25876 0.78265
 H30 H 0.70385 0.43587 0.64505
 H31 H 0.72687 0.45629 0.46709
 H32 H 0.79745 0.26700 0.13052
 H33 H 0.77331 0.28580 0.60088
 H34 H 0.75299 0.34585 0.15090
 C35 C 0.09062 0.76198 0.45722
 C36 C 0.08887 0.76106 0.55655
 C37 C 0.13168 0.75615 0.58889
 N38 N 0.15938 0.75313 0.51284
 C39 C 0.13440 0.75748 0.43239
 C40 C 0.14553 0.75886 0.68685
 C41 C 0.18241 0.73267 0.71891
 C42 C 0.20244 0.73676 0.80940
 C43 C 0.23581 0.70416 0.81127
 C44 C 0.23595 0.68162 0.72166
 N45 N 0.20309 0.69870 0.66630
 C46 C 0.26562 0.64580 0.69343
 C47 C 0.27211 0.63242 0.59554
 C48 C 0.29503 0.59291 0.56427
 C49 C 0.29784 0.59543 0.46547
 C50 C 0.27654 0.63639 0.43973
 N51 N 0.26069 0.65889 0.51929
 C52 C 0.27602 0.65481 0.34553
 C53 C 0.24768 0.69119 0.31754
 C54 C 0.25170 0.71663 0.23351
 C55 C 0.21672 0.74723 0.23153
 C56 C 0.19220 0.73931 0.31420
 N57 N 0.21131 0.70500 0.36594
 C58 C 0.15190 0.76111 0.33812
 H59 H 0.06292 0.76567 0.40889
 H60 H 0.05956 0.76421 0.60031
 H61 H 0.19795 0.68869 0.42586
 H62 H 0.19461 0.76084 0.86832
 H63 H 0.25804 0.69844 0.87110
 H64 H 0.30885 0.56550 0.60814
 H65 H 0.31432 0.57037 0.41810
 H66 H 0.21034 0.77231 0.17541
 H67 H 0.19317 0.68550 0.59897
 H68 H 0.27718 0.71351 0.17929
 C69 C 0.22999 0.08404 -0.42782
 C70 C 0.22778 0.08260 -0.52689
 C71 C 0.23860 0.12702 -0.55782
 N72 N 0.24846 0.15531 -0.48112
 C73 C 0.24236 0.12921 -0.40143
 C74 C 0.23673 0.14210 -0.65489
 C75 C 0.26379 0.17868 -0.68720
 C76 C 0.25752 0.20356 -0.77158
 C77 C 0.29154 0.23468 -0.77758
 C78 C 0.31784 0.22795 -0.69681
 N79 N 0.30060 0.19373 -0.64213
 C80 C 0.35673 0.25283 -0.67473
 C81 C 0.37532 0.25084 -0.58086
 C82 C 0.41902 0.25838 -0.55790
 C83 C 0.42168 0.25972 -0.45871
 C84 C 0.37967 0.25217 -0.42472
 N85 N 0.35145 0.24615 -0.49929
 C86 C 0.36655 0.25660 -0.32713
 C87 C 0.32931 0.23297 -0.29188
 C88 C 0.31010 0.24057 -0.20188
 C89 C 0.27610 0.20911 -0.19503
 C90 C 0.27543 0.18316 -0.28113
 N91 N 0.30817 0.19778 -0.33925
 C92 C 0.24564 0.14668 -0.30488
 H93 H 0.22347 0.05510 -0.38047
 H94 H 0.21923 0.05228 -0.57118
 H95 H 0.31770 0.18215 -0.40475
 H96 H 0.23077 0.20048 -0.82279
 H97 H 0.29556 0.25996 -0.83421
 H98 H 0.44593 0.26345 -0.60755
 H99 H 0.45096 0.26620 -0.41629
 H100 H 0.25410 0.20633 -0.13406
 H101 H 0.31484 0.17885 -0.58125
 H102 H 0.31930 0.26623 -0.14690
 C103 C -0.17612 0.88905 -0.53930
 C104 C -0.17417 0.88368 -0.44113
 C105 C -0.21226 0.86090 -0.41474
 N106 N -0.23795 0.85359 -0.49372
 C107 C -0.21623 0.87147 -0.56985
 C108 C -0.22516 0.85098 -0.31875
 C109 C -0.26178 0.82239 -0.29975
 C110 C -0.28354 0.82031 -0.21203
 C111 C -0.31383 0.78482 -0.22113
 C112 C -0.30960 0.76571 -0.31424
 N113 N -0.27773 0.78906 -0.36129
 C114 C -0.32952 0.72347 -0.34839
 C115 C -0.32774 0.70919 -0.44795
 C116 C -0.34065 0.66601 -0.48669
 C117 C -0.33776 0.66885 -0.58511
 C118 C -0.32557 0.71433 -0.60510
 N119 N -0.31894 0.73870 -0.52124
 C120 C -0.32356 0.73358 -0.69927
 C121 C -0.30392 0.77731 -0.71637
 C122 C -0.31223 0.80421 -0.79693
 C123 C -0.28790 0.84418 -0.78620
 C124 C -0.26466 0.84045 -0.69993
 N125 N -0.27493 0.79957 -0.65739
 C126 C -0.23310 0.87312 -0.66574
 H127 H -0.15047 0.90395 -0.58287
 H128 H -0.14741 0.89556 -0.39588
 H129 H -0.26001 0.78560 -0.59648
 H130 H -0.27746 0.84119 -0.14717
 H131 H -0.33486 0.77314 -0.16351
 H132 H -0.35213 0.63525 -0.45063
 H133 H -0.34495 0.64057 -0.63591
 H134 H -0.28778 0.87282 -0.83643
 H135 H -0.26328 0.77877 -0.42657
 H136 H -0.33441 0.79641 -0.85629
 O137 O -0.06769 0.97499 0.14574
 O138 O 0.03258 0.97387 -0.18475
 O139 O -0.07856 0.96092 -0.02915
 O140 O 0.06801 0.94471 0.11252
 O141 O -0.04704 0.97827 -0.16554
 O142 O 0.00113 0.93656 0.15911
 O143 O 0.06464 0.93560 -0.06852
 O144 O -0.11618 1.02016 0.08296
 C145 C -0.10419 0.99546 0.15595
 C146 C 0.05300 0.93834 -0.15506
 C147 C -0.07184 0.95186 -0.11722
 C148 C 0.03952 0.92227 0.15745
 O149 O 0.04078 1.01742 0.20852
 O150 O -0.03561 1.07365 -0.11955
 O151 O -0.05795 1.08033 0.05398
 O152 O 0.09118 1.02188 -0.08644
 O153 O 0.03861 1.06585 -0.13338
 O154 O -0.02903 1.05878 0.18767
 O155 O 0.08671 1.03386 0.09312
 O156 O -0.09512 1.04222 -0.09105
 Co157 Co -0.01270 0.99807 0.16127
 Co158 Co -0.00311 1.02157 -0.13856
 Co159 Co -0.06562 1.01987 0.01484
 Co160 Co 0.07022 0.98626 0.01247
 O161 O 0.00054 1.00690 0.00881
 C162 C 0.07508 1.03715 0.17970
 C163 C -0.07539 1.07284 -0.13513
 C164 C -0.04660 1.09000 0.13841
 C165 C 0.07825 1.05743 -0.12954
 O166 O 0.45687 0.46867 0.20154
 O167 O 0.54905 0.46520 -0.16222
 O168 O 0.45725 0.43229 -0.08908
 O169 O 0.59147 0.50091 0.12424
 O170 O 0.47041 0.47931 -0.19893
 O171 O 0.53764 0.46778 0.19580
 O172 O 0.57755 0.45226 -0.02306
 O173 O 0.43978 0.42819 0.07484
 C174 C 0.44274 0.43188 0.16415
 C175 C 0.57203 0.43976 -0.10895
 C176 C 0.45881 0.43956 -0.17586
 C177 C 0.57777 0.47274 0.18533
 O178 O 0.53524 0.56099 0.18397
 O179 O 0.47662 0.56581 -0.13543
 O180 O 0.40759 0.51720 0.07876
 O181 O 0.61517 0.52934 -0.05295
 O182 O 0.55766 0.55892 -0.12620
 O183 O 0.45308 0.55667 0.17438
 O184 O 0.56076 0.57598 0.04272
 O185 O 0.42037 0.52279 -0.09628
 Co186 Co 0.49688 0.51273 0.17251
 Co187 Co 0.51265 0.51560 -0.13942
 Co188 Co 0.43681 0.47746 -0.00787
 Co189 Co 0.56572 0.51319 0.00811
 O190 O 0.50042 0.50310 0.01536
 C191 C 0.55231 0.58902 0.12731
 C192 C 0.43596 0.56037 -0.12982
 C193 C 0.41527 0.54990 0.14032
 C194 C 0.59928 0.55323 -0.12511
 C195 C 0.37501 0.28181 0.25352
 C196 C 0.39626 0.32164 0.27519
 C197 C 0.41101 0.35427 0.20068
 C198 C 0.42860 0.39496 0.22935
 H199 H 0.39998 0.33286 0.35014
 H200 H 0.40664 0.34586 0.12439
 H201 H 0.36789 0.27455 0.17783
 H202 H 0.43238 0.40239 0.30631
 C203 C -0.21695 0.90561 0.26688
 C204 C -0.20003 0.94751 0.29011
 C205 C -0.17570 0.97304 0.21692
 C206 C -0.13381 0.98286 0.23396
 H207 H -0.19965 0.96088 0.36399
 H208 H -0.18908 0.97587 0.14444
 H209 H -0.21826 0.89627 0.19040
 H210 H -0.11938 0.97446 0.30338
 C211 C 0.65747 0.70952 0.22054
 C212 C 0.61831 0.68901 0.22594
 C213 C 0.60192 0.65597 0.15115
 C214 C 0.56362 0.63527 0.16700
 H215 H 0.59900 0.69399 0.29134
 H216 H 0.62352 0.64325 0.09406
 H217 H 0.67352 0.71058 0.15057
 H218 H 0.54380 0.64743 0.22777
 C219 C 0.20787 1.12087 0.27736
 C220 C 0.16938 1.10198 0.30122
 C221 C 0.14117 1.08034 0.22694
 C222 C 0.10259 1.06206 0.25079
 H223 H 0.15774 1.10352 0.37532
 H224 H 0.15257 1.07826 0.15260
 H225 H 0.21562 1.12269 0.20090
 H226 H 0.09152 1.06397 0.32537
 C227 C 0.66908 0.35808 -0.26474
 C228 C 0.66154 0.34968 -0.17065
 C229 C 0.63071 0.37957 -0.11312
 C230 C 0.59471 0.39882 -0.15227
 H231 H 0.68249 0.32592 -0.13152
 H232 H 0.63988 0.38859 -0.03928
 H233 H 0.65158 0.38748 -0.29497
 H234 H 0.58490 0.38857 -0.22506
 C235 C 0.12368 0.78913 -0.24605
 C236 C 0.10177 0.82793 -0.27157
 C237 C 0.08520 0.86161 -0.19827
 C238 C 0.06510 0.90105 -0.22502
 H239 H 0.09930 0.83770 -0.34675
 H240 H 0.09123 0.85516 -0.12225
 H241 H 0.12791 0.78363 -0.16928
 H242 H 0.05871 0.90700 -0.30109
 C243 C 0.29224 0.62236 -0.23099
 C244 C 0.33610 0.62308 -0.23350
 C245 C 0.36315 0.59308 -0.17093
 C246 C 0.40695 0.59554 -0.17395
 H247 H 0.35229 0.64379 -0.28786
 H248 H 0.34733 0.56668 -0.12786
 H249 H 0.27543 0.60354 -0.17476
 H250 H 0.42226 0.62264 -0.21609
 C251 C -0.19796 1.16136 -0.28002
 C252 C -0.15554 1.14992 -0.27062
 C253 C -0.13923 1.11527 -0.20166
 C254 C -0.09608 1.10780 -0.19656
 H255 H -0.13146 1.16688 -0.31564
 H256 H -0.16181 1.09545 -0.15808
 H257 H -0.22017 1.15007 -0.22412
 H258 H -0.07415 1.12879 -0.23953
 C259 C 0.64523 0.69761 -0.28243
 C260 C 0.65017 0.65147 -0.26987
 C261 C 0.61963 0.62490 -0.20948
 C262 C 0.62897 0.58098 -0.18457
 H263 H 0.67728 0.63293 -0.30415
 H264 H 0.58928 0.64126 -0.18550
 H265 H 0.62281 0.71643 -0.23473
 H266 H 0.66050 0.56576 -0.20338
 C267 C 0.21923 1.12741 -0.23094
 C268 C 0.17861 1.11117 -0.24823
 C269 C 0.15160 1.08801 -0.17460
 C270 C 0.10811 1.08642 -0.18665
 H271 H 0.16402 1.11565 -0.31915
 H272 H 0.16713 1.07067 -0.11435
 H273 H 0.23059 1.12874 -0.15654
 H274 H 0.09337 1.10623 -0.24463
 C275 C 0.39134 0.28847 -0.26023
 C276 C 0.40650 0.33016 -0.28829
 C277 C 0.42757 0.36290 -0.21918
 C278 C 0.44277 0.40455 -0.24707
 H279 H 0.40170 0.34121 -0.36224
 H280 H 0.42915 0.35346 -0.14353
 H281 H 0.39457 0.27891 -0.18496
 H282 H 0.44136 0.41400 -0.32267
 C283 C -0.20277 0.87527 -0.23590
 C284 C -0.15977 0.87040 -0.21896
 C285 C -0.13631 0.90243 -0.15157
 C286 C -0.09425 0.91287 -0.16782
 H287 H -0.14085 0.84591 -0.26320
 H288 H -0.15452 0.92154 -0.09604
 H289 H -0.22187 0.89944 -0.19136
 H290 H -0.07760 0.89675 -0.22937
 C291 C 0.30837 0.63656 0.27450
 C292 C 0.35117 0.63873 0.29493
 C293 C 0.38585 0.61483 0.23878
 C294 C 0.37880 0.57922 0.17596
 H295 H 0.36159 0.65721 0.36030
 H296 H 0.41910 0.62384 0.25916
 H297 H 0.29657 0.62171 0.20672
 H298 H 0.34593 0.56877 0.15605
 C299 C -0.15516 1.20272 0.23023
 C300 C -0.11217 1.19344 0.23058
 C301 C -0.09344 1.15875 0.16178
 C302 C -0.05664 1.13571 0.18399
 H303 H -0.09206 1.20683 0.28968
 H304 H -0.11327 1.14674 0.10099
 H305 H -0.17559 1.18915 0.17193
 H306 H -0.03873 1.14553 0.24912
 C307 C 0.72007 0.40799 0.28614
 C308 C 0.67715 0.41532 0.29804
 C309 C 0.65085 0.44459 0.23388
 C310 C 0.60753 0.44603 0.24647
 H311 H 0.66036 0.39764 0.35611
 H312 H 0.66637 0.46385 0.17645
 H313 H 0.73716 0.42276 0.22522
 H314 H 0.59273 0.42562 0.30322
 C315 C 0.12929 0.78924 0.26232
 C316 C 0.10472 0.82715 0.28258
 C317 C 0.08872 0.85812 0.20602
 C318 C 0.05200 0.88301 0.21931
 H319 H 0.09810 0.83768 0.35685
 H320 H 0.10821 0.86239 0.14121
 H321 H 0.13554 0.78059 0.18683
 H322 H 0.03152 0.87627 0.28160
   
