data_POSCAR
  _audit_creation_date              2014-09-24
  _audit_creation_method            'ToBaCCo'
  _symmetry_space_group_name_H-M    'P1'
  _symmetry_Int_Tables_number       1
  _symmetry_cell_setting            triclinic
  loop_
  _symmetry_equiv_pos_as_xyz
 x,y,z
_cell_length_a 65.1860
_cell_length_b 64.5240
_cell_length_c 24.1459
_cell_angle_alpha 90.099300
_cell_angle_beta 89.995900
_cell_angle_gamma 119.964100
loop_
  _atom_site_label
  _atom_site_type_symbol
  _atom_site_fract_x
  _atom_site_fract_y
  _atom_site_fract_z
C1 C 0.20539 0.50545 0.45181
 C2 C 0.19668 0.50784 0.50310
 C3 C 0.20690 0.50715 0.55371
 C4 C 0.22788 0.50557 0.55292
 C5 C 0.23748 0.50368 0.50148
 C6 C 0.22626 0.50364 0.45081
 C7 C 0.23746 0.50409 0.40061
 C8 C 0.25837 0.50335 0.39976
 C9 C 0.26945 0.50283 0.44906
 C10 C 0.25910 0.50315 0.50055
 C11 C 0.24087 0.50832 0.60161
 C12 C 0.26182 0.50763 0.60065
 C13 C 0.27096 0.50421 0.55094
 C14 C 0.29286 0.50427 0.54947
 C15 C 0.30268 0.50425 0.49771
 C16 C 0.29135 0.50338 0.44809
 H17 H 0.23080 0.50601 0.36115
 H18 H 0.26619 0.50401 0.35980
 H19 H 0.23559 0.51217 0.64098
 H20 H 0.27130 0.51099 0.63934
 H21 H 0.18014 0.50807 0.50379
 H22 H 0.31912 0.50387 0.49560
 C23 C 0.54488 -0.27268 0.55298
 C24 C 0.54905 -0.28118 0.50345
 C25 C 0.54705 -0.27246 0.45160
 C26 C 0.54291 -0.25277 0.45015
 C27 C 0.53914 -0.24358 0.50037
 C28 C 0.53978 -0.25382 0.55178
 C29 C 0.53530 -0.24497 0.60070
 C30 C 0.53008 -0.22656 0.59934
 C31 C 0.53029 -0.21530 0.54929
 C32 C 0.53443 -0.22427 0.49912
 C33 C 0.54363 -0.24120 0.40021
 C34 C 0.53848 -0.22275 0.39878
 C35 C 0.53350 -0.21426 0.44758
 C36 C 0.52732 -0.19620 0.44613
 C37 C 0.52272 -0.18797 0.49546
 C38 C 0.52493 -0.19642 0.54743
 H39 H 0.53559 -0.25231 0.64073
 H40 H 0.52540 -0.22167 0.63817
 H41 H 0.54838 -0.24615 0.36150
 H42 H 0.53844 -0.21521 0.35882
 H43 H 0.55162 -0.29653 0.50557
 H44 H 0.51891 -0.17343 0.49306
 C45 C 1.19698 0.71755 0.44779
 C46 C 1.18590 0.70654 0.49720
 C47 C 1.19625 0.71568 0.54908
 C48 C 1.21910 0.73663 0.55082
 C49 C 1.23049 0.74822 0.50056
 C50 C 1.21932 0.73853 0.44899
 C51 C 1.23130 0.74922 0.39974
 C52 C 1.25394 0.76897 0.40072
 C53 C 1.26540 0.77945 0.45102
 C54 C 1.25369 0.76869 0.50162
 C55 C 1.23195 0.74484 0.60051
 C56 C 1.25456 0.76470 0.60160
 C57 C 1.26559 0.77743 0.55307
 C58 C 1.28914 0.79711 0.55396
 C59 C 1.30049 0.80679 0.50341
 C60 C 1.28906 0.79894 0.45212
 H61 H 1.22355 0.74192 0.35971
 H62 H 1.26264 0.77523 0.36124
 H63 H 1.22523 0.73537 0.63906
 H64 H 1.26373 0.76919 0.64091
 H65 H 1.16846 0.69073 0.49482
 H66 H 1.31811 0.82239 0.50417
 C67 C 0.70512 0.50050 0.55090
 C68 C 0.69350 0.49645 0.49966
 C69 C 0.70538 0.49998 0.44943
 C70 C 0.72950 0.50639 0.44942
 C71 C 0.74150 0.50950 0.50050
 C72 C 0.72943 0.50679 0.55141
 C73 C 0.74169 0.50921 0.60113
 C74 C 0.76540 0.51538 0.60116
 C75 C 0.77764 0.51772 0.55147
 C76 C 0.76563 0.51518 0.50054
 C77 C 0.74177 0.50937 0.39958
 C78 C 0.76544 0.51550 0.39963
 C79 C 0.77764 0.51825 0.44952
 C80 C 0.80166 0.52431 0.44961
 C81 C 0.81349 0.52767 0.49991
 C82 C 0.80184 0.52365 0.55108
 H83 H 0.73310 0.50610 0.64095
 H84 H 0.77400 0.51847 0.64099
 H85 H 0.73315 0.50687 0.35986
 H86 H 0.77411 0.51811 0.35996
 H87 H 0.67520 0.49233 0.49841
 H88 H 0.83167 0.53140 0.49870
 C89 C 0.46813 0.19104 0.45124
 C90 C 0.47045 0.18207 0.50203
 C91 C 0.46664 0.19044 0.55217
 C92 C 0.46072 0.20875 0.55199
 C93 C 0.45906 0.21864 0.50088
 C94 C 0.46252 0.20957 0.45025
 C95 C 0.46061 0.21947 0.40011
 C96 C 0.45529 0.23782 0.39956
 C97 C 0.45224 0.24742 0.44916
 C98 C 0.45405 0.23772 0.50040
 C99 C 0.45650 0.21746 0.60144
 C100 C 0.45120 0.23584 0.60090
 C101 C 0.45095 0.24708 0.55112
 C102 C 0.44638 0.26650 0.55033
 C103 C 0.44363 0.27496 0.49881
 C104 C 0.44712 0.26626 0.44876
 H105 H 0.46327 0.21316 0.36069
 H106 H 0.45352 0.24437 0.35965
 H107 H 0.45714 0.21007 0.64116
 H108 H 0.44700 0.24090 0.64015
 H109 H 0.47475 0.16784 0.50253
 H110 H 0.44090 0.29022 0.49726
 C111 C 0.72311 0.19227 0.44959
 C112 C 0.71188 0.18294 0.50015
 C113 C 0.72296 0.19299 0.55052
 C114 C 0.74609 0.21303 0.55078
 C115 C 0.75756 0.22310 0.49980
 C116 C 0.74606 0.21260 0.44895
 C117 C 0.75802 0.22232 0.39897
 C118 C 0.78062 0.24227 0.39875
 C119 C 0.79215 0.25331 0.44849
 C120 C 0.78064 0.24358 0.49964
 C121 C 0.75808 0.22316 0.60053
 C122 C 0.78085 0.24288 0.60038
 C123 C 0.79221 0.25408 0.55055
 C124 C 0.81541 0.27450 0.54994
 C125 C 0.82657 0.28323 0.49861
 C126 C 0.81516 0.27346 0.44838
 H127 H 0.75009 0.21447 0.35946
 H128 H 0.78913 0.24875 0.35906
 H129 H 0.75009 0.21570 0.64020
 H130 H 0.78955 0.24891 0.64001
 H131 H 0.69418 0.16746 0.50031
 H132 H 0.84387 0.29927 0.49724
 N133 N 1.02480 0.49444 -0.09796
 N134 N 1.04269 0.50177 -0.13262
 N135 N 0.97598 0.45310 -0.06067
 N136 N 0.95960 0.43065 -0.07022
 N137 N 0.97508 0.46726 -0.09836
 N138 N 0.95811 0.45489 -0.13450
 N139 N 1.02580 0.48044 -0.05997
 N140 N 1.04441 0.47777 -0.06807
 C141 C 1.05482 0.49129 -0.11359
 C142 C 0.94850 0.43208 -0.11633
 N143 N 0.97449 0.46704 0.09639
 N144 N 0.95779 0.45445 0.13286
 N145 N 1.02541 0.48030 0.05987
 N146 N 1.04363 0.47712 0.06946
 N147 N 1.02418 0.49423 0.09781
 N148 N 1.04152 0.50102 0.13393
 N149 N 0.97565 0.45298 0.05867
 N150 N 0.95973 0.43041 0.06851
 Mn151 Mn 1.00076 0.46645 -0.00054
 C152 C 0.94860 0.43163 0.11477
 C153 C 1.05357 0.49031 0.11580
 N154 N 0.97277 0.51069 -0.09842
 N155 N 0.95554 0.50446 -0.13470
 N156 N 1.02198 0.55195 -0.06013
 N157 N 1.03909 0.57421 -0.06871
 N158 N 1.02250 0.53761 -0.09803
 N159 N 1.03997 0.54959 -0.13307
 N160 N 0.97215 0.52505 -0.06073
 N161 N 0.95444 0.52899 -0.07041
 Mn162 Mn 0.99874 0.50247 -0.09872
 C163 C 0.94415 0.51589 -0.11660
 C164 C 1.05023 0.57238 -0.11437
 N165 N 1.02191 0.53745 0.09772
 N166 N 1.03927 0.54937 0.13319
 N167 N 0.97185 0.52501 0.05863
 N168 N 0.95455 0.52956 0.06862
 N169 N 0.97220 0.51055 0.09634
 N170 N 0.95520 0.50489 0.13294
 N171 N 1.02164 0.55182 0.05968
 N172 N 1.03882 0.57403 0.06852
 Mn173 Mn 0.99813 0.50229 0.09759
 Mn174 Mn 0.99693 0.53875 -0.00064
 Cl175 Cl 0.99862 0.50248 -0.00056
 C176 C 1.04971 0.57216 0.11457
 C177 C 0.94420 0.51671 0.11494
 N178 N 0.46654 0.44726 0.05975
 N179 N 0.45905 0.42442 0.06937
 N180 N 0.46204 0.49078 0.09786
 N181 N 0.45206 0.49851 0.13354
 N182 N 0.44679 0.47734 0.05975
 N183 N 0.42594 0.47550 0.06865
 N184 N 0.48175 0.46074 0.09787
 N185 N 0.48509 0.44751 0.13426
 C186 C 0.47093 0.42489 0.11590
 C187 C 0.42956 0.48893 0.11478
 N188 N 0.52411 0.54559 0.06099
 N189 N 0.53174 0.56842 0.07131
 N190 N 0.52849 0.50198 0.09853
 N191 N 0.53842 0.49432 0.13448
 N192 N 0.54385 0.51551 0.06083
 N193 N 0.56472 0.51747 0.07026
 N194 N 0.50877 0.53203 0.09869
 N195 N 0.50548 0.54520 0.13550
 Mn196 Mn 0.49526 0.49638 0.09877
 C197 C 0.51980 0.56787 0.11780
 C198 C 0.56100 0.50402 0.11627
 N199 N 0.44698 0.47746 -0.05980
 N200 N 0.42610 0.47543 -0.06941
 N201 N 0.48214 0.46100 -0.09751
 N202 N 0.48570 0.44787 -0.13390
 N203 N 0.46677 0.44741 -0.05987
 N204 N 0.45940 0.42460 -0.06982
 N205 N 0.46238 0.49101 -0.09743
 N206 N 0.45246 0.49863 -0.13347
 Mn207 Mn 0.45649 0.46211 -0.00004
 C208 C 0.42985 0.48888 -0.11544
 C209 C 0.47151 0.42521 -0.11605
 N210 N 0.54409 0.51573 -0.05872
 N211 N 0.56514 0.51819 -0.06849
 N212 N 0.50909 0.53227 -0.09676
 N213 N 0.50566 0.54549 -0.13301
 N214 N 0.52430 0.54575 -0.05863
 N215 N 0.53169 0.56859 -0.06809
 N216 N 0.52886 0.50227 -0.09684
 N217 N 0.53907 0.49516 -0.13342
 Mn218 Mn 0.53436 0.53089 0.00113
 Mn219 Mn 0.49562 0.49663 -0.09766
 Cl220 Cl 0.49543 0.49650 0.00054
 C221 C 0.56167 0.50509 -0.11512
 C222 C 0.51976 0.56811 -0.11455
 N223 N 0.45261 -0.02604 0.06038
 N224 N 0.43084 -0.04357 0.07029
 N225 N 0.49170 0.02453 0.09802
 N226 N 0.49711 0.04180 0.13431
 N227 N 0.47700 0.02429 0.06054
 N228 N 0.47197 0.04142 0.07044
 N229 N 0.46732 -0.02574 0.09793
 N230 N 0.45605 -0.04304 0.13416
 C231 C 0.43333 -0.05411 0.11638
 C232 C 0.48478 0.05228 0.11651
 N233 N 0.55045 0.02510 0.05872
 N234 N 0.57231 0.04258 0.06780
 N235 N 0.51160 -0.02526 0.09685
 N236 N 0.50624 -0.04260 0.13272
 N237 N 0.52588 -0.02525 0.05849
 N238 N 0.53069 -0.04258 0.06742
 N239 N 0.53608 0.02503 0.09692
 N240 N 0.54773 0.04244 0.13290
 Mn241 Mn 0.50169 -0.00034 0.09797
 C242 C 0.57030 0.05334 0.11412
 C243 C 0.51818 -0.05334 0.11382
 N244 N 0.47659 0.02432 -0.05892
 N245 N 0.47129 0.04128 -0.06821
 N246 N 0.46672 -0.02566 -0.09762
 N247 N 0.45540 -0.04344 -0.13284
 N248 N 0.45225 -0.02604 -0.05931
 N249 N 0.43059 -0.04410 -0.06766
 N250 N 0.49109 0.02463 -0.09708
 N251 N 0.49607 0.04178 -0.13326
 Mn252 Mn 0.46433 -0.00089 0.00067
 C253 C 0.48372 0.05213 -0.11462
 C254 C 0.43289 -0.05485 -0.11370
 N255 N 0.52551 -0.02519 -0.06119
 N256 N 0.53024 -0.04254 -0.07111
 N257 N 0.53553 0.02514 -0.09819
 N258 N 0.54708 0.04235 -0.13456
 N259 N 0.55009 0.02514 -0.06065
 N260 N 0.57198 0.04237 -0.07053
 N261 N 0.51100 -0.02515 -0.09880
 N262 N 0.50537 -0.04245 -0.13507
 Mn263 Mn 0.53824 -0.00007 -0.00116
 Mn264 Mn 0.50109 -0.00023 -0.09847
 Cl265 Cl 0.50134 -0.00038 -0.00025
 C266 C 0.51740 -0.05324 -0.11727
 C267 C 0.56979 0.05306 -0.11664
 C268 C 1.16237 0.49997 0.31476
 C269 C 1.17082 0.48392 0.31971
 C270 C 1.18568 0.48607 0.36396
 C271 C 1.19234 0.50437 0.40384
 C272 C 1.18373 0.52042 0.39784
 C273 C 1.16905 0.51831 0.35363
 C274 C 1.14549 0.49701 0.27265
 C275 C 1.13068 0.49549 0.24039
 C276 C 1.11234 0.49483 0.20594
 C277 C 1.10312 0.47922 0.16061
 C278 C 1.08425 0.47801 0.13004
 C279 C 1.07440 0.49228 0.14495
 C280 C 1.08413 0.50818 0.18982
 C281 C 1.10294 0.50942 0.21999
 H282 H 1.16541 0.46939 0.29035
 H283 H 1.19101 0.47272 0.36842
 H284 H 1.18846 0.53477 0.42740
 H285 H 1.16249 0.53073 0.35042
 H286 H 1.11024 0.46779 0.14947
 H287 H 1.07707 0.46561 0.09564
 H288 H 1.07701 0.51948 0.20214
 H289 H 1.10991 0.52154 0.25500
 C290 C 0.54286 0.68357 0.31656
 C291 C 0.52720 0.69242 0.31980
 C292 C 0.52917 0.70777 0.36302
 C293 C 0.54696 0.71467 0.40378
 C294 C 0.56287 0.70590 0.39919
 C295 C 0.56088 0.69061 0.35589
 C296 C 0.53910 0.66551 0.27636
 C297 C 0.53552 0.64949 0.24495
 C298 C 0.53076 0.62938 0.21033
 C299 C 0.54417 0.63236 0.16261
 C300 C 0.54030 0.61238 0.13147
 C301 C 0.52304 0.58924 0.14802
 C302 C 0.50936 0.58651 0.19534
 C303 C 0.51321 0.60645 0.22623
 H304 H 0.51288 0.68670 0.29019
 H305 H 0.51580 0.71300 0.36634
 H306 H 0.57686 0.71080 0.42936
 H307 H 0.57300 0.68373 0.35404
 H308 H 0.55785 0.65003 0.15002
 H309 H 0.55108 0.61498 0.09519
 H310 H 0.49590 0.56893 0.20901
 H311 H 0.50276 0.60392 0.26314
 C312 C 0.32933 -0.15950 0.31567
 C313 C 0.33921 -0.16820 0.35403
 C314 C 0.32569 -0.18242 0.39802
 C315 C 0.30180 -0.18854 0.40428
 C316 C 0.29193 -0.17987 0.36489
 C317 C 0.30561 -0.16547 0.32087
 C318 C 0.34439 -0.14303 0.27393
 C319 C 0.35847 -0.12869 0.24185
 C320 C 0.37689 -0.11102 0.20736
 C321 C 0.40049 -0.10274 0.22196
 C322 C 0.41878 -0.08454 0.19154
 C323 C 0.41374 -0.07434 0.14592
 C324 C 0.38999 -0.08307 0.13055
 C325 C 0.37162 -0.10132 0.16132
 H326 H 0.35760 -0.16355 0.35064
 H327 H 0.33394 -0.18876 0.42724
 H328 H 0.27399 -0.18323 0.36960
 H329 H 0.29791 -0.15846 0.29191
 H330 H 0.40477 -0.11009 0.25754
 H331 H 0.43689 -0.07826 0.20424
 H332 H 0.38563 -0.07550 0.09558
 H333 H 0.35339 -0.10756 0.14976
 C334 C 0.84275 0.52430 0.31126
 C335 C 0.84994 0.54539 0.34142
 C336 C 0.83597 0.54577 0.38494
 C337 C 0.81464 0.52505 0.39852
 C338 C 0.80723 0.50413 0.36720
 C339 C 0.82120 0.50378 0.32369
 C340 C 0.85855 0.52299 0.27162
 C341 C 0.87227 0.52150 0.24067
 C342 C 0.88920 0.51934 0.20653
 C343 C 0.89814 0.53302 0.15836
 C344 C 0.91571 0.53180 0.12756
 C345 C 0.92456 0.51696 0.14488
 C346 C 0.91511 0.50294 0.19264
 C347 C 0.89756 0.50414 0.22322
 H348 H 0.86672 0.56129 0.33258
 H349 H 0.84212 0.56195 0.40917
 H350 H 0.79109 0.48785 0.37784
 H351 H 0.81562 0.48729 0.30112
 H352 H 0.89182 0.54489 0.14515
 H353 H 0.92268 0.54279 0.09091
 H354 H 0.92154 0.49130 0.20691
 H355 H 0.89080 0.49351 0.26048
 C356 C 0.45101 0.30939 0.31009
 C357 C 0.47054 0.30696 0.32420
 C358 C 0.46892 0.29202 0.36783
 C359 C 0.44769 0.27923 0.39760
 C360 C 0.42798 0.28126 0.38236
 C361 C 0.42962 0.29625 0.33872
 C362 C 0.45375 0.32724 0.27048
 C363 C 0.45668 0.34318 0.23969
 C364 C 0.46091 0.36331 0.20602
 C365 C 0.47823 0.38628 0.22251
 C366 C 0.48174 0.40623 0.19244
 C367 C 0.46794 0.40350 0.14533
 C368 C 0.45088 0.38034 0.12821
 C369 C 0.44735 0.36033 0.15855
 H370 H 0.48727 0.31730 0.30286
 H371 H 0.48447 0.29110 0.37977
 H372 H 0.41158 0.27181 0.40539
 H373 H 0.41450 0.29823 0.32862
 H374 H 0.48881 0.38880 0.25921
 H375 H 0.49505 0.42383 0.20654
 H376 H 0.44000 0.37774 0.09207
 H377 H 0.43385 0.34262 0.14549
 C378 C 0.68045 0.15368 0.31028
 C379 C 0.69020 0.14331 0.34447
 C380 C 0.70491 0.15631 0.38854
 C381 C 0.71010 0.17986 0.39871
 C382 C 0.70084 0.19047 0.36346
 C383 C 0.68605 0.17740 0.31936
 C384 C 0.66301 0.13912 0.26961
 C385 C 0.64761 0.12600 0.23806
 C386 C 0.62839 0.10938 0.20354
 C387 C 0.63274 0.09982 0.15579
 C388 C 0.61380 0.08198 0.12553
 C389 C 0.59035 0.07344 0.14304
 C390 C 0.58617 0.08360 0.19020
 C391 C 0.60508 0.10143 0.22022
 H392 H 0.68580 0.12491 0.33818
 H393 H 0.71172 0.14782 0.41573
 H394 H 0.70443 0.20851 0.37129
 H395 H 0.67839 0.18550 0.29353
 H396 H 0.65073 0.10576 0.14271
 H397 H 0.61751 0.07447 0.08934
 H398 H 0.56830 0.07743 0.20456
 H399 H 0.60151 0.10861 0.25724
 C400 C 0.47302 0.15321 -0.30848
 C401 C 0.45093 0.15061 -0.32186
 C402 C 0.44894 0.16364 -0.36578
 C403 C 0.46905 0.17935 -0.39651
 C404 C 0.49121 0.18236 -0.38193
 C405 C 0.49319 0.16940 -0.33804
 C406 C 0.47478 0.13765 -0.26855
 C407 C 0.47667 0.12404 -0.23766
 C408 C 0.47938 0.10718 -0.20397
 C409 C 0.46570 0.09746 -0.15622
 C410 C 0.46745 0.07986 -0.12611
 C411 C 0.48282 0.07177 -0.14375
 C412 C 0.49681 0.08201 -0.19108
 C413 C 0.49508 0.09958 -0.22093
 H414 H 0.43517 0.13793 -0.29969
 H415 H 0.43166 0.16084 -0.37713
 H416 H 0.50683 0.19419 -0.40571
 H417 H 0.51031 0.17136 -0.32846
 H418 H 0.45343 0.10316 -0.14283
 H419 H 0.45647 0.07227 -0.08979
 H420 H 0.50884 0.07619 -0.20557
 H421 H 0.50571 0.10694 -0.25789
 C422 C 0.66368 0.49954 -0.31309
 C423 C 0.65461 0.48061 -0.35094
 C424 C 0.66859 0.48056 -0.39462
 C425 C 0.69213 0.49935 -0.40100
 C426 C 0.70120 0.51818 -0.36194
 C427 C 0.68707 0.51822 -0.31829
 C428 C 0.64813 0.50056 -0.27226
 C429 C 0.63401 0.50099 -0.24069
 C430 C 0.61599 0.50103 -0.20633
 C431 C 0.59228 0.48743 -0.22254
 C432 C 0.57460 0.48842 -0.19206
 C433 C 0.58040 0.50305 -0.14484
 C434 C 0.60420 0.51627 -0.12793
 C435 C 0.62194 0.51530 -0.15868
 H436 H 0.63646 0.46615 -0.34759
 H437 H 0.66095 0.46576 -0.42367
 H438 H 0.71875 0.53355 -0.36686
 H439 H 0.69413 0.53321 -0.28980
 H440 H 0.58749 0.47637 -0.25940
 H441 H 0.55642 0.47799 -0.20600
 H442 H 0.60915 0.52769 -0.09170
 H443 H 0.64026 0.52596 -0.14586
 C444 C 0.85314 0.31870 -0.31408
 C445 C 0.86457 0.31155 -0.35209
 C446 C 0.85191 0.29629 -0.39577
 C447 C 0.82742 0.28761 -0.40202
 C448 C 0.81603 0.29465 -0.36274
 C449 C 0.82880 0.31004 -0.31910
 C450 C 0.86696 0.33657 -0.27327
 C451 C 0.87940 0.35234 -0.24155
 C452 C 0.89515 0.37207 -0.20677
 C453 C 0.90177 0.39540 -0.22289
 C454 C 0.91872 0.41489 -0.19255
 C455 C 0.92933 0.41131 -0.14563
 C456 C 0.92213 0.38781 -0.12870
 C457 C 0.90517 0.36828 -0.15928
 H458 H 0.88344 0.31829 -0.34886
 H459 H 0.86135 0.29129 -0.42488
 H460 H 0.79754 0.28941 -0.36748
 H461 H 0.81987 0.31584 -0.29049
 H462 H 0.89422 0.39855 -0.25970
 H463 H 0.92386 0.43278 -0.20647
 H464 H 0.93002 0.38455 -0.09271
 H465 H 0.90026 0.35029 -0.14662
 C466 C 0.52075 -0.15711 -0.31664
 C467 C 0.50356 -0.16539 -0.35826
 C468 C 0.50455 -0.17898 -0.40207
 C469 C 0.52266 -0.18487 -0.40489
 C470 C 0.53972 -0.17669 -0.36213
 C471 C 0.53873 -0.16295 -0.31833
 C472 C 0.52068 -0.14114 -0.27506
 C473 C 0.52003 -0.12713 -0.24301
 C474 C 0.51853 -0.10977 -0.20832
 C475 C 0.50284 -0.10186 -0.22299
 C476 C 0.50220 -0.08381 -0.19252
 C477 C 0.51728 -0.07337 -0.14681
 C478 C 0.53264 -0.08177 -0.13134
 C479 C 0.53331 -0.09986 -0.16214
 H480 H 0.48963 -0.16086 -0.35757
 H481 H 0.49102 -0.18497 -0.43385
 H482 H 0.55457 -0.17980 -0.36401
 H483 H 0.55239 -0.15627 -0.28680
 H484 H 0.49136 -0.10936 -0.25871
 H485 H 0.49011 -0.07778 -0.20530
 H486 H 0.54445 -0.07402 -0.09630
 H487 H 0.54560 -0.10580 -0.15054
 C488 C 0.33168 0.50082 -0.31363
 C489 C 0.34315 0.51725 -0.35617
 C490 C 0.33022 0.51881 -0.40031
 C491 C 0.30538 0.50409 -0.40267
 C492 C 0.29392 0.48784 -0.35893
 C493 C 0.30701 0.48623 -0.31474
 C494 C 0.34582 0.49813 -0.27157
 C495 C 0.35916 0.49657 -0.23950
 C496 C 0.37667 0.49552 -0.20522
 C497 C 0.40052 0.50902 -0.22033
 C498 C 0.41779 0.50715 -0.19031
 C499 C 0.41148 0.49172 -0.14459
 C500 C 0.38754 0.47858 -0.12869
 C501 C 0.37019 0.48043 -0.15905
 H502 H 0.36225 0.52857 -0.35587
 H503 H 0.33972 0.53169 -0.43270
 H504 H 0.27502 0.47552 -0.36025
 H505 H 0.29798 0.47317 -0.28239
 H506 H 0.40573 0.52071 -0.25605
 H507 H 0.43608 0.51755 -0.20342
 H508 H 0.38221 0.46656 -0.09362
 H509 H 0.35177 0.46983 -0.14711
 C510 C 1.15454 0.67681 -0.31316
 C511 C 1.16575 0.70182 -0.31301
 C512 C 1.18007 0.71490 -0.35779
 C513 C 1.18338 0.70308 -0.40326
 C514 C 1.17194 0.67788 -0.40239
 C515 C 1.15784 0.66497 -0.35775
 C516 C 1.13866 0.66263 -0.26960
 C517 C 1.12463 0.64881 -0.23662
 C518 C 1.10723 0.63021 -0.20195
 C519 C 1.09615 0.63525 -0.15842
 C520 C 1.07791 0.61646 -0.12845
 C521 C 1.07053 0.59255 -0.14227
 C522 C 1.08217 0.58779 -0.18516
 C523 C 1.10036 0.60647 -0.21466
 H524 H 1.16305 0.71115 -0.27898
 H525 H 1.18772 0.73416 -0.35788
 H526 H 1.17415 0.66807 -0.43613
 H527 H 1.14920 0.64561 -0.35840
 H528 H 1.10127 0.65357 -0.14840
 H529 H 1.06921 0.62059 -0.09559
 H530 H 1.07699 0.56958 -0.19655
 H531 H 1.10876 0.60235 -0.24831
 C532 C 0.84228 0.52201 -0.31357
 C533 C 0.85198 0.54125 -0.35045
 C534 C 0.83834 0.54221 -0.39384
 C535 C 0.81455 0.52404 -0.40090
 C536 C 0.80487 0.50493 -0.36276
 C537 C 0.81863 0.50399 -0.31942
 C538 C 0.85735 0.51987 -0.27319
 C539 C 0.87081 0.51819 -0.24175
 C540 C 0.88776 0.51626 -0.20717
 C541 C 0.89647 0.50131 -0.22356
 C542 C 0.91445 0.50080 -0.19322
 C543 C 0.92399 0.51529 -0.14603
 C544 C 0.91473 0.52982 -0.12888
 C545 C 0.89674 0.53035 -0.15945
 H546 H 0.87033 0.55521 -0.34661
 H547 H 0.84646 0.55720 -0.42217
 H548 H 0.78710 0.48998 -0.36826
 H549 H 0.81109 0.48876 -0.29172
 H550 H 0.88973 0.49041 -0.26055
 H551 H 0.92117 0.48938 -0.20733
 H552 H 0.92176 0.54116 -0.09267
 H553 H 0.89021 0.54209 -0.14655
 C554 C 0.45045 0.31002 -0.31381
 C555 C 0.43203 0.30245 -0.35222
 C556 C 0.43015 0.28734 -0.39581
 C557 C 0.44657 0.27927 -0.40160
 C558 C 0.46480 0.28670 -0.36181
 C559 C 0.46666 0.30189 -0.31830
 C560 C 0.45399 0.32793 -0.27339
 C561 C 0.45733 0.34384 -0.24191
 C562 C 0.46176 0.36387 -0.20738
 C563 C 0.44800 0.36077 -0.16022
 C564 C 0.45148 0.38070 -0.12941
 C565 C 0.46868 0.40389 -0.14576
 C566 C 0.48271 0.40674 -0.19247
 C567 C 0.47926 0.38686 -0.22301
 H568 H 0.41949 0.30879 -0.34943
 H569 H 0.41582 0.28201 -0.42525
 H570 H 0.47852 0.28201 -0.36613
 H571 H 0.48129 0.30804 -0.28942
 H572 H 0.43434 0.34305 -0.14787
 H573 H 0.44043 0.37801 -0.09360
 H574 H 0.49614 0.42436 -0.20597
 H575 H 0.48996 0.38948 -0.25950
 C576 C 0.67932 0.15547 -0.31101
 C577 C 0.69984 0.15427 -0.32168
 C578 C 0.71483 0.16746 -0.36530
 C579 C 0.70937 0.18190 -0.39843
 C580 C 0.68916 0.18355 -0.38655
 C581 C 0.67424 0.17044 -0.34297
 C582 C 0.66221 0.13969 -0.27126
 C583 C 0.64695 0.12588 -0.24046
 C584 C 0.62776 0.10877 -0.20670
 C585 C 0.63218 0.09934 -0.15892
 C586 C 0.61328 0.08153 -0.12865
 C587 C 0.58980 0.07291 -0.14613
 C588 C 0.58556 0.08284 -0.19350
 C589 C 0.60442 0.10063 -0.22355
 H590 H 0.70380 0.14255 -0.29760
 H591 H 0.73017 0.16573 -0.37455
 H592 H 0.68457 0.19439 -0.41222
 H593 H 0.65830 0.17131 -0.33546
 H594 H 0.65018 0.10546 -0.14562
 H595 H 0.61704 0.07419 -0.09229
 H596 H 0.56767 0.07660 -0.20787
 H597 H 0.60080 0.10776 -0.26054
 C598 C 1.16615 0.50375 -0.30639
 C599 C 1.17558 0.48848 -0.30986
 C600 C 1.18994 0.49018 -0.35484
 C601 C 1.19501 0.50719 -0.39709
 C602 C 1.18570 0.52269 -0.39217
 C603 C 1.17156 0.52104 -0.34720
 C604 C 1.14928 0.50074 -0.26422
 C605 C 1.13427 0.49899 -0.23231
 C606 C 1.11553 0.49791 -0.19870
 C607 C 1.10567 0.48165 -0.15485
 C608 C 1.08617 0.47978 -0.12580
 C609 C 1.07632 0.49403 -0.14081
 C610 C 1.08672 0.51062 -0.18405
 C611 C 1.10615 0.51253 -0.21268
 H612 H 1.17119 0.47476 -0.27891
 H613 H 1.19592 0.47729 -0.35812
 H614 H 1.18932 0.53613 -0.42338
 H615 H 1.16427 0.53289 -0.34509
 H616 H 1.11273 0.47016 -0.14386
 H617 H 1.07848 0.46686 -0.09263
 H618 H 1.07962 0.52193 -0.19637
 H619 H 1.11359 0.52512 -0.24660
 C620 C 0.53959 0.68371 -0.30819
 C621 C 0.51994 0.68547 -0.32475
 C622 C 0.52194 0.70056 -0.36841
 C623 C 0.54368 0.71416 -0.39573
 C624 C 0.56348 0.71278 -0.37806
 C625 C 0.56146 0.69765 -0.33439
 C626 C 0.53667 0.66579 -0.26857
 C627 C 0.53367 0.64982 -0.23780
 C628 C 0.52946 0.62968 -0.20416
 C629 C 0.51216 0.60671 -0.22067
 C630 C 0.50876 0.58675 -0.19075
 C631 C 0.52263 0.58949 -0.14378
 C632 C 0.53966 0.61265 -0.12661
 C633 C 0.54309 0.63267 -0.15681
 H634 H 0.50286 0.67452 -0.30531
 H635 H 0.50635 0.70099 -0.38229
 H636 H 0.58028 0.72284 -0.39924
 H637 H 0.57670 0.69619 -0.32240
 H638 H 0.50154 0.60418 -0.25730
 H639 H 0.49546 0.56915 -0.20487
 H640 H 0.55059 0.61526 -0.09058
 H641 H 0.55658 0.65038 -0.14376
 C642 C 0.32896 -0.16380 -0.30629
 C643 C 0.30485 -0.17109 -0.30946
 C644 C 0.29127 -0.18498 -0.35433
 C645 C 0.30169 -0.19171 -0.39680
 C646 C 0.32589 -0.18462 -0.39209
 C647 C 0.33930 -0.17095 -0.34721
 C648 C 0.34396 -0.14722 -0.26450
 C649 C 0.35805 -0.13252 -0.23288
 C650 C 0.37651 -0.11421 -0.19949
 C651 C 0.37130 -0.10410 -0.15406
 C652 C 0.38967 -0.08504 -0.12494
 C653 C 0.41335 -0.07589 -0.14139
 C654 C 0.41836 -0.08652 -0.18630
 C655 C 0.40007 -0.10553 -0.21505
 H656 H 0.29676 -0.16533 -0.27841
 H657 H 0.27300 -0.18920 -0.35741
 H658 H 0.33455 -0.18959 -0.42346
 H659 H 0.35798 -0.16532 -0.34534
 H660 H 0.35310 -0.11062 -0.14183
 H661 H 0.38534 -0.07716 -0.09047
 H662 H 0.43641 -0.07994 -0.19978
 H663 H 0.40431 -0.11316 -0.25022
 C664 C 0.52396 -0.15769 0.30567
 C665 C 0.54569 -0.15536 0.32154
 C666 C 0.54670 -0.16884 0.36572
 C667 C 0.52596 -0.18476 0.39424
 C668 C 0.50416 -0.18752 0.37712
 C669 C 0.50316 -0.17409 0.33295
 C670 C 0.52316 -0.14156 0.26579
 C671 C 0.52205 -0.12745 0.23505
 C672 C 0.52020 -0.10998 0.20172
 C673 C 0.53432 -0.10017 0.15460
 C674 C 0.53336 -0.08203 0.12494
 C675 C 0.51835 -0.07347 0.14243
 C676 C 0.50393 -0.08378 0.18911
 C677 C 0.50486 -0.10189 0.21849
 H678 H 0.56192 -0.14251 0.30119
 H679 H 0.56370 -0.16621 0.37909
 H680 H 0.48806 -0.19948 0.39920
 H681 H 0.48630 -0.17583 0.32147
 H682 H 0.54632 -0.10625 0.14137
 H683 H 0.54466 -0.07439 0.08911
 H684 H 0.49214 -0.07763 0.20346
 H685 H 0.49390 -0.10931 0.25495
 C686 C 0.32964 0.50072 0.30695
 C687 C 0.33851 0.52168 0.33852
 C688 C 0.32547 0.52288 0.38302
 C689 C 0.30335 0.50315 0.39624
 C690 C 0.29413 0.48242 0.36341
 C691 C 0.30726 0.48121 0.31889
 C692 C 0.34471 0.49860 0.26656
 C693 C 0.35849 0.49723 0.23558
 C694 C 0.37620 0.49611 0.20222
 C695 C 0.39992 0.50924 0.21862
 C696 C 0.41728 0.50720 0.18938
 C697 C 0.41116 0.49195 0.14320
 C698 C 0.38736 0.47919 0.12605
 C699 C 0.36993 0.48121 0.15560
 H700 H 0.35591 0.53678 0.33003
 H701 H 0.33292 0.53890 0.40831
 H702 H 0.27724 0.46693 0.37362
 H703 H 0.30035 0.46481 0.29514
 H704 H 0.40496 0.52077 0.25472
 H705 H 0.43547 0.51732 0.20344
 H706 H 0.38218 0.46732 0.09060
 H707 H 0.35160 0.47089 0.14268
 C708 C 1.15679 0.67899 0.30577
 C709 C 1.16981 0.67087 0.33560
 C710 C 1.18373 0.68406 0.38048
 C711 C 1.18485 0.70557 0.39580
 C712 C 1.17244 0.71414 0.36474
 C713 C 1.15839 0.70084 0.31984
 C714 C 1.13999 0.66347 0.26505
 C715 C 1.12534 0.64900 0.23399
 C716 C 1.10732 0.63010 0.20094
 C717 C 1.09938 0.60641 0.21630
 C718 C 1.08091 0.58765 0.18744
 C719 C 1.07007 0.59229 0.14260
 C720 C 1.07842 0.61612 0.12644
 C721 C 1.09695 0.63498 0.15568
 H722 H 1.16851 0.65389 0.32547
 H723 H 1.19304 0.67715 0.40443
 H724 H 1.17296 0.73059 0.37657
 H725 H 1.14817 0.70715 0.29744
 H726 H 1.10724 0.60242 0.25130
 H727 H 1.07494 0.56948 0.20070
 H728 H 1.07037 0.62017 0.09202
 H729 H 1.10293 0.65328 0.14355
 C730 C 0.47600 0.15408 0.31281
 C731 C 0.45430 0.15307 0.32205
 C732 C 0.45196 0.16599 0.36578
 C733 C 0.47133 0.18005 0.40049
 C734 C 0.49318 0.18146 0.39014
 C735 C 0.49551 0.16858 0.34643
 C736 C 0.47779 0.13857 0.27260
 C737 C 0.47952 0.12493 0.24134
 C738 C 0.48186 0.10796 0.20708
 C739 C 0.46776 0.09820 0.15985
 C740 C 0.46904 0.08041 0.12932
 C741 C 0.48437 0.07214 0.14602
 C742 C 0.49881 0.08243 0.19279
 C743 C 0.49754 0.10020 0.22307
 H744 H 0.43903 0.14168 0.29670
 H745 H 0.43488 0.16440 0.37380
 H746 H 0.50820 0.19200 0.41693
 H747 H 0.51230 0.16930 0.34002
 H748 H 0.45549 0.10402 0.14724
 H749 H 0.45773 0.07279 0.09344
 H750 H 0.51083 0.07648 0.20655
 H751 H 0.50849 0.10757 0.25964
 C752 C 0.66328 0.49731 0.31055
 C753 C 0.65705 0.47653 0.34099
 C754 C 0.67138 0.47711 0.38471
 C755 C 0.69214 0.49845 0.39823
 C756 C 0.69863 0.51908 0.36664
 C757 C 0.68428 0.51849 0.32292
 C758 C 0.64696 0.49746 0.27067
 C759 C 0.63258 0.49768 0.23963
 C760 C 0.61463 0.49800 0.20556
 C761 C 0.59091 0.48474 0.22182
 C762 C 0.57343 0.48634 0.19192
 C763 C 0.57944 0.50126 0.14528
 C764 C 0.60324 0.51409 0.12827
 C765 C 0.62076 0.51252 0.15842
 H766 H 0.64071 0.46012 0.33219
 H767 H 0.66595 0.46113 0.40913
 H768 H 0.71433 0.53582 0.37721
 H769 H 0.68912 0.53474 0.30011
 H770 H 0.58598 0.47353 0.25834
 H771 H 0.55525 0.47619 0.20590
 H772 H 0.60835 0.52572 0.09249
 H773 H 0.63909 0.52294 0.14563
 C774 C 0.85354 0.31692 0.30986
 C775 C 0.83071 0.31269 0.32139
 C776 C 0.81768 0.29752 0.36487
 C777 C 0.82734 0.28637 0.39710
 C778 C 0.84996 0.29013 0.38430
 C779 C 0.86298 0.30531 0.34081
 C780 C 0.86817 0.33499 0.27037
 C781 C 0.88091 0.35098 0.23958
 C782 C 0.89668 0.37096 0.20562
 C783 C 0.90653 0.36752 0.15736
 C784 C 0.92308 0.38727 0.12682
 C785 C 0.92999 0.41064 0.14448
 C786 C 0.91962 0.41388 0.19234
 C787 C 0.90310 0.39416 0.22267
 H788 H 0.82336 0.32181 0.29817
 H789 H 0.80047 0.29522 0.37486
 H790 H 0.85782 0.28195 0.40919
 H791 H 0.88073 0.30866 0.33265
 H792 H 0.90174 0.34964 0.14389
 H793 H 0.93079 0.38427 0.09010
 H794 H 0.92456 0.43166 0.20687
 H795 H 0.89563 0.39703 0.26002
   
