data_POSCAR
  _audit_creation_date              2014-09-24
  _audit_creation_method            'ToBaCCo'
  _symmetry_space_group_name_H-M    'P1'
  _symmetry_Int_Tables_number       1
  _symmetry_cell_setting            triclinic
  loop_
  _symmetry_equiv_pos_as_xyz
 x,y,z
_cell_length_a 15.9006
_cell_length_b 15.8989
_cell_length_c 22.1518
_cell_angle_alpha 90.000000
_cell_angle_beta 89.685800
_cell_angle_gamma 90.000000
loop_
  _atom_site_label
  _atom_site_type_symbol
  _atom_site_fract_x
  _atom_site_fract_y
  _atom_site_fract_z
O1 O 0.16043 0.10064 0.04002
 O2 O -0.16055 -0.09542 0.04127
 O3 O -0.09676 0.16245 0.04330
 O4 O 0.09670 -0.15712 0.04246
 O5 O -0.14431 0.04584 0.07587
 O6 O 0.14417 -0.04068 0.07485
 O7 O -0.04475 -0.14119 0.07494
 O8 O 0.04477 0.14665 0.07461
 C9 C 0.12062 0.13550 0.08154
 C10 C -0.12068 -0.13061 0.08232
 C11 C -0.13297 0.12167 0.08395
 C12 C 0.13276 -0.11650 0.08295
 O13 O 0.16053 -0.09542 -0.04117
 O14 O -0.16044 0.10064 -0.03991
 O15 O 0.09674 0.16245 -0.04319
 O16 O -0.09672 -0.15712 -0.04235
 O17 O -0.14419 -0.04068 -0.07474
 O18 O 0.14429 0.04584 -0.07577
 O19 O 0.04473 -0.14119 -0.07483
 O20 O -0.04479 0.14665 -0.07451
 Co21 Co 0.13764 0.00259 -0.00045
 Co22 Co -0.13766 0.00259 0.00056
 Co23 Co -0.00001 0.14002 0.00005
 Co24 Co -0.00001 -0.13460 0.00005
 O25 O -0.00001 0.00266 0.00005
 C26 C 0.12067 -0.13061 -0.08221
 C27 C -0.12063 0.13550 -0.08143
 C28 C 0.13295 0.12167 -0.08384
 C29 C -0.13278 -0.11650 -0.08284
 O30 O 0.40220 0.33748 0.45948
 O31 O 0.59805 0.65832 0.45915
 O32 O 0.34028 0.59477 0.45772
 O33 O 0.65995 0.40109 0.45703
 O34 O 0.45689 0.64209 0.42488
 O35 O 0.54367 0.35363 0.42468
 O36 O 0.64414 0.54261 0.42494
 O37 O 0.35629 0.45333 0.42565
 C38 C 0.36724 0.37746 0.41835
 C39 C 0.63319 0.61849 0.41779
 C40 C 0.38106 0.63097 0.41706
 C41 C 0.61949 0.36511 0.41644
 O42 O 0.59779 0.33748 0.54063
 O43 O 0.40194 0.65832 0.54096
 O44 O 0.34003 0.40109 0.54307
 O45 O 0.65971 0.59477 0.54239
 O46 O 0.54310 0.64209 0.57523
 O47 O 0.45631 0.35363 0.57543
 O48 O 0.64369 0.45333 0.57446
 O49 O 0.35584 0.54261 0.57517
 Co50 Co 0.49999 0.36024 0.50005
 Co51 Co 0.49999 0.63550 0.50005
 Co52 Co 0.36267 0.49795 0.50038
 Co53 Co 0.63732 0.49795 0.49973
 O54 O 0.49999 0.49790 0.50005
 C55 C 0.63274 0.37746 0.58176
 C56 C 0.36679 0.61849 0.58232
 C57 C 0.38049 0.36511 0.58366
 C58 C 0.61893 0.63097 0.58305
 C59 C 0.16261 0.16921 0.13315
 C60 C 0.19675 0.19822 0.17681
 C61 C 0.23535 0.23324 0.22809
 C62 C 0.26720 0.26426 0.27194
 C63 C 0.30320 0.30203 0.32320
 C64 C 0.33294 0.33567 0.36682
 C65 C 0.83730 0.83424 0.13373
 C66 C 0.80325 0.80374 0.17715
 C67 C 0.76484 0.76688 0.22811
 C68 C 0.73317 0.73435 0.27169
 C69 C 0.69735 0.69511 0.32270
 C70 C 0.66765 0.66061 0.36621
 C71 C 0.83737 0.16921 0.86696
 C72 C 0.80323 0.19822 0.82330
 C73 C 0.76463 0.23324 0.77202
 C74 C 0.73278 0.26426 0.72817
 C75 C 0.69679 0.30203 0.67691
 C76 C 0.66705 0.33567 0.63329
 C77 C 0.16269 0.83424 0.86638
 C78 C 0.19673 0.80374 0.82296
 C79 C 0.23515 0.76688 0.77200
 C80 C 0.26681 0.73435 0.72841
 C81 C 0.30263 0.69511 0.67741
 C82 C 0.33233 0.66061 0.63390
 C83 C 0.16533 0.15921 0.86910
 C84 C 0.19609 0.19302 0.82546
 C85 C 0.23318 0.23147 0.77426
 C86 C 0.26567 0.26338 0.73054
 C87 C 0.30472 0.29978 0.67931
 C88 C 0.33885 0.33002 0.63561
 C89 C 0.83184 0.84196 0.86561
 C90 C 0.80134 0.80774 0.82231
 C91 C 0.76466 0.76844 0.77161
 C92 C 0.73256 0.73563 0.72836
 C93 C 0.69399 0.69811 0.67769
 C94 C 0.66022 0.66695 0.63447
 C95 C 0.16814 0.84196 0.13450
 C96 C 0.19865 0.80774 0.17780
 C97 C 0.23532 0.76844 0.22850
 C98 C 0.26743 0.73563 0.27175
 C99 C 0.30600 0.69811 0.32242
 C100 C 0.33977 0.66695 0.36564
 C101 C 0.83465 0.15921 0.13100
 C102 C 0.80389 0.19302 0.17465
 C103 C 0.76681 0.23147 0.22585
 C104 C 0.73431 0.26338 0.26957
 C105 C 0.69527 0.29978 0.32080
 C106 C 0.66114 0.33002 0.36450
   
