data_POSCAR
  _audit_creation_date              2014-09-24
  _audit_creation_method            'ToBaCCo'
  _symmetry_space_group_name_H-M    'P1'
  _symmetry_Int_Tables_number       1
  _symmetry_cell_setting            triclinic
  loop_
  _symmetry_equiv_pos_as_xyz
 x,y,z
_cell_length_a 46.5313
_cell_length_b 46.6398
_cell_length_c 46.8149
_cell_angle_alpha 89.997800
_cell_angle_beta 90.001800
_cell_angle_gamma 89.995600
loop_
  _atom_site_label
  _atom_site_type_symbol
  _atom_site_fract_x
  _atom_site_fract_y
  _atom_site_fract_z
N1 N 0.29586 0.23833 0.21595
 N2 N 0.28405 0.26138 0.20476
 C3 C 0.29924 0.26931 0.18155
 C4 C 0.32160 0.25021 0.17826
 C5 C 0.31895 0.23083 0.20031
 H6 H 0.29446 0.28750 0.16804
 H7 H 0.33276 0.21269 0.20463
 Cu8 Cu 0.24994 0.27840 0.22173
 Cu9 Cu 0.28042 0.21972 0.24994
 Cu10 Cu 0.21949 0.25014 0.28026
 N11 N 0.21581 0.29542 0.23869
 N12 N 0.20400 0.28417 0.26164
 C13 C 0.18082 0.29978 0.26902
 C14 C 0.17809 0.32183 0.24965
 C15 C 0.20048 0.31858 0.23066
 H16 H 0.16702 0.29543 0.28710
 H17 H 0.20516 0.33206 0.21245
 N18 N 0.23841 0.21570 0.29588
 N19 N 0.26159 0.20411 0.28435
 C20 C 0.26928 0.18098 0.29982
 C21 C 0.25003 0.17804 0.32197
 C22 C 0.23076 0.20024 0.31899
 H23 H 0.28747 0.16726 0.29539
 H24 H 0.21257 0.20472 0.33265
 H25 H 0.23834 0.23274 0.24429
 H26 H 0.26149 0.25580 0.26729
 N27 N 0.70366 -0.23851 0.21533
 N28 N 0.71551 -0.26152 0.20407
 C29 C 0.70022 -0.26953 0.18094
 C30 C 0.67781 -0.25047 0.17776
 C31 C 0.68048 -0.23106 0.19979
 H32 H 0.70496 -0.28777 0.16747
 H33 H 0.66665 -0.21294 0.20417
 Cu34 Cu 0.74967 -0.27856 0.22105
 Cu35 Cu 0.71911 -0.21990 0.24931
 Cu36 Cu 0.78006 -0.25032 0.27959
 N37 N 0.78382 -0.29562 0.23803
 N38 N 0.79559 -0.28439 0.26102
 C39 C 0.81870 -0.30007 0.26852
 C40 C 0.82140 -0.32218 0.24918
 C41 C 0.79906 -0.31890 0.23010
 H42 H 0.83246 -0.29573 0.28664
 H43 H 0.79432 -0.33242 0.21193
 N44 N 0.76117 -0.21583 0.29522
 N45 N 0.73797 -0.20425 0.28370
 C46 C 0.73026 -0.18114 0.29919
 C47 C 0.74950 -0.17818 0.32135
 C48 C 0.76879 -0.20037 0.31834
 H49 H 0.71203 -0.16745 0.29478
 H50 H 0.78697 -0.20485 0.33202
 H51 H 0.76109 -0.23286 0.24366
 H52 H 0.73797 -0.25601 0.26659
 N53 N 0.70429 0.23871 0.78400
 N54 N 0.71569 0.26217 0.79478
 C55 C 0.70052 0.27008 0.81802
 C56 C 0.67858 0.25056 0.82173
 C57 C 0.68148 0.23095 0.79991
 H58 H 0.70503 0.28853 0.83127
 H59 H 0.66803 0.21247 0.79593
 Cu60 Cu 0.74945 0.27935 0.77719
 Cu61 Cu 0.71980 0.21988 0.75011
 Cu62 Cu 0.78083 0.25036 0.71978
 N63 N 0.78399 0.29628 0.76086
 N64 N 0.79622 0.28462 0.73831
 C65 C 0.81968 0.29997 0.73121
 C66 C 0.82217 0.32227 0.75036
 C67 C 0.79933 0.31944 0.76894
 H68 H 0.83382 0.29526 0.71347
 H69 H 0.79434 0.33316 0.78690
 N70 N 0.76196 0.21575 0.70424
 N71 N 0.73877 0.20417 0.71578
 C72 C 0.73102 0.18107 0.70028
 C73 C 0.75024 0.17812 0.67811
 C74 C 0.76954 0.20029 0.68110
 H75 H 0.71277 0.16742 0.70469
 H76 H 0.78768 0.20480 0.66737
 H77 H 0.76168 0.23328 0.75588
 H78 H 0.73856 0.25553 0.73212
 N79 N 0.29609 -0.23858 0.78447
 N80 N 0.28427 -0.26160 0.79569
 C81 C 0.29952 -0.26956 0.81886
 C82 C 0.32191 -0.25048 0.82213
 C83 C 0.31922 -0.23110 0.80008
 H84 H 0.29478 -0.28777 0.83236
 H85 H 0.33303 -0.21296 0.79574
 Cu86 Cu 0.25010 -0.27876 0.77879
 Cu87 Cu 0.28063 -0.21998 0.75051
 Cu88 Cu 0.21970 -0.25044 0.72021
 N89 N 0.21591 -0.29576 0.76173
 N90 N 0.20412 -0.28452 0.73875
 C91 C 0.18096 -0.30017 0.73131
 C92 C 0.17823 -0.32226 0.75069
 C93 C 0.20062 -0.31898 0.76972
 H94 H 0.16718 -0.29581 0.71321
 H95 H 0.20534 -0.33246 0.78793
 N96 N 0.23861 -0.21595 0.70457
 N97 N 0.26178 -0.20436 0.71611
 C98 C 0.26948 -0.18123 0.70064
 C99 C 0.25025 -0.17828 0.67848
 C100 C 0.23098 -0.20048 0.68146
 H101 H 0.28769 -0.16752 0.70508
 H102 H 0.21281 -0.20495 0.66777
 H103 H 0.23864 -0.23297 0.75620
 H104 H 0.26180 -0.25607 0.73325
 N105 N 0.70452 -0.23843 0.78427
 N106 N 0.71637 -0.26142 0.79552
 C107 C 0.70114 -0.26935 0.81872
 C108 C 0.67876 -0.25027 0.82196
 C109 C 0.68141 -0.23093 0.79988
 H110 H 0.70588 -0.28756 0.83222
 H111 H 0.66757 -0.21283 0.79550
 Cu112 Cu 0.75034 -0.27873 0.77848
 Cu113 Cu 0.71988 -0.21991 0.75024
 Cu114 Cu 0.78073 -0.25033 0.71991
 N115 N 0.78461 -0.29554 0.76151
 N116 N 0.79633 -0.28432 0.73849
 C117 C 0.81948 -0.29995 0.73100
 C118 C 0.82224 -0.32200 0.75039
 C119 C 0.79992 -0.31875 0.76947
 H120 H 0.83319 -0.29562 0.71285
 H121 H 0.79523 -0.33227 0.78766
 N122 N 0.76179 -0.21592 0.70425
 N123 N 0.73862 -0.20434 0.71580
 C124 C 0.73090 -0.18122 0.70033
 C125 C 0.75010 -0.17828 0.67816
 C126 C 0.76939 -0.20046 0.68112
 H127 H 0.71270 -0.16751 0.70479
 H128 H 0.78757 -0.20493 0.66744
 H129 H 0.73864 -0.25610 0.73296
 H130 H 0.76183 -0.23303 0.75596
 N131 N 0.29599 0.23824 0.78407
 N132 N 0.28419 0.26129 0.79526
 C133 C 0.29937 0.26922 0.81847
 C134 C 0.32172 0.25012 0.82176
 C135 C 0.31908 0.23074 0.79972
 H136 H 0.29460 0.28742 0.83197
 H137 H 0.33288 0.21259 0.79541
 Cu138 Cu 0.25009 0.27830 0.77830
 Cu139 Cu 0.28056 0.21962 0.75011
 Cu140 Cu 0.21964 0.25004 0.71979
 N141 N 0.21599 0.29532 0.76134
 N142 N 0.20418 0.28407 0.73839
 C143 C 0.18101 0.29967 0.73100
 C144 C 0.17829 0.32172 0.75038
 C145 C 0.20067 0.31848 0.76937
 H146 H 0.16719 0.29533 0.71293
 H147 H 0.20535 0.33196 0.78757
 N148 N 0.23855 0.21561 0.70419
 N149 N 0.26172 0.20402 0.71573
 C150 C 0.26941 0.18089 0.70026
 C151 C 0.25015 0.17796 0.67813
 C152 C 0.23089 0.20015 0.68109
 H153 H 0.28760 0.16716 0.70470
 H154 H 0.21270 0.20463 0.66743
 H155 H 0.26164 0.25571 0.73277
 H156 H 0.23848 0.23264 0.75577
 N157 N 0.29603 -0.23839 0.21590
 N158 N 0.28374 -0.26094 0.20422
 C159 C 0.29904 -0.26903 0.18114
 C160 C 0.32190 -0.25045 0.17836
 C161 C 0.31948 -0.23129 0.20062
 H162 H 0.29403 -0.28700 0.16742
 H163 H 0.33368 -0.21355 0.20533
 Cu164 Cu 0.24928 -0.27732 0.22102
 Cu165 Cu 0.28074 -0.21983 0.25003
 Cu166 Cu 0.21967 -0.25020 0.28028
 N167 N 0.21554 -0.29486 0.23803
 N168 N 0.20415 -0.28408 0.26142
 C169 C 0.18134 -0.30003 0.26911
 C170 C 0.17845 -0.32184 0.24951
 C171 C 0.20036 -0.31814 0.23008
 H172 H 0.16788 -0.29608 0.28753
 H173 H 0.20485 -0.33141 0.21166
 N174 N 0.23869 -0.21587 0.29598
 N175 N 0.26192 -0.20431 0.28449
 C176 C 0.26956 -0.18116 0.29995
 C177 C 0.25025 -0.17820 0.32203
 C178 C 0.23098 -0.20037 0.31903
 H179 H 0.28774 -0.16742 0.29551
 H180 H 0.21271 -0.20479 0.33262
 H181 H 0.26154 -0.25608 0.26693
 H182 H 0.23848 -0.23214 0.24478
 N183 N 0.70398 0.23822 0.21591
 N184 N 0.71582 0.26122 0.20470
 C185 C 0.70056 0.26926 0.18157
 C186 C 0.67816 0.25023 0.17833
 C187 C 0.68082 0.23080 0.20034
 H188 H 0.70529 0.28751 0.16813
 H189 H 0.66698 0.21269 0.20465
 Cu190 Cu 0.74990 0.27832 0.22156
 Cu191 Cu 0.71943 0.21961 0.24985
 Cu192 Cu 0.78031 0.25003 0.28019
 N193 N 0.78397 0.29522 0.23862
 N194 N 0.79574 0.28403 0.26161
 C195 C 0.81884 0.29969 0.26907
 C196 C 0.82152 0.32174 0.24971
 C197 C 0.79920 0.31846 0.23066
 H198 H 0.83263 0.29540 0.28717
 H199 H 0.79448 0.33197 0.21250
 N200 N 0.76146 0.21558 0.29576
 N201 N 0.73830 0.20398 0.28421
 C202 C 0.73064 0.18083 0.29967
 C203 C 0.74989 0.17791 0.32181
 C204 C 0.76913 0.20012 0.31885
 H205 H 0.71245 0.16711 0.29524
 H206 H 0.78731 0.20462 0.33253
 H207 H 0.73832 0.25576 0.26715
 H208 H 0.76150 0.23264 0.24424
 O209 O 0.27383 0.02777 0.47227
 O210 O 0.27391 -0.02806 0.52795
 O211 O 0.27386 -0.02806 0.47229
 O212 O 0.27386 0.02777 0.52789
 O213 O 0.22633 0.02774 0.52793
 O214 O 0.22633 -0.02809 0.47233
 O215 O 0.22638 -0.02810 0.52798
 O216 O 0.22630 0.02774 0.47230
 Cu217 Cu 0.27866 -0.00015 0.50010
 Cu218 Cu 0.22154 -0.00018 0.50014
 C219 C 0.25005 0.03717 0.46288
 C220 C 0.25016 -0.03749 0.53738
 C221 C 0.25009 -0.03748 0.46291
 C222 C 0.25009 0.03718 0.53729
 O223 O 0.72611 0.02775 0.52776
 O224 O 0.72601 -0.02808 0.47206
 O225 O 0.72609 -0.02810 0.52774
 O226 O 0.72608 0.02776 0.47211
 O227 O 0.77361 0.02771 0.47207
 O228 O 0.77362 -0.02814 0.52769
 O229 O 0.77353 -0.02813 0.47200
 O230 O 0.77364 0.02772 0.52772
 Cu231 Cu 0.72128 -0.00017 0.49992
 Cu232 Cu 0.77840 -0.00022 0.49987
 C233 C 0.74989 0.03716 0.53714
 C234 C 0.74975 -0.03751 0.46260
 C235 C 0.74986 -0.03753 0.53712
 C236 C 0.74985 0.03715 0.46270
 O237 O 0.47205 0.27422 0.02778
 O238 O 0.52800 0.27416 -0.02788
 O239 O 0.47205 0.27421 -0.02785
 O240 O 0.52800 0.27420 0.02775
 O241 O 0.52798 0.22678 0.02778
 O242 O 0.47203 0.22678 -0.02783
 O243 O 0.52798 0.22674 -0.02787
 O244 O 0.47202 0.22680 0.02780
 Cu245 Cu 0.50003 0.27898 -0.00005
 Cu246 Cu 0.50000 0.22198 -0.00002
 C247 C 0.46260 0.25052 0.03719
 C248 C 0.53743 0.25045 -0.03728
 C249 C 0.46261 0.25050 -0.03723
 C250 C 0.53742 0.25049 0.03715
 O251 O 0.52855 0.77317 0.02830
 O252 O 0.47254 0.77317 -0.02738
 O253 O 0.47257 0.77318 0.02827
 O254 O 0.52854 0.77317 -0.02737
 O255 O 0.52854 0.72575 -0.02736
 O256 O 0.47259 0.72576 0.02827
 O257 O 0.47256 0.72575 -0.02737
 O258 O 0.52854 0.72576 0.02830
 Cu259 Cu 0.50055 0.77796 0.00045
 Cu260 Cu 0.50056 0.72097 0.00046
 C261 C 0.53798 0.74946 0.03771
 C262 C 0.46310 0.74945 -0.03677
 C263 C 0.46315 0.74946 0.03766
 C264 C 0.53797 0.74946 -0.03676
 O265 O 0.02741 0.47262 0.27298
 O266 O -0.02862 0.52846 0.27286
 O267 O -0.02848 0.47261 0.27295
 O268 O 0.02736 0.52838 0.27298
 O269 O 0.02742 0.52834 0.22573
 O270 O -0.02842 0.47258 0.22570
 O271 O -0.02855 0.52842 0.22562
 O272 O 0.02746 0.47259 0.22573
 Cu273 Cu -0.00060 0.50054 0.27773
 Cu274 Cu -0.00053 0.50049 0.22092
 C275 C 0.03689 0.46319 0.24937
 C276 C -0.03805 0.53786 0.24921
 C277 C -0.03783 0.46315 0.24932
 C278 C 0.03685 0.53773 0.24936
 O279 O 0.02786 0.52828 0.77428
 O280 O -0.02822 0.47235 0.77418
 O281 O 0.02774 0.47244 0.77423
 O282 O -0.02821 0.52828 0.77425
 O283 O -0.02818 0.52833 0.72701
 O284 O 0.02779 0.47248 0.72699
 O285 O -0.02819 0.47239 0.72695
 O286 O 0.02791 0.52834 0.72705
 Cu287 Cu -0.00022 0.50035 0.77898
 Cu288 Cu -0.00018 0.50041 0.72224
 C289 C 0.03740 0.53771 0.75069
 C290 C -0.03764 0.46288 0.75055
 C291 C 0.03720 0.46304 0.75061
 C292 C -0.03765 0.53773 0.75064
 C293 C 0.34325 0.25046 0.15639
 C294 C 0.36147 0.25059 0.13810
 C295 C 0.38286 0.25066 0.11672
 C296 C 0.40113 0.25066 0.09847
 C297 C 0.42254 0.25062 0.07712
 C298 C 0.44083 0.25056 0.05889
 C299 C 0.65729 0.74933 0.15707
 C300 C 0.63906 0.74926 0.13876
 C301 C 0.61769 0.74927 0.11734
 C302 C 0.59943 0.74932 0.09907
 C303 C 0.57803 0.74939 0.07769
 C304 C 0.55975 0.74944 0.05943
 C305 C 0.65697 0.25067 -0.15635
 C306 C 0.63872 0.25067 -0.13807
 C307 C 0.61728 0.25061 -0.11673
 C308 C 0.59895 0.25054 -0.09853
 C309 C 0.57750 0.25048 -0.07720
 C310 C 0.55920 0.25044 -0.05898
 C311 C 0.34360 0.74932 -0.15599
 C312 C 0.36183 0.74924 -0.13769
 C313 C 0.38324 0.74924 -0.11630
 C314 C 0.40153 0.74929 -0.09805
 C315 C 0.42298 0.74937 -0.07669
 C316 C 0.44129 0.74943 -0.05846
 C317 C 0.15640 0.34373 0.24939
 C318 C 0.13816 0.36208 0.24929
 C319 C 0.11677 0.38352 0.24927
 C320 C 0.09848 0.40181 0.24930
 C321 C 0.07703 0.42320 0.24935
 C322 C 0.05870 0.44146 0.24938
 C323 C 0.15765 0.65696 0.75092
 C324 C 0.13936 0.63860 0.75102
 C325 C 0.11786 0.61716 0.75102
 C326 C 0.09945 0.59891 0.75095
 C327 C 0.07784 0.57757 0.75084
 C328 C 0.05938 0.55938 0.75075
 C329 C -0.15803 0.65709 0.24896
 C330 C -0.13972 0.63878 0.24886
 C331 C -0.11821 0.61740 0.24886
 C332 C -0.09982 0.59918 0.24892
 C333 C -0.07828 0.57783 0.24904
 C334 C -0.05990 0.55959 0.24914
 C335 C -0.15717 0.34296 0.75066
 C336 C -0.13885 0.36128 0.75077
 C337 C -0.11738 0.38275 0.75075
 C338 C -0.09907 0.40109 0.75069
 C339 C -0.07765 0.42261 0.75059
 C340 C -0.05939 0.44099 0.75055
 C341 C 0.25003 0.15630 0.34370
 C342 C 0.25000 0.13805 0.36193
 C343 C 0.24999 0.11670 0.38331
 C344 C 0.24998 0.09848 0.40156
 C345 C 0.25000 0.07713 0.42294
 C346 C 0.25002 0.05889 0.44118
 C347 C 0.75012 0.15640 0.65633
 C348 C 0.75004 0.13816 0.63807
 C349 C 0.74998 0.11679 0.61669
 C350 C 0.74994 0.09854 0.59845
 C351 C 0.74992 0.07716 0.57708
 C352 C 0.74991 0.05890 0.55884
 C353 C 0.25029 -0.15652 0.65673
 C354 C 0.25030 -0.13828 0.63848
 C355 C 0.25029 -0.11694 0.61709
 C356 C 0.25027 -0.09872 0.59881
 C357 C 0.25022 -0.07740 0.57739
 C358 C 0.25020 -0.05919 0.55911
 C359 C 0.74945 -0.15646 0.34313
 C360 C 0.74945 -0.13824 0.36140
 C361 C 0.74948 -0.11691 0.38282
 C362 C 0.74954 -0.09870 0.40111
 C363 C 0.74962 -0.07738 0.42254
 C364 C 0.74969 -0.05919 0.44084
 C365 C 0.65709 0.74952 -0.15619
 C366 C 0.63889 0.74941 -0.13788
 C367 C 0.61755 0.74936 -0.11644
 C368 C 0.59933 0.74936 -0.09815
 C369 C 0.57797 0.74940 -0.07674
 C370 C 0.55972 0.74944 -0.05847
 C371 C 0.34335 0.25037 -0.15639
 C372 C 0.36156 0.25051 -0.13810
 C373 C 0.38292 0.25059 -0.11672
 C374 C 0.40118 0.25060 -0.09848
 C375 C 0.42258 0.25057 -0.07713
 C376 C 0.44085 0.25052 -0.05891
 C377 C 0.34367 0.74922 0.15663
 C378 C 0.36195 0.74913 0.13842
 C379 C 0.38338 0.74915 0.11709
 C380 C 0.40167 0.74924 0.09889
 C381 C 0.42309 0.74935 0.07756
 C382 C 0.44138 0.74943 0.05934
 C383 C 0.65654 0.25049 0.15646
 C384 C 0.63837 0.25061 0.13813
 C385 C 0.61705 0.25064 0.11670
 C386 C 0.59882 0.25062 0.09843
 C387 C 0.57745 0.25056 0.07706
 C388 C 0.55918 0.25052 0.05883
 C389 C -0.15723 0.65724 0.75057
 C390 C -0.13899 0.63887 0.75066
 C391 C -0.11759 0.61741 0.75072
 C392 C -0.09928 0.59913 0.75072
 C393 C -0.07782 0.57772 0.75069
 C394 C -0.05947 0.55947 0.75066
 C395 C -0.15683 0.34360 0.24943
 C396 C -0.13860 0.36191 0.24929
 C397 C -0.11724 0.38330 0.24921
 C398 C -0.09900 0.40159 0.24921
 C399 C -0.07767 0.42302 0.24925
 C400 C -0.05947 0.44134 0.24929
 C401 C 0.15661 0.34361 0.75063
 C402 C 0.13839 0.36195 0.75073
 C403 C 0.11701 0.38339 0.75076
 C404 C 0.09873 0.40167 0.75072
 C405 C 0.07730 0.42306 0.75067
 C406 C 0.05899 0.44132 0.75062
 C407 C 0.15686 0.65625 0.24933
 C408 C 0.13860 0.63798 0.24927
 C409 C 0.11711 0.61671 0.24927
 C410 C 0.09871 0.59859 0.24930
 C411 C 0.07714 0.57741 0.24934
 C412 C 0.05872 0.55930 0.24936
 C413 C 0.75004 -0.15654 0.65641
 C414 C 0.74998 -0.13831 0.63816
 C415 C 0.74993 -0.11697 0.61678
 C416 C 0.74989 -0.09876 0.59851
 C417 C 0.74988 -0.07744 0.57710
 C418 C 0.74987 -0.05923 0.55884
 C419 C 0.25019 -0.15644 0.34371
 C420 C 0.25014 -0.13820 0.36194
 C421 C 0.25010 -0.11688 0.38331
 C422 C 0.25008 -0.09868 0.40156
 C423 C 0.25008 -0.07737 0.42295
 C424 C 0.25009 -0.05916 0.44121
 C425 C 0.74987 0.15620 0.34355
 C426 C 0.74987 0.13799 0.36181
 C427 C 0.74988 0.11667 0.38318
 C428 C 0.74987 0.09845 0.40143
 C429 C 0.74986 0.07711 0.42279
 C430 C 0.74985 0.05887 0.44102
 C431 C 0.25015 0.15623 0.65641
 C432 C 0.25012 0.13799 0.63818
 C433 C 0.25008 0.11667 0.61681
 C434 C 0.25008 0.09846 0.59856
 C435 C 0.25008 0.07712 0.57720
 C436 C 0.25008 0.05889 0.55897
   
