data_POSCAR
  _audit_creation_date              2014-09-24
  _audit_creation_method            'ToBaCCo'
  _symmetry_space_group_name_H-M    'P1'
  _symmetry_Int_Tables_number       1
  _symmetry_cell_setting            triclinic
  loop_
  _symmetry_equiv_pos_as_xyz
 x,y,z
_cell_length_a 54.1856
_cell_length_b 52.4369
_cell_length_c 24.3150
_cell_angle_alpha 90.346400
_cell_angle_beta 89.272700
_cell_angle_gamma 120.349200
loop_
  _atom_site_label
  _atom_site_type_symbol
  _atom_site_fract_x
  _atom_site_fract_y
  _atom_site_fract_z
C1 C 0.13591 0.43322 0.52125
 C2 C 0.15188 0.44792 0.47403
 C3 C 0.18068 0.45522 0.47096
 C4 C 0.19366 0.44918 0.51495
 C5 C 0.17727 0.43551 0.56263
 C6 C 0.14836 0.42777 0.56676
 C7 C 0.22481 0.45906 0.51227
 C8 C 0.24171 0.46865 0.56013
 C9 C 0.27127 0.47954 0.55705
 C10 C 0.28404 0.48131 0.50582
 C11 C 0.26781 0.47199 0.45792
 C12 C 0.23818 0.46021 0.46135
 H13 H 0.11370 0.42724 0.52339
 H14 H 0.19369 0.46779 0.43616
 H15 H 0.18687 0.43029 0.59622
 H16 H 0.23226 0.46855 0.59966
 H17 H 0.30679 0.48930 0.50328
 H18 H 0.22576 0.45245 0.42412
 C19 C 0.57193 -0.28840 0.53097
 C20 C 0.57210 -0.27762 0.47776
 C21 C 0.57528 -0.24923 0.47381
 C22 C 0.57474 -0.23359 0.52090
 C23 C 0.57150 -0.24678 0.57286
 C24 C 0.57123 -0.27359 0.57895
 C25 C 0.57685 -0.20391 0.51611
 C26 C 0.58613 -0.18399 0.56091
 C27 C 0.58609 -0.15727 0.55849
 C28 C 0.57912 -0.14905 0.50894
 C29 C 0.57082 -0.16778 0.46300
 C30 C 0.56894 -0.19541 0.46740
 H31 H 0.57149 -0.30905 0.53529
 H32 H 0.57705 -0.23964 0.43398
 H33 H 0.57014 -0.23565 0.60913
 H34 H 0.59349 -0.18887 0.59831
 H35 H 0.57961 -0.12819 0.50644
 H36 H 0.56040 -0.21036 0.43295
 C37 C 1.30059 0.85845 0.49709
 C38 C 1.28434 0.85237 0.44889
 C39 C 1.25654 0.82732 0.44896
 C40 C 1.24578 0.80783 0.49430
 C41 C 1.26299 0.81442 0.54112
 C42 C 1.29014 0.83971 0.54286
 C43 C 1.21727 0.77998 0.49186
 C44 C 1.20131 0.76676 0.54024
 C45 C 1.17534 0.73943 0.53911
 C46 C 1.16493 0.72623 0.48732
 C47 C 1.18006 0.73947 0.43868
 C48 C 1.20627 0.76590 0.44125
 H49 H 1.32224 0.87696 0.49874
 H50 H 1.24285 0.82341 0.41419
 H51 H 1.25600 0.79938 0.57570
 H52 H 1.20865 0.77849 0.57871
 H53 H 1.14548 0.70503 0.48412
 H54 H 1.21834 0.77482 0.40347
 C55 C 0.82023 0.52296 0.48892
 C56 C 0.80628 0.51939 0.43880
 C57 C 0.78034 0.51922 0.43816
 C58 C 0.76865 0.52385 0.48654
 C59 C 0.78319 0.52774 0.53642
 C60 C 0.80851 0.52650 0.53831
 C61 C 0.74103 0.52382 0.48493
 C62 C 0.72226 0.51397 0.53070
 C63 C 0.69573 0.51286 0.52960
 C64 C 0.68812 0.52150 0.48087
 C65 C 0.70636 0.53135 0.43480
 C66 C 0.73283 0.53274 0.43720
 H67 H 0.83962 0.52179 0.48957
 H68 H 0.76934 0.51539 0.39949
 H69 H 0.77504 0.53197 0.57411
 H70 H 0.72758 0.50544 0.56617
 H71 H 0.66817 0.52146 0.47866
 H72 H 0.74707 0.54126 0.40190
 C73 C 0.42535 0.27757 0.50576
 C74 C 0.42626 0.26346 0.45729
 C75 C 0.42730 0.23744 0.46064
 C76 C 0.43141 0.22719 0.51103
 C77 C 0.43167 0.24251 0.55934
 C78 C 0.42740 0.26706 0.55797
 C79 C 0.43667 0.20152 0.51211
 C80 C 0.43320 0.18543 0.56100
 C81 C 0.43956 0.16236 0.56273
 C82 C 0.44640 0.15364 0.51252
 C83 C 0.45016 0.16917 0.46374
 C84 C 0.44612 0.19344 0.46412
 H85 H 0.42285 0.29664 0.50183
 H86 H 0.42542 0.22577 0.42277
 H87 H 0.43696 0.23655 0.59789
 H88 H 0.42657 0.19166 0.59804
 H89 H 0.44820 0.13404 0.51024
 H90 H 0.45117 0.20616 0.42667
 C91 C 0.72699 0.15267 0.50484
 C92 C 0.73666 0.16835 0.45542
 C93 C 0.76303 0.19476 0.45396
 C94 C 0.78089 0.20502 0.50040
 C95 C 0.77059 0.18860 0.54987
 C96 C 0.74344 0.16291 0.55255
 C97 C 0.80972 0.23285 0.49688
 C98 C 0.82330 0.24937 0.54456
 C99 C 0.84967 0.27624 0.54139
 C100 C 0.86222 0.28641 0.48915
 C101 C 0.84888 0.27110 0.44133
 C102 C 0.82330 0.24404 0.44536
 H103 H 0.70598 0.13300 0.50668
 H104 H 0.76929 0.20704 0.41594
 H105 H 0.78347 0.19524 0.58649
 H106 H 0.81242 0.24256 0.58382
 H107 H 0.88258 0.30665 0.48487
 H108 H 0.81434 0.23217 0.40759
 O109 O 0.97654 0.53520 -0.07845
 O110 O 1.02680 0.56126 0.07597
 O111 O 0.94042 0.49045 0.03275
 O112 O 1.06072 0.55285 -0.06851
 O113 O 0.97283 0.53418 0.05819
 O114 O 1.02771 0.56235 -0.08336
 O115 O 1.06050 0.55684 0.03369
 O116 O 0.94318 0.49073 -0.06701
 C117 C 0.95084 0.51653 -0.08201
 C118 C 1.05269 0.57093 0.06482
 C119 C 0.94712 0.51540 0.05259
 C120 C 1.05345 0.57072 -0.08418
 O121 O 1.02760 0.51350 -0.12525
 O122 O 0.96965 0.48530 0.09901
 O123 O 0.96860 0.45710 -0.06172
 O124 O 1.04656 0.50159 0.04337
 O125 O 1.02234 0.51103 0.10496
 O126 O 0.97619 0.48776 -0.12547
 O127 O 1.04033 0.49506 -0.05966
 O128 O 0.96342 0.45466 0.03544
 Co129 Co 1.00194 0.52365 -0.09566
 Co130 Co 0.99794 0.52191 0.07503
 Co131 Co 0.95783 0.47657 -0.01504
 Co132 Co 1.04706 0.52507 -0.01328
 O133 O 1.00147 0.51191 -0.01168
 C134 C 1.03533 0.49576 -0.10912
 C135 C 0.96417 0.46001 0.08508
 C136 C 0.97045 0.46248 -0.11139
 C137 C 1.03877 0.50132 0.09210
 O138 O 0.45416 0.45691 -0.07697
 O139 O 0.45568 0.49456 0.12120
 O140 O 0.49152 0.44284 0.05286
 O141 O 0.43776 0.49218 -0.04417
 O142 O 0.46415 0.45216 0.10648
 O143 O 0.46594 0.50751 -0.11050
 O144 O 0.43192 0.48896 0.04891
 O145 O 0.47854 0.43867 -0.04497
 C146 C 0.45756 0.43530 -0.07197
 C147 C 0.43236 0.48658 0.09919
 C148 C 0.47170 0.43464 0.08888
 C149 C 0.44173 0.50001 -0.09285
 O150 O 0.51597 0.53090 -0.07217
 O151 O 0.51871 0.48898 0.10724
 O152 O 0.52713 0.49061 -0.06744
 O153 O 0.48122 0.54255 0.06481
 O154 O 0.50940 0.53144 0.10992
 O155 O 0.49896 0.48689 -0.13377
 O156 O 0.48888 0.54624 -0.03585
 O157 O 0.53921 0.49657 0.02861
 Co158 Co 0.48540 0.49352 -0.07116
 Co159 Co 0.48671 0.49178 0.10168
 Co160 Co 0.50681 0.46928 -0.00596
 Co161 Co 0.46199 0.51576 0.00830
 O162 O 0.48416 0.49271 0.01172
 C163 C 0.51152 0.55169 -0.06180
 C164 C 0.54114 0.49905 0.07936
 C165 C 0.52102 0.48559 -0.11824
 C166 C 0.50161 0.54953 0.09811
 O167 O 0.54324 0.03634 -0.10424
 O168 O 0.50418 -0.03254 0.11456
 O169 O 0.55665 0.05719 0.06101
 O170 O 0.51055 -0.05241 -0.04747
 O171 O 0.54658 0.01645 0.10137
 O172 O 0.54076 -0.01094 -0.08536
 O173 O 0.51762 -0.04696 0.04674
 O174 O 0.56543 0.05245 -0.03106
 C175 C 0.56656 0.05002 -0.08114
 C176 C 0.51748 -0.04427 0.09690
 C177 C 0.56405 0.04284 0.09147
 C178 C 0.53333 -0.03702 -0.07478
 O179 O 0.48537 -0.03755 -0.10264
 O180 O 0.51292 0.03878 0.10665
 O181 O 0.51524 0.05297 -0.06082
 O182 O 0.46311 -0.05250 0.06188
 O183 O 0.47107 -0.01062 0.09388
 O184 O 0.48729 0.01004 -0.09587
 O185 O 0.45938 -0.05072 -0.03256
 O186 O 0.50342 0.05104 0.03205
 Co187 Co 0.51390 -0.00033 -0.08661
 Co188 Co 0.50896 0.00283 0.09371
 Co189 Co 0.53310 0.04883 0.00055
 Co190 Co 0.48976 -0.04607 0.00683
 O191 O 0.51146 0.00133 0.00364
 C192 C 0.46094 -0.05039 -0.08295
 C193 C 0.50114 0.05027 0.08242
 C194 C 0.49358 0.03613 -0.08908
 C195 C 0.45412 -0.03734 0.08607
 C196 C 1.11821 0.46365 0.44583
 C197 C 1.10507 0.47108 0.40525
 C198 C 1.11218 0.47104 0.34987
 C199 C 1.13381 0.46477 0.33572
 C200 C 1.14746 0.45781 0.37652
 C201 C 1.13937 0.45637 0.43233
 C202 C 1.09699 0.47833 0.30853
 C203 C 1.09133 0.46667 0.25796
 C204 C 1.07591 0.47383 0.21668
 C205 C 1.08087 0.47112 0.16087
 C206 C 1.06812 0.47924 0.12047
 C207 C 1.04987 0.49005 0.13504
 C208 C 1.04372 0.49137 0.19088
 C209 C 1.05654 0.48326 0.23138
 H210 H 1.11230 0.46472 0.48810
 H211 H 1.08896 0.47655 0.41722
 H212 H 1.14034 0.46540 0.29326
 H213 H 1.16337 0.45223 0.36378
 H214 H 1.08946 0.49305 0.32134
 H215 H 1.09893 0.45193 0.24552
 H216 H 1.09530 0.46345 0.14848
 H217 H 1.07309 0.47764 0.07775
 H218 H 1.02941 0.49917 0.20335
 H219 H 1.05116 0.48440 0.27394
 C220 C 0.55389 0.67327 0.43478
 C221 C 0.54929 0.65541 0.38896
 C222 C 0.55760 0.66768 0.33646
 C223 C 0.57123 0.69845 0.33047
 C224 C 0.57652 0.71662 0.37664
 C225 C 0.56795 0.70445 0.43020
 C226 C 0.55255 0.64751 0.28977
 C227 C 0.54554 0.65145 0.23910
 C228 C 0.53713 0.62820 0.19659
 C229 C 0.51417 0.62141 0.16164
 C230 C 0.50328 0.59659 0.12714
 C231 C 0.51542 0.57839 0.12687
 C232 C 0.53982 0.58668 0.15873
 C233 C 0.55058 0.61131 0.19304
 H234 H 0.54502 0.66192 0.47324
 H235 H 0.53848 0.63166 0.39449
 H236 H 0.57852 0.70855 0.29036
 H237 H 0.58831 0.74018 0.36969
 H238 H 0.55192 0.62701 0.29920
 H239 H 0.54296 0.67023 0.23063
 H240 H 0.50369 0.63435 0.16323
 H241 H 0.48461 0.59090 0.10272
 H242 H 0.55008 0.57352 0.15866
 H243 H 0.56898 0.61663 0.21803
 C244 C 0.31886 -0.10033 0.40472
 C245 C 0.33384 -0.08447 0.35803
 C246 C 0.32721 -0.09766 0.30595
 C247 C 0.30349 -0.12633 0.30089
 C248 C 0.28830 -0.14227 0.34765
 C249 C 0.29655 -0.13005 0.40089
 C250 C 0.34665 -0.08126 0.25925
 C251 C 0.34994 -0.09447 0.21452
 C252 C 0.37429 -0.07912 0.17512
 C253 C 0.38297 -0.09615 0.14470
 C254 C 0.40819 -0.08259 0.11329
 C255 C 0.42525 -0.05165 0.11160
 C256 C 0.41551 -0.03458 0.13866
 C257 C 0.39020 -0.04814 0.16980
 H258 H 0.32500 -0.08898 0.44382
 H259 H 0.35149 -0.06209 0.36304
 H260 H 0.29694 -0.13688 0.26116
 H261 H 0.27150 -0.16493 0.34165
 H262 H 0.36135 -0.05798 0.26586
 H263 H 0.33672 -0.11817 0.21015
 H264 H 0.37094 -0.12005 0.14736
 H265 H 0.41500 -0.09633 0.09239
 H266 H 0.42794 -0.01067 0.13725
 H267 H 0.38366 -0.03416 0.19045
 C268 C 0.80154 0.49304 0.34982
 C269 C 0.81290 0.49033 0.29967
 C270 C 0.84129 0.51068 0.28492
 C271 C 0.85849 0.53325 0.32213
 C272 C 0.84726 0.53567 0.37265
 C273 C 0.81861 0.51577 0.38670
 C274 C 0.85299 0.50674 0.23234
 C275 C 0.87311 0.52962 0.20316
 C276 C 0.88887 0.52651 0.15566
 C277 C 0.91545 0.55097 0.14119
 C278 C 0.93354 0.54800 0.10369
 C279 C 0.92535 0.52047 0.07955
 C280 C 0.89760 0.49672 0.08966
 C281 C 0.87947 0.49968 0.12733
 H282 H 0.77946 0.47723 0.36005
 H283 H 0.79944 0.47248 0.27208
 H284 H 0.88077 0.54867 0.31278
 H285 H 0.86081 0.55336 0.40045
 H286 H 0.84508 0.48429 0.21878
 H287 H 0.88012 0.55184 0.21747
 H288 H 0.92305 0.57203 0.16156
 H289 H 0.95469 0.56683 0.09633
 H290 H 0.89055 0.47530 0.07121
 H291 H 0.85867 0.48059 0.13534
 C292 C 0.44978 0.27921 0.36502
 C293 C 0.45445 0.29415 0.31528
 C294 C 0.43824 0.30715 0.30163
 C295 C 0.41694 0.30467 0.33877
 C296 C 0.41240 0.28985 0.38890
 C297 C 0.42897 0.27720 0.40270
 C298 C 0.44626 0.32564 0.25148
 C299 C 0.42817 0.33139 0.22470
 C300 C 0.43775 0.35467 0.18205
 C301 C 0.42204 0.36900 0.17612
 C302 C 0.43244 0.39410 0.14323
 C303 C 0.45865 0.40520 0.11486
 C304 C 0.47325 0.38948 0.11688
 C305 C 0.46291 0.36437 0.15031
 H306 H 0.46323 0.27012 0.37492
 H307 H 0.47121 0.29608 0.28780
 H308 H 0.40457 0.31516 0.33046
 H309 H 0.39623 0.28863 0.41718
 H310 H 0.46838 0.33593 0.23821
 H311 H 0.40605 0.32092 0.23818
 H312 H 0.40243 0.36176 0.19943
 H313 H 0.42048 0.40553 0.14174
 H314 H 0.49334 0.39742 0.09497
 H315 H 0.47503 0.35317 0.15217
 C316 C 0.71530 0.17610 0.37055
 C317 C 0.69873 0.16524 0.32327
 C318 C 0.68596 0.13524 0.30926
 C319 C 0.68976 0.11615 0.34406
 C320 C 0.70622 0.12699 0.39138
 C321 C 0.71915 0.15705 0.40514
 C322 C 0.66719 0.12428 0.26064
 C323 C 0.66116 0.09939 0.23381
 C324 C 0.63879 0.08594 0.19144
 C325 C 0.62368 0.05508 0.18624
 C326 C 0.60009 0.04110 0.15180
 C327 C 0.59139 0.05778 0.12120
 C328 C 0.60775 0.08877 0.12329
 C329 C 0.63124 0.10277 0.15819
 H330 H 0.72468 0.19930 0.38059
 H331 H 0.69579 0.18030 0.29762
 H332 H 0.67949 0.09270 0.33591
 H333 H 0.70892 0.11185 0.41724
 H334 H 0.65729 0.13678 0.24812
 H335 H 0.67111 0.08695 0.24626
 H336 H 0.62932 0.04166 0.21086
 H337 H 0.58808 0.01717 0.15053
 H338 H 0.60173 0.10219 0.09968
 H339 H 0.64310 0.12666 0.15965
 C340 C 0.42579 0.14968 -0.33847
 C341 C 0.42763 0.13690 -0.28927
 C342 C 0.44328 0.12234 -0.28737
 C343 C 0.45790 0.12164 -0.33466
 C344 C 0.45664 0.13478 -0.38320
 C345 C 0.44022 0.14881 -0.38690
 C346 C 0.44566 0.10898 -0.23584
 C347 C 0.44478 0.08298 -0.23690
 C348 C 0.45342 0.07090 -0.19107
 C349 C 0.47374 0.08922 -0.15206
 C350 C 0.48589 0.07768 -0.11670
 C351 C 0.47791 0.04770 -0.11978
 C352 C 0.45627 0.02914 -0.15636
 C353 C 0.44435 0.04069 -0.19183
 H354 H 0.41228 0.15932 -0.33808
 H355 H 0.41634 0.13786 -0.25295
 H356 H 0.47116 0.11163 -0.33370
 H357 H 0.46996 0.13493 -0.41678
 H358 H 0.44902 0.12098 -0.19767
 H359 H 0.43876 0.07037 -0.27483
 H360 H 0.48164 0.11273 -0.15108
 H361 H 0.50246 0.09248 -0.08880
 H362 H 0.44949 0.00590 -0.15956
 H363 H 0.42884 0.02617 -0.22167
 C364 C 0.68791 0.50861 -0.36969
 C365 C 0.66964 0.50236 -0.32416
 C366 C 0.64026 0.49081 -0.33136
 C367 C 0.62917 0.48356 -0.38476
 C368 C 0.64732 0.49014 -0.43017
 C369 C 0.67718 0.50368 -0.42380
 C370 C 0.62176 0.48714 -0.28302
 C371 C 0.59800 0.48886 -0.28776
 C372 C 0.57864 0.48620 -0.24185
 C373 C 0.55124 0.48046 -0.25543
 C374 C 0.53251 0.47967 -0.21493
 C375 C 0.54079 0.48488 -0.15968
 C376 C 0.56799 0.49002 -0.14544
 C377 C 0.58686 0.49075 -0.18625
 H378 H 0.71062 0.51913 -0.36211
 H379 H 0.67866 0.50766 -0.28333
 H380 H 0.60641 0.47276 -0.39189
 H381 H 0.63760 0.48386 -0.47029
 H382 H 0.62856 0.48423 -0.24309
 H383 H 0.59210 0.49267 -0.32793
 H384 H 0.54435 0.47685 -0.29783
 H385 H 0.51159 0.47533 -0.22717
 H386 H 0.57487 0.49412 -0.10306
 H387 H 0.60799 0.49577 -0.17420
 C388 C 0.85963 0.28040 -0.35883
 C389 C 0.87432 0.29770 -0.31325
 C390 C 0.89265 0.32826 -0.31887
 C391 C 0.89483 0.34149 -0.37001
 C392 C 0.88034 0.32444 -0.41527
 C393 C 0.86298 0.29342 -0.41118
 C394 C 0.90788 0.34650 -0.27063
 C395 C 0.93291 0.37185 -0.27603
 C396 C 0.94501 0.39435 -0.23235
 C397 C 0.95967 0.42417 -0.24801
 C398 C 0.96846 0.44635 -0.20852
 C399 C 0.96342 0.43912 -0.15249
 C400 C 0.95035 0.40933 -0.13651
 C401 C 0.94103 0.38705 -0.17617
 H402 H 0.84677 0.25673 -0.35314
 H403 H 0.87179 0.28713 -0.27378
 H404 H 0.90718 0.36525 -0.37506
 H405 H 0.88204 0.33610 -0.45296
 H406 H 0.89734 0.33977 -0.23088
 H407 H 0.94333 0.37805 -0.31601
 H408 H 0.96322 0.43030 -0.29109
 H409 H 0.97875 0.46916 -0.22190
 H410 H 0.94650 0.40320 -0.09346
 H411 H 0.93053 0.36424 -0.16286
 C412 C 0.60589 -0.10813 -0.39378
 C413 C 0.60632 -0.09136 -0.34846
 C414 C 0.59180 -0.10512 -0.29942
 C415 C 0.57785 -0.13617 -0.29599
 C416 C 0.57746 -0.15291 -0.34130
 C417 C 0.59078 -0.13915 -0.39119
 C418 C 0.58909 -0.08659 -0.25590
 C419 C 0.57937 -0.09590 -0.20453
 C420 C 0.57109 -0.07931 -0.16606
 C421 C 0.54948 -0.09524 -0.12683
 C422 C 0.53820 -0.08120 -0.09485
 C423 C 0.54849 -0.05083 -0.10115
 C424 C 0.57161 -0.03445 -0.13741
 C425 C 0.58285 -0.04851 -0.16947
 H426 H 0.61670 -0.09684 -0.43140
 H427 H 0.61726 -0.06752 -0.35239
 H428 H 0.56583 -0.14793 -0.25977
 H429 H 0.56528 -0.17678 -0.33822
 H430 H 0.59352 -0.06492 -0.26860
 H431 H 0.57470 -0.11757 -0.19144
 H432 H 0.54027 -0.11891 -0.12284
 H433 H 0.52057 -0.09439 -0.06694
 H434 H 0.58032 -0.01092 -0.14265
 H435 H 0.60031 -0.03522 -0.19754
 C436 C 0.31610 0.51436 -0.39357
 C437 C 0.33553 0.52009 -0.35156
 C438 C 0.32874 0.49994 -0.30826
 C439 C 0.30110 0.47467 -0.30619
 C440 C 0.28156 0.46903 -0.34827
 C441 C 0.28929 0.48831 -0.39324
 C442 C 0.35191 0.50535 -0.26943
 C443 C 0.34906 0.48773 -0.22711
 C444 C 0.37352 0.49233 -0.19319
 C445 C 0.36829 0.48211 -0.13875
 C446 C 0.39057 0.48496 -0.10612
 C447 C 0.41853 0.49767 -0.12758
 C448 C 0.42384 0.50771 -0.18218
 C449 C 0.40155 0.50507 -0.21477
 H450 H 0.32246 0.52975 -0.42757
 H451 H 0.35645 0.53983 -0.35418
 H452 H 0.29460 0.45849 -0.27377
 H453 H 0.26105 0.44873 -0.34728
 H454 H 0.37271 0.52461 -0.27729
 H455 H 0.32830 0.46945 -0.21579
 H456 H 0.34688 0.47193 -0.12137
 H457 H 0.38584 0.47694 -0.06416
 H458 H 0.44517 0.51742 -0.19978
 H459 H 0.40624 0.51229 -0.25714
 C460 C 1.13060 0.70540 -0.41112
 C461 C 1.11627 0.69012 -0.36344
 C462 C 1.13112 0.69378 -0.31458
 C463 C 1.16062 0.71425 -0.31362
 C464 C 1.17504 0.72980 -0.36124
 C465 C 1.16043 0.72524 -0.41146
 C466 C 1.11495 0.67561 -0.26621
 C467 C 1.12678 0.66844 -0.22531
 C468 C 1.10929 0.64633 -0.18251
 C469 C 1.11936 0.62878 -0.15980
 C470 C 1.10181 0.60509 -0.12504
 C471 C 1.07390 0.59868 -0.11211
 C472 C 1.06468 0.61767 -0.13138
 C473 C 1.08221 0.64133 -0.16600
 H474 H 1.11784 0.70198 -0.44723
 H475 H 1.09342 0.67489 -0.36511
 H476 H 1.17274 0.71825 -0.27636
 H477 H 1.19796 0.74417 -0.35879
 H478 H 1.09190 0.66538 -0.26747
 H479 H 1.14947 0.67627 -0.22645
 H480 H 1.14031 0.63245 -0.17116
 H481 H 1.10959 0.59097 -0.11052
 H482 H 1.04344 0.61358 -0.12142
 H483 H 1.07421 0.65520 -0.18070
 C484 C 0.80455 0.51127 -0.36270
 C485 C 0.81688 0.51002 -0.31333
 C486 C 0.84671 0.52491 -0.30763
 C487 C 0.86402 0.54133 -0.35264
 C488 C 0.85167 0.54249 -0.40212
 C489 C 0.82179 0.52725 -0.40795
 C490 C 0.85884 0.52077 -0.25613
 C491 C 0.88565 0.53934 -0.23935
 C492 C 0.89934 0.53363 -0.19191
 C493 C 0.92553 0.55686 -0.17292
 C494 C 0.94140 0.55174 -0.13414
 C495 C 0.93147 0.52317 -0.11345
 C496 C 0.90450 0.50023 -0.12985
 C497 C 0.88865 0.50531 -0.16883
 H498 H 0.78148 0.49887 -0.36605
 H499 H 0.80302 0.49693 -0.27971
 H500 H 0.88708 0.55246 -0.35069
 H501 H 0.86554 0.55507 -0.43611
 H502 H 0.84486 0.50164 -0.23141
 H503 H 0.89862 0.55973 -0.26174
 H504 H 0.93435 0.57888 -0.18981
 H505 H 0.96213 0.56991 -0.12246
 H506 H 0.89636 0.47791 -0.11500
 H507 H 0.86889 0.48657 -0.18266
 C508 C 0.43235 0.31082 -0.39188
 C509 C 0.43056 0.32430 -0.34337
 C510 C 0.42219 0.30862 -0.29353
 C511 C 0.41602 0.27926 -0.29327
 C512 C 0.41759 0.26559 -0.34179
 C513 C 0.42587 0.28105 -0.39245
 C514 C 0.42201 0.32297 -0.24072
 C515 C 0.41775 0.34607 -0.23762
 C516 C 0.42226 0.36423 -0.18731
 C517 C 0.41423 0.38588 -0.18830
 C518 C 0.42311 0.40743 -0.14712
 C519 C 0.44039 0.40788 -0.10409
 C520 C 0.44622 0.38470 -0.10034
 C521 C 0.43739 0.36317 -0.14150
 H522 H 0.44028 0.32463 -0.42805
 H523 H 0.43681 0.34742 -0.34484
 H524 H 0.40971 0.26669 -0.25533
 H525 H 0.41128 0.24250 -0.33920
 H526 H 0.42560 0.31403 -0.20374
 H527 H 0.41171 0.35297 -0.27450
 H528 H 0.40250 0.38723 -0.22283
 H529 H 0.41838 0.42507 -0.15145
 H530 H 0.45957 0.38445 -0.06778
 H531 H 0.44430 0.34719 -0.13876
 C532 C 0.71656 0.11639 -0.39234
 C533 C 0.70003 0.10132 -0.34628
 C534 C 0.69727 0.11678 -0.30146
 C535 C 0.71314 0.14794 -0.30233
 C536 C 0.72993 0.16303 -0.34841
 C537 C 0.73094 0.14736 -0.39462
 C538 C 0.67527 0.09939 -0.25864
 C539 C 0.67012 0.11064 -0.21303
 C540 C 0.64417 0.09328 -0.17813
 C541 C 0.64443 0.10054 -0.12230
 C542 C 0.61947 0.08595 -0.08989
 C543 C 0.59366 0.06425 -0.11317
 C544 C 0.59350 0.05684 -0.16880
 C545 C 0.61836 0.07115 -0.20090
 H546 H 0.71718 0.10377 -0.42723
 H547 H 0.68827 0.07738 -0.34685
 H548 H 0.71168 0.16089 -0.26911
 H549 H 0.74065 0.18694 -0.34932
 H550 H 0.66157 0.07603 -0.26686
 H551 H 0.68464 0.13324 -0.20105
 H552 H 0.66392 0.11773 -0.10389
 H553 H 0.62017 0.09214 -0.04712
 H554 H 0.57395 0.04023 -0.18793
 H555 H 0.61693 0.06555 -0.24408
 C556 C 1.14653 0.43000 -0.33232
 C557 C 1.13062 0.42918 -0.28586
 C558 C 1.10089 0.41659 -0.28905
 C559 C 1.08684 0.40082 -0.33637
 C560 C 1.10259 0.40155 -0.38264
 C561 C 1.13278 0.41846 -0.38293
 C562 C 1.08569 0.42348 -0.24600
 C563 C 1.06582 0.43046 -0.25926
 C564 C 1.05548 0.44487 -0.22043
 C565 C 1.04777 0.46484 -0.24099
 C566 C 1.04070 0.48118 -0.20510
 C567 C 1.04085 0.47744 -0.14807
 C568 C 1.04708 0.45627 -0.12774
 C569 C 1.05430 0.44014 -0.16351
 H570 H 1.16959 0.44285 -0.32966
 H571 H 1.14182 0.44085 -0.24909
 H572 H 1.06373 0.38940 -0.33872
 H573 H 1.09096 0.39004 -0.41913
 H574 H 1.09429 0.42769 -0.20485
 H575 H 1.05976 0.42931 -0.30190
 H576 H 1.04821 0.46857 -0.28485
 H577 H 1.03568 0.49709 -0.22189
 H578 H 1.04679 0.45243 -0.08396
 H579 H 1.05917 0.42419 -0.14642
 C580 C 0.55475 0.71840 -0.32399
 C581 C 0.55111 0.70422 -0.27349
 C582 C 0.56245 0.68577 -0.26497
 C583 C 0.57800 0.68213 -0.30791
 C584 C 0.58147 0.69606 -0.35852
 C585 C 0.56943 0.71403 -0.36817
 C586 C 0.55482 0.66808 -0.21368
 C587 C 0.56976 0.65605 -0.19433
 C588 C 0.55826 0.63252 -0.15184
 C589 C 0.56708 0.61154 -0.15329
 C590 C 0.55320 0.58607 -0.12094
 C591 C 0.53034 0.58122 -0.08607
 C592 C 0.52333 0.60352 -0.08072
 C593 C 0.53718 0.62898 -0.11321
 H594 H 0.54424 0.73112 -0.32896
 H595 H 0.53864 0.70703 -0.24137
 H596 H 0.58663 0.66763 -0.30363
 H597 H 0.59410 0.69290 -0.38972
 H598 H 0.53497 0.66326 -0.19374
 H599 H 0.58969 0.66108 -0.21426
 H600 H 0.58355 0.61393 -0.18207
 H601 H 0.55929 0.56942 -0.12563
 H602 H 0.50612 0.60063 -0.05351
 H603 H 0.53065 0.64529 -0.10911
 C604 C 0.33685 -0.14737 -0.41555
 C605 C 0.35507 -0.13914 -0.37070
 C606 C 0.34551 -0.13695 -0.31791
 C607 C 0.31673 -0.14470 -0.31038
 C608 C 0.29836 -0.15326 -0.35543
 C609 C 0.30851 -0.15396 -0.40854
 C610 C 0.36683 -0.12539 -0.27333
 C611 C 0.36419 -0.11339 -0.22630
 C612 C 0.38878 -0.09711 -0.18912
 C613 C 0.38446 -0.09740 -0.13199
 C614 C 0.40782 -0.08212 -0.09684
 C615 C 0.43574 -0.06602 -0.11861
 C616 C 0.43981 -0.06498 -0.17585
 C617 C 0.41666 -0.08022 -0.21065
 H618 H 0.34502 -0.14823 -0.45598
 H619 H 0.37703 -0.13357 -0.37767
 H620 H 0.30834 -0.14399 -0.27020
 H621 H 0.27648 -0.15841 -0.34913
 H622 H 0.38683 -0.12475 -0.28176
 H623 H 0.34432 -0.11440 -0.21532
 H624 H 0.36308 -0.10983 -0.11458
 H625 H 0.40410 -0.08303 -0.05284
 H626 H 0.46100 -0.05239 -0.19396
 H627 H 0.42067 -0.07842 -0.25458
 C628 C 0.57327 -0.16342 0.35973
 C629 C 0.56861 -0.15237 0.31106
 C630 C 0.55482 -0.13582 0.31265
 C631 C 0.54417 -0.13210 0.36324
 C632 C 0.54860 -0.14327 0.41163
 C633 C 0.56381 -0.15844 0.41070
 C634 C 0.55156 -0.12258 0.26161
 C635 C 0.55393 -0.09586 0.26247
 C636 C 0.54761 -0.08187 0.21607
 C637 C 0.54578 -0.05670 0.22810
 C638 C 0.53701 -0.04405 0.18845
 C639 C 0.53019 -0.05598 0.13532
 C640 C 0.53356 -0.08012 0.12175
 C641 C 0.54207 -0.09315 0.16196
 H642 H 0.58505 -0.17503 0.35769
 H643 H 0.57663 -0.15586 0.27241
 H644 H 0.53236 -0.12052 0.36549
 H645 H 0.54022 -0.13991 0.44992
 H646 H 0.54735 -0.13499 0.22382
 H647 H 0.55960 -0.08380 0.30100
 H648 H 0.55015 -0.04732 0.26911
 H649 H 0.53496 -0.02520 0.19983
 H650 H 0.52847 -0.08964 0.08091
 H651 H 0.54368 -0.11220 0.15058
 C652 C 0.30726 0.50194 0.39190
 C653 C 0.32454 0.50396 0.34737
 C654 C 0.31756 0.47917 0.31463
 C655 C 0.29189 0.45254 0.32545
 C656 C 0.27446 0.45055 0.37025
 C657 C 0.28261 0.47500 0.40484
 C658 C 0.33935 0.48142 0.27465
 C659 C 0.33457 0.46258 0.23322
 C660 C 0.35869 0.46580 0.19894
 C661 C 0.35613 0.46286 0.14164
 C662 C 0.37990 0.46884 0.10885
 C663 C 0.40640 0.47734 0.13313
 C664 C 0.40834 0.47848 0.19071
 C665 C 0.38476 0.47281 0.22324
 H666 H 0.31380 0.52114 0.41781
 H667 H 0.34412 0.52472 0.33988
 H668 H 0.28604 0.43284 0.30163
 H669 H 0.25563 0.42950 0.37987
 H670 H 0.36092 0.49981 0.28012
 H671 H 0.31305 0.44563 0.22283
 H672 H 0.33610 0.45712 0.12221
 H673 H 0.37773 0.46753 0.06455
 H674 H 0.42833 0.48458 0.21070
 H675 H 0.38704 0.47434 0.26752
 C676 C 1.16556 0.74153 0.34229
 C677 C 1.15331 0.72783 0.29241
 C678 C 1.14460 0.69799 0.28376
 C679 C 1.14812 0.68197 0.32613
 C680 C 1.15987 0.69552 0.37631
 C681 C 1.16859 0.72537 0.38488
 C682 C 1.12969 0.68335 0.23243
 C683 C 1.13155 0.66102 0.20975
 C684 C 1.11297 0.64242 0.16460
 C685 C 1.12174 0.62599 0.13263
 C686 C 1.10278 0.60427 0.09645
 C687 C 1.07446 0.59819 0.09239
 C688 C 1.06621 0.61585 0.12192
 C689 C 1.08526 0.63777 0.15762
 H690 H 1.17195 0.76454 0.34825
 H691 H 1.15047 0.74048 0.26062
 H692 H 1.14090 0.65871 0.32130
 H693 H 1.16203 0.68266 0.40861
 H694 H 1.11674 0.69111 0.21337
 H695 H 1.14672 0.65540 0.22605
 H696 H 1.14295 0.62910 0.13741
 H697 H 1.10978 0.59099 0.07442
 H698 H 1.04453 0.61170 0.11971
 H699 H 1.07749 0.64954 0.18230
 C700 C 0.48047 0.15272 0.41458
 C701 C 0.48671 0.14086 0.36868
 C702 C 0.47154 0.13584 0.31960
 C703 C 0.45059 0.14415 0.31677
 C704 C 0.44441 0.15623 0.36295
 C705 C 0.45881 0.15990 0.41268
 C706 C 0.47679 0.11956 0.27517
 C707 C 0.46711 0.11579 0.22343
 C708 C 0.47206 0.09691 0.18439
 C709 C 0.47885 0.10503 0.12883
 C710 C 0.48686 0.08895 0.09380
 C711 C 0.48799 0.06453 0.11412
 C712 C 0.47901 0.05521 0.16841
 C713 C 0.47097 0.07105 0.20299
 H714 H 0.49218 0.15572 0.45213
 H715 H 0.50301 0.13478 0.37211
 H716 H 0.43815 0.14032 0.28005
 H717 H 0.42750 0.16145 0.36058
 H718 H 0.48953 0.10979 0.28629
 H719 H 0.45657 0.12726 0.20879
 H720 H 0.47932 0.12459 0.11334
 H721 H 0.49357 0.09647 0.05196
 H722 H 0.47903 0.03605 0.18477
 H723 H 0.46458 0.06342 0.24486
 C724 C 0.68448 0.55717 0.38719
 C725 C 0.67129 0.56089 0.34147
 C726 C 0.66991 0.54666 0.29150
 C727 C 0.68403 0.53031 0.28723
 C728 C 0.69744 0.52677 0.33312
 C729 C 0.69689 0.53932 0.38399
 C730 C 0.65143 0.54760 0.24771
 C731 C 0.64267 0.53010 0.20307
 C732 C 0.61845 0.52626 0.16898
 C733 C 0.61639 0.51707 0.11394
 C734 C 0.59190 0.50969 0.08327
 C735 C 0.56878 0.51073 0.10768
 C736 C 0.57120 0.52072 0.16213
 C737 C 0.59567 0.52839 0.19242
 H738 H 0.68412 0.56746 0.42573
 H739 H 0.66092 0.57385 0.34603
 H740 H 0.68414 0.51944 0.24944
 H741 H 0.70691 0.51292 0.32962
 H742 H 0.64258 0.56177 0.25537
 H743 H 0.65193 0.51666 0.19251
 H744 H 0.63346 0.51490 0.09514
 H745 H 0.59049 0.50185 0.04146
 H746 H 0.55371 0.52173 0.18200
 H747 H 0.59591 0.53444 0.23510
 C748 C 0.84261 0.29114 0.35336
 C749 C 0.85447 0.31138 0.31009
 C750 C 0.88407 0.32640 0.29974
 C751 C 0.90145 0.31959 0.33174
 C752 C 0.88958 0.29949 0.37528
 C753 C 0.86021 0.28585 0.38759
 C754 C 0.89634 0.35128 0.26012
 C755 C 0.92156 0.36127 0.23431
 C756 C 0.93362 0.38735 0.19774
 C757 C 0.94717 0.38716 0.14841
 C758 C 0.95756 0.41108 0.11216
 C759 C 0.95529 0.43595 0.12543
 C760 C 0.94299 0.43676 0.17607
 C761 C 0.93202 0.41254 0.21175
 H762 H 0.82001 0.28136 0.36261
 H763 H 0.84064 0.31632 0.28625
 H764 H 0.92440 0.33112 0.32572
 H765 H 0.90357 0.29585 0.40137
 H766 H 0.88391 0.36176 0.25173
 H767 H 0.93300 0.34938 0.23767
 H768 H 0.94890 0.36811 0.13714
 H769 H 0.96714 0.41003 0.07348
 H770 H 0.94102 0.45569 0.18725
 H771 H 0.92227 0.41348 0.25029
   
