data_POSCAR
  _audit_creation_date              2014-09-24
  _audit_creation_method            'ToBaCCo'
  _symmetry_space_group_name_H-M    'P1'
  _symmetry_Int_Tables_number       1
  _symmetry_cell_setting            triclinic
  loop_
  _symmetry_equiv_pos_as_xyz
 x,y,z
_cell_length_a 41.7203
_cell_length_b 41.8145
_cell_length_c 16.4671
_cell_angle_alpha 89.891700
_cell_angle_beta 90.098300
_cell_angle_gamma 120.040700
loop_
  _atom_site_label
  _atom_site_type_symbol
  _atom_site_fract_x
  _atom_site_fract_y
  _atom_site_fract_z
C1 C 0.15288 0.44379 0.42567
 C2 C 0.13580 0.44160 0.50024
 C3 C 0.15298 0.44386 0.57487
 C4 C 0.18582 0.44173 0.57541
 C5 C 0.20276 0.44170 0.50054
 C6 C 0.18572 0.44166 0.42548
 C7 C 0.20075 0.43697 0.35332
 C8 C 0.23392 0.43670 0.35351
 C9 C 0.25342 0.44097 0.42586
 C10 C 0.23675 0.44143 0.50070
 C11 C 0.20091 0.43706 0.64773
 C12 C 0.23416 0.43690 0.64786
 C13 C 0.25378 0.44131 0.57565
 C14 C 0.28865 0.44311 0.57516
 C15 C 0.30330 0.44069 0.50041
 C16 C 0.28799 0.44246 0.42616
 H17 H 0.18616 0.43151 0.29633
 H18 H 0.24300 0.43117 0.29669
 H19 H 0.18630 0.43152 0.70462
 H20 H 0.24316 0.43126 0.70480
 H21 H 0.10916 0.44021 0.50020
 H22 H 0.32863 0.43946 0.49976
 C23 C 0.55685 -0.28966 0.42707
 C24 C 0.55861 -0.30511 0.50109
 C25 C 0.55640 -0.29055 0.57610
 C26 C 0.55854 -0.25562 0.57729
 C27 C 0.55849 -0.23842 0.50273
 C28 C 0.55860 -0.25503 0.42745
 C29 C 0.56277 -0.23542 0.35541
 C30 C 0.56292 -0.20211 0.35603
 C31 C 0.55885 -0.18708 0.42872
 C32 C 0.55860 -0.20433 0.50337
 C33 C 0.56315 -0.23619 0.64988
 C34 C 0.56320 -0.20289 0.65050
 C35 C 0.55870 -0.18751 0.57856
 C36 C 0.55679 -0.15457 0.57853
 C37 C 0.55910 -0.13732 0.50396
 C38 C 0.55726 -0.15414 0.42950
 H39 H 0.56790 -0.24452 0.29821
 H40 H 0.56813 -0.18747 0.29921
 H41 H 0.56871 -0.24543 0.70659
 H42 H 0.56885 -0.18847 0.70759
 H43 H 0.55967 -0.33047 0.50003
 H44 H 0.56029 -0.11084 0.50369
 C45 C 1.15400 0.71233 0.42582
 C46 C 1.13691 0.69699 0.49998
 C47 C 1.15392 0.71170 0.57482
 C48 C 1.18688 0.74663 0.57544
 C49 C 1.20402 0.76367 0.50059
 C50 C 1.18698 0.74694 0.42565
 C51 C 1.20218 0.76643 0.35335
 C52 C 1.23554 0.79966 0.35334
 C53 C 1.25521 0.81475 0.42565
 C54 C 1.23820 0.79770 0.50061
 C55 C 1.20195 0.76626 0.64769
 C56 C 1.23528 0.79955 0.64774
 C57 C 1.25508 0.81466 0.57557
 C58 C 1.29001 0.84752 0.57525
 C59 C 1.30493 0.86471 0.50070
 C60 C 1.29013 0.84765 0.42605
 H61 H 1.18758 0.75729 0.29641
 H62 H 1.24462 0.81423 0.29637
 H63 H 1.18726 0.75722 0.70450
 H64 H 1.24424 0.81417 0.70462
 H65 H 1.11043 0.67161 0.49920
 H66 H 1.33016 0.89135 0.50082
 C67 C 0.84609 0.55741 0.42632
 C68 C 0.86334 0.55930 0.50039
 C69 C 0.84642 0.55695 0.57535
 C70 C 0.81342 0.55881 0.57641
 C71 C 0.79610 0.55862 0.50179
 C72 C 0.81297 0.55886 0.42657
 C73 C 0.79742 0.56286 0.35445
 C74 C 0.76405 0.56273 0.35495
 C75 C 0.74483 0.55856 0.42761
 C76 C 0.76190 0.55844 0.50232
 C77 C 0.79842 0.56328 0.64892
 C78 C 0.76496 0.56306 0.64943
 C79 C 0.74503 0.55842 0.57745
 C80 C 0.70999 0.55627 0.57732
 C81 C 0.69499 0.55846 0.50270
 C82 C 0.71011 0.55672 0.42830
 H83 H 0.81172 0.56806 0.29725
 H84 H 0.75454 0.56782 0.29807
 H85 H 0.81323 0.56894 0.70564
 H86 H 0.75605 0.56859 0.70646
 H87 H 0.88992 0.56057 0.49942
 H88 H 0.66956 0.55949 0.50234
 C89 C 0.44263 0.28796 0.42653
 C90 C 0.44090 0.30304 0.50097
 C91 C 0.44269 0.28782 0.57539
 C92 C 0.44098 0.25319 0.57588
 C93 C 0.44112 0.23638 0.50104
 C94 C 0.44093 0.25332 0.42613
 C95 C 0.43684 0.23405 0.35373
 C96 C 0.43683 0.20080 0.35374
 C97 C 0.44100 0.18550 0.42613
 C98 C 0.44122 0.20241 0.50108
 C99 C 0.43690 0.23379 0.64826
 C100 C 0.43699 0.20056 0.64833
 C101 C 0.44132 0.18538 0.57601
 C102 C 0.44335 0.15251 0.57540
 C103 C 0.44099 0.13555 0.50057
 C104 C 0.44271 0.15262 0.42635
 H105 H 0.43170 0.24339 0.29672
 H106 H 0.43163 0.18640 0.29672
 H107 H 0.43166 0.24299 0.70521
 H108 H 0.43167 0.18606 0.70535
 H109 H 0.44011 0.32853 0.50102
 H110 H 0.43984 0.10909 0.49982
 C111 C 0.71201 0.15454 0.57521
 C112 C 0.69686 0.13763 0.50074
 C113 C 0.71205 0.15461 0.42635
 C114 C 0.74675 0.18761 0.42611
 C115 C 0.76362 0.20464 0.50109
 C116 C 0.74670 0.18753 0.57586
 C117 C 0.76604 0.20278 0.64834
 C118 C 0.79932 0.23616 0.64856
 C119 C 0.81459 0.25581 0.57630
 C120 C 0.79764 0.23879 0.50129
 C121 C 0.76615 0.20297 0.35381
 C122 C 0.79945 0.23629 0.35397
 C123 C 0.81467 0.25564 0.42642
 C124 C 0.84759 0.29031 0.42679
 C125 C 0.86459 0.30556 0.50108
 C126 C 0.84750 0.29078 0.57583
 H127 H 0.75675 0.18823 0.70526
 H128 H 0.81378 0.24527 0.70564
 H129 H 0.75688 0.18858 0.29677
 H130 H 0.81395 0.24564 0.29701
 H131 H 0.67132 0.11131 0.50066
 H132 H 0.89108 0.33094 0.50047
 N133 N 1.03972 0.48652 -0.14381
 N134 N 1.06270 0.49123 -0.20333
 N135 N 0.96205 0.42455 -0.08917
 N136 N 0.93910 0.38989 -0.11060
 N137 N 0.96195 0.44740 -0.14393
 N138 N 0.93893 0.42901 -0.20343
 N139 N 1.03984 0.46369 -0.08904
 N140 N 1.06290 0.45212 -0.11049
 C141 C 1.07743 0.47025 -0.18112
 C142 C 0.92440 0.39332 -0.18126
 N143 N 0.96214 0.44755 0.14139
 N144 N 0.93925 0.42923 0.20105
 N145 N 1.03994 0.46370 0.08702
 N146 N 1.06279 0.45192 0.10920
 N147 N 1.03987 0.48660 0.14146
 N148 N 1.06266 0.49113 0.20144
 N149 N 0.96218 0.42467 0.08687
 N150 N 0.93932 0.39003 0.10863
 Mn151 Mn 1.00100 0.44382 -0.00109
 C152 C 0.92476 0.39356 0.17920
 C153 C 1.07727 0.46998 0.17992
 N154 N 0.96168 0.51593 -0.14415
 N155 N 0.93848 0.51101 -0.20351
 N156 N 1.03937 0.57794 -0.08981
 N157 N 1.06229 0.61259 -0.11149
 N158 N 1.03944 0.55507 -0.14432
 N159 N 1.06241 0.57343 -0.20390
 N160 N 0.96157 0.53877 -0.08959
 N161 N 0.93830 0.55012 -0.11101
 Mn162 Mn 1.00070 0.50123 -0.14435
 C163 C 0.92364 0.53187 -0.18142
 C164 C 1.07693 0.60912 -0.18204
 N165 N 1.03955 0.55509 0.14096
 N166 N 1.06247 0.57345 0.20056
 N167 N 0.96167 0.53889 0.08647
 N168 N 0.93871 0.55055 0.10824
 N169 N 0.96181 0.51604 0.14116
 N170 N 0.93895 0.51141 0.20092
 N171 N 1.03942 0.57794 0.08624
 N172 N 1.06225 0.61259 0.10782
 Mn173 Mn 1.00084 0.50132 0.14150
 Mn174 Mn 1.00050 0.55872 -0.00169
 Cl175 Cl 1.00076 0.50127 -0.00141
 C176 C 1.07689 0.60912 0.17848
 C177 C 0.92427 0.53249 0.17902
 N178 N 0.55278 0.51429 0.14233
 N179 N 0.57101 0.50967 0.20220
 N180 N 0.53711 0.57607 0.08716
 N181 N 0.54906 0.61070 0.10896
 N182 N 0.51406 0.55316 0.14171
 N183 N 0.50957 0.57147 0.20136
 N184 N 0.57583 0.53716 0.08773
 N185 N 0.61049 0.54884 0.10963
 C186 C 0.60680 0.53075 0.18038
 C187 C 0.53095 0.60717 0.17956
 N188 N 0.51432 0.55306 -0.14364
 N189 N 0.50957 0.57135 -0.20314
 N190 N 0.57606 0.53716 -0.08829
 N191 N 0.61078 0.54882 -0.10956
 N192 N 0.55313 0.51424 -0.14295
 N193 N 0.57153 0.50954 -0.20221
 N194 N 0.53720 0.57597 -0.08889
 N195 N 0.54876 0.61059 -0.11029
 Mn196 Mn 0.55688 0.55692 -0.00058
 C197 C 0.53059 0.60703 -0.18092
 C198 C 0.60730 0.53066 -0.18001
 N199 N 0.44519 0.48451 0.14145
 N200 N 0.42687 0.48916 0.20088
 N201 N 0.46096 0.42270 0.08769
 N202 N 0.44924 0.38807 0.10944
 N203 N 0.48390 0.44562 0.14234
 N204 N 0.48853 0.42735 0.20208
 N205 N 0.42222 0.46159 0.08682
 N206 N 0.38752 0.44988 0.10832
 Mn207 Mn 0.49898 0.49939 0.14222
 C208 C 0.39111 0.46802 0.17881
 C209 C 0.46736 0.39164 0.18020
 N210 N 0.48417 0.44557 -0.14296
 N211 N 0.48901 0.42723 -0.20199
 N212 N 0.42233 0.46155 -0.08926
 N213 N 0.38765 0.45001 -0.11097
 N214 N 0.44536 0.48439 -0.14391
 N215 N 0.42710 0.48913 -0.20361
 N216 N 0.46114 0.42270 -0.08833
 N217 N 0.44956 0.38807 -0.10937
 Mn218 Mn 0.49925 0.49931 -0.14368
 Mn219 Mn 0.44132 0.44180 -0.00078
 Cl220 Cl 0.49911 0.49936 -0.00071
 C221 C 0.46786 0.39157 -0.17964
 C222 C 0.39129 0.46813 -0.18170
 N223 N 0.42327 -0.03953 0.08815
 N224 N 0.38857 -0.06231 0.11015
 N225 N 0.48524 0.03816 0.14192
 N226 N 0.48988 0.06111 0.20131
 N227 N 0.46223 0.03807 0.08720
 N228 N 0.45046 0.06094 0.10857
 N229 N 0.44628 -0.03939 0.14291
 N230 N 0.42799 -0.06207 0.20294
 C231 C 0.39218 -0.07666 0.18113
 C232 C 0.46865 0.07558 0.17910
 N233 N 0.57700 0.03810 0.08811
 N234 N 0.61171 0.06104 0.10973
 N235 N 0.51510 -0.03935 0.14327
 N236 N 0.51046 -0.06215 0.20318
 N237 N 0.53800 -0.03950 0.08878
 N238 N 0.54967 -0.06241 0.11079
 N239 N 0.55405 0.03820 0.14253
 N240 N 0.57241 0.06121 0.20196
 Mn241 Mn 0.50017 -0.00059 0.14292
 C242 C 0.60819 0.07572 0.18013
 C243 C 0.53155 -0.07680 0.18149
 N244 N 0.46216 0.03783 -0.08884
 N245 N 0.45056 0.06085 -0.11066
 N246 N 0.44618 -0.03986 -0.14243
 N247 N 0.42782 -0.06281 -0.20190
 N248 N 0.42324 -0.03979 -0.08795
 N249 N 0.38853 -0.06267 -0.10959
 N250 N 0.48506 0.03772 -0.14337
 N251 N 0.48977 0.06065 -0.20311
 Mn252 Mn 0.44239 -0.00086 -0.00037
 C253 C 0.46871 0.07535 -0.18132
 C254 C 0.39206 -0.07732 -0.17999
 N255 N 0.53797 -0.03982 -0.08727
 N256 N 0.54962 -0.06283 -0.10843
 N257 N 0.55390 0.03769 -0.14275
 N258 N 0.57223 0.06079 -0.20211
 N259 N 0.57686 0.03779 -0.08790
 N260 N 0.61155 0.06095 -0.10909
 N261 N 0.51499 -0.03991 -0.14206
 N262 N 0.51025 -0.06300 -0.20127
 Mn263 Mn 0.55779 -0.00086 0.00042
 Mn264 Mn 0.50004 -0.00109 -0.14296
 Cl265 Cl 0.50009 -0.00085 -0.00001
 C266 C 0.53141 -0.07756 -0.17893
 C267 C 0.60798 0.07552 -0.17972
 C268 C 1.13485 0.49286 0.27973
 C269 C 1.11837 0.47477 0.36222
 C270 C 1.13682 0.45067 0.35468
 C271 C 1.15375 0.46921 0.27222
 C272 C 1.10217 0.42023 0.31173
 C273 C 1.08366 0.44417 0.31957
 C274 C 1.10028 0.46228 0.23737
 C275 C 1.11870 0.43854 0.22834
 H276 H 1.14812 0.52284 0.26617
 H277 H 1.11817 0.49052 0.41626
 H278 H 1.18276 0.48101 0.25118
 H279 H 1.08866 0.39021 0.32497
 H280 H 1.05466 0.43397 0.33902
 H281 H 1.11870 0.42376 0.17243
 C282 C 0.56330 0.68001 0.22700
 C283 C 0.53264 0.68523 0.26804
 C284 C 0.54999 0.68655 0.35195
 C285 C 0.58044 0.68148 0.31174
 C286 C 0.52500 0.64414 0.35976
 C287 C 0.50799 0.64278 0.27591
 C288 C 0.53859 0.63796 0.23632
 C289 C 0.55558 0.63917 0.31990
 H290 H 0.57897 0.69452 0.17157
 H291 H 0.52174 0.70289 0.24494
 H292 H 0.61039 0.69752 0.32664
 H293 H 0.50853 0.62866 0.41364
 H294 H 0.47807 0.62656 0.26081
 H295 H 0.56492 0.61995 0.34123
 C296 C 0.35978 -0.08314 0.32044
 C297 C 0.31724 -0.10172 0.31215
 C298 C 0.31313 -0.13626 0.35524
 C299 C 0.35576 -0.11774 0.36324
 C300 C 0.31488 -0.15309 0.27290
 C301 C 0.31917 -0.11815 0.22888
 C302 C 0.36141 -0.09966 0.23834
 C303 C 0.35751 -0.13413 0.28086
 H304 H 0.37852 -0.05419 0.33997
 H305 H 0.30060 -0.08832 0.32510
 H306 H 0.37173 -0.11751 0.41748
 H307 H 0.29776 -0.18204 0.25177
 H308 H 0.30437 -0.11818 0.17278
 H309 H 0.37436 -0.14729 0.26759
 C310 C 0.91657 0.55690 0.31920
 C311 C 0.89867 0.58136 0.31089
 C312 C 0.86325 0.55077 0.35128
 C313 C 0.88112 0.52618 0.35925
 C314 C 0.84730 0.53334 0.26748
 C315 C 0.88309 0.56415 0.22625
 C316 C 0.90086 0.53984 0.23573
 C317 C 0.86556 0.50910 0.27551
 H318 H 0.94524 0.56650 0.34049
 H319 H 0.91232 0.61124 0.32559
 H320 H 0.88033 0.50984 0.41324
 H321 H 0.81865 0.52221 0.24445
 H322 H 0.88406 0.57970 0.17072
 H323 H 0.85211 0.47926 0.26060
 C324 C 0.44301 0.35913 0.32036
 C325 C 0.41854 0.31679 0.31178
 C326 C 0.44926 0.31202 0.35184
 C327 C 0.47386 0.35445 0.36009
 C328 C 0.46669 0.31382 0.26790
 C329 C 0.43575 0.31875 0.22701
 C330 C 0.46007 0.36081 0.23675
 C331 C 0.49094 0.35629 0.27619
 H332 H 0.43336 0.37802 0.34194
 H333 H 0.38861 0.30042 0.32658
 H334 H 0.49026 0.36988 0.41408
 H335 H 0.47786 0.29647 0.24463
 H336 H 0.42015 0.30430 0.17146
 H337 H 0.52084 0.37284 0.26120
 C338 C 0.64378 0.13469 0.27555
 C339 C 0.64549 0.11949 0.35968
 C340 C 0.68801 0.13724 0.35158
 C341 C 0.68634 0.15283 0.26739
 C342 C 0.68306 0.10172 0.31200
 C343 C 0.64065 0.08394 0.32044
 C344 C 0.63911 0.09928 0.23659
 C345 C 0.68125 0.11694 0.22699
 H346 H 0.62733 0.14807 0.26019
 H347 H 0.63005 0.12053 0.41354
 H348 H 0.70382 0.18131 0.24381
 H349 H 0.69935 0.08813 0.32716
 H350 H 0.62160 0.05543 0.34227
 H351 H 0.69572 0.11572 0.17160
 C352 C 0.44367 0.08293 -0.32106
 C353 C 0.41950 0.10117 -0.31257
 C354 C 0.45014 0.13620 -0.35398
 C355 C 0.47447 0.11800 -0.36215
 C356 C 0.46824 0.15238 -0.27075
 C357 C 0.43737 0.11695 -0.22845
 C358 C 0.46135 0.09879 -0.23811
 C359 C 0.49213 0.13373 -0.27890
 H360 H 0.43367 0.05419 -0.34176
 H361 H 0.38947 0.08770 -0.32646
 H362 H 0.49057 0.11839 -0.41616
 H363 H 0.47991 0.18110 -0.24834
 H364 H 0.42222 0.11636 -0.17264
 H365 H 0.52211 0.14694 -0.26467
 C366 C 0.68042 0.56281 -0.22701
 C367 C 0.68573 0.53219 -0.26785
 C368 C 0.68706 0.54948 -0.35185
 C369 C 0.68194 0.57987 -0.31186
 C370 C 0.64452 0.52444 -0.35968
 C371 C 0.64315 0.50758 -0.27570
 C372 C 0.63828 0.53812 -0.23638
 C373 C 0.63952 0.55500 -0.32007
 H374 H 0.69494 0.57849 -0.17161
 H375 H 0.70329 0.52121 -0.24448
 H376 H 0.69796 0.60976 -0.32677
 H377 H 0.62892 0.50787 -0.41334
 H378 H 0.62691 0.47774 -0.26045
 H379 H 0.62026 0.56428 -0.34160
 C380 C 0.88310 0.32036 -0.22804
 C381 C 0.84745 0.31543 -0.27025
 C382 C 0.86371 0.31380 -0.35352
 C383 C 0.89895 0.31855 -0.31220
 C384 C 0.88165 0.35628 -0.36178
 C385 C 0.86586 0.35793 -0.27850
 C386 C 0.90101 0.36244 -0.23781
 C387 C 0.91694 0.36090 -0.32080
 H388 H 0.88384 0.30583 -0.17221
 H389 H 0.81871 0.29816 -0.24769
 H390 H 0.91264 0.30227 -0.32611
 H391 H 0.88111 0.37193 -0.41583
 H392 H 0.85242 0.37442 -0.26426
 H393 H 0.94569 0.37987 -0.34161
 C394 C 0.55574 -0.08543 -0.31886
 C395 C 0.58059 -0.10294 -0.31056
 C396 C 0.55007 -0.13845 -0.35063
 C397 C 0.52505 -0.12099 -0.35856
 C398 C 0.53275 -0.15439 -0.26668
 C399 C 0.56350 -0.11846 -0.22575
 C400 C 0.53883 -0.10104 -0.23522
 C401 C 0.50816 -0.13646 -0.27463
 H402 H 0.56510 -0.05691 -0.34038
 H403 H 0.61054 -0.08906 -0.32537
 H404 H 0.50845 -0.12198 -0.41229
 H405 H 0.52167 -0.18290 -0.24330
 H406 H 0.57921 -0.11728 -0.17030
 H407 H 0.47825 -0.15008 -0.25948
 C408 C 0.31822 0.43680 -0.22878
 C409 C 0.31353 0.46762 -0.27080
 C410 C 0.31173 0.44978 -0.35418
 C411 C 0.31624 0.41918 -0.31304
 C412 C 0.35432 0.47417 -0.36231
 C413 C 0.35614 0.49158 -0.27892
 C414 C 0.36041 0.46083 -0.23840
 C415 C 0.35872 0.44341 -0.32149
 H416 H 0.30362 0.42153 -0.17304
 H417 H 0.29637 0.47916 -0.24820
 H418 H 0.29975 0.38925 -0.32711
 H419 H 0.37004 0.49035 -0.41629
 H420 H 0.37285 0.52147 -0.26451
 H421 H 0.37757 0.43355 -0.34236
 C422 C 1.08440 0.64152 -0.32193
 C423 C 1.10237 0.68387 -0.31357
 C424 C 1.13764 0.68864 -0.35454
 C425 C 1.11972 0.64618 -0.36257
 C426 C 1.15387 0.68702 -0.27107
 C427 C 1.11819 0.68207 -0.22922
 C428 C 1.10032 0.63999 -0.23874
 C429 C 1.13549 0.64452 -0.27909
 H430 H 1.05567 0.62253 -0.34285
 H431 H 1.08867 0.70014 -0.32781
 H432 H 1.12030 0.63055 -0.41647
 H433 H 1.18260 0.70433 -0.24841
 H434 H 1.11742 0.69658 -0.17354
 H435 H 1.14894 0.62805 -0.26453
 C436 C 0.88159 0.56272 -0.22838
 C437 C 0.89761 0.58090 -0.31213
 C438 C 0.86282 0.55025 -0.35420
 C439 C 0.84638 0.53184 -0.27137
 C440 C 0.88142 0.52632 -0.36240
 C441 C 0.91627 0.55714 -0.32063
 C442 C 0.90015 0.53916 -0.23807
 C443 C 0.86545 0.50836 -0.27953
 H444 H 0.88182 0.57757 -0.17239
 H445 H 0.91089 0.61088 -0.32566
 H446 H 0.81747 0.51992 -0.24957
 H447 H 0.88141 0.51051 -0.41652
 H448 H 0.94520 0.56744 -0.34083
 H449 H 0.85242 0.47842 -0.26567
 C450 C 0.44374 0.35922 -0.31954
 C451 C 0.47445 0.35419 -0.35847
 C452 C 0.44948 0.31181 -0.35007
 C453 C 0.41891 0.31694 -0.31078
 C454 C 0.46665 0.31339 -0.26580
 C455 C 0.49127 0.35583 -0.27425
 C456 C 0.46055 0.36070 -0.23562
 C457 C 0.43586 0.31869 -0.22569
 H458 H 0.43441 0.37834 -0.34162
 H459 H 0.49103 0.36949 -0.41240
 H460 H 0.38900 0.30081 -0.32600
 H461 H 0.47753 0.29584 -0.24196
 H462 H 0.52116 0.37214 -0.25881
 H463 H 0.42008 0.30436 -0.17023
 C464 C 0.64359 0.13458 -0.27497
 C465 C 0.68614 0.15273 -0.26635
 C466 C 0.68789 0.13718 -0.35033
 C467 C 0.64540 0.11944 -0.35892
 C468 C 0.68293 0.10165 -0.31053
 C469 C 0.68102 0.11682 -0.22570
 C470 C 0.63890 0.09917 -0.23580
 C471 C 0.64054 0.08387 -0.31945
 H472 H 0.62710 0.14794 -0.25993
 H473 H 0.70361 0.18120 -0.24284
 H474 H 0.63003 0.12051 -0.41301
 H475 H 0.69925 0.08809 -0.32535
 H476 H 0.69539 0.11556 -0.17006
 H477 H 0.62151 0.05537 -0.34126
 C478 C 1.11869 0.43865 -0.22835
 C479 C 1.10224 0.42048 -0.31184
 C480 C 1.13705 0.45085 -0.35444
 C481 C 1.15391 0.46924 -0.27188
 C482 C 1.11884 0.47516 -0.36252
 C483 C 1.08397 0.44462 -0.32023
 C484 C 1.10052 0.46260 -0.23793
 C485 C 1.13524 0.49311 -0.27992
 H486 H 1.11849 0.42378 -0.17229
 H487 H 1.08862 0.39047 -0.32509
 H488 H 1.18286 0.48089 -0.25044
 H489 H 1.11885 0.49101 -0.41672
 H490 H 1.05503 0.43461 -0.34007
 H491 H 1.14861 0.52308 -0.26634
 C492 C 0.55609 0.63967 -0.31998
 C493 C 0.52535 0.64381 -0.36194
 C494 C 0.54952 0.68631 -0.35354
 C495 C 0.58010 0.68206 -0.31129
 C496 C 0.53108 0.68435 -0.27084
 C497 C 0.50735 0.64183 -0.27918
 C498 C 0.53808 0.63782 -0.23754
 C499 C 0.56189 0.67992 -0.22766
 H500 H 0.56628 0.62100 -0.34013
 H501 H 0.50947 0.62806 -0.41617
 H502 H 0.61016 0.69870 -0.32462
 H503 H 0.51928 0.70139 -0.24911
 H504 H 0.47733 0.62499 -0.26553
 H505 H 0.57678 0.69448 -0.17156
 C506 C 0.35709 -0.13486 -0.27902
 C507 C 0.31448 -0.15350 -0.27131
 C508 C 0.31294 -0.13660 -0.35389
 C509 C 0.35554 -0.11842 -0.36164
 C510 C 0.31734 -0.10191 -0.31127
 C511 C 0.31906 -0.11840 -0.22776
 C512 C 0.36126 -0.10026 -0.23700
 C513 C 0.35983 -0.08368 -0.31932
 H514 H 0.37373 -0.14822 -0.26531
 H515 H 0.29717 -0.18240 -0.24999
 H516 H 0.37142 -0.11838 -0.41573
 H517 H 0.30090 -0.08831 -0.32466
 H518 H 0.30434 -0.11825 -0.17181
 H519 H 0.37878 -0.05478 -0.33900
 C520 C 0.56256 -0.11856 0.22879
 C521 C 0.58105 -0.10238 0.31218
 C522 C 0.55038 -0.13692 0.35490
 C523 C 0.53169 -0.15348 0.27242
 C524 C 0.52661 -0.11819 0.36323
 C525 C 0.55740 -0.08359 0.32077
 C526 C 0.53908 -0.09991 0.23858
 C527 C 0.50828 -0.13435 0.28074
 H528 H 0.57723 -0.11855 0.17262
 H529 H 0.61111 -0.08923 0.32536
 H530 H 0.51975 -0.18240 0.25119
 H531 H 0.51105 -0.11801 0.41771
 H532 H 0.56788 -0.05465 0.34054
 H533 H 0.47824 -0.14731 0.26738
 C534 C 0.35605 0.49112 0.27601
 C535 C 0.31346 0.46706 0.26797
 C536 C 0.31187 0.44922 0.35134
 C537 C 0.35441 0.47364 0.35934
 C538 C 0.31640 0.41871 0.31020
 C539 C 0.31816 0.43633 0.22596
 C540 C 0.36033 0.46047 0.23546
 C541 C 0.35885 0.44300 0.31851
 H542 H 0.37265 0.52103 0.26153
 H543 H 0.29602 0.47837 0.24564
 H544 H 0.37006 0.48971 0.41347
 H545 H 0.29995 0.38878 0.32449
 H546 H 0.30352 0.42110 0.17023
 H547 H 0.37781 0.43319 0.33923
 C548 C 1.11768 0.68193 0.22554
 C549 C 1.10173 0.68355 0.30966
 C550 C 1.13701 0.68843 0.35100
 C551 C 1.15334 0.68697 0.26775
 C552 C 1.11923 0.64602 0.35915
 C553 C 1.08391 0.64123 0.31812
 C554 C 1.09999 0.63989 0.23518
 C555 C 1.13516 0.64452 0.27593
 H556 H 1.11688 0.69643 0.16971
 H557 H 1.08797 0.69975 0.32376
 H558 H 1.18208 0.70456 0.24548
 H559 H 1.11986 0.63052 0.41338
 H560 H 1.05517 0.62213 0.33876
 H561 H 1.14873 0.62816 0.26163
 C562 C 0.44344 0.08259 0.31857
 C563 C 0.47410 0.11769 0.35970
 C564 C 0.44960 0.13566 0.35153
 C565 C 0.41907 0.10061 0.31008
 C566 C 0.46755 0.15201 0.26833
 C567 C 0.49169 0.13363 0.27653
 C568 C 0.46102 0.09869 0.23569
 C569 C 0.43681 0.11657 0.22601
 H570 H 0.43362 0.05385 0.33917
 H571 H 0.49017 0.11813 0.41392
 H572 H 0.38906 0.08702 0.32411
 H573 H 0.47889 0.18074 0.24613
 H574 H 0.52167 0.14703 0.26231
 H575 H 0.42158 0.11595 0.17016
 C576 C 0.67972 0.56197 0.22758
 C577 C 0.68186 0.58028 0.31098
 C578 C 0.68599 0.54977 0.35368
 C579 C 0.68400 0.53125 0.27118
 C580 C 0.64342 0.52584 0.36203
 C581 C 0.63937 0.55648 0.31962
 C582 C 0.63753 0.53833 0.23741
 C583 C 0.64141 0.50769 0.27953
 H584 H 0.69437 0.57672 0.17141
 H585 H 0.69865 0.61028 0.32417
 H586 H 0.70118 0.51951 0.24991
 H587 H 0.62770 0.51021 0.41652
 H588 H 0.62072 0.56676 0.33943
 H589 H 0.62447 0.47771 0.26615
 C590 C 0.91783 0.36125 0.31882
 C591 C 0.88273 0.35673 0.36015
 C592 C 0.86463 0.31429 0.35201
 C593 C 0.89969 0.31890 0.31039
 C594 C 0.84819 0.31597 0.26892
 C595 C 0.86669 0.35845 0.27707
 C596 C 0.90165 0.36281 0.23603
 C597 C 0.88363 0.32075 0.22641
 H598 H 0.94667 0.38016 0.33926
 H599 H 0.88236 0.37228 0.41438
 H600 H 0.91327 0.30250 0.32432
 H601 H 0.81936 0.29857 0.24689
 H602 H 0.85330 0.37501 0.26294
 H603 H 0.88417 0.30622 0.17054
   
