data_POSCAR
  _audit_creation_date              2014-09-24
  _audit_creation_method            'ToBaCCo'
  _symmetry_space_group_name_H-M    'P1'
  _symmetry_Int_Tables_number       1
  _symmetry_cell_setting            triclinic
  loop_
  _symmetry_equiv_pos_as_xyz
 x,y,z
_cell_length_a 57.6520
_cell_length_b 57.5988
_cell_length_c 20.0607
_cell_angle_alpha 89.959600
_cell_angle_beta 90.015500
_cell_angle_gamma 119.976300
loop_
  _atom_site_label
  _atom_site_type_symbol
  _atom_site_fract_x
  _atom_site_fract_y
  _atom_site_fract_z
O1 O 0.21716 0.47872 0.43581
 O2 O 0.26317 0.47952 0.56440
 O3 O 0.21743 0.47863 0.56538
 O4 O 0.26289 0.47965 0.43526
 O5 O 0.28440 0.52397 0.43539
 O6 O 0.23888 0.52294 0.56567
 O7 O 0.28468 0.52383 0.56468
 O8 O 0.23861 0.52304 0.43595
 Cu9 Cu 0.23797 0.47466 0.50021
 Cu10 Cu 0.26377 0.52792 0.50046
 C11 C 0.22002 0.50074 0.41442
 C12 C 0.28188 0.50179 0.58570
 C13 C 0.22036 0.50060 0.58718
 C14 C 0.28149 0.50196 0.41388
 O15 O 0.51924 -0.26380 0.43463
 O16 O 0.51943 -0.21810 0.56322
 O17 O 0.51928 -0.26353 0.56385
 O18 O 0.51942 -0.21834 0.43396
 O19 O 0.47514 -0.24034 0.43397
 O20 O 0.47500 -0.28560 0.56400
 O21 O 0.47515 -0.24010 0.56336
 O22 O 0.47496 -0.28586 0.43463
 Cu23 Cu 0.52381 -0.23872 0.49890
 Cu24 Cu 0.47059 -0.26520 0.49899
 C25 C 0.49708 -0.28272 0.41341
 C26 C 0.49734 -0.22121 0.58452
 C27 C 0.49714 -0.28236 0.58536
 C28 C 0.49732 -0.22153 0.41255
 O29 O 1.26235 0.78280 0.43657
 O30 O 1.21636 0.73762 0.56528
 O31 O 1.26205 0.78253 0.56563
 O32 O 1.21665 0.73794 0.43565
 O33 O 1.23816 0.71513 0.43563
 O34 O 1.28364 0.75979 0.56577
 O35 O 1.23787 0.71483 0.56542
 O36 O 1.28392 0.76006 0.43656
 Cu37 Cu 1.23714 0.76247 0.50078
 Cu38 Cu 1.26302 0.73510 0.50086
 C39 C 1.28108 0.77926 0.41540
 C40 C 1.21924 0.71850 0.58684
 C41 C 1.28071 0.77891 0.58702
 C42 C 1.21964 0.71892 0.41394
 O43 O 0.78273 0.52042 0.43592
 O44 O 0.73749 0.52121 0.56441
 O45 O 0.78244 0.52049 0.56501
 O46 O 0.73788 0.52124 0.43481
 O47 O 0.71516 0.47692 0.43484
 O48 O 0.75980 0.47616 0.56520
 O49 O 0.71479 0.47690 0.56460
 O50 O 0.76007 0.47609 0.43596
 Cu51 Cu 0.76238 0.52530 0.50006
 Cu52 Cu 0.73512 0.47204 0.50020
 C53 C 0.77923 0.49813 0.41478
 C54 C 0.71840 0.49920 0.58593
 C55 C 0.77887 0.49822 0.58646
 C56 C 0.71893 0.49922 0.41306
 O57 O 0.47776 0.21585 0.56503
 O58 O 0.47787 0.26161 0.43641
 O59 O 0.47783 0.21630 0.43554
 O60 O 0.47760 0.26107 0.56590
 O61 O 0.52188 0.28331 0.56634
 O62 O 0.52211 0.23844 0.43581
 O63 O 0.52215 0.28382 0.43670
 O64 O 0.52203 0.23802 0.56547
 Cu65 Cu 0.47331 0.23647 0.50068
 Cu66 Cu 0.52652 0.26314 0.50112
 C67 C 0.49986 0.21910 0.58669
 C68 C 0.50002 0.28054 0.41513
 C69 C 0.49999 0.21969 0.41397
 C70 C 0.49967 0.27985 0.58782
 O71 O 0.73837 0.21697 0.43662
 O72 O 0.78368 0.26298 0.56502
 O73 O 0.73879 0.21730 0.56623
 O74 O 0.78328 0.26261 0.43592
 O75 O 0.76066 0.28431 0.43594
 O76 O 0.71609 0.23892 0.56641
 O77 O 0.76104 0.28466 0.56519
 O78 O 0.71569 0.23860 0.43664
 Cu79 Cu 0.76327 0.23774 0.50095
 Cu80 Cu 0.73604 0.26377 0.50106
 C81 C 0.71930 0.21993 0.41517
 C82 C 0.78021 0.28177 0.58624
 C83 C 0.71984 0.22035 0.58806
 C84 C 0.77968 0.28129 0.41449
 O85 O 0.96293 0.44153 0.12222
 O86 O 0.93328 0.44710 0.05757
 C87 C 0.93878 0.43528 0.10492
 O88 O 1.03757 0.56074 0.11631
 O89 O 1.06714 0.55364 0.05562
 C90 C 1.06170 0.56677 0.09950
 O91 O 0.96273 0.52118 0.12220
 O92 O 0.93318 0.48578 0.05802
 C93 C 0.93861 0.50314 0.10521
 O94 O 1.03772 0.47655 0.11531
 O95 O 1.06729 0.51358 0.05540
 C96 C 1.06187 0.49485 0.09892
 Zr97 Zr 1.00024 0.47040 0.08168
 O98 O 1.00108 0.46693 0.18647
 O99 O 0.99923 0.43348 0.06943
 Zr100 Zr 1.00014 0.52910 0.08340
 O101 O 1.00275 0.53041 0.18874
 O102 O 0.99715 0.56428 0.08239
 O103 O 0.97643 0.48782 0.09586
 O104 O 1.02340 0.51136 0.09510
 O105 O 1.03765 0.47664 -0.11777
 O106 O 1.06717 0.51352 -0.05758
 C107 C 1.06177 0.49485 -0.10112
 O108 O 0.96285 0.52158 -0.12361
 O109 O 0.93325 0.48605 -0.05965
 C110 C 0.93871 0.50352 -0.10661
 O111 O 1.03782 0.56119 -0.11708
 O112 O 1.06736 0.55380 -0.05701
 C113 C 1.06196 0.56709 -0.10058
 O114 O 0.96280 0.44137 -0.12424
 O115 O 0.93322 0.44726 -0.06025
 C116 C 0.93866 0.43529 -0.10732
 Zr117 Zr 1.00019 0.47095 -0.08550
 O118 O 1.00321 0.47250 -0.19080
 O119 O 0.99754 0.43293 -0.08456
 Zr120 Zr 1.00023 0.52969 -0.08418
 O121 O 1.00311 0.53273 -0.18931
 O122 O 0.99715 0.56479 -0.07927
 Zr123 Zr 0.96007 0.47996 -0.00111
 Zr124 Zr 1.04023 0.52012 -0.00102
 O125 O 1.02342 0.51195 -0.09723
 O126 O 0.97637 0.48842 -0.09813
 O127 O 1.02434 0.47827 -0.00190
 O128 O 0.97669 0.52184 -0.00035
 O129 O 0.97660 0.45464 -0.00184
 O130 O 1.02425 0.54601 -0.00026
 H131 H 1.03537 0.51733 0.13446
 H132 H 0.96444 0.52926 -0.00018
 H133 H 1.03534 0.51795 -0.13671
 H134 H 0.96433 0.43499 -0.00191
 H135 H 1.01259 0.57807 0.05688
 H136 H 1.01368 0.57901 -0.05816
 H137 H 0.99034 0.51487 -0.20749
 H138 H 0.98834 0.47463 -0.20834
 H139 H 1.01177 0.43422 -0.05458
 H140 H 0.99877 0.42661 0.11499
 H141 H 1.00447 0.48416 0.20541
 H142 H 0.98828 0.51304 0.20582
 O143 O 0.44175 0.47911 0.12180
 O144 O 0.44747 0.51446 0.05735
 C145 C 0.43560 0.49711 0.10460
 O146 O 0.56132 0.52375 0.11425
 O147 O 0.55386 0.48670 0.05460
 C148 C 0.56718 0.50545 0.09786
 O149 O 0.52167 0.55908 0.12098
 O150 O 0.48617 0.55318 0.05708
 C151 C 0.50358 0.56514 0.10415
 O152 O 0.47697 0.43943 0.11562
 O153 O 0.51382 0.44674 0.05540
 C154 C 0.49522 0.43353 0.09919
 Zr155 Zr 0.47114 0.47106 0.08273
 O156 O 0.47133 0.46864 0.18803
 O157 O 0.43397 0.43511 0.07578
 Zr158 Zr 0.52979 0.52980 0.08150
 O159 O 0.53278 0.52986 0.18664
 O160 O 0.56482 0.56800 0.07675
 O161 O 0.48857 0.51237 0.09536
 O162 O 0.51209 0.48887 0.09462
 O163 O 0.47621 0.43868 -0.11624
 O164 O 0.51348 0.44645 -0.05726
 C165 C 0.49455 0.43290 -0.09997
 O166 O 0.52128 0.55875 -0.12520
 O167 O 0.48597 0.55301 -0.06070
 C168 C 0.50329 0.56491 -0.10797
 O169 O 0.56084 0.52323 -0.11891
 O170 O 0.55376 0.48654 -0.05803
 C171 C 0.56685 0.50507 -0.10210
 O172 O 0.44111 0.47845 -0.12342
 O173 O 0.44722 0.51420 -0.06016
 C174 C 0.43510 0.49661 -0.10679
 Zr175 Zr 0.47072 0.47066 -0.08466
 O176 O 0.47146 0.46836 -0.18989
 O177 O 0.43279 0.43531 -0.08159
 Zr178 Zr 0.52934 0.52935 -0.08611
 O179 O 0.53119 0.52828 -0.19137
 O180 O 0.56445 0.56752 -0.08458
 Zr181 Zr 0.48016 0.52030 -0.00164
 Zr182 Zr 0.52032 0.48027 -0.00153
 O183 O 0.51161 0.48835 -0.09778
 O184 O 0.48805 0.51191 -0.09866
 O185 O 0.47854 0.45437 -0.00075
 O186 O 0.52200 0.54555 -0.00238
 O187 O 0.45494 0.47843 -0.00086
 O188 O 0.54619 0.52213 -0.00237
 H189 H 0.51806 0.48298 0.13424
 H190 H 0.52937 0.56521 -0.00256
 H191 H 0.51745 0.48221 -0.13716
 H192 H 0.43528 0.47096 -0.00064
 H193 H 0.57897 0.56575 0.05498
 H194 H 0.57839 0.56567 -0.06036
 H195 H 0.51370 0.52481 -0.20885
 H196 H 0.47463 0.48568 -0.20790
 H197 H 0.43412 0.42290 -0.04970
 H198 H 0.42811 0.42928 0.12224
 H199 H 0.47553 0.48634 0.20573
 H200 H 0.51500 0.52505 0.20486
 O201 O 0.52146 -0.03716 0.12199
 O202 O 0.48594 -0.06670 0.05811
 C203 C 0.50340 -0.06129 0.10498
 O204 O 0.47678 0.03794 0.11585
 O205 O 0.51360 0.06755 0.05549
 C206 C 0.49497 0.06211 0.09918
 O207 O 0.44187 -0.03696 0.12349
 O208 O 0.44729 -0.06664 0.05856
 C209 C 0.43559 -0.06114 0.10620
 O210 O 0.56094 0.03776 0.11632
 O211 O 0.55359 0.06736 0.05627
 C212 C 0.56684 0.06192 0.09988
 Zr213 Zr 0.52930 0.00035 0.08352
 O214 O 0.53147 0.00266 0.18888
 O215 O 0.56528 -0.00080 0.07646
 Zr216 Zr 0.47056 0.00037 0.08251
 O217 O 0.46751 0.00155 0.18732
 O218 O 0.43358 -0.00077 0.07084
 O219 O 0.48806 -0.02341 0.09637
 O220 O 0.51150 0.02356 0.09564
 O221 O 0.56147 0.03787 -0.11557
 O222 O 0.55380 0.06739 -0.05629
 C223 C 0.56728 0.06200 -0.09920
 O224 O 0.44142 -0.03702 -0.12361
 O225 O 0.44728 -0.06663 -0.05942
 C226 C 0.43532 -0.06118 -0.10650
 O227 O 0.47681 0.03804 -0.11692
 O228 O 0.51374 0.06762 -0.05688
 C229 C 0.49507 0.06221 -0.10047
 O230 O 0.52178 -0.03703 -0.12257
 O231 O 0.48605 -0.06664 -0.05927
 C232 C 0.50363 -0.06119 -0.10589
 Zr233 Zr 0.52952 0.00039 -0.08400
 O234 O 0.53149 0.00343 -0.18926
 O235 O 0.56484 -0.00224 -0.08181
 Zr236 Zr 0.47088 0.00041 -0.08472
 O237 O 0.47197 0.00341 -0.18998
 O238 O 0.43292 -0.00222 -0.08306
 Zr239 Zr 0.48002 -0.03979 -0.00057
 Zr240 Zr 0.52005 0.04039 -0.00045
 O241 O 0.51184 0.02366 -0.09673
 O242 O 0.48830 -0.02349 -0.09762
 O243 O 0.54590 0.02444 -0.00008
 O244 O 0.45470 -0.02326 -0.00099
 O245 O 0.52185 -0.02318 -0.00016
 O246 O 0.47825 0.02450 -0.00104
 H247 H 0.51748 0.03549 0.13509
 H248 H 0.43507 -0.03557 -0.00089
 H249 H 0.51793 0.03568 -0.13607
 H250 H 0.52935 -0.03536 -0.00013
 H251 H 0.42688 -0.00112 0.11651
 H252 H 0.43438 0.01224 -0.05365
 H253 H 0.47530 -0.01069 -0.20756
 H254 H 0.51431 -0.01104 -0.20701
 H255 H 0.57716 0.01121 -0.04934
 H256 H 0.57109 -0.00090 0.12290
 H257 H 0.51401 -0.01144 0.20640
 H258 H 0.48402 0.00298 0.20597
 C259 C 1.10077 0.47555 0.21721
 C260 C 1.12703 0.49633 0.20685
 C261 C 1.13218 0.51610 0.15919
 C262 C 1.11108 0.51534 0.12284
 C263 C 1.20141 0.50033 0.36624
 C264 C 1.07967 0.47475 0.18106
 C265 C 1.14835 0.49783 0.24744
 C266 C 1.16563 0.49885 0.28329
 C267 C 1.18522 0.49977 0.32722
 C268 C 1.08451 0.49480 0.13391
 H269 H 1.09653 0.46017 0.25408
 H270 H 1.15243 0.53232 0.15089
 H271 H 1.11555 0.53112 0.08704
 H272 H 1.05952 0.45863 0.19090
 C273 C 0.52040 0.62104 0.22820
 C274 C 0.50037 0.62737 0.21493
 C275 C 0.48157 0.61364 0.16470
 C276 C 0.48271 0.59356 0.12809
 C277 C 0.49710 0.69956 0.36884
 C278 C 0.52158 0.60099 0.19178
 C279 C 0.49891 0.64751 0.25420
 C280 C 0.49802 0.66420 0.28868
 C281 C 0.49737 0.68345 0.33097
 C282 C 0.50270 0.58692 0.14139
 H283 H 0.53500 0.63147 0.26711
 H284 H 0.46592 0.61831 0.15417
 H285 H 0.46781 0.58309 0.08986
 H286 H 0.53721 0.59642 0.20349
 C287 C 0.38683 -0.13166 0.16622
 C288 C 0.37303 -0.12656 0.21622
 C289 C 0.37947 -0.10018 0.22967
 C290 C 0.39968 -0.07894 0.19365
 C291 C 0.29998 -0.20207 0.36844
 C292 C 0.40708 -0.11043 0.13000
 C293 C 0.35265 -0.14819 0.25499
 C294 C 0.33577 -0.16577 0.28906
 C295 C 0.31629 -0.18568 0.33092
 C296 C 0.41381 -0.08378 0.14346
 H297 H 0.38206 -0.15201 0.15552
 H298 H 0.36896 -0.09599 0.26837
 H299 H 0.40429 -0.05873 0.20538
 H300 H 0.41757 -0.11489 0.09186
 C301 C 0.89952 0.52043 0.22800
 C302 C 0.87318 0.50039 0.21483
 C303 C 0.86811 0.48140 0.16507
 C304 C 0.88934 0.48237 0.12888
 C305 C 0.79786 0.49790 0.36773
 C306 C 0.92074 0.52144 0.19202
 C307 C 0.85158 0.49910 0.25375
 C308 C 0.83405 0.49840 0.28800
 C309 C 0.81420 0.49798 0.33006
 C310 C 0.91595 0.50236 0.14214
 H311 H 0.90368 0.53519 0.26651
 H312 H 0.84780 0.46574 0.15458
 H313 H 0.88491 0.46733 0.09099
 H314 H 0.94092 0.53710 0.20361
 C315 C 0.47600 0.37545 0.21791
 C316 C 0.49672 0.36987 0.20759
 C317 C 0.51645 0.38441 0.15983
 C318 C 0.51570 0.40474 0.12330
 C319 C 0.49997 0.29897 0.36698
 C320 C 0.47520 0.39574 0.18161
 C321 C 0.49813 0.34997 0.24818
 C322 C 0.49900 0.33360 0.28404
 C323 C 0.49967 0.31476 0.32797
 C324 C 0.49519 0.41084 0.13431
 H325 H 0.46066 0.36437 0.25485
 H326 H 0.53263 0.38031 0.15155
 H327 H 0.53143 0.41598 0.08742
 H328 H 0.45913 0.39984 0.19143
 C329 C 0.62513 0.10078 0.21775
 C330 C 0.63060 0.12707 0.20758
 C331 C 0.61596 0.13227 0.16013
 C332 C 0.59559 0.11118 0.12382
 C333 C 0.70108 0.20135 0.36697
 C334 C 0.60481 0.07969 0.18164
 C335 C 0.65046 0.14838 0.24813
 C336 C 0.66675 0.16564 0.28397
 C337 C 0.68544 0.18519 0.32792
 C338 C 0.58957 0.08457 0.13474
 H339 H 0.63630 0.09651 0.25442
 H340 H 0.61998 0.15254 0.15196
 H341 H 0.58426 0.11567 0.08819
 H342 H 0.60079 0.05951 0.19133
 C343 C 0.51611 0.13261 -0.16039
 C344 C 0.49641 0.12743 -0.20821
 C345 C 0.47575 0.10112 -0.21875
 C346 C 0.47499 0.08001 -0.18264
 C347 C 0.49975 0.20158 -0.36775
 C348 C 0.51540 0.11150 -0.12407
 C349 C 0.49783 0.14876 -0.24874
 C350 C 0.49871 0.16600 -0.28461
 C351 C 0.49942 0.18550 -0.32863
 C352 C 0.49497 0.08488 -0.13534
 H353 H 0.53224 0.15290 -0.15192
 H354 H 0.46042 0.09685 -0.25573
 H355 H 0.45897 0.05982 -0.19265
 H356 H 0.53112 0.11598 -0.08814
 C357 C 0.62482 0.52414 -0.22088
 C358 C 0.63052 0.50352 -0.20993
 C359 C 0.61610 0.48392 -0.16176
 C360 C 0.59576 0.48469 -0.12546
 C361 C 0.70111 0.49958 -0.36867
 C362 C 0.60452 0.52496 -0.18479
 C363 C 0.65039 0.50202 -0.25032
 C364 C 0.66671 0.50102 -0.28599
 C365 C 0.68544 0.50012 -0.32975
 C366 C 0.58953 0.50508 -0.13710
 H367 H 0.63580 0.53939 -0.25813
 H368 H 0.62030 0.46782 -0.15297
 H369 H 0.58463 0.46906 -0.08922
 H370 H 0.60033 0.54096 -0.19506
 C371 C 0.89955 0.37871 -0.22960
 C372 C 0.87322 0.37246 -0.21652
 C373 C 0.86817 0.38648 -0.16699
 C374 C 0.88940 0.40678 -0.13093
 C375 C 0.79789 0.29963 -0.36936
 C376 C 0.92079 0.39898 -0.19375
 C377 C 0.85161 0.35212 -0.25537
 C378 C 0.83408 0.33528 -0.28958
 C379 C 0.81423 0.31587 -0.33165
 C380 C 0.91600 0.41335 -0.14412
 H381 H 0.90369 0.36804 -0.26795
 H382 H 0.84786 0.38186 -0.15659
 H383 H 0.88498 0.41745 -0.09321
 H384 H 0.94096 0.40346 -0.20526
 C385 C 0.48180 -0.13173 -0.16570
 C386 C 0.50093 -0.12673 -0.21500
 C387 C 0.52114 -0.10040 -0.22779
 C388 C 0.52218 -0.07913 -0.19191
 C389 C 0.49750 -0.20241 -0.36830
 C390 C 0.48280 -0.11047 -0.12962
 C391 C 0.49951 -0.14837 -0.25403
 C392 C 0.49862 -0.16598 -0.28836
 C393 C 0.49788 -0.18595 -0.33053
 C394 C 0.50294 -0.08387 -0.14255
 H395 H 0.46600 -0.15203 -0.15554
 H396 H 0.53600 -0.09629 -0.26599
 H397 H 0.53795 -0.05895 -0.20323
 H398 H 0.46763 -0.11486 -0.09213
 C399 C 0.37874 0.47930 -0.22962
 C400 C 0.37240 0.49933 -0.21646
 C401 C 0.38626 0.51829 -0.16663
 C402 C 0.40650 0.51730 -0.13034
 C403 C 0.29974 0.50199 -0.36982
 C404 C 0.39893 0.47826 -0.19352
 C405 C 0.35213 0.50066 -0.25551
 C406 C 0.33534 0.50141 -0.28986
 C407 C 0.31597 0.50189 -0.33204
 C408 C 0.41315 0.49732 -0.14360
 H409 H 0.36821 0.46457 -0.26823
 H410 H 0.38159 0.53396 -0.15619
 H411 H 0.41706 0.53233 -0.09242
 H412 H 0.40350 0.46262 -0.20515
 C413 C 1.13232 0.61630 -0.16035
 C414 C 1.12717 0.63082 -0.20833
 C415 C 1.10090 0.62524 -0.21903
 C416 C 1.07978 0.60493 -0.18290
 C417 C 1.20161 0.70126 -0.36761
 C418 C 1.11120 0.59595 -0.12403
 C419 C 1.14853 0.65066 -0.24884
 C420 C 1.16583 0.66694 -0.28464
 C421 C 1.18543 0.68563 -0.32854
 C422 C 1.08461 0.58982 -0.13546
 H423 H 1.15258 0.62041 -0.15174
 H424 H 1.09668 0.63631 -0.25613
 H425 H 1.05963 0.60082 -0.19302
 H426 H 1.11566 0.58472 -0.08798
 C427 C 0.89945 0.52069 -0.22910
 C428 C 0.87313 0.50082 -0.21499
 C429 C 0.86816 0.48197 -0.16492
 C430 C 0.88945 0.48292 -0.12921
 C431 C 0.79743 0.49804 -0.36630
 C432 C 0.92076 0.52169 -0.19357
 C433 C 0.85143 0.49952 -0.25331
 C434 C 0.83378 0.49874 -0.28708
 C435 C 0.81381 0.49820 -0.32873
 C436 C 0.91604 0.50277 -0.14329
 H437 H 0.90352 0.53531 -0.26797
 H438 H 0.84785 0.46643 -0.15380
 H439 H 0.88509 0.46799 -0.09100
 H440 H 0.94093 0.53720 -0.20582
 C441 C 0.51540 0.38325 -0.15764
 C442 C 0.49557 0.36847 -0.20492
 C443 C 0.47485 0.37399 -0.21576
 C444 C 0.47417 0.39454 -0.18051
 C445 C 0.49945 0.29796 -0.36355
 C446 C 0.51477 0.40383 -0.12221
 C447 C 0.49705 0.34852 -0.24490
 C448 C 0.49807 0.33221 -0.28047
 C449 C 0.49896 0.31355 -0.32433
 C450 C 0.49430 0.40993 -0.13386
 H451 H 0.53158 0.37918 -0.14900
 H452 H 0.45944 0.36271 -0.25238
 H453 H 0.45812 0.39864 -0.19072
 H454 H 0.53059 0.41528 -0.08671
 C455 C 0.61686 0.13251 -0.15706
 C456 C 0.63160 0.12744 -0.20441
 C457 C 0.62608 0.10118 -0.21524
 C458 C 0.60558 0.07996 -0.17989
 C459 C 0.70186 0.20193 -0.36327
 C460 C 0.59632 0.11130 -0.12151
 C461 C 0.65150 0.14886 -0.24449
 C462 C 0.66776 0.16620 -0.28010
 C463 C 0.68636 0.18580 -0.32401
 C464 C 0.59022 0.08472 -0.13316
 H465 H 0.62093 0.15277 -0.14844
 H466 H 0.63733 0.09704 -0.25193
 H467 H 0.60148 0.05980 -0.19009
 H468 H 0.58490 0.11569 -0.08595
 C469 C 1.13222 0.51568 -0.15888
 C470 C 1.12715 0.49601 -0.20667
 C471 C 1.10088 0.47544 -0.21806
 C472 C 1.07968 0.47475 -0.18271
 C473 C 1.20184 0.50010 -0.36437
 C474 C 1.11102 0.51503 -0.12335
 C475 C 1.14859 0.49746 -0.24645
 C476 C 1.16598 0.49848 -0.28179
 C477 C 1.18564 0.49946 -0.32537
 C478 C 1.08445 0.49470 -0.13542
 H479 H 1.15248 0.53175 -0.14986
 H480 H 1.09673 0.46017 -0.25511
 H481 H 1.05952 0.45880 -0.19328
 H482 H 1.11542 0.53071 -0.08738
 C483 C 0.52052 0.62150 -0.23008
 C484 C 0.50047 0.62776 -0.21654
 C485 C 0.48151 0.61375 -0.16685
 C486 C 0.48251 0.59343 -0.13102
 C487 C 0.49718 0.70006 -0.36972
 C488 C 0.52156 0.60121 -0.19445
 C489 C 0.49905 0.64804 -0.25527
 C490 C 0.49817 0.66478 -0.28948
 C491 C 0.49749 0.68401 -0.33169
 C492 C 0.50251 0.58684 -0.14464
 H493 H 0.53524 0.63218 -0.26863
 H494 H 0.46584 0.61838 -0.15617
 H495 H 0.46749 0.58275 -0.09315
 H496 H 0.53721 0.59670 -0.20627
 C497 C 0.38622 -0.13181 -0.16439
 C498 C 0.37239 -0.12683 -0.21451
 C499 C 0.37889 -0.10048 -0.22877
 C500 C 0.39921 -0.07915 -0.19333
 C501 C 0.29946 -0.20253 -0.36577
 C502 C 0.40658 -0.11049 -0.12877
 C503 C 0.35198 -0.14855 -0.25278
 C504 C 0.33511 -0.16620 -0.28654
 C505 C 0.31568 -0.18616 -0.32821
 C506 C 0.41337 -0.08388 -0.14302
 H507 H 0.38143 -0.15214 -0.15319
 H508 H 0.36838 -0.09640 -0.26770
 H509 H 0.40390 -0.05895 -0.20568
 H510 H 0.41710 -0.11487 -0.09050
 C511 C 0.52102 -0.10069 0.22597
 C512 C 0.50086 -0.12699 0.21275
 C513 C 0.48173 -0.13192 0.16355
 C514 C 0.48265 -0.11058 0.12796
 C515 C 0.49747 -0.20284 0.36511
 C516 C 0.52198 -0.07934 0.19057
 C517 C 0.49949 -0.14871 0.25130
 C518 C 0.49859 -0.16638 0.28533
 C519 C 0.49785 -0.18639 0.32731
 C520 C 0.50273 -0.08401 0.14132
 H521 H 0.53588 -0.09666 0.26411
 H522 H 0.46599 -0.15221 0.15309
 H523 H 0.46750 -0.11491 0.09049
 H524 H 0.53771 -0.05919 0.20215
 C525 C 0.38679 0.51882 0.16372
 C526 C 0.37275 0.49973 0.21317
 C527 C 0.37899 0.47964 0.22647
 C528 C 0.39928 0.47867 0.19083
 C529 C 0.30016 0.50225 0.36628
 C530 C 0.40712 0.51789 0.12787
 C531 C 0.35243 0.50102 0.25186
 C532 C 0.33563 0.50175 0.28606
 C533 C 0.31631 0.50219 0.32828
 C534 C 0.41368 0.49785 0.14125
 H535 H 0.38218 0.53453 0.15323
 H536 H 0.36829 0.46481 0.26482
 H537 H 0.40376 0.46296 0.20243
 H538 H 0.41782 0.53301 0.09018
 C539 C 1.13206 0.61622 0.15820
 C540 C 1.12691 0.63072 0.20613
 C541 C 1.10063 0.62504 0.21723
 C542 C 1.07949 0.60463 0.18151
 C543 C 1.20122 0.70092 0.36531
 C544 C 1.11092 0.59578 0.12227
 C545 C 1.14826 0.65057 0.24638
 C546 C 1.16556 0.66682 0.28209
 C547 C 1.18512 0.68541 0.32606
 C548 C 1.08434 0.58954 0.13409
 H549 H 1.15233 0.62042 0.14937
 H550 H 1.09642 0.63609 0.25436
 H551 H 1.05932 0.60042 0.19187
 H552 H 1.11538 0.58456 0.08622
 C553 C 0.47569 0.10106 0.21702
 C554 C 0.49632 0.12735 0.20607
 C555 C 0.51598 0.13250 0.15821
 C556 C 0.51527 0.11136 0.12221
 C557 C 0.49995 0.20145 0.36532
 C558 C 0.47493 0.07991 0.18122
 C559 C 0.49782 0.14871 0.24634
 C560 C 0.49879 0.16598 0.28207
 C561 C 0.49958 0.18546 0.32605
 C562 C 0.49487 0.08476 0.13387
 H563 H 0.46040 0.09685 0.25407
 H564 H 0.53209 0.15279 0.14948
 H565 H 0.53095 0.11582 0.08621
 H566 H 0.45893 0.05973 0.19147
 C567 C 0.62552 0.52475 0.21527
 C568 C 0.63103 0.50400 0.20454
 C569 C 0.61642 0.48428 0.15688
 C570 C 0.59603 0.48504 0.12090
 C571 C 0.70097 0.49964 0.36428
 C572 C 0.60516 0.52556 0.17949
 C573 C 0.65081 0.50241 0.24492
 C574 C 0.66700 0.50129 0.28076
 C575 C 0.68551 0.50027 0.32489
 C576 C 0.58994 0.50554 0.13240
 H577 H 0.63667 0.54008 0.25218
 H578 H 0.62049 0.46808 0.14833
 H579 H 0.58471 0.46931 0.08509
 H580 H 0.60107 0.54164 0.18958
 C581 C 0.89967 0.37870 0.22712
 C582 C 0.87336 0.37246 0.21381
 C583 C 0.86833 0.38649 0.16427
 C584 C 0.88957 0.40681 0.12836
 C585 C 0.79813 0.29994 0.36691
 C586 C 0.92093 0.39900 0.19141
 C587 C 0.85175 0.35215 0.25255
 C588 C 0.83420 0.33537 0.28675
 C589 C 0.81438 0.31607 0.32894
 C590 C 0.91615 0.41338 0.14174
 H591 H 0.90378 0.36801 0.26553
 H592 H 0.84803 0.38187 0.15377
 H593 H 0.88518 0.41751 0.09060
 H594 H 0.94110 0.40348 0.20301
   
