data_POSCAR
  _audit_creation_date              2014-09-24
  _audit_creation_method            'ToBaCCo'
  _symmetry_space_group_name_H-M    'P1'
  _symmetry_Int_Tables_number       1
  _symmetry_cell_setting            triclinic
  loop_
  _symmetry_equiv_pos_as_xyz
 x,y,z
_cell_length_a 29.7175
_cell_length_b 30.4537
_cell_length_c 28.6763
_cell_angle_alpha 87.229300
_cell_angle_beta 92.249900
_cell_angle_gamma 91.270400
loop_
  _atom_site_label
  _atom_site_type_symbol
  _atom_site_fract_x
  _atom_site_fract_y
  _atom_site_fract_z
C1 C 0.31582 0.30858 0.24461
 H2 H 0.31644 0.30586 0.28239
 C3 C 0.34665 0.33655 0.22191
 H4 H 0.36962 0.35575 0.24320
 C5 C 0.28398 0.28673 0.17224
 H6 H 0.25983 0.26693 0.15295
 C7 C 0.31455 0.31392 0.14805
 H8 H 0.31315 0.31462 0.11024
 N9 N 0.28487 0.28479 0.21972
 C10 C 0.17040 0.25998 0.30904
 H11 H 0.16257 0.22613 0.30159
 C12 C 0.14258 0.28231 0.33766
 H13 H 0.11355 0.26507 0.35169
 C14 C 0.21584 0.32393 0.29662
 H15 H 0.24379 0.34053 0.28005
 C16 C 0.18907 0.34746 0.32512
 H17 H 0.19751 0.38166 0.33051
 Zn18 Zn 0.24422 0.24718 0.25333
 N19 N 0.20691 0.28060 0.29008
 C20 C 0.25857 0.18356 0.32799
 N21 N 0.27831 0.20703 0.29245
 C22 C 0.32232 0.20141 0.28325
 C23 C 0.34834 0.17169 0.31056
 C24 C 0.28335 0.15336 0.35612
 C25 C 0.17628 0.23730 0.18321
 C26 C 0.14674 0.21447 0.15346
 C27 C 0.17960 0.14652 0.18353
 C28 C 0.20877 0.17068 0.21229
 N29 N 0.20646 0.21522 0.21183
 H30 H 0.22357 0.18808 0.33464
 H31 H 0.33724 0.21952 0.25424
 H32 H 0.38324 0.16763 0.30242
 H33 H 0.26705 0.13582 0.38473
 H34 H 0.17518 0.27277 0.18356
 H35 H 0.12399 0.23331 0.13049
 H36 H 0.18184 0.11104 0.18510
 H37 H 0.23301 0.15370 0.23530
 C38 C 0.15229 0.32654 0.34685
 C39 C 0.34665 0.33945 0.17275
 C40 C 0.14760 0.16820 0.15375
 C41 C 0.32889 0.14697 0.34742
 C42 C 0.81714 0.78202 0.21254
 H43 H 0.83520 0.76085 0.23769
 C44 C 0.84131 0.81151 0.18375
 H45 H 0.87772 0.81168 0.18747
 C46 C 0.74826 0.80776 0.17891
 H47 H 0.71193 0.80676 0.17756
 C48 C 0.77096 0.83794 0.14957
 H49 H 0.75049 0.85831 0.12585
 N50 N 0.77139 0.78041 0.20954
 C51 C 0.66773 0.75281 0.30935
 H52 H 0.66123 0.71824 0.30429
 C53 C 0.64049 0.77555 0.33813
 H54 H 0.61257 0.75809 0.35411
 C55 C 0.71152 0.81728 0.29296
 H56 H 0.73956 0.83320 0.27560
 C57 C 0.68534 0.84123 0.32163
 H58 H 0.69358 0.87565 0.32589
 Zn59 Zn 0.73868 0.74104 0.25005
 N60 N 0.70237 0.77388 0.28750
 C61 C 0.78041 0.71481 0.33654
 N62 N 0.77964 0.70817 0.28991
 C63 C 0.80889 0.68036 0.27180
 C64 C 0.84000 0.65751 0.30103
 C65 C 0.81147 0.69326 0.36686
 C66 C 0.66298 0.72261 0.19265
 C67 C 0.63235 0.69764 0.16634
 C68 C 0.67707 0.63369 0.18582
 C69 C 0.70671 0.65987 0.21213
 N70 N 0.69966 0.70372 0.21450
 H71 H 0.75737 0.73735 0.35038
 H72 H 0.80854 0.67644 0.23450
 H73 H 0.86311 0.63556 0.28609
 H74 H 0.81139 0.69888 0.40385
 H75 H 0.65695 0.75709 0.19626
 H76 H 0.60402 0.71382 0.14861
 H77 H 0.68337 0.59892 0.18415
 H78 H 0.73508 0.64486 0.23070
 C79 C 0.64941 0.82039 0.34505
 C80 C 0.81855 0.84056 0.15149
 C81 C 0.63918 0.65249 0.16264
 C82 C 0.84184 0.66429 0.34912
 C83 C 0.82000 0.32022 0.72096
 H84 H 0.81973 0.32961 0.75676
 C85 C 0.84665 0.34425 0.68941
 H86 H 0.86707 0.37146 0.70188
 C87 C 0.79178 0.27523 0.66107
 H88 H 0.77002 0.24873 0.64971
 C89 C 0.81827 0.29806 0.62841
 H90 H 0.81695 0.28743 0.59299
 N91 N 0.79328 0.28629 0.70653
 C92 C 0.70626 0.28328 0.82440
 H93 H 0.71224 0.25039 0.83895
 C94 C 0.68017 0.31190 0.84807
 H95 H 0.66650 0.30087 0.88118
 C96 C 0.71633 0.33719 0.76310
 H97 H 0.72954 0.34643 0.72936
 C98 C 0.69056 0.36692 0.78564
 H99 H 0.68420 0.39879 0.76866
 Zn100 Zn 0.75667 0.25549 0.75097
 N101 N 0.72386 0.29639 0.78285
 C102 C 0.78715 0.17826 0.80132
 N103 N 0.79358 0.22242 0.79514
 C104 C 0.82636 0.24364 0.82017
 C105 C 0.85568 0.22028 0.85100
 C106 C 0.81582 0.15344 0.83134
 C107 C 0.67057 0.22623 0.71893
 C108 C 0.63954 0.19973 0.69486
 C109 C 0.70099 0.15541 0.67299
 C110 C 0.73083 0.18303 0.69703
 N111 N 0.71529 0.21758 0.71956
 H112 H 0.75974 0.16186 0.78302
 H113 H 0.83009 0.27891 0.81616
 H114 H 0.88133 0.23941 0.86882
 H115 H 0.80950 0.11827 0.83434
 H116 H 0.65888 0.25425 0.73639
 H117 H 0.60452 0.20859 0.69389
 H118 H 0.71435 0.12809 0.65550
 H119 H 0.76660 0.17704 0.69760
 C120 C 0.67219 0.35447 0.82886
 C121 C 0.84602 0.33350 0.64224
 C122 C 0.65453 0.16347 0.67154
 C123 C 0.85162 0.17389 0.85672
 C124 C 0.33207 0.79223 0.70765
 H125 H 0.34773 0.76392 0.72479
 C126 C 0.35729 0.81972 0.67771
 H127 H 0.39183 0.81155 0.67187
 C128 C 0.26877 0.83761 0.69479
 H129 H 0.23447 0.84496 0.70236
 C130 C 0.29282 0.86618 0.66502
 H131 H 0.27640 0.89537 0.65055
 N132 N 0.28817 0.80088 0.71463
 C133 C 0.17210 0.79838 0.78866
 H134 H 0.15381 0.77556 0.76685
 C135 C 0.14849 0.82645 0.81562
 H136 H 0.11203 0.82491 0.81397
 C137 C 0.24168 0.82817 0.81681
 H138 H 0.27810 0.82852 0.81699
 C139 C 0.21950 0.85651 0.84462
 H140 H 0.23964 0.87765 0.86672
 Zn141 Zn 0.25068 0.76339 0.75214
 N142 N 0.21787 0.79981 0.78969
 C143 C 0.28060 0.72182 0.83807
 N144 N 0.28521 0.72300 0.79099
 C145 C 0.31224 0.69419 0.77112
 C146 C 0.33685 0.66355 0.79891
 C147 C 0.30390 0.69116 0.86705
 C148 C 0.18684 0.75279 0.67710
 C149 C 0.15842 0.72951 0.64666
 C150 C 0.17825 0.66240 0.69012
 C151 C 0.20618 0.68695 0.71974
 N152 N 0.21040 0.73131 0.71256
 H153 H 0.25825 0.74414 0.85331
 H154 H 0.31412 0.69449 0.73352
 H155 H 0.35815 0.64085 0.78253
 H156 H 0.29987 0.69085 0.90443
 H157 H 0.19030 0.78801 0.67202
 H158 H 0.14112 0.74734 0.61802
 H159 H 0.17556 0.62712 0.69649
 H160 H 0.22438 0.67040 0.74854
 C161 C 0.17209 0.85635 0.84398
 C162 C 0.33750 0.85689 0.65510
 C163 C 0.15392 0.68358 0.65289
 C164 C 0.33243 0.66153 0.84746
 Si165 Si -0.00031 -0.01112 0.00221
 Si166 Si 0.01703 0.50068 0.49731
 Si167 Si 0.51831 -0.00172 0.49475
 Si168 Si 0.50085 0.48634 -0.01158
 C169 C 0.07869 -0.09819 -0.09112
 C170 C 0.09885 -0.06042 -0.07265
 N171 N 0.14217 -0.04974 -0.08221
 C172 C 0.16652 -0.07534 -0.10904
 C173 C 0.14684 -0.11395 -0.12702
 N174 N 0.10304 -0.12395 -0.11761
 N175 N 0.03513 -0.10863 -0.08209
 C176 C 0.01088 -0.08302 -0.05518
 C177 C 0.03119 -0.04554 -0.03617
 N178 N 0.07477 -0.03502 -0.04547
 H179 H 0.20056 -0.06497 -0.11656
 H180 H -0.02369 -0.09217 -0.04822
 C181 C 0.10067 0.42062 0.40176
 C182 C 0.07478 0.39943 0.43634
 N183 N 0.07442 0.35490 0.44133
 C184 C 0.09862 0.33047 0.41317
 C185 C 0.12447 0.35150 0.37805
 N186 N 0.12478 0.39629 0.37364
 N187 N 0.10137 0.46519 0.39691
 C188 C 0.07720 0.48957 0.42511
 C189 C 0.05118 0.46841 0.45956
 N190 N 0.05056 0.42375 0.46446
 H191 H 0.09823 0.29515 0.41903
 H192 H 0.07809 0.52506 0.42055
 C193 C 0.59761 -0.08430 0.39737
 C194 C 0.57259 -0.10460 0.43316
 N195 N 0.57277 -0.14900 0.43976
 C196 C 0.59674 -0.17415 0.41209
 C197 C 0.62180 -0.15399 0.37582
 N198 N 0.62147 -0.10933 0.36974
 N199 N 0.59808 -0.03986 0.39112
 C200 C 0.57466 -0.01471 0.41920
 C201 C 0.54969 -0.03492 0.45513
 N202 N 0.54914 -0.07951 0.46120
 H203 H 0.59683 -0.20929 0.41930
 H204 H 0.57595 0.02064 0.41375
 C205 C 0.58496 0.39414 -0.09452
 C206 C 0.59106 0.43991 -0.09923
 N207 N 0.62332 0.45720 -0.12728
 C208 C 0.64976 0.43079 -0.15102
 C209 C 0.64382 0.38474 -0.14648
 N210 N 0.61143 0.36774 -0.11803
 N211 N 0.55300 0.37679 -0.06612
 C212 C 0.52691 0.40319 -0.04201
 C213 C 0.53313 0.44903 -0.04641
 N214 N 0.56516 0.46628 -0.07502
 H215 H 0.67569 0.44573 -0.17233
 H216 H 0.50215 0.38835 -0.01920
 C217 C -0.09637 0.07722 -0.08823
 C218 C -0.06154 0.09556 -0.06082
 N219 N -0.05618 0.13983 -0.06082
 C220 C -0.08392 0.16690 -0.08714
 C221 C -0.11950 0.14893 -0.11531
 N222 N -0.12422 0.10408 -0.11437
 N223 N -0.10166 0.03282 -0.08853
 C224 C -0.07355 0.00594 -0.06239
 C225 C -0.03882 0.02431 -0.03456
 N226 N -0.03361 0.06881 -0.03457
 H227 H -0.07763 0.20170 -0.08497
 H228 H -0.07848 -0.02933 -0.06311
 C229 C -0.08543 0.57568 0.40114
 C230 C -0.06294 0.59670 0.43814
 N231 N -0.07195 0.63923 0.44555
 C232 C -0.10253 0.66173 0.41771
 C233 C -0.12494 0.64089 0.38038
 N234 N -0.11554 0.59827 0.37301
 N235 N -0.07709 0.53293 0.39417
 C236 C -0.04713 0.51021 0.42248
 C237 C -0.02412 0.53130 0.45904
 N238 N -0.03261 0.57414 0.46611
 H239 H -0.10871 0.69574 0.42421
 H240 H -0.04112 0.47609 0.41630
 C241 C 0.42890 0.09489 0.40700
 C242 C 0.40995 0.05724 0.42924
 N243 N 0.36492 0.04936 0.42462
 C244 C 0.33786 0.07752 0.39886
 C245 C 0.35668 0.11548 0.37651
 N246 N 0.40198 0.12291 0.38121
 N247 N 0.47392 0.10288 0.41158
 C248 C 0.50093 0.07476 0.43736
 C249 C 0.48211 0.03694 0.45944
 N250 N 0.43694 0.02910 0.45492
 H251 H 0.30226 0.06972 0.39522
 H252 H 0.53665 0.08210 0.44088
 C253 C 0.42401 0.58878 -0.10529
 C254 C 0.40315 0.56603 -0.06799
 N255 N 0.35995 0.57493 -0.05875
 C256 C 0.33658 0.60566 -0.08510
 C257 C 0.35715 0.62835 -0.12280
 N258 N 0.40050 0.61908 -0.13203
 N259 N 0.46760 0.58055 -0.11377
 C260 C 0.49122 0.55044 -0.08672
 C261 C 0.47012 0.52709 -0.04998
 N262 N 0.42655 0.53564 -0.04138
 H263 H 0.30203 0.61175 -0.07716
 H264 H 0.52605 0.54488 -0.09385
 C265 C -0.08458 -0.10354 0.09751
 C266 C -0.10523 -0.07198 0.06723
 N267 N -0.15070 -0.06933 0.06523
 C268 C -0.17676 -0.09693 0.09196
 C269 C -0.15643 -0.12928 0.12267
 N270 N -0.11046 -0.13109 0.12429
 N271 N -0.03900 -0.10644 0.09935
 C272 C -0.01315 -0.07913 0.07202
 C273 C -0.03385 -0.04754 0.04160
 N274 N -0.07951 -0.04469 0.03998
 H275 H -0.21264 -0.09262 0.08893
 H276 H 0.02305 -0.08236 0.07369
 C277 C -0.06563 0.41123 0.59711
 C278 C -0.07343 0.41066 0.54862
 N279 N -0.10714 0.38482 0.53109
 C280 C -0.13344 0.35939 0.55982
 C281 C -0.12568 0.35960 0.60872
 N282 N -0.09172 0.38583 0.62577
 N283 N -0.03267 0.43782 0.61485
 C284 C -0.00719 0.46410 0.58622
 C285 C -0.01492 0.46364 0.53762
 N286 N -0.04791 0.43680 0.51994
 H287 H -0.16057 0.34026 0.54425
 H288 H 0.01843 0.48530 0.60149
 C289 C 0.43511 -0.09068 0.59455
 C290 C 0.41383 -0.06240 0.56095
 N291 N 0.36825 -0.06107 0.55807
 C292 C 0.34278 -0.08649 0.58754
 C293 C 0.36384 -0.11452 0.62205
 N294 N 0.40975 -0.11592 0.62419
 N295 N 0.48078 -0.09239 0.59701
 C296 C 0.50611 -0.06687 0.56741
 C297 C 0.48483 -0.03828 0.53409
 N298 N 0.43910 -0.03676 0.53165
 H299 H 0.30657 -0.08515 0.58318
 H300 H 0.54247 -0.06857 0.57012
 C301 C 0.40021 0.40235 0.07401
 C302 C 0.43823 0.42161 0.09592
 N303 N 0.44618 0.41382 0.14243
 C304 C 0.41776 0.38780 0.16823
 C305 C 0.37906 0.36860 0.14660
 N306 N 0.37171 0.37659 0.09973
 N307 N 0.39272 0.40917 0.02726
 C308 C 0.42170 0.43439 0.00137
 C309 C 0.45966 0.45386 0.02326
 N310 N 0.46710 0.44700 0.07014
 H311 H 0.42623 0.38190 0.20487
 H312 H 0.41535 0.43895 -0.03595
 C313 C 0.09709 0.07330 0.09121
 C314 C 0.05804 0.09129 0.06983
 N315 N 0.04847 0.13389 0.07601
 C316 C 0.07630 0.15957 0.10246
 C317 C 0.11604 0.14195 0.12374
 N318 N 0.12501 0.09891 0.11743
 N319 N 0.10626 0.03040 0.08572
 C320 C 0.07806 0.00469 0.05966
 C321 C 0.03917 0.02278 0.03784
 N322 N 0.03005 0.06572 0.04364
 H323 H 0.06661 0.19295 0.10722
 H324 H 0.08610 -0.02938 0.05581
 C325 C 0.10967 0.58866 0.58686
 C326 C 0.07150 0.60613 0.56301
 N327 N 0.06094 0.64868 0.56836
 C328 C 0.08681 0.67462 0.59651
 C329 C 0.12511 0.65720 0.62074
 N330 N 0.13533 0.61442 0.61509
 N331 N 0.12008 0.54600 0.58203
 C332 C 0.09377 0.51986 0.55463
 C333 C 0.05526 0.53707 0.53121
 N334 N 0.04505 0.57996 0.53579
 H335 H 0.07678 0.70807 0.60066
 H336 H 0.10241 0.48578 0.55176
 C337 C 0.61324 0.08250 0.58574
 C338 C 0.56654 0.08237 0.59090
 N339 N 0.54906 0.10774 0.62301
 C340 C 0.57610 0.13373 0.64993
 C341 C 0.62310 0.13486 0.64420
 N342 N 0.64019 0.10868 0.61223
 N343 N 0.63091 0.05661 0.55418
 C344 C 0.60384 0.03076 0.52720
 C345 C 0.55700 0.03118 0.53173
 N346 N 0.53944 0.05690 0.56369
 H347 H 0.56073 0.15267 0.67565
 H348 H 0.61887 0.01041 0.50244
 C349 C 0.59624 0.56548 0.08458
 C350 C 0.55033 0.57516 0.07927
 N351 N 0.53394 0.60914 0.10186
 C352 C 0.56145 0.63427 0.12920
 C353 C 0.60773 0.62515 0.13421
 N354 N 0.62377 0.59052 0.11190
 N355 N 0.61267 0.53160 0.06177
 C356 C 0.58529 0.50713 0.03357
 C357 C 0.53942 0.51704 0.02790
 N358 N 0.52299 0.55074 0.05116
 H359 H 0.54712 0.66076 0.14713
 H360 H 0.59931 0.48036 0.01582
   
