data_POSCAR
  _audit_creation_date              2014-09-24
  _audit_creation_method            'ToBaCCo'
  _symmetry_space_group_name_H-M    'P1'
  _symmetry_Int_Tables_number       1
  _symmetry_cell_setting            triclinic
  loop_
  _symmetry_equiv_pos_as_xyz
 x,y,z
_cell_length_a 32.8181
_cell_length_b 32.8543
_cell_length_c 41.8679
_cell_angle_alpha 89.922600
_cell_angle_beta 90.170400
_cell_angle_gamma 80.861400
loop_
  _atom_site_label
  _atom_site_type_symbol
  _atom_site_fract_x
  _atom_site_fract_y
  _atom_site_fract_z
C1 C 1.22395 0.22478 0.20915
 C2 C 1.24970 0.25049 0.18950
 C3 C 1.27217 0.27329 0.20761
 C4 C 1.26690 0.26836 0.24392
 C5 C 1.25471 0.19873 0.23156
 C6 C 1.27707 0.22158 0.24985
 C7 C 1.19750 0.25559 0.23105
 C8 C 1.21999 0.27828 0.24936
 H9 H 1.25028 0.25053 0.16354
 H10 H 1.28530 0.28706 0.25858
 H11 H 1.25605 0.16571 0.23473
 H12 H 1.16447 0.25656 0.23405
 C13 C 0.72170 -0.27155 0.20702
 C14 C 0.74744 -0.24573 0.18746
 C15 C 0.77042 -0.22361 0.20570
 C16 C 0.76567 -0.22926 0.24194
 C17 C 0.75256 -0.29833 0.22888
 C18 C 0.77543 -0.27614 0.24726
 C19 C 0.69582 -0.24100 0.22948
 C20 C 0.71893 -0.21899 0.24787
 H21 H 0.74746 -0.24493 0.16151
 H22 H 0.78455 -0.21113 0.25667
 H23 H 0.75329 -0.33130 0.23191
 H24 H 0.66287 -0.24000 0.23293
 C25 C 0.72295 0.22659 -0.29149
 C26 C 0.74659 0.25109 -0.31102
 C27 C 0.77090 0.27495 -0.29249
 C28 C 0.76699 0.26981 -0.25793
 C29 C 0.75298 0.20140 -0.27098
 C30 C 0.77731 0.22533 -0.25237
 C31 C 0.69826 0.25571 -0.27020
 C32 C 0.72265 0.27958 -0.25157
 H33 H 0.74636 0.25118 -0.33701
 H34 H 0.78601 0.28850 -0.24373
 H35 H 0.75375 0.16851 -0.26721
 H36 H 0.66552 0.25604 -0.26591
 C37 C 1.22188 -0.27497 -0.29208
 C38 C 1.24775 -0.24917 -0.31154
 C39 C 1.27054 -0.22701 -0.29316
 C40 C 1.26550 -0.23258 -0.25697
 C41 C 1.25257 -0.30170 -0.27007
 C42 C 1.27527 -0.27943 -0.25162
 C43 C 1.19581 -0.24440 -0.26980
 C44 C 1.21872 -0.22235 -0.25135
 H45 H 1.24803 -0.24847 -0.33750
 H46 H 1.28420 -0.21437 -0.24214
 H47 H 1.25340 -0.33469 -0.26710
 H48 H 1.16277 -0.24320 -0.26666
 C49 C 0.22654 0.22543 0.79167
 C50 C 0.25071 0.24991 0.81048
 C51 C 0.27453 0.27353 0.79158
 C52 C 0.26996 0.26852 0.75721
 C53 C 0.20027 0.25591 0.76911
 C54 C 0.22311 0.27838 0.75090
 C55 C 0.25741 0.19897 0.76968
 C56 C 0.28008 0.22166 0.75149
 H57 H 0.25095 0.25027 0.83645
 H58 H 0.28858 0.28703 0.74258
 H59 H 0.16730 0.25677 0.76564
 H60 H 0.25847 0.16598 0.76659
 C61 C 0.72808 0.72056 0.79242
 C62 C 0.75201 0.74524 0.81158
 C63 C 0.77511 0.76984 0.79268
 C64 C 0.76992 0.76509 0.75818
 C65 C 0.70215 0.74961 0.77167
 C66 C 0.72530 0.77420 0.75266
 C67 C 0.75763 0.69608 0.77131
 C68 C 0.78074 0.72075 0.75230
 H69 H 0.75259 0.74517 0.83756
 H70 H 0.78801 0.78435 0.74369
 H71 H 0.66934 0.74947 0.76798
 H72 H 0.75879 0.66318 0.76743
 C73 C 0.72548 0.22077 0.29275
 C74 C 0.75122 0.24680 0.31217
 C75 C 0.77288 0.27001 0.29380
 C76 C 0.76692 0.26515 0.25761
 C77 C 0.69814 0.25137 0.27104
 C78 C 0.71993 0.27448 0.25256
 C79 C 0.75600 0.19519 0.27015
 C80 C 0.77755 0.21850 0.25166
 H81 H 0.75203 0.24710 0.33813
 H82 H 0.78472 0.28419 0.24276
 H83 H 0.66512 0.25191 0.26828
 H84 H 0.75749 0.16218 0.26684
 C85 C 0.22584 0.72349 0.29081
 C86 C 0.25192 0.74915 0.31028
 C87 C 0.27426 0.77187 0.29205
 C88 C 0.26855 0.76692 0.25577
 C89 C 0.19920 0.75437 0.26885
 C90 C 0.22158 0.77698 0.25040
 C91 C 0.25629 0.69735 0.26842
 C92 C 0.27853 0.72012 0.24998
 H93 H 0.25262 0.74941 0.33623
 H94 H 0.28686 0.78553 0.24100
 H95 H 0.16609 0.75561 0.26605
 H96 H 0.25752 0.66433 0.26539
 O97 O 1.06422 0.01618 0.03942
 O98 O 0.92647 -0.01499 0.03731
 O99 O 0.96954 0.07246 0.03759
 O100 O 1.02290 -0.07187 0.03888
 O101 O 0.91436 0.05478 0.01962
 O102 O 1.07801 -0.05369 0.02175
 O103 O 0.95442 -0.07372 0.02032
 O104 O 1.03799 0.07469 0.02093
 C105 C 1.05722 0.05386 0.04264
 C106 C 0.93457 -0.05253 0.04146
 C107 C 0.93275 0.07054 0.04131
 C108 C 1.05949 -0.06922 0.04335
 O109 O 1.06928 -0.02684 -0.03982
 O110 O 0.92512 0.02793 -0.04225
 O111 O 1.01372 0.06820 -0.04120
 O112 O 0.98071 -0.06883 -0.04113
 O113 O 0.92187 -0.04052 -0.02445
 O114 O 1.07184 0.04119 -0.02231
 O115 O 1.05044 -0.08187 -0.02279
 O116 O 0.94362 0.08245 -0.02423
 Co117 Co 1.06360 -0.00519 -0.00030
 Co118 Co 0.92916 0.00622 -0.00237
 Co119 Co 0.99174 0.06724 -0.00175
 Co120 Co 1.00163 -0.06691 -0.00118
 O121 O 0.99651 0.00031 -0.00141
 C122 C 1.06698 -0.06344 -0.04397
 C123 C 0.92815 0.06447 -0.04622
 C124 C 1.05146 0.06075 -0.04409
 C125 C 0.94310 -0.06085 -0.04537
 O126 O 1.06944 0.54067 0.52185
 O127 O 0.92048 0.45856 0.52269
 O128 O 0.94109 0.58167 0.52122
 O129 O 1.04923 0.41732 0.52246
 O130 O 0.92306 0.52723 0.53967
 O131 O 1.06738 0.47263 0.53945
 O132 O 0.97923 0.43063 0.54021
 O133 O 1.01085 0.56799 0.53947
 C134 C 1.04848 0.56030 0.54316
 C135 C 0.94159 0.43870 0.54405
 C136 C 0.92577 0.56386 0.54334
 C137 C 1.06566 0.43590 0.54365
 O138 O 1.07681 0.44570 0.47795
 O139 O 0.91306 0.55303 0.47723
 O140 O 1.03648 0.57403 0.47792
 O141 O 0.95347 0.42471 0.47866
 O142 O 0.92587 0.48307 0.46059
 O143 O 1.06322 0.51554 0.45997
 O144 O 1.02201 0.42670 0.46064
 O145 O 0.96843 0.57093 0.45997
 Co146 Co 1.06204 0.49419 0.49976
 Co147 Co 0.92777 0.50494 0.50006
 Co148 Co 0.98977 0.56639 0.49972
 Co149 Co 1.00045 0.43206 0.50044
 O150 O 0.99500 0.49936 0.50000
 C151 C 1.05850 0.42979 0.45636
 C152 C 0.93171 0.56889 0.45577
 C153 C 1.05648 0.55324 0.45669
 C154 C 0.93399 0.44547 0.45701
 O155 O 0.57444 0.03657 0.52514
 O156 O 0.42438 -0.04427 0.52309
 O157 O 0.44613 0.07847 0.52248
 O158 O 0.55269 -0.08644 0.52535
 O159 O 0.42667 0.02433 0.54029
 O160 O 0.57067 -0.03131 0.54289
 O161 O 0.48245 -0.07225 0.54170
 O162 O 0.51556 0.06461 0.54177
 C163 C 0.55316 0.05704 0.54591
 C164 C 0.44480 -0.06365 0.54498
 C165 C 0.43004 0.06076 0.54424
 C166 C 0.56872 -0.06804 0.54690
 O167 O 0.58186 -0.05868 0.48152
 O168 O 0.41870 0.05019 0.47791
 O169 O 0.54260 0.06967 0.48057
 O170 O 0.45826 -0.07846 0.47963
 O171 O 0.43168 -0.01996 0.46117
 O172 O 0.56960 0.01087 0.46334
 O173 O 0.52727 -0.07664 0.46295
 O174 O 0.47465 0.06782 0.46160
 Co175 Co 0.56694 -0.01001 0.50308
 Co176 Co 0.43253 0.00197 0.50076
 Co177 Co 0.49523 0.06295 0.50168
 Co178 Co 0.50469 -0.07123 0.50235
 O179 O 0.49983 -0.00408 0.50197
 C180 C 0.56395 -0.07394 0.45938
 C181 C 0.43792 0.06617 0.45688
 C182 C 0.56242 0.04844 0.45951
 C183 C 0.43918 -0.05764 0.45778
 O184 O 0.57415 0.53796 0.02086
 O185 O 0.42481 0.45472 0.02070
 O186 O 0.44581 0.57799 0.02068
 O187 O 0.55336 0.41458 0.02222
 O188 O 0.42720 0.52336 0.03850
 O189 O 0.57155 0.47001 0.03912
 O190 O 0.48323 0.42728 0.03886
 O191 O 0.51551 0.56461 0.03857
 C192 C 0.55318 0.55770 0.04209
 C193 C 0.44555 0.43518 0.04235
 C194 C 0.43014 0.55991 0.04251
 C195 C 0.56914 0.43346 0.04360
 O196 O 0.58209 0.44221 -0.02194
 O197 O 0.41749 0.54995 -0.02347
 O198 O 0.54085 0.57050 -0.02331
 O199 O 0.45878 0.42148 -0.02326
 O200 O 0.43072 0.48005 -0.04089
 O201 O 0.56831 0.51183 -0.04063
 O202 O 0.52766 0.42362 -0.04019
 O203 O 0.47278 0.56765 -0.04087
 Co204 Co 0.56677 0.49105 -0.00073
 Co205 Co 0.43228 0.50149 -0.00123
 Co206 Co 0.49431 0.56300 -0.00117
 Co207 Co 0.50521 0.42887 -0.00065
 O208 O 0.49962 0.49607 -0.00095
 C209 C 0.56433 0.42640 -0.04386
 C210 C 0.43602 0.56581 -0.04494
 C211 C 0.56097 0.54945 -0.04437
 C212 C 0.43898 0.44247 -0.04470
 C213 C 1.19976 0.20032 0.18958
 C214 C 1.17997 0.18039 0.17327
 C215 C 1.15660 0.15692 0.15333
 C216 C 1.17205 0.11571 0.14621
 C217 C 1.15033 0.09356 0.12546
 C218 C 1.11308 0.11254 0.11180
 C219 C 1.09731 0.15354 0.11934
 C220 C 1.11902 0.17569 0.14008
 C221 C 1.09243 0.09091 0.08851
 C222 C 1.07588 0.07353 0.06807
 H223 H 1.20115 0.10096 0.15626
 H224 H 1.16293 0.06195 0.11960
 H225 H 1.06869 0.16860 0.10872
 H226 H 1.10689 0.20758 0.14537
 C227 C 1.19729 0.70117 0.68839
 C228 C 1.17697 0.68157 0.67237
 C229 C 1.15284 0.65845 0.65297
 C230 C 1.17004 0.61927 0.64196
 C231 C 1.14731 0.59769 0.62163
 C232 C 1.10735 0.61525 0.61233
 C233 C 1.08985 0.65409 0.62383
 C234 C 1.11258 0.67567 0.64417
 C235 C 1.08555 0.59486 0.58914
 C236 C 1.06810 0.57860 0.56866
 H237 H 1.20121 0.60578 0.64862
 H238 H 1.16117 0.56778 0.61262
 H239 H 1.05907 0.66801 0.61654
 H240 H 1.09910 0.70601 0.65255
 C241 C 0.69939 0.20340 0.69044
 C242 C 0.67918 0.18332 0.67457
 C243 C 0.65545 0.15955 0.65515
 C244 C 0.67294 0.12008 0.64487
 C245 C 0.65075 0.09785 0.62453
 C246 C 0.61098 0.11500 0.61442
 C247 C 0.59321 0.15419 0.62514
 C248 C 0.61540 0.17641 0.64549
 C249 C 0.58958 0.09363 0.59142
 C250 C 0.57245 0.07646 0.57117
 H251 H 0.70394 0.10682 0.65212
 H252 H 0.66488 0.06770 0.61621
 H253 H 0.56259 0.16785 0.61728
 H254 H 0.60164 0.20696 0.65323
 C255 C 0.69714 0.70447 0.18744
 C256 C 0.67728 0.68453 0.17124
 C257 C 0.65407 0.66072 0.15154
 C258 C 0.67173 0.62110 0.14175
 C259 C 0.64999 0.59869 0.12126
 C260 C 0.61051 0.61584 0.11054
 C261 C 0.59257 0.65519 0.12076
 C262 C 0.61431 0.67760 0.14126
 C263 C 0.58956 0.59427 0.08748
 C264 C 0.57259 0.57703 0.06724
 H265 H 0.70251 0.60784 0.14954
 H266 H 0.66422 0.56839 0.11330
 H267 H 0.56215 0.66881 0.11242
 H268 H 0.60044 0.70826 0.14867
 C269 C 0.79651 -0.19737 0.19129
 C270 C 0.81742 -0.17624 0.17718
 C271 C 0.84123 -0.15205 0.15819
 C272 C 0.82436 -0.11176 0.14925
 C273 C 0.84508 -0.09016 0.12740
 C274 C 0.88273 -0.10878 0.11436
 C275 C 0.90017 -0.14862 0.12400
 C276 C 0.87946 -0.17022 0.14585
 C277 C 0.90188 -0.08829 0.08944
 C278 C 0.91716 -0.07171 0.06783
 H279 H 0.79461 -0.09757 0.15835
 H280 H 0.83117 -0.05947 0.11997
 H281 H 0.92913 -0.16343 0.11393
 H282 H 0.89258 -0.20151 0.15231
 C283 C 0.79572 0.29930 0.69325
 C284 C 0.81685 0.31997 0.67882
 C285 C 0.84109 0.34358 0.65959
 C286 C 0.82361 0.38261 0.64816
 C287 C 0.84530 0.40352 0.62647
 C288 C 0.88458 0.38550 0.61604
 C289 C 0.90248 0.34692 0.62807
 C290 C 0.88079 0.32602 0.64976
 C291 C 0.90531 0.40522 0.59148
 C292 C 0.92213 0.42093 0.57019
 H293 H 0.79277 0.39633 0.65529
 H294 H 0.83101 0.43320 0.61720
 H295 H 0.93270 0.33254 0.62005
 H296 H 0.89447 0.29568 0.65813
 C297 C 0.29684 -0.20085 0.69268
 C298 C 0.31807 -0.17979 0.67891
 C299 C 0.34247 -0.15577 0.66037
 C300 C 0.38330 -0.17207 0.65264
 C301 C 0.40529 -0.15128 0.63115
 C302 C 0.38651 -0.11413 0.61729
 C303 C 0.34611 -0.09720 0.62576
 C304 C 0.32412 -0.11800 0.64725
 C305 C 0.40751 -0.09516 0.59262
 C306 C 0.42468 -0.08027 0.57118
 H307 H 0.39763 -0.20148 0.66236
 H308 H 0.43643 -0.16478 0.62460
 H309 H 0.33120 -0.06864 0.61502
 H310 H 0.29241 -0.10535 0.65279
 C311 C 0.29861 0.29906 0.19290
 C312 C 0.31986 0.31954 0.17841
 C313 C 0.34426 0.34273 0.15897
 C314 C 0.38395 0.32483 0.14935
 C315 C 0.40574 0.34514 0.12734
 C316 C 0.38795 0.38345 0.11476
 C317 C 0.34867 0.40181 0.12497
 C318 C 0.32688 0.38150 0.14698
 C319 C 0.40882 0.40256 0.08995
 C320 C 0.42580 0.41782 0.06852
 H321 H 0.39754 0.29467 0.15813
 H322 H 0.43596 0.33050 0.11950
 H323 H 0.33447 0.43128 0.11528
 H324 H 0.29604 0.39544 0.15392
 C325 C 0.79988 0.20850 -0.22680
 C326 C 0.81873 0.19243 -0.20411
 C327 C 0.83998 0.17198 -0.17696
 C328 C 0.87020 0.13721 -0.18140
 C329 C 0.88890 0.11567 -0.15496
 C330 C 0.87741 0.12875 -0.12397
 C331 C 0.84757 0.16382 -0.11954
 C332 C 0.82887 0.18536 -0.14597
 C333 C 0.89560 0.10581 -0.09673
 C334 C 0.91052 0.08673 -0.07378
 H335 H 0.87884 0.12643 -0.20525
 H336 H 0.91191 0.08859 -0.15868
 H337 H 0.83842 0.17419 -0.09569
 H338 H 0.80536 0.21203 -0.14225
 C339 C 0.79896 0.70533 0.27407
 C340 C 0.81717 0.68886 0.29682
 C341 C 0.83754 0.66837 0.32421
 C342 C 0.86181 0.62951 0.32088
 C343 C 0.88019 0.60877 0.34773
 C344 C 0.87424 0.62679 0.37801
 C345 C 0.85006 0.66571 0.38133
 C346 C 0.83169 0.68644 0.35448
 C347 C 0.89356 0.60574 0.40557
 C348 C 0.91043 0.58854 0.42859
 H349 H 0.86628 0.61515 0.29760
 H350 H 0.89892 0.57873 0.34491
 H351 H 0.84537 0.67995 0.40464
 H352 H 0.81272 0.71635 0.35733
 C353 C 0.30140 0.20358 0.27653
 C354 C 0.32045 0.18741 0.29907
 C355 C 0.34196 0.16709 0.32616
 C356 C 0.36768 0.12910 0.32226
 C357 C 0.38698 0.10834 0.34880
 C358 C 0.38057 0.12543 0.37937
 C359 C 0.35505 0.16355 0.38324
 C360 C 0.33575 0.18430 0.35670
 C361 C 0.40030 0.10402 0.40671
 C362 C 0.41714 0.08642 0.42963
 H363 H 0.37249 0.11537 0.29879
 H364 H 0.40669 0.07892 0.34552
 H365 H 0.34992 0.17708 0.40675
 H366 H 0.31572 0.21353 0.36002
 C367 C 0.29895 0.70208 -0.22491
 C368 C 0.31727 0.68558 -0.20224
 C369 C 0.33770 0.66492 -0.17497
 C370 C 0.31627 0.64111 -0.15528
 C371 C 0.33591 0.62058 -0.12883
 C372 C 0.37705 0.62379 -0.12202
 C373 C 0.39851 0.64762 -0.14170
 C374 C 0.37885 0.66816 -0.16816
 C375 C 0.39723 0.60283 -0.09477
 C376 C 0.41455 0.58561 -0.07196
 H377 H 0.28442 0.63839 -0.16038
 H378 H 0.31906 0.60225 -0.11374
 H379 H 0.43036 0.65030 -0.13658
 H380 H 0.39568 0.68647 -0.18328
 C381 C 1.20090 -0.19896 -0.22444
 C382 C 1.18491 -0.18089 -0.20161
 C383 C 1.16478 -0.16079 -0.17416
 C384 C 1.17283 -0.12199 -0.16468
 C385 C 1.15283 -0.10265 -0.13802
 C386 C 1.12477 -0.12209 -0.12081
 C387 C 1.11680 -0.16090 -0.13027
 C388 C 1.13678 -0.18022 -0.15691
 C389 C 1.10405 -0.10210 -0.09355
 C390 C 1.08688 -0.08489 -0.07080
 H391 H 1.19442 -0.10673 -0.17790
 H392 H 1.15918 -0.07259 -0.13085
 H393 H 1.09515 -0.17616 -0.11711
 H394 H 1.13036 -0.21025 -0.16409
 C395 C 1.20152 0.30209 0.27597
 C396 C 1.18455 0.32036 0.29844
 C397 C 1.16279 0.34044 0.32535
 C398 C 1.17721 0.37317 0.34087
 C399 C 1.15597 0.39190 0.36733
 C400 C 1.12029 0.37795 0.37832
 C401 C 1.10586 0.34534 0.36271
 C402 C 1.12705 0.32665 0.33632
 C403 C 1.09860 0.39664 0.40578
 C404 C 1.08027 0.41187 0.42884
 H405 H 1.20485 0.38403 0.33263
 H406 H 1.16742 0.41709 0.37925
 H407 H 1.07835 0.33427 0.37102
 H408 H 1.11566 0.30133 0.32453
 C409 C 0.70157 -0.19623 0.27529
 C410 C 0.68623 -0.17886 0.29867
 C411 C 0.66703 -0.15991 0.32695
 C412 C 0.65562 -0.11702 0.32870
 C413 C 0.63540 -0.09914 0.35584
 C414 C 0.62652 -0.12411 0.38125
 C415 C 0.63826 -0.16692 0.37957
 C416 C 0.65846 -0.18477 0.35249
 C417 C 0.60469 -0.10607 0.40882
 C418 C 0.58616 -0.09135 0.43193
 H419 H 0.66198 -0.09753 0.30904
 H420 H 0.62640 -0.06598 0.35691
 H421 H 0.63149 -0.18651 0.39905
 H422 H 0.66702 -0.21798 0.35132
 C423 C 0.70658 0.30088 -0.22532
 C424 C 0.69121 0.31856 -0.20202
 C425 C 0.67154 0.33841 -0.17418
 C426 C 0.65057 0.37898 -0.17605
 C427 C 0.62932 0.39726 -0.14947
 C428 C 0.62888 0.37501 -0.12091
 C429 C 0.65025 0.33462 -0.11894
 C430 C 0.67150 0.31636 -0.14551
 C431 C 0.60601 0.39329 -0.09381
 C432 C 0.58684 0.40840 -0.07106
 H433 H 0.65019 0.39624 -0.19815
 H434 H 0.61290 0.42850 -0.15127
 H435 H 0.65012 0.31712 -0.09700
 H436 H 0.68741 0.28490 -0.14383
 C437 C 1.20197 0.20125 -0.18893
 C438 C 1.18167 0.18167 -0.17283
 C439 C 1.15749 0.15877 -0.15322
 C440 C 1.17447 0.11955 -0.14197
 C441 C 1.15165 0.09819 -0.12154
 C442 C 1.11179 0.11599 -0.11235
 C443 C 1.09457 0.15493 -0.12402
 C444 C 1.11738 0.17628 -0.14444
 C445 C 1.08964 0.09555 -0.08938
 C446 C 1.07175 0.07920 -0.06920
 H447 H 1.20552 0.10582 -0.14856
 H448 H 1.16534 0.06821 -0.11245
 H449 H 1.06387 0.16907 -0.11686
 H450 H 1.10404 0.20665 -0.15296
 C451 C 1.20188 0.69923 0.31076
 C452 C 1.18248 0.67976 0.32777
 C453 C 1.15974 0.65715 0.34891
 C454 C 1.15957 0.66531 0.38172
 C455 C 1.13782 0.64344 0.40254
 C456 C 1.11609 0.61326 0.39069
 C457 C 1.11613 0.60507 0.35784
 C458 C 1.13795 0.62701 0.33696
 C459 C 1.09412 0.59084 0.41256
 C460 C 1.07646 0.57305 0.43205
 H461 H 1.17631 0.68854 0.39121
 H462 H 1.13800 0.65002 0.42789
 H463 H 1.09943 0.58179 0.34843
 H464 H 1.13788 0.62047 0.31161
 C465 C 0.70219 0.19580 0.31242
 C466 C 0.68307 0.17535 0.32873
 C467 C 0.66043 0.15130 0.34857
 C468 C 0.67858 0.11184 0.35853
 C469 C 0.65738 0.08933 0.37929
 C470 C 0.61798 0.10626 0.39009
 C471 C 0.59954 0.14542 0.37967
 C472 C 0.62073 0.16790 0.35892
 C473 C 0.59767 0.08475 0.41350
 C474 C 0.58122 0.06763 0.43405
 H475 H 0.70932 0.09881 0.35069
 H476 H 0.67198 0.05918 0.38741
 H477 H 0.56919 0.15885 0.38810
 H478 H 0.60652 0.19845 0.35138
 C479 C 0.70555 0.69676 -0.18919
 C480 C 0.68592 0.67639 -0.17311
 C481 C 0.66256 0.65250 -0.15353
 C482 C 0.62254 0.66921 -0.14392
 C483 C 0.60057 0.64688 -0.12355
 C484 C 0.61853 0.60772 -0.11274
 C485 C 0.65830 0.59072 -0.12277
 C486 C 0.68027 0.61306 -0.14315
 C487 C 0.59731 0.58620 -0.08976
 C488 C 0.58025 0.56894 -0.06956
 H489 H 0.60860 0.69973 -0.15176
 H490 H 0.56995 0.66042 -0.11576
 H491 H 0.67258 0.56058 -0.11437
 H492 H 0.71123 0.59989 -0.15038
 C493 C 0.79947 -0.20501 -0.19339
 C494 C 0.82020 -0.18364 -0.17920
 C495 C 0.84398 -0.15921 -0.16019
 C496 C 0.88423 -0.17561 -0.15063
 C497 C 0.90557 -0.15400 -0.12912
 C498 C 0.88678 -0.11588 -0.11697
 C499 C 0.84691 -0.09902 -0.12713
 C500 C 0.82558 -0.12062 -0.14865
 C501 C 0.90723 -0.09550 -0.09256
 C502 C 0.92385 -0.07924 -0.07138
 H503 H 0.89865 -0.20559 -0.15908
 H504 H 0.93626 -0.16751 -0.12132
 H505 H 0.83193 -0.06971 -0.11779
 H506 H 0.79433 -0.10780 -0.15555
 C507 C 0.79836 0.29700 0.30803
 C508 C 0.81881 0.31877 0.32196
 C509 C 0.84211 0.34370 0.34073
 C510 C 0.82390 0.38325 0.35034
 C511 C 0.84429 0.40539 0.37206
 C512 C 0.88296 0.38804 0.38430
 C513 C 0.90170 0.34900 0.37398
 C514 C 0.88131 0.32686 0.35226
 C515 C 0.90188 0.40891 0.40915
 C516 C 0.91693 0.42582 0.43070
 H517 H 0.79340 0.39639 0.34187
 H518 H 0.82939 0.43544 0.38003
 H519 H 0.93147 0.33518 0.38344
 H520 H 0.89547 0.29612 0.34528
 C521 C 0.30042 -0.20192 0.30667
 C522 C 0.32126 -0.18097 0.32117
 C523 C 0.34494 -0.15702 0.34068
 C524 C 0.32748 -0.11737 0.35064
 C525 C 0.34825 -0.09607 0.37275
 C526 C 0.38659 -0.11431 0.38510
 C527 C 0.40453 -0.15354 0.37455
 C528 C 0.38375 -0.17484 0.35243
 C529 C 0.40614 -0.09392 0.41001
 C530 C 0.42167 -0.07722 0.43152
 H531 H 0.29729 -0.10344 0.34205
 H532 H 0.33392 -0.06587 0.38084
 H533 H 0.43402 -0.16809 0.38404
 H534 H 0.39738 -0.20565 0.34523
 C535 C 0.29932 0.29818 -0.19453
 C536 C 0.32036 0.31916 -0.18032
 C537 C 0.34429 0.34321 -0.16121
 C538 C 0.32693 0.38291 -0.15133
 C539 C 0.34792 0.40430 -0.12947
 C540 C 0.38638 0.38608 -0.11734
 C541 C 0.40425 0.34683 -0.12787
 C542 C 0.38324 0.32544 -0.14973
 C543 C 0.40601 0.40640 -0.09250
 C544 C 0.42153 0.42302 -0.07099
 H545 H 0.29663 0.39678 -0.15974
 H546 H 0.33367 0.43451 -0.12135
 H547 H 0.43383 0.33232 -0.11851
 H548 H 0.39677 0.29457 -0.15690
 C549 C 1.20289 -0.19856 0.22401
 C550 C 1.18610 -0.17945 0.20171
 C551 C 1.16492 -0.15798 0.17491
 C552 C 1.18518 -0.15641 0.14563
 C553 C 1.16380 -0.13765 0.11913
 C554 C 1.12203 -0.12045 0.12177
 C555 C 1.10189 -0.12168 0.15114
 C556 C 1.12328 -0.14042 0.17763
 C557 C 1.09971 -0.10222 0.09425
 C558 C 1.08115 -0.08715 0.07109
 H559 H 1.21729 -0.17013 0.14318
 H560 H 1.17968 -0.13695 0.09653
 H561 H 1.06960 -0.10855 0.15346
 H562 H 1.10721 -0.14170 0.20009
 C563 C 1.20525 0.30192 0.72386
 C564 C 1.18912 0.32022 0.70100
 C565 C 1.16877 0.34075 0.67358
 C566 C 1.17627 0.32366 0.64311
 C567 C 1.15497 0.34240 0.61660
 C568 C 1.12602 0.37825 0.62048
 C569 C 1.11871 0.39549 0.65092
 C570 C 1.13999 0.37674 0.67743
 C571 C 1.10419 0.39767 0.59323
 C572 C 1.08625 0.41459 0.57050
 H573 H 1.19828 0.29570 0.63989
 H574 H 1.16095 0.32889 0.59315
 H575 H 1.09647 0.42328 0.65417
 H576 H 1.13378 0.39008 0.70091
 C577 C 0.70777 -0.20427 0.72685
 C578 C 0.69099 -0.18633 0.70405
 C579 C 0.66968 -0.16593 0.67690
 C580 C 0.69017 -0.14292 0.65587
 C581 C 0.66931 -0.12359 0.62936
 C582 C 0.62791 -0.12724 0.62374
 C583 C 0.60743 -0.15025 0.64478
 C584 C 0.62828 -0.16956 0.67127
 C585 C 0.60643 -0.10708 0.59657
 C586 C 0.58883 -0.08968 0.57385
 H587 H 0.72219 -0.13998 0.65993
 H588 H 0.68543 -0.10582 0.61326
 H589 H 0.57543 -0.15325 0.64071
 H590 H 0.61215 -0.18736 0.68734
 C591 C 0.70094 0.29832 0.22610
 C592 C 0.68427 0.31685 0.20357
 C593 C 0.66371 0.33758 0.17637
 C594 C 0.68049 0.36883 0.16083
 C595 C 0.66084 0.38809 0.13386
 C596 C 0.62441 0.37610 0.12235
 C597 C 0.60754 0.34498 0.13798
 C598 C 0.62717 0.32574 0.16494
 C599 C 0.60446 0.39569 0.09448
 C600 C 0.58808 0.41253 0.07116
 H601 H 0.70879 0.37812 0.16944
 H602 H 0.67410 0.41216 0.12193
 H603 H 0.57937 0.33550 0.12927
 H604 H 0.61403 0.30150 0.17675
 C605 C 0.80072 0.20114 0.22448
 C606 C 0.81872 0.18557 0.20144
 C607 C 0.83890 0.16601 0.17379
 C608 C 0.83814 0.18756 0.14485
 C609 C 0.85630 0.16788 0.11764
 C610 C 0.87515 0.12656 0.11929
 C611 C 0.87602 0.10506 0.14825
 C612 C 0.85787 0.12474 0.17545
 C613 C 0.89436 0.10647 0.09146
 C614 C 0.91126 0.08984 0.06837
 H615 H 0.82331 0.21941 0.14329
 H616 H 0.85561 0.18480 0.09536
 H617 H 0.89064 0.07314 0.14978
 H618 H 0.85838 0.10774 0.19768
 C619 C 0.80231 0.70462 0.72617
 C620 C 0.82029 0.68916 0.70302
 C621 C 0.84058 0.66940 0.67535
 C622 C 0.82713 0.68229 0.64464
 C623 C 0.84502 0.66136 0.61779
 C624 C 0.87640 0.62739 0.62153
 C625 C 0.89018 0.61479 0.65223
 C626 C 0.87229 0.63572 0.67908
 C627 C 0.89389 0.60501 0.59394
 C628 C 0.90841 0.58618 0.57084
 H629 H 0.80246 0.70811 0.64147
 H630 H 0.83408 0.67136 0.59418
 H631 H 0.91438 0.58854 0.65542
 H632 H 0.88275 0.62529 0.70271
 C633 C 0.30430 0.20361 0.72497
 C634 C 0.32315 0.18744 0.70248
 C635 C 0.34418 0.16707 0.67541
 C636 C 0.33666 0.18371 0.64473
 C637 C 0.35487 0.16246 0.61815
 C638 C 0.38059 0.12446 0.62214
 C639 C 0.38853 0.10807 0.65286
 C640 C 0.37032 0.12932 0.67944
 C641 C 0.39813 0.10193 0.59471
 C642 C 0.41265 0.08305 0.57167
 H643 H 0.31626 0.21272 0.64133
 H644 H 0.34850 0.17539 0.59450
 H645 H 0.40833 0.07869 0.65621
 H646 H 0.37610 0.11604 0.70303
 C647 C 0.30260 0.70206 0.22333
 C648 C 0.32143 0.68585 0.20080
 C649 C 0.34259 0.66542 0.17374
 C650 C 0.33655 0.68284 0.14319
 C651 C 0.35506 0.66173 0.11663
 C652 C 0.37965 0.62305 0.12049
 C653 C 0.38606 0.60584 0.15109
 C654 C 0.36755 0.62696 0.17764
 C655 C 0.39761 0.60071 0.09304
 C656 C 0.41246 0.58199 0.07001
 H657 H 0.31709 0.71242 0.13985
 H658 H 0.34984 0.67532 0.09309
 H659 H 0.40496 0.57595 0.15436
 H660 H 0.37223 0.61305 0.20111
   
