data_POSCAR
  _audit_creation_date              2014-09-24
  _audit_creation_method            'ToBaCCo'
  _symmetry_space_group_name_H-M    'P1'
  _symmetry_Int_Tables_number       1
  _symmetry_cell_setting            triclinic
  loop_
  _symmetry_equiv_pos_as_xyz
 x,y,z
_cell_length_a 59.5892
_cell_length_b 59.5509
_cell_length_c 20.8458
_cell_angle_alpha 89.959500
_cell_angle_beta 90.018600
_cell_angle_gamma 119.974500
loop_
  _atom_site_label
  _atom_site_type_symbol
  _atom_site_fract_x
  _atom_site_fract_y
  _atom_site_fract_z
O1 O 0.25114 0.45937 0.55999
 O2 O 0.20702 0.45945 0.43610
 O3 O 0.25091 0.45945 0.43544
 O4 O 0.20730 0.45947 0.56065
 O5 O 0.22878 0.50235 0.56059
 O6 O 0.27232 0.50233 0.43549
 O7 O 0.22847 0.50232 0.43615
 O8 O 0.27256 0.50224 0.55992
 Cu9 Cu 0.22693 0.45511 0.49804
 Cu10 Cu 0.25269 0.50663 0.49803
 C11 C 0.26945 0.48080 0.58040
 C12 C 0.21014 0.48091 0.41568
 C13 C 0.26914 0.48090 0.41483
 C14 C 0.21054 0.48093 0.58129
 O15 O 0.54054 -0.25270 0.43787
 O16 O 0.54062 -0.20859 0.56197
 O17 O 0.54047 -0.25259 0.56243
 O18 O 0.54057 -0.20877 0.43743
 O19 O 0.49773 -0.23015 0.43746
 O20 O 0.49763 -0.27390 0.56236
 O21 O 0.49778 -0.22995 0.56190
 O22 O 0.49770 -0.27403 0.43791
 Cu23 Cu 0.54487 -0.22851 0.49994
 Cu24 Cu 0.49339 -0.25416 0.49991
 C25 C 0.51910 -0.27097 0.41738
 C26 C 0.51921 -0.21167 0.58239
 C27 C 0.51901 -0.27081 0.58302
 C28 C 0.51915 -0.21192 0.41683
 O29 O 1.20822 0.74875 0.56035
 O30 O 1.25247 0.79283 0.43648
 O31 O 1.20854 0.74898 0.43580
 O32 O 1.25219 0.79254 0.56103
 O33 O 1.27347 0.77094 0.56112
 O34 O 1.22988 0.72745 0.43600
 O35 O 1.27376 0.77125 0.43668
 O36 O 1.22954 0.72720 0.56044
 Cu37 Cu 1.22820 0.77295 0.49840
 Cu38 Cu 1.25381 0.74704 0.49856
 C39 C 1.21126 0.73038 0.58084
 C40 C 1.27075 0.78964 0.41614
 C41 C 1.21169 0.73069 0.41526
 C42 C 1.27036 0.78923 0.58174
 O43 O 0.79188 0.54084 0.43954
 O44 O 0.74755 0.54076 0.56299
 O45 O 0.79144 0.54076 0.56409
 O46 O 0.74794 0.54074 0.43844
 O47 O 0.72661 0.49786 0.43850
 O48 O 0.77004 0.49789 0.56404
 O49 O 0.72619 0.49789 0.56294
 O50 O 0.77050 0.49797 0.43961
 Cu51 Cu 0.77186 0.54510 0.50127
 Cu52 Cu 0.74618 0.49358 0.50128
 C53 C 0.78882 0.51940 0.41921
 C54 C 0.72922 0.51930 0.58334
 C55 C 0.78823 0.51931 0.58477
 C56 C 0.72977 0.51928 0.41773
 O57 O 0.45957 0.25136 0.43974
 O58 O 0.45972 0.20715 0.56340
 O59 O 0.45971 0.25107 0.56428
 O60 O 0.45968 0.20751 0.43884
 O61 O 0.50252 0.22900 0.43871
 O62 O 0.50256 0.27250 0.56403
 O63 O 0.50256 0.22862 0.56315
 O64 O 0.50241 0.27281 0.43960
 Cu65 Cu 0.45534 0.22710 0.50160
 Cu66 Cu 0.50683 0.25289 0.50136
 C67 C 0.48097 0.26970 0.41925
 C68 C 0.48117 0.21026 0.58367
 C69 C 0.48116 0.26931 0.58482
 C70 C 0.48111 0.21076 0.41807
 O71 O 0.74869 0.20806 0.44012
 O72 O 0.79288 0.25242 0.56358
 O73 O 0.74904 0.20849 0.56467
 O74 O 0.79248 0.25203 0.43903
 O75 O 0.77094 0.27337 0.43895
 O76 O 0.72756 0.22989 0.56447
 O77 O 0.77137 0.27378 0.56339
 O78 O 0.72720 0.22944 0.44004
 Cu79 Cu 0.77294 0.22809 0.50187
 Cu80 Cu 0.74710 0.25377 0.50170
 C81 C 0.73033 0.21111 0.41970
 C82 C 0.78974 0.27075 0.58386
 C83 C 0.73080 0.21169 0.58528
 C84 C 0.78919 0.27020 0.41826
 N85 N 0.97273 0.52659 0.06939
 N86 N 0.95366 0.53142 0.07962
 N87 N 1.02728 0.53812 0.11305
 N88 N 1.04648 0.55083 0.15381
 N89 N 1.02726 0.55382 0.06886
 N90 N 1.04647 0.57768 0.07843
 N91 N 0.97281 0.51090 0.11352
 N92 N 0.95384 0.50461 0.15488
 C93 C 0.94197 0.51747 0.13309
 C94 C 1.05835 0.57549 0.13156
 N95 N 1.02724 0.47410 0.06885
 N96 N 1.04632 0.46926 0.07879
 N97 N 0.97280 0.46259 0.11338
 N98 N 0.95370 0.44990 0.15441
 N99 N 0.97271 0.44687 0.06915
 N100 N 0.95353 0.42301 0.07896
 N101 N 1.02726 0.48980 0.11302
 N102 N 1.04632 0.49610 0.15411
 Mn103 Mn 1.00004 0.50035 0.11393
 C104 C 1.05813 0.48323 0.13212
 C105 C 0.94178 0.42523 0.13229
 N106 N 1.02711 0.55381 -0.06947
 N107 N 1.04623 0.57769 -0.07960
 N108 N 0.97254 0.51086 -0.11317
 N109 N 0.95332 0.50440 -0.15386
 N110 N 0.97258 0.52656 -0.06893
 N111 N 0.95337 0.53123 -0.07840
 N112 N 1.02700 0.53806 -0.11365
 N113 N 1.04601 0.55075 -0.15493
 Mn114 Mn 0.99992 0.54049 -0.00004
 C115 C 1.05791 0.57545 -0.13306
 C116 C 0.94147 0.51718 -0.13153
 N117 N 0.97252 0.44681 -0.06919
 N118 N 0.95345 0.42290 -0.07924
 N119 N 1.02697 0.48974 -0.11369
 N120 N 1.04605 0.49615 -0.15479
 N121 N 1.02705 0.47407 -0.06950
 N122 N 1.04620 0.46936 -0.07941
 N123 N 0.97251 0.46254 -0.11332
 N124 N 0.95347 0.44981 -0.15448
 Mn125 Mn 0.99988 0.46017 -0.00017
 Mn126 Mn 0.99975 0.50030 -0.11414
 Cl127 Cl 0.99990 0.50033 -0.00011
 C128 C 0.94166 0.42510 -0.13258
 C129 C 1.05794 0.48335 -0.13275
 N130 N 0.51017 0.53757 -0.11413
 N131 N 0.50377 0.55026 -0.15525
 N132 N 0.55316 0.52608 -0.06973
 N133 N 0.57707 0.53093 -0.07980
 N134 N 0.53746 0.51035 -0.11385
 N135 N 0.55020 0.50406 -0.15502
 N136 N 0.52581 0.55330 -0.06995
 N137 N 0.53050 0.57717 -0.07988
 C138 C 0.51652 0.57495 -0.13323
 C139 C 0.57489 0.51696 -0.13314
 N140 N 0.53739 0.51046 0.11284
 N141 N 0.55010 0.50405 0.15386
 N142 N 0.52578 0.55339 0.06842
 N143 N 0.53060 0.57730 0.07851
 N144 N 0.51009 0.53766 0.11258
 N145 N 0.50380 0.55039 0.15381
 N146 N 0.55309 0.52613 0.06861
 N147 N 0.57695 0.53083 0.07840
 Mn148 Mn 0.53974 0.54001 -0.00066
 C149 C 0.57476 0.51684 0.13172
 C150 C 0.51665 0.57509 0.13191
 N151 N 0.48922 0.46203 -0.11368
 N152 N 0.49573 0.44931 -0.15439
 N153 N 0.44622 0.47358 -0.06989
 N154 N 0.42233 0.46878 -0.08000
 N155 N 0.46194 0.48925 -0.11408
 N156 N 0.44923 0.49556 -0.15535
 N157 N 0.47356 0.44635 -0.06944
 N158 N 0.46896 0.42249 -0.07890
 Mn159 Mn 0.49970 0.49980 -0.11462
 C160 C 0.48301 0.42467 -0.13204
 C161 C 0.42454 0.48272 -0.13346
 N162 N 0.46187 0.48934 0.11263
 N163 N 0.44913 0.49580 0.15341
 N164 N 0.47351 0.44638 0.06888
 N165 N 0.46873 0.42249 0.07912
 N166 N 0.48917 0.46214 0.11300
 N167 N 0.49549 0.44945 0.15435
 N168 N 0.44620 0.47364 0.06844
 N169 N 0.42233 0.46896 0.07803
 Mn170 Mn 0.49963 0.49990 0.11345
 Mn171 Mn 0.45958 0.45970 -0.00050
 Cl172 Cl 0.49966 0.49985 -0.00059
 C173 C 0.42449 0.48301 0.13117
 C174 C 0.48268 0.42474 0.13257
 N175 N 0.44685 -0.02749 0.06925
 N176 N 0.42294 -0.04658 0.07920
 N177 N 0.48975 0.02699 0.11370
 N178 N 0.49616 0.04610 0.15468
 N179 N 0.47413 0.02707 0.06941
 N180 N 0.46946 0.04627 0.07913
 N181 N 0.46252 -0.02751 0.11349
 N182 N 0.44976 -0.04658 0.15462
 C183 C 0.42510 -0.05839 0.13259
 C184 C 0.48342 0.05803 0.13247
 N185 N 0.55378 0.02705 0.06994
 N186 N 0.57766 0.04613 0.08018
 N187 N 0.51079 -0.02753 0.11370
 N188 N 0.50432 -0.04673 0.15455
 N189 N 0.52650 -0.02752 0.06957
 N190 N 0.53118 -0.04672 0.07927
 N191 N 0.53802 0.02697 0.11402
 N192 N 0.55069 0.04596 0.15534
 Mn193 Mn 0.50027 -0.00027 0.11441
 C194 C 0.57540 0.05784 0.13359
 C195 C 0.51712 -0.05859 0.13243
 N196 N 0.47427 0.02724 -0.06894
 N197 N 0.46945 0.04633 -0.07907
 N198 N 0.46275 -0.02727 -0.11322
 N199 N 0.45007 -0.04636 -0.15429
 N200 N 0.44701 -0.02733 -0.06909
 N201 N 0.42316 -0.04648 -0.07901
 N202 N 0.48999 0.02723 -0.11301
 N203 N 0.49632 0.04629 -0.15422
 Mn204 Mn 0.46028 -0.00013 0.00016
 C205 C 0.48344 0.05812 -0.13240
 C206 C 0.42540 -0.05824 -0.13229
 N207 N 0.52664 -0.02740 -0.06876
 N208 N 0.53140 -0.04653 -0.07876
 N209 N 0.53825 0.02719 -0.11268
 N210 N 0.55099 0.04643 -0.15341
 N211 N 0.55390 0.02717 -0.06839
 N212 N 0.57775 0.04640 -0.07784
 N213 N 0.51101 -0.02730 -0.11300
 N214 N 0.50469 -0.04634 -0.15420
 Mn215 Mn 0.54049 -0.00018 0.00059
 Mn216 Mn 0.50050 -0.00004 -0.11367
 Cl217 Cl 0.50038 -0.00015 0.00037
 C218 C 0.51748 -0.05825 -0.13221
 C219 C 0.57561 0.05830 -0.13103
 C220 C 1.11180 0.49877 0.25134
 C221 C 1.12169 0.48328 0.22904
 C222 C 1.11124 0.46823 0.17376
 C223 C 1.09075 0.46845 0.14138
 C224 C 1.19301 0.48099 0.37284
 C225 C 1.09136 0.49899 0.21917
 C226 C 1.14190 0.48230 0.26463
 C227 C 1.15845 0.48170 0.29666
 C228 C 1.17733 0.48122 0.33665
 C229 C 1.08048 0.48368 0.16418
 H230 H 1.11970 0.51045 0.29411
 H231 H 1.11871 0.45612 0.15615
 H232 H 1.08275 0.45649 0.09911
 H233 H 1.08389 0.51095 0.23777
 C234 C 0.50115 0.61309 0.25164
 C235 C 0.51666 0.63849 0.22957
 C236 C 0.53171 0.64316 0.17425
 C237 C 0.53146 0.62249 0.14161
 C238 C 0.51901 0.71188 0.37436
 C239 C 0.50090 0.59245 0.21921
 C240 C 0.51767 0.65964 0.26543
 C241 C 0.51829 0.67673 0.29771
 C242 C 0.51878 0.69603 0.33797
 C243 C 0.51621 0.59696 0.16419
 H244 H 0.48946 0.60924 0.29444
 H245 H 0.54384 0.66277 0.15681
 H246 H 0.54343 0.62651 0.09932
 H247 H 0.48892 0.57299 0.23765
 C248 C 0.35703 -0.11150 0.17418
 C249 C 0.36162 -0.12195 0.22954
 C250 C 0.38697 -0.11206 0.25191
 C251 C 0.40763 -0.09162 0.21973
 C252 C 0.28798 -0.19325 0.37331
 C253 C 0.37774 -0.09102 0.14179
 C254 C 0.34043 -0.14216 0.26513
 C255 C 0.32328 -0.15870 0.29716
 C256 C 0.30390 -0.17758 0.33714
 C257 C 0.40321 -0.08074 0.16466
 H258 H 0.33748 -0.11897 0.15651
 H259 H 0.39074 -0.11996 0.29475
 H260 H 0.42704 -0.08415 0.23839
 H261 H 0.37378 -0.08302 0.09945
 C262 C 0.88880 0.53230 0.17515
 C263 C 0.87848 0.51731 0.23060
 C264 C 0.88849 0.50192 0.25293
 C265 C 0.90893 0.50174 0.22059
 C266 C 0.80697 0.51937 0.37403
 C267 C 0.90927 0.53213 0.14261
 C268 C 0.85824 0.51820 0.26623
 C269 C 0.84166 0.51876 0.29821
 C270 C 0.82272 0.51918 0.33805
 C271 C 0.91967 0.51700 0.16541
 H272 H 0.88123 0.54433 0.15750
 H273 H 0.88069 0.49027 0.29582
 H274 H 0.91649 0.48985 0.23920
 H275 H 0.91716 0.54405 0.10019
 C276 C 0.49830 0.38680 0.25244
 C277 C 0.48294 0.36140 0.23019
 C278 C 0.46794 0.35673 0.17477
 C279 C 0.46808 0.37738 0.14219
 C280 C 0.48097 0.28787 0.37397
 C281 C 0.49845 0.40742 0.22006
 C282 C 0.48206 0.34027 0.26589
 C283 C 0.48154 0.32315 0.29795
 C284 C 0.48114 0.30379 0.33789
 C285 C 0.48319 0.40290 0.16491
 H286 H 0.50995 0.39065 0.29531
 H287 H 0.45593 0.33714 0.15719
 H288 H 0.45616 0.37336 0.09980
 H289 H 0.51032 0.42686 0.23861
 C290 C 0.61328 0.11136 0.25333
 C291 C 0.63867 0.12138 0.23106
 C292 C 0.64335 0.11104 0.17568
 C293 C 0.62272 0.09055 0.14315
 C294 C 0.71216 0.19294 0.37452
 C295 C 0.59269 0.09091 0.22100
 C296 C 0.65978 0.14164 0.26669
 C297 C 0.67689 0.15823 0.29868
 C298 C 0.69625 0.17719 0.33853
 C299 C 0.59721 0.08016 0.16589
 H300 H 0.60943 0.11918 0.29617
 H301 H 0.66293 0.11861 0.15808
 H302 H 0.62675 0.08265 0.10078
 H303 H 0.57325 0.08335 0.23956
 C304 C 0.49901 0.11177 -0.25195
 C305 C 0.48355 0.12169 -0.22974
 C306 C 0.46850 0.11127 -0.17443
 C307 C 0.46870 0.09078 -0.14192
 C308 C 0.48128 0.19310 -0.37357
 C309 C 0.49922 0.09131 -0.21965
 C310 C 0.48260 0.14192 -0.26542
 C311 C 0.48200 0.15848 -0.29747
 C312 C 0.48152 0.17740 -0.33744
 C313 C 0.48391 0.08047 -0.16462
 H314 H 0.51070 0.11964 -0.29474
 H315 H 0.45641 0.11877 -0.15689
 H316 H 0.45674 0.08280 -0.09963
 H317 H 0.51116 0.08382 -0.23817
 C318 C 0.61299 0.50146 -0.25258
 C319 C 0.63835 0.51695 -0.23033
 C320 C 0.64295 0.53198 -0.17502
 C321 C 0.62226 0.53175 -0.14256
 C322 C 0.71197 0.51922 -0.37396
 C323 C 0.59233 0.50123 -0.22033
 C324 C 0.65952 0.51791 -0.26594
 C325 C 0.67667 0.51851 -0.29795
 C326 C 0.69605 0.51899 -0.33787
 C327 C 0.59677 0.51653 -0.16531
 H328 H 0.60919 0.48978 -0.29537
 H329 H 0.66252 0.54408 -0.15744
 H330 H 0.62623 0.54371 -0.10027
 H331 H 0.57291 0.48927 -0.23890
 C332 C 0.88861 0.35703 -0.17444
 C333 C 0.87819 0.36166 -0.22977
 C334 C 0.88808 0.38705 -0.25204
 C335 C 0.90850 0.40770 -0.21979
 C336 C 0.80689 0.28801 -0.37344
 C337 C 0.90907 0.37772 -0.14198
 C338 C 0.85799 0.34049 -0.26540
 C339 C 0.84146 0.32334 -0.29742
 C340 C 0.82257 0.30395 -0.33734
 C341 C 0.91934 0.40323 -0.16474
 H342 H 0.88114 0.33744 -0.15685
 H343 H 0.88020 0.39086 -0.29485
 H344 H 0.91597 0.42714 -0.23836
 H345 H 0.91704 0.37373 -0.09967
 C346 C 0.50185 -0.11191 -0.25155
 C347 C 0.51718 -0.12195 -0.22904
 C348 C 0.53216 -0.11160 -0.17362
 C349 C 0.53202 -0.09106 -0.14129
 C350 C 0.51918 -0.19355 -0.37229
 C351 C 0.50171 -0.09140 -0.21942
 C352 C 0.51805 -0.14224 -0.26452
 C353 C 0.51859 -0.15885 -0.29642
 C354 C 0.51900 -0.17781 -0.33625
 C355 C 0.51696 -0.08063 -0.16428
 H356 H 0.49021 -0.11973 -0.29443
 H357 H 0.54414 -0.11919 -0.15585
 H358 H 0.54393 -0.08314 -0.09890
 H359 H 0.48987 -0.08382 -0.23817
 C360 C 0.38653 0.49831 -0.25308
 C361 C 0.36116 0.48292 -0.23070
 C362 C 0.35654 0.46792 -0.17527
 C363 C 0.37720 0.46808 -0.14281
 C364 C 0.28760 0.48084 -0.37428
 C365 C 0.40716 0.49848 -0.22082
 C366 C 0.34001 0.48201 -0.26630
 C367 C 0.32288 0.48146 -0.29830
 C368 C 0.30352 0.48103 -0.33820
 C369 C 0.40269 0.48321 -0.16567
 H370 H 0.39034 0.50996 -0.29596
 H371 H 0.33697 0.45589 -0.15759
 H372 H 0.37322 0.45616 -0.10041
 H373 H 0.42658 0.51037 -0.23947
 C374 C 1.11150 0.61338 -0.25264
 C375 C 1.12155 0.63876 -0.23028
 C376 C 1.11122 0.64343 -0.17487
 C377 C 1.09070 0.62279 -0.14242
 C378 C 1.19312 0.71225 -0.37385
 C379 C 1.09102 0.59277 -0.22040
 C380 C 1.14182 0.65989 -0.26587
 C381 C 1.15842 0.67701 -0.29787
 C382 C 1.17738 0.69635 -0.33777
 C383 C 1.08027 0.59728 -0.16527
 H384 H 1.11931 0.60953 -0.29551
 H385 H 1.11881 0.66302 -0.15721
 H386 H 1.08280 0.62681 -0.10004
 H387 H 1.08343 0.57333 -0.23903
 C388 C 0.88732 0.50133 -0.24930
 C389 C 0.87743 0.51674 -0.22647
 C390 C 0.88800 0.53179 -0.17127
 C391 C 0.90864 0.53167 -0.13952
 C392 C 0.80615 0.51923 -0.36945
 C393 C 0.90793 0.50121 -0.21775
 C394 C 0.85715 0.51773 -0.26157
 C395 C 0.84060 0.51839 -0.29333
 C396 C 0.82175 0.51895 -0.33318
 C397 C 0.91894 0.51655 -0.16290
 H398 H 0.87931 0.48965 -0.29205
 H399 H 0.88052 0.54384 -0.15330
 H400 H 0.91675 0.54365 -0.09732
 H401 H 0.91542 0.48933 -0.23675
 C402 C 0.46861 0.35664 -0.17164
 C403 C 0.48364 0.36114 -0.22688
 C404 C 0.49897 0.38644 -0.24981
 C405 C 0.49903 0.40716 -0.21830
 C406 C 0.48125 0.28734 -0.36951
 C407 C 0.46867 0.37738 -0.13993
 C408 C 0.48271 0.33989 -0.26192
 C409 C 0.48208 0.32267 -0.29360
 C410 C 0.48153 0.30325 -0.33334
 C411 C 0.48370 0.40280 -0.16339
 H412 H 0.45662 0.33711 -0.15359
 H413 H 0.51063 0.39013 -0.29260
 H414 H 0.51085 0.42653 -0.23737
 H415 H 0.45670 0.37349 -0.09768
 C416 C 0.64362 0.11183 -0.17073
 C417 C 0.63913 0.12240 -0.22596
 C418 C 0.61385 0.11249 -0.24885
 C419 C 0.59314 0.09186 -0.21731
 C420 C 0.71282 0.19376 -0.36894
 C421 C 0.62288 0.09117 -0.13898
 C422 C 0.66037 0.14270 -0.26106
 C423 C 0.67757 0.15928 -0.29282
 C424 C 0.69695 0.17815 -0.33267
 C425 C 0.59748 0.08084 -0.16240
 H426 H 0.66313 0.11932 -0.15271
 H427 H 0.61017 0.12050 -0.29164
 H428 H 0.57378 0.08435 -0.23634
 H429 H 0.62675 0.08305 -0.09674
 C430 C 1.11166 0.49901 -0.25173
 C431 C 1.12161 0.48361 -0.22913
 C432 C 1.11122 0.46862 -0.17373
 C433 C 1.09070 0.46879 -0.14152
 C434 C 1.19263 0.48103 -0.37297
 C435 C 1.09118 0.49919 -0.21973
 C436 C 1.14179 0.48259 -0.26461
 C437 C 1.15827 0.48191 -0.29660
 C438 C 1.17706 0.48133 -0.33664
 C439 C 1.08034 0.48391 -0.16464
 H440 H 1.11953 0.51064 -0.29463
 H441 H 1.11874 0.45658 -0.15592
 H442 H 1.08272 0.45686 -0.09916
 H443 H 1.08364 0.51107 -0.23854
 C444 C 0.53123 0.64298 -0.17433
 C445 C 0.51627 0.63841 -0.22975
 C446 C 0.50090 0.61307 -0.25232
 C447 C 0.50071 0.59238 -0.22027
 C448 C 0.51889 0.71207 -0.37382
 C449 C 0.53105 0.62226 -0.14207
 C450 C 0.51730 0.65962 -0.26529
 C451 C 0.51799 0.67681 -0.29733
 C452 C 0.51858 0.69619 -0.33742
 C453 C 0.51596 0.59680 -0.16516
 H454 H 0.54325 0.66253 -0.15655
 H455 H 0.48929 0.60933 -0.29523
 H456 H 0.48886 0.57298 -0.23906
 H457 H 0.54296 0.62620 -0.09969
 C458 C 0.38733 -0.11198 -0.25123
 C459 C 0.36200 -0.12191 -0.22867
 C460 C 0.35742 -0.11150 -0.17331
 C461 C 0.37812 -0.09098 -0.14110
 C462 C 0.28838 -0.19288 -0.37252
 C463 C 0.40799 -0.09149 -0.21922
 C464 C 0.34081 -0.14208 -0.26416
 C465 C 0.32364 -0.15855 -0.29616
 C466 C 0.30426 -0.17732 -0.33619
 C467 C 0.40357 -0.08064 -0.16418
 H468 H 0.39108 -0.11986 -0.29410
 H469 H 0.33787 -0.11901 -0.15554
 H470 H 0.37417 -0.08299 -0.09876
 H471 H 0.42739 -0.08397 -0.23800
 C472 C 0.53174 -0.11203 0.17282
 C473 C 0.51670 -0.12256 0.22806
 C474 C 0.50129 -0.11264 0.25074
 C475 C 0.50117 -0.09205 0.21897
 C476 C 0.51910 -0.19392 0.37120
 C477 C 0.53162 -0.09141 0.14085
 C478 C 0.51766 -0.14283 0.26332
 C479 C 0.51831 -0.15940 0.29515
 C480 C 0.51884 -0.17828 0.33500
 C481 C 0.51650 -0.08109 0.16405
 H482 H 0.54378 -0.11953 0.15496
 H483 H 0.48961 -0.12061 0.29351
 H484 H 0.48928 -0.08454 0.23784
 H485 H 0.54359 -0.08334 0.09861
 C486 C 0.35647 0.46840 0.17116
 C487 C 0.36095 0.48343 0.22640
 C488 C 0.38625 0.49883 0.24920
 C489 C 0.40696 0.49895 0.21757
 C490 C 0.28718 0.48099 0.36920
 C491 C 0.37720 0.46852 0.13933
 C492 C 0.33971 0.48246 0.26153
 C493 C 0.32250 0.48181 0.29326
 C494 C 0.30308 0.48126 0.33304
 C495 C 0.40262 0.48362 0.16267
 H496 H 0.33695 0.45637 0.15320
 H497 H 0.38993 0.51049 0.29198
 H498 H 0.42632 0.51082 0.23654
 H499 H 0.37333 0.45656 0.09709
 C500 C 1.11182 0.64351 0.17154
 C501 C 1.12236 0.63898 0.22676
 C502 C 1.11244 0.61365 0.24955
 C503 C 1.09184 0.59296 0.21792
 C504 C 1.19372 0.71268 0.36962
 C505 C 1.09118 0.62278 0.13972
 C506 C 1.14264 0.66020 0.26190
 C507 C 1.15922 0.67740 0.29364
 C508 C 1.17809 0.69679 0.33344
 C509 C 1.08086 0.59734 0.16304
 H510 H 1.11932 0.66305 0.15360
 H511 H 1.12042 0.60994 0.29231
 H512 H 1.08433 0.57357 0.23688
 H513 H 1.08310 0.62670 0.09749
 C514 C 0.49911 0.11187 0.25111
 C515 C 0.48374 0.12183 0.22841
 C516 C 0.46876 0.11141 0.17303
 C517 C 0.46892 0.09085 0.14095
 C518 C 0.48120 0.19287 0.37223
 C519 C 0.49927 0.09134 0.21924
 C520 C 0.48272 0.14203 0.26380
 C521 C 0.48205 0.15853 0.29578
 C522 C 0.48148 0.17731 0.33584
 C523 C 0.48400 0.08048 0.16419
 H524 H 0.51073 0.11976 0.29399
 H525 H 0.45675 0.11895 0.15516
 H526 H 0.45700 0.08285 0.09861
 H527 H 0.51112 0.08379 0.23813
 C528 C 0.61291 0.50114 0.25047
 C529 C 0.63822 0.51656 0.22783
 C530 C 0.64276 0.53157 0.17247
 C531 C 0.62205 0.53139 0.14034
 C532 C 0.71180 0.51918 0.37184
 C533 C 0.59222 0.50097 0.21854
 C534 C 0.65943 0.51759 0.26328
 C535 C 0.67660 0.51828 0.29530
 C536 C 0.69596 0.51887 0.33541
 C537 C 0.59661 0.51626 0.16350
 H538 H 0.60918 0.48950 0.29334
 H539 H 0.66230 0.54362 0.15464
 H540 H 0.62596 0.54334 0.09800
 H541 H 0.57283 0.48908 0.23738
 C542 C 0.88798 0.38712 0.25106
 C543 C 0.87802 0.36179 0.22841
 C544 C 0.88843 0.35722 0.17303
 C545 C 0.90898 0.37793 0.14089
 C546 C 0.80705 0.28819 0.37238
 C547 C 0.90849 0.40780 0.21913
 C548 C 0.85783 0.34058 0.26386
 C549 C 0.84135 0.32341 0.29587
 C550 C 0.82259 0.30405 0.33596
 C551 C 0.91935 0.40339 0.16408
 H552 H 0.88010 0.39086 0.29395
 H553 H 0.88089 0.33767 0.15519
 H554 H 0.91696 0.37400 0.09855
 H555 H 0.91604 0.42720 0.23799
   
