data_POSCAR
  _audit_creation_date              2014-09-24
  _audit_creation_method            'ToBaCCo'
  _symmetry_space_group_name_H-M    'P1'
  _symmetry_Int_Tables_number       1
  _symmetry_cell_setting            triclinic
  loop_
  _symmetry_equiv_pos_as_xyz
 x,y,z
_cell_length_a 23.9379
_cell_length_b 24.0766
_cell_length_c 23.9249
_cell_angle_alpha 90.501300
_cell_angle_beta 87.265600
_cell_angle_gamma 88.890400
loop_
  _atom_site_label
  _atom_site_type_symbol
  _atom_site_fract_x
  _atom_site_fract_y
  _atom_site_fract_z
C1 C 0.00702 0.44353 0.21349
 C2 C 0.05476 0.44757 0.25292
 C3 C 0.05701 0.49968 0.28133
 C4 C 0.00841 0.53992 0.26751
 C5 C -0.04500 0.45553 0.25034
 C6 C -0.04588 0.50755 0.27866
 C7 C 0.01289 0.49317 0.17505
 C8 C 0.01305 0.54517 0.20318
 H9 H 0.08093 0.41219 0.26206
 H10 H 0.00902 0.57987 0.29088
 H11 H -0.07642 0.42430 0.25727
 H12 H 0.01533 0.48909 0.12983
 C13 C -0.01392 0.44788 0.78417
 C14 C -0.06027 0.44512 0.74771
 C15 C -0.06102 0.48571 0.70527
 C16 C -0.01059 0.52491 0.70689
 C17 C 0.03637 0.44440 0.74812
 C18 C 0.04058 0.48475 0.70563
 C19 C -0.01590 0.50395 0.80807
 C20 C -0.01378 0.54755 0.76739
 H21 H -0.09353 0.41535 0.75355
 H22 H -0.00917 0.55695 0.67377
 H23 H 0.06984 0.41429 0.75431
 H24 H -0.01523 0.51157 0.85267
 C25 C 0.21597 -0.00522 0.42745
 C26 C 0.24467 0.05023 0.42205
 C27 C 0.28178 0.06178 0.46446
 C28 C 0.28504 0.01497 0.50797
 C29 C 0.26275 -0.04815 0.43070
 C30 C 0.29983 -0.03868 0.47423
 C31 C 0.18698 -0.00396 0.48584
 C32 C 0.22409 0.00703 0.52956
 H33 H 0.23544 0.07973 0.38959
 H34 H 0.31434 0.02299 0.54159
 H35 H 0.26160 -0.08647 0.40693
 H36 H 0.14251 -0.00984 0.49238
 C37 C 0.78518 -0.00613 0.45871
 C38 C 0.74536 -0.05033 0.45737
 C39 C 0.70500 -0.05040 0.50326
 C40 C 0.71182 -0.00179 0.54408
 C41 C 0.75104 0.04787 0.46233
 C42 C 0.71103 0.05068 0.50810
 C43 C 0.81194 -0.01029 0.51519
 C44 C 0.77234 -0.00790 0.56152
 H45 H 0.75061 -0.08371 0.42690
 H46 H 0.68042 -0.00055 0.57991
 H47 H 0.76060 0.08181 0.43450
 H48 H 0.85635 -0.01748 0.51865
 C49 C 0.44746 0.20699 1.01013
 C50 C 0.43865 0.24697 1.05546
 C51 C 0.48348 0.28377 1.06289
 C52 C 0.53171 0.27472 1.01798
 C53 C 0.45747 0.23914 0.95967
 C54 C 0.50230 0.27761 0.96162
 C55 C 0.50002 0.17821 1.01972
 C56 C 0.54720 0.21269 1.02340
 H57 H 0.40217 0.24653 1.08420
 H58 H 0.56684 0.30375 1.02139
 H59 H 0.43568 0.23043 0.92208
 H60 H 0.50399 0.13328 1.02165
 C61 C 0.45119 0.79918 1.01458
 C62 C 0.45051 0.75977 0.96467
 C63 C 0.49453 0.71956 0.96222
 C64 C 0.53354 0.72524 1.01067
 C65 C 0.45160 0.76198 1.06592
 C66 C 0.49570 0.72155 1.06377
 C67 C 0.50540 0.82478 1.01117
 C68 C 0.55170 0.78606 1.00955
 H69 H 0.42135 0.76607 0.93207
 H70 H 0.56881 0.69438 1.00887
 H71 H 0.42424 0.77037 1.10237
 H72 H 0.50948 0.86939 1.01289
 B73 B 1.00794 1.05171 0.02569
 B74 B 1.03685 0.99036 0.04389
 B75 B 0.96678 1.00148 0.05219
 B76 B 0.94603 1.03943 -0.00305
 B77 B 1.00337 1.05158 -0.04456
 B78 B 1.05927 1.02175 -0.01598
 B79 B 0.98794 0.93907 -0.04338
 B80 B 0.95948 1.00088 -0.06158
 B81 B 1.02915 0.98998 -0.07019
 B82 B 1.05010 0.95210 -0.01520
 B83 B 0.99238 0.93935 0.02706
 B84 B 0.93652 0.96993 -0.00209
 B85 B 0.55513 0.50466 0.47414
 B86 B 0.49642 0.53639 0.45258
 B87 B 0.50040 0.46648 0.45501
 B88 B 0.53539 0.44875 0.51257
 B89 B 0.55439 0.50828 0.54474
 B90 B 0.52948 0.56239 0.50765
 B91 B 0.43900 0.50461 0.54783
 B92 B 0.49783 0.47243 0.57023
 B93 B 0.49428 0.54232 0.56717
 B94 B 0.45913 0.56034 0.50987
 B95 B 0.44049 0.50069 0.47731
 B96 B 0.46486 0.44634 0.51442
 C97 C 1.00076 1.38999 0.18164
 C98 C 1.04045 1.34697 0.17708
 C99 C 1.02560 1.29250 0.15476
 N100 N 1.06607 1.25409 0.14056
 N101 N 1.05261 1.20457 0.12058
 C102 C 0.99819 1.19148 0.11472
 N103 N 0.95774 1.22959 0.12966
 N104 N 0.97121 1.27919 0.14929
 C105 C 0.98283 1.13815 0.09039
 C106 C 1.02230 1.10516 0.06058
 H107 H 1.08260 1.35269 0.19007
 H108 H 0.93915 1.12759 0.09172
 H109 H 0.96084 1.38424 0.16298
 H110 H 1.06547 1.11782 0.05846
 C111 C 1.01476 0.59409 0.17196
 C112 C 1.00725 0.64791 0.19362
 C113 C 1.00652 0.69618 0.15584
 N114 N 0.99072 0.74740 0.17571
 N115 N 0.98936 0.79081 0.14145
 C116 C 1.00375 0.78457 0.08604
 N117 N 1.01980 0.73350 0.06632
 N118 N 1.02098 0.69017 0.10047
 C119 C 1.00461 0.83207 0.04766
 C120 C 0.98529 0.88499 0.06404
 H121 H 0.99919 0.65511 0.23795
 H122 H 1.02282 0.82494 0.00602
 H123 H 1.01991 0.58930 0.12690
 H124 H 0.96400 0.88949 0.10459
 C125 C 0.98484 1.40358 -0.17612
 C126 C 0.98781 1.34840 -0.19547
 C127 C 0.99145 1.30003 -0.15946
 N128 N 1.00024 1.24911 -0.18329
 N129 N 1.00338 1.20403 -0.15180
 C130 C 0.99779 1.20844 -0.09530
 N131 N 0.98903 1.25941 -0.07139
 N132 N 0.98608 1.30457 -0.10292
 C133 C 0.99842 1.15924 -0.06009
 C134 C 1.00878 1.10583 -0.08147
 H135 H 0.98958 1.34030 -0.24020
 H136 H 0.98696 1.16591 -0.01659
 H137 H 0.98380 1.41236 -0.13156
 H138 H 1.01970 1.10031 -0.12559
 C139 C 0.98884 0.60453 -0.22033
 C140 C 0.97876 0.62713 -0.16668
 C141 C 0.98585 0.68655 -0.15400
 N142 N 0.95858 0.70980 -0.10832
 N143 N 0.96623 0.76280 -0.09470
 C144 C 1.00201 0.79448 -0.12586
 N145 N 1.02971 0.77111 -0.17132
 N146 N 1.02151 0.71823 -0.18537
 C147 C 1.01311 0.85211 -0.10890
 C148 C 0.97496 0.88238 -0.07419
 H149 H 0.96288 0.60142 -0.13290
 H150 H 1.05279 0.86965 -0.12202
 H151 H 0.99785 0.63252 -0.25465
 H152 H 0.93522 0.86386 -0.06297
 C153 C 1.17964 0.98274 0.37911
 C154 C 1.20222 0.98775 0.32448
 C155 C 1.17217 0.97550 0.27410
 N156 N 1.18876 0.99983 0.22536
 N157 N 1.16288 0.98936 0.17857
 C158 C 1.12016 0.95320 0.17857
 N159 N 1.10406 0.92799 0.22712
 N160 N 1.12952 0.93909 0.27424
 C161 C 1.08935 0.94467 0.12784
 C162 C 1.07668 0.99014 0.09491
 H163 H 1.24399 1.00383 0.31808
 H164 H 1.07146 0.90464 0.12074
 H165 H 1.13786 0.96712 0.38672
 H166 H 1.09369 1.02986 0.10602
 C167 C 1.20886 1.01017 -0.41303
 C168 C 1.15564 0.99827 -0.38998
 C169 C 1.14173 1.00146 -0.32920
 N170 N 1.09269 0.98084 -0.30843
 N171 N 1.07920 0.98348 -0.25376
 C172 C 1.11412 1.00710 -0.21767
 N173 N 1.16302 1.02805 -0.23846
 N174 N 1.17668 1.02513 -0.29314
 C175 C 1.09909 1.01128 -0.15715
 C176 C 1.05355 0.98337 -0.13311
 H177 H 1.12324 0.98427 -0.41639
 H178 H 1.12443 1.03694 -0.13180
 H179 H 1.24105 1.02112 -0.38482
 H180 H 1.02930 0.95806 -0.16020
 C181 C 0.82665 0.99173 0.40947
 C182 C 0.80939 1.00321 0.35598
 C183 C 0.84707 0.99951 0.30615
 N184 N 0.82905 1.01809 0.25675
 N185 N 0.86211 1.01429 0.21059
 C186 C 0.91436 0.99161 0.21214
 N187 N 0.93241 0.97282 0.26156
 N188 N 0.89938 0.97688 0.30788
 C189 C 0.94996 0.98522 0.16090
 C190 C 0.93504 1.00988 0.11134
 H191 H 0.76632 1.01590 0.35049
 H192 H 0.98692 0.95942 0.16259
 H193 H 0.86939 0.97828 0.41540
 H194 H 0.90038 1.03892 0.11396
 C195 C 0.78541 0.98718 -0.38249
 C196 C 0.83987 0.98909 -0.36468
 C197 C 0.85221 0.98384 -0.30569
 N198 N 0.89935 1.00636 -0.28715
 N199 N 0.91143 1.00219 -0.23370
 C200 C 0.87711 0.97485 -0.19696
 N201 N 0.83037 0.95136 -0.21564
 N202 N 0.81789 0.95614 -0.26912
 C203 C 0.89167 0.96963 -0.13851
 C204 C 0.92470 1.00961 -0.11512
 H205 H 0.87435 0.99888 -0.39350
 H206 H 0.87884 0.93329 -0.11541
 H207 H 0.75126 0.98382 -0.35139
 H208 H 0.93288 1.04707 -0.13857
 C209 C 1.40203 1.16911 0.00725
 C210 C 1.34855 1.18554 -0.00768
 C211 C 1.30155 1.14702 -0.00562
 N212 N 1.25195 1.16293 -0.02604
 N213 N 1.20881 1.12881 -0.02383
 C214 C 1.21353 1.07756 -0.00096
 N215 N 1.26309 1.06169 0.01968
 N216 N 1.30636 1.09575 0.01726
 C217 C 1.16550 1.04036 0.00291
 C218 C 1.11652 1.05334 -0.02361
 H219 H 1.34094 1.22779 -0.02107
 H220 H 1.16875 1.00309 0.02750
 H221 H 1.40786 1.12680 0.02144
 H222 H 1.11531 1.09076 -0.04826
 C223 C 0.59996 1.18844 0.02988
 C224 C 0.65122 1.21498 0.02397
 C225 C 0.70337 1.18158 0.02806
 N226 N 0.75234 1.19764 0.00256
 N227 N 0.79798 1.16476 0.00300
 C228 C 0.79613 1.11481 0.02913
 N229 N 0.74759 1.09952 0.05544
 N230 N 0.70219 1.13210 0.05481
 C231 C 0.84435 1.07602 0.02908
 C232 C 0.89500 1.08379 -0.00085
 H233 H 0.65345 1.25808 0.01178
 H234 H 0.83765 1.03839 0.05232
 H235 H 0.60093 1.14399 0.03684
 H236 H 0.89906 1.12063 -0.02596
 C237 C 1.40185 0.83882 0.01450
 C238 C 1.34835 0.81824 0.02476
 C239 C 1.29766 0.84564 0.00611
 N240 N 1.24749 0.82304 0.01956
 N241 N 1.20073 0.84546 0.00120
 C242 C 1.20249 0.89087 -0.03197
 N243 N 1.25277 0.91324 -0.04599
 N244 N 1.29967 0.89089 -0.02739
 C245 C 1.15072 0.91836 -0.04823
 C246 C 1.10107 0.90985 -0.01730
 H247 H 1.34363 0.77733 0.04266
 H248 H 1.15367 0.95145 -0.07830
 H249 H 1.40687 0.87907 -0.00483
 H250 H 1.10081 0.87876 0.01491
 C251 C 0.60594 0.79907 0.01044
 C252 C 0.62565 0.85320 0.01063
 C253 C 0.68524 0.86468 0.01489
 N254 N 0.70337 0.91705 0.00687
 N255 N 0.75727 0.92831 0.01007
 C256 C 0.79507 0.88773 0.02172
 N257 N 0.77688 0.83542 0.03060
 N258 N 0.72288 0.82406 0.02712
 C259 C 0.85477 0.90017 0.02358
 C260 C 0.87458 0.94888 -0.00008
 H261 H 0.59776 0.88862 0.00670
 H262 H 0.88254 0.87009 0.04137
 H263 H 0.63627 0.76516 0.01160
 H264 H 0.84552 0.97470 -0.02204
 C265 C 0.90713 0.52769 0.31088
 C266 C 0.85457 0.50365 0.30618
 C267 C 0.80385 0.51588 0.34141
 N268 N 0.75668 0.48853 0.33001
 N269 N 0.71020 0.49543 0.36212
 C270 C 0.70897 0.53001 0.40716
 N271 N 0.75607 0.55794 0.41854
 N272 N 0.80288 0.55091 0.38630
 C273 C 0.65776 0.53628 0.44349
 C274 C 0.61187 0.50213 0.43678
 H275 H 0.84874 0.47332 0.27352
 H276 H 0.65734 0.56677 0.47690
 H277 H 0.91108 0.56376 0.33763
 H278 H 0.61459 0.47073 0.40410
 C279 C 0.10038 0.51414 0.31635
 C280 C 0.14901 0.48107 0.32044
 C281 C 0.19679 0.49424 0.35455
 N282 N 0.24361 0.46160 0.34889
 N283 N 0.28774 0.47133 0.37903
 C284 C 0.28682 0.51405 0.41639
 N285 N 0.23987 0.54677 0.42232
 N286 N 0.19561 0.53714 0.39191
 C287 C 0.33573 0.52482 0.45002
 C288 C 0.38537 0.49329 0.44304
 H289 H 0.15498 0.44392 0.29513
 H290 H 0.33126 0.55664 0.48202
 H291 H 0.09726 0.55351 0.33860
 H292 H 0.38597 0.45877 0.41396
 C293 C 0.89493 0.48528 0.66907
 C294 C 0.87466 0.52981 0.63874
 C295 C 0.82061 0.52215 0.61241
 N296 N 0.77841 0.56056 0.61926
 N297 N 0.72693 0.54902 0.60381
 C298 C 0.71581 0.49854 0.58128
 N299 N 0.75834 0.46098 0.57306
 N300 N 0.80951 0.47237 0.58864
 C301 C 0.65935 0.48334 0.56518
 C302 C 0.61208 0.51760 0.57413
 H303 H 0.89220 0.57071 0.64250
 H304 H 0.65629 0.44447 0.54311
 H305 H 0.86976 0.44824 0.67014
 H306 H 0.61710 0.55709 0.59495
 C307 C 0.08818 0.48348 0.66969
 C308 C 0.11102 0.52811 0.64071
 C309 C 0.16816 0.51965 0.61562
 N310 N 0.20940 0.55564 0.62645
 N311 N 0.26275 0.54267 0.61221
 C312 C 0.27671 0.49305 0.58713
 N313 N 0.23534 0.45795 0.57502
 N314 N 0.18226 0.47073 0.58943
 C315 C 0.33493 0.47728 0.57051
 C316 C 0.38067 0.50946 0.58268
 H317 H 0.09264 0.56942 0.64540
 H318 H 0.34074 0.44156 0.54311
 H319 H 0.11377 0.44577 0.67038
 H320 H 0.37405 0.54472 0.61066
 C321 C 0.50727 0.68518 0.10712
 C322 C 0.47143 0.67955 0.15425
 C323 C 0.48672 0.64860 0.20372
 N324 N 0.45004 0.64788 0.24850
 N325 N 0.46340 0.62236 0.29511
 C326 C 0.51402 0.59668 0.29886
 N327 N 0.55077 0.59700 0.25389
 N328 N 0.53742 0.62273 0.20708
 C329 C 0.52832 0.56858 0.35059
 C330 C 0.49065 0.56990 0.39673
 H331 H 0.43058 0.69954 0.15654
 H332 H 0.56722 0.54532 0.35102
 H333 H 0.54591 0.66096 0.10393
 H334 H 0.45185 0.59309 0.39365
 C335 C 0.50426 0.68145 0.91823
 C336 C 0.46633 0.67436 0.87631
 C337 C 0.48020 0.64445 0.82397
 N338 N 0.44398 0.64743 0.78224
 N339 N 0.45650 0.62324 0.73298
 C340 C 0.50575 0.59515 0.72371
 N341 N 0.54185 0.59160 0.76565
 N342 N 0.52944 0.61612 0.81494
 C343 C 0.51970 0.56827 0.66967
 C344 C 0.48698 0.57665 0.62377
 H345 H 0.42520 0.69365 0.87974
 H346 H 0.55527 0.54017 0.66734
 H347 H 0.54316 0.65763 0.91625
 H348 H 0.45013 0.60305 0.62918
 C349 C 0.48133 0.31909 0.10989
 C350 C 0.52733 0.34024 0.13620
 C351 C 0.51811 0.36906 0.19106
 N352 N 0.55480 0.36260 0.23236
 N353 N 0.54401 0.38553 0.28296
 C354 C 0.49618 0.41594 0.29400
 N355 N 0.46020 0.42309 0.25242
 N356 N 0.47064 0.39976 0.20224
 C357 C 0.48353 0.44392 0.34849
 C358 C 0.50830 0.42997 0.39844
 H359 H 0.56946 0.32932 0.12096
 H360 H 0.45330 0.47774 0.34827
 H361 H 0.44085 0.32457 0.13182
 H362 H 0.53711 0.39479 0.39828
 C363 C 0.51879 0.31202 0.91638
 C364 C 0.48499 0.32009 0.87051
 C365 C 0.49982 0.35066 0.81869
 N366 N 0.45923 0.35990 0.78199
 N367 N 0.47053 0.38453 0.73331
 C368 C 0.52315 0.40080 0.71879
 N369 N 0.56408 0.39166 0.75550
 N370 N 0.55269 0.36701 0.80459
 C371 C 0.53534 0.42759 0.66396
 C372 C 0.49212 0.44159 0.62891
 H373 H 0.44302 0.30428 0.87234
 H374 H 0.57816 0.43682 0.65158
 H375 H 0.55773 0.33399 0.91793
 H376 H 0.44968 0.43237 0.64290
 C377 C 0.66939 0.90815 0.51445
 C378 C 0.66207 0.86390 0.47756
 C379 C 0.63584 0.81186 0.49460
 N380 N 0.62897 0.77209 0.45532
 N381 N 0.60901 0.72288 0.46974
 C382 C 0.59557 0.71127 0.52408
 N383 N 0.60232 0.75110 0.56357
 N384 N 0.62229 0.80056 0.54910
 C385 C 0.57317 0.65682 0.53955
 C386 C 0.56030 0.61896 0.49808
 H387 H 0.67769 0.86569 0.43449
 H388 H 0.56439 0.64789 0.58323
 H389 H 0.64645 0.90835 0.55460
 H390 H 0.56984 0.62920 0.45477
 C391 C 0.67681 0.09732 0.52162
 C392 C 0.67582 0.14454 0.48806
 C393 C 0.64549 0.19626 0.50346
 N394 N 0.65282 0.24100 0.47018
 N395 N 0.62664 0.28896 0.48271
 C396 C 0.59202 0.29408 0.52908
 N397 N 0.58439 0.24923 0.56246
 N398 N 0.61087 0.20110 0.55001
 C399 C 0.56186 0.34672 0.54173
 C400 C 0.57215 0.39364 0.50941
 H401 H 0.69921 0.14539 0.44842
 H402 H 0.52975 0.34746 0.57501
 H403 H 0.65084 0.09679 0.55993
 H404 H 0.60495 0.39168 0.47668
 C405 C 0.33866 0.92067 0.49076
 C406 C 0.35229 0.87367 0.45741
 C407 C 0.37542 0.82104 0.47793
 N408 N 0.37340 0.77511 0.44488
 N409 N 0.39140 0.72594 0.46242
 C410 C 0.41226 0.72073 0.51385
 N411 N 0.41490 0.76680 0.54688
 N412 N 0.39632 0.81607 0.52949
 C413 C 0.43455 0.66683 0.53236
 C414 C 0.42385 0.61703 0.50457
 H415 H 0.34130 0.87282 0.41413
 H416 H 0.46268 0.66784 0.56606
 H417 H 0.35609 0.92455 0.53151
 H418 H 0.39580 0.61928 0.47069
 C419 C 0.30902 0.11276 0.46346
 C420 C 0.34058 0.13508 0.50547
 C421 C 0.36351 0.19154 0.49863
 N422 N 0.38165 0.22038 0.54310
 N423 N 0.39998 0.27213 0.53685
 C424 C 0.40088 0.29691 0.48589
 N425 N 0.38348 0.26780 0.44148
 N426 N 0.36504 0.21633 0.44776
 C427 C 0.42128 0.35378 0.47744
 C428 C 0.43506 0.38811 0.52159
 H429 H 0.34557 0.11334 0.54434
 H430 H 0.42564 0.36840 0.43499
 H431 H 0.30264 0.13843 0.42721
 H432 H 0.42777 0.37337 0.56383
   
