data_POSCAR
  _audit_creation_date              2014-09-24
  _audit_creation_method            'ToBaCCo'
  _symmetry_space_group_name_H-M    'P1'
  _symmetry_Int_Tables_number       1
  _symmetry_cell_setting            triclinic
  loop_
  _symmetry_equiv_pos_as_xyz
 x,y,z
_cell_length_a 55.0376
_cell_length_b 55.0164
_cell_length_c 18.9392
_cell_angle_alpha 89.953600
_cell_angle_beta 90.033500
_cell_angle_gamma 119.965400
loop_
  _atom_site_label
  _atom_site_type_symbol
  _atom_site_fract_x
  _atom_site_fract_y
  _atom_site_fract_z
O1 O 0.25849 0.47056 0.56353
 O2 O 0.21137 0.47296 0.43008
 O3 O 0.25786 0.47107 0.42781
 O4 O 0.21185 0.47164 0.56613
 O5 O 0.23530 0.51789 0.56770
 O6 O 0.28271 0.51729 0.42983
 O7 O 0.23600 0.51914 0.42950
 O8 O 0.28241 0.51681 0.56722
 Cu9 Cu 0.23246 0.46698 0.49658
 Cu10 Cu 0.26150 0.52247 0.49870
 C11 C 0.27866 0.49318 0.58781
 C12 C 0.21536 0.49638 0.40704
 C13 C 0.27854 0.49387 0.40622
 C14 C 0.21533 0.49468 0.59019
 O15 O 0.52262 -0.26499 0.43198
 O16 O 0.52519 -0.21572 0.56604
 O17 O 0.52270 -0.26443 0.56729
 O18 O 0.52510 -0.21634 0.42990
 O19 O 0.47891 -0.23724 0.42969
 O20 O 0.47654 -0.28572 0.56823
 O21 O 0.47899 -0.23686 0.56713
 O22 O 0.47647 -0.28601 0.43028
 Cu23 Cu 0.52848 -0.23823 0.49883
 Cu24 Cu 0.47307 -0.26362 0.49889
 C25 C 0.49920 -0.28424 0.40867
 C26 C 0.50267 -0.21751 0.58891
 C27 C 0.49929 -0.28371 0.59052
 C28 C 0.50256 -0.21818 0.40695
 O29 O 1.26136 0.78558 0.43299
 O30 O 1.21183 0.73920 0.56724
 O31 O 1.26059 0.78529 0.56861
 O32 O 1.21279 0.73958 0.43092
 O33 O 1.23356 0.71415 0.43222
 O34 O 1.28222 0.76065 0.56963
 O35 O 1.23339 0.71457 0.57044
 O36 O 1.28245 0.76042 0.43243
 Cu37 Cu 1.23448 0.76484 0.49987
 Cu38 Cu 1.25996 0.73484 0.50127
 C39 C 1.28062 0.78130 0.41044
 C40 C 1.21390 0.71882 0.59183
 C41 C 1.27997 0.78126 0.59161
 C42 C 1.21470 0.71887 0.40844
 O43 O 0.78629 0.52441 0.43357
 O44 O 0.73953 0.52699 0.56784
 O45 O 0.78566 0.52444 0.56905
 O46 O 0.74025 0.52700 0.43138
 O47 O 0.71503 0.48080 0.43128
 O48 O 0.76097 0.47817 0.56963
 O49 O 0.71478 0.48081 0.56926
 O50 O 0.76131 0.47818 0.43240
 Cu51 Cu 0.76534 0.53030 0.50048
 Cu52 Cu 0.73543 0.47482 0.50062
 C53 C 0.78217 0.50094 0.41084
 C54 C 0.71900 0.50444 0.59145
 C55 C 0.78156 0.50098 0.59184
 C56 C 0.71969 0.50445 0.40819
 O57 O 0.47159 0.21117 0.56900
 O58 O 0.47389 0.26021 0.43385
 O59 O 0.47129 0.21156 0.43269
 O60 O 0.47372 0.25960 0.56992
 O61 O 0.51995 0.28127 0.57013
 O62 O 0.51749 0.23268 0.43217
 O63 O 0.52010 0.28153 0.43261
 O64 O 0.51775 0.23266 0.57006
 Cu65 Cu 0.46803 0.23350 0.50137
 Cu66 Cu 0.52349 0.25916 0.50121
 C67 C 0.49419 0.21327 0.59255
 C68 C 0.49731 0.27946 0.41062
 C69 C 0.49385 0.21360 0.40943
 C70 C 0.49714 0.27890 0.59287
 O71 O 0.73927 0.21233 0.43384
 O72 O 0.78662 0.25961 0.56967
 O73 O 0.73869 0.21286 0.57005
 O74 O 0.78688 0.25921 0.43389
 O75 O 0.76458 0.28318 0.43092
 O76 O 0.71627 0.23672 0.56894
 O77 O 0.76454 0.28375 0.56856
 O78 O 0.71649 0.23581 0.43098
 Cu79 Cu 0.76505 0.23361 0.50209
 Cu80 Cu 0.73817 0.26225 0.49964
 C81 C 0.71961 0.21562 0.40952
 C82 C 0.78419 0.28008 0.59184
 C83 C 0.71905 0.21659 0.59237
 C84 C 0.78433 0.27936 0.40975
 O85 O 0.95925 0.52009 -0.13037
 O86 O 0.92882 0.48282 -0.06188
 C87 C 0.93414 0.50108 -0.11153
 O88 O 1.03968 0.47552 -0.12405
 O89 O 1.07048 0.51514 -0.06328
 C90 C 1.06487 0.49503 -0.10763
 O91 O 0.96141 0.43688 -0.12924
 O92 O 0.92989 0.44277 -0.06279
 C93 C 0.93602 0.43013 -0.11151
 O94 O 1.03740 0.56340 -0.12454
 O95 O 1.06926 0.55663 -0.06207
 C96 C 1.06290 0.57024 -0.10754
 Zr97 Zr 0.99873 0.52970 -0.08904
 O98 O 0.99937 0.53373 -0.20016
 O99 O 0.99661 0.56678 -0.07703
 Zr100 Zr 1.00031 0.46906 -0.09042
 O101 O 1.00279 0.47092 -0.20205
 O102 O 0.99822 0.42957 -0.09152
 O103 O 0.97452 0.48641 -0.10344
 O104 O 1.02385 0.51202 -0.10358
 O105 O 1.03835 0.56370 0.11983
 O106 O 1.06991 0.55634 0.05755
 C107 C 1.06377 0.57023 0.10263
 O108 O 0.96233 0.43720 0.12795
 O109 O 0.93034 0.44274 0.06247
 C110 C 0.93682 0.43025 0.11092
 O111 O 1.04070 0.47593 0.12017
 O112 O 1.07086 0.51498 0.05656
 C113 C 1.06574 0.49542 0.10228
 O114 O 0.95993 0.52075 0.12901
 O115 O 0.92921 0.48286 0.06279
 C116 C 0.93473 0.50139 0.11179
 Zr117 Zr 0.99928 0.52958 0.08789
 O118 O 1.00281 0.53130 0.19933
 O119 O 0.99550 0.56603 0.08757
 Zr120 Zr 1.00096 0.46905 0.08721
 O121 O 1.00438 0.47051 0.19865
 O122 O 0.99884 0.42954 0.08573
 Zr123 Zr 0.95771 0.47742 -0.00035
 Zr124 Zr 1.04177 0.52105 -0.00210
 O125 O 1.02451 0.51197 0.10021
 O126 O 0.97511 0.48629 0.10210
 O127 O 1.02412 0.54736 -0.00111
 O128 O 0.97621 0.45193 -0.00114
 O129 O 0.97416 0.52113 -0.00018
 O130 O 1.02589 0.47735 -0.00219
 H131 H 1.03635 0.51854 -0.14534
 H132 H 0.96396 0.43126 -0.00102
 H133 H 1.03720 0.51851 0.14165
 H134 H 0.96102 0.52852 0.00009
 H135 H 1.01358 0.43107 -0.06136
 H136 H 1.01517 0.43167 0.05869
 H137 H 0.98881 0.47266 0.21754
 H138 H 0.98751 0.51339 0.21816
 H139 H 1.00955 0.57946 0.05392
 H140 H 0.99574 0.57315 -0.12543
 H141 H 1.00199 0.51859 -0.21984
 H142 H 0.98616 0.47149 -0.21979
 O143 O 0.43805 0.47472 0.12932
 O144 O 0.44257 0.51132 0.06143
 C145 C 0.43057 0.49279 0.11106
 O146 O 0.56397 0.52589 0.12074
 O147 O 0.55708 0.48702 0.05930
 C148 C 0.57073 0.50711 0.10421
 O149 O 0.52054 0.56083 0.12630
 O150 O 0.48230 0.55278 0.06024
 C151 C 0.50095 0.56628 0.10865
 O152 O 0.47714 0.43555 0.12277
 O153 O 0.51632 0.44452 0.05971
 C154 C 0.49683 0.43017 0.10563
 Zr155 Zr 0.46944 0.46754 0.08722
 O156 O 0.46699 0.46365 0.19837
 O157 O 0.43148 0.42914 0.07610
 Zr158 Zr 0.52969 0.53026 0.08701
 O159 O 0.53207 0.53021 0.19863
 O160 O 0.56658 0.56983 0.07955
 O161 O 0.48638 0.51066 0.10127
 O162 O 0.51242 0.48751 0.10072
 O163 O 0.47661 0.43482 -0.12254
 O164 O 0.51624 0.44439 -0.06061
 C165 C 0.49646 0.42965 -0.10547
 O166 O 0.52056 0.56066 -0.12985
 O167 O 0.48225 0.55259 -0.06399
 C168 C 0.50092 0.56607 -0.11236
 O169 O 0.56409 0.52575 -0.12277
 O170 O 0.55715 0.48689 -0.06087
 C171 C 0.57082 0.50695 -0.10603
 O172 O 0.43715 0.47374 -0.12978
 O173 O 0.44233 0.51106 -0.06408
 C174 C 0.42992 0.49208 -0.11255
 Zr175 Zr 0.46945 0.46748 -0.08979
 O176 O 0.47116 0.46611 -0.20132
 O177 O 0.43045 0.42961 -0.08901
 Zr178 Zr 0.52956 0.53001 -0.09027
 O179 O 0.53071 0.52807 -0.20180
 O180 O 0.56586 0.57027 -0.09063
 Zr181 Zr 0.47722 0.51864 -0.00151
 Zr182 Zr 0.52171 0.47907 -0.00095
 O183 O 0.51240 0.48725 -0.10302
 O184 O 0.48622 0.51054 -0.10422
 O185 O 0.47818 0.45081 -0.00098
 O186 O 0.52088 0.54618 -0.00174
 O187 O 0.45205 0.47466 -0.00122
 O188 O 0.54755 0.52303 -0.00141
 H189 H 0.51907 0.48175 0.14271
 H190 H 0.52826 0.56670 -0.00193
 H191 H 0.51906 0.48128 -0.14455
 H192 H 0.43137 0.46618 -0.00096
 H193 H 0.57260 0.57612 0.12871
 H194 H 0.57853 0.57028 -0.05353
 H195 H 0.51304 0.52623 -0.22013
 H196 H 0.47257 0.48359 -0.21981
 H197 H 0.43206 0.41679 -0.05510
 H198 H 0.42477 0.42246 0.12467
 H199 H 0.48288 0.48102 0.21742
 H200 H 0.51409 0.52747 0.21740
 O201 O 0.52405 -0.03913 0.12745
 O202 O 0.48678 -0.07069 0.06081
 C203 C 0.50556 -0.06453 0.10952
 O204 O 0.47367 0.03689 0.12319
 O205 O 0.51229 0.06886 0.06092
 C206 C 0.49232 0.06242 0.10631
 O207 O 0.43882 -0.04137 0.12966
 O208 O 0.44562 -0.07182 0.06116
 C209 C 0.43277 -0.06650 0.11101
 O210 O 0.56361 0.03911 0.12250
 O211 O 0.55489 0.06992 0.06120
 C212 C 0.56931 0.06432 0.10599
 Zr213 Zr 0.53080 -0.00022 0.08846
 O214 O 0.53260 0.00195 0.20012
 O215 O 0.56905 -0.00038 0.08180
 Zr216 Zr 0.46851 -0.00188 0.08796
 O217 O 0.46546 -0.00110 0.19910
 O218 O 0.42925 -0.00410 0.07664
 O219 O 0.48772 -0.02603 0.10196
 O220 O 0.51130 0.02324 0.10216
 O221 O 0.56414 0.04030 -0.12053
 O222 O 0.55485 0.07044 -0.05795
 C223 C 0.56949 0.06534 -0.10304
 O224 O 0.43821 -0.04078 -0.12950
 O225 O 0.44568 -0.07144 -0.06361
 C226 C 0.43247 -0.06595 -0.11220
 O227 O 0.47348 0.03751 -0.12151
 O228 O 0.51229 0.06906 -0.05911
 C229 C 0.49231 0.06292 -0.10434
 O230 O 0.52443 -0.03817 -0.12981
 O231 O 0.48697 -0.07022 -0.06434
 C232 C 0.50587 -0.06372 -0.11294
 Zr233 Zr 0.53116 0.00045 -0.08883
 O234 O 0.53295 0.00397 -0.20026
 O235 O 0.56884 -0.00105 -0.08775
 Zr236 Zr 0.46891 -0.00138 -0.08914
 O237 O 0.47084 0.00207 -0.20062
 O238 O 0.42870 -0.00515 -0.08891
 Zr239 Zr 0.47972 -0.04289 -0.00104
 Zr240 Zr 0.51992 0.04119 0.00077
 O241 O 0.51172 0.02398 -0.10158
 O242 O 0.48808 -0.02549 -0.10352
 O243 O 0.54777 0.02541 0.00048
 O244 O 0.45243 -0.02647 -0.00086
 O245 O 0.52366 -0.02441 -0.00066
 O246 O 0.47600 0.02346 -0.00001
 H247 H 0.51735 0.03569 0.14403
 H248 H 0.43192 -0.03962 -0.00082
 H249 H 0.51785 0.03671 -0.14294
 H250 H 0.53210 -0.03665 -0.00101
 H251 H 0.42219 -0.00487 0.12517
 H252 H 0.42922 0.00862 -0.05446
 H253 H 0.47256 -0.01378 -0.21940
 H254 H 0.51514 -0.01148 -0.21902
 H255 H 0.58111 0.01229 -0.05118
 H256 H 0.57520 -0.00023 0.13109
 H257 H 0.51488 -0.01387 0.21833
 H258 H 0.48299 0.00081 0.21846
 C259 C 1.15655 0.49817 0.26491
 C260 C 1.15147 0.47266 0.29598
 C261 C 1.17160 0.47212 0.34043
 C262 C 1.19644 0.49696 0.35798
 C263 C 1.20119 0.52235 0.32783
 C264 C 1.18169 0.52294 0.28154
 C265 C 1.13431 0.49780 0.21827
 C266 C 1.13800 0.52151 0.18055
 C267 C 1.11607 0.52039 0.14073
 C268 C 1.08981 0.49578 0.13831
 C269 C 1.08634 0.47174 0.17320
 C270 C 1.10841 0.47246 0.21208
 C271 C 1.12590 0.44798 0.28474
 C272 C 1.10464 0.44799 0.24483
 H273 H 1.12193 0.42846 0.30893
 H274 H 1.08494 0.42849 0.23942
 H275 H 1.16722 0.45231 0.36367
 H276 H 1.22002 0.54194 0.34013
 H277 H 1.11952 0.53907 0.11315
 H278 H 1.06636 0.45240 0.17036
 H279 H 1.18637 0.54309 0.26077
 H280 H 1.15761 0.54109 0.18116
 C281 C 0.49749 0.65426 0.27023
 C282 C 0.52278 0.67428 0.30286
 C283 C 0.52334 0.69532 0.34569
 C284 C 0.49863 0.69600 0.36058
 C285 C 0.47340 0.67568 0.32929
 C286 C 0.47286 0.65528 0.28420
 C287 C 0.49792 0.63212 0.22487
 C288 C 0.47474 0.61285 0.18445
 C289 C 0.47602 0.59203 0.14505
 C290 C 0.50014 0.58948 0.14620
 C291 C 0.52365 0.60925 0.18419
 C292 C 0.52290 0.63074 0.22215
 C293 C 0.54718 0.67258 0.29498
 C294 C 0.54708 0.65091 0.25682
 H295 H 0.56650 0.68778 0.32049
 H296 H 0.56633 0.65008 0.25395
 H297 H 0.54299 0.71044 0.37008
 H298 H 0.45392 0.67542 0.33973
 H299 H 0.45793 0.57769 0.11432
 H300 H 0.54275 0.60808 0.18382
 H301 H 0.45285 0.64005 0.26235
 H302 H 0.45557 0.61365 0.18217
 C303 C 0.34395 -0.15776 0.27181
 C304 C 0.32621 -0.15112 0.31134
 C305 C 0.30504 -0.17150 0.35403
 C306 C 0.30164 -0.19842 0.36043
 C307 C 0.31939 -0.20499 0.32202
 C308 C 0.34017 -0.18501 0.27781
 C309 C 0.36650 -0.13512 0.22733
 C310 C 0.38432 -0.13971 0.18266
 C311 C 0.40545 -0.11762 0.14378
 C312 C 0.40964 -0.09035 0.14927
 C313 C 0.39151 -0.08580 0.19219
 C314 C 0.36994 -0.10786 0.23027
 C315 C 0.33016 -0.12394 0.30985
 C316 C 0.35178 -0.10270 0.27098
 H317 H 0.31665 -0.11886 0.34042
 H318 H 0.35427 -0.08188 0.27266
 H319 H 0.29179 -0.16600 0.38442
 H320 H 0.31729 -0.22558 0.32639
 H321 H 0.41868 -0.12190 0.10985
 H322 H 0.39405 -0.06499 0.19579
 H323 H 0.35337 -0.19112 0.24998
 H324 H 0.38221 -0.16019 0.17678
 C325 C 0.84345 0.49879 0.27296
 C326 C 0.84997 0.52316 0.31241
 C327 C 0.82950 0.52389 0.35492
 C328 C 0.80261 0.50033 0.36110
 C329 C 0.79618 0.47605 0.32269
 C330 C 0.81624 0.47530 0.27875
 C331 C 0.86615 0.49893 0.22865
 C332 C 0.86167 0.47647 0.18435
 C333 C 0.88377 0.47747 0.14550
 C334 C 0.91097 0.50069 0.15048
 C335 C 0.91544 0.52338 0.19323
 C336 C 0.89334 0.52283 0.23141
 C337 C 0.87709 0.54644 0.31091
 C338 C 0.89839 0.54614 0.27203
 H339 H 0.88209 0.56503 0.34139
 H340 H 0.91915 0.56452 0.27364
 H341 H 0.83489 0.54262 0.38529
 H342 H 0.77561 0.45754 0.32686
 H343 H 0.87955 0.45988 0.11196
 H344 H 0.93620 0.54171 0.19663
 H345 H 0.81021 0.45601 0.25092
 H346 H 0.84128 0.45802 0.17872
 C347 C 0.49922 0.34154 0.26771
 C348 C 0.47440 0.32302 0.30474
 C349 C 0.47381 0.30231 0.34912
 C350 C 0.49787 0.30007 0.35933
 C351 C 0.52251 0.31849 0.32294
 C352 C 0.52320 0.33886 0.27739
 C353 C 0.49900 0.36375 0.22189
 C354 C 0.52215 0.38266 0.18067
 C355 C 0.52117 0.40370 0.14134
 C356 C 0.49724 0.40660 0.14256
 C357 C 0.47381 0.38727 0.18156
 C358 C 0.47442 0.36590 0.22052
 C359 C 0.45049 0.32570 0.29896
 C360 C 0.45060 0.34686 0.25840
 H361 H 0.43153 0.31156 0.32747
 H362 H 0.43171 0.34838 0.25684
 H363 H 0.45472 0.28846 0.37762
 H364 H 0.54140 0.31726 0.33002
 H365 H 0.53943 0.41807 0.11100
 H366 H 0.45498 0.38892 0.18204
 H367 H 0.54279 0.35260 0.25135
 H368 H 0.54120 0.38165 0.17832
 C369 C 0.66039 0.15288 0.26663
 C370 C 0.65924 0.17765 0.27925
 C371 C 0.67884 0.19844 0.32490
 C372 C 0.69989 0.19502 0.35757
 C373 C 0.70156 0.17094 0.34229
 C374 C 0.68219 0.15021 0.29763
 C375 C 0.63807 0.13034 0.22170
 C376 C 0.63616 0.10411 0.21126
 C377 C 0.61420 0.08319 0.17237
 C378 C 0.59359 0.08778 0.14202
 C379 C 0.59569 0.11415 0.15017
 C380 C 0.61747 0.13524 0.19081
 C381 C 0.63843 0.18135 0.24662
 C382 C 0.61823 0.16076 0.20270
 H383 H 0.63767 0.20042 0.25539
 H384 H 0.60260 0.16465 0.17891
 H385 H 0.67750 0.21710 0.33554
 H386 H 0.71765 0.16775 0.36607
 H387 H 0.61324 0.06313 0.16667
 H388 H 0.57978 0.11787 0.12737
 H389 H 0.68465 0.13223 0.28863
 H390 H 0.65098 0.09895 0.23397
 C391 C 0.49000 0.15146 -0.26576
 C392 C 0.51620 0.17519 -0.28240
 C393 C 0.51754 0.19587 -0.32858
 C394 C 0.49295 0.19364 -0.35775
 C395 C 0.46693 0.17076 -0.33765
 C396 C 0.46545 0.14998 -0.29264
 C397 C 0.48960 0.12882 -0.22076
 C398 C 0.46496 0.10307 -0.20777
 C399 C 0.46588 0.08202 -0.16874
 C400 C 0.49125 0.08617 -0.14065
 C401 C 0.51581 0.11197 -0.15179
 C402 C 0.51529 0.13299 -0.19288
 C403 C 0.54090 0.17807 -0.25313
 C404 C 0.54040 0.15763 -0.20848
 H405 H 0.56097 0.19640 -0.26502
 H406 H 0.56011 0.16081 -0.18743
 H407 H 0.53784 0.21360 -0.34209
 H408 H 0.44747 0.16842 -0.35800
 H409 H 0.44665 0.06227 -0.16103
 H410 H 0.53557 0.11518 -0.13126
 H411 H 0.44485 0.13291 -0.27985
 H412 H 0.44489 0.09841 -0.22884
 C413 C 0.66141 0.50899 -0.26774
 C414 C 0.65896 0.48274 -0.28382
 C415 C 0.67827 0.48129 -0.32977
 C416 C 0.70061 0.50581 -0.35915
 C417 C 0.70375 0.53189 -0.33958
 C418 C 0.68445 0.53349 -0.29488
 C419 C 0.63920 0.50950 -0.22291
 C420 C 0.63801 0.53415 -0.21056
 C421 C 0.61610 0.53332 -0.17151
 C422 C 0.59505 0.50802 -0.14274
 C423 C 0.59635 0.48345 -0.15337
 C424 C 0.61781 0.48388 -0.19449
 C425 C 0.63721 0.45811 -0.25415
 C426 C 0.61735 0.45872 -0.20955
 H427 H 0.63550 0.43801 -0.26562
 H428 H 0.60091 0.43907 -0.18809
 H429 H 0.67571 0.46095 -0.34287
 H430 H 0.72085 0.55131 -0.36012
 H431 H 0.61552 0.55255 -0.16424
 H432 H 0.57993 0.46373 -0.13234
 H433 H 0.68796 0.55412 -0.28246
 H434 H 0.65333 0.55417 -0.23213
 C435 C 0.84681 0.33925 -0.27105
 C436 C 0.82297 0.34159 -0.28741
 C437 C 0.80192 0.32173 -0.33203
 C438 C 0.80392 0.29899 -0.35946
 C439 C 0.82689 0.29600 -0.33909
 C440 C 0.84799 0.31578 -0.29589
 C441 C 0.86983 0.36192 -0.22800
 C442 C 0.89575 0.36322 -0.21647
 C443 C 0.91695 0.38524 -0.17817
 C444 C 0.91283 0.40637 -0.14939
 C445 C 0.88701 0.40518 -0.15991
 C446 C 0.86579 0.38355 -0.20041
 C447 C 0.82036 0.36373 -0.25918
 C448 C 0.84106 0.38395 -0.21555
 H449 H 0.80197 0.36540 -0.27077
 H450 H 0.83799 0.40060 -0.19492
 H451 H 0.78413 0.32419 -0.34567
 H452 H 0.82907 0.27859 -0.35790
 H453 H 0.93673 0.38573 -0.17104
 H454 H 0.88385 0.42168 -0.13892
 H455 H 0.86505 0.31226 -0.28273
 H456 H 0.90039 0.34784 -0.23795
 C457 C 0.50766 -0.15256 -0.27445
 C458 C 0.48206 -0.17818 -0.28114
 C459 C 0.48050 -0.19960 -0.32486
 C460 C 0.50435 -0.19608 -0.36093
 C461 C 0.52994 -0.17117 -0.35128
 C462 C 0.53163 -0.14971 -0.30882
 C463 C 0.50809 -0.12951 -0.23132
 C464 C 0.53175 -0.10241 -0.22740
 C465 C 0.53091 -0.08134 -0.18854
 C466 C 0.50662 -0.08669 -0.15178
 C467 C 0.48301 -0.11372 -0.15453
 C468 C 0.48338 -0.13493 -0.19515
 C469 C 0.45824 -0.18218 -0.24436
 C470 C 0.45900 -0.16118 -0.20145
 H471 H 0.43870 -0.20189 -0.24871
 H472 H 0.44001 -0.16534 -0.17408
 H473 H 0.46068 -0.21893 -0.33110
 H474 H 0.54872 -0.16791 -0.37806
 H475 H 0.54945 -0.06071 -0.18738
 H476 H 0.46407 -0.11804 -0.12681
 H477 H 0.55189 -0.13106 -0.30396
 H478 H 0.55096 -0.09681 -0.25503
 C479 C 0.33868 0.48892 -0.27423
 C480 C 0.33814 0.51428 -0.28055
 C481 C 0.31826 0.51560 -0.32474
 C482 C 0.29842 0.49172 -0.36164
 C483 C 0.29820 0.46633 -0.35226
 C484 C 0.31801 0.46489 -0.30933
 C485 C 0.36136 0.48879 -0.23073
 C486 C 0.36542 0.46549 -0.22749
 C487 C 0.38745 0.46666 -0.18851
 C488 C 0.40590 0.49092 -0.15087
 C489 C 0.40174 0.51410 -0.15259
 C490 C 0.38011 0.51346 -0.19357
 C491 C 0.35746 0.53811 -0.24292
 C492 C 0.37769 0.53757 -0.19945
 H493 H 0.35690 0.55747 -0.24702
 H494 H 0.39214 0.55655 -0.17144
 H495 H 0.31835 0.53525 -0.33069
 H496 H 0.28303 0.44751 -0.37956
 H497 H 0.39007 0.44841 -0.18809
 H498 H 0.41584 0.53293 -0.12381
 H499 H 0.31676 0.44477 -0.30465
 H500 H 0.35226 0.44635 -0.25590
 C501 C 1.15157 0.66145 -0.26758
 C502 C 1.17609 0.65988 -0.28015
 C503 C 1.19687 0.67905 -0.32627
 C504 C 1.19410 0.70060 -0.35862
 C505 C 1.17056 0.70313 -0.34184
 C506 C 1.14955 0.68380 -0.29746
 C507 C 1.12876 0.63911 -0.22327
 C508 C 1.10219 0.63671 -0.21536
 C509 C 1.08112 0.61466 -0.17670
 C510 C 1.08601 0.59461 -0.14406
 C511 C 1.11262 0.59718 -0.15017
 C512 C 1.13371 0.61880 -0.19084
 C513 C 1.17970 0.63920 -0.24654
 C514 C 1.15924 0.61952 -0.20159
 H515 H 1.19870 0.63826 -0.25491
 H516 H 1.16314 0.60412 -0.17646
 H517 H 1.21517 0.67709 -0.33689
 H518 H 1.16782 0.71968 -0.36462
 H519 H 1.06078 0.61317 -0.17287
 H520 H 1.11654 0.58163 -0.12589
 H521 H 1.13191 0.68674 -0.28734
 H522 H 1.09696 0.65114 -0.24024
 C523 C 0.84265 0.49895 -0.26991
 C524 C 0.84927 0.52318 -0.31016
 C525 C 0.82879 0.52392 -0.35247
 C526 C 0.80183 0.50046 -0.35790
 C527 C 0.79528 0.47629 -0.31881
 C528 C 0.81535 0.47556 -0.27487
 C529 C 0.86539 0.49904 -0.22596
 C530 C 0.86078 0.47683 -0.18045
 C531 C 0.88294 0.47773 -0.14218
 C532 C 0.91029 0.50050 -0.14921
 C533 C 0.91487 0.52301 -0.19287
 C534 C 0.89272 0.52262 -0.23030
 C535 C 0.87652 0.54624 -0.30994
 C536 C 0.89788 0.54580 -0.27170
 H537 H 0.88159 0.56471 -0.34111
 H538 H 0.91877 0.56396 -0.27442
 H539 H 0.83425 0.54253 -0.38354
 H540 H 0.77466 0.45784 -0.32256
 H541 H 0.87865 0.46041 -0.10743
 H542 H 0.93575 0.54108 -0.19756
 H543 H 0.80928 0.45634 -0.24658
 H544 H 0.84025 0.45871 -0.17337
 C545 C 0.49882 0.34059 -0.26401
 C546 C 0.47380 0.32149 -0.29938
 C547 C 0.47329 0.30084 -0.34362
 C548 C 0.49763 0.29928 -0.35543
 C549 C 0.52246 0.31821 -0.32057
 C550 C 0.52307 0.33852 -0.27510
 C551 C 0.49855 0.36280 -0.21866
 C552 C 0.52191 0.38221 -0.17892
 C553 C 0.52093 0.40335 -0.14039
 C554 C 0.49678 0.40587 -0.14105
 C555 C 0.47309 0.38599 -0.17821
 C556 C 0.47371 0.36448 -0.21630
 C557 C 0.44960 0.32361 -0.29235
 C558 C 0.44966 0.34484 -0.25239
 H559 H 0.43047 0.30900 -0.31956
 H560 H 0.43057 0.34597 -0.24994
 H561 H 0.45404 0.28656 -0.37094
 H562 H 0.54156 0.31749 -0.32896
 H563 H 0.53935 0.41811 -0.11120
 H564 H 0.45410 0.38734 -0.17800
 H565 H 0.54284 0.35273 -0.25044
 H566 H 0.54114 0.38152 -0.17716
 C567 C 0.65796 0.15663 -0.26320
 C568 C 0.67706 0.15076 -0.29881
 C569 C 0.69750 0.17087 -0.34358
 C570 C 0.69882 0.19666 -0.35570
 C571 C 0.67984 0.20247 -0.32073
 C572 C 0.65975 0.18281 -0.27473
 C573 C 0.63601 0.13420 -0.21718
 C574 C 0.61669 0.13816 -0.17705
 C575 C 0.59571 0.11607 -0.13808
 C576 C 0.59328 0.08944 -0.13861
 C577 C 0.61313 0.08564 -0.17600
 C578 C 0.63449 0.10775 -0.21458
 C579 C 0.67515 0.12453 -0.29145
 C580 C 0.65410 0.10338 -0.25096
 H581 H 0.68975 0.12005 -0.31884
 H582 H 0.65312 0.08322 -0.24831
 H583 H 0.71180 0.16596 -0.37102
 H584 H 0.68036 0.22219 -0.32935
 H585 H 0.58097 0.11973 -0.10877
 H586 H 0.61184 0.06532 -0.17569
 H587 H 0.64550 0.18829 -0.24999
 H588 H 0.61731 0.15806 -0.17535
 C589 C 1.15345 0.49177 -0.26550
 C590 C 1.17791 0.51770 -0.28003
 C591 C 1.19850 0.51868 -0.32596
 C592 C 1.19517 0.49400 -0.35698
 C593 C 1.17155 0.46825 -0.33936
 C594 C 1.15102 0.46708 -0.29437
 C595 C 1.13094 0.49175 -0.22106
 C596 C 1.10482 0.46741 -0.20967
 C597 C 1.08386 0.46864 -0.17156
 C598 C 1.08830 0.49405 -0.14301
 C599 C 1.11454 0.51833 -0.15205
 C600 C 1.13566 0.51745 -0.19200
 C601 C 1.18148 0.54241 -0.24912
 C602 C 1.16099 0.54221 -0.20523
 H603 H 1.20035 0.56225 -0.25925
 H604 H 1.16476 0.56186 -0.18271
 H605 H 1.21687 0.53867 -0.33828
 H606 H 1.16852 0.44880 -0.36163
 H607 H 1.06388 0.44954 -0.16502
 H608 H 1.11812 0.53810 -0.13058
 H609 H 1.13336 0.44662 -0.28347
 H610 H 1.09979 0.44730 -0.23115
 C611 C 0.49750 0.65464 -0.27138
 C612 C 0.52299 0.67528 -0.30195
 C613 C 0.52356 0.69642 -0.34450
 C614 C 0.49874 0.69666 -0.36092
 C615 C 0.47339 0.67591 -0.33110
 C616 C 0.47278 0.65535 -0.28649
 C617 C 0.49786 0.63224 -0.22690
 C618 C 0.47426 0.61205 -0.18931
 C619 C 0.47550 0.59102 -0.15075
 C620 C 0.50005 0.58925 -0.14976
 C621 C 0.52391 0.60982 -0.18506
 C622 C 0.52314 0.63146 -0.22235
 C623 C 0.54762 0.67411 -0.29236
 C624 C 0.54757 0.65236 -0.25460
 H625 H 0.56711 0.68983 -0.31616
 H626 H 0.56703 0.65199 -0.25031
 H627 H 0.54334 0.71195 -0.36753
 H628 H 0.45382 0.67534 -0.34263
 H629 H 0.45704 0.57589 -0.12243
 H630 H 0.54327 0.60916 -0.18303
 H631 H 0.45266 0.63976 -0.26602
 H632 H 0.45475 0.61223 -0.18867
 C633 C 0.34312 -0.15758 -0.27023
 C634 C 0.32457 -0.15140 -0.30756
 C635 C 0.30334 -0.17191 -0.34988
 C636 C 0.30072 -0.19846 -0.35798
 C637 C 0.31916 -0.20459 -0.32134
 C638 C 0.34000 -0.18451 -0.27762
 C639 C 0.36584 -0.13478 -0.22658
 C640 C 0.38457 -0.13899 -0.18451
 C641 C 0.40583 -0.11679 -0.14643
 C642 C 0.40925 -0.08978 -0.15006
 C643 C 0.39028 -0.08558 -0.19046
 C644 C 0.36854 -0.10781 -0.22780
 C645 C 0.32778 -0.12452 -0.30436
 C646 C 0.34951 -0.10311 -0.26609
 H647 H 0.31361 -0.11980 -0.33314
 H648 H 0.35141 -0.08252 -0.26642
 H649 H 0.28949 -0.16677 -0.37879
 H650 H 0.31765 -0.22489 -0.32698
 H651 H 0.41980 -0.12078 -0.11461
 H652 H 0.39228 -0.06496 -0.19261
 H653 H 0.35378 -0.19028 -0.25140
 H654 H 0.38311 -0.15922 -0.18007
 C655 C 0.50738 -0.15385 0.26829
 C656 C 0.48149 -0.17892 0.27803
 C657 C 0.47999 -0.20023 0.32207
 C658 C 0.50415 -0.19713 0.35563
 C659 C 0.52999 -0.17287 0.34268
 C660 C 0.53164 -0.15153 0.29973
 C661 C 0.50781 -0.13075 0.22541
 C662 C 0.53187 -0.10403 0.21914
 C663 C 0.53101 -0.08282 0.18095
 C664 C 0.50631 -0.08769 0.14716
 C665 C 0.48230 -0.11435 0.15211
 C666 C 0.48270 -0.13566 0.19223
 C667 C 0.45729 -0.18243 0.24414
 C668 C 0.45798 -0.16144 0.20127
 H669 H 0.43750 -0.20173 0.25086
 H670 H 0.43869 -0.16518 0.17627
 H671 H 0.45997 -0.21908 0.33078
 H672 H 0.54902 -0.16998 0.36730
 H673 H 0.54984 -0.06244 0.17798
 H674 H 0.46306 -0.11822 0.12679
 H675 H 0.55210 -0.13337 0.29230
 H676 H 0.55141 -0.09880 0.24456
 C677 C 0.33907 0.49007 0.26976
 C678 C 0.33936 0.51576 0.27856
 C679 C 0.31929 0.51700 0.32212
 C680 C 0.29842 0.49272 0.35565
 C681 C 0.29735 0.46706 0.34334
 C682 C 0.31734 0.46570 0.30115
 C683 C 0.36198 0.48993 0.22750
 C684 C 0.36539 0.46624 0.22303
 C685 C 0.38755 0.46732 0.18492
 C686 C 0.40672 0.49186 0.14940
 C687 C 0.40334 0.51549 0.15276
 C688 C 0.38163 0.51494 0.19304
 C689 C 0.35966 0.53996 0.24392
 C690 C 0.38001 0.53943 0.20097
 H691 H 0.35976 0.55960 0.24984
 H692 H 0.39520 0.55868 0.17513
 H693 H 0.32004 0.53687 0.33027
 H694 H 0.28136 0.44792 0.36789
 H695 H 0.38964 0.44876 0.18320
 H696 H 0.41811 0.53456 0.12585
 H697 H 0.31539 0.44536 0.29406
 H698 H 0.35159 0.44686 0.24982
 C699 C 1.15204 0.66087 0.26406
 C700 C 1.17651 0.65925 0.27729
 C701 C 1.19723 0.67850 0.32341
 C702 C 1.19411 0.69972 0.35591
 C703 C 1.17043 0.70200 0.33994
 C704 C 1.14969 0.68291 0.29477
 C705 C 1.12948 0.63877 0.21883
 C706 C 1.10330 0.63702 0.20830
 C707 C 1.08234 0.61512 0.16921
 C708 C 1.08697 0.59459 0.13867
 C709 C 1.11324 0.59657 0.14694
 C710 C 1.13425 0.61808 0.18799
 C711 C 1.18001 0.63830 0.24494
 C712 C 1.15949 0.61838 0.20053
 H713 H 1.19887 0.63720 0.25435
 H714 H 1.16313 0.60250 0.17716
 H715 H 1.21563 0.67677 0.33453
 H716 H 1.16755 0.71829 0.36370
 H717 H 1.06227 0.61411 0.16349
 H718 H 1.11693 0.58068 0.12405
 H719 H 1.13195 0.68573 0.28511
 H720 H 1.09824 0.65186 0.23125
 C721 C 0.48916 0.15053 0.26671
 C722 C 0.51494 0.17570 0.27670
 C723 C 0.51638 0.19655 0.32228
 C724 C 0.49229 0.19287 0.35727
 C725 C 0.46655 0.16851 0.34431
 C726 C 0.46494 0.14762 0.29979
 C727 C 0.48887 0.12789 0.22220
 C728 C 0.46493 0.10113 0.21494
 C729 C 0.46606 0.08021 0.17616
 C730 C 0.49095 0.08542 0.14285
 C731 C 0.51475 0.11222 0.14808
 C732 C 0.51404 0.13326 0.18854
 C733 C 0.53910 0.17980 0.24158
 C734 C 0.53855 0.15919 0.19759
 H735 H 0.55879 0.19921 0.24835
 H736 H 0.55778 0.16337 0.17163
 H737 H 0.53632 0.21550 0.33100
 H738 H 0.44756 0.16520 0.37005
 H739 H 0.44736 0.05974 0.17278
 H740 H 0.53416 0.11640 0.12305
 H741 H 0.44457 0.12933 0.29252
 H742 H 0.44528 0.09562 0.24014
 C743 C 0.66154 0.50938 0.26485
 C744 C 0.65998 0.48327 0.27762
 C745 C 0.67934 0.48175 0.32322
 C746 C 0.70060 0.50603 0.35573
 C747 C 0.70285 0.53201 0.34013
 C748 C 0.68366 0.53373 0.29540
 C749 C 0.63930 0.50988 0.22026
 C750 C 0.63746 0.53431 0.21028
 C751 C 0.61549 0.53341 0.17150
 C752 C 0.59501 0.50830 0.14079
 C753 C 0.59700 0.48399 0.14885
 C754 C 0.61859 0.48447 0.18945
 C755 C 0.63898 0.45886 0.24536
 C756 C 0.61894 0.45951 0.20149
 H757 H 0.63793 0.43891 0.25442
 H758 H 0.60302 0.44002 0.17811
 H759 H 0.67763 0.46160 0.33406
 H760 H 0.71918 0.55115 0.36388
 H761 H 0.61442 0.55246 0.16600
 H762 H 0.58106 0.46441 0.12602
 H763 H 0.68645 0.55429 0.28599
 H764 H 0.65231 0.55417 0.23336
 C765 C 0.84837 0.33924 0.27145
 C766 C 0.82303 0.33963 0.28048
 C767 C 0.80184 0.31973 0.32453
 C768 C 0.80534 0.29902 0.35878
 C769 C 0.82990 0.29791 0.34663
 C770 C 0.85111 0.31767 0.30369
 C771 C 0.87127 0.36195 0.22836
 C772 C 0.89817 0.36499 0.22260
 C773 C 0.91916 0.38701 0.18397
 C774 C 0.91391 0.40646 0.14933
 C775 C 0.88709 0.40346 0.15390
 C776 C 0.86597 0.38175 0.19435
 C777 C 0.81913 0.35994 0.24580
 C778 C 0.83997 0.38028 0.20277
 H779 H 0.79964 0.36011 0.25197
 H780 H 0.83592 0.39553 0.17710
 H781 H 0.78277 0.32055 0.33267
 H782 H 0.83311 0.28205 0.37179
 H783 H 0.93965 0.38881 0.18130
 H784 H 0.88292 0.41852 0.12788
 H785 H 0.86949 0.31570 0.29685
 H786 H 0.90369 0.35100 0.24867
   
