data_POSCAR
  _audit_creation_date              2014-09-24
  _audit_creation_method            'ToBaCCo'
  _symmetry_space_group_name_H-M    'P1'
  _symmetry_Int_Tables_number       1
  _symmetry_cell_setting            triclinic
  loop_
  _symmetry_equiv_pos_as_xyz
 x,y,z
_cell_length_a 27.4315
_cell_length_b 28.2652
_cell_length_c 27.5588
_cell_angle_alpha 91.373400
_cell_angle_beta 91.713100
_cell_angle_gamma 84.655900
loop_
  _atom_site_label
  _atom_site_type_symbol
  _atom_site_fract_x
  _atom_site_fract_y
  _atom_site_fract_z
C1 C 0.00880 0.44336 0.20914
 C2 C 0.05156 0.45230 0.24390
 C3 C 0.04578 0.49407 0.26922
 C4 C -0.00302 0.52363 0.25817
 C5 C -0.03646 0.44841 0.24060
 C6 C -0.04274 0.48981 0.26664
 C7 C 0.00208 0.48763 0.17711
 C8 C -0.00405 0.52970 0.20270
 H9 H 0.08536 0.42916 0.24540
 H10 H -0.00791 0.55727 0.27979
 H11 H -0.06310 0.42238 0.23980
 H12 H 0.00177 0.48634 0.13794
 C13 C 0.03739 0.43088 0.78330
 C14 C -0.00847 0.43327 0.75559
 C15 C -0.01934 0.47587 0.72882
 C16 C 0.01946 0.50824 0.73442
 C17 C 0.07456 0.43812 0.74846
 C18 C 0.06498 0.48026 0.72101
 C19 C 0.03479 0.47430 0.81376
 C20 C 0.02447 0.51790 0.78706
 H21 H -0.03497 0.40770 0.76022
 H22 H 0.01207 0.53901 0.71077
 H23 H 0.11068 0.41895 0.74964
 H24 H 0.04532 0.47354 0.85184
 C25 C 0.23583 0.02630 0.45459
 C26 C 0.26023 0.07226 0.46315
 C27 C 0.28743 0.07423 0.50494
 C28 C 0.28755 0.02926 0.53562
 C29 C 0.27730 -0.01346 0.45921
 C30 C 0.30397 -0.01293 0.50157
 C31 C 0.20576 0.02220 0.50063
 C32 C 0.23286 0.02382 0.54316
 H33 H 0.25594 0.10124 0.43787
 H34 H 0.31018 0.03053 0.56961
 H35 H 0.28031 -0.04346 0.43389
 H36 H 0.16671 0.01967 0.50030
 C37 C 0.74529 -0.00158 0.44054
 C38 C 0.71967 -0.04368 0.44492
 C39 C 0.69435 -0.04645 0.48921
 C40 C 0.69802 -0.00454 0.52081
 C41 C 0.70558 0.03995 0.44747
 C42 C 0.68120 0.03873 0.48972
 C43 C 0.77795 0.00050 0.48660
 C44 C 0.75333 -0.00106 0.52862
 H45 H 0.71717 -0.06914 0.41516
 H46 H 0.67837 -0.00445 0.55534
 H47 H 0.70173 0.07148 0.42588
 H48 H 0.81707 0.00303 0.48575
 C49 C 0.42230 0.23165 0.99032
 C50 C 0.42172 0.25893 1.03551
 C51 C 0.46265 0.28620 1.04419
 C52 C 0.49678 0.28189 1.00355
 C53 C 0.42672 0.26587 0.95291
 C54 C 0.46839 0.29255 0.95820
 C55 C 0.46997 0.20291 0.99156
 C56 C 0.51154 0.23055 0.99921
 H57 H 0.39221 0.25842 1.06071
 H58 H 0.52774 0.30411 1.00828
 H59 H 0.40207 0.26856 0.92137
 H60 H 0.47439 0.16466 0.99271
 C61 C 0.45991 0.75840 0.98204
 C62 C 0.47234 0.71142 0.95458
 C63 C 0.51503 0.68730 0.96934
 C64 C 0.54202 0.71251 1.01058
 C65 C 0.46167 0.74542 1.03560
 C66 C 0.50425 0.72104 1.05084
 C67 C 0.50246 0.78483 0.97651
 C68 C 0.54807 0.75994 0.99259
 H69 H 0.45164 0.70069 0.92270
 H70 H 0.57559 0.69118 1.02329
 H71 H 0.43211 0.75668 1.05968
 H72 H 0.50131 0.81744 0.95689
 B73 B 0.99095 1.03750 0.02390
 B74 B 0.98764 1.03741 -0.03842
 B75 B 1.04041 1.01403 -0.00892
 B76 B 1.02296 0.98524 0.04226
 B77 B 0.96000 0.99160 0.04362
 B78 B 0.93789 1.02347 -0.00652
 B79 B 0.98780 0.93817 -0.04058
 B80 B 0.99043 0.93815 0.02219
 B81 B 0.93718 0.96249 -0.00714
 B82 B 0.95475 0.99070 -0.05801
 B83 B 1.01801 0.98510 -0.05983
 B84 B 1.03996 0.95306 -0.00991
 B85 B 0.55395 0.51138 0.47559
 B86 B 0.55952 0.50575 0.53762
 B87 B 0.53582 0.55933 0.51341
 B88 B 0.50073 0.54686 0.46277
 B89 B 0.50199 0.48611 0.45537
 B90 B 0.53829 0.46057 0.50241
 B91 B 0.45758 0.51231 0.54350
 B92 B 0.45174 0.51755 0.48144
 B93 B 0.47564 0.46394 0.50562
 B94 B 0.51066 0.47685 0.55656
 B95 B 0.50946 0.53762 0.56338
 B96 B 0.47298 0.56302 0.51672
 C97 C 1.02746 1.38775 0.13512
 C98 C 1.03216 1.34201 0.11422
 C99 C 1.02527 1.30243 0.14201
 C100 C 1.01669 1.30876 0.19172
 C101 C 1.01288 1.35416 0.21277
 C102 C 1.01619 1.39456 0.18452
 C103 C 1.02707 1.25481 0.11882
 C104 C 0.99584 1.22351 0.13051
 C105 C 0.99546 1.17668 0.10612
 C106 C 0.95097 1.15798 0.09600
 C107 C 0.94983 1.11439 0.07139
 C108 C 0.99288 1.08778 0.05552
 C109 C 1.03731 1.10531 0.07124
 C110 C 1.03883 1.14946 0.09465
 H111 H 1.03302 1.41716 0.11232
 H112 H 1.04000 1.33760 0.07599
 H113 H 1.01308 1.27857 0.21438
 H114 H 1.00639 1.35786 0.25132
 H115 H 1.05195 1.24668 0.08931
 H116 H 0.96737 1.23378 0.15616
 H117 H 0.91686 1.17743 0.10649
 H118 H 0.91478 1.10192 0.06587
 H119 H 1.07173 1.08586 0.06592
 H120 H 1.07404 1.16182 0.10467
 C121 C 0.96385 0.58213 0.13416
 C122 C 0.95839 0.62623 0.11170
 C123 C 0.97848 0.66571 0.13335
 C124 C 1.00266 0.66057 0.17896
 C125 C 1.00788 0.61655 0.20154
 C126 C 0.98907 0.57668 0.17917
 C127 C 0.97255 0.71176 0.10805
 C128 C 1.00484 0.74449 0.11366
 C129 C 1.00036 0.79128 0.08960
 C130 C 1.03214 0.82473 0.10479
 C131 C 1.02972 0.86927 0.08361
 C132 C 0.99367 0.88461 0.04830
 C133 C 0.96586 0.84778 0.03000
 C134 C 0.96785 0.80286 0.05068
 H135 H 0.94784 0.55244 0.11645
 H136 H 0.93891 0.62939 0.07698
 H137 H 1.01711 0.69053 0.19770
 H138 H 1.02737 0.61375 0.23620
 H139 H 0.94129 0.71774 0.08344
 H140 H 1.03657 0.73700 0.13749
 H141 H 1.05990 0.81617 0.13283
 H142 H 1.05805 0.88991 0.09524
 H143 H 0.94312 0.85261 -0.00238
 H144 H 0.94500 0.77721 0.03462
 C145 C 1.06786 1.34486 -0.21565
 C146 C 1.06853 1.29998 -0.19573
 C147 C 1.04459 1.29378 -0.15269
 C148 C 1.02220 1.33387 -0.12814
 C149 C 1.02219 1.37919 -0.14758
 C150 C 1.04521 1.38583 -0.19180
 C151 C 1.04206 1.24483 -0.13582
 C152 C 1.00260 1.23148 -0.11432
 C153 C 0.99795 1.18229 -0.09910
 C154 C 0.96665 1.17560 -0.06154
 C155 C 0.96205 1.13031 -0.04470
 C156 C 0.98776 1.08918 -0.06480
 C157 C 1.01759 1.09657 -0.10454
 C158 C 1.02260 1.14218 -0.12141
 H159 H 1.08335 1.34659 -0.25113
 H160 H 1.08560 1.26953 -0.21551
 H161 H 1.00397 1.33023 -0.09432
 H162 H 1.00226 1.40869 -0.12886
 H163 H 1.07232 1.21881 -0.14410
 H164 H 0.97239 1.25780 -0.10662
 H165 H 0.94629 1.20578 -0.04422
 H166 H 0.93760 1.12852 -0.01566
 H167 H 1.03843 1.06807 -0.12254
 H168 H 1.04584 1.14568 -0.15189
 C169 C 1.01956 0.57089 -0.13992
 C170 C 1.01629 0.61642 -0.11836
 C171 C 1.01387 0.65717 -0.14670
 C172 C 1.01499 0.65122 -0.19735
 C173 C 1.01782 0.60592 -0.21899
 C174 C 1.02070 0.56437 -0.19093
 C175 C 1.01191 0.70472 -0.12198
 C176 C 1.00069 0.74621 -0.14454
 C177 C 0.99984 0.79347 -0.11953
 C178 C 0.97516 0.83310 -0.14154
 C179 C 0.97297 0.87800 -0.11864
 C180 C 0.99319 0.88573 -0.07168
 C181 C 1.02234 0.84546 -0.05310
 C182 C 1.02511 0.80065 -0.07568
 H183 H 1.02020 0.54128 -0.11584
 H184 H 1.01552 0.61976 -0.07914
 H185 H 1.01469 0.68123 -0.22094
 H186 H 1.01875 0.60504 -0.25795
 H187 H 1.01886 0.70502 -0.08314
 H188 H 0.98969 0.74618 -0.18250
 H189 H 0.95755 0.82951 -0.17700
 H190 H 0.95620 0.90548 -0.14004
 H191 H 1.04332 0.84698 -0.01974
 H192 H 1.04780 0.77206 -0.05859
 C193 C 1.23840 1.03298 0.36375
 C194 C 1.21814 1.03136 0.31684
 C195 C 1.17001 1.01989 0.30883
 C196 C 1.14200 1.01100 0.34909
 C197 C 1.16213 1.01329 0.39642
 C198 C 1.21072 1.02456 0.40444
 C199 C 1.15033 1.01880 0.25815
 C200 C 1.11669 0.98993 0.24274
 C201 C 1.09678 0.98766 0.19199
 C202 C 1.05496 0.96402 0.18305
 C203 C 1.03373 0.96211 0.13656
 C204 C 1.05267 0.98383 0.09612
 C205 C 1.09654 1.00516 0.10575
 C206 C 1.11813 1.00732 0.15239
 H207 H 1.27616 1.04092 0.36838
 H208 H 1.24050 1.03840 0.28654
 H209 H 1.10433 1.00300 0.34424
 H210 H 1.13950 1.00574 0.42611
 H211 H 1.16574 1.04155 0.23288
 H212 H 1.10247 0.96684 0.26862
 H213 H 1.03785 0.94748 0.21239
 H214 H 1.00126 0.94346 0.13310
 H215 H 1.11528 1.02073 0.07819
 H216 H 1.15178 1.02422 0.15667
 C217 C 1.22986 1.04489 -0.36780
 C218 C 1.21123 1.04006 -0.32156
 C219 C 1.17441 1.00977 -0.31420
 C220 C 1.15719 0.98377 -0.35452
 C221 C 1.17558 0.98890 -0.40080
 C222 C 1.21211 1.01952 -0.40801
 C223 C 1.15582 1.00595 -0.26412
 C224 C 1.11342 0.98816 -0.25456
 C225 C 1.09265 0.98588 -0.20533
 C226 C 1.04400 0.97601 -0.20234
 C227 C 1.02199 0.97393 -0.15756
 C228 C 1.04653 0.98230 -0.11287
 C229 C 1.09675 0.98936 -0.11682
 C230 C 1.11936 0.99151 -0.16171
 H231 H 1.25775 1.06903 -0.37212
 H232 H 1.22550 1.06038 -0.29140
 H233 H 1.13024 0.95866 -0.35074
 H234 H 1.16200 0.96795 -0.43081
 H235 H 1.17698 1.02056 -0.23461
 H236 H 1.09077 0.97666 -0.28453
 H237 H 1.02234 0.97009 -0.23510
 H238 H 0.98539 0.96579 -0.16003
 H239 H 1.12015 0.99106 -0.08582
 H240 H 1.15794 0.99659 -0.16169
 C241 C 0.80963 0.95717 0.38687
 C242 C 0.83605 0.95237 0.34435
 C243 C 0.82985 0.98763 0.30944
 C244 C 0.79658 1.02765 0.31735
 C245 C 0.76935 1.03206 0.35937
 C246 C 0.77513 0.99661 0.39471
 C247 C 0.85575 0.98061 0.26360
 C248 C 0.87195 1.01672 0.24033
 C249 C 0.89357 1.00993 0.19230
 C250 C 0.93210 1.03560 0.18032
 C251 C 0.95229 1.02984 0.13452
 C252 C 0.93429 0.99908 0.09785
 C253 C 0.89361 0.97577 0.11107
 C254 C 0.87410 0.98022 0.15717
 H255 H 0.81525 0.92940 0.41343
 H256 H 0.86137 0.92109 0.33869
 H257 H 0.79037 1.05487 0.29029
 H258 H 0.74376 1.06313 0.36290
 H259 H 0.86215 0.94470 0.24895
 H260 H 0.87023 1.05185 0.25721
 H261 H 0.94781 1.05901 0.20699
 H262 H 0.98490 1.04729 0.13057
 H263 H 0.87127 0.95998 0.08521
 H264 H 0.84176 0.96252 0.16434
 C265 C 0.81488 1.03145 -0.41423
 C266 C 0.83722 1.03414 -0.36827
 C267 C 0.82233 1.00733 -0.33011
 C268 C 0.78474 0.97725 -0.33905
 C269 C 0.76227 0.97475 -0.38502
 C270 C 0.77724 1.00170 -0.42295
 C271 C 0.84842 1.01053 -0.28256
 C272 C 0.83199 0.99523 -0.24097
 C273 C 0.86094 0.99630 -0.19510
 C274 C 0.85876 0.95977 -0.16242
 C275 C 0.88808 0.95812 -0.12023
 C276 C 0.91932 0.99378 -0.10759
 C277 C 0.92074 1.03028 -0.14158
 C278 C 0.89182 1.03197 -0.18406
 H279 H 0.82665 1.05309 -0.44277
 H280 H 0.86619 1.05740 -0.36247
 H281 H 0.77311 0.95470 -0.31137
 H282 H 0.73393 0.95088 -0.39115
 H283 H 0.88327 1.02571 -0.28222
 H284 H 0.79783 0.97910 -0.24034
 H285 H 0.83586 0.93119 -0.17050
 H286 H 0.88778 0.92677 -0.09875
 H287 H 0.94498 1.05737 -0.13702
 H288 H 0.89407 1.06123 -0.20828
 C289 C 1.33195 1.23674 -0.01731
 C290 C 1.28745 1.21698 -0.02341
 C291 C 1.28620 1.16789 -0.02917
 C292 C 1.33084 1.13896 -0.03079
 C293 C 1.37575 1.15872 -0.02498
 C294 C 1.37731 1.20819 -0.01714
 C295 C 1.23774 1.14847 -0.03326
 C296 C 1.23062 1.10504 -0.01812
 C297 C 1.18252 1.08479 -0.01813
 C298 C 1.18266 1.03682 -0.00808
 C299 C 1.13909 1.01578 -0.00478
 C300 C 1.09237 1.04073 -0.01191
 C301 C 1.09324 1.08986 -0.02108
 C302 C 1.13707 1.11146 -0.02441
 H303 H 1.33102 1.27497 -0.01230
 H304 H 1.25373 1.24019 -0.02262
 H305 H 1.33134 1.10100 -0.03719
 H306 H 1.40846 1.13459 -0.02707
 H307 H 1.20707 1.17185 -0.04656
 H308 H 1.26175 1.08284 -0.00372
 H309 H 1.21694 1.01515 -0.00203
 H310 H 1.14383 0.97978 0.00432
 H311 H 1.06052 1.11362 -0.02144
 H312 H 1.13469 1.14934 -0.02988
 C313 C 0.59718 1.23345 0.02848
 C314 C 0.64564 1.21311 0.03185
 C315 C 0.65973 1.16979 0.00820
 C316 C 0.62401 1.14630 -0.01784
 C317 C 0.57510 1.16582 -0.02000
 C318 C 0.56082 1.21014 0.00259
 C319 C 0.71106 1.14853 0.01375
 C320 C 0.73569 1.12603 -0.02272
 C321 C 0.78682 1.10419 -0.01652
 C322 C 0.81957 1.10510 -0.05423
 C323 C 0.86728 1.08289 -0.04960
 C324 C 0.88434 1.05724 -0.00792
 C325 C 0.85015 1.05752 0.02962
 C326 C 0.80290 1.08065 0.02582
 H327 H 0.58826 1.26639 0.04838
 H328 H 0.67236 1.23141 0.05295
 H329 H 0.63370 1.11233 -0.03572
 H330 H 0.54901 1.14670 -0.04097
 H331 H 0.72984 1.15374 0.04836
 H332 H 0.71865 1.12514 -0.05868
 H333 H 0.80836 1.12337 -0.08742
 H334 H 0.89039 1.08669 -0.07928
 H335 H 0.85894 1.04101 0.06301
 H336 H 0.77847 1.07878 0.05571
 C337 C 1.39972 0.82824 -0.04828
 C338 C 1.35155 0.84724 -0.05782
 C339 C 1.31235 0.81984 -0.05124
 C340 C 1.32185 0.77229 -0.03800
 C341 C 1.36964 0.75322 -0.02885
 C342 C 1.40935 0.78098 -0.03288
 C343 C 1.26179 0.84212 -0.05479
 C344 C 1.22897 0.83299 -0.02216
 C345 C 1.18084 0.86003 -0.01987
 C346 C 1.16370 0.87614 0.02519
 C347 C 1.11994 0.90502 0.02830
 C348 C 1.09062 0.91752 -0.01323
 C349 C 1.10778 0.89842 -0.05824
 C350 C 1.15239 0.87081 -0.06166
 H351 H 1.42844 0.85142 -0.05172
 H352 H 1.34473 0.88407 -0.06813
 H353 H 1.29221 0.75010 -0.03370
 H354 H 1.37566 0.71674 -0.01723
 H355 H 1.25306 0.87013 -0.08069
 H356 H 1.23972 0.80916 0.00731
 H357 H 1.18572 0.86877 0.05791
 H358 H 1.11298 0.92126 0.06289
 H359 H 1.08619 0.90261 -0.09127
 H360 H 1.16427 0.85726 -0.09689
 C361 C 0.63841 0.75140 -0.00588
 C362 C 0.68284 0.77176 -0.00460
 C363 C 0.68396 0.82117 -0.00521
 C364 C 0.63938 0.85003 -0.00716
 C365 C 0.59489 0.82975 -0.00896
 C366 C 0.59343 0.78002 -0.00789
 C367 C 0.73220 0.84081 -0.00196
 C368 C 0.73907 0.88582 -0.01214
 C369 C 0.78756 0.90474 -0.00842
 C370 C 0.79461 0.94608 -0.03270
 C371 C 0.84003 0.96457 -0.03045
 C372 C 0.88171 0.94172 -0.00590
 C373 C 0.87109 0.90349 0.02292
 C374 C 0.82588 0.88458 0.02111
 H375 H 0.64021 0.71308 -0.00680
 H376 H 0.71664 0.74864 -0.00323
 H377 H 0.63820 0.88835 -0.00590
 H378 H 0.56180 0.85372 -0.00867
 H379 H 0.76350 0.81636 0.00774
 H380 H 0.70887 0.90947 -0.02595
 H381 H 0.76501 0.96406 -0.05410
 H382 H 0.84175 0.99585 -0.05105
 H383 H 0.89453 0.89215 0.05290
 H384 H 0.82052 0.85595 0.04518
 C385 C 0.88749 0.54621 0.29553
 C386 C 0.84229 0.55423 0.31817
 C387 C 0.82228 0.51724 0.34177
 C388 C 0.84985 0.47289 0.34500
 C389 C 0.89479 0.46492 0.32243
 C390 C 0.91346 0.50106 0.29639
 C391 C 0.77329 0.52611 0.36341
 C392 C 0.74378 0.49147 0.37002
 C393 C 0.69548 0.49907 0.39343
 C394 C 0.68242 0.53885 0.42291
 C395 C 0.63787 0.54337 0.44637
 C396 C 0.60381 0.50896 0.44224
 C397 C 0.61801 0.46911 0.41216
 C398 C 0.66258 0.46424 0.38824
 H399 H 0.90100 0.57462 0.27560
 H400 H 0.82217 0.58899 0.31594
 H401 H 0.83691 0.44418 0.36484
 H402 H 0.91471 0.43007 0.32469
 H403 H 0.76074 0.56266 0.37202
 H404 H 0.75480 0.45579 0.35690
 H405 H 0.70690 0.56630 0.42943
 H406 H 0.63154 0.57466 0.46738
 H407 H 0.59520 0.44102 0.40648
 H408 H 0.67153 0.43271 0.36595
 C409 C 0.11584 0.54352 0.27719
 C410 C 0.16130 0.55175 0.29845
 C411 C 0.17834 0.52833 0.34089
 C412 C 0.14828 0.49754 0.36259
 C413 C 0.10316 0.48879 0.34085
 C414 C 0.08704 0.51121 0.29769
 C415 C 0.22938 0.53248 0.35845
 C416 C 0.24391 0.52764 0.40504
 C417 C 0.29581 0.52785 0.42120
 C418 C 0.30729 0.54884 0.46584
 C419 C 0.35587 0.54783 0.48271
 C420 C 0.39514 0.52340 0.45734
 C421 C 0.38239 0.50382 0.41137
 C422 C 0.33394 0.50599 0.39362
 H423 H 0.10462 0.56000 0.24307
 H424 H 0.18400 0.57518 0.28078
 H425 H 0.16079 0.47795 0.39457
 H426 H 0.08187 0.46281 0.35639
 H427 H 0.25584 0.54010 0.33195
 H428 H 0.21699 0.52480 0.43254
 H429 H 0.27861 0.56685 0.48753
 H430 H 0.36179 0.56749 0.51574
 H431 H 0.40934 0.48803 0.38761
 H432 H 0.32634 0.48952 0.35867
 C433 C 0.91436 0.53324 0.69722
 C434 C 0.86679 0.54233 0.67745
 C435 C 0.83906 0.50479 0.66337
 C436 C 0.85975 0.45794 0.66937
 C437 C 0.90679 0.44879 0.68929
 C438 C 0.93479 0.48614 0.70452
 C439 C 0.78795 0.51484 0.64480
 C440 C 0.76716 0.48516 0.61352
 C441 C 0.71546 0.49171 0.59635
 C442 C 0.70265 0.47047 0.55224
 C443 C 0.65415 0.47373 0.53542
 C444 C 0.61580 0.49861 0.56154
 C445 C 0.62943 0.51752 0.60752
 C446 C 0.67825 0.51468 0.62442
 H447 H 0.93346 0.56337 0.70923
 H448 H 0.85140 0.57880 0.67362
 H449 H 0.83923 0.42797 0.65997
 H450 H 0.92111 0.41196 0.69210
 H451 H 0.76760 0.54761 0.65644
 H452 H 0.78940 0.45508 0.59827
 H453 H 0.73036 0.45087 0.53055
 H454 H 0.64750 0.45480 0.50214
 H455 H 0.60297 0.53318 0.63191
 H456 H 0.68642 0.52922 0.66011
 C457 C 0.10877 0.54195 0.68383
 C458 C 0.14908 0.55360 0.65787
 C459 C 0.17922 0.51769 0.63469
 C460 C 0.16815 0.47055 0.63648
 C461 C 0.12960 0.45868 0.66395
 C462 C 0.09986 0.49400 0.68893
 C463 C 0.22379 0.52707 0.60993
 C464 C 0.26235 0.54243 0.63450
 C465 C 0.31242 0.53342 0.61572
 C466 C 0.32593 0.49174 0.58924
 C467 C 0.37226 0.48379 0.57006
 C468 C 0.40790 0.51629 0.57646
 C469 C 0.39465 0.55645 0.60664
 C470 C 0.34791 0.56481 0.62614
 H471 H 0.08733 0.57014 0.70279
 H472 H 0.15716 0.59032 0.65646
 H473 H 0.19083 0.44250 0.61828
 H474 H 0.12304 0.42154 0.66549
 H475 H 0.22847 0.51153 0.57385
 H476 H 0.25789 0.55792 0.67063
 H477 H 0.30056 0.46496 0.58287
 H478 H 0.37845 0.45213 0.54945
 H479 H 0.41944 0.58257 0.61477
 H480 H 0.33908 0.59658 0.64809
 C481 C 0.55903 0.70325 0.12441
 C482 C 0.56536 0.68979 0.17302
 C483 C 0.52526 0.67802 0.19924
 C484 C 0.47854 0.68132 0.17643
 C485 C 0.47239 0.69398 0.12815
 C486 C 0.51236 0.70543 0.10157
 C487 C 0.53200 0.66298 0.25033
 C488 C 0.50262 0.63306 0.26872
 C489 C 0.50199 0.61930 0.31995
 C490 C 0.46005 0.60049 0.33515
 C491 C 0.45835 0.58201 0.38114
 C492 C 0.49833 0.58058 0.41439
 C493 C 0.53921 0.60324 0.39954
 C494 C 0.54131 0.62210 0.35313
 H495 H 0.59039 0.71276 0.10513
 H496 H 0.60157 0.68822 0.19003
 H497 H 0.44625 0.67469 0.19584
 H498 H 0.43601 0.69472 0.11170
 H499 H 0.56075 0.67699 0.27251
 H500 H 0.47577 0.61800 0.24485
 H501 H 0.42845 0.59888 0.31078
 H502 H 0.42526 0.56824 0.38877
 H503 H 0.57070 0.60557 0.42262
 H504 H 0.57447 0.63682 0.34298
 C505 C 0.50970 0.60832 0.93002
 C506 C 0.51855 0.57985 0.88859
 C507 C 0.55338 0.59125 0.85567
 C508 C 0.58422 0.62694 0.86823
 C509 C 0.57586 0.65494 0.91011
 C510 C 0.53653 0.64758 0.93943
 C511 C 0.55080 0.57140 0.80583
 C512 C 0.55075 0.59993 0.76763
 C513 C 0.53740 0.58562 0.71742
 C514 C 0.55097 0.61260 0.67916
 C515 C 0.53911 0.60027 0.63122
 C516 C 0.51410 0.55980 0.61927
 C517 C 0.49546 0.53710 0.65899
 C518 C 0.50760 0.54889 0.70698
 H519 H 0.47894 0.60250 0.95220
 H520 H 0.49471 0.55222 0.87969
 H521 H 0.61213 0.63559 0.84380
 H522 H 0.59650 0.68543 0.91651
 H523 H 0.54196 0.53503 0.80106
 H524 H 0.55883 0.63648 0.77349
 H525 H 0.57109 0.64338 0.68626
 H526 H 0.54838 0.62417 0.60460
 H527 H 0.47075 0.51007 0.65390
 H528 H 0.49253 0.52970 0.73562
 C529 C 0.45187 0.28777 0.13227
 C530 C 0.45910 0.30706 0.17850
 C531 C 0.48599 0.34631 0.18573
 C532 C 0.50744 0.36499 0.14533
 C533 C 0.50116 0.34475 0.09849
 C534 C 0.47201 0.30645 0.09096
 C535 C 0.49124 0.36483 0.23636
 C536 C 0.49578 0.41043 0.24862
 C537 C 0.49602 0.42823 0.30003
 C538 C 0.51914 0.46899 0.31201
 C539 C 0.52104 0.48624 0.35992
 C540 C 0.49913 0.46442 0.39854
 C541 C 0.47506 0.42367 0.38516
 C542 C 0.47333 0.40604 0.33723
 H543 H 0.43184 0.25659 0.12992
 H544 H 0.44307 0.29125 0.20897
 H545 H 0.52945 0.39471 0.14989
 H546 H 0.51753 0.36046 0.06825
 H547 H 0.48824 0.33963 0.26482
 H548 H 0.49951 0.43571 0.22036
 H549 H 0.53711 0.48707 0.28432
 H550 H 0.54230 0.51578 0.36603
 H551 H 0.45926 0.40335 0.41148
 H552 H 0.45383 0.37503 0.32971
 C553 C 0.51510 0.35254 0.92025
 C554 C 0.52866 0.37447 0.87782
 C555 C 0.51525 0.35694 0.83149
 C556 C 0.49124 0.31526 0.82857
 C557 C 0.47672 0.29441 0.87019
 C558 C 0.48675 0.31339 0.91691
 C559 C 0.52603 0.38183 0.78641
 C560 C 0.49741 0.37902 0.74601
 C561 C 0.50456 0.40109 0.69863
 C562 C 0.46622 0.40183 0.66408
 C563 C 0.46996 0.42259 0.61917
 C564 C 0.51217 0.44353 0.60572
 C565 C 0.55144 0.44021 0.64042
 C566 C 0.54791 0.41961 0.68592
 H567 H 0.52439 0.36794 0.95526
 H568 H 0.54835 0.40591 0.88119
 H569 H 0.48350 0.29825 0.79396
 H570 H 0.45880 0.26204 0.86520
 H571 H 0.55630 0.40381 0.78736
 H572 H 0.46477 0.36044 0.74784
 H573 H 0.43241 0.38696 0.67208
 H574 H 0.43865 0.42220 0.59561
 H575 H 0.58522 0.45381 0.63392
 H576 H 0.57919 0.41849 0.71082
 C577 C 0.63430 0.91410 0.53544
 C578 C 0.61200 0.87295 0.54574
 C579 C 0.62787 0.82929 0.52359
 C580 C 0.66559 0.82747 0.49026
 C581 C 0.68717 0.86830 0.47930
 C582 C 0.67190 0.91256 0.50139
 C583 C 0.60291 0.78637 0.53241
 C584 C 0.62737 0.74307 0.53220
 C585 C 0.60309 0.69865 0.53011
 C586 C 0.62855 0.65690 0.54682
 C587 C 0.60844 0.61348 0.54101
 C588 C 0.56218 0.60965 0.51773
 C589 C 0.53839 0.65239 0.49940
 C590 C 0.55787 0.69596 0.50598
 H591 H 0.62020 0.94715 0.55260
 H592 H 0.58227 0.87521 0.57093
 H593 H 0.67790 0.79454 0.47165
 H594 H 0.71702 0.86425 0.45435
 H595 H 0.56374 0.79047 0.53758
 H596 H 0.66705 0.73983 0.53189
 H597 H 0.66463 0.65767 0.56377
 H598 H 0.63126 0.58317 0.55237
 H599 H 0.50529 0.65291 0.47774
 H600 H 0.53838 0.72711 0.49000
 C601 C 0.66779 0.10298 0.55282
 C602 C 0.65245 0.15061 0.56364
 C603 C 0.62298 0.17764 0.53009
 C604 C 0.60425 0.15499 0.48850
 C605 C 0.61968 0.10771 0.47763
 C606 C 0.65349 0.08213 0.50847
 C607 C 0.61524 0.22984 0.53636
 C608 C 0.61700 0.25776 0.49797
 C609 C 0.60403 0.30949 0.49904
 C610 C 0.58210 0.32984 0.45743
 C611 C 0.56479 0.37758 0.45742
 C612 C 0.56948 0.40781 0.49829
 C613 C 0.59607 0.38725 0.53863
 C614 C 0.61240 0.33880 0.53947
 H615 H 0.69403 0.08387 0.57706
 H616 H 0.66654 0.16724 0.59630
 H617 H 0.57971 0.17456 0.46302
 H618 H 0.60785 0.09204 0.44353
 H619 H 0.60898 0.24503 0.57232
 H620 H 0.62440 0.24144 0.46262
 H621 H 0.57619 0.30818 0.42516
 H622 H 0.54722 0.38917 0.42483
 H623 H 0.60322 0.40767 0.57062
 H624 H 0.63113 0.32444 0.57175
 C625 C 0.33033 0.92523 0.56329
 C626 C 0.35023 0.87894 0.57373
 C627 C 0.37435 0.85026 0.53784
 C628 C 0.38225 0.87026 0.49283
 C629 C 0.36264 0.91641 0.48251
 C630 C 0.33473 0.94368 0.51688
 C631 C 0.38978 0.79948 0.54748
 C632 C 0.38852 0.76570 0.51235
 C633 C 0.40368 0.71418 0.51846
 C634 C 0.39496 0.68285 0.47983
 C635 C 0.41309 0.63504 0.48136
 C636 C 0.44117 0.61589 0.52124
 C637 C 0.44634 0.64754 0.56117
 C638 C 0.42849 0.69556 0.55994
 H639 H 0.30884 0.94525 0.59046
 H640 H 0.34444 0.86463 0.60899
 H641 H 0.40261 0.84990 0.46510
 H642 H 0.36743 0.93009 0.44675
 H643 H 0.39921 0.79000 0.58456
 H644 H 0.37498 0.77622 0.47650
 H645 H 0.37518 0.69563 0.44739
 H646 H 0.40561 0.61400 0.45004
 H647 H 0.46516 0.63680 0.59364
 H648 H 0.43602 0.71794 0.59108
 C649 C 0.36177 0.11380 0.53398
 C650 C 0.38708 0.15477 0.53814
 C651 C 0.36354 0.19963 0.52648
 C652 C 0.31325 0.20310 0.51414
 C653 C 0.28818 0.16240 0.50991
 C654 C 0.31248 0.11720 0.51823
 C655 C 0.39186 0.24212 0.52765
 C656 C 0.37984 0.27984 0.49926
 C657 C 0.40548 0.32407 0.49996
 C658 C 0.38221 0.36450 0.47790
 C659 C 0.40366 0.40755 0.47920
 C660 C 0.44971 0.41263 0.50227
 C661 C 0.47280 0.37070 0.52332
 C662 C 0.45158 0.32757 0.52216
 H663 H 0.38128 0.07937 0.54066
 H664 H 0.42558 0.15121 0.54870
 H665 H 0.29307 0.23714 0.50738
 H666 H 0.24979 0.16616 0.49893
 H667 H 0.42362 0.24134 0.55187
 H668 H 0.34868 0.27902 0.47431
 H669 H 0.34635 0.36329 0.46058
 H670 H 0.38190 0.43693 0.46434
 H671 H 0.50643 0.37077 0.54388
 H672 H 0.47164 0.29741 0.53926
   
