data_POSCAR
  _audit_creation_date              2014-09-24
  _audit_creation_method            'ToBaCCo'
  _symmetry_space_group_name_H-M    'P1'
  _symmetry_Int_Tables_number       1
  _symmetry_cell_setting            triclinic
  loop_
  _symmetry_equiv_pos_as_xyz
 x,y,z
_cell_length_a 29.5670
_cell_length_b 29.5488
_cell_length_c 20.8375
_cell_angle_alpha 89.795500
_cell_angle_beta 90.043700
_cell_angle_gamma 90.006300
loop_
  _atom_site_label
  _atom_site_type_symbol
  _atom_site_fract_x
  _atom_site_fract_y
  _atom_site_fract_z
C1 C 1.28797 0.20184 0.27632
 C2 C 1.25139 0.22552 0.25023
 C3 C 1.21481 0.20182 0.22450
 C4 C 1.21449 0.15435 0.22359
 C5 C 1.25145 0.13065 0.25049
 C6 C 1.28847 0.15421 0.27770
 C7 C 1.25138 0.27537 0.24989
 C8 C 1.28789 0.29907 0.22373
 C9 C 1.28838 0.34670 0.22225
 C10 C 1.25136 0.37026 0.24951
 C11 C 1.21445 0.34651 0.27654
 C12 C 1.21484 0.29904 0.27565
 H13 H 1.31569 0.22109 0.29660
 H14 H 1.18692 0.22079 0.20404
 H15 H 1.31557 0.27981 0.20344
 H16 H 1.18701 0.28002 0.29615
 H17 H 1.25123 0.09400 0.25030
 H18 H 1.25111 0.40691 0.24965
 C19 C 0.78651 -0.29920 0.27698
 C20 C 0.74980 -0.27555 0.25131
 C21 C 0.71332 -0.29922 0.22539
 C22 C 0.71320 -0.34667 0.22380
 C23 C 0.75031 -0.37041 0.25035
 C24 C 0.78728 -0.34681 0.27774
 C25 C 0.74975 -0.22574 0.25122
 C26 C 0.78647 -0.20202 0.22574
 C27 C 0.78683 -0.15454 0.22456
 C28 C 0.74980 -0.13088 0.25098
 C29 C 0.71273 -0.15459 0.27751
 C30 C 0.71303 -0.20207 0.27656
 H31 H 0.81415 -0.27991 0.29738
 H32 H 0.68536 -0.28021 0.20518
 H33 H 0.81443 -0.22096 0.20569
 H34 H 0.68505 -0.22106 0.29669
 H35 H 0.75029 -0.40705 0.24964
 H36 H 0.74982 -0.09424 0.25089
 C37 C 0.78720 0.20229 -0.22551
 C38 C 0.75051 0.22596 -0.25124
 C39 C 0.71374 0.20223 -0.27642
 C40 C 0.71334 0.15474 -0.27695
 C41 C 0.75037 0.13110 -0.25018
 C42 C 0.78747 0.15481 -0.22392
 C43 C 0.75054 0.27579 -0.25165
 C44 C 0.78721 0.29942 -0.27742
 C45 C 0.78784 0.34704 -0.27865
 C46 C 0.75079 0.37066 -0.25162
 C47 C 0.71371 0.34695 -0.22501
 C48 C 0.71397 0.29949 -0.22609
 H49 H 0.81521 0.22126 -0.20556
 H50 H 0.68577 0.22116 -0.29674
 H51 H 0.81492 0.28013 -0.29756
 H52 H 0.68604 0.28051 -0.20581
 H53 H 0.75032 0.09446 -0.24976
 H54 H 0.75065 0.40731 -0.25130
 C55 C 1.28674 -0.29914 -0.22341
 C56 C 1.24995 -0.27547 -0.24874
 C57 C 1.21336 -0.29909 -0.27442
 C58 C 1.21324 -0.34651 -0.27604
 C59 C 1.25042 -0.37029 -0.24987
 C60 C 1.28748 -0.34674 -0.22277
 C61 C 1.24990 -0.22570 -0.24871
 C62 C 1.28669 -0.20197 -0.27390
 C63 C 1.28704 -0.15451 -0.27497
 C64 C 1.24993 -0.13088 -0.24880
 C65 C 1.21281 -0.15461 -0.22259
 C66 C 1.21311 -0.20207 -0.22357
 H67 H 1.31446 -0.27989 -0.20314
 H68 H 1.18533 -0.28007 -0.29441
 H69 H 1.31472 -0.22088 -0.29386
 H70 H 1.18507 -0.22107 -0.20362
 H71 H 1.25038 -0.40694 -0.25065
 H72 H 1.24995 -0.09424 -0.24884
 C73 C 0.20156 0.28624 0.72649
 C74 C 0.22524 0.24974 0.75272
 C75 C 0.20160 0.21302 0.77848
 C76 C 0.15400 0.21230 0.77910
 C77 C 0.13043 0.24929 0.75143
 C78 C 0.15414 0.28638 0.72476
 C79 C 0.27504 0.24987 0.75283
 C80 C 0.29863 0.28653 0.77850
 C81 C 0.34623 0.28732 0.77918
 C82 C 0.36985 0.25044 0.75170
 C83 C 0.34618 0.21339 0.72517
 C84 C 0.29876 0.21346 0.72683
 H85 H 0.22053 0.31421 0.70621
 H86 H 0.22087 0.18534 0.79908
 H87 H 0.27932 0.31413 0.79892
 H88 H 0.27981 0.18554 0.70663
 H89 H 0.09381 0.24935 0.75060
 H90 H 0.40647 0.25045 0.75092
 C91 C 0.70086 0.78692 0.72394
 C92 C 0.72453 0.75035 0.75001
 C93 C 0.70093 0.71378 0.77618
 C94 C 0.65337 0.71325 0.77744
 C95 C 0.62973 0.75033 0.75015
 C96 C 0.65329 0.78743 0.72281
 C97 C 0.77435 0.75034 0.74987
 C98 C 0.79810 0.78696 0.77547
 C99 C 0.84557 0.78730 0.77642
 C100 C 0.86918 0.75037 0.74957
 C101 C 0.84546 0.71343 0.72286
 C102 C 0.79800 0.71375 0.72411
 H103 H 0.72009 0.81464 0.70344
 H104 H 0.72022 0.68605 0.79660
 H105 H 0.77918 0.81484 0.79581
 H106 H 0.77901 0.68586 0.70389
 H107 H 0.59310 0.75032 0.75019
 H108 H 0.90579 0.75038 0.74946
 C109 C 0.70181 0.28653 0.22394
 C110 C 0.72541 0.24972 0.24951
 C111 C 0.70168 0.21292 0.27480
 C112 C 0.65424 0.21261 0.27561
 C113 C 0.63064 0.24975 0.24903
 C114 C 0.65437 0.28687 0.22267
 C115 C 0.77516 0.24974 0.24985
 C116 C 0.79875 0.28654 0.27508
 C117 C 0.84619 0.28688 0.27642
 C118 C 0.86994 0.24977 0.25044
 C119 C 0.84635 0.21263 0.22418
 C120 C 0.79891 0.21295 0.22494
 H121 H 0.72080 0.31457 0.20391
 H122 H 0.72058 0.18489 0.29506
 H123 H 0.77975 0.31456 0.29482
 H124 H 0.78001 0.18491 0.20494
 H125 H 0.59402 0.24976 0.24886
 H126 H 0.90656 0.24979 0.25066
 C127 C 0.20089 0.78651 0.22397
 C128 C 0.22453 0.74993 0.25004
 C129 C 0.20093 0.71338 0.27620
 C130 C 0.15337 0.71289 0.27749
 C131 C 0.12974 0.74997 0.25018
 C132 C 0.15333 0.78705 0.22282
 C133 C 0.27432 0.74994 0.24994
 C134 C 0.29802 0.78653 0.27566
 C135 C 0.34547 0.78694 0.27658
 C136 C 0.36913 0.75008 0.24957
 C137 C 0.34544 0.71316 0.22273
 C138 C 0.29798 0.71343 0.22404
 H139 H 0.22015 0.81421 0.20348
 H140 H 0.22022 0.68566 0.29663
 H141 H 0.27905 0.81434 0.29609
 H142 H 0.27899 0.68556 0.20374
 H143 H 0.09310 0.74999 0.25023
 H144 H 0.40575 0.75014 0.24941
 O145 O 1.07774 0.02320 0.08030
 O146 O 0.92328 -0.02349 0.08016
 O147 O 0.97737 0.07690 0.08029
 O148 O 1.02343 -0.07769 0.08031
 O149 O 0.91447 0.05248 0.04562
 O150 O 1.08639 -0.05288 0.04609
 O151 O 0.94750 -0.08635 0.04540
 O152 O 1.05325 0.08610 0.04531
 C153 C 1.07659 0.06460 0.08517
 C154 C 0.92441 -0.06488 0.08531
 C155 C 0.93604 0.07550 0.08556
 C156 C 1.06479 -0.07643 0.08565
 O157 O 1.07756 -0.02351 -0.07841
 O158 O 0.92344 0.02360 -0.07876
 O159 O 1.02375 0.07737 -0.07873
 O160 O 0.97690 -0.07707 -0.07878
 O161 O 0.91412 -0.05241 -0.04424
 O162 O 1.08662 0.05244 -0.04431
 O163 O 1.05276 -0.08635 -0.04364
 O164 O 0.94788 0.08637 -0.04389
 Co165 Co 1.07397 -0.00018 0.00092
 Co166 Co 0.92694 0.00003 0.00070
 Co167 Co 1.00053 0.07352 0.00077
 Co168 Co 1.00016 -0.07371 0.00080
 O169 O 1.00041 -0.00009 0.00081
 C170 C 1.07597 -0.06485 -0.08357
 C171 C 0.92472 0.06499 -0.08389
 C172 C 1.06510 0.07599 -0.08398
 C173 C 0.93554 -0.07566 -0.08404
 O174 O 1.07727 0.52334 0.57871
 O175 O 0.92294 0.47696 0.57900
 O176 O 0.97647 0.57744 0.57846
 O177 O 1.02356 0.42309 0.57918
 O178 O 0.91370 0.55290 0.54364
 O179 O 1.08638 0.44746 0.54419
 O180 O 0.94760 0.41404 0.54489
 O181 O 1.05249 0.58632 0.54420
 C182 C 1.07581 0.56468 0.58400
 C183 C 0.92420 0.43558 0.58444
 C184 C 0.93511 0.57619 0.58345
 C185 C 1.06493 0.42418 0.58418
 O186 O 1.07721 0.47702 0.41985
 O187 O 0.92275 0.52337 0.41975
 O188 O 1.02344 0.57760 0.41974
 O189 O 0.97675 0.42315 0.42033
 O190 O 0.91391 0.44747 0.45507
 O191 O 1.08628 0.55302 0.45455
 O192 O 1.05270 0.41408 0.45469
 O193 O 0.94741 0.58634 0.45380
 Co194 Co 1.07363 0.50021 0.49931
 Co195 Co 0.92648 0.50017 0.49937
 Co196 Co 0.99996 0.57383 0.49909
 Co197 Co 1.00014 0.42670 0.49973
 O198 O 1.00006 0.50024 0.49936
 C199 C 1.07609 0.43563 0.41490
 C200 C 0.92397 0.56475 0.41428
 C201 C 1.06480 0.57647 0.41475
 C202 C 0.93541 0.42440 0.41519
 O203 O 0.57693 0.02332 0.58017
 O204 O 0.42263 -0.02327 0.58022
 O205 O 0.47662 0.07725 0.57981
 O206 O 0.52301 -0.07741 0.58054
 O207 O 0.41369 0.05276 0.54540
 O208 O 0.58588 -0.05275 0.54604
 O209 O 0.44711 -0.08614 0.54573
 O210 O 0.55248 0.08618 0.54492
 C211 C 0.57568 0.06472 0.58498
 C212 C 0.42406 -0.06463 0.58563
 C213 C 0.43527 0.07605 0.58506
 C214 C 0.56437 -0.07621 0.58575
 O215 O 0.57691 -0.02351 0.42152
 O216 O 0.42254 0.02352 0.42113
 O217 O 0.52304 0.07708 0.42081
 O218 O 0.47634 -0.07721 0.42154
 O219 O 0.41352 -0.05249 0.45598
 O220 O 0.58588 0.05239 0.45562
 O221 O 0.55228 -0.08635 0.45645
 O222 O 0.44719 0.08634 0.45553
 Co223 Co 0.57328 -0.00012 0.50085
 Co224 Co 0.42622 0.00011 0.50069
 Co225 Co 0.49982 0.07356 0.50031
 Co226 Co 0.49969 -0.07364 0.50102
 O227 O 0.49975 -0.00003 0.50073
 C228 C 0.57553 -0.06487 0.41652
 C229 C 0.42385 0.06491 0.41581
 C230 C 0.56438 0.07554 0.41553
 C231 C 0.43499 -0.07582 0.41628
 O232 O 0.57706 0.52326 0.07794
 O233 O 0.42258 0.47691 0.07833
 O234 O 0.47621 0.57736 0.07765
 O235 O 0.52346 0.42319 0.07821
 O236 O 0.41341 0.55288 0.04279
 O237 O 0.58618 0.44752 0.04287
 O238 O 0.44745 0.41401 0.04438
 O239 O 0.55226 0.58628 0.04367
 C240 C 0.57567 0.56460 0.08334
 C241 C 0.42398 0.43554 0.08389
 C242 C 0.43485 0.57613 0.08262
 C243 C 0.56481 0.42443 0.08310
 O244 O 0.57685 0.47730 -0.08114
 O245 O 0.42241 0.52321 -0.08098
 O246 O 0.52328 0.57757 -0.08102
 O247 O 0.47625 0.42299 -0.08040
 O248 O 0.41345 0.44725 -0.04551
 O249 O 0.58610 0.55320 -0.04603
 O250 O 0.55230 0.41426 -0.04651
 O251 O 0.44729 0.58618 -0.04706
 Co252 Co 0.57336 0.50031 -0.00160
 Co253 Co 0.42615 0.50007 -0.00136
 Co254 Co 0.49976 0.57377 -0.00167
 Co255 Co 0.49987 0.42670 -0.00111
 O256 O 0.49978 0.50022 -0.00145
 C257 C 0.57560 0.43592 -0.08631
 C258 C 0.42388 0.56457 -0.08659
 C259 C 0.56465 0.57661 -0.08587
 C260 C 0.43487 0.42393 -0.08523
 N261 N 1.14366 0.15437 0.16072
 C262 C 1.17612 0.13047 0.19239
 N263 N 1.17357 0.08457 0.19209
 N264 N 1.14051 0.06361 0.16034
 C265 C 1.10863 0.08767 0.12784
 N266 N 1.11072 0.13347 0.12886
 N267 N 1.17234 0.58395 0.69169
 C268 C 1.17490 0.62982 0.69253
 N269 N 1.14252 0.65395 0.66103
 N270 N 1.10965 0.63328 0.62876
 C271 C 1.10757 0.58751 0.62718
 N272 N 1.13935 0.56323 0.65954
 N273 N 0.64239 0.15462 0.66061
 C274 C 0.67491 0.13079 0.69224
 N275 N 0.67246 0.08489 0.69202
 N276 N 0.63945 0.06385 0.66030
 C277 C 0.60753 0.08784 0.62778
 N278 N 0.60950 0.13364 0.62878
 N279 N 0.67238 0.58377 0.19103
 C280 C 0.67492 0.62965 0.19209
 N281 N 0.64251 0.65380 0.16065
 N282 N 0.60965 0.63317 0.12828
 C283 C 0.60757 0.58740 0.12651
 N284 N 0.63939 0.56308 0.15878
 N285 N 0.85762 -0.15459 0.16196
 C286 C 0.82522 -0.13067 0.19340
 N287 N 0.82777 -0.08479 0.19266
 N288 N 0.86077 -0.06384 0.16066
 C289 C 0.89257 -0.08792 0.12835
 N290 N 0.89050 -0.13371 0.12985
 N291 N 0.82611 0.41573 0.68926
 C292 C 0.82433 0.36979 0.69182
 N293 N 0.85791 0.34600 0.66257
 N294 N 0.89092 0.36689 0.63069
 C295 C 0.89209 0.41265 0.62733
 N296 N 0.85927 0.43669 0.65759
 N297 N 0.35792 -0.15444 0.66282
 C298 C 0.32541 -0.13059 0.69411
 N299 N 0.32776 -0.08470 0.69325
 N300 N 0.36066 -0.06367 0.66118
 C301 C 0.39252 -0.08769 0.62895
 N302 N 0.39070 -0.13347 0.63064
 N303 N 0.32627 0.41547 0.18948
 C304 C 0.32466 0.36953 0.19226
 N305 N 0.35821 0.34580 0.16280
 N306 N 0.39101 0.36676 0.13055
 C307 C 0.39201 0.41253 0.12701
 N308 N 0.35922 0.43650 0.15744
 N309 N 0.82832 0.08506 -0.19180
 C310 C 0.82579 0.13095 -0.19248
 N311 N 0.85811 0.15484 -0.16076
 N312 N 0.89091 0.13392 -0.12845
 C313 C 0.89297 0.08813 -0.12704
 N314 N 0.86124 0.06408 -0.15962
 N315 N 0.85741 0.65427 0.33647
 C316 C 0.82385 0.63045 0.30713
 N317 N 0.82575 0.58451 0.30947
 N318 N 0.85900 0.56357 0.34106
 C319 C 0.89179 0.58764 0.37142
 N320 N 0.89050 0.63340 0.36825
 N321 N 0.32626 0.08535 0.31012
 C322 C 0.32474 0.13130 0.30757
 N323 N 0.35833 0.15491 0.33719
 N324 N 0.39107 0.13380 0.36939
 C325 C 0.39197 0.08803 0.37272
 N326 N 0.35915 0.06418 0.34211
 N327 N 0.32585 0.58453 -0.19140
 C328 C 0.32408 0.63046 -0.19370
 N329 N 0.35775 0.65421 -0.16450
 N330 N 0.39080 0.63326 -0.13280
 C331 C 0.39193 0.58750 -0.12960
 N332 N 0.35906 0.56351 -0.15989
 N333 N 1.17214 -0.08487 -0.19123
 C334 C 1.17448 -0.13076 -0.19172
 N335 N 1.14201 -0.15464 -0.16013
 N336 N 1.10928 -0.13370 -0.12803
 C337 C 1.10747 -0.08791 -0.12672
 N338 N 1.13929 -0.06387 -0.15924
 N339 N 1.17325 0.41614 0.30820
 C340 C 1.17601 0.37026 0.30782
 N341 N 1.14364 0.34619 0.33939
 N342 N 1.11059 0.36690 0.37121
 C343 C 1.10828 0.41269 0.37229
 N344 N 1.14008 0.43691 0.33991
 N345 N 0.64198 -0.15463 0.34025
 C346 C 0.67441 -0.13072 0.30860
 N347 N 0.67198 -0.08483 0.30907
 N348 N 0.63908 -0.06387 0.34102
 C349 C 0.60726 -0.08794 0.37355
 N350 N 0.60920 -0.13373 0.37232
 N351 N 0.64281 0.34660 -0.16249
 C352 C 0.67528 0.37069 -0.19381
 N353 N 0.67265 0.41658 -0.19313
 N354 N 0.63952 0.43732 -0.16133
 C355 C 0.60763 0.41306 -0.12917
 N356 N 0.60980 0.36729 -0.13057
 N357 N 1.08526 0.17406 -0.18931
 C358 C 1.13118 0.17581 -0.19138
 N359 N 1.15486 0.14220 -0.16164
 N360 N 1.13387 0.10921 -0.12976
 C361 C 1.08813 0.10808 -0.12688
 N362 N 1.06420 0.14093 -0.15762
 N363 N 1.15439 0.64283 0.33691
 C364 C 1.13062 0.67645 0.30731
 N365 N 1.08471 0.67471 0.30966
 N366 N 1.06375 0.64156 0.34142
 C367 C 1.08775 0.60869 0.37199
 N368 N 1.13349 0.60983 0.36889
 N369 N 0.65415 0.14166 0.33829
 C370 C 0.63032 0.17422 0.30670
 N371 N 0.58445 0.17192 0.30740
 N372 N 0.56344 0.13902 0.33958
 C373 C 0.58743 0.10710 0.37211
 N374 N 0.63319 0.10888 0.37060
 N375 N 0.65433 0.64314 -0.16326
 C376 C 0.63059 0.67678 -0.19285
 N377 N 0.58468 0.67503 -0.19062
 N378 N 0.56367 0.64183 -0.15901
 C379 C 0.58764 0.60893 -0.12847
 N380 N 0.63338 0.61009 -0.13143
 N381 N 0.91539 -0.17204 -0.19157
 C382 C 0.86951 -0.17444 -0.19227
 N383 N 0.84569 -0.14204 -0.16070
 N384 N 0.86665 -0.10930 -0.12854
 C385 C 0.91242 -0.10738 -0.12710
 N386 N 0.93640 -0.13919 -0.15952
 N387 N 0.91577 0.32790 0.30802
 C388 C 0.86992 0.32531 0.30736
 N389 N 0.84593 0.35768 0.33873
 N390 N 0.86672 0.39057 0.37075
 C391 C 0.91247 0.39266 0.37219
 N392 N 0.93662 0.36091 0.33992
 N393 N 0.41517 -0.17226 0.30875
 C394 C 0.36931 -0.17479 0.30799
 N395 N 0.34537 -0.14246 0.33956
 N396 N 0.36620 -0.10967 0.37178
 C397 C 0.41196 -0.10761 0.37326
 N398 N 0.43606 -0.13935 0.34085
 N399 N 0.41489 0.32576 -0.18955
 C400 C 0.36898 0.32382 -0.19150
 N401 N 0.34522 0.35727 -0.16192
 N402 N 0.36613 0.39032 -0.13034
 C403 C 0.41188 0.39166 -0.12762
 N404 N 0.43588 0.35896 -0.15818
 N405 N 1.08465 -0.17474 0.19067
 C406 C 1.13057 -0.17647 0.19311
 N407 N 1.15433 -0.14280 0.16368
 N408 N 1.13343 -0.10976 0.13175
 C409 C 1.08770 -0.10864 0.12852
 N410 N 1.06369 -0.14155 0.15894
 N411 N 1.08453 0.32736 0.69215
 C412 C 1.13039 0.32469 0.69286
 N413 N 1.15440 0.35699 0.66102
 N414 N 1.13366 0.38991 0.62862
 C415 C 1.08791 0.39214 0.62724
 N416 N 1.06373 0.36040 0.65988
 N417 N 0.58453 -0.17446 0.69080
 C418 C 0.63045 -0.17612 0.69312
 N419 N 0.65412 -0.14243 0.66360
 N420 N 0.63312 -0.10944 0.63170
 C421 C 0.58738 -0.10837 0.62861
 N422 N 0.56346 -0.14131 0.65911
 N423 N 0.58475 0.32793 0.19109
 C424 C 0.63059 0.32530 0.19146
 N425 N 0.65451 0.35764 0.15958
 N426 N 0.63364 0.39053 0.12736
 C427 C 0.58789 0.39266 0.12623
 N428 N 0.56382 0.36094 0.15900
 N429 N 0.84639 0.14167 0.16226
 C430 C 0.87025 0.17424 0.19347
 N431 N 0.91612 0.17192 0.19273
 N432 N 0.93709 0.13900 0.16087
 C433 C 0.91306 0.10707 0.12872
 N434 N 0.86730 0.10888 0.13028
 N435 N 0.91516 0.67264 0.69088
 C436 C 0.86929 0.67518 0.69143
 N437 N 0.84538 0.64289 0.65968
 N438 N 0.86625 0.61012 0.62753
 C439 C 0.91202 0.60804 0.62629
 N440 N 0.93608 0.63975 0.65885
 N441 N 0.34592 0.14284 0.66201
 C442 C 0.36996 0.17519 0.69344
 N443 N 0.41582 0.17268 0.69244
 N444 N 0.43660 0.13976 0.66027
 C445 C 0.41239 0.10798 0.62803
 N446 N 0.36664 0.11004 0.62972
 N447 N 0.34526 0.64278 0.15926
 C448 C 0.36923 0.67499 0.19107
 N449 N 0.41509 0.67244 0.19040
 N450 N 0.43595 0.63959 0.15818
 C451 C 0.41182 0.60796 0.12556
 N452 N 0.36606 0.61005 0.12692
   
