data_POSCAR
  _audit_creation_date              2014-09-24
  _audit_creation_method            'ToBaCCo'
  _symmetry_space_group_name_H-M    'P1'
  _symmetry_Int_Tables_number       1
  _symmetry_cell_setting            triclinic
  loop_
  _symmetry_equiv_pos_as_xyz
 x,y,z
_cell_length_a 22.5070
_cell_length_b 21.7995
_cell_length_c 21.9392
_cell_angle_alpha 89.967200
_cell_angle_beta 89.910700
_cell_angle_gamma 90.057800
loop_
  _atom_site_label
  _atom_site_type_symbol
  _atom_site_fract_x
  _atom_site_fract_y
  _atom_site_fract_z
C1 C 0.44438 1.00504 -0.53409
 C2 C 0.44396 1.00370 -0.46935
 C3 C 0.49843 0.99952 -0.43824
 C4 C 0.55448 1.00067 -0.46764
 C5 C 0.55520 1.00949 -0.53234
 C6 C 0.50010 1.01040 -0.56330
 H7 H 0.50057 1.01439 -0.61252
 H8 H 0.49662 0.99760 -0.38888
 C9 C -0.55643 1.46883 -0.00936
 C10 C -0.55596 1.53394 -0.00347
 C11 C -0.50023 1.56379 -0.00452
 C12 C -0.44627 1.53197 -0.00883
 C13 C -0.44696 1.46734 -0.00857
 C14 C -0.50200 1.43714 -0.01027
 H15 H -0.50247 1.38739 -0.01173
 H16 H -0.49835 1.61350 -0.00463
 C17 C -0.00871 0.46733 0.44544
 C18 C 0.01233 0.52856 0.44335
 C19 C 0.02649 0.55905 0.49763
 C20 C 0.01885 0.53144 0.55492
 C21 C -0.00153 0.47017 0.55666
 C22 C -0.01546 0.43957 0.50275
 H23 H -0.02715 0.39139 0.50596
 H24 H 0.03777 0.60732 0.49496
 O25 O -0.15348 1.00215 -0.08653
 O26 O 0.15374 0.99444 -0.08211
 O27 O 0.00165 1.07854 -0.15867
 O28 O 0.00341 0.91184 -0.15391
 O29 O 0.00026 0.84084 -0.07638
 O30 O -0.00169 1.15400 -0.08514
 O31 O 0.08067 0.99157 -0.15588
 O32 O -0.07844 0.99992 -0.15846
 Zr33 Zr 0.00045 0.99678 -0.10707
 O34 O 0.05326 0.94264 -0.05287
 O35 O -0.05422 1.05372 -0.05739
 C36 C -0.13396 1.00248 -0.14261
 C37 C 0.13570 0.99102 -0.13856
 C38 C -0.00074 1.13521 -0.14097
 C39 C 0.00356 0.85601 -0.13314
 H40 H 0.08026 1.07816 -0.08181
 O41 O 0.05447 1.05252 -0.05560
 H42 H -0.08026 0.91737 -0.08078
 O43 O -0.05550 0.94405 -0.05466
 O44 O 0.15115 1.00186 0.08637
 O45 O -0.15589 1.00004 0.08256
 O46 O 0.07940 1.15596 0.00024
 O47 O 0.07563 0.84148 0.00210
 O48 O -0.08273 0.84335 0.00425
 O49 O -0.07880 1.15751 -0.00766
 O50 O -0.00222 1.08687 0.15397
 O51 O -0.00597 0.92021 0.15846
 O52 O 0.00080 1.15848 0.07686
 O53 O -0.00845 0.84525 0.08459
 O54 O 0.15318 1.08257 0.00210
 O55 O -0.15392 1.08552 -0.00562
 O56 O -0.15588 0.91720 0.00022
 O57 O 0.15099 0.91328 0.00137
 O58 O 0.07611 1.00559 0.15811
 O59 O -0.08255 1.00020 0.15609
 Zr60 Zr 0.10501 0.99851 0.00146
 Zr61 Zr -0.10752 1.00078 -0.00153
 Zr62 Zr -0.00022 1.10577 -0.00269
 Zr63 Zr -0.00283 0.89356 0.00266
 Zr64 Zr -0.00265 1.00220 0.10687
 O65 O -0.05727 0.94662 0.05577
 O66 O 0.05305 1.05553 0.05455
 C67 C 0.13165 1.00523 0.14237
 C68 C -0.13762 0.99873 0.13907
 C69 C 0.13455 1.13915 0.00250
 C70 C 0.13118 0.85707 0.00066
 C71 C -0.13782 0.86054 0.00276
 C72 C -0.13430 1.14167 -0.00852
 C73 C -0.00039 1.14281 0.13365
 C74 C -0.00956 0.86362 0.14050
 H75 H -0.08124 1.08332 0.07793
 O76 O -0.05582 1.05626 0.05287
 H77 H 0.07594 0.91909 0.08409
 O78 O 0.05169 0.94537 0.05710
 C79 C 0.30059 1.00493 0.34123
 C80 C 0.29428 1.03621 0.39710
 C81 C 0.34027 1.03430 0.44035
 C82 C 0.39295 1.00167 0.42812
 C83 C 0.39565 0.96899 0.37255
 N84 N 0.35081 0.97196 0.33144
 C85 C 0.25596 1.00781 0.29120
 N86 N 0.27344 0.99357 0.23329
 C87 C 0.23545 0.99368 0.18495
 C88 C 0.17523 1.00794 0.19341
 C89 C 0.15629 1.02291 0.25280
 C90 C 0.19624 1.02297 0.30153
 H91 H 0.33599 1.06206 0.48095
 H92 H 0.43379 0.94091 0.36141
 H93 H 0.25217 0.98150 0.14029
 H94 H 0.11029 1.03423 0.26191
 H95 H 0.25570 1.06416 0.40652
 H96 H 0.17985 1.03331 0.34671
 C97 C -0.30387 1.00282 0.34020
 C98 C -0.30185 0.96449 0.39193
 C99 C -0.34630 0.96886 0.43673
 C100 C -0.39301 1.01125 0.43026
 C101 C -0.39111 1.05062 0.37909
 N102 N -0.34805 1.04496 0.33610
 C103 C -0.26096 0.99798 0.28869
 N104 N -0.27726 1.01869 0.23236
 C105 C -0.23997 1.01756 0.18327
 C106 C -0.18171 0.99574 0.18960
 C107 C -0.16424 0.97373 0.24720
 C108 C -0.20347 0.97463 0.29653
 H109 H -0.34621 0.93616 0.47389
 H110 H -0.42483 1.08540 0.37257
 H111 H -0.25527 1.03535 0.13999
 H112 H -0.11975 0.95628 0.25442
 H113 H -0.26821 0.92943 0.39658
 H114 H -0.18806 0.95889 0.34050
 C115 C -0.30310 1.00318 -0.34117
 C116 C -0.29952 1.03999 -0.39383
 C117 C -0.34500 1.03763 -0.43756
 C118 C -0.39431 0.99855 -0.42932
 C119 C -0.39439 0.96099 -0.37676
 N120 N -0.35019 0.96470 -0.33487
 C121 C -0.25871 1.00594 -0.29093
 N122 N -0.27551 0.98867 -0.23361
 C123 C -0.23737 0.98851 -0.18538
 C124 C -0.17768 1.00538 -0.19346
 C125 C -0.15943 1.02336 -0.25224
 C126 C -0.19959 1.02390 -0.30080
 H127 H -0.34317 1.06931 -0.47550
 H128 H -0.42996 0.92853 -0.36864
 H129 H -0.25342 0.97391 -0.14115
 H130 H -0.11385 1.03683 -0.26087
 H131 H -0.26356 1.07234 -0.40011
 H132 H -0.18389 1.03672 -0.34566
 C133 C 0.30270 0.99364 -0.33888
 C134 C 0.30484 0.95015 -0.38640
 C135 C 0.34867 0.95499 -0.43172
 C136 C 0.38973 1.00338 -0.43021
 C137 C 0.38459 1.04690 -0.38326
 N138 N 0.34248 1.04066 -0.33921
 C139 C 0.26002 0.98896 -0.28718
 N140 N 0.27471 1.01384 -0.23211
 C141 C 0.23719 1.01297 -0.18319
 C142 C 0.18030 0.98717 -0.18852
 C143 C 0.16447 0.96098 -0.24481
 C144 C 0.20404 0.96150 -0.29390
 H145 H 0.35216 0.91970 -0.46625
 H146 H 0.41589 1.08452 -0.38021
 H147 H 0.25106 1.03421 -0.14096
 H148 H 0.12100 0.94065 -0.25117
 H149 H 0.27491 0.91131 -0.38719
 H150 H 0.19000 0.94236 -0.33703
 C151 C 0.30163 1.33921 -0.00099
 C152 C 0.30448 1.38587 0.04325
 C153 C 0.34880 1.43082 0.03915
 C154 C 0.38939 1.42979 -0.00936
 C155 C 0.38332 1.38383 -0.05380
 N156 N 0.34087 1.33992 -0.04814
 C157 C 0.25874 1.28789 0.00326
 N158 N 0.27434 1.23157 -0.01859
 C159 C 0.23654 1.18272 -0.01756
 C160 C 0.17863 1.18960 0.00509
 C161 C 0.16181 1.24735 0.02773
 C162 C 0.20167 1.29631 0.02733
 H163 H 0.35299 1.46463 0.07503
 H164 H 0.41409 1.38139 -0.09170
 H165 H 0.25114 1.13923 -0.03603
 H166 H 0.11750 1.25490 0.04530
 H167 H 0.27471 1.38606 0.08202
 H168 H 0.18726 1.34062 0.04393
 C169 C 0.29982 0.65795 -0.00035
 C170 C 0.29502 0.60398 -0.03520
 C171 C 0.34122 0.56088 -0.03442
 C172 C 0.39248 0.57134 0.00085
 C173 C 0.39369 0.62495 0.03694
 N174 N 0.34867 0.66614 0.03489
 C175 C 0.25523 0.70797 -0.00234
 N176 N 0.27253 0.76592 0.01304
 C177 C 0.23444 0.81438 0.01337
 C178 C 0.17447 0.80581 -0.00157
 C179 C 0.15566 0.74636 -0.01755
 C180 C 0.19572 0.69752 -0.01807
 H181 H 0.33837 0.52207 -0.06495
 H182 H 0.43079 0.63455 0.06680
 H183 H 0.25088 0.85918 0.02629
 H184 H 0.10980 0.73740 -0.02956
 H185 H 0.25759 0.59627 -0.06508
 H186 H 0.17969 0.65214 -0.02932
 C187 C -0.30596 0.66209 -0.01280
 C188 C -0.34582 0.65866 -0.06167
 C189 C -0.38851 0.61250 -0.06256
 C190 C -0.39181 0.56970 -0.01494
 C191 C -0.34877 0.57208 0.03115
 N192 N -0.30749 0.61794 0.03128
 C193 C -0.26422 0.71421 -0.00750
 N194 N -0.20847 0.70457 0.01424
 C195 C -0.16797 0.75068 0.01883
 C196 C -0.18297 0.81099 0.00176
 C197 C -0.24080 0.82213 -0.01914
 C198 C -0.28136 0.77392 -0.02410
 H199 H -0.42105 0.61193 -0.09890
 H200 H -0.35019 0.53990 0.06871
 H201 H -0.12391 0.73997 0.03526
 H202 H -0.25429 0.86776 -0.03290
 H203 H -0.34490 0.69214 -0.09813
 H204 H -0.32582 0.78336 -0.04034
 C205 C -0.30242 1.34063 -0.01036
 C206 C -0.30204 1.38970 -0.05210
 C207 C -0.34756 1.43343 -0.05016
 C208 C -0.39273 1.42862 -0.00632
 C209 C -0.38994 1.38029 0.03593
 N210 N -0.34610 1.33778 0.03239
 C211 C -0.25856 1.29018 -0.01292
 N212 N -0.27519 1.23307 0.00594
 C213 C -0.23710 1.18462 0.00624
 C214 C -0.17784 1.19253 -0.01201
 C215 C -0.15978 1.25119 -0.03141
 C216 C -0.19996 1.29987 -0.03233
 H217 H -0.34894 1.46916 -0.08443
 H218 H -0.42400 1.37508 0.07046
 H219 H -0.25282 1.14046 0.02211
 H220 H -0.11439 1.25968 -0.04548
 H221 H -0.26871 1.39276 -0.08757
 H222 H -0.18474 1.34483 -0.04638
 C223 C -0.01915 1.34221 0.30141
 C224 C -0.06140 1.33953 0.34800
 C225 C -0.06087 1.38389 0.39331
 C226 C -0.01774 1.43082 0.39308
 C227 C 0.02090 1.43428 0.34266
 N228 N 0.01976 1.38997 0.29923
 C229 C -0.01368 1.29162 0.25766
 N230 N -0.03276 1.23445 0.27349
 C231 C -0.02723 1.18563 0.23556
 C232 C -0.00194 1.19342 0.17773
 C233 C 0.01823 1.25196 0.16075
 C234 C 0.01298 1.30101 0.20080
 H235 H -0.09363 1.38058 0.42940
 H236 H 0.05569 1.46841 0.34027
 H237 H -0.04395 1.14137 0.25004
 H238 H 0.03766 1.25997 0.11634
 H239 H -0.09364 1.30267 0.35023
 H240 H 0.02873 1.34592 0.18710
 C241 C 0.00423 1.33735 -0.30409
 C242 C 0.05730 1.36566 -0.32246
 C243 C 0.05512 1.41339 -0.36461
 C244 C 0.00035 1.43195 -0.38828
 C245 C -0.05179 1.40433 -0.36680
 N246 N -0.04865 1.35824 -0.32551
 C247 C 0.00415 1.28413 -0.26360
 N248 N -0.03953 1.27926 -0.22107
 C249 C -0.04286 1.23070 -0.18271
 C250 C -0.00134 1.18317 -0.18710
 C251 C 0.04284 1.18595 -0.23186
 C252 C 0.04606 1.23690 -0.27011
 H253 H 0.09610 1.43341 -0.38131
 H254 H -0.09463 1.41760 -0.38487
 H255 H -0.07759 1.22938 -0.14855
 H256 H 0.07577 1.14993 -0.23573
 H257 H 0.09985 1.35025 -0.30535
 H258 H 0.08039 1.23912 -0.30468
 C259 C 0.02375 0.65520 -0.29916
 C260 C -0.01618 0.60592 -0.29724
 C261 C -0.01561 0.56275 -0.34374
 C262 C 0.02495 0.56803 -0.39233
 C263 C 0.06633 0.61663 -0.39038
 N264 N 0.06406 0.65884 -0.34510
 C265 C 0.01957 0.70577 -0.25539
 N266 N 0.03205 0.76393 -0.27422
 C267 C 0.02648 0.81307 -0.23659
 C268 C 0.00769 0.80459 -0.17625
 C269 C -0.00470 0.74475 -0.15604
 C270 C 0.00130 0.69538 -0.19531
 H271 H -0.05077 0.52899 -0.34404
 H272 H 0.09983 0.62193 -0.42543
 H273 H 0.03721 0.85833 -0.25366
 H274 H -0.01899 0.73583 -0.10970
 H275 H -0.05023 0.60285 -0.26247
 H276 H -0.00775 0.64959 -0.17856
 C277 C -0.00397 0.66065 0.30328
 C278 C -0.05131 0.62005 0.31403
 C279 C -0.04460 0.57343 0.35685
 C280 C 0.00920 0.56714 0.38819
 C281 C 0.05643 0.60649 0.37361
 N282 N 0.04848 0.65234 0.33275
 C283 C -0.01035 0.71411 0.26327
 N284 N 0.02113 0.76597 0.27604
 C285 C 0.01928 0.81628 0.23955
 C286 C -0.01438 0.81494 0.18608
 C287 C -0.04799 0.76249 0.17276
 C288 C -0.04633 0.71204 0.21133
 H289 H -0.08237 0.54474 0.36812
 H290 H 0.09849 0.60285 0.39721
 H291 H 0.04623 0.85586 0.25074
 H292 H -0.07440 0.76004 0.13165
 H293 H -0.09403 0.62623 0.29231
 H294 H -0.07099 0.67119 0.19923
   
