data_POSCAR
  _audit_creation_date              2014-09-24
  _audit_creation_method            'ToBaCCo'
  _symmetry_space_group_name_H-M    'P1'
  _symmetry_Int_Tables_number       1
  _symmetry_cell_setting            triclinic
  loop_
  _symmetry_equiv_pos_as_xyz
 x,y,z
_cell_length_a 46.8600
_cell_length_b 46.9263
_cell_length_c 46.9132
_cell_angle_alpha 90.188000
_cell_angle_beta 90.141600
_cell_angle_gamma 89.807400
loop_
  _atom_site_label
  _atom_site_type_symbol
  _atom_site_fract_x
  _atom_site_fract_y
  _atom_site_fract_z
N1 N 0.20401 0.20699 0.20534
 N2 N -0.20360 0.79512 0.20684
 N3 N -0.20805 0.20260 -0.20470
 N4 N 0.20431 0.79339 -0.20450
 N5 N 0.20609 1.20516 0.79657
 N6 N 0.79575 0.79795 0.79382
 N7 N 0.20322 0.79361 1.20352
 N8 N 0.79696 1.20375 1.20363
 O9 O 0.45896 1.05157 1.05068
 O10 O 0.42750 1.02385 1.02521
 C11 C 0.43338 1.04393 1.04330
 O12 O 0.53947 1.04735 0.94978
 O13 O 0.57074 1.02174 0.97759
 C14 C 0.56499 1.03987 0.95760
 O15 O 0.45935 1.05073 0.95210
 O16 O 0.42770 1.02361 0.97763
 C17 C 0.43373 1.04327 0.95928
 O18 O 0.53906 1.04839 1.05406
 O19 O 0.57050 1.02209 1.02709
 C20 C 0.56463 1.04068 1.04671
 Zr21 Zr 0.49902 1.03492 1.03782
 O22 O 0.50179 1.07993 1.03758
 O23 O 0.49566 1.03499 1.08282
 Zr24 Zr 0.49929 1.03456 0.96594
 O25 O 0.50083 1.07947 0.96890
 O26 O 0.49665 1.03588 0.92092
 O27 O 0.47367 1.04034 1.00167
 O28 O 0.52408 1.03976 1.00199
 O29 O 0.53882 0.94919 1.05441
 O30 O 0.57040 0.97462 1.02714
 C31 C 0.56443 0.95641 1.04692
 O32 O 0.45918 0.94661 0.95200
 O33 O 0.42772 0.97453 0.97723
 C34 C 0.43362 0.95456 0.95904
 O35 O 0.53928 0.94870 0.95018
 O36 O 0.57062 0.97443 0.97775
 C37 C 0.56481 0.95606 0.95792
 O38 O 0.45861 0.94700 1.05126
 O39 O 0.42739 0.97440 1.02517
 C40 C 0.43310 0.95468 1.04360
 Zr41 Zr 0.49880 0.96282 1.03809
 O42 O 0.50189 0.91781 1.03825
 O43 O 0.49540 0.96336 1.08308
 Zr44 Zr 0.49914 0.96240 0.96600
 O45 O 0.50223 0.91738 0.96653
 O46 O 0.49620 0.96208 0.92096
 Zr47 Zr 0.45659 0.99887 1.00166
 Zr48 Zr 0.54150 0.99839 1.00222
 O49 O 0.52374 0.95726 1.00222
 O50 O 0.47348 0.95716 1.00187
 O51 O 0.52433 0.99875 1.04373
 O52 O 0.47452 0.99861 0.96057
 O53 O 0.47409 0.99906 1.04302
 O54 O 0.52462 0.99830 0.96052
 H55 H 0.53709 1.05637 1.00200
 H56 H 0.46182 0.99869 0.94366
 H57 H 0.53664 0.94049 1.00233
 H58 H 0.46106 0.99926 1.05962
 H59 H 0.51074 1.02203 0.91345
 H60 H 0.51215 0.97363 0.91356
 H61 H 0.48582 0.91011 0.97751
 H62 H 0.48620 0.91038 1.02624
 H63 H 0.51145 0.97480 1.09058
 H64 H 0.51171 1.02355 1.09040
 H65 H 0.48858 1.08686 1.02263
 H66 H 0.50095 1.08657 0.94903
 O67 O 0.05023 0.45938 -0.05157
 O68 O 0.02266 0.42800 -0.02620
 C69 C 0.04263 0.43385 -0.04430
 O70 O 0.04704 0.53957 0.04996
 O71 O 0.02114 0.57088 0.02252
 C72 C 0.03950 0.56508 0.04237
 O73 O 0.05020 0.45958 0.04706
 O74 O 0.02274 0.42811 0.02136
 C75 C 0.04261 0.43403 0.03968
 O76 O 0.04713 0.53940 -0.05427
 O77 O 0.02109 0.57078 -0.02695
 C78 C 0.03954 0.56493 -0.04665
 Zr79 Zr 0.03366 0.49939 -0.03840
 O80 O 0.07872 0.50206 -0.03845
 O81 O 0.03312 0.49612 -0.08343
 Zr82 Zr 0.03395 0.49951 0.03355
 O83 O 0.07890 0.50092 0.03046
 O84 O 0.03562 0.49682 0.07855
 O85 O 0.03939 0.47401 -0.00243
 O86 O 0.03888 0.52431 -0.00235
 O87 O -0.05216 0.53937 -0.05441
 O88 O -0.02642 0.57077 -0.02690
 C89 C -0.04479 0.56491 -0.04673
 O90 O -0.05408 0.45943 0.04728
 O91 O -0.02667 0.42807 0.02134
 C92 C -0.04637 0.43391 0.03980
 O93 O -0.05185 0.53948 0.04989
 O94 O -0.02628 0.57082 0.02250
 C95 C -0.04453 0.56499 0.04232
 O96 O -0.05448 0.45929 -0.05195
 O97 O -0.02687 0.42799 -0.02620
 C98 C -0.04675 0.43379 -0.04455
 Zr99 Zr -0.03852 0.49934 -0.03839
 O100 O -0.08360 0.50250 -0.03815
 O101 O -0.03859 0.49607 -0.08341
 Zr102 Zr -0.03830 0.49943 0.03370
 O103 O -0.08339 0.50258 0.03344
 O104 O -0.03817 0.49634 0.07872
 Zr105 Zr -0.00216 0.45703 -0.00241
 Zr106 Zr -0.00250 0.54180 -0.00228
 O107 O -0.04373 0.52413 -0.00229
 O108 O -0.04390 0.47396 -0.00237
 O109 O -0.00255 0.52477 -0.04394
 O110 O -0.00204 0.47478 0.03883
 O111 O -0.00233 0.47459 -0.04364
 O112 O -0.00227 0.52484 0.03928
 H113 H 0.05554 0.53725 -0.00229
 H114 H -0.00189 0.46199 0.05559
 H115 H -0.06050 0.53705 -0.00226
 H116 H -0.00227 0.46162 -0.06035
 H117 H 0.02192 0.51098 0.08616
 H118 H -0.02660 0.51228 0.08622
 H119 H -0.09080 0.48635 0.02219
 H120 H -0.09093 0.48657 -0.02657
 H121 H -0.02688 0.51188 -0.09083
 H122 H 0.02192 0.51241 -0.09082
 H123 H 0.08581 0.48903 -0.02346
 H124 H 0.08619 0.50106 0.05031
 O125 O 1.05479 -0.04743 0.54100
 O126 O 1.02675 -0.02198 0.57222
 C127 C 1.04682 -0.04016 0.56648
 O128 O 1.05144 0.05385 0.46089
 O129 O 1.02609 0.02610 0.42937
 C130 C 1.04417 0.04609 0.43532
 O131 O 1.05403 0.05126 0.54101
 O132 O 1.02656 0.02559 0.57225
 C133 C 1.04630 0.04396 0.56651
 O134 O 1.05242 -0.05049 0.46097
 O135 O 1.02644 -0.02342 0.42940
 C136 C 1.04495 -0.04310 0.43538
 Zr137 Zr 1.03865 -0.03428 0.50088
 O138 O 1.08374 -0.03375 0.49852
 O139 O 1.03898 -0.07928 0.50405
 Zr140 Zr 1.03824 0.03756 0.50088
 O141 O 1.08323 0.03460 0.49974
 O142 O 1.03953 0.08256 0.50369
 O143 O 1.04378 0.00177 0.52641
 O144 O 1.04371 0.00160 0.47601
 O145 O 0.95315 -0.05078 0.46030
 O146 O 0.97893 -0.02343 0.42909
 C147 C 0.96062 -0.04321 0.43482
 O148 O 0.94959 0.05116 0.54021
 O149 O 0.97739 0.02598 0.57176
 C150 C 0.95730 0.04402 0.56578
 O151 O 0.95251 0.05328 0.46022
 O152 O 0.97868 0.02589 0.42906
 C153 C 0.96012 0.04560 0.43475
 O154 O 0.95021 -0.04796 0.54037
 O155 O 0.97729 -0.02192 0.57190
 C156 C 0.95764 -0.04037 0.56594
 Zr157 Zr 0.96642 -0.03460 0.50044
 O158 O 0.92137 -0.03473 0.49696
 O159 O 0.96692 -0.07959 0.50363
 Zr160 Zr 0.96600 0.03750 0.50038
 O161 O 0.92095 0.03737 0.49689
 O162 O 0.96603 0.08252 0.50353
 Zr163 Zr 1.00207 0.00169 0.54306
 Zr164 Zr 1.00245 0.00139 0.45825
 O165 O 0.96109 0.00134 0.47564
 O166 O 0.96048 0.00154 0.52579
 O167 O 1.00267 -0.04015 0.47527
 O168 O 1.00199 0.04284 0.52534
 O169 O 1.00247 -0.03959 0.52540
 O170 O 1.00218 0.04304 0.47525
 H171 H 1.06045 0.00162 0.46315
 H172 H 1.00191 0.05968 0.53814
 H173 H 0.94439 0.00125 0.46265
 H174 H 1.00253 -0.05625 0.53832
 H175 H 1.02568 0.09005 0.48963
 H176 H 0.97713 0.08994 0.48727
 H177 H 0.91348 0.02568 0.51269
 H178 H 0.91376 -0.02296 0.51275
 H179 H 0.97855 -0.08703 0.48768
 H180 H 1.02730 -0.08683 0.48817
 H181 H 1.09052 -0.01922 0.51227
 H182 H 1.09034 0.05446 0.49979
 C183 C 1.18767 0.19081 0.22379
 C184 C 1.17368 0.17695 0.24022
 C185 C 1.15743 0.16070 0.26041
 C186 C 1.16785 0.13451 0.27017
 C187 C 1.15288 0.11938 0.29091
 C188 C 1.12728 0.13030 0.30222
 C189 C 1.11674 0.15644 0.29192
 C190 C 1.13176 0.17154 0.27118
 C191 C 1.11211 0.11491 0.32524
 C192 C 1.08212 0.11331 0.32543
 C193 C 1.06795 0.09921 0.34747
 C194 C 1.08357 0.08659 0.36958
 C195 C 1.11338 0.08800 0.36952
 C196 C 1.12757 0.10204 0.34753
 C197 C 1.06914 0.07236 0.39250
 C198 C 1.05751 0.06040 0.41195
 H199 H 1.18770 0.12591 0.26196
 H200 H 1.16134 0.09914 0.29811
 H201 H 1.09728 0.16558 0.30044
 H202 H 1.12358 0.19188 0.26387
 H203 H 1.06964 0.12274 0.30843
 H204 H 1.04486 0.09819 0.34728
 H205 H 1.12566 0.07840 0.38659
 H206 H 1.15063 0.10328 0.34825
 C207 C 0.81309 -0.18872 0.22518
 C208 C 0.82747 -0.17487 0.24142
 C209 C 0.84435 -0.15866 0.26130
 C210 C 0.86716 -0.17162 0.27563
 C211 C 0.88276 -0.15631 0.29594
 C212 C 0.87570 -0.12781 0.30223
 C213 C 0.85300 -0.11484 0.28739
 C214 C 0.83744 -0.13019 0.26707
 C215 C 0.89137 -0.11199 0.32479
 C216 C 0.87653 -0.09429 0.34401
 C217 C 0.89108 -0.08010 0.36584
 C218 C 0.92063 -0.08335 0.36878
 C219 C 0.93565 -0.10069 0.34964
 C220 C 0.92114 -0.11493 0.32777
 C221 C 0.93531 -0.06925 0.39177
 C222 C 0.94714 -0.05740 0.41131
 H223 H 0.87261 -0.19368 0.27141
 H224 H 0.89986 -0.16700 0.30725
 H225 H 0.84730 -0.09283 0.29148
 H226 H 0.81984 -0.11994 0.25607
 H227 H 0.85359 -0.09191 0.34255
 H228 H 0.87923 -0.06681 0.38061
 H229 H 0.95855 -0.10330 0.35169
 H230 H 0.93319 -0.12814 0.31312
 C231 C 0.80824 0.18659 0.77646
 C232 C 0.82220 0.17279 0.75981
 C233 C 0.83848 0.15650 0.73950
 C234 C 0.86578 0.16545 0.73157
 C235 C 0.88111 0.15027 0.71094
 C236 C 0.86926 0.12595 0.69794
 C237 C 0.84196 0.11692 0.70636
 C238 C 0.82668 0.13212 0.72699
 C239 C 0.88500 0.11050 0.67518
 C240 C 0.87052 0.10056 0.65080
 C241 C 0.88536 0.08662 0.62902
 C242 C 0.91485 0.08238 0.63129
 C243 C 0.92944 0.09201 0.65552
 C244 C 0.91463 0.10599 0.67734
 C245 C 0.93010 0.06862 0.60848
 C246 C 0.94263 0.05729 0.58910
 H247 H 0.87506 0.18437 0.74104
 H248 H 0.90193 0.15795 0.70467
 H249 H 0.83243 0.09807 0.69703
 H250 H 0.80558 0.12499 0.73301
 H251 H 0.84780 0.10407 0.64831
 H252 H 0.87388 0.07936 0.61030
 H253 H 0.95227 0.08881 0.65749
 H254 H 0.92631 0.11311 0.69598
 C255 C 1.18848 -0.18978 0.77702
 C256 C 1.17488 -0.17536 0.76062
 C257 C 1.15889 -0.15854 0.74054
 C258 C 1.13343 -0.16909 0.72906
 C259 C 1.11857 -0.15346 0.70848
 C260 C 1.12903 -0.12704 0.69907
 C261 C 1.15441 -0.11640 0.71109
 C262 C 1.16924 -0.13209 0.73166
 C263 C 1.11399 -0.11110 0.67621
 C264 C 1.11130 -0.08124 0.67755
 C265 C 1.09756 -0.06632 0.65566
 C266 C 1.08639 -0.08105 0.63218
 C267 C 1.08888 -0.11073 0.63072
 C268 C 1.10257 -0.12567 0.65255
 C269 C 1.07253 -0.06589 0.60940
 C270 C 1.06085 -0.05379 0.58997
 H271 H 1.12522 -0.18954 0.73581
 H272 H 1.09890 -0.16204 0.69993
 H273 H 1.16317 -0.09630 0.70404
 H274 H 1.18901 -0.12379 0.74033
 H275 H 1.11960 -0.06946 0.69562
 H276 H 1.09568 -0.04334 0.65702
 H277 H 1.08040 -0.12233 0.61259
 H278 H 1.10468 -0.14859 0.65067
 C279 C 0.22347 1.19101 1.18973
 C280 C 0.24072 1.17744 1.17626
 C281 C 0.26183 1.16175 1.16038
 C282 C 0.25359 1.14275 1.13884
 C283 C 0.27428 1.12787 1.12324
 C284 C 0.30349 1.13191 1.12896
 C285 C 0.31151 1.15098 1.15074
 C286 C 0.29081 1.16578 1.16631
 C287 C 0.32559 1.11635 1.11237
 C288 C 0.35073 1.13024 1.10389
 C289 C 0.37193 1.11545 1.08900
 C290 C 0.36832 1.08660 1.08234
 C291 C 0.34326 1.07264 1.09038
 C292 C 0.32199 1.08742 1.10526
 C293 C 0.39076 1.07125 1.06803
 C294 C 0.41000 1.05864 1.05648
 H295 H 0.23121 1.13954 1.13401
 H296 H 0.26746 1.11357 1.10642
 H297 H 0.33378 1.15422 1.15596
 H298 H 0.29743 1.18038 1.18298
 H299 H 0.35395 1.15259 1.10866
 H300 H 0.39123 1.12647 1.08285
 H301 H 0.34031 1.05027 1.08544
 H302 H 0.30302 1.07606 1.11176
 C303 C 0.22376 0.80877 0.81165
 C304 C 0.24102 0.82202 0.82540
 C305 C 0.26215 0.83760 0.84131
 C306 C 0.25398 0.85639 0.86306
 C307 C 0.27467 0.87162 0.87826
 C308 C 0.30381 0.86827 0.87181
 C309 C 0.31177 0.84925 0.84996
 C310 C 0.29107 0.83404 0.83484
 C311 C 0.32590 0.88453 0.88767
 C312 C 0.34939 0.89613 0.87320
 C313 C 0.37060 0.91081 0.88813
 C314 C 0.36865 0.91413 0.91771
 C315 C 0.34523 0.90293 0.93231
 C316 C 0.32394 0.88825 0.91739
 C317 C 0.39104 0.92857 0.93296
 C318 C 0.41026 0.94051 0.94517
 H319 H 0.23163 0.85935 0.86818
 H320 H 0.26788 0.88633 0.89475
 H321 H 0.33403 0.84588 0.84478
 H322 H 0.29764 0.81949 0.81810
 H323 H 0.35129 0.89401 0.85029
 H324 H 0.38861 0.91945 0.87662
 H325 H 0.34357 0.90531 0.95522
 H326 H 0.30627 0.87931 0.92915
 C327 C 0.77729 0.81130 1.19104
 C328 C 0.76037 0.82516 1.17745
 C329 C 0.73974 0.84134 1.16143
 C330 C 0.72885 0.86688 1.17247
 C331 C 0.70792 0.88199 1.15746
 C332 C 0.69757 0.87169 1.13120
 C333 C 0.70894 0.84617 1.12013
 C334 C 0.72986 0.83111 1.13517
 C335 C 0.67453 0.88712 1.11578
 C336 C 0.65223 0.87195 1.10260
 C337 C 0.63024 0.88640 1.08854
 C338 C 0.63019 0.91619 1.08743
 C339 C 0.65233 0.93151 1.10035
 C340 C 0.67436 0.91708 1.11446
 C341 C 0.60726 0.93090 1.07321
 C342 C 0.58781 0.94279 1.06126
 H343 H 0.73625 0.87492 1.19285
 H344 H 0.69936 0.90137 1.16672
 H345 H 0.70169 0.83789 1.09980
 H346 H 0.73817 0.81137 1.12641
 H347 H 0.65151 0.84891 1.10360
 H348 H 0.61316 0.87434 1.07869
 H349 H 0.65253 0.95458 1.09956
 H350 H 0.69139 0.92934 1.12411
 C351 C 0.77361 1.18618 0.81152
 C352 C 0.75735 1.17205 0.82543
 C353 C 0.73747 1.15553 0.84178
 C354 C 0.72774 1.12930 0.83140
 C355 C 0.70739 1.11389 0.84666
 C356 C 0.69646 1.12460 0.87249
 C357 C 0.70674 1.15078 0.88295
 C358 C 0.72708 1.16613 0.86767
 C359 C 0.67385 1.10898 0.88805
 C360 C 0.65089 1.12392 0.90038
 C361 C 0.62932 1.10933 0.91466
 C362 C 0.63036 1.07962 0.91685
 C363 C 0.65313 1.06452 0.90473
 C364 C 0.67475 1.07909 0.89039
 C365 C 0.60779 1.06483 0.93127
 C366 C 0.58846 1.05308 0.94332
 H367 H 0.73556 1.12096 0.81131
 H368 H 0.69967 1.09398 0.83789
 H369 H 0.69904 1.15939 0.90295
 H370 H 0.73450 1.18639 0.87591
 H371 H 0.64932 1.14687 0.89854
 H372 H 0.61171 1.12121 0.92384
 H373 H 0.65415 1.04151 0.90632
 H374 H 0.69229 1.06703 0.88136
 C375 C 0.18800 0.22546 0.18867
 C376 C 0.17436 0.24185 0.17427
 C377 C 0.15856 0.26191 0.15723
 C378 C 0.13060 0.26935 0.16465
 C379 C 0.11572 0.28976 0.14877
 C380 C 0.12869 0.30304 0.12529
 C381 C 0.15668 0.29512 0.11781
 C382 C 0.17150 0.27470 0.13369
 C383 C 0.11337 0.32556 0.10912
 C384 C 0.12785 0.35019 0.10021
 C385 C 0.11336 0.37171 0.08553
 C386 C 0.08425 0.36892 0.07950
 C387 C 0.06966 0.34446 0.08814
 C388 C 0.08411 0.32290 0.10286
 C389 C 0.06933 0.39147 0.06500
 C390 C 0.05704 0.41072 0.05320
 H391 H 0.12044 0.25967 0.18292
 H392 H 0.09434 0.29565 0.15528
 H393 H 0.16710 0.30467 0.09963
 H394 H 0.19313 0.26908 0.12776
 H395 H 0.15026 0.35307 0.10508
 H396 H 0.12482 0.39064 0.07911
 H397 H 0.04711 0.34210 0.08360
 H398 H 0.07246 0.30406 0.10916
 C399 C -0.19201 0.22153 -0.18858
 C400 C -0.17820 0.23830 -0.17479
 C401 C -0.16191 0.25878 -0.15874
 C402 C -0.13664 0.26978 -0.17003
 C403 C -0.12144 0.29063 -0.15511
 C404 C -0.13135 0.30081 -0.12866
 C405 C -0.15656 0.28931 -0.11729
 C406 C -0.17175 0.26846 -0.13227
 C407 C -0.11584 0.32382 -0.11337
 C408 C -0.11262 0.32310 -0.08354
 C409 C -0.09839 0.34508 -0.06922
 C410 C -0.08725 0.36804 -0.08451
 C411 C -0.09028 0.36890 -0.11417
 C412 C -0.10446 0.34697 -0.12852
 C413 C -0.07293 0.39091 -0.06989
 C414 C -0.06096 0.41035 -0.05807
 H415 H -0.12882 0.26241 -0.19050
 H416 H -0.10190 0.29877 -0.16423
 H417 H -0.16492 0.29694 -0.09716
 H418 H -0.19136 0.26018 -0.12340
 H419 H -0.12087 0.30543 -0.07132
 H420 H -0.09612 0.34419 -0.04625
 H421 H -0.08184 0.38664 -0.12620
 H422 H -0.10697 0.34838 -0.15142
 C423 C 0.18770 0.77506 -0.18846
 C424 C 0.17341 0.75877 -0.17476
 C425 C 0.15668 0.73878 -0.15876
 C426 C 0.13078 0.72879 -0.16975
 C427 C 0.11523 0.70826 -0.15492
 C428 C 0.12546 0.69739 -0.12889
 C429 C 0.15131 0.70793 -0.11780
 C430 C 0.16680 0.72847 -0.13267
 C431 C 0.10971 0.67457 -0.11381
 C432 C 0.12462 0.65175 -0.10122
 C433 C 0.10988 0.62991 -0.08752
 C434 C 0.08006 0.63054 -0.08619
 C435 C 0.06500 0.65318 -0.09852
 C436 C 0.07971 0.67507 -0.11227
 C437 C 0.06509 0.60775 -0.07233
 C438 C 0.05312 0.58834 -0.06066
 H439 H 0.12282 0.73654 -0.19001
 H440 H 0.09560 0.70034 -0.16418
 H441 H 0.15955 0.70028 -0.09764
 H442 H 0.18683 0.73607 -0.12395
 H443 H 0.14766 0.65050 -0.10242
 H444 H 0.12174 0.61243 -0.07814
 H445 H 0.04191 0.65389 -0.09756
 H446 H 0.06766 0.69249 -0.12149
 C447 C -0.18782 0.77624 0.19036
 C448 C -0.17423 0.75955 0.17621
 C449 C -0.15830 0.73920 0.15961
 C450 C -0.13216 0.72877 0.16971
 C451 C -0.11724 0.70810 0.15417
 C452 C -0.12832 0.69754 0.12831
 C453 C -0.15443 0.70846 0.11816
 C454 C -0.16931 0.72913 0.13373
 C455 C -0.11309 0.67472 0.11240
 C456 C -0.12841 0.65217 0.09986
 C457 C -0.11412 0.63033 0.08541
 C458 C -0.08435 0.63069 0.08326
 C459 C -0.06889 0.65309 0.09551
 C460 C -0.08316 0.67498 0.11000
 C461 C -0.06979 0.60785 0.06877
 C462 C -0.05802 0.58841 0.05668
 H463 H -0.12351 0.73633 0.18978
 H464 H -0.09738 0.69987 0.16272
 H465 H -0.16333 0.70105 0.09816
 H466 H -0.18951 0.73709 0.12571
 H467 H -0.15141 0.65112 0.10169
 H468 H -0.12628 0.61302 0.07610
 H469 H -0.04584 0.65360 0.09392
 H470 H -0.07080 0.69221 0.11915
 C471 C 1.19117 0.19000 0.77831
 C472 C 1.17772 0.17637 0.76105
 C473 C 1.16212 0.16068 0.73973
 C474 C 1.14261 0.13962 0.74762
 C475 C 1.12750 0.12456 0.72669
 C476 C 1.13170 0.13047 0.69760
 C477 C 1.15144 0.15163 0.68995
 C478 C 1.16651 0.16660 0.71087
 C479 C 1.11563 0.11475 0.67524
 C480 C 1.10502 0.12918 0.65117
 C481 C 1.09058 0.11435 0.62971
 C482 C 1.08649 0.08493 0.63195
 C483 C 1.09669 0.07039 0.65593
 C484 C 1.11114 0.08520 0.67748
 C485 C 1.07220 0.06980 0.60935
 C486 C 1.06034 0.05769 0.58999
 H487 H 1.13900 0.13490 0.76991
 H488 H 1.11224 0.10862 0.73326
 H489 H 1.15548 0.15638 0.66776
 H490 H 1.18163 0.18278 0.70452
 H491 H 1.10774 0.15197 0.64902
 H492 H 1.08269 0.12584 0.61128
 H493 H 1.09369 0.04759 0.65785
 H494 H 1.11930 0.07345 0.69560
 C495 C 0.81191 -0.18553 0.77551
 C496 C 0.82574 -0.17131 0.75926
 C497 C 0.84191 -0.15465 0.73935
 C498 C 0.87056 -0.16126 0.73411
 C499 C 0.88588 -0.14596 0.71374
 C500 C 0.87270 -0.12384 0.69832
 C501 C 0.84400 -0.11707 0.70408
 C502 C 0.82873 -0.13241 0.72444
 C503 C 0.88852 -0.10847 0.67572
 C504 C 0.88517 -0.07886 0.67220
 C505 C 0.89946 -0.06464 0.65034
 C506 C 0.91724 -0.07981 0.63172
 C507 C 0.92086 -0.10920 0.63518
 C508 C 0.90663 -0.12345 0.65702
 C509 C 0.93144 -0.06541 0.60877
 C510 C 0.94337 -0.05376 0.58930
 H511 H 0.88098 -0.17842 0.74555
 H512 H 0.90804 -0.15142 0.71006
 H513 H 0.83314 -0.10042 0.69232
 H514 H 0.80651 -0.12720 0.72825
 H515 H 0.87164 -0.06669 0.68645
 H516 H 0.89655 -0.04187 0.64788
 H517 H 0.93449 -0.12116 0.62082
 H518 H 0.90932 -0.14629 0.65888
 C519 C 1.18785 -0.19052 0.22323
 C520 C 1.17467 -0.17701 0.24075
 C521 C 1.15927 -0.16138 0.26225
 C522 C 1.16171 -0.16940 0.29085
 C523 C 1.14703 -0.15426 0.31193
 C524 C 1.12968 -0.13084 0.30470
 C525 C 1.12722 -0.12301 0.27586
 C526 C 1.14197 -0.13819 0.25477
 C527 C 1.11438 -0.11462 0.32724
 C528 C 1.08613 -0.10524 0.32298
 C529 C 1.07167 -0.09042 0.34451
 C530 C 1.08529 -0.08473 0.37049
 C531 C 1.11343 -0.09379 0.37483
 C532 C 1.12789 -0.10862 0.35339
 C533 C 1.07047 -0.06985 0.39290
 C534 C 1.05855 -0.05755 0.41210
 H535 H 1.17495 -0.18738 0.29686
 H536 H 1.14902 -0.16108 0.33388
 H537 H 1.11428 -0.10490 0.26966
 H538 H 1.13998 -0.13177 0.23269
 H539 H 1.07505 -0.10982 0.30321
 H540 H 1.04985 -0.08356 0.34096
 H541 H 1.12420 -0.08942 0.39483
 H542 H 1.14975 -0.11517 0.35717
 C543 C 0.81358 0.18794 0.22233
 C544 C 0.82781 0.17434 0.23892
 C545 C 0.84439 0.15837 0.25922
 C546 C 0.86935 0.16999 0.27078
 C547 C 0.88471 0.15508 0.29155
 C548 C 0.87524 0.12833 0.30108
 C549 C 0.85036 0.11664 0.28900
 C550 C 0.83504 0.13159 0.26823
 C551 C 0.89077 0.11307 0.32410
 C552 C 0.87560 0.09914 0.34580
 C553 C 0.89011 0.08533 0.36786
 C554 C 0.91996 0.08521 0.36858
 C555 C 0.93529 0.09887 0.34704
 C556 C 0.92081 0.11273 0.32493
 C557 C 0.93469 0.07131 0.39163
 C558 C 0.94656 0.05961 0.41121
 H559 H 0.87670 0.19077 0.26405
 H560 H 0.90358 0.16480 0.30067
 H561 H 0.84274 0.09594 0.29560
 H562 H 0.81576 0.12238 0.25941
 H563 H 0.85250 0.09939 0.34602
 H564 H 0.87803 0.07491 0.38449
 H565 H 0.95841 0.09885 0.34736
 H566 H 0.93308 0.12300 0.30838
 C567 C 0.19052 0.22264 -0.18799
 C568 C 0.17655 0.23911 -0.17390
 C569 C 0.16047 0.25936 -0.15729
 C570 C 0.17342 0.27336 -0.13430
 C571 C 0.15838 0.29408 -0.11896
 C572 C 0.13012 0.30112 -0.12645
 C573 C 0.11713 0.28660 -0.14933
 C574 C 0.13224 0.26589 -0.16466
 C575 C 0.11456 0.32402 -0.11094
 C576 C 0.08544 0.32109 -0.10434
 C577 C 0.07076 0.34299 -0.09028
 C578 C 0.08497 0.36809 -0.08268
 C579 C 0.11395 0.37114 -0.08902
 C580 C 0.12867 0.34928 -0.10304
 C581 C 0.06980 0.39097 -0.06884
 C582 C 0.05730 0.41042 -0.05750
 H583 H 0.19526 0.26846 -0.12840
 H584 H 0.16883 0.30459 -0.10123
 H585 H 0.09555 0.29177 -0.15583
 H586 H 0.12206 0.25528 -0.18251
 H587 H 0.07407 0.30178 -0.10986
 H588 H 0.04832 0.34039 -0.08545
 H589 H 0.12513 0.39054 -0.08336
 H590 H 0.15095 0.35238 -0.10819
 C591 C -0.18731 0.22239 0.18706
 C592 C -0.17380 0.23895 0.17289
 C593 C -0.15791 0.25923 0.15639
 C594 C -0.13229 0.27026 0.16703
 C595 C -0.11752 0.29099 0.15171
 C596 C -0.12821 0.30100 0.12551
 C597 C -0.15377 0.28945 0.11479
 C598 C -0.16852 0.26873 0.13017
 C599 C -0.11318 0.32395 0.10985
 C600 C -0.11092 0.32311 0.07994
 C601 C -0.09723 0.34507 0.06529
 C602 C -0.08568 0.36814 0.08033
 C603 C -0.08773 0.36910 0.11006
 C604 C -0.10137 0.34718 0.12473
 C605 C -0.07190 0.39102 0.06541
 C606 C -0.06030 0.41048 0.05344
 H607 H -0.12388 0.26305 0.18730
 H608 H -0.09771 0.29917 0.16034
 H609 H -0.16273 0.29696 0.09488
 H610 H -0.18841 0.26043 0.12181
 H611 H -0.11952 0.30536 0.06791
 H612 H -0.09569 0.34409 0.04226
 H613 H -0.07894 0.38690 0.12190
 H614 H -0.10313 0.34868 0.14770
 C615 C -0.18806 0.77888 -0.19036
 C616 C -0.17424 0.76197 -0.17673
 C617 C -0.15816 0.74132 -0.16068
 C618 C -0.16827 0.73191 -0.13431
 C619 C -0.15340 0.71088 -0.11928
 C620 C -0.12818 0.69896 -0.13045
 C621 C -0.11797 0.70888 -0.15679
 C622 C -0.13289 0.72990 -0.17180
 C623 C -0.11303 0.67576 -0.11507
 C624 C -0.08302 0.67499 -0.11392
 C625 C -0.06886 0.65277 -0.09989
 C626 C -0.08451 0.63106 -0.08688
 C627 C -0.11434 0.63172 -0.08780
 C628 C -0.12853 0.65389 -0.10178
 C629 C -0.07007 0.60793 -0.07278
 C630 C -0.05834 0.58835 -0.06093
 H631 H -0.18780 0.74063 -0.12549
 H632 H -0.16159 0.70399 -0.09888
 H633 H -0.09883 0.69988 -0.16613
 H634 H -0.12495 0.73694 -0.19226
 H635 H -0.07050 0.69167 -0.12366
 H636 H -0.04575 0.65250 -0.09924
 H637 H -0.12666 0.61497 -0.07788
 H638 H -0.15162 0.65364 -0.10265
 C639 C 0.18641 0.77525 0.18754
 C640 C 0.17204 0.75892 0.17379
 C641 C 0.15536 0.73889 0.15758
 C642 C 0.12997 0.72806 0.16878
 C643 C 0.11453 0.70750 0.15364
 C644 C 0.12437 0.69745 0.12712
 C645 C 0.14968 0.70883 0.11586
 C646 C 0.16506 0.72939 0.13101
 C647 C 0.10878 0.67463 0.11164
 C648 C 0.12389 0.65245 0.09812
 C649 C 0.10933 0.63066 0.08396
 C650 C 0.07949 0.63068 0.08308
 C651 C 0.06422 0.65267 0.09638
 C652 C 0.07875 0.67452 0.11060
 C653 C 0.06472 0.60791 0.06875
 C654 C 0.05291 0.58851 0.05672
 H655 H 0.12234 0.73517 0.18940
 H656 H 0.09531 0.69892 0.16303
 H657 H 0.15759 0.70183 0.09532
 H658 H 0.18468 0.73765 0.12214
 H659 H 0.14698 0.65168 0.09893
 H660 H 0.12136 0.61367 0.07384
 H661 H 0.04110 0.65291 0.09579
 H662 H 0.06654 0.69144 0.12056
 C663 C 0.22415 1.18998 0.81172
 C664 C 0.24116 1.17642 0.82554
 C665 C 0.26211 1.16092 0.84183
 C666 C 0.28722 1.17454 0.85044
 C667 C 0.30801 1.15957 0.86571
 C668 C 0.30399 1.13070 0.87259
 C669 C 0.27854 1.11724 0.86408
 C670 C 0.25775 1.13227 0.84874
 C671 C 0.32646 1.11471 0.88826
 C672 C 0.31923 1.09542 0.90997
 C673 C 0.34056 1.08067 0.92483
 C674 C 0.36931 1.08496 0.91813
 C675 C 0.37667 1.10398 0.89648
 C676 C 0.35543 1.11875 0.88164
 C677 C 0.39142 1.06993 0.93328
 C678 C 0.41047 1.05762 0.94546
 H679 H 0.29078 1.19673 0.84527
 H680 H 0.32716 1.17064 0.87232
 H681 H 0.27496 1.09496 0.86878
 H682 H 0.23842 1.12151 0.84210
 H683 H 0.29714 1.09207 0.91575
 H684 H 0.33463 1.06600 0.94158
 H685 H 0.39885 1.10736 0.89102
 H686 H 0.36166 1.13310 0.86475
 C687 C 0.22161 0.80982 1.18713
 C688 C 0.23799 0.82364 1.17302
 C689 C 0.25810 0.83974 1.15651
 C690 C 0.26340 0.86832 1.16318
 C691 C 0.28398 0.88354 1.14806
 C692 C 0.29958 0.87032 1.12605
 C693 C 0.29377 0.84170 1.11921
 C694 C 0.27319 0.82652 1.13438
 C695 C 0.32240 0.88604 1.11086
 C696 C 0.32617 0.88271 1.08127
 C697 C 0.34822 0.89693 1.06723
 C698 C 0.36677 0.91461 1.08256
 C699 C 0.36306 0.91821 1.11193
 C700 C 0.34105 0.90405 1.12600
 C701 C 0.38991 0.92874 1.06835
 C702 C 0.40953 0.94057 1.05684
 H703 H 0.25183 0.87876 1.18026
 H704 H 0.28770 0.90564 1.15357
 H705 H 0.30565 0.83082 1.10265
 H706 H 0.26935 0.80436 1.12913
 H707 H 0.31198 0.86926 1.06898
 H708 H 0.35086 0.89404 1.04446
 H709 H 0.37737 0.93176 1.12402
 H710 H 0.33899 0.90673 1.14884
 C711 C 0.77799 1.18731 1.18796
 C712 C 0.76116 1.17319 1.17455
 C713 C 0.74057 1.15670 1.15884
 C714 C 0.73046 1.13099 1.16991
 C715 C 0.70945 1.11564 1.15530
 C716 C 0.69822 1.12589 1.12942
 C717 C 0.70884 1.15155 1.11828
 C718 C 0.72986 1.16684 1.13291
 C719 C 0.67502 1.11028 1.11449
 C720 C 0.65215 1.12530 1.10206
 C721 C 0.63007 1.11071 1.08834
 C722 C 0.63050 1.08093 1.08683
 C723 C 0.65317 1.06576 1.09907
 C724 C 0.67530 1.08032 1.11284
 C725 C 0.60756 1.06612 1.07280
 C726 C 0.58808 1.05422 1.06095
 H727 H 0.73852 1.12301 1.19004
 H728 H 0.70149 1.09615 1.16460
 H729 H 0.70093 1.15979 1.09821
 H730 H 0.73755 1.18671 1.12413
 H731 H 0.65107 1.14832 1.10335
 H732 H 0.61257 1.12266 1.07903
 H733 H 0.65374 1.04270 1.09797
 H734 H 0.69275 1.06819 1.12193
 C735 C 0.77690 0.81380 0.81025
 C736 C 0.76020 0.82741 0.82436
 C737 C 0.73983 0.84335 0.84093
 C738 C 0.73131 0.83340 0.86766
 C739 C 0.71058 0.84819 0.88323
 C740 C 0.69806 0.87315 0.87222
 C741 C 0.70708 0.88320 0.84549
 C742 C 0.72780 0.86836 0.82996
 C743 C 0.67517 0.88821 0.88818
 C744 C 0.67413 0.91818 0.88907
 C745 C 0.65211 0.93225 0.90355
 C746 C 0.63088 0.91655 0.91729
 C747 C 0.63183 0.88676 0.91666
 C748 C 0.65380 0.87266 0.90223
 C749 C 0.60786 0.93090 0.93169
 C750 C 0.58831 0.94257 0.94369
 H751 H 0.74051 0.81407 0.87637
 H752 H 0.70438 0.84013 0.90390
 H753 H 0.69760 0.90214 0.83628
 H754 H 0.73415 0.87618 0.80922
 H755 H 0.69043 0.93074 0.87874
 H756 H 0.65161 0.95533 0.90394
 H757 H 0.61543 0.87441 0.92713
 H758 H 0.65376 0.84960 0.90158
   
