data_POSCAR
  _audit_creation_date              2014-09-24
  _audit_creation_method            'ToBaCCo'
  _symmetry_space_group_name_H-M    'P1'
  _symmetry_Int_Tables_number       1
  _symmetry_cell_setting            triclinic
  loop_
  _symmetry_equiv_pos_as_xyz
 x,y,z
_cell_length_a 33.7920
_cell_length_b 32.6289
_cell_length_c 8.7229
_cell_angle_alpha 90.000200
_cell_angle_beta 89.999700
_cell_angle_gamma 90.093500
loop_
  _atom_site_label
  _atom_site_type_symbol
  _atom_site_fract_x
  _atom_site_fract_y
  _atom_site_fract_z
C1 C 0.16878 0.21120 0.16492
 C2 C 0.14924 0.24853 0.14477
 C3 C 0.16891 0.28579 0.16512
 C4 C 0.20931 0.28620 0.20677
 C5 C 0.22956 0.24853 0.22763
 C6 C 0.20926 0.21081 0.20666
 C7 C 0.22998 0.17386 0.22802
 C8 C 0.26979 0.17394 0.26912
 C9 C 0.29049 0.21096 0.29054
 C10 C 0.27017 0.24861 0.26960
 C11 C 0.22995 0.32321 0.22813
 C12 C 0.26976 0.32329 0.26924
 C13 C 0.29041 0.28636 0.29054
 C14 C 0.33079 0.28610 0.33224
 C15 C 0.35048 0.24891 0.35254
 C16 C 0.33096 0.21151 0.33232
 H17 H 0.21551 0.14450 0.21305
 H18 H 0.28428 0.14463 0.28405
 H19 H 0.21545 0.35251 0.21319
 H20 H 0.28425 0.35263 0.28424
 H21 H 0.11817 0.24867 0.11281
 H22 H 0.38155 0.24918 0.38458
 C23 C 0.83206 0.28790 0.16420
 C24 C 0.85154 0.25053 0.14412
 C25 C 0.83180 0.21330 0.16440
 C26 C 0.79139 0.21296 0.20589
 C27 C 0.77121 0.25067 0.22667
 C28 C 0.79157 0.28837 0.20579
 C29 C 0.77090 0.32535 0.22712
 C30 C 0.73107 0.32534 0.26812
 C31 C 0.71039 0.28836 0.28935
 C32 C 0.73061 0.25068 0.26848
 C33 C 0.77067 0.17599 0.22716
 C34 C 0.73083 0.17600 0.26812
 C35 C 0.71026 0.21299 0.28935
 C36 C 0.66986 0.21340 0.33091
 C37 C 0.65032 0.25068 0.35111
 C38 C 0.66998 0.28795 0.33094
 H39 H 0.78542 0.35469 0.21223
 H40 H 0.71659 0.35464 0.28307
 H41 H 0.78511 0.14667 0.21226
 H42 H 0.71626 0.14670 0.28307
 H43 H 0.88262 0.25033 0.11228
 H44 H 0.61926 0.25068 0.38302
 C45 C 0.66949 0.71364 0.66820
 C46 C 0.64994 0.75091 0.64805
 C47 C 0.66960 0.78819 0.66828
 C48 C 0.71001 0.78860 0.70984
 C49 C 0.73023 0.75092 0.73069
 C50 C 0.70989 0.71323 0.70979
 C51 C 0.73046 0.67625 0.73102
 C52 C 0.77028 0.67623 0.77203
 C53 C 0.79101 0.71320 0.79331
 C54 C 0.77084 0.75092 0.77250
 C55 C 0.73069 0.82558 0.73108
 C56 C 0.77053 0.82560 0.77204
 C57 C 0.79120 0.78861 0.79336
 C58 C 0.83168 0.78813 0.83494
 C59 C 0.85116 0.75076 0.85508
 C60 C 0.83141 0.71353 0.83485
 H61 H 0.71588 0.64695 0.71605
 H62 H 0.78473 0.64691 0.78694
 H63 H 0.71621 0.85488 0.71614
 H64 H 0.78505 0.85493 0.78692
 H65 H 0.61888 0.75091 0.61615
 H66 H 0.88224 0.75055 0.88694
 C67 C 0.16767 0.71237 0.83629
 C68 C 0.14805 0.74966 0.85652
 C69 C 0.16765 0.78701 0.83625
 C70 C 0.20812 0.78749 0.79450
 C71 C 0.22839 0.74981 0.77362
 C72 C 0.20814 0.71205 0.79455
 C73 C 0.22889 0.67512 0.77315
 C74 C 0.26870 0.67523 0.73203
 C75 C 0.28930 0.71225 0.71071
 C76 C 0.26900 0.74988 0.73164
 C77 C 0.22886 0.82450 0.77304
 C78 C 0.26867 0.82454 0.73191
 C79 C 0.28928 0.78760 0.71064
 C80 C 0.32968 0.78727 0.66890
 C81 C 0.34929 0.75003 0.64867
 C82 C 0.32969 0.71273 0.66898
 H83 H 0.21446 0.64574 0.78809
 H84 H 0.28324 0.64595 0.71705
 H85 H 0.21441 0.85383 0.78793
 H86 H 0.28319 0.85387 0.71687
 H87 H 0.11696 0.74960 0.88851
 H88 H 0.38034 0.75009 0.61665
 O89 O 0.96207 -0.03157 -0.15934
 O90 O 1.03919 0.04603 -0.08785
 O91 O 1.03889 -0.03184 -0.15883
 O92 O 0.96239 0.04622 -0.08822
 O93 O 0.96222 0.03057 0.15843
 O94 O 1.03872 -0.04748 0.08783
 O95 O 1.03904 0.03038 0.15881
 O96 O 0.96193 -0.04723 0.08732
 Cu97 Cu 1.00067 0.00885 -0.14823
 Cu98 Cu 1.00047 -0.01008 0.14777
 C99 C 0.94924 -0.05278 -0.04797
 C100 C 1.05184 0.05162 0.04746
 C101 C 1.05143 -0.05314 -0.04734
 C102 C 0.94966 0.05185 0.04693
 O103 O 0.53833 0.45359 0.58685
 O104 O 0.46127 0.53088 0.65962
 O105 O 0.46152 0.45315 0.58729
 O106 O 0.53811 0.53125 0.65940
 O107 O 0.53798 0.54725 0.41304
 O108 O 0.46139 0.46914 0.34092
 O109 O 0.46116 0.54687 0.41326
 O110 O 0.53823 0.46959 0.34049
 Cu111 Cu 0.49981 0.49055 0.64797
 Cu112 Cu 0.49966 0.50988 0.35225
 C113 C 0.55104 0.44828 0.45148
 C114 C 0.44847 0.55221 0.54863
 C115 C 0.44880 0.44768 0.45202
 C116 C 0.55073 0.55268 0.54829
 O117 O 0.03864 0.46867 0.15883
 O118 O -0.03809 0.54647 0.08805
 O119 O -0.03817 0.46865 0.15897
 O120 O 0.03869 0.54656 0.08815
 O121 O 0.03868 0.53098 -0.15857
 O122 O -0.03817 0.45305 -0.08774
 O123 O -0.03812 0.53087 -0.15866
 O124 O 0.03861 0.45308 -0.08789
 Cu125 Cu 0.00028 0.50922 0.14817
 Cu126 Cu 0.00026 0.49036 -0.14789
 C127 C 0.05128 0.44743 0.04734
 C128 C -0.05078 0.55209 -0.04716
 C129 C -0.05088 0.44741 0.04748
 C130 C 0.05135 0.55225 -0.04709
 O131 O 0.46104 1.04743 0.58659
 O132 O 0.53788 0.96989 0.65923
 O133 O 0.53787 1.04752 0.58646
 O134 O 0.46103 0.96973 0.65922
 O135 O 0.46102 0.95368 0.41291
 O136 O 0.53787 1.03147 0.34015
 O137 O 0.53785 0.95383 0.41292
 O138 O 0.46101 1.03138 0.34028
 Cu139 Cu 0.49944 1.01032 0.64755
 Cu140 Cu 0.49942 0.99091 0.35189
 C141 C 0.44831 1.05277 0.45127
 C142 C 0.55060 0.94852 0.54823
 C143 C 0.55061 1.05287 0.45113
 C144 C 0.44832 0.94829 0.54826
 C145 C 1.14739 0.17604 0.14316
 C146 C 1.12737 0.14590 0.12293
 C147 C 1.10250 0.11176 0.09794
 C148 C 1.08004 0.08366 0.07549
 C149 C 0.64682 0.67657 0.64508
 C150 C 0.62661 0.64659 0.62458
 C151 C 0.60154 0.61264 0.59925
 C152 C 0.57896 0.58467 0.57654
 C153 C -0.14649 0.32301 0.14252
 C154 C -0.12643 0.35312 0.12237
 C155 C -0.10152 0.38724 0.09752
 C156 C -0.07905 0.41534 0.07524
 C157 C 0.35229 0.82439 0.64571
 C158 C 0.37245 0.85439 0.62512
 C159 C 0.39749 0.88837 0.59965
 C160 C 0.42006 0.91634 0.57677
 C161 C -0.14611 0.67638 -0.14229
 C162 C -0.12612 0.64631 -0.12210
 C163 C -0.10129 0.61221 -0.09722
 C164 C -0.07889 0.58413 -0.07492
 C165 C 0.35239 1.17647 0.35420
 C166 C 0.37250 1.14647 0.37466
 C167 C 0.39750 1.11255 0.40001
 C168 C 0.42006 1.08463 0.42281
 C169 C 1.14632 -0.17786 -0.14211
 C170 C 1.12640 -0.14771 -0.12202
 C171 C 1.10169 -0.11351 -0.09726
 C172 C 1.07940 -0.08532 -0.07505
 C173 C 0.64741 0.32501 0.35405
 C174 C 0.62721 0.35492 0.37462
 C175 C 0.60209 0.38874 0.40009
 C176 C 0.57942 0.41655 0.42298
 C177 C 0.85317 -0.17677 -0.14343
 C178 C 0.87331 -0.14672 -0.12327
 C179 C 0.89833 -0.11270 -0.09835
 C180 C 0.92093 -0.08471 -0.07594
 C181 C 0.35332 0.32328 0.35533
 C182 C 0.37338 0.35337 0.37578
 C183 C 0.39826 0.38748 0.40104
 C184 C 0.42069 0.41558 0.42373
 C185 C 0.14635 0.67716 -0.14204
 C186 C 0.12644 0.64694 -0.12194
 C187 C 0.10173 0.61267 -0.09715
 C188 C 0.07940 0.58444 -0.07489
 C189 C 0.64716 1.17634 0.35395
 C190 C 0.62687 1.14642 0.37446
 C191 C 0.60167 1.11258 0.39985
 C192 C 0.57897 1.08471 0.42268
 C193 C 0.14639 0.32292 0.14226
 C194 C 0.12641 0.35302 0.12214
 C195 C 0.10165 0.38717 0.09735
 C196 C 0.07932 0.41531 0.07510
 C197 C 0.64700 0.82525 0.64529
 C198 C 0.62678 0.85515 0.62482
 C199 C 0.60163 0.88895 0.59945
 C200 C 0.57896 0.91676 0.57664
 C201 C 0.85430 0.17615 0.14165
 C202 C 0.87432 0.14609 0.12156
 C203 C 0.89917 0.11201 0.09680
 C204 C 0.92158 0.08393 0.07459
 C205 C 0.35232 0.67569 0.64588
 C206 C 0.37249 0.64576 0.62537
 C207 C 0.39755 0.61188 0.59997
 C208 C 0.42016 0.58401 0.57714
   
