data_POSCAR
  _audit_creation_date              2014-09-24
  _audit_creation_method            'ToBaCCo'
  _symmetry_space_group_name_H-M    'P1'
  _symmetry_Int_Tables_number       1
  _symmetry_cell_setting            triclinic
  loop_
  _symmetry_equiv_pos_as_xyz
 x,y,z
_cell_length_a 38.8191
_cell_length_b 38.9663
_cell_length_c 38.8987
_cell_angle_alpha 76.575600
_cell_angle_beta 106.262900
_cell_angle_gamma 101.804800
loop_
  _atom_site_label
  _atom_site_type_symbol
  _atom_site_fract_x
  _atom_site_fract_y
  _atom_site_fract_z
C1 C 0.56261 0.57961 -0.01360
 C2 C 0.56492 0.54672 -0.02136
 C3 C 0.53611 0.51868 -0.01793
 C4 C 0.50731 0.52180 -0.00404
 C5 C 0.50651 0.55477 0.00460
 C6 C 0.53326 0.58453 -0.00145
 C7 C 0.47806 0.49057 0.00075
 C8 C 0.44236 0.49530 -0.00153
 C9 C 0.41496 0.46583 0.00182
 C10 C 0.42294 0.43133 0.00628
 C11 C 0.45809 0.42595 0.00829
 C12 C 0.48557 0.45545 0.00671
 H13 H 0.58540 0.60079 -0.01383
 H14 H 0.53544 0.49459 -0.02748
 H15 H 0.48427 0.55751 0.01478
 H16 H 0.43520 0.52179 -0.00703
 H17 H 0.40164 0.40863 0.00785
 H18 H 0.51294 0.45062 0.01029
 C19 C 0.00594 0.57168 0.41644
 C20 C 0.00821 0.57683 0.45173
 C21 C 0.00739 0.54656 0.47963
 C22 C 0.00116 0.51168 0.47261
 C23 C -0.00146 0.50751 0.43691
 C24 C 0.00161 0.53724 0.40860
 C25 C -0.00375 0.48003 0.50240
 C26 C 0.00229 0.44587 0.50101
 C27 C -0.00380 0.41626 0.52844
 C28 C -0.01404 0.42123 0.55858
 C29 C -0.01893 0.45500 0.56118
 C30 C -0.01504 0.48378 0.53266
 H31 H 0.00741 0.59463 0.39487
 H32 H 0.01295 0.55044 0.50737
 H33 H -0.00805 0.48107 0.43045
 H34 H 0.01144 0.44187 0.47863
 H35 H -0.01701 0.39898 0.58072
 H36 H -0.02136 0.50897 0.53444
 C37 C 0.58715 0.00248 0.59090
 C38 C 0.55456 0.01182 0.59218
 C39 C 0.52547 0.01249 0.56117
 C40 C 0.52719 0.00095 0.53005
 C41 C 0.55983 -0.00974 0.53009
 C42 C 0.59075 -0.00752 0.55961
 C43 C 0.49509 0.00032 0.49767
 C44 C 0.49952 0.00249 0.46238
 C45 C 0.46950 0.00115 0.43228
 C46 C 0.43467 -0.00056 0.43696
 C47 C 0.42953 -0.00187 0.47148
 C48 C 0.45954 -0.00239 0.50169
 H49 H 0.60912 0.00113 0.61525
 H50 H 0.50158 0.02241 0.56159
 H51 H 0.56160 -0.01843 0.50639
 H52 H 0.52624 0.00598 0.45760
 H53 H 0.41151 -0.00084 0.41365
 H54 H 0.45460 -0.00552 0.52833
 O55 O 0.48518 0.00787 -0.04593
 O56 O 0.47663 -0.00646 0.04864
 O57 O 0.47719 0.04803 -0.00430
 O58 O 0.48302 -0.04701 0.00668
 O59 O 0.54253 -0.03571 0.02625
 O60 O 0.53669 0.05967 0.01529
 O61 O 0.53618 0.00541 0.06764
 O62 O 0.54467 0.01967 -0.02656
 Cu63 Cu 0.47455 -0.00058 -0.00072
 Cu64 Cu 0.54602 0.01331 0.02243
 C65 C 0.51647 0.01618 -0.05239
 C66 C 0.50499 -0.00240 0.07424
 C67 C 0.50579 0.07003 0.00420
 C68 C 0.51372 -0.05769 0.01832
 O69 O -0.05907 0.53183 0.96547
 O70 O 0.03711 0.52518 0.98045
 O71 O -0.01915 0.52376 0.92537
 O72 O -0.00349 0.53132 1.02160
 O73 O -0.01774 0.47288 1.03608
 O74 O -0.02933 0.46509 0.94109
 O75 O 0.02549 0.46679 0.99749
 O76 O -0.07185 0.47321 0.97918
 Cu77 Cu -0.00983 0.53390 0.97182
 Cu78 Cu -0.02451 0.46362 0.99003
 C79 C -0.08200 0.50379 0.96950
 C80 C 0.04783 0.49494 0.99133
 C81 C -0.02650 0.49300 0.91695
 C82 C -0.00876 0.50335 1.04512
 O83 O -0.00936 -0.04900 0.47550
 O84 O 0.00089 0.04535 0.48182
 O85 O 0.04309 0.00440 0.47513
 O86 O -0.05110 -0.00842 0.48416
 O87 O -0.03159 -0.02358 0.54379
 O88 O 0.06230 -0.00913 0.53496
 O89 O 0.01973 0.03151 0.54163
 O90 O 0.01134 -0.06294 0.53513
 Cu91 Cu -0.00614 -0.00052 0.47318
 Cu92 Cu 0.01722 -0.01735 0.54489
 C93 C 0.00000 -0.07198 0.50406
 C94 C 0.01188 0.05464 0.51274
 C95 C 0.06876 -0.00058 0.50359
 C96 C -0.05740 -0.01823 0.51562
 C97 C -0.33749 0.53246 0.95751
 C98 C -0.34897 0.56604 0.94726
 C99 C -0.38158 0.57058 0.95294
 C100 C -0.40383 0.54159 0.96922
 C101 C -0.39287 0.50752 0.97764
 C102 C -0.36018 0.50312 0.97196
 C103 C -0.30099 0.52850 0.95527
 C104 C -0.29550 0.49848 0.94437
 C105 C -0.26064 0.49418 0.94418
 C106 C -0.23058 0.51979 0.95493
 C107 C -0.23621 0.54992 0.96551
 C108 C -0.27096 0.55423 0.96564
 C109 C -0.19326 0.51494 0.95614
 C110 C -0.16824 0.54436 0.94564
 C111 C -0.13236 0.54051 0.94934
 C112 C -0.12064 0.50710 0.96346
 C113 C -0.14589 0.47739 0.97288
 C114 C -0.18184 0.48128 0.96931
 H115 H -0.33251 0.58900 0.93504
 H116 H -0.38935 0.59695 0.94391
 H117 H -0.40802 0.48433 0.99105
 H118 H -0.35185 0.47694 0.98056
 H119 H -0.31818 0.47838 0.93589
 H120 H -0.25722 0.47090 0.93546
 H121 H -0.21356 0.56978 0.97466
 H122 H -0.27417 0.57727 0.97491
 H123 H -0.17636 0.57050 0.93475
 H124 H -0.11368 0.56388 0.94148
 H125 H -0.13767 0.45130 0.98388
 H126 H -0.20037 0.45816 0.97796
 C127 C 0.30671 0.47729 1.00098
 C128 C 0.33712 0.49552 1.02256
 C129 C 0.37228 0.49252 1.02212
 C130 C 0.37778 0.47090 1.00045
 C131 C 0.34753 0.45304 0.97855
 C132 C 0.31241 0.45637 0.97862
 C133 C 0.26922 0.47977 1.00194
 C134 C 0.24173 0.45007 0.99904
 C135 C 0.20635 0.45253 0.99911
 C136 C 0.19756 0.48465 1.00249
 C137 C 0.22520 0.51417 1.00608
 C138 C 0.26051 0.51182 1.00562
 C139 C 0.15955 0.48762 1.00120
 C140 C 0.14524 0.51932 0.98363
 C141 C 0.10924 0.52184 0.98121
 C142 C 0.08648 0.49261 0.99591
 C143 C 0.10073 0.46100 1.01379
 C144 C 0.13693 0.45860 1.01659
 H145 H 0.33383 0.51144 1.04050
 H146 H 0.39521 0.50626 1.03952
 H147 H 0.35110 0.43658 0.96123
 H148 H 0.28971 0.44266 0.96098
 H149 H 0.24753 0.42476 0.99684
 H150 H 0.18574 0.42937 0.99581
 H151 H 0.21959 0.53919 1.00929
 H152 H 0.28084 0.53535 1.00755
 H153 H 0.16155 0.54198 0.97085
 H154 H 0.09900 0.54649 0.96699
 H155 H 0.08391 0.43810 1.02558
 H156 H 0.14718 0.43399 1.03090
 C157 C 0.00994 -0.31946 0.47131
 C158 C 0.02622 -0.32373 0.44483
 C159 C 0.02606 -0.35766 0.43851
 C160 C 0.01008 -0.38860 0.45894
 C161 C -0.00534 -0.38405 0.48617
 C162 C -0.00567 -0.35011 0.49198
 C163 C 0.00847 -0.28327 0.47686
 C164 C 0.01064 -0.27718 0.51172
 C165 C 0.00801 -0.24350 0.51669
 C166 C 0.00364 -0.21484 0.48701
 C167 C 0.00196 -0.22082 0.45223
 C168 C 0.00408 -0.25461 0.44719
 C169 C 0.00120 -0.17881 0.49226
 C170 C -0.02091 -0.15647 0.46511
 C171 C -0.02182 -0.12200 0.46923
 C172 C -0.00114 -0.10927 0.50085
 C173 C 0.02009 -0.13186 0.52851
 C174 C 0.02146 -0.16613 0.52416
 H175 H 0.03946 -0.30080 0.42908
 H176 H 0.03971 -0.35939 0.41838
 H177 H -0.01923 -0.40653 0.50181
 H178 H -0.01927 -0.34794 0.51200
 H179 H 0.01456 -0.29840 0.53534
 H180 H 0.00900 -0.24009 0.54380
 H181 H -0.00071 -0.19931 0.42881
 H182 H 0.00175 -0.25831 0.41986
 H183 H -0.03757 -0.16555 0.44059
 H184 H -0.03864 -0.10525 0.44757
 H185 H 0.03660 -0.12262 0.55303
 H186 H 0.03924 -0.18226 0.54540
 C187 C 0.00875 0.31008 0.52403
 C188 C 0.03424 0.33950 0.51434
 C189 C 0.03007 0.37410 0.51526
 C190 C 0.00036 0.37993 0.52597
 C191 C -0.02536 0.35058 0.53509
 C192 C -0.02124 0.31612 0.53410
 C193 C 0.01313 0.27316 0.52369
 C194 C 0.00448 0.24475 0.55111
 C195 C 0.00678 0.20975 0.54998
 C196 C 0.01790 0.20227 0.52143
 C197 C 0.02738 0.23077 0.49443
 C198 C 0.02504 0.26583 0.49556
 C199 C 0.01820 0.16477 0.51915
 C200 C 0.00584 0.15352 0.48540
 C201 C 0.00430 0.11791 0.48333
 C202 C 0.01502 0.09264 0.51498
 C203 C 0.02793 0.10394 0.54870
 C204 C 0.02953 0.13963 0.55075
 H205 H 0.05781 0.33569 0.50677
 H206 H 0.05050 0.39619 0.50844
 H207 H -0.04888 0.35433 0.54279
 H208 H -0.04181 0.29417 0.54089
 H209 H -0.00425 0.24956 0.57347
 H210 H -0.00107 0.18843 0.57100
 H211 H 0.03648 0.22595 0.47232
 H212 H 0.03169 0.28708 0.47390
 H213 H -0.00361 0.17206 0.46062
 H214 H -0.00586 0.11009 0.45693
 H215 H 0.03657 0.08518 0.57356
 H216 H 0.03967 0.14754 0.57711
 C217 C 0.54328 0.02814 -0.30575
 C218 C 0.57580 0.04155 -0.31666
 C219 C 0.57922 0.03725 -0.35022
 C220 C 0.55027 0.01917 -0.37345
 C221 C 0.51751 0.00642 -0.36274
 C222 C 0.51402 0.01098 -0.32937
 C223 C 0.54027 0.03047 -0.26919
 C224 C 0.50867 0.03933 -0.26474
 C225 C 0.50503 0.03937 -0.22999
 C226 C 0.53280 0.03027 -0.19887
 C227 C 0.56465 0.02198 -0.20348
 C228 C 0.56838 0.02221 -0.23824
 C229 C 0.52820 0.02830 -0.16170
 C230 C 0.55782 0.03879 -0.13386
 C231 C 0.55391 0.03521 -0.09850
 C232 C 0.52021 0.02132 -0.09018
 C233 C 0.49039 0.01154 -0.11812
 C234 C 0.49437 0.01486 -0.15343
 H235 H 0.59863 0.05529 -0.29916
 H236 H 0.60460 0.04794 -0.35788
 H237 H 0.49488 -0.00820 -0.37961
 H238 H 0.48881 -0.00007 -0.32146
 H239 H 0.48676 0.04623 -0.28818
 H240 H 0.48044 0.04655 -0.22751
 H241 H 0.58631 0.01423 -0.18014
 H242 H 0.59281 0.01475 -0.24081
 H243 H 0.58410 0.04983 -0.13939
 H244 H 0.57736 0.04325 -0.07764
 H245 H 0.46411 0.00059 -0.11256
 H246 H 0.47111 0.00601 -0.17402
 C247 C 0.48151 -0.00228 0.32646
 C248 C 0.46087 0.02173 0.33039
 C249 C 0.45719 0.02309 0.36475
 C250 C 0.47444 0.00083 0.39598
 C251 C 0.49554 -0.02273 0.39227
 C252 C 0.49886 -0.02444 0.35789
 C253 C 0.48477 -0.00432 0.28978
 C254 C 0.51734 -0.01076 0.28505
 C255 C 0.52043 -0.01256 0.25060
 C256 C 0.49119 -0.00751 0.21987
 C257 C 0.45857 -0.00123 0.22463
 C258 C 0.45534 0.00015 0.25915
 C259 C 0.49502 -0.00783 0.18293
 C260 C 0.46561 -0.02170 0.15680
 C261 C 0.46889 -0.02042 0.12160
 C262 C 0.50179 -0.00567 0.11191
 C263 C 0.53141 0.00745 0.13820
 C264 C 0.52801 0.00658 0.17319
 H265 H 0.44778 0.03973 0.30694
 H266 H 0.44107 0.04173 0.36699
 H267 H 0.50871 -0.04050 0.41594
 H268 H 0.51442 -0.04369 0.35591
 H269 H 0.54072 -0.01393 0.30788
 H270 H 0.54580 -0.01798 0.24811
 H271 H 0.43563 0.00326 0.20157
 H272 H 0.42964 0.00456 0.26181
 H273 H 0.44000 -0.03359 0.16352
 H274 H 0.44565 -0.03091 0.10196
 H275 H 0.55703 0.01930 0.13147
 H276 H 0.55103 0.01812 0.19229
 C277 C 0.52829 -0.31252 0.01585
 C278 C 0.54537 -0.31628 -0.01013
 C279 C 0.54692 -0.34995 -0.01566
 C280 C 0.53121 -0.38132 0.00448
 C281 C 0.51342 -0.37731 0.03013
 C282 C 0.51217 -0.34342 0.03581
 C283 C 0.52703 -0.27633 0.02141
 C284 C 0.49570 -0.26824 0.02728
 C285 C 0.49383 -0.23351 0.02994
 C286 C 0.52317 -0.20601 0.02662
 C287 C 0.55483 -0.21438 0.02178
 C288 C 0.55679 -0.24910 0.01939
 C289 C 0.52030 -0.16847 0.02651
 C290 C 0.55058 -0.14543 0.04220
 C291 C 0.54842 -0.10954 0.03987
 C292 C 0.51583 -0.09594 0.02210
 C293 C 0.48533 -0.11912 0.00720
 C294 C 0.48757 -0.15489 0.00924
 H295 H 0.55699 -0.29304 -0.02690
 H296 H 0.55925 -0.35098 -0.03707
 H297 H 0.50179 -0.40018 0.04723
 H298 H 0.49918 -0.34147 0.05641
 H299 H 0.47221 -0.28850 0.02876
 H300 H 0.46923 -0.22813 0.03427
 H301 H 0.57782 -0.19389 0.01873
 H302 H 0.58159 -0.25452 0.01555
 H303 H 0.57604 -0.15512 0.05625
 H304 H 0.57231 -0.09242 0.05189
 H305 H 0.45985 -0.10943 -0.00681
 H306 H 0.46389 -0.17163 -0.00369
 C307 C 0.47760 0.32043 0.01051
 C308 C 0.49172 0.35021 -0.01244
 C309 C 0.48597 0.38445 -0.01251
 C310 C 0.46578 0.38973 0.01017
 C311 C 0.45196 0.36011 0.03343
 C312 C 0.45794 0.32584 0.03371
 C313 C 0.48260 0.28387 0.00950
 C314 C 0.45444 0.25507 0.01250
 C315 C 0.45874 0.22087 0.01069
 C316 C 0.49121 0.21460 0.00555
 C317 C 0.51943 0.24336 0.00267
 C318 C 0.51521 0.27755 0.00473
 C319 C 0.49559 0.17815 0.00347
 C320 C 0.52894 0.16543 0.01959
 C321 C 0.53257 0.13066 0.01888
 C322 C 0.50287 0.10773 0.00227
 C323 C 0.46975 0.12064 -0.01448
 C324 C 0.46620 0.15548 -0.01403
 H325 H 0.50640 0.34700 -0.03112
 H326 H 0.49646 0.40676 -0.03112
 H327 H 0.43664 0.36350 0.05147
 H328 H 0.44726 0.30359 0.05221
 H329 H 0.42880 0.25903 0.01571
 H330 H 0.43666 0.19925 0.01360
 H331 H 0.54466 0.23957 -0.00163
 H332 H 0.53762 0.29902 0.00276
 H333 H 0.55200 0.18199 0.03370
 H334 H 0.55838 0.12142 0.03225
 H335 H 0.44642 0.10370 -0.02771
 H336 H 0.44036 0.16464 -0.02739
 C337 C -0.30680 -0.02358 0.55062
 C338 C -0.30889 -0.00111 0.57321
 C339 C -0.34239 0.00330 0.57691
 C340 C -0.37521 -0.01422 0.55765
 C341 C -0.37283 -0.03725 0.53545
 C342 C -0.33918 -0.04195 0.53217
 C343 C -0.27101 -0.02690 0.54562
 C344 C -0.23983 -0.02583 0.57465
 C345 C -0.20585 -0.02660 0.56942
 C346 C -0.20213 -0.02893 0.53512
 C347 C -0.23346 -0.03100 0.50632
 C348 C -0.26742 -0.02983 0.51146
 C349 C -0.16560 -0.02806 0.52926
 C350 C -0.15696 -0.01010 0.49622
 C351 C -0.12210 -0.00771 0.49142
 C352 C -0.09493 -0.02281 0.51971
 C353 C -0.10363 -0.04126 0.55249
 C354 C -0.13859 -0.04407 0.55711
 H355 H -0.28461 0.01417 0.58719
 H356 H -0.34225 0.02231 0.59329
 H357 H -0.39676 -0.05276 0.52132
 H358 H -0.33858 -0.06024 0.51530
 H359 H -0.24158 -0.02418 0.60149
 H360 H -0.18236 -0.02449 0.59215
 H361 H -0.23177 -0.03337 0.47968
 H362 H -0.29071 -0.03033 0.48836
 H363 H -0.17680 0.00306 0.47436
 H364 H -0.11614 0.00687 0.46593
 H365 H -0.08336 -0.05349 0.57466
 H366 H -0.14441 -0.05878 0.58261
 C367 C 0.32254 0.00067 0.48189
 C368 C 0.35283 0.02310 0.49850
 C369 C 0.38759 0.02171 0.49568
 C370 C 0.39283 -0.00183 0.47585
 C371 C 0.36273 -0.02433 0.45932
 C372 C 0.32799 -0.02326 0.46248
 C373 C 0.28547 0.00233 0.48471
 C374 C 0.25519 -0.00233 0.45532
 C375 C 0.22033 -0.00126 0.45818
 C376 C 0.21489 0.00484 0.49038
 C377 C 0.24524 0.01003 0.51956
 C378 C 0.28003 0.00858 0.51685
 C379 C 0.17767 0.00485 0.49389
 C380 C 0.16823 -0.00983 0.52721
 C381 C 0.13313 -0.01078 0.53045
 C382 C 0.10640 0.00253 0.50035
 C383 C 0.11576 0.01746 0.46707
 C384 C 0.15106 0.01878 0.46392
 H385 H 0.34964 0.04231 0.51308
 H386 H 0.41033 0.03969 0.50825
 H387 H 0.36615 -0.04297 0.44418
 H388 H 0.30546 -0.04144 0.44998
 H389 H 0.25838 -0.00663 0.42994
 H390 H 0.19759 -0.00583 0.43531
 H391 H 0.24219 0.01532 0.54459
 H392 H 0.30260 0.01188 0.54020
 H393 H 0.18773 -0.02143 0.55066
 H394 H 0.12670 -0.02277 0.55639
 H395 H 0.09578 0.02807 0.44344
 H396 H 0.15751 0.03083 0.43802
 C397 C -0.00000 0.52502 1.30194
 C398 C -0.01465 0.55311 1.30695
 C399 C -0.01428 0.55709 1.34182
 C400 C 0.00009 0.53262 1.37300
 C401 C 0.01368 0.50379 1.36773
 C402 C 0.01406 0.50035 1.33284
 C403 C 0.00061 0.52162 1.26468
 C404 C -0.00299 0.48791 1.25569
 C405 C -0.00268 0.48481 1.22069
 C406 C 0.00048 0.51529 1.19339
 C407 C 0.00419 0.54901 1.20242
 C408 C 0.00463 0.55214 1.23761
 C409 C -0.00091 0.51191 1.15556
 C410 C 0.01866 0.53814 1.13369
 C411 C 0.01616 0.53548 1.09778
 C412 C -0.00530 0.50614 1.08321
 C413 C -0.02431 0.47962 1.10511
 C414 C -0.02246 0.48264 1.14067
 H415 H -0.02697 0.57193 1.28384
 H416 H -0.02674 0.57870 1.34390
 H417 H 0.02598 0.48477 1.39065
 H418 H 0.02629 0.47876 1.33032
 H419 H -0.00660 0.46372 1.27550
 H420 H -0.00488 0.45838 1.21515
 H421 H 0.00617 0.57314 1.18217
 H422 H 0.00825 0.57862 1.24354
 H423 H 0.03615 0.56069 1.14430
 H424 H 0.03131 0.55618 1.08153
 H425 H -0.04142 0.45691 1.09441
 H426 H -0.03864 0.46232 1.15615
 C427 C -0.03566 0.47007 0.66114
 C428 C -0.00813 0.49204 0.64570
 C429 C -0.00354 0.48766 0.61274
 C430 C -0.02587 0.46081 0.59473
 C431 C -0.05352 0.43891 0.60976
 C432 C -0.05863 0.44373 0.64245
 C433 C -0.03923 0.47383 0.69723
 C434 C -0.04983 0.44373 0.72209
 C435 C -0.05075 0.44692 0.75686
 C436 C -0.04040 0.48017 0.76805
 C437 C -0.03066 0.51040 0.74287
 C438 C -0.03045 0.50732 0.70786
 C439 C -0.03836 0.48309 0.80615
 C440 C -0.04539 0.51417 0.81393
 C441 C -0.04150 0.51748 0.84992
 C442 C -0.03129 0.48950 0.87885
 C443 C -0.02505 0.45818 0.87117
 C444 C -0.02815 0.45514 0.83533
 H445 H 0.01069 0.51200 0.65954
 H446 H 0.01830 0.50453 0.60186
 H447 H -0.07120 0.41817 0.59614
 H448 H -0.08055 0.42676 0.65303
 H449 H -0.05644 0.41742 0.71519
 H450 H -0.05924 0.42314 0.77508
 H451 H -0.02215 0.53642 0.75043
 H452 H -0.02296 0.53126 0.68929
 H453 H -0.05402 0.53598 0.79226
 H454 H -0.04681 0.54180 0.85511
 H455 H -0.01678 0.43632 0.89302
 H456 H -0.02165 0.43115 0.83069
   
