data_POSCAR
  _audit_creation_date              2014-09-24
  _audit_creation_method            'ToBaCCo'
  _symmetry_space_group_name_H-M    'P1'
  _symmetry_Int_Tables_number       1
  _symmetry_cell_setting            triclinic
  loop_
  _symmetry_equiv_pos_as_xyz
 x,y,z
_cell_length_a 24.6470
_cell_length_b 24.6833
_cell_length_c 29.1698
_cell_angle_alpha 90.002400
_cell_angle_beta 89.996800
_cell_angle_gamma 90.003000
loop_
  _atom_site_label
  _atom_site_type_symbol
  _atom_site_fract_x
  _atom_site_fract_y
  _atom_site_fract_z
B1 B 0.28057 0.23168 0.29590
 B2 B 0.21567 0.21452 0.28410
 B3 B 0.23144 0.27921 0.29622
 B4 B 0.29244 0.29265 0.27275
 B5 B 0.31387 0.23501 0.24574
 B6 B 0.26613 0.18647 0.25389
 B7 B 0.22003 0.26825 0.20403
 B8 B 0.28458 0.28509 0.21591
 B9 B 0.26852 0.22004 0.20388
 B10 B 0.20782 0.20695 0.22725
 B11 B 0.18641 0.26449 0.25392
 B12 B 0.23422 0.31313 0.24650
 B13 B 0.71993 0.76853 0.29601
 B14 B 0.78451 0.78521 0.28410
 B15 B 0.76827 0.72021 0.29613
 B16 B 0.70753 0.70727 0.27279
 B17 B 0.68626 0.76488 0.24617
 B18 B 0.73419 0.81339 0.25355
 B19 B 0.78028 0.73182 0.20410
 B20 B 0.71535 0.71485 0.21594
 B21 B 0.73128 0.77948 0.20383
 B22 B 0.79234 0.79276 0.22725
 B23 B 0.81363 0.73506 0.25425
 B24 B 0.76576 0.68664 0.24611
 B25 B 0.73222 0.21891 -0.20508
 B26 B 0.71346 0.28321 -0.21661
 B27 B 0.77865 0.26914 -0.20408
 B28 B 0.79403 0.20899 -0.22777
 B29 B 0.73734 0.18629 -0.25522
 B30 B 0.68708 0.23233 -0.24760
 B31 B 0.76810 0.28135 -0.29618
 B32 B 0.78692 0.21707 -0.28460
 B33 B 0.72181 0.23117 -0.29719
 B34 B 0.70630 0.29132 -0.27348
 B35 B 0.76301 0.31405 -0.24606
 B36 B 0.81327 0.26799 -0.25372
 B37 B 0.27872 0.76888 -0.29594
 B38 B 0.21355 0.78314 -0.28345
 B39 B 0.23215 0.71878 -0.29498
 B40 B 0.29389 0.70867 -0.27226
 B41 B 0.31331 0.76759 -0.24629
 B42 B 0.26318 0.81382 -0.25396
 B43 B 0.22169 0.73108 -0.20285
 B44 B 0.28675 0.71673 -0.21543
 B45 B 0.26818 0.78111 -0.20384
 B46 B 0.20640 0.79128 -0.22656
 B47 B 0.18699 0.73234 -0.25247
 B48 B 0.23708 0.68615 -0.24484
 B49 B 1.23153 1.27983 0.70400
 B50 B 1.21462 1.21544 0.71600
 B51 B 1.27977 1.23138 0.70390
 B52 B 1.29295 1.29205 0.72715
 B53 B 1.23535 1.31352 0.75381
 B54 B 1.18660 1.26580 0.74652
 B55 B 1.26820 1.21960 0.79594
 B56 B 1.28540 1.28436 0.78402
 B57 B 1.22063 1.26868 0.79621
 B58 B 1.20710 1.20772 0.77286
 B59 B 1.26479 1.18623 0.74584
 B60 B 1.31346 1.23389 0.75388
 B61 B 0.76862 0.71942 0.70411
 B62 B 0.78588 0.78418 0.71596
 B63 B 0.72109 0.76857 0.70375
 B64 B 0.70747 0.70765 0.72716
 B65 B 0.76511 0.68613 0.75424
 B66 B 0.81383 0.73373 0.74618
 B67 B 0.73191 0.77985 0.79597
 B68 B 0.71494 0.71544 0.78402
 B69 B 0.78010 0.73135 0.79614
 B70 B 0.79336 0.79196 0.77283
 B71 B 0.73583 0.81346 0.74611
 B72 B 0.68701 0.76581 0.75343
 B73 B 1.21894 0.73170 0.20385
 B74 B 1.28347 0.71345 0.21546
 B75 B 1.26882 0.77837 0.20290
 B76 B 1.20842 0.79332 0.22658
 B77 B 1.18612 0.73647 0.25394
 B78 B 1.23266 0.68667 0.24628
 B79 B 1.28108 0.76794 0.29503
 B80 B 1.21653 0.78617 0.28347
 B81 B 1.23116 0.72119 0.29594
 B82 B 1.29155 0.70634 0.27229
 B83 B 1.31384 0.76318 0.24490
 B84 B 1.26731 0.81298 0.25254
 B85 B 0.76884 1.27842 0.29714
 B86 B 0.78347 1.21351 0.28460
 B87 B 0.71893 1.23178 0.29625
 B88 B 0.70844 1.29340 0.27351
 B89 B 0.76732 1.31299 0.24750
 B90 B 0.81382 1.26320 0.25511
 B91 B 0.73105 1.22118 0.20416
 B92 B 0.71651 1.28621 0.21661
 B93 B 0.78101 1.26791 0.20501
 B94 B 0.79147 1.20633 0.22777
 B95 B 0.73260 1.18672 0.25384
 B96 B 0.68606 1.23656 0.24617
 O97 O 0.57267 1.09503 0.08424
 O98 O 0.63661 1.04915 0.04184
 C99 C 0.62219 1.08418 0.07338
 O100 O 0.42704 0.90145 0.08091
 O101 O 0.36312 0.94938 0.04024
 C102 C 0.37756 0.91256 0.07023
 O103 O 0.57266 0.90573 0.08416
 O104 O 0.63659 0.95105 0.04136
 C105 C 0.62218 0.91635 0.07312
 O106 O 0.42667 1.10271 0.07692
 O107 O 0.36286 1.04921 0.04143
 C108 C 0.37719 1.08804 0.06952
 Zr109 Zr 0.49970 1.06696 0.05745
 O110 O 0.49695 1.05685 0.12939
 O111 O 0.50035 1.15234 0.06483
 Zr112 Zr 0.49975 0.93298 0.05670
 O113 O 0.49485 0.93371 0.12924
 O114 O 0.50460 0.84726 0.05530
 O115 O 0.54947 0.99998 0.06616
 O116 O 0.45110 1.00005 0.06567
 O117 O 0.42639 1.10138 -0.07855
 O118 O 0.36269 1.04962 -0.04101
 C119 C 0.37691 1.08753 -0.07001
 O120 O 0.57284 0.90478 -0.08340
 O121 O 0.63680 0.95177 -0.04203
 C122 C 0.62238 0.91634 -0.07316
 O123 O 0.42648 0.89807 -0.07687
 O124 O 0.36275 0.95174 -0.04151
 C125 C 0.37703 0.91305 -0.06968
 O126 O 0.57297 1.09726 -0.08267
 O127 O 0.63667 1.04811 -0.04271
 C128 C 0.62245 1.08393 -0.07358
 Zr129 Zr 0.49974 1.06841 -0.05651
 O130 O 0.49399 1.06750 -0.12899
 O131 O 0.50443 1.15411 -0.05539
 Zr132 Zr 0.49958 0.93397 -0.05771
 O133 O 0.49286 0.94213 -0.12990
 O134 O 0.50240 0.84887 -0.06580
 Zr135 Zr 0.58369 1.00031 -0.00020
 Zr136 Zr 0.41587 1.00031 -0.00006
 O137 O 0.45133 1.00117 -0.06576
 O138 O 0.54921 1.00114 -0.06651
 O139 O 0.45052 1.07855 0.00050
 O140 O 0.54759 0.92296 -0.00054
 O141 O 0.54802 1.07780 0.00048
 O142 O 0.45068 0.92215 -0.00047
 H143 H 0.42706 1.00019 0.09291
 H144 H 0.57113 0.89043 -0.00042
 H145 H 0.42720 1.00123 -0.09293
 H146 H 0.57200 1.10999 0.00040
 H147 H 0.47376 0.83353 0.03691
 H148 H 0.50854 0.83310 -0.03514
 H149 H 0.52841 0.95387 -0.14215
 H150 H 0.52536 1.04700 -0.14109
 H151 H 0.47709 1.16740 -0.03321
 H152 H 0.51828 1.16794 0.03759
 H153 H 0.49506 1.09375 0.14268
 H154 H 0.52292 0.95887 0.14088
 O155 O 1.07331 0.59679 0.58249
 O156 O 1.13694 0.54746 0.54272
 C157 C 1.12277 0.58338 0.57350
 O158 O 0.92607 0.39991 0.57864
 O159 O 0.86250 0.45126 0.54066
 C160 C 0.87662 0.41369 0.56995
 O161 O 1.07251 0.40488 0.58359
 O162 O 1.13654 0.45096 0.54148
 C163 C 1.12207 0.41598 0.57298
 O164 O 0.92666 0.60247 0.57701
 O165 O 0.86289 0.54894 0.54149
 C166 C 0.87719 0.58763 0.56968
 Zr167 Zr 0.99977 0.56673 0.55773
 O168 O 0.99375 0.55801 0.62990
 O169 O 1.00139 0.65183 0.56640
 Zr170 Zr 0.99953 0.43229 0.55619
 O171 O 0.99327 0.43171 0.62865
 O172 O 1.00471 0.34661 0.55438
 O173 O 1.04920 0.49938 0.56635
 O174 O 0.95136 0.49955 0.56561
 O175 O 0.92649 0.60187 0.42177
 O176 O 0.86278 0.54996 0.45908
 C177 C 0.87701 0.58807 0.43025
 O178 O 1.07302 0.40517 0.41630
 O179 O 1.13687 0.45182 0.45804
 C180 C 1.12252 0.41643 0.42683
 O181 O 0.92735 0.40047 0.41993
 O182 O 0.86328 0.44981 0.45923
 C183 C 0.87781 0.41234 0.42986
 O184 O 1.07274 0.59645 0.41673
 O185 O 1.13663 0.54984 0.45862
 C186 C 1.12225 0.58521 0.42735
 Zr187 Zr 0.99973 0.56855 0.44361
 O188 O 0.99329 0.56806 0.37115
 O189 O 1.00513 0.65423 0.44483
 Zr190 Zr 0.99984 0.43451 0.44182
 O191 O 0.99431 0.44341 0.36960
 O192 O 1.00055 0.34923 0.43427
 Zr193 Zr 1.08368 0.50029 0.50001
 Zr194 Zr 0.91594 0.50037 0.49990
 O195 O 0.95123 0.50154 0.43420
 O196 O 1.04959 0.50160 0.43354
 O197 O 0.95061 0.57866 0.50074
 O198 O 1.04765 0.42295 0.49907
 O199 O 1.04788 0.57782 0.50072
 O200 O 0.95068 0.42218 0.49888
 H201 H 0.92731 0.49950 0.59283
 H202 H 1.07138 0.39058 0.49920
 H203 H 0.92702 0.50171 0.40706
 H204 H 1.07160 0.61021 0.50070
 H205 H 0.97507 0.33308 0.53454
 H206 H 1.01360 0.33347 0.46335
 H207 H 1.03007 0.45503 0.35771
 H208 H 1.02448 0.54762 0.35866
 H209 H 0.97660 0.66792 0.46573
 H210 H 1.01323 0.66789 0.53705
 H211 H 1.02978 0.54744 0.64188
 H212 H 1.02275 0.45456 0.64110
 O213 O 0.90362 0.42736 -0.08315
 O214 O 0.95081 0.36352 -0.04184
 C215 C 0.91510 0.37790 -0.07283
 O216 O 1.09917 0.57297 -0.08047
 O217 O 1.05080 0.63676 -0.04006
 C218 C 1.08786 0.62237 -0.06990
 O219 O 1.09491 0.42745 -0.08381
 O220 O 1.04894 0.36365 -0.04144
 C221 C 1.08398 0.37801 -0.07298
 O222 O 0.89625 0.57330 -0.07591
 O223 O 0.95082 0.63695 -0.04143
 C224 C 0.91150 0.62267 -0.06908
 Zr225 Zr 0.93311 0.50049 -0.05771
 O226 O 0.94196 0.50748 -0.12983
 O227 O 0.84795 0.49795 -0.06652
 Zr228 Zr 1.06734 0.50032 -0.05661
 O229 O 1.06703 0.50612 -0.12911
 O230 O 1.15318 0.49535 -0.05506
 O231 O 1.00021 0.45068 -0.06641
 O232 O 1.00024 0.54891 -0.06568
 O233 O 0.89870 0.57368 0.07871
 O234 O 0.95036 0.63723 0.04097
 C235 C 0.91249 0.62307 0.07007
 O236 O 1.09506 0.42716 0.08348
 O237 O 1.04807 0.36341 0.04194
 C238 C 1.08348 0.37772 0.07315
 O239 O 1.10191 0.57336 0.07702
 O240 O 1.04825 0.63704 0.04162
 C241 C 1.08695 0.62275 0.06980
 O242 O 0.90241 0.42720 0.08247
 O243 O 0.95161 0.36363 0.04244
 C244 C 0.91573 0.37780 0.07331
 Zr245 Zr 0.93137 0.50035 0.05641
 O246 O 0.93221 0.50597 0.12890
 O247 O 0.84552 0.49559 0.05542
 Zr248 Zr 1.06598 0.50037 0.05780
 O249 O 1.05765 0.50701 0.12998
 O250 O 1.15119 0.49756 0.06607
 Zr251 Zr 0.99960 0.41653 0.00005
 Zr252 Zr 0.99972 0.58403 0.00010
 O253 O 0.99872 0.54860 0.06578
 O254 O 0.99865 0.45085 0.06642
 O255 O 0.92128 0.54947 -0.00063
 O256 O 1.07711 0.45248 0.00061
 O257 O 0.92201 0.45237 -0.00067
 O258 O 1.07799 0.54925 0.00063
 H259 H 1.00021 0.57322 -0.09272
 H260 H 1.10966 0.42894 0.00056
 H261 H 0.99867 0.57266 0.09297
 H262 H 0.88951 0.42877 -0.00054
 H263 H 1.16689 0.52595 -0.03642
 H264 H 1.16706 0.49090 0.03552
 H265 H 1.04585 0.47150 0.14219
 H266 H 0.95263 0.47458 0.14098
 H267 H 0.83192 0.52444 0.03483
 H268 H 0.83187 0.48821 -0.03663
 H269 H 0.95162 0.47148 -0.14235
 H270 H 1.04479 0.47605 -0.14133
 O271 O 0.40238 0.92728 0.41774
 O272 O 0.45166 0.86368 0.45764
 C273 C 0.41574 0.87788 0.42681
 O274 O 0.60212 1.07337 0.42331
 O275 O 0.54833 1.13704 0.45857
 C276 C 0.58710 1.12276 0.43044
 O277 O 0.59504 0.92720 0.41667
 O278 O 0.54811 0.86342 0.45822
 C279 C 0.58349 0.87776 0.42700
 O280 O 0.39886 1.07373 0.42143
 O281 O 0.45048 1.13727 0.45924
 C282 C 0.41267 1.12312 0.43008
 Zr283 Zr 0.43142 1.00039 0.44380
 O284 O 0.43221 1.00597 0.37131
 O285 O 0.34557 0.99570 0.44487
 Zr286 Zr 0.56603 1.00040 0.44239
 O287 O 0.55771 1.00713 0.37021
 O288 O 0.65122 0.99748 0.43405
 O289 O 0.49870 0.95089 0.43376
 O290 O 0.49878 1.04863 0.43442
 O291 O 0.39637 1.07326 0.57623
 O292 O 0.45084 1.13693 0.54166
 C293 C 0.41154 1.12264 0.56935
 O294 O 0.59513 0.92743 0.58390
 O295 O 0.54909 0.86364 0.54157
 C296 C 0.58420 0.87799 0.57307
 O297 O 0.59921 1.07294 0.58065
 O298 O 0.55090 1.13675 0.54022
 C299 C 0.58796 1.12234 0.57004
 O300 O 0.40373 0.92728 0.58333
 O301 O 0.45089 0.86348 0.54194
 C302 C 0.41519 0.87783 0.57295
 Zr303 Zr 0.43319 1.00046 0.55792
 O304 O 0.44205 1.00740 0.63004
 O305 O 0.34802 0.99791 0.56670
 Zr306 Zr 0.56740 1.00028 0.55680
 O307 O 0.56695 1.00603 0.62930
 O308 O 0.65324 0.99537 0.55531
 Zr309 Zr 0.49967 0.91653 0.50011
 Zr310 Zr 0.49978 1.08403 0.50011
 O311 O 0.50031 1.04890 0.56588
 O312 O 0.50028 0.95063 0.56658
 O313 O 0.42134 1.04948 0.50086
 O314 O 0.57717 0.95249 0.49954
 O315 O 0.42208 0.95237 0.50086
 O316 O 0.57804 1.04924 0.49957
 H317 H 0.49876 1.07270 0.40723
 H318 H 0.60974 0.92897 0.49956
 H319 H 0.50029 1.07320 0.59292
 H320 H 0.38957 0.92877 0.50073
 H321 H 0.66713 0.99112 0.46464
 H322 H 0.66695 1.02592 0.53661
 H323 H 0.54493 0.97578 0.64149
 H324 H 0.45172 0.97140 0.64254
 H325 H 0.33195 0.98832 0.53678
 H326 H 0.33199 1.02469 0.46534
 H327 H 0.45272 0.97463 0.35923
 H328 H 0.54593 0.97164 0.35797
 O329 O 0.90206 0.90561 0.43764
 O330 O 0.95176 0.95403 0.38508
 C331 C 0.91477 0.91913 0.39640
 O332 O 0.90926 1.10071 0.56256
 O333 O 0.95394 1.04761 0.61512
 C334 C 0.92072 1.08608 0.60380
 O335 O 0.90243 1.09421 0.43772
 O336 O 0.95355 1.04733 0.38509
 C337 C 0.91629 1.08188 0.39646
 O338 O 0.90893 0.89961 0.56249
 O339 O 0.95406 0.95215 0.61526
 C340 C 0.92016 0.91429 0.60381
 Zr341 Zr 0.93098 0.93361 0.50015
 O342 O 0.84554 0.94169 0.50562
 O343 O 0.92020 0.84869 0.49761
 Zr344 Zr 0.93331 1.06834 0.50016
 O345 O 0.84761 1.06876 0.50604
 O346 O 0.93311 1.15390 0.49441
 O347 O 0.92115 1.00109 0.45869
 O348 O 0.92186 1.00101 0.54064
 O349 O 1.09182 0.89925 0.56244
 O350 O 1.04652 0.95182 0.61500
 C351 C 1.08009 0.91358 0.60370
 O352 O 1.10001 1.09212 0.43764
 O353 O 1.04819 1.04592 0.38506
 C354 C 1.08569 1.08027 0.39639
 O355 O 1.09491 1.09734 0.56248
 O356 O 1.04562 1.04842 0.61504
 C357 C 1.08091 1.08504 0.60371
 O358 O 1.09821 0.90542 0.43774
 O359 O 1.04703 0.95231 0.38517
 C360 C 1.08443 0.91779 0.39648
 Zr361 Zr 1.06691 0.93119 0.50009
 O362 O 1.15261 0.93000 0.50584
 O363 O 1.06579 0.84555 0.49489
 Zr364 Zr 1.06930 1.06608 0.50012
 O365 O 1.15500 1.06268 0.50564
 O366 O 1.07274 1.15160 0.49491
 Zr367 Zr 1.00011 0.99987 0.43074
 Zr368 Zr 1.00012 0.99981 0.56938
 O369 O 1.07831 0.99853 0.54049
 O370 O 1.07904 0.99851 0.45870
 O371 O 0.99886 0.92119 0.54101
 O372 O 1.00141 1.07771 0.46018
 O373 O 0.99888 0.92194 0.46006
 O374 O 1.00146 1.07839 0.54108
 H375 H 0.89002 1.00121 0.56140
 H376 H 1.00173 1.11019 0.44020
 H377 H 1.11041 0.99825 0.56096
 H378 H 0.99882 0.88959 0.43993
 H379 H 0.95739 1.16846 0.51842
 H380 H 1.04851 1.16683 0.51865
 H381 H 1.16926 1.04406 0.47813
 H382 H 1.16764 0.95228 0.48068
 H383 H 1.04304 0.83140 0.52016
 H384 H 0.95660 0.83249 0.49420
 H385 H 0.83129 0.95353 0.47553
 H386 H 0.83270 1.04709 0.48045
 O387 O 0.40113 0.59261 0.06239
 O388 O 0.45291 0.54651 0.11502
 C389 C 0.41526 0.58063 0.10365
 O390 O 0.40711 0.40076 -0.06248
 O391 O 0.45328 0.45260 -0.11506
 C392 C 0.41896 0.41507 -0.10373
 O393 O 0.40169 0.40576 0.06224
 O394 O 0.45227 0.45327 0.11482
 C395 C 0.41482 0.41885 0.10348
 O396 O 0.40743 0.59890 -0.06245
 O397 O 0.45333 0.54689 -0.11503
 C398 C 0.41939 0.58471 -0.10370
 Zr399 Zr 0.43214 0.56698 -0.00010
 O400 O 0.34643 0.56558 -0.00595
 O401 O 0.43013 0.65252 0.00554
 Zr402 Zr 0.43289 0.43172 -0.00000
 O403 O 0.34716 0.43085 -0.00534
 O404 O 0.43383 0.34610 0.00548
 O405 O 0.42140 0.49939 0.04119
 O406 O 0.42217 0.49936 -0.04019
 O407 O 0.59374 0.59875 -0.06233
 O408 O 0.54676 0.54771 -0.11490
 C409 C 0.58085 0.58544 -0.10358
 O410 O 0.60003 0.40719 0.06234
 O411 O 0.54798 0.45318 0.11491
 C412 C 0.58585 0.41916 0.10360
 O413 O 0.59290 0.40045 -0.06258
 O414 O 0.54576 0.45138 -0.11526
 C415 C 0.58031 0.41402 -0.10388
 O416 O 0.59862 0.59358 0.06236
 O417 O 0.54717 0.54705 0.11497
 C418 C 0.58444 0.58163 0.10362
 Zr419 Zr 0.56805 0.56731 -0.00010
 O420 O 0.65380 0.56619 -0.00557
 O421 O 0.56911 0.65292 0.00516
 Zr422 Zr 0.56824 0.43227 -0.00003
 O423 O 0.65392 0.43268 -0.00606
 O424 O 0.56907 0.34672 0.00592
 Zr425 Zr 0.50021 0.49985 0.06933
 Zr426 Zr 0.50027 0.49977 -0.06938
 O427 O 0.57843 0.49977 -0.04041
 O428 O 0.57911 0.49991 0.04130
 O429 O 0.50008 0.57838 -0.04116
 O430 O 0.50059 0.42181 0.04025
 O431 O 0.50003 0.57768 0.03985
 O432 O 0.50054 0.42102 -0.04126
 H433 H 0.38979 0.49941 -0.06034
 H434 H 0.50070 0.38957 0.06051
 H435 H 0.61054 0.49967 -0.06088
 H436 H 0.49985 0.61019 0.05980
 H437 H 0.45443 0.33154 -0.02088
 H438 H 0.54596 0.33180 -0.01875
 H439 H 0.66866 0.45486 0.01928
 H440 H 0.66841 0.54654 0.02128
 H441 H 0.54588 0.66761 -0.01953
 H442 H 0.45463 0.66749 -0.01812
 H443 H 0.33179 0.54538 0.02060
 H444 H 0.33244 0.45368 0.01959
 C445 C 0.27820 1.11269 0.11448
 C446 C 0.29610 1.12083 0.16490
 C447 C 0.28914 1.18317 0.16048
 C448 C 0.27032 1.17508 0.11025
 C449 C 0.34846 1.18788 0.14427
 C450 C 0.35524 1.12631 0.14917
 C451 C 0.33740 1.11889 0.09876
 C452 C 0.33011 1.18054 0.09402
 H453 H 0.24909 1.08162 0.10218
 H454 H 0.28255 1.09490 0.19382
 H455 H 0.23372 1.19120 0.09324
 H456 H 0.37930 1.21712 0.15650
 H457 H 0.39004 1.10603 0.16620
 H458 H 0.34387 1.20556 0.06460
 C459 C 0.85390 0.62370 0.64993
 C460 C 0.84912 0.68554 0.64599
 C461 C 0.78919 0.68232 0.66086
 C462 C 0.79411 0.61972 0.66437
 C463 C 0.77167 0.67604 0.61012
 C464 C 0.83204 0.68002 0.59528
 C465 C 0.83735 0.61812 0.59907
 C466 C 0.77750 0.61336 0.61340
 H467 H 0.88765 0.60195 0.66718
 H468 H 0.88053 0.71345 0.65938
 H469 H 0.77883 0.59373 0.69262
 H470 H 0.73625 0.69388 0.59259
 H471 H 0.84750 0.70524 0.56660
 H472 H 0.74787 0.58348 0.59993
 C473 C 0.64545 0.82361 0.10898
 C474 C 0.70542 0.80627 0.10771
 C475 C 0.70914 0.81517 0.16017
 C476 C 0.64897 0.83290 0.16093
 C477 C 0.72601 0.87495 0.15156
 C478 C 0.72189 0.86628 0.09880
 C479 C 0.66188 0.88323 0.10067
 C480 C 0.66574 0.89216 0.15278
 H481 H 0.61213 0.80154 0.09144
 H482 H 0.71807 0.77189 0.08607
 H483 H 0.61676 0.81992 0.18515
 H484 H 0.75952 0.89670 0.16911
 H485 H 0.75230 0.88023 0.07335
 H486 H 0.64976 0.92773 0.17177
 C487 C 1.16441 0.39168 0.65299
 C488 C 1.14882 0.33197 0.66040
 C489 C 1.20940 0.31564 0.66042
 C490 C 1.22507 0.37587 0.65254
 C491 C 1.20698 0.30727 0.60783
 C492 C 1.14659 0.32322 0.60833
 C493 C 1.16184 0.38324 0.60076
 C494 C 1.22226 0.36773 0.59967
 H495 H 1.14720 0.42665 0.67200
 H496 H 1.11645 0.31802 0.68407
 H497 H 1.25770 0.39815 0.67079
 H498 H 1.22094 0.27343 0.58615
 H499 H 1.11412 0.30077 0.59001
 H500 H 1.25285 0.38267 0.57478
 C501 C 0.72296 1.11101 -0.11579
 C502 C 0.70746 1.11817 -0.16694
 C503 C 0.71156 1.18077 -0.16249
 C504 C 0.72795 1.17370 -0.11156
 C505 C 0.65125 1.18297 -0.14858
 C506 C 0.64726 1.12114 -0.15351
 C507 C 0.66268 1.11466 -0.10250
 C508 C 0.66723 1.17660 -0.09773
 H509 H 0.75263 1.08119 -0.10229
 H510 H 0.72374 1.09289 -0.19526
 H511 H 0.76259 1.19187 -0.09318
 H512 H 0.61990 1.21109 -0.16180
 H513 H 0.61424 1.09935 -0.17170
 H514 H 0.65078 1.20112 -0.06900
 C515 C 1.14668 0.67838 0.39238
 C516 C 1.20711 0.69434 0.39255
 C517 C 1.20908 0.68606 0.33994
 C518 C 1.14852 0.66975 0.34027
 C519 C 1.22481 0.62580 0.34770
 C520 C 1.22240 0.63383 0.40058
 C521 C 1.16197 0.61830 0.39978
 C522 C 1.16417 0.61002 0.34752
 H523 H 1.11436 0.70084 0.41088
 H524 H 1.22127 0.72826 0.41406
 H525 H 1.11604 0.68382 0.31676
 H526 H 1.25727 0.60345 0.32930
 H527 H 1.25319 0.61884 0.42526
 H528 H 1.14686 0.57509 0.32852
 C529 C 0.27777 0.88884 -0.11459
 C530 C 0.29534 0.88109 -0.16518
 C531 C 0.28871 0.81873 -0.16093
 C532 C 0.27020 0.82640 -0.11058
 C533 C 0.34818 0.81425 -0.14502
 C534 C 0.35464 0.87584 -0.14969
 C535 C 0.33712 0.88277 -0.09917
 C536 C 0.33010 0.82111 -0.09468
 H537 H 0.24863 0.91971 -0.10198
 H538 H 0.28144 0.90692 -0.19404
 H539 H 0.23369 0.81001 -0.09359
 H540 H 0.37928 0.78554 -0.15761
 H541 H 0.38932 0.89636 -0.16671
 H542 H 0.34421 0.79602 -0.06543
 C543 C 0.83688 0.38806 0.34999
 C544 C 0.85175 0.32819 0.34253
 C545 C 0.79096 0.31287 0.34148
 C546 C 0.77604 0.37328 0.34943
 C547 C 0.79205 0.30416 0.39408
 C548 C 0.85274 0.31913 0.39463
 C549 C 0.83819 0.37929 0.40225
 C550 C 0.77753 0.36482 0.40226
 H551 H 0.85504 0.42287 0.33139
 H552 H 0.88428 0.31382 0.31920
 H553 H 0.74424 0.39628 0.33078
 H554 H 0.77699 0.27049 0.41545
 H555 H 0.88443 0.29612 0.41342
 H556 H 0.74664 0.38004 0.42676
 C557 C 1.13156 0.27752 0.09992
 C558 C 1.19221 0.29254 0.10784
 C559 C 1.18407 0.29037 0.16047
 C560 C 1.12365 0.27496 0.15283
 C561 C 1.16799 0.35093 0.16032
 C562 C 1.17651 0.35292 0.10821
 C563 C 1.11629 0.33793 0.10087
 C564 C 1.10809 0.33560 0.15314
 H565 H 1.11636 0.24693 0.07517
 H566 H 1.22595 0.27843 0.08607
 H567 H 1.10126 0.24256 0.17124
 H568 H 1.18222 0.38328 0.18385
 H569 H 1.19906 0.38515 0.08972
 H570 H 1.07323 0.35301 0.17224
 C571 C 0.63404 0.77826 0.59879
 C572 C 0.69425 0.79440 0.60757
 C573 C 0.68545 0.79085 0.66006
 C574 C 0.62547 0.77432 0.65157
 C575 C 0.66803 0.85104 0.66074
 C576 C 0.67721 0.85439 0.60876
 C577 C 0.61739 0.83828 0.60059
 C578 C 0.60857 0.83459 0.65272
 H579 H 0.61984 0.74790 0.57342
 H580 H 0.72858 0.78149 0.58592
 H581 H 0.60354 0.74102 0.66920
 H582 H 0.68127 0.88316 0.68489
 H583 H 0.69945 0.88751 0.59112
 H584 H 0.57309 0.85078 0.67176
 C585 C 1.13582 0.72245 -0.09733
 C586 C 1.19640 0.70756 -0.10590
 C587 C 1.18729 0.70904 -0.15845
 C588 C 1.12697 0.72433 -0.15011
 C589 C 1.17151 0.64845 -0.15758
 C590 C 1.18096 0.64708 -0.10554
 C591 C 1.12086 0.66198 -0.09753
 C592 C 1.11171 0.66368 -0.14974
 H593 H 1.12099 0.75326 -0.07262
 H594 H 1.23037 0.72227 -0.08466
 H595 H 1.10403 0.75637 -0.16850
 H596 H 1.18548 0.61600 -0.18113
 H597 H 1.20396 0.61516 -0.08705
 H598 H 1.07658 0.64593 -0.16824
 C599 C 0.67908 1.17014 0.40559
 C600 C 0.68628 1.15191 0.35532
 C601 C 0.68136 1.21116 0.33919
 C602 C 0.67335 1.22984 0.38945
 C603 C 0.61898 1.20401 0.33480
 C604 C 0.62467 1.14493 0.35051
 C605 C 0.61742 1.16261 0.40096
 C606 C 0.61089 1.22175 0.38530
 H607 H 0.70424 1.15641 0.43494
 H608 H 0.71530 1.12100 0.34289
 H609 H 0.68934 1.26655 0.40633
 H610 H 0.59307 1.21752 0.30585
 H611 H 0.60448 1.11005 0.33356
 H612 H 0.57970 1.25064 0.39774
 C613 C 0.87631 0.64684 0.15022
 C614 C 0.88009 0.70663 0.16437
 C615 C 0.81739 0.71131 0.16081
 C616 C 0.81436 0.65138 0.14619
 C617 C 0.82368 0.72852 0.10999
 C618 C 0.88647 0.72292 0.11334
 C619 C 0.88193 0.66305 0.09927
 C620 C 0.81991 0.66814 0.09542
 H621 H 0.89818 0.61337 0.16770
 H622 H 0.90606 0.72215 0.19256
 H623 H 0.78633 0.62008 0.15959
 H624 H 0.80573 0.76369 0.09224
 H625 H 0.91631 0.75253 0.09976
 H626 H 0.79472 0.65245 0.06679
 C627 C 0.37339 1.14451 0.64906
 C628 C 0.37904 1.20355 0.66482
 C629 C 0.31661 1.21064 0.66050
 C630 C 0.31174 1.15143 0.64427
 C631 C 0.32464 1.22944 0.61026
 C632 C 0.38711 1.22144 0.61440
 C633 C 0.38073 1.16235 0.59866
 C634 C 0.31900 1.16975 0.59401
 H635 H 0.39364 1.10966 0.66600
 H636 H 0.40509 1.21701 0.69371
 H637 H 0.28246 1.12067 0.65658
 H638 H 0.30847 1.26602 0.59331
 H639 H 0.41826 1.25044 0.60205
 H640 H 0.29387 1.15608 0.56463
 C641 C 0.82160 0.35369 -0.10772
 C642 C 0.83020 0.35173 -0.15983
 C643 C 0.81376 0.29130 -0.16007
 C644 C 0.80551 0.29337 -0.10746
 C645 C 0.87409 0.27550 -0.15231
 C646 C 0.89000 0.33602 -0.15259
 C647 C 0.88176 0.33831 -0.10032
 C648 C 0.86609 0.27800 -0.09944
 H649 H 0.79914 0.38602 -0.08926
 H650 H 0.81611 0.38413 -0.18338
 H651 H 0.77149 0.27934 -0.08594
 H652 H 0.89643 0.24303 -0.17068
 H653 H 0.92500 0.35320 -0.17163
 H654 H 0.88106 0.24727 -0.07473
 C655 C 0.37820 0.85347 0.34690
 C656 C 0.38176 0.79352 0.33310
 C657 C 0.31912 0.78873 0.33768
 C658 C 0.31634 0.84881 0.35196
 C659 C 0.32656 0.77201 0.38849
 C660 C 0.38927 0.77768 0.38413
 C661 C 0.38504 0.83770 0.39782
 C662 C 0.32307 0.83250 0.40271
 H663 H 0.39960 0.88680 0.32883
 H664 H 0.40717 0.77778 0.30464
 H665 H 0.28781 0.87991 0.33897
 H666 H 0.30884 0.73703 0.40670
 H667 H 0.41948 0.74824 0.39738
 H668 H 0.29845 0.84842 0.43160
 C669 C 1.17712 1.10687 0.35917
 C670 C 1.17368 1.11448 0.30679
 C671 C 1.17835 1.17635 0.31405
 C672 C 1.18162 1.16862 0.36599
 C673 C 1.11593 1.18068 0.31630
 C674 C 1.11102 1.11851 0.30974
 C675 C 1.11523 1.11149 0.36173
 C676 C 1.11941 1.17314 0.36861
 H677 H 1.20190 1.07568 0.37691
 H678 H 1.19673 1.09024 0.28132
 H679 H 1.21048 1.18757 0.38997
 H680 H 1.09067 1.21173 0.29891
 H681 H 1.08168 1.09741 0.28707
 H682 H 1.09631 1.19719 0.39419
 C683 C 0.61584 0.67803 -0.13241
 C684 C 0.67804 0.67226 -0.13392
 C685 C 0.67620 0.67865 -0.18605
 C686 C 0.61379 0.68424 -0.18495
 C687 C 0.67047 0.61676 -0.19229
 C688 C 0.67246 0.61049 -0.13977
 C689 C 0.61056 0.61638 -0.13831
 C690 C 0.60786 0.62201 -0.19049
 H691 H 0.59243 0.70301 -0.10770
 H692 H 0.70703 0.69097 -0.10988
 H693 H 0.58951 0.71520 -0.20340
 H694 H 0.69371 0.59142 -0.21686
 H695 H 0.69617 0.57931 -0.12101
 H696 H 0.57859 0.60098 -0.21327
 C697 C 0.82864 1.12095 0.63150
 C698 C 0.82109 1.11786 0.68377
 C699 C 0.82580 1.18023 0.68571
 C700 C 0.83360 1.18303 0.63377
 C701 C 0.88768 1.17522 0.69309
 C702 C 0.88324 1.11262 0.69043
 C703 C 0.89030 1.11637 0.63842
 C704 C 0.89541 1.17818 0.64066
 H705 H 0.80444 1.09780 0.60606
 H706 H 0.78994 1.09271 0.70117
 H707 H 0.81499 1.21182 0.60959
 H708 H 0.91195 1.19836 0.71848
 H709 H 0.90414 1.08332 0.71325
 H710 H 0.92682 1.20256 0.62279
 C711 C 0.38059 0.67274 0.13182
 C712 C 0.31837 0.66784 0.13368
 C713 C 0.32071 0.67500 0.18571
 C714 C 0.38320 0.67967 0.18420
 C715 C 0.32561 0.61313 0.19260
 C716 C 0.32312 0.60604 0.14010
 C717 C 0.38503 0.61110 0.13829
 C718 C 0.38832 0.61751 0.19037
 H719 H 0.40406 0.69712 0.10673
 H720 H 0.28970 0.68670 0.10951
 H721 H 0.40824 0.71052 0.20205
 H722 H 0.30219 0.58861 0.21763
 H723 H 0.29885 0.57490 0.12181
 H724 H 0.41745 0.59637 0.21320
 C725 C 1.10552 0.82137 0.64098
 C726 C 1.16741 0.81647 0.63447
 C727 C 1.17483 0.81980 0.68646
 C728 C 1.11288 0.82480 0.69344
 C729 C 1.17951 0.88213 0.68410
 C730 C 1.17232 0.87857 0.63179
 C731 C 1.11058 0.88321 0.63839
 C732 C 1.11730 0.88738 0.69041
 H733 H 1.07428 0.79676 0.62313
 H734 H 1.18648 0.78736 0.61074
 H735 H 1.08846 0.80189 0.71888
 H736 H 1.21053 0.90742 0.70152
 H737 H 1.19671 0.90147 0.60632
 H738 H 1.09624 0.91685 0.71298
 C739 C 0.62075 0.32701 0.13187
 C740 C 0.68294 0.33192 0.13450
 C741 C 0.67966 0.32469 0.18651
 C742 C 0.61724 0.32000 0.18421
 C743 C 0.67466 0.38657 0.19335
 C744 C 0.67805 0.39373 0.14088
 C745 C 0.61613 0.38868 0.13834
 C746 C 0.61199 0.38215 0.19038
 H747 H 0.59779 0.30257 0.10647
 H748 H 0.71207 0.31283 0.11080
 H749 H 0.59196 0.28907 0.20174
 H750 H 0.69763 0.41104 0.21871
 H751 H 0.70269 0.42486 0.12293
 H752 H 0.58250 0.40325 0.21290
 C753 C 0.82234 0.88344 0.36806
 C754 C 0.81551 0.88596 0.31561
 C755 C 0.82151 0.82370 0.31403
 C756 C 0.82854 0.82139 0.36609
 C757 C 0.88339 0.82990 0.30733
 C758 C 0.87771 0.89238 0.30960
 C759 C 0.88398 0.88921 0.36170
 C760 C 0.89030 0.82746 0.35979
 H761 H 0.79742 0.90637 0.39312
 H762 H 0.78412 0.91020 0.29761
 H763 H 0.81027 0.79211 0.39009
 H764 H 0.90861 0.80711 0.28238
 H765 H 0.89831 0.92196 0.28684
 H766 H 0.92190 0.80379 0.37811
 C767 C 0.32623 0.38072 -0.13155
 C768 C 0.31871 0.38411 -0.18386
 C769 C 0.32349 0.32181 -0.18609
 C770 C 0.33122 0.31863 -0.13414
 C771 C 0.38541 0.32691 -0.19333
 C772 C 0.38092 0.38946 -0.19040
 C773 C 0.38793 0.38536 -0.13840
 C774 C 0.39303 0.32357 -0.14094
 H775 H 0.30200 0.40365 -0.10599
 H776 H 0.28746 0.40913 -0.20127
 H777 H 0.31249 0.28966 -0.11016
 H778 H 0.40984 0.30404 -0.21878
 H779 H 0.40184 0.41891 -0.21307
 H780 H 0.42443 0.29907 -0.12317
 C781 C 1.10807 0.33453 -0.15267
 C782 C 1.16747 0.35108 -0.16084
 C783 C 1.18501 0.29093 -0.16012
 C784 C 1.12510 0.27429 -0.15148
 C785 C 1.19397 0.29459 -0.10767
 C786 C 1.17681 0.35453 -0.10890
 C787 C 1.11705 0.33831 -0.10057
 C788 C 1.13382 0.27834 -0.09873
 H789 H 1.07249 0.35062 -0.17163
 H790 H 1.18057 0.38319 -0.18507
 H791 H 1.10319 0.24091 -0.16904
 H792 H 1.22837 0.28183 -0.08605
 H793 H 1.19902 0.38772 -0.09134
 H794 H 1.11976 0.24800 -0.07329
 C795 C 0.60779 0.83533 0.34705
 C796 C 0.66754 0.85104 0.33954
 C797 C 0.68405 0.79061 0.33959
 C798 C 0.62379 0.77480 0.34755
 C799 C 0.69250 0.79313 0.39216
 C800 C 0.67637 0.85338 0.39160
 C801 C 0.61630 0.83801 0.39927
 C802 C 0.63200 0.77772 0.40041
 H803 H 0.57269 0.85238 0.32805
 H804 H 0.68140 0.88336 0.31583
 H805 H 0.60153 0.74213 0.32936
 H806 H 0.72647 0.77940 0.41384
 H807 H 0.69882 0.88587 0.40986
 H808 H 0.61717 0.74718 0.42535
 C809 C 0.81913 0.67026 -0.09374
 C810 C 0.82517 0.72978 -0.11031
 C811 C 0.81688 0.71065 -0.16044
 C812 C 0.81162 0.65161 -0.14389
 C813 C 0.87924 0.70309 -0.16484
 C814 C 0.88757 0.72129 -0.11453
 C815 C 0.88078 0.66237 -0.09846
 C816 C 0.87320 0.64422 -0.14876
 H817 H 0.79395 0.65700 -0.06425
 H818 H 0.80943 0.76667 -0.09355
 H819 H 0.78217 0.62093 -0.15603
 H820 H 0.90533 0.71613 -0.19384
 H821 H 0.91896 0.75015 -0.10238
 H822 H 0.89314 0.60910 -0.16557
 C823 C 0.37686 1.14698 0.34982
 C824 C 0.31488 1.15127 0.35370
 C825 C 0.31772 1.21125 0.33918
 C826 C 0.38046 1.20682 0.33577
 C827 C 0.32376 1.22837 0.39004
 C828 C 0.32017 1.16795 0.40451
 C829 C 0.38222 1.16310 0.40081
 C830 C 0.38659 1.22301 0.38685
 H831 H 0.39893 1.11362 0.33236
 H832 H 0.28707 1.11986 0.34016
 H833 H 0.40644 1.22250 0.30766
 H834 H 0.30566 1.26344 0.40782
 H835 H 0.29493 1.15210 0.43304
 H836 H 0.41626 1.25271 0.40055
 C837 C 1.17905 0.66942 0.09484
 C838 C 1.17387 0.72933 0.11050
 C839 C 1.18136 0.71109 0.16093
 C840 C 1.18573 0.65161 0.14527
 C841 C 1.11888 0.70466 0.16510
 C842 C 1.11131 0.72197 0.11443
 C843 C 1.11728 0.66260 0.09925
 C844 C 1.12401 0.64535 0.14984
 H845 H 1.20421 0.65509 0.06570
 H846 H 1.19044 0.76562 0.09339
 H847 H 1.21439 0.62056 0.15802
 H848 H 1.09297 0.71878 0.19384
 H849 H 1.08051 0.75107 0.10164
 H850 H 1.10332 0.61086 0.16693
 C851 C 0.68082 1.14630 0.60626
 C852 C 0.69715 1.20653 0.60601
 C853 C 0.68747 1.20904 0.65844
 C854 C 0.67079 1.14868 0.65818
 C855 C 0.62748 1.22508 0.64946
 C856 C 0.63690 1.22217 0.59677
 C857 C 0.62102 1.16195 0.59759
 C858 C 0.61132 1.16465 0.64969
 H859 H 0.70361 1.11375 0.58838
 H860 H 0.73156 1.22034 0.58485
 H861 H 0.68400 1.11640 0.68220
 H862 H 0.60484 1.25777 0.66728
 H863 H 0.62280 1.25277 0.57158
 H864 H 0.57572 1.14773 0.66810
 C865 C 0.88847 0.27730 0.11519
 C866 C 0.88174 0.29245 0.16647
 C867 C 0.81900 0.28868 0.16232
 C868 C 0.82563 0.27265 0.11127
 C869 C 0.81698 0.34902 0.14873
 C870 C 0.87896 0.35268 0.15336
 C871 C 0.88501 0.33760 0.10224
 C872 C 0.82293 0.33340 0.09777
 H873 H 0.91808 0.24762 0.10139
 H874 H 0.90716 0.27585 0.19457
 H875 H 0.80707 0.23835 0.09276
 H876 H 0.78901 0.38032 0.16224
 H877 H 0.90108 0.38542 0.17160
 H878 H 0.79827 0.35016 0.06925
 C879 C 0.32180 0.85382 0.60807
 C880 C 0.30537 0.79360 0.60754
 C881 C 0.31386 0.79107 0.66010
 C882 C 0.33064 0.85142 0.66013
 C883 C 0.37407 0.77501 0.65205
 C884 C 0.36583 0.77796 0.59922
 C885 C 0.38185 0.83818 0.60039
 C886 C 0.39031 0.83544 0.65260
 H887 H 0.29941 0.88641 0.58988
 H888 H 0.27115 0.77991 0.58609
 H889 H 0.31687 0.88374 0.68389
 H890 H 0.39629 0.74226 0.67016
 H891 H 0.38052 0.74734 0.57428
 H892 H 0.42550 0.85229 0.67162
 C893 C 0.35318 1.12365 -0.15015
 C894 C 0.29330 1.11992 -0.16431
 C895 C 0.28868 1.18254 -0.16077
 C896 C 0.34869 1.18551 -0.14613
 C897 C 0.27140 1.17629 -0.10995
 C898 C 0.27696 1.11358 -0.11329
 C899 C 0.33691 1.11807 -0.09921
 C900 C 0.33187 1.18000 -0.09536
 H901 H 0.38669 1.10177 -0.16762
 H902 H 0.27776 1.09399 -0.19250
 H903 H 0.38008 1.21345 -0.15953
 H904 H 0.23618 1.19424 -0.09223
 H905 H 0.24727 1.08382 -0.09972
 H906 H 0.34759 1.20514 -0.06673
 C907 C 0.77767 0.61311 0.38581
 C908 C 0.77033 0.67557 0.38993
 C909 C 0.78878 0.68333 0.33955
 C910 C 0.79518 0.62092 0.33525
 C911 C 0.84826 0.68762 0.35538
 C912 C 0.83030 0.68061 0.40576
 C913 C 0.83707 0.61889 0.40114
 C914 C 0.85450 0.62599 0.35058
 H915 H 0.74842 0.58232 0.39839
 H916 H 0.73406 0.69207 0.40718
 H917 H 0.78115 0.59501 0.30648
 H918 H 0.87919 0.71667 0.34294
 H919 H 0.84453 0.70562 0.43502
 H920 H 0.88897 0.60539 0.33333
 C921 C 0.72205 1.13395 0.09941
 C922 C 0.70607 1.19423 0.10771
 C923 C 0.70889 1.18586 0.16027
 C924 C 0.72529 1.12582 0.15225
 C925 C 0.64855 1.16874 0.16052
 C926 C 0.64587 1.17746 0.10845
 C927 C 0.66185 1.11758 0.10079
 C928 C 0.66486 1.10923 0.15300
 H929 H 0.75270 1.11941 0.07441
 H930 H 0.71947 1.22840 0.08613
 H931 H 0.75830 1.10386 0.17028
 H932 H 0.61618 1.18234 0.18434
 H933 H 0.61302 1.19961 0.09036
 H934 H 0.64829 1.07403 0.17212
 C935 C 1.22330 0.61105 0.61551
 C936 C 1.22783 0.67379 0.61138
 C937 C 1.21156 0.68064 0.66236
 C938 C 1.20792 0.61800 0.66672
 C939 C 1.15119 0.68244 0.64860
 C940 C 1.16704 0.67627 0.59770
 C941 C 1.16296 0.61428 0.60237
 C942 C 1.14766 0.62057 0.65344
 H943 H 1.25316 0.58149 0.60190
 H944 H 1.26222 0.69231 0.59290
 H945 H 1.22448 0.59278 0.69495
 H946 H 1.11973 0.71039 0.66192
 H947 H 1.15032 0.70072 0.56904
 H948 H 1.11490 0.59853 0.67174
 C949 C 0.66426 0.89153 -0.15320
 C950 C 0.72504 0.87618 -0.15302
 C951 C 0.70975 0.81577 -0.16047
 C952 C 0.64906 0.83165 -0.16019
 C953 C 0.70782 0.80783 -0.10781
 C954 C 0.72271 0.86847 -0.10009
 C955 C 0.66217 0.88352 -0.10090
 C956 C 0.64730 0.82333 -0.10804
 H957 H 0.64664 0.92621 -0.17233
 H958 H 0.75734 0.89858 -0.17158
 H959 H 0.61663 0.81723 -0.18359
 H960 H 0.72214 0.77428 -0.08597
 H961 H 0.75339 0.88383 -0.07547
 H962 H 0.61516 0.80079 -0.08939
 C963 C 1.16613 0.39203 0.34725
 C964 C 1.22635 0.37467 0.34850
 C965 C 1.20933 0.31493 0.33989
 C966 C 1.14921 0.33281 0.33911
 C967 C 1.20556 0.30607 0.39235
 C968 C 1.22218 0.36604 0.40126
 C969 C 1.16222 0.38316 0.39936
 C970 C 1.14564 0.32356 0.39105
 H971 H 1.15026 0.42763 0.32824
 H972 H 1.25993 0.39633 0.33096
 H973 H 1.11700 0.31989 0.31487
 H974 H 1.21804 0.27164 0.41401
 H975 H 1.25263 0.37992 0.42671
 H976 H 1.11227 0.30153 0.40858
 C977 C 0.33591 0.88861 0.15001
 C978 C 0.27525 0.87303 0.15018
 C979 C 0.29085 0.81288 0.15856
 C980 C 0.35145 0.82899 0.15790
 C981 C 0.29265 0.80380 0.10602
 C982 C 0.27745 0.86421 0.09739
 C983 C 0.33792 0.87949 0.09782
 C984 C 0.35313 0.81955 0.10587
 H985 H 0.35340 0.92379 0.16858
 H986 H 0.24294 0.89575 0.16845
 H987 H 0.38393 0.81522 0.18154
 H988 H 0.27825 0.76980 0.08471
 H989 H 0.24663 0.87885 0.07258
 H990 H 0.38531 0.79674 0.08752
 C991 C 0.77674 0.38836 0.61381
 C992 C 0.77065 0.32573 0.61020
 C993 C 0.78834 0.31901 0.66086
 C994 C 0.79347 0.38154 0.66471
 C995 C 0.84820 0.31570 0.64581
 C996 C 0.83095 0.32164 0.59519
 C997 C 0.83653 0.38348 0.59929
 C998 C 0.85318 0.37747 0.65011
 H999 H 0.74717 0.41843 0.60055
 H1000 H 0.73497 0.30829 0.59273
 H1001 H 0.77838 0.40732 0.69318
 H1002 H 0.87960 0.28761 0.65893
 H1003 H 0.84622 0.29659 0.56633
 H1004 H 0.88700 0.39897 0.66749
 C1005 C 1.11613 1.17769 0.63203
 C1006 C 1.11356 1.18457 0.68450
 C1007 C 1.17591 1.17862 0.68611
 C1008 C 1.17827 1.17157 0.63406
 C1009 C 1.16974 1.11684 0.69286
 C1010 C 1.10718 1.12245 0.69053
 C1011 C 1.11042 1.11616 0.63843
 C1012 C 1.17226 1.10991 0.64042
 H1013 H 1.09314 1.20247 0.60691
 H1014 H 1.08927 1.21591 0.70248
 H1015 H 1.20756 1.18985 0.61006
 H1016 H 1.19255 1.09168 0.71783
 H1017 H 1.07753 1.10188 0.71327
 H1018 H 1.19600 1.07836 0.62213
 C1019 C 0.60999 0.61967 0.19027
 C1020 C 0.67261 0.61511 0.19322
 C1021 C 0.67780 0.67694 0.18599
 C1022 C 0.61541 0.68180 0.18375
 C1023 C 0.68101 0.66923 0.13405
 C1024 C 0.67598 0.60752 0.14083
 C1025 C 0.61412 0.61269 0.13827
 C1026 C 0.61884 0.67429 0.13142
 H1027 H 0.58045 0.59882 0.21292
 H1028 H 0.69547 0.59067 0.21867
 H1029 H 0.59039 0.71302 0.20115
 H1030 H 0.71009 0.68790 0.11010
 H1031 H 0.70050 0.57615 0.12306
 H1032 H 0.59592 0.69852 0.10586
 C1033 C 1.11132 0.88143 0.30964
 C1034 C 1.17398 0.88630 0.30699
 C1035 C 1.17939 0.82443 0.31357
 C1036 C 1.11697 0.81929 0.31555
 C1037 C 1.18223 0.83133 0.36563
 C1038 C 1.17693 0.89314 0.35951
 C1039 C 1.11501 0.88761 0.36173
 C1040 C 1.12005 0.82596 0.36794
 H1041 H 1.08182 0.90244 0.28707
 H1042 H 1.19698 0.91109 0.28187
 H1043 H 1.09196 0.78836 0.29775
 H1044 H 1.21144 0.81240 0.38937
 H1045 H 1.20120 0.92433 0.37774
 H1046 H 1.09704 0.80124 0.39310
 C1047 C 0.61680 0.38711 -0.19065
 C1048 C 0.67908 0.38221 -0.18470
 C1049 C 0.67466 0.31983 -0.18657
 C1050 C 0.61264 0.32449 -0.19320
 C1051 C 0.66774 0.31701 -0.13452
 C1052 C 0.67239 0.37915 -0.13233
 C1053 C 0.61057 0.38345 -0.13857
 C1054 C 0.60577 0.32157 -0.14067
 H1055 H 0.59541 0.41626 -0.21329
 H1056 H 0.70980 0.40750 -0.20250
 H1057 H 0.58812 0.30119 -0.21831
 H1058 H 0.68708 0.28815 -0.11074
 H1059 H 0.69692 0.40243 -0.10720
 H1060 H 0.57479 0.29702 -0.12243
 C1061 C 0.88126 1.17372 0.36788
 C1062 C 0.88341 1.18012 0.31544
 C1063 C 0.82091 1.17527 0.31434
 C1064 C 0.81904 1.16862 0.36643
 C1065 C 0.82593 1.11336 0.30783
 C1066 C 0.88865 1.11793 0.30965
 C1067 C 0.88585 1.11205 0.36180
 C1068 C 0.82392 1.10679 0.36039
 H1069 H 0.90493 1.19837 0.39265
 H1070 H 0.90827 1.21083 0.29722
 H1071 H 0.79044 1.18758 0.39062
 H1072 H 0.80234 1.08856 0.28311
 H1073 H 0.91767 1.09667 0.28679
 H1074 H 0.79991 1.07576 0.37905
 C1075 C 0.38282 0.61200 -0.19045
 C1076 C 0.32058 0.61718 -0.18433
 C1077 C 0.32533 0.67959 -0.18571
 C1078 C 0.38730 0.67463 -0.19255
 C1079 C 0.33241 0.68176 -0.13367
 C1080 C 0.32741 0.61964 -0.13195
 C1081 C 0.38914 0.61512 -0.13835
 C1082 C 0.39430 0.67695 -0.14003
 H1083 H 0.40399 0.58295 -0.21331
 H1084 H 0.28971 0.59222 -0.20226
 H1085 H 0.41190 0.69807 -0.21750
 H1086 H 0.31354 0.71036 -0.10946
 H1087 H 0.30292 0.59615 -0.10695
 H1088 H 0.42549 0.70108 -0.12164
 C1089 C 0.88211 0.88861 0.69039
 C1090 C 0.81986 0.88375 0.68388
 C1091 C 0.82417 0.82142 0.68604
 C1092 C 0.88614 0.82603 0.69326
 C1093 C 0.83186 0.81823 0.63408
 C1094 C 0.82737 0.88035 0.63155
 C1095 C 0.88911 0.88448 0.63839
 C1096 C 0.89373 0.82268 0.64086
 H1097 H 0.90329 0.91785 0.71309
 H1098 H 0.78880 0.90897 0.70131
 H1099 H 0.91041 0.80296 0.71869
 H1100 H 0.81277 0.78952 0.61008
 H1101 H 0.80330 0.90348 0.60601
 H1102 H 0.92495 0.79799 0.62306
 C1103 C 0.32220 0.38362 0.13209
 C1104 C 0.32816 0.32153 0.13385
 C1105 C 0.32147 0.32364 0.18594
 C1106 C 0.31570 0.38593 0.18459
 C1107 C 0.38341 0.32958 0.19239
 C1108 C 0.38998 0.32733 0.13990
 C1109 C 0.38389 0.38911 0.13819
 C1110 C 0.37797 0.39208 0.19034
 H1111 H 0.29725 0.40678 0.10720
 H1112 H 0.30963 0.29240 0.10986
 H1113 H 0.28453 0.41020 0.20282
 H1114 H 0.40871 0.30658 0.21715
 H1115 H 0.42138 0.30363 0.12136
 H1116 H 0.39882 0.42149 0.21309
   
