data_POSCAR
  _audit_creation_date              2014-09-24
  _audit_creation_method            'ToBaCCo'
  _symmetry_space_group_name_H-M    'P1'
  _symmetry_Int_Tables_number       1
  _symmetry_cell_setting            triclinic
  loop_
  _symmetry_equiv_pos_as_xyz
 x,y,z
_cell_length_a 25.4885
_cell_length_b 25.5599
_cell_length_c 25.5481
_cell_angle_alpha 103.402200
_cell_angle_beta 80.442200
_cell_angle_gamma 82.813400
loop_
  _atom_site_label
  _atom_site_type_symbol
  _atom_site_fract_x
  _atom_site_fract_y
  _atom_site_fract_z
C1 C 0.52221 0.47503 0.00385
 C2 C 0.48488 0.51287 -0.00518
 C3 C 0.42823 0.50504 -0.00370
 C4 C 0.49669 0.56702 -0.01026
 C5 C 0.57864 0.48363 0.00308
 C6 C 0.51027 0.42110 0.00984
 C7 C 0.40966 0.48820 -0.05251
 C8 C 0.35488 0.48634 -0.05096
 C9 C 0.31756 0.50218 -0.00060
 C10 C 0.33680 0.51766 0.04837
 C11 C 0.39166 0.51911 0.04672
 C12 C 0.49223 0.58345 -0.05832
 C13 C 0.49750 0.63664 -0.06093
 C14 C 0.50771 0.67402 -0.01570
 C15 C 0.51286 0.65739 0.03212
 C16 C 0.50698 0.60444 0.03494
 C17 C 0.59588 0.50358 0.05215
 C18 C 0.65012 0.50805 0.05128
 C19 C 0.68789 0.49200 0.00145
 C20 C 0.67037 0.47285 -0.04771
 C21 C 0.61607 0.46873 -0.04686
 C22 C 0.51735 0.40453 0.05726
 C23 C 0.51189 0.35163 0.06076
 C24 C 0.49929 0.31442 0.01684
 C25 C 0.49067 0.33141 -0.02993
 C26 C 0.49662 0.38416 -0.03365
 H27 H 0.43745 0.47722 -0.09182
 H28 H 0.34139 0.47370 -0.08928
 H29 H 0.30983 0.52935 0.08807
 H30 H 0.40551 0.53245 0.08471
 H31 H 0.48376 0.55546 -0.09349
 H32 H 0.49275 0.64895 -0.09792
 H33 H 0.50865 0.59323 0.07304
 H34 H 0.56749 0.51516 0.09110
 H35 H 0.66289 0.52301 0.08957
 H36 H 0.69853 0.46045 -0.08674
 H37 H 0.60333 0.45302 -0.08502
 H38 H 0.52795 0.43223 0.09129
 H39 H 0.51853 0.33970 0.09739
 H40 H 0.48116 0.30316 -0.06434
 H41 H 0.49239 0.39550 -0.07119
 H42 H 0.51954 0.68574 0.06802
 C43 C -0.00046 0.52755 0.52370
 C44 C 0.00006 0.48421 0.48099
 C45 C 0.00039 0.42843 0.48846
 C46 C 0.00052 0.48959 0.42432
 C47 C -0.00196 0.58392 0.51722
 C48 C 0.00030 0.52101 0.57973
 C49 C 0.04319 0.38679 0.45850
 C50 C 0.04302 0.33333 0.46250
 C51 C -0.00031 0.32059 0.49611
 C52 C -0.04312 0.36226 0.52629
 C53 C -0.04279 0.41595 0.52257
 C54 C 0.04067 0.51252 0.39724
 C55 C 0.04099 0.51589 0.34335
 C56 C 0.00160 0.49571 0.31563
 C57 C -0.03805 0.47227 0.34245
 C58 C -0.03857 0.46917 0.39632
 C59 C -0.04262 0.60837 0.49524
 C60 C -0.04363 0.66187 0.49044
 C61 C -0.00447 0.69181 0.50828
 C62 C 0.03564 0.66764 0.53085
 C63 C 0.03688 0.61416 0.53532
 C64 C -0.04194 0.54996 0.62322
 C65 C -0.04117 0.54609 0.67665
 C66 C 0.00220 0.51359 0.68752
 C67 C 0.04461 0.48467 0.64407
 C68 C 0.04371 0.48832 0.59043
 H69 H 0.07661 0.39573 0.43172
 H70 H 0.07635 0.30203 0.43843
 H71 H -0.07705 0.35300 0.55212
 H72 H -0.07656 0.44753 0.54533
 H73 H 0.07193 0.52737 0.41767
 H74 H 0.07230 0.53374 0.32336
 H75 H -0.06962 0.45093 0.41633
 H76 H -0.07371 0.58619 0.48220
 H77 H -0.07531 0.67986 0.47339
 H78 H 0.06596 0.69032 0.54511
 H79 H 0.06833 0.59622 0.55279
 H80 H -0.07554 0.57564 0.61569
 H81 H -0.07423 0.56915 0.70932
 H82 H 0.07855 0.45968 0.65183
 H83 H 0.07712 0.46639 0.55744
 H84 H -0.06856 0.45629 0.32154
 C85 C 0.51678 0.00008 0.47810
 C86 C 0.47668 -0.00143 0.51976
 C87 C 0.48672 -0.00073 0.57549
 C88 C 0.42027 -0.00359 0.51280
 C89 C 0.50758 0.00070 0.42231
 C90 C 0.57312 0.00031 0.48560
 C91 C 0.52073 -0.04373 0.58493
 C92 C 0.52571 -0.04426 0.63860
 C93 C 0.49679 -0.00185 0.68350
 C94 C 0.46360 0.04155 0.67359
 C95 C 0.45847 0.04189 0.62017
 C96 C 0.39473 -0.04496 0.52791
 C97 C 0.34073 -0.04631 0.52511
 C98 C 0.31122 -0.00615 0.50727
 C99 C 0.33677 0.03493 0.49146
 C100 C 0.39087 0.03651 0.49460
 C101 C 0.52460 0.04172 0.39871
 C102 C 0.51998 0.04132 0.34498
 C103 C 0.49839 -0.00014 0.31377
 C104 C 0.48087 -0.04105 0.33730
 C105 C 0.48572 -0.04082 0.39115
 C106 C 0.58725 0.04430 0.52150
 C107 C 0.64135 0.04505 0.52508
 C108 C 0.68187 0.00171 0.49304
 C109 C 0.66731 -0.04241 0.45753
 C110 C 0.61346 -0.04289 0.45371
 H111 H 0.54221 -0.07743 0.55096
 H112 H 0.55131 -0.07832 0.64517
 H113 H 0.44044 0.07482 0.70689
 H114 H 0.43178 0.07518 0.61362
 H115 H 0.41664 -0.07614 0.54227
 H116 H 0.32219 -0.07857 0.53733
 H117 H 0.40947 0.06940 0.48376
 H118 H 0.54196 0.07387 0.42186
 H119 H 0.53390 0.07306 0.32740
 H120 H 0.46445 -0.07374 0.31389
 H121 H 0.47345 -0.07353 0.40810
 H122 H 0.55659 0.07839 0.54579
 H123 H 0.65166 0.07971 0.55241
 H124 H 0.69731 -0.07619 0.43175
 H125 H 0.60317 -0.07691 0.42549
 H126 H 0.31448 0.06634 0.47772
 O127 O 0.45794 -0.00708 -0.07011
 O128 O 0.45436 0.00603 0.07672
 O129 O 0.45508 0.07360 0.01342
 O130 O 0.45999 -0.07482 -0.00732
 O131 O 0.54920 -0.08710 -0.02386
 O132 O 0.54425 0.06092 -0.00143
 O133 O 0.54358 -0.00706 0.06080
 O134 O 0.54709 -0.01857 -0.08651
 Cu135 Cu 0.44789 0.00065 0.00469
 Cu136 Cu 0.55502 -0.01424 -0.01451
 C137 C 0.50281 -0.01374 -0.10297
 C138 C 0.49835 0.00060 0.09349
 C139 C 0.49905 0.09227 0.00893
 C140 C 0.50546 -0.10587 -0.01785
 O141 O -0.07678 0.54446 1.01779
 O142 O 0.06876 0.54701 1.00834
 O143 O 0.00189 0.54839 0.94104
 O144 O -0.00994 0.54559 1.08536
 O145 O 0.00748 0.45538 1.06015
 O146 O 0.01827 0.45818 0.91521
 O147 O 0.08576 0.45681 0.98204
 O148 O -0.05948 0.45427 0.99245
 Cu149 Cu -0.00575 0.55545 1.01561
 Cu150 Cu 0.01471 0.44705 0.98493
 C151 C -0.09263 0.49880 1.00590
 C152 C 0.10175 0.50229 0.99450
 C153 C 0.01106 0.50396 0.90380
 C154 C -0.00213 0.50011 1.09714
 O155 O 0.00649 -0.07730 0.45657
 O156 O -0.00015 0.06698 0.45643
 O157 O 0.07563 -0.00990 0.45780
 O158 O -0.06900 -0.00027 0.45561
 O159 O -0.08875 0.02328 0.54644
 O160 O 0.05607 0.01326 0.54864
 O161 O -0.01929 0.09088 0.54726
 O162 O -0.01307 -0.05371 0.54742
 Cu163 Cu 0.00521 -0.00743 0.44743
 Cu164 Cu -0.01826 0.02097 0.55666
 C165 C -0.00283 -0.08989 0.50202
 C166 C -0.01010 0.10326 0.50169
 C167 C 0.09031 0.00035 0.50366
 C168 C -0.10326 0.01219 0.50054
 C169 C -0.17382 0.44476 0.98682
 C170 C -0.22157 0.46568 1.03663
 C171 C -0.25337 0.49394 1.00162
 C172 C -0.20608 0.47298 0.95178
 C173 C -0.23048 0.54654 1.02051
 C174 C -0.19798 0.51831 1.05550
 C175 C -0.15097 0.49732 1.00565
 C176 C -0.18260 0.52558 0.97066
 H177 H -0.15018 0.40275 0.97307
 H178 H -0.23805 0.44087 1.06375
 H179 H -0.20826 0.45413 0.90865
 H180 H -0.25430 0.58846 1.03421
 H181 H -0.19406 0.53688 1.09817
 H182 H -0.16595 0.55030 0.94351
 C183 C 0.19103 0.47305 1.02969
 C184 C 0.23939 0.45298 0.98046
 C185 C 0.26114 0.50308 0.99965
 C186 C 0.21691 0.52394 1.04824
 C187 C 0.23311 0.53231 0.96609
 C188 C 0.20755 0.48157 0.94537
 C189 C 0.16006 0.50296 0.99509
 C190 C 0.18463 0.55440 1.01492
 H191 H 0.17475 0.44796 1.05661
 H192 H 0.26428 0.41152 0.96670
 H193 H 0.22077 0.54180 1.09105
 H194 H 0.25273 0.55677 0.94032
 H195 H 0.20514 0.46383 0.90204
 H196 H 0.16323 0.59730 1.02938
 C197 C 0.00506 -0.19611 0.45108
 C198 C 0.04350 -0.22998 0.47666
 C199 C -0.00528 -0.25031 0.50478
 C200 C -0.04375 -0.21709 0.47920
 C201 C -0.01333 -0.20207 0.55589
 C202 C 0.03542 -0.18114 0.52779
 C203 C -0.00299 -0.14807 0.50228
 C204 C -0.05177 -0.16827 0.53032
 H205 H 0.01278 -0.19318 0.40789
 H206 H 0.08270 -0.25596 0.45447
 H207 H -0.07655 -0.23131 0.45896
 H208 H -0.02105 -0.20502 0.59908
 H209 H 0.06800 -0.16576 0.54770
 H210 H -0.09095 -0.14219 0.55245
 C211 C 0.03337 0.19318 0.52339
 C212 C 0.04294 0.21325 0.47050
 C213 C -0.00228 0.26264 0.49817
 C214 C -0.01179 0.24314 0.55109
 C215 C -0.04460 0.23054 0.47595
 C216 C 0.00062 0.18070 0.44824
 C217 C -0.00885 0.16119 0.50106
 C218 C -0.05412 0.21025 0.52882
 H219 H 0.06542 0.17713 0.54297
 H220 H 0.08344 0.21315 0.44648
 H221 H -0.01670 0.26938 0.59341
 H222 H -0.07665 0.24645 0.45629
 H223 H 0.00555 0.15467 0.40582
 H224 H -0.09406 0.20832 0.55274
 C225 C 0.52344 0.03220 -0.18577
 C226 C 0.55146 -0.01171 -0.23931
 C227 C 0.49926 -0.00447 -0.26170
 C228 C 0.47130 0.03952 -0.20871
 C229 C 0.47881 -0.04952 -0.23705
 C230 C 0.53094 -0.05674 -0.21378
 C231 C 0.50286 -0.01270 -0.16117
 C232 C 0.45084 -0.00553 -0.18369
 H233 H 0.54188 0.06580 -0.16407
 H234 H 0.59290 -0.01400 -0.26258
 H235 H 0.44666 0.07981 -0.20444
 H236 H 0.46024 -0.08313 -0.25852
 H237 H 0.55539 -0.09635 -0.21524
 H238 H 0.40929 -0.00321 -0.16065
 C239 C 0.52433 -0.04710 0.16998
 C240 C 0.54761 -0.00658 0.21131
 C241 C 0.49639 -0.00092 0.25513
 C242 C 0.47310 -0.04147 0.21434
 C243 C 0.46901 0.04740 0.23728
 C244 C 0.52027 0.04171 0.19284
 C245 C 0.49702 0.00121 0.15224
 C246 C 0.44573 0.00685 0.19586
 H247 H 0.54717 -0.08599 0.14164
 H248 H 0.58962 -0.01229 0.21810
 H249 H 0.45348 -0.07594 0.22252
 H250 H 0.44609 0.08628 0.26553
 H251 H 0.53964 0.07592 0.18346
 H252 H 0.40371 0.01255 0.18908
 C253 C 0.48601 -0.20721 -0.06058
 C254 C 0.53759 -0.24903 -0.06615
 C255 C 0.50918 -0.26775 -0.01734
 C256 C 0.45769 -0.22670 -0.01185
 C257 C 0.53057 -0.22517 0.02330
 C258 C 0.55893 -0.20582 -0.02547
 C259 C 0.50737 -0.16491 -0.01990
 C260 C 0.47907 -0.18368 0.02881
 H261 H 0.46770 -0.19924 -0.09508
 H262 H 0.56187 -0.27643 -0.10521
 H263 H 0.41596 -0.23576 -0.00606
 H264 H 0.54937 -0.23188 0.05791
 H265 H 0.60069 -0.19682 -0.03122
 H266 H 0.45490 -0.15621 0.06792
 C267 C 0.54797 0.17958 0.01532
 C268 C 0.53225 0.20804 -0.02839
 C269 C 0.49809 0.25593 0.01779
 C270 C 0.51382 0.22794 0.06164
 C271 C 0.44804 0.22805 0.01605
 C272 C 0.48222 0.17960 -0.03015
 C273 C 0.49795 0.15175 0.01362
 C274 C 0.46375 0.19932 0.05987
 H275 H 0.58921 0.15931 0.01500
 H276 H 0.56053 0.21192 -0.06479
 H277 H 0.52705 0.24713 0.09974
 H278 H 0.40688 0.24852 0.01637
 H279 H 0.46932 0.15906 -0.06801
 H280 H 0.43555 0.19512 0.09617
 C281 C -0.19183 -0.03042 0.52038
 C282 C -0.24068 0.01573 0.54846
 C283 C -0.26291 0.00383 0.49522
 C284 C -0.21461 -0.04243 0.46718
 C285 C -0.23231 0.04552 0.47412
 C286 C -0.20924 0.05740 0.52730
 C287 C -0.16130 0.01113 0.49916
 C288 C -0.18354 -0.00073 0.44607
 H289 H -0.17451 -0.06160 0.53950
 H290 H -0.26460 0.02227 0.59061
 H291 H -0.21504 -0.08420 0.44251
 H292 H -0.24944 0.07672 0.45493
 H293 H -0.20632 0.09846 0.55194
 H294 H -0.15970 -0.00731 0.40388
 C295 C 0.17236 0.00534 0.55704
 C296 C 0.21712 -0.04443 0.52758
 C297 C 0.25240 -0.00592 0.50640
 C298 C 0.20813 0.04377 0.53590
 C299 C 0.22876 -0.01331 0.45404
 C300 C 0.19287 -0.05179 0.47519
 C301 C 0.14883 -0.00212 0.50469
 C302 C 0.18384 0.03638 0.48353
 H303 H 0.14872 0.01308 0.59950
 H304 H 0.22975 -0.07801 0.54602
 H305 H 0.21486 0.08313 0.56094
 H306 H 0.25252 -0.02103 0.41165
 H307 H 0.18595 -0.09109 0.45019
 H308 H 0.16943 0.06970 0.46549
 C309 C 0.04699 0.47298 1.17346
 C310 C 0.03979 0.52416 1.22198
 C311 C 0.00153 0.49803 1.25749
 C312 C 0.00875 0.44682 1.20954
 C313 C -0.04755 0.52447 1.23916
 C314 C -0.00929 0.55061 1.20308
 C315 C -0.00206 0.49937 1.15526
 C316 C -0.04030 0.47326 1.19053
 H317 H 0.08586 0.45170 1.14573
 H318 H 0.07299 0.54537 1.23416
 H319 H 0.01637 0.40406 1.21272
 H320 H -0.08643 0.54582 1.26680
 H321 H -0.01691 0.59342 1.20004
 H322 H -0.07325 0.45240 1.17701
 C323 C 0.00288 0.55894 0.82764
 C324 C 0.04756 0.53213 0.77592
 C325 C 0.00429 0.51075 0.74523
 C326 C -0.04037 0.53754 0.79650
 C327 C 0.01204 0.45754 0.76363
 C328 C 0.05531 0.47894 0.79512
 C329 C 0.01059 0.50583 0.84603
 C330 C -0.03257 0.48434 0.81542
 H331 H -0.00070 0.60076 0.85430
 H332 H 0.08048 0.55195 0.75914
 H333 H -0.08030 0.56169 0.79850
 H334 H 0.01560 0.41581 0.73678
 H335 H 0.09467 0.45489 0.79522
 H336 H -0.06552 0.46461 0.83232
   
