data_POSCAR
  _audit_creation_date              2014-09-24
  _audit_creation_method            'ToBaCCo'
  _symmetry_space_group_name_H-M    'P1'
  _symmetry_Int_Tables_number       1
  _symmetry_cell_setting            triclinic
  loop_
  _symmetry_equiv_pos_as_xyz
 x,y,z
_cell_length_a 16.3131
_cell_length_b 16.3132
_cell_length_c 42.5800
_cell_angle_alpha 89.785300
_cell_angle_beta 90.223900
_cell_angle_gamma 119.820100
loop_
  _atom_site_label
  _atom_site_type_symbol
  _atom_site_fract_x
  _atom_site_fract_y
  _atom_site_fract_z
C1 C 0.00253 0.00051 0.50017
 C2 C 1.00037 0.00263 0.16649
 C3 C -0.00205 0.99809 0.83332
 O4 O 0.61065 0.06648 -0.03146
 O5 O 0.44994 0.06660 0.02975
 O6 O 0.62326 0.09146 0.02872
 O7 O 0.46472 0.09064 -0.03186
 O8 O 0.38417 -0.06508 -0.03120
 O9 O 0.54608 -0.06433 0.03016
 O10 O 0.37604 -0.08911 0.03038
 O11 O 0.53324 -0.08930 -0.03003
 Cu12 Cu 0.54321 0.09287 -0.00095
 Cu13 Cu 0.45199 -0.09106 -0.00045
 C14 C 0.59921 -0.01265 -0.04103
 C15 C 0.38498 -0.01223 0.04049
 C16 C 0.61329 0.01489 0.03978
 C17 C 0.39715 0.01365 -0.04197
 O18 O 0.06521 0.61077 0.69812
 O19 O 0.06653 0.45065 0.63692
 O20 O 0.09133 0.62073 0.63667
 O21 O 0.08948 0.46172 0.69724
 O22 O -0.06634 0.38430 0.69786
 O23 O -0.06439 0.54679 0.63649
 O24 O -0.08929 0.37347 0.63755
 O25 O -0.09053 0.53019 0.69796
 Cu26 Cu 0.09223 0.54384 0.66759
 Cu27 Cu -0.09169 0.45263 0.66713
 C28 C -0.01389 0.59747 0.70843
 C29 C -0.01237 0.38375 0.62692
 C30 C 0.01479 0.61208 0.62613
 C31 C 0.01246 0.39544 0.70787
 O32 O 0.54645 0.61753 0.30268
 O33 O 0.38588 0.45618 0.36398
 O34 O 0.53695 0.62355 0.36366
 O35 O 0.37907 0.46644 0.30300
 O36 O 0.45544 0.38661 0.30268
 O37 O 0.61681 0.54719 0.36398
 O38 O 0.46574 0.37983 0.36366
 O39 O 0.62279 0.53766 0.30302
 Cu40 Cu 0.45450 0.54851 0.33333
 Cu41 Cu 0.54777 0.45523 0.33334
 C42 C 0.61272 0.60481 0.29250
 C43 C 0.39874 0.38979 0.37418
 C44 C 0.60411 0.61347 0.37417
 C45 C 0.38904 0.39945 0.29248
 C46 C -0.02172 0.18470 0.55922
 C47 C 0.06532 0.26005 0.56897
 C48 C 0.06866 0.32558 0.59074
 C49 C -0.01726 0.06096 0.52042
 C50 C -0.10250 0.24107 0.59283
 C51 C -0.10564 0.17555 0.57108
 C52 C -0.02331 0.11581 0.53785
 C53 C -0.01524 0.31651 0.60307
 H54 H 0.13077 0.26760 0.55997
 H55 H 0.13684 0.38272 0.59811
 H56 H -0.16847 0.23202 0.60187
 H57 H -0.17332 0.11740 0.56377
 C58 C 0.81297 0.79453 0.22504
 C59 C 0.82037 0.71804 0.23645
 C60 C 0.75428 0.65559 0.25805
 C61 C 0.93854 0.92259 0.18662
 C62 C 0.67249 0.74547 0.25667
 C63 C 0.73863 0.80776 0.23504
 C64 C 0.88271 0.86183 0.20388
 C65 C 0.67996 0.66901 0.26860
 H66 H 0.87768 0.70725 0.22894
 H67 H 0.76212 0.59741 0.26677
 H68 H 0.61627 0.75777 0.26430
 H69 H 0.73242 0.86699 0.22637
 C70 C 0.20517 0.02205 -0.10948
 C71 C 0.19314 -0.06487 -0.09914
 C72 C 0.25629 -0.06792 -0.07754
 C73 C 0.07463 0.01670 -0.14772
 C74 C 0.34485 0.10332 -0.07688
 C75 C 0.28145 0.10616 -0.09847
 C76 C 0.13667 0.02333 -0.13056
 C77 C 0.33250 0.01618 -0.06597
 H78 H 0.13410 -0.13046 -0.10750
 H79 H 0.24479 -0.13600 -0.06963
 H80 H 0.40280 0.16942 -0.06843
 H81 H 0.29131 0.17377 -0.10626
 C82 C 0.02621 0.81330 0.55843
 C83 C 0.10981 0.82035 0.56996
 C84 C 0.10600 0.75386 0.59161
 C85 C 0.02256 0.93921 0.52013
 C86 C -0.06519 0.67248 0.59000
 C87 C -0.06117 0.73893 0.56833
 C88 C 0.02844 0.88343 0.53731
 C89 C 0.01838 0.67960 0.60208
 H90 H 0.17777 0.87771 0.56252
 H91 H 0.17172 0.76141 0.60046
 H92 H -0.13362 0.61630 0.59756
 H93 H -0.12638 0.73299 0.55957
 C94 C 0.18817 0.21061 0.22494
 C95 C 0.26277 0.19743 0.23493
 C96 C 0.32910 0.25944 0.25658
 C97 C 0.06226 0.08275 0.18654
 C98 C 0.24697 0.34895 0.25803
 C99 C 0.18069 0.28677 0.23639
 C100 C 0.11822 0.14348 0.20378
 C101 C 0.32155 0.33557 0.26856
 H102 H 0.26904 0.13845 0.22623
 H103 H 0.38552 0.24718 0.26419
 H104 H 0.23907 0.40688 0.26678
 H105 H 0.12316 0.29750 0.22890
 C106 C 0.78925 -0.02373 -0.10819
 C107 C 0.71490 -0.10733 -0.09605
 C108 C 0.65234 -0.10364 -0.07450
 C109 C 0.91777 -0.02056 -0.14654
 C110 C 0.73791 0.06745 -0.07739
 C111 C 0.80027 0.06354 -0.09896
 C112 C 0.85678 -0.02592 -0.12930
 C113 C 0.66356 -0.01612 -0.06475
 H114 H 0.70586 -0.17520 -0.10295
 H115 H 0.59581 -0.16936 -0.06521
 H116 H 0.74849 0.13581 -0.07040
 H117 H 0.85784 0.12876 -0.10819
 C118 C 0.18588 -0.02168 0.10816
 C119 C 0.17873 -0.10558 0.09713
 C120 C 0.24451 -0.10238 0.07548
 C121 C 0.06123 -0.01734 0.14652
 C122 C 0.32542 0.06883 0.07608
 C123 C 0.25966 0.06543 0.09775
 C124 C 0.11650 -0.02341 0.12931
 C125 C 0.31819 -0.01508 0.06451
 H126 H 0.12183 -0.17333 0.10497
 H127 H 0.23689 -0.16835 0.06703
 H128 H 0.38116 0.13704 0.06813
 H129 H 0.26568 0.13086 0.10611
 C130 C 0.79397 0.81363 0.44164
 C131 C 0.80702 0.73916 0.43167
 C132 C 0.74468 0.67306 0.41003
 C133 C 0.92227 0.93900 0.48007
 C134 C 0.65510 0.75515 0.40859
 C135 C 0.71761 0.82121 0.43020
 C136 C 0.86136 0.88331 0.46280
 C137 C 0.66834 0.68070 0.39807
 H138 H 0.86614 0.73281 0.44036
 H139 H 0.75684 0.61673 0.40243
 H140 H 0.59702 0.76312 0.39985
 H141 H 0.70696 0.87863 0.43770
 C142 C 0.02096 0.20356 0.77542
 C143 C -0.06593 0.19297 0.76570
 C144 C -0.06899 0.25590 0.74400
 C145 C 0.01592 0.07404 0.81409
 C146 C 0.10218 0.34117 0.74193
 C147 C 0.10503 0.27802 0.76362
 C148 C 0.02224 0.13551 0.79671
 C149 C 0.01505 0.33041 0.73171
 H150 H -0.13149 0.13532 0.77467
 H151 H -0.13706 0.24567 0.73664
 H152 H 0.16824 0.39780 0.73292
 H153 H 0.17261 0.28673 0.77091
 C154 C 0.81446 0.02623 0.10752
 C155 C 0.82344 0.10980 0.09518
 C156 C 0.75721 0.10605 0.07342
 C157 C 0.93947 0.02247 0.14625
 C158 C 0.67235 -0.06502 0.07649
 C159 C 0.73857 -0.06105 0.09827
 C160 C 0.88409 0.02833 0.12885
 C161 C 0.68125 0.01850 0.06366
 H162 H 0.88201 0.17767 0.10210
 H163 H 0.76614 0.17173 0.06398
 H164 H 0.61482 -0.13339 0.06950
 H165 H 0.73115 -0.12625 0.10765
 C166 C 0.21005 0.18884 0.44171
 C167 C 0.28633 0.18153 0.43028
 C168 C 0.34846 0.24784 0.40866
 C169 C 0.08243 0.06272 0.48011
 C170 C 0.25865 0.32967 0.41004
 C171 C 0.19669 0.26330 0.43169
 C172 C 0.14301 0.11882 0.46286
 C173 C 0.33490 0.32229 0.39810
 H174 H 0.29721 0.12412 0.43780
 H175 H 0.40649 0.24008 0.39994
 H176 H 0.24625 0.38598 0.40241
 H177 H 0.13760 0.26943 0.44037
 C178 C -0.02489 0.78759 0.77557
 C179 C 0.06244 0.80008 0.76571
 C180 C 0.06634 0.73750 0.74424
 C181 C -0.02141 0.91713 0.81349
 C182 C -0.10486 0.64859 0.74277
 C183 C -0.10854 0.71140 0.76422
 C184 C -0.02708 0.85556 0.79646
 C185 C -0.01731 0.66143 0.73233
 H186 H 0.12769 0.85905 0.77433
 H187 H 0.13472 0.74937 0.73670
 H188 H -0.17063 0.59072 0.73405
 H189 H -0.17647 0.70119 0.77163
   
