data_POSCAR
  _audit_creation_date              2014-09-24
  _audit_creation_method            'ToBaCCo'
  _symmetry_space_group_name_H-M    'P1'
  _symmetry_Int_Tables_number       1
  _symmetry_cell_setting            triclinic
  loop_
  _symmetry_equiv_pos_as_xyz
 x,y,z
_cell_length_a 42.5054
_cell_length_b 42.4154
_cell_length_c 18.6464
_cell_angle_alpha 89.915000
_cell_angle_beta 90.084800
_cell_angle_gamma 120.003000
loop_
  _atom_site_label
  _atom_site_type_symbol
  _atom_site_fract_x
  _atom_site_fract_y
  _atom_site_fract_z
C1 C 0.48450 0.96740 0.53912
 C2 C 0.48298 0.96746 0.46361
 C3 C 0.49882 1.00064 0.42651
 C4 C 0.51616 1.03383 0.46356
 C5 C 0.51767 1.03379 0.53923
 C6 C 0.50181 1.00056 0.57630
 H7 H 0.50291 1.00050 0.63451
 H8 H 0.49764 1.00054 0.36833
 C9 C 0.03251 0.51689 0.53578
 C10 C 0.03247 0.51526 0.46038
 C11 C -0.00062 0.49793 0.42322
 C12 C -0.03372 0.48215 0.46035
 C13 C -0.03366 0.48380 0.53588
 C14 C -0.00054 0.50114 0.57294
 H15 H -0.00048 0.50236 0.63106
 H16 H -0.00053 0.49678 0.36506
 C17 C 0.48268 0.51579 0.54065
 C18 C 0.48426 0.51734 0.46513
 C19 C 0.50156 0.50151 0.42819
 C20 C 0.51734 0.48416 0.46540
 C21 C 0.51577 0.48258 0.54092
 C22 C 0.49846 0.49842 0.57795
 H23 H 0.49729 0.49726 0.63615
 H24 H 0.50273 0.50266 0.37005
 O25 O 0.38828 0.65841 -0.06077
 O26 O 0.38671 0.71836 -0.08400
 C27 C 0.36997 0.73550 -0.09672
 O28 O 0.34220 0.73020 -0.06121
 O29 O 0.28239 0.66868 -0.08436
 C30 C 0.26531 0.63477 -0.09695
 O31 O 0.27057 0.61223 -0.06125
 O32 O 0.33197 0.61379 -0.08387
 C33 C 0.36582 0.63059 -0.09636
 O34 O 0.38666 0.66869 0.08155
 O35 O 0.38818 0.73018 0.05835
 C36 C 0.36567 0.73540 0.09391
 O37 O 0.33184 0.71827 0.08114
 O38 O 0.27047 0.65832 0.05797
 C39 C 0.26520 0.63051 0.09366
 O40 O 0.28232 0.61375 0.08120
 O41 O 0.34218 0.61224 0.05858
 C42 C 0.36989 0.63479 0.09428
 Cr43 Cr 0.38545 0.69291 -0.00123
 Cr44 Cr 0.30773 0.69287 -0.00161
 Cr45 Cr 0.30776 0.61501 -0.00134
 O46 O 0.33365 0.66693 -0.00140
 O47 O 0.61337 0.33138 -0.08180
 O48 O 0.61177 0.26984 -0.05875
 C49 C 0.63423 0.26455 -0.09434
 O50 O 0.66807 0.28163 -0.08169
 O51 O 0.72948 0.34157 -0.05885
 C52 C 0.73471 0.36937 -0.09456
 O53 O 0.71767 0.38619 -0.08192
 O54 O 0.65789 0.38781 -0.05881
 C55 C 0.63012 0.36530 -0.09442
 O56 O 0.61194 0.34168 0.06058
 O57 O 0.61342 0.28169 0.08362
 C58 C 0.63017 0.26456 0.09635
 O59 O 0.65788 0.26980 0.06073
 O60 O 0.71776 0.33128 0.08357
 C61 C 0.73490 0.36520 0.09609
 O62 O 0.72964 0.38774 0.06042
 O63 O 0.66830 0.38622 0.08353
 C64 C 0.63447 0.36945 0.09622
 Cr65 Cr 0.61462 0.30715 0.00091
 Cr66 Cr 0.69230 0.30708 0.00094
 Cr67 Cr 0.69237 0.38498 0.00081
 O68 O 0.66643 0.33307 0.00089
 C69 C 0.37969 0.81088 -0.22048
 C70 C 0.41211 0.82008 -0.25610
 C71 C 0.43011 0.80072 -0.24171
 C72 C 0.41606 0.77265 -0.19094
 C73 C 0.46932 0.93571 -0.42248
 C74 C 0.36562 0.78289 -0.16971
 C75 C 0.42766 0.85056 -0.30467
 C76 C 0.44071 0.87679 -0.34356
 C77 C 0.45607 0.90825 -0.38705
 C78 C 0.38385 0.76368 -0.15370
 H79 H 0.36558 0.82575 -0.23107
 H80 H 0.45530 0.80771 -0.26883
 H81 H 0.43078 0.75843 -0.17997
 H82 H 0.34073 0.77669 -0.14227
 C83 C 0.19018 0.56917 -0.22074
 C84 C 0.18105 0.59247 -0.25664
 C85 C 0.20038 0.62987 -0.24241
 C86 C 0.22835 0.64385 -0.19153
 C87 C 0.06590 0.53431 -0.42360
 C88 C 0.21807 0.58304 -0.16987
 C89 C 0.15070 0.57760 -0.30534
 C90 C 0.12458 0.56449 -0.34436
 C91 C 0.09325 0.54846 -0.38801
 C92 C 0.23724 0.62051 -0.15403
 H93 H 0.17533 0.54016 -0.23121
 H94 H 0.19345 0.64814 -0.26975
 H95 H 0.24254 0.67281 -0.18070
 H96 H 0.22421 0.56429 -0.14222
 C97 C 0.37080 0.57036 -0.24116
 C98 C 0.40813 0.58837 -0.25525
 C99 C 0.43136 0.62083 -0.21949
 C100 C 0.41749 0.63493 -0.16889
 C101 C 0.46624 0.53099 -0.42106
 C102 C 0.35681 0.58444 -0.19055
 C103 C 0.42299 0.57278 -0.30365
 C104 C 0.43609 0.55969 -0.34241
 C105 C 0.45210 0.54428 -0.38575
 C106 C 0.38009 0.61669 -0.15318
 H107 H 0.35258 0.54514 -0.26840
 H108 H 0.46032 0.63494 -0.22985
 H109 H 0.43619 0.65984 -0.14132
 H110 H 0.32791 0.56971 -0.17982
 C111 C 0.62932 0.19973 -0.23996
 C112 C 0.59199 0.18034 -0.25423
 C113 C 0.56872 0.18937 -0.21823
 C114 C 0.58256 0.21722 -0.16725
 C115 C 0.53407 0.06537 -0.42197
 C116 C 0.64327 0.22766 -0.18898
 C117 C 0.57717 0.15005 -0.30313
 C118 C 0.56411 0.12397 -0.34233
 C119 C 0.54817 0.09269 -0.38621
 C120 C 0.61997 0.23646 -0.15140
 H121 H 0.64756 0.19288 -0.26739
 H122 H 0.53977 0.17447 -0.22872
 H123 H 0.56385 0.22329 -0.13954
 H124 H 0.67217 0.24190 -0.17816
 C125 C 0.80953 0.37884 -0.21874
 C126 C 0.81856 0.41121 -0.25480
 C127 C 0.79930 0.42929 -0.24046
 C128 C 0.77149 0.41536 -0.18936
 C129 C 0.93307 0.46789 -0.42310
 C130 C 0.78180 0.36487 -0.16764
 C131 C 0.84874 0.42663 -0.30383
 C132 C 0.87470 0.43956 -0.34317
 C133 C 0.90586 0.45478 -0.38720
 C134 C 0.76269 0.38317 -0.15173
 H135 H 0.82433 0.36467 -0.22928
 H136 H 0.80616 0.45445 -0.26793
 H137 H 0.75733 0.43012 -0.17849
 H138 H 0.77572 0.34001 -0.13989
 C139 C 0.56999 0.37031 -0.23956
 C140 C 0.58800 0.40772 -0.25385
 C141 C 0.62041 0.43099 -0.21807
 C142 C 0.63447 0.41708 -0.16729
 C143 C 0.53090 0.46607 -0.42054
 C144 C 0.58403 0.35629 -0.18877
 C145 C 0.57247 0.42263 -0.30247
 C146 C 0.55944 0.43579 -0.34143
 C147 C 0.54411 0.45186 -0.38501
 C148 C 0.61624 0.37960 -0.15139
 H149 H 0.54481 0.35207 -0.26681
 H150 H 0.63452 0.46001 -0.22858
 H151 H 0.65935 0.43581 -0.13973
 H152 H 0.56931 0.32733 -0.17790
 C153 C 0.81020 0.43079 0.21959
 C154 C 0.81932 0.40748 0.25545
 C155 C 0.79995 0.37008 0.24127
 C156 C 0.77193 0.35610 0.19050
 C157 C 0.93466 0.46568 0.42192
 C158 C 0.78226 0.41693 0.16883
 C159 C 0.84972 0.42234 0.30404
 C160 C 0.87588 0.43546 0.34296
 C161 C 0.90726 0.45150 0.38647
 C162 C 0.76305 0.37945 0.15304
 H163 H 0.82508 0.45981 0.23002
 H164 H 0.80688 0.35180 0.26857
 H165 H 0.75771 0.32714 0.17971
 H166 H 0.77612 0.43569 0.14121
 C167 C 0.62055 0.18938 0.22058
 C168 C 0.58830 0.18041 0.25664
 C169 C 0.57036 0.19984 0.24228
 C170 C 0.58431 0.22775 0.19116
 C171 C 0.53132 0.06543 0.42474
 C172 C 0.63453 0.21721 0.16947
 C173 C 0.57285 0.15013 0.30566
 C174 C 0.55986 0.12406 0.34497
 C175 C 0.54454 0.09277 0.38893
 C176 C 0.61636 0.23648 0.15353
 H177 H 0.63461 0.17445 0.23114
 H178 H 0.54530 0.19303 0.26974
 H179 H 0.56965 0.24202 0.18027
 H180 H 0.65929 0.22323 0.14172
 C181 C 0.62980 0.42940 0.24201
 C182 C 0.59249 0.41136 0.25642
 C183 C 0.56918 0.37901 0.22044
 C184 C 0.58294 0.36502 0.16935
 C185 C 0.53470 0.46819 0.42451
 C186 C 0.64367 0.41544 0.19092
 C187 C 0.57774 0.42680 0.30542
 C188 C 0.56471 0.43977 0.34472
 C189 C 0.54879 0.45503 0.38869
 C190 C 0.62031 0.38328 0.15337
 H191 H 0.64808 0.45454 0.26942
 H192 H 0.54024 0.36488 0.23103
 H193 H 0.56418 0.34018 0.14167
 H194 H 0.67256 0.43017 0.18000
 C195 C 0.20024 0.57032 0.23884
 C196 C 0.18089 0.58834 0.25294
 C197 C 0.19000 0.62077 0.21702
 C198 C 0.21789 0.63485 0.16626
 C199 C 0.06583 0.53123 0.41976
 C200 C 0.22822 0.58438 0.18808
 C201 C 0.15055 0.57280 0.30158
 C202 C 0.12445 0.55976 0.34056
 C203 C 0.09314 0.54443 0.38419
 C204 C 0.23709 0.61661 0.15056
 H205 H 0.19333 0.54513 0.26621
 H206 H 0.17513 0.63488 0.22739
 H207 H 0.22402 0.65974 0.13859
 H208 H 0.24243 0.56966 0.17735
 C209 C 0.43102 0.81041 0.21826
 C210 C 0.40772 0.81941 0.25418
 C211 C 0.37041 0.80008 0.23968
 C212 C 0.35652 0.77221 0.18856
 C213 C 0.46560 0.93411 0.42260
 C214 C 0.41723 0.78263 0.16714
 C215 C 0.42249 0.84963 0.30326
 C216 C 0.43554 0.87564 0.34262
 C217 C 0.45149 0.90685 0.38668
 C218 C 0.37985 0.76344 0.15106
 H219 H 0.45995 0.82526 0.22893
 H220 H 0.35214 0.80691 0.26705
 H221 H 0.32763 0.75800 0.17756
 H222 H 0.43597 0.77656 0.13950
 C223 C 0.42963 0.63002 0.24058
 C224 C 0.41165 0.59263 0.25499
 C225 C 0.37941 0.56927 0.21882
 C226 C 0.36547 0.58309 0.16756
 C227 C 0.46833 0.53472 0.42397
 C228 C 0.41573 0.64395 0.18931
 C229 C 0.42704 0.57783 0.30421
 C230 C 0.43997 0.56478 0.34371
 C231 C 0.45520 0.54883 0.38792
 C232 C 0.38367 0.62056 0.15158
 H233 H 0.45469 0.64833 0.26813
 H234 H 0.36532 0.54027 0.22942
 H235 H 0.34071 0.56430 0.13974
 H236 H 0.43041 0.67291 0.17840
   
