data_POSCAR
  _audit_creation_date              2014-09-24
  _audit_creation_method            'ToBaCCo'
  _symmetry_space_group_name_H-M    'P1'
  _symmetry_Int_Tables_number       1
  _symmetry_cell_setting            triclinic
  loop_
  _symmetry_equiv_pos_as_xyz
 x,y,z
_cell_length_a 22.1660
_cell_length_b 21.8789
_cell_length_c 22.2721
_cell_angle_alpha 92.283300
_cell_angle_beta 89.078600
_cell_angle_gamma 84.905100
loop_
  _atom_site_label
  _atom_site_type_symbol
  _atom_site_fract_x
  _atom_site_fract_y
  _atom_site_fract_z
C1 C 0.04428 0.41619 0.16460
 H2 H 0.08228 0.44275 0.15654
 C3 C 0.04028 0.35999 0.13284
 H4 H 0.07511 0.34406 0.09975
 C5 C -0.04594 0.40273 0.21878
 H6 H -0.07789 0.41664 0.25472
 C7 C -0.05270 0.34784 0.18705
 H8 H -0.09013 0.32150 0.19850
 N9 N 0.00058 0.43724 0.20583
 C10 C -0.00985 0.63746 0.23958
 H11 H -0.02288 0.63529 0.28640
 C12 C -0.00862 0.69447 0.21404
 H13 H -0.02063 0.73589 0.24147
 C14 C 0.02312 0.58590 0.14775
 H15 H 0.03577 0.54349 0.12229
 C16 C 0.02616 0.64243 0.12060
 H17 H 0.04227 0.64290 0.07455
 Zn18 Zn 0.00280 0.51279 0.25219
 N19 N 0.00592 0.58456 0.20659
 C20 C 0.11538 0.54479 0.29279
 N21 N 0.07143 0.50666 0.30344
 C22 C 0.07946 0.46246 0.34474
 C23 C 0.13364 0.45529 0.37669
 C24 C 0.17005 0.53872 0.32306
 C25 C -0.11985 0.53206 0.25506
 C26 C -0.17910 0.53191 0.27633
 C27 C -0.14066 0.52276 0.37689
 C28 C -0.08161 0.52107 0.35334
 N29 N -0.07260 0.52482 0.29318
 H30 H 0.10930 0.57862 0.25891
 H31 H 0.04457 0.43176 0.35172
 H32 H 0.14019 0.41928 0.40855
 H33 H 0.20514 0.56769 0.31189
 H34 H -0.11105 0.53429 0.20731
 H35 H -0.21605 0.53466 0.24502
 H36 H -0.14767 0.51889 0.42473
 H37 H -0.04331 0.51510 0.38263
 C38 C 0.01011 0.69769 0.15402
 C39 C -0.01018 0.32626 0.14239
 C40 C -0.19014 0.52802 0.33797
 C41 C 0.17999 0.49333 0.36512
 C42 C 0.00595 0.56149 0.85507
 H43 H 0.01607 0.51985 0.87856
 C44 C 0.00721 0.61767 0.88643
 H45 H 0.01506 0.61885 0.93431
 C46 C -0.01160 0.61186 0.76369
 H47 H -0.01809 0.60878 0.71566
 C48 C -0.00748 0.66859 0.79261
 H49 H -0.01090 0.70964 0.76676
 N50 N -0.00391 0.55983 0.79486
 C51 C 0.03778 0.36828 0.75634
 H52 H 0.05973 0.37363 0.71342
 C53 C 0.03425 0.30997 0.77736
 H54 H 0.05376 0.27043 0.75066
 C55 C -0.02205 0.41259 0.83903
 H56 H -0.04897 0.45159 0.85964
 C57 C -0.02368 0.35560 0.86346
 H58 H -0.04955 0.35169 0.90461
 Zn59 Zn 0.00156 0.48885 0.74515
 N60 N 0.00917 0.41782 0.78691
 C61 C 0.12122 0.48637 0.73847
 N62 N 0.07362 0.49109 0.70075
 C63 C 0.08171 0.49609 0.64051
 C64 C 0.14041 0.49208 0.61585
 C65 C 0.18005 0.48281 0.71603
 C66 C -0.12110 0.49914 0.73711
 C67 C -0.17819 0.49716 0.71250
 C68 C -0.12982 0.46170 0.61785
 C69 C -0.07361 0.46261 0.64504
 N70 N -0.07033 0.48484 0.70260
 H71 H 0.11318 0.48405 0.78633
 H72 H 0.04336 0.50333 0.61166
 H73 H 0.14727 0.49496 0.56781
 H74 H 0.21762 0.47836 0.74654
 H75 H -0.11710 0.51339 0.78383
 H76 H -0.21749 0.51278 0.74039
 H77 H -0.13175 0.44641 0.57107
 H78 H -0.03308 0.44543 0.62018
 C79 C 0.00144 0.30331 0.83048
 C80 C 0.00333 0.67160 0.85442
 C81 C -0.18309 0.48269 0.65073
 C82 C 0.18992 0.48363 0.65404
 C83 C 0.24340 0.02885 0.36389
 H84 H 0.29137 0.03112 0.36997
 C85 C 0.22018 0.03303 0.30638
 H86 H 0.24991 0.04089 0.26894
 C87 C 0.14658 0.01578 0.40563
 H88 H 0.11826 0.00873 0.44416
 C89 C 0.12179 0.01734 0.34827
 H90 H 0.07400 0.01200 0.34318
 N91 N 0.20662 0.02167 0.41225
 C92 C 0.24643 0.02531 0.60716
 H93 H 0.28855 0.04534 0.59942
 C94 C 0.22669 0.01876 0.66625
 H95 H 0.25135 0.03736 0.70331
 C96 C 0.16349 -0.02383 0.56862
 H97 H 0.14015 -0.04232 0.53079
 C98 C 0.14234 -0.03183 0.62715
 H99 H 0.10053 -0.05299 0.63384
 Zn100 Zn 0.25215 0.01228 0.48279
 N101 N 0.21336 0.00693 0.55956
 C102 C 0.26677 0.13243 0.51390
 N103 N 0.29801 0.08172 0.48749
 C104 C 0.35383 0.08485 0.46215
 C105 C 0.38093 0.14034 0.46501
 C106 C 0.29315 0.18772 0.52018
 C107 C 0.25374 -0.10865 0.45760
 C108 C 0.26896 -0.17035 0.46768
 C109 C 0.36667 -0.14318 0.50117
 C110 C 0.34904 -0.08161 0.49179
 N111 N 0.29271 -0.06566 0.47172
 H112 H 0.22137 0.12948 0.53141
 H113 H 0.37691 0.04478 0.43914
 H114 H 0.42550 0.14246 0.44493
 H115 H 0.26871 0.22633 0.54447
 H116 H 0.20842 -0.09447 0.44354
 H117 H 0.23594 -0.20332 0.46003
 H118 H 0.41108 -0.15540 0.51900
 H119 H 0.37829 -0.04653 0.50473
 C120 C 0.17330 -0.00877 0.67665
 C121 C 0.15852 0.02823 0.29810
 C122 C 0.32482 -0.18769 0.49260
 C123 C 0.35147 0.19194 0.49662
 C124 C 0.84267 0.00969 0.58288
 H125 H 0.84897 0.04871 0.55587
 C126 C 0.86366 0.00864 0.64155
 H127 H 0.88881 0.04542 0.65882
 C128 C 0.80106 -0.08554 0.59437
 H129 H 0.77583 -0.12182 0.57637
 C130 C 0.82072 -0.08807 0.65333
 H131 H 0.81255 -0.12714 0.67974
 N132 N 0.81126 -0.03661 0.56084
 C133 C 0.77130 -0.03694 0.36909
 H134 H 0.72288 -0.03805 0.37493
 C135 C 0.79567 -0.03098 0.31181
 H136 H 0.76590 -0.03040 0.27367
 C137 C 0.86799 -0.03424 0.41237
 H138 H 0.89536 -0.03278 0.45209
 C139 C 0.89435 -0.02763 0.35559
 H140 H 0.94223 -0.02149 0.35271
 Zn141 Zn 0.76407 -0.02275 0.49261
 N142 N 0.80714 -0.03683 0.41811
 C143 C 0.76116 0.09944 0.45485
 N144 N 0.73846 0.06382 0.49730
 C145 C 0.70747 0.09042 0.54623
 C146 C 0.69423 0.15434 0.55110
 C147 C 0.74940 0.16332 0.45828
 C148 C 0.71664 -0.13406 0.46441
 C149 C 0.68451 -0.18494 0.47399
 C150 C 0.62416 -0.12520 0.55017
 C151 C 0.65758 -0.07492 0.53902
 N152 N 0.70291 -0.08002 0.49643
 H153 H 0.78823 0.07877 0.41752
 H154 H 0.69278 0.06216 0.58138
 H155 H 0.66637 0.17415 0.58830
 H156 H 0.76378 0.19007 0.42162
 H157 H 0.75477 -0.13905 0.43330
 H158 H 0.69582 -0.22719 0.44758
 H159 H 0.58783 -0.12059 0.58356
 H160 H 0.64882 -0.03285 0.56601
 C161 C 0.85737 -0.02224 0.30459
 C162 C 0.85152 -0.04011 0.67746
 C163 C 0.63824 -0.18117 0.51772
 C164 C 0.71343 0.19137 0.50559
 C165 C 0.56123 0.15963 0.95369
 H166 H 0.53167 0.15877 0.91554
 C167 C 0.61714 0.12366 0.95170
 H168 H 0.63003 0.09463 0.91225
 C169 C 0.58277 0.20086 1.05005
 H170 H 0.57109 0.23258 1.08758
 C171 C 0.63840 0.16543 1.05014
 H172 H 0.66805 0.16967 1.08800
 N173 N 0.54515 0.19769 1.00234
 C174 C 0.35054 0.26417 1.00937
 H175 H 0.35779 0.31211 1.01687
 C176 C 0.29173 0.24629 1.01040
 H177 H 0.25489 0.28083 1.02180
 C178 C 0.39172 0.16123 0.99376
 H179 H 0.43097 0.12825 0.98856
 C180 C 0.33338 0.14139 0.99424
 H181 H 0.32918 0.09277 0.98963
 Zn182 Zn 0.47460 0.25604 1.00139
 N183 N 0.39900 0.22202 0.99990
 C184 C 0.43811 0.30264 0.89021
 N185 N 0.48055 0.30495 0.93361
 C186 C 0.52916 0.33809 0.92698
 C187 C 0.53686 0.36992 0.87466
 C188 C 0.44464 0.33283 0.83682
 C189 C 0.45832 0.27208 1.12275
 C190 C 0.46066 0.29954 1.17982
 C191 C 0.48647 0.39277 1.13440
 C192 C 0.48339 0.36346 1.07786
 N193 N 0.47174 0.30346 1.07348
 H194 H 0.40045 0.27512 0.89560
 H195 H 0.56291 0.33819 0.96151
 H196 H 0.57672 0.39451 0.86882
 H197 H 0.41221 0.32820 0.80142
 H198 H 0.44852 0.22462 1.11758
 H199 H 0.45305 0.27332 1.21907
 H200 H 0.49890 0.43953 1.13828
 H201 H 0.49232 0.38793 1.03801
 C202 C 0.28160 0.18430 0.99937
 C203 C 0.65642 0.12651 1.00048
 C204 C 0.47668 0.35973 1.18569
 C205 C 0.49531 0.36546 0.82814
 C206 C 0.43229 0.82523 0.95940
 H207 H 0.46165 0.81355 0.92060
 C208 C 0.37494 0.85644 0.95189
 H209 H 0.36101 0.86723 0.90687
 C210 C 0.41185 0.81764 1.06307
 H211 H 0.42458 0.80085 1.10624
 C212 C 0.35479 0.84967 1.05781
 H213 H 0.32635 0.85842 1.09779
 N214 N 0.45004 0.80660 1.01449
 C215 C 0.63849 0.78428 1.06343
 H216 H 0.62895 0.75785 1.10163
 C217 C 0.69697 0.80209 1.05616
 H218 H 0.72971 0.79291 1.09099
 C219 C 0.60882 0.82773 0.97171
 H220 H 0.57480 0.83583 0.93796
 C221 C 0.66796 0.84225 0.96058
 H222 H 0.67795 0.86216 0.91827
 Zn223 Zn 0.52421 0.75359 1.02044
 N224 N 0.59594 0.79605 1.02084
 C225 C 0.57958 0.69688 0.91352
 N226 N 0.53025 0.69858 0.95115
 C227 C 0.48145 0.66843 0.93560
 C228 C 0.47903 0.63994 0.87851
 C229 C 0.57749 0.67231 0.85483
 C230 C 0.52309 0.74498 1.14521
 C231 C 0.51897 0.71741 1.20017
 C232 C 0.51065 0.62036 1.14642
 C233 C 0.51619 0.64964 1.09230
 N234 N 0.52101 0.71117 1.09268
 H235 H 0.61973 0.71746 0.92739
 H236 H 0.44306 0.66933 0.96634
 H237 H 0.43927 0.61705 0.86665
 H238 H 0.61515 0.67672 0.82426
 H239 H 0.52746 0.79380 1.14424
 H240 H 0.51969 0.74489 1.24167
 H241 H 0.50459 0.57175 1.14588
 H242 H 0.51527 0.62355 1.05016
 C243 C 0.71365 0.82799 1.00252
 C244 C 0.33541 0.87100 1.00185
 C245 C 0.51083 0.65486 1.20089
 C246 C 0.52531 0.64616 0.83554
 B247 B 0.98121 1.07255 0.02280
 B248 B 0.98070 1.06126 -0.05596
 B249 B 1.04947 1.05561 -0.01493
 B250 B 1.03525 1.01920 0.05307
 B251 B 0.96064 1.00410 0.05501
 B252 B 0.92509 1.02708 -0.01027
 B253 B 1.01845 0.93268 -0.04442
 B254 B 1.01624 0.94370 0.03480
 B255 B 0.94948 0.94899 -0.00601
 B256 B 0.96349 0.98455 -0.07458
 B257 B 1.03724 1.00283 -0.07739
 B258 B 1.07269 0.97710 -0.01069
 B259 B 0.56282 0.50906 0.46214
 B260 B 0.57117 0.50805 0.54001
 B261 B 0.52860 0.57104 0.50767
 B262 B 0.48883 0.53930 0.44513
 B263 B 0.50606 0.46017 0.44213
 B264 B 0.55514 0.43811 0.50061
 B265 B 0.44430 0.49209 0.55411
 B266 B 0.43637 0.49167 0.47549
 B267 B 0.47710 0.43033 0.51089
 B268 B 0.51809 0.46035 0.57179
 B269 B 0.50142 0.53988 0.57544
 B270 B 0.45313 0.56190 0.51692
 C271 C 0.93140 1.25640 0.07936
 C272 C 0.98384 1.26983 0.11102
 C273 C 1.03217 1.22531 0.11073
 C274 C 1.02809 1.16746 0.08421
 C275 C 0.97696 1.14799 0.05292
 C276 C 0.92976 1.19767 0.04795
 C277 C 0.88332 1.30271 0.07215
 C278 C 0.83557 1.29263 0.03442
 C279 C 0.83651 1.23791 0.00098
 C280 C 0.88392 1.19275 0.00749
 H281 H 0.88325 1.34813 0.09296
 H282 H 0.79950 1.32854 0.02878
 H283 H 0.80173 1.23126 -0.03155
 H284 H 0.88893 1.15496 -0.02159
 H285 H 1.07334 1.23398 0.13408
 H286 H 1.06769 1.13805 0.09078
 C287 C 1.07080 0.77973 0.11099
 C288 C 1.01488 0.75917 0.12838
 C289 C 0.96494 0.80334 0.13366
 C290 C 0.96727 0.86083 0.10785
 C291 C 1.02100 0.88094 0.08235
 C292 C 1.07273 0.84400 0.10348
 C293 C 1.12573 0.74363 0.12021
 C294 C 1.17585 0.77223 0.14045
 C295 C 1.16858 0.83478 0.15590
 C296 C 1.11518 0.86907 0.14064
 H297 H 1.12837 0.69409 0.11970
 H298 H 1.21700 0.74501 0.15165
 H299 H 1.20236 0.85574 0.18233
 H300 H 1.10145 0.90959 0.16676
 H301 H 0.92204 0.79110 0.15143
 H302 H 0.92488 0.88725 0.10507
 C303 C 0.93042 1.22521 -0.14052
 C304 C 0.98933 1.24169 -0.15128
 C305 C 1.03714 1.19620 -0.15178
 C306 C 1.03023 1.14165 -0.12388
 C307 C 0.97399 1.12442 -0.10217
 C308 C 0.92311 1.16281 -0.12763
 C309 C 0.87909 1.26530 -0.15511
 C310 C 0.82446 1.24228 -0.16841
 C311 C 0.82242 1.17955 -0.17322
 C312 C 0.87250 1.14119 -0.15701
 H313 H 0.88105 1.31326 -0.16304
 H314 H 0.78603 1.27259 -0.18144
 H315 H 0.78274 1.16030 -0.19106
 H316 H 0.86943 1.09475 -0.16789
 H317 H 1.08239 1.20606 -0.16518
 H318 H 1.07179 1.11437 -0.11781
 C319 C 1.06707 0.74617 -0.09118
 C320 C 1.01199 0.73162 -0.11620
 C321 C 0.96711 0.77805 -0.12378
 C322 C 0.97314 0.83688 -0.10190
 C323 C 1.02550 0.85712 -0.07350
 C324 C 1.07613 0.80942 -0.07628
 C325 C 1.11595 0.70004 -0.08786
 C326 C 1.17417 0.71545 -0.07724
 C327 C 1.18495 0.77658 -0.07420
 C328 C 1.13663 0.82178 -0.07577
 H329 H 1.11102 0.65201 -0.09668
 H330 H 1.21150 0.68009 -0.07623
 H331 H 1.23104 0.78919 -0.07256
 H332 H 1.14811 0.86580 -0.08121
 H333 H 0.92507 0.76827 -0.14495
 H334 H 0.93283 0.86523 -0.10786
 C335 C 1.07893 1.07703 0.23149
 C336 C 1.13148 1.03800 0.23806
 C337 C 1.15633 1.00559 0.18772
 C338 C 1.12538 1.00457 0.13371
 C339 C 1.06773 1.03468 0.12396
 C340 C 1.04434 1.07305 0.17764
 C341 C 1.06072 1.12073 0.27865
 C342 C 1.00559 1.15541 0.27789
 C343 C 0.96844 1.14803 0.22984
 C344 C 0.98803 1.10835 0.18170
 H345 H 1.08924 1.12873 0.31661
 H346 H 0.99178 1.18788 0.31455
 H347 H 0.92502 1.17482 0.22846
 H348 H 0.95918 1.10961 0.14596
 H349 H 1.19823 0.97650 0.19106
 H350 H 1.14641 0.97371 0.10072
 C351 C 1.08977 1.03989 -0.25652
 C352 C 1.14211 0.99974 -0.26368
 C353 C 1.15925 0.96289 -0.21678
 C354 C 1.12531 0.96653 -0.16305
 C355 C 1.07082 1.00422 -0.15091
 C356 C 1.05013 1.03590 -0.20553
 C357 C 1.07409 1.08116 -0.30251
 C358 C 1.01631 1.11004 -0.30518
 C359 C 0.97372 1.09739 -0.26292
 C360 C 0.99074 1.06079 -0.21506
 H361 H 1.10573 1.08956 -0.33812
 H362 H 1.00397 1.14000 -0.34138
 H363 H 0.92752 1.11721 -0.26640
 H364 H 0.95694 1.05488 -0.18421
 H365 H 1.19910 0.93050 -0.22161
 H366 H 1.14222 0.93737 -0.13055
 C367 C 0.85221 1.03771 0.21101
 C368 C 0.88107 0.99269 0.24789
 C369 C 0.93749 0.96549 0.22875
 C370 C 0.96052 0.97443 0.17187
 C371 C 0.92858 1.00736 0.12699
 C372 C 0.87671 1.04663 0.15192
 C373 C 0.80409 1.07943 0.23460
 C374 C 0.77966 1.12789 0.20169
 C375 C 0.80445 1.13808 0.14608
 C376 C 0.85276 1.09900 0.12284
 H377 H 0.78692 1.07778 0.28006
 H378 H 0.74309 1.15925 0.22060
 H379 H 0.78718 1.17723 0.12126
 H380 H 0.87229 1.11067 0.08206
 H381 H 0.96408 0.93482 0.25719
 H382 H 1.00578 0.95474 0.16461
 C383 C 0.93620 0.92479 -0.25576
 C384 C 0.87874 0.95480 -0.26287
 C385 C 0.84799 0.98272 -0.21370
 C386 C 0.87525 0.98620 -0.15822
 C387 C 0.93499 0.96302 -0.14556
 C388 C 0.96541 0.92790 -0.19845
 C389 C 0.96527 0.89233 -0.30634
 C390 C 1.02196 0.86145 -0.30236
 C391 C 1.05116 0.86313 -0.24855
 C392 C 1.02381 0.89592 -0.19907
 H393 H 0.94437 0.88990 -0.34980
 H394 H 1.04337 0.83661 -0.34118
 H395 H 1.09601 0.83965 -0.24501
 H396 H 1.05153 0.89531 -0.16208
 H397 H 0.80305 1.00564 -0.21888
 H398 H 0.84856 1.01432 -0.12735
 C399 C 1.17040 1.19609 -0.02778
 C400 C 1.22198 1.16421 -0.00234
 C401 C 1.21157 1.11226 0.02824
 C402 C 1.15636 1.08745 0.02593
 C403 C 1.10604 1.10833 -0.00795
 C404 C 1.11139 1.17236 -0.02360
 C405 C 1.17503 1.25236 -0.05572
 C406 C 1.12473 1.29447 -0.05840
 C407 C 1.06894 1.27807 -0.03948
 C408 C 1.06174 1.21704 -0.02784
 H409 H 1.21773 1.26603 -0.07206
 H410 H 1.12916 1.34001 -0.07427
 H411 H 1.02999 1.31131 -0.03853
 H412 H 1.01621 1.20596 -0.02548
 H413 H 1.24708 1.08875 0.05391
 H414 H 1.15785 1.04610 0.04619
 C415 C 0.73656 1.04701 0.03914
 C416 C 0.71795 1.09251 -0.00128
 C417 C 0.75958 1.10751 -0.04360
 C418 C 0.81936 1.08282 -0.04230
 C419 C 0.84553 1.04418 -0.00083
 C420 C 0.79907 1.02082 0.03887
 C421 C 0.69292 1.02547 0.07816
 C422 C 0.70825 0.97816 0.11611
 C423 C 0.76691 0.95105 0.11550
 C424 C 0.81064 0.97177 0.07764
 H425 H 0.64599 1.04393 0.07860
 H426 H 0.67426 0.96184 0.14542
 H427 H 0.77892 0.91354 0.14456
 H428 H 0.85375 0.94851 0.08020
 H429 H 0.74633 1.14025 -0.07723
 H430 H 0.84844 1.09460 -0.07423
 C431 C 1.26320 0.95372 -0.04000
 C432 C 1.27642 0.90249 -0.00370
 C433 C 1.22782 0.87948 0.02553
 C434 C 1.16840 0.90355 0.01793
 C435 C 1.15034 0.95481 -0.01464
 C436 C 1.20123 0.97971 -0.04659
 C437 C 1.31115 0.98198 -0.06749
 C438 C 1.30013 1.02880 -0.10700
 C439 C 1.24153 1.05253 -0.11595
 C440 C 1.19391 1.02978 -0.08516
 H441 H 1.35807 0.96957 -0.05786
 H442 H 1.33748 1.04850 -0.12872
 H443 H 1.23274 1.09020 -0.14561
 H444 H 1.15087 1.05207 -0.09379
 H445 H 1.23491 0.83743 0.04945
 H446 H 1.13476 0.87573 0.02995
 C447 C 0.83032 0.80660 0.00687
 C448 C 0.77737 0.84343 -0.00810
 C449 C 0.78577 0.89587 -0.03784
 C450 C 0.84210 0.91727 -0.04142
 C451 C 0.89350 0.89597 -0.00994
 C452 C 0.88908 0.83146 0.00469
 C453 C 0.82643 0.74359 0.01623
 C454 C 0.87814 0.70366 0.02014
 C455 C 0.93438 0.72565 0.01504
 C456 C 0.93969 0.78804 0.00893
 H457 H 0.78366 0.72343 0.01558
 H458 H 0.87459 0.65508 0.02507
 H459 H 0.97462 0.69420 0.01557
 H460 H 0.98494 0.80089 0.00744
 H461 H 0.74801 0.92407 -0.05544
 H462 H 0.84095 0.95706 -0.06325
 C463 C 0.70120 0.57528 0.35398
 C464 C 0.74688 0.52737 0.36150
 C465 C 0.73442 0.48022 0.39766
 C466 C 0.67850 0.47983 0.42588
 C467 C 0.62755 0.52099 0.41837
 C468 C 0.64252 0.57319 0.38263
 C469 C 0.71491 0.62841 0.32383
 C470 C 0.67302 0.67917 0.32165
 C471 C 0.61767 0.67868 0.35068
 C472 C 0.60422 0.62718 0.38121
 H473 H 0.75885 0.63284 0.30380
 H474 H 0.68410 0.71945 0.29857
 H475 H 0.58483 0.71825 0.34955
 H476 H 0.56172 0.62766 0.40107
 H477 H 0.76950 0.44423 0.40690
 H478 H 0.67660 0.44713 0.45688
 C479 C 0.28419 0.43612 0.37489
 C480 C 0.24052 0.48367 0.39324
 C481 C 0.25501 0.52405 0.43837
 C482 C 0.31273 0.52105 0.46225
 C483 C 0.36334 0.47960 0.44417
 C484 C 0.34342 0.43104 0.40194
 C485 C 0.26898 0.39265 0.33010
 C486 C 0.30808 0.34155 0.31444
 C487 C 0.36247 0.33264 0.34328
 C488 C 0.37894 0.37621 0.38588
 H489 H 0.22621 0.39711 0.30730
 H490 H 0.29571 0.30831 0.28056
 H491 H 0.39260 0.29229 0.33157
 H492 H 0.42091 0.36740 0.40522
 H493 H 0.22148 0.56046 0.45438
 H494 H 0.31529 0.55716 0.49279
 C495 C 0.75616 0.53056 0.57246
 C496 C 0.76306 0.49363 0.62318
 C497 C 0.71064 0.47696 0.65064
 C498 C 0.65483 0.48671 0.62401
 C499 C 0.64413 0.51291 0.56829
 C500 C 0.69714 0.54218 0.54635
 C501 C 0.80479 0.56443 0.55363
 C502 C 0.79731 0.60812 0.51068
 C503 C 0.74124 0.62066 0.48664
 C504 C 0.69329 0.58833 0.50440
 H505 H 0.84829 0.56178 0.57470
 H506 H 0.83459 0.63392 0.49777
 H507 H 0.73427 0.65641 0.45459
 H508 H 0.65209 0.60229 0.48571
 H509 H 0.71242 0.45396 0.69291
 H510 H 0.61802 0.47794 0.65194
 C511 C 0.29397 0.42734 0.63973
 C512 C 0.25258 0.47841 0.63042
 C513 C 0.27297 0.52981 0.60659
 C514 C 0.33291 0.53081 0.58969
 C515 C 0.37760 0.48138 0.59200
 C516 C 0.35702 0.42886 0.62362
 C517 C 0.27292 0.37439 0.66463
 C518 C 0.31270 0.32465 0.67810
 C519 C 0.37380 0.32637 0.66640
 C520 C 0.39492 0.37693 0.63950
 H521 H 0.22532 0.37087 0.67391
 H522 H 0.29606 0.28469 0.69763
 H523 H 0.40518 0.28755 0.67666
 H524 H 0.44140 0.37231 0.62936
 H525 H 0.24264 0.57121 0.60317
 H526 H 0.34422 0.57496 0.57876
 C527 C 0.44405 0.63929 0.29085
 C528 C 0.49872 0.62620 0.25821
 C529 C 0.53699 0.57652 0.27401
 C530 C 0.52795 0.54839 0.32776
 C531 C 0.48047 0.56691 0.37066
 C532 C 0.43111 0.60208 0.34041
 C533 C 0.39817 0.68146 0.26904
 C534 C 0.33856 0.68028 0.28840
 C535 C 0.32382 0.63383 0.32478
 C536 C 0.36942 0.59307 0.34658
 H537 H 0.40690 0.71303 0.23455
 H538 H 0.30333 0.71200 0.27126
 H539 H 0.27699 0.62918 0.33605
 H540 H 0.35513 0.55492 0.36802
 H541 H 0.57629 0.56092 0.24604
 H542 H 0.56211 0.51245 0.33504
 C543 C 0.46136 0.63731 0.74287
 C544 C 0.51731 0.62803 0.77073
 C545 C 0.56531 0.60119 0.73556
 C546 C 0.55675 0.58218 0.67602
 C547 C 0.50025 0.57443 0.64937
 C548 C 0.44998 0.60172 0.68934
 C549 C 0.41629 0.68199 0.76694
 C550 C 0.35788 0.68495 0.74526
 C551 C 0.34311 0.63968 0.70442
 C552 C 0.38843 0.59633 0.68126
 H553 H 0.42624 0.71502 0.80206
 H554 H 0.32317 0.71838 0.76429
 H555 H 0.29593 0.63396 0.69604
 H556 H 0.37418 0.55157 0.68188
 H557 H 0.61085 0.59769 0.75276
 H558 H 0.59702 0.57636 0.65188
 C559 C 0.54510 0.36866 0.27360
 C560 C 0.49024 0.38486 0.24547
 C561 C 0.44819 0.42649 0.27390
 C562 C 0.45710 0.44735 0.33222
 C563 C 0.50729 0.42922 0.36800
 C564 C 0.55530 0.39311 0.33300
 C565 C 0.59117 0.33040 0.24223
 C566 C 0.64773 0.31816 0.26703
 C567 C 0.65937 0.34461 0.32253
 C568 C 0.61384 0.38157 0.35355
 H569 H 0.58447 0.31075 0.19775
 H570 H 0.68280 0.28918 0.24267
 H571 H 0.70362 0.33628 0.34203
 H572 H 0.62391 0.39951 0.39476
 H573 H 0.40684 0.44197 0.25154
 H574 H 0.42230 0.47948 0.34895
 C575 C 0.55692 0.36095 0.73157
 C576 C 0.50865 0.38761 0.76783
 C577 C 0.47239 0.43593 0.74630
 C578 C 0.48091 0.45530 0.68837
 C579 C 0.52522 0.43036 0.64561
 C580 C 0.56779 0.38431 0.67323
 C581 C 0.59591 0.31203 0.75328
 C582 C 0.64949 0.29165 0.72301
 C583 C 0.66402 0.31852 0.67032
 C584 C 0.62276 0.36236 0.64647
 H585 H 0.58639 0.29004 0.79453
 H586 H 0.68004 0.25580 0.74093
 H587 H 0.70648 0.30442 0.64703
 H588 H 0.63362 0.38236 0.60804
 H589 H 0.43481 0.45744 0.77359
 H590 H 0.44639 0.48672 0.67545
 C591 C 0.55177 0.75945 0.48467
 C592 C 0.60056 0.76615 0.52270
 C593 C 0.61847 0.71846 0.55935
 C594 C 0.59208 0.66279 0.55505
 C595 C 0.54910 0.64751 0.51151
 C596 C 0.52552 0.70162 0.47894
 C597 C 0.52973 0.80985 0.45067
 C598 C 0.48255 0.80493 0.41138
 C599 C 0.45680 0.75004 0.40524
 C600 C 0.47869 0.70012 0.43790
 H601 H 0.54838 0.85384 0.45441
 H602 H 0.46573 0.84384 0.38601
 H603 H 0.41956 0.74601 0.37507
 H604 H 0.45965 0.65942 0.42977
 H605 H 0.65547 0.72305 0.58994
 H606 H 0.61096 0.62919 0.58324
 C607 C 0.62486 0.25320 0.46413
 C608 C 0.67885 0.25150 0.49581
 C609 C 0.69923 0.30660 0.51616
 C610 C 0.66329 0.36236 0.51193
 C611 C 0.60275 0.36791 0.49042
 C612 C 0.58752 0.30998 0.46026
 C613 C 0.60685 0.19792 0.43669
 C614 C 0.55449 0.19749 0.40408
 C615 C 0.51868 0.25144 0.39905
 C616 C 0.53521 0.30514 0.42717
 H617 H 0.63287 0.15408 0.43958
 H618 H 0.54146 0.15520 0.38327
 H619 H 0.47702 0.25145 0.37475
 H620 H 0.50516 0.34264 0.42519
 H621 H 0.74269 0.30652 0.53773
 H622 H 0.68299 0.40091 0.53279
 C623 C 0.36980 0.73876 0.56611
 C624 C 0.33913 0.74885 0.51276
 C625 C 0.33502 0.69964 0.47294
 C626 C 0.36828 0.64414 0.48218
 C627 C 0.41058 0.63294 0.52697
 C628 C 0.41323 0.68648 0.56922
 C629 C 0.36391 0.78507 0.61250
 C630 C 0.40883 0.78909 0.65438
 C631 C 0.45905 0.74704 0.64995
 C632 C 0.46033 0.69711 0.60875
 H633 H 0.32708 0.82116 0.61314
 H634 H 0.40626 0.82646 0.68791
 H635 H 0.49662 0.75176 0.67978
 H636 H 0.49992 0.66878 0.60894
 H637 H 0.31084 0.70555 0.43146
 H638 H 0.36889 0.61138 0.44784
 C639 C 0.44032 0.24719 0.53400
 C640 C 0.38282 0.24870 0.50833
 C641 C 0.35205 0.30598 0.50122
 C642 C 0.38094 0.35966 0.50993
 C643 C 0.44415 0.36095 0.51812
 C644 C 0.47069 0.30253 0.53942
 C645 C 0.46597 0.19253 0.55917
 C646 C 0.52011 0.19138 0.58927
 C647 C 0.54884 0.24452 0.59566
 C648 C 0.52408 0.29839 0.57109
 H649 H 0.44321 0.15092 0.55902
 H650 H 0.53906 0.14960 0.60887
 H651 H 0.59031 0.24399 0.62000
 H652 H 0.54703 0.33745 0.57542
 H653 H 0.30480 0.30980 0.48900
 H654 H 0.35111 0.40043 0.51064
   
