data_POSCAR
  _audit_creation_date              2014-09-24
  _audit_creation_method            'ToBaCCo'
  _symmetry_space_group_name_H-M    'P1'
  _symmetry_Int_Tables_number       1
  _symmetry_cell_setting            triclinic
  loop_
  _symmetry_equiv_pos_as_xyz
 x,y,z
_cell_length_a 39.2392
_cell_length_b 39.1431
_cell_length_c 39.1827
_cell_angle_alpha 90.001800
_cell_angle_beta 89.978100
_cell_angle_gamma 90.037500
loop_
  _atom_site_label
  _atom_site_type_symbol
  _atom_site_fract_x
  _atom_site_fract_y
  _atom_site_fract_z
C1 C 0.20770 1.23136 0.18321
 C2 C 0.23271 1.20577 0.18398
 C3 C 0.23191 1.18109 0.20919
 C4 C 0.20617 1.18171 0.23403
 C5 C 0.18164 1.20686 0.23324
 C6 C 0.18245 1.23194 0.20765
 C7 C 0.20095 1.25731 0.16057
 N8 N 0.17196 1.27396 0.17043
 C9 C 0.16075 1.25825 0.19950
 C10 C 0.15884 1.19991 0.25897
 N11 N 0.16869 1.17089 0.27567
 C12 C 0.19793 1.15987 0.26024
 C13 C 0.25780 1.15839 0.20243
 N14 N 0.27433 1.16864 0.17368
 C15 C 0.25910 1.19769 0.16230
 H16 H 0.21633 1.26291 0.13840
 H17 H 0.13783 1.26423 0.21354
 H18 H 0.13655 1.21515 0.26436
 H19 H 0.21202 1.13697 0.26631
 H20 H 0.26383 1.13584 0.21722
 H21 H 0.26577 1.21124 0.13917
 C22 C 0.79430 0.76511 0.18153
 C23 C 0.76858 0.78997 0.18120
 C24 C 0.76795 0.81507 0.20601
 C25 C 0.79312 0.81571 0.23142
 C26 C 0.81836 0.79125 0.23171
 C27 C 0.81899 0.76578 0.20651
 C28 C 0.80240 0.73902 0.15950
 N29 N 0.83171 0.72353 0.17024
 C30 C 0.84174 0.74008 0.19927
 C31 C 0.84025 0.79927 0.25789
 N32 N 0.82917 0.82829 0.27382
 C33 C 0.80007 0.83823 0.25743
 C34 C 0.74154 0.83682 0.19820
 N35 N 0.72613 0.82560 0.16920
 C36 C 0.74256 0.79687 0.15872
 H37 H 0.78817 0.73306 0.13668
 H38 H 0.86413 0.73463 0.21433
 H39 H 0.86319 0.78518 0.26364
 H40 H 0.78477 0.86040 0.26322
 H41 H 0.73498 0.85991 0.21191
 H42 H 0.73640 0.78220 0.13613
 C43 C 0.79323 1.23369 -0.18060
 C44 C 0.76763 1.20868 -0.18012
 C45 C 0.76694 1.18362 -0.20497
 C46 C 0.79193 1.18320 -0.23059
 C47 C 0.81706 1.20780 -0.23102
 C48 C 0.81775 1.23323 -0.20578
 C49 C 0.80135 1.25979 -0.15859
 N50 N 0.83050 1.27549 -0.16952
 C51 C 0.84041 1.25907 -0.19867
 C52 C 0.83878 1.19997 -0.25741
 N53 N 0.82772 1.17092 -0.27330
 C54 C 0.79879 1.16077 -0.25669
 C55 C 0.74069 1.16170 -0.19701
 N56 N 0.72543 1.17278 -0.16787
 C57 C 0.74180 1.20158 -0.15745
 H58 H 0.78724 1.26561 -0.13565
 H59 H 0.86268 1.26469 -0.21387
 H60 H 0.86162 1.21420 -0.26332
 H61 H 0.78353 1.13853 -0.26241
 H62 H 0.73413 1.13861 -0.21072
 H63 H 0.73572 1.21617 -0.13479
 C64 C 0.20705 0.76942 -0.18461
 C65 C 0.23229 0.79483 -0.18479
 C66 C 0.23199 0.81984 -0.20970
 C67 C 0.20650 0.81975 -0.23478
 C68 C 0.18176 0.79476 -0.23459
 C69 C 0.18202 0.76941 -0.20926
 C70 C 0.19983 0.74322 -0.16239
 N71 N 0.17073 0.72700 -0.17269
 C72 C 0.15995 0.74321 -0.20164
 C73 C 0.15930 0.80223 -0.26045
 N74 N 0.16953 0.83145 -0.27661
 C75 C 0.19869 0.84204 -0.26071
 C76 C 0.25797 0.84227 -0.20237
 N77 N 0.27409 0.83154 -0.17358
 C78 C 0.25850 0.80245 -0.16274
 H79 H 0.21456 0.73762 -0.13981
 H80 H 0.13747 0.73722 -0.21635
 H81 H 0.13658 0.78761 -0.26583
 H82 H 0.21340 0.86458 -0.26670
 H83 H 0.26433 0.86497 -0.21679
 H84 H 0.26481 0.78856 -0.13971
 C85 C 0.55216 1.04635 -0.00858
 H86 H 0.55295 1.04580 0.01902
 C87 C 0.57538 1.06644 -0.02665
 H88 H 0.59408 1.08154 -0.01298
 C89 C 0.52751 1.02659 -0.06022
 H90 H 0.50931 1.01049 -0.07321
 C91 C 0.55031 1.04631 -0.07929
 H92 H 0.54939 1.04560 -0.10691
 N93 N 0.52874 1.02710 -0.02549
 C94 C 0.44796 1.00873 0.04873
 H95 H 0.44715 0.98110 0.04823
 C96 C 0.42478 1.02686 0.06877
 H97 H 0.40609 1.01321 0.08389
 C98 C 0.47261 1.06038 0.02882
 H99 H 0.49078 1.07336 0.01267
 C100 C 0.44985 1.07951 0.04850
 H101 H 0.45077 1.10716 0.04770
 Zn102 Zn 0.49998 0.99891 0.00116
 N103 N 0.47135 1.02562 0.02941
 C104 C 0.52752 0.97115 0.06247
 N105 N 0.52864 0.97060 0.02774
 C106 C 0.55194 0.95127 0.01075
 C107 C 0.57516 0.93117 0.02876
 C108 C 0.55033 0.95141 0.08147
 C109 C 0.44784 0.98938 -0.04625
 C110 C 0.42459 0.97140 -0.06637
 C111 C 0.44942 0.91859 -0.04633
 C112 C 0.47226 0.93757 -0.02658
 N113 N 0.47116 0.97233 -0.02703
 H114 H 0.50942 0.98730 0.07552
 H115 H 0.55265 0.95181 -0.01685
 H116 H 0.59377 0.91604 0.01503
 H117 H 0.54951 0.95217 0.10910
 H118 H 0.44716 1.01701 -0.04565
 H119 H 0.40598 0.98518 -0.08144
 H120 H 0.45023 0.89094 -0.04567
 H121 H 0.49039 0.92447 -0.01051
 C122 C 0.42568 1.06257 0.06857
 C123 C 0.57449 1.06634 -0.06232
 C124 C 0.42534 0.93570 -0.06633
 C125 C 0.57440 0.93133 0.06443
 C126 C -0.00699 0.55210 1.04664
 H127 H 0.02057 0.55309 1.04655
 C128 C -0.02551 0.57514 1.06653
 H129 H -0.01223 0.59388 1.08193
 C130 C -0.05806 0.52714 1.02593
 H131 H -0.07066 0.50890 1.00955
 C132 C -0.07757 0.54974 1.04544
 H133 H -0.10513 0.54863 1.04426
 N134 N -0.02341 0.52861 1.02702
 C135 C 0.05136 0.44807 1.00964
 H136 H 0.05138 0.44735 0.98204
 C137 C 0.07108 0.42483 1.02806
 H138 H 0.08648 0.40619 1.01465
 C139 C 0.03041 0.47249 1.06094
 H140 H 0.01398 0.49058 1.07366
 C141 C 0.04975 0.44967 1.08034
 H142 H 0.04840 0.45047 1.10794
 Zn143 Zn 0.00380 0.50004 0.99918
 N144 N 0.03167 0.47137 1.02623
 C145 C 0.06533 0.52802 0.97237
 N146 N 0.03066 0.52903 0.97141
 C147 C 0.01388 0.55239 0.95196
 C148 C 0.03205 0.57576 0.93212
 C149 C 0.08449 0.55098 0.95290
 C150 C -0.04322 0.44760 0.98869
 C151 C -0.06307 0.42441 0.97030
 C152 C -0.04236 0.44974 0.91799
 C153 C -0.02289 0.47250 0.93736
 N154 N -0.02382 0.47115 0.97208
 H155 H 0.07820 0.50986 0.98861
 H156 H -0.01368 0.55300 0.95216
 H157 H 0.01849 0.59439 0.91685
 H158 H 0.11207 0.55023 0.95396
 H159 H -0.04301 0.44671 1.01628
 H160 H -0.07832 0.40565 0.98373
 H161 H -0.04135 0.45079 0.89038
 H162 H -0.00669 0.49081 0.92462
 C163 C 0.07017 0.42558 1.06372
 C164 C -0.06112 0.57398 1.06585
 C165 C -0.06258 0.42547 0.93464
 C166 C 0.06767 0.57509 0.93266
 C167 C 1.04333 -0.00954 0.55206
 H168 H 1.04311 0.01808 0.55298
 C169 C 1.06324 -0.02797 0.57513
 H170 H 1.07852 -0.01454 0.59385
 C171 C 1.02297 -0.06089 0.52716
 H172 H 1.00675 -0.07363 0.50890
 C173 C 1.04251 -0.08031 0.54980
 H174 H 1.04150 -0.10795 0.54871
 N175 N 1.02390 -0.02615 0.52856
 C176 C 1.00696 0.04862 0.44785
 H177 H 0.97940 0.04859 0.44696
 C178 C 1.02548 0.06848 0.42477
 H179 H 1.01220 0.08392 0.40608
 C180 C 1.05804 0.02775 0.47258
 H181 H 1.07065 0.01130 0.49074
 C182 C 1.07754 0.04722 0.44993
 H183 H 1.10510 0.04596 0.45093
 Zn184 Zn 0.99622 0.00102 0.49982
 N185 N 1.02339 0.02892 0.47124
 C186 C 0.96958 0.06278 0.52753
 N187 N 0.96840 0.02803 0.52859
 C188 C 0.94879 0.01134 0.55190
 C189 C 0.92908 0.02969 0.57521
 C190 C 0.95025 0.08211 0.55043
 C191 C 0.98602 -0.04620 0.44749
 C192 C 0.96779 -0.06605 0.42420
 C193 C 0.91541 -0.04528 0.44916
 C194 C 0.93463 -0.02579 0.47203
 N195 N 0.96930 -0.02674 0.47090
 H196 H 0.98595 0.07557 0.50943
 H197 H 0.94882 -0.01630 0.55256
 H198 H 0.91374 0.01619 0.59385
 H199 H 0.95154 0.10975 0.54967
 H200 H 1.01358 -0.04599 0.44678
 H201 H 0.98130 -0.08132 0.40553
 H202 H 0.88783 -0.04422 0.45001
 H203 H 0.92181 -0.00955 0.49024
 C204 C 1.06109 0.06769 0.42578
 C205 C 1.06276 -0.06366 0.57402
 C206 C 0.93217 -0.06552 0.42500
 C207 C 0.92991 0.06539 0.57453
 C208 C 0.12265 0.35375 1.11795
 C209 C 0.11072 0.34319 1.14981
 C210 C 0.12729 0.31703 1.16751
 C211 C 0.15631 0.30059 1.15362
 C212 C 0.16829 0.31223 1.12154
 C213 C 0.15156 0.33840 1.10398
 C214 C 0.10462 0.37962 1.09913
 C215 C 0.08913 0.40083 1.08312
 H216 H 0.08836 0.35503 1.16093
 H217 H 0.11699 0.31014 1.19209
 H218 H 0.19014 0.30101 1.10918
 H219 H 0.16101 0.34637 1.07924
 C220 C -0.11560 0.64477 1.11949
 C221 C -0.14762 0.65513 1.10796
 C222 C -0.16539 0.68093 1.12502
 C223 C -0.15141 0.69721 1.15412
 C224 C -0.11916 0.68577 1.16568
 C225 C -0.10154 0.65996 1.14848
 C226 C -0.09672 0.61928 1.10098
 C227 C -0.08063 0.59838 1.08514
 H228 H -0.15881 0.64342 1.08555
 H229 H -0.19008 0.68769 1.11501
 H230 H -0.10674 0.69687 1.18758
 H231 H -0.07668 0.65214 1.15761
 C232 C -0.11688 0.35449 0.88101
 C233 C -0.10300 0.33954 0.85181
 C234 C -0.12060 0.31365 0.83468
 C235 C -0.15265 0.30189 0.84652
 C236 C -0.16647 0.31794 0.87583
 C237 C -0.14872 0.34382 0.89282
 C238 C -0.09801 0.38005 0.89946
 C239 C -0.08198 0.40100 0.91530
 H240 H -0.07828 0.34762 0.84246
 H241 H -0.10831 0.30276 0.81260
 H242 H -0.19101 0.31094 0.88608
 H243 H -0.15977 0.35534 0.91540
 C244 C 0.12049 0.64701 0.87876
 C245 C 0.15212 0.65858 0.89028
 C246 C 0.16909 0.68480 0.87300
 C247 C 0.15467 0.70030 0.84368
 C248 C 0.12285 0.68763 0.83217
 C249 C 0.10604 0.66141 0.84959
 C250 C 0.10236 0.62108 0.89746
 C251 C 0.08676 0.59985 0.91337
 H252 H 0.16360 0.64750 0.91285
 H253 H 0.19347 0.69255 0.88306
 H254 H 0.11015 0.69800 0.81008
 H255 H 0.08149 0.65263 0.84045
 C256 C 1.11570 0.12086 0.35470
 C257 C 1.10176 0.14980 0.33929
 C258 C 1.11948 0.16677 0.31338
 C259 C 1.15171 0.15502 0.30208
 C260 C 1.16558 0.12598 0.31858
 C261 C 1.14771 0.10916 0.34448
 C262 C 1.09673 0.10257 0.38029
 C263 C 1.08060 0.08687 0.40128
 H264 H 1.07691 0.15906 0.34701
 H265 H 1.10714 0.18863 0.30210
 H266 H 1.19026 0.11585 0.31194
 H267 H 1.15882 0.08679 0.35636
 C268 C 1.11727 -0.11736 0.64468
 C269 C 1.14671 -0.10313 0.65872
 C270 C 1.16441 -0.12027 0.68450
 C271 C 1.15290 -0.15219 0.69708
 C272 C 1.12331 -0.16638 0.68195
 C273 C 1.10576 -0.14909 0.65616
 C274 C 1.09833 -0.09890 0.61922
 C275 C 1.08223 -0.08304 0.59836
 H276 H 1.15586 -0.07850 0.65000
 H277 H 1.18670 -0.10773 0.69459
 H278 H 1.11323 -0.19083 0.68965
 H279 H 1.08297 -0.16041 0.64536
 C280 C 0.87910 -0.11954 0.35343
 C281 C 0.89108 -0.15126 0.34247
 C282 C 0.87431 -0.16886 0.31638
 C283 C 0.84503 -0.15501 0.30040
 C284 C 0.83300 -0.12308 0.31245
 C285 C 0.84993 -0.10563 0.33855
 C286 C 0.89734 -0.10080 0.37922
 C287 C 0.91301 -0.08485 0.40035
 H288 H 0.91365 -0.16233 0.35393
 H289 H 0.88469 -0.19332 0.30915
 H290 H 0.81093 -0.11077 0.30163
 H291 H 0.84044 -0.08100 0.34685
 C292 C 0.87727 0.11919 0.64657
 C293 C 0.88912 0.15101 0.65740
 C294 C 0.87247 0.16847 0.68367
 C295 C 0.84345 0.15436 0.69995
 C296 C 0.83155 0.12233 0.68804
 C297 C 0.84835 0.10502 0.66176
 C298 C 0.89539 0.10058 0.62060
 C299 C 0.91093 0.08469 0.59933
 H300 H 0.91149 0.16229 0.64570
 H301 H 0.88272 0.19303 0.69079
 H302 H 0.80969 0.10981 0.69910
 H303 H 0.83897 0.08030 0.65357
 C304 C 0.35409 1.11557 0.12252
 C305 C 0.35138 1.15109 0.11949
 C306 C 0.32544 1.16860 0.13660
 C307 C 0.30181 1.15078 0.15698
 C308 C 0.30503 1.11510 0.16013
 C309 C 0.33097 1.09766 0.14299
 C310 C 0.37990 1.09732 0.10388
 C311 C 0.40104 1.08166 0.08795
 H312 H 0.36917 1.16521 0.10372
 H313 H 0.32394 1.19607 0.13399
 H314 H 0.28703 1.10053 0.17515
 H315 H 0.33272 1.07013 0.14537
 C316 C 0.64596 1.12079 -0.11509
 C317 C 0.66900 1.14125 -0.09708
 C318 C 0.69485 1.15865 -0.11443
 C319 C 0.69805 1.15577 -0.15010
 C320 C 0.67451 1.13538 -0.16800
 C321 C 0.64865 1.11801 -0.15059
 C322 C 0.62020 1.10193 -0.09694
 C323 C 0.59909 1.08586 -0.08135
 H324 H 0.66726 1.14344 -0.06957
 H325 H 0.71279 1.17368 -0.09979
 H326 H 0.67600 1.13297 -0.19547
 H327 H 0.63092 1.10224 -0.16478
 C328 C 0.35373 0.88348 -0.12105
 C329 C 0.33095 0.90178 -0.14151
 C330 C 0.30504 0.88471 -0.15907
 C331 C 0.30151 0.84902 -0.15637
 C332 C 0.32478 0.83081 -0.13596
 C333 C 0.35070 0.84795 -0.11842
 C334 C 0.37956 0.90137 -0.10205
 C335 C 0.40070 0.91679 -0.08590
 H336 H 0.33295 0.92931 -0.14358
 H337 H 0.28732 0.89958 -0.17410
 H338 H 0.32303 0.80332 -0.13367
 H339 H 0.36822 0.83353 -0.10266
 C340 C 0.64615 0.87711 0.11688
 C341 C 0.64906 0.87996 0.15236
 C342 C 0.67508 0.86274 0.16963
 C343 C 0.69857 0.84242 0.15160
 C344 C 0.69516 0.83945 0.11596
 C345 C 0.66915 0.85670 0.09876
 C346 C 0.62026 0.89586 0.09887
 C347 C 0.59907 0.91187 0.08338
 H348 H 0.63137 0.89569 0.16664
 H349 H 0.67673 0.86521 0.19708
 H350 H 0.71305 0.82448 0.10122
 H351 H 0.66724 0.85447 0.07126
   
