data_POSCAR
  _audit_creation_date              2014-09-24
  _audit_creation_method            'ToBaCCo'
  _symmetry_space_group_name_H-M    'P1'
  _symmetry_Int_Tables_number       1
  _symmetry_cell_setting            triclinic
  loop_
  _symmetry_equiv_pos_as_xyz
 x,y,z
_cell_length_a 18.7794
_cell_length_b 18.7743
_cell_length_c 18.6795
_cell_angle_alpha 89.542100
_cell_angle_beta 90.454000
_cell_angle_gamma 90.559000
loop_
  _atom_site_label
  _atom_site_type_symbol
  _atom_site_fract_x
  _atom_site_fract_y
  _atom_site_fract_z
O1 O 0.59690 0.18222 -0.02039
 O2 O 0.67431 0.08849 -0.02197
 C3 C 0.66025 0.15563 -0.02659
 O4 O 0.41747 0.00831 0.19089
 O5 O 0.33339 -0.00095 0.10148
 C6 C 0.35180 0.00631 0.16779
 O7 O 0.61985 0.01478 0.17272
 O8 O 0.68441 0.01204 0.06926
 C9 C 0.67994 0.01429 0.13838
 O10 O 0.39443 0.17521 -0.00840
 O11 O 0.32367 0.07644 0.00850
 C12 C 0.33256 0.14421 -0.00094
 Zr13 Zr 0.49752 0.12690 -0.00843
 O14 O 0.49616 0.21024 0.06721
 O15 O 0.49447 0.20135 -0.09404
 Zr16 Zr 0.51393 0.00857 0.12986
 O17 O 0.51415 0.09519 0.20172
 O18 O 0.52910 -0.06441 0.21546
 O19 O 0.56942 0.08023 0.06367
 O20 O 0.44553 0.07536 0.07443
 O21 O 0.38303 -0.00904 -0.16949
 O22 O 0.31786 -0.01054 -0.06626
 C23 C 0.32307 -0.00913 -0.13527
 O24 O 0.60867 -0.17750 0.00410
 O25 O 0.67921 -0.07798 -0.00872
 C26 C 0.67046 -0.14608 -0.00326
 O27 O 0.40749 -0.18400 0.03278
 O28 O 0.32902 -0.09103 0.03061
 C29 C 0.34402 -0.15770 0.03896
 O30 O 0.58402 -0.01862 -0.18691
 O31 O 0.66871 -0.00638 -0.09852
 C32 C 0.64966 -0.01694 -0.16426
 Zr33 Zr 0.48840 -0.01135 -0.12626
 O34 O 0.47300 -0.09856 -0.19601
 O35 O 0.48758 0.05999 -0.21451
 Zr36 Zr 0.50543 -0.12938 0.01152
 O37 O 0.49155 -0.21148 -0.06453
 O38 O 0.52291 -0.20573 0.09347
 Zr39 Zr 0.60449 0.00253 -0.00823
 Zr40 Zr 0.39799 -0.00496 0.01165
 O41 O 0.43472 -0.08211 -0.05968
 O42 O 0.55896 -0.07838 -0.07193
 O43 O 0.42949 0.06455 -0.07165
 O44 O 0.57117 -0.06660 0.07456
 O45 O 0.55237 0.06811 -0.08333
 O46 O 0.44865 -0.07144 0.08731
 H47 H 0.41524 0.10644 0.10378
 H48 H 0.60658 -0.09336 0.10338
 H49 H 0.39903 -0.11390 -0.08271
 H50 H 0.58109 0.09524 -0.11869
 H51 H 0.48798 -0.09774 0.21531
 H52 H 0.49599 -0.18990 0.13562
 H53 H 0.53325 -0.21001 -0.09657
 H54 H 0.51472 -0.12991 -0.19035
 H55 H 0.45347 0.09801 -0.20330
 H56 H 0.45261 0.18922 -0.12415
 H57 H 0.54110 0.20772 0.09508
 H58 H 0.55517 0.12627 0.18938
 O59 O 0.01988 0.41758 -0.19037
 O60 O 0.00776 0.33278 -0.10197
 C61 C 0.01816 0.35181 -0.16772
 O62 O 0.18530 0.59405 0.03007
 O63 O 0.09243 0.67263 0.02719
 C64 C 0.15900 0.65754 0.03620
 O65 O 0.17892 0.39293 0.00103
 O66 O 0.07953 0.32230 -0.01223
 C67 C 0.14759 0.33109 -0.00642
 O68 O 0.00894 0.61948 -0.17280
 O69 O 0.01156 0.68393 -0.06936
 C70 C 0.00914 0.67956 -0.13847
 Zr71 Zr 0.01256 0.51361 -0.12982
 O72 O 0.09983 0.52944 -0.19936
 O73 O -0.05821 0.51434 -0.21846
 Zr74 Zr 0.13077 0.49618 0.00819
 O75 O 0.21269 0.51014 -0.06802
 O76 O 0.20722 0.47858 0.08997
 O77 O 0.07973 0.44290 -0.07551
 O78 O 0.08350 0.56706 -0.06316
 O79 O -0.17347 0.60752 -0.01038
 O80 O -0.07480 0.67812 0.00811
 C81 C -0.14252 0.66929 -0.00163
 O82 O -0.01526 0.38275 0.16960
 O83 O -0.01231 0.31765 0.06642
 C84 C -0.01547 0.32285 0.13534
 O85 O -0.00677 0.58377 0.18748
 O86 O 0.00248 0.66807 0.09830
 C87 C -0.00478 0.64942 0.16457
 O88 O -0.18073 0.40473 -0.02323
 O89 O -0.08704 0.32729 -0.02572
 C90 C -0.15421 0.34135 -0.02955
 Zr91 Zr -0.12543 0.50423 -0.01211
 O92 O -0.20992 0.50559 0.06219
 O93 O -0.19862 0.50750 -0.09882
 Zr94 Zr -0.00700 0.48774 0.12621
 O95 O -0.09255 0.48805 0.19930
 O96 O 0.06722 0.47189 0.21062
 Zr97 Zr -0.00105 0.39703 -0.01184
 Zr98 Zr 0.00635 0.60366 0.00816
 O99 O -0.07387 0.55589 0.07091
 O100 O -0.07872 0.43241 0.05996
 O101 O -0.06329 0.57253 -0.07513
 O102 O 0.06795 0.43018 0.07105
 O103 O -0.06667 0.44932 -0.08690
 O104 O 0.07286 0.55305 0.08381
 H105 H 0.11510 0.60299 -0.08609
 H106 H 0.09426 0.39449 0.09996
 H107 H -0.10496 0.58571 0.10074
 H108 H -0.09385 0.42059 -0.12221
 H109 H 0.19108 0.50487 0.13241
 H110 H 0.09901 0.51420 0.21205
 H111 H -0.12594 0.44953 0.18506
 H112 H -0.20651 0.46165 0.09153
 H113 H -0.18880 0.55169 -0.12635
 H114 H -0.09777 0.54626 -0.20619
 H115 H 0.13098 0.48751 -0.19410
 H116 H 0.21121 0.46838 -0.10000
 O117 O -0.18791 -0.00827 0.58820
 O118 O -0.09796 0.00365 0.67137
 C119 C -0.16409 -0.00682 0.65366
 O120 O 0.00168 -0.18823 0.41307
 O121 O 0.01025 -0.09743 0.33047
 C122 C 0.00362 -0.16405 0.34772
 O123 O -0.00819 -0.17418 0.61575
 O124 O -0.01351 -0.07278 0.68313
 C125 C -0.01113 -0.14124 0.67681
 O126 O -0.17442 -0.00015 0.38494
 O127 O -0.07345 -0.01000 0.31777
 C128 C -0.14158 -0.00377 0.32391
 Zr129 Zr -0.12962 -0.00072 0.49110
 O130 O -0.21297 -0.07645 0.48038
 O131 O -0.20497 0.08244 0.49141
 Zr132 Zr -0.00227 -0.12897 0.50995
 O133 O -0.08263 -0.20875 0.50626
 O134 O 0.07756 -0.20651 0.52573
 O135 O -0.07953 -0.07078 0.56294
 O136 O -0.07150 -0.07784 0.43966
 O137 O -0.00203 0.17136 0.38441
 O138 O 0.00682 0.07020 0.31731
 C139 C 0.00113 0.13832 0.32342
 O140 O 0.17117 0.00631 0.61605
 O141 O 0.06977 0.01128 0.68344
 C142 C 0.13813 0.00924 0.67710
 O143 O 0.18602 -0.00363 0.41327
 O144 O 0.09528 -0.00949 0.33037
 C145 C 0.16202 -0.00407 0.34784
 O146 O 0.00608 0.18599 0.58758
 O147 O -0.00520 0.09622 0.67107
 C148 C 0.00503 0.16243 0.65311
 Zr149 Zr -0.00156 0.12721 0.49090
 O150 O 0.07399 0.21071 0.47999
 O151 O -0.08477 0.20252 0.49105
 Zr152 Zr 0.12652 -0.00012 0.50998
 O153 O 0.20665 0.07990 0.50636
 O154 O 0.20377 -0.08021 0.52587
 Zr155 Zr -0.00855 0.00626 0.60455
 Zr156 Zr 0.00555 -0.00810 0.39643
 O157 O 0.07532 0.06903 0.43968
 O158 O 0.06845 0.07721 0.56281
 O159 O -0.07044 0.06801 0.42652
 O160 O 0.06680 -0.06917 0.57202
 O161 O -0.07857 0.07633 0.55240
 O162 O 0.07614 -0.07856 0.44775
 H163 H -0.10033 -0.10838 0.40732
 H164 H 0.09458 -0.09688 0.60768
 H165 H 0.10579 0.09825 0.40763
 H166 H -0.10844 0.10632 0.58336
 H167 H 0.11111 -0.20211 0.48533
 H168 H 0.20000 -0.11321 0.48495
 H169 H 0.19797 0.11294 0.54630
 H170 H 0.11682 0.19585 0.50708
 H171 H -0.11159 0.19727 0.44558
 H172 H -0.19921 0.10979 0.44631
 H173 H -0.19828 -0.11902 0.50801
 H174 H -0.11523 -0.20038 0.54663
 C175 C -0.27892 0.20119 -0.04657
 C176 C -0.22590 0.17541 -0.08960
 C177 C -0.17495 0.22654 -0.09057
 C178 C -0.20010 0.28030 -0.04806
 O179 O -0.26396 0.26562 -0.02116
 H180 H -0.22387 0.12405 -0.11546
 H181 H -0.12406 0.22415 -0.11727
 C182 C 0.28395 0.79624 0.06006
 C183 C 0.23053 0.82121 0.10309
 C184 C 0.17924 0.77014 0.10218
 C185 C 0.20475 0.71737 0.05865
 O186 O 0.26884 0.73266 0.03282
 H187 H 0.22814 0.87227 0.12950
 H188 H 0.12778 0.77225 0.12780
 C189 C 0.26551 0.18470 -0.00350
 C190 C 0.20104 0.14891 -0.00331
 C191 C 0.15108 0.19942 -0.00488
 C192 C 0.18755 0.26361 -0.00584
 O193 O 0.25798 0.25527 -0.00491
 H194 H 0.19137 0.09203 -0.00138
 H195 H 0.09407 0.19030 -0.00490
 C196 C -0.26208 0.81405 -0.00330
 C197 C -0.19796 0.85063 -0.00232
 C198 C -0.14739 0.80077 -0.00192
 C199 C -0.18309 0.73626 -0.00281
 O200 O -0.25365 0.74364 -0.00357
 H201 H -0.18892 0.90764 -0.00184
 H202 H -0.09055 0.81053 -0.00032
 C203 C -0.02207 -0.29167 0.21231
 C204 C -0.07040 -0.24130 0.19006
 C205 C -0.06654 -0.18918 0.23902
 C206 C -0.01615 -0.21098 0.28820
 O207 O 0.01135 -0.27403 0.27279
 H208 H -0.10310 -0.24178 0.14213
 H209 H -0.09637 -0.14020 0.23867
 C210 C 0.03638 0.29334 0.78428
 C211 C 0.08726 0.24478 0.80464
 C212 C 0.08159 0.19108 0.75726
 C213 C 0.02762 0.21024 0.71102
 O214 O -0.00045 0.27291 0.72678
 H215 H 0.12271 0.24734 0.85043
 H216 H 0.11276 0.14309 0.75670
 C217 C -0.01504 0.25479 0.17479
 C218 C -0.01216 0.19092 0.13914
 C219 C -0.00446 0.14088 0.19052
 C220 C -0.00397 0.17702 0.25460
 O221 O -0.01015 0.24695 0.24552
 H222 H -0.01339 0.18202 0.08195
 H223 H 0.00124 0.08433 0.18209
 C224 C 0.00487 -0.25818 0.82574
 C225 C 0.00358 -0.19362 0.86088
 C226 C -0.00471 -0.14386 0.80944
 C227 C -0.00723 -0.18035 0.74563
 O228 O -0.00119 -0.25045 0.75493
 H229 H 0.00801 -0.18368 0.91775
 H230 H -0.00801 -0.08700 0.81760
 C231 C 0.25508 -0.00548 0.82537
 C232 C 0.19118 -0.00450 0.86108
 C233 C 0.14097 0.00320 0.80991
 C234 C 0.17712 0.00583 0.74583
 O235 O 0.24714 0.00053 0.75474
 H236 H 0.18220 -0.00869 0.91811
 H237 H 0.08415 0.00610 0.81837
 C238 C -0.25784 0.01245 0.17440
 C239 C -0.19330 0.00906 0.13943
 C240 C -0.14383 0.00117 0.19120
 C241 C -0.18036 0.00137 0.25498
 O242 O -0.25029 0.00836 0.24537
 H243 H -0.18334 0.01038 0.08241
 H244 H -0.08727 -0.00491 0.18317
 C245 C 0.29236 0.02351 0.21509
 C246 C 0.24189 0.07144 0.19200
 C247 C 0.18850 0.06646 0.23952
 C248 C 0.20967 0.01594 0.28885
 O249 O 0.27348 -0.01066 0.27481
 H250 H 0.24302 0.10435 0.14419
 H251 H 0.13919 0.09576 0.23817
 C252 C -0.29232 -0.03556 0.78759
 C253 C -0.24396 -0.08674 0.80754
 C254 C -0.19158 -0.08253 0.75862
 C255 C -0.21132 -0.02903 0.71204
 O256 O -0.27310 0.00009 0.72897
 H257 H -0.24589 -0.12162 0.85381
 H258 H -0.14396 -0.11420 0.75737
   
