data_POSCAR
  _audit_creation_date              2014-09-24
  _audit_creation_method            'ToBaCCo'
  _symmetry_space_group_name_H-M    'P1'
  _symmetry_Int_Tables_number       1
  _symmetry_cell_setting            triclinic
  loop_
  _symmetry_equiv_pos_as_xyz
 x,y,z
_cell_length_a 60.6357
_cell_length_b 60.4444
_cell_length_c 60.6215
_cell_angle_alpha 89.940100
_cell_angle_beta 90.002600
_cell_angle_gamma 90.074700
loop_
  _atom_site_label
  _atom_site_type_symbol
  _atom_site_fract_x
  _atom_site_fract_y
  _atom_site_fract_z
N1 N 0.59915 0.66028 0.61615
 N2 N 0.59077 0.65151 0.63413
 C3 C 0.57297 0.66331 0.64027
 C4 C 0.56998 0.68046 0.62532
 C5 C 0.58700 0.67792 0.61024
 H6 H 0.56292 0.65962 0.65452
 H7 H 0.59037 0.68807 0.59595
 Cu8 Cu 0.60388 0.62523 0.64726
 Cu9 Cu 0.62517 0.64822 0.60161
 Cu10 Cu 0.64854 0.60136 0.62503
 N11 N 0.61698 0.59895 0.66039
 N12 N 0.63438 0.58965 0.65147
 C13 C 0.63998 0.57171 0.66333
 C14 C 0.62528 0.56947 0.68080
 C15 C 0.61090 0.58721 0.67829
 H16 H 0.65376 0.56113 0.65935
 H17 H 0.59697 0.59131 0.68860
 N18 N 0.66041 0.61575 0.59832
 N19 N 0.65153 0.63355 0.58941
 C20 C 0.66342 0.63944 0.57158
 C21 C 0.68070 0.62465 0.56906
 C22 C 0.67818 0.60985 0.58637
 H23 H 0.65976 0.65353 0.56125
 H24 H 0.68855 0.59584 0.59011
 H25 H 0.62066 0.61592 0.61194
 H26 H 0.63881 0.63375 0.62930
 N27 N 0.90140 0.33943 0.11575
 N28 N 0.91005 0.34844 0.13346
 C29 C 0.92791 0.33671 0.13952
 C30 C 0.93068 0.31928 0.12482
 C31 C 0.91340 0.32168 0.10994
 H32 H 0.93805 0.34062 0.15364
 H33 H 0.90966 0.31136 0.09590
 Cu34 Cu 0.89689 0.37450 0.14689
 Cu35 Cu 0.87517 0.35128 0.10147
 Cu36 Cu 0.85182 0.39807 0.12482
 N37 N 0.88385 0.40096 0.15967
 N38 N 0.86619 0.41001 0.15097
 C39 C 0.86047 0.42783 0.16293
 C40 C 0.87534 0.43020 0.18015
 C41 C 0.88998 0.41277 0.17748
 H42 H 0.84644 0.43821 0.15931
 H43 H 0.90403 0.40891 0.18773
 N44 N 0.83975 0.38353 0.09835
 N45 N 0.84863 0.36573 0.08947
 C46 C 0.83671 0.35983 0.07168
 C47 C 0.81943 0.37461 0.06915
 C48 C 0.82195 0.38940 0.08644
 H49 H 0.84041 0.34579 0.06133
 H50 H 0.81161 0.40345 0.09013
 H51 H 0.87974 0.38356 0.11169
 H52 H 0.86180 0.36569 0.12931
 N53 N 0.40089 0.16029 -0.11573
 N54 N 0.40955 0.15126 -0.13341
 C55 C 0.42745 0.16301 -0.13947
 C56 C 0.43019 0.18040 -0.12479
 C57 C 0.41294 0.17806 -0.10994
 H58 H 0.43766 0.15917 -0.15355
 H59 H 0.40931 0.18846 -0.09593
 Cu60 Cu 0.39636 0.12518 -0.14683
 Cu61 Cu 0.37463 0.14845 -0.10148
 Cu62 Cu 0.35120 0.10163 -0.12482
 N63 N 0.38328 0.09873 -0.15961
 N64 N 0.36557 0.08967 -0.15095
 C65 C 0.35983 0.07185 -0.16292
 C66 C 0.37474 0.06950 -0.18011
 C67 C 0.38941 0.08693 -0.17741
 H68 H 0.34579 0.06145 -0.15930
 H69 H 0.40347 0.09081 -0.18763
 N70 N 0.33913 0.11619 -0.09837
 N71 N 0.34805 0.13400 -0.08950
 C72 C 0.33613 0.13992 -0.07173
 C73 C 0.31880 0.12514 -0.06921
 C74 C 0.32130 0.11033 -0.08648
 H75 H 0.33985 0.15398 -0.06140
 H76 H 0.31094 0.09627 -0.09016
 H77 H 0.37911 0.11614 -0.11165
 H78 H 0.36125 0.13399 -0.12932
 N79 N 0.09862 0.83947 0.38419
 N80 N 0.08996 0.84849 0.36649
 C81 C 0.07214 0.83668 0.36037
 C82 C 0.06937 0.81921 0.37507
 C83 C 0.08664 0.82164 0.38996
 H84 H 0.06202 0.84060 0.34624
 H85 H 0.09036 0.81130 0.40400
 Cu86 Cu 0.10284 0.87482 0.35317
 Cu87 Cu 0.12481 0.85143 0.39849
 Cu88 Cu 0.14810 0.89829 0.37516
 N89 N 0.11615 0.90115 0.34027
 N90 N 0.13381 0.91022 0.34898
 C91 C 0.13957 0.92806 0.33701
 C92 C 0.12473 0.93040 0.31976
 C93 C 0.11009 0.91294 0.32241
 H94 H 0.15357 0.93849 0.34067
 H95 H 0.09606 0.90905 0.31214
 N96 N 0.16016 0.88381 0.40166
 N97 N 0.15130 0.86597 0.41055
 C98 C 0.16324 0.86009 0.42834
 C99 C 0.18052 0.87493 0.43084
 C100 C 0.17796 0.88974 0.41356
 H101 H 0.15957 0.84601 0.43870
 H102 H 0.18827 0.90384 0.40985
 H103 H 0.12018 0.88373 0.38835
 H104 H 0.13798 0.86594 0.37056
 C105 C 0.10846 0.14137 0.12512
 N106 N 0.10860 0.12541 0.14093
 C107 C 0.12438 0.10948 0.14108
 N108 N 0.14015 0.10962 0.12516
 C109 C 0.14027 0.12545 0.10922
 N110 N 0.12436 0.14126 0.10933
 C111 C 0.39112 0.85905 0.62511
 N112 N 0.39098 0.87498 0.64091
 C113 C 0.37519 0.89091 0.64105
 N114 N 0.35941 0.89078 0.62514
 C115 C 0.35929 0.87498 0.60921
 N116 N 0.37521 0.85918 0.60932
 C117 C 0.89133 0.64094 0.37473
 N118 N 0.89120 0.62498 0.35897
 C119 C 0.87541 0.60900 0.35884
 N120 N 0.85961 0.60912 0.37474
 C121 C 0.85948 0.62496 0.39064
 N122 N 0.87540 0.64080 0.39051
 C123 C 0.60913 0.35920 -0.12535
 N124 N 0.60928 0.37516 -0.14114
 C125 C 0.62510 0.39111 -0.14130
 N126 N 0.64090 0.39096 -0.12540
 C127 C 0.64100 0.37512 -0.10947
 N128 N 0.62505 0.35931 -0.10958
 C129 C -0.03602 0.26979 0.10897
 C130 C -0.01978 0.26988 0.12531
 C131 C -0.01994 0.28630 0.14152
 C132 C -0.03626 0.30261 0.14140
 C133 C -0.05281 0.30281 0.12500
 C134 C -0.05238 0.28606 0.10877
 C135 C -0.00294 0.25312 0.12540
 C136 C 0.01113 0.23906 0.12541
 C137 C 0.02758 0.22258 0.12537
 C138 C 0.04163 0.20849 0.12531
 C139 C 0.05839 0.19165 0.12524
 C140 C 0.05842 0.17524 0.14153
 C141 C 0.07468 0.15887 0.14149
 C142 C 0.09117 0.15870 0.12513
 C143 C 0.09096 0.17529 0.10882
 C144 C 0.07467 0.19165 0.10889
 H145 H -0.03606 0.25713 0.09633
 H146 H -0.00742 0.28651 0.15427
 H147 H -0.03570 0.31497 0.15425
 H148 H -0.06458 0.28531 0.09580
 H149 H 0.04588 0.17509 0.15426
 H150 H 0.07431 0.14637 0.15430
 H151 H 0.10336 0.17568 0.09597
 H152 H 0.07479 0.20428 0.09620
 C153 C 0.53533 0.73019 0.60882
 C154 C 0.51928 0.73032 0.62538
 C155 C 0.51970 0.71415 0.64190
 C156 C 0.53614 0.69793 0.64190
 C157 C 0.55244 0.69765 0.62534
 C158 C 0.55178 0.71401 0.60878
 C159 C 0.50244 0.74709 0.62543
 C160 C 0.48840 0.76120 0.62542
 C161 C 0.47199 0.77775 0.62535
 C162 C 0.45800 0.79190 0.62528
 C163 C 0.44127 0.80879 0.62519
 C164 C 0.44123 0.82518 0.64147
 C165 C 0.42495 0.84154 0.64145
 C166 C 0.40844 0.84173 0.62511
 C167 C 0.40866 0.82517 0.60879
 C168 C 0.42497 0.80883 0.60885
 H169 H 0.53515 0.74263 0.59594
 H170 H 0.50734 0.71408 0.65480
 H171 H 0.53597 0.68570 0.65492
 H172 H 0.56391 0.71445 0.59573
 H173 H 0.45378 0.82531 0.65419
 H174 H 0.42532 0.85401 0.65426
 H175 H 0.39624 0.82479 0.59597
 H176 H 0.42484 0.79622 0.59617
 C177 C 1.01986 0.78631 0.35841
 C178 C 1.01964 0.76985 0.37460
 C179 C 1.03588 0.76972 0.39096
 C180 C 1.05231 0.78597 0.39115
 C181 C 1.05280 0.80275 0.37491
 C182 C 1.03625 0.80260 0.35852
 C183 C 1.00277 0.75307 0.37446
 C184 C 0.98869 0.73896 0.37441
 C185 C 0.97225 0.72240 0.37443
 C186 C 0.95822 0.70825 0.37449
 C187 C 0.94147 0.69134 0.37457
 C188 C 0.92515 0.69130 0.39089
 C189 C 0.90885 0.67491 0.39098
 C190 C 0.90864 0.65831 0.37470
 C191 C 0.92516 0.65851 0.35837
 C192 C 0.94144 0.67492 0.35833
 H193 H 1.00735 0.78659 0.34565
 H194 H 1.03585 0.75703 0.40360
 H195 H 1.06451 0.78518 0.40412
 H196 H 1.03574 0.81498 0.34567
 H197 H 0.92502 0.70393 0.40356
 H198 H 0.89642 0.67528 0.40380
 H199 H 0.92554 0.64601 0.34560
 H200 H 0.95400 0.67479 0.34562
 C201 C 0.48049 0.21413 -0.14145
 C202 C 0.48066 0.23058 -0.12525
 C203 C 0.46438 0.23068 -0.10891
 C204 C 0.44799 0.21440 -0.10874
 C205 C 0.44763 0.19771 -0.12495
 C206 C 0.46412 0.19781 -0.14132
 C207 C 0.49752 0.24735 -0.12535
 C208 C 0.51162 0.26142 -0.12538
 C209 C 0.52811 0.27792 -0.12537
 C210 C 0.54217 0.29202 -0.12535
 C211 C 0.55895 0.30888 -0.12533
 C212 C 0.57528 0.30891 -0.10903
 C213 C 0.59160 0.32527 -0.10900
 C214 C 0.59181 0.34186 -0.12533
 C215 C 0.57528 0.34167 -0.14165
 C216 C 0.55898 0.32529 -0.14163
 H217 H 0.49302 0.21389 -0.15419
 H218 H 0.46435 0.24336 -0.09628
 H219 H 0.43568 0.21500 -0.09586
 H220 H 0.46450 0.18535 -0.15409
 H221 H 0.57541 0.29627 -0.09633
 H222 H 0.60405 0.32488 -0.09620
 H223 H 0.57490 0.35416 -0.15446
 H224 H 0.54641 0.32542 -0.15433
 C225 C 0.14060 -0.01921 0.28565
 C226 C 0.12423 -0.01931 0.26940
 C227 C 0.10802 -0.03578 0.26957
 C228 C 0.10817 -0.05212 0.28591
 C229 C 0.12457 -0.05223 0.30237
 C230 C 0.14080 -0.03553 0.30200
 C231 C 0.12411 -0.00251 0.25256
 C232 C 0.12409 0.01159 0.23848
 C233 C 0.12414 0.02812 0.22203
 C234 C 0.12421 0.04225 0.20799
 C235 C 0.12429 0.05914 0.19123
 C236 C 0.10802 0.07553 0.19120
 C237 C 0.10804 0.09192 0.17491
 C238 C 0.12437 0.09213 0.15840
 C239 C 0.14067 0.07557 0.15861
 C240 C 0.14061 0.05920 0.17492
 H241 H 0.15323 -0.00651 0.28567
 H242 H 0.09524 -0.03601 0.25708
 H243 H 0.09539 -0.06460 0.28553
 H244 H 0.15371 -0.03494 0.31428
 H245 H 0.09531 0.07564 0.20376
 H246 H 0.09525 0.10440 0.17528
 H247 H 0.15349 0.07521 0.14618
 H248 H 0.15329 0.04658 0.17480
 C249 C 0.64069 0.51951 -0.28626
 C250 C 0.62459 0.51981 -0.26977
 C251 C 0.60866 0.53649 -0.26968
 C252 C 0.60883 0.55289 -0.28598
 C253 C 0.62501 0.55290 -0.30274
 C254 C 0.64093 0.53586 -0.30259
 C255 C 0.62452 0.50302 -0.25291
 C256 C 0.62458 0.48894 -0.23881
 C257 C 0.62472 0.47244 -0.22232
 C258 C 0.62485 0.45833 -0.20825
 C259 C 0.62496 0.44145 -0.19148
 C260 C 0.64133 0.44142 -0.17521
 C261 C 0.64142 0.42505 -0.15888
 C262 C 0.62509 0.40846 -0.15862
 C263 C 0.60872 0.40865 -0.17511
 C264 C 0.60868 0.42503 -0.19140
 H265 H 0.65310 0.50664 -0.28650
 H266 H 0.59610 0.53687 -0.25698
 H267 H 0.59620 0.56546 -0.28523
 H268 H 0.65371 0.53493 -0.31497
 H269 H 0.65402 0.45405 -0.17512
 H270 H 0.65426 0.42543 -0.14649
 H271 H 0.59592 0.39615 -0.17545
 H272 H 0.59594 0.42489 -0.20393
 C273 C 0.35875 1.01934 0.78560
 C274 C 0.37511 1.01947 0.76936
 C275 C 0.39137 1.03590 0.76958
 C276 C 0.39128 1.05215 0.78598
 C277 C 0.37489 1.05221 0.80244
 C278 C 0.35861 1.03556 0.80202
 C279 C 0.37523 1.00272 0.75250
 C280 C 0.37528 0.98866 0.73842
 C281 C 0.37529 0.97216 0.72196
 C282 C 0.37527 0.95806 0.70792
 C283 C 0.37524 0.94121 0.69116
 C284 C 0.35893 0.94115 0.67484
 C285 C 0.35888 0.92480 0.65855
 C286 C 0.37519 0.90824 0.65835
 C287 C 0.39152 0.90845 0.67487
 C288 C 0.39152 0.92483 0.69115
 H289 H 0.34607 1.00669 0.78559
 H290 H 0.40413 1.03616 0.75707
 H291 H 0.40409 1.06459 0.78563
 H292 H 0.34570 1.03494 0.81430
 H293 H 0.34624 0.95376 0.67470
 H294 H 0.34606 0.92517 0.64611
 H295 H 0.40432 0.89599 0.67525
 H296 H 0.40423 0.92471 0.70371
 C297 C 0.85933 0.48032 0.21442
 C298 C 0.87565 0.48022 0.23071
 C299 C 0.89188 0.46380 0.23054
 C300 C 0.89181 0.44754 0.21414
 C301 C 0.87547 0.44747 0.19762
 C302 C 0.85921 0.46410 0.19800
 C303 C 0.87572 0.49697 0.24757
 C304 C 0.87572 0.51105 0.26165
 C305 C 0.87568 0.52757 0.27809
 C306 C 0.87563 0.54170 0.29210
 C307 C 0.87556 0.55860 0.30882
 C308 C 0.89183 0.57503 0.30883
 C309 C 0.89179 0.59144 0.32507
 C310 C 0.87544 0.59163 0.34157
 C311 C 0.85913 0.57503 0.34138
 C312 C 0.85921 0.55864 0.32512
 H313 H 0.84667 0.49296 0.21439
 H314 H 0.90460 0.46356 0.24309
 H315 H 0.90460 0.43512 0.21451
 H316 H 0.84635 0.46472 0.18567
 H317 H 0.90456 0.57516 0.29629
 H318 H 0.90458 0.60395 0.32468
 H319 H 0.84629 0.57465 0.35378
 H320 H 0.84653 0.54599 0.32526
 C321 C 0.26858 0.10888 -0.03528
 C322 C 0.26859 0.12522 -0.01897
 C323 C 0.28497 0.14152 -0.01903
 C324 C 0.30128 0.14152 -0.03532
 C325 C 0.30146 0.12516 -0.05186
 C326 C 0.28487 0.10882 -0.05160
 C327 C 0.25180 0.12527 -0.00221
 C328 C 0.23773 0.12532 0.01183
 C329 C 0.22126 0.12539 0.02827
 C330 C 0.20719 0.12543 0.04231
 C331 C 0.19041 0.12545 0.05909
 C332 C 0.17410 0.14180 0.05909
 C333 C 0.15778 0.14183 0.07538
 C334 C 0.15756 0.12546 0.09193
 C335 C 0.17407 0.10909 0.09176
 C336 C 0.19036 0.10910 0.07544
 H337 H 0.25597 0.09616 -0.03539
 H338 H 0.28513 0.15426 -0.00646
 H339 H 0.31366 0.15438 -0.03484
 H340 H 0.28434 0.09594 -0.06394
 H341 H 0.17400 0.15453 0.04650
 H342 H 0.14536 0.15468 0.07499
 H343 H 0.17442 0.09624 0.10421
 H344 H 0.20291 0.09637 0.07559
 C345 C 0.71472 0.64114 0.51893
 C346 C 0.73106 0.62483 0.51892
 C347 C 0.73101 0.60848 0.53526
 C348 C 0.71468 0.60840 0.55154
 C349 C 0.69810 0.62472 0.55174
 C350 C 0.69837 0.64110 0.53520
 C351 C 0.74786 0.62485 0.50212
 C352 C 0.76192 0.62486 0.48806
 C353 C 0.77838 0.62487 0.47159
 C354 C 0.79244 0.62488 0.45753
 C355 C 0.80925 0.62490 0.44075
 C356 C 0.80931 0.60855 0.42443
 C357 C 0.82563 0.60854 0.40813
 C358 C 0.84215 0.62494 0.40793
 C359 C 0.84193 0.64131 0.42443
 C360 C 0.82559 0.64127 0.44071
 H361 H 0.71461 0.65389 0.50636
 H362 H 0.74359 0.59577 0.53541
 H363 H 0.71516 0.59551 0.56390
 H364 H 0.68601 0.65396 0.53469
 H365 H 0.79674 0.59579 0.42430
 H366 H 0.82528 0.59568 0.39571
 H367 H 0.85436 0.65418 0.42480
 H368 H 0.82570 0.65402 0.45326
 C369 C 0.78556 0.35831 0.01892
 C370 C 0.76924 0.37464 0.01887
 C371 C 0.76928 0.39096 0.03520
 C372 C 0.78556 0.39097 0.05153
 C373 C 0.80210 0.37462 0.05178
 C374 C 0.80186 0.35828 0.03523
 C375 C 0.75247 0.37466 0.00207
 C376 C 0.73842 0.37470 -0.01200
 C377 C 0.72198 0.37475 -0.02847
 C378 C 0.70792 0.37482 -0.04253
 C379 C 0.69114 0.37490 -0.05932
 C380 C 0.69117 0.39129 -0.07563
 C381 C 0.67488 0.39139 -0.09195
 C382 C 0.65830 0.37506 -0.09217
 C383 C 0.65844 0.35865 -0.07566
 C384 C 0.67475 0.35859 -0.05937
 H385 H 0.78569 0.34559 0.00634
 H386 H 0.75672 0.40369 0.03532
 H387 H 0.78507 0.40384 0.06388
 H388 H 0.81420 0.34541 0.03474
 H389 H 0.70379 0.40400 -0.07574
 H390 H 0.67529 0.40427 -0.10438
 H391 H 0.64595 0.34583 -0.07530
 H392 H 0.67457 0.34583 -0.04681
 C393 C 0.21458 0.85863 0.48096
 C394 C 0.23089 0.87500 0.48096
 C395 C 0.23080 0.89135 0.46462
 C396 C 0.21446 0.89134 0.44834
 C397 C 0.19792 0.87495 0.44815
 C398 C 0.19822 0.85858 0.46471
 C399 C 0.24771 0.87504 0.49772
 C400 C 0.26179 0.87506 0.51177
 C401 C 0.27826 0.87508 0.52822
 C402 C 0.29233 0.87508 0.54227
 C403 C 0.30913 0.87506 0.55905
 C404 C 0.30918 0.89137 0.57541
 C405 C 0.32548 0.89137 0.59173
 C406 C 0.34199 0.87500 0.59190
 C407 C 0.34177 0.85867 0.57536
 C408 C 0.32545 0.85872 0.55906
 H409 H 0.21450 0.84587 0.49354
 H410 H 0.24336 0.90411 0.46445
 H411 H 0.21492 0.90423 0.43598
 H412 H 0.18588 0.84567 0.46523
 H413 H 0.29662 0.90410 0.57556
 H414 H 0.32511 0.90419 0.60418
 H415 H 0.35420 0.84582 0.57497
 H416 H 0.32557 0.84601 0.54647
   
