data_POSCAR
  _audit_creation_date              2014-09-24
  _audit_creation_method            'ToBaCCo'
  _symmetry_space_group_name_H-M    'P1'
  _symmetry_Int_Tables_number       1
  _symmetry_cell_setting            triclinic
  loop_
  _symmetry_equiv_pos_as_xyz
 x,y,z
_cell_length_a 20.4918
_cell_length_b 21.9102
_cell_length_c 21.6315
_cell_angle_alpha 64.446000
_cell_angle_beta 63.701700
_cell_angle_gamma 113.379500
loop_
  _atom_site_label
  _atom_site_type_symbol
  _atom_site_fract_x
  _atom_site_fract_y
  _atom_site_fract_z
O1 O 0.53108 0.48036 0.08985
 O2 O 0.37751 0.44047 0.03917
 O3 O 0.47153 0.39194 0.04856
 O4 O 0.44728 0.54018 0.06803
 O5 O 0.59833 0.67196 -0.09703
 O6 O 0.61695 0.52278 -0.11793
 O7 O 0.52361 0.57222 -0.12585
 O8 O 0.67881 0.60799 -0.07580
 Cu9 Cu 0.44208 0.45015 0.07822
 Cu10 Cu 0.61918 0.60775 -0.12042
 C11 C 0.63161 0.54937 0.01542
 C12 C 0.42290 0.49800 -0.05132
 C13 C 0.54828 0.43178 -0.03733
 C14 C 0.51910 0.63196 -0.01280
 O15 O -0.11141 0.49893 0.57515
 O16 O -0.05522 0.35907 0.57039
 O17 O -0.05175 0.43135 0.64067
 O18 O -0.10397 0.43384 0.49647
 O19 O 0.06366 0.57581 0.35157
 O20 O 0.11667 0.56948 0.49658
 O21 O 0.11228 0.49873 0.42273
 O22 O 0.05485 0.63872 0.43129
 Cu23 Cu -0.09612 0.41828 0.58437
 Cu24 Cu 0.10376 0.58486 0.41193
 C25 C -0.03995 0.59230 0.50441
 C26 C 0.03698 0.40482 0.49374
 C27 C 0.04162 0.49853 0.59377
 C28 C -0.02822 0.50385 0.39922
 O29 O 0.55689 0.08591 0.51258
 O30 O 0.54744 0.03014 0.37823
 O31 O 0.50220 0.10627 0.42529
 O32 O 0.61568 0.01784 0.45501
 O33 O 0.45567 -0.13299 0.60193
 O34 O 0.34159 -0.04558 0.56908
 O35 O 0.38981 -0.12237 0.52415
 O36 O 0.39644 -0.06394 0.65703
 Cu37 Cu 0.57254 0.07497 0.42811
 Cu38 Cu 0.37982 -0.10662 0.60342
 C39 C 0.47570 0.02091 0.60858
 C40 C 0.46598 -0.05428 0.42764
 C41 C 0.40234 0.04478 0.49107
 C42 C 0.55574 -0.07201 0.53288
 C43 C 0.52423 0.02439 -0.16508
 C44 C 0.52859 -0.04273 -0.14263
 C45 C 0.52077 -0.08919 -0.06697
 C46 C 0.51685 -0.06283 -0.01764
 C47 C 0.52267 0.01229 -0.04725
 C48 C 0.52513 0.05553 -0.12057
 C49 C 0.52679 0.12721 -0.14613
 C50 C 0.53109 0.15935 -0.10361
 C51 C 0.53009 0.11804 -0.03178
 C52 C 0.52215 0.04165 -0.00080
 C53 C 0.50453 -0.11114 0.06195
 C54 C 0.50163 -0.08361 0.10930
 C55 C 0.51169 -0.00660 0.07796
 C56 C 0.50937 0.02252 0.12464
 C57 C 0.52505 0.10255 0.08854
 C58 C 0.53600 0.15044 0.01085
 H59 H 0.52809 0.16101 -0.20146
 H60 H 0.53568 0.21705 -0.12783
 H61 H 0.49601 -0.17126 0.08917
 H62 H 0.49214 -0.12267 0.17016
 H63 H 0.52894 -0.06549 -0.17843
 H64 H 0.52513 0.12583 0.12383
 C65 C 0.11132 0.51369 0.82289
 C66 C 0.17417 0.50539 0.82739
 C67 C 0.18288 0.50551 0.88829
 C68 C 0.12958 0.51661 0.94423
 C69 C 0.06449 0.52314 0.94210
 C70 C 0.05605 0.52262 0.88062
 C71 C -0.00880 0.52965 0.87957
 C72 C -0.06480 0.53603 0.93830
 C73 C -0.05911 0.53474 1.00135
 C74 C 0.00593 0.52817 1.00338
 C75 C 0.13908 0.52032 1.00338
 C76 C 0.08078 0.52380 1.06419
 C77 C 0.01138 0.52505 1.06772
 C78 C -0.05293 0.52279 1.13433
 C79 C -0.11524 0.53154 1.12958
 C80 C -0.11774 0.53892 1.06308
 H81 H -0.01738 0.52987 0.83358
 H82 H -0.11384 0.54066 0.93464
 H83 H 0.19093 0.51933 1.00432
 H84 H 0.08971 0.52433 1.10957
 H85 H 0.21393 0.49570 0.78566
 H86 H -0.16296 0.53182 1.17871
 C87 C -0.09859 -0.17047 0.51125
 C88 C -0.16863 -0.17201 0.51251
 C89 C -0.18333 -0.11613 0.51709
 C90 C -0.11929 -0.04858 0.50953
 C91 C -0.04632 -0.04314 0.50528
 C92 C -0.03721 -0.10543 0.50828
 C93 C 0.03088 -0.10270 0.51125
 C94 C 0.09335 -0.03631 0.50423
 C95 C 0.08933 0.02939 0.49570
 C96 C 0.01644 0.02380 0.49975
 C97 C -0.12815 0.01268 0.50789
 C98 C -0.06977 0.07509 0.50626
 C99 C 0.00575 0.08455 0.49886
 C100 C 0.07125 0.15349 0.48995
 C101 C 0.14535 0.15956 0.48301
 C102 C 0.15569 0.09958 0.48455
 H103 H 0.03647 -0.15217 0.51962
 H104 H 0.14444 -0.03784 0.50642
 H105 H -0.18073 0.01326 0.50805
 H106 H -0.08334 0.11724 0.50898
 H107 H -0.21585 -0.22057 0.51455
 H108 H 0.19698 0.21282 0.47445
 C109 C -0.29104 0.46406 1.13144
 C110 C -0.35149 0.46722 1.11954
 C111 C -0.30630 0.55589 1.03521
 C112 C -0.19990 0.64481 0.96691
 C113 C -0.13811 0.64106 0.97847
 C114 C -0.18361 0.54946 1.05962
 C115 C -0.03161 0.72940 0.90714
 N116 N 0.00909 0.81603 0.83118
 N117 N -0.04954 0.82016 0.82202
 C118 C -0.15248 0.73787 0.88732
 H119 H -0.32674 0.39346 1.19378
 H120 H -0.43262 0.39839 1.17347
 H121 H 0.01920 0.73043 0.91180
 H122 H -0.19642 0.74676 0.87755
 C123 C 0.35334 0.56441 0.81825
 C124 C 0.41182 0.56112 0.83357
 C125 C 0.36172 0.48355 0.93100
 C126 C 0.24968 0.39814 1.00891
 C127 C 0.19057 0.40180 0.99261
 C128 C 0.24266 0.48815 0.89861
 C129 C 0.07993 0.31896 1.07187
 N130 N 0.03186 0.23634 1.16027
 N131 N 0.08706 0.23072 1.17430
 C132 C 0.19377 0.30784 1.10183
 H133 H 0.39475 0.62990 0.74486
 H134 H 0.49705 0.62358 0.76970
 H135 H 0.03145 0.31859 1.06362
 H136 H 0.23305 0.29518 1.11682
 C137 C 0.00758 -0.19402 0.43173
 C138 C 0.02112 -0.25110 0.42979
 C139 C -0.06383 -0.35485 0.50720
 C140 C -0.16804 -0.39980 0.58502
 C141 C -0.18002 -0.34106 0.58945
 C142 C -0.09097 -0.23701 0.51253
 C143 C -0.28198 -0.38883 0.67130
 N144 N -0.36715 -0.48632 0.73939
 N145 N -0.35770 -0.53999 0.73195
 C146 C -0.26225 -0.50061 0.65763
 H147 H 0.07611 -0.11472 0.36996
 H148 H 0.10056 -0.21244 0.36645
 H149 H -0.29585 -0.35011 0.68209
 H150 H -0.26426 -0.54922 0.65537
 C151 C 0.03576 0.21259 0.56403
 C152 C 0.02858 0.27338 0.56464
 C153 C 0.05431 0.34745 0.48546
 C154 C 0.08617 0.35864 0.40494
 C155 C 0.09281 0.29642 0.40459
 C156 C 0.06658 0.22199 0.48543
 C157 C 0.12324 0.30943 0.32394
 N158 N 0.13902 0.37534 0.25278
 N159 N 0.13036 0.43170 0.25462
 C160 C 0.10709 0.42738 0.32642
 H161 H 0.01516 0.15628 0.62665
 H162 H 0.00211 0.26212 0.62794
 H163 H 0.13170 0.26603 0.31816
 H164 H 0.10252 0.47609 0.32247
 C165 C 0.58835 0.12332 -0.32957
 C166 C 0.57510 0.12161 -0.38671
 C167 C 0.47673 0.04074 -0.33787
 C168 C 0.38544 -0.02510 -0.23218
 C169 C 0.39935 -0.02312 -0.17444
 C170 C 0.50263 0.04681 -0.22330
 C171 C 0.30956 -0.09356 -0.06855
 N172 N 0.21153 -0.15840 -0.02460
 N173 N 0.19760 -0.15753 -0.07941
 C174 C 0.28082 -0.09300 -0.18149
 H175 H 0.66733 0.17860 -0.36739
 H176 H 0.64489 0.17771 -0.46823
 H177 H 0.31647 -0.09619 -0.02089
 H178 H 0.26380 -0.09347 -0.22203
 C179 C 0.56787 -0.00069 0.20163
 C180 C 0.55593 -0.02007 0.27796
 C181 C 0.46027 -0.06911 0.36944
 C182 C 0.37007 -0.11144 0.39009
 C183 C 0.38249 -0.09310 0.31253
 C184 C 0.48379 -0.03147 0.21604
 C185 C 0.29448 -0.13176 0.33129
 N186 N 0.19999 -0.18486 0.42219
 N187 N 0.18812 -0.20085 0.49482
 C188 C 0.26964 -0.16549 0.48183
 H189 H 0.64565 0.04654 0.12768
 H190 H 0.62506 0.01178 0.26153
 H191 H 0.30016 -0.12029 0.27446
 H192 H 0.25326 -0.18154 0.54426
 C193 C 0.59101 -0.15760 -0.05803
 C194 C 0.59002 -0.22606 -0.04416
 C195 C 0.50841 -0.30681 -0.01149
 C196 C 0.42548 -0.32015 0.00893
 C197 C 0.42351 -0.25352 0.00011
 C198 C 0.50891 -0.17021 -0.03691
 C199 C 0.33842 -0.26981 0.02402
 N200 N 0.26656 -0.34241 0.04503
 N201 N 0.27249 -0.40129 0.04664
 C202 C 0.34835 -0.39370 0.03079
 H203 H 0.65761 -0.09289 -0.08825
 H204 H 0.65534 -0.21407 -0.06276
 H205 H 0.32948 -0.22449 0.02428
 H206 H 0.34833 -0.44414 0.03375
 C207 C 0.45602 0.20774 0.03089
 C208 C 0.45957 0.27633 0.01968
 C209 C 0.55520 0.36963 -0.04144
 C210 C 0.65097 0.39666 -0.09721
 C211 C 0.64698 0.32662 -0.08669
 C212 C 0.54819 0.23127 -0.01954
 C213 C 0.74161 0.35310 -0.14139
 N214 N 0.83421 0.44405 -0.20171
 N215 N 0.83809 0.50955 -0.21004
 C216 C 0.74989 0.48893 -0.15946
 H217 H 0.38023 0.13438 0.08263
 H218 H 0.38617 0.25514 0.06202
 H219 H 0.74265 0.30236 -0.13674
 H220 H 0.75891 0.54486 -0.16822
 C221 C -0.25472 -0.08970 0.45365
 C222 C -0.31651 -0.07603 0.45692
 C223 C -0.39541 -0.10451 0.54217
 C224 C -0.41717 -0.15350 0.62886
 C225 C -0.35432 -0.16776 0.62539
 C226 C -0.26995 -0.13164 0.53539
 C227 C -0.36899 -0.21050 0.70723
 N228 N -0.44837 -0.23863 0.79086
 N229 N -0.50857 -0.22404 0.79429
 C230 C -0.49400 -0.18200 0.71552
 H231 H -0.18952 -0.06063 0.38400
 H232 H -0.29925 -0.03857 0.39026
 H233 H -0.41571 -0.24298 0.78199
 H234 H -0.54203 -0.17041 0.72165
 C235 C 0.21280 0.06204 0.56048
 C236 C 0.27078 0.04537 0.56275
 C237 C 0.35500 0.07752 0.47769
 C238 C 0.38564 0.13285 0.38587
 C239 C 0.32693 0.15077 0.38366
 C240 C 0.23748 0.11095 0.47319
 C241 C 0.35222 0.20252 0.29558
 N242 N 0.43702 0.23454 0.21192
 N243 N 0.49249 0.21535 0.21422
 C244 C 0.46795 0.16508 0.29889
 H245 H 0.14381 0.03073 0.62945
 H246 H 0.24697 0.00341 0.63301
 H247 H 0.40581 0.24050 0.21848
 H248 H 0.51262 0.15016 0.29700
 C249 C -0.01817 0.58797 1.19832
 C250 C -0.01092 0.58395 1.26102
 C251 C -0.04535 0.50069 1.34009
 C252 C -0.08804 0.41958 1.35569
 C253 C -0.09475 0.42410 1.29137
 C254 C -0.05749 0.51002 1.21058
 C255 C -0.13625 0.34295 1.30835
 N256 N -0.16400 0.26498 1.38114
 N257 N -0.15576 0.26147 1.43997
 C258 C -0.11997 0.33529 1.43057
 H259 H 0.00975 0.65368 1.13778
 H260 H 0.02260 0.64688 1.24723
 H261 H -0.14542 0.34140 1.26343
 H262 H -0.11474 0.32783 1.48037
 C263 C 0.16203 0.59081 0.66344
 C264 C 0.14487 0.58655 0.60896
 C265 C 0.06249 0.49621 0.65269
 C266 C -0.00007 0.40759 0.75279
 C267 C 0.01599 0.41257 0.80891
 C268 C 0.09730 0.50494 0.76391
 C269 C -0.05049 0.32419 0.90929
 N270 N -0.12527 0.23657 0.94946
 N271 N -0.13752 0.23138 0.89585
 C272 C -0.07723 0.31337 0.79905
 H273 H 0.22447 0.66203 0.62798
 H274 H 0.19471 0.65509 0.53270
 H275 H -0.04313 0.32387 0.95593
 H276 H -0.08904 0.30301 0.75925
   
