data_POSCAR
  _audit_creation_date              2014-09-24
  _audit_creation_method            'ToBaCCo'
  _symmetry_space_group_name_H-M    'P1'
  _symmetry_Int_Tables_number       1
  _symmetry_cell_setting            triclinic
  loop_
  _symmetry_equiv_pos_as_xyz
 x,y,z
_cell_length_a 23.5440
_cell_length_b 23.5072
_cell_length_c 58.6844
_cell_angle_alpha 83.324900
_cell_angle_beta 88.061000
_cell_angle_gamma 121.218700
loop_
  _atom_site_label
  _atom_site_type_symbol
  _atom_site_fract_x
  _atom_site_fract_y
  _atom_site_fract_z
C1 C -0.10100 0.08841 0.52502
 H2 H -0.05169 0.11112 0.51597
 C3 C -0.11166 0.12132 0.54139
 H4 H -0.07044 0.16946 0.54439
 C5 C -0.21185 -0.00513 0.53416
 H6 H -0.24985 -0.05547 0.53182
 C7 C -0.22445 0.02580 0.55095
 H8 H -0.27272 -0.00056 0.56117
 N9 N -0.15044 0.02589 0.52194
 C10 C -0.12431 -0.14217 0.51914
 H11 H -0.12648 -0.14821 0.50114
 C12 C -0.12641 -0.19169 0.53556
 H13 H -0.13024 -0.23592 0.53013
 C14 C -0.11930 -0.07851 0.54835
 H15 H -0.11635 -0.03437 0.55337
 C16 C -0.12163 -0.12662 0.56523
 H17 H -0.12019 -0.11877 0.58308
 Zn18 Zn -0.12853 -0.02465 0.50454
 N19 N -0.12202 -0.08755 0.52586
 C20 C 0.00287 0.01843 0.48554
 N21 N -0.04565 0.03354 0.48591
 C22 C -0.03683 0.08952 0.47260
 C23 C 0.02195 0.13216 0.45790
 C24 C 0.06224 0.05935 0.47085
 C25 C -0.24993 -0.13422 0.49465
 C26 C -0.29459 -0.17620 0.48037
 C27 C -0.23049 -0.08939 0.44774
 C28 C -0.18687 -0.04975 0.46262
 N29 N -0.19628 -0.07299 0.48554
 H30 H -0.00489 -0.02607 0.49631
 H31 H -0.07607 0.10056 0.47321
 H32 H 0.02723 0.17550 0.44702
 H33 H 0.09995 0.04610 0.47044
 H34 H -0.25678 -0.15170 0.51299
 H35 H -0.33668 -0.22390 0.48871
 H36 H -0.21673 -0.06922 0.42958
 H37 H -0.14371 -0.00145 0.45550
 C38 C -0.12662 -0.18473 0.55900
 C39 C -0.17338 0.08924 0.55507
 C40 C -0.28478 -0.15551 0.45614
 C41 C 0.07203 0.11679 0.45668
 C42 C 1.19832 0.10587 0.13652
 H43 H 1.20680 0.15214 0.14167
 C44 C 1.24377 0.10798 0.12009
 H45 H 1.28794 0.15603 0.11305
 C46 C 1.12846 -0.01246 0.13859
 H47 H 1.08216 -0.05877 0.14531
 C48 C 1.17274 -0.01263 0.12212
 H49 H 1.16023 -0.05942 0.11628
 N50 N 1.14141 0.04651 0.14504
 C51 C 0.97605 0.08066 0.14900
 H52 H 0.96218 0.07425 0.16730
 C53 C 0.93890 0.09254 0.13310
 H54 H 0.89716 0.09611 0.13929
 C55 C 1.04557 0.08161 0.11865
 H56 H 1.08619 0.07607 0.11288
 C57 C 1.01029 0.09393 0.10227
 H58 H 1.02417 0.09704 0.08418
 Zn59 Zn 1.07556 0.05120 0.16257
 N60 N 1.02782 0.07449 0.14158
 C61 C 1.10244 0.16393 0.18466
 N62 N 1.11901 0.11735 0.18202
 C63 C 1.16617 0.11459 0.19402
 C64 C 1.19664 0.15771 0.21007
 C65 C 1.13123 0.20764 0.20076
 C66 C 1.04168 -0.05750 0.19767
 C67 C 0.99917 -0.11146 0.21493
 C68 C 0.90486 -0.11669 0.19805
 C69 C 0.94913 -0.06342 0.18094
 N70 N 1.01625 -0.03271 0.18169
 H71 H 1.06603 0.16660 0.17469
 H72 H 1.17982 0.07835 0.19127
 H73 H 1.23253 0.15320 0.21995
 H74 H 1.11650 0.24347 0.20303
 H75 H 1.09510 -0.03387 0.19760
 H76 H 1.02072 -0.12900 0.22783
 H77 H 0.85190 -0.13652 0.19796
 H78 H 0.92940 -0.04481 0.16776
 C79 C 0.95571 0.09884 0.10938
 C80 C 1.23028 0.04853 0.11217
 C81 C 0.92969 -0.13992 0.21590
 C82 C 1.17831 0.20412 0.21392
 C83 C 0.16332 0.96305 0.85370
 H84 H 0.12500 0.91067 0.85417
 C85 C 0.21680 0.97996 0.86667
 H86 H 0.21911 0.94008 0.87701
 C87 C 0.20295 1.07835 0.84131
 H88 H 0.19637 1.11640 0.83184
 C89 C 0.25710 1.09757 0.85431
 H90 H 0.29231 1.15053 0.85455
 N91 N 0.15662 1.01195 0.84170
 C92 C -0.05172 0.95467 0.84931
 H93 H -0.06669 0.94847 0.83211
 C94 C -0.09324 0.95633 0.86661
 H95 H -0.13984 0.95107 0.86224
 C96 C 0.03029 0.97594 0.87485
 H97 H 0.07870 0.98464 0.87816
 C98 C -0.00864 0.97920 0.89236
 H99 H 0.01022 0.98752 0.90899
 Zn100 Zn 0.07410 0.98245 0.82927
 N101 N 0.00947 0.96593 0.85358
 C102 C -0.01252 0.85663 0.81367
 N103 N 0.05167 0.90507 0.81566
 C104 C 0.10409 0.90578 0.80486
 C105 C 0.09325 0.85824 0.79074
 C106 C -0.02569 0.80811 0.79947
 C107 C 0.08296 1.10487 0.81223
 C108 C 0.07917 1.15041 0.79569
 C109 C 0.07050 1.08136 0.76698
 C110 C 0.07448 1.03736 0.78399
 N111 N 0.07996 1.04931 0.80617
 H112 H -0.05345 0.85760 0.82210
 H113 H 0.15464 0.94563 0.80622
 H114 H 0.13585 0.86109 0.78179
 H115 H -0.07689 0.77219 0.79699
 H116 H 0.08619 1.11270 0.83007
 H117 H 0.08091 1.19396 0.80088
 H118 H 0.06357 1.06920 0.74965
 H119 H 0.07113 0.99254 0.77950
 C120 C -0.07044 0.97217 0.88828
 C121 C 0.26361 1.04791 0.86759
 C122 C 0.07192 1.13839 0.77274
 C123 C 0.02779 0.81014 0.78720
 C124 C 0.42874 0.02719 -0.00971
 C125 C 0.46737 0.03405 -0.02971
 C126 C 0.52506 0.03115 -0.02763
 C127 C 0.54294 0.01829 -0.00576
 C128 C 0.50161 0.00907 0.01407
 C129 C 0.44584 0.01549 0.01222
 C130 C 0.60497 0.01586 -0.00360
 C131 C 0.63899 0.03287 0.01625
 C132 C 0.69723 0.03135 0.01832
 C133 C 0.72265 0.01388 0.00036
 C134 C 0.69183 -0.00066 -0.01999
 C135 C 0.63193 -0.00150 -0.02156
 H136 H 0.38393 0.02901 -0.01118
 H137 H 0.55621 0.04024 -0.04324
 H138 H 0.51286 -0.00219 0.03110
 H139 H 0.62192 0.04935 0.02995
 H140 H 0.76691 0.01137 0.00241
 H141 H 0.60720 -0.01479 -0.03696
 C142 C -0.08888 0.59136 0.67450
 C143 C -0.08456 0.55784 0.69504
 C144 C -0.08945 0.49573 0.69510
 C145 C -0.09301 0.46956 0.67429
 C146 C -0.09412 0.50642 0.65362
 C147 C -0.09441 0.56584 0.65380
 C148 C -0.09313 0.40571 0.67386
 C149 C -0.11883 0.36785 0.65574
 C150 C -0.11367 0.31168 0.65392
 C151 C -0.08659 0.29007 0.67129
 C152 C -0.06313 0.32497 0.69000
 C153 C -0.06536 0.38320 0.69097
 H154 H -0.08625 0.63878 0.67454
 H155 H -0.08865 0.46940 0.71134
 H156 H -0.09454 0.48976 0.63720
 H157 H -0.14309 0.38148 0.64281
 H158 H -0.08296 0.24637 0.67011
 H159 H -0.04329 0.41153 0.70480
 C160 C 0.63621 0.67605 0.33147
 C161 C 0.62727 0.63556 0.31452
 C162 C 0.56868 0.57169 0.31674
 C163 C 0.51774 0.54920 0.33500
 C164 C 0.52828 0.59079 0.35190
 C165 C 0.58765 0.65385 0.35033
 C166 C 0.45330 0.48350 0.33588
 C167 C 0.41532 0.44507 0.35709
 C168 C 0.35449 0.38378 0.35768
 C169 C 0.33199 0.36023 0.33693
 C170 C 0.36893 0.39737 0.31569
 C171 C 0.42885 0.45910 0.31527
 H172 H 0.68118 0.72544 0.32999
 H173 H 0.56320 0.53944 0.30418
 H174 H 0.48985 0.57548 0.36595
 H175 H 0.43320 0.46178 0.37323
 H176 H 0.28527 0.31280 0.33732
 H177 H 0.45535 0.48860 0.29868
 C178 C -0.20840 0.07859 0.59689
 C179 C -0.18087 0.11887 0.57510
 C180 C -0.15356 0.18868 0.57317
 C181 C -0.14987 0.21842 0.59290
 C182 C -0.17458 0.17782 0.61487
 C183 C -0.20541 0.10779 0.61659
 C184 C -0.16556 0.20818 0.63477
 C185 C -0.13169 0.27868 0.63300
 C186 C -0.11007 0.31826 0.61100
 C187 C -0.11916 0.28841 0.59113
 H188 H -0.13286 0.22009 0.55642
 H189 H -0.22491 0.07585 0.63327
 H190 H -0.18316 0.17716 0.65165
 H191 H -0.10013 0.32027 0.57442
 H192 H -0.22915 0.02480 0.59887
 H193 H -0.08343 0.37267 0.60918
 C194 C 0.90518 0.81978 0.25867
 C195 C 0.88402 0.81205 0.23647
 C196 C 0.81715 0.76298 0.23442
 C197 C 0.77127 0.72609 0.25416
 C198 C 0.79285 0.73633 0.27630
 C199 C 0.86025 0.78183 0.27835
 C200 C 0.74622 0.70333 0.29601
 C201 C 0.67765 0.66186 0.29394
 C202 C 0.65709 0.65013 0.27183
 C203 C 0.70353 0.68148 0.25215
 H204 H 0.80010 0.75516 0.21750
 H205 H 0.87765 0.79032 0.29520
 H206 H 0.76313 0.71175 0.31293
 H207 H 0.68604 0.67296 0.23531
 H208 H 0.95582 0.85761 0.26099
 H209 H 0.60467 0.61898 0.26963
 C210 C 0.32264 0.11215 -0.10097
 C211 C 0.31370 0.06551 -0.11561
 C212 C 0.34636 0.02978 -0.11212
 C213 C 0.38335 0.03679 -0.09327
 C214 C 0.38870 0.08091 -0.07788
 C215 C 0.35996 0.11991 -0.08229
 C216 C 0.41978 0.08282 -0.05775
 C217 C 0.44492 0.04058 -0.05266
 C218 C 0.44262 -0.00033 -0.06871
 C219 C 0.41217 -0.00216 -0.08887
 H220 H 0.34044 -0.00572 -0.12349
 H221 H 0.36389 0.15426 -0.07074
 H222 H 0.42220 0.11526 -0.04562
 H223 H 0.40884 -0.03600 -0.10054
 H224 H 0.29761 0.13988 -0.10316
 H225 H 0.46144 -0.03346 -0.06511
 C226 C -0.17823 0.74272 0.59729
 C227 C -0.13418 0.76188 0.57723
 C228 C -0.09577 0.73224 0.57532
 C229 C -0.09886 0.68662 0.59384
 C230 C -0.14177 0.66974 0.61421
 C231 C -0.18217 0.69694 0.61558
 C232 C -0.14207 0.62772 0.63322
 C233 C -0.09921 0.60296 0.63248
 C234 C -0.05844 0.61775 0.61192
 C235 C -0.05833 0.65923 0.59272
 H236 H -0.06158 0.74685 0.55992
 H237 H -0.21567 0.68407 0.63101
 H238 H -0.17445 0.61565 0.64890
 H239 H -0.02523 0.67138 0.57725
 H240 H -0.20920 0.76393 0.59894
 H241 H -0.02484 0.59936 0.61101
 C242 C 0.16270 0.25106 0.24810
 C243 C 0.20562 0.24573 0.23246
 C244 C 0.27377 0.27655 0.23554
 C245 C 0.29832 0.31021 0.25447
 C246 C 0.25418 0.31312 0.27057
 C247 C 0.18674 0.28438 0.26702
 C248 C 0.27789 0.34328 0.29022
 C249 C 0.34523 0.37074 0.29400
 C250 C 0.38919 0.36972 0.27749
 C251 C 0.36593 0.33957 0.25791
 H252 H 0.30739 0.27339 0.22339
 H253 H 0.15228 0.28637 0.27914
 H254 H 0.24386 0.34471 0.30273
 H255 H 0.40051 0.33805 0.24570
 H256 H 0.10993 0.22725 0.24618
 H257 H 0.44120 0.39035 0.28013
 C258 C 0.92998 0.03194 -0.08014
 C259 C 0.89431 -0.01523 -0.09494
 C260 C 0.82378 -0.04777 -0.09266
 C261 C 0.79021 -0.03542 -0.07540
 C262 C 0.82748 0.01206 -0.06095
 C263 C 0.89710 0.04585 -0.06361
 C264 C 0.79479 0.02457 -0.04371
 C265 C 0.72466 -0.01197 -0.03967
 C266 C 0.68756 -0.05918 -0.05415
 C267 C 0.72007 -0.07038 -0.07199
 H268 H 0.79461 -0.08514 -0.10340
 H269 H 0.92636 0.08283 -0.05274
 H270 H 0.82444 0.06274 -0.03328
 H271 H 0.69037 -0.10732 -0.08280
 H272 H 0.98404 0.06084 -0.08182
 H273 H 0.63352 -0.08850 -0.05143
 C274 C 0.29417 0.10279 0.07313
 C275 C 0.27283 0.05163 0.09223
 C276 C 0.29070 0.00313 0.09174
 C277 C 0.32956 0.00598 0.07239
 C278 C 0.35017 0.05754 0.05329
 C279 C 0.33241 0.10573 0.05386
 C280 C 0.38805 0.06009 0.03384
 C281 C 0.40616 0.01199 0.03311
 C282 C 0.38633 -0.03864 0.05227
 C283 C 0.34813 -0.04177 0.07173
 H284 H 0.27481 -0.03632 0.10641
 H285 H 0.34770 0.14547 0.03934
 H286 H 0.40404 0.10000 0.01930
 H287 H 0.33293 -0.08163 0.08620
 H288 H 0.28006 0.13998 0.07288
 H289 H 0.39947 -0.07643 0.05203
 C290 C 0.64118 0.73062 0.44789
 C291 C 0.67725 0.80169 0.44131
 C292 C 0.67583 0.82640 0.41821
 C293 C 0.64661 0.78299 0.40196
 C294 C 0.61559 0.71287 0.40864
 C295 C 0.61121 0.68719 0.43178
 C296 C 0.59209 0.66998 0.39190
 C297 C 0.60063 0.69686 0.36847
 C298 C 0.62814 0.76643 0.36223
 C299 C 0.65054 0.80907 0.37884
 H300 H 0.69702 0.87958 0.41248
 H301 H 0.58706 0.63338 0.43728
 H302 H 0.57098 0.61638 0.39687
 H303 H 0.67345 0.86276 0.37342
 H304 H 0.64000 0.70706 0.46497
 H305 H 0.63409 0.78808 0.34434
 C306 C 0.08851 0.19518 0.73199
 C307 C 0.06151 0.18202 0.75510
 C308 C 0.02035 0.20645 0.76087
 C309 C 0.00380 0.24049 0.74367
 C310 C 0.02893 0.25061 0.72038
 C311 C 0.07235 0.22906 0.71480
 C312 C 0.00870 0.28033 0.70299
 C313 C -0.03645 0.30009 0.70853
 C314 C -0.05907 0.29232 0.73180
 C315 C -0.03926 0.26261 0.74923
 H316 H -0.00140 0.19624 0.77855
 H317 H 0.09267 0.23708 0.69707
 H318 H 0.02709 0.28702 0.68509
 H319 H -0.05882 0.25553 0.76699
 H320 H 0.12142 0.17823 0.72711
 H321 H -0.09402 0.30706 0.73642
 C322 C 0.94602 0.14782 0.07058
 C323 C 0.91475 0.10600 0.09191
 C324 C 0.84450 0.06582 0.09541
 C325 C 0.80640 0.06349 0.07721
 C326 C 0.83901 0.10266 0.05542
 C327 C 0.90852 0.14624 0.05251
 C328 C 0.80207 0.09498 0.03658
 C329 C 0.73295 0.04817 0.03909
 C330 C 0.70013 0.01243 0.06104
 C331 C 0.73663 0.02000 0.07999
 H332 H 0.81979 0.03311 0.11173
 H333 H 0.93415 0.17719 0.03599
 H334 H 0.82743 0.12309 0.01966
 H335 H 0.71068 -0.01010 0.09659
 H336 H 0.99992 0.18026 0.06763
 H337 H 0.64683 -0.02390 0.06324
 C338 C 0.15289 0.12725 0.42527
 C339 C 0.13196 0.15835 0.43961
 C340 C 0.16539 0.22906 0.43637
 C341 C 0.21703 0.26812 0.41835
 C342 C 0.23554 0.23606 0.40338
 C343 C 0.20420 0.16576 0.40729
 C344 C 0.28319 0.27459 0.38423
 C345 C 0.31242 0.34479 0.37974
 C346 C 0.29628 0.37658 0.39536
 C347 C 0.24888 0.33854 0.41451
 H348 H 0.15007 0.25348 0.44755
 H349 H 0.21800 0.14042 0.39603
 H350 H 0.29607 0.24983 0.37240
 H351 H 0.23562 0.36399 0.42589
 H352 H 0.12760 0.07288 0.42735
 H353 H 0.31807 0.43059 0.39215
 C354 C 0.05624 0.79918 0.74734
 C355 C 0.01648 0.76855 0.76870
 C356 C -0.03448 0.69994 0.77167
 C357 C -0.04551 0.66271 0.75340
 C358 C -0.00538 0.69486 0.73201
 C359 C 0.04555 0.76274 0.72922
 C360 C -0.01753 0.65918 0.71349
 C361 C -0.06970 0.59159 0.71574
 C362 C -0.10820 0.55889 0.73719
 C363 C -0.09629 0.59430 0.75590
 H364 H -0.06528 0.67581 0.78809
 H365 H 0.07651 0.78802 0.71289
 H366 H 0.01313 0.68437 0.69707
 H367 H -0.12742 0.56857 0.77218
 H368 H 0.09486 0.85215 0.74443
 H369 H -0.14863 0.50672 0.73923
   
