data_POSCAR
  _audit_creation_date              2014-09-24
  _audit_creation_method            'ToBaCCo'
  _symmetry_space_group_name_H-M    'P1'
  _symmetry_Int_Tables_number       1
  _symmetry_cell_setting            triclinic
  loop_
  _symmetry_equiv_pos_as_xyz
 x,y,z
_cell_length_a 69.3967
_cell_length_b 69.4243
_cell_length_c 20.7602
_cell_angle_alpha 89.917400
_cell_angle_beta 89.990900
_cell_angle_gamma 120.026200
loop_
  _atom_site_label
  _atom_site_type_symbol
  _atom_site_fract_x
  _atom_site_fract_y
  _atom_site_fract_z
C1 C 0.24622 0.49289 0.52753
 C2 C 0.24596 0.49299 0.46182
 C3 C 0.22685 0.49149 0.42529
 C4 C 0.26463 0.49424 0.42345
 C5 C 0.26375 0.49125 0.56405
 C6 C 0.22878 0.49408 0.56598
 C7 C 0.20509 0.47395 0.43646
 C8 C 0.18713 0.47310 0.40346
 C9 C 0.19075 0.48964 0.35839
 C10 C 0.21249 0.50686 0.34590
 C11 C 0.23045 0.50771 0.37899
 C12 C 0.26040 0.47791 0.37697
 C13 C 0.27796 0.47827 0.34297
 C14 C 0.29989 0.49505 0.35467
 C15 C 0.30418 0.51174 0.39961
 C16 C 0.28663 0.51142 0.43360
 C17 C 0.27636 0.50734 0.61056
 C18 C 0.29333 0.50630 0.64382
 C19 C 0.29771 0.48904 0.63131
 C20 C 0.28486 0.47265 0.58606
 C21 C 0.26787 0.47367 0.55283
 C22 C 0.22406 0.51134 0.55613
 C23 C 0.20691 0.51168 0.59049
 C24 C 0.19449 0.49494 0.63549
 C25 C 0.19954 0.47806 0.64680
 C26 C 0.21666 0.47768 0.61243
 H27 H 0.20203 0.46104 0.47109
 H28 H 0.17045 0.45960 0.41352
 H29 H 0.21561 0.51977 0.31108
 H30 H 0.24712 0.52127 0.36944
 H31 H 0.24355 0.46459 0.36824
 H32 H 0.27446 0.46528 0.30827
 H33 H 0.29020 0.52439 0.46843
 H34 H 0.27332 0.52093 0.62017
 H35 H 0.30315 0.51903 0.67884
 H36 H 0.28804 0.45917 0.57623
 H37 H 0.25804 0.46085 0.51805
 H38 H 0.23349 0.52436 0.52135
 H39 H 0.20319 0.52485 0.58151
 H40 H 0.19004 0.46503 0.68154
 H41 H 0.22012 0.46431 0.62092
 H42 H 0.32109 0.52485 0.40890
 C43 C 0.50672 -0.24709 0.53391
 C44 C 0.50697 -0.24720 0.46820
 C45 C 0.50860 -0.26470 0.43154
 C46 C 0.50594 -0.22965 0.42985
 C47 C 0.50817 -0.22804 0.57057
 C48 C 0.50537 -0.26584 0.57216
 C49 C 0.52605 -0.26901 0.44314
 C50 C 0.52706 -0.28593 0.40965
 C51 C 0.51081 -0.29852 0.36373
 C52 C 0.49370 -0.29395 0.35085
 C53 C 0.49265 -0.27705 0.38439
 C54 C 0.52247 -0.21749 0.38375
 C55 C 0.52225 -0.20027 0.34945
 C56 C 0.50541 -0.19516 0.36049
 C57 C 0.48855 -0.20760 0.40513
 C58 C 0.48873 -0.22485 0.43940
 C59 C 0.49182 -0.23169 0.61647
 C60 C 0.49261 -0.21377 0.64952
 C61 C 0.50987 -0.19207 0.63741
 C62 C 0.52653 -0.18838 0.59286
 C63 C 0.52577 -0.20628 0.55985
 C64 C 0.48819 -0.28780 0.56157
 C65 C 0.48781 -0.30543 0.59532
 C66 C 0.50444 -0.30125 0.64052
 C67 C 0.52121 -0.27933 0.65269
 C68 C 0.52161 -0.26171 0.61889
 H69 H 0.53876 -0.25937 0.47838
 H70 H 0.54043 -0.28927 0.41977
 H71 H 0.48108 -0.30356 0.31530
 H72 H 0.47917 -0.27387 0.37445
 H73 H 0.53581 -0.22101 0.37547
 H74 H 0.53537 -0.19075 0.31499
 H75 H 0.47561 -0.23430 0.47391
 H76 H 0.47821 -0.24836 0.62568
 H77 H 0.47967 -0.21682 0.68400
 H78 H 0.54002 -0.17166 0.58333
 H79 H 0.53878 -0.20316 0.52553
 H80 H 0.47529 -0.29128 0.52654
 H81 H 0.47469 -0.32229 0.58555
 H82 H 0.53417 -0.27585 0.68757
 H83 H 0.53491 -0.24489 0.62796
 H84 H 0.47540 -0.20382 0.41390
 C85 C 1.24650 0.75435 0.53571
 C86 C 1.24653 0.75426 0.46999
 C87 C 1.26538 0.77180 0.43232
 C88 C 1.22755 0.73681 0.43271
 C89 C 1.22890 0.73556 0.57341
 C90 C 1.26388 0.77339 0.57294
 C91 C 1.26136 0.78399 0.38554
 C92 C 1.27905 0.80122 0.35191
 C93 C 1.30095 0.80632 0.36431
 C94 C 1.30503 0.79382 0.40968
 C95 C 1.28733 0.77657 0.44326
 C96 C 1.20576 0.73256 0.44324
 C97 C 1.18793 0.71560 0.40948
 C98 C 1.19174 0.70289 0.36436
 C99 C 1.21347 0.70742 0.35246
 C100 C 1.23131 0.72437 0.38626
 C101 C 1.22421 0.71362 0.56312
 C102 C 1.20689 0.69597 0.59666
 C103 C 1.19425 0.70010 0.64133
 C104 C 1.19927 0.72200 0.65310
 C105 C 1.21657 0.73964 0.61953
 C106 C 1.27628 0.76973 0.61982
 C107 C 1.29317 0.78763 0.65360
 C108 C 1.29768 0.80934 0.64123
 C109 C 1.28499 0.81304 0.59562
 C110 C 1.26810 0.79514 0.56190
 H111 H 1.24455 0.78049 0.37619
 H112 H 1.27564 0.81072 0.31689
 H113 H 1.32187 0.79752 0.41962
 H114 H 1.29073 0.76709 0.47831
 H115 H 1.20256 0.74226 0.47794
 H116 H 1.17119 0.71230 0.41885
 H117 H 1.24801 0.72750 0.37717
 H118 H 1.23379 0.71018 0.52859
 H119 H 1.20324 0.67913 0.58721
 H120 H 1.18965 0.72544 0.68757
 H121 H 1.22001 0.75644 0.62835
 H122 H 1.27317 0.75306 0.62927
 H123 H 1.30282 0.78452 0.68884
 H124 H 1.28822 0.82973 0.58575
 H125 H 1.25842 0.79825 0.52682
 H126 H 1.21660 0.69772 0.31754
 C127 C 0.75383 0.50726 0.53420
 C128 C 0.75370 0.50734 0.46848
 C129 C 0.77127 0.50625 0.43045
 C130 C 0.73620 0.50890 0.43154
 C131 C 0.73505 0.50594 0.57219
 C132 C 0.77291 0.50886 0.57112
 C133 C 0.78341 0.52265 0.38401
 C134 C 0.80064 0.52236 0.34999
 C135 C 0.80578 0.50557 0.36163
 C136 C 0.79336 0.48882 0.40663
 C137 C 0.77610 0.48908 0.44064
 C138 C 0.73193 0.52639 0.44256
 C139 C 0.71496 0.52731 0.40896
 C140 C 0.70227 0.51092 0.36353
 C141 C 0.70681 0.49376 0.35121
 C142 C 0.72376 0.49280 0.38484
 C143 C 0.71310 0.48869 0.56178
 C144 C 0.69544 0.48828 0.59544
 C145 C 0.69958 0.50496 0.64036
 C146 C 0.72149 0.52181 0.65230
 C147 C 0.73914 0.52224 0.61859
 C148 C 0.76931 0.49264 0.61745
 C149 C 0.78725 0.49358 0.65082
 C150 C 0.80896 0.51087 0.63861
 C151 C 0.81259 0.52741 0.59358
 C152 C 0.79465 0.52649 0.56027
 H153 H 0.77987 0.53595 0.37525
 H154 H 0.81014 0.53538 0.31524
 H155 H 0.79715 0.47571 0.41586
 H156 H 0.76667 0.47605 0.47540
 H157 H 0.74163 0.53921 0.47748
 H158 H 0.71165 0.54072 0.41866
 H159 H 0.72691 0.47929 0.37538
 H160 H 0.70964 0.47574 0.52700
 H161 H 0.67859 0.47509 0.58585
 H162 H 0.72494 0.53481 0.68695
 H163 H 0.75595 0.53560 0.62751
 H164 H 0.75265 0.47902 0.62675
 H165 H 0.78419 0.48070 0.68563
 H166 H 0.82927 0.54095 0.58385
 H167 H 0.79771 0.53940 0.52563
 H168 H 0.69712 0.48102 0.31605
 C169 C 0.49255 0.24591 0.53623
 C170 C 0.49272 0.24621 0.47051
 C171 C 0.49125 0.26377 0.43358
 C172 C 0.49405 0.22879 0.43250
 C173 C 0.49087 0.22677 0.57312
 C174 C 0.49371 0.26457 0.57429
 C175 C 0.47370 0.26799 0.44435
 C176 C 0.47286 0.28504 0.41086
 C177 C 0.48939 0.29785 0.36576
 C178 C 0.50661 0.29337 0.35366
 C179 C 0.50749 0.27634 0.38720
 C180 C 0.47785 0.21672 0.38566
 C181 C 0.47831 0.19957 0.35180
 C182 C 0.49509 0.19445 0.36401
 C183 C 0.51166 0.20682 0.40937
 C184 C 0.51123 0.22400 0.44321
 C185 C 0.50689 0.23031 0.61999
 C186 C 0.50584 0.21234 0.65353
 C187 C 0.48864 0.19064 0.64093
 C188 C 0.47230 0.18706 0.59530
 C189 C 0.47333 0.20503 0.56182
 C190 C 0.51099 0.28654 0.56433
 C191 C 0.51128 0.30408 0.59812
 C192 C 0.49444 0.29981 0.64274
 C193 C 0.47754 0.27787 0.65424
 C194 C 0.47724 0.26033 0.62039
 H195 H 0.46077 0.25819 0.47901
 H196 H 0.45941 0.28830 0.42038
 H197 H 0.51946 0.30315 0.31875
 H198 H 0.52105 0.27324 0.37792
 H199 H 0.46454 0.22023 0.37650
 H200 H 0.46543 0.19011 0.31677
 H201 H 0.52410 0.23338 0.47831
 H202 H 0.52044 0.24696 0.62965
 H203 H 0.51857 0.21537 0.68880
 H204 H 0.45884 0.17038 0.58524
 H205 H 0.46057 0.20201 0.52674
 H206 H 0.52407 0.29010 0.52982
 H207 H 0.52449 0.32096 0.58889
 H208 H 0.46442 0.27431 0.68866
 H209 H 0.46385 0.24350 0.62898
 H210 H 0.52475 0.20304 0.41905
 C211 C 0.75404 0.24694 0.53506
 C212 C 0.75394 0.24666 0.46934
 C213 C 0.73649 0.22753 0.43257
 C214 C 0.77148 0.26533 0.43116
 C215 C 0.77310 0.26448 0.57187
 C216 C 0.73523 0.22954 0.57315
 C217 C 0.73222 0.20578 0.44415
 C218 C 0.71530 0.18783 0.41069
 C219 C 0.70265 0.19145 0.36482
 C220 C 0.70718 0.21312 0.35193
 C221 C 0.72409 0.23109 0.38543
 C222 C 0.78368 0.26110 0.38496
 C223 C 0.80089 0.27864 0.35084
 C224 C 0.80595 0.30056 0.36216
 C225 C 0.79347 0.30484 0.40690
 C226 C 0.77623 0.28731 0.44100
 C227 C 0.76948 0.27713 0.61790
 C228 C 0.78741 0.29417 0.65117
 C229 C 0.80912 0.29860 0.63916
 C230 C 0.81278 0.28566 0.59443
 C231 C 0.79485 0.26862 0.56121
 C232 C 0.71328 0.22480 0.56236
 C233 C 0.69561 0.20759 0.59612
 C234 C 0.69972 0.19513 0.64149
 C235 C 0.72160 0.20021 0.65383
 C236 C 0.73928 0.21739 0.62004
 H237 H 0.74189 0.20273 0.47940
 H238 H 0.71200 0.17113 0.42083
 H239 H 0.69753 0.21611 0.31643
 H240 H 0.72723 0.24775 0.37552
 H241 H 0.78020 0.24427 0.37646
 H242 H 0.81044 0.27514 0.31629
 H243 H 0.76675 0.29088 0.47558
 H244 H 0.75281 0.27409 0.62705
 H245 H 0.78432 0.30401 0.68575
 H246 H 0.82947 0.28882 0.58486
 H247 H 0.79794 0.25875 0.52680
 H248 H 0.70985 0.23423 0.52722
 H249 H 0.67874 0.20383 0.58635
 H250 H 0.72495 0.19068 0.68886
 H251 H 0.75608 0.22087 0.62927
 H252 H 0.79720 0.32174 0.41587
 N253 N 0.97679 0.45458 -0.06991
 N254 N 0.96025 0.43407 -0.07868
 N255 N 1.02351 0.49138 -0.11553
 N256 N 1.04029 0.49736 -0.15581
 N257 N 1.02363 0.47805 -0.07077
 N258 N 1.04051 0.47459 -0.07933
 N259 N 0.97668 0.46792 -0.11466
 N260 N 0.96005 0.45687 -0.15515
 C261 C 0.94999 0.43586 -0.13184
 C262 C 1.05066 0.48675 -0.13248
 N263 N 1.02360 0.54627 -0.07092
 N264 N 1.04049 0.56663 -0.07944
 N265 N 0.97666 0.50942 -0.11475
 N266 N 0.96002 0.50383 -0.15525
 N267 N 0.97676 0.52285 -0.07008
 N268 N 0.96019 0.52677 -0.07889
 N269 N 1.02349 0.53285 -0.11562
 N270 N 1.04030 0.54368 -0.15582
 Mn271 Mn 1.00007 0.50039 -0.11589
 C272 C 1.05067 0.56466 -0.13251
 C273 C 0.94995 0.51475 -0.13202
 N274 N 1.02388 0.47812 0.06800
 N275 N 1.04042 0.47416 0.07689
 N276 N 0.97716 0.46813 0.11354
 N277 N 0.96038 0.45731 0.15383
 N278 N 0.97704 0.45470 0.06886
 N279 N 0.96017 0.43434 0.07748
 N280 N 1.02399 0.49155 0.11267
 N281 N 1.04060 0.49711 0.15323
 Mn282 Mn 1.00034 0.46613 -0.00096
 C283 C 1.05066 0.48617 0.13005
 C284 C 0.95001 0.43632 0.13059
 N285 N 0.97699 0.52291 0.06869
 N286 N 0.96010 0.52636 0.07724
 N287 N 1.02395 0.53305 0.11257
 N288 N 1.04054 0.54410 0.15319
 N289 N 1.02384 0.54639 0.06785
 N290 N 1.04034 0.56691 0.07676
 N291 N 0.97713 0.50958 0.11344
 N292 N 0.96034 0.50358 0.15370
 Mn293 Mn 1.00030 0.53484 -0.00112
 Mn294 Mn 1.00057 0.50058 0.11380
 Cl295 Cl 1.00032 0.50049 -0.00104
 C296 C 0.94995 0.51419 0.13037
 C297 C 1.05057 0.56512 0.12998
 N298 N 0.47758 0.45388 0.06688
 N299 N 0.47362 0.43341 0.07649
 N300 N 0.46766 0.49078 0.11081
 N301 N 0.45688 0.49691 0.15059
 N302 N 0.45419 0.47730 0.06644
 N303 N 0.43384 0.47388 0.07478
 N304 N 0.49105 0.46736 0.11124
 N305 N 0.49664 0.45645 0.15230
 C306 C 0.48567 0.43537 0.12975
 C307 C 0.43587 0.48622 0.12737
 N308 N 0.52251 0.54558 0.06476
 N309 N 0.52656 0.56610 0.07370
 N310 N 0.53259 0.50889 0.11013
 N311 N 0.54367 0.50349 0.15111
 N312 N 0.54592 0.52220 0.06509
 N313 N 0.56645 0.52623 0.07414
 N314 N 0.50920 0.53228 0.10983
 N315 N 0.50380 0.54336 0.15071
 Mn316 Mn 0.50013 0.49982 0.11125
 C317 C 0.51471 0.56435 0.12730
 C318 C 0.56468 0.51439 0.12779
 N319 N 0.45397 0.47695 -0.07233
 N320 N 0.43346 0.47296 -0.08131
 N321 N 0.49075 0.46690 -0.11693
 N322 N 0.49671 0.45597 -0.15665
 N323 N 0.47743 0.45359 -0.07188
 N324 N 0.47395 0.43321 -0.07966
 N325 N 0.46729 0.49024 -0.11739
 N326 N 0.45623 0.49568 -0.15831
 Mn327 Mn 0.46556 0.46520 -0.00271
 C328 C 0.43523 0.48481 -0.13494
 C329 C 0.48609 0.43505 -0.13265
 N330 N 0.54570 0.52188 -0.07368
 N331 N 0.56606 0.52535 -0.08206
 N332 N 0.50879 0.53177 -0.11838
 N333 N 0.50263 0.54252 -0.15829
 N334 N 0.52225 0.54527 -0.07402
 N335 N 0.52563 0.56559 -0.08249
 N336 N 0.53223 0.50840 -0.11805
 N337 N 0.54304 0.50231 -0.15787
 Mn338 Mn 0.53432 0.53396 -0.00449
 Mn339 Mn 0.49977 0.49933 -0.11844
 Cl340 Cl 0.49994 0.49958 -0.00359
 C341 C 0.56405 0.51302 -0.13469
 C342 C 0.51329 0.56353 -0.13517
 N343 N 0.45432 -0.02362 0.07347
 N344 N 0.43398 -0.04047 0.08261
 N345 N 0.49139 0.02323 0.11711
 N346 N 0.49760 0.04009 0.15709
 N347 N 0.47776 0.02323 0.07320
 N348 N 0.47431 0.04009 0.08205
 N349 N 0.46795 -0.02359 0.11741
 N350 N 0.45728 -0.04041 0.15769
 C351 C 0.43618 -0.05071 0.13522
 C352 C 0.48680 0.05038 0.13447
 N353 N 0.54604 0.02322 0.06935
 N354 N 0.56659 0.03975 0.07778
 N355 N 0.50943 -0.02358 0.11500
 N356 N 0.50361 -0.04043 0.15490
 N357 N 0.52258 -0.02361 0.06955
 N358 N 0.52609 -0.04050 0.07724
 N359 N 0.53287 0.02322 0.11481
 N360 N 0.54408 0.03974 0.15546
 Mn361 Mn 0.50041 -0.00018 0.11683
 C362 C 0.56500 0.04985 0.13150
 C363 C 0.51413 -0.05075 0.13060
 N364 N 0.47701 0.02318 -0.06556
 N365 N 0.47303 0.03973 -0.07407
 N366 N 0.46676 -0.02362 -0.11076
 N367 N 0.45555 -0.04015 -0.15138
 N368 N 0.45360 -0.02362 -0.06529
 N369 N 0.43305 -0.04015 -0.07368
 N370 N 0.49016 0.02318 -0.11105
 N371 N 0.49551 0.03972 -0.15182
 Mn372 Mn 0.46544 -0.00021 0.00399
 C373 C 0.48473 0.04984 -0.12789
 C374 C 0.43463 -0.05027 -0.12738
 N375 N 0.52193 -0.02357 -0.06920
 N376 N 0.52581 -0.04012 -0.07881
 N377 N 0.53169 0.02322 -0.11335
 N378 N 0.54234 0.04012 -0.15340
 N379 N 0.54532 0.02325 -0.06940
 N380 N 0.56563 0.04016 -0.07829
 N381 N 0.50830 -0.02360 -0.11316
 N382 N 0.50252 -0.04018 -0.15395
 Mn383 Mn 0.53420 -0.00018 0.00006
 Mn384 Mn 0.49923 -0.00021 -0.11284
 Cl385 Cl 0.49982 -0.00019 0.00199
 C386 C 0.51355 -0.05029 -0.13166
 C387 C 0.56343 0.05045 -0.13079
 C388 C 1.10319 0.47057 0.26457
 C389 C 1.12211 0.46926 0.22891
 C390 C 1.13922 0.48847 0.27070
 C391 C 1.12059 0.48978 0.30683
 C392 C 1.10486 0.48776 0.21488
 C393 C 1.12197 0.50697 0.25667
 C394 C 1.12348 0.48645 0.17872
 C395 C 1.14090 0.50567 0.22102
 C396 C 1.15828 0.48885 0.30231
 C397 C 1.17389 0.48920 0.32893
 C398 C 1.08562 0.48730 0.18420
 C399 C 1.06971 0.48684 0.15932
 H400 H 1.08747 0.45613 0.28215
 H401 H 1.12239 0.45376 0.21785
 H402 H 1.11961 0.49116 0.35986
 H403 H 1.12170 0.52247 0.26775
 H404 H 1.12446 0.48508 0.12569
 H405 H 1.15663 0.52010 0.20346
 C406 C 0.49362 0.61457 0.25338
 C407 C 0.51017 0.62954 0.30593
 C408 C 0.51249 0.65011 0.27094
 C409 C 0.49592 0.63543 0.21887
 C410 C 0.51330 0.61677 0.21361
 C411 C 0.51561 0.63734 0.17859
 C412 C 0.52986 0.63146 0.26569
 C413 C 0.53217 0.65232 0.23119
 C414 C 0.51199 0.66858 0.30338
 C415 C 0.51151 0.68365 0.33060
 C416 C 0.51377 0.59814 0.18220
 C417 C 0.51418 0.58275 0.15687
 H418 H 0.47777 0.59884 0.26215
 H419 H 0.50793 0.62654 0.35866
 H420 H 0.48197 0.63727 0.19998
 H421 H 0.51785 0.64032 0.12586
 H422 H 0.54381 0.62962 0.28460
 H423 H 0.54801 0.66805 0.22243
 C424 C 0.38303 -0.11077 0.29232
 C425 C 0.35825 -0.11707 0.28997
 C426 C 0.35184 -0.14124 0.27533
 C427 C 0.37635 -0.13523 0.27815
 C428 C 0.38477 -0.10616 0.21952
 C429 C 0.37839 -0.13033 0.20484
 C430 C 0.36026 -0.11218 0.21672
 C431 C 0.35358 -0.13665 0.20253
 C432 C 0.33344 -0.16057 0.30697
 C433 C 0.31822 -0.17624 0.33360
 C434 C 0.40310 -0.08648 0.18892
 C435 C 0.41818 -0.07019 0.16419
 H436 H 0.39534 -0.09991 0.32891
 H437 H 0.34977 -0.11183 0.32533
 H438 H 0.38276 -0.14494 0.30375
 H439 H 0.38688 -0.13555 0.16947
 H440 H 0.35385 -0.10248 0.19114
 H441 H 0.34126 -0.14752 0.16597
 C442 C 0.87603 0.51196 0.17849
 C443 C 0.85830 0.49170 0.21722
 C444 C 0.85926 0.50762 0.27008
 C445 C 0.87668 0.52785 0.23186
 C446 C 0.89441 0.51003 0.21409
 C447 C 0.89534 0.52594 0.26696
 C448 C 0.87699 0.48980 0.25232
 C449 C 0.87764 0.50570 0.30565
 C450 C 0.83990 0.50653 0.30191
 C451 C 0.82421 0.50592 0.32877
 C452 C 0.91412 0.51149 0.18353
 C453 C 0.93044 0.51273 0.15897
 H454 H 0.87560 0.51456 0.12585
 H455 H 0.84284 0.47761 0.19714
 H456 H 0.87633 0.54349 0.22379
 H457 H 0.91078 0.54003 0.28710
 H458 H 0.87734 0.47417 0.26039
 H459 H 0.87808 0.50310 0.35828
 C460 C 0.48575 0.36290 0.18105
 C461 C 0.50512 0.36482 0.22292
 C462 C 0.48810 0.34958 0.27345
 C463 C 0.46874 0.34736 0.23210
 C464 C 0.48734 0.38306 0.21649
 C465 C 0.47032 0.36781 0.26703
 C466 C 0.50670 0.38527 0.25785
 C467 C 0.48969 0.36974 0.30886
 C468 C 0.48851 0.33101 0.30568
 C469 C 0.48888 0.31583 0.33275
 C470 C 0.48684 0.40172 0.18515
 C471 C 0.48636 0.41709 0.15971
 H472 H 0.48412 0.36029 0.12813
 H473 H 0.51943 0.36337 0.20514
 H474 H 0.45313 0.33157 0.22187
 H475 H 0.45601 0.36925 0.28484
 H476 H 0.52230 0.40106 0.26809
 H477 H 0.49131 0.37235 0.36177
 C478 C 0.63789 0.12242 0.18071
 C479 C 0.63597 0.13997 0.22200
 C480 C 0.65113 0.13825 0.27286
 C481 C 0.65334 0.12101 0.23208
 C482 C 0.61765 0.10393 0.21638
 C483 C 0.63281 0.10222 0.26724
 C484 C 0.61545 0.12118 0.25716
 C485 C 0.63088 0.11976 0.30848
 C486 C 0.66966 0.15729 0.30490
 C487 C 0.68478 0.17289 0.33188
 C488 C 0.59894 0.08473 0.18547
 C489 C 0.58348 0.06886 0.16057
 H490 H 0.64055 0.12329 0.12781
 H491 H 0.63749 0.15571 0.20375
 H492 H 0.66912 0.12115 0.22213
 H493 H 0.63130 0.08649 0.28550
 H494 H 0.59966 0.12104 0.26711
 H495 H 0.62821 0.11887 0.36138
 C496 C 0.48400 0.12218 -0.17709
 C497 C 0.50367 0.14007 -0.21730
 C498 C 0.48706 0.13839 -0.26903
 C499 C 0.46740 0.12081 -0.22933
 C500 C 0.48623 0.10401 -0.21273
 C501 C 0.46963 0.10234 -0.26446
 C502 C 0.50588 0.12160 -0.25244
 C503 C 0.48929 0.12021 -0.30463
 C504 C 0.48755 0.15745 -0.30099
 C505 C 0.48801 0.17306 -0.32794
 C506 C 0.48574 0.08478 -0.18190
 C507 C 0.48530 0.06888 -0.15703
 H508 H 0.48182 0.12278 -0.12429
 H509 H 0.51766 0.15581 -0.19827
 H510 H 0.45159 0.12070 -0.22018
 H511 H 0.45563 0.08661 -0.28352
 H512 H 0.52170 0.12171 -0.26160
 H513 H 0.49147 0.11961 -0.35742
 C514 C 0.63558 0.51033 -0.18035
 C515 C 0.63318 0.49036 -0.22007
 C516 C 0.64868 0.50668 -0.27157
 C517 C 0.65137 0.52663 -0.23235
 C518 C 0.61566 0.50892 -0.21690
 C519 C 0.63117 0.52523 -0.26840
 C520 C 0.61297 0.48896 -0.25612
 C521 C 0.62876 0.50526 -0.30807
 C522 C 0.66711 0.50570 -0.30271
 C523 C 0.68233 0.50519 -0.32907
 C524 C 0.59728 0.51031 -0.18699
 C525 C 0.58213 0.51153 -0.16289
 H526 H 0.63818 0.51244 -0.12749
 H527 H 0.63422 0.47601 -0.20056
 H528 H 0.66737 0.54211 -0.22290
 H529 H 0.63015 0.53958 -0.28795
 H530 H 0.59696 0.47349 -0.26556
 H531 H 0.62615 0.50316 -0.36093
 C532 C 0.88330 0.35946 -0.18902
 C533 C 0.86090 0.35835 -0.20425
 C534 C 0.86133 0.34957 -0.27182
 C535 C 0.88342 0.35039 -0.25708
 C536 C 0.89573 0.38324 -0.21622
 C537 C 0.89615 0.37445 -0.28379
 C538 C 0.87365 0.38243 -0.23096
 C539 C 0.87377 0.37336 -0.29900
 C540 C 0.84227 0.33091 -0.30339
 C541 C 0.82667 0.31567 -0.33002
 C542 C 0.91499 0.40202 -0.18570
 C543 C 0.93092 0.41747 -0.16097
 H544 H 0.88743 0.35395 -0.14344
 H545 H 0.84619 0.35151 -0.17190
 H546 H 0.88723 0.33700 -0.26816
 H547 H 0.91085 0.38128 -0.31617
 H548 H 0.86984 0.39582 -0.21989
 H549 H 0.86964 0.37887 -0.34457
 C550 C 0.49975 -0.11488 -0.28079
 C551 C 0.52055 -0.11578 -0.30346
 C552 C 0.51092 -0.13890 -0.27247
 C553 C 0.49011 -0.13829 -0.25027
 C554 C 0.51163 -0.10452 -0.21700
 C555 C 0.50200 -0.12763 -0.18598
 C556 C 0.53244 -0.10513 -0.23921
 C557 C 0.52280 -0.12855 -0.20868
 C558 C 0.51057 -0.15796 -0.30386
 C559 C 0.51028 -0.17355 -0.33027
 C560 C 0.51214 -0.08527 -0.18637
 C561 C 0.51270 -0.06934 -0.16135
 H562 H 0.49028 -0.10904 -0.31010
 H563 H 0.52818 -0.11112 -0.35210
 H564 H 0.47271 -0.15215 -0.25517
 H565 H 0.49437 -0.13229 -0.13734
 H566 H 0.54985 -0.09128 -0.23434
 H567 H 0.53228 -0.13438 -0.17938
 C568 C 0.36137 0.48211 -0.18603
 C569 C 0.36284 0.50253 -0.22104
 C570 C 0.34930 0.48733 -0.27706
 C571 C 0.34754 0.46692 -0.24256
 C572 C 0.38276 0.48644 -0.22056
 C573 C 0.36922 0.47125 -0.27659
 C574 C 0.38452 0.50685 -0.25506
 C575 C 0.37070 0.49166 -0.31156
 C576 C 0.33076 0.48786 -0.30905
 C577 C 0.31562 0.48835 -0.33592
 C578 C 0.40145 0.48591 -0.18953
 C579 C 0.41685 0.48543 -0.16441
 H580 H 0.35775 0.47817 -0.13405
 H581 H 0.36000 0.51540 -0.19855
 H582 H 0.33213 0.45051 -0.23777
 H583 H 0.37206 0.45838 -0.29909
 H584 H 0.39994 0.52327 -0.25986
 H585 H 0.37433 0.49560 -0.36353
 C586 C 1.10549 0.63158 -0.26737
 C587 C 1.12420 0.65191 -0.23158
 C588 C 1.14157 0.64924 -0.27040
 C589 C 1.12315 0.62919 -0.30663
 C590 C 1.10633 0.61625 -0.21537
 C591 C 1.12369 0.61358 -0.25418
 C592 C 1.12474 0.63630 -0.17910
 C593 C 1.14243 0.63392 -0.21841
 C594 C 1.16099 0.66765 -0.30168
 C595 C 1.17673 0.68286 -0.32810
 C596 C 1.08656 0.59788 -0.18526
 C597 C 1.07021 0.58274 -0.16096
 H598 H 1.09009 0.63043 -0.28717
 H599 H 1.12463 0.66788 -0.22262
 H600 H 1.12271 0.62646 -0.35942
 H601 H 1.12326 0.59760 -0.26313
 H602 H 1.12517 0.63901 -0.12631
 H603 H 1.15784 0.63509 -0.19864
 C604 C 0.87823 0.49355 -0.25693
 C605 C 0.85958 0.49538 -0.22134
 C606 C 0.86122 0.51223 -0.27223
 C607 C 0.87956 0.51039 -0.30829
 C608 C 0.89565 0.51303 -0.21656
 C609 C 0.89727 0.52987 -0.26745
 C610 C 0.87731 0.51487 -0.18046
 C611 C 0.87864 0.53171 -0.23185
 C612 C 0.84214 0.51179 -0.30384
 C613 C 0.82652 0.51139 -0.33051
 C614 C 0.91492 0.51354 -0.18597
 C615 C 0.93086 0.51404 -0.16118
 H616 H 0.87827 0.47787 -0.26692
 H617 H 0.84386 0.48120 -0.20274
 H618 H 0.88028 0.50854 -0.36120
 H619 H 0.91298 0.54405 -0.28610
 H620 H 0.87660 0.51671 -0.12754
 H621 H 0.87859 0.54739 -0.22189
 C622 C 0.48851 0.36335 -0.17775
 C623 C 0.47237 0.34772 -0.23013
 C624 C 0.49245 0.35045 -0.26891
 C625 C 0.50861 0.36578 -0.21702
 C626 C 0.49012 0.38338 -0.21423
 C627 C 0.51021 0.38611 -0.25300
 C628 C 0.47398 0.36803 -0.26612
 C629 C 0.49407 0.37049 -0.30534
 C630 C 0.49351 0.33209 -0.30011
 C631 C 0.49409 0.31696 -0.32656
 C632 C 0.48872 0.40174 -0.18441
 C633 C 0.48751 0.41690 -0.16049
 H634 H 0.48620 0.36062 -0.12494
 H635 H 0.45683 0.33173 -0.22106
 H636 H 0.52287 0.36464 -0.19719
 H637 H 0.52575 0.40210 -0.26207
 H638 H 0.45972 0.36916 -0.28598
 H639 H 0.49637 0.37322 -0.35815
 C640 C 0.61214 0.12358 -0.25261
 C641 C 0.63246 0.14231 -0.21672
 C642 C 0.64783 0.14151 -0.26860
 C643 C 0.62780 0.12309 -0.30496
 C644 C 0.61484 0.10622 -0.21377
 C645 C 0.63022 0.10544 -0.26565
 C646 C 0.63486 0.12463 -0.17738
 C647 C 0.65051 0.12415 -0.22975
 C648 C 0.66625 0.16094 -0.29979
 C649 C 0.68147 0.17668 -0.32615
 C650 C 0.59649 0.08642 -0.18370
 C651 C 0.58141 0.07004 -0.15938
 H652 H 0.59615 0.12312 -0.26168
 H653 H 0.63359 0.15769 -0.19696
 H654 H 0.62510 0.12267 -0.35776
 H655 H 0.62910 0.09007 -0.28545
 H656 H 0.63755 0.12504 -0.12457
 H657 H 0.66650 0.12460 -0.22067
 C658 C 1.12315 0.51067 -0.25646
 C659 C 1.14222 0.50951 -0.22115
 C660 C 1.14121 0.49308 -0.27236
 C661 C 1.12245 0.49427 -0.30814
 C662 C 1.10614 0.49079 -0.21625
 C663 C 1.10516 0.47438 -0.26747
 C664 C 1.12489 0.48961 -0.18043
 C665 C 1.12420 0.47320 -0.23215
 C666 C 1.16052 0.49410 -0.30433
 C667 C 1.17615 0.49466 -0.33137
 C668 C 1.08646 0.48939 -0.18566
 C669 C 1.07016 0.48818 -0.16110
 H670 H 1.12249 0.52607 -0.26611
 H671 H 1.15767 0.52397 -0.20248
 H672 H 1.12167 0.49620 -0.36100
 H673 H 1.08971 0.45991 -0.28617
 H674 H 1.12567 0.48767 -0.12756
 H675 H 1.12486 0.45781 -0.22250
 C676 C 0.52489 0.63034 -0.26950
 C677 C 0.50471 0.62791 -0.30815
 C678 C 0.50643 0.64795 -0.27165
 C679 C 0.52660 0.65065 -0.23345
 C680 C 0.50887 0.61500 -0.21722
 C681 C 0.51059 0.63503 -0.18069
 C682 C 0.48869 0.61228 -0.25542
 C683 C 0.49039 0.63261 -0.21938
 C684 C 0.50534 0.66634 -0.30267
 C685 C 0.50475 0.68153 -0.32896
 C686 C 0.51037 0.59665 -0.18744
 C687 C 0.51169 0.58155 -0.16339
 H688 H 0.53909 0.62921 -0.28979
 H689 H 0.50227 0.62518 -0.36090
 H690 H 0.54217 0.66664 -0.22475
 H691 H 0.51303 0.63775 -0.12794
 H692 H 0.47313 0.59629 -0.26412
 H693 H 0.47619 0.63376 -0.19913
 C694 C 0.36608 -0.10261 -0.26053
 C695 C 0.36806 -0.11959 -0.30432
 C696 C 0.34833 -0.13858 -0.26838
 C697 C 0.34607 -0.12190 -0.22506
 C698 C 0.38189 -0.10431 -0.21205
 C699 C 0.36217 -0.12331 -0.17606
 C700 C 0.38414 -0.12100 -0.25537
 C701 C 0.36413 -0.14030 -0.21990
 C702 C 0.32975 -0.15758 -0.30042
 C703 C 0.31462 -0.17314 -0.32747
 C704 C 0.40065 -0.08513 -0.18124
 C705 C 0.41614 -0.06926 -0.15641
 H706 H 0.36709 -0.08690 -0.27691
 H707 H 0.37027 -0.11826 -0.35741
 H708 H 0.33020 -0.12248 -0.21297
 H709 H 0.35996 -0.12462 -0.12297
 H710 H 0.40001 -0.12043 -0.26748
 H711 H 0.36311 -0.15601 -0.20355
 C712 C 0.51164 -0.12495 0.17706
 C713 C 0.52777 -0.12440 0.22960
 C714 C 0.50768 -0.14161 0.26870
 C715 C 0.49152 -0.14249 0.21668
 C716 C 0.51014 -0.10641 0.21296
 C717 C 0.49005 -0.12362 0.25207
 C718 C 0.52629 -0.10556 0.26499
 C719 C 0.50618 -0.12306 0.30455
 C720 C 0.50653 -0.16100 0.30051
 C721 C 0.50585 -0.17671 0.32745
 C722 C 0.51159 -0.08665 0.18268
 C723 C 0.51279 -0.07030 0.15853
 H724 H 0.51391 -0.12550 0.12429
 H725 H 0.54326 -0.12494 0.22071
 H726 H 0.47721 -0.15789 0.19719
 H727 H 0.47456 -0.12308 0.26096
 H728 H 0.54060 -0.09016 0.28452
 H729 H 0.50392 -0.12250 0.35732
 C730 C 0.37380 0.47976 0.27442
 C731 C 0.37456 0.50158 0.29473
 C732 C 0.35149 0.49298 0.26438
 C733 C 0.35047 0.47117 0.24453
 C734 C 0.38438 0.49054 0.20955
 C735 C 0.36131 0.48194 0.17917
 C736 C 0.38541 0.51236 0.22938
 C737 C 0.36205 0.50377 0.19949
 C738 C 0.33315 0.49408 0.29564
 C739 C 0.31801 0.49470 0.32212
 C740 C 0.40270 0.48905 0.17961
 C741 C 0.41781 0.48776 0.15552
 H742 H 0.37883 0.46986 0.30490
 H743 H 0.37980 0.50968 0.34258
 H744 H 0.33589 0.45425 0.25110
 H745 H 0.35607 0.47384 0.13132
 H746 H 0.40000 0.52928 0.22282
 H747 H 0.35701 0.51366 0.16906
 C748 C 1.11924 0.61521 0.26649
 C749 C 1.14018 0.63345 0.23141
 C750 C 1.13880 0.65121 0.27203
 C751 C 1.11816 0.63325 0.30757
 C752 C 1.10458 0.61767 0.21545
 C753 C 1.10321 0.63543 0.25607
 C754 C 1.12522 0.63561 0.17986
 C755 C 1.12415 0.65367 0.22099
 C756 C 1.15777 0.66979 0.30415
 C757 C 1.17329 0.68496 0.33122
 C758 C 1.08542 0.59894 0.18443
 C759 C 1.06956 0.58351 0.15936
 H760 H 1.11700 0.59919 0.28484
 H761 H 1.15560 0.63285 0.22163
 H762 H 1.11546 0.63249 0.36044
 H763 H 1.08780 0.63603 0.26587
 H764 H 1.12790 0.63636 0.12698
 H765 H 1.12638 0.66968 0.20263
 C766 C 0.47486 0.10500 0.26996
 C767 C 0.49492 0.12254 0.30938
 C768 C 0.49335 0.14105 0.27337
 C769 C 0.47330 0.12380 0.23441
 C770 C 0.49104 0.10592 0.21792
 C771 C 0.48947 0.12443 0.18188
 C772 C 0.51110 0.12318 0.25688
 C773 C 0.50955 0.14201 0.22135
 C774 C 0.49436 0.16040 0.30487
 C775 C 0.49487 0.17607 0.33145
 C776 C 0.48961 0.08621 0.18757
 C777 C 0.48834 0.06989 0.16309
 H778 H 0.46058 0.08957 0.28962
 H779 H 0.49718 0.12198 0.36215
 H780 H 0.45777 0.12427 0.22552
 H781 H 0.48721 0.12498 0.12911
 H782 H 0.52663 0.12270 0.26579
 H783 H 0.52383 0.15745 0.20173
 C784 C 0.63381 0.50803 0.17968
 C785 C 0.65312 0.52795 0.21526
 C786 C 0.65066 0.51231 0.27104
 C787 C 0.63165 0.49239 0.23598
 C788 C 0.61718 0.51302 0.21403
 C789 C 0.61473 0.49738 0.26981
 C790 C 0.63619 0.53294 0.24910
 C791 C 0.63403 0.51730 0.30535
 C792 C 0.66922 0.51190 0.30331
 C793 C 0.68436 0.51150 0.33044
 C794 C 0.59849 0.51345 0.18273
 C795 C 0.58307 0.51385 0.15743
 H796 H 0.63351 0.50422 0.12765
 H797 H 0.66911 0.54052 0.19320
 H798 H 0.63000 0.47571 0.23095
 H799 H 0.59874 0.48482 0.29189
 H800 H 0.63785 0.54962 0.25416
 H801 H 0.63432 0.52111 0.35738
 C802 C 0.87632 0.36442 0.17902
 C803 C 0.87699 0.34934 0.23306
 C804 C 0.85940 0.35206 0.27050
 C805 C 0.85841 0.36684 0.21697
 C806 C 0.89452 0.38486 0.21446
 C807 C 0.87693 0.38758 0.25190
 C808 C 0.89548 0.37007 0.26799
 C809 C 0.87761 0.37251 0.30590
 C810 C 0.84005 0.33376 0.30236
 C811 C 0.82437 0.31865 0.32925
 C812 C 0.91422 0.40315 0.18385
 C813 C 0.93052 0.41824 0.15925
 H814 H 0.87601 0.36130 0.12650
 H815 H 0.87679 0.33341 0.22566
 H816 H 0.84294 0.36531 0.19637
 H817 H 0.87713 0.40351 0.25931
 H818 H 0.91094 0.37159 0.28863
 H819 H 0.87792 0.37564 0.35842
   
