data_POSCAR
  _audit_creation_date              2014-09-24
  _audit_creation_method            'ToBaCCo'
  _symmetry_space_group_name_H-M    'P1'
  _symmetry_Int_Tables_number       1
  _symmetry_cell_setting            triclinic
  loop_
  _symmetry_equiv_pos_as_xyz
 x,y,z
_cell_length_a 40.3089
_cell_length_b 23.4532
_cell_length_c 13.1087
_cell_angle_alpha 90.039200
_cell_angle_beta 89.802200
_cell_angle_gamma 90.318800
loop_
  _atom_site_label
  _atom_site_type_symbol
  _atom_site_fract_x
  _atom_site_fract_y
  _atom_site_fract_z
C1 C 0.72275 0.26928 0.56649
 C2 C 0.72079 0.27638 0.45907
 C3 C 0.74682 0.25798 0.39614
 C4 C 0.77506 0.23097 0.43596
 C5 C 0.77761 0.22546 0.54420
 C6 C 0.75076 0.24173 0.60641
 H7 H 0.75366 0.23877 0.68835
 H8 H 0.74334 0.26079 0.31443
 C9 C 0.22094 0.77682 0.55181
 C10 C 0.22044 0.76942 0.44527
 C11 C 0.24782 0.74439 0.39739
 C12 C 0.27426 0.72234 0.45496
 C13 C 0.27193 0.72039 0.56420
 C14 C 0.24554 0.75065 0.60998
 H15 H 0.24472 0.75752 0.69147
 H16 H 0.24862 0.74211 0.31479
 C17 C 0.27416 0.28472 -0.55221
 C18 C 0.27449 0.28286 -0.44478
 C19 C 0.24915 0.25346 -0.39319
 C20 C 0.22273 0.22674 -0.44515
 C21 C 0.22277 0.22745 -0.55484
 C22 C 0.24868 0.25715 -0.60516
 H23 H 0.24880 0.26062 -0.68761
 H24 H 0.24966 0.25256 -0.31042
 C25 C -0.21121 0.73731 -0.54319
 C26 C -0.21797 0.74759 -0.43859
 C27 C -0.24884 0.73034 -0.39866
 C28 C -0.27250 0.70184 -0.45896
 C29 C -0.26674 0.69568 -0.56594
 C30 C -0.23557 0.71222 -0.60512
 H31 H -0.23060 0.70940 -0.68622
 H32 H -0.25410 0.73730 -0.31852
 O33 O -0.04432 0.89161 0.17684
 O34 O -0.08204 0.94192 0.08301
 C35 C -0.07459 0.90404 0.15049
 O36 O 0.03945 1.10519 0.19285
 O37 O 0.07884 1.06130 0.09377
 C38 C 0.06996 1.09545 0.16703
 O39 O -0.05261 1.08682 0.19972
 O40 O -0.08669 1.03496 0.09426
 C41 C -0.08157 1.06909 0.17025
 O42 O 0.05028 0.90052 0.16484
 O43 O 0.08356 0.96390 0.07803
 C44 C 0.07926 0.92094 0.13876
 Zr45 Zr 0.00152 0.92679 0.12181
 O46 O 0.00550 0.92136 0.28252
 O47 O 0.00180 0.83673 0.11041
 Zr48 Zr -0.00514 1.07038 0.13681
 O49 O -0.00194 1.06864 0.29784
 O50 O -0.01281 1.15963 0.14096
 O51 O -0.03116 0.99367 0.14932
 O52 O 0.02687 1.00213 0.14767
 O53 O 0.04867 0.90668 -0.17803
 O54 O 0.08297 0.96677 -0.08817
 C55 C 0.07769 0.92491 -0.15073
 O56 O -0.05335 1.10176 -0.17288
 O57 O -0.08672 1.04164 -0.07963
 C58 C -0.08225 1.08185 -0.14580
 O59 O 0.03936 1.11853 -0.16845
 O60 O 0.07877 1.06749 -0.08227
 C61 C 0.06995 1.10683 -0.14652
 O62 O -0.04407 0.90766 -0.20031
 O63 O -0.08263 0.94760 -0.09315
 C64 C -0.07437 0.91687 -0.17116
 Zr65 Zr 0.00126 0.93610 -0.13588
 O66 O 0.00687 0.94379 -0.29598
 O67 O -0.00011 0.84636 -0.15174
 Zr68 Zr -0.00526 1.07939 -0.12014
 O69 O -0.00228 1.08510 -0.28111
 O70 O -0.01255 1.16848 -0.10855
 Zr71 Zr -0.05087 0.99600 0.00061
 Zr72 Zr 0.04749 1.01075 0.00038
 O73 O 0.02691 1.01227 -0.14685
 O74 O -0.03142 1.00423 -0.14808
 O75 O 0.03120 0.92501 -0.00808
 O76 O -0.03438 1.08108 0.00979
 O77 O -0.02687 0.91677 -0.00847
 O78 O 0.02400 1.09061 0.00966
 H79 H 0.04166 1.00170 0.20788
 H80 H -0.05092 1.11208 0.01432
 H81 H 0.04211 1.01531 -0.20617
 H82 H -0.04061 0.88168 -0.01294
 H83 H 0.00684 1.17817 0.10969
 H84 H 0.00576 1.18425 -0.06696
 H85 H -0.02025 1.06111 -0.30967
 H86 H -0.01257 0.96481 -0.32181
 H87 H 0.01405 0.83047 -0.09747
 H88 H 0.02224 0.82573 0.07349
 H89 H -0.01431 0.93983 0.31222
 H90 H -0.01600 1.03665 0.32187
 O91 O 0.45892 0.39825 0.18094
 O92 O 0.42005 0.44407 0.08365
 C93 C 0.42852 0.40847 0.15485
 O94 O 0.54054 0.61359 0.18331
 O95 O 0.58016 0.56664 0.08977
 C96 C 0.57123 0.60316 0.15858
 O97 O 0.44698 0.59461 0.18156
 O98 O 0.41444 0.53702 0.08077
 C99 C 0.41835 0.57423 0.15288
 O100 O 0.55172 0.40783 0.17514
 O101 O 0.58531 0.46993 0.08697
 C102 C 0.58067 0.42880 0.15126
 Zr103 Zr 0.50381 0.43210 0.12357
 O104 O 0.50600 0.42645 0.28445
 O105 O 0.50695 0.34265 0.10722
 Zr106 Zr 0.49583 0.57607 0.12792
 O107 O 0.49747 0.57651 0.28932
 O108 O 0.48787 0.66523 0.12650
 O109 O 0.47035 0.49902 0.14377
 O110 O 0.52814 0.50861 0.14662
 O111 O 0.55365 0.41253 -0.18313
 O112 O 0.58668 0.47084 -0.08533
 C113 C 0.58227 0.43234 -0.15504
 O114 O 0.45199 0.59490 -0.19515
 O115 O 0.41645 0.53984 -0.09921
 C116 C 0.42269 0.57576 -0.17238
 O117 O 0.54371 0.61742 -0.17452
 O118 O 0.58179 0.56742 -0.08097
 C119 C 0.57383 0.60579 -0.14698
 O120 O 0.46167 0.40354 -0.19999
 O121 O 0.42159 0.44515 -0.10079
 C122 C 0.43097 0.41224 -0.17495
 Zr123 Zr 0.50556 0.43404 -0.13172
 O124 O 0.50894 0.42602 -0.29197
 O125 O 0.50688 0.34400 -0.11934
 Zr126 Zr 0.49835 0.57841 -0.12838
 O127 O 0.50325 0.58509 -0.28873
 O128 O 0.48930 0.66713 -0.11852
 Zr129 Zr 0.45138 0.49713 -0.00608
 Zr130 Zr 0.54995 0.51328 0.00069
 O131 O 0.53044 0.51102 -0.14779
 O132 O 0.47303 0.50172 -0.15274
 O133 O 0.53506 0.42711 -0.00251
 O134 O 0.46750 0.58266 -0.00260
 O135 O 0.47587 0.41816 -0.00625
 O136 O 0.52619 0.59315 0.00232
 H137 H 0.54232 0.51013 0.20814
 H138 H 0.45051 0.61303 -0.00379
 H139 H 0.54551 0.51430 -0.20735
 H140 H 0.46217 0.38295 -0.00826
 H141 H 0.50710 0.68311 0.09175
 H142 H 0.50879 0.68504 -0.08557
 H143 H 0.48998 0.55385 -0.31916
 H144 H 0.50971 0.46507 -0.31995
 H145 H 0.52820 0.33358 -0.08729
 H146 H 0.50748 0.32700 0.17738
 H147 H 0.49046 0.45512 0.31187
 H148 H 0.47996 0.55017 0.31405
 C149 C 0.35477 0.32164 0.32588
 C150 C 0.34667 0.37050 0.26942
 N151 N 0.31515 0.39068 0.27296
 C152 C 0.29145 0.36430 0.33061
 C153 C 0.29964 0.31568 0.38775
 N154 N 0.33110 0.29520 0.38279
 N155 N 0.38621 0.30159 0.32357
 C156 C 0.41011 0.32834 0.26793
 C157 C 0.40230 0.37745 0.21126
 N158 N 0.37054 0.39723 0.21310
 H159 H 0.26646 0.38098 0.33200
 H160 H 0.43502 0.31137 0.26820
 C161 C -0.15784 0.82342 0.28641
 C162 C -0.12568 0.80703 0.31474
 N163 N -0.12193 0.76591 0.38689
 C164 C -0.14887 0.74116 0.43252
 C165 C -0.18097 0.75894 0.40563
 N166 N -0.18449 0.79921 0.33228
 N167 N -0.16206 0.86420 0.21498
 C168 C -0.13562 0.88989 0.17037
 C169 C -0.10312 0.87442 0.19848
 N170 N -0.09891 0.83296 0.27034
 H171 H -0.14536 0.70898 0.49056
 H172 H -0.14017 0.92251 0.11385
 C173 C 0.64961 0.67437 0.33094
 C174 C 0.65602 0.64312 0.24221
 N175 N 0.68787 0.63207 0.21512
 C176 C 0.71371 0.65013 0.27366
 C177 C 0.70749 0.67950 0.36593
 N178 N 0.67529 0.69157 0.39022
 N179 N 0.61775 0.68512 0.35866
 C180 C 0.59190 0.66508 0.30228
 C181 C 0.59818 0.63198 0.21488
 N182 N 0.63028 0.62232 0.18678
 H183 H 0.73857 0.63846 0.25093
 H184 H 0.56678 0.67337 0.32737
 C185 C 0.14311 1.17161 0.35366
 C186 C 0.15191 1.14741 0.25963
 N187 N 0.18411 1.14877 0.22946
 C188 C 0.20778 1.17380 0.28854
 C189 C 0.19911 1.19833 0.38383
 N190 N 0.16676 1.19589 0.41282
 N191 N 0.11097 1.17150 0.38382
 C192 C 0.08709 1.14813 0.32411
 C193 C 0.09570 1.12313 0.22987
 N194 N 0.12813 1.12319 0.20003
 H195 H 0.23325 1.17288 0.26233
 H196 H 0.06167 1.14842 0.35095
 C197 C 0.65964 0.36631 -0.33352
 C198 C 0.65193 0.34165 -0.23892
 N199 N 0.66819 0.29405 -0.20894
 C200 C 0.69172 0.26973 -0.26941
 C201 C 0.69898 0.29334 -0.36630
 N202 N 0.68267 0.34162 -0.39436
 N203 N 0.64343 0.41377 -0.36432
 C204 C 0.61942 0.43733 -0.30511
 C205 C 0.61109 0.41199 -0.21153
 N206 N 0.62755 0.36463 -0.18022
 H207 H 0.70328 0.23085 -0.24360
 H208 H 0.60629 0.47455 -0.33196
 C209 C 0.15488 0.82646 -0.27234
 C210 C 0.15021 0.88290 -0.30551
 N211 N 0.16930 0.90397 -0.38226
 C212 C 0.19256 0.87096 -0.42825
 C213 C 0.19682 0.81420 -0.39650
 N214 N 0.17812 0.79354 -0.31820
 N215 N 0.13530 0.80485 -0.19732
 C216 C 0.11094 0.83686 -0.15479
 C217 C 0.10604 0.89294 -0.18853
 N218 N 0.12588 0.91496 -0.26288
 H219 H 0.20748 0.88861 -0.48952
 H220 H 0.09515 0.81852 -0.09625
 C221 C 0.34780 0.64612 -0.35636
 C222 C 0.34141 0.63418 -0.25347
 N223 N 0.31178 0.64918 -0.21268
 C224 C 0.28852 0.67658 -0.26934
 C225 C 0.29506 0.69042 -0.37310
 N226 N 0.32463 0.67320 -0.41264
 N227 N 0.37748 0.63225 -0.39791
 C228 C 0.40140 0.60775 -0.34043
 C229 C 0.39544 0.59645 -0.23653
 N230 N 0.36529 0.60938 -0.19546
 H231 H 0.26502 0.68543 -0.23322
 H232 H 0.42508 0.59785 -0.37524
 C233 C -0.16831 1.15181 -0.27746
 C234 C -0.13670 1.16754 -0.31320
 N235 N -0.13392 1.20470 -0.39201
 C236 C -0.16135 1.22561 -0.43863
 C237 C -0.19321 1.20773 -0.40626
 N238 N -0.19566 1.17258 -0.32391
 N239 N -0.17124 1.11448 -0.19910
 C240 C -0.14393 1.09164 -0.15521
 C241 C -0.11212 1.10680 -0.19131
 N242 N -0.10932 1.14487 -0.26928
 H243 H -0.15830 1.25570 -0.50058
 H244 H -0.14715 1.06183 -0.09292
 C245 C 0.65650 0.68235 -0.28796
 C246 C 0.64568 0.62754 -0.31576
 N247 N 0.66251 0.59781 -0.38760
 C248 C 0.68942 0.62079 -0.43476
 C249 C 0.70014 0.67639 -0.40919
 N250 N 0.68373 0.70516 -0.33404
 N251 N 0.63927 0.71212 -0.21644
 C252 C 0.61171 0.68937 -0.17145
 C253 C 0.60121 0.63436 -0.19890
 N254 N 0.61860 0.60465 -0.26991
 H255 H 0.70258 0.59556 -0.49083
 H256 H 0.59854 0.71340 -0.11372
 C257 C 0.14281 1.18983 -0.32808
 C258 C 0.15216 1.14916 -0.25531
 N259 N 0.18465 1.13507 -0.24667
 C260 C 0.20810 1.15936 -0.30814
 C261 C 0.19867 1.19852 -0.38445
 N262 N 0.16615 1.21356 -0.39007
 N263 N 0.11051 1.20481 -0.33610
 C264 C 0.08696 1.18041 -0.27571
 C265 C 0.09591 1.13839 -0.20409
 N266 N 0.12856 1.12404 -0.19544
 H267 H 0.23382 1.14730 -0.29918
 H268 H 0.06136 1.19295 -0.28531
 C269 C 0.35703 0.32898 -0.34878
 C270 C 0.34831 0.36636 -0.26957
 N271 N 0.31578 0.37593 -0.24905
 C272 C 0.29158 0.34980 -0.30435
 C273 C 0.30026 0.31251 -0.38412
 N274 N 0.33291 0.30286 -0.40366
 N275 N 0.38948 0.31939 -0.36973
 C276 C 0.41373 0.34552 -0.31496
 C277 C 0.40519 0.38300 -0.23520
 N278 N 0.37252 0.39246 -0.21459
 H279 H 0.26581 0.35832 -0.28683
 H280 H 0.43940 0.33700 -0.33371
 C281 C -0.15022 0.84476 -0.35051
 C282 C -0.14636 0.82829 -0.24839
 N283 N -0.16622 0.78678 -0.20924
 C284 C -0.18963 0.76064 -0.26774
 C285 C -0.19366 0.77697 -0.37048
 N286 N -0.17394 0.81942 -0.40820
 N287 N -0.12938 0.88423 -0.39158
 C288 C -0.10469 0.90789 -0.33504
 C289 C -0.10101 0.89203 -0.23251
 N290 N -0.12208 0.85273 -0.19115
 H291 H -0.20428 0.72648 -0.23482
 H292 H -0.08822 0.93909 -0.36946
 C293 C 0.33119 0.63291 0.29958
 C294 C 0.36051 0.66563 0.30143
 N295 N 0.36063 0.71694 0.34942
 C296 C 0.33288 0.73671 0.39667
 C297 C 0.30384 0.70322 0.39772
 N298 N 0.30358 0.65222 0.34807
 N299 N 0.33089 0.58212 0.25004
 C300 C 0.35854 0.56246 0.20219
 C301 C 0.38812 0.59470 0.20481
 N302 N 0.38831 0.64568 0.25477
 H303 H 0.33363 0.77748 0.43537
 H304 H 0.35748 0.52173 0.16339
 C305 C -0.16141 1.13287 0.34153
 C306 C -0.15390 1.15577 0.24549
 N307 N -0.17111 1.20147 0.21131
 C308 C -0.19512 1.22610 0.26958
 C309 C -0.20199 1.20467 0.36833
 N310 N -0.18522 1.15745 0.39953
 N311 N -0.14366 1.08827 0.37768
 C312 C -0.11828 1.06597 0.32239
 C313 C -0.11039 1.08933 0.22691
 N314 N -0.12853 1.13354 0.19007
 H315 H -0.20710 1.26392 0.24081
 H316 H -0.10411 1.03090 0.35310
 C317 C 0.66621 0.36301 0.29375
 C318 C 0.63482 0.33897 0.31338
 N319 N 0.63210 0.29434 0.37882
 C320 C 0.65932 0.27298 0.42608
 C321 C 0.69066 0.29778 0.40796
 N322 N 0.69332 0.34188 0.34113
 N323 N 0.66908 0.40737 0.22815
 C324 C 0.64199 0.42902 0.18114
 C325 C 0.61039 0.40534 0.20070
 N326 N 0.60764 0.36065 0.26662
 H327 H 0.65657 0.23732 0.47784
 H328 H 0.64520 0.46460 0.12942
 C329 C 0.16619 0.84850 0.26519
 C330 C 0.13456 0.82851 0.29396
 N331 N 0.13189 0.78720 0.36591
 C332 C 0.15932 0.76569 0.41173
 C333 C 0.19099 0.78669 0.38531
 N334 N 0.19366 0.82733 0.31150
 N335 N 0.16881 0.89033 0.19421
 C336 C 0.14134 0.91352 0.15137
 C337 C 0.10950 0.89442 0.18118
 N338 N 0.10702 0.85186 0.25158
 H339 H 0.15646 0.73354 0.47038
 H340 H 0.14442 0.94702 0.09532
   
