data_POSCAR
  _audit_creation_date              2014-09-24
  _audit_creation_method            'ToBaCCo'
  _symmetry_space_group_name_H-M    'P1'
  _symmetry_Int_Tables_number       1
  _symmetry_cell_setting            triclinic
  loop_
  _symmetry_equiv_pos_as_xyz
 x,y,z
_cell_length_a 35.4128
_cell_length_b 35.3821
_cell_length_c 33.9062
_cell_angle_alpha 89.171000
_cell_angle_beta 90.740400
_cell_angle_gamma 90.886200
loop_
  _atom_site_label
  _atom_site_type_symbol
  _atom_site_fract_x
  _atom_site_fract_y
  _atom_site_fract_z
C1 C 0.19258 0.19554 0.23206
 N2 N 0.22150 0.17684 0.21544
 C3 C 0.23101 0.18347 0.17713
 N4 N 0.21126 0.20936 0.15548
 C5 C 0.18248 0.22829 0.17182
 N6 N 0.17332 0.22116 0.20989
 C7 C -0.18478 0.80661 0.25389
 N8 N -0.21291 0.82704 0.23670
 C9 C -0.22940 0.81615 0.20220
 N10 N -0.21718 0.78436 0.18468
 C11 C -0.18959 0.76320 0.20175
 N12 N -0.17356 0.77448 0.23632
 C13 C -0.18667 0.19589 -0.25538
 N14 N -0.21891 0.17911 -0.24204
 C15 C -0.23866 0.19412 -0.21204
 N16 N -0.22607 0.22714 -0.19588
 C17 C -0.19418 0.24473 -0.20945
 N18 N -0.17454 0.22860 -0.23875
 C19 C 0.21786 0.78305 -0.26294
 N20 N 0.20229 0.75452 -0.24130
 C21 C 0.21571 0.74594 -0.20468
 N22 N 0.24510 0.76647 -0.18933
 C23 C 0.26166 0.79482 -0.21105
 N24 N 0.24756 0.80292 -0.24768
 C25 C 0.18967 1.18901 0.79038
 N26 N 0.17294 1.21933 0.80657
 C27 C 0.18954 1.23828 0.83705
 N28 N 0.22361 1.22657 0.85122
 C29 C 0.24087 1.19649 0.83515
 N30 N 0.22368 1.17781 0.80498
 C31 C 0.79314 0.80401 0.75700
 N32 N 0.80646 0.76977 0.76903
 C33 C 0.79068 0.75060 0.80007
 N34 N 0.76107 0.76611 0.81894
 C35 C 0.74753 0.80022 0.80728
 N36 N 0.76379 0.81894 0.77657
 C37 C 0.19356 0.81165 1.22914
 N38 N 0.17363 0.78327 1.21116
 C39 C 0.18948 0.76324 1.18177
 N40 N 0.22517 0.77183 1.17038
 C41 C 0.24543 0.79972 1.18802
 N42 N 0.22949 0.81943 1.21734
 C43 C 0.79270 1.20417 1.26126
 N44 N 0.80721 1.23697 1.24575
 C45 C 0.78955 1.25520 1.21526
 N46 N 0.75704 1.24018 1.20035
 C47 C 0.74191 1.20776 1.21543
 N48 N 0.75988 1.18981 1.24587
 O49 O 0.53057 0.95771 0.94284
 O50 O 0.46717 0.96101 1.08010
 O51 O 0.58114 0.99347 1.04330
 O52 O 0.46309 0.94592 0.95913
 O53 O 0.53816 0.96310 1.07828
 O54 O 0.46999 0.98521 0.91408
 O55 O 0.45716 0.93423 1.02523
 O56 O 0.57906 0.98079 0.97253
 C57 C 0.56461 0.95545 0.95161
 C58 C 0.45559 0.93310 1.06150
 C59 C 0.57195 0.96850 1.06884
 C60 C 0.45577 0.95461 0.92451
 O61 O 0.48341 1.04815 0.94598
 O62 O 0.53631 1.03578 1.08132
 O63 O 0.55197 1.05121 0.95780
 O64 O 0.42534 1.00338 1.03677
 O65 O 0.46553 1.03363 1.07491
 O66 O 0.53524 1.02063 0.90541
 O67 O 0.43315 1.01808 0.96689
 O68 O 0.55240 1.06316 1.02722
 Co69 Co 0.50795 1.00328 0.94685
 Co70 Co 0.50200 0.99833 1.07163
 Co71 Co 0.56081 1.02003 1.00063
 Co72 Co 0.44908 0.97726 0.99742
 O73 O 0.50358 0.99853 1.00666
 C74 C 0.44844 1.04735 0.95153
 C75 C 0.55048 1.06354 1.06367
 C76 C 0.55793 1.04513 0.92160
 C77 C 0.43255 1.02847 1.06219
 O78 O 0.02765 0.46136 0.06731
 O79 O 0.03596 0.54364 -0.05742
 O80 O 0.00072 0.42739 -0.03703
 O81 O 0.04024 0.55748 0.01172
 O82 O 0.04003 0.47291 -0.05278
 O83 O 0.02887 0.53419 0.06958
 O84 O 0.00745 0.59535 -0.03782
 O85 O -0.00735 0.42108 0.03304
 C86 C 0.02142 0.42860 0.05454
 C87 C 0.03213 0.57961 -0.06109
 C88 C 0.03319 0.43832 -0.04792
 C89 C 0.04818 0.55526 0.04762
 O90 O -0.04458 0.53363 0.07397
 O91 O -0.02823 0.46628 -0.08485
 O92 O -0.07735 0.45209 0.02639
 O93 O -0.05612 0.56093 -0.02883
 O94 O -0.03684 0.53516 -0.08084
 O95 O -0.04390 0.46284 0.07789
 O96 O -0.02527 0.57901 0.03414
 O97 O -0.06953 0.46288 -0.04169
 Co98 Co -0.00833 0.49834 0.06532
 Co99 Co 0.00096 0.50423 -0.06249
 Co100 Co -0.03673 0.44525 -0.00508
 Co101 Co -0.00833 0.55510 -0.00929
 O102 O -0.01454 0.49918 0.00054
 C103 C -0.04515 0.56758 0.06254
 C104 C -0.06121 0.45759 -0.07609
 C105 C -0.07392 0.45098 0.06277
 C106 C -0.06089 0.55478 -0.06430
 O107 O 1.09070 0.04031 0.46905
 O108 O 0.95554 0.04163 0.52706
 O109 O 0.97499 0.05358 0.45645
 O110 O 1.05042 0.00738 0.58577
 O111 O 0.93166 0.01403 0.46325
 O112 O 1.08251 0.04088 0.54280
 O113 O 0.98314 0.02168 0.57980
 O114 O 1.03853 0.06470 0.45164
 C115 C 1.07326 0.06644 0.45270
 C116 C 0.96277 0.04560 0.56264
 C117 C 0.94174 0.04495 0.44905
 C118 C 1.07178 0.03528 0.57742
 O119 O 1.08808 -0.03292 0.54319
 O120 O 0.96230 -0.04933 0.48020
 O121 O 1.05094 -0.00630 0.42326
 O122 O 0.96945 -0.04966 0.55217
 O123 O 0.91986 -0.02063 0.53076
 O124 O 1.08786 -0.03180 0.46886
 O125 O 1.03551 -0.06168 0.55383
 O126 O 0.98278 -0.01940 0.42810
 Co127 Co 1.08062 0.00400 0.50597
 Co128 Co 0.96118 -0.00386 0.50471
 Co129 Co 1.01206 0.02134 0.44465
 Co130 Co 1.01026 -0.01848 0.56245
 O131 O 1.01845 0.00216 0.50289
 C132 C 1.07049 -0.06228 0.55316
 C133 C 0.96744 -0.04846 0.44371
 C134 C 1.07668 -0.02925 0.43357
 C135 C 0.93446 -0.04386 0.55637
 C136 C 1.14995 0.16183 0.34223
 C137 C 1.13559 0.19415 0.32328
 C138 C 1.15072 0.20623 0.28747
 C139 C 1.18067 0.18668 0.27055
 C140 C 1.19644 0.15658 0.29237
 N141 N 1.18047 0.14473 0.32672
 C142 C 1.13082 0.14335 0.37613
 N143 N 1.14991 0.11689 0.39766
 C144 C 1.13274 0.09426 0.42495
 C145 C 1.09365 0.09650 0.43067
 C146 C 1.07373 0.12477 0.41030
 C147 C 1.09213 0.14823 0.38308
 H148 H 1.13813 0.23035 0.27264
 H149 H 1.22008 0.14106 0.28128
 H150 H 1.14921 0.07293 0.44020
 H151 H 1.04351 0.12737 0.41372
 H152 H 1.11232 0.20956 0.33522
 H153 H 1.07540 0.16799 0.36600
 C154 C 0.88063 -0.14608 0.34499
 C155 C 0.88669 -0.18365 0.33488
 C156 C 0.86406 -0.20015 0.30554
 C157 C 0.83497 -0.17940 0.28696
 C158 C 0.82841 -0.14265 0.30038
 N159 N 0.85170 -0.12688 0.32781
 C160 C 0.90725 -0.12523 0.37025
 N161 N 0.92313 -0.09292 0.35555
 C162 C 0.94514 -0.06983 0.37793
 C163 C 0.95074 -0.07787 0.41821
 C164 C 0.93551 -0.11172 0.43382
 C165 C 0.91405 -0.13584 0.40966
 H166 H 0.87014 -0.22869 0.29669
 H167 H 0.80628 -0.12546 0.28755
 H168 H 0.95624 -0.04403 0.36467
 H169 H 0.93903 -0.11878 0.46482
 H170 H 0.90985 -0.19927 0.34798
 H171 H 0.90130 -0.16132 0.42198
 C172 C 0.87907 0.14303 0.65978
 C173 C 0.84204 0.13018 0.66618
 C174 C 0.82013 0.14767 0.69427
 C175 C 0.83461 0.17886 0.71519
 C176 C 0.87155 0.19169 0.70659
 N177 N 0.89279 0.17325 0.68007
 C178 C 0.90347 0.12277 0.63268
 N179 N 0.88887 0.11015 0.59790
 C180 C 0.90879 0.08799 0.57359
 C181 C 0.94491 0.07579 0.58486
 C182 C 0.96093 0.08921 0.62011
 C183 C 0.94047 0.11334 0.64381
 H184 H 0.79187 0.13671 0.69944
 H185 H 0.88416 0.21549 0.72186
 H186 H 0.89542 0.07797 0.54673
 H187 H 0.98870 0.08021 0.62976
 H188 H 0.83061 0.10599 0.65056
 H189 H 0.95252 0.12275 0.67157
 C190 C 1.15721 -0.17119 0.63858
 C191 C 1.14444 -0.20518 0.65604
 C192 C 1.16545 -0.22152 0.68675
 C193 C 1.19923 -0.20426 0.69993
 C194 C 1.21249 -0.17208 0.67946
 N195 N 1.19122 -0.15635 0.65014
 C196 C 1.13365 -0.14870 0.61091
 N197 N 1.15081 -0.12087 0.58926
 C198 C 1.13107 -0.09482 0.56812
 C199 C 1.09147 -0.09492 0.56920
 C200 C 1.07299 -0.12437 0.58968
 C201 C 1.09394 -0.15132 0.61059
 H202 H 1.15438 -0.24676 0.70120
 H203 H 1.23869 -0.15816 0.68805
 H204 H 1.14645 -0.07287 0.55226
 H205 H 1.04246 -0.12538 0.59135
 H206 H 1.11813 -0.21857 0.64701
 H207 H 1.07899 -0.17223 0.62822
 C208 C 0.31522 1.11879 1.12544
 C209 C 0.29283 1.14219 1.10147
 C210 C 0.26555 1.16447 1.11866
 C211 C 0.25977 1.16270 1.15968
 C212 C 0.28311 1.13878 1.18251
 N213 N 0.31009 1.11808 1.16510
 C214 C 0.34463 1.09533 1.10849
 N215 N 0.37944 1.09463 1.12585
 C216 C 0.40784 1.07367 1.11148
 C217 C 0.40168 1.05111 1.07816
 C218 C 0.36557 1.05056 1.06063
 C219 C 0.33715 1.07312 1.07531
 H220 H 0.24852 1.18238 1.09959
 H221 H 0.28022 1.13661 1.21421
 H222 H 0.43510 1.07449 1.12628
 H223 H 0.35934 1.03288 1.03550
 H224 H 0.29675 1.14358 1.06985
 H225 H 0.30943 1.07268 1.06142
 C226 C 0.34982 0.86237 0.83688
 C227 C 0.33765 0.86857 0.79777
 C228 C 0.30875 0.84599 0.78188
 C229 C 0.29182 0.81676 0.80449
 C230 C 0.30566 0.81083 0.84313
 N231 N 0.33362 0.83348 0.85801
 C232 C 0.37930 0.88627 0.85648
 N233 N 0.39327 0.87441 0.89206
 C234 C 0.41867 0.89513 0.91331
 C235 C 0.43138 0.93053 0.89923
 C236 C 0.41804 0.94328 0.86239
 C237 C 0.39196 0.92136 0.84095
 H238 H 0.29971 0.85168 0.75177
 H239 H 0.29400 0.78865 0.86185
 H240 H 0.42822 0.88426 0.94168
 H241 H 0.42688 0.97063 0.85075
 H242 H 0.35008 0.89036 0.77923
 H243 H 0.38126 0.93266 0.81332
 C244 C 0.68654 0.88217 1.14773
 C245 C 0.69890 0.89073 1.18601
 C246 C 0.72698 0.86908 1.20399
 C247 C 0.74234 0.83825 1.18425
 C248 C 0.72885 0.83065 1.14583
 N249 N 0.70200 0.85273 1.12866
 C250 C 0.65691 0.90447 1.12796
 N251 N 0.66095 0.91533 1.08952
 C252 C 0.63445 0.93620 1.07006
 C253 C 0.60133 0.94636 1.08924
 C254 C 0.59640 0.93485 1.12860
 C255 C 0.62430 0.91427 1.14818
 H256 H 0.73625 0.87635 1.23353
 H257 H 0.73991 0.80755 1.12911
 H258 H 0.63896 0.94432 1.03955
 H259 H 0.57119 0.94221 1.14434
 H260 H 0.68731 0.91428 1.20165
 H261 H 0.62019 0.90556 1.17859
 C262 C 0.66877 1.13342 0.83606
 C263 C 0.68707 1.11965 0.80283
 C264 C 0.71709 1.14018 0.78649
 C265 C 0.72946 1.17458 0.80302
 C266 C 0.70988 1.18766 0.83592
 N267 N 0.68083 1.16691 0.85150
 C268 C 0.63838 1.11142 0.85625
 N269 N 0.63181 1.11805 0.89502
 C270 C 0.60579 1.09790 0.91612
 C271 C 0.58453 1.06884 0.89828
 C272 C 0.59003 1.06211 0.85815
 C273 C 0.61672 1.08338 0.83700
 H274 H 0.73101 1.12850 0.76125
 H275 H 0.71807 1.21390 0.84991
 H276 H 0.60216 1.10428 0.94695
 H277 H 0.57401 1.04016 0.84318
 H278 H 0.67938 1.09270 0.79017
 H279 H 0.62004 1.07781 0.80599
 C280 C 0.11783 0.31037 0.10917
 C281 C 0.15592 0.30595 0.09950
 C282 C 0.17704 0.27820 0.11901
 C283 C 0.16032 0.25565 0.14850
 C284 C 0.12198 0.26048 0.15660
 N285 N 0.10192 0.28725 0.13689
 C286 C 0.09475 0.34047 0.09143
 N287 N 0.05744 0.33345 0.08402
 C288 C 0.03377 0.36088 0.07093
 C289 C 0.04715 0.39812 0.06623
 C290 C 0.08551 0.40597 0.07352
 C291 C 0.10952 0.37711 0.08573
 H292 H 0.20657 0.27514 0.11196
 H293 H 0.10799 0.24318 0.17877
 H294 H 0.00430 0.35384 0.06558
 H295 H 0.09682 0.43442 0.06993
 H296 H 0.16916 0.32376 0.07724
 H297 H 0.13889 0.38368 0.09224
 C298 C -0.14952 0.34653 -0.15851
 C299 C -0.18142 0.32864 -0.14171
 C300 C -0.19655 0.29585 -0.15865
 C301 C -0.17997 0.28058 -0.19209
 C302 C -0.14859 0.29966 -0.20832
 N303 N -0.13430 0.33138 -0.19124
 C304 C -0.12977 0.37936 -0.14018
 N305 N -0.09368 0.38771 -0.15129
 C306 C -0.07211 0.41482 -0.13347
 C307 C -0.08641 0.43473 -0.10166
 C308 C -0.12414 0.42814 -0.09108
 C309 C -0.14600 0.40081 -0.11041
 H310 H -0.22067 0.28204 -0.14502
 H311 H -0.13491 0.28915 -0.23423
 H312 H -0.04317 0.41911 -0.14260
 H313 H -0.13634 0.44321 -0.06687
 H314 H -0.19404 0.33873 -0.11509
 H315 H -0.17485 0.39628 -0.10130
 C316 C 0.14650 0.66885 -0.13946
 C317 C 0.15494 0.66108 -0.17876
 C318 C 0.17900 0.68547 -0.19959
 C319 C 0.19552 0.71693 -0.18104
 C320 C 0.18815 0.72251 -0.14104
 N321 N 0.16358 0.69905 -0.12168
 C322 C 0.11762 0.64607 -0.11824
 N323 N 0.11036 0.60962 -0.12876
 C324 C 0.08322 0.58795 -0.11103
 C325 C 0.06090 0.60312 -0.08146
 C326 C 0.06770 0.64072 -0.07042
 C327 C 0.09628 0.66210 -0.08840
 H328 H 0.18395 0.68033 -0.23050
 H329 H 0.20012 0.74668 -0.12586
 H330 H 0.07893 0.55904 -0.12026
 H331 H 0.05139 0.65344 -0.04746
 H332 H 0.14168 0.63747 -0.19381
 H333 H 0.10112 0.69109 -0.07960
 C334 C -0.13856 0.67357 0.14017
 C335 C -0.16501 0.69641 0.12046
 C336 C -0.18293 0.72471 0.14097
 C337 C -0.17446 0.73038 0.18101
 C338 C -0.14921 0.70569 0.20007
 N339 N -0.13202 0.67835 0.17941
 C340 C -0.11621 0.64582 0.11892
 N341 N -0.10495 0.61368 0.13794
 C342 C -0.08274 0.58795 0.12044
 C343 C -0.06979 0.59457 0.08199
 C344 C -0.08087 0.62763 0.06203
 C345 C -0.10418 0.65320 0.08028
 H346 H -0.20242 0.74288 0.12513
 H347 H -0.14232 0.70870 0.23107
 H348 H -0.07466 0.56278 0.13680
 H349 H -0.07159 0.63370 0.03225
 H350 H -0.17146 0.69276 0.08944
 H351 H -0.11172 0.67896 0.06468
 C352 C 1.13585 0.12764 0.69955
 C353 C 1.12115 0.16239 0.71063
 C354 C 1.13871 0.18267 0.74098
 C355 C 1.17162 0.16893 0.75967
 C356 C 1.18558 0.13409 0.74705
 N357 N 1.16733 0.11444 0.71817
 C358 C 1.11774 0.10495 0.66826
 N359 N 1.11237 0.06711 0.67416
 C360 C 1.09666 0.04456 0.64602
 C361 C 1.08663 0.05978 0.60899
 C362 C 1.09218 0.09864 0.60218
 C363 C 1.10722 0.12144 0.63196
 H364 H 1.12666 0.20928 0.74940
 H365 H 1.21056 0.12196 0.76054
 H366 H 1.09305 0.01462 0.65215
 H367 H 1.08474 0.11130 0.57391
 H368 H 1.09593 0.17336 0.69646
 H369 H 1.11161 0.15139 0.62637
 C370 C 0.84653 -0.13260 0.66661
 C371 C 0.81437 -0.11847 0.68472
 C372 C 0.79645 -0.13973 0.71414
 C373 C 0.81033 -0.17526 0.72604
 C374 C 0.84246 -0.18852 0.70680
 N375 N 0.85959 -0.16706 0.67834
 C376 C 0.86774 -0.11018 0.63664
 N377 N 0.90517 -0.11685 0.63189
 C378 C 0.92682 -0.09649 0.60613
 C379 C 0.91091 -0.06731 0.58318
 C380 C 0.87226 -0.06047 0.58689
 C381 C 0.85057 -0.08185 0.61340
 H382 H 0.77197 -0.12784 0.72788
 H383 H 0.85446 -0.21558 0.71473
 H384 H 0.95648 -0.10294 0.60389
 H385 H 0.85883 -0.03841 0.56952
 H386 H 0.80362 -0.09079 0.67731
 H387 H 0.82072 -0.07627 0.61529
 C388 C 1.14507 -0.12225 0.31718
 C389 C 1.18341 -0.11758 0.30838
 C390 C 1.19933 -0.13942 0.27927
 C391 C 1.17739 -0.16657 0.25891
 C392 C 1.13896 -0.17041 0.26886
 N393 N 1.12394 -0.14821 0.29702
 C394 C 1.12752 -0.09910 0.34776
 N395 N 1.09220 -0.08521 0.34174
 C396 C 1.07542 -0.06268 0.36846
 C397 C 1.09422 -0.05344 0.40386
 C398 C 1.13027 -0.06818 0.41089
 C399 C 1.14706 -0.09073 0.38289
 H400 H 1.22898 -0.13498 0.27296
 H401 H 1.12067 -0.19058 0.25396
 H402 H 1.04734 -0.05230 0.36222
 H403 H 1.14570 -0.06192 0.43787
 H404 H 1.20083 -0.09672 0.32339
 H405 H 1.17492 -0.10183 0.38885
 C406 C 0.85323 0.14315 0.34881
 C407 C 0.86790 0.17758 0.33387
 C408 C 0.84746 0.19810 0.30566
 C409 C 0.81241 0.18451 0.29143
 C410 C 0.79859 0.15003 0.30735
 N411 N 0.81908 0.13056 0.33495
 C412 C 0.87469 0.11922 0.37758
 N413 N 0.86453 0.08209 0.38263
 C414 C 0.88426 0.05800 0.40665
 C415 C 0.91681 0.07083 0.42663
 C416 C 0.92705 0.10911 0.42291
 C417 C 0.90595 0.13341 0.39900
 H418 H 0.85976 0.22427 0.29445
 H419 H 0.77177 0.13816 0.29759
 H420 H 0.87539 0.02864 0.40890
 H421 H 0.95169 0.12028 0.43833
 H422 H 0.89534 0.18846 0.34264
 H423 H 0.91452 0.16280 0.39751
 C424 C 0.13159 0.32701 -0.10994
 C425 C 0.16901 0.32002 -0.09839
 C426 C 0.18847 0.29064 -0.11594
 C427 C 0.17098 0.26871 -0.14560
 C428 C 0.13368 0.27756 -0.15678
 N429 N 0.11517 0.30558 -0.13856
 C430 C 0.10854 0.35575 -0.09085
 N431 N 0.07120 0.34806 -0.08573
 C432 C 0.04736 0.37348 -0.07044
 C433 C 0.06048 0.40978 -0.06043
 C434 C 0.09901 0.41841 -0.06516
 C435 C 0.12328 0.39125 -0.07997
 H436 H 0.21712 0.28516 -0.10615
 H437 H 0.11868 0.26171 -0.17928
 H438 H 0.01784 0.36567 -0.06754
 H439 H 0.11016 0.44615 -0.05788
 H440 H 0.18266 0.33625 -0.07528
 H441 H 0.15279 0.39839 -0.08425
 C442 C -0.16153 0.35071 0.15943
 C443 C -0.14432 0.33546 0.19355
 C444 C -0.16082 0.30425 0.21261
 C445 C -0.19457 0.28807 0.19793
 C446 C -0.21134 0.30498 0.16423
 N447 N -0.19436 0.33497 0.14587
 C448 C -0.14306 0.38106 0.13585
 N449 N -0.14838 0.38188 0.09596
 C450 C -0.12894 0.40620 0.07196
 C451 C -0.10169 0.43095 0.08798
 C452 C -0.09763 0.43222 0.12919
 C453 C -0.11830 0.40749 0.15318
 H454 H -0.14662 0.29246 0.23836
 H455 H -0.23737 0.29385 0.15162
 H456 H -0.13315 0.40453 0.04035
 H457 H -0.07728 0.45127 0.14284
 H458 H -0.11759 0.34639 0.20461
 H459 H -0.11417 0.40852 0.18483
 C460 C -0.15822 0.65291 -0.15251
 C461 C -0.14510 0.66858 -0.18817
 C462 C -0.16268 0.70028 -0.20458
 C463 C -0.19356 0.71656 -0.18578
 C464 C -0.20675 0.69883 -0.15097
 N465 N -0.18862 0.66847 -0.13518
 C466 C -0.13730 0.62286 -0.13105
 N467 N -0.13776 0.62221 -0.09089
 C468 C -0.11578 0.59857 -0.06888
 C469 C -0.09086 0.57412 -0.08732
 C470 C -0.09165 0.57262 -0.12867
 C471 C -0.11482 0.59687 -0.15062
 H472 H -0.15131 0.71255 -0.23146
 H473 H -0.23053 0.70988 -0.13530
 H474 H -0.11634 0.60039 -0.03705
 H475 H -0.07309 0.55398 -0.14410
 H476 H -0.12038 0.65779 -0.20236
 H477 H -0.11437 0.59583 -0.18249
 C478 C 0.13428 0.67017 0.12526
 C479 C 0.12220 0.68124 0.16266
 C480 C 0.13937 0.71233 0.18085
 C481 C 0.16877 0.73209 0.16203
 C482 C 0.17948 0.72053 0.12432
 N483 N 0.16206 0.69046 0.10701
 C484 C 0.11673 0.63761 0.10491
 N485 N 0.11163 0.63900 0.06501
 C486 C 0.09272 0.61122 0.04514
 C487 C 0.07724 0.58013 0.06582
 C488 C 0.08457 0.57706 0.10655
 C489 C 0.10418 0.60568 0.12614
 H490 H 0.13024 0.72038 0.20987
 H491 H 0.20176 0.73533 0.10857
 H492 H 0.08786 0.61461 0.01372
 H493 H 0.07346 0.55345 0.12371
 H494 H 0.09945 0.66631 0.17753
 H495 H 0.10874 0.60320 0.15770
 C496 C 0.34166 1.14999 0.88448
 C497 C 0.33509 1.14818 0.84364
 C498 C 0.30256 1.16418 0.82736
 C499 C 0.27706 1.18270 0.85149
 C500 C 0.28553 1.18539 0.89190
 N501 N 0.31674 1.16844 0.90732
 C502 C 0.37214 1.12810 0.90357
 N503 N 0.36455 1.10900 0.93772
 C504 C 0.38947 1.08469 0.95465
 C505 C 0.42436 1.07836 0.93706
 C506 C 0.43369 1.09922 0.90298
 C507 C 0.40749 1.12394 0.88592
 H508 H 0.29697 1.16150 0.79603
 H509 H 0.26643 1.19926 0.91150
 H510 H 0.38150 1.06937 0.98107
 H511 H 0.46034 1.09498 0.88847
 H512 H 0.35378 1.13284 0.82481
 H513 H 0.41443 1.13897 0.85888
 C514 C 0.35100 0.83588 1.14010
 C515 C 0.33320 0.80312 1.12557
 C516 C 0.29941 0.79045 1.14220
 C517 C 0.28345 0.81009 1.17346
 C518 C 0.30348 0.84119 1.18879
 N519 N 0.33601 0.85333 1.17169
 C520 C 0.38340 0.85437 1.12022
 N521 N 0.40420 0.88038 1.14060
 C522 C 0.43013 0.90341 1.12297
 C523 C 0.43516 0.90213 1.08204
 C524 C 0.41564 0.87416 1.06071
 C525 C 0.38977 0.85021 1.07966
 H526 H 0.28531 0.76588 1.12983
 H527 H 0.29263 0.85683 1.21327
 H528 H 0.44488 0.92434 1.14060
 H529 H 0.41859 0.87234 1.02904
 H530 H 0.34466 0.78776 1.10124
 H531 H 0.37321 0.83071 1.06200
 C532 C 0.64605 1.15764 1.15766
 C533 C 0.65789 1.14334 1.19464
 C534 C 0.68870 1.16009 1.21402
 C535 C 0.70761 1.19115 1.19682
 C536 C 0.69422 1.20516 1.16031
 N537 N 0.66460 1.18798 1.14169
 C538 C 0.61667 1.13818 1.13388
 N539 N 0.61929 1.13910 1.09381
 C540 C 0.59616 1.11802 1.07019
 C541 C 0.56912 1.09353 1.08699
 C542 C 0.56424 1.09421 1.12800
 C543 C 0.58781 1.11655 1.15150
 H544 H 0.69812 1.14830 1.24205
 H545 H 0.70797 1.22902 1.14585
 H546 H 0.60060 1.11859 1.03866
 H547 H 0.54331 1.07614 1.14214
 H548 H 0.64470 1.11849 1.20776
 H549 H 0.58410 1.11599 1.18313
 C550 C 0.66348 0.85561 0.87342
 C551 C 0.66162 0.81611 0.87044
 C552 C 0.68917 0.79759 0.84895
 C553 C 0.71762 0.81860 0.82971
 C554 C 0.71787 0.85805 0.83293
 N555 N 0.69153 0.87522 0.85481
 C556 C 0.63692 0.87694 0.89726
 N557 N 0.65079 0.90665 0.91818
 C558 C 0.62814 0.93028 0.93781
 C559 C 0.58873 0.92570 0.93571
 C560 C 0.57365 0.89474 0.91498
 C561 C 0.59778 0.86995 0.89604
 H562 H 0.68816 0.76706 0.84716
 H563 H 0.73955 0.87524 0.81890
 H564 H 0.64102 0.95376 0.95338
 H565 H 0.54338 0.89038 0.91252
 H566 H 0.63983 0.79979 0.88536
 H567 H 0.58596 0.84685 0.87903
   
