data_POSCAR
  _audit_creation_date              2014-09-24
  _audit_creation_method            'ToBaCCo'
  _symmetry_space_group_name_H-M    'P1'
  _symmetry_Int_Tables_number       1
  _symmetry_cell_setting            triclinic
  loop_
  _symmetry_equiv_pos_as_xyz
 x,y,z
_cell_length_a 36.1741
_cell_length_b 36.1829
_cell_length_c 36.2042
_cell_angle_alpha 71.778800
_cell_angle_beta 106.678200
_cell_angle_gamma 70.323400
loop_
  _atom_site_label
  _atom_site_type_symbol
  _atom_site_fract_x
  _atom_site_fract_y
  _atom_site_fract_z
O1 O 0.56453 0.47183 0.03990
 O2 O 0.45617 0.49106 0.03469
 O3 O 0.52063 0.42721 0.03961
 O4 O 0.49968 0.53611 0.03420
 O5 O 0.47126 0.56573 -0.03723
 O6 O 0.49237 0.45693 -0.03182
 O7 O 0.42776 0.52063 -0.03673
 O8 O 0.53624 0.50156 -0.03152
 Cu9 Cu 0.51310 0.47858 0.04431
 Cu10 Cu 0.47905 0.51423 -0.04154
 C11 C 0.56857 0.48402 0.00506
 C12 C 0.42383 0.50839 -0.00181
 C13 C 0.50939 0.42386 0.00472
 C14 C 0.48253 0.56916 -0.00241
 O15 O -0.04020 0.57518 0.47924
 O16 O -0.03668 0.46800 0.49605
 O17 O -0.03660 0.51211 0.54125
 O18 O -0.04138 0.53160 0.43360
 O19 O 0.03080 0.49964 0.46221
 O20 O 0.03557 0.48030 0.56994
 O21 O 0.03549 0.43614 0.52477
 O22 O 0.03197 0.54323 0.50779
 Cu23 Cu -0.04601 0.52492 0.48466
 Cu24 Cu 0.04075 0.48660 0.51907
 C25 C -0.00463 0.57714 0.49126
 C26 C -0.00002 0.43411 0.51266
 C27 C 0.00021 0.49359 0.57361
 C28 C -0.00608 0.51832 0.42985
 O29 O 0.49396 0.03439 0.53554
 O30 O 0.48107 0.03402 0.43093
 O31 O 0.43450 0.03471 0.47441
 O32 O 0.53961 0.03490 0.49111
 O33 O 0.57373 -0.03796 0.52377
 O34 O 0.46849 -0.03814 0.50720
 O35 O 0.51504 -0.03884 0.46373
 O36 O 0.52807 -0.03844 0.56822
 Cu37 Cu 0.48379 0.04186 0.47977
 Cu38 Cu 0.52471 -0.04570 0.51912
 C39 C 0.51295 -0.00199 0.56951
 C40 C 0.49650 -0.00252 0.42983
 C41 C 0.43376 -0.00173 0.48821
 C42 C 0.57428 -0.00144 0.50954
 C43 C 0.50311 -0.02172 0.01508
 C44 C 0.50682 0.00877 -0.01508
 C45 C 0.50977 0.00478 -0.05389
 C46 C 0.50781 0.04808 -0.01106
 C47 C 0.50335 -0.01924 0.05536
 C48 C 0.49812 -0.05891 0.00931
 C49 C 0.54224 -0.03308 -0.05002
 C50 C 0.54503 -0.03569 -0.08698
 C51 C 0.51563 -0.00038 -0.12803
 C52 C 0.48348 0.03747 -0.13200
 C53 C 0.48064 0.04011 -0.09517
 C54 C 0.54252 0.05681 -0.01246
 C55 C 0.54384 0.09373 -0.00890
 C56 C 0.51036 0.12245 -0.00419
 C57 C 0.47535 0.11430 -0.00332
 C58 C 0.47394 0.07740 -0.00696
 C59 C 0.46872 -0.01908 0.06564
 C60 C 0.46828 -0.01654 0.10324
 C61 C 0.50260 -0.01445 0.13114
 C62 C 0.53757 -0.01520 0.12144
 C63 C 0.53807 -0.01779 0.08383
 C64 C 0.46407 -0.05143 -0.02755
 C65 C 0.45935 -0.08686 -0.03193
 C66 C 0.48837 -0.12997 0.00062
 C67 C 0.52208 -0.13754 0.03752
 C68 C 0.52684 -0.10221 0.04193
 H69 H 0.56555 -0.06036 -0.01844
 H70 H 0.57018 -0.06506 -0.08355
 H71 H 0.46064 0.06501 -0.16359
 H72 H 0.45556 0.06966 -0.09883
 H73 H 0.56875 0.03479 -0.01594
 H74 H 0.57095 0.09989 -0.00983
 H75 H 0.44644 0.07173 -0.00671
 H76 H 0.44179 -0.02043 0.04426
 H77 H 0.44116 -0.01615 0.11053
 H78 H 0.56442 -0.01386 0.14297
 H79 H 0.56548 -0.01871 0.07690
 H80 H 0.44104 -0.01821 -0.05266
 H81 H 0.43302 -0.08066 -0.06051
 H82 H 0.54464 -0.17076 0.06292
 H83 H 0.55309 -0.10862 0.07070
 H84 H 0.44912 0.13651 0.00003
 C85 C -0.01931 0.49963 0.98812
 C86 C 0.01025 0.50401 1.01732
 C87 C 0.04968 0.50478 1.01305
 C88 C 0.00488 0.50828 1.05517
 C89 C -0.05701 0.49552 0.99397
 C90 C -0.01553 0.49864 0.94862
 C91 C 0.07965 0.47010 1.01043
 C92 C 0.11676 0.47125 1.00679
 C93 C 0.12446 0.50683 1.00616
 C94 C 0.09497 0.54121 1.00924
 C95 C 0.05786 0.54013 1.01281
 C96 C 0.03889 0.47923 1.09692
 C97 C 0.03475 0.48313 1.13287
 C98 C -0.00326 0.51631 1.12748
 C99 C -0.03719 0.54570 1.08592
 C100 C -0.03309 0.54183 1.04986
 C101 C -0.09946 0.52435 0.96066
 C102 C -0.13523 0.52037 0.96509
 C103 C -0.12898 0.48736 1.00273
 C104 C -0.08673 0.45828 1.03601
 C105 C -0.05085 0.46221 1.03160
 C106 C -0.01373 0.53321 0.91898
 C107 C -0.01024 0.53172 0.88194
 C108 C -0.00895 0.49593 0.87401
 C109 C -0.01130 0.46171 0.90314
 C110 C -0.01472 0.46312 0.94018
 H111 H 0.07438 0.44214 1.01140
 H112 H 0.13953 0.44436 1.00469
 H113 H 0.10070 0.56880 1.00895
 H114 H 0.03530 0.56703 1.01507
 H115 H 0.06851 0.45334 1.10165
 H116 H 0.06122 0.46028 1.16489
 H117 H -0.05932 0.56508 1.01786
 H118 H -0.10487 0.55006 0.93129
 H119 H -0.16776 0.54298 0.93910
 H120 H -0.08151 0.43247 1.06519
 H121 H -0.01831 0.43911 1.05731
 H122 H -0.01514 0.56129 0.92450
 H123 H -0.00870 0.55849 0.85944
 H124 H -0.01050 0.43396 0.89720
 H125 H -0.01635 0.43631 0.96252
 H126 H -0.06665 0.57162 1.08141
 C127 C 0.01624 -0.01039 0.49429
 C128 C -0.01423 0.02102 0.49792
 C129 C -0.05427 0.01890 0.49878
 C130 C -0.00922 0.05906 0.50143
 C131 C 0.05480 -0.00692 0.49032
 C132 C 0.01265 -0.05006 0.49407
 C133 C -0.08308 0.01658 0.46506
 C134 C -0.12026 0.01388 0.46676
 C135 C -0.12918 0.01395 0.50192
 C136 C -0.10105 0.01711 0.53515
 C137 C -0.06386 0.01973 0.53353
 C138 C -0.04287 0.10203 0.47251
 C139 C -0.03923 0.13819 0.47585
 C140 C -0.00206 0.13183 0.50832
 C141 C 0.03154 0.08907 0.53753
 C142 C 0.02793 0.05279 0.53422
 C143 C 0.09684 -0.04191 0.51914
 C144 C 0.13348 -0.03961 0.51554
 C145 C 0.12852 -0.00245 0.48292
 C146 C 0.08669 0.03245 0.45375
 C147 C 0.04993 0.03017 0.45730
 C148 C 0.00949 -0.07860 0.52832
 C149 C 0.00608 -0.11574 0.52750
 C150 C 0.00620 -0.12489 0.49269
 C151 C 0.00996 -0.09693 0.45882
 C152 C 0.01332 -0.05980 0.45957
 H153 H -0.07667 0.01676 0.43758
 H154 H -0.14199 0.01172 0.44075
 H155 H -0.10779 0.01737 0.56239
 H156 H -0.04220 0.02180 0.55967
 H157 H -0.07188 0.10753 0.44721
 H158 H -0.06546 0.17113 0.45316
 H159 H 0.05387 0.01988 0.55736
 H160 H 0.10124 -0.07087 0.54462
 H161 H 0.16571 -0.06682 0.53820
 H162 H 0.08251 0.06126 0.42825
 H163 H 0.01773 0.05711 0.43422
 H164 H 0.00977 -0.07213 0.55562
 H165 H 0.00347 -0.13734 0.55402
 H166 H 0.01028 -0.10382 0.43183
 H167 H 0.01603 -0.03837 0.43303
 H168 H 0.06035 0.08377 0.56293
 C169 C -0.23670 0.47880 1.01097
 C170 C -0.26545 0.51041 1.01828
 C171 C -0.30459 0.50973 1.01803
 C172 C -0.31478 0.47746 1.01045
 C173 C -0.28568 0.44539 1.00389
 C174 C -0.24651 0.44604 1.00418
 C175 C -0.21801 0.41374 0.99739
 C176 C -0.22793 0.38173 0.99048
 C177 C -0.26623 0.38112 0.99017
 C178 C -0.29491 0.41251 0.99678
 C179 C -0.33287 0.54179 1.02528
 C180 C -0.32274 0.57352 1.03263
 C181 C -0.28454 0.57424 1.03276
 C182 C -0.25611 0.54313 1.02568
 C183 C -0.35559 0.47793 1.00867
 C184 C -0.38996 0.47975 1.00703
 C185 C -0.19781 0.48087 1.00912
 C186 C -0.16609 0.48338 1.00673
 H187 H -0.18779 0.41283 0.99742
 H188 H -0.20576 0.35727 0.98534
 H189 H -0.27379 0.35619 0.98478
 H190 H -0.32428 0.41069 0.99630
 H191 H -0.36301 0.54266 1.02545
 H192 H -0.34465 0.59767 1.03828
 H193 H -0.27686 0.59900 1.03842
 H194 H -0.22673 0.54498 1.02620
 C195 C 0.23378 0.51112 0.99823
 C196 C 0.26145 0.48020 0.98946
 C197 C 0.29991 0.48144 0.98806
 C198 C 0.31051 0.51356 0.99553
 C199 C 0.28254 0.54484 1.00371
 C200 C 0.24406 0.54362 1.00507
 C201 C 0.21668 0.57516 1.01346
 C202 C 0.22698 0.60702 1.02024
 C203 C 0.26459 0.60821 1.01889
 C204 C 0.29219 0.57755 1.01076
 C205 C 0.32708 0.45015 0.97925
 C206 C 0.31649 0.41865 0.97191
 C207 C 0.27896 0.41737 0.97341
 C208 C 0.25164 0.44769 0.98209
 C209 C 0.35075 0.51355 0.99585
 C210 C 0.38479 0.51207 0.99667
 C211 C 0.19499 0.50928 1.00064
 C212 C 0.16284 0.50796 1.00299
 H213 H 0.18705 0.57559 1.01482
 H214 H 0.20565 0.63091 1.02658
 H215 H 0.27244 0.63303 1.02418
 H216 H 0.32106 0.57982 1.00998
 H217 H 0.35666 0.44976 0.97779
 H218 H 0.33752 0.39512 0.96501
 H219 H 0.27092 0.39277 0.96777
 H220 H 0.22279 0.44540 0.98287
 C221 C -0.00237 -0.23380 0.48890
 C222 C 0.00511 -0.24587 0.45706
 C223 C 0.00343 -0.28423 0.45598
 C224 C -0.00574 -0.31027 0.48672
 C225 C -0.01376 -0.29792 0.51823
 C226 C -0.01204 -0.25958 0.51934
 C227 C -0.01999 -0.24799 0.55123
 C228 C -0.02950 -0.27348 0.58111
 C229 C -0.03129 -0.31090 0.57998
 C230 C -0.02344 -0.32320 0.54905
 C231 C 0.01117 -0.29572 0.42398
 C232 C 0.02030 -0.27003 0.39385
 C233 C 0.02194 -0.23252 0.39489
 C234 C 0.01447 -0.22042 0.42606
 C235 C -0.00593 -0.35034 0.48671
 C236 C -0.00557 -0.38416 0.48800
 C237 C 0.00035 -0.19516 0.49057
 C238 C 0.00290 -0.16314 0.49174
 H239 H -0.01903 -0.21914 0.55337
 H240 H -0.03555 -0.26411 0.60525
 H241 H -0.03883 -0.33049 0.60316
 H242 H -0.02517 -0.35261 0.54953
 H243 H 0.01021 -0.32458 0.42185
 H244 H 0.02613 -0.27928 0.36958
 H245 H 0.02904 -0.21267 0.37142
 H246 H 0.01608 -0.19094 0.42553
 C247 C 0.00364 0.24099 0.51462
 C248 C -0.00828 0.27739 0.47583
 C249 C -0.00865 0.31652 0.47670
 C250 C 0.00289 0.31903 0.51635
 C251 C 0.01509 0.28255 0.55517
 C252 C 0.01550 0.24339 0.55431
 C253 C 0.02779 0.20735 0.59352
 C254 C 0.03929 0.20994 0.63246
 C255 C 0.03885 0.24824 0.63329
 C256 C 0.02691 0.28423 0.59518
 C257 C -0.02082 0.35252 0.43745
 C258 C -0.03240 0.34998 0.39850
 C259 C -0.03197 0.31171 0.39766
 C260 C -0.02007 0.27573 0.43577
 C261 C 0.00213 0.35923 0.51694
 C262 C 0.00124 0.39314 0.51597
 C263 C 0.00274 0.20154 0.51340
 C264 C 0.00111 0.16938 0.51157
 H265 H 0.02868 0.17685 0.59451
 H266 H 0.04860 0.18207 0.66216
 H267 H 0.04781 0.25008 0.66363
 H268 H 0.02705 0.31332 0.59743
 H269 H -0.02159 0.38300 0.43640
 H270 H -0.04179 0.37788 0.36879
 H271 H -0.04094 0.30988 0.36732
 H272 H -0.02024 0.24669 0.43345
 C273 C 0.51942 -0.00252 -0.23937
 C274 C 0.48300 0.03001 -0.27924
 C275 C 0.48273 0.03045 -0.31872
 C276 C 0.51890 -0.00164 -0.31814
 C277 C 0.55546 -0.03396 -0.27830
 C278 C 0.55571 -0.03441 -0.23880
 C279 C 0.59256 -0.06711 -0.19939
 C280 C 0.62816 -0.09848 -0.19899
 C281 C 0.62791 -0.09804 -0.23759
 C282 C 0.59206 -0.06624 -0.27689
 C283 C 0.44587 0.06322 -0.35814
 C284 C 0.41032 0.09466 -0.35855
 C285 C 0.41060 0.09425 -0.31996
 C286 C 0.44641 0.06239 -0.28068
 C287 C 0.51792 -0.00186 -0.35847
 C288 C 0.51612 -0.00192 -0.39224
 C289 C 0.51932 -0.00304 -0.19911
 C290 C 0.51823 -0.00249 -0.16630
 H291 H 0.59425 -0.06877 -0.16853
 H292 H 0.65610 -0.12325 -0.16856
 H293 H 0.65566 -0.12247 -0.23711
 H294 H 0.59339 -0.06721 -0.30607
 H295 H 0.44411 0.06493 -0.38902
 H296 H 0.38241 0.11947 -0.38898
 H297 H 0.38290 0.11874 -0.32044
 H298 H 0.44504 0.06345 -0.25154
 C299 C 0.49877 -0.00735 0.24081
 C300 C 0.46231 -0.00600 0.24873
 C301 C 0.46077 -0.00455 0.28708
 C302 C 0.49567 -0.00439 0.31725
 C303 C 0.53199 -0.00542 0.30919
 C304 C 0.53352 -0.00685 0.27083
 C305 C 0.57012 -0.00781 0.26346
 C306 C 0.60427 -0.00737 0.29314
 C307 C 0.60283 -0.00603 0.33067
 C308 C 0.56721 -0.00510 0.33879
 C309 C 0.42406 -0.00333 0.29435
 C310 C 0.38979 -0.00348 0.26454
 C311 C 0.39124 -0.00484 0.22702
 C312 C 0.42700 -0.00610 0.21904
 C313 C 0.49446 -0.00343 0.35670
 C314 C 0.49454 -0.00285 0.38984
 C315 C 0.50064 -0.00966 0.20201
 C316 C 0.50183 -0.01178 0.16975
 H317 H 0.57272 -0.00883 0.23471
 H318 H 0.63200 -0.00806 0.28696
 H319 H 0.62941 -0.00565 0.35360
 H320 H 0.56762 -0.00407 0.36845
 H321 H 0.42144 -0.00223 0.32306
 H322 H 0.36194 -0.00252 0.27060
 H323 H 0.36452 -0.00492 0.20396
 H324 H 0.42661 -0.00710 0.18937
 C325 C 0.47806 -0.23656 -0.00800
 C326 C 0.50874 -0.26458 -0.01675
 C327 C 0.50758 -0.30347 -0.01671
 C328 C 0.47579 -0.31412 -0.00786
 C329 C 0.44459 -0.28567 0.00006
 C330 C 0.44572 -0.24675 -0.00003
 C331 C 0.41430 -0.21889 0.00814
 C332 C 0.38265 -0.22917 0.01612
 C333 C 0.38156 -0.26724 0.01620
 C334 C 0.41212 -0.29530 0.00830
 C335 C 0.53867 -0.33104 -0.02546
 C336 C 0.56990 -0.32043 -0.03410
 C337 C 0.57111 -0.28248 -0.03401
 C338 C 0.54098 -0.25476 -0.02544
 C339 C 0.47599 -0.35484 -0.00607
 C340 C 0.47787 -0.38925 -0.00442
 C341 C 0.48066 -0.19802 -0.00594
 C342 C 0.48369 -0.16662 -0.00344
 H343 H 0.41379 -0.18888 0.00836
 H344 H 0.35883 -0.20748 0.02227
 H345 H 0.35690 -0.27507 0.02240
 H346 H 0.40996 -0.32451 0.00865
 H347 H 0.53913 -0.36096 -0.02586
 H348 H 0.59328 -0.34178 -0.04091
 H349 H 0.59549 -0.27443 -0.04066
 H350 H 0.54318 -0.22556 -0.02584
 C351 C 0.51493 0.23096 0.00483
 C352 C 0.48428 0.25760 0.01462
 C353 C 0.48510 0.29612 0.01609
 C354 C 0.51658 0.30776 0.00773
 C355 C 0.54769 0.28074 -0.00136
 C356 C 0.54687 0.24221 -0.00281
 C357 C 0.57820 0.21577 -0.01213
 C358 C 0.60944 0.22709 -0.01978
 C359 C 0.61022 0.26478 -0.01837
 C360 C 0.57977 0.29143 -0.00928
 C361 C 0.45403 0.32232 0.02584
 C362 C 0.42313 0.31071 0.03402
 C363 C 0.42228 0.27308 0.03250
 C364 C 0.45241 0.24672 0.02292
 C365 C 0.51604 0.34817 0.00733
 C366 C 0.51408 0.38237 0.00644
 C367 C 0.51325 0.19237 0.00201
 C368 C 0.51183 0.16047 -0.00068
 H369 H 0.57893 0.18612 -0.01355
 H370 H 0.63316 0.20649 -0.02684
 H371 H 0.63455 0.27343 -0.02434
 H372 H 0.58173 0.32038 -0.00847
 H373 H 0.45332 0.35192 0.02738
 H374 H 0.39973 0.33101 0.04159
 H375 H 0.39818 0.26424 0.03882
 H376 H 0.45049 0.21773 0.02218
 C377 C -0.23713 0.00514 0.50870
 C378 C -0.25641 0.02376 0.53175
 C379 C -0.29428 0.02142 0.53375
 C380 C -0.31260 0.00047 0.51271
 C381 C -0.29312 -0.01845 0.48994
 C382 C -0.25525 -0.01612 0.48794
 C383 C -0.23644 -0.03512 0.46487
 C384 C -0.25453 -0.05583 0.44433
 C385 C -0.29156 -0.05812 0.44628
 C386 C -0.31078 -0.03970 0.46876
 C387 C -0.31313 0.04045 0.55678
 C388 C -0.29508 0.06122 0.57725
 C389 C -0.25803 0.06350 0.57532
 C390 C -0.23877 0.04502 0.55290
 C391 C -0.35216 -0.00059 0.51337
 C392 C -0.38547 -0.00116 0.51259
 C393 C -0.19888 0.00815 0.50609
 C394 C -0.16714 0.01078 0.50402
 H395 H -0.20762 -0.03417 0.46243
 H396 H -0.23973 -0.07017 0.42681
 H397 H -0.30549 -0.07425 0.43029
 H398 H -0.33954 -0.04235 0.46934
 H399 H -0.34195 0.03949 0.55921
 H400 H -0.30993 0.07564 0.59469
 H401 H -0.24415 0.07969 0.59126
 H402 H -0.20999 0.04763 0.55232
 C403 C 0.23956 -0.00107 0.47764
 C404 C 0.28013 -0.03823 0.50874
 C405 C 0.31971 -0.03875 0.50918
 C406 C 0.31849 -0.00210 0.47852
 C407 C 0.27790 0.03475 0.44696
 C408 C 0.23830 0.03531 0.44658
 C409 C 0.19814 0.07265 0.41499
 C410 C 0.19711 0.10840 0.38454
 C411 C 0.23582 0.10781 0.38483
 C412 C 0.27585 0.07150 0.41562
 C413 C 0.35988 -0.07618 0.54073
 C414 C 0.36090 -0.11207 0.57098
 C415 C 0.32220 -0.11156 0.57055
 C416 C 0.28219 -0.07518 0.53987
 C417 C 0.35904 -0.00179 0.48054
 C418 C 0.39304 -0.00173 0.48339
 C419 C 0.19932 -0.00024 0.47814
 C420 C 0.16659 -0.00058 0.47967
 H421 H 0.16718 0.07460 0.41348
 H422 H 0.16610 0.13671 0.36059
 H423 H 0.23484 0.13563 0.36108
 H424 H 0.30508 0.07253 0.41453
 H425 H 0.39088 -0.07818 0.54235
 H426 H 0.39191 -0.14042 0.59487
 H427 H 0.32315 -0.13951 0.59410
 H428 H 0.25300 -0.07639 0.54086
 C429 C -0.01050 0.52293 1.23617
 C430 C -0.02183 0.56283 1.23948
 C431 C -0.02149 0.56336 1.27868
 C432 C -0.00991 0.52400 1.31425
 C433 C 0.00099 0.48417 1.31079
 C434 C 0.00068 0.48365 1.27163
 C435 C 0.01182 0.44341 1.26898
 C436 C 0.02307 0.40479 1.30405
 C437 C 0.02351 0.40527 1.34240
 C438 C 0.01252 0.44441 1.34588
 C439 C -0.03269 0.60355 1.28135
 C440 C -0.04397 0.64218 1.24625
 C441 C -0.04437 0.64169 1.20790
 C442 C -0.03345 0.60256 1.20437
 C443 C -0.00897 0.52414 1.35455
 C444 C -0.00780 0.52258 1.38863
 C445 C -0.00917 0.52186 1.19681
 C446 C -0.00707 0.51992 1.16479
 H447 H 0.01197 0.44133 1.23984
 H448 H 0.03154 0.37432 1.30147
 H449 H 0.03244 0.37514 1.36961
 H450 H 0.01324 0.44307 1.37637
 H451 H -0.03285 0.60555 1.31052
 H452 H -0.05244 0.67265 1.24884
 H453 H -0.05319 0.67179 1.18072
 H454 H -0.03426 0.60381 1.17387
 C455 C -0.00049 0.49074 0.76524
 C456 C 0.00911 0.52074 0.73891
 C457 C 0.01069 0.51938 0.70057
 C458 C 0.00260 0.48805 0.68877
 C459 C -0.00636 0.45764 0.71542
 C460 C -0.00791 0.45898 0.75379
 C461 C -0.01706 0.42831 0.77988
 C462 C -0.02444 0.39721 0.76838
 C463 C -0.02293 0.39593 0.73085
 C464 C -0.01403 0.42573 0.70454
 C465 C 0.02030 0.54975 0.67471
 C466 C 0.02823 0.58049 0.68648
 C467 C 0.02658 0.58188 0.72393
 C468 C 0.01712 0.55245 0.74996
 C469 C 0.00240 0.48803 0.64864
 C470 C 0.00169 0.48950 0.61472
 C471 C -0.00317 0.49279 0.80384
 C472 C -0.00569 0.49439 0.83583
 H473 H -0.01857 0.42799 0.80940
 H474 H -0.03137 0.37398 0.78872
 H475 H -0.02869 0.37171 0.72206
 H476 H -0.01314 0.42342 0.67569
 H477 H 0.02194 0.55002 0.64526
 H478 H 0.03573 0.60333 0.66644
 H479 H 0.03271 0.60586 0.73289
 H480 H 0.01625 0.55478 0.77881
   
