data_POSCAR
  _audit_creation_date              2014-09-24
  _audit_creation_method            'ToBaCCo'
  _symmetry_space_group_name_H-M    'P1'
  _symmetry_Int_Tables_number       1
  _symmetry_cell_setting            triclinic
  loop_
  _symmetry_equiv_pos_as_xyz
 x,y,z
_cell_length_a 24.1523
_cell_length_b 23.8389
_cell_length_c 17.3973
_cell_angle_alpha 89.850500
_cell_angle_beta 89.670000
_cell_angle_gamma 89.768800
loop_
  _atom_site_label
  _atom_site_type_symbol
  _atom_site_fract_x
  _atom_site_fract_y
  _atom_site_fract_z
C1 C 0.34363 0.28111 0.44886
 C2 C 0.33918 0.22444 0.46023
 C3 C 0.31486 0.20255 0.39497
 N4 N 0.30121 0.24462 0.34616
 C5 C 0.31884 0.29282 0.37889
 C6 C 0.30960 0.14463 0.37738
 C7 C 0.26926 0.12578 0.32447
 C8 C 0.26893 0.07317 0.29009
 C9 C 0.22261 0.07082 0.24522
 C10 C 0.19583 0.12212 0.25242
 N11 N 0.22451 0.15549 0.30081
 C12 C 0.14638 0.13681 0.21394
 C13 C 0.12973 0.19360 0.20491
 C14 C 0.07685 0.21174 0.18570
 C15 C 0.07998 0.26854 0.17437
 C16 C 0.13422 0.28351 0.18909
 N17 N 0.16459 0.23780 0.20816
 C18 C 0.15593 0.33772 0.17784
 C19 C 0.20724 0.35445 0.20861
 C20 C 0.23646 0.40196 0.18711
 C21 C 0.28263 0.40398 0.23321
 C22 C 0.28037 0.35747 0.28127
 N23 N 0.23406 0.32784 0.26624
 C24 C 0.31751 0.34578 0.34175
 H25 H 0.36306 0.30950 0.48851
 H26 H 0.35320 0.20194 0.51063
 H27 H 0.21876 0.29448 0.29862
 H28 H 0.29939 0.03999 0.29480
 H29 H 0.21104 0.03572 0.20948
 H30 H 0.03989 0.18666 0.17963
 H31 H 0.04624 0.29578 0.15721
 H32 H 0.31374 0.43651 0.23211
 H33 H 0.21196 0.19463 0.32114
 H34 H 0.22552 0.43226 0.14328
 C35 C 0.89491 0.22864 0.11926
 C36 C 0.89745 0.28576 0.12670
 C37 C 0.84443 0.30369 0.14602
 N38 N 0.81004 0.25947 0.15262
 C39 C 0.84084 0.21374 0.13629
 C40 C 0.82671 0.35992 0.15221
 C41 C 0.77652 0.37413 0.18937
 C42 C 0.74911 0.42499 0.18243
 C43 C 0.70478 0.42325 0.23261
 C44 C 0.70697 0.37160 0.26980
 N45 N 0.75049 0.34181 0.24225
 C46 C 0.67391 0.35499 0.33334
 C47 C 0.67518 0.29879 0.35948
 C48 C 0.66968 0.28129 0.43497
 C49 C 0.67170 0.22361 0.43389
 C50 C 0.67675 0.20777 0.35741
 N51 N 0.68043 0.25400 0.31234
 C52 C 0.67611 0.15218 0.32775
 C53 C 0.70599 0.14006 0.25919
 C54 C 0.69998 0.09276 0.21326
 C55 C 0.74100 0.09492 0.15802
 C56 C 0.77059 0.14351 0.17121
 N57 N 0.74876 0.17098 0.23224
 C58 C 0.81963 0.15918 0.13243
 H59 H 0.92906 0.20117 0.10415
 H60 H 0.93424 0.31090 0.11879
 H61 H 0.76621 0.20539 0.25971
 H62 H 0.76015 0.45986 0.14551
 H63 H 0.67524 0.45688 0.24131
 H64 H 0.66639 0.30738 0.48563
 H65 H 0.67094 0.19665 0.48401
 H66 H 0.74867 0.06388 0.11389
 H67 H 0.76560 0.30439 0.26516
 H68 H 0.66963 0.05973 0.21865
 C69 C 0.67948 0.71445 0.52706
 C70 C 0.68085 0.77216 0.52488
 C71 C 0.69175 0.78972 0.59905
 N72 N 0.69757 0.74488 0.64613
 C73 C 0.68912 0.69883 0.60267
 C74 C 0.69282 0.84585 0.62520
 C75 C 0.72456 0.86045 0.69010
 C76 C 0.72098 0.91064 0.73022
 C77 C 0.76270 0.90987 0.78378
 C78 C 0.79019 0.85912 0.77530
 N79 N 0.76671 0.82926 0.71830
 C80 C 0.83796 0.84295 0.81599
 C81 C 0.85726 0.78706 0.81747
 C82 C 0.90865 0.77000 0.84347
 C83 C 0.90785 0.71265 0.84533
 C84 C 0.85633 0.69615 0.81808
 N85 N 0.82559 0.74209 0.80163
 C86 C 0.83414 0.64107 0.82008
 C87 C 0.78261 0.62876 0.78549
 C88 C 0.75145 0.58071 0.79779
 C89 C 0.70940 0.58140 0.74445
 C90 C 0.71632 0.62951 0.70037
 N91 N 0.76071 0.65813 0.72620
 C92 C 0.68608 0.64381 0.63349
 H93 H 0.67246 0.68718 0.47847
 H94 H 0.67504 0.79813 0.47444
 H95 H 0.77929 0.69184 0.69804
 H96 H 0.69181 0.94462 0.72184
 H97 H 0.77192 0.94302 0.82407
 H98 H 0.94281 0.79599 0.86147
 H99 H 0.94129 0.68724 0.86731
 H100 H 0.67824 0.54931 0.73810
 H101 H 0.78244 0.79255 0.69409
 H102 H 0.75898 0.54764 0.83916
 C103 C 0.18678 0.78653 0.96757
 C104 C 0.18886 0.72912 0.96862
 C105 C 0.19403 0.71209 0.89288
 N106 N 0.19712 0.75726 0.84588
 C107 C 0.19033 0.80281 0.89113
 C108 C 0.19703 0.65547 0.86854
 C109 C 0.23487 0.63925 0.81020
 C110 C 0.26092 0.58736 0.80593
 C111 C 0.29499 0.58878 0.74254
 C112 C 0.28834 0.64123 0.70883
 N113 N 0.25191 0.67179 0.75087
 C114 C 0.31297 0.65839 0.63860
 C115 C 0.31055 0.71461 0.61251
 C116 C 0.31877 0.73205 0.53729
 C117 C 0.31826 0.78963 0.53827
 C118 C 0.30962 0.80543 0.61401
 N119 N 0.30442 0.75952 0.65918
 C120 C 0.31132 0.86119 0.64169
 C121 C 0.28185 0.87815 0.70863
 C122 C 0.28263 0.93160 0.74024
 C123 C 0.24577 0.93165 0.80082
 C124 C 0.22423 0.87792 0.80607
 N125 N 0.24617 0.84583 0.74940
 C126 C 0.18751 0.85912 0.86450
 H127 H 0.18400 0.81343 1.01749
 H128 H 0.18822 0.70285 1.01947
 H129 H 0.23384 0.80554 0.73542
 H130 H 0.25761 0.55263 0.84581
 H131 H 0.32171 0.55482 0.72409
 H132 H 0.32463 0.70603 0.48700
 H133 H 0.32379 0.81684 0.48894
 H134 H 0.23817 0.96671 0.83884
 H135 H 0.23508 0.71025 0.73523
 H136 H 0.30711 0.96723 0.72239
 O137 O 0.94214 -0.03827 -0.07309
 O138 O 1.03878 0.06041 0.01200
 O139 O 1.04960 -0.03455 -0.06290
 O140 O 0.93247 0.04793 0.01700
 O141 O 0.93517 -0.00268 0.12352
 O142 O 1.04828 -0.08602 0.04290
 O143 O 1.04142 0.01003 0.11869
 O144 O 0.94122 -0.08874 0.03357
 Cu145 Cu 0.99081 0.01395 -0.03726
 Cu146 Cu 0.99223 -0.04709 0.09012
 C147 C 0.92471 -0.07991 -0.03472
 C148 C 1.05561 0.05318 0.07999
 C149 C 1.06753 -0.07578 -0.02344
 C150 C 0.91432 0.03669 0.08424
 O151 O 0.53726 0.43006 0.51011
 O152 O 0.44304 0.54211 0.57679
 O153 O 0.43018 0.44430 0.51898
 O154 O 0.55005 0.53008 0.57462
 O155 O 0.54717 0.57310 0.46203
 O156 O 0.43520 0.47846 0.40099
 O157 O 0.44259 0.57922 0.46009
 O158 O 0.54457 0.47297 0.39790
 Cu159 Cu 0.49061 0.48244 0.55658
 Cu160 Cu 0.49289 0.52897 0.41796
 C161 C 0.55727 0.43278 0.44260
 C162 C 0.42681 0.57952 0.52975
 C163 C 0.41244 0.44657 0.45061
 C164 C 0.56659 0.56852 0.52938
 O165 O -0.03503 0.43359 -0.02184
 O166 O 0.07834 0.53243 -0.06622
 O167 O 0.06833 0.44197 0.01887
 O168 O -0.02040 0.51639 -0.11784
 O169 O -0.05435 0.56773 -0.02284
 O170 O 0.04284 0.49916 0.11226
 O171 O 0.04576 0.58910 0.02365
 O172 O -0.06054 0.48691 0.07588
 Cu173 Cu 0.02593 0.47538 -0.05575
 Cu174 Cu -0.00914 0.54140 0.05661
 C175 C -0.06670 0.44335 0.03534
 C176 C 0.07986 0.57875 -0.03009
 C177 C 0.07103 0.45739 0.08846
 C178 C -0.05293 0.55421 -0.09358
 O179 O 0.55557 1.02997 0.40100
 O180 O 0.44928 0.93039 0.46929
 O181 O 0.44812 1.03124 0.40981
 O182 O 0.55494 0.92721 0.46013
 O183 O 0.56138 0.96539 0.57534
 O184 O 0.45433 1.06948 0.52519
 O185 O 0.45242 0.96918 0.58448
 O186 O 0.55834 1.06816 0.51654
 Cu187 Cu 0.50179 0.97614 0.42325
 Cu188 Cu 0.50765 1.02097 0.56266
 C189 C 0.57304 1.06755 0.44651
 C190 C 0.43317 0.93282 0.53872
 C191 C 0.43407 1.06860 0.45816
 C192 C 0.57524 0.92782 0.52711
 C193 C 1.11480 0.09286 0.18181
 C194 C 1.08986 0.09747 0.11354
 H195 H 1.11518 0.05206 0.20949
 H196 H 1.09510 0.13520 0.07942
 C197 C 0.65029 0.59984 0.59771
 C198 C 0.60487 0.61167 0.55681
 H199 H 0.65984 0.55611 0.60855
 H200 H 0.59288 0.65455 0.54533
 C201 C -0.13767 0.40591 0.12274
 C202 C -0.10964 0.40253 0.05611
 H203 H -0.13356 0.44283 0.15844
 H204 H -0.11540 0.36682 0.01864
 C205 C 0.34632 0.90364 0.60083
 C206 C 0.39482 0.89028 0.56783
 H207 H 0.33445 0.94745 0.60259
 H208 H 0.40881 0.84716 0.56516
 C209 C -0.13891 0.59947 -0.13625
 C210 C -0.08597 0.58576 -0.14917
 H211 H -0.16204 0.57651 -0.09296
 H212 H -0.06489 0.60114 -0.20020
 C213 C 0.34563 1.10365 0.40961
 C214 C 0.39693 1.11390 0.43457
 H215 H 0.33307 1.06008 0.40946
 H216 H 0.41502 1.15520 0.43209
 C217 C 1.15059 -0.10129 -0.10105
 C218 C 1.10787 -0.11567 -0.05534
 H219 H 1.15347 -0.05744 -0.11680
 H220 H 1.09958 -0.15888 -0.04103
 C221 C 0.63927 0.39863 0.37291
 C222 C 0.59384 0.38757 0.41481
 H223 H 0.64966 0.44232 0.36405
 H224 H 0.58141 0.34493 0.42689
 C225 C 0.86940 -0.11310 -0.14314
 C226 C 0.88649 -0.11966 -0.07050
 H227 H 0.87874 -0.07484 -0.17430
 H228 H 0.87477 -0.15676 -0.03825
 C229 C 0.36036 0.38829 0.36011
 C230 C 0.36528 0.41092 0.42990
 H231 H 0.38904 0.40021 0.31487
 H232 H 0.33626 0.39961 0.47497
 C233 C 0.16381 0.61301 -0.09699
 C234 C 0.11913 0.62292 -0.05257
 H235 H 0.17047 0.56987 -0.11402
 H236 H 0.10717 0.66495 -0.03643
 C237 C 0.64603 1.10782 0.36351
 C238 C 0.60661 1.11431 0.41735
 H239 H 0.65334 1.06525 0.34435
 H240 H 0.59443 1.15508 0.43815
 C241 C 0.12601 0.37481 0.12346
 C242 C 0.10622 0.42554 0.14243
 H243 H 0.11547 0.35683 0.06829
 H244 H 0.11324 0.44210 0.19947
 C245 C 0.65957 0.89104 0.58720
 C246 C 0.61191 0.88179 0.55075
 H247 H 0.67231 0.93421 0.59452
 H248 H 0.59685 0.83969 0.54187
 C249 C 0.85172 0.11773 0.08727
 C250 C 0.87029 0.07061 0.11963
 H251 H 0.86785 0.13074 0.03177
 H252 H 0.85696 0.05966 0.17735
 C253 C 0.34360 0.61504 0.59334
 C254 C 0.39165 0.62534 0.55765
 H255 H 0.32941 0.57201 0.59596
 H256 H 0.40806 0.66742 0.55392
   
