data_POSCAR
  _audit_creation_date              2014-09-24
  _audit_creation_method            'ToBaCCo'
  _symmetry_space_group_name_H-M    'P1'
  _symmetry_Int_Tables_number       1
  _symmetry_cell_setting            triclinic
  loop_
  _symmetry_equiv_pos_as_xyz
 x,y,z
_cell_length_a 58.6908
_cell_length_b 32.5306
_cell_length_c 19.3036
_cell_angle_alpha 90.328800
_cell_angle_beta 89.906000
_cell_angle_gamma 90.238300
loop_
  _atom_site_label
  _atom_site_type_symbol
  _atom_site_fract_x
  _atom_site_fract_y
  _atom_site_fract_z
C1 C 0.74792 0.23882 0.53229
 C2 C 0.74708 0.23894 0.46165
 C3 C 0.76444 0.21734 0.41905
 C4 C 0.72859 0.26062 0.42451
 C5 C 0.72842 0.25389 0.57419
 C6 C 0.76795 0.22287 0.57073
 C7 C 0.77633 0.23837 0.36729
 C8 C 0.79427 0.21944 0.33178
 C9 C 0.80100 0.17864 0.34734
 C10 C 0.78763 0.15715 0.39678
 C11 C 0.76966 0.17615 0.43158
 C12 C 0.72443 0.30240 0.43757
 C13 C 0.70594 0.32195 0.40683
 C14 C 0.69134 0.30019 0.36192
 C15 C 0.69611 0.25875 0.34674
 C16 C 0.71464 0.23918 0.37763
 C17 C 0.70682 0.23570 0.56710
 C18 C 0.68832 0.25068 0.60497
 C19 C 0.69109 0.28421 0.65044
 C20 C 0.71282 0.30198 0.65822
 C21 C 0.73139 0.28667 0.62083
 C22 C 0.76479 0.19444 0.62436
 C23 C 0.78352 0.17824 0.65929
 C24 C 0.80577 0.19013 0.64111
 C25 C 0.80891 0.21919 0.58838
 C26 C 0.79016 0.23579 0.55410
 H27 H 0.77242 0.27022 0.35652
 H28 H 0.80365 0.23860 0.29616
 H29 H 0.79029 0.12504 0.40801
 H30 H 0.76002 0.15883 0.46949
 H31 H 0.73531 0.31966 0.47253
 H32 H 0.70300 0.35411 0.41839
 H33 H 0.71764 0.20695 0.36680
 H34 H 0.70430 0.21009 0.53180
 H35 H 0.67174 0.23663 0.59764
 H36 H 0.71543 0.32758 0.69347
 H37 H 0.74798 0.30089 0.62714
 H38 H 0.74782 0.18417 0.63830
 H39 H 0.78065 0.15577 0.69958
 H40 H 0.82587 0.22942 0.57426
 H41 H 0.79299 0.25852 0.51420
 H42 H 0.68510 0.24109 0.31277
 C43 C 0.25446 0.76204 0.46572
 C44 C 0.25408 0.75896 0.53623
 C45 C 0.23546 0.77750 0.57826
 C46 C 0.27214 0.73641 0.57399
 C47 C 0.27442 0.74838 0.42403
 C48 C 0.23469 0.77845 0.42690
 C49 C 0.22952 0.81899 0.57031
 C50 C 0.21104 0.83544 0.60666
 C51 C 0.19836 0.81089 0.65251
 C52 C 0.20489 0.76977 0.66226
 C53 C 0.22329 0.75328 0.62558
 C54 C 0.28498 0.75645 0.62535
 C55 C 0.30336 0.73657 0.65651
 C56 C 0.30909 0.69611 0.63729
 C57 C 0.29550 0.67554 0.58804
 C58 C 0.27717 0.69544 0.55690
 C59 C 0.27125 0.72168 0.36744
 C60 C 0.28995 0.70721 0.32981
 C61 C 0.31217 0.71910 0.34827
 C62 C 0.31529 0.74674 0.40365
 C63 C 0.29657 0.76166 0.44061
 C64 C 0.21296 0.76081 0.43436
 C65 C 0.19433 0.77714 0.39915
 C66 C 0.19712 0.81131 0.35567
 C67 C 0.21901 0.82826 0.34703
 C68 C 0.23766 0.81178 0.38201
 H69 H 0.23903 0.83850 0.53526
 H70 H 0.20670 0.86742 0.59906
 H71 H 0.19535 0.75000 0.69681
 H72 H 0.22764 0.72125 0.63266
 H73 H 0.28130 0.78802 0.63936
 H74 H 0.31356 0.75340 0.69385
 H75 H 0.26716 0.67919 0.51832
 H76 H 0.25431 0.71126 0.35343
 H77 H 0.28710 0.68579 0.28753
 H78 H 0.33223 0.75689 0.41815
 H79 H 0.29938 0.78319 0.48276
 H80 H 0.21042 0.73464 0.46799
 H81 H 0.17765 0.76363 0.40717
 H82 H 0.22171 0.85423 0.31310
 H83 H 0.25434 0.82552 0.37512
 H84 H 0.29912 0.64409 0.57323
 C85 C 0.24743 0.25642 -0.46036
 C86 C 0.24737 0.25791 -0.53090
 C87 C 0.26659 0.27642 -0.57036
 C88 C 0.22819 0.24033 -0.57170
 C89 C 0.22715 0.24239 -0.42103
 C90 C 0.26782 0.26827 -0.41964
 C91 C 0.27449 0.31618 -0.55514
 C92 C 0.29313 0.33265 -0.59067
 C93 C 0.30422 0.31007 -0.64361
 C94 C 0.29554 0.27053 -0.65983
 C95 C 0.27703 0.25407 -0.62371
 C96 C 0.21681 0.26453 -0.62022
 C97 C 0.19824 0.24865 -0.65702
 C98 C 0.19050 0.20792 -0.64622
 C99 C 0.20266 0.18355 -0.59853
 C100 C 0.22130 0.19946 -0.56236
 C101 C 0.22850 0.20757 -0.37907
 C102 C 0.20909 0.19238 -0.34581
 C103 C 0.18781 0.21220 -0.35250
 C104 C 0.18695 0.24823 -0.39308
 C105 C 0.20634 0.26292 -0.42709
 C106 C 0.28867 0.24826 -0.43035
 C107 C 0.30813 0.26108 -0.39454
 C108 C 0.30703 0.29420 -0.34762
 C109 C 0.28600 0.31353 -0.33582
 C110 C 0.26650 0.30041 -0.37112
 H111 H 0.26618 0.33455 -0.51562
 H112 H 0.29817 0.36376 -0.57775
 H113 H 0.30360 0.25097 -0.69803
 H114 H 0.27120 0.22328 -0.63629
 H115 H 0.22195 0.29616 -0.62829
 H116 H 0.18940 0.26939 -0.69119
 H117 H 0.23039 0.17980 -0.52684
 H118 H 0.24454 0.19157 -0.37334
 H119 H 0.21112 0.16571 -0.31324
 H120 H 0.17112 0.26421 -0.40206
 H121 H 0.20504 0.28998 -0.45929
 H122 H 0.28992 0.22313 -0.46720
 H123 H 0.32415 0.24582 -0.40484
 H124 H 0.28467 0.33882 -0.29932
 H125 H 0.25050 0.31603 -0.36204
 H126 H 0.19845 0.15156 -0.59034
 C127 C -0.25082 0.75344 -0.53895
 C128 C -0.24905 0.74812 -0.46904
 C129 C -0.26690 0.72586 -0.42934
 C130 C -0.22923 0.76438 -0.42936
 C131 C -0.23136 0.76930 -0.58019
 C132 C -0.27205 0.74277 -0.57738
 C133 C -0.27770 0.74493 -0.37309
 C134 C -0.29598 0.72571 -0.33963
 C135 C -0.30396 0.68664 -0.36162
 C136 C -0.29199 0.66693 -0.41608
 C137 C -0.27372 0.68621 -0.44913
 C138 C -0.22278 0.80587 -0.43441
 C139 C -0.20377 0.82070 -0.39851
 C140 C -0.19098 0.79446 -0.35612
 C141 C -0.19784 0.75316 -0.34977
 C142 C -0.21682 0.73832 -0.38591
 C143 C -0.21031 0.74918 -0.57944
 C144 C -0.19177 0.76503 -0.61621
 C145 C -0.19374 0.80175 -0.65458
 C146 C -0.21531 0.82097 -0.65638
 C147 C -0.23386 0.80474 -0.62009
 C148 C -0.27101 0.71791 -0.63681
 C149 C -0.29096 0.70528 -0.67037
 C150 C -0.31262 0.71686 -0.64486
 C151 C -0.31333 0.74353 -0.58683
 C152 C -0.29334 0.75669 -0.55430
 H153 H -0.27260 0.77555 -0.35691
 H154 H -0.30453 0.74301 -0.29943
 H155 H -0.29627 0.63611 -0.43292
 H156 H -0.26511 0.67044 -0.49118
 H157 H -0.23246 0.82677 -0.46629
 H158 H -0.19922 0.85284 -0.40337
 H159 H -0.22157 0.70626 -0.38105
 H160 H -0.20814 0.72146 -0.54936
 H161 H -0.17567 0.74933 -0.61101
 H162 H -0.21828 0.84804 -0.68725
 H163 H -0.25013 0.82029 -0.62215
 H164 H -0.25474 0.70700 -0.65589
 H165 H -0.28919 0.68428 -0.71365
 H166 H -0.32928 0.75533 -0.56703
 H167 H -0.29452 0.77729 -0.51019
 H168 H -0.18824 0.73211 -0.31798
 N169 N -0.02223 0.95401 0.12742
 N170 N -0.04018 0.94997 0.16790
 N171 N 0.02612 0.92901 0.07899
 N172 N 0.04437 0.90590 0.08729
 N173 N 0.02562 0.95845 0.12571
 N174 N 0.04344 0.95628 0.16695
 N175 N -0.02191 0.92494 0.07999
 N176 N -0.03965 0.90015 0.08728
 C177 C -0.05083 0.91613 0.14268
 C178 C 0.05499 0.92331 0.14254
 N179 N 0.02537 0.95578 -0.11843
 N180 N 0.04327 0.95227 -0.15966
 N181 N -0.02205 0.92352 -0.06966
 N182 N -0.03914 0.89731 -0.07692
 N183 N -0.02262 0.95150 -0.11840
 N184 N -0.04012 0.94512 -0.15999
 N185 N 0.02585 0.92759 -0.07002
 N186 N 0.04403 0.90424 -0.07692
 Mn187 Mn 0.00198 0.92570 0.00481
 C188 C 0.05473 0.91986 -0.13314
 C189 C -0.05025 0.91113 -0.13364
 N190 N 0.02327 1.04671 0.12417
 N191 N 0.04102 1.05323 0.16471
 N192 N -0.02584 1.06990 0.07766
 N193 N -0.04474 1.09155 0.08469
 N194 N -0.02460 1.04179 0.12596
 N195 N -0.04257 1.04332 0.16680
 N196 N 0.02211 1.07501 0.07615
 N197 N 0.03904 1.10157 0.08268
 Mn198 Mn 0.00057 1.00024 0.12657
 C199 C 0.05067 1.08765 0.13830
 C200 C -0.05495 1.07458 0.14081
 N201 N -0.02502 1.03999 -0.11997
 N202 N -0.04254 1.04321 -0.16248
 N203 N 0.02182 1.07368 -0.07269
 N204 N 0.03827 1.10087 -0.08172
 N205 N 0.02297 1.04448 -0.11981
 N206 N 0.04034 1.05095 -0.16202
 N207 N -0.02596 1.06847 -0.07157
 N208 N -0.04411 1.09168 -0.07960
 Mn209 Mn 0.00021 0.99791 -0.12013
 Mn210 Mn -0.00202 1.07227 0.00237
 Cl211 Cl 0.00019 0.99902 0.00332
 C212 C -0.05429 1.07564 -0.13654
 C213 C 0.04970 1.08632 -0.13762
 N214 N 0.47487 0.45906 0.12357
 N215 N 0.45671 0.45599 0.16382
 N216 N 0.52343 0.42856 0.08339
 N217 N 0.54096 0.40435 0.09544
 N218 N 0.52288 0.45897 0.12835
 N219 N 0.54005 0.45633 0.17212
 N220 N 0.47554 0.42841 0.07911
 N221 N 0.45792 0.40372 0.08778
 C222 C 0.44632 0.42120 0.14087
 C223 C 0.55115 0.42203 0.15110
 N224 N 0.52522 0.44831 -0.11672
 N225 N 0.54288 0.44144 -0.15749
 N226 N 0.47694 0.42190 -0.06920
 N227 N 0.45945 0.39655 -0.07560
 N228 N 0.47722 0.44858 -0.11993
 N229 N 0.45988 0.44219 -0.16216
 N230 N 0.52480 0.42196 -0.06550
 N231 N 0.54209 0.39626 -0.07025
 Mn232 Mn 0.50022 0.42472 0.00705
 C233 C 0.55324 0.40884 -0.12791
 C234 C 0.44897 0.40955 -0.13389
 N235 N 0.52327 0.54717 0.11866
 N236 N 0.53949 0.55481 0.16420
 N237 N 0.47632 0.57411 0.06280
 N238 N 0.45935 0.60050 0.06785
 N239 N 0.47554 0.54760 0.11380
 N240 N 0.45817 0.55543 0.15522
 N241 N 0.52435 0.57329 0.06713
 N242 N 0.54147 0.59929 0.07608
 Mn243 Mn 0.49909 0.50321 0.12193
 C244 C 0.55077 0.58730 0.13693
 C245 C 0.44818 0.58845 0.12581
 N246 N 0.47777 0.53688 -0.13017
 N247 N 0.46043 0.53962 -0.17331
 N248 N 0.52575 0.56682 -0.08225
 N249 N 0.54376 0.59064 -0.09214
 N250 N 0.52566 0.53621 -0.12684
 N251 N 0.54355 0.53822 -0.16800
 N252 N 0.47767 0.56764 -0.08585
 N253 N 0.46018 0.59206 -0.09751
 Mn254 Mn 0.50143 0.49248 -0.12423
 Mn255 Mn 0.50107 0.57104 -0.00963
 Cl256 Cl 0.50045 0.49790 -0.00120
 C257 C 0.44961 0.57425 -0.15244
 C258 C 0.55469 0.57234 -0.14600
 C259 C 0.36295 0.35639 0.25469
 C260 C 0.34886 0.32784 0.22066
 C261 C 0.32946 0.31278 0.25389
 C262 C 0.32358 0.32624 0.32119
 C263 C 0.33792 0.35608 0.35221
 N264 N 0.35689 0.36982 0.31893
 C265 C 0.38423 0.37248 0.22306
 N266 N 0.39348 0.40798 0.24844
 C267 C 0.41318 0.42424 0.22309
 C268 C 0.42486 0.40435 0.16915
 C269 C 0.41576 0.36764 0.14250
 C270 C 0.39558 0.35152 0.16937
 H271 H 0.31873 0.29174 0.22503
 H272 H 0.33493 0.36723 0.40424
 H273 H 0.41968 0.45259 0.24521
 H274 H 0.42433 0.35113 0.10122
 H275 H 0.35236 0.31754 0.16840
 H276 H 0.38939 0.32255 0.14899
 C277 C -0.13531 0.85391 0.25123
 C278 C -0.15358 0.87924 0.26998
 C279 C -0.17304 0.86201 0.29961
 C280 C -0.17454 0.81930 0.31146
 C281 C -0.15590 0.79503 0.28971
 N282 N -0.13719 0.81266 0.26052
 C283 C -0.11394 0.87104 0.22268
 N284 N -0.10148 0.84830 0.17693
 C285 C -0.08141 0.86208 0.15006
 C286 C -0.07265 0.90050 0.17027
 C287 C -0.08509 0.92414 0.21792
 C288 C -0.10573 0.90965 0.24401
 H289 H -0.18629 0.88286 0.31624
 H290 H -0.15624 0.76193 0.29400
 H291 H -0.07223 0.84287 0.11363
 H292 H -0.07888 0.95388 0.23509
 H293 H -0.15287 0.91214 0.26209
 H294 H -0.11482 0.92810 0.28173
 C295 C 0.62766 0.66589 0.26639
 C296 C 0.62750 0.67858 0.33583
 C297 C 0.64699 0.69628 0.36466
 C298 C 0.66703 0.70114 0.32496
 C299 C 0.66612 0.68861 0.25478
 N300 N 0.64677 0.67188 0.22781
 C301 C 0.60761 0.64578 0.23453
 N302 N 0.60281 0.65254 0.16653
 C303 C 0.58467 0.63457 0.13432
 C304 C 0.57042 0.60748 0.17073
 C305 C 0.57531 0.59959 0.24044
 C306 C 0.59377 0.61881 0.27260
 H307 H 0.64647 0.70404 0.41919
 H308 H 0.68047 0.69301 0.22043
 H309 H 0.58156 0.64112 0.08025
 H310 H 0.56480 0.57870 0.27025
 H311 H 0.61245 0.67487 0.36774
 H312 H 0.59742 0.61193 0.32623
 C313 C 0.13196 1.16107 0.25149
 C314 C 0.14474 1.19261 0.22064
 C315 C 0.16401 1.20811 0.25424
 C316 C 0.17105 1.19214 0.31855
 C317 C 0.15781 1.15995 0.34669
 N318 N 0.13901 1.14578 0.31320
 C319 C 0.11115 1.14325 0.21948
 N320 N 0.10273 1.10743 0.24553
 C321 C 0.08356 1.08915 0.22047
 C322 C 0.07154 1.10711 0.16584
 C323 C 0.07977 1.14404 0.13811
 C324 C 0.09946 1.16232 0.16487
 H325 H 0.17379 1.23146 0.22771
 H326 H 0.16159 1.14698 0.39675
 H327 H 0.07778 1.06064 0.24332
 H328 H 0.07088 1.15900 0.09615
 H329 H 0.14041 1.20492 0.17054
 H330 H 0.10499 1.19129 0.14345
 C331 C 0.63320 0.33351 -0.24369
 C332 C 0.63654 0.29078 -0.24517
 C333 C 0.65553 0.27467 -0.27920
 C334 C 0.67126 0.30096 -0.31138
 C335 C 0.66739 0.34346 -0.30833
 N336 N 0.64863 0.35842 -0.27562
 C337 C 0.61283 0.35216 -0.21134
 N338 N 0.60497 0.38845 -0.23650
 C339 C 0.58611 0.40713 -0.21048
 C340 C 0.57403 0.38929 -0.15550
 C341 C 0.58207 0.35239 -0.12768
 C342 C 0.60143 0.33368 -0.15547
 H343 H 0.65794 0.24169 -0.28039
 H344 H 0.67897 0.36470 -0.33336
 H345 H 0.58059 0.43583 -0.23290
 H346 H 0.57333 0.33785 -0.08480
 H347 H 0.62437 0.26987 -0.22206
 H348 H 0.60749 0.30543 -0.13279
 C349 C 0.13881 0.85740 -0.24544
 C350 C 0.15424 0.83287 -0.20854
 C351 C 0.17372 0.81799 -0.24159
 C352 C 0.17812 0.82776 -0.31103
 C353 C 0.16262 0.85325 -0.34552
 N354 N 0.14365 0.86710 -0.31243
 C355 C 0.11743 0.87309 -0.21400
 N356 N 0.10685 0.90577 -0.24369
 C357 C 0.08696 0.92139 -0.21884
 C358 C 0.07642 0.90369 -0.16089
 C359 C 0.08690 0.86988 -0.12969
 C360 C 0.10729 0.85441 -0.15609
 H361 H 0.18548 0.79918 -0.21261
 H362 H 0.16528 0.86138 -0.39922
 H363 H 0.07939 0.94747 -0.24450
 H364 H 0.07925 0.85511 -0.08516
 H365 H 0.15160 0.82549 -0.15459
 H366 H 0.11457 0.82760 -0.13201
 C367 C 0.36866 0.63929 -0.27842
 C368 C 0.36310 0.63313 -0.34849
 C369 C 0.34363 0.65138 -0.37565
 C370 C 0.32961 0.67592 -0.33352
 C371 C 0.33587 0.68160 -0.26389
 N372 N 0.35496 0.66352 -0.23859
 C373 C 0.38938 0.62131 -0.24714
 N374 N 0.39871 0.63981 -0.19035
 C375 C 0.41783 0.62538 -0.15920
 C376 C 0.42870 0.59015 -0.18510
 C377 C 0.41918 0.57014 -0.24277
 C378 C 0.39955 0.58550 -0.27382
 H379 H 0.33984 0.64707 -0.43010
 H380 H 0.32552 0.70008 -0.22939
 H381 H 0.42452 0.64150 -0.11439
 H382 H 0.42687 0.54256 -0.26386
 H383 H 0.37389 0.61536 -0.38272
 H384 H 0.39234 0.56903 -0.31743
 C385 C -0.13630 1.13977 -0.25611
 C386 C -0.15523 1.15244 -0.21694
 C387 C -0.17420 1.16862 -0.25046
 C388 C -0.17434 1.17238 -0.32279
 C389 C -0.15521 1.15888 -0.36013
 N390 N -0.13698 1.14296 -0.32637
 C391 C -0.11565 1.12299 -0.22306
 N392 N -0.10274 1.09516 -0.25840
 C393 C -0.08330 1.07914 -0.23158
 C394 C -0.07565 1.09170 -0.16596
 C395 C -0.08859 1.12056 -0.12891
 C396 C -0.10859 1.13617 -0.15710
 H397 H -0.18863 1.17869 -0.21983
 H398 H -0.15484 1.16066 -0.41610
 H399 H -0.07371 1.05709 -0.26191
 H400 H -0.08322 1.13116 -0.07819
 H401 H -0.15555 1.14949 -0.16114
 H402 H -0.11805 1.15904 -0.12819
 C403 C 0.63696 0.63312 -0.27240
 C404 C 0.64356 0.62209 -0.33979
 C405 C 0.66311 0.63935 -0.36873
 C406 C 0.67637 0.66822 -0.33146
 C407 C 0.66882 0.67864 -0.26403
 N408 N 0.64972 0.66114 -0.23695
 C409 C 0.61612 0.61607 -0.23966
 N410 N 0.60582 0.63757 -0.18760
 C411 C 0.58638 0.62417 -0.15626
 C412 C 0.57616 0.58712 -0.17733
 C413 C 0.58675 0.56406 -0.22973
 C414 C 0.60672 0.57823 -0.26068
 H415 H 0.66693 0.63131 -0.42189
 H416 H 0.67835 0.69956 -0.23136
 H417 H 0.57884 0.64267 -0.11554
 H418 H 0.57963 0.53496 -0.24681
 H419 H 0.63344 0.60134 -0.37118
 H420 H 0.61472 0.55934 -0.29996
 C421 C 0.12859 1.16334 -0.25765
 C422 C 0.13005 1.20564 -0.27025
 C423 C 0.14951 1.22183 -0.30161
 C424 C 0.16791 1.19618 -0.32020
 C425 C 0.16555 1.15378 -0.30623
 N426 N 0.14623 1.13878 -0.27662
 C427 C 0.10816 1.14457 -0.22586
 N428 N 0.10214 1.10551 -0.24408
 C429 C 0.08353 1.08638 -0.21700
 C430 C 0.06992 1.10661 -0.16780
 C431 C 0.07602 1.14659 -0.14738
 C432 C 0.09505 1.16574 -0.17643
 H433 H 0.15027 1.25475 -0.30873
 H434 H 0.17851 1.13200 -0.32144
 H435 H 0.07950 1.05535 -0.23356
 H436 H 0.06604 1.16313 -0.10916
 H437 H 0.11618 1.22606 -0.25699
 H438 H 0.09963 1.19641 -0.15938
 C439 C 0.36754 0.33863 -0.24914
 C440 C 0.36318 0.29614 -0.25132
 C441 C 0.34338 0.28158 -0.28318
 C442 C 0.32788 0.30918 -0.31241
 C443 C 0.33285 0.35136 -0.30907
 N444 N 0.35236 0.36480 -0.27847
 C445 C 0.38854 0.35575 -0.21801
 N446 N 0.39705 0.39179 -0.24280
 C447 C 0.41631 0.40941 -0.21699
 C448 C 0.42806 0.39076 -0.16245
 C449 C 0.41942 0.35397 -0.13527
 C450 C 0.39972 0.33631 -0.16296
 H451 H 0.34013 0.24879 -0.28480
 H452 H 0.32148 0.37357 -0.33199
 H453 H 0.42231 0.43804 -0.23892
 H454 H 0.42791 0.33881 -0.09274
 H455 H 0.37511 0.27429 -0.23019
 H456 H 0.39315 0.30822 -0.14060
 C457 C -0.13149 0.83983 -0.25151
 C458 C -0.14637 0.81280 -0.21699
 C459 C -0.16572 0.79792 -0.25106
 C460 C -0.17047 0.81005 -0.31917
 C461 C -0.15532 0.83739 -0.35152
 N462 N -0.13656 0.85135 -0.31742
 C463 C -0.11069 0.85710 -0.21856
 N464 N -0.10094 0.89114 -0.24696
 C465 C -0.08176 0.90883 -0.22077
 C466 C -0.07110 0.89208 -0.16249
 C467 C -0.08068 0.85687 -0.13246
 C468 C -0.10039 0.83920 -0.16035
 H469 H -0.17719 0.77752 -0.22367
 H470 H -0.15818 0.84727 -0.40422
 H471 H -0.07489 0.93594 -0.24562
 H472 H -0.07288 0.84284 -0.08767
 H473 H -0.14353 0.80372 -0.16396
 H474 H -0.10706 0.81152 -0.13704
 C475 C 0.36953 0.66720 0.24330
 C476 C 0.35114 0.68207 0.20442
 C477 C 0.33242 0.69920 0.23854
 C478 C 0.33207 0.70184 0.31109
 C479 C 0.35080 0.68675 0.34797
 N480 N 0.36870 0.66975 0.31368
 C481 C 0.38946 0.64744 0.21040
 N482 N 0.40109 0.61855 0.24664
 C483 C 0.41968 0.59917 0.22040
 C484 C 0.42781 0.60901 0.15416
 C485 C 0.41627 0.63898 0.11602
 C486 C 0.39705 0.65819 0.14382
 H487 H 0.31826 0.71050 0.20832
 H488 H 0.35101 0.68766 0.40403
 H489 H 0.42818 0.57638 0.25164
 H490 H 0.42209 0.64754 0.06480
 H491 H 0.35091 0.67968 0.14850
 H492 H 0.38860 0.68171 0.11406
 C493 C -0.14013 1.12715 0.25904
 C494 C -0.14910 1.11099 0.32047
 C495 C -0.16887 1.12752 0.34890
 C496 C -0.18009 1.16108 0.31760
 C497 C -0.17024 1.17621 0.25558
 N498 N -0.15101 1.15915 0.22877
 C499 C -0.11867 1.11172 0.22757
 N500 N -0.10782 1.13516 0.17920
 C501 C -0.08772 1.12379 0.14967
 C502 C -0.07721 1.08706 0.16937
 C503 C -0.08827 1.06202 0.21784
 C504 C -0.10902 1.07392 0.24644
 H505 H -0.17411 1.11522 0.39831
 H506 H -0.17803 1.20045 0.22607
 H507 H -0.07980 1.14377 0.11193
 H508 H -0.08092 1.03306 0.23353
 H509 H -0.14068 1.08678 0.34852
 H510 H -0.11723 1.05330 0.28242
 C511 C 0.63189 0.35725 0.27805
 C512 C 0.63817 0.36516 0.34708
 C513 C 0.65762 0.34679 0.37410
 C514 C 0.67085 0.32035 0.33293
 C515 C 0.66389 0.31293 0.26443
 N516 N 0.64487 0.33122 0.23919
 C517 C 0.61120 0.37524 0.24677
 N518 N 0.60169 0.35621 0.19076
 C519 C 0.58263 0.37057 0.15936
 C520 C 0.57198 0.40625 0.18422
 C521 C 0.58163 0.42678 0.24114
 C522 C 0.60124 0.41151 0.27240
 H523 H 0.66202 0.35254 0.42775
 H524 H 0.67364 0.29292 0.23075
 H525 H 0.57581 0.35402 0.11518
 H526 H 0.57408 0.45471 0.26137
 H527 H 0.62798 0.38440 0.38073
 H528 H 0.60858 0.42845 0.31529
 C529 C 0.13846 0.86423 0.26045
 C530 C 0.15533 0.89000 0.28884
 C531 C 0.17459 0.87274 0.31907
 C532 C 0.17716 0.82991 0.32105
 C533 C 0.16015 0.80525 0.29077
 N534 N 0.14153 0.82277 0.26152
 C535 C 0.11736 0.88088 0.22978
 N536 N 0.10633 0.85879 0.17980
 C537 C 0.08658 0.87183 0.15056
 C538 C 0.07664 0.90887 0.17234
 C539 C 0.08762 0.93195 0.22407
 C540 C 0.10793 0.91813 0.25286
 H541 H 0.18726 0.89287 0.34204
 H542 H 0.16167 0.77211 0.29021
 H543 H 0.07857 0.85307 0.11095
 H544 H 0.08046 0.96062 0.24258
 H545 H 0.15384 0.92311 0.28744
 H546 H 0.11576 0.93601 0.29388
   
