data_POSCAR
  _audit_creation_date              2014-09-24
  _audit_creation_method            'ToBaCCo'
  _symmetry_space_group_name_H-M    'P1'
  _symmetry_Int_Tables_number       1
  _symmetry_cell_setting            triclinic
  loop_
  _symmetry_equiv_pos_as_xyz
 x,y,z
_cell_length_a 54.1856
_cell_length_b 36.4764
_cell_length_c 22.6997
_cell_angle_alpha 89.957000
_cell_angle_beta 89.971900
_cell_angle_gamma 90.035100
loop_
  _atom_site_label
  _atom_site_type_symbol
  _atom_site_fract_x
  _atom_site_fract_y
  _atom_site_fract_z
O1 O 0.78103 0.25701 0.44411
 O2 O 0.73989 0.29484 0.55799
 O3 O 0.78084 0.25708 0.55847
 O4 O 0.74009 0.29472 0.44365
 O5 O 0.71862 0.24334 0.44364
 O6 O 0.75935 0.20571 0.55848
 O7 O 0.71842 0.24352 0.55799
 O8 O 0.75955 0.20563 0.44412
 Cu9 Cu 0.76261 0.28105 0.50107
 Cu10 Cu 0.73684 0.21941 0.50108
 C11 C 0.77748 0.22471 0.42498
 C12 C 0.72191 0.27585 0.57716
 C13 C 0.77722 0.22480 0.57773
 C14 C 0.72224 0.27560 0.42435
 O15 O 0.26016 0.70520 0.55830
 O16 O 0.21906 0.74316 0.44445
 O17 O 0.25993 0.70529 0.44396
 O18 O 0.21926 0.74308 0.55881
 O19 O 0.24082 0.79438 0.55860
 O20 O 0.28149 0.75659 0.44376
 O21 O 0.24063 0.79446 0.44425
 O22 O 0.28170 0.75645 0.55811
 Cu23 Cu 0.23745 0.71905 0.50142
 Cu24 Cu 0.26332 0.78060 0.50118
 C25 C 0.27818 0.72412 0.57736
 C26 C 0.22267 0.77544 0.42521
 C27 C 0.27782 0.72434 0.42456
 C28 C 0.22292 0.77535 0.57796
 O29 O 0.25986 0.29451 -0.55995
 O30 O 0.21884 0.25678 -0.44559
 O31 O 0.25977 0.29456 -0.44560
 O32 O 0.21891 0.25669 -0.55995
 O33 O 0.24036 0.20539 -0.55978
 O34 O 0.28124 0.24322 -0.44543
 O35 O 0.24031 0.20544 -0.44543
 O36 O 0.28131 0.24322 -0.55979
 Cu37 Cu 0.23720 0.28077 -0.50281
 Cu38 Cu 0.26295 0.21918 -0.50261
 C39 C 0.27782 0.27552 -0.57912
 C40 C 0.22241 0.22451 -0.42629
 C41 C 0.27764 0.27550 -0.42630
 C42 C 0.22242 0.22436 -0.57911
 O43 O -0.26000 0.70538 -0.55594
 O44 O -0.21912 0.74313 -0.44149
 O45 O -0.26004 0.70527 -0.44160
 O46 O -0.21910 0.74328 -0.55585
 O47 O -0.24062 0.79458 -0.55576
 O48 O -0.28154 0.75653 -0.44151
 O49 O -0.24064 0.79443 -0.44140
 O50 O -0.28152 0.75667 -0.55585
 Cu51 Cu -0.23741 0.71913 -0.49873
 Cu52 Cu -0.26323 0.78068 -0.49862
 C53 C -0.27791 0.72442 -0.57511
 C54 C -0.22273 0.77538 -0.42224
 C55 C -0.27801 0.72420 -0.42230
 C56 C -0.22270 0.77557 -0.57498
 N57 N 0.02620 1.03980 0.10466
 N58 N 0.04451 1.04495 0.14202
 N59 N -0.02573 1.06537 0.06420
 N60 N -0.04401 1.08867 0.07306
 N61 N -0.02569 1.03981 0.10495
 N62 N -0.04391 1.04498 0.14256
 N63 N 0.02621 1.06534 0.06389
 N64 N 0.04454 1.08861 0.07247
 C65 C 0.05585 1.07545 0.12135
 C66 C -0.05525 1.07551 0.12208
 N67 N -0.02585 1.03965 -0.10337
 N68 N -0.04415 1.04475 -0.14078
 N69 N 0.02612 1.06524 -0.06310
 N70 N 0.04439 1.08856 -0.07219
 N71 N 0.02604 1.03962 -0.10367
 N72 N 0.04424 1.04476 -0.14140
 N73 N -0.02583 1.06526 -0.06278
 N74 N -0.04412 1.08853 -0.07152
 Mn75 Mn 0.00019 1.06577 0.00055
 C76 C -0.05545 1.07531 -0.12031
 C77 C 0.05559 1.07534 -0.12117
 N78 N -0.02574 0.96093 0.10521
 N79 N -0.04400 0.95584 0.14280
 N80 N 0.02614 0.93529 0.06437
 N81 N 0.04439 0.91196 0.07325
 N82 N 0.02615 0.96091 0.10494
 N83 N 0.04440 0.95575 0.14247
 N84 N -0.02581 0.93532 0.06461
 N85 N -0.04412 0.91207 0.07353
 Mn86 Mn 0.00023 1.00036 0.10559
 C87 C -0.05536 0.92530 0.12244
 C88 C 0.05568 0.92516 0.12211
 N89 N 0.02600 0.96073 -0.10338
 N90 N 0.04427 0.95559 -0.14090
 N91 N -0.02590 0.93520 -0.06237
 N92 N -0.04420 0.91189 -0.07105
 N93 N -0.02589 0.96075 -0.10311
 N94 N -0.04417 0.95557 -0.14057
 N95 N 0.02604 0.93519 -0.06261
 N96 N 0.04435 0.91195 -0.07133
 Mn97 Mn 0.00007 1.00019 -0.10404
 Mn98 Mn 0.00012 0.93479 0.00100
 Cl99 Cl 0.00016 1.00028 0.00078
 C100 C 0.05562 0.92510 -0.12030
 C101 C -0.05549 0.92503 -0.11997
 N102 N 0.47402 0.43480 -0.06462
 N103 N 0.45572 0.41153 -0.07354
 N104 N 0.52598 0.46044 -0.10503
 N105 N 0.54424 0.45529 -0.14258
 N106 N 0.52596 0.43481 -0.06441
 N107 N 0.54422 0.41149 -0.07326
 N108 N 0.47409 0.46043 -0.10524
 N109 N 0.45586 0.45534 -0.14285
 C110 C 0.44451 0.42477 -0.12248
 C111 C 0.55552 0.42470 -0.12216
 N112 N 0.52600 0.56487 -0.06417
 N113 N 0.54431 0.58816 -0.07285
 N114 N 0.47411 0.53933 -0.10512
 N115 N 0.45589 0.54452 -0.14273
 N116 N 0.47405 0.56486 -0.06440
 N117 N 0.45578 0.58816 -0.07326
 N118 N 0.52600 0.53934 -0.10489
 N119 N 0.54431 0.54451 -0.14231
 Mn120 Mn 0.50005 0.49989 -0.10572
 C121 C 0.55563 0.57503 -0.12172
 C122 C 0.44455 0.57504 -0.12226
 N123 N 0.52584 0.43468 0.06259
 N124 N 0.54414 0.41142 0.07141
 N125 N 0.47389 0.46020 0.10307
 N126 N 0.45561 0.45498 0.14056
 N127 N 0.47389 0.43466 0.06237
 N128 N 0.45560 0.41133 0.07112
 N129 N 0.52578 0.46022 0.10329
 N130 N 0.54402 0.45509 0.14084
 Mn131 Mn 0.49993 0.43428 -0.00102
 C132 C 0.55537 0.42459 0.12037
 C133 C 0.44430 0.42444 0.12004
 N134 N 0.47393 0.56472 0.06258
 N135 N 0.45566 0.58802 0.07141
 N136 N 0.52580 0.53911 0.10343
 N137 N 0.54399 0.54426 0.14113
 N138 N 0.52588 0.56474 0.06281
 N139 N 0.54413 0.58806 0.07183
 N140 N 0.47391 0.53908 0.10320
 N141 N 0.45564 0.54420 0.14070
 Mn142 Mn 0.49996 0.56526 -0.00080
 Mn143 Mn 0.49984 0.49965 0.10390
 Cl144 Cl 0.49995 0.49977 -0.00091
 C145 C 0.44435 0.57478 0.12027
 C146 C 0.55533 0.57485 0.12081
 C147 C 0.32882 0.32252 0.30187
 C148 C 0.33183 0.28627 0.32062
 C149 C 0.31465 0.27035 0.35888
 C150 C 0.29418 0.29060 0.37927
 C151 C 0.29104 0.32682 0.35874
 C152 C 0.30827 0.34261 0.32048
 C153 C 0.34752 0.33978 0.26635
 C154 C 0.36356 0.35463 0.23825
 C155 C 0.38310 0.37279 0.20669
 C156 C 0.39310 0.35714 0.15568
 C157 C 0.41285 0.37419 0.12681
 C158 C 0.42283 0.40702 0.14884
 C159 C 0.41245 0.42278 0.19961
 C160 C 0.39272 0.40574 0.22833
 H161 H 0.34772 0.27051 0.30658
 H162 H 0.31776 0.24243 0.37334
 H163 H 0.27556 0.34334 0.37309
 H164 H 0.30580 0.37074 0.30634
 H165 H 0.38582 0.33160 0.13862
 H166 H 0.42048 0.36148 0.08774
 H167 H 0.41972 0.44809 0.21751
 H168 H 0.38516 0.41805 0.26782
 C169 C -0.17089 0.82366 0.30440
 C170 C -0.16788 0.78734 0.32287
 C171 C -0.18508 0.77133 0.36098
 C172 C -0.20550 0.79155 0.38123
 C173 C -0.20866 0.82779 0.36130
 C174 C -0.19144 0.84372 0.32320
 C175 C -0.15220 0.84100 0.26897
 C176 C -0.13616 0.85585 0.24089
 C177 C -0.11661 0.87395 0.20929
 C178 C -0.10691 0.90685 0.23092
 C179 C -0.08717 0.92380 0.20214
 C180 C -0.07685 0.90800 0.15133
 C181 C -0.08691 0.87521 0.12933
 C182 C -0.10668 0.85826 0.15825
 H183 H -0.15199 0.77161 0.30876
 H184 H -0.18210 0.74339 0.37548
 H185 H -0.22417 0.84410 0.37606
 H186 H -0.19389 0.87192 0.30935
 H187 H -0.11443 0.91920 0.27044
 H188 H -0.07983 0.94908 0.22002
 H189 H -0.07934 0.86247 0.09023
 H190 H -0.11402 0.83275 0.14121
 C191 C 0.67040 0.67662 0.30389
 C192 C 0.69094 0.65654 0.32262
 C193 C 0.70813 0.67238 0.36086
 C194 C 0.70492 0.70855 0.38101
 C195 C 0.68449 0.72879 0.36084
 C196 C 0.66734 0.71288 0.32260
 C197 C 0.65175 0.65936 0.26826
 C198 C 0.63578 0.64453 0.24002
 C199 C 0.61630 0.62641 0.20824
 C200 C 0.60665 0.59342 0.22971
 C201 C 0.58700 0.57641 0.20075
 C202 C 0.57673 0.59224 0.14989
 C203 C 0.58675 0.62512 0.12804
 C204 C 0.60642 0.64214 0.15716
 H205 H 0.69344 0.62840 0.30859
 H206 H 0.72363 0.65605 0.37554
 H207 H 0.68148 0.75667 0.37551
 H208 H 0.65144 0.72862 0.30854
 H209 H 0.61413 0.58104 0.26926
 H210 H 0.57970 0.55106 0.21851
 H211 H 0.57920 0.63789 0.08891
 H212 H 0.61373 0.66772 0.14023
 C213 C 0.17151 1.17724 0.30208
 C214 C 0.19205 1.15717 0.32082
 C215 C 0.20925 1.17301 0.35899
 C216 C 0.20610 1.20925 0.37932
 C217 C 0.18565 1.22948 0.35876
 C218 C 0.16850 1.21352 0.32058
 C219 C 0.15281 1.15993 0.26671
 C220 C 0.13677 1.14507 0.23875
 C221 C 0.11719 1.12693 0.20737
 C222 C 0.10754 1.09403 0.22922
 C223 C 0.08777 1.07704 0.20071
 C224 C 0.07737 1.09280 0.14994
 C225 C 0.08739 1.12558 0.12770
 C226 C 0.10719 1.14258 0.15637
 H227 H 0.19451 1.12901 0.30686
 H228 H 0.22472 1.15650 0.37347
 H229 H 0.18254 1.25743 0.37306
 H230 H 0.15262 1.22926 0.30644
 H231 H 0.11512 1.08172 0.26872
 H232 H 0.08047 1.05177 0.21876
 H233 H 0.07975 1.13830 0.08863
 H234 H 0.11449 1.16809 0.13916
 C235 C 0.67085 0.32292 -0.30423
 C236 C 0.69142 0.34300 -0.32289
 C237 C 0.70865 0.32720 -0.36102
 C238 C 0.70551 0.29096 -0.38140
 C239 C 0.68502 0.27072 -0.36099
 C240 C 0.66783 0.28665 -0.32284
 C241 C 0.65216 0.34017 -0.26876
 C242 C 0.63614 0.35501 -0.24065
 C243 C 0.61662 0.37313 -0.20905
 C244 C 0.60703 0.40612 -0.23063
 C245 C 0.58734 0.42313 -0.20184
 C246 C 0.57696 0.40731 -0.15105
 C247 C 0.58692 0.37444 -0.12909
 C248 C 0.60663 0.35742 -0.15803
 H249 H 0.69389 0.37115 -0.30885
 H250 H 0.72415 0.34372 -0.37540
 H251 H 0.68191 0.24278 -0.37533
 H252 H 0.65193 0.27088 -0.30877
 H253 H 0.61459 0.41848 -0.27013
 H254 H 0.58008 0.44847 -0.21969
 H255 H 0.57929 0.36168 -0.09001
 H256 H 0.61389 0.33185 -0.14102
 C257 C 0.17122 0.82336 -0.30129
 C258 C 0.19178 0.84342 -0.32014
 C259 C 0.20898 0.82750 -0.35824
 C260 C 0.20579 0.79127 -0.37813
 C261 C 0.18536 0.77104 -0.35779
 C262 C 0.16819 0.78703 -0.31969
 C263 C 0.15252 0.84070 -0.26597
 C264 C 0.13648 0.85557 -0.23801
 C265 C 0.11691 0.87369 -0.20660
 C266 C 0.10723 0.90654 -0.22848
 C267 C 0.08747 0.92351 -0.19989
 C268 C 0.07711 0.90777 -0.14901
 C269 C 0.08716 0.87504 -0.12675
 C270 C 0.10694 0.85806 -0.15549
 H271 H 0.19425 0.87162 -0.30635
 H272 H 0.22449 0.84382 -0.37307
 H273 H 0.18235 0.74311 -0.37226
 H274 H 0.15228 0.77130 -0.30554
 H275 H 0.11477 0.91883 -0.26806
 H276 H 0.08015 0.94874 -0.21796
 H277 H 0.07956 0.86235 -0.08759
 H278 H 0.11427 0.83260 -0.13825
 C279 C 0.32921 0.67690 -0.30416
 C280 C 0.30862 0.65687 -0.32268
 C281 C 0.29138 0.67273 -0.36077
 C282 C 0.29456 0.70897 -0.38122
 C283 C 0.31508 0.72915 -0.36094
 C284 C 0.33226 0.71317 -0.32284
 C285 C 0.34790 0.65960 -0.26874
 C286 C 0.36392 0.64474 -0.24067
 C287 C 0.38345 0.62661 -0.20911
 C288 C 0.39337 0.64223 -0.15800
 C289 C 0.41309 0.62521 -0.12908
 C290 C 0.42312 0.59243 -0.15116
 C291 C 0.41282 0.57670 -0.20204
 C292 C 0.39312 0.59372 -0.23081
 H293 H 0.30612 0.62873 -0.30858
 H294 H 0.27586 0.65625 -0.37505
 H295 H 0.31822 0.75709 -0.37534
 H296 H 0.34819 0.72889 -0.30887
 H297 H 0.38605 0.66772 -0.14089
 H298 H 0.42065 0.63789 -0.08993
 H299 H 0.42013 0.55144 -0.21998
 H300 H 0.38561 0.58143 -0.27038
 C301 C -0.17104 1.17697 -0.30142
 C302 C -0.19159 1.15686 -0.32013
 C303 C -0.20880 1.17273 -0.35827
 C304 C -0.20563 1.20894 -0.37833
 C305 C -0.18521 1.22922 -0.35813
 C306 C -0.16803 1.21329 -0.31999
 C307 C -0.15234 1.15968 -0.26605
 C308 C -0.13629 1.14484 -0.23806
 C309 C -0.11673 1.12673 -0.20661
 C310 C -0.10711 1.09380 -0.22829
 C311 C -0.08736 1.07682 -0.19969
 C312 C -0.07695 1.09264 -0.14901
 C313 C -0.08693 1.12545 -0.12694
 C314 C -0.10671 1.14243 -0.15569
 H315 H -0.19404 1.12868 -0.30620
 H316 H -0.22430 1.15637 -0.37298
 H317 H -0.18222 1.25714 -0.37274
 H318 H -0.15213 1.22906 -0.30595
 H319 H -0.11470 1.08145 -0.26773
 H320 H -0.08009 1.05153 -0.21761
 H321 H -0.07928 1.13820 -0.08793
 H322 H -0.11398 1.16796 -0.13861
 C323 C 0.67114 0.67699 -0.30323
 C324 C 0.66809 0.71326 -0.32184
 C325 C 0.68521 0.72924 -0.36013
 C326 C 0.70568 0.70905 -0.38068
 C327 C 0.70886 0.67281 -0.36028
 C328 C 0.69168 0.65695 -0.32199
 C329 C 0.65247 0.65966 -0.26771
 C330 C 0.63645 0.64478 -0.23962
 C331 C 0.61690 0.62661 -0.20810
 C332 C 0.60689 0.64226 -0.15711
 C333 C 0.58712 0.62522 -0.12832
 C334 C 0.57713 0.59241 -0.15042
 C335 C 0.58754 0.57665 -0.20116
 C336 C 0.60728 0.59367 -0.22980
 H337 H 0.65220 0.72898 -0.30768
 H338 H 0.68208 0.75718 -0.37449
 H339 H 0.72434 0.65633 -0.37476
 H340 H 0.69417 0.62880 -0.30796
 H341 H 0.61417 0.66779 -0.14002
 H342 H 0.57947 0.63793 -0.08928
 H343 H 0.58026 0.55136 -0.21911
 H344 H 0.61487 0.58136 -0.26928
 C345 C 0.17068 1.17687 -0.30497
 C346 C 0.16766 1.21313 -0.32378
 C347 C 0.18482 1.22898 -0.36216
 C348 C 0.20522 1.20868 -0.38234
 C349 C 0.20838 1.17251 -0.36211
 C350 C 0.19119 1.15672 -0.32374
 C351 C 0.15204 1.15968 -0.26918
 C352 C 0.13606 1.14490 -0.24081
 C353 C 0.11658 1.12681 -0.20890
 C354 C 0.10669 1.14259 -0.15787
 C355 C 0.08701 1.12560 -0.12864
 C356 C 0.07699 1.09270 -0.15034
 C357 C 0.08727 1.07683 -0.20114
 C358 C 0.10692 1.09381 -0.23021
 H359 H 0.15179 1.22892 -0.30970
 H360 H 0.18183 1.25687 -0.37689
 H361 H 0.22386 1.15613 -0.37680
 H362 H 0.19366 1.12858 -0.30963
 H363 H 0.11400 1.16817 -0.14107
 H364 H 0.07947 1.13840 -0.08956
 H365 H 0.07996 1.05147 -0.21879
 H366 H 0.11441 1.08139 -0.26972
 C367 C 0.32928 0.32328 -0.30517
 C368 C 0.33230 0.28699 -0.32373
 C369 C 0.31516 0.27109 -0.36202
 C370 C 0.29479 0.29137 -0.38238
 C371 C 0.29162 0.32758 -0.36238
 C372 C 0.30878 0.34341 -0.32409
 C373 C 0.34791 0.34052 -0.26953
 C374 C 0.36390 0.35532 -0.24130
 C375 C 0.38340 0.37340 -0.20958
 C376 C 0.39331 0.35764 -0.15856
 C377 C 0.41303 0.37460 -0.12954
 C378 C 0.42306 0.40746 -0.15143
 C379 C 0.41276 0.42333 -0.20222
 C380 C 0.39307 0.40638 -0.23109
 H381 H 0.34815 0.27121 -0.30953
 H382 H 0.31815 0.24317 -0.37657
 H383 H 0.27615 0.34394 -0.37722
 H384 H 0.30632 0.37158 -0.31017
 H385 H 0.38599 0.33207 -0.14162
 H386 H 0.42059 0.36180 -0.09047
 H387 H 0.42008 0.44866 -0.22001
 H388 H 0.38556 0.41878 -0.27059
 C389 C -0.17096 0.82320 -0.30145
 C390 C -0.19150 0.84329 -0.32015
 C391 C -0.20872 0.82744 -0.35830
 C392 C -0.20555 0.79125 -0.37838
 C393 C -0.18512 0.77099 -0.35822
 C394 C -0.16794 0.78691 -0.32007
 C395 C -0.15226 0.84047 -0.26600
 C396 C -0.13623 0.85531 -0.23795
 C397 C -0.11669 0.87345 -0.20644
 C398 C -0.10705 0.90640 -0.22815
 C399 C -0.08733 0.92342 -0.19949
 C400 C -0.07696 0.90764 -0.14870
 C401 C -0.08696 0.87481 -0.12660
 C402 C -0.10671 0.85778 -0.15542
 H403 H -0.19396 0.87145 -0.30619
 H404 H -0.22422 0.84378 -0.37298
 H405 H -0.18213 0.74310 -0.37284
 H406 H -0.15204 0.77116 -0.30604
 H407 H -0.11461 0.91873 -0.26766
 H408 H -0.08005 0.94872 -0.21745
 H409 H -0.07935 0.86208 -0.08752
 H410 H -0.11400 0.83224 -0.13831
 C411 C 0.32926 0.67655 0.30296
 C412 C 0.30873 0.65646 0.32195
 C413 C 0.29162 0.67230 0.36038
 C414 C 0.29488 0.70847 0.38046
 C415 C 0.31528 0.72873 0.36001
 C416 C 0.33236 0.71282 0.32158
 C417 C 0.34785 0.65928 0.26724
 C418 C 0.36381 0.64443 0.23897
 C419 C 0.38327 0.62629 0.20724
 C420 C 0.39284 0.59326 0.22870
 C421 C 0.41251 0.57626 0.19987
 C422 C 0.42291 0.59213 0.14915
 C423 C 0.41297 0.62504 0.12727
 C424 C 0.39327 0.64205 0.15627
 H425 H 0.30621 0.62830 0.30799
 H426 H 0.27614 0.65596 0.37528
 H427 H 0.31834 0.75662 0.37462
 H428 H 0.34824 0.72857 0.30733
 H429 H 0.38527 0.58086 0.26817
 H430 H 0.41975 0.55089 0.21764
 H431 H 0.42061 0.63784 0.08825
 H432 H 0.38603 0.66766 0.13935
 C433 C -0.17063 1.17699 0.30435
 C434 C -0.19116 1.15682 0.32312
 C435 C -0.20840 1.17263 0.36125
 C436 C -0.20528 1.20885 0.38125
 C437 C -0.18486 1.22917 0.36106
 C438 C -0.16765 1.21329 0.32292
 C439 C -0.15193 1.15979 0.26883
 C440 C -0.13591 1.14501 0.24068
 C441 C -0.11637 1.12694 0.20905
 C442 C -0.10671 1.09401 0.23067
 C443 C -0.08701 1.07705 0.20185
 C444 C -0.07669 1.09287 0.15100
 C445 C -0.08671 1.12568 0.12899
 C446 C -0.10644 1.14265 0.15797
 H447 H -0.19359 1.12864 0.30920
 H448 H -0.22390 1.15624 0.37597
 H449 H -0.18191 1.25709 0.37561
 H450 H -0.15177 1.22911 0.30884
 H451 H -0.11423 1.08165 0.27022
 H452 H -0.07971 1.05175 0.21973
 H453 H -0.07913 1.13844 0.08987
 H454 H -0.11375 1.16818 0.14092
 C455 C 0.67068 0.32318 0.30281
 C456 C 0.69117 0.34336 0.32170
 C457 C 0.70831 0.32759 0.36011
 C458 C 0.70513 0.29140 0.38027
 C459 C 0.68477 0.27105 0.35992
 C460 C 0.66765 0.28689 0.32151
 C461 C 0.65204 0.34038 0.26714
 C462 C 0.63604 0.35516 0.23891
 C463 C 0.61653 0.37323 0.20724
 C464 C 0.60687 0.40616 0.22880
 C465 C 0.58716 0.42311 0.20000
 C466 C 0.57683 0.40727 0.14923
 C467 C 0.58686 0.37446 0.12727
 C468 C 0.60660 0.35751 0.15623
 H469 H 0.69363 0.37153 0.30769
 H470 H 0.72377 0.34400 0.37493
 H471 H 0.68178 0.24315 0.37459
 H472 H 0.65180 0.27108 0.30734
 H473 H 0.61439 0.41853 0.26830
 H474 H 0.57985 0.44840 0.21784
 H475 H 0.57928 0.36170 0.08821
 H476 H 0.61392 0.33198 0.13924
 C477 C 0.17087 0.82334 0.30455
 C478 C 0.19144 0.84343 0.32320
 C479 C 0.20865 0.82756 0.36135
 C480 C 0.20545 0.79136 0.38148
 C481 C 0.18500 0.77113 0.36141
 C482 C 0.16782 0.78706 0.32326
 C483 C 0.15221 0.84061 0.26900
 C484 C 0.13622 0.85545 0.24082
 C485 C 0.11673 0.87358 0.20914
 C486 C 0.10714 0.90659 0.23060
 C487 C 0.08747 0.92361 0.20175
 C488 C 0.07710 0.90777 0.15103
 C489 C 0.08705 0.87488 0.12918
 C490 C 0.10675 0.85785 0.15819
 H491 H 0.19393 0.87159 0.30917
 H492 H 0.22418 0.84389 0.37596
 H493 H 0.18199 0.74322 0.37607
 H494 H 0.15191 0.77132 0.30927
 H495 H 0.11470 0.91897 0.27005
 H496 H 0.08023 0.94896 0.21951
 H497 H 0.07944 0.86210 0.09016
 H498 H 0.11400 0.83226 0.14127
   
