data_POSCAR
  _audit_creation_date              2014-09-24
  _audit_creation_method            'ToBaCCo'
  _symmetry_space_group_name_H-M    'P1'
  _symmetry_Int_Tables_number       1
  _symmetry_cell_setting            triclinic
  loop_
  _symmetry_equiv_pos_as_xyz
 x,y,z
_cell_length_a 35.5954
_cell_length_b 36.5429
_cell_length_c 34.9900
_cell_angle_alpha 92.107200
_cell_angle_beta 89.336000
_cell_angle_gamma 87.721200
loop_
  _atom_site_label
  _atom_site_type_symbol
  _atom_site_fract_x
  _atom_site_fract_y
  _atom_site_fract_z
C1 C 0.25681 0.49736 0.99611
 C2 C 0.75838 0.50827 0.00509
 C3 C -0.01732 0.24333 0.49890
 C4 C 0.99973 0.75137 0.49517
 C5 C 0.49490 0.00006 0.24135
 C6 C 0.48624 0.00626 0.76158
 C7 C 0.30667 0.01855 0.46313
 H8 H 0.30756 0.03767 0.48742
 C9 C 0.33574 0.01688 0.43607
 H10 H 0.35901 0.03490 0.43948
 C11 C 0.27608 -0.02935 0.43002
 H12 H 0.25351 -0.04820 0.42846
 C13 C 0.30436 -0.03147 0.40179
 H14 H 0.30326 -0.05173 0.37849
 N15 N 0.27779 -0.00457 0.45994
 C16 C 0.19068 0.04771 0.53333
 H17 H 0.18783 0.02630 0.55359
 C18 C 0.16645 0.07859 0.53556
 H19 H 0.14493 0.08095 0.55775
 C20 C 0.22125 0.06980 0.47869
 H21 H 0.24198 0.06567 0.45598
 C22 C 0.19766 0.10140 0.48003
 H23 H 0.20025 0.12143 0.45820
 Zn24 Zn 0.24358 -0.00207 0.50185
 N25 N 0.21692 0.04356 0.50484
 C26 C 0.27931 0.02148 0.56970
 N27 N 0.27281 -0.00788 0.54607
 C28 C 0.29037 -0.04101 0.55106
 C29 C 0.31547 -0.04569 0.58095
 C30 C 0.30512 0.01832 0.59928
 C31 C 0.18579 -0.03975 0.46589
 C32 C 0.15732 -0.06479 0.46231
 C33 C 0.17222 -0.08578 0.52520
 C34 C 0.20074 -0.06067 0.52734
 N35 N 0.20726 -0.03853 0.49775
 H36 H 0.26593 0.04786 0.56447
 H37 H 0.28526 -0.06374 0.53136
 H38 H 0.32855 -0.07255 0.58452
 H39 H 0.31131 0.04264 0.61624
 H40 H 0.19070 -0.02105 0.44327
 H41 H 0.14122 -0.06576 0.43627
 H42 H 0.16697 -0.10239 0.54954
 H43 H 0.21681 -0.05815 0.55322
 C44 C 0.16925 0.10548 0.50818
 C45 C 0.33491 -0.00858 0.40519
 C46 C 0.15001 -0.08817 0.49233
 C47 C 0.32407 -0.01554 0.60501
 C48 C 0.67807 0.03734 0.54080
 H49 H 0.67887 0.05582 0.51738
 C50 C 0.64947 0.04168 0.56835
 H51 H 0.62919 0.06438 0.56641
 C52 C 0.70315 -0.01511 0.57084
 H53 H 0.72361 -0.03774 0.57114
 C54 C 0.67459 -0.01215 0.59870
 H55 H 0.67340 -0.03280 0.62003
 N56 N 0.70422 0.00936 0.54250
 C57 C 0.80280 0.03656 0.47710
 H58 H 0.80875 0.00958 0.46416
 C59 C 0.82778 0.06432 0.47169
 H60 H 0.85338 0.05777 0.45547
 C61 C 0.76279 0.07671 0.51520
 H62 H 0.73754 0.08146 0.53229
 C63 C 0.78663 0.10568 0.50968
 H64 H 0.77884 0.13245 0.52222
 Zn65 Zn 0.73904 0.00289 0.50130
 N66 N 0.77100 0.04307 0.49849
 C67 C 0.71335 0.02678 0.43019
 N68 N 0.71061 -0.00011 0.45586
 C69 C 0.68469 -0.02632 0.45174
 C70 C 0.65973 -0.02570 0.42116
 C71 C 0.68849 0.02884 0.39973
 C72 C 0.79560 -0.03845 0.53601
 C73 C 0.82184 -0.06734 0.54045
 C74 C 0.79450 -0.09931 0.48662
 C75 C 0.76910 -0.06952 0.48287
 N76 N 0.77016 -0.03983 0.50737
 H77 H 0.73358 0.04779 0.43430
 H78 H 0.68242 -0.04684 0.47307
 H79 H 0.63830 -0.04587 0.41891
 H80 H 0.68980 0.05134 0.38050
 H81 H 0.79618 -0.01427 0.55476
 H82 H 0.84273 -0.06481 0.56252
 H83 H 0.79293 -0.12273 0.46694
 H84 H 0.74906 -0.06997 0.45995
 C85 C 0.81967 0.09978 0.48746
 C86 C 0.64689 0.01629 0.59741
 C87 C 0.82183 -0.09828 0.51535
 C88 C 0.66100 0.00269 0.39538
 C89 C 0.49415 0.20777 1.06756
 H90 H 0.47020 0.21024 1.04894
 C91 C 0.49453 0.18215 1.09611
 H92 H 0.47068 0.16497 1.09942
 C93 C 0.55554 0.22529 1.08385
 H94 H 0.57963 0.24144 1.07816
 C95 C 0.55740 0.19940 1.11231
 H96 H 0.58281 0.19606 1.12876
 N97 N 0.52439 0.22859 1.06188
 C98 C 0.47784 0.31359 0.98935
 H99 H 0.49729 0.31078 0.96533
 C100 C 0.44891 0.34060 0.98978
 H101 H 0.44642 0.35858 0.96595
 C102 C 0.45883 0.29466 1.05040
 H103 H 0.46326 0.27733 1.07439
 C104 C 0.42950 0.32125 1.05199
 H105 H 0.41107 0.32332 1.07687
 Zn106 Zn 0.52386 0.25717 1.01796
 N107 N 0.48215 0.29116 1.01928
 C108 C 0.49260 0.22294 0.95112
 N109 N 0.52170 0.22342 0.97599
 C110 C 0.54969 0.19703 0.97417
 C111 C 0.54913 0.16852 0.94675
 C112 C 0.49073 0.19457 0.92330
 C113 C 0.57133 0.31157 1.04196
 C114 C 0.60104 0.33517 1.03989
 C115 C 0.62417 0.30121 0.98327
 C116 C 0.59357 0.27859 0.98600
 N117 N 0.56786 0.28424 1.01498
 H118 H 0.47016 0.24371 0.95368
 H119 H 0.57216 0.19779 0.99471
 H120 H 0.57176 0.14780 0.94595
 H121 H 0.46669 0.19374 0.90465
 H122 H 0.55029 0.31564 1.06443
 H123 H 0.60288 0.35755 1.06088
 H124 H 0.64394 0.29716 0.95959
 H125 H 0.58990 0.25732 0.96430
 C126 C 0.42429 0.34479 1.02148
 C127 C 0.52676 0.17719 1.11830
 C128 C 0.62759 0.33027 1.01005
 C129 C 0.51895 0.16650 0.92139
 C130 C 0.46590 0.79322 -0.06485
 H131 H 0.44086 0.78972 -0.04776
 C132 C 0.46486 0.81736 -0.09477
 H133 H 0.43848 0.83154 -0.10097
 C134 C 0.53047 0.77874 -0.07704
 H135 H 0.55622 0.76434 -0.06935
 C136 C 0.53092 0.80333 -0.10673
 H137 H 0.55723 0.80757 -0.12140
 N138 N 0.49827 0.77432 -0.05670
 C139 C 0.45636 0.68598 0.01107
 H140 H 0.47405 0.68837 0.03590
 C141 C 0.43029 0.65842 0.00860
 H142 H 0.42823 0.63970 0.03173
 C143 C 0.43916 0.70632 -0.05001
 H144 H 0.44328 0.72434 -0.07331
 C145 C 0.41265 0.67926 -0.05361
 H146 H 0.39594 0.67763 -0.07923
 Zn147 Zn 0.49748 0.74506 -0.01317
 N148 N 0.46000 0.70957 -0.01777
 C149 C 0.46302 0.77308 0.05798
 N150 N 0.48904 0.77754 0.02986
 C151 C 0.51233 0.80612 0.03136
 C152 C 0.51033 0.83151 0.06203
 C153 C 0.46039 0.79774 0.08965
 C154 C 0.55756 0.69624 -0.03581
 C155 C 0.58981 0.67408 -0.03036
 C156 C 0.59369 0.70022 0.03387
 C157 C 0.56178 0.72223 0.02702
 N158 N 0.54411 0.71951 -0.00719
 H159 H 0.44457 0.75033 0.05615
 H160 H 0.53288 0.80890 0.00874
 H161 H 0.52944 0.85385 0.06281
 H162 H 0.43973 0.79397 0.11197
 H163 H 0.54254 0.69413 -0.06246
 H164 H 0.59949 0.65470 -0.05285
 H165 H 0.60666 0.70166 0.06171
 H166 H 0.55025 0.74026 0.04973
 C167 C 0.40784 0.65486 -0.02403
 C168 C 0.49786 0.82341 -0.11571
 C169 C 0.60765 0.67540 0.00518
 C170 C 0.48423 0.82746 0.09175
 C171 C 1.05836 0.44703 0.19986
 H172 H 1.03592 0.42815 0.19757
 C173 C 1.08889 0.44277 0.17446
 H174 H 1.08997 0.42011 0.15359
 C175 C 1.08216 0.50188 0.22633
 H176 H 1.07894 0.52556 0.24561
 C177 C 1.11291 0.49892 0.20109
 H178 H 1.13340 0.52007 0.20169
 N179 N 1.05526 0.47642 0.22494
 C180 C 0.99021 0.45735 0.32424
 H181 H 0.98854 0.48585 0.33347
 C182 C 0.98175 0.43095 0.35040
 H183 H 0.97487 0.43952 0.37969
 C184 C 1.00000 0.41163 0.27506
 H185 H 1.00605 0.40413 0.24552
 C186 C 0.99193 0.38421 0.30043
 H187 H 0.99230 0.35589 0.29012
 Zn188 Zn 1.00937 0.48537 0.25297
 N189 N 0.99963 0.44745 0.28738
 C190 C 0.93374 0.48515 0.22982
 N191 N 0.96988 0.48856 0.21779
 C192 C 0.97810 0.49863 0.18176
 C193 C 0.94936 0.50624 0.15628
 C194 C 0.90399 0.49266 0.20519
 C195 C 1.03476 0.53598 0.30976
 C196 C 1.03238 0.56789 0.33309
 C197 C 0.98086 0.59019 0.29487
 C198 C 0.98419 0.55794 0.27235
 N199 N 1.01013 0.53115 0.28070
 H200 H 0.92804 0.47786 0.25894
 H201 H 1.00696 0.50201 0.17311
 H202 H 0.95657 0.51423 0.12770
 H203 H 0.87533 0.49086 0.21544
 H204 H 1.05518 0.51431 0.31582
 H205 H 1.05095 0.57047 0.35725
 H206 H 0.95943 0.61078 0.28828
 H207 H 0.96522 0.55404 0.24884
 C208 C 0.98262 0.39381 0.33865
 C209 C 1.11611 0.46943 0.17426
 C210 C 1.00446 0.59506 0.32632
 C211 C 0.91171 0.50401 0.16810
 C212 C -0.04047 0.47428 0.79953
 H213 H -0.01692 0.45468 0.80033
 C214 C -0.07164 0.47060 0.82339
 H215 H -0.07190 0.44785 0.84234
 C216 C -0.06852 0.52757 0.77354
 H217 H -0.06692 0.55012 0.75457
 C218 C -0.10018 0.52511 0.79718
 H219 H -0.12246 0.54610 0.79633
 N220 N -0.03956 0.50222 0.77500
 C221 C 0.03938 0.46023 0.68647
 H222 H 0.05930 0.48184 0.68695
 C223 C 0.04300 0.43170 0.65888
 H224 H 0.06614 0.43130 0.63847
 C225 C -0.01587 0.43547 0.71150
 H226 H -0.03962 0.43771 0.73102
 C227 C -0.01330 0.40641 0.68439
 H228 H -0.03513 0.38660 0.68350
 Zn229 Zn 0.00397 0.50484 0.74371
 N230 N 0.01010 0.46184 0.71184
 C231 C 0.07382 0.48376 0.77664
 N232 N 0.04595 0.51031 0.77620
 C233 C 0.04630 0.54025 0.80047
 C234 C 0.07560 0.54444 0.82637
 C235 C 0.10352 0.48675 0.80218
 C236 C -0.03017 0.54219 0.68519
 C237 C -0.03475 0.56803 0.65714
 C238 C 0.01994 0.59803 0.68110
 C239 C 0.02335 0.57163 0.70900
 N240 N -0.00145 0.54429 0.71033
 H241 H 0.07273 0.45980 0.75773
 H242 H 0.02347 0.56067 0.80002
 H243 H 0.07499 0.56812 0.84594
 H244 H 0.12538 0.46528 0.80210
 H245 H -0.04919 0.51990 0.68659
 H246 H -0.05785 0.56570 0.63745
 H247 H 0.04069 0.61881 0.67956
 H248 H 0.04652 0.57232 0.72865
 C249 C 0.01598 0.40472 0.65708
 C250 C -0.10195 0.49643 0.82270
 C251 C -0.00909 0.59606 0.65428
 C252 C 0.10456 0.51728 0.82771
 C253 C 0.00528 0.16683 0.50429
 C254 C 0.01396 0.20816 0.50092
 C255 C 0.05444 0.21848 0.50135
 C256 C 0.08265 0.19067 0.50319
 C257 C 0.07329 0.15338 0.50605
 C258 C 0.03588 0.14241 0.50671
 C259 C 0.10208 0.12632 0.50808
 C260 C 0.13995 0.13525 0.50674
 C261 C 0.14915 0.17194 0.50326
 C262 C 0.12073 0.19947 0.50187
 H263 H 0.06163 0.24691 0.49953
 H264 H 0.02997 0.11372 0.50902
 H265 H 0.09502 0.09782 0.51000
 H266 H 0.12855 0.22767 0.49951
 H267 H 0.00490 0.19018 0.50223
 H268 H 0.17830 0.17931 0.50207
 C269 C 0.74841 0.57282 -0.02462
 C270 C 0.73965 0.54717 0.00306
 C271 C 0.71118 0.55736 0.03026
 C272 C 0.68828 0.58889 0.02641
 C273 C 0.69439 0.61187 -0.00441
 C274 C 0.72549 0.60443 -0.02879
 C275 C 0.66875 0.64121 -0.01070
 C276 C 0.63749 0.64784 0.01387
 C277 C 0.63302 0.62603 0.04568
 C278 C 0.65816 0.59672 0.05187
 H279 H 0.70525 0.53916 0.05318
 H280 H 0.73164 0.62263 -0.05161
 H281 H 0.67248 0.65826 -0.03506
 H282 H 0.65329 0.57944 0.07581
 H283 H 0.77234 0.56863 -0.04368
 H284 H 0.60903 0.63067 0.06482
 C285 C 0.94079 -0.21431 0.45053
 C286 C 0.95945 -0.22384 0.48935
 C287 C 0.94231 -0.20576 0.52509
 C288 C 0.91135 -0.18110 0.52232
 C289 C 0.89607 -0.17255 0.48630
 C290 C 0.91027 -0.18931 0.45201
 C291 C 0.86639 -0.14612 0.48457
 C292 C 0.85137 -0.12820 0.51793
 C293 C 0.86596 -0.13789 0.55349
 C294 C 0.89565 -0.16387 0.55564
 H295 H 0.95395 -0.21040 0.55279
 H296 H 0.89760 -0.18247 0.42506
 H297 H 0.85588 -0.13858 0.45689
 H298 H 0.90660 -0.17024 0.58350
 H299 H 0.95458 -0.22269 0.46870
 H300 H 0.85455 -0.12525 0.57981
 C301 C 0.29675 0.44612 0.95976
 C302 C 0.28640 0.46503 0.99454
 C303 C 0.30778 0.45717 1.02725
 C304 C 0.33630 0.42949 1.02603
 C305 C 0.34480 0.40981 0.99135
 C306 C 0.32502 0.41851 0.95838
 C307 C 0.37337 0.38216 0.99002
 C308 C 0.39380 0.37388 1.02300
 C309 C 0.38513 0.39378 1.05738
 C310 C 0.35668 0.42130 1.05888
 H311 H 0.30208 0.47272 1.05380
 H312 H 0.33181 0.40433 0.93128
 H313 H 0.37944 0.36686 0.96339
 H314 H 0.35070 0.43625 1.08572
 H315 H 0.28363 0.45298 0.93311
 H316 H 0.40077 0.38844 1.08308
 C317 C 0.91660 0.23290 0.52974
 C318 C 0.94323 0.22683 0.49970
 C319 C 0.93430 0.20210 0.46951
 C320 C 0.90311 0.18020 0.47185
 C321 C 0.87952 0.18316 0.50453
 C322 C 0.88555 0.21069 0.53253
 C323 C 0.85124 0.15781 0.50912
 C324 C 0.84607 0.12978 0.48103
 C325 C 0.86787 0.12945 0.44715
 C326 C 0.89633 0.15409 0.44280
 H327 H 0.95343 0.19800 0.44524
 H328 H 0.86680 0.21447 0.55710
 H329 H 0.83475 0.15890 0.53536
 H330 H 0.91369 0.15209 0.41709
 H331 H 0.91989 0.25381 0.55187
 H332 H 0.86355 0.10957 0.42409
 C333 C 0.28847 0.55018 0.03302
 C334 C 0.28117 0.53160 -0.00217
 C335 C 0.30193 0.54124 -0.03474
 C336 C 0.32742 0.56967 -0.03262
 C337 C 0.33295 0.58860 0.00262
 C338 C 0.31330 0.57869 0.03517
 C339 C 0.35880 0.61655 0.00509
 C340 C 0.37977 0.62578 -0.02719
 C341 C 0.37399 0.60683 -0.06226
 C342 C 0.34803 0.57909 -0.06496
 H343 H 0.29866 0.52610 -0.06163
 H344 H 0.31789 0.59233 0.06265
 H345 H 0.36250 0.63119 0.03221
 H346 H 0.34437 0.56478 -0.09225
 H347 H 0.27596 0.54217 0.05957
 H348 H 0.39005 0.61297 -0.08752
 C349 C 0.06583 -0.23109 0.51816
 C350 C 0.03197 -0.22133 0.49956
 C351 C 0.02971 -0.18690 0.48233
 C352 C 0.05914 -0.16262 0.48505
 C353 C 0.09234 -0.17281 0.50421
 C354 C 0.09545 -0.20717 0.52056
 C355 C 0.12204 -0.14866 0.50627
 C356 C 0.11877 -0.11406 0.48983
 C357 C 0.08524 -0.10415 0.47124
 C358 C 0.05586 -0.12825 0.46865
 H359 H 0.00533 -0.17865 0.46618
 H360 H 0.12093 -0.21572 0.53496
 H361 H 0.14782 -0.15705 0.52023
 H362 H 0.03043 -0.11986 0.45405
 H363 H 0.06992 -0.25787 0.53002
 H364 H 0.08140 -0.07748 0.45906
 C365 C 0.68141 0.48737 0.99520
 C366 C 0.72435 0.47836 0.99980
 C367 C 0.73731 0.43870 0.99989
 C368 C 0.71028 0.41178 0.99986
 C369 C 0.67124 0.42160 0.99852
 C370 C 0.65792 0.45802 0.99496
 C371 C 0.64489 0.39434 1.00127
 C372 C 0.65640 0.35764 1.00507
 C373 C 0.69484 0.34774 1.00470
 C374 C 0.72160 0.37465 1.00232
 H375 H 0.76695 0.43120 1.00201
 H376 H 0.62803 0.46419 0.99263
 H377 H 0.61505 0.40167 1.00086
 H378 H 0.75118 0.36647 1.00309
 H379 H 0.70538 0.48752 0.99790
 H380 H 0.70408 0.31935 1.00732
 C381 C 0.46889 0.06752 1.23356
 C382 C 0.49666 0.03936 1.22585
 C383 C 0.52820 0.04793 1.20333
 C384 C 0.52982 0.08156 1.18555
 C385 C 0.49993 0.10786 1.19069
 C386 C 0.47022 0.10102 1.21564
 C387 C 0.49984 0.14009 1.17005
 C388 C 0.52946 0.14636 1.14451
 C389 C 0.56008 0.12094 1.14123
 C390 C 0.56023 0.08874 1.16151
 H391 H 0.55066 0.02738 1.19808
 H392 H 0.44766 0.12144 1.22095
 H393 H 0.47629 0.15979 1.17295
 H394 H 0.58354 0.06893 1.15746
 H395 H 0.44574 0.06420 1.25309
 H396 H 0.58305 0.12516 1.12151
 C397 C 0.00399 0.74107 0.56816
 C398 C -0.00368 0.72709 0.53085
 C399 C -0.01345 0.68991 0.52744
 C400 C -0.01346 0.66740 0.55899
 C401 C -0.00452 0.68176 0.59553
 C402 C 0.00362 0.71882 0.59988
 C403 C -0.00351 0.65867 0.62687
 C404 C -0.01128 0.62129 0.62190
 C405 C -0.02038 0.60754 0.58524
 C406 C -0.02162 0.63034 0.55419
 H407 H -0.02046 0.67735 0.50035
 H408 H 0.01032 0.73054 0.62775
 H409 H 0.00324 0.66976 0.65500
 H410 H -0.02839 0.61880 0.52626
 H411 H 0.01124 0.76933 0.57292
 H412 H -0.02575 0.57882 0.58028
 C413 C 0.45675 0.97329 -0.18361
 C414 C 0.48339 0.97204 -0.21394
 C415 C 0.50417 0.93874 -0.22165
 C416 C 0.50156 0.90940 -0.19692
 C417 C 0.47701 0.91278 -0.16491
 C418 C 0.45414 0.94445 -0.15902
 C419 C 0.47575 0.88456 -0.13901
 C420 C 0.49825 0.85227 -0.14471
 C421 C 0.52178 0.84859 -0.17738
 C422 C 0.52346 0.87691 -0.20320
 H423 H 0.52242 0.93544 -0.24656
 H424 H 0.43444 0.94712 -0.13513
 H425 H 0.45795 0.88842 -0.11375
 H426 H 0.54221 0.87355 -0.22781
 H427 H 0.43874 0.99753 -0.17805
 H428 H 0.53897 0.82384 -0.18301
 C429 C 1.01166 0.25505 0.43198
 C430 C 0.98474 0.26379 0.46115
 C431 C 0.95862 0.29318 0.45569
 C432 C 0.96230 0.31607 0.42480
 C433 C 0.99131 0.30866 0.39743
 C434 C 1.01503 0.27742 0.40063
 C435 C 0.99681 0.33326 0.36815
 C436 C 0.97410 0.36556 0.36648
 C437 C 0.94443 0.37182 0.39307
 C438 C 0.93846 0.34723 0.42186
 H439 H 0.93696 0.29967 0.47721
 H440 H 1.03686 0.27077 0.37936
 H441 H 1.01987 0.32822 0.34789
 H442 H 0.91590 0.35315 0.44250
 H443 H 1.03064 0.23137 0.43318
 H444 H 0.92611 0.39613 0.39189
 C445 C 0.48702 0.98153 0.16931
 C446 C 0.49150 0.97126 0.20774
 C447 C 0.48894 0.93358 0.21528
 C448 C 0.48559 0.90713 0.18534
 C449 C 0.48388 0.91830 0.14721
 C450 C 0.48398 0.95547 0.13963
 C451 C 0.48219 0.89216 0.11708
 C452 C 0.48219 0.85466 0.12429
 C453 C 0.48249 0.84360 0.16235
 C454 C 0.48428 0.86965 0.19267
 H455 H 0.49022 0.92491 0.24455
 H456 H 0.48152 0.96454 0.11058
 H457 H 0.48130 0.90096 0.08782
 H458 H 0.48531 0.86045 0.22174
 H459 H 0.48516 1.00976 0.16134
 H460 H 0.48260 0.81478 0.16853
 C461 C -0.01166 0.25644 0.57129
 C462 C -0.00930 0.26922 0.53377
 C463 C 0.00388 0.30492 0.52948
 C464 C 0.00930 0.32848 0.56117
 C465 C 0.00320 0.31628 0.59841
 C466 C -0.00631 0.27985 0.60320
 C467 C 0.00655 0.34082 0.63002
 C468 C 0.01603 0.37738 0.62461
 C469 C 0.02329 0.38863 0.58735
 C470 C 0.02007 0.36442 0.55598
 H471 H 0.01019 0.31500 0.50158
 H472 H -0.01001 0.26954 0.63158
 H473 H 0.00137 0.33168 0.65865
 H474 H 0.02501 0.37415 0.52753
 H475 H -0.01891 0.22842 0.57589
 H476 H 0.03013 0.41666 0.58227
 C477 C 0.48251 0.07643 0.77300
 C478 C 0.49006 0.04128 0.78729
 C479 C 0.50581 0.03935 0.82408
 C480 C 0.50943 0.07078 0.84748
 C481 C 0.49928 0.10555 0.83370
 C482 C 0.48644 0.10812 0.79612
 C483 C 0.50256 0.13699 0.85767
 C484 C 0.51585 0.13385 0.89524
 C485 C 0.52584 0.09891 0.90836
 C486 C 0.52290 0.06776 0.88467
 H487 H 0.51549 0.01329 0.83488
 H488 H 0.47942 0.13461 0.78459
 H489 H 0.49511 0.16378 0.84707
 H490 H 0.53067 0.04121 0.89568
 H491 H 0.47308 0.07933 0.74393
 H492 H 0.53537 0.09552 0.93733
 C493 C 1.04471 0.71669 0.44533
 C494 C 1.00775 0.72637 0.45858
 C495 C 0.97781 0.70925 0.43962
 C496 C 0.98435 0.68303 0.40985
 C497 C 1.02148 0.67325 0.39797
 C498 C 1.05138 0.69075 0.41541
 C499 C 1.02809 0.64523 0.36983
 C500 C 0.99787 0.62678 0.35359
 C501 C 0.96094 0.63746 0.36508
 C502 C 0.95424 0.66532 0.39291
 H503 H 0.94922 0.71401 0.45004
 H504 H 1.08013 0.68364 0.40663
 H505 H 1.05667 0.63741 0.36100
 H506 H 0.92552 0.67242 0.40179
 H507 H 1.06912 0.72812 0.45826
 H508 H 0.93718 0.62339 0.35345
 C509 C 1.20636 0.52850 0.03973
 C510 C 1.22953 0.49696 0.03090
 C511 C 1.22371 0.46525 0.05188
 C512 C 1.19785 0.46615 0.08261
 C513 C 1.17673 0.49880 0.09218
 C514 C 1.18093 0.52966 0.07034
 C515 C 1.15097 0.49984 0.12282
 C516 C 1.14536 0.46843 0.14376
 C517 C 1.16612 0.43589 0.13387
 C518 C 1.19235 0.43481 0.10370
 H519 H 1.23855 0.43961 0.04409
 H520 H 1.16430 0.55468 0.07672
 H521 H 1.13439 0.52482 0.12966
 H522 H 1.20812 0.40943 0.09671
 H523 H 1.20846 0.55273 0.02304
 H524 H 1.16207 0.41134 0.14959
 C525 C 0.55754 -0.00306 0.74891
 C526 C 0.52139 0.00597 0.73497
 C527 C 0.51910 0.01952 0.69770
 C528 C 0.55073 0.01948 0.67361
 C529 C 0.58626 0.00806 0.68722
 C530 C 0.58947 -0.00254 0.72520
 C531 C 0.61786 0.00770 0.66265
 C532 C 0.61413 0.01813 0.62441
 C533 C 0.57837 0.02942 0.61148
 C534 C 0.54713 0.03044 0.63589
 H535 H 0.49265 0.03031 0.68702
 H536 H 0.61664 -0.01056 0.73655
 H537 H 0.64523 -0.00061 0.67332
 H538 H 0.51995 0.03909 0.62497
 H539 H 0.56103 -0.01091 0.77822
 H540 H 0.57421 0.03675 0.58210
 C541 C -0.17556 0.48402 0.98162
 C542 C -0.21188 0.49860 0.97313
 C543 C -0.22083 0.50210 0.93414
 C544 C -0.19258 0.49799 0.90562
 C545 C -0.15562 0.48716 0.91573
 C546 C -0.14782 0.47888 0.95346
 C547 C -0.12669 0.48551 0.88825
 C548 C -0.13380 0.49498 0.85043
 C549 C -0.17090 0.50472 0.84016
 C550 C -0.20009 0.50598 0.86747
 H551 H -0.24921 0.51043 0.92638
 H552 H -0.11993 0.46915 0.96143
 H553 H -0.09824 0.47848 0.89688
 H554 H -0.22828 0.51418 0.85898
 H555 H -0.16781 0.47665 1.01016
 H556 H -0.17728 0.51164 0.81105
 C557 C 0.42330 -0.00083 0.25224
 C558 C 0.45982 -0.00448 0.26750
 C559 C 0.46269 -0.01410 0.30621
 C560 C 0.43083 -0.01500 0.32988
 C561 C 0.39470 -0.00878 0.31464
 C562 C 0.39121 -0.00266 0.27551
 C563 C 0.36292 -0.00817 0.33901
 C564 C 0.36731 -0.01262 0.37847
 C565 C 0.40334 -0.01946 0.39308
 C566 C 0.43479 -0.02107 0.36895
 H567 H 0.48955 -0.02062 0.31883
 H568 H 0.36372 0.00154 0.26306
 H569 H 0.33509 -0.00285 0.32768
 H570 H 0.46233 -0.02601 0.38107
 H571 H 0.41969 0.00478 0.22230
 H572 H 0.40710 -0.02327 0.42338
 C573 C 0.21151 0.46280 0.95362
 C574 C 0.22984 0.49576 0.96170
 C575 C 0.21843 0.52702 0.94143
 C576 C 0.19100 0.52477 0.91284
 C577 C 0.17423 0.49106 0.90451
 C578 C 0.18469 0.46030 0.92507
 C579 C 0.14650 0.48879 0.87644
 C580 C 0.13478 0.51990 0.85659
 C581 C 0.15150 0.55342 0.86514
 C582 C 0.17942 0.55581 0.89291
 H583 H 0.22973 0.55342 0.94855
 H584 H 0.17163 0.43438 0.91955
 H585 H 0.13333 0.46294 0.87074
 H586 H 0.19182 0.58198 0.89889
 H587 H 0.21798 0.43870 0.96980
 H588 H 0.14315 0.57775 0.85011
 C589 C 0.55857 -0.03424 0.25796
 C590 C 0.53170 -0.00505 0.26447
 C591 C 0.53915 0.02143 0.29365
 C592 C 0.57029 0.01750 0.31736
 C593 C 0.59520 -0.01335 0.31229
 C594 C 0.58948 -0.03865 0.28203
 C595 C 0.62522 -0.01827 0.33768
 C596 C 0.63084 0.00789 0.36730
 C597 C 0.60662 0.03905 0.37119
 C598 C 0.57641 0.04372 0.34661
 H599 H 0.51957 0.04464 0.29877
 H600 H 0.60892 -0.06194 0.27699
 H601 H 0.64410 -0.04224 0.33452
 H602 H 0.55763 0.06765 0.35072
 H603 H 0.55615 -0.05404 0.23461
 H604 H 0.61060 0.05937 0.39397
 C605 C 0.76907 0.48132 0.07222
 C606 C 0.77687 0.50739 0.04474
 C607 C 0.80494 0.53262 0.05294
 C608 C 0.82840 0.52839 0.08433
 C609 C 0.82287 0.49963 0.10938
 C610 C 0.79213 0.47728 0.10403
 C611 C 0.84912 0.49277 0.13818
 C612 C 0.88109 0.51403 0.14163
 C613 C 0.88488 0.54398 0.11796
 C614 C 0.85876 0.55113 0.08960
 H615 H 0.81064 0.55360 0.03276
 H616 H 0.78671 0.45579 0.12366
 H617 H 0.84581 0.46967 0.15632
 H618 H 0.86310 0.57360 0.07088
 H619 H 0.74610 0.46313 0.06902
 H620 H 0.90863 0.56146 0.12083
 C621 C 0.41730 0.02799 0.74753
 C622 C 0.44961 0.00559 0.73824
 C623 C 0.44711 -0.02074 0.70793
 C624 C 0.41584 -0.02106 0.68414
 C625 C 0.38475 0.00320 0.69223
 C626 C 0.38533 0.02690 0.72465
 C627 C 0.35398 0.00372 0.66744
 C628 C 0.35460 -0.01871 0.63371
 C629 C 0.38588 -0.04290 0.62638
 C630 C 0.41586 -0.04445 0.65160
 H631 H 0.47064 -0.03986 0.70167
 H632 H 0.36132 0.04508 0.73194
 H633 H 0.32996 0.02204 0.67415
 H634 H 0.43971 -0.06302 0.64487
 H635 H 0.41641 0.04632 0.77250
 H636 H 0.38802 -0.05991 0.60043
   
