data_POSCAR
  _audit_creation_date              2014-09-24
  _audit_creation_method            'ToBaCCo'
  _symmetry_space_group_name_H-M    'P1'
  _symmetry_Int_Tables_number       1
  _symmetry_cell_setting            triclinic
  loop_
  _symmetry_equiv_pos_as_xyz
 x,y,z
_cell_length_a 39.2349
_cell_length_b 31.9470
_cell_length_c 7.1621
_cell_angle_alpha 90.440400
_cell_angle_beta 90.169800
_cell_angle_gamma 90.093400
loop_
  _atom_site_label
  _atom_site_type_symbol
  _atom_site_fract_x
  _atom_site_fract_y
  _atom_site_fract_z
C1 C 0.24937 0.26984 0.25204
 C2 C 0.24909 0.22751 0.25522
 C3 C 0.21712 0.20341 0.23428
 C4 C 0.28088 0.20334 0.27569
 C5 C 0.28132 0.29388 0.27125
 C6 C 0.21771 0.29417 0.23141
 C7 C 0.20368 0.18171 0.38644
 C8 C 0.17394 0.15790 0.36597
 C9 C 0.15708 0.15508 0.19157
 C10 C 0.17095 0.17746 0.03974
 C11 C 0.20068 0.20106 0.06102
 C12 C 0.29624 0.19925 0.45122
 C13 C 0.32605 0.17589 0.47075
 C14 C 0.34088 0.15589 0.31502
 C15 C 0.32529 0.16016 0.13900
 C16 C 0.29547 0.18368 0.11973
 C17 C 0.29880 0.30760 0.11256
 C18 C 0.32846 0.33166 0.13181
 C19 C 0.34110 0.34207 0.31030
 C20 C 0.32348 0.32780 0.46865
 C21 C 0.29372 0.30421 0.44909
 C22 C 0.20678 0.30621 0.05369
 C23 C 0.17717 0.32984 0.03315
 C24 C 0.15828 0.34249 0.19059
 C25 C 0.16951 0.33048 0.36905
 C26 C 0.19899 0.30630 0.38912
 H27 H 0.21626 0.18321 0.52119
 H28 H 0.16446 0.14152 0.48718
 H29 H 0.15926 0.17645 -0.09746
 H30 H 0.21112 0.21713 -0.05857
 H31 H 0.28496 0.21385 0.57321
 H32 H 0.33719 0.17311 0.60857
 H33 H 0.28375 0.18658 -0.01671
 H34 H 0.28935 0.29989 -0.02578
 H35 H 0.34144 0.34210 0.00728
 H36 H 0.33232 0.33544 0.60818
 H37 H 0.28021 0.29417 0.57269
 H38 H 0.22121 0.29729 -0.06905
 H39 H 0.16941 0.33876 -0.10620
 H40 H 0.15553 0.33968 0.49283
 H41 H 0.20735 0.29729 0.52739
 H42 H 0.33600 0.14522 0.01634
 C43 C 0.75007 0.22900 0.24764
 C44 C 0.74986 0.27133 0.24464
 C45 C 0.78158 0.29566 0.22455
 C46 C 0.71800 0.29532 0.26471
 C47 C 0.71830 0.20474 0.26892
 C48 C 0.78201 0.20500 0.22813
 C49 C 0.80009 0.30838 0.38282
 C50 C 0.82967 0.33245 0.36330
 C51 C 0.84123 0.34380 0.18489
 C52 C 0.82255 0.33057 0.02686
 C53 C 0.79284 0.30700 0.04680
 C54 C 0.70599 0.30567 0.44289
 C55 C 0.67627 0.32914 0.46330
 C56 C 0.65828 0.34325 0.30546
 C57 C 0.67054 0.33286 0.12661
 C58 C 0.70018 0.30894 0.10652
 C59 C 0.70349 0.18482 0.11363
 C60 C 0.67377 0.16107 0.13398
 C61 C 0.65851 0.15682 0.31039
 C62 C 0.67355 0.17710 0.46542
 C63 C 0.70326 0.20068 0.44482
 C64 C 0.79805 0.20174 0.05428
 C65 C 0.82783 0.17827 0.03501
 C66 C 0.84197 0.15732 0.18922
 C67 C 0.82574 0.16080 0.36360
 C68 C 0.79594 0.18439 0.38261
 H69 H 0.79150 0.29988 0.52109
 H70 H 0.84348 0.34209 0.48755
 H71 H 0.83056 0.33895 -0.11251
 H72 H 0.77859 0.29760 -0.07638
 H73 H 0.71975 0.29570 0.56612
 H74 H 0.66773 0.33677 0.60310
 H75 H 0.70934 0.30123 -0.03206
 H76 H 0.71498 0.18766 -0.02307
 H77 H 0.66290 0.14591 0.01184
 H78 H 0.66267 0.17435 0.60353
 H79 H 0.71472 0.21547 0.56634
 H80 H 0.78728 0.21698 -0.06686
 H81 H 0.83947 0.17613 -0.10161
 H82 H 0.83590 0.14510 0.48508
 H83 H 0.78370 0.18660 0.51773
 H84 H 0.65728 0.34319 0.00247
 C85 C 0.75091 0.77180 0.74603
 C86 C 0.75069 0.72946 0.74875
 C87 C 0.71877 0.70539 0.72879
 C88 C 0.78238 0.70521 0.76988
 C89 C 0.78288 0.79594 0.76583
 C90 C 0.71908 0.79593 0.72631
 C91 C 0.70090 0.69218 0.88702
 C92 C 0.67118 0.66826 0.86708
 C93 C 0.65886 0.65750 0.68831
 C94 C 0.67688 0.67124 0.53039
 C95 C 0.70671 0.69468 0.55067
 C96 C 0.79324 0.69324 0.94783
 C97 C 0.82296 0.66984 0.96903
 C98 C 0.84203 0.65736 0.81200
 C99 C 0.83086 0.66928 0.63330
 C100 C 0.80128 0.69323 0.61257
 C101 C 0.79615 0.81756 0.61286
 C102 C 0.82594 0.84135 0.63211
 C103 C 0.84291 0.84411 0.80569
 C104 C 0.82931 0.82196 0.95835
 C105 C 0.79954 0.79837 0.93857
 C106 C 0.70341 0.79969 0.55146
 C107 C 0.67358 0.82302 0.53262
 C108 C 0.65903 0.84333 0.68837
 C109 C 0.67493 0.83939 0.86371
 C110 C 0.70477 0.81589 0.88229
 H111 H 0.71009 0.70020 1.02556
 H112 H 0.65789 0.65823 0.99129
 H113 H 0.66829 0.66332 0.39069
 H114 H 0.72049 0.70437 0.42744
 H115 H 0.77869 0.70207 1.07025
 H116 H 0.83068 0.66098 1.10853
 H117 H 0.79299 0.70222 0.47415
 H118 H 0.78342 0.81601 0.47853
 H119 H 0.83541 0.85774 0.51099
 H120 H 0.84130 0.82319 1.09470
 H121 H 0.78924 0.78237 1.05872
 H122 H 0.71447 0.78485 0.42944
 H123 H 0.66220 0.82555 0.39527
 H124 H 0.66444 0.85459 0.98633
 H125 H 0.71674 0.81326 1.01820
 H126 H 0.84499 0.66021 0.50983
 C127 C 0.24935 0.72896 0.75391
 C128 C 0.24908 0.77129 0.74897
 C129 C 0.28084 0.79555 0.72849
 C130 C 0.21718 0.79535 0.76822
 C131 C 0.21768 0.70457 0.77562
 C132 C 0.28128 0.70502 0.73393
 C133 C 0.29747 0.81184 0.88661
 C134 C 0.32721 0.83560 0.86711
 C135 C 0.34074 0.84328 0.68888
 C136 C 0.32390 0.82657 0.53104
 C137 C 0.29410 0.80316 0.55079
 C138 C 0.20252 0.80105 0.94431
 C139 C 0.17286 0.82467 0.96417
 C140 C 0.15751 0.84387 0.80817
 C141 C 0.17257 0.83800 0.63127
 C142 C 0.20213 0.81393 0.61180
 C143 C 0.20132 0.68737 0.61873
 C144 C 0.17187 0.66313 0.63963
 C145 C 0.15819 0.65585 0.81844
 C146 C 0.17485 0.67369 0.97504
 C147 C 0.20446 0.69740 0.95364
 C148 C 0.29541 0.69857 0.55687
 C149 C 0.32516 0.67514 0.53668
 C150 C 0.34113 0.65726 0.69333
 C151 C 0.32677 0.66383 0.87097
 C152 C 0.29704 0.68755 0.89095
 H153 H 0.28734 0.80624 1.02478
 H154 H 0.33953 0.84796 0.99133
 H155 H 0.33344 0.83206 0.39162
 H156 H 0.28126 0.79110 0.42746
 H157 H 0.21427 0.78756 1.06687
 H158 H 0.16243 0.82840 1.10315
 H159 H 0.21337 0.80992 0.47484
 H160 H 0.21147 0.69256 0.48028
 H161 H 0.15996 0.65013 0.51544
 H162 H 0.16548 0.66885 1.11535
 H163 H 0.21720 0.70998 1.07622
 H164 H 0.28319 0.71139 0.43416
 H165 H 0.33532 0.67052 0.39763
 H166 H 0.33840 0.65054 0.99431
 H167 H 0.28624 0.69220 1.02861
 H168 H 0.16170 0.85208 0.50759
 O169 O 1.03377 -0.04825 0.08135
 O170 O 0.96702 0.02770 0.20638
 O171 O 0.96737 -0.04850 0.08059
 O172 O 1.03406 0.02785 0.20753
 O173 O 1.03385 0.04854 -0.08593
 O174 O 0.96684 -0.02750 -0.21239
 O175 O 0.96745 0.04874 -0.08654
 O176 O 1.03390 -0.02770 -0.21227
 Cu177 Cu 1.00055 -0.01285 0.17224
 Cu178 Cu 1.00051 0.01307 -0.17758
 C179 C 1.04548 -0.05080 -0.08313
 C180 C 0.95561 0.05106 0.07774
 C181 C 0.95543 -0.05083 -0.08384
 C182 C 1.04563 0.05102 0.07885
 O183 O 0.53307 0.45202 0.58206
 O184 O 0.46636 0.52791 0.70875
 O185 O 0.46666 0.45172 0.58305
 O186 O 0.53335 0.52825 0.70776
 O187 O 0.53286 0.54867 0.41393
 O188 O 0.46598 0.47231 0.28947
 O189 O 0.46640 0.54861 0.41535
 O190 O 0.53296 0.47246 0.28828
 Cu191 Cu 0.49990 0.48742 0.67366
 Cu192 Cu 0.49950 0.51309 0.32349
 C193 C 0.54465 0.44942 0.41730
 C194 C 0.45475 0.55108 0.58001
 C195 C 0.45468 0.44911 0.41875
 C196 C 0.54478 0.55132 0.57836
 O197 O -0.03256 0.54905 0.08801
 O198 O 0.03367 0.47246 0.21124
 O199 O 0.03399 0.54860 0.09026
 O200 O -0.03322 0.47290 0.20955
 O201 O -0.03299 0.45216 -0.08525
 O202 O 0.03407 0.52802 -0.20476
 O203 O 0.03347 0.45184 -0.08373
 O204 O -0.03283 0.52828 -0.20673
 Cu205 Cu 0.00047 0.51336 0.17819
 Cu206 Cu 0.00043 0.48749 -0.17356
 C207 C -0.04430 0.55153 -0.07671
 C208 C 0.04514 0.44925 0.08106
 C209 C 0.04577 0.55104 -0.07398
 C210 C -0.04481 0.44976 0.07892
 O211 O 0.46662 0.95100 0.41612
 O212 O 0.53335 1.02701 0.29399
 O213 O 0.53300 0.95094 0.41621
 O214 O 0.46634 1.02705 0.29452
 O215 O 0.46686 1.04830 0.58862
 O216 O 0.53363 0.97231 0.71013
 O217 O 0.53324 1.04840 0.58790
 O218 O 0.46658 0.97217 0.71033
 Cu219 Cu 0.49981 0.98644 0.32675
 Cu220 Cu 0.50011 1.01285 0.67777
 C221 C 0.45492 0.94880 0.58059
 C222 C 0.54493 1.05052 0.42336
 C223 C 0.54497 0.94883 0.58050
 C224 C 0.45494 1.05045 0.42423
 N225 N 1.11590 0.10804 0.31148
 C226 C 1.12890 0.13097 0.16846
 N227 N 1.11321 0.12823 -0.00076
 N228 N 1.08632 0.10346 -0.02679
 C229 C 1.07377 0.08031 0.11525
 N230 N 1.08894 0.08313 0.28542
 N231 N 0.61419 0.61012 0.81043
 C232 C 0.62789 0.63136 0.66466
 N233 N 0.61328 0.62700 0.49364
 N234 N 0.58638 0.60220 0.46855
 C235 C 0.57295 0.58065 0.61330
 N236 N 0.58726 0.58511 0.78520
 N237 N -0.11377 0.39102 0.30888
 C238 C -0.12790 0.36997 0.16190
 N239 N -0.11376 0.37449 -0.00946
 N240 N -0.08689 0.39924 -0.03367
 C241 C -0.07303 0.42060 0.11235
 N242 N -0.08687 0.41599 0.28454
 N243 N 0.38517 0.89161 0.81092
 C244 C 0.37172 0.86931 0.66565
 N245 N 0.38664 0.87243 0.49563
 N246 N 0.41357 0.89706 0.47099
 C247 C 0.42676 0.91964 0.61525
 N248 N 0.41215 0.91642 0.78618
 N249 N -0.11287 0.61041 -0.31006
 C250 C -0.12709 0.63135 -0.16366
 N251 N -0.11307 0.62680 0.00842
 N252 N -0.08625 0.60209 0.03389
 C253 C -0.07232 0.58082 -0.11154
 N254 N -0.08603 0.58548 -0.28445
 N255 N 0.38751 1.12772 0.50727
 C256 C 0.37183 1.12988 0.33844
 N257 N 0.38451 1.10664 0.19461
 N258 N 0.41147 1.08189 0.21955
 C259 C 0.42682 1.07961 0.38929
 N260 N 0.41441 1.10310 0.53218
 N261 N 1.11389 -0.12639 0.00185
 C262 C 1.12835 -0.13096 -0.16913
 N263 N 1.11444 -0.10976 -0.31503
 N264 N 1.08764 -0.08468 -0.29001
 C265 C 1.07357 -0.08008 -0.11812
 N266 N 1.08711 -0.10154 0.02675
 N267 N 0.61303 0.37367 0.50053
 C268 C 0.62743 0.36942 0.32943
 N269 N 0.61362 0.39078 0.18399
 N270 N 0.58680 0.41579 0.20964
 C271 C 0.57271 0.42014 0.38167
 N272 N 0.58625 0.39847 0.52605
 N273 N 0.88811 -0.12831 -0.00294
 C274 C 0.87224 -0.13086 -0.17148
 N275 N 0.88490 -0.10775 -0.31466
 N276 N 0.91185 -0.08280 -0.28930
 C277 C 0.92729 -0.08016 -0.11976
 N278 N 0.91499 -0.10350 0.02237
 N279 N 0.38533 0.39000 0.18760
 C280 C 0.37194 0.36845 0.33334
 N281 N 0.38674 0.37273 0.50391
 N282 N 0.41351 0.39775 0.52863
 C283 C 0.42662 0.41961 0.38396
 N284 N 0.41214 0.41523 0.21246
 N285 N 0.11407 0.61058 -0.30552
 C286 C 0.12902 0.63070 -0.15816
 N287 N 0.11554 0.62515 0.01439
 N288 N 0.08866 0.60044 0.03915
 C289 C 0.07407 0.58007 -0.10744
 N290 N 0.08719 0.58561 -0.28066
 N291 N 0.61480 1.10714 0.19160
 C292 C 0.62770 1.13054 0.33492
 N293 N 0.61238 1.12829 0.50422
 N294 N 0.58560 1.10345 0.53006
 C295 C 0.57296 1.07982 0.38767
 N296 N 0.58796 1.08218 0.21747
 N297 N 0.11351 0.37351 -0.00503
 C298 C 0.12755 0.36878 0.16687
 N299 N 0.11350 0.38980 0.31355
 N300 N 0.08679 0.41497 0.28837
 C301 C 0.07306 0.41980 0.11561
 N302 N 0.08683 0.39845 -0.03007
 N303 N 0.61556 0.89276 0.80927
 C304 C 0.62806 0.86934 0.66552
 N305 N 0.61220 0.87133 0.49717
 N306 N 0.58530 0.89597 0.47259
 C307 C 0.57307 0.91964 0.61534
 N308 N 0.58859 0.91752 0.78466
 N309 N 0.88520 0.10754 0.30802
 C310 C 0.87283 0.13109 0.16555
 N311 N 0.88869 0.12900 -0.00240
 N312 N 0.91548 0.10417 -0.02783
 C313 C 0.92760 0.08039 0.11364
 N314 N 0.91206 0.08260 0.28257
 N315 N 0.38711 0.62801 0.49935
 C316 C 0.37198 0.63106 0.66907
 N317 N 0.38509 0.60851 0.81281
 N318 N 0.41192 0.58354 0.78685
 C319 C 0.42671 0.58037 0.61617
 N320 N 0.41388 0.60320 0.47346
   
