data_POSCAR
  _audit_creation_date              2014-09-24
  _audit_creation_method            'ToBaCCo'
  _symmetry_space_group_name_H-M    'P1'
  _symmetry_Int_Tables_number       1
  _symmetry_cell_setting            triclinic
  loop_
  _symmetry_equiv_pos_as_xyz
 x,y,z
_cell_length_a 31.8997
_cell_length_b 33.4357
_cell_length_c 43.1487
_cell_angle_alpha 90.509000
_cell_angle_beta 89.473300
_cell_angle_gamma 89.755200
loop_
  _atom_site_label
  _atom_site_type_symbol
  _atom_site_fract_x
  _atom_site_fract_y
  _atom_site_fract_z
Si1 Si 1.25276 0.25493 0.25582
 Si2 Si 0.75718 -0.24904 0.24348
 Si3 Si 0.74966 0.24242 -0.25232
 Si4 Si 1.25248 -0.25827 -0.24945
 Si5 Si 0.24998 0.25766 0.74463
 Si6 Si 0.74600 0.76140 0.75584
 Si7 Si 0.74832 0.24803 0.25177
 Si8 Si 0.24219 0.74538 0.25003
 O9 O 1.08081 0.03299 0.03776
 O10 O 0.93754 -0.01126 0.03732
 O11 O 0.98689 0.07911 0.03569
 O12 O 1.03108 -0.05697 0.04209
 O13 O 0.93027 0.05438 0.01869
 O14 O 1.08947 -0.03522 0.02509
 O15 O 0.96138 -0.06705 0.02223
 O16 O 1.05814 0.08596 0.01748
 C17 C 1.07496 0.06937 0.03989
 C18 C 0.94274 -0.04704 0.04253
 C19 C 0.94913 0.07239 0.03983
 C20 C 1.06905 -0.05192 0.04618
 O21 O 1.08364 -0.01724 -0.03715
 O22 O 0.94062 0.02643 -0.04104
 O23 O 1.03245 0.07367 -0.04141
 O24 O 0.99233 -0.06402 -0.03623
 O25 O 0.93322 -0.03996 -0.02250
 O26 O 1.08998 0.05178 -0.02366
 O27 O 1.06148 -0.06975 -0.01597
 O28 O 0.96156 0.08229 -0.02416
 Co29 Co 1.07881 0.00805 0.00035
 Co30 Co 0.94247 0.00738 -0.00176
 Co31 Co 1.00984 0.07326 -0.00279
 Co32 Co 1.01140 -0.05740 0.00274
 O33 O 1.01061 0.00784 -0.00036
 C34 C 1.07904 -0.05385 -0.03852
 C35 C 0.94543 0.06253 -0.04549
 C36 C 1.07038 0.06765 -0.04528
 C37 C 0.95487 -0.05891 -0.04198
 O38 O 1.06104 0.53049 0.53652
 O39 O 0.91763 0.49049 0.54375
 O40 O 0.96582 0.57954 0.53592
 O41 O 1.01305 0.44351 0.54336
 O42 O 0.90826 0.55536 0.52120
 O43 O 1.06919 0.46201 0.52168
 O44 O 0.94186 0.43386 0.52978
 O45 O 1.03579 0.58423 0.51817
 C46 C 1.05456 0.56679 0.53953
 C47 C 0.92438 0.45511 0.55004
 C48 C 0.92829 0.57397 0.54126
 C49 C 1.05138 0.44752 0.54474
 O50 O 1.05744 0.48205 0.46141
 O51 O 0.91357 0.52207 0.46411
 O52 O 1.00907 0.57054 0.45818
 O53 O 0.96413 0.43417 0.46834
 O54 O 0.90727 0.45734 0.48655
 O55 O 1.06658 0.55102 0.47639
 O56 O 1.03513 0.42900 0.48248
 O57 O 0.93877 0.57909 0.47567
 Co58 Co 1.05613 0.50637 0.49916
 Co59 Co 0.91898 0.50631 0.50373
 Co60 Co 0.98742 0.57162 0.49735
 Co61 Co 0.98847 0.44193 0.50561
 O62 O 0.98769 0.50660 0.50146
 C63 C 1.05206 0.44551 0.45980
 C64 C 0.91970 0.55722 0.45690
 C65 C 1.04698 0.56503 0.45419
 C66 C 0.92603 0.43885 0.46539
 O67 O 0.58122 0.03482 0.51549
 O68 O 0.41639 -0.05278 0.52079
 O69 O 0.45484 0.06811 0.52354
 O70 O 0.54289 -0.08610 0.51895
 O71 O 0.42899 0.01343 0.53969
 O72 O 0.57040 -0.03186 0.53466
 O73 O 0.47370 -0.07625 0.53658
 O74 O 0.52587 0.05808 0.53588
 C75 C 0.56394 0.05284 0.53756
 C76 C 0.43611 -0.07049 0.54136
 C77 C 0.43639 0.04912 0.54448
 C78 C 0.56209 -0.06731 0.53957
 O79 O 0.57476 -0.05974 0.47539
 O80 O 0.41852 0.04163 0.48173
 O81 O 0.54709 0.06419 0.47366
 O82 O 0.44563 -0.08203 0.47644
 O83 O 0.42322 -0.02533 0.46190
 O84 O 0.56886 0.00737 0.45732
 O85 O 0.51569 -0.07774 0.45883
 O86 O 0.47540 0.06034 0.46139
 Co87 Co 0.56638 -0.01208 0.49602
 Co88 Co 0.42924 -0.00613 0.50072
 Co89 Co 0.50053 0.05589 0.49860
 Co90 Co 0.49477 -0.07387 0.49773
 O91 O 0.49773 -0.00904 0.49822
 C92 C 0.55368 -0.07504 0.45424
 C93 C 0.43706 0.05757 0.45957
 C94 C 0.56492 0.04360 0.45295
 C95 C 0.42701 -0.06150 0.45669
 O96 O 0.57413 0.51247 0.03843
 O97 O 0.42929 0.47653 0.04162
 O98 O 0.47939 0.56409 0.04153
 O99 O 0.52351 0.42653 0.03732
 O100 O 0.42165 0.54425 0.02380
 O101 O 0.58026 0.44603 0.01733
 O102 O 0.45213 0.42154 0.02310
 O103 O 0.55008 0.56905 0.02471
 C104 C 0.56863 0.54836 0.04436
 C105 C 0.43600 0.44042 0.04526
 C106 C 0.44135 0.55967 0.04551
 C107 C 0.56187 0.42971 0.03935
 O108 O 0.57030 0.47542 -0.04049
 O109 O 0.42718 0.51857 -0.03549
 O110 O 0.52431 0.56482 -0.03606
 O111 O 0.47428 0.42962 -0.03804
 O112 O 0.41819 0.45127 -0.01767
 O113 O 0.58137 0.54168 -0.01941
 O114 O 0.54507 0.42043 -0.02464
 O115 O 0.45405 0.57275 -0.01887
 Co116 Co 0.56900 0.49408 -0.00087
 Co117 Co 0.43148 0.49744 0.00291
 Co118 Co 0.50181 0.56097 0.00264
 Co119 Co 0.49893 0.43117 -0.00036
 O120 O 0.50028 0.49594 0.00107
 C121 C 0.56250 0.43978 -0.04572
 C122 C 0.43517 0.55430 -0.03981
 C123 C 0.56236 0.56024 -0.03986
 C124 C 0.43620 0.43516 -0.04022
 C125 C 1.22994 0.18108 0.22706
 C126 C 1.20964 0.15737 0.20506
 C127 C 1.18285 0.17473 0.18349
 C128 C 1.17623 0.21633 0.18433
 C129 C 1.19650 0.24004 0.20640
 C130 C 1.22332 0.22262 0.22809
 N131 N 1.16425 0.14976 0.16030
 N132 N 1.14058 0.16379 0.13942
 C133 C 1.12296 0.13908 0.11564
 C134 C 1.09837 0.15699 0.09294
 C135 C 1.08237 0.13421 0.06851
 C136 C 1.09073 0.09295 0.06643
 C137 C 1.11470 0.07478 0.08962
 C138 C 1.13080 0.09768 0.11402
 H139 H 1.25154 0.16673 0.24258
 H140 H 1.21543 0.12544 0.20440
 H141 H 1.15603 0.23057 0.16765
 H142 H 1.19194 0.27204 0.20588
 H143 H 1.09207 0.18883 0.09396
 H144 H 1.06374 0.14897 0.05112
 H145 H 1.12149 0.04302 0.08867
 H146 H 1.14970 0.08313 0.13136
 C147 C 1.24016 0.67814 0.70830
 C148 C 1.21859 0.65583 0.68619
 C149 C 1.17804 0.66680 0.67763
 C150 C 1.15858 0.69984 0.69224
 C151 C 1.17995 0.72179 0.71492
 C152 C 1.22115 0.71137 0.72277
 N153 N 1.15800 0.64419 0.65371
 N154 N 1.12493 0.65599 0.64023
 C155 C 1.10627 0.63267 0.61600
 C156 C 1.07571 0.65014 0.59732
 C157 C 1.05881 0.62877 0.57239
 C158 C 1.07180 0.58926 0.56612
 C159 C 1.10161 0.57141 0.58545
 C160 C 1.11892 0.59299 0.61003
 H161 H 1.27176 0.66925 0.71409
 H162 H 1.23385 0.63036 0.67519
 H163 H 1.12705 0.70866 0.68611
 H164 H 1.16444 0.74708 0.72582
 H165 H 1.06562 0.68065 0.60171
 H166 H 1.03563 0.64314 0.55802
 H167 H 1.11208 0.54095 0.58127
 H168 H 1.14230 0.57870 0.62426
 C169 C 0.68382 0.18811 0.73191
 C170 C 0.65992 0.16516 0.71132
 C171 C 0.66845 0.16594 0.67942
 C172 C 0.70049 0.19076 0.66826
 C173 C 0.72369 0.21424 0.68869
 C174 C 0.71571 0.21310 0.72072
 N175 N 0.64437 0.14166 0.65867
 N176 N 0.65793 0.13316 0.63154
 C177 C 0.63416 0.11069 0.60947
 C178 C 0.65444 0.09600 0.58279
 C179 C 0.63186 0.07604 0.55981
 C180 C 0.58831 0.07123 0.56288
 C181 C 0.56802 0.08555 0.58989
 C182 C 0.59081 0.10490 0.61314
 H183 H 0.67793 0.18570 0.75656
 H184 H 0.63542 0.14604 0.72028
 H185 H 0.70750 0.19212 0.64369
 H186 H 0.74834 0.23268 0.67922
 H187 H 0.68782 0.10042 0.57968
 H188 H 0.64828 0.06538 0.53924
 H189 H 0.53447 0.08213 0.59289
 H190 H 0.57445 0.11624 0.63349
 C191 C 0.69346 0.74322 0.19915
 C192 C 0.66839 0.72259 0.17807
 C193 C 0.67114 0.68093 0.17541
 C194 C 0.69878 0.65988 0.19459
 C195 C 0.72377 0.68053 0.21577
 C196 C 0.72125 0.72233 0.21812
 N197 N 0.64721 0.66115 0.15200
 N198 N 0.64949 0.62361 0.14714
 C199 C 0.62667 0.60467 0.12267
 C200 C 0.63201 0.56361 0.11733
 C201 C 0.61248 0.54490 0.09222
 C202 C 0.58732 0.56720 0.07203
 C203 C 0.58103 0.60818 0.07801
 C204 C 0.60055 0.62678 0.10307
 H205 H 0.69164 0.77556 0.20029
 H206 H 0.64745 0.73915 0.16325
 H207 H 0.70170 0.62768 0.19276
 H208 H 0.74579 0.66382 0.22955
 H209 H 0.65204 0.54625 0.13228
 H210 H 0.61770 0.51322 0.08827
 H211 H 0.56153 0.62605 0.06303
 H212 H 0.59578 0.65855 0.10677
 C213 C 0.81725 -0.24194 0.19586
 C214 C 0.84160 -0.22155 0.17418
 C215 C 0.83997 -0.17981 0.17276
 C216 C 0.81411 -0.15843 0.19370
 C217 C 0.78982 -0.17886 0.21550
 C218 C 0.79127 -0.22073 0.21661
 N219 N 0.86346 -0.16017 0.14902
 N220 N 0.86224 -0.12248 0.14532
 C221 C 0.88478 -0.10366 0.12064
 C222 C 0.88048 -0.06239 0.11655
 C223 C 0.89992 -0.04366 0.09144
 C224 C 0.92395 -0.06613 0.07001
 C225 C 0.92916 -0.10737 0.07466
 C226 C 0.90971 -0.12601 0.09973
 H227 H 0.81836 -0.27432 0.19623
 H228 H 0.86123 -0.23831 0.15804
 H229 H 0.81216 -0.12613 0.19288
 H230 H 0.76939 -0.16194 0.23091
 H231 H 0.86138 -0.04485 0.13254
 H232 H 0.89560 -0.01179 0.08853
 H233 H 0.94777 -0.12536 0.05866
 H234 H 0.91366 -0.15796 0.10245
 C235 C 0.82590 0.26286 0.71686
 C236 C 0.85061 0.28630 0.69723
 C237 C 0.83431 0.32142 0.68449
 C238 C 0.79294 0.33300 0.69169
 C239 C 0.76813 0.30934 0.71091
 C240 C 0.78446 0.27422 0.72363
 N241 N 0.85916 0.34339 0.66278
 N242 N 0.84784 0.37762 0.65315
 C243 C 0.87067 0.39840 0.62962
 C244 C 0.85804 0.43709 0.62164
 C245 C 0.87668 0.45648 0.59649
 C246 C 0.90786 0.43703 0.57869
 C247 C 0.92155 0.39879 0.58745
 C248 C 0.90324 0.37966 0.61277
 H249 H 0.83884 0.23552 0.72610
 H250 H 0.88230 0.27684 0.69158
 H251 H 0.77944 0.35972 0.68182
 H252 H 0.73600 0.31828 0.71557
 H253 H 0.83290 0.45178 0.63443
 H254 H 0.86559 0.48595 0.59026
 H255 H 0.94582 0.38329 0.57430
 H256 H 0.91352 0.34975 0.61847
 C257 C 0.32143 -0.25064 0.70936
 C258 C 0.34660 -0.23080 0.68779
 C259 C 0.34065 -0.19000 0.68237
 C260 C 0.31111 -0.16856 0.70033
 C261 C 0.28661 -0.18825 0.72243
 C262 C 0.29045 -0.22974 0.72625
 N263 N 0.36356 -0.17153 0.65770
 N264 N 0.35181 -0.13862 0.64588
 C265 C 0.37417 -0.12070 0.62067
 C266 C 0.35477 -0.09035 0.60377
 C267 C 0.37479 -0.07397 0.57787
 C268 C 0.41499 -0.08722 0.56891
 C269 C 0.43490 -0.11688 0.58646
 C270 C 0.41454 -0.13374 0.61196
 H271 H 0.32564 -0.28249 0.71233
 H272 H 0.36958 -0.24759 0.67433
 H273 H 0.30658 -0.13680 0.69696
 H274 H 0.26410 -0.17096 0.73571
 H275 H 0.32368 -0.08001 0.61029
 H276 H 0.35891 -0.05094 0.56489
 H277 H 0.46591 -0.12760 0.58012
 H278 H 0.43027 -0.15700 0.62477
 C279 C 0.28591 0.32995 0.23650
 C280 C 0.30801 0.35470 0.21620
 C281 C 0.33076 0.33819 0.19129
 C282 C 0.33211 0.29637 0.18739
 C283 C 0.30978 0.27170 0.20752
 C284 C 0.28588 0.28837 0.23180
 N285 N 0.35031 0.36426 0.16935
 N286 N 0.37291 0.35038 0.14730
 C287 C 0.39099 0.37486 0.12373
 C288 C 0.41645 0.35644 0.10129
 C289 C 0.43179 0.37817 0.07627
 C290 C 0.42174 0.41891 0.07315
 C291 C 0.39723 0.43785 0.09627
 C292 C 0.38185 0.41592 0.12143
 H293 H 0.26853 0.34350 0.25550
 H294 H 0.30687 0.38682 0.21956
 H295 H 0.34948 0.28279 0.16834
 H296 H 0.31035 0.23965 0.20366
 H297 H 0.42368 0.32485 0.10285
 H298 H 0.45097 0.36280 0.05904
 H299 H 0.38920 0.46925 0.09451
 H300 H 0.36210 0.43074 0.13858
 C301 C 0.77590 0.16698 -0.22835
 C302 C 0.79831 0.14246 -0.20817
 C303 C 0.82694 0.15911 -0.18737
 C304 C 0.83364 0.20066 -0.18751
 C305 C 0.81114 0.22511 -0.20753
 C306 C 0.78161 0.20859 -0.22773
 N307 N 0.84748 0.13380 -0.16549
 N308 N 0.87393 0.14793 -0.14645
 C309 C 0.89376 0.12450 -0.12312
 C310 C 0.92155 0.14361 -0.10309
 C311 C 0.93901 0.12304 -0.07836
 C312 C 0.92901 0.08274 -0.07321
 C313 C 0.90221 0.06301 -0.09399
 C314 C 0.88451 0.08382 -0.11877
 H315 H 0.75385 0.15330 -0.24401
 H316 H 0.79293 0.11051 -0.20841
 H317 H 0.85571 0.21437 -0.17179
 H318 H 0.81671 0.25696 -0.20699
 H319 H 0.92894 0.17491 -0.10626
 H320 H 0.95988 0.13894 -0.06294
 H321 H 0.89408 0.03192 -0.09061
 H322 H 0.86307 0.06844 -0.13404
 C323 C 0.83219 0.72275 0.27084
 C324 C 0.85478 0.70085 0.29255
 C325 C 0.83425 0.67377 0.31194
 C326 C 0.79074 0.66849 0.30926
 C327 C 0.76808 0.69089 0.28797
 C328 C 0.78868 0.71802 0.26860
 N329 N 0.85749 0.65415 0.33561
 N330 N 0.84240 0.62484 0.35055
 C331 C 0.86411 0.60707 0.37582
 C332 C 0.85006 0.57048 0.38732
 C333 C 0.86882 0.55367 0.41329
 C334 C 0.90138 0.57381 0.42853
 C335 C 0.91573 0.61036 0.41677
 C336 C 0.89746 0.62675 0.39045
 H337 H 0.84858 0.74432 0.25672
 H338 H 0.88821 0.70552 0.29469
 H339 H 0.77409 0.64817 0.32434
 H340 H 0.73435 0.68758 0.28703
 H341 H 0.82423 0.55518 0.37631
 H342 H 0.85715 0.52547 0.42190
 H343 H 0.94090 0.62635 0.42803
 H344 H 0.90860 0.65525 0.38208
 C345 C 0.32982 0.22951 0.28261
 C346 C 0.35414 0.20701 0.30297
 C347 C 0.33543 0.17819 0.32190
 C348 C 0.29211 0.17139 0.31972
 C349 C 0.26790 0.19375 0.29935
 C350 C 0.28645 0.22326 0.28090
 N351 N 0.36058 0.15741 0.34396
 N352 N 0.34454 0.13294 0.36309
 C353 C 0.36882 0.11283 0.38598
 C354 C 0.34816 0.08855 0.40744
 C355 C 0.37040 0.07021 0.43119
 C356 C 0.41387 0.07576 0.43375
 C357 C 0.43478 0.09935 0.41171
 C358 C 0.41241 0.11789 0.38806
 H359 H 0.34487 0.25222 0.26876
 H360 H 0.38747 0.21259 0.30448
 H361 H 0.27685 0.14930 0.33406
 H362 H 0.23444 0.18858 0.29842
 H363 H 0.31458 0.08439 0.40603
 H364 H 0.35353 0.05194 0.44769
 H365 H 0.46829 0.10400 0.41303
 H366 H 0.42908 0.13645 0.37167
 C367 C 0.26432 0.66966 -0.21636
 C368 C 0.28438 0.64477 -0.19524
 C369 C 0.32177 0.65673 -0.18131
 C370 C 0.33962 0.69365 -0.18944
 C371 C 0.31972 0.71841 -0.21081
 C372 C 0.28188 0.70661 -0.22429
 N373 N 0.33971 0.63187 -0.15797
 N374 N 0.37093 0.64304 -0.14197
 C375 C 0.38810 0.61906 -0.11780
 C376 C 0.41915 0.63554 -0.09899
 C377 C 0.43470 0.61423 -0.07387
 C378 C 0.41968 0.57574 -0.06728
 C379 C 0.38944 0.55861 -0.08676
 C380 C 0.37354 0.58021 -0.11175
 H381 H 0.23459 0.66040 -0.22588
 H382 H 0.27012 0.61659 -0.18900
 H383 H 0.36844 0.70366 -0.17891
 H384 H 0.33333 0.74716 -0.21622
 H385 H 0.43069 0.66537 -0.10346
 H386 H 0.45832 0.62802 -0.05947
 H387 H 0.37746 0.52893 -0.08230
 H388 H 0.34963 0.56678 -0.12606
 C389 C 1.19531 -0.19389 -0.23517
 C390 C 1.17390 -0.16767 -0.21494
 C391 C 1.17578 -0.17310 -0.18283
 C392 C 1.19912 -0.20529 -0.17121
 C393 C 1.22101 -0.23090 -0.19130
 C394 C 1.21985 -0.22521 -0.22345
 N395 N 1.15472 -0.14556 -0.16220
 N396 N 1.14917 -0.15442 -0.13384
 C397 C 1.13021 -0.12823 -0.11133
 C398 C 1.11778 -0.14451 -0.08303
 C399 C 1.10084 -0.12021 -0.05968
 C400 C 1.09677 -0.07876 -0.06393
 C401 C 1.10934 -0.06219 -0.09238
 C402 C 1.12572 -0.08687 -0.11610
 H403 H 1.19341 -0.18912 -0.25990
 H404 H 1.15588 -0.14313 -0.22428
 H405 H 1.20121 -0.21023 -0.14651
 H406 H 1.23918 -0.25484 -0.18133
 H407 H 1.12135 -0.17627 -0.07906
 H408 H 1.09148 -0.13389 -0.03805
 H409 H 1.10636 -0.03035 -0.09627
 H410 H 1.13555 -0.07367 -0.13779
 C411 C 1.19019 0.31457 0.26792
 C412 C 1.16488 0.33892 0.28698
 C413 C 1.16463 0.33370 0.31911
 C414 C 1.19041 0.30419 0.33203
 C415 C 1.21633 0.28062 0.31313
 C416 C 1.21632 0.28531 0.28086
 N417 N 1.13940 0.35926 0.33854
 N418 N 1.12999 0.34871 0.36597
 C419 C 1.10740 0.37360 0.38744
 C420 C 1.09085 0.35598 0.41405
 C421 C 1.07173 0.37939 0.43702
 C422 C 1.06962 0.42118 0.43406
 C423 C 1.08562 0.43894 0.40703
 C424 C 1.10420 0.41522 0.38370
 H425 H 1.19040 0.31975 0.24325
 H426 H 1.14554 0.36187 0.27673
 H427 H 1.19136 0.30006 0.35687
 H428 H 1.23674 0.25938 0.32415
 H429 H 1.09338 0.32396 0.41720
 H430 H 1.05967 0.36481 0.45755
 H431 H 1.08428 0.47108 0.40416
 H432 H 1.11721 0.42942 0.36334
 C433 C 0.75224 -0.19107 0.29093
 C434 C 0.73215 -0.16800 0.31376
 C435 C 0.68855 -0.16929 0.31718
 C436 C 0.66498 -0.19335 0.29694
 C437 C 0.68512 -0.21641 0.27402
 C438 C 0.72888 -0.21548 0.27102
 N439 N 0.66937 -0.14758 0.34230
 N440 N 0.63007 -0.14840 0.34750
 C441 C 0.61140 -0.12797 0.37348
 C442 C 0.56807 -0.13064 0.37812
 C443 C 0.54916 -0.11298 0.40419
 C444 C 0.57349 -0.09244 0.42614
 C445 C 0.61690 -0.08909 0.42113
 C446 C 0.63575 -0.10672 0.39501
 H447 H 0.78613 -0.19042 0.28918
 H448 H 0.75064 -0.14978 0.32931
 H449 H 0.63122 -0.19502 0.29928
 H450 H 0.66653 -0.23565 0.25934
 H451 H 0.54901 -0.14694 0.36170
 H452 H 0.51558 -0.11587 0.40737
 H453 H 0.63633 -0.07318 0.43754
 H454 H 0.66934 -0.10421 0.39191
 C455 C 0.74310 0.30921 -0.21206
 C456 C 0.72312 0.33570 -0.19153
 C457 C 0.68070 0.33102 -0.18419
 C458 C 0.65793 0.30016 -0.19855
 C459 C 0.67783 0.27399 -0.21959
 C460 C 0.72081 0.27781 -0.22598
 N461 N 0.66217 0.35695 -0.16124
 N462 N 0.62640 0.35001 -0.14923
 C463 C 0.60869 0.37498 -0.12531
 C464 C 0.57506 0.36036 -0.10789
 C465 C 0.55968 0.38191 -0.08236
 C466 C 0.57708 0.41907 -0.07423
 C467 C 0.60957 0.43472 -0.09261
 C468 C 0.62561 0.41262 -0.11782
 H469 H 0.77605 0.31348 -0.21710
 H470 H 0.74098 0.35944 -0.18075
 H471 H 0.62494 0.29619 -0.19344
 H472 H 0.65958 0.25075 -0.23042
 H473 H 0.56176 0.33145 -0.11343
 H474 H 0.53455 0.36917 -0.06865
 H475 H 0.62351 0.46329 -0.08683
 H476 H 0.65153 0.42461 -0.13111
 C477 C 1.17448 0.22072 -0.23444
 C478 C 1.15087 0.19745 -0.21399
 C479 C 1.17053 0.17642 -0.19024
 C480 C 1.21442 0.17800 -0.18768
 C481 C 1.23795 0.20140 -0.20800
 C482 C 1.21807 0.22348 -0.23110
 N483 N 1.14533 0.15552 -0.16806
 N484 N 1.16178 0.13514 -0.14655
 C485 C 1.13748 0.11590 -0.12300
 C486 C 1.15839 0.09346 -0.10072
 C487 C 1.13636 0.07695 -0.07589
 C488 C 1.09285 0.08282 -0.07284
 C489 C 1.07161 0.10439 -0.09576
 C490 C 1.09376 0.12087 -0.12068
 H491 H 1.15850 0.23682 -0.25249
 H492 H 1.11712 0.19637 -0.21629
 H493 H 1.23043 0.16200 -0.16954
 H494 H 1.27162 0.20300 -0.20520
 H495 H 1.19206 0.08948 -0.10228
 H496 H 1.15356 0.06026 -0.05873
 H497 H 1.03806 0.10924 -0.09408
 H498 H 1.07693 0.13818 -0.13765
 C499 C 1.16436 0.71312 0.26613
 C500 C 1.13791 0.69075 0.28534
 C501 C 1.15462 0.66655 0.30849
 C502 C 1.19837 0.66334 0.31109
 C503 C 1.22474 0.68583 0.29209
 C504 C 1.20809 0.71242 0.27033
 N505 N 1.12697 0.64747 0.33017
 N506 N 1.14122 0.62514 0.35140
 C507 C 1.11551 0.60758 0.37497
 C508 C 1.13487 0.58339 0.39690
 C509 C 1.11218 0.56880 0.42212
 C510 C 1.06944 0.57822 0.42594
 C511 C 1.04949 0.60134 0.40328
 C512 C 1.07242 0.61607 0.37796
 H513 H 1.15013 0.73116 0.24845
 H514 H 1.10427 0.69296 0.28263
 H515 H 1.21227 0.64430 0.32840
 H516 H 1.25811 0.68273 0.29509
 H517 H 1.16803 0.57668 0.39485
 H518 H 1.12836 0.55075 0.43899
 H519 H 1.01656 0.60891 0.40557
 H520 H 1.05680 0.63481 0.36126
 C521 C 0.67018 0.21679 0.27382
 C522 C 0.64546 0.19440 0.29418
 C523 C 0.66404 0.16722 0.31441
 C524 C 0.70775 0.16175 0.31336
 C525 C 0.73250 0.18471 0.29343
 C526 C 0.71403 0.21320 0.27411
 N527 N 0.63839 0.14729 0.33689
 N528 N 0.65162 0.11707 0.35169
 C529 C 0.62749 0.09845 0.37569
 C530 C 0.63877 0.06004 0.38519
 C531 C 0.61756 0.04184 0.40973
 C532 C 0.58529 0.06226 0.42579
 C533 C 0.57378 0.10078 0.41615
 C534 C 0.59446 0.11863 0.39107
 H535 H 0.65477 0.23742 0.25854
 H536 H 0.61179 0.19864 0.29452
 H537 H 0.72289 0.14083 0.32870
 H538 H 0.76615 0.18077 0.29369
 H539 H 0.66429 0.04428 0.37365
 H540 H 0.62722 0.01216 0.41668
 H541 H 0.54897 0.11711 0.42808
 H542 H 0.58547 0.14853 0.38427
 C543 C 0.68356 0.70168 -0.23171
 C544 C 0.65929 0.67739 -0.21228
 C545 C 0.66549 0.67802 -0.18017
 C546 C 0.69586 0.70364 -0.16770
 C547 C 0.71934 0.72841 -0.18695
 C548 C 0.71335 0.72791 -0.21914
 N549 N 0.64092 0.65278 -0.16044
 N550 N 0.65375 0.64405 -0.13347
 C551 C 0.63017 0.62082 -0.11181
 C552 C 0.65106 0.60504 -0.08633
 C553 C 0.62906 0.58441 -0.06347
 C554 C 0.58538 0.57998 -0.06533
 C555 C 0.56431 0.59554 -0.09110
 C556 C 0.58663 0.61559 -0.11437
 H557 H 0.67923 0.69964 -0.25651
 H558 H 0.63621 0.65757 -0.22227
 H559 H 0.70118 0.70482 -0.14296
 H560 H 0.74240 0.74762 -0.17637
 H561 H 0.68456 0.60910 -0.08405
 H562 H 0.64616 0.57284 -0.04389
 H563 H 0.53065 0.59246 -0.09311
 H564 H 0.56984 0.62792 -0.13380
 C565 C 0.75612 -0.17383 -0.20258
 C566 C 0.77757 -0.15029 -0.18111
 C567 C 0.81963 -0.15826 -0.17454
 C568 C 0.84035 -0.18989 -0.19010
 C569 C 0.81883 -0.21352 -0.21156
 C570 C 0.77657 -0.20563 -0.21786
 N571 N 0.83980 -0.13501 -0.15103
 N572 N 0.87808 -0.14012 -0.14395
 C573 C 0.89732 -0.11776 -0.11948
 C574 C 0.93974 -0.12426 -0.11315
 C575 C 0.95880 -0.10457 -0.08830
 C576 C 0.93548 -0.07819 -0.06923
 C577 C 0.89312 -0.07106 -0.07603
 C578 C 0.87419 -0.09064 -0.10095
 H579 H 0.72333 -0.16764 -0.20687
 H580 H 0.76120 -0.12619 -0.16914
 H581 H 0.87278 -0.19683 -0.18521
 H582 H 0.83495 -0.23845 -0.22259
 H583 H 0.95790 -0.14507 -0.12725
 H584 H 0.99155 -0.11053 -0.08369
 H585 H 0.87448 -0.05067 -0.06189
 H586 H 0.84134 -0.08505 -0.10538
 C587 C 0.81263 0.25762 0.29582
 C588 C 0.83543 0.27765 0.31857
 C589 C 0.82454 0.31664 0.32749
 C590 C 0.79103 0.33593 0.31273
 C591 C 0.76864 0.31607 0.28947
 C592 C 0.77903 0.27659 0.28109
 N593 N 0.84778 0.33555 0.35173
 N594 N 0.83535 0.36747 0.36529
 C595 C 0.85903 0.38571 0.38965
 C596 C 0.84006 0.41530 0.40820
 C597 C 0.86177 0.43244 0.43296
 C598 C 0.90320 0.42073 0.43919
 C599 C 0.92256 0.39168 0.42009
 C600 C 0.90055 0.37406 0.39568
 H601 H 0.82153 0.22730 0.28963
 H602 H 0.86126 0.26252 0.32968
 H603 H 0.78225 0.36622 0.31912
 H604 H 0.74309 0.33152 0.27843
 H605 H 0.80814 0.42461 0.40377
 H606 H 0.84619 0.45496 0.44718
 H607 H 0.95451 0.38220 0.42428
 H608 H 0.91599 0.35141 0.38153
 C609 C 0.30556 -0.24822 0.29284
 C610 C 0.32911 -0.22879 0.31547
 C611 C 0.32064 -0.18900 0.32346
 C612 C 0.28849 -0.16847 0.30812
 C613 C 0.26471 -0.18798 0.28549
 C614 C 0.27249 -0.22836 0.27795
 N615 N 0.34468 -0.17057 0.34750
 N616 N 0.34032 -0.13392 0.35509
 C617 C 0.36376 -0.11616 0.37978
 C618 C 0.35873 -0.07531 0.38608
 C619 C 0.37987 -0.05736 0.41075
 C620 C 0.40623 -0.08019 0.42975
 C621 C 0.41175 -0.12110 0.42311
 C622 C 0.39075 -0.13896 0.39830
 H623 H 0.31389 -0.27870 0.28678
 H624 H 0.35413 -0.24481 0.32685
 H625 H 0.28152 -0.13753 0.31379
 H626 H 0.24034 -0.17116 0.27425
 H627 H 0.33806 -0.05742 0.37199
 H628 H 0.37505 -0.02574 0.41524
 H629 H 0.43205 -0.13935 0.43722
 H630 H 0.39519 -0.17062 0.39389
 C631 C 0.32590 0.28253 -0.22699
 C632 C 0.34973 0.30335 -0.20528
 C633 C 0.33037 0.32916 -0.18387
 C634 C 0.28664 0.33432 -0.18457
 C635 C 0.26277 0.31354 -0.20639
 C636 C 0.28221 0.28769 -0.22793
 N637 N 0.35560 0.34816 -0.16084
 N638 N 0.33996 0.37086 -0.13992
 C639 C 0.36518 0.38858 -0.11628
 C640 C 0.34561 0.41166 -0.09313
 C641 C 0.36886 0.42731 -0.06864
 C642 C 0.41224 0.42009 -0.06696
 C643 C 0.43207 0.39783 -0.09068
 C644 C 0.40873 0.38207 -0.11513
 H645 H 0.34185 0.26167 -0.24230
 H646 H 0.38333 0.29868 -0.20465
 H647 H 0.27087 0.35377 -0.16797
 H648 H 0.22912 0.31707 -0.20583
 H649 H 0.31212 0.41692 -0.09381
 H650 H 0.35278 0.44466 -0.05082
 H651 H 0.46546 0.39208 -0.09011
 H652 H 0.42460 0.36440 -0.13284
 C653 C 1.18044 -0.19794 0.23801
 C654 C 1.15715 -0.17297 0.21868
 C655 C 1.16770 -0.16969 0.18725
 C656 C 1.20170 -0.19198 0.17532
 C657 C 1.22431 -0.21756 0.19439
 C658 C 1.21393 -0.22105 0.22599
 N659 N 1.14326 -0.14451 0.16755
 N660 N 1.15805 -0.13274 0.14172
 C661 C 1.13471 -0.10957 0.12005
 C662 C 1.15658 -0.09129 0.09588
 C663 C 1.13513 -0.07128 0.07263
 C664 C 1.09107 -0.06986 0.07275
 C665 C 1.06898 -0.08753 0.09744
 C666 C 1.09070 -0.10708 0.12110
 H667 H 1.17170 -0.19972 0.26228
 H668 H 1.13101 -0.15600 0.22823
 H669 H 1.21031 -0.19022 0.15104
 H670 H 1.24977 -0.23453 0.18398
 H671 H 1.19047 -0.09316 0.09479
 H672 H 1.15311 -0.05801 0.05399
 H673 H 1.03503 -0.08687 0.09813
 H674 H 1.07317 -0.12133 0.13951
 C675 C 1.18352 0.31351 0.73415
 C676 C 1.15750 0.33720 0.71577
 C677 C 1.16399 0.33871 0.68368
 C678 C 1.19609 0.31548 0.67008
 C679 C 1.22132 0.29124 0.68827
 C680 C 1.21580 0.29041 0.72055
 N681 N 1.13740 0.36298 0.66492
 N682 N 1.14968 0.37354 0.63810
 C683 C 1.12428 0.39538 0.61700
 C684 C 1.14371 0.41172 0.59093
 C685 C 1.11995 0.42989 0.56806
 C686 C 1.07602 0.43138 0.57060
 C687 C 1.05644 0.41582 0.59720
 C688 C 1.08049 0.39806 0.62041
 H689 H 1.17755 0.31247 0.75881
 H690 H 1.13248 0.35452 0.72652
 H691 H 1.20116 0.31544 0.64524
 H692 H 1.24474 0.27303 0.67670
 H693 H 1.17741 0.40963 0.58806
 H694 H 1.13596 0.44169 0.54790
 H695 H 1.02264 0.41670 0.59976
 H696 H 1.06488 0.38526 0.64035
 C697 C 0.73564 -0.17191 0.71706
 C698 C 0.71543 -0.14857 0.69503
 C699 C 0.67499 -0.15823 0.68540
 C700 C 0.65390 -0.19029 0.69938
 C701 C 0.67387 -0.21319 0.72194
 C702 C 0.71539 -0.20492 0.73022
 N703 N 0.65700 -0.13621 0.66049
 N704 N 0.62503 -0.14851 0.64585
 C705 C 0.60819 -0.12688 0.62027
 C706 C 0.57858 -0.14545 0.60131
 C707 C 0.56359 -0.12614 0.57500
 C708 C 0.57755 -0.08756 0.56756
 C709 C 0.60645 -0.06852 0.58710
 C710 C 0.62189 -0.08811 0.61312
 H711 H 0.76742 -0.16445 0.72339
 H712 H 0.73190 -0.12376 0.68459
 H713 H 0.62233 -0.19793 0.69260
 H714 H 0.65699 -0.23770 0.73213
 H715 H 0.56779 -0.17532 0.60657
 H716 H 0.54116 -0.14143 0.56045
 H717 H 0.61763 -0.03872 0.58202
 H718 H 0.64465 -0.07306 0.62752
 C719 C 0.68452 0.30519 0.23643
 C720 C 0.66040 0.32771 0.21585
 C721 C 0.67008 0.32762 0.18411
 C722 C 0.70438 0.30485 0.17323
 C723 C 0.72786 0.28187 0.19362
 C724 C 0.71793 0.28138 0.22537
 N725 N 0.64440 0.34973 0.16309
 N726 N 0.65705 0.35656 0.13558
 C727 C 0.63235 0.37661 0.11289
 C728 C 0.65233 0.38969 0.08589
 C729 C 0.62939 0.40750 0.06233
 C730 C 0.58567 0.41183 0.06505
 C731 C 0.56548 0.39881 0.09226
 C732 C 0.58873 0.38153 0.11617
 H733 H 0.67644 0.30567 0.26085
 H734 H 0.63414 0.34517 0.22462
 H735 H 0.71253 0.30412 0.14882
 H736 H 0.75354 0.26427 0.18421
 H737 H 0.68588 0.38585 0.08305
 H738 H 0.64585 0.41723 0.04168
 H739 H 0.53183 0.40193 0.09499
 H740 H 0.57262 0.37127 0.13679
 C741 C 0.82583 0.23419 0.22061
 C742 C 0.85245 0.21477 0.19937
 C743 C 0.83929 0.18019 0.18385
 C744 C 0.79944 0.16440 0.19064
 C745 C 0.77295 0.18363 0.21216
 C746 C 0.78591 0.21877 0.22713
 N747 N 0.86593 0.16310 0.16023
 N748 N 0.85369 0.13476 0.14268
 C749 C 0.87928 0.11835 0.11819
 C750 C 0.86153 0.09038 0.09801
 C751 C 0.88443 0.07541 0.07272
 C752 C 0.92588 0.08785 0.06729
 C753 C 0.94419 0.11519 0.08803
 C754 C 0.92097 0.13055 0.11323
 H755 H 0.83605 0.26190 0.23121
 H756 H 0.88287 0.22745 0.19418
 H757 H 0.78845 0.13775 0.17888
 H758 H 0.74193 0.17173 0.21644
 H759 H 0.82950 0.08071 0.10159
 H760 H 0.86955 0.05413 0.05732
 H761 H 0.97612 0.12518 0.08448
 H762 H 0.93541 0.15211 0.12859
 C763 C 0.81377 0.75325 0.71352
 C764 C 0.83854 0.73344 0.69134
 C765 C 0.83125 0.69324 0.68414
 C766 C 0.80009 0.67238 0.70054
 C767 C 0.77587 0.69202 0.72326
 C768 C 0.78194 0.73285 0.72941
 N769 N 0.85463 0.67494 0.65928
 N770 N 0.84316 0.64235 0.64656
 C771 C 0.86591 0.62463 0.62113
 C772 C 0.84689 0.59431 0.60379
 C773 C 0.86713 0.57798 0.57774
 C774 C 0.90724 0.59121 0.56896
 C775 C 0.92684 0.62091 0.58688
 C776 C 0.90619 0.63778 0.61262
 H777 H 0.81928 0.78467 0.71798
 H778 H 0.86254 0.74982 0.67895
 H779 H 0.79417 0.64114 0.69555
 H780 H 0.75184 0.67543 0.73528
 H781 H 0.81590 0.58391 0.61013
 H782 H 0.85142 0.55494 0.56447
 H783 H 0.95780 0.63155 0.58071
 H784 H 0.92162 0.66107 0.62579
 C785 C 0.31540 0.24840 0.70039
 C786 C 0.34073 0.22734 0.67933
 C787 C 0.33664 0.18594 0.67601
 C788 C 0.30734 0.16553 0.69454
 C789 C 0.28191 0.18666 0.71564
 C790 C 0.28552 0.22830 0.71845
 N791 N 0.36095 0.16582 0.65257
 N792 N 0.35880 0.12825 0.64808
 C793 C 0.38151 0.10866 0.62351
 C794 C 0.37699 0.06738 0.61954
 C795 C 0.39582 0.04781 0.59429
 C796 C 0.41943 0.06939 0.57246
 C797 C 0.42513 0.11065 0.57704
 C798 C 0.40628 0.13018 0.60236
 H799 H 0.31852 0.28059 0.70217
 H800 H 0.36305 0.24340 0.66511
 H801 H 0.30352 0.13349 0.69228
 H802 H 0.25896 0.17051 0.72919
 H803 H 0.35800 0.05049 0.63569
 H804 H 0.39108 0.01594 0.59149
 H805 H 0.44338 0.12797 0.56071
 H806 H 0.41030 0.16216 0.60499
 C807 C 0.31637 0.73339 0.21794
 C808 C 0.34313 0.71274 0.19753
 C809 C 0.33115 0.67602 0.18474
 C810 C 0.29222 0.65957 0.19324
 C811 C 0.26553 0.68003 0.21393
 C812 C 0.27734 0.71720 0.22639
 N813 N 0.35803 0.65720 0.16209
 N814 N 0.34677 0.62635 0.14688
 C815 C 0.37259 0.60820 0.12328
 C816 C 0.35523 0.57833 0.10460
 C817 C 0.37801 0.56216 0.07969
 C818 C 0.41897 0.57524 0.07325
 C819 C 0.43714 0.60410 0.09277
 C820 C 0.41398 0.62074 0.11750
 H821 H 0.32597 0.76243 0.22658
 H822 H 0.37284 0.72592 0.19098
 H823 H 0.28214 0.63127 0.18354
 H824 H 0.23536 0.66712 0.21954
 H825 H 0.32346 0.56834 0.10886
 H826 H 0.36336 0.53967 0.06523
 H827 H 0.46869 0.61461 0.08835
 H828 H 0.42814 0.64371 0.13175
   
