data_POSCAR
  _audit_creation_date              2014-09-24
  _audit_creation_method            'ToBaCCo'
  _symmetry_space_group_name_H-M    'P1'
  _symmetry_Int_Tables_number       1
  _symmetry_cell_setting            triclinic
  loop_
  _symmetry_equiv_pos_as_xyz
 x,y,z
_cell_length_a 29.9870
_cell_length_b 29.9870
_cell_length_c 29.9868
_cell_angle_alpha 97.367200
_cell_angle_beta 82.633600
_cell_angle_gamma 97.362800
loop_
  _atom_site_label
  _atom_site_type_symbol
  _atom_site_fract_x
  _atom_site_fract_y
  _atom_site_fract_z
O1 O 0.55227 0.51275 0.04286
 O2 O 0.43070 0.50372 0.03029
 O3 O 0.48590 0.44720 0.04317
 O4 O 0.49647 0.56860 0.03000
 O5 O 0.51221 0.55285 -0.04393
 O6 O 0.50195 0.43148 -0.03073
 O7 O 0.44598 0.48715 -0.04356
 O8 O 0.56758 0.49656 -0.03107
 Cu9 Cu 0.48984 0.50959 0.04403
 Cu10 Cu 0.50841 0.49048 -0.04477
 C11 C 0.58058 0.50600 0.00805
 C12 C 0.41760 0.49411 -0.00881
 C13 C 0.49240 0.41872 0.00847
 C14 C 0.50587 0.58135 -0.00921
 O15 O -0.04301 0.55387 0.51290
 O16 O -0.03052 0.43227 0.50347
 O17 O -0.03016 0.49790 0.56854
 O18 O -0.04336 0.48765 0.44717
 O19 O 0.03058 0.50337 0.43142
 O20 O 0.04375 0.51395 0.55282
 O21 O 0.04341 0.44758 0.48730
 O22 O 0.03083 0.56915 0.49631
 Cu23 Cu -0.04421 0.49144 0.50954
 Cu24 Cu 0.04459 0.51000 0.49043
 C25 C -0.00826 0.58225 0.50594
 C26 C 0.00860 0.41927 0.49405
 C27 C 0.00905 0.50744 0.58130
 C28 C -0.00864 0.49396 0.41867
 O29 O 0.50399 0.03045 0.56902
 O30 O 0.51303 0.04302 0.44745
 O31 O 0.44749 0.04330 0.51382
 O32 O 0.56890 0.03013 0.50325
 O33 O 0.55315 -0.04380 0.48751
 O34 O 0.43178 -0.03060 0.49777
 O35 O 0.49684 -0.03091 0.43213
 O36 O 0.48743 -0.04340 0.55374
 Cu37 Cu 0.50988 0.04417 0.50987
 Cu38 Cu 0.49078 -0.04463 0.49130
 C39 C 0.49436 -0.00865 0.58212
 C40 C 0.50626 0.00821 0.41914
 C41 C 0.41902 0.00860 0.50733
 C42 C 0.58164 -0.00909 0.49385
 C43 C 0.49292 -0.04523 -0.09836
 C44 C 0.50060 -0.08830 -0.08979
 C45 C 0.50771 -0.09716 -0.04667
 C46 C 0.50974 -0.06106 -0.01120
 C47 C 0.49965 -0.01780 -0.01849
 C48 C 0.48999 -0.01017 -0.06185
 C49 C 0.47620 0.03178 -0.06695
 C50 C 0.47576 0.06666 -0.03161
 C51 C 0.48906 0.06120 0.01046
 C52 C 0.49917 0.01794 0.01773
 C53 C 0.52292 -0.06656 0.03092
 C54 C 0.52245 -0.03169 0.06626
 C55 C 0.50883 0.01030 0.06109
 C56 C 0.50606 0.04540 0.09755
 C57 C 0.49842 0.08847 0.08902
 C58 C 0.49116 0.09731 0.04593
 H59 H 0.46435 0.03792 -0.09789
 H60 H 0.46365 0.09757 -0.03750
 H61 H 0.53495 -0.09750 0.03685
 H62 H 0.53412 -0.03787 0.09729
 H63 H 0.50093 -0.11558 -0.11726
 H64 H 0.49820 0.11575 0.11650
 C65 C 0.04653 0.50838 0.90266
 C66 C 0.08964 0.50123 0.91151
 C67 C 0.09821 0.49349 0.95457
 C68 C 0.06170 0.49058 0.98963
 C69 C 0.01834 0.50026 0.98200
 C70 C 0.01105 0.51038 0.93875
 C71 C -0.03107 0.52354 0.93325
 C72 C -0.06642 0.52304 0.96811
 C73 C -0.06124 0.50942 1.01010
 C74 C -0.01789 0.49978 1.01774
 C75 C 0.06679 0.47678 1.03158
 C76 C 0.03146 0.47638 1.06647
 C77 C -0.01061 0.48969 1.06101
 C78 C -0.04607 0.49182 1.09712
 C79 C -0.08916 0.49904 1.08828
 C80 C -0.09771 0.50662 1.04519
 H81 H -0.03701 0.53558 0.90232
 H82 H -0.09746 0.53469 0.96193
 H83 H 0.09772 0.46491 1.03772
 H84 H 0.03734 0.46428 1.09739
 H85 H 0.11711 0.50157 0.88423
 H86 H -0.11665 0.49883 1.11555
 C87 C -0.04498 -0.09830 0.50712
 C88 C -0.08805 -0.08972 0.49943
 C89 C -0.09691 -0.04661 0.49231
 C90 C -0.06082 -0.01113 0.49029
 C91 C -0.01756 -0.01842 0.50039
 C92 C -0.00993 -0.06178 0.51005
 C93 C 0.03202 -0.06688 0.52385
 C94 C 0.06690 -0.03154 0.52428
 C95 C 0.06144 0.01053 0.51097
 C96 C 0.01818 0.01780 0.50087
 C97 C -0.06632 0.03099 0.47712
 C98 C -0.03145 0.06633 0.47759
 C99 C 0.01054 0.06115 0.49121
 C100 C 0.04563 0.09762 0.49398
 C101 C 0.08871 0.08908 0.50161
 C102 C 0.09755 0.04599 0.50887
 H103 H 0.03816 -0.09782 0.53571
 H104 H 0.09782 -0.03743 0.53639
 H105 H -0.09726 0.03692 0.46508
 H106 H -0.03763 0.09736 0.46593
 H107 H -0.11533 -0.11719 0.49910
 H108 H 0.11599 0.11655 0.50183
 C109 C -0.28200 0.51073 1.02262
 N110 N -0.29755 0.49599 0.98212
 N111 N -0.34125 0.49500 0.97739
 C112 C -0.37107 0.50848 1.01306
 N113 N -0.35553 0.52326 1.05358
 N114 N -0.31176 0.52449 1.05824
 C115 C -0.23397 0.51085 1.02799
 N116 N -0.21722 0.53012 1.06677
 N117 N -0.17380 0.52952 1.07182
 C118 C -0.14538 0.50974 1.03825
 N119 N -0.16244 0.48988 0.99975
 N120 N -0.20577 0.49071 0.99457
 C121 C 0.28260 0.48937 0.97687
 N122 N 0.29767 0.50122 1.01802
 N123 N 0.34138 0.50221 1.02273
 C124 C 0.37175 0.49174 0.98640
 N125 N 0.35662 0.47983 0.94523
 N126 N 0.31284 0.47851 0.94059
 C127 C 0.23456 0.48925 0.97157
 N128 N 0.21805 0.47109 0.93233
 N129 N 0.17461 0.47166 0.92737
 C130 C 0.14593 0.49034 0.96142
 N131 N 0.16278 0.50915 1.00036
 N132 N 0.20612 0.50829 1.00549
 C133 C -0.02261 -0.28273 0.51090
 N134 N 0.01854 -0.29779 0.49900
 N135 N 0.02326 -0.34151 0.49793
 C136 C -0.01306 -0.37189 0.50836
 N137 N -0.05423 -0.35678 0.52032
 N138 N -0.05888 -0.31299 0.52172
 C139 C -0.02792 -0.23468 0.51111
 N140 N -0.06716 -0.21820 0.52931
 N141 N -0.07215 -0.17475 0.52883
 C142 C -0.03810 -0.14603 0.51020
 N143 N 0.00085 -0.16284 0.49135
 N144 N 0.00600 -0.20620 0.49213
 C145 C 0.02314 0.28186 0.48952
 N146 N -0.01737 0.29744 0.50422
 N147 N -0.02208 0.34114 0.50513
 C148 C 0.01360 0.37092 0.49162
 N149 N 0.05411 0.35536 0.47688
 N150 N 0.05876 0.31160 0.47572
 C151 C 0.02849 0.23384 0.48951
 N152 N 0.06727 0.21705 0.47026
 N153 N 0.07229 0.17364 0.47094
 C154 C 0.03872 0.14528 0.49078
 N155 N 0.00023 0.16238 0.51062
 N156 N -0.00493 0.20570 0.50970
 C157 C 0.48929 -0.02293 -0.28284
 N158 N 0.50120 0.01821 -0.29791
 N159 N 0.50232 0.02291 -0.34164
 C160 C 0.49191 -0.01343 -0.37202
 N161 N 0.47995 -0.05459 -0.35689
 N162 N 0.47851 -0.05922 -0.31310
 C163 C 0.48902 -0.02822 -0.23477
 N164 N 0.47081 -0.06745 -0.21829
 N165 N 0.47126 -0.07242 -0.17483
 C166 C 0.48986 -0.03836 -0.14610
 N167 N 0.50871 0.00059 -0.16292
 N168 N 0.50797 0.00572 -0.20628
 C169 C 0.51065 0.02282 0.28176
 N170 N 0.52449 0.05843 0.31150
 N171 N 0.52338 0.05375 0.35525
 C172 C 0.50866 0.01323 0.37079
 N173 N 0.49511 -0.02243 0.34100
 N174 N 0.49598 -0.01769 0.29732
 C175 C 0.51062 0.02820 0.23375
 N176 N 0.49039 -0.00520 0.20562
 N177 N 0.48944 -0.00001 0.16230
 C178 C 0.50927 0.03847 0.14521
 N179 N 0.52913 0.07204 0.17357
 N180 N 0.52985 0.06699 0.21697
 C181 C 0.51138 -0.28139 -0.02426
 N182 N 0.52511 -0.31126 -0.05978
 N183 N 0.52366 -0.35501 -0.05497
 C184 C 0.50871 -0.37037 -0.01441
 N185 N 0.49529 -0.34044 0.02115
 N186 N 0.49648 -0.29677 0.01628
 C187 C 0.51158 -0.23342 -0.02971
 N188 N 0.49103 -0.20536 0.00349
 N189 N 0.49028 -0.16203 -0.00167
 C190 C 0.51067 -0.14485 -0.03991
 N191 N 0.53084 -0.17315 -0.07331
 N192 N 0.53134 -0.21659 -0.06830
 C193 C 0.48712 0.28148 0.02352
 N194 N 0.47331 0.31133 0.05903
 N195 N 0.47467 0.35508 0.05423
 C196 C 0.48961 0.37045 0.01366
 N197 N 0.50310 0.34054 -0.02189
 N198 N 0.50200 0.29688 -0.01701
 C199 C 0.48701 0.23353 0.02898
 N200 N 0.50754 0.20548 -0.00426
 N201 N 0.50838 0.16217 0.00090
 C202 C 0.48812 0.14499 0.03918
 N203 N 0.46798 0.17327 0.07263
 N204 N 0.46738 0.21670 0.06761
 C205 C -0.28111 -0.02417 0.48848
 N206 N -0.31098 -0.05967 0.47471
 N207 N -0.35472 -0.05486 0.47611
 C208 C -0.37008 -0.01429 0.49105
 N209 N -0.34015 0.02127 0.50450
 N210 N -0.29649 0.01638 0.50336
 C211 C -0.23316 -0.02963 0.48833
 N212 N -0.20511 0.00356 0.50892
 N213 N -0.16179 -0.00161 0.50971
 C214 C -0.14460 -0.03984 0.48933
 N215 N -0.17288 -0.07324 0.46913
 N216 N -0.21631 -0.06822 0.46858
 C217 C 0.28175 0.02361 0.51275
 N218 N 0.31160 0.05913 0.52652
 N219 N 0.35536 0.05433 0.52511
 C220 C 0.37073 0.01378 0.51015
 N221 N 0.34082 -0.02178 0.49669
 N222 N 0.29715 -0.01692 0.49784
 C223 C 0.23379 0.02905 0.51291
 N224 N 0.20573 -0.00420 0.49241
 N225 N 0.16241 0.00095 0.49162
 C226 C 0.14523 0.03923 0.51189
 N227 N 0.17352 0.07269 0.53200
 N228 N 0.21696 0.06768 0.53255
 C229 C -0.02366 0.48832 1.28138
 N230 N 0.01690 0.50316 1.29675
 N231 N 0.02176 0.50440 1.34043
 C232 C -0.01383 0.49109 1.37038
 N233 N -0.05441 0.47619 1.35504
 N234 N -0.05920 0.47470 1.31128
 C235 C -0.02910 0.48805 1.23341
 N236 N -0.06775 0.46842 1.21662
 N237 N -0.07277 0.46888 1.17317
 C238 C -0.03930 0.48888 1.14482
 N239 N -0.00098 0.50914 1.16195
 N240 N 0.00417 0.50843 1.20528
 C241 C 0.02413 0.51259 0.71852
 N242 N 0.05960 0.52651 0.68869
 N243 N 0.05479 0.52519 0.64495
 C244 C 0.01424 0.51020 0.62957
 N245 N -0.02128 0.49660 0.65946
 N246 N -0.01640 0.49765 0.70311
 C247 C 0.02959 0.51263 0.76646
 N248 N -0.00358 0.49193 0.79444
 N249 N 0.00158 0.49105 0.83775
 C250 C 0.03979 0.51144 0.85498
 N251 N 0.07317 0.53176 0.82677
 N252 N 0.06815 0.53239 0.78334
   
