data_POSCAR
  _audit_creation_date              2014-09-24
  _audit_creation_method            'ToBaCCo'
  _symmetry_space_group_name_H-M    'P1'
  _symmetry_Int_Tables_number       1
  _symmetry_cell_setting            triclinic
  loop_
  _symmetry_equiv_pos_as_xyz
 x,y,z
_cell_length_a 41.3835
_cell_length_b 44.1174
_cell_length_c 42.5206
_cell_angle_alpha 92.156400
_cell_angle_beta 86.076800
_cell_angle_gamma 90.752000
loop_
  _atom_site_label
  _atom_site_type_symbol
  _atom_site_fract_x
  _atom_site_fract_y
  _atom_site_fract_z
N1 N 0.60288 0.67964 0.63616
 N2 N 0.58151 0.66436 0.65374
 C3 C 0.55349 0.67963 0.65687
 C4 C 0.55776 0.70629 0.64087
 C5 C 0.58948 0.70567 0.62822
 H6 H 0.53177 0.67177 0.66971
 H7 H 0.60132 0.72207 0.61289
 Cu8 Cu 0.59244 0.62590 0.67073
 Cu9 Cu 0.64474 0.66227 0.62181
 Cu10 Cu 0.64221 0.58357 0.62269
 N11 N 0.60520 0.58588 0.68221
 N12 N 0.62269 0.56835 0.66224
 C13 C 0.62543 0.54096 0.67465
 C14 C 0.60967 0.54166 0.70463
 C15 C 0.59713 0.57073 0.70849
 H16 H 0.63860 0.52236 0.66283
 H17 H 0.58230 0.58000 0.72836
 N18 N 0.67278 0.60644 0.59455
 N19 N 0.67524 0.63633 0.59597
 C20 C 0.69990 0.64506 0.57596
 C21 C 0.71351 0.61942 0.56103
 C22 C 0.69566 0.59534 0.57332
 H23 H 0.70690 0.66840 0.57207
 H24 H 0.69966 0.57148 0.56789
 H25 H 0.61797 0.62403 0.61718
 H26 H 0.64803 0.62279 0.64783
 N27 N 0.90224 0.32451 0.10283
 N28 N 0.91182 0.33684 0.12924
 C29 C 0.93083 0.31710 0.14259
 C30 C 0.93380 0.29106 0.12321
 C31 C 0.91528 0.29681 0.09811
 H32 H 0.94136 0.32134 0.16489
 H33 H 0.91050 0.28166 0.07839
 Cu34 Cu 0.89838 0.37752 0.14351
 Cu35 Cu 0.87094 0.34379 0.07818
 Cu36 Cu 0.84219 0.41396 0.10583
 N37 N 0.88286 0.41746 0.15803
 N38 N 0.85968 0.43081 0.14422
 C39 C 0.85294 0.45755 0.15941
 C40 C 0.87341 0.46139 0.18363
 C41 C 0.89213 0.43558 0.18207
 H42 H 0.83533 0.47356 0.15268
 H43 H 0.91095 0.43045 0.19741
 N44 N 0.82778 0.39326 0.06722
 N45 N 0.83904 0.36667 0.05664
 C46 C 0.82463 0.35838 0.03017
 C47 C 0.80339 0.38084 0.02362
 C48 C 0.80608 0.40269 0.04755
 H49 H 0.82922 0.33753 0.01654
 H50 H 0.79286 0.42368 0.05061
 H51 H 0.88204 0.38832 0.09106
 H52 H 0.84929 0.36913 0.11566
 N53 N 0.40712 0.16914 -0.10393
 N54 N 0.42107 0.15623 -0.12965
 C55 C 0.44869 0.17140 -0.13771
 C56 C 0.45186 0.19523 -0.11609
 C57 C 0.42502 0.19327 -0.09510
 H58 H 0.46470 0.16612 -0.15826
 H59 H 0.41919 0.20816 -0.07477
 Cu60 Cu 0.40096 0.12186 -0.15096
 Cu61 Cu 0.36752 0.15309 -0.08315
 Cu62 Cu 0.33109 0.09179 -0.12044
 N63 N 0.37920 0.08855 -0.17243
 N64 N 0.35261 0.07615 -0.15971
 C65 C 0.34381 0.05249 -0.17821
 C66 C 0.36570 0.05029 -0.20418
 C67 C 0.38781 0.07358 -0.19986
 H68 H 0.32289 0.03803 -0.17334
 H69 H 0.40909 0.07863 -0.21496
 N70 N 0.31302 0.11083 -0.08056
 N71 N 0.32742 0.13357 -0.06585
 C72 C 0.31041 0.14015 -0.03835
 C73 C 0.28371 0.12097 -0.03589
 C74 C 0.28613 0.10275 -0.06311
 H75 H 0.31705 0.15757 -0.02140
 H76 H 0.27006 0.08423 -0.06913
 H77 H 0.37228 0.10909 -0.10107
 H78 H 0.34903 0.13559 -0.12405
 N79 N 0.10384 0.82677 0.38526
 N80 N 0.08880 0.84123 0.36419
 C81 C 0.06483 0.82332 0.35377
 C82 C 0.06452 0.79632 0.36955
 C83 C 0.08964 0.79949 0.38942
 H84 H 0.04857 0.82969 0.33637
 H85 H 0.09776 0.78278 0.40498
 Cu86 Cu 0.10170 0.88233 0.35310
 Cu87 Cu 0.14209 0.84329 0.40426
 Cu88 Cu 0.16775 0.91494 0.38228
 N89 N 0.11624 0.92285 0.34139
 N90 N 0.14258 0.93499 0.35235
 C91 C 0.14784 0.96244 0.34019
 C92 C 0.12334 0.96805 0.32076
 C93 C 0.10360 0.94246 0.32209
 H94 H 0.16778 0.97747 0.34539
 H95 H 0.08201 0.93833 0.30956
 N96 N 0.19002 0.89118 0.41234
 N97 N 0.18037 0.86383 0.42069
 C98 C 0.20080 0.85347 0.44109
 C99 C 0.22426 0.87546 0.44595
 C100 C 0.21662 0.89903 0.42739
 H101 H 0.19866 0.83164 0.45181
 H102 H 0.22980 0.92021 0.42482
 H103 H 0.13037 0.88835 0.40127
 H104 H 0.15610 0.87106 0.36766
 N105 N 0.05485 0.15747 0.12711
 N106 N 0.04778 0.15675 0.15771
 C107 C 0.02366 0.17625 0.16589
 C108 C 0.01471 0.18942 0.13882
 C109 C 0.03483 0.17683 0.11460
 H110 H 0.01332 0.18051 0.18969
 H111 H 0.03582 0.18232 0.08996
 Cu112 Cu 0.07058 0.12997 0.18364
 Cu113 Cu 0.09161 0.13530 0.10672
 Cu114 Cu 0.14752 0.11600 0.15955
 N115 N 0.09573 0.10093 0.20475
 N116 N 0.12657 0.09690 0.19640
 C117 C 0.13866 0.07667 0.21523
 C118 C 0.11381 0.06682 0.23605
 C119 C 0.08689 0.08286 0.22872
 H120 H 0.16342 0.06906 0.21295
 H121 H 0.06275 0.08168 0.24008
 N122 N 0.15901 0.12141 0.11447
 N123 N 0.13727 0.12622 0.09394
 C124 C 0.15204 0.12575 0.06471
 C125 C 0.18469 0.12066 0.06710
 C126 C 0.18827 0.11815 0.09898
 H127 H 0.14003 0.12940 0.04339
 H128 H 0.21032 0.11318 0.10996
 H129 H 0.10496 0.10610 0.14106
 H130 H 0.11366 0.14751 0.14628
 N131 N 0.41536 0.82140 0.62181
 N132 N 0.43116 0.83821 0.64198
 C133 C 0.45854 0.82408 0.64804
 C134 C 0.45960 0.79666 0.63118
 C135 C 0.43168 0.79553 0.61501
 H136 H 0.47619 0.83293 0.66371
 H137 H 0.42448 0.77782 0.59854
 Cu138 Cu 0.41367 0.87639 0.65913
 Cu139 Cu 0.37652 0.83617 0.60389
 Cu140 Cu 0.37247 0.91482 0.60920
 N141 N 0.39529 0.91561 0.67137
 N142 N 0.38088 0.93160 0.65103
 C143 C 0.37138 0.95817 0.66508
 C144 C 0.37947 0.95831 0.69610
 C145 C 0.39457 0.93095 0.69933
 H146 H 0.35807 0.97535 0.65406
 H147 H 0.40420 0.92282 0.72044
 N148 N 0.35104 0.88982 0.57718
 N149 N 0.35078 0.85990 0.57650
 C150 C 0.33222 0.84956 0.55355
 C151 C 0.32011 0.87421 0.53900
 C152 C 0.33278 0.89935 0.55459
 H153 H 0.32834 0.82580 0.54768
 H154 H 0.32877 0.92292 0.55026
 H155 H 0.40101 0.87587 0.60390
 H156 H 0.36393 0.87544 0.63142
 N157 N 0.92870 0.67204 0.38101
 N158 N 0.93820 0.66238 0.35227
 C159 C 0.96366 0.67939 0.34164
 C160 C 0.97073 0.70033 0.36522
 C161 C 0.94815 0.69505 0.38988
 H162 H 0.97657 0.67646 0.31877
 H163 H 0.94555 0.70743 0.41230
 Cu164 Cu 0.91712 0.62768 0.33237
 Cu165 Cu 0.89100 0.65500 0.40427
 Cu166 Cu 0.85083 0.59534 0.36769
 N167 N 0.89502 0.59358 0.31250
 N168 N 0.86826 0.58196 0.32576
 C169 C 0.85752 0.55938 0.30684
 C170 C 0.87904 0.55635 0.28058
 C171 C 0.90257 0.57834 0.28500
 H172 H 0.83628 0.54561 0.31238
 H173 H 0.92346 0.58296 0.26915
 N174 N 0.83716 0.61205 0.41016
 N175 N 0.85233 0.63490 0.42390
 C176 C 0.83740 0.64103 0.45251
 C177 C 0.81164 0.62100 0.45723
 C178 C 0.81240 0.60283 0.42989
 H179 H 0.84513 0.65846 0.46894
 H180 H 0.79627 0.58416 0.42473
 H181 H 0.89396 0.61180 0.38352
 H182 H 0.86790 0.63944 0.36509
 N183 N 0.59787 0.31291 -0.13115
 N184 N 0.57758 0.32731 -0.14762
 C185 C 0.54931 0.31191 -0.14741
 C186 C 0.55228 0.28619 -0.13029
 C187 C 0.58351 0.28733 -0.12057
 H188 H 0.52813 0.31899 -0.15865
 H189 H 0.59434 0.27163 -0.10551
 Cu190 Cu 0.58995 0.36490 -0.16759
 Cu191 Cu 0.63963 0.33090 -0.12175
 Cu192 Cu 0.63928 0.40936 -0.12666
 N193 N 0.60339 0.40454 -0.18199
 N194 N 0.62075 0.42297 -0.16470
 C195 C 0.62375 0.44998 -0.17847
 C196 C 0.60811 0.44784 -0.20620
 C197 C 0.59560 0.41872 -0.20782
 H198 H 0.63699 0.46936 -0.16944
 H199 H 0.58118 0.40894 -0.22599
 N200 N 0.66844 0.38777 -0.10038
 N201 N 0.66990 0.35792 -0.10026
 C202 C 0.69344 0.35000 -0.08202
 C203 C 0.70748 0.37613 -0.06968
 C204 C 0.69099 0.39967 -0.08199
 H205 H 0.69954 0.32682 -0.07794
 H206 H 0.69549 0.42371 -0.07851
 H207 H 0.61369 0.36939 -0.11658
 H208 H 0.64494 0.36898 -0.15035
 C209 C -0.03465 0.26005 0.15667
 C210 C -0.04944 0.26428 0.12839
 C211 C -0.04711 0.24006 0.10551
 C212 C -0.02724 0.21497 0.10938
 C213 C -0.00988 0.21296 0.13653
 C214 C -0.01580 0.23484 0.16077
 C215 C 0.00766 0.25269 0.17931
 C216 C -0.01274 0.28035 0.17476
 H217 H -0.05887 0.24101 0.08366
 H218 H -0.02441 0.19781 0.09053
 H219 H 0.03224 0.25384 0.16706
 H220 H 0.00700 0.24583 0.20424
 H221 H 0.00002 0.29754 0.15983
 H222 H -0.02489 0.28947 0.19720
 C223 C 0.50145 0.72124 0.62986
 C224 C 0.53337 0.72935 0.63578
 C225 C 0.54198 0.76034 0.63476
 C226 C 0.51811 0.78249 0.63241
 C227 C 0.48543 0.77393 0.62980
 C228 C 0.47821 0.74301 0.62629
 C229 C 0.45205 0.72467 0.64260
 C230 C 0.47754 0.70094 0.64686
 H231 H 0.56671 0.76758 0.63776
 H232 H 0.52503 0.80623 0.63368
 H233 H 0.43347 0.71686 0.62635
 H234 H 0.44229 0.73565 0.66519
 H235 H 0.47345 0.67935 0.63331
 H236 H 0.48243 0.69846 0.67200
 C237 C 1.04322 0.74740 0.38734
 C238 C 1.04392 0.77099 0.36602
 C239 C 1.02314 0.76790 0.34094
 C240 C 1.00035 0.74387 0.33974
 C241 C 0.99700 0.72313 0.36413
 C242 C 1.01999 0.72448 0.38673
 C243 C 1.01632 0.72339 0.42179
 C244 C 1.04183 0.74844 0.42262
 H245 H 1.02370 0.78434 0.32266
 H246 H 0.98398 0.74272 0.32090
 H247 H 1.02468 0.70154 0.43041
 H248 H 0.99217 0.73096 0.43190
 H249 H 1.06482 0.74093 0.43178
 H250 H 1.03235 0.77030 0.43313
 C251 C 0.51028 0.21104 -0.11684
 C252 C 0.47748 0.21860 -0.11583
 C253 C 0.46960 0.24959 -0.11368
 C254 C 0.49407 0.27193 -0.11742
 C255 C 0.52688 0.26361 -0.12217
 C256 C 0.53443 0.23309 -0.11927
 C257 C 0.55632 0.21291 -0.13976
 C258 C 0.52975 0.18879 -0.13727
 H259 H 0.44449 0.25646 -0.11137
 H260 H 0.48724 0.29551 -0.11784
 H261 H 0.57833 0.20686 -0.12788
 H262 H 0.56097 0.22137 -0.16399
 H263 H 0.53654 0.16879 -0.12411
 H264 H 0.51917 0.18344 -0.16017
 C265 C 0.14655 0.01372 0.29414
 C266 C 0.11967 -0.00450 0.30255
 C267 C 0.08941 0.00419 0.29270
 C268 C 0.08723 0.02839 0.27220
 C269 C 0.11536 0.04390 0.26048
 C270 C 0.14459 0.03694 0.27323
 C271 C 0.17730 0.02994 0.25774
 C272 C 0.17950 0.00480 0.28091
 H273 H 0.06765 -0.00838 0.29980
 H274 H 0.06380 0.03353 0.26402
 H275 H 0.19503 0.04868 0.26137
 H276 H 0.17630 0.02114 0.23297
 H277 H 0.19824 0.00925 0.29808
 H278 H 0.17990 -0.01831 0.26951
 C279 C 0.61513 0.48814 -0.28282
 C280 C 0.60636 0.51808 -0.27392
 C281 C 0.59344 0.52329 -0.24247
 C282 C 0.59348 0.50030 -0.22033
 C283 C 0.60518 0.47130 -0.22937
 C284 C 0.61382 0.46523 -0.26124
 C285 C 0.64348 0.45039 -0.27615
 C286 C 0.64519 0.47552 -0.29967
 H287 H 0.58519 0.54549 -0.23411
 H288 H 0.58528 0.50544 -0.19600
 H289 H 0.63807 0.42772 -0.28696
 H290 H 0.66392 0.45102 -0.26044
 H291 H 0.64104 0.46716 -0.32407
 H292 H 0.66659 0.49078 -0.29751
 C293 C 0.37062 1.03466 0.73834
 C294 C 0.36574 1.02711 0.77001
 C295 C 0.35959 0.99640 0.77650
 C296 C 0.36312 0.97381 0.75225
 C297 C 0.37162 0.98168 0.72093
 C298 C 0.37279 1.01248 0.71429
 C299 C 0.39773 1.03002 0.69534
 C300 C 0.39558 1.05422 0.72181
 H301 H 0.35426 0.98965 0.80054
 H302 H 0.36039 0.95021 0.75817
 H303 H 0.38849 1.03768 0.67305
 H304 H 0.42154 1.01848 0.69261
 H305 H 0.38536 1.07590 0.71468
 H306 H 0.41829 1.05646 0.73423
 C307 C 0.84810 0.50442 0.21594
 C308 C 0.87567 0.48797 0.20546
 C309 C 0.90554 0.49758 0.21666
 C310 C 0.90678 0.52087 0.24018
 C311 C 0.87807 0.53417 0.25378
 C312 C 0.84914 0.52650 0.24000
 C313 C 0.81664 0.51735 0.25425
 C314 C 0.81540 0.49341 0.22768
 H315 H 0.92775 0.48645 0.20805
 H316 H 0.92994 0.52703 0.24913
 H317 H 0.79838 0.53545 0.25305
 H318 H 0.81776 0.50730 0.27773
 H319 H 0.79663 0.49788 0.21099
 H320 H 0.81569 0.46977 0.23588
 C321 C 0.26616 0.12567 0.02184
 C322 C 0.25893 0.11869 -0.00933
 C323 C 0.22743 0.10769 -0.01432
 C324 C 0.20323 0.10757 0.01066
 C325 C 0.21027 0.11762 0.04132
 C326 C 0.24255 0.12463 0.04660
 C327 C 0.25644 0.15152 0.06341
 C328 C 0.28212 0.15292 0.03619
 H329 H 0.22094 0.10083 -0.03780
 H330 H 0.17886 0.10053 0.00576
 H331 H 0.26635 0.14546 0.08597
 H332 H 0.23992 0.17129 0.06514
 H333 H 0.30686 0.14795 0.04315
 H334 H 0.28021 0.17351 0.02215
 C335 C 0.74540 0.59330 0.51595
 C336 C 0.74133 0.61801 0.53737
 C337 C 0.76430 0.64181 0.53501
 C338 C 0.78808 0.64217 0.50969
 C339 C 0.78915 0.61897 0.48581
 C340 C 0.76846 0.59389 0.49061
 C341 C 0.74616 0.57793 0.46909
 C342 C 0.72112 0.57715 0.49689
 H343 H 0.76312 0.66079 0.55192
 H344 H 0.80423 0.66159 0.50804
 H345 H 0.75504 0.55504 0.46117
 H346 H 0.73900 0.59246 0.44996
 H347 H 0.71580 0.55386 0.50506
 H348 H 0.69946 0.59112 0.49384
 C349 C 0.77509 0.35381 -0.01952
 C350 C 0.78219 0.38083 -0.00300
 C351 C 0.76798 0.40759 -0.01247
 C352 C 0.74465 0.40638 -0.03519
 C353 C 0.73469 0.37831 -0.04868
 C354 C 0.75180 0.35251 -0.04153
 C355 C 0.73994 0.32206 -0.03120
 C356 C 0.76554 0.32350 -0.00727
 H357 H 0.77381 0.42931 -0.00145
 H358 H 0.73328 0.42726 -0.04074
 H359 H 0.74459 0.30405 -0.04988
 H360 H 0.71479 0.32261 -0.02017
 H361 H 0.78492 0.30645 -0.01237
 H362 H 0.75527 0.32484 0.01759
 C363 C 0.26760 0.90089 0.47596
 C364 C 0.25172 0.87429 0.46634
 C365 C 0.26269 0.84667 0.47714
 C366 C 0.28606 0.84642 0.49975
 C367 C 0.29873 0.87383 0.51236
 C368 C 0.29030 0.90072 0.49853
 C369 C 0.27850 0.93019 0.51327
 C370 C 0.25381 0.93036 0.48847
 H371 H 0.25232 0.82531 0.46920
 H372 H 0.29272 0.82481 0.50843
 H373 H 0.29694 0.94862 0.51056
 H374 H 0.26735 0.92782 0.53762
 H375 H 0.25822 0.94875 0.47148
 H376 H 0.22836 0.92812 0.49841
   
