data_POSCAR
  _audit_creation_date              2014-09-24
  _audit_creation_method            'ToBaCCo'
  _symmetry_space_group_name_H-M    'P1'
  _symmetry_Int_Tables_number       1
  _symmetry_cell_setting            triclinic
  loop_
  _symmetry_equiv_pos_as_xyz
 x,y,z
_cell_length_a 43.8266
_cell_length_b 43.7919
_cell_length_c 35.5055
_cell_angle_alpha 89.969300
_cell_angle_beta 89.965600
_cell_angle_gamma 88.557200
loop_
  _atom_site_label
  _atom_site_type_symbol
  _atom_site_fract_x
  _atom_site_fract_y
  _atom_site_fract_z
O1 O 0.02722 0.31072 -0.03050
 O2 O -0.03200 0.30899 0.04336
 O3 O 0.02764 0.30918 0.04292
 O4 O -0.03245 0.31075 -0.02991
 O5 O -0.03096 0.26025 -0.03153
 O6 O 0.02888 0.25869 0.04100
 O7 O -0.03050 0.25850 0.04147
 O8 O 0.02846 0.26023 -0.03212
 Cu9 Cu -0.00251 0.31502 0.00663
 Cu10 Cu -0.00088 0.25435 0.00452
 C11 C 0.03791 0.28572 -0.04363
 C12 C -0.04135 0.28338 0.05470
 C13 C 0.03845 0.28361 0.05415
 C14 C -0.04197 0.28570 -0.04281
 O15 O 0.52922 0.80900 0.45905
 O16 O 0.46914 0.80920 0.53189
 O17 O 0.52875 0.81014 0.53231
 O18 O 0.46964 0.80813 0.45845
 O19 O 0.47172 0.75763 0.45983
 O20 O 0.53058 0.75963 0.53342
 O21 O 0.47126 0.75870 0.53295
 O22 O 0.53109 0.75850 0.46039
 Cu23 Cu 0.49896 0.81423 0.49531
 Cu24 Cu 0.50135 0.75355 0.49677
 C25 C 0.54040 0.78365 0.44761
 C26 C 0.46001 0.78393 0.54460
 C27 C 0.53975 0.78515 0.54516
 C28 C 0.46064 0.78249 0.44679
 O29 O 1.03356 0.68981 0.03155
 O30 O 0.97303 0.69134 -0.04063
 O31 O 1.03267 0.69116 -0.04173
 O32 O 0.97388 0.69042 0.03267
 O33 O 0.97308 0.74093 0.03367
 O34 O 1.03160 0.74166 -0.04047
 O35 O 0.97219 0.74184 -0.03936
 O36 O 1.03252 0.74032 0.03255
 Cu37 Cu 1.00338 0.68557 -0.00465
 Cu38 Cu 1.00226 0.74626 -0.00329
 C39 C 1.04339 0.71486 0.04404
 C40 C 0.96229 0.71689 -0.05200
 C41 C 1.04219 0.71659 -0.05346
 C42 C 0.96344 0.71562 0.04553
 O43 O 0.53064 0.19062 0.54248
 O44 O 0.47189 0.18701 0.46830
 O45 O 0.53158 0.18864 0.46918
 O46 O 0.47107 0.18894 0.54157
 O47 O 0.46865 0.23941 0.53933
 O48 O 0.52886 0.23911 0.46722
 O49 O 0.46942 0.23748 0.46634
 O50 O 0.52794 0.24109 0.54023
 Cu51 Cu 0.50156 0.18369 0.50556
 Cu52 Cu 0.49845 0.24433 0.50303
 C53 C 0.53929 0.21651 0.55372
 C54 C 0.46057 0.21171 0.45504
 C55 C 0.54058 0.21389 0.45622
 C56 C 0.45958 0.21430 0.55252
 O57 O 0.68837 0.03291 -0.03366
 O58 O 0.68892 -0.02829 0.03785
 O59 O 0.68922 0.03135 0.03969
 O60 O 0.68811 -0.02679 -0.03547
 O61 O 0.73859 -0.02815 -0.03627
 O62 O 0.73969 0.02968 0.03860
 O63 O 0.73939 -0.02969 0.03675
 O64 O 0.73884 0.03126 -0.03444
 Cu65 Cu 0.68354 0.00245 0.00218
 Cu66 Cu 0.74420 0.00064 0.00106
 C67 C 0.71359 0.04249 -0.04595
 C68 C 0.71431 -0.03941 0.04921
 C69 C 0.71472 0.04039 0.05169
 C70 C 0.71323 -0.03739 -0.04837
 O71 O 0.19040 0.52979 0.45976
 O72 O 0.18951 0.47173 0.53506
 O73 O 0.19013 0.53133 0.53315
 O74 O 0.18980 0.47008 0.46174
 O75 O 0.24027 0.46835 0.46224
 O76 O 0.24061 0.52931 0.53334
 O77 O 0.23998 0.46999 0.53526
 O78 O 0.24088 0.52780 0.46023
 Cu79 Cu 0.18485 0.50093 0.49737
 Cu80 Cu 0.24550 0.49871 0.49776
 C81 C 0.21588 0.53869 0.44745
 C82 C 0.21463 0.46099 0.54774
 C83 C 0.21550 0.54067 0.54521
 C84 C 0.21504 0.45874 0.45017
 O85 O 0.30909 0.96830 -0.04170
 O86 O 0.30939 1.02693 0.03295
 O87 O 0.30999 0.96727 0.03150
 O88 O 0.30881 1.02805 -0.04045
 O89 O 0.25835 1.02891 -0.03952
 O90 O 0.25951 0.96832 0.03221
 O91 O 0.25891 1.02774 0.03361
 O92 O 0.25863 0.96937 -0.04078
 Cu93 Cu 0.31442 0.99757 -0.00455
 Cu94 Cu 0.25377 0.99870 -0.00358
 C95 C 0.28374 0.95876 -0.05358
 C96 C 0.28415 1.03726 0.04581
 C97 C 0.28490 0.95744 0.04382
 C98 C 0.28334 1.03887 -0.05193
 O99 O 0.81178 0.52987 0.53712
 O100 O 0.81111 0.46913 0.46520
 O101 O 0.81219 0.52887 0.46374
 O102 O 0.81047 0.47031 0.53844
 O103 O 0.76000 0.47268 0.53772
 O104 O 0.76173 0.53098 0.46332
 O105 O 0.76064 0.47150 0.46475
 O106 O 0.76131 0.53200 0.53643
 Cu107 Cu 0.81650 0.49934 0.50113
 Cu108 Cu 0.75585 0.50205 0.50045
 C109 C 0.78659 0.54120 0.54884
 C110 C 0.78571 0.45989 0.45311
 C111 C 0.78718 0.53993 0.45111
 C112 C 0.78488 0.46152 0.55052
 C113 C 0.20574 0.22341 0.15171
 C114 C 0.22799 0.20082 0.15152
 C115 C 0.24268 0.20215 0.18603
 N116 N 0.22992 0.22460 0.20743
 C117 C 0.20739 0.23770 0.18648
 C118 C 0.26632 0.18168 0.19777
 C119 C 0.28402 0.18565 0.23065
 C120 C 0.30451 0.16406 0.24529
 C121 C 0.31789 0.17718 0.27615
 C122 C 0.30531 0.20647 0.27949
 N123 N 0.28495 0.21147 0.25144
 C124 C 0.31399 0.22818 0.30673
 C125 C 0.29850 0.25655 0.31274
 C126 C 0.30923 0.27980 0.33527
 C127 C 0.28722 0.30265 0.33508
 C128 C 0.26362 0.29253 0.31267
 N129 N 0.27054 0.26432 0.29916
 C130 C 0.23546 0.30841 0.30707
 C131 C 0.21321 0.29916 0.28085
 C132 C 0.18310 0.30973 0.28036
 C133 C 0.16939 0.29631 0.24990
 C134 C 0.19151 0.27792 0.23261
 N135 N 0.21819 0.27996 0.25151
 C136 C 0.18700 0.26104 0.19919
 H137 H 0.19004 0.22856 0.12889
 H138 H 0.23274 0.18509 0.12862
 H139 H 0.23930 0.27143 0.24253
 H140 H 0.30965 0.14130 0.23482
 H141 H 0.33517 0.16635 0.29373
 H142 H 0.33069 0.28022 0.35034
 H143 H 0.28844 0.32415 0.35003
 H144 H 0.14579 0.29965 0.24146
 H145 H 0.27462 0.23227 0.24467
 H146 H 0.17212 0.32539 0.30003
 C147 C 0.80539 0.78086 0.15510
 C148 C 0.78362 0.80384 0.15616
 C149 C 0.76348 0.79659 0.18476
 N150 N 0.77244 0.77005 0.20127
 C151 C 0.79808 0.76035 0.18329
 C152 C 0.73678 0.81389 0.19384
 C153 C 0.71608 0.80643 0.22290
 C154 C 0.68752 0.82030 0.22747
 C155 C 0.67418 0.80670 0.25797
 C156 C 0.69489 0.78482 0.27135
 N157 N 0.72060 0.78515 0.25018
 C158 C 0.68928 0.76546 0.30245
 C159 C 0.70769 0.73973 0.31253
 C160 C 0.70207 0.72084 0.34298
 C161 C 0.72390 0.69792 0.34205
 C162 C 0.74237 0.70358 0.31123
 N163 N 0.73234 0.72913 0.29327
 C164 C 0.76818 0.68534 0.30090
 C165 C 0.78803 0.69169 0.27051
 C166 C 0.81526 0.67583 0.26363
 C167 C 0.82852 0.68935 0.23302
 C168 C 0.80914 0.71322 0.22190
 N169 N 0.78423 0.71408 0.24448
 C170 C 0.81548 0.73358 0.19200
 H171 H 0.82448 0.77954 0.13578
 H172 H 0.78267 0.82353 0.13773
 H173 H 0.76506 0.72803 0.24106
 H174 H 0.67710 0.83810 0.21024
 H175 H 0.65155 0.81206 0.26870
 H176 H 0.68401 0.72314 0.36365
 H177 H 0.72593 0.67926 0.36197
 H178 H 0.85034 0.68270 0.22084
 H179 H 0.74086 0.77333 0.25582
 H180 H 0.82495 0.65683 0.27950
 C181 C 0.77149 0.20522 0.15199
 C182 C 0.79334 0.22707 0.15187
 C183 C 0.79221 0.24095 0.18693
 N184 N 0.77046 0.22826 0.20849
 C185 C 0.75771 0.20644 0.18713
 C186 C 0.81239 0.26355 0.19925
 C187 C 0.80798 0.28047 0.23280
 C188 C 0.82982 0.29842 0.24947
 C189 C 0.81626 0.31204 0.28033
 C190 C 0.78651 0.30204 0.28167
 N191 N 0.78158 0.28298 0.25246
 C192 C 0.76445 0.31175 0.30845
 C193 C 0.73655 0.29694 0.31407
 C194 C 0.71282 0.30807 0.33640
 C195 C 0.69106 0.28616 0.33664
 C196 C 0.70217 0.26234 0.31443
 N197 N 0.73003 0.26894 0.30073
 C198 C 0.68743 0.23434 0.30917
 C199 C 0.69693 0.21225 0.28229
 C200 C 0.68666 0.18258 0.28083
 C201 C 0.70013 0.16900 0.24988
 C202 C 0.71828 0.19074 0.23328
 N203 N 0.71602 0.21709 0.25306
 C204 C 0.73512 0.18631 0.19965
 H205 H 0.76638 0.19011 0.12885
 H206 H 0.80840 0.23210 0.12862
 H207 H 0.72444 0.23801 0.24484
 H208 H 0.85309 0.30151 0.24030
 H209 H 0.82707 0.32761 0.29952
 H210 H 0.71140 0.32968 0.35116
 H211 H 0.66955 0.28756 0.35161
 H212 H 0.69675 0.14580 0.24057
 H213 H 0.76059 0.27480 0.24414
 H214 H 0.67095 0.17183 0.29993
 C215 C 0.27306 0.70327 0.34702
 C216 C 0.29488 0.72514 0.34722
 C217 C 0.29357 0.73934 0.31233
 N218 N 0.27174 0.72680 0.29080
 C219 C 0.25910 0.70479 0.31201
 C220 C 0.31358 0.76221 0.30026
 C221 C 0.30917 0.77937 0.26686
 C222 C 0.33088 0.79781 0.25070
 C223 C 0.31747 0.81139 0.21974
 C224 C 0.28792 0.80088 0.21777
 N225 N 0.28298 0.78160 0.24680
 C226 C 0.26611 0.81025 0.19051
 C227 C 0.23826 0.79534 0.18464
 C228 C 0.21478 0.80632 0.16181
 C229 C 0.19294 0.78449 0.16165
 C230 C 0.20376 0.76085 0.18437
 N231 N 0.23151 0.76750 0.19833
 C232 C 0.18882 0.73297 0.18992
 C233 C 0.19811 0.71097 0.21702
 C234 C 0.18769 0.68137 0.21862
 C235 C 0.20112 0.66776 0.24954
 C236 C 0.21940 0.68941 0.26604
 N237 N 0.21723 0.71577 0.24622
 C238 C 0.23635 0.68482 0.29956
 H239 H 0.26810 0.68797 0.37005
 H240 H 0.31000 0.73000 0.37043
 H241 H 0.22576 0.73665 0.25435
 H242 H 0.35398 0.80125 0.26027
 H243 H 0.32827 0.82729 0.20092
 H244 H 0.21354 0.82777 0.14667
 H245 H 0.17157 0.78583 0.14640
 H246 H 0.19771 0.64456 0.25884
 H247 H 0.26206 0.77297 0.25465
 H248 H 0.17194 0.67066 0.19955
 C249 C 0.70055 0.28047 0.65606
 C250 C 0.72199 0.30274 0.65662
 C251 C 0.73829 0.29897 0.68984
 N252 N 0.72726 0.27529 0.70963
 C253 C 0.70429 0.26385 0.68907
 C254 C 0.76260 0.31765 0.70118
 C255 C 0.78122 0.31240 0.73332
 C256 C 0.80536 0.33050 0.74372
 C257 C 0.81879 0.31698 0.77472
 C258 C 0.80260 0.29088 0.78251
 N259 N 0.77960 0.28855 0.75738
 C260 C 0.81047 0.26947 0.81111
 C261 C 0.79478 0.24218 0.81843
 C262 C 0.80444 0.21990 0.84386
 C263 C 0.78321 0.19744 0.84297
 C264 C 0.76108 0.20676 0.81724
 N265 N 0.76822 0.23407 0.80240
 C266 C 0.73408 0.19085 0.80955
 C267 C 0.71255 0.19973 0.78163
 C268 C 0.68336 0.18837 0.77906
 C269 C 0.66975 0.20207 0.74834
 C270 C 0.69092 0.22150 0.73290
 N271 N 0.71713 0.21964 0.75309
 C272 C 0.68563 0.23959 0.70036
 H273 H 0.68407 0.27702 0.63387
 H274 H 0.72524 0.31968 0.63487
 H275 H 0.73782 0.22895 0.74560
 H276 H 0.81308 0.35094 0.72990
 H277 H 0.83876 0.32508 0.78918
 H278 H 0.82474 0.21974 0.86120
 H279 H 0.78398 0.17669 0.85955
 H280 H 0.64673 0.19833 0.73866
 H281 H 0.76409 0.27132 0.75623
 H282 H 0.67282 0.17208 0.79761
 C283 C 0.21176 0.81079 0.82698
 C284 C 0.19000 0.78888 0.82706
 C285 C 0.20097 0.76530 0.80438
 N286 N 0.22875 0.77205 0.79054
 C287 C 0.23535 0.79990 0.80428
 C288 C 0.18620 0.73732 0.79888
 C289 C 0.19567 0.71536 0.77185
 C290 C 0.18551 0.68565 0.77035
 C291 C 0.19912 0.67212 0.73948
 C292 C 0.21721 0.69394 0.72293
 N293 N 0.21478 0.72030 0.74267
 C294 C 0.23424 0.68948 0.68946
 C295 C 0.25683 0.70965 0.67704
 C296 C 0.27095 0.70820 0.64212
 C297 C 0.29275 0.73008 0.64208
 C298 C 0.29124 0.74423 0.67697
 N299 N 0.26931 0.73165 0.69835
 C300 C 0.31130 0.76691 0.68933
 C301 C 0.30672 0.78398 0.72273
 C302 C 0.32851 0.80197 0.73944
 C303 C 0.31492 0.81550 0.77032
 C304 C 0.28521 0.80541 0.77167
 N305 N 0.28030 0.78643 0.74236
 C306 C 0.26324 0.81478 0.79874
 H307 H 0.21043 0.83222 0.84214
 H308 H 0.16862 0.79010 0.84232
 H309 H 0.25934 0.77816 0.73407
 H310 H 0.16985 0.67482 0.78944
 H311 H 0.19596 0.64886 0.73026
 H312 H 0.26613 0.69288 0.61908
 H313 H 0.30806 0.73491 0.61903
 H314 H 0.32573 0.83103 0.78957
 H315 H 0.22317 0.74125 0.73450
 H316 H 0.35180 0.80505 0.73034
 C317 C 0.19231 0.21934 0.84172
 C318 C 0.21388 0.19616 0.84061
 C319 C 0.23529 0.20433 0.81391
 N320 N 0.22733 0.23163 0.79862
 C321 C 0.20101 0.24089 0.81542
 C322 C 0.26229 0.18725 0.80560
 C323 C 0.28353 0.19511 0.77733
 C324 C 0.31251 0.18191 0.77389
 C325 C 0.32603 0.19532 0.74338
 C326 C 0.30502 0.21642 0.72887
 N327 N 0.27898 0.21584 0.74942
 C328 C 0.31051 0.23513 0.69714
 C329 C 0.29189 0.26057 0.68651
 C330 C 0.29673 0.27854 0.65500
 C331 C 0.27507 0.30164 0.65589
 C332 C 0.25744 0.29700 0.68776
 N333 N 0.26790 0.27194 0.70640
 C334 C 0.23232 0.31602 0.69873
 C335 C 0.21296 0.31059 0.72993
 C336 C 0.18727 0.32831 0.73882
 C337 C 0.17386 0.31497 0.76952
 C338 C 0.19163 0.28936 0.77869
 N339 N 0.21563 0.28721 0.75474
 C340 C 0.18450 0.26843 0.80771
 H341 H 0.17238 0.22005 0.85974
 H342 H 0.21380 0.17570 0.85772
 H343 H 0.23312 0.27107 0.75571
 H344 H 0.32300 0.16460 0.79177
 H345 H 0.34892 0.19029 0.73329
 H346 H 0.31419 0.27551 0.63367
 H347 H 0.27263 0.31978 0.63532
 H348 H 0.15296 0.32290 0.78297
 H349 H 0.25843 0.22679 0.74274
 H350 H 0.17864 0.34845 0.72426
 C351 C 0.69928 0.72362 0.65337
 C352 C 0.72256 0.70219 0.65258
 C353 C 0.74127 0.70822 0.68305
 N354 N 0.73022 0.73279 0.70212
 C355 C 0.70458 0.74234 0.68406
 C356 C 0.76723 0.69025 0.69333
 C357 C 0.78638 0.69634 0.72444
 C358 C 0.80848 0.67600 0.73811
 C359 C 0.82171 0.68968 0.76856
 C360 C 0.80742 0.71809 0.77283
 N361 N 0.78622 0.72219 0.74541
 C362 C 0.81442 0.73901 0.80181
 C363 C 0.79666 0.76547 0.81067
 C364 C 0.80357 0.78594 0.83902
 C365 C 0.78019 0.80726 0.84002
 C366 C 0.75980 0.79940 0.81197
 N367 N 0.76996 0.77382 0.79419
 C368 C 0.73272 0.81625 0.80321
 C369 C 0.71259 0.80943 0.77331
 C370 C 0.68843 0.82837 0.76206
 C371 C 0.67536 0.81485 0.73135
 C372 C 0.69175 0.78790 0.72459
 N373 N 0.71405 0.78452 0.75075
 C374 C 0.68591 0.76790 0.69419
 H375 H 0.68062 0.72522 0.63346
 H376 H 0.72523 0.68411 0.63198
 H377 H 0.72835 0.76560 0.75423
 H378 H 0.81421 0.65337 0.72760
 H379 H 0.83954 0.67958 0.78597
 H380 H 0.82331 0.78552 0.85731
 H381 H 0.77856 0.82645 0.85917
 H382 H 0.65630 0.82421 0.71535
 H383 H 0.77414 0.74229 0.73954
 H384 H 0.68131 0.85006 0.77419
 C385 C 0.28055 0.10475 0.12494
 C386 C 0.29936 0.13004 0.12204
 C387 C 0.29540 0.15472 0.14665
 C388 C 0.28393 0.06052 0.07428
 C389 C 0.25410 0.12871 0.17760
 C390 C 0.25816 0.10400 0.15307
 C391 C 0.28287 0.08046 0.09769
 C392 C 0.27250 0.15433 0.17423
 H393 H 0.31662 0.13106 0.10026
 H394 H 0.30958 0.17446 0.14353
 H395 H 0.23621 0.12811 0.19865
 H396 H 0.24340 0.08463 0.15554
 C397 C 0.78273 0.61089 0.62478
 C398 C 0.80187 0.63589 0.62135
 C399 C 0.79743 0.66145 0.64451
 C400 C 0.78646 0.56524 0.57622
 C401 C 0.75522 0.63670 0.67526
 C402 C 0.75966 0.61119 0.65210
 C403 C 0.78532 0.58584 0.59870
 C404 C 0.77375 0.66215 0.67114
 H405 H 0.81971 0.63592 0.60021
 H406 H 0.81188 0.68096 0.64109
 H407 H 0.73688 0.63698 0.69574
 H408 H 0.74466 0.59202 0.65488
 C409 C 0.71888 0.89115 0.12234
 C410 C 0.73001 0.89544 0.15889
 C411 C 0.73512 0.87031 0.18259
 C412 C 0.71484 0.93749 0.07470
 C413 C 0.71733 0.83660 0.13353
 C414 C 0.71224 0.86172 0.10987
 C415 C 0.71616 0.91658 0.09677
 C416 C 0.72917 0.84074 0.16983
 H417 H 0.73535 0.91810 0.16874
 H418 H 0.74437 0.87379 0.21050
 H419 H 0.71271 0.81387 0.12334
 H420 H 0.70376 0.85812 0.08160
 C421 C 0.21715 0.39303 0.62618
 C422 C 0.23391 0.39624 0.65947
 C423 C 0.23800 0.37137 0.68381
 C424 C 0.21456 0.43775 0.57617
 C425 C 0.20794 0.34021 0.64212
 C426 C 0.20387 0.36508 0.61779
 C427 C 0.21530 0.41766 0.59939
 C428 C 0.22538 0.34314 0.67497
 H429 H 0.24442 0.41771 0.66613
 H430 H 0.25164 0.37386 0.70901
 H431 H 0.19823 0.31849 0.63489
 H432 H 0.19102 0.36230 0.59201
 C433 C 0.89104 0.27733 0.12980
 C434 C 0.86946 0.30112 0.13487
 C435 C 0.84415 0.29693 0.15818
 C436 C 0.93619 0.28238 0.08095
 C437 C 0.86227 0.24534 0.17193
 C438 C 0.88753 0.24955 0.14866
 C439 C 0.91582 0.28060 0.10363
 C440 C 0.84020 0.26885 0.17645
 H441 H 0.87192 0.32266 0.12029
 H442 H 0.82732 0.31529 0.16138
 H443 H 0.85960 0.22358 0.18594
 H444 H 0.90403 0.23096 0.14482
 C445 C 0.39058 0.77959 0.62065
 C446 C 0.36908 0.80355 0.62507
 C447 C 0.34356 0.79976 0.64816
 C448 C 0.43607 0.78363 0.57213
 C449 C 0.36134 0.74825 0.66302
 C450 C 0.38679 0.75206 0.63996
 C451 C 0.41554 0.78236 0.59464
 C452 C 0.33935 0.77191 0.66687
 H453 H 0.37174 0.82489 0.61011
 H454 H 0.32678 0.81821 0.65083
 H455 H 0.35843 0.72666 0.67732
 H456 H 0.40320 0.73333 0.63661
 C457 C 0.11296 0.71723 0.11670
 C458 C 0.14253 0.71863 0.10197
 C459 C 0.16731 0.72289 0.12595
 C460 C 0.06645 0.71463 0.06954
 C461 C 0.13312 0.72395 0.17969
 C462 C 0.10832 0.71953 0.15565
 C463 C 0.08740 0.71528 0.09148
 C464 C 0.16272 0.72606 0.16491
 H465 H 0.14635 0.71704 0.07188
 H466 H 0.19001 0.72440 0.11412
 H467 H 0.12920 0.72640 0.20967
 H468 H 0.08552 0.71857 0.16733
 C469 C 0.60774 0.22404 0.63056
 C470 C 0.63174 0.20234 0.63200
 C471 C 0.65682 0.20706 0.65542
 C472 C 0.56284 0.21822 0.58160
 C473 C 0.63366 0.25492 0.67663
 C474 C 0.60862 0.25018 0.65321
 C475 C 0.58308 0.22045 0.60432
 C476 C 0.65811 0.23359 0.67746
 H477 H 0.63136 0.18208 0.61451
 H478 H 0.67551 0.19039 0.65581
 H479 H 0.63430 0.27546 0.69357
 H480 H 0.59022 0.26717 0.65225
 C481 C 0.71748 0.11381 0.88063
 C482 C 0.72391 0.10937 0.84234
 C483 C 0.72863 0.13452 0.81890
 C484 C 0.71380 0.06698 0.92726
 C485 C 0.71995 0.16858 0.87190
 C486 C 0.71522 0.14347 0.89526
 C487 C 0.71496 0.08807 0.90553
 C488 C 0.72712 0.16424 0.83371
 H489 H 0.72584 0.08651 0.83078
 H490 H 0.73409 0.13084 0.78947
 H491 H 0.71861 0.19139 0.88366
 H492 H 0.71036 0.14715 0.92486
 C493 C 0.22181 0.60649 0.36936
 C494 C 0.19815 0.62816 0.36393
 C495 C 0.20259 0.65335 0.34048
 C496 C 0.21668 0.56198 0.41910
 C497 C 0.25410 0.63484 0.32716
 C498 C 0.24965 0.60973 0.35061
 C499 C 0.21843 0.58203 0.39598
 C500 C 0.23075 0.65705 0.32235
 H501 H 0.17655 0.62591 0.37840
 H502 H 0.18437 0.67031 0.33709
 H503 H 0.27594 0.63736 0.31336
 H504 H 0.26813 0.59317 0.35474
 C505 C 0.27962 0.89017 0.87250
 C506 C 0.27804 0.86052 0.88699
 C507 C 0.27352 0.83590 0.86284
 C508 C 0.28331 0.93618 0.92031
 C509 C 0.27258 0.87042 0.80938
 C510 C 0.27718 0.89507 0.83361
 C511 C 0.28211 0.91552 0.89797
 C512 C 0.27030 0.84073 0.82393
 H513 H 0.27972 0.85651 0.91705
 H514 H 0.27191 0.81312 0.87449
 H515 H 0.27014 0.87450 0.77943
 H516 H 0.27823 0.91795 0.82214
 C517 C 0.78096 0.38831 0.38026
 C518 C 0.77919 0.35893 0.39554
 C519 C 0.77448 0.33393 0.37205
 C520 C 0.78510 0.43530 0.42650
 C521 C 0.77378 0.36751 0.31769
 C522 C 0.77856 0.39254 0.34125
 C523 C 0.78369 0.41412 0.40497
 C524 C 0.77136 0.33811 0.33302
 H525 H 0.78094 0.35542 0.42568
 H526 H 0.77273 0.31137 0.38428
 H527 H 0.77139 0.37108 0.28763
 H528 H 0.77986 0.41518 0.32915
 C529 C 0.10690 0.28357 0.87929
 C530 C 0.13481 0.29672 0.88815
 C531 C 0.15988 0.29258 0.86416
 C532 C 0.06161 0.28605 0.92850
 C533 C 0.12902 0.26271 0.82191
 C534 C 0.10396 0.26686 0.84591
 C535 C 0.08200 0.28542 0.90570
 C536 C 0.15718 0.27525 0.83116
 H537 H 0.13737 0.30951 0.91402
 H538 H 0.18157 0.30216 0.87175
 H539 H 0.12675 0.24904 0.79669
 H540 H 0.08254 0.25642 0.83894
 C541 C 0.61014 0.77968 0.37170
 C542 C 0.63525 0.79858 0.37577
 C543 C 0.66074 0.79454 0.35244
 C544 C 0.56442 0.78323 0.42019
 C545 C 0.63579 0.75312 0.32036
 C546 C 0.61032 0.75719 0.34367
 C547 C 0.58504 0.78206 0.39773
 C548 C 0.66128 0.77151 0.32498
 H549 H 0.63537 0.81596 0.39747
 H550 H 0.68034 0.80878 0.35637
 H551 H 0.63600 0.73521 0.29933
 H552 H 0.59106 0.74239 0.34039
 C553 C 0.89165 0.72205 0.87351
 C554 C 0.89599 0.73205 0.83645
 C555 C 0.87085 0.73689 0.81272
 C556 C 0.93801 0.71778 0.92096
 C557 C 0.83706 0.72112 0.86285
 C558 C 0.86217 0.71630 0.88653
 C559 C 0.91712 0.71930 0.89892
 C560 C 0.84124 0.73184 0.82600
 H561 H 0.91869 0.73663 0.82615
 H562 H 0.87437 0.74515 0.78433
 H563 H 0.81431 0.71711 0.87340
 H564 H 0.85857 0.70864 0.91517
 C565 C 0.39080 0.21238 0.37918
 C566 C 0.39529 0.22175 0.34190
 C567 C 0.37033 0.22589 0.31777
 C568 C 0.43671 0.21071 0.42747
 C569 C 0.33634 0.21074 0.36797
 C570 C 0.36131 0.20652 0.39201
 C571 C 0.41605 0.21090 0.40505
 C572 C 0.34070 0.22083 0.33089
 H573 H 0.41796 0.22662 0.33176
 H574 H 0.37403 0.23393 0.28930
 H575 H 0.31358 0.20682 0.37848
 H576 H 0.35751 0.19943 0.42084
 C577 C 0.71651 0.89424 0.87383
 C578 C 0.70080 0.86727 0.88034
 C579 C 0.70536 0.84213 0.85656
 C580 C 0.71320 0.93920 0.92341
 C581 C 0.74075 0.87113 0.81907
 C582 C 0.73620 0.89625 0.84288
 C583 C 0.71417 0.91898 0.90040
 C584 C 0.72570 0.84381 0.82617
 H585 H 0.68566 0.86543 0.90433
 H586 H 0.69370 0.82112 0.86237
 H587 H 0.75658 0.87263 0.79574
 H588 H 0.74861 0.91693 0.83772
 C589 C 0.21899 0.38648 0.37787
 C590 C 0.22103 0.35717 0.39356
 C591 C 0.22564 0.33173 0.37039
 C592 C 0.21530 0.43402 0.42368
 C593 C 0.22559 0.36469 0.31549
 C594 C 0.22095 0.39018 0.33874
 C595 C 0.21647 0.41265 0.40229
 C596 C 0.22840 0.33534 0.33126
 H597 H 0.21964 0.35401 0.42378
 H598 H 0.22768 0.30925 0.38296
 H599 H 0.22767 0.36788 0.28534
 H600 H 0.21948 0.41275 0.32628
 C601 C 0.27896 0.10911 0.87610
 C602 C 0.27098 0.10517 0.83824
 C603 C 0.26632 0.13063 0.81494
 C604 C 0.28268 0.06208 0.92273
 C605 C 0.27824 0.16400 0.86712
 C606 C 0.28289 0.13856 0.89037
 C607 C 0.28142 0.08324 0.90100
 C608 C 0.26951 0.16018 0.82943
 H609 H 0.26775 0.08249 0.82697
 H610 H 0.25954 0.12739 0.78592
 H611 H 0.28078 0.18669 0.87865
 H612 H 0.28893 0.14188 0.91964
 C613 C 0.78466 0.60855 0.37350
 C614 C 0.76979 0.60463 0.33899
 C615 C 0.76530 0.62948 0.31469
 C616 C 0.78746 0.56347 0.42303
 C617 C 0.79123 0.66208 0.35894
 C618 C 0.79570 0.63723 0.38321
 C619 C 0.78671 0.58377 0.40008
 C620 C 0.77561 0.65841 0.32483
 H621 H 0.76100 0.58258 0.33131
 H622 H 0.75311 0.62639 0.28849
 H623 H 0.79919 0.68433 0.36712
 H624 H 0.80706 0.64055 0.40993
 C625 C 0.11071 0.72096 0.87254
 C626 C 0.10592 0.72317 0.83361
 C627 C 0.13060 0.72776 0.80940
 C628 C 0.06472 0.71716 0.92036
 C629 C 0.16493 0.72720 0.86297
 C630 C 0.14028 0.72272 0.88709
 C631 C 0.08534 0.71843 0.89799
 C632 C 0.16021 0.73022 0.82402
 H633 H 0.08310 0.72192 0.82208
 H634 H 0.12660 0.73002 0.77942
 H635 H 0.18764 0.72894 0.87467
 H636 H 0.14421 0.72118 0.91716
 C637 C 0.61162 0.21788 0.38236
 C638 C 0.60701 0.22033 0.34341
 C639 C 0.63178 0.22508 0.31941
 C640 C 0.56502 0.21417 0.42934
 C641 C 0.66590 0.22430 0.37317
 C642 C 0.64115 0.21961 0.39711
 C643 C 0.58604 0.21534 0.40751
 C644 C 0.66133 0.22742 0.33420
 H645 H 0.58425 0.21913 0.33171
 H646 H 0.62788 0.22758 0.28943
 H647 H 0.68856 0.22609 0.38501
 H648 H 0.64498 0.21786 0.42719
 C649 C 0.88792 0.28344 0.88195
 C650 C 0.85923 0.29561 0.89215
 C651 C 0.83411 0.29173 0.86855
 C652 C 0.93390 0.28593 0.92992
 C653 C 0.86642 0.26408 0.82403
 C654 C 0.89153 0.26793 0.84767
 C655 C 0.91316 0.28526 0.90768
 C656 C 0.83754 0.27563 0.83462
 H657 H 0.85615 0.30754 0.91866
 H658 H 0.81191 0.30074 0.87703
 H659 H 0.86932 0.25157 0.79791
 H660 H 0.91358 0.25828 0.83960
 C661 C 0.39200 0.77623 0.36995
 C662 C 0.37024 0.79988 0.36501
 C663 C 0.34497 0.79559 0.34170
 C664 C 0.43702 0.78138 0.41891
 C665 C 0.36350 0.74419 0.32766
 C666 C 0.38870 0.74849 0.35097
 C667 C 0.41672 0.77955 0.39619
 C668 C 0.34127 0.76758 0.32322
 H669 H 0.37251 0.82137 0.37972
 H670 H 0.32798 0.81382 0.33864
 H671 H 0.36098 0.72245 0.31359
 H672 H 0.40529 0.72999 0.35477
 C673 C 0.28216 0.88636 0.11770
 C674 C 0.27957 0.89091 0.15664
 C675 C 0.27508 0.86602 0.18056
 C676 C 0.28502 0.93303 0.07073
 C677 C 0.27661 0.83194 0.12672
 C678 C 0.28098 0.85681 0.10287
 C679 C 0.28423 0.91200 0.09259
 C680 C 0.27316 0.83644 0.16566
 H681 H 0.28036 0.91371 0.16838
 H682 H 0.27242 0.86986 0.21053
 H683 H 0.27523 0.80925 0.11481
 H684 H 0.28282 0.85306 0.07278
 C685 C 0.77905 0.39340 0.62824
 C686 C 0.75961 0.39708 0.65933
 C687 C 0.75481 0.37257 0.68368
 C688 C 0.78384 0.43805 0.57862
 C689 C 0.78933 0.34075 0.64630
 C690 C 0.79411 0.36527 0.62197
 C691 C 0.78211 0.41789 0.60160
 C692 C 0.76941 0.34422 0.67704
 H693 H 0.74771 0.41868 0.66431
 H694 H 0.73931 0.37550 0.70725
 H695 H 0.80060 0.31892 0.64079
 H696 H 0.80904 0.36212 0.59788
 C697 C 0.72075 0.10811 0.12974
 C698 C 0.69711 0.12980 0.13508
 C699 C 0.70149 0.15495 0.15857
 C700 C 0.71560 0.06365 0.08002
 C701 C 0.75292 0.13635 0.17210
 C702 C 0.74854 0.11127 0.14860
 C703 C 0.71739 0.08367 0.10312
 C704 C 0.72959 0.15858 0.17682
 H705 H 0.67557 0.12760 0.12050
 H706 H 0.68329 0.17192 0.16189
 H707 H 0.77470 0.13879 0.18605
 H708 H 0.76702 0.09469 0.14453
 C709 C 0.22081 0.61051 0.62055
 C710 C 0.24852 0.61416 0.63941
 C711 C 0.25262 0.63954 0.66249
 C712 C 0.21608 0.56487 0.57238
 C713 C 0.20107 0.65753 0.64848
 C714 C 0.19698 0.63208 0.62540
 C715 C 0.21765 0.58551 0.59468
 C716 C 0.22906 0.66159 0.66682
 H717 H 0.26715 0.59769 0.63573
 H718 H 0.27434 0.64235 0.67646
 H719 H 0.18271 0.67438 0.65149
 H720 H 0.17549 0.62952 0.61081
 C721 C 0.89408 0.71880 0.12202
 C722 C 0.89579 0.73784 0.15361
 C723 C 0.87040 0.74203 0.17707
 C724 C 0.93972 0.71572 0.07335
 C725 C 0.84172 0.70762 0.13789
 C726 C 0.86711 0.70346 0.11443
 C727 C 0.91920 0.71666 0.09598
 C728 C 0.84315 0.72721 0.16904
 H729 H 0.91647 0.74996 0.15960
 H730 H 0.87167 0.75734 0.20094
 H731 H 0.82074 0.69621 0.13132
 H732 H 0.86549 0.68887 0.08991
 C733 C 0.38975 0.21949 0.62826
 C734 C 0.38848 0.24420 0.65329
 C735 C 0.36302 0.24879 0.67649
 C736 C 0.43548 0.21486 0.57985
 C737 C 0.34024 0.20357 0.65034
 C738 C 0.36574 0.19899 0.62711
 C739 C 0.41482 0.21640 0.60225
 C740 C 0.33855 0.22878 0.67471
 H741 H 0.40685 0.26027 0.65429
 H742 H 0.36201 0.26831 0.69520
 H743 H 0.32153 0.18793 0.64872
 H744 H 0.36645 0.17988 0.60773
 C745 C 0.10768 0.27695 0.13055
 C746 C 0.12870 0.30020 0.13548
 C747 C 0.15419 0.29536 0.15864
 C748 C 0.06234 0.28261 0.08176
 C749 C 0.13727 0.24431 0.17269
 C750 C 0.11187 0.24914 0.14955
 C751 C 0.08281 0.28067 0.10436
 C752 C 0.15884 0.26720 0.17694
 H753 H 0.12577 0.32179 0.12086
 H754 H 0.17065 0.31324 0.16159
 H755 H 0.14053 0.22247 0.18662
 H756 H 0.09584 0.23095 0.14587
 C757 C 0.60884 0.78320 0.62191
 C758 C 0.60500 0.76936 0.65711
 C759 C 0.62999 0.76522 0.68123
 C760 C 0.56345 0.78554 0.57294
 C761 C 0.66254 0.78946 0.63537
 C762 C 0.63756 0.79359 0.61128
 C763 C 0.58388 0.78496 0.59565
 C764 C 0.65894 0.77484 0.67020
 H765 H 0.58289 0.76119 0.66556
 H766 H 0.62696 0.75390 0.70806
 H767 H 0.68479 0.79698 0.62656
 H768 H 0.64077 0.80426 0.58409
   
