data_POSCAR
  _audit_creation_date              2014-09-24
  _audit_creation_method            'ToBaCCo'
  _symmetry_space_group_name_H-M    'P1'
  _symmetry_Int_Tables_number       1
  _symmetry_cell_setting            triclinic
  loop_
  _symmetry_equiv_pos_as_xyz
 x,y,z
_cell_length_a 50.4249
_cell_length_b 11.7362
_cell_length_c 12.7628
_cell_angle_alpha 91.616100
_cell_angle_beta 89.725500
_cell_angle_gamma 90.049000
loop_
  _atom_site_label
  _atom_site_type_symbol
  _atom_site_fract_x
  _atom_site_fract_y
  _atom_site_fract_z
C1 C 0.74923 0.24437 0.45690
 C2 C 0.74971 0.23581 0.56389
 C3 C 0.72500 0.24238 0.62837
 C4 C 0.77533 0.22979 0.62053
 C5 C 0.77406 0.26451 0.39698
 C6 C 0.72403 0.23642 0.39724
 C7 C 0.70718 0.33208 0.61554
 C8 C 0.68346 0.33632 0.67169
 C9 C 0.67660 0.25164 0.74330
 C10 C 0.69450 0.16021 0.75461
 C11 C 0.71885 0.15819 0.70068
 C12 C 0.78181 0.31368 0.69687
 C13 C 0.80749 0.31976 0.73761
 C14 C 0.82686 0.24175 0.70263
 C15 C 0.82020 0.15570 0.62920
 C16 C 0.79452 0.14868 0.58958
 C17 C 0.78245 0.18643 0.31843
 C18 C 0.80815 0.19367 0.27708
 C19 C 0.82539 0.28024 0.31256
 C20 C 0.81643 0.36183 0.38633
 C21 C 0.79081 0.35514 0.42677
 C22 C 0.70576 0.14994 0.41821
 C23 C 0.68036 0.15286 0.37679
 C24 C 0.67277 0.24173 0.31262
 C25 C 0.69174 0.32209 0.28244
 C26 C 0.71732 0.31952 0.32473
 H27 H 0.71126 0.39722 0.55928
 H28 H 0.66933 0.40135 0.65241
 H29 H 0.69031 0.09284 0.80855
 H30 H 0.73264 0.08939 0.71350
 H31 H 0.76739 0.37764 0.72101
 H32 H 0.81247 0.38669 0.79434
 H33 H 0.78990 0.08312 0.53117
 H34 H 0.76972 0.11643 0.29378
 H35 H 0.81495 0.12925 0.22099
 H36 H 0.82968 0.42728 0.41627
 H37 H 0.78456 0.41598 0.48677
 H38 H 0.71068 0.08373 0.47153
 H39 H 0.66603 0.09031 0.40063
 H40 H 0.68633 0.38991 0.23095
 H41 H 0.73133 0.38577 0.30550
 H42 H 0.83499 0.09487 0.60178
 C43 C 0.25013 0.73130 0.53465
 C44 C 0.24978 0.74708 0.42917
 C45 C 0.27462 0.74675 0.36660
 C46 C 0.22443 0.76503 0.37398
 C47 C 0.22510 0.71962 0.59516
 C48 C 0.27539 0.73061 0.59256
 C49 C 0.28277 0.84547 0.31625
 C50 C 0.30818 0.85178 0.27213
 C51 C 0.32536 0.75751 0.27331
 C52 C 0.31622 0.65610 0.31738
 C53 C 0.29121 0.65093 0.36424
 C54 C 0.20688 0.85051 0.41001
 C55 C 0.18093 0.85324 0.37349
 C56 C 0.17243 0.77340 0.29734
 C57 C 0.19026 0.69072 0.25787
 C58 C 0.21617 0.68671 0.29583
 C59 C 0.20603 0.63908 0.56265
 C60 C 0.18012 0.64601 0.60026
 C61 C 0.17301 0.73228 0.67280
 C62 C 0.19239 0.80825 0.71107
 C63 C 0.21844 0.80114 0.67331
 C64 C 0.28419 0.63019 0.63752
 C65 C 0.30966 0.62483 0.67953
 C66 C 0.32627 0.72123 0.68106
 C67 C 0.31688 0.82303 0.63931
 C68 C 0.29167 0.82752 0.59514
 H69 H 0.26996 0.91946 0.31609
 H70 H 0.31468 0.93134 0.23996
 H71 H 0.32898 0.58222 0.31940
 H72 H 0.28514 0.57359 0.40203
 H73 H 0.21292 0.91146 0.47057
 H74 H 0.16739 0.91700 0.40532
 H75 H 0.22932 0.61930 0.26818
 H76 H 0.21070 0.57662 0.50194
 H77 H 0.16532 0.58714 0.56954
 H78 H 0.18720 0.87509 0.76724
 H79 H 0.23288 0.86387 0.69962
 H80 H 0.27179 0.55480 0.63562
 H81 H 0.31663 0.54473 0.70881
 H82 H 0.32938 0.89805 0.63818
 H83 H 0.28508 0.90541 0.56014
 H84 H 0.18403 0.62843 0.19907
 C85 C 0.25146 0.22393 -0.44838
 C86 C 0.25095 0.22718 -0.55520
 C87 C 0.27562 0.22445 -0.61825
 C88 C 0.22553 0.23629 -0.61177
 C89 C 0.22652 0.23062 -0.38734
 C90 C 0.27676 0.22334 -0.38916
 C91 C 0.28264 0.31884 -0.67744
 C92 C 0.30826 0.32758 -0.71862
 C93 C 0.32691 0.24100 -0.70250
 C94 C 0.31888 0.14132 -0.65329
 C95 C 0.29353 0.13389 -0.60993
 C96 C 0.21221 0.34059 -0.61393
 C97 C 0.18596 0.34549 -0.64797
 C98 C 0.17293 0.24628 -0.68596
 C99 C 0.18742 0.14337 -0.69121
 C100 C 0.21347 0.13866 -0.65467
 C101 C 0.21349 0.13128 -0.35720
 C102 C 0.18844 0.13811 -0.31005
 C103 C 0.17566 0.24404 -0.29662
 C104 C 0.18879 0.34314 -0.32743
 C105 C 0.21444 0.33678 -0.36865
 C106 C 0.28328 0.13196 -0.32508
 C107 C 0.30855 0.12542 -0.28013
 C108 C 0.32737 0.21072 -0.29829
 C109 C 0.32021 0.30529 -0.35614
 C110 C 0.29515 0.31181 -0.40124
 H111 H 0.26899 0.38922 -0.68524
 H112 H 0.31398 0.40418 -0.75830
 H113 H 0.33291 0.07341 -0.64049
 H114 H 0.28842 0.06086 -0.56411
 H115 H 0.22184 0.41684 -0.58409
 H116 H 0.17554 0.42582 -0.63885
 H117 H 0.22404 0.05850 -0.65716
 H118 H 0.22239 0.04874 -0.37298
 H119 H 0.17835 0.06048 -0.28934
 H120 H 0.17935 0.42536 -0.31769
 H121 H 0.22450 0.41411 -0.39049
 H122 H 0.26930 0.06333 -0.31376
 H123 H 0.31377 0.05216 -0.23485
 H124 H 0.33449 0.37204 -0.36921
 H125 H 0.29046 0.38367 -0.44914
 H126 H 0.17855 0.06633 -0.72392
 C127 C -0.25118 0.76678 -0.45811
 C128 C -0.25055 0.76109 -0.56471
 C129 C -0.22530 0.75967 -0.62304
 C130 C -0.27522 0.75672 -0.62638
 C131 C -0.27682 0.76905 -0.40204
 C132 C -0.22647 0.76485 -0.39613
 C133 C -0.21143 0.86122 -0.63804
 C134 C -0.18614 0.85853 -0.68308
 C135 C -0.17388 0.75350 -0.70893
 C136 C -0.18871 0.65270 -0.69972
 C137 C -0.21432 0.65586 -0.65790
 C138 C -0.28637 0.85738 -0.66226
 C139 C -0.31195 0.85653 -0.70396
 C140 C -0.32664 0.75454 -0.71122
 C141 C -0.31393 0.65187 -0.68633
 C142 C -0.28869 0.65339 -0.64174
 C143 C -0.28885 0.66630 -0.37624
 C144 C -0.31569 0.66425 -0.34967
 C145 C -0.33090 0.76447 -0.34840
 C146 C -0.31801 0.86919 -0.36284
 C147 C -0.29118 0.87082 -0.39139
 C148 C -0.21033 0.66760 -0.39993
 C149 C -0.18461 0.67201 -0.36023
 C150 C -0.17496 0.77347 -0.31427
 C151 C -0.19190 0.86772 -0.30149
 C152 C -0.21761 0.86347 -0.34250
 H153 H -0.21990 0.94185 -0.61196
 H154 H -0.17546 0.93802 -0.69054
 H155 H -0.18028 0.57143 -0.72342
 H156 H -0.22516 0.57710 -0.64854
 H157 H -0.27562 0.93688 -0.65426
 H158 H -0.32049 0.93572 -0.72913
 H159 H -0.28018 0.57492 -0.61467
 H160 H -0.27789 0.58721 -0.38335
 H161 H -0.32500 0.58413 -0.33377
 H162 H -0.32910 0.94823 -0.36113
 H163 H -0.28189 0.95001 -0.41137
 H164 H -0.21724 0.59053 -0.43891
 H165 H -0.17177 0.59851 -0.37053
 H166 H -0.18469 0.94616 -0.26516
 H167 H -0.22999 0.93875 -0.33766
 H168 H -0.32445 0.57158 -0.69184
 N169 N 0.03003 1.22119 -0.10155
 N170 N 0.05343 1.27212 -0.09682
 N171 N -0.02611 1.15309 -0.18466
 N172 N -0.04868 1.15493 -0.23628
 N173 N -0.02644 1.22825 -0.10636
 N174 N -0.04952 1.28174 -0.10244
 N175 N 0.02951 1.14701 -0.18060
 N176 N 0.05227 1.14644 -0.23185
 C177 C 0.06686 1.22569 -0.17982
 C178 C -0.06293 1.23648 -0.18527
 N179 N -0.02820 0.82472 -0.13383
 N180 N -0.05074 0.76777 -0.14435
 N181 N 0.02826 0.90286 -0.19711
 N182 N 0.04966 0.89451 -0.25669
 N183 N 0.02787 0.82186 -0.12850
 N184 N 0.04920 0.75749 -0.13911
 N185 N -0.02729 0.90825 -0.20007
 N186 N -0.04901 0.91002 -0.25674
 Mn187 Mn 0.00108 1.02804 -0.19160
 C188 C -0.06329 0.82060 -0.22330
 C189 C 0.06253 0.80223 -0.22073
 N190 N -0.02813 1.21769 0.11838
 N191 N -0.04940 1.28283 0.12737
 N192 N 0.02604 1.13010 0.19367
 N193 N 0.04695 1.13182 0.25549
 N194 N 0.02786 1.21038 0.12449
 N195 N 0.05026 1.26732 0.13696
 N196 N -0.02941 1.13483 0.18504
 N197 N -0.05135 1.14255 0.24135
 Mn198 Mn 0.00092 1.22117 0.00865
 C199 C -0.06369 1.23625 0.20546
 C200 C 0.06183 1.21914 0.22059
 N201 N 0.02639 0.81182 0.09730
 N202 N 0.04984 0.76129 0.09475
 N203 N -0.03052 0.88887 0.16801
 N204 N -0.05292 0.88114 0.22107
 N205 N -0.02983 0.81270 0.09065
 N206 N -0.05185 0.75160 0.08876
 N207 N 0.02515 0.88572 0.17661
 N208 N 0.04745 0.88609 0.23003
 Mn209 Mn -0.00088 0.81602 -0.01856
 Mn210 Mn -0.00230 1.00960 0.18193
 Cl211 Cl -0.00029 1.01877 -0.00482
 C212 C 0.06255 0.80763 0.17901
 C213 C -0.06574 0.79391 0.17186
 N214 N 0.52915 0.67587 -0.14108
 N215 N 0.54892 0.74535 -0.16289
 N216 N 0.47354 0.58633 -0.20680
 N217 N 0.45087 0.57892 -0.25773
 N218 N 0.47344 0.67537 -0.14173
 N219 N 0.45063 0.72994 -0.14673
 N220 N 0.52927 0.58670 -0.20532
 N221 N 0.54922 0.59289 -0.27194
 C222 C 0.56118 0.69303 -0.24581
 C223 C 0.43706 0.67023 -0.22096
 N224 N 0.47241 0.27560 -0.10427
 N225 N 0.44984 0.21837 -0.10240
 N226 N 0.52953 0.34339 -0.18122
 N227 N 0.55364 0.34669 -0.22176
 N228 N 0.52883 0.27310 -0.10269
 N229 N 0.55248 0.22675 -0.08965
 N230 N 0.47327 0.34227 -0.18509
 N231 N 0.45144 0.33065 -0.24117
 Mn232 Mn 0.50142 0.46416 -0.19590
 C233 C 0.43724 0.25182 -0.18958
 C234 C 0.56766 0.27203 -0.16540
 N235 N 0.47290 0.70800 0.08248
 N236 N 0.45079 0.76817 0.08043
 N237 N 0.52825 0.63735 0.16414
 N238 N 0.55015 0.64542 0.21969
 N239 N 0.52924 0.70517 0.08401
 N240 N 0.55218 0.76005 0.08257
 N241 N 0.47262 0.64011 0.16224
 N242 N 0.45046 0.65343 0.21650
 Mn243 Mn 0.50123 0.69270 -0.02911
 C244 C 0.43697 0.73480 0.16543
 C245 C 0.56463 0.72365 0.16939
 N246 N 0.52756 0.30481 0.12062
 N247 N 0.54961 0.24543 0.12954
 N248 N 0.47197 0.39749 0.18325
 N249 N 0.45022 0.40191 0.24031
 N250 N 0.47176 0.30750 0.11993
 N251 N 0.44984 0.24771 0.13390
 N252 N 0.52767 0.39394 0.18519
 N253 N 0.54978 0.39708 0.23984
 Mn254 Mn 0.50005 0.28866 0.00825
 Mn255 Mn 0.50012 0.51728 0.17487
 Cl256 Cl 0.50068 0.49088 -0.01054
 C257 C 0.56303 0.30311 0.20524
 C258 C 0.43676 0.30687 0.21116
 C259 C 0.36882 0.33716 0.34420
 C260 C 0.35397 0.25967 0.27979
 C261 C 0.36723 0.18960 0.20596
 C262 C 0.39424 0.20324 0.18732
 C263 C 0.40927 0.28203 0.24674
 C264 C 0.39689 0.34292 0.33188
 C265 C 0.35666 0.40368 0.42529
 C266 C 0.37170 0.47098 0.49414
 C267 C 0.39914 0.46999 0.48698
 C268 C 0.41168 0.40567 0.40796
 H269 H 0.33549 0.40326 0.43800
 H270 H 0.36204 0.52123 0.55554
 H271 H 0.41082 0.51806 0.54383
 H272 H 0.43301 0.40200 0.41133
 H273 H 0.35634 0.12707 0.15903
 H274 H 0.40328 0.15312 0.12416
 C275 C -0.12754 0.68181 0.30696
 C276 C -0.14714 0.75048 0.25836
 C277 C -0.13928 0.82300 0.17812
 C278 C -0.11297 0.82899 0.14604
 C279 C -0.09348 0.76509 0.19441
 C280 C -0.10060 0.68824 0.27291
 C281 C -0.13336 0.61575 0.39529
 C282 C -0.11384 0.55036 0.44187
 C283 C -0.08797 0.55148 0.40384
 C284 C -0.08123 0.62092 0.32106
 H285 H -0.15266 0.61674 0.43203
 H286 H -0.11876 0.49986 0.50887
 H287 H -0.07292 0.50036 0.44026
 H288 H -0.06075 0.62187 0.29525
 H289 H -0.15370 0.87554 0.13937
 H290 H -0.10757 0.88672 0.08480
 C291 C 0.62726 0.83135 0.30592
 C292 C 0.64632 0.75459 0.25972
 C293 C 0.63752 0.67148 0.18633
 C294 C 0.61112 0.66605 0.15589
 C295 C 0.59264 0.74516 0.19463
 C296 C 0.60047 0.82854 0.27026
 C297 C 0.63333 0.90224 0.39412
 C298 C 0.61441 0.97549 0.43886
 C299 C 0.58888 0.97840 0.39844
 C300 C 0.58179 0.90487 0.31562
 H301 H 0.65235 0.89886 0.43235
 H302 H 0.61952 1.02933 0.50604
 H303 H 0.57428 1.03560 0.43333
 H304 H 0.56147 0.90668 0.28869
 H305 H 0.65119 0.60977 0.15171
 H306 H 0.60484 0.59710 0.10369
 C307 C 0.13288 1.33644 0.23514
 C308 C 0.14548 1.24708 0.28978
 C309 C 0.12962 1.15758 0.32621
 C310 C 0.10245 1.15439 0.30886
 C311 C 0.08963 1.24103 0.25521
 C312 C 0.10466 1.33699 0.22443
 C313 C 0.14766 1.42052 0.18321
 C314 C 0.13503 1.51025 0.13490
 C315 C 0.10758 1.51818 0.13691
 C316 C 0.09246 1.43296 0.18124
 H317 H 0.16900 1.41613 0.17646
 H318 H 0.14657 1.57350 0.09483
 H319 H 0.09782 1.58814 0.09978
 H320 H 0.07123 1.44433 0.18187
 H321 H 0.13820 1.08906 0.36996
 H322 H 0.09157 1.08056 0.33468
 C323 C 0.64058 0.36083 -0.17274
 C324 C 0.65246 0.25575 -0.20749
 C325 C 0.63698 0.15581 -0.20220
 C326 C 0.60963 0.16171 -0.18369
 C327 C 0.59703 0.26692 -0.16697
 C328 C 0.61272 0.36659 -0.15429
 C329 C 0.65614 0.45895 -0.15019
 C330 C 0.64442 0.56153 -0.11815
 C331 C 0.61712 0.56802 -0.10482
 C332 C 0.60141 0.47167 -0.12112
 H333 H 0.67756 0.45653 -0.15522
 H334 H 0.65660 0.63598 -0.10236
 H335 H 0.60811 0.64746 -0.07860
 H336 H 0.58051 0.48001 -0.10434
 H337 H 0.64516 0.07384 -0.22545
 H338 H 0.59797 0.08422 -0.18964
 C339 C 0.13197 0.66641 -0.23227
 C340 C 0.14491 0.74540 -0.29652
 C341 C 0.13038 0.83272 -0.34104
 C342 C 0.10343 0.84503 -0.32006
 C343 C 0.08990 0.76937 -0.25487
 C344 C 0.10401 0.67446 -0.21543
 C345 C 0.14645 0.58046 -0.18298
 C346 C 0.13359 0.50013 -0.12307
 C347 C 0.10614 0.50188 -0.11361
 C348 C 0.09140 0.58693 -0.15994
 H349 H 0.16782 0.57559 -0.18929
 H350 H 0.14497 0.43541 -0.08482
 H351 H 0.09616 0.43717 -0.06942
 H352 H 0.07017 0.57993 -0.15383
 H353 H 0.14007 0.89254 -0.39192
 H354 H 0.09334 0.91715 -0.35279
 C355 C 0.36187 0.66222 -0.18902
 C356 C 0.35428 0.71283 -0.28431
 C357 C 0.37403 0.75087 -0.35308
 C358 C 0.40075 0.73734 -0.33074
 C359 C 0.40860 0.68493 -0.23927
 C360 C 0.38929 0.64601 -0.16762
 C361 C 0.34299 0.62929 -0.11347
 C362 C 0.35083 0.57555 -0.02254
 C363 C 0.37755 0.55543 -0.00395
 C364 C 0.39669 0.59091 -0.07515
 H365 H 0.32210 0.64664 -0.12262
 H366 H 0.33610 0.55055 0.03440
 H367 H 0.38352 0.51389 0.06688
 H368 H 0.41725 0.57514 -0.05684
 H369 H 0.36873 0.78878 -0.42651
 H370 H 0.41544 0.76663 -0.38611
 C371 C -0.13815 1.20953 -0.16012
 C372 C -0.14564 1.25019 -0.25902
 C373 C -0.12628 1.29130 -0.32723
 C374 C -0.09962 1.29139 -0.29951
 C375 C -0.09158 1.25054 -0.20275
 C376 C -0.11085 1.20896 -0.13180
 C377 C -0.15712 1.16469 -0.09075
 C378 C -0.14938 1.12013 0.00437
 C379 C -0.12275 1.11874 0.03186
 C380 C -0.10358 1.16163 -0.03555
 H381 H -0.17801 1.16252 -0.10978
 H382 H -0.16410 1.08540 0.05647
 H383 H -0.11691 1.08438 0.10603
 H384 H -0.08313 1.15635 -0.01156
 H385 H -0.13185 1.32072 -0.40378
 H386 H -0.08504 1.32077 -0.35529
 C387 C 0.62523 0.68885 -0.40430
 C388 C 0.64134 0.75869 -0.33708
 C389 C 0.62915 0.82349 -0.25647
 C390 C 0.60241 0.80827 -0.23261
 C391 C 0.58679 0.73098 -0.29119
 C392 C 0.59750 0.68061 -0.38433
 C393 C 0.63569 0.63262 -0.49475
 C394 C 0.61926 0.57437 -0.56543
 C395 C 0.59203 0.57362 -0.54956
 C396 C 0.58116 0.62559 -0.45993
 H397 H 0.65646 0.63644 -0.51393
 H398 H 0.62762 0.53255 -0.63460
 H399 H 0.57924 0.53291 -0.60720
 H400 H 0.55980 0.62651 -0.45338
 H401 H 0.64092 0.87780 -0.20487
 H402 H 0.59447 0.85120 -0.16309
 C403 C 0.14231 1.20807 -0.15869
 C404 C 0.14953 1.24957 -0.25833
 C405 C 0.12979 1.29258 -0.32353
 C406 C 0.10312 1.28560 -0.29573
 C407 C 0.09542 1.24040 -0.20001
 C408 C 0.11503 1.20327 -0.12941
 C409 C 0.16173 1.17782 -0.08498
 C410 C 0.15442 1.14039 0.01357
 C411 C 0.12777 1.12996 0.03976
 C412 C 0.10818 1.16065 -0.03059
 H413 H 0.18270 1.18507 -0.10200
 H414 H 0.16949 1.11701 0.06913
 H415 H 0.12224 1.09516 0.11408
 H416 H 0.08777 1.15017 -0.00658
 H417 H 0.13491 1.32577 -0.39944
 H418 H 0.08828 1.31457 -0.35004
 C419 C 0.37510 0.16747 -0.34290
 C420 C 0.35544 0.19802 -0.26754
 C421 C 0.36306 0.23175 -0.16604
 C422 C 0.38984 0.24203 -0.14034
 C423 C 0.40962 0.22130 -0.21616
 C424 C 0.40241 0.18069 -0.31761
 C425 C 0.36810 0.12459 -0.44337
 C426 C 0.38755 0.09603 -0.51754
 C427 C 0.41425 0.11039 -0.49337
 C428 C 0.42172 0.15196 -0.39436
 H429 H 0.34758 0.11131 -0.46440
 H430 H 0.38192 0.06263 -0.59414
 H431 H 0.42925 0.08847 -0.55143
 H432 H 0.44269 0.15963 -0.37811
 H433 H 0.34820 0.25543 -0.10783
 H434 H 0.39512 0.27289 -0.06235
 C435 C -0.12910 0.83134 -0.37125
 C436 C -0.14624 0.78564 -0.29482
 C437 C -0.13572 0.74480 -0.20196
 C438 C -0.10861 0.75252 -0.18207
 C439 C -0.09110 0.79823 -0.25579
 C440 C -0.10122 0.83312 -0.35377
 C441 C -0.13911 0.87459 -0.46540
 C442 C -0.12204 0.91585 -0.54163
 C443 C -0.09477 0.91025 -0.52794
 C444 C -0.08438 0.86806 -0.43585
 H445 H -0.16015 0.87692 -0.48099
 H446 H -0.12993 0.94922 -0.61314
 H447 H -0.08159 0.93802 -0.58933
 H448 H -0.06308 0.86086 -0.43154
 H449 H -0.14868 0.70880 -0.14353
 H450 H -0.10139 0.72568 -0.10690
 C451 C 0.36274 0.81321 0.14563
 C452 C 0.35380 0.76684 0.24144
 C453 C 0.37261 0.72858 0.31263
 C454 C 0.39937 0.72642 0.28805
 C455 C 0.40891 0.76589 0.19228
 C456 C 0.39063 0.81865 0.12331
 C457 C 0.34467 0.85102 0.06983
 C458 C 0.35357 0.90298 -0.02062
 C459 C 0.38054 0.91715 -0.03818
 C460 C 0.39892 0.87528 0.03232
 H461 H 0.32355 0.83916 0.07828
 H462 H 0.33944 0.93243 -0.07746
 H463 H 0.38731 0.95959 -0.10768
 H464 H 0.41940 0.89196 0.01499
 H465 H 0.36646 0.69668 0.38779
 H466 H 0.41270 0.68988 0.34434
 C467 C -0.13568 1.34768 0.20387
 C468 C -0.14634 1.27847 0.28263
 C469 C -0.12954 1.21078 0.34078
 C470 C -0.10266 1.20498 0.31805
 C471 C -0.09132 1.26838 0.23734
 C472 C -0.10775 1.34713 0.18386
 C473 C -0.15236 1.41664 0.14397
 C474 C -0.14179 1.48880 0.06977
 C475 C -0.11452 1.49410 0.05453
 C476 C -0.09762 1.42491 0.11098
 H477 H -0.17368 1.41502 0.15396
 H478 H -0.15478 1.54214 0.02501
 H479 H -0.10636 1.55261 -0.00114
 H480 H -0.07676 1.43768 0.09862
 H481 H -0.13746 1.16037 0.40358
 H482 H -0.09076 1.14728 0.36287
 C483 C 0.62522 0.27490 0.36846
 C484 C 0.64439 0.25669 0.28791
 C485 C 0.63623 0.24861 0.18327
 C486 C 0.60951 0.25897 0.15773
 C487 C 0.59031 0.27682 0.23630
 C488 C 0.59792 0.28070 0.34255
 C489 C 0.63262 0.29048 0.47431
 C490 C 0.61352 0.30450 0.55259
 C491 C 0.58675 0.30155 0.52789
 C492 C 0.57889 0.28989 0.42390
 H493 H 0.65315 0.29396 0.49726
 H494 H 0.61951 0.31800 0.63258
 H495 H 0.57199 0.31049 0.58907
 H496 H 0.55784 0.28816 0.40818
 H497 H 0.65066 0.23466 0.12105
 H498 H 0.60386 0.25619 0.07589
 C499 C 0.13831 0.80752 0.15684
 C500 C 0.14476 0.77726 0.26022
 C501 C 0.12445 0.75686 0.33249
 C502 C 0.09797 0.76514 0.30370
 C503 C 0.09098 0.79364 0.20176
 C504 C 0.11117 0.81688 0.12742
 C505 C 0.15827 0.83241 0.08305
 C506 C 0.15170 0.86551 -0.01723
 C507 C 0.12530 0.87758 -0.04518
 C508 C 0.10515 0.85384 0.02596
 H509 H 0.17909 0.82886 0.10237
 H510 H 0.16721 0.88661 -0.07194
 H511 H 0.12047 0.91002 -0.12104
 H512 H 0.08502 0.86838 0.00135
 H513 H 0.12919 0.73506 0.41222
 H514 H 0.08274 0.74958 0.36177
   
