data_POSCAR
  _audit_creation_date              2014-09-24
  _audit_creation_method            'ToBaCCo'
  _symmetry_space_group_name_H-M    'P1'
  _symmetry_Int_Tables_number       1
  _symmetry_cell_setting            triclinic
  loop_
  _symmetry_equiv_pos_as_xyz
 x,y,z
_cell_length_a 46.9803
_cell_length_b 46.9635
_cell_length_c 8.7532
_cell_angle_alpha 89.757900
_cell_angle_beta 90.002600
_cell_angle_gamma 89.999800
loop_
  _atom_site_label
  _atom_site_type_symbol
  _atom_site_fract_x
  _atom_site_fract_y
  _atom_site_fract_z
C1 C 0.33822 0.26423 0.32966
 C2 C 0.33815 0.23507 0.33656
 C3 C 0.31039 0.22640 0.30856
 N4 N 0.29362 0.24938 0.28519
 C5 C 0.31050 0.27255 0.29813
 C6 C 0.30143 0.19767 0.29924
 C7 C 0.27319 0.18881 0.26679
 C8 C 0.26551 0.16096 0.23335
 C9 C 0.23669 0.16089 0.20832
 C10 C 0.22727 0.18869 0.22692
 N11 N 0.24963 0.20549 0.26478
 C12 C 0.19851 0.19740 0.20977
 C13 C 0.18926 0.22608 0.20312
 C14 C 0.16123 0.23460 0.18179
 C15 C 0.16138 0.26376 0.17497
 C16 C 0.18946 0.27224 0.19276
 N17 N 0.20638 0.24917 0.20973
 C18 C 0.19862 0.30092 0.19640
 C19 C 0.22702 0.30991 0.22181
 C20 C 0.23499 0.33804 0.24441
 C21 C 0.26384 0.33811 0.26944
 C22 C 0.27291 0.31003 0.26164
 N23 N 0.25038 0.29305 0.22989
 C24 C 0.30140 0.30118 0.28573
 H25 H 0.35660 0.27773 0.34672
 H26 H 0.35654 0.22177 0.35839
 H27 H 0.25117 0.27154 0.20574
 H28 H 0.27931 0.14256 0.22627
 H29 H 0.22413 0.14241 0.17838
 H30 H 0.14260 0.22120 0.17103
 H31 H 0.14285 0.27716 0.15951
 H32 H 0.27658 0.35678 0.29311
 H33 H 0.24850 0.22648 0.29999
 H34 H 0.22138 0.35663 0.24522
 C35 C 0.66148 0.23510 0.33495
 C36 C 0.66135 0.26426 0.32752
 C37 C 0.68915 0.27264 0.29855
 N38 N 0.70614 0.24952 0.28770
 C39 C 0.68936 0.22649 0.30979
 C40 C 0.69823 0.30129 0.28737
 C41 C 0.72676 0.31017 0.26482
 C42 C 0.73586 0.33821 0.27556
 C43 C 0.76470 0.33820 0.25019
 C44 C 0.77262 0.31016 0.22449
 N45 N 0.74925 0.29329 0.23102
 C46 C 0.80097 0.30125 0.19698
 C47 C 0.81015 0.27259 0.19208
 C48 C 0.83816 0.26410 0.17105
 C49 C 0.83834 0.23494 0.17860
 C50 C 0.81043 0.22647 0.20354
 N51 N 0.79332 0.24954 0.21176
 C52 C 0.80130 0.19783 0.21257
 C53 C 0.77270 0.18897 0.23229
 C54 C 0.76353 0.16104 0.21730
 C55 C 0.73470 0.16099 0.24242
 C56 C 0.72680 0.18893 0.27232
 N57 N 0.75023 0.20576 0.26827
 C58 C 0.69846 0.19777 0.30257
 H59 H 0.64307 0.22177 0.35545
 H60 H 0.64287 0.27772 0.34266
 H61 H 0.75120 0.22694 0.30003
 H62 H 0.72314 0.35680 0.30124
 H63 H 0.77833 0.35677 0.25271
 H64 H 0.85661 0.27750 0.15306
 H65 H 0.85692 0.22153 0.16605
 H66 H 0.72104 0.14246 0.23742
 H67 H 0.74838 0.27191 0.20351
 H68 H 0.77623 0.14255 0.18932
 C69 C 0.83880 0.73542 0.83307
 C70 C 0.83891 0.76458 0.82611
 C71 C 0.81108 0.77297 0.79804
 N72 N 0.79409 0.74984 0.78729
 C73 C 0.81090 0.72681 0.80857
 C74 C 0.80196 0.80161 0.78766
 C75 C 0.77341 0.81048 0.76591
 C76 C 0.76428 0.83850 0.77754
 C77 C 0.73544 0.83848 0.75264
 C78 C 0.72752 0.81046 0.72633
 N79 N 0.75091 0.79361 0.73204
 C80 C 0.69916 0.80155 0.69892
 C81 C 0.69002 0.77289 0.69355
 C82 C 0.66202 0.76439 0.67243
 C83 C 0.66187 0.73522 0.67944
 C84 C 0.68979 0.72676 0.70420
 N85 N 0.70687 0.74984 0.71280
 C86 C 0.69893 0.69812 0.71282
 C87 C 0.72755 0.68927 0.73221
 C88 C 0.73671 0.66134 0.71708
 C89 C 0.76555 0.66130 0.74179
 C90 C 0.77346 0.68924 0.77159
 N91 N 0.75003 0.70606 0.76790
 C92 C 0.80182 0.69808 0.80135
 H93 H 0.85724 0.72209 0.85283
 H94 H 0.85739 0.77804 0.84096
 H95 H 0.74907 0.72725 0.79964
 H96 H 0.77701 0.85708 0.80345
 H97 H 0.72179 0.85704 0.75584
 H98 H 0.64355 0.77778 0.65475
 H99 H 0.64330 0.72180 0.66671
 H100 H 0.77921 0.64277 0.73655
 H101 H 0.75180 0.77226 0.70383
 H102 H 0.72400 0.64285 0.68926
 C103 C 0.33766 0.73537 0.67472
 C104 C 0.33751 0.76453 0.66753
 C105 C 0.30961 0.77306 0.69159
 N106 N 0.29280 0.75003 0.71279
 C107 C 0.30983 0.72694 0.70251
 C108 C 0.30053 0.80172 0.69850
 C109 C 0.27227 0.81063 0.72838
 C110 C 0.26455 0.83861 0.75739
 C111 C 0.23574 0.83871 0.78307
 C112 C 0.22640 0.81077 0.76922
 N113 N 0.24879 0.79388 0.73337
 C114 C 0.19774 0.80198 0.78988
 C115 C 0.18857 0.77328 0.79914
 C116 C 0.16067 0.76480 0.82514
 C117 C 0.16081 0.73566 0.83208
 C118 C 0.18878 0.72708 0.80964
 N119 N 0.20561 0.75015 0.78971
 C120 C 0.19790 0.69835 0.80357
 C121 C 0.22627 0.68945 0.77486
 C122 C 0.23423 0.66143 0.74764
 C123 C 0.26305 0.66145 0.72238
 C124 C 0.27216 0.68945 0.73458
 N125 N 0.24967 0.70630 0.76912
 C126 C 0.30072 0.69831 0.71295
 H127 H 0.35617 0.72192 0.66013
 H128 H 0.35593 0.77790 0.64786
 H129 H 0.25057 0.72762 0.79803
 H130 H 0.27830 0.85709 0.76161
 H131 H 0.22315 0.85729 0.81070
 H132 H 0.14212 0.77823 0.83879
 H133 H 0.14234 0.72230 0.85060
 H134 H 0.27577 0.64289 0.69595
 H135 H 0.24776 0.77265 0.70261
 H136 H 0.22061 0.64285 0.74432
 O137 O 1.02852 -0.03235 0.09026
 O138 O 0.97307 0.02156 0.15843
 O139 O 0.97312 -0.03236 0.09018
 O140 O 1.02853 0.02161 0.15839
 O141 O 1.02852 0.03238 -0.08778
 O142 O 0.97311 -0.02158 -0.15599
 O143 O 0.97309 0.03234 -0.08774
 O144 O 1.02854 -0.02157 -0.15592
 Cu145 Cu 1.00082 -0.00650 0.14897
 Cu146 Cu 1.00082 0.00652 -0.14652
 C147 C 1.03786 -0.03610 -0.04410
 C148 C 0.96372 0.03606 0.04659
 C149 C 0.96377 -0.03610 -0.04419
 C150 C 1.03786 0.03612 0.04659
 O151 O 0.52743 0.46768 0.58969
 O152 O 0.47197 0.52158 0.65779
 O153 O 0.47203 0.46765 0.58944
 O154 O 0.52742 0.52160 0.65805
 O155 O 0.52744 0.53241 0.41191
 O156 O 0.47206 0.47845 0.34330
 O157 O 0.47202 0.53238 0.41164
 O158 O 0.52748 0.47848 0.34354
 Cu159 Cu 0.49971 0.49351 0.64842
 Cu160 Cu 0.49975 0.50656 0.35293
 C161 C 0.53680 0.46395 0.45535
 C162 C 0.46264 0.53610 0.54596
 C163 C 0.46272 0.46391 0.45501
 C164 C 0.53678 0.53612 0.54631
 O165 O 0.02771 0.52245 -0.15685
 O166 O -0.02770 0.46830 -0.09045
 O167 O -0.02775 0.52240 -0.15739
 O168 O 0.02769 0.46832 -0.09000
 O169 O 0.02763 0.47843 0.15650
 O170 O -0.02780 0.53252 0.08909
 O171 O -0.02780 0.47841 0.15604
 O172 O 0.02762 0.53256 0.08964
 Cu173 Cu -0.00000 0.49431 -0.14830
 Cu174 Cu -0.00009 0.50655 0.14744
 C175 C 0.03701 0.53667 -0.04450
 C176 C -0.03708 0.46418 0.04370
 C177 C -0.03712 0.53662 -0.04520
 C178 C 0.03699 0.46420 0.04431
 O179 O 0.52773 1.02242 0.34354
 O180 O 0.47230 0.96830 0.41016
 O181 O 0.47226 1.02239 0.34277
 O182 O 0.52771 0.96833 0.41083
 O183 O 0.52761 0.97852 0.65725
 O184 O 0.47218 1.03258 0.58917
 O185 O 0.47217 0.97849 0.65656
 O186 O 0.52761 1.03261 0.58995
 Cu187 Cu 0.50001 0.99430 0.35220
 Cu188 Cu 0.49988 1.00662 0.64784
 C189 C 0.53702 1.03667 0.45582
 C190 C 0.46289 0.96423 0.54430
 C191 C 0.46286 1.03663 0.45482
 C192 C 0.53700 0.96427 0.54521
 C193 C 1.13906 0.13696 0.15452
 N194 N 1.11312 0.14402 0.09795
 N195 N 1.09325 0.12412 0.07837
 C196 C 1.09871 0.09656 0.11485
 N197 N 1.12466 0.08949 0.17140
 N198 N 1.14454 0.10940 0.19099
 C199 C 1.16045 0.15839 0.17490
 C200 C 1.17831 0.17657 0.19141
 C201 C 1.07736 0.07514 0.09241
 C202 C 1.05936 0.05725 0.07225
 C203 C 0.63819 0.63669 0.65539
 N204 N 0.64348 0.60915 0.69323
 N205 N 0.62356 0.58931 0.67336
 C206 C 0.59774 0.59641 0.61515
 N207 N 0.59247 0.62394 0.57730
 N208 N 0.61239 0.64378 0.59716
 C209 C 0.65963 0.65806 0.67613
 C210 C 0.67753 0.67617 0.69299
 C211 C 0.57634 0.57505 0.59244
 C212 C 0.55830 0.55722 0.57212
 C213 C -0.13821 0.36286 0.14500
 N214 N -0.14366 0.39025 0.18388
 N215 N -0.12378 0.41024 0.16587
 C216 C -0.09785 0.40342 0.10853
 N217 N -0.09241 0.37603 0.06964
 N218 N -0.11228 0.35605 0.08766
 C219 C -0.15962 0.34136 0.16365
 C220 C -0.17754 0.32320 0.17894
 C221 C -0.07652 0.42495 0.08753
 C222 C -0.05854 0.44293 0.06843
 C223 C 0.36150 0.86319 0.64623
 N224 N 0.35616 0.89060 0.68522
 N225 N 0.37609 0.91052 0.66704
 C226 C 0.40198 0.90362 0.60942
 N227 N 0.40732 0.87622 0.57047
 N228 N 0.38739 0.85630 0.58865
 C229 C 0.34002 0.84176 0.66498
 C230 C 0.32205 0.82364 0.68034
 C231 C 0.42337 0.92508 0.58825
 C232 C 0.44140 0.94302 0.56907
 C233 C -0.13845 0.63770 -0.14766
 N234 N -0.11289 0.64437 -0.08531
 N235 N -0.09298 0.62444 -0.06712
 C236 C -0.09801 0.59723 -0.11081
 N237 N -0.12357 0.59054 -0.17317
 N238 N -0.14349 0.61048 -0.19137
 C239 C -0.15990 0.65916 -0.16637
 C240 C -0.17785 0.67731 -0.18163
 C241 C -0.07664 0.57574 -0.08960
 C242 C -0.05862 0.55781 -0.07027
 C243 C 0.36128 1.13742 0.35129
 N244 N 0.38675 1.14416 0.41446
 N245 N 0.40672 1.12429 0.43289
 C246 C 0.40183 1.09708 0.38861
 N247 N 0.37636 1.09034 0.32542
 N248 N 0.35638 1.11021 0.30698
 C249 C 0.33976 1.15881 0.33221
 C250 C 0.32178 1.17693 0.31663
 C251 C 0.42326 1.07566 0.41005
 C252 C 0.44132 1.05778 0.42955
 C253 C 1.13851 -0.13742 -0.15335
 N254 N 1.14366 -0.11012 -0.19632
 N255 N 1.12392 -0.09010 -0.17630
 C256 C 1.09843 -0.09679 -0.11278
 N257 N 1.09329 -0.12409 -0.06984
 N258 N 1.11303 -0.14410 -0.08985
 C259 C 1.15977 -0.15897 -0.17420
 C260 C 1.17757 -0.17719 -0.19117
 C261 C 1.07722 -0.07524 -0.09010
 C262 C 1.05930 -0.05728 -0.06984
 C263 C 0.63772 0.36292 0.34569
 N264 N 0.61206 0.35604 0.40641
 N265 N 0.59226 0.37599 0.42656
 C266 C 0.59752 0.40342 0.38655
 N267 N 0.62319 0.41031 0.32584
 N268 N 0.64299 0.39035 0.30568
 C269 C 0.65904 0.34143 0.32468
 C270 C 0.67687 0.32327 0.30755
 C271 C 0.57624 0.42489 0.40936
 C272 C 0.55827 0.44281 0.42966
 C273 C 0.86258 -0.13687 -0.15383
 N274 N 0.85746 -0.10945 -0.19472
 N275 N 0.87734 -0.08956 -0.17457
 C276 C 0.90292 -0.09650 -0.11301
 N277 N 0.90803 -0.12392 -0.07212
 N278 N 0.88816 -0.14380 -0.09227
 C279 C 0.84119 -0.15828 -0.17491
 C280 C 0.82332 -0.17642 -0.19209
 C281 C 0.92428 -0.07510 -0.09022
 C282 C 0.94228 -0.05723 -0.06989
 C283 C 0.36186 0.36285 0.34456
 N284 N 0.35670 0.39023 0.30311
 N285 N 0.37650 0.41018 0.32337
 C286 C 0.40206 0.40334 0.38561
 N287 N 0.40721 0.37597 0.42705
 N288 N 0.38741 0.35602 0.40679
 C289 C 0.34055 0.34136 0.32334
 C290 C 0.32273 0.32319 0.30606
 C291 C 0.42333 0.42482 0.40860
 C292 C 0.44128 0.44274 0.42910
 C293 C 0.13822 0.63790 -0.14577
 N294 N 0.14465 0.61005 -0.16764
 N295 N 0.12476 0.59007 -0.14967
 C296 C 0.09786 0.59734 -0.10939
 N297 N 0.09144 0.62519 -0.08760
 N298 N 0.11132 0.64516 -0.10557
 C299 C 0.15964 0.65941 -0.16415
 C300 C 0.17756 0.67758 -0.17932
 C301 C 0.07650 0.57584 -0.08830
 C302 C 0.05850 0.55789 -0.06917
 C303 C 0.63867 1.13746 0.35436
 N304 N 0.64386 1.11010 0.31388
 N305 N 0.62387 1.09023 0.33196
 C306 C 0.59809 1.09713 0.39094
 N307 N 0.59291 1.12449 0.43139
 N308 N 0.61289 1.14436 0.41332
 C309 C 0.66017 1.15887 0.33546
 C310 C 0.67814 1.17700 0.31994
 C311 C 0.57663 1.07572 0.41196
 C312 C 0.55857 1.05783 0.43109
 C313 C 0.13781 0.36260 0.14598
 N314 N 0.14355 0.39006 0.18219
 N315 N 0.12374 0.41012 0.16431
 C316 C 0.09760 0.40332 0.10976
 N317 N 0.09187 0.37585 0.07357
 N318 N 0.11167 0.35580 0.09145
 C319 C 0.15917 0.34103 0.16415
 C320 C 0.17709 0.32284 0.17894
 C321 C 0.07635 0.42493 0.08870
 C322 C 0.05842 0.44295 0.06941
 C323 C 0.63824 0.86311 0.64789
 N324 N 0.61246 0.85633 0.58868
 N325 N 0.59255 0.87628 0.57061
 C326 C 0.59783 0.90361 0.61128
 N327 N 0.62362 0.91040 0.67050
 N328 N 0.64353 0.89044 0.68857
 C329 C 0.65970 0.84164 0.66639
 C330 C 0.67765 0.82349 0.68139
 C331 C 0.57648 0.92511 0.59002
 C332 C 0.55848 0.94306 0.57054
 C333 C 0.86211 0.13646 0.15511
 N334 N 0.88747 0.14337 0.09083
 N335 N 0.90742 0.12357 0.07099
 C336 C 0.90264 0.09626 0.11490
 N337 N 0.87728 0.08934 0.17915
 N338 N 0.85731 0.10915 0.19900
 C339 C 0.84063 0.15780 0.17588
 C340 C 0.82271 0.17588 0.19276
 C341 C 0.92408 0.07493 0.09236
 C342 C 0.94215 0.05713 0.07221
 C343 C 0.36136 0.63681 0.65475
 N344 N 0.38670 0.64362 0.59003
 N345 N 0.40659 0.62375 0.57009
 C346 C 0.40174 0.59646 0.61435
 N347 N 0.37639 0.58965 0.67906
 N348 N 0.35650 0.60952 0.69900
 C349 C 0.33997 0.65822 0.67571
 C350 C 0.32209 0.67634 0.69281
 C351 C 0.42310 0.57507 0.59176
 C352 C 0.44113 0.55721 0.57158
   
