data_POSCAR
  _audit_creation_date              2014-09-24
  _audit_creation_method            'ToBaCCo'
  _symmetry_space_group_name_H-M    'P1'
  _symmetry_Int_Tables_number       1
  _symmetry_cell_setting            triclinic
  loop_
  _symmetry_equiv_pos_as_xyz
 x,y,z
_cell_length_a 32.5218
_cell_length_b 34.1907
_cell_length_c 32.5218
_cell_angle_alpha 90.000000
_cell_angle_beta 90.000000
_cell_angle_gamma 90.000000
loop_
  _atom_site_label
  _atom_site_type_symbol
  _atom_site_fract_x
  _atom_site_fract_y
  _atom_site_fract_z
Si1 Si 0.25001 0.24999 0.25002
 Si2 Si 0.75001 0.75003 0.25002
 Si3 Si 0.75001 0.25007 0.75002
 Si4 Si 0.25001 0.75003 0.75002
 C5 C 0.05809 0.05855 0.01418
 H6 H 0.05892 0.06023 -0.01903
 C7 C 0.08224 0.08386 0.03770
 H8 H 0.10191 0.10504 0.02262
 C9 C 0.03108 0.02927 0.07455
 H10 H 0.01066 0.00842 0.08884
 C11 C 0.05472 0.05404 0.09920
 H12 H 0.05275 0.05189 0.13238
 N13 N 0.03355 0.03161 0.03283
 C14 C 0.01651 -0.06078 -0.05825
 H15 H -0.01670 -0.06240 -0.05900
 C16 C 0.03992 -0.08603 -0.08258
 H17 H 0.02475 -0.10710 -0.10230
 C18 C 0.07700 -0.03167 -0.03132
 H19 H 0.09138 -0.01089 -0.01088
 C20 C 0.10155 -0.05639 -0.05514
 H21 H 0.13473 -0.05427 -0.05328
 Zn22 Zn 0.00127 -0.00114 -0.00130
 N23 N 0.03527 -0.03395 -0.03367
 C24 C -0.02887 0.02956 -0.07694
 N25 N -0.03099 0.03183 -0.03520
 C26 C -0.05534 0.05875 -0.01629
 C27 C -0.07970 0.08410 -0.03954
 C28 C -0.05273 0.05438 -0.10134
 C29 C -0.01417 -0.06092 0.05544
 C30 C -0.03767 -0.08604 0.07984
 C31 C -0.09918 -0.05609 0.05250
 C32 C -0.07455 -0.03151 0.02862
 N33 N -0.03282 -0.03398 0.03092
 H34 H -0.00862 0.00869 -0.09144
 H35 H -0.05591 0.06035 0.01693
 H36 H -0.09925 0.10523 -0.02425
 H37 H -0.05108 0.05226 -0.13454
 H38 H 0.01904 -0.06268 0.05616
 H39 H -0.02258 -0.10716 0.09955
 H40 H -0.13236 -0.05378 0.05071
 H41 H -0.08885 -0.01065 0.00822
 C42 C 0.08282 -0.08370 -0.08110
 C43 C 0.08061 0.08148 0.08059
 C44 C -0.08056 -0.08346 0.07846
 C45 C -0.07848 0.08177 -0.08245
 C46 C 0.05828 0.56083 0.51653
 H47 H 0.05903 0.56245 0.48331
 C48 C 0.08261 0.58608 0.53993
 H49 H 0.10233 0.60716 0.52476
 C50 C 0.03135 0.53172 0.57701
 H51 H 0.01091 0.51094 0.59139
 C52 C 0.05517 0.55644 0.60156
 H53 H 0.05331 0.55432 0.63474
 N54 N 0.03370 0.53400 0.53528
 C55 C 0.01633 0.44130 0.44467
 H56 H -0.01690 0.43971 0.44410
 C57 C 0.03957 0.41595 0.42031
 H58 H 0.02428 0.39482 0.40076
 C59 C 0.07697 0.47049 0.47114
 H60 H 0.09147 0.49136 0.49140
 C61 C 0.10137 0.44567 0.44728
 H62 H 0.13457 0.44779 0.44893
 Zn63 Zn 0.00133 0.50119 0.50128
 N64 N 0.03523 0.46823 0.46902
 C65 C -0.02859 0.53156 0.42547
 N66 N -0.03089 0.53403 0.46719
 C67 C -0.05541 0.56097 0.48584
 C68 C -0.07980 0.58609 0.46234
 C69 C -0.05246 0.55614 0.40083
 C70 C -0.01415 0.44150 0.55810
 C71 C -0.03767 0.41619 0.58225
 C72 C -0.09917 0.44601 0.55473
 C73 C -0.07452 0.47078 0.53109
 N74 N -0.03279 0.46844 0.53356
 H75 H -0.00819 0.51070 0.41116
 H76 H -0.05613 0.56273 0.51905
 H77 H -0.09952 0.60721 0.47743
 H78 H -0.05068 0.55384 0.36765
 H79 H 0.01906 0.43983 0.55893
 H80 H -0.02259 0.39502 0.60192
 H81 H -0.13234 0.44816 0.55276
 H82 H -0.08881 0.49163 0.51067
 C83 C 0.08248 0.41829 0.42153
 C84 C 0.08113 0.58375 0.58283
 C85 C -0.08056 0.41858 0.58063
 C86 C -0.07842 0.58351 0.41945
 C87 C 0.55536 0.05875 0.51634
 H88 H 0.55594 0.06035 0.48312
 C89 C 0.57972 0.08410 0.53959
 H90 H 0.59927 0.10523 0.52429
 C91 C 0.52889 0.02956 0.57699
 H92 H 0.50864 0.00869 0.59148
 C93 C 0.55275 0.05438 0.60138
 H94 H 0.55110 0.05226 0.63458
 N95 N 0.53101 0.03183 0.53524
 C96 C 0.51419 -0.06092 0.44460
 H97 H 0.48098 -0.06268 0.44388
 C98 C 0.53769 -0.08604 0.42021
 H99 H 0.52260 -0.10716 0.40049
 C100 C 0.57457 -0.03151 0.47143
 H101 H 0.58887 -0.01065 0.49182
 C102 C 0.59920 -0.05609 0.44755
 H103 H 0.63238 -0.05378 0.44933
 Zn104 Zn 0.49875 -0.00114 0.50135
 N105 N 0.53284 -0.03398 0.46913
 C106 C 0.46894 0.02927 0.42550
 N107 N 0.46647 0.03161 0.46722
 C108 C 0.44194 0.05855 0.48586
 C109 C 0.41778 0.08386 0.46235
 C110 C 0.44530 0.05404 0.40085
 C111 C 0.48351 -0.06078 0.55829
 C112 C 0.46010 -0.08603 0.58263
 C113 C 0.39847 -0.05639 0.55519
 C114 C 0.42302 -0.03167 0.53136
 N115 N 0.46475 -0.03395 0.53371
 H116 H 0.48936 0.00842 0.41121
 H117 H 0.44110 0.06023 0.51907
 H118 H 0.39812 0.10504 0.47743
 H119 H 0.44728 0.05189 0.36767
 H120 H 0.51672 -0.06240 0.55904
 H121 H 0.47527 -0.10710 0.60234
 H122 H 0.36529 -0.05427 0.55332
 H123 H 0.40864 -0.01089 0.51093
 C124 C 0.58058 -0.08346 0.42159
 C125 C 0.57850 0.08177 0.58249
 C126 C 0.41720 -0.08370 0.58115
 C127 C 0.41941 0.08148 0.41946
 C128 C 0.55543 0.56097 0.01420
 H129 H 0.55615 0.56273 -0.01901
 C130 C 0.57982 0.58609 0.03770
 H131 H 0.59954 0.60721 0.02261
 C132 C 0.52861 0.53156 0.07458
 H133 H 0.50821 0.51070 0.08888
 C134 C 0.55248 0.55614 0.09921
 H135 H 0.55070 0.55384 0.13239
 N136 N 0.53091 0.53403 0.03285
 C137 C 0.51417 0.44150 -0.05805
 H138 H 0.48096 0.43983 -0.05889
 C139 C 0.53769 0.41619 -0.08221
 H140 H 0.52261 0.39502 -0.10187
 C141 C 0.57454 0.47078 -0.03105
 H142 H 0.58883 0.49163 -0.01063
 C143 C 0.59919 0.44601 -0.05469
 H144 H 0.63236 0.44816 -0.05271
 Zn145 Zn 0.49869 0.50119 -0.00124
 N146 N 0.53281 0.46844 -0.03351
 C147 C 0.46867 0.53172 -0.07697
 N148 N 0.46632 0.53400 -0.03524
 C149 C 0.44174 0.56083 -0.01648
 C150 C 0.41741 0.58608 -0.03989
 C151 C 0.44485 0.55644 -0.10151
 C152 C 0.48370 0.44130 0.05537
 C153 C 0.46045 0.41595 0.07973
 C154 C 0.39865 0.44567 0.05276
 C155 C 0.42305 0.47049 0.02890
 N156 N 0.46479 0.46823 0.03102
 H157 H 0.48911 0.51094 -0.09135
 H158 H 0.44099 0.56245 0.01673
 H159 H 0.39769 0.60716 -0.02471
 H160 H 0.44671 0.55432 -0.13470
 H161 H 0.51692 0.43971 0.05595
 H162 H 0.47574 0.39482 0.09928
 H163 H 0.36545 0.44779 0.05111
 H164 H 0.40855 0.49136 0.00865
 C165 C 0.58058 0.41858 -0.08058
 C166 C 0.57844 0.58351 0.08059
 C167 C 0.41754 0.41829 0.07851
 C168 C 0.41889 0.58375 -0.08279
 C169 C 0.21971 -0.22091 -0.21940
 C170 C 0.19855 -0.20032 -0.19804
 C171 C 0.17386 -0.17601 -0.17312
 C172 C 0.15287 -0.15509 -0.15192
 C173 C 0.12839 -0.13042 -0.12719
 C174 C 0.10757 -0.10920 -0.10614
 C175 C 0.21810 0.28072 0.28242
 C176 C 0.19711 0.30136 0.30389
 C177 C 0.17266 0.32573 0.32897
 C178 C 0.15189 0.34671 0.35032
 C179 C 0.12767 0.37145 0.37522
 C180 C 0.10705 0.39272 0.39639
 C181 C 0.71800 -0.21931 0.28240
 C182 C 0.69680 -0.19885 0.30385
 C183 C 0.67203 -0.17476 0.32892
 C184 C 0.65095 -0.15408 0.35026
 C185 C 0.62635 -0.12969 0.37518
 C186 C 0.60543 -0.10871 0.39639
 C187 C 0.71802 0.28081 -0.21767
 C188 C 0.69683 0.30146 -0.19641
 C189 C 0.67206 0.32586 -0.17167
 C190 C 0.65098 0.34686 -0.15067
 C191 C 0.62638 0.37165 -0.12619
 C192 C 0.60545 0.39296 -0.10537
 C193 C -0.21759 0.21933 -0.21807
 C194 C -0.19612 0.19869 -0.19707
 C195 C -0.17104 0.17432 -0.17263
 C196 C -0.14970 0.15335 -0.15186
 C197 C -0.12479 0.12861 -0.12764
 C198 C -0.10362 0.10733 -0.10702
 C199 C -0.21761 0.71936 0.28203
 C200 C -0.19616 0.69890 0.30323
 C201 C -0.17109 0.67481 0.32800
 C202 C -0.14975 0.65413 0.34908
 C203 C -0.12483 0.62975 0.37368
 C204 C -0.10363 0.60877 0.39460
 C205 C 0.28232 0.21924 0.28201
 C206 C 0.30358 0.19859 0.30320
 C207 C 0.32832 0.17419 0.32797
 C208 C 0.34932 0.15319 0.34905
 C209 C 0.37380 0.12841 0.37366
 C210 C 0.39462 0.10709 0.39458
 C211 C 0.28059 0.72096 -0.21968
 C212 C 0.30195 0.70037 -0.19852
 C213 C 0.32687 0.67606 -0.17383
 C214 C 0.34807 0.65515 -0.15284
 C215 C 0.37280 0.63047 -0.12836
 C216 C 0.39385 0.60926 -0.10754
 C217 C -0.21798 -0.21931 0.21764
 C218 C -0.19678 -0.19885 0.19619
 C219 C -0.17201 -0.17476 0.17113
 C220 C -0.15093 -0.15408 0.14978
 C221 C -0.12633 -0.12969 0.12486
 C222 C -0.10541 -0.10871 0.10366
 C223 C -0.21800 0.28081 0.71771
 C224 C -0.19681 0.30146 0.69645
 C225 C -0.17204 0.32586 0.67172
 C226 C -0.15096 0.34686 0.65071
 C227 C -0.12636 0.37165 0.62624
 C228 C -0.10543 0.39296 0.60541
 C229 C 0.28031 -0.22091 0.71945
 C230 C 0.30147 -0.20032 0.69808
 C231 C 0.32616 -0.17601 0.67316
 C232 C 0.34715 -0.15509 0.65197
 C233 C 0.37163 -0.13042 0.62723
 C234 C 0.39245 -0.10920 0.60618
 C235 C 0.28192 0.28072 0.21762
 C236 C 0.30291 0.30136 0.19615
 C237 C 0.32736 0.32573 0.17107
 C238 C 0.34813 0.34671 0.14973
 C239 C 0.37235 0.37145 0.12483
 C240 C 0.39297 0.39272 0.10365
 C241 C 0.21770 0.21924 0.21803
 C242 C 0.19644 0.19859 0.19684
 C243 C 0.17170 0.17419 0.17208
 C244 C 0.15070 0.15319 0.15099
 C245 C 0.12622 0.12841 0.12639
 C246 C 0.10540 0.10709 0.10546
 C247 C 0.21943 0.72096 0.71972
 C248 C 0.19807 0.70037 0.69856
 C249 C 0.17315 0.67606 0.67387
 C250 C 0.15195 0.65515 0.65288
 C251 C 0.12722 0.63047 0.62840
 C252 C 0.10617 0.60926 0.60758
 C253 C 0.71761 0.21933 0.71812
 C254 C 0.69614 0.19869 0.69712
 C255 C 0.67106 0.17432 0.67267
 C256 C 0.64972 0.15335 0.65190
 C257 C 0.62481 0.12861 0.62768
 C258 C 0.60364 0.10733 0.60706
 C259 C 0.71763 0.71936 0.21802
 C260 C 0.69618 0.69890 0.19682
 C261 C 0.67111 0.67481 0.17205
 C262 C 0.64977 0.65413 0.15096
 C263 C 0.62485 0.62975 0.12636
 C264 C 0.60365 0.60877 0.10544
   
