data_POSCAR
  _audit_creation_date              2014-09-24
  _audit_creation_method            'ToBaCCo'
  _symmetry_space_group_name_H-M    'P1'
  _symmetry_Int_Tables_number       1
  _symmetry_cell_setting            triclinic
  loop_
  _symmetry_equiv_pos_as_xyz
 x,y,z
_cell_length_a 42.8431
_cell_length_b 46.5265
_cell_length_c 36.8298
_cell_angle_alpha 89.992600
_cell_angle_beta 89.294000
_cell_angle_gamma 90.020700
loop_
  _atom_site_label
  _atom_site_type_symbol
  _atom_site_fract_x
  _atom_site_fract_y
  _atom_site_fract_z
C1 C 0.27382 0.27910 0.23263
 C2 C 0.25007 0.26394 0.25093
 C3 C 0.22635 0.27907 0.26931
 C4 C 0.22659 0.30917 0.26973
 C5 C 0.25015 0.32421 0.25111
 C6 C 0.27367 0.30921 0.23240
 C7 C 0.25000 0.23230 0.25080
 C8 C 0.27365 0.21707 0.26848
 C9 C 0.27340 0.18696 0.26867
 C10 C 0.24989 0.17203 0.25051
 C11 C 0.22644 0.18714 0.23249
 C12 C 0.22630 0.21724 0.23297
 H13 H 0.29204 0.26748 0.21816
 H14 H 0.20809 0.26742 0.28369
 H15 H 0.29187 0.22864 0.28251
 H16 H 0.20813 0.22895 0.21904
 H17 H 0.25018 0.34752 0.25117
 H18 H 0.24985 0.14872 0.25039
 C19 C 0.77464 0.78048 0.23084
 C20 C 0.75097 0.76542 0.24940
 C21 C 0.72737 0.78062 0.26786
 C22 C 0.72760 0.81074 0.26811
 C23 C 0.75109 0.82571 0.24921
 C24 C 0.77453 0.81061 0.23040
 C25 C 0.75090 0.73378 0.24950
 C26 C 0.77445 0.71863 0.26746
 C27 C 0.77417 0.68853 0.26791
 C28 C 0.75072 0.67351 0.24974
 C29 C 0.72736 0.68854 0.23145
 C30 C 0.72726 0.71864 0.23166
 H31 H 0.79275 0.76871 0.21635
 H32 H 0.70920 0.76895 0.28242
 H33 H 0.79261 0.73027 0.28150
 H34 H 0.70916 0.73029 0.21754
 H35 H 0.75114 0.84904 0.24913
 H36 H 0.75065 0.65020 0.24984
 C37 C 0.77260 0.27975 0.73300
 C38 C 0.74891 0.26462 0.75144
 C39 C 0.72520 0.27977 0.76981
 C40 C 0.72537 0.30990 0.77006
 C41 C 0.74890 0.32489 0.75126
 C42 C 0.77240 0.30985 0.73258
 C43 C 0.74895 0.23298 0.75154
 C44 C 0.77251 0.21791 0.76959
 C45 C 0.77239 0.18778 0.76998
 C46 C 0.74905 0.17270 0.75163
 C47 C 0.72570 0.18768 0.73326
 C48 C 0.72545 0.21778 0.73355
 H49 H 0.79082 0.26809 0.71857
 H50 H 0.70702 0.26807 0.78429
 H51 H 0.79055 0.22968 0.78370
 H52 H 0.70736 0.22938 0.71935
 H53 H 0.74897 0.34822 0.75114
 H54 H 0.74904 0.14938 0.75158
 C55 C 0.27452 0.78010 0.73137
 C56 C 0.25055 0.76526 0.74973
 C57 C 0.22679 0.78070 0.76760
 C58 C 0.22718 0.81079 0.76746
 C59 C 0.25094 0.82552 0.74878
 C60 C 0.27453 0.81022 0.73055
 C61 C 0.25031 0.73361 0.75015
 C62 C 0.27386 0.71846 0.76810
 C63 C 0.27348 0.68836 0.76875
 C64 C 0.24992 0.67334 0.75077
 C65 C 0.22656 0.68837 0.73248
 C66 C 0.22656 0.71847 0.73251
 H67 H 0.29274 0.76815 0.71731
 H68 H 0.20837 0.76929 0.78201
 H69 H 0.29212 0.73010 0.78197
 H70 H 0.20847 0.73011 0.71835
 H71 H 0.25100 0.84885 0.74845
 H72 H 0.24979 0.65003 0.75099
 C73 C 0.04162 0.04613 0.01277
 H74 H 0.04156 0.04802 -0.01650
 C75 C 0.06069 0.06406 0.03325
 H76 H 0.07508 0.07992 0.01951
 C77 C 0.02241 0.02344 0.06614
 H78 H 0.00732 0.00772 0.07889
 C79 C 0.04111 0.04096 0.08769
 H80 H 0.04061 0.03810 0.11687
 N81 N 0.02345 0.02594 0.02934
 C82 C 0.01249 -0.04131 -0.05212
 H83 H -0.01268 -0.04295 -0.05315
 C84 C 0.03108 -0.05919 -0.07387
 H85 H 0.02002 -0.07432 -0.09196
 C86 C 0.05739 -0.01940 -0.02737
 H87 H 0.06764 -0.00429 -0.00874
 C88 C 0.07683 -0.03681 -0.04862
 H89 H 0.10189 -0.03482 -0.04605
 Zn90 Zn -0.00065 0.00193 -0.00096
 N91 N 0.02583 -0.02162 -0.02986
 C92 C -0.02393 0.02445 -0.06737
 N93 N -0.02518 0.02616 -0.03051
 C94 C -0.04381 0.04569 -0.01339
 C95 C -0.06308 0.06377 -0.03339
 C96 C -0.04281 0.04215 -0.08846
 C97 C -0.01303 -0.04247 0.04890
 C98 C -0.03132 -0.06120 0.06984
 C99 C -0.07743 -0.03944 0.04466
 C100 C -0.05829 -0.02110 0.02430
 N101 N -0.02670 -0.02266 0.02709
 H102 H -0.00849 0.00926 -0.08055
 H103 H -0.04391 0.04695 0.01594
 H104 H -0.07781 0.07910 -0.01922
 H105 H -0.04209 0.03994 -0.11772
 H106 H 0.01216 -0.04365 0.05004
 H107 H -0.02001 -0.07688 0.08696
 H108 H -0.10252 -0.03747 0.04254
 H109 H -0.06878 -0.00574 0.00621
 C110 C 0.06373 -0.05691 -0.07245
 C111 C 0.06086 0.06139 0.07124
 C112 C -0.06400 -0.05977 0.06791
 C113 C -0.06298 0.06194 -0.07146
 C114 C 0.04252 0.54529 0.51407
 H115 H 0.04271 0.54677 0.48475
 C116 C 0.06162 0.56333 0.53436
 H117 H 0.07629 0.57886 0.52042
 C118 C 0.02262 0.52353 0.56772
 H119 H 0.00724 0.50814 0.58065
 C120 C 0.04133 0.54118 0.58909
 H121 H 0.04055 0.53875 0.61832
 N122 N 0.02398 0.52552 0.53088
 C123 C 0.01253 0.45750 0.45055
 H124 H -0.01265 0.45625 0.44926
 C125 C 0.03096 0.43891 0.42962
 H126 H 0.01977 0.42326 0.41233
 C127 C 0.05761 0.47887 0.47561
 H128 H 0.06798 0.49417 0.49390
 C129 C 0.07690 0.46068 0.45525
 H130 H 0.10197 0.46269 0.45757
 Zn131 Zn -0.00026 0.50140 0.50087
 N132 N 0.02605 0.47723 0.47263
 C133 C -0.02302 0.52346 0.43394
 N134 N -0.02439 0.52552 0.47077
 C135 C -0.04287 0.54538 0.48749
 C136 C -0.06187 0.56345 0.46712
 C137 C -0.04163 0.54114 0.41249
 C138 C -0.01322 0.45764 0.55134
 C139 C -0.03172 0.43913 0.57234
 C140 C -0.07758 0.46098 0.54665
 C141 C -0.05823 0.47908 0.52622
 N142 N -0.02667 0.47736 0.52920
 H143 H -0.00770 0.50801 0.42107
 H144 H -0.04307 0.54691 0.51681
 H145 H -0.07648 0.57905 0.48100
 H146 H -0.04084 0.53865 0.38326
 H147 H 0.01195 0.45632 0.55263
 H148 H -0.02059 0.42348 0.58966
 H149 H -0.10265 0.46305 0.54432
 H150 H -0.06853 0.49438 0.50788
 C151 C 0.06363 0.44039 0.43180
 C152 C 0.06143 0.56122 0.57240
 C153 C -0.06439 0.44070 0.57016
 C154 C -0.06165 0.56126 0.42909
 C155 C 0.54338 0.04431 0.51308
 H156 H 0.54360 0.04589 0.48377
 C157 C 0.56230 0.06240 0.53351
 H158 H 0.57687 0.07808 0.51970
 C159 C 0.52356 0.02223 0.56657
 H160 H 0.50827 0.00671 0.57938
 C161 C 0.54209 0.03994 0.58808
 H162 H 0.54128 0.03740 0.61729
 N163 N 0.52496 0.02436 0.52974
 C164 C 0.51410 -0.04340 0.44893
 H165 H 0.48893 -0.04484 0.44762
 C166 C 0.53269 -0.06175 0.42784
 H167 H 0.52164 -0.07739 0.41043
 C168 C 0.55899 -0.02184 0.47417
 H169 H 0.56922 -0.00655 0.49258
 C170 C 0.57844 -0.03978 0.45366
 H171 H 0.60350 -0.03760 0.45600
 Zn172 Zn 0.50093 0.00019 0.49956
 N173 N 0.52745 -0.02369 0.47117
 C174 C 0.47794 0.02234 0.43276
 N175 N 0.47661 0.02427 0.46960
 C176 C 0.45799 0.04395 0.48648
 C177 C 0.43880 0.06194 0.46625
 C178 C 0.45913 0.03995 0.41145
 C179 C 0.48822 -0.04379 0.54985
 C180 C 0.46981 -0.06240 0.57083
 C181 C 0.42385 -0.04078 0.54509
 C182 C 0.44311 -0.02257 0.52470
 N183 N 0.47468 -0.02412 0.52773
 H184 H 0.49337 0.00704 0.41978
 H185 H 0.45782 0.04538 0.51580
 H186 H 0.42408 0.07738 0.48024
 H187 H 0.45989 0.03756 0.38221
 H188 H 0.51340 -0.04498 0.55119
 H189 H 0.48102 -0.07798 0.58818
 H190 H 0.39878 -0.03882 0.54275
 H191 H 0.43273 -0.00731 0.50637
 C192 C 0.56535 -0.06004 0.43003
 C193 C 0.56206 0.06016 0.57155
 C194 C 0.43714 -0.06098 0.56863
 C195 C 0.43896 0.05987 0.42820
 C196 C 0.54294 0.54535 0.01347
 H197 H 0.54301 0.54684 -0.01585
 C198 C 0.56209 0.56342 0.03366
 H199 H 0.57668 0.57897 0.01965
 C200 C 0.52328 0.52356 0.06722
 H201 H 0.50797 0.50815 0.08023
 C202 C 0.54204 0.54124 0.08849
 H203 H 0.54138 0.53880 0.11773
 N204 N 0.52449 0.52556 0.03038
 C205 C 0.51284 0.45753 -0.04989
 H206 H 0.48766 0.45625 -0.05108
 C207 C 0.53123 0.43894 -0.07088
 H208 H 0.52000 0.42327 -0.08810
 C209 C 0.55799 0.47895 -0.02504
 H210 H 0.56839 0.49426 -0.00680
 C211 C 0.57723 0.46075 -0.04546
 H212 H 0.60231 0.46278 -0.04323
 Zn213 Zn 0.50017 0.50141 0.00049
 N214 N 0.52641 0.47727 -0.02788
 C215 C 0.47710 0.52345 -0.06631
 N216 N 0.47588 0.52551 -0.02948
 C217 C 0.45744 0.54534 -0.01264
 C218 C 0.43833 0.56338 -0.03290
 C219 C 0.45837 0.54110 -0.08765
 C220 C 0.48746 0.45762 0.05101
 C221 C 0.46907 0.43907 0.07206
 C222 C 0.42308 0.46085 0.04658
 C223 C 0.44234 0.47900 0.02610
 N224 N 0.47391 0.47733 0.02894
 H225 H 0.49240 0.50801 -0.07927
 H226 H 0.45736 0.54687 0.01667
 H227 H 0.42376 0.57896 -0.01894
 H228 H 0.45905 0.53862 -0.11688
 H229 H 0.51264 0.45634 0.05219
 H230 H 0.48028 0.42343 0.08932
 H231 H 0.39800 0.46287 0.04436
 H232 H 0.43194 0.49429 0.00782
 C233 C 0.56390 0.44044 -0.06883
 C234 C 0.56204 0.56130 0.07171
 C235 C 0.43639 0.44057 0.07001
 C236 C 0.43839 0.56120 -0.07094
 C237 C 0.13082 -0.08132 -0.13315
 C238 C 0.12372 -0.11040 -0.13806
 C239 C 0.09672 -0.12198 -0.12203
 C240 C 0.07700 -0.10457 -0.10094
 C241 C 0.20364 -0.17329 -0.21290
 C242 C 0.11119 -0.06390 -0.11207
 C243 C 0.14459 -0.12833 -0.15897
 C244 C 0.16265 -0.14293 -0.17623
 C245 C 0.18446 -0.15953 -0.19615
 C246 C 0.08413 -0.07535 -0.09555
 H247 H 0.15163 -0.07212 -0.14549
 H248 H 0.09107 -0.14450 -0.12556
 H249 H 0.05654 -0.11408 -0.08826
 H250 H 0.11707 -0.04142 -0.10888
 C251 C 0.09625 0.39719 0.35250
 C252 C 0.12327 0.38554 0.36761
 C253 C 0.13042 0.39130 0.40385
 C254 C 0.11086 0.40886 0.42483
 C255 C 0.20313 0.32475 0.28995
 C256 C 0.07661 0.41475 0.37347
 C257 C 0.14417 0.36833 0.34580
 C258 C 0.16224 0.35425 0.32786
 C259 C 0.18401 0.33815 0.30723
 C260 C 0.08383 0.42096 0.40981
 H261 H 0.09056 0.39296 0.32442
 H262 H 0.15125 0.38236 0.41584
 H263 H 0.11681 0.41288 0.45286
 H264 H 0.05616 0.42400 0.36102
 C265 C 0.59832 -0.10261 0.35037
 C266 C 0.62544 -0.11414 0.36537
 C267 C 0.63257 -0.10850 0.40165
 C268 C 0.61287 -0.09117 0.42278
 C269 C 0.70549 -0.17447 0.28734
 C270 C 0.57854 -0.08528 0.37148
 C271 C 0.64644 -0.13116 0.34344
 C272 C 0.66456 -0.14512 0.32541
 C273 C 0.68636 -0.16111 0.30469
 C274 C 0.58572 -0.07920 0.40787
 H275 H 0.59264 -0.10675 0.32227
 H276 H 0.65347 -0.11736 0.41356
 H277 H 0.61880 -0.08725 0.45084
 H278 H 0.55801 -0.07613 0.35912
 C279 C 0.63064 0.39132 -0.09689
 C280 C 0.62340 0.38552 -0.13310
 C281 C 0.59634 0.39714 -0.14814
 C282 C 0.57675 0.41473 -0.12715
 C283 C 0.70320 0.32467 -0.21079
 C284 C 0.61112 0.40891 -0.07589
 C285 C 0.64426 0.36829 -0.15493
 C286 C 0.66231 0.35419 -0.17289
 C287 C 0.68407 0.33808 -0.19352
 C288 C 0.58405 0.42099 -0.09084
 H289 H 0.65150 0.38240 -0.08496
 H290 H 0.59059 0.39288 -0.17619
 H291 H 0.55627 0.42395 -0.13955
 H292 H 0.61714 0.41297 -0.04788
 C293 C -0.13531 0.10182 -0.10196
 C294 C -0.12506 0.11374 -0.13488
 C295 C -0.09439 0.10904 -0.14698
 C296 C -0.07408 0.09234 -0.12630
 C297 C -0.20552 0.17313 -0.21124
 C298 C -0.11506 0.08516 -0.08125
 C299 C -0.14627 0.13044 -0.15635
 C300 C -0.16450 0.14416 -0.17401
 C301 C -0.18638 0.15992 -0.19428
 C302 C -0.08422 0.08016 -0.09321
 H303 H -0.15905 0.10523 -0.09242
 H304 H -0.08620 0.11820 -0.17241
 H305 H -0.05038 0.08917 -0.13603
 H306 H -0.12373 0.07574 -0.05620
 C307 C -0.13340 0.60160 0.39774
 C308 C -0.12290 0.61317 0.36472
 C309 C -0.09226 0.60805 0.35281
 C310 C -0.07222 0.59129 0.37377
 C311 C -0.20256 0.67297 0.28776
 C312 C -0.11343 0.58488 0.41873
 C313 C -0.14383 0.62997 0.34301
 C314 C -0.16186 0.64378 0.32520
 C315 C -0.18355 0.65966 0.30480
 C316 C -0.08261 0.57948 0.40697
 H317 H -0.15712 0.60533 0.40715
 H318 H -0.08388 0.61694 0.32730
 H319 H -0.04853 0.58780 0.36419
 H320 H -0.12229 0.57575 0.44386
 C321 C 0.40773 0.10667 0.35228
 C322 C 0.37708 0.11153 0.36433
 C323 C 0.36676 0.09975 0.39731
 C324 C 0.38693 0.08311 0.41813
 C325 C 0.29680 0.17133 0.28824
 C326 C 0.42797 0.08999 0.37308
 C327 C 0.35596 0.12829 0.34282
 C328 C 0.33778 0.14209 0.32520
 C329 C 0.31593 0.15799 0.30505
 C330 C 0.41777 0.07798 0.40624
 H331 H 0.41597 0.11572 0.32680
 H332 H 0.34304 0.10328 0.40682
 H333 H 0.37822 0.07382 0.44324
 H334 H 0.45167 0.08671 0.36339
 C335 C 0.36645 0.60146 -0.10185
 C336 C 0.37679 0.61306 -0.13492
 C337 C 0.40739 0.60796 -0.14702
 C338 C 0.42755 0.59123 -0.12618
 C339 C 0.29681 0.67281 -0.21147
 C340 C 0.38653 0.58476 -0.08098
 C341 C 0.35576 0.62984 -0.15651
 C342 C 0.33765 0.64364 -0.17422
 C343 C 0.31587 0.65951 -0.19451
 C344 C 0.41731 0.57939 -0.09293
 H345 H 0.34277 0.60517 -0.09231
 H346 H 0.41565 0.61687 -0.17257
 H347 H 0.45120 0.58776 -0.13590
 H348 H 0.37779 0.57561 -0.05581
 C349 C -0.09626 -0.10293 0.14748
 C350 C -0.12342 -0.11451 0.13261
 C351 C -0.13074 -0.10880 0.09641
 C352 C -0.11123 -0.09131 0.07524
 C353 C -0.20332 -0.17473 0.21106
 C354 C -0.07666 -0.08544 0.12633
 C355 C -0.14432 -0.13157 0.15464
 C356 C -0.16239 -0.14552 0.17277
 C357 C -0.18418 -0.16145 0.19360
 C358 C -0.08407 -0.07924 0.09003
 H359 H -0.09043 -0.10713 0.17553
 H360 H -0.15168 -0.11768 0.08460
 H361 H -0.11733 -0.08729 0.04725
 H362 H -0.05612 -0.07622 0.13860
 C363 C -0.13135 0.39179 0.59824
 C364 C -0.12420 0.38606 0.63449
 C365 C -0.09714 0.39767 0.64957
 C366 C -0.07745 0.41517 0.62856
 C367 C -0.20414 0.32540 0.71231
 C368 C -0.11173 0.40929 0.57722
 C369 C -0.14514 0.36890 0.65634
 C370 C -0.16323 0.35485 0.67432
 C371 C -0.18502 0.33879 0.69499
 C372 C -0.08466 0.42135 0.59220
 H373 H -0.15221 0.38288 0.58628
 H374 H -0.09146 0.39346 0.67765
 H375 H -0.05697 0.42439 0.64098
 H376 H -0.11768 0.41329 0.54918
 C377 C 0.40445 -0.10383 0.64823
 C378 C 0.37741 -0.11551 0.63321
 C379 C 0.37030 -0.10996 0.59691
 C380 C 0.38991 -0.09253 0.57579
 C381 C 0.29693 -0.17533 0.71134
 C382 C 0.42415 -0.08640 0.62712
 C383 C 0.35639 -0.13250 0.65518
 C384 C 0.33820 -0.14637 0.67325
 C385 C 0.31624 -0.16219 0.69398
 C386 C 0.41695 -0.08036 0.59073
 H387 H 0.41011 -0.10790 0.67636
 H388 H 0.34945 -0.11892 0.58499
 H389 H 0.38398 -0.08864 0.54772
 H390 H 0.44460 -0.07710 0.63951
 C391 C 0.40394 0.39737 0.14944
 C392 C 0.37688 0.38572 0.13443
 C393 C 0.36963 0.39148 0.09822
 C394 C 0.38914 0.40905 0.07716
 C395 C 0.29713 0.32482 0.21221
 C396 C 0.42354 0.41494 0.12840
 C397 C 0.35602 0.36849 0.15630
 C398 C 0.33799 0.35438 0.17428
 C399 C 0.31624 0.33825 0.19493
 C400 C 0.41623 0.42115 0.09208
 H401 H 0.40971 0.39314 0.17750
 H402 H 0.34876 0.38254 0.08631
 H403 H 0.38312 0.41307 0.04915
 H404 H 0.44403 0.42419 0.14077
 C405 C 0.13283 0.10154 0.10240
 C406 C 0.12266 0.11262 0.13581
 C407 C 0.09215 0.10724 0.14806
 C408 C 0.07193 0.09071 0.12702
 C409 C 0.20300 0.17169 0.21274
 C410 C 0.11268 0.08505 0.08134
 C411 C 0.14377 0.12918 0.15757
 C412 C 0.16196 0.14282 0.17539
 C413 C 0.18384 0.15851 0.19576
 C414 C 0.08200 0.07939 0.09343
 H415 H 0.15643 0.10548 0.09273
 H416 H 0.08402 0.11575 0.17387
 H417 H 0.04836 0.08701 0.13688
 H418 H 0.12129 0.07629 0.05589
 C419 C 0.09235 0.60803 0.64848
 C420 C 0.12300 0.61304 0.63649
 C421 C 0.13341 0.60137 0.60350
 C422 C 0.11333 0.58467 0.58260
 C423 C 0.20312 0.67280 0.71288
 C424 C 0.07221 0.59131 0.62761
 C425 C 0.14403 0.62982 0.65809
 C426 C 0.16217 0.64363 0.67578
 C427 C 0.18399 0.65950 0.69602
 C428 C 0.08250 0.57940 0.59443
 H429 H 0.08405 0.61700 0.67397
 H430 H 0.15713 0.60500 0.59403
 H431 H 0.12211 0.57546 0.55748
 H432 H 0.04852 0.58791 0.63724
 C433 C 0.59245 0.10691 0.64799
 C434 C 0.62309 0.11216 0.63612
 C435 C 0.63365 0.10069 0.60308
 C436 C 0.61375 0.08394 0.58202
 C437 C 0.70248 0.17207 0.71335
 C438 C 0.57248 0.09013 0.62695
 C439 C 0.64394 0.12898 0.65791
 C440 C 0.66191 0.14282 0.67578
 C441 C 0.68353 0.15874 0.69626
 C442 C 0.58294 0.07841 0.59373
 H443 H 0.58402 0.11572 0.67351
 H444 H 0.65736 0.10451 0.59371
 H445 H 0.62266 0.07488 0.55688
 H446 H 0.54880 0.08654 0.63650
 C447 C 0.59318 0.60815 0.14764
 C448 C 0.62378 0.61320 0.13550
 C449 C 0.63408 0.60155 0.10245
 C450 C 0.61395 0.58484 0.08164
 C451 C 0.70397 0.67298 0.21177
 C452 C 0.57298 0.59140 0.12686
 C453 C 0.64486 0.62999 0.15702
 C454 C 0.66302 0.64381 0.17467
 C455 C 0.68485 0.65968 0.19488
 C456 C 0.58317 0.57951 0.09363
 H457 H 0.58495 0.61710 0.17317
 H458 H 0.65776 0.60522 0.09287
 H459 H 0.62266 0.57564 0.05649
 H460 H 0.54933 0.58797 0.13661
   
