data_POSCAR
  _audit_creation_date              2014-09-24
  _audit_creation_method            'ToBaCCo'
  _symmetry_space_group_name_H-M    'P1'
  _symmetry_Int_Tables_number       1
  _symmetry_cell_setting            triclinic
  loop_
  _symmetry_equiv_pos_as_xyz
 x,y,z
_cell_length_a 33.4924
_cell_length_b 33.3663
_cell_length_c 33.7022
_cell_angle_alpha 89.874800
_cell_angle_beta 90.058300
_cell_angle_gamma 90.066900
loop_
  _atom_site_label
  _atom_site_type_symbol
  _atom_site_fract_x
  _atom_site_fract_y
  _atom_site_fract_z
N1 N 0.29207 0.39882 1.37698
 N2 N 0.28896 0.36549 1.39767
 C3 C 0.25572 0.36706 1.42010
 C4 C 0.23755 0.40369 1.41372
 C5 C 0.26152 0.42323 1.38636
 H6 H 0.24583 0.34375 1.44016
 H7 H 0.25629 0.45236 1.37319
 Cu8 Cu 0.33039 0.32483 1.39562
 Cu9 Cu 0.33282 0.40590 1.33613
 Cu10 Cu 0.40519 0.33166 1.32990
 N11 N 0.37217 0.28451 1.39312
 N12 N 0.40216 0.28790 1.36819
 C13 C 0.42747 0.25698 1.37369
 C14 C 0.41235 0.23295 1.40363
 C15 C 0.37724 0.25127 1.41524
 H16 H 0.45462 0.25218 1.35700
 H17 H 0.35715 0.24122 1.43832
 N18 N 0.40318 0.37812 1.29375
 N19 N 0.37614 0.40678 1.29634
 C20 C 0.38113 0.43247 1.26574
 C21 C 0.41262 0.41911 1.24285
 C22 C 0.42594 0.38477 1.26152
 H23 H 0.36206 0.45780 1.25934
 H24 H 0.44946 0.36519 1.25128
 H25 H 0.34469 0.34576 1.32786
 H26 H 0.37589 0.37294 1.36505
 N27 N 1.21581 0.61489 0.87286
 N28 N 1.20801 0.63363 0.90624
 C29 C 1.23710 0.62556 0.93277
 C30 C 1.26445 0.60038 0.91483
 C31 C 1.25005 0.59433 0.87686
 H32 H 1.23855 0.63750 0.96255
 H33 H 1.26361 0.57653 0.85371
 Cu34 Cu 1.16134 0.66783 0.91064
 Cu35 Cu 1.18195 0.61999 0.82616
 Cu36 Cu 1.08719 0.65735 0.84463
 N37 N 1.11903 0.70742 0.90597
 N38 N 1.08918 0.70301 0.88095
 C39 C 1.06420 0.73452 0.88447
 C40 C 1.07975 0.76018 0.91287
 C41 C 1.11447 0.74194 0.92589
 H42 H 1.03744 0.73887 0.86698
 H43 H 1.13512 0.75314 0.94796
 N44 N 1.10000 0.62447 0.79780
 N45 N 1.13672 0.61282 0.78949
 C46 C 1.13662 0.59338 0.75454
 C47 C 1.09792 0.59236 0.74046
 C48 C 1.07539 0.61225 0.76858
 H49 H 1.16259 0.58004 0.74084
 H50 H 1.04366 0.61816 0.76743
 H51 H 1.14579 0.66884 0.83986
 H52 H 1.13420 0.61947 0.86323
 N53 N 0.70209 -0.09319 0.11854
 N54 N 0.70000 -0.12141 0.09142
 C55 C 0.73190 -0.11836 0.06717
 C56 C 0.75509 -0.08664 0.08005
 C57 C 0.73530 -0.07136 0.11260
 H58 H 0.73860 -0.13846 0.04296
 H59 H 0.74501 -0.04687 0.13125
 Cu60 Cu 0.65726 -0.16084 0.09339
 Cu61 Cu 0.66335 -0.08826 0.16146
 Cu62 Cu 0.58769 -0.15964 0.16453
 N63 N 0.61589 -0.20168 0.09571
 N64 N 0.58807 -0.20049 0.12320
 C65 C 0.56400 -0.23263 0.11930
 C66 C 0.57791 -0.25539 0.08801
 C67 C 0.61079 -0.23487 0.07365
 H68 H 0.53930 -0.23978 0.13873
 H69 H 0.63006 -0.24404 0.04960
 N70 N 0.59273 -0.11596 0.20358
 N71 N 0.62127 -0.08861 0.20238
 C72 C 0.61779 -0.06455 0.23430
 C73 C 0.58581 -0.07769 0.25664
 C74 C 0.57059 -0.11018 0.23634
 H75 H 0.63797 -0.04038 0.24175
 H76 H 0.54598 -0.12898 0.24560
 H77 H 0.64840 -0.14834 0.16396
 H78 H 0.61636 -0.11542 0.13256
 N79 N -0.20119 1.09109 -0.38403
 N80 N -0.19998 1.12023 -0.41035
 C81 C -0.23239 1.11774 -0.43400
 C82 C -0.25507 1.08537 -0.42153
 C83 C -0.23429 1.06909 -0.38993
 H84 H -0.23958 1.13864 -0.45752
 H85 H -0.24316 1.04380 -0.37181
 Cu86 Cu -0.15710 1.15978 -0.40944
 Cu87 Cu -0.16085 1.08549 -0.34258
 Cu88 Cu -0.12095 1.17786 -0.31828
 N89 N -0.12260 1.20552 -0.39900
 N90 N -0.11054 1.21370 -0.36275
 C91 C -0.09065 1.24877 -0.36288
 C92 C -0.08938 1.26285 -0.40149
 C93 C -0.10981 1.23457 -0.42373
 H94 H -0.07764 1.26263 -0.33690
 H95 H -0.11610 1.23576 -0.45521
 N96 N -0.11881 1.13084 -0.28264
 N97 N -0.13286 1.09520 -0.29234
 C98 C -0.12474 1.06902 -0.26292
 C99 C -0.10429 1.08924 -0.23345
 C100 C -0.10106 1.12828 -0.24690
 H101 H -0.13272 1.03760 -0.26316
 H102 H -0.08605 1.15280 -0.23213
 H103 H -0.16903 1.14490 -0.33944
 H104 H -0.11783 1.13027 -0.35577
 N105 N 0.71671 0.60733 0.63108
 N106 N 0.70913 0.62680 0.59796
 C107 C 0.73959 0.62119 0.57240
 C108 C 0.76751 0.59679 0.59069
 C109 C 0.75203 0.58863 0.62778
 H110 H 0.74130 0.63385 0.54287
 H111 H 0.76527 0.56988 0.65044
 Cu112 Cu 0.66067 0.65825 0.59200
 Cu113 Cu 0.67937 0.60461 0.67511
 Cu114 Cu 0.59211 0.65863 0.66453
 N115 N 0.62171 0.70126 0.59694
 N116 N 0.59637 0.70236 0.62668
 C117 C 0.57479 0.73628 0.62450
 C118 C 0.58703 0.75730 0.59135
 C119 C 0.61666 0.73421 0.57433
 H120 H 0.55165 0.74476 0.64521
 H121 H 0.63396 0.74138 0.54817
 N122 N 0.60240 0.62333 0.70995
 N123 N 0.63690 0.60507 0.71549
 C124 C 0.63567 0.58508 0.75024
 C125 C 0.59844 0.59063 0.76684
 C126 C 0.57803 0.61493 0.74058
 H127 H 0.65953 0.56678 0.76207
 H128 H 0.54794 0.62617 0.74386
 H129 H 0.62960 0.61386 0.64154
 H130 H 0.65308 0.65941 0.66370
 N131 N 0.79208 0.40292 0.12899
 N132 N 0.79100 0.37193 0.10494
 C133 C 0.75888 0.37506 0.08109
 C134 C 0.73934 0.41020 0.09021
 C135 C 0.76121 0.42733 0.12053
 H136 H 0.74991 0.35324 0.05915
 H137 H 0.75390 0.45434 0.13664
 Cu138 Cu 0.83099 0.33006 0.10808
 Cu139 Cu 0.82968 0.40619 0.17322
 Cu140 Cu 0.89675 0.32725 0.18271
 N141 N 0.87122 0.28835 0.11119
 N142 N 0.89515 0.28594 0.14205
 C143 C 0.91827 0.25318 0.13850
 C144 C 0.90880 0.23464 0.10316
 C145 C 0.87897 0.25770 0.08644
 H146 H 0.94099 0.24406 0.15947
 H147 H 0.86361 0.25200 0.05878
 N148 N 0.89416 0.37220 0.22031
 N149 N 0.86976 0.40300 0.21618
 C150 C 0.87584 0.42868 0.24650
 C151 C 0.90540 0.41309 0.27064
 C152 C 0.91630 0.37742 0.25319
 H153 H 0.85946 0.45617 0.25121
 H154 H 0.93862 0.35669 0.26397
 H155 H 0.87450 0.37294 0.14746
 H156 H 0.83747 0.34525 0.17847
 N157 N 0.28551 0.10634 0.86991
 N158 N 0.28586 0.13654 0.89491
 C159 C 0.25382 0.13369 0.91894
 C160 C 0.23297 0.09945 0.90886
 C161 C 0.25391 0.08270 0.87781
 H162 H 0.24636 0.15456 0.94229
 H163 H 0.24603 0.05596 0.86149
 Cu164 Cu 0.32893 0.17575 0.89403
 Cu165 Cu 0.32424 0.10144 0.82714
 Cu166 Cu 0.40050 0.17185 0.82430
 N167 N 0.37288 0.21395 0.89332
 N168 N 0.39954 0.21355 0.86469
 C169 C 0.42447 0.24492 0.86924
 C170 C 0.41329 0.26543 0.90297
 C171 C 0.38063 0.24497 0.91768
 H172 H 0.44900 0.25218 0.84965
 H173 H 0.36310 0.25302 0.94337
 N174 N 0.39622 0.12730 0.78617
 N175 N 0.36619 0.10159 0.78621
 C176 C 0.36994 0.07694 0.75482
 C177 C 0.40435 0.08711 0.73473
 C178 C 0.42043 0.11893 0.75538
 H179 H 0.34932 0.05324 0.74710
 H180 H 0.44703 0.13557 0.74762
 H181 H 0.37057 0.12903 0.85714
 H182 H 0.33966 0.16139 0.82393
 N183 N 0.22049 0.88641 0.36330
 N184 N 0.22206 0.85437 0.38598
 C185 C 0.25212 0.85844 0.41221
 C186 C 0.26979 0.89532 0.40591
 C187 C 0.24902 0.91237 0.37471
 H188 H 0.26054 0.83626 0.43412
 H189 H 0.25533 0.94066 0.36028
 Cu190 Cu 0.18462 0.81051 0.37930
 Cu191 Cu 0.18486 0.88911 0.31783
 Cu192 Cu 0.10153 0.82785 0.32494
 N193 N 0.13726 0.77764 0.38437
 N194 N 0.10448 0.78472 0.36404
 C195 C 0.07692 0.75676 0.37342
 C196 C 0.09351 0.73110 0.40120
 C197 C 0.13171 0.74528 0.40748
 H198 H 0.04746 0.75467 0.36043
 H199 H 0.15400 0.73267 0.42710
 N200 N 0.10571 0.87270 0.28672
 N201 N 0.13846 0.89441 0.28265
 C202 C 0.13451 0.91861 0.25091
 C203 C 0.09734 0.91217 0.23452
 C204 C 0.07969 0.88313 0.25797
 H205 H 0.15726 0.93885 0.24003
 H206 H 0.05108 0.86897 0.25290
 H207 H 0.14244 0.86394 0.35394
 H208 H 0.16125 0.83098 0.31336
 Zn209 Zn 0.00533 1.05019 -0.02285
 Zn210 Zn -0.03372 0.96927 -0.03182
 Zn211 Zn 0.04659 0.97755 0.00737
 Zn212 Zn -0.02534 1.00795 0.04834
 O213 O -0.00191 1.00112 0.00008
 O214 O -0.01959 1.05392 -0.06929
 O215 O -0.00942 0.92283 -0.04572
 O216 O 0.08697 1.00606 -0.01299
 O217 O -0.04799 0.99442 -0.07735
 O218 O 0.05674 1.06157 -0.03290
 O219 O 0.04913 0.92986 -0.01578
 O220 O 0.00280 0.98733 0.08847
 O221 O -0.08003 0.95535 -0.00773
 O222 O 0.05841 0.96832 0.05857
 O223 O -0.07296 0.98487 0.05072
 O224 O -0.03405 1.05932 0.06059
 O225 O -0.01382 1.09060 0.00625
 C226 C -0.04067 1.02982 -0.08946
 C227 C 0.02507 0.90961 -0.03680
 C228 C 0.08805 1.04062 -0.02867
 C229 C 0.03747 0.97224 0.08967
 C230 C -0.09321 0.96406 0.02656
 C231 C -0.02927 1.09115 0.04055
 Zn232 Zn 0.49369 -0.05024 0.47611
 Zn233 Zn 0.52504 -0.01031 0.54808
 Zn234 Zn 0.53216 0.03078 0.46875
 Zn235 Zn 0.45219 0.02096 0.50832
 O236 O 0.50090 -0.00201 0.50022
 O237 O 0.51467 -0.09117 0.50302
 O238 O 0.57269 0.01311 0.55041
 O239 O 0.54542 0.00739 0.42224
 O240 O 0.53432 -0.06230 0.55879
 O241 O 0.51596 -0.05177 0.42847
 O242 O 0.57867 0.04444 0.49263
 O243 O 0.44848 0.06862 0.48496
 O244 O 0.49719 0.00949 0.58890
 O245 O 0.50707 0.07689 0.45550
 O246 O 0.44149 0.02977 0.55966
 O247 O 0.41156 -0.00791 0.48883
 O248 O 0.44241 -0.06246 0.46779
 C249 C 0.53019 -0.09318 0.53725
 C250 C 0.59243 0.03483 0.52653
 C251 C 0.53648 -0.02696 0.40859
 C252 C 0.47218 0.08924 0.46385
 C253 C 0.46272 0.02510 0.59051
 C254 C 0.41081 -0.04230 0.47293
 Zn255 Zn 1.01201 0.44919 0.48272
 Zn256 Zn 1.05276 0.52161 0.51379
 Zn257 Zn 0.97248 0.52978 0.47457
 Zn258 Zn 0.98077 0.48993 0.55440
 O259 O 1.00437 0.49775 0.50626
 O260 O 1.06359 0.43792 0.47327
 O261 O 1.05580 0.56861 0.48937
 O262 O 0.95756 0.50502 0.42933
 O263 O 1.09343 0.49329 0.49406
 O264 O 0.98796 0.44641 0.43581
 O265 O 0.99725 0.57550 0.45949
 O266 O 0.93387 0.51457 0.55743
 O267 O 1.06384 0.53173 0.56496
 O268 O 0.92698 0.54473 0.49916
 O269 O 1.00927 0.50958 0.59484
 O270 O 0.97069 0.43814 0.56533
 O271 O 0.99184 0.40833 0.51065
 C272 C 1.09476 0.45904 0.47794
 C273 C 1.03205 0.58835 0.46755
 C274 C 0.96610 0.47037 0.41628
 C275 C 0.91414 0.53647 0.53370
 C276 C 1.04317 0.52648 0.59608
 C277 C 0.97539 0.40688 0.54447
 Zn278 Zn 0.47755 0.49396 0.95364
 Zn279 Zn 0.54886 0.52665 0.99416
 Zn280 Zn 0.46855 0.53336 1.03339
 Zn281 Zn 0.50939 0.45346 1.02546
 O282 O 0.50093 0.50196 1.00182
 O283 O 0.50585 0.51371 0.91315
 O284 O 0.55048 0.57466 1.01647
 O285 O 0.42227 0.54668 1.00892
 O286 O 0.56054 0.53539 0.94304
 O287 O 0.43021 0.51762 0.95037
 O288 O 0.49204 0.58033 1.04670
 O289 O 0.48626 0.45048 1.07288
 O290 O 0.58988 0.49958 1.01469
 O291 O 0.45536 0.50880 1.07954
 O292 O 0.56124 0.44314 1.03448
 O293 O 0.48983 0.41220 0.99750
 O294 O 0.46872 0.44219 0.94271
 C295 C 0.54003 0.52998 0.91189
 C296 C 0.52608 0.59440 1.03740
 C297 C 0.40980 0.53862 0.97418
 C298 C 0.46484 0.47440 1.09284
 C299 C 0.59195 0.46502 1.03022
 C300 C 0.47393 0.41081 0.96335
 N301 N 1.17821 0.39253 0.45170
 C302 C 1.20228 0.41761 0.43069
 N303 N 1.19107 0.45644 0.42612
 N304 N 1.15723 0.46972 0.44209
 C305 C 1.13297 0.44452 0.46261
 N306 N 1.14392 0.40561 0.46696
 N307 N 0.31385 0.59290 0.96880
 C308 C 0.30167 0.58402 0.93133
 N309 N 0.32481 0.55989 0.90868
 N310 N 0.35893 0.54528 0.92275
 C311 C 0.37129 0.55416 0.96006
 N312 N 0.34812 0.57823 0.98294
 N313 N -0.19027 0.91152 0.03095
 C314 C -0.20585 0.92650 0.06507
 N315 N -0.18435 0.95367 0.08596
 N316 N -0.14856 0.96538 0.07342
 C317 C -0.13290 0.95055 0.03938
 N318 N -0.15443 0.92346 0.01821
 N319 N 0.68914 0.08815 0.53051
 C320 C 0.70558 0.07235 0.56397
 N321 N 0.68471 0.04443 0.58463
 N322 N 0.64874 0.03277 0.57249
 C323 C 0.63224 0.04839 0.53909
 N324 N 0.65313 0.07625 0.51818
 N325 N 0.40815 0.17693 0.44732
 C326 C 0.42831 0.19759 0.41898
 N327 N 0.46377 0.18288 0.40586
 N328 N 0.47834 0.14866 0.42046
 C329 C 0.45786 0.12793 0.44861
 N330 N 0.42256 0.14274 0.46172
 N331 N 0.94167 0.32616 0.61123
 C332 C 0.92789 0.29840 0.58510
 N333 N 0.93074 0.30622 0.54565
 N334 N 0.94679 0.34041 0.53282
 C335 C 0.96005 0.36834 0.55895
 N336 N 0.95708 0.36069 0.59840
 N337 N 0.03021 0.81235 -0.08901
 C338 C 0.06507 0.79718 -0.07466
 N339 N 0.08608 0.81906 -0.04793
 N340 N 0.07304 0.85470 -0.03613
 C341 C 0.03833 0.86995 -0.05038
 N342 N 0.01699 0.84808 -0.07699
 N343 N 0.58353 0.68763 1.04606
 C344 C 0.56375 0.70764 1.07497
 N345 N 0.53076 0.69047 1.09132
 N346 N 0.51816 0.65455 1.07921
 C347 C 0.53834 0.63446 1.05054
 N348 N 0.57115 0.65172 1.03421
 N349 N 0.41206 0.46951 1.18901
 C350 C 0.42657 0.43475 1.20442
 N351 N 0.45367 0.41364 1.18316
 N352 N 0.46571 0.42656 1.14778
 C353 C 0.45127 0.46119 1.13224
 N354 N 0.42430 0.48259 1.15357
 N355 N 0.58791 -0.02922 0.31178
 C356 C 0.57276 -0.06333 0.29567
 N357 N 0.54577 -0.08491 0.31672
 N358 N 0.53441 -0.07304 0.35260
 C359 C 0.54944 -0.03902 0.36880
 N360 N 0.57632 -0.01715 0.34770
 N361 N -0.09449 1.03442 -0.18511
 C362 C -0.08793 1.07308 -0.19622
 N363 N -0.06571 1.09694 -0.17230
 N364 N -0.05060 1.08282 -0.13855
 C365 C -0.05713 1.04428 -0.12730
 N366 N -0.07942 1.02027 -0.15118
 N367 N 1.04487 0.56454 0.69840
 C368 C 1.08393 0.57420 0.70330
 N369 N 1.10982 0.56711 0.67313
 N370 N 1.09701 0.55146 0.63906
 C371 C 1.05794 0.54173 0.63419
 N372 N 1.03215 0.54843 0.66453
 N373 N 0.82839 0.55738 0.59796
 C374 C 0.80546 0.58153 0.57498
 N375 N 0.81824 0.59093 0.53783
 N376 N 0.85285 0.57661 0.52429
 C377 C 0.87575 0.55241 0.54747
 N378 N 0.86284 0.54313 0.58449
 N379 N 0.69320 0.46423 1.07224
 C380 C 0.70150 0.42447 1.07354
 N381 N 0.67386 0.39803 1.05998
 N382 N 0.63888 0.41087 1.04606
 C383 C 0.63067 0.45066 1.04453
 N384 N 0.65852 0.47711 1.05768
 N385 N 0.18833 1.04437 -0.07258
 C386 C 0.19586 1.08432 -0.07354
 N387 N 0.16807 1.10996 -0.05896
 N388 N 0.13369 1.09611 -0.04444
 C389 C 0.12628 1.05611 -0.04331
 N390 N 0.15430 1.03049 -0.05742
 N391 N 0.31090 -0.04828 0.42835
 C392 C 0.30526 -0.08847 0.42568
 N393 N 0.33381 -0.11344 0.44004
 N394 N 0.36722 -0.09872 0.45583
 C395 C 0.37286 -0.05853 0.45852
 N396 N 0.34400 -0.03357 0.44476
 N397 N 0.57217 -0.19482 0.53819
 C398 C 0.57202 -0.20389 0.57743
 N399 N 0.55783 -0.17645 0.60356
 N400 N 0.54463 -0.14098 0.59089
 C401 C 0.54448 -0.13208 0.55158
 N402 N 0.55833 -0.15967 0.52547
 N403 N 1.09796 0.67322 0.44526
 C404 C 1.07608 0.69497 0.41914
 N405 N 1.03884 0.68204 0.40938
 N406 N 1.02421 0.64833 0.42511
 C407 C 1.04639 0.62649 0.45111
 N408 N 1.08342 0.63965 0.46091
 N409 N -0.05935 1.16906 0.11144
 C410 C -0.07367 1.19799 0.08691
 N411 N -0.07229 1.19209 0.04711
 N412 N -0.05710 1.15841 0.03234
 C413 C -0.04331 1.12923 0.05686
 N414 N -0.04480 1.13507 0.09668
 N415 N 0.44640 0.33042 0.89394
 C416 C 0.43078 0.30243 0.91876
 N417 N 0.43035 0.30981 0.95835
 N418 N 0.44513 0.34395 0.97263
 C419 C 0.46022 0.37220 0.94777
 N420 N 0.46051 0.36489 0.90816
 N421 N 0.54371 0.56869 0.80986
 C422 C 0.58348 0.57389 0.80421
 N423 N 0.60908 0.56374 0.83382
 N424 N 0.59531 0.54943 0.86813
 C425 C 0.55552 0.54408 0.87371
 N426 N 0.52999 0.55381 0.84392
 N427 N 0.39402 0.05439 0.67043
 C428 C 0.41956 0.06943 0.69794
 N429 N 0.45934 0.06892 0.69037
 N430 N 0.47312 0.05379 0.65650
 C431 C 0.44756 0.03924 0.62875
 N432 N 0.40775 0.03992 0.63624
 N433 N 0.04184 0.93166 0.19106
 C434 C 0.08176 0.92921 0.19748
 N435 N 0.10713 0.94160 0.16853
 N436 N 0.09309 0.95550 0.13416
 C437 C 0.05316 0.95810 0.12781
 N438 N 0.02780 0.94615 0.15694
 N439 N 0.90956 0.46531 0.32229
 C440 C 0.92131 0.42914 0.30799
 N441 N 0.94796 0.40724 0.32916
 N442 N 0.96222 0.42075 0.36344
 C443 C 0.95052 0.45677 0.37788
 N444 N 0.92397 0.47894 0.35666
   
