data_POSCAR
  _audit_creation_date              2014-09-24
  _audit_creation_method            'ToBaCCo'
  _symmetry_space_group_name_H-M    'P1'
  _symmetry_Int_Tables_number       1
  _symmetry_cell_setting            triclinic
  loop_
  _symmetry_equiv_pos_as_xyz
 x,y,z
_cell_length_a 45.0783
_cell_length_b 43.7964
_cell_length_c 43.8045
_cell_angle_alpha 94.213800
_cell_angle_beta 93.027900
_cell_angle_gamma 93.499200
loop_
  _atom_site_label
  _atom_site_type_symbol
  _atom_site_fract_x
  _atom_site_fract_y
  _atom_site_fract_z
N1 N 0.21587 1.27832 0.19571
 N2 N 0.19526 1.27716 0.21583
 C3 C 0.17519 1.29779 0.20977
 C4 C 0.18369 1.31251 0.18445
 C5 C 0.20968 1.29973 0.17620
 H6 H 0.15535 1.30117 0.22213
 H7 H 0.22253 1.30486 0.15683
 Cu8 Cu 0.19544 1.24708 0.24637
 Cu9 Cu 0.24777 1.25030 0.19464
 Cu10 Cu 0.24853 1.19655 0.24897
 N11 N 0.19607 1.21682 0.27673
 N12 N 0.21698 1.19719 0.27766
 C13 C 0.21124 1.17763 0.29924
 C14 C 0.18521 1.18531 0.31236
 C15 C 0.17624 1.21038 0.29769
 H16 H 0.22435 1.15852 0.30417
 H17 H 0.15620 1.22223 0.30125
 N18 N 0.27849 1.19955 0.21798
 N19 N 0.27819 1.22000 0.19728
 C20 C 0.30005 1.21480 0.17811
 C21 C 0.31467 1.18989 0.18715
 C22 C 0.30055 1.18082 0.21250
 H23 H 0.30427 1.22732 0.15824
 H24 H 0.30524 1.16121 0.22514
 H25 H 0.22478 1.21469 0.21364
 H26 H 0.24845 1.24228 0.24050
 N27 N 0.79594 0.73901 0.15381
 N28 N 0.81071 0.73532 0.17983
 C29 C 0.83005 0.71347 0.17519
 C30 C 0.82725 0.70291 0.14461
 C31 C 0.80538 0.71954 0.13166
 H32 H 0.84548 0.70629 0.19260
 H33 H 0.79738 0.71798 0.10785
 Cu34 Cu 0.80469 0.76041 0.21703
 Cu35 Cu 0.76638 0.76959 0.15061
 Cu36 Cu 0.76284 0.82103 0.21408
 N37 N 0.80747 0.79297 0.24977
 N38 N 0.79089 0.81658 0.24861
 C39 C 0.79868 0.83673 0.27281
 C40 C 0.82157 0.82522 0.28986
 C41 C 0.82648 0.79728 0.27470
 H42 H 0.78944 0.85879 0.27684
 H43 H 0.84350 0.78197 0.28052
 N44 N 0.73659 0.82160 0.17677
 N45 N 0.73802 0.80223 0.15240
 C46 C 0.71791 0.80917 0.13050
 C47 C 0.70326 0.83406 0.14174
 C48 C 0.71560 0.84131 0.17107
 H49 H 0.71433 0.79725 0.10797
 H50 H 0.70989 0.85987 0.18689
 H51 H 0.78960 0.79905 0.18357
 H52 H 0.75704 0.77559 0.19622
 N53 N 0.79464 1.24732 -0.18542
 N54 N 0.81484 1.24665 -0.20600
 C55 C 0.83329 1.27213 -0.20116
 C56 C 0.82416 1.28958 -0.17622
 C57 C 0.79952 1.27323 -0.16685
 H58 H 0.85294 1.27684 -0.21360
 H59 H 0.78720 1.27889 -0.14690
 Cu60 Cu 0.81727 1.21077 -0.23444
 Cu61 Cu 0.76600 1.21284 -0.18179
 Cu62 Cu 0.77052 1.14825 -0.23189
 N63 N 0.81942 1.17474 -0.26272
 N64 N 0.80136 1.15017 -0.26148
 C65 C 0.80865 1.12822 -0.28247
 C66 C 0.83264 1.13974 -0.29753
 C67 C 0.83882 1.16930 -0.28449
 H68 H 0.79771 1.10547 -0.28612
 H69 H 0.85657 1.18532 -0.29006
 N70 N 0.74085 1.15099 -0.20035
 N71 N 0.73903 1.17575 -0.18159
 C72 C 0.71727 1.17048 -0.16239
 C73 C 0.70485 1.14106 -0.16932
 C74 C 0.72024 1.12929 -0.19350
 H75 H 0.71120 1.18659 -0.14424
 H76 H 0.71692 1.10648 -0.20486
 H77 H 0.79224 1.17899 -0.19890
 H78 H 0.76565 1.19474 -0.22686
 N79 N 0.17776 0.74010 -0.17929
 N80 N 0.15383 0.74288 -0.19711
 C81 C 0.13221 0.72227 -0.19021
 C82 C 0.14332 0.70585 -0.16686
 C83 C 0.17225 0.71772 -0.16054
 H84 H 0.10994 0.71967 -0.20093
 H85 H 0.18790 0.71097 -0.14310
 Cu86 Cu 0.15323 0.77392 -0.22678
 Cu87 Cu 0.21379 0.76678 -0.18019
 Cu88 Cu 0.21372 0.82139 -0.23344
 N89 N 0.15378 0.80429 -0.25714
 N90 N 0.17767 0.82252 -0.25970
 C91 C 0.17220 0.84161 -0.28170
 C92 C 0.14330 0.83510 -0.29356
 C93 C 0.13221 0.81124 -0.27753
 H94 H 0.18790 0.85928 -0.28827
 H95 H 0.11004 0.80011 -0.28030
 N96 N 0.24807 0.81674 -0.20482
 N97 N 0.24810 0.79590 -0.18452
 C98 C 0.27350 0.80018 -0.16666
 C99 C 0.29013 0.82491 -0.17613
 C100 C 0.27344 0.83480 -0.20040
 H101 H 0.27883 0.78740 -0.14712
 H102 H 0.27873 0.85474 -0.21274
 H103 H 0.19349 0.80386 -0.19662
 H104 H 0.20743 0.77561 -0.22563
 C105 C 0.47885 1.03229 0.03078
 C106 C 0.49895 1.01080 0.04711
 C107 C 0.51269 0.99116 0.02772
 C108 C 0.50490 0.99472 -0.00643
 C109 C 0.49905 1.04837 0.00907
 C110 C 0.51279 1.02884 -0.01042
 C111 C 0.45726 1.01091 0.00984
 C112 C 0.47066 0.99123 -0.00971
 H113 H 0.50258 1.01160 0.07179
 H114 H 0.51594 0.97870 -0.02233
 H115 H 0.50263 1.07310 0.00973
 H116 H 0.43331 1.01144 0.01061
 C117 C 0.03056 0.47749 1.03208
 C118 C 0.04686 0.49790 1.01060
 C119 C 0.02848 0.51242 0.99155
 C120 C -0.00483 0.50505 0.99574
 C121 C 0.00997 0.49877 1.04899
 C122 C -0.00857 0.51325 1.03005
 C123 C 0.00960 0.45560 1.01096
 C124 C -0.00896 0.46981 0.99187
 H125 H 0.07091 0.50097 1.01100
 H126 H -0.01991 0.51675 0.98021
 H127 H 0.01028 0.50231 1.07373
 H128 H 0.00948 0.43089 1.01133
 C129 C 1.03242 0.02846 0.47588
 C130 C 1.01087 0.04488 0.49644
 C131 C 0.99232 0.02557 0.51079
 C132 C 0.99697 -0.00862 0.50315
 C133 C 1.04867 0.00776 0.49691
 C134 C 1.03026 -0.01167 0.51128
 C135 C 1.01241 0.00649 0.45385
 C136 C 0.99380 -0.01294 0.46791
 H137 H 1.01065 0.06961 0.49975
 H138 H 0.98188 -0.02446 0.51472
 H139 H 1.07268 0.00897 0.50051
 H140 H 1.01275 0.00679 0.42916
 N141 N 0.12675 0.36309 1.16393
 C142 C 0.13722 0.37419 1.13821
 N143 N 0.16351 0.36512 1.12828
 N144 N 0.17880 0.34542 1.14354
 C145 C 0.16830 0.33407 1.16922
 N146 N 0.14205 0.34340 1.17920
 C147 C 0.11999 0.39407 1.12084
 C148 C 0.10518 0.41010 1.10578
 C149 C 0.08716 0.42836 1.08734
 N150 N 0.08795 0.42556 1.05639
 N151 N 0.07032 0.44148 1.03908
 C152 C 0.05125 0.46074 1.05212
 N153 N 0.05063 0.46356 1.08319
 N154 N 0.06827 0.44763 1.10050
 N155 N -0.11751 0.64559 1.13165
 C156 C -0.12167 0.63807 1.10110
 N157 N -0.14284 0.65171 1.08474
 N158 N -0.15929 0.67229 1.09858
 C159 C -0.15510 0.67988 1.12921
 N160 N -0.13393 0.66613 1.14547
 C161 C -0.10354 0.61617 1.08646
 C162 C -0.08764 0.59776 1.07529
 C163 C -0.06795 0.57583 1.06343
 N164 N -0.06610 0.56980 1.03279
 N165 N -0.04731 0.54976 1.02211
 C166 C -0.02972 0.53512 1.04169
 N167 N -0.03172 0.54125 1.07234
 N168 N -0.05048 0.56124 1.08301
 N169 N -0.11786 0.35119 0.84594
 C170 C -0.12748 0.36347 0.87267
 N171 N -0.15361 0.35223 0.88271
 N172 N -0.16954 0.32932 0.86659
 C173 C -0.15980 0.31676 0.83997
 N174 N -0.13378 0.32828 0.82982
 C175 C -0.10854 0.38533 0.89187
 C176 C -0.09177 0.40208 0.90880
 C177 C -0.07087 0.41989 0.92984
 N178 N -0.06894 0.45101 0.93130
 N179 N -0.04925 0.46705 0.95103
 C180 C -0.03086 0.45246 0.96991
 N181 N -0.03295 0.42132 0.96828
 N182 N -0.05257 0.40534 0.94862
 N183 N 0.08452 0.65177 0.85695
 C184 C 0.09907 0.63860 0.87997
 N185 N 0.12807 0.64733 0.88730
 N186 N 0.14213 0.66861 0.87218
 C187 C 0.12768 0.68191 0.84918
 N188 N 0.09861 0.67309 0.84179
 C189 C 0.08415 0.61602 0.89690
 C190 C 0.07291 0.59712 0.91214
 C191 C 0.06118 0.57473 0.93142
 N192 N 0.08007 0.55898 0.94840
 N193 N 0.06960 0.53897 0.96727
 C194 C 0.03984 0.53398 0.96989
 N195 N 0.02093 0.54973 0.95274
 N196 N 0.03142 0.56981 0.93384
 N197 N 1.16575 0.12838 0.36476
 C198 C 1.13929 0.13762 0.37400
 N199 N 1.12849 0.16319 0.36315
 N200 N 1.14364 0.17897 0.34352
 C201 C 1.17006 0.16966 0.33399
 N202 N 1.18090 0.14415 0.34512
 C203 C 1.12214 0.11963 0.39369
 C204 C 1.10734 0.10410 0.40953
 C205 C 1.08926 0.08517 0.42755
 N206 N 1.06953 0.09777 0.44625
 N207 N 1.05180 0.08000 0.46191
 C208 C 1.05315 0.04901 0.45937
 N209 N 1.07306 0.03652 0.44068
 N210 N 1.09078 0.05429 0.42503
 N211 N 1.12893 -0.11157 0.64929
 C212 C 1.10018 -0.11972 0.64012
 N213 N 1.08577 -0.14320 0.65300
 N214 N 1.09974 -0.15802 0.67447
 C215 C 1.12858 -0.14984 0.68375
 N216 N 1.14287 -0.12636 0.67071
 C217 C 1.08543 -0.10329 0.61723
 C218 C 1.07432 -0.08851 0.59801
 C219 C 1.06272 -0.06980 0.57520
 N220 N 1.03297 -0.06857 0.56945
 N221 N 1.02256 -0.05029 0.54888
 C222 C 1.04156 -0.03262 0.53343
 N223 N 1.07131 -0.03406 0.53925
 N224 N 1.08170 -0.05230 0.55976
 N225 N 0.84886 -0.11610 0.34851
 C226 C 0.87271 -0.12899 0.36112
 N227 N 0.87889 -0.15766 0.35057
 N228 N 0.86182 -0.17289 0.32797
 C229 C 0.83812 -0.15988 0.31500
 N230 N 0.83181 -0.13130 0.32591
 C231 C 0.89291 -0.11116 0.38287
 C232 C 0.91049 -0.09517 0.39964
 C233 C 0.93208 -0.07497 0.41758
 N234 N 0.95174 -0.05724 0.40319
 N235 N 0.97145 -0.03775 0.41930
 C236 C 0.97224 -0.03522 0.45042
 N237 N 0.95255 -0.05311 0.46484
 N238 N 0.93276 -0.07266 0.44868
 N239 N 0.85596 0.08091 0.64816
 C240 C 0.87957 0.09582 0.63652
 N241 N 0.88722 0.12534 0.64674
 N242 N 0.87183 0.13955 0.66799
 C243 C 0.84822 0.12476 0.67982
 N244 N 0.84052 0.09516 0.66946
 C245 C 0.89674 0.08077 0.61394
 C246 C 0.91220 0.06952 0.59508
 C247 C 0.93172 0.05788 0.57280
 N248 N 0.94846 0.07770 0.55746
 N249 N 0.96751 0.06735 0.53756
 C250 C 0.97056 0.03678 0.53229
 N251 N 0.95366 0.01694 0.54763
 N252 N 0.93458 0.02731 0.56760
 N253 N 0.36836 1.13306 0.16593
 C254 C 0.37828 1.14331 0.13960
 N255 N 0.36784 1.16929 0.12929
 N256 N 0.34799 1.18449 0.14479
 C257 C 0.33788 1.17418 0.17108
 N258 N 0.34851 1.14826 0.18143
 C259 C 0.39807 1.12583 0.12183
 C260 C 0.41391 1.11063 0.10641
 C261 C 0.43180 1.09194 0.08752
 N262 N 0.42953 1.09275 0.05662
 N263 N 0.44485 1.07422 0.03885
 C264 C 0.46296 1.05420 0.05135
 N265 N 0.46528 1.05358 0.08236
 N266 N 0.44994 1.07212 0.10013
 N267 N 0.65041 1.08203 -0.14613
 C268 C 0.63825 1.09730 -0.12229
 N269 N 0.64781 1.12685 -0.11417
 N270 N 0.66891 1.14074 -0.12934
 C271 C 0.68120 1.12557 -0.15317
 N272 N 0.67155 1.09595 -0.16133
 C273 C 0.61576 1.08261 -0.10538
 C274 C 0.59695 1.07165 -0.09012
 C275 C 0.57470 1.06033 -0.07080
 N276 N 0.55975 1.08040 -0.05343
 N277 N 0.53985 1.07032 -0.03450
 C278 C 0.53418 1.03978 -0.03221
 N279 N 0.54913 1.01969 -0.04976
 N280 N 0.56909 1.02979 -0.06872
 N281 N 0.35227 0.84550 -0.11896
 C282 C 0.36405 0.87198 -0.12888
 N283 N 0.35225 0.88233 -0.15499
 N284 N 0.32928 0.86678 -0.17062
 C285 C 0.31722 0.84042 -0.16057
 N286 N 0.32930 0.82994 -0.13459
 C287 C 0.38605 0.89076 -0.10997
 C288 C 0.40290 0.90752 -0.09313
 C289 C 0.42075 0.92858 -0.07201
 N290 N 0.45094 0.92966 -0.07113
 N291 N 0.46699 0.94955 -0.05130
 C292 C 0.45335 0.96898 -0.03174
 N293 N 0.42314 0.96771 -0.03280
 N294 N 0.40715 0.94790 -0.05255
 N295 N 0.64937 0.85653 0.08246
 C296 C 0.63780 0.88101 0.09720
 N297 N 0.64763 0.88986 0.12646
 N298 N 0.66842 0.87477 0.14059
 C299 C 0.68009 0.85028 0.12595
 N300 N 0.67020 0.84140 0.09661
 C301 C 0.61549 0.89768 0.08231
 C302 C 0.59677 0.91269 0.07119
 C303 C 0.57457 0.93172 0.05970
 N304 N 0.55945 0.94909 0.07962
 N305 N 0.53956 0.96771 0.06938
 C306 C 0.53406 0.96967 0.03882
 N307 N 0.54918 0.95212 0.01887
 N308 N 0.56914 0.93347 0.02914
   
