data_POSCAR
  _audit_creation_date              2014-09-24
  _audit_creation_method            'ToBaCCo'
  _symmetry_space_group_name_H-M    'P1'
  _symmetry_Int_Tables_number       1
  _symmetry_cell_setting            triclinic
  loop_
  _symmetry_equiv_pos_as_xyz
 x,y,z
_cell_length_a 36.3483
_cell_length_b 17.9372
_cell_length_c 13.9412
_cell_angle_alpha 90.823300
_cell_angle_beta 89.368000
_cell_angle_gamma 89.287900
loop_
  _atom_site_label
  _atom_site_type_symbol
  _atom_site_fract_x
  _atom_site_fract_y
  _atom_site_fract_z
O1 O 0.71383 0.29123 0.59959
 O2 O 0.78331 0.26676 0.40638
 O3 O 0.71295 0.29932 0.41359
 O4 O 0.78439 0.25778 0.59176
 O5 O 0.77312 0.13760 0.57433
 O6 O 0.69910 0.18027 0.40614
 O7 O 0.76791 0.14962 0.39059
 O8 O 0.70281 0.17085 0.59285
 Cu9 Cu 0.74995 0.29082 0.50426
 Cu10 Cu 0.73442 0.14768 0.49069
 C11 C 0.69580 0.23527 0.62780
 C12 C 0.78727 0.20421 0.36369
 C13 C 0.69318 0.24693 0.38099
 C14 C 0.79151 0.19020 0.61105
 O15 O 0.28629 0.70075 0.57862
 O16 O 0.21729 0.74993 0.39975
 O17 O 0.28722 0.71174 0.39475
 O18 O 0.21797 0.74754 0.58499
 O19 O 0.23699 0.86316 0.59627
 O20 O 0.30405 0.82977 0.40158
 O21 O 0.23434 0.86713 0.40812
 O22 O 0.30532 0.81619 0.58439
 Cu23 Cu 0.25036 0.71589 0.48840
 Cu24 Cu 0.27156 0.85605 0.49861
 C25 C 0.30833 0.74909 0.61143
 C26 C 0.21379 0.81682 0.37311
 C27 C 0.30789 0.76425 0.36772
 C28 C 0.21592 0.81172 0.62436
 O29 O 0.26049 0.37602 -0.59331
 O30 O 0.20088 0.31108 -0.39626
 O31 O 0.26441 0.37598 -0.40907
 O32 O 0.19399 0.31908 -0.57986
 O33 O 0.22082 0.20915 -0.60117
 O34 O 0.28887 0.26278 -0.41931
 O35 O 0.22430 0.19756 -0.41654
 O36 O 0.28677 0.26531 -0.60401
 Cu37 Cu 0.22738 0.35681 -0.49398
 Cu38 Cu 0.25782 0.22259 -0.51144
 C39 C 0.28463 0.33249 -0.63102
 C40 C 0.20170 0.24235 -0.37534
 C41 C 0.28858 0.32876 -0.38461
 C42 C 0.19422 0.25395 -0.61660
 O43 O -0.28264 0.74251 -0.40565
 O44 O -0.21919 0.80609 -0.59349
 O45 O -0.28555 0.75104 -0.58998
 O46 O -0.21801 0.80267 -0.40831
 O47 O -0.19175 0.69173 -0.42157
 O48 O -0.26093 0.63796 -0.60157
 O49 O -0.19502 0.69354 -0.60645
 O50 O -0.25737 0.63019 -0.41467
 Cu51 Cu -0.25382 0.78665 -0.49839
 Cu52 Cu -0.22389 0.65183 -0.51179
 C53 C -0.28089 0.67550 -0.37795
 C54 C -0.19595 0.76102 -0.63237
 C55 C -0.28504 0.68577 -0.62608
 C56 C -0.19290 0.75694 -0.38462
 O57 O -0.04751 0.87195 0.17035
 O58 O -0.08914 0.93343 0.07583
 C59 C -0.08076 0.88713 0.14311
 O60 O 0.04311 1.15564 0.16377
 O61 O 0.08832 1.08634 0.09009
 C62 C 0.07730 1.13719 0.15182
 O63 O -0.05891 1.13675 0.16051
 O64 O -0.09449 1.05899 0.06974
 C65 C -0.09055 1.11228 0.13244
 O66 O 0.05579 0.88181 0.17146
 O67 O 0.09435 0.95823 0.08743
 C68 C 0.08818 0.90710 0.14979
 Zr69 Zr 0.00308 0.91486 0.12022
 O70 O 0.00398 0.91807 0.27206
 O71 O 0.00451 0.79685 0.12050
 Zr72 Zr -0.00502 1.10218 0.11805
 O73 O -0.00477 1.09330 0.26953
 O74 O -0.01097 1.21904 0.13266
 O75 O -0.03425 1.00414 0.13466
 O76 O 0.03057 1.01374 0.14011
 O77 O 0.06134 0.87449 -0.15968
 O78 O 0.09699 0.95540 -0.07285
 C79 C 0.09287 0.90135 -0.13434
 O80 O -0.05189 1.12483 -0.18555
 O81 O -0.09139 1.05537 -0.09444
 C82 C -0.08452 1.10227 -0.16190
 O83 O 0.05043 1.14370 -0.17074
 O84 O 0.09184 1.08361 -0.07440
 C85 C 0.08361 1.12962 -0.14202
 O86 O -0.04156 0.86410 -0.17748
 O87 O -0.08612 0.92985 -0.09319
 C88 C -0.07565 0.88081 -0.15708
 Zr89 Zr 0.00737 0.91127 -0.12208
 O90 O 0.01339 0.91694 -0.27321
 O91 O 0.01162 0.79377 -0.13326
 Zr92 Zr -0.00022 1.09869 -0.12434
 O93 O 0.00586 1.09924 -0.27550
 O94 O -0.00804 1.21590 -0.12186
 Zr95 Zr -0.05350 0.99912 -0.00734
 Zr96 Zr 0.05592 1.01524 0.00381
 O97 O 0.03579 1.00915 -0.13721
 O98 O -0.02892 0.99984 -0.14522
 O99 O 0.03849 0.90329 0.00239
 O100 O -0.03484 1.10981 -0.00681
 O101 O -0.02619 0.89495 -0.00364
 O102 O 0.02948 1.12036 0.00003
 H103 H 0.04601 1.01699 0.19812
 H104 H -0.05271 1.15177 -0.01023
 H105 H 0.05321 1.00989 -0.19236
 H106 H -0.04102 0.84903 -0.00408
 H107 H -0.01046 1.23904 0.06704
 H108 H 0.01311 1.23793 -0.08801
 H109 H -0.01040 1.06036 -0.30181
 H110 H -0.01062 0.93209 -0.29996
 H111 H 0.00468 0.77360 -0.07019
 H112 H 0.02643 0.78041 0.08276
 H113 H -0.01773 0.94754 0.29435
 H114 H -0.02939 1.07680 0.29083
 O115 O 0.43856 0.41331 0.18193
 O116 O 0.40495 0.48435 0.07900
 C117 C 0.40750 0.44103 0.15214
 O118 O 0.56310 0.63373 0.14948
 O119 O 0.59748 0.54163 0.07491
 C120 C 0.59419 0.59965 0.13102
 O121 O 0.46104 0.66307 0.15822
 O122 O 0.41634 0.60706 0.06874
 C123 C 0.42705 0.65439 0.13332
 O124 O 0.54010 0.37054 0.18366
 O125 O 0.58615 0.41587 0.08960
 C126 C 0.57446 0.37461 0.15933
 Zr127 Zr 0.49309 0.42401 0.12712
 O128 O 0.49523 0.43382 0.27846
 O129 O 0.47989 0.30970 0.13678
 Zr130 Zr 0.50914 0.60855 0.10454
 O131 O 0.51256 0.62844 0.25403
 O132 O 0.51709 0.72260 0.07602
 O133 O 0.46881 0.52967 0.13339
 O134 O 0.53234 0.50618 0.13507
 O135 O 0.54274 0.34612 -0.16010
 O136 O 0.58761 0.40306 -0.07450
 C137 C 0.57680 0.35339 -0.13644
 O138 O 0.46172 0.63766 -0.19539
 O139 O 0.41613 0.59131 -0.09855
 C140 C 0.42738 0.63040 -0.17002
 O141 O 0.56477 0.60913 -0.18157
 O142 O 0.59827 0.52917 -0.08788
 C143 C 0.59549 0.57904 -0.15388
 O144 O 0.44189 0.38438 -0.16859
 O145 O 0.40697 0.47218 -0.08763
 C146 C 0.41063 0.41688 -0.14800
 Zr147 Zr 0.49471 0.40405 -0.11304
 O148 O 0.49528 0.38075 -0.26209
 O149 O 0.48221 0.29105 -0.08674
 Zr150 Zr 0.51002 0.58922 -0.13530
 O151 O 0.51435 0.57609 -0.28618
 O152 O 0.51624 0.70590 -0.14724
 Zr153 Zr 0.44775 0.52611 -0.00682
 Zr154 Zr 0.55593 0.48598 -0.00158
 O155 O 0.53383 0.48400 -0.14062
 O156 O 0.47041 0.50661 -0.14490
 O157 O 0.52538 0.38744 0.01025
 O158 O 0.47877 0.62381 -0.01799
 O159 O 0.46105 0.41238 0.00674
 O160 O 0.54342 0.60049 -0.01530
 H161 H 0.54795 0.50533 0.19286
 H162 H 0.46560 0.67225 -0.02318
 H163 H 0.55032 0.47481 -0.19675
 H164 H 0.44085 0.37588 0.01041
 H165 H 0.51752 0.74822 0.13939
 H166 H 0.53618 0.72082 -0.10346
 H167 H 0.49157 0.55188 -0.30834
 H168 H 0.50315 0.42677 -0.29406
 H169 H 0.50495 0.26580 -0.06514
 H170 H 0.49990 0.28072 0.10445
 H171 H 0.47727 0.47297 0.29885
 H172 H 0.49654 0.59167 0.28529
 C173 C 0.30792 0.42921 0.25554
 C174 C 0.31091 0.35916 0.30236
 C175 C 0.34346 0.31700 0.28879
 C176 C 0.37358 0.34527 0.24025
 C177 C 0.37303 0.41706 0.20207
 C178 C 0.33961 0.45990 0.20909
 C179 C 0.27389 0.46829 0.24995
 C180 C 0.27160 0.53807 0.20820
 C181 C 0.30286 0.57034 0.17030
 C182 C 0.33650 0.53241 0.17147
 H183 H 0.24824 0.44455 0.27319
 H184 H 0.24533 0.56692 0.20433
 H185 H 0.30075 0.62417 0.13708
 H186 H 0.35951 0.56113 0.14209
 H187 H 0.34674 0.26244 0.32023
 H188 H 0.39797 0.31013 0.23354
 C189 C -0.14784 0.74133 0.23767
 C190 C -0.16991 0.78793 0.30059
 C191 C -0.16325 0.86517 0.30223
 C192 C -0.13422 0.89531 0.25111
 C193 C -0.11122 0.85050 0.19362
 C194 C -0.11777 0.77308 0.18589
 C195 C -0.15558 0.66503 0.22074
 C196 C -0.13289 0.62065 0.16158
 C197 C -0.10263 0.65116 0.11567
 C198 C -0.09537 0.72683 0.12615
 H199 H -0.17971 0.63867 0.24939
 H200 H -0.13908 0.56229 0.15050
 H201 H -0.08506 0.61623 0.07031
 H202 H -0.07227 0.74872 0.08649
 H203 H -0.17913 0.90287 0.34842
 H204 H -0.12859 0.95402 0.26002
 C205 C 0.69351 0.64197 0.20993
 C206 C 0.68600 0.66492 0.30582
 C207 C 0.64962 0.67010 0.33858
 C208 C 0.62073 0.65046 0.27949
 C209 C 0.62699 0.62539 0.18479
 C210 C 0.66381 0.62254 0.14837
 C211 C 0.72984 0.64033 0.17306
 C212 C 0.73695 0.62026 0.07766
 C213 C 0.70810 0.60229 0.01717
 C214 C 0.67194 0.60355 0.05181
 H215 H 0.75294 0.65574 0.21700
 H216 H 0.76494 0.61965 0.05022
 H217 H 0.71371 0.58807 -0.05736
 H218 H 0.65068 0.59157 0.00124
 H219 H 0.64353 0.68794 0.41174
 H220 H 0.59310 0.65295 0.30951
 C221 C 0.12692 1.24436 0.35807
 C222 C 0.16414 1.22986 0.32904
 C223 C 0.17112 1.18511 0.24781
 C224 C 0.14266 1.15914 0.19127
 C225 C 0.10551 1.17348 0.21503
 C226 C 0.09729 1.21523 0.30203
 C227 C 0.11850 1.28055 0.44717
 C228 C 0.08255 1.28994 0.47979
 C229 C 0.05391 1.26275 0.42599
 C230 C 0.06092 1.22575 0.33925
 H231 H 0.13919 1.29929 0.49615
 H232 H 0.07699 1.31686 0.54857
 H233 H 0.02594 1.26872 0.45282
 H234 H 0.03669 1.20470 0.30677
 H235 H 0.19917 1.17197 0.22560
 H236 H 0.15018 1.12639 0.12802
 C237 C 0.62868 0.22367 -0.31936
 C238 C 0.66523 0.24720 -0.30142
 C239 C 0.67157 0.29460 -0.22328
 C240 C 0.64265 0.32241 -0.16679
 C241 C 0.60569 0.30662 -0.18791
 C242 C 0.59851 0.25423 -0.26431
 C243 C 0.62128 0.17270 -0.39427
 C244 C 0.58547 0.16443 -0.43172
 C245 C 0.55619 0.18944 -0.37276
 C246 C 0.56258 0.23092 -0.28919
 H247 H 0.64279 0.14040 -0.42861
 H248 H 0.57880 0.11820 -0.50237
 H249 H 0.52835 0.17441 -0.39098
 H250 H 0.53866 0.24158 -0.24514
 H251 H 0.69922 0.31302 -0.20812
 H252 H 0.64951 0.36073 -0.10916
 C253 C 0.16785 0.77473 -0.24774
 C254 C 0.18735 0.82938 -0.30091
 C255 C 0.17746 0.90484 -0.28811
 C256 C 0.14781 0.92637 -0.23039
 C257 C 0.12619 0.87339 -0.18480
 C258 C 0.13622 0.79695 -0.19191
 C259 C 0.17927 0.69909 -0.24617
 C260 C 0.15877 0.64634 -0.19705
 C261 C 0.12701 0.66768 -0.14686
 C262 C 0.11606 0.74237 -0.14270
 H263 H 0.20459 0.67971 -0.27952
 H264 H 0.16781 0.58859 -0.19715
 H265 H 0.11121 0.62632 -0.10921
 H266 H 0.09207 0.75693 -0.09951
 H267 H 0.19188 0.94807 -0.32616
 H268 H 0.14057 0.98512 -0.22515
 C269 C 0.36142 0.77514 -0.27676
 C270 C 0.33700 0.72592 -0.32665
 C271 C 0.34302 0.64841 -0.31835
 C272 C 0.37280 0.61969 -0.26928
 C273 C 0.39839 0.66652 -0.22674
 C274 C 0.39292 0.74467 -0.22931
 C275 C 0.35474 0.85297 -0.26727
 C276 C 0.37931 0.89916 -0.21943
 C277 C 0.41064 0.86940 -0.17773
 C278 C 0.41728 0.79289 -0.18150
 H279 H 0.32999 0.87969 -0.29176
 H280 H 0.37367 0.95846 -0.21332
 H281 H 0.42945 0.90563 -0.14025
 H282 H 0.44133 0.77187 -0.14521
 H283 H 0.32509 0.60840 -0.35242
 H284 H 0.37610 0.55964 -0.26525
 C285 C -0.17516 1.19704 -0.23025
 C286 C -0.17737 1.17177 -0.32672
 C287 C -0.14898 1.12745 -0.36654
 C288 C -0.11852 1.10788 -0.31261
 C289 C -0.11595 1.13065 -0.21665
 C290 C -0.14411 1.17623 -0.17458
 C291 C -0.20341 1.24116 -0.18723
 C292 C -0.20069 1.26572 -0.09224
 C293 C -0.17003 1.24669 -0.03845
 C294 C -0.14194 1.20231 -0.07885
 H295 H -0.22783 1.25675 -0.22622
 H296 H -0.22246 1.29981 -0.06021
 H297 H -0.16806 1.26651 0.03492
 H298 H -0.11846 1.18929 -0.03503
 H299 H -0.15035 1.10815 -0.44046
 H300 H -0.09714 1.07304 -0.34538
 C301 C 0.67740 0.69561 -0.23157
 C302 C 0.69176 0.64916 -0.30689
 C303 C 0.67673 0.57830 -0.32176
 C304 C 0.64621 0.55554 -0.26907
 C305 C 0.62958 0.60330 -0.20095
 C306 C 0.64547 0.67317 -0.17985
 C307 C 0.69442 0.76308 -0.20495
 C308 C 0.67957 0.80841 -0.13180
 C309 C 0.64769 0.78753 -0.08352
 C310 C 0.63071 0.72056 -0.10697
 H311 H 0.71983 0.78052 -0.23822
 H312 H 0.69301 0.85983 -0.11205
 H313 H 0.63638 0.82290 -0.02666
 H314 H 0.60648 0.70548 -0.06612
 H315 H 0.68752 0.54160 -0.37802
 H316 H 0.63455 0.50137 -0.28438
 C317 C 0.17276 1.22865 -0.20951
 C318 C 0.17362 1.21292 -0.30938
 C319 C 0.14537 1.17146 -0.35049
 C320 C 0.11605 1.14695 -0.29498
 C321 C 0.11413 1.16282 -0.19641
 C322 C 0.14235 1.20464 -0.15277
 C323 C 0.20173 1.26635 -0.16443
 C324 C 0.20002 1.28326 -0.06642
 C325 C 0.16934 1.26362 -0.01211
 C326 C 0.14075 1.22434 -0.05452
 H327 H 0.22605 1.28151 -0.20443
 H328 H 0.22251 1.31181 -0.03229
 H329 H 0.16782 1.27850 0.06336
 H330 H 0.11731 1.21029 -0.01020
 H331 H 0.14580 1.15864 -0.42673
 H332 H 0.09491 1.11410 -0.32911
 C333 C 0.31085 0.38562 -0.22782
 C334 C 0.31789 0.35141 -0.31861
 C335 C 0.35414 0.33666 -0.34803
 C336 C 0.38343 0.35759 -0.29114
 C337 C 0.37762 0.39048 -0.20015
 C338 C 0.34083 0.40053 -0.16543
 C339 C 0.27468 0.40311 -0.19603
 C340 C 0.26793 0.42954 -0.10307
 C341 C 0.29673 0.43664 -0.03923
 C342 C 0.33280 0.42222 -0.06957
 H343 H 0.25119 0.39608 -0.24170
 H344 H 0.24005 0.44226 -0.07948
 H345 H 0.29101 0.45284 0.03432
 H346 H 0.35379 0.42528 -0.01596
 H347 H 0.35988 0.31105 -0.41762
 H348 H 0.41100 0.34894 -0.31984
 C349 C -0.14162 0.73562 -0.26071
 C350 C -0.16366 0.78319 -0.31849
 C351 C -0.15668 0.86007 -0.31743
 C352 C -0.12819 0.88976 -0.26438
 C353 C -0.10491 0.84389 -0.21171
 C354 C -0.11144 0.76627 -0.20880
 C355 C -0.14939 0.65916 -0.24995
 C356 C -0.12702 0.61361 -0.19438
 C357 C -0.09690 0.64310 -0.14709
 C358 C -0.08937 0.71886 -0.15286
 H359 H -0.17320 0.63372 -0.28142
 H360 H -0.13328 0.55510 -0.18730
 H361 H -0.07961 0.60725 -0.10452
 H362 H -0.06640 0.73991 -0.11246
 H363 H -0.17301 0.89805 -0.35977
 H364 H -0.12383 0.94937 -0.26588
 C365 C 0.33627 0.75202 0.20172
 C366 C 0.33878 0.74719 0.30249
 C367 C 0.37142 0.72244 0.34412
 C368 C 0.40084 0.69781 0.28731
 C369 C 0.39833 0.69672 0.18712
 C370 C 0.36642 0.72672 0.14315
 C371 C 0.30420 0.77981 0.15789
 C372 C 0.30202 0.78319 0.05816
 C373 C 0.33169 0.75967 0.00078
 C374 C 0.36371 0.73215 0.04255
 H375 H 0.28063 0.79871 0.20023
 H376 H 0.27724 0.80436 0.02518
 H377 H 0.32991 0.76292 -0.07650
 H378 H 0.38637 0.71632 -0.00454
 H379 H 0.37365 0.71962 0.42152
 H380 H 0.42496 0.67527 0.32225
 C381 C -0.15997 1.24652 0.25801
 C382 C -0.18599 1.19235 0.28981
 C383 C -0.18349 1.12010 0.24899
 C384 C -0.15383 1.09794 0.19207
 C385 C -0.12450 1.14559 0.17587
 C386 C -0.12854 1.22203 0.20236
 C387 C -0.16446 1.32412 0.27636
 C388 C -0.13844 1.37495 0.24491
 C389 C -0.10792 1.35067 0.19202
 C390 C -0.10320 1.27530 0.16961
 H391 H -0.18865 1.34819 0.31010
 H392 H -0.14252 1.43395 0.25957
 H393 H -0.08835 1.39079 0.16572
 H394 H -0.08049 1.26007 0.12256
 H395 H -0.20389 1.07821 0.26421
 H396 H -0.15307 1.04127 0.16453
 C397 C 0.62580 0.24090 0.33193
 C398 C 0.66234 0.26531 0.31569
 C399 C 0.66869 0.31873 0.24615
 C400 C 0.63988 0.34975 0.19530
 C401 C 0.60285 0.33246 0.21539
 C402 C 0.59546 0.27820 0.28811
 C403 C 0.61870 0.18178 0.39421
 C404 C 0.58390 0.17253 0.43795
 C405 C 0.55401 0.20900 0.39485
 C406 C 0.55952 0.25914 0.32012
 H407 H 0.63986 0.14299 0.41403
 H408 H 0.52630 0.19677 0.41853
 H409 H 0.53473 0.28199 0.29122
 H410 H 0.69638 0.33774 0.23198
 H411 H 0.64703 0.39065 0.14206
 C412 C 0.16818 0.78631 0.23881
 C413 C 0.18395 0.83743 0.30564
 C414 C 0.16877 0.90954 0.31470
 C415 C 0.13783 0.93043 0.26340
 C416 C 0.12034 0.87960 0.20279
 C417 C 0.13541 0.80705 0.18948
 C418 C 0.18456 0.71602 0.21723
 C419 C 0.16776 0.66581 0.15477
 C420 C 0.13491 0.68493 0.11071
 C421 C 0.11912 0.75530 0.12630
 H422 H 0.21088 0.69948 0.24560
 H423 H 0.18044 0.61188 0.13994
 H424 H 0.12191 0.64541 0.06303
 H425 H 0.09422 0.76887 0.08821
 H426 H 0.18030 0.94986 0.36417
 H427 H 0.12692 0.98663 0.27269
   
