data_POSCAR
  _audit_creation_date              2014-09-24
  _audit_creation_method            'ToBaCCo'
  _symmetry_space_group_name_H-M    'P1'
  _symmetry_Int_Tables_number       1
  _symmetry_cell_setting            triclinic
  loop_
  _symmetry_equiv_pos_as_xyz
 x,y,z
_cell_length_a 45.1939
_cell_length_b 45.7279
_cell_length_c 43.0137
_cell_angle_alpha 90.413100
_cell_angle_beta 90.058200
_cell_angle_gamma 89.577300
loop_
  _atom_site_label
  _atom_site_type_symbol
  _atom_site_fract_x
  _atom_site_fract_y
  _atom_site_fract_z
C1 C 0.19787 0.19859 0.21425
 N2 N 0.22488 0.19058 0.20299
 C3 C 0.23709 0.20454 0.17832
 N4 N 0.22174 0.22678 0.16475
 C5 C 0.19472 0.23507 0.17566
 N6 N 0.18302 0.22091 0.20038
 C7 C -0.22576 0.78961 0.26021
 N8 N -0.21823 0.76178 0.25202
 C9 C -0.23103 0.74834 0.22722
 N10 N -0.25165 0.76313 0.21035
 C11 C -0.25943 0.79109 0.21796
 N12 N -0.24627 0.80409 0.24290
 C13 C -0.18134 0.20546 -0.24407
 N14 N -0.17419 0.23338 -0.23610
 C15 C -0.19197 0.24949 -0.21697
 N16 N -0.21717 0.23742 -0.20584
 C17 C -0.22491 0.20968 -0.21370
 N18 N -0.20676 0.19389 -0.23275
 C19 C 0.21061 0.79728 -0.22386
 N20 N 0.19345 0.77855 -0.20753
 C21 C 0.20228 0.76865 -0.17927
 N22 N 0.22841 0.77786 -0.16722
 C23 C 0.24582 0.79674 -0.18307
 N24 N 0.23671 0.80625 -0.21145
 C25 C 0.18617 1.20422 0.77945
 N26 N 0.17229 1.22680 0.79428
 C27 C 0.18520 1.24068 0.81884
 N28 N 0.21242 1.23164 0.82850
 C29 C 0.22663 1.20919 0.81389
 N30 N 0.21334 1.19559 0.78954
 C31 C 0.78849 0.78725 0.72993
 N32 N 0.79702 0.76051 0.74048
 C33 C 0.78581 0.74971 0.76734
 N34 N 0.76608 0.76608 0.78390
 C35 C 0.75755 0.79293 0.77388
 N36 N 0.76884 0.80332 0.74694
 C37 C 0.22263 0.78476 1.24376
 N38 N 0.24580 0.79702 1.22869
 C39 C 0.25250 0.78919 1.19899
 N40 N 0.23574 0.76880 1.18420
 C41 C 0.21248 0.75619 1.19886
 N42 N 0.20612 0.76444 1.22857
 C43 C 0.80970 1.19821 1.23396
 N44 N 0.81818 1.22518 1.22455
 C45 C 0.79997 1.24221 1.20697
 N46 N 0.77299 1.23171 1.19851
 C47 C 0.76410 1.20483 1.20785
 N48 N 0.78254 1.18838 1.22560
 O49 O 0.53795 0.97876 0.93577
 O50 O 0.47433 0.97614 1.03789
 O51 O 0.56676 0.99448 1.02244
 O52 O 0.46838 0.96909 0.98343
 O53 O 0.52845 0.96888 1.03597
 O54 O 0.48179 0.97956 0.93691
 O55 O 0.43528 0.99782 1.01781
 O56 O 0.57205 0.99929 0.96577
 C57 C 0.56425 0.98034 0.94548
 C58 C 0.44639 0.98045 1.03909
 C59 C 0.55590 0.97113 1.03306
 C60 C 0.46957 0.96237 0.95540
 O61 O 0.48390 1.03818 0.93541
 O62 O 0.53674 1.02165 1.05839
 O63 O 0.55412 1.05590 0.97055
 O64 O 0.46299 1.04523 1.00850
 O65 O 0.48340 1.03350 1.05149
 O66 O 0.53854 1.03425 0.92944
 O67 O 0.44870 1.01840 0.96117
 O68 O 0.54510 1.05207 1.02366
 Co69 Co 0.51016 1.00793 0.93972
 Co70 Co 0.50605 1.00143 1.04059
 Co71 Co 0.55569 1.02423 0.99575
 Co72 Co 0.46796 1.00752 0.99647
 O73 O 0.51164 1.01139 0.99064
 C74 C 0.45714 1.03720 0.94225
 C75 C 0.54520 1.04641 1.05141
 C76 C 0.55231 1.05474 0.94190
 C77 C 0.46805 1.05123 1.03612
 O78 O 0.01774 0.48275 0.04714
 O79 O 0.01949 0.53888 -0.03667
 O80 O -0.01245 0.44996 -0.01817
 O81 O -0.01269 0.56914 0.04452
 O82 O 0.01993 0.48251 -0.03096
 O83 O 0.01862 0.53510 0.05177
 O84 O -0.00746 0.57223 -0.01258
 O85 O -0.01464 0.45032 0.03776
 C86 C 0.01150 0.45653 0.04440
 C87 C 0.01498 0.56491 -0.02848
 C88 C 0.01333 0.45635 -0.02694
 C89 C 0.01310 0.56159 0.05111
 O90 O -0.03807 0.53485 0.07497
 O91 O -0.03436 0.48223 -0.05520
 O92 O -0.06843 0.47747 0.03545
 O93 O -0.06319 0.55824 -0.02012
 O94 O -0.03576 0.53636 -0.05550
 O95 O -0.03762 0.48220 0.07259
 O96 O -0.06738 0.54858 0.03797
 O97 O -0.06731 0.47388 -0.02081
 Co98 Co -0.01104 0.50889 0.05740
 Co99 Co -0.00903 0.50981 -0.03922
 Co100 Co -0.03933 0.46686 0.00882
 Co101 Co -0.03652 0.55713 0.01251
 O102 O -0.02397 0.51084 0.00960
 C103 C -0.06312 0.54398 0.06612
 C104 C -0.06012 0.47451 -0.04858
 C105 C -0.06322 0.47600 0.06365
 C106 C -0.05791 0.55192 -0.04795
 O107 O 1.05858 0.02910 0.46949
 O108 O 0.98098 0.02915 0.52696
 O109 O 0.99569 0.00363 0.43147
 O110 O 1.04631 -0.00360 0.56029
 O111 O 0.97240 0.02845 0.46813
 O112 O 1.05421 0.02836 0.52546
 O113 O 0.99321 -0.00266 0.56171
 O114 O 1.05049 -0.00193 0.43353
 C115 C 1.05804 0.02322 0.44138
 C116 C 0.98469 0.02283 0.55482
 C117 C 0.97912 0.02463 0.44013
 C118 C 1.05241 0.02220 0.55339
 O119 O 1.07964 -0.02596 0.52645
 O120 O 0.95623 -0.02611 0.47111
 O121 O 1.04575 -0.05588 0.45434
 O122 O 0.99222 -0.05695 0.53479
 O123 O 0.95856 -0.02485 0.52831
 O124 O 1.08062 -0.02696 0.47028
 O125 O 1.04512 -0.05681 0.53095
 O126 O 0.98959 -0.05186 0.44567
 Co127 Co 1.06415 -0.00010 0.49783
 Co128 Co 0.97210 0.00046 0.49877
 Co129 Co 1.02046 -0.02534 0.44665
 Co130 Co 1.01929 -0.02862 0.54284
 O131 O 1.01869 -0.01320 0.49624
 C132 C 1.07179 -0.05138 0.53291
 C133 C 0.96327 -0.04726 0.45348
 C134 C 1.07245 -0.05161 0.46006
 C135 C 0.96556 -0.05079 0.53375
 C136 C 1.15738 0.15088 0.28679
 C137 C 1.18461 0.14168 0.27427
 C138 C 1.19841 0.15784 0.25101
 C139 C 1.18495 0.18332 0.23910
 C140 C 1.15779 0.19266 0.25209
 C141 C 1.14436 0.17679 0.27585
 C142 C 1.14218 0.13290 0.31028
 N143 N 1.12248 0.14506 0.33055
 N144 N 1.10843 0.12857 0.35122
 C145 C 1.11327 0.09923 0.35215
 N146 N 1.13293 0.08713 0.33187
 N147 N 1.14717 0.10363 0.31146
 C148 C 1.09747 0.08057 0.37456
 C149 C 1.09281 0.05093 0.36753
 C150 C 1.07905 0.03272 0.38890
 C151 C 1.07016 0.04354 0.41811
 C152 C 1.07434 0.07331 0.42506
 C153 C 1.08761 0.09175 0.40330
 H154 H 1.19527 0.12188 0.28244
 H155 H 1.21929 0.14982 0.24189
 H156 H 1.14667 0.21220 0.24387
 H157 H 1.12333 0.18437 0.28502
 H158 H 1.09991 0.04176 0.34545
 H159 H 1.07614 0.00988 0.38285
 H160 H 1.06762 0.08222 0.44737
 H161 H 1.09093 0.11453 0.40931
 C162 C 0.82070 -0.16681 0.33252
 C163 C 0.82698 -0.19619 0.32518
 C164 C 0.81116 -0.21077 0.30195
 C165 C 0.78866 -0.19631 0.28518
 C166 C 0.78171 -0.16714 0.29337
 C167 C 0.79751 -0.15262 0.31675
 C168 C 0.83939 -0.15072 0.35518
 N169 N 0.83239 -0.12299 0.36427
 N170 N 0.85036 -0.10793 0.38294
 C171 C 0.87613 -0.11994 0.39322
 N172 N 0.88290 -0.14778 0.38445
 N173 N 0.86491 -0.16285 0.36590
 C174 C 0.89751 -0.10245 0.41158
 C175 C 0.92697 -0.11208 0.41456
 C176 C 0.94806 -0.09444 0.42896
 C177 C 0.94015 -0.06690 0.44113
 C178 C 0.91043 -0.05778 0.43958
 C179 C 0.88934 -0.07530 0.42472
 H180 H 0.84455 -0.20789 0.33702
 H181 H 0.81716 -0.23326 0.29676
 H182 H 0.76444 -0.15517 0.28134
 H183 H 0.79203 -0.13001 0.32187
 H184 H 0.93405 -0.13286 0.40478
 H185 H 0.97075 -0.10217 0.43005
 H186 H 0.90372 -0.03666 0.44880
 H187 H 0.86677 -0.06734 0.42299
 C188 C 0.87671 0.15353 0.70065
 C189 C 0.88242 0.18335 0.70556
 C190 C 0.86334 0.20054 0.72380
 C191 C 0.83773 0.18842 0.73711
 C192 C 0.83191 0.15857 0.73160
 C193 C 0.85129 0.14135 0.71389
 C194 C 0.89688 0.13515 0.68155
 N195 N 0.89709 0.10562 0.68463
 N196 N 0.91440 0.08889 0.66675
 C197 C 0.93213 0.10096 0.64492
 N198 N 0.93207 0.13053 0.64194
 N199 N 0.91491 0.14730 0.66002
 C200 C 0.94942 0.08204 0.62343
 C201 C 0.95825 0.09245 0.59424
 C202 C 0.97091 0.07344 0.57230
 C203 C 0.97542 0.04377 0.57932
 C204 C 0.96843 0.03382 0.60921
 C205 C 0.95531 0.05270 0.63096
 H206 H 0.90188 0.19333 0.69565
 H207 H 0.86872 0.22337 0.72731
 H208 H 0.81255 0.14822 0.74131
 H209 H 0.84615 0.11848 0.71028
 H210 H 0.95409 0.11495 0.58777
 H211 H 0.97635 0.08174 0.54951
 H212 H 0.97175 0.01109 0.61530
 H213 H 0.94906 0.04412 0.65339
 C214 C 1.17932 -0.16763 0.68909
 C215 C 1.20580 -0.15759 0.70246
 C216 C 1.21627 -0.16936 0.73035
 C217 C 1.20044 -0.19138 0.74564
 C218 C 1.17432 -0.20187 0.73189
 C219 C 1.16393 -0.19020 0.70394
 C220 C 1.16701 -0.15374 0.66073
 N221 N 1.14174 -0.16388 0.64751
 N222 N 1.12947 -0.15022 0.62343
 C223 C 1.14192 -0.12582 0.61144
 N224 N 1.16746 -0.11592 0.62434
 N225 N 1.17976 -0.12962 0.64842
 C226 C 1.12645 -0.10890 0.58688
 C227 C 1.13746 -0.08183 0.57690
 C228 C 1.12052 -0.06384 0.55748
 C229 C 1.09222 -0.07253 0.54772
 C230 C 1.08217 -0.10046 0.55582
 C231 C 1.09909 -0.11844 0.57514
 H232 H 1.21828 -0.14030 0.69163
 H233 H 1.23651 -0.16078 0.74021
 H234 H 1.16162 -0.21890 0.74289
 H235 H 1.14347 -0.19851 0.69434
 H236 H 1.15856 -0.07389 0.58524
 H237 H 1.12890 -0.04247 0.55153
 H238 H 1.06054 -0.10787 0.54845
 H239 H 1.09004 -0.13929 0.58199
 C240 C 0.31869 1.17436 1.14059
 C241 C 0.30768 1.16270 1.16837
 C242 C 0.28102 1.17288 1.18099
 C243 C 0.26471 1.19532 1.16637
 C244 C 0.27639 1.20769 1.13910
 C245 C 0.30290 1.19718 1.12628
 C246 C 0.34562 1.16168 1.12593
 N247 N 0.36353 1.14321 1.14203
 N248 N 0.38644 1.13002 1.12824
 C249 C 0.39240 1.13463 1.09773
 N250 N 0.37474 1.15345 1.08173
 N251 N 0.35191 1.16676 1.09557
 C252 C 0.41574 1.11727 1.08165
 C253 C 0.41652 1.11561 1.04900
 C254 C 0.43512 1.09544 1.03397
 C255 C 0.45349 1.07668 1.05126
 C256 C 0.45444 1.07996 1.08375
 C257 C 0.43567 1.09995 1.09879
 H258 H 0.31924 1.14507 1.17999
 H259 H 0.27312 1.16281 1.20210
 H260 H 0.26478 1.22508 1.12711
 H261 H 0.31087 1.20675 1.10494
 H262 H 0.40160 1.12871 1.03506
 H263 H 0.43396 1.09349 1.00888
 H264 H 0.46844 1.06589 1.09771
 H265 H 0.43591 1.10093 1.12395
 C266 C 0.32371 0.83089 0.85815
 C267 C 0.30579 0.81138 0.87457
 C268 C 0.28055 0.79947 0.86072
 C269 C 0.27230 0.80714 0.83018
 C270 C 0.29077 0.82619 0.81359
 C271 C 0.31618 0.83775 0.82734
 C272 C 0.34930 0.84516 0.87340
 N273 N 0.36936 0.86003 0.85630
 N274 N 0.39120 0.87462 0.87003
 C275 C 0.39392 0.87507 0.90148
 N276 N 0.37409 0.85988 0.91862
 N277 N 0.35229 0.84515 0.90485
 C278 C 0.41646 0.89384 0.91660
 C279 C 0.41532 0.89995 0.94869
 C280 C 0.43388 0.92108 0.96189
 C281 C 0.45391 0.93642 0.94322
 C282 C 0.45638 0.92888 0.91161
 C283 C 0.43789 0.90786 0.89846
 H284 H 0.31110 0.80551 0.89828
 H285 H 0.26717 0.78478 0.87436
 H286 H 0.28551 0.83257 0.79001
 H287 H 0.32949 0.85274 0.81402
 H288 H 0.39917 0.88946 0.96337
 H289 H 0.43147 0.92643 0.98634
 H290 H 0.47179 0.94013 0.89667
 H291 H 0.43966 0.90343 0.87376
 C292 C 0.68293 0.83977 1.15972
 C293 C 0.68692 0.80962 1.15482
 C294 C 0.70569 0.79341 1.17418
 C295 C 0.72047 0.80691 1.19933
 C296 C 0.71544 0.83698 1.20474
 C297 C 0.69721 0.85320 1.18499
 C298 C 0.66467 0.85748 1.13825
 N299 N 0.67019 0.88640 1.13474
 N300 N 0.65394 0.90258 1.11551
 C301 C 0.63133 0.89059 1.09912
 N302 N 0.62571 0.86164 1.10264
 N303 N 0.64219 0.84535 1.12168
 C304 C 0.61273 0.90919 1.07883
 C305 C 0.58310 0.90204 1.07261
 C306 C 0.56473 0.92161 1.05655
 C307 C 0.57583 0.94841 1.04599
 C308 C 0.60592 0.95466 1.05065
 C309 C 0.62407 0.93540 1.06711
 H310 H 0.67617 0.79871 1.13549
 H311 H 0.70870 0.77033 1.16921
 H312 H 0.72616 0.84834 1.22379
 H313 H 0.69430 0.87638 1.18951
 H314 H 0.57378 0.88197 1.08136
 H315 H 0.54165 0.91617 1.05323
 H316 H 0.61521 0.97508 1.04279
 H317 H 0.64690 0.94134 1.07124
 C318 C 0.69844 1.17114 0.82493
 C319 C 0.70663 1.19969 0.83333
 C320 C 0.73153 1.21264 0.82015
 C321 C 0.74919 1.19719 0.79847
 C322 C 0.74058 1.16871 0.78976
 C323 C 0.71547 1.15596 0.80269
 C324 C 0.67301 1.15682 0.84014
 N325 N 0.66165 1.13165 0.82837
 N326 N 0.63985 1.11792 0.84295
 C327 C 0.62856 1.12870 0.86999
 N328 N 0.63973 1.15402 0.88161
 N329 N 0.66143 1.16784 0.86694
 C330 C 0.60607 1.11207 0.88745
 C331 C 0.60057 1.11836 0.91898
 C332 C 0.58205 1.10045 0.93643
 C333 C 0.56838 1.07608 0.92265
 C334 C 0.57257 1.07076 0.89073
 C335 C 0.59133 1.08847 0.87336
 H336 H 0.69388 1.21204 0.85028
 H337 H 0.73714 1.23461 0.82750
 H338 H 0.75332 1.15602 0.77307
 H339 H 0.70981 1.13389 0.79574
 H340 H 0.61152 1.13640 0.93054
 H341 H 0.57918 1.10515 0.96097
 H342 H 0.56235 1.05215 0.87943
 H343 H 0.59489 1.08319 0.84907
 C344 C 0.14362 0.30165 0.12926
 C345 C 0.12995 0.28147 0.14899
 C346 C 0.14666 0.26024 0.16435
 C347 C 0.17742 0.25834 0.15999
 C348 C 0.19117 0.27845 0.14019
 C349 C 0.17445 0.30009 0.12520
 C350 C 0.12553 0.32404 0.11315
 N351 N 0.13780 0.34906 0.10241
 N352 N 0.12106 0.36951 0.08890
 C353 C 0.09146 0.36559 0.08532
 N354 N 0.07934 0.34043 0.09578
 N355 N 0.09599 0.32014 0.10945
 C356 C 0.07231 0.38866 0.07177
 C357 C 0.04347 0.38190 0.06201
 C358 C 0.02419 0.40388 0.05206
 C359 C 0.03316 0.43322 0.05190
 C360 C 0.06239 0.43992 0.06037
 C361 C 0.08185 0.41781 0.07010
 H362 H 0.10627 0.28220 0.15278
 H363 H 0.13535 0.24501 0.17931
 H364 H 0.21485 0.27757 0.13643
 H365 H 0.18559 0.31532 0.11009
 H366 H 0.03555 0.35962 0.06261
 H367 H 0.00191 0.39795 0.04531
 H368 H 0.06999 0.46233 0.06023
 H369 H 0.10397 0.42371 0.07738
 C370 C -0.16367 0.33347 -0.18246
 C371 C -0.19090 0.32172 -0.17319
 C372 C -0.20051 0.29495 -0.18517
 C373 C -0.18309 0.27920 -0.20668
 C374 C -0.15644 0.29151 -0.21694
 C375 C -0.14686 0.31836 -0.20500
 C376 C -0.15194 0.36009 -0.16704
 N377 N -0.12559 0.37152 -0.17575
 N378 N -0.11371 0.39368 -0.15994
 C379 C -0.12765 0.40536 -0.13473
 N380 N -0.15428 0.39430 -0.12641
 N381 N -0.16619 0.37219 -0.14225
 C382 C -0.11271 0.42738 -0.11482
 C383 C -0.12442 0.43494 -0.08554
 C384 C -0.10803 0.45179 -0.06459
 C385 C -0.07966 0.46159 -0.07253
 C386 C -0.06889 0.45593 -0.10262
 C387 C -0.08520 0.43892 -0.12352
 H388 H -0.20452 0.33283 -0.15603
 H389 H -0.22125 0.28626 -0.17687
 H390 H -0.14256 0.28009 -0.23362
 H391 H -0.12582 0.32678 -0.21275
 H392 H -0.14563 0.42664 -0.07814
 H393 H -0.11702 0.45600 -0.04164
 H394 H -0.04716 0.46334 -0.10949
 H395 H -0.07566 0.43380 -0.14601
 C396 C 0.14722 0.71024 -0.12719
 C397 C 0.13497 0.72796 -0.15054
 C398 C 0.15290 0.74668 -0.16770
 C399 C 0.18336 0.74848 -0.16147
 C400 C 0.19555 0.73099 -0.13789
 C401 C 0.17772 0.71187 -0.12113
 C402 C 0.12834 0.68989 -0.10959
 N403 N 0.14030 0.66616 -0.09534
 N404 N 0.12319 0.64733 -0.08033
 C405 C 0.09346 0.65162 -0.07867
 N406 N 0.08154 0.67552 -0.09263
 N407 N 0.09862 0.69421 -0.10786
 C408 C 0.07425 0.63000 -0.06331
 C409 C 0.04565 0.63787 -0.05336
 C410 C 0.02678 0.61693 -0.04082
 C411 C 0.03594 0.58760 -0.03858
 C412 C 0.06479 0.57987 -0.04781
 C413 C 0.08384 0.60092 -0.05978
 H414 H 0.11157 0.72706 -0.15586
 H415 H 0.14284 0.75998 -0.18561
 H416 H 0.21897 0.73185 -0.13261
 H417 H 0.18777 0.69855 -0.10323
 H418 H 0.03773 0.66017 -0.05559
 H419 H 0.00465 0.62349 -0.03391
 H420 H 0.07249 0.55745 -0.04616
 H421 H 0.10574 0.59418 -0.06726
 C422 C -0.19524 0.66663 0.19321
 C423 C -0.18468 0.67910 0.22100
 C424 C -0.19716 0.70495 0.23277
 C425 C -0.22049 0.71900 0.21700
 C426 C -0.23209 0.70569 0.19011
 C427 C -0.21964 0.67980 0.17838
 C428 C -0.17939 0.64165 0.17839
 N429 N -0.18877 0.63051 0.15077
 N430 N -0.17281 0.61035 0.13570
 C431 C -0.14678 0.60040 0.14756
 N432 N -0.13773 0.61102 0.17555
 N433 N -0.15371 0.63119 0.19064
 C434 C -0.12718 0.58108 0.12870
 C435 C -0.09913 0.57247 0.13979
 C436 C -0.07878 0.55856 0.11999
 C437 C -0.08603 0.55321 0.08872
 C438 C -0.11476 0.55987 0.07832
 C439 C -0.13512 0.57354 0.09809
 H440 H -0.16607 0.66947 0.23317
 H441 H -0.18778 0.71443 0.25367
 H442 H -0.25018 0.71576 0.17748
 H443 H -0.22848 0.67073 0.15702
 H444 H -0.09238 0.57768 0.16333
 H445 H -0.05684 0.55352 0.12869
 H446 H -0.12112 0.55564 0.05443
 H447 H -0.15660 0.57950 0.08882
 C448 C 1.14226 0.15554 0.70937
 C449 C 1.17008 0.14663 0.72040
 C450 C 1.18496 0.16321 0.74271
 C451 C 1.17206 0.18888 0.75520
 C452 C 1.14433 0.19807 0.74356
 C453 C 1.12975 0.18171 0.72065
 C454 C 1.12616 0.13685 0.68703
 N455 N 1.10664 0.14841 0.66634
 N456 N 1.09258 0.13122 0.64605
 C457 C 1.09720 0.10182 0.64602
 N458 N 1.11652 0.09034 0.66689
 N459 N 1.13078 0.10750 0.68689
 C460 C 1.08252 0.08248 0.62322
 C461 C 1.07848 0.05283 0.63018
 C462 C 1.06742 0.03360 0.60781
 C463 C 1.06069 0.04348 0.57778
 C464 C 1.06362 0.07335 0.57108
 C465 C 1.07422 0.09277 0.59374
 H466 H 1.18037 0.12669 0.71183
 H467 H 1.20627 0.15531 0.75073
 H468 H 1.13366 0.21776 0.75228
 H469 H 1.10829 0.18903 0.71248
 H470 H 1.08438 0.04437 0.65283
 H471 H 1.06523 0.01073 0.61371
 H472 H 1.05833 0.08155 0.54816
 H473 H 1.07711 0.11554 0.58780
 C474 C 0.82944 -0.17523 0.65130
 C475 C 0.83756 -0.20341 0.66113
 C476 C 0.82341 -0.21627 0.68642
 C477 C 0.80097 -0.20110 0.70276
 C478 C 0.79207 -0.17337 0.69193
 C479 C 0.80606 -0.16069 0.66651
 C480 C 0.84664 -0.16010 0.62700
 N481 N 0.83784 -0.13350 0.61645
 N482 N 0.85479 -0.11845 0.59708
 C483 C 0.88131 -0.12933 0.58746
 N484 N 0.88982 -0.15621 0.59747
 N485 N 0.87283 -0.17130 0.61680
 C486 C 0.90175 -0.11097 0.56924
 C487 C 0.93121 -0.11997 0.56433
 C488 C 0.95171 -0.10083 0.55147
 C489 C 0.94316 -0.07234 0.54315
 C490 C 0.91334 -0.06399 0.54613
 C491 C 0.89285 -0.08308 0.55910
 H492 H 0.85536 -0.21530 0.64976
 H493 H 0.83080 -0.23775 0.69368
 H494 H 0.77469 -0.16100 0.70345
 H495 H 0.79915 -0.13899 0.65950
 H496 H 0.93880 -0.14135 0.57167
 H497 H 0.97451 -0.10797 0.54914
 H498 H 0.90604 -0.04227 0.53961
 H499 H 0.87027 -0.07555 0.56224
 C500 C 1.19395 -0.18137 0.33066
 C501 C 1.17969 -0.20547 0.31700
 C502 C 1.18979 -0.21736 0.28893
 C503 C 1.21452 -0.20550 0.27373
 C504 C 1.22989 -0.18256 0.28853
 C505 C 1.21965 -0.17060 0.31656
 C506 C 1.18048 -0.16598 0.35767
 N507 N 1.19158 -0.14018 0.36813
 N508 N 1.17733 -0.12452 0.38974
 C509 C 1.15140 -0.13403 0.40185
 N510 N 1.14076 -0.16021 0.39200
 N511 N 1.15498 -0.17584 0.37041
 C512 C 1.13321 -0.11474 0.42219
 C513 C 1.10423 -0.12283 0.43006
 C514 C 1.08499 -0.10271 0.44405
 C515 C 1.09434 -0.07414 0.45075
 C516 C 1.12398 -0.06673 0.44532
 C517 C 1.14322 -0.08682 0.43103
 H518 H 1.15996 -0.21450 0.32732
 H519 H 1.17751 -0.23528 0.27873
 H520 H 1.24926 -0.17298 0.27798
 H521 H 1.23134 -0.15222 0.32659
 H522 H 1.09581 -0.14422 0.42394
 H523 H 1.06236 -0.10916 0.44841
 H524 H 1.13183 -0.04490 0.45043
 H525 H 1.16550 -0.07997 0.42559
 C526 C 0.86639 0.14507 0.28857
 C527 C 0.87675 0.17141 0.27624
 C528 C 0.85806 0.18913 0.25834
 C529 C 0.82876 0.18053 0.25183
 C530 C 0.81887 0.15365 0.26364
 C531 C 0.83735 0.13636 0.28200
 C532 C 0.88499 0.12731 0.30957
 N533 N 0.87203 0.11076 0.33168
 N534 N 0.88836 0.09535 0.35148
 C535 C 0.91834 0.09558 0.34983
 N536 N 0.93143 0.11183 0.32746
 N537 N 0.91504 0.12756 0.30779
 C538 C 0.93584 0.07918 0.37291
 C539 C 0.96271 0.06526 0.36513
 C540 C 0.97741 0.04771 0.38701
 C541 C 0.96574 0.04457 0.41709
 C542 C 0.93953 0.05957 0.42498
 C543 C 0.92465 0.07640 0.40310
 H544 H 0.89903 0.17870 0.28115
 H545 H 0.86669 0.20951 0.24961
 H546 H 0.79661 0.14603 0.25924
 H547 H 0.82883 0.11606 0.29110
 H548 H 0.97171 0.06712 0.34191
 H549 H 0.99762 0.03643 0.38039
 H550 H 0.92986 0.05753 0.44788
 H551 H 0.90414 0.08712 0.40978
 C552 C 0.13822 0.30567 -0.13033
 C553 C 0.12463 0.29071 -0.15504
 C554 C 0.14036 0.26990 -0.17238
 C555 C 0.16998 0.26302 -0.16499
 C556 C 0.18363 0.27841 -0.14038
 C557 C 0.16799 0.29968 -0.12347
 C558 C 0.12111 0.32705 -0.11160
 N559 N 0.13478 0.34912 -0.09605
 N560 N 0.11908 0.36863 -0.07967
 C561 C 0.08915 0.36656 -0.07789
 N562 N 0.07559 0.34431 -0.09321
 N563 N 0.09123 0.32501 -0.10978
 C564 C 0.07131 0.38879 -0.06111
 C565 C 0.04248 0.38218 -0.05144
 C566 C 0.02420 0.40390 -0.03882
 C567 C 0.03420 0.43282 -0.03608
 C568 C 0.06353 0.43917 -0.04432
 C569 C 0.08201 0.41727 -0.05654
 H570 H 0.10176 0.29512 -0.16105
 H571 H 0.12893 0.25876 -0.19112
 H572 H 0.20640 0.27402 -0.13395
 H573 H 0.17900 0.31092 -0.10452
 H574 H 0.03378 0.36032 -0.05429
 H575 H 0.00180 0.39825 -0.03242
 H576 H 0.07191 0.46122 -0.04218
 H577 H 0.10419 0.42295 -0.06372
 C578 C -0.17106 0.32537 0.17673
 C579 C -0.19868 0.31455 0.16726
 C580 C -0.20853 0.28736 0.17759
 C581 C -0.19080 0.27011 0.19741
 C582 C -0.16334 0.28134 0.20722
 C583 C -0.15372 0.30861 0.19715
 C584 C -0.15955 0.35319 0.16421
 N585 N -0.13450 0.36517 0.17601
 N586 N -0.12268 0.38877 0.16318
 C587 C -0.13537 0.40143 0.13796
 N588 N -0.16076 0.38978 0.12649
 N589 N -0.17264 0.36621 0.13940
 C590 C -0.12002 0.42523 0.12135
 C591 C -0.12952 0.43396 0.09167
 C592 C -0.11199 0.45229 0.07360
 C593 C -0.08467 0.46231 0.08489
 C594 C -0.07641 0.45565 0.11553
 C595 C -0.09386 0.43724 0.13355
 H596 H -0.21263 0.32697 0.15161
 H597 H -0.22985 0.27972 0.16953
 H598 H -0.14900 0.26905 0.22260
 H599 H -0.13228 0.31623 0.20486
 H600 H -0.14967 0.42536 0.08165
 H601 H -0.11906 0.45725 0.05015
 H602 H -0.05559 0.46326 0.12497
 H603 H -0.08608 0.43131 0.15649
 C604 C -0.17809 0.67179 -0.19137
 C605 C -0.16556 0.68317 -0.21859
 C606 C -0.17801 0.70776 -0.23285
 C607 C -0.20316 0.72158 -0.22008
 C608 C -0.21650 0.70931 -0.19379
 C609 C -0.20418 0.68468 -0.17966
 C610 C -0.16291 0.64829 -0.17378
 N611 N -0.17456 0.63845 -0.14676
 N612 N -0.15964 0.61965 -0.12911
 C613 C -0.13241 0.60982 -0.13768
 N614 N -0.12099 0.61911 -0.16506
 N615 N -0.13593 0.63796 -0.18274
 C616 C -0.11457 0.59169 -0.11610
 C617 C -0.08672 0.58042 -0.12487
 C618 C -0.06863 0.56629 -0.10309
 C619 C -0.07795 0.56356 -0.07210
 C620 C -0.10626 0.57370 -0.06375
 C621 C -0.12441 0.58743 -0.08550
 H622 H -0.14558 0.67369 -0.22834
 H623 H -0.16723 0.71657 -0.25317
 H624 H -0.23606 0.71920 -0.18353
 H625 H -0.21457 0.67642 -0.15886
 H626 H -0.07855 0.58319 -0.14831
 H627 H -0.04693 0.55858 -0.11016
 H628 H -0.11420 0.57158 -0.04012
 H629 H -0.14575 0.59568 -0.07791
 C630 C 0.15610 0.69755 0.15070
 C631 C 0.14911 0.70722 0.18085
 C632 C 0.16808 0.72590 0.19701
 C633 C 0.19430 0.73601 0.18313
 C634 C 0.20136 0.72601 0.15290
 C635 C 0.18261 0.70675 0.13704
 C636 C 0.13544 0.67836 0.13359
 N637 N 0.14528 0.65957 0.11120
 N638 N 0.12651 0.64201 0.09628
 C639 C 0.09711 0.64283 0.10290
 N640 N 0.08729 0.66180 0.12508
 N641 N 0.10607 0.67912 0.14019
 C642 C 0.07617 0.62292 0.08716
 C643 C 0.04602 0.63039 0.08523
 C644 C 0.02573 0.61084 0.07239
 C645 C 0.03507 0.58317 0.06182
 C646 C 0.06531 0.57591 0.06301
 C647 C 0.08574 0.59575 0.07529
 H648 H 0.12893 0.70025 0.19206
 H649 H 0.16169 0.73286 0.22018
 H650 H 0.22134 0.73304 0.14135
 H651 H 0.18851 0.69962 0.11378
 H652 H 0.03806 0.65129 0.09395
 H653 H 0.00255 0.61702 0.07171
 H654 H 0.07309 0.55477 0.05480
 H655 H 0.10885 0.58942 0.07650
 C656 C 0.30598 1.17056 0.85075
 C657 C 0.28846 1.18922 0.86931
 C658 C 0.26340 1.20295 0.85693
 C659 C 0.25512 1.19787 0.82589
 C660 C 0.27325 1.18005 0.80703
 C661 C 0.29856 1.16673 0.81927
 C662 C 0.33054 1.15355 0.86462
 N663 N 0.35172 1.14098 0.84643
 N664 N 0.37262 1.12395 0.85880
 C665 C 0.37299 1.11859 0.88982
 N666 N 0.35196 1.13137 0.90802
 N667 N 0.33122 1.14856 0.89569
 C668 C 0.39494 1.09823 0.90334
 C669 C 0.38904 1.08441 0.93170
 C670 C 0.40912 1.06429 0.94405
 C671 C 0.43577 1.05795 0.92858
 C672 C 0.44198 1.07209 0.90048
 C673 C 0.42158 1.09183 0.88779
 H674 H 0.29376 1.19275 0.89361
 H675 H 0.24986 1.21654 0.87204
 H676 H 0.26752 1.17590 0.78295
 H677 H 0.31161 1.15246 0.80438
 H678 H 0.36866 1.08879 0.94416
 H679 H 0.40395 1.05397 0.96594
 H680 H 0.46243 1.06762 0.88818
 H681 H 0.42674 1.10223 0.86594
 C682 C 0.31731 0.83965 1.15031
 C683 C 0.29617 0.82335 1.13378
 C684 C 0.27593 0.80589 1.14952
 C685 C 0.27609 0.80476 1.18216
 C686 C 0.29778 0.82040 1.19863
 C687 C 0.31833 0.83748 1.18285
 C688 C 0.33719 0.85989 1.13384
 N689 N 0.36228 0.86987 1.14757
 N690 N 0.37955 0.88895 1.13311
 C691 C 0.37224 0.89905 1.10447
 N692 N 0.34718 0.88903 1.09073
 N693 N 0.33005 0.86979 1.10509
 C694 C 0.39104 0.92063 1.08855
 C695 C 0.37933 0.93784 1.06450
 C696 C 0.39710 0.95794 1.04907
 C697 C 0.42708 0.96089 1.05702
 C698 C 0.43877 0.94386 1.08120
 C699 C 0.42086 0.92411 1.09702
 H700 H 0.29499 0.82442 1.10867
 H701 H 0.25945 0.79416 1.13618
 H702 H 0.29855 0.81984 1.22379
 H703 H 0.33435 0.84977 1.19624
 H704 H 0.35638 0.93581 1.05760
 H705 H 0.38747 0.97065 1.03044
 H706 H 0.46184 0.94565 1.08773
 H707 H 0.43051 0.91111 1.11542
 C708 C 0.68272 1.16688 1.17505
 C709 C 0.69207 1.19413 1.16384
 C710 C 0.71801 1.20697 1.17512
 C711 C 0.73522 1.19278 1.19777
 C712 C 0.72525 1.16608 1.20977
 C713 C 0.69932 1.15333 1.19860
 C714 C 0.65705 1.15173 1.16089
 N715 N 0.64853 1.12507 1.17122
 N716 N 0.62721 1.11026 1.15679
 C717 C 0.61346 1.12149 1.13140
 N718 N 0.62159 1.14839 1.12144
 N719 N 0.64289 1.16320 1.13588
 C720 C 0.59217 1.10370 1.11320
 C721 C 0.58158 1.11379 1.08445
 C722 C 0.56506 1.09554 1.06508
 C723 C 0.55852 1.06684 1.07408
 C724 C 0.56740 1.05729 1.10362
 C725 C 0.58417 1.07552 1.12297
 H726 H 0.67976 1.20526 1.14578
 H727 H 0.72497 1.22760 1.16544
 H728 H 0.73780 1.15464 1.22743
 H729 H 0.69276 1.13241 1.20789
 H730 H 0.58710 1.13540 1.07623
 H731 H 0.55828 1.10357 1.04251
 H732 H 0.56260 1.03527 1.11113
 H733 H 0.59177 1.06712 1.14508
 C734 C 0.70201 0.84750 0.83155
 C735 C 0.72008 0.85985 0.80866
 C736 C 0.73760 0.84205 0.78950
 C737 C 0.73782 0.81154 0.79318
 C738 C 0.71982 0.79916 0.81614
 C739 C 0.70187 0.81695 0.83495
 C740 C 0.68314 0.86638 0.85147
 N741 N 0.65890 0.85539 0.86573
 N742 N 0.64129 0.87262 0.88275
 C743 C 0.64736 0.90149 0.88646
 N744 N 0.67182 0.91241 0.87254
 N745 N 0.68930 0.89522 0.85531
 C746 C 0.62681 0.92091 0.90378
 C747 C 0.63632 0.94792 0.91589
 C748 C 0.61623 0.96693 0.93058
 C749 C 0.58622 0.95951 0.93271
 C750 C 0.57688 0.93230 0.92114
 C751 C 0.59701 0.91309 0.90711
 H752 H 0.72049 0.88330 0.80534
 H753 H 0.75137 0.85227 0.77215
 H754 H 0.71951 0.77572 0.81950
 H755 H 0.68819 0.80681 0.85242
 H756 H 0.65921 0.95443 0.91379
 H757 H 0.62393 0.98782 0.93929
 H758 H 0.55388 0.92596 0.92270
 H759 H 0.58899 0.89249 0.89796
   
