data_POSCAR
  _audit_creation_date              2014-09-24
  _audit_creation_method            'ToBaCCo'
  _symmetry_space_group_name_H-M    'P1'
  _symmetry_Int_Tables_number       1
  _symmetry_cell_setting            triclinic
  loop_
  _symmetry_equiv_pos_as_xyz
 x,y,z
_cell_length_a 38.4843
_cell_length_b 37.2623
_cell_length_c 30.2336
_cell_angle_alpha 90.191900
_cell_angle_beta 89.959500
_cell_angle_gamma 90.019400
loop_
  _atom_site_label
  _atom_site_type_symbol
  _atom_site_fract_x
  _atom_site_fract_y
  _atom_site_fract_z
Si1 Si 1.24727 0.25039 0.24717
 Si2 Si 0.75359 -0.24924 0.25256
 Si3 Si 0.75297 0.25033 -0.24697
 Si4 Si 1.24747 -0.25013 -0.25308
 Si5 Si 0.24654 0.25099 0.75236
 Si6 Si 0.75258 0.75056 0.74679
 Si7 Si 0.75193 0.25018 0.24666
 Si8 Si 0.24647 0.75058 0.25256
 O9 O 1.06253 -0.05120 0.07991
 O10 O 1.03123 -0.09184 0.03871
 C11 C 1.05438 -0.08360 0.06825
 O12 O 0.93527 0.04729 0.07521
 O13 O 0.96860 0.08756 0.03646
 C14 C 0.94365 0.07956 0.06351
 O15 O 0.94019 -0.05220 0.08131
 O16 O 0.97173 -0.09230 0.03960
 C17 C 0.94876 -0.08444 0.06946
 O18 O 1.06543 0.04857 0.07420
 O19 O 1.03125 0.08813 0.03560
 C20 C 1.05647 0.08063 0.06242
 Zr21 Zr 1.04460 -0.00153 0.05529
 O22 O 1.04489 0.00246 0.12517
 O23 O 1.09947 -0.00290 0.05174
 Zr24 Zr 0.95778 -0.00228 0.05723
 O25 O 0.96522 0.00001 0.12641
 O26 O 0.90333 -0.00419 0.06624
 O27 O 1.00147 -0.03433 0.06504
 O28 O 1.00094 0.03005 0.06406
 O29 O 1.06455 0.04726 -0.07579
 O30 O 1.03076 0.08751 -0.03727
 C31 C 1.05571 0.07954 -0.06442
 O32 O 0.93844 -0.05340 -0.07789
 O33 O 0.97078 -0.09291 -0.03673
 C34 C 0.94726 -0.08548 -0.06598
 O35 O 0.93462 0.04639 -0.07442
 O36 O 0.96813 0.08708 -0.03634
 C37 C 0.94306 0.07878 -0.06308
 O38 O 1.06131 -0.05247 -0.08004
 O39 O 1.03012 -0.09244 -0.03800
 C40 C 1.05300 -0.08467 -0.06796
 Zr41 Zr 1.04327 -0.00243 -0.05643
 O42 O 1.03971 0.00124 -0.12619
 O43 O 1.09808 -0.00495 -0.06023
 Zr44 Zr 0.95631 -0.00310 -0.05489
 O45 O 0.95829 0.00045 -0.12476
 O46 O 0.90146 -0.00697 -0.05668
 Zr47 Zr 1.00076 -0.05624 0.00064
 Zr48 Zr 0.99994 0.05163 -0.00010
 O49 O 0.99950 0.02896 -0.06391
 O50 O 0.99992 -0.03530 -0.06411
 O51 O 1.05046 0.02989 -0.00089
 O52 O 0.95063 -0.03370 0.00151
 O53 O 1.05062 -0.03310 -0.00042
 O54 O 0.94976 0.02887 0.00106
 H55 H 1.00101 0.04691 0.08949
 H56 H 0.92995 -0.04951 0.00195
 H57 H 0.99921 0.04546 -0.08956
 H58 H 1.07150 -0.04865 -0.00061
 H59 H 0.89298 -0.00764 0.03665
 H60 H 0.89221 0.01014 -0.03452
 H61 H 0.96885 -0.02197 -0.13612
 H62 H 1.02947 -0.02143 -0.13725
 H63 H 1.10709 0.00583 -0.03257
 H64 H 1.10799 -0.00253 0.08268
 H65 H 1.02975 -0.01686 0.13666
 H66 H 0.94166 0.00074 0.13958
 O67 O 0.93863 0.44824 0.41896
 O68 O 0.96949 0.40836 0.46142
 C69 C 0.94668 0.41606 0.43139
 O70 O 1.06578 0.54691 0.42393
 O71 O 1.03215 0.58783 0.46149
 C72 C 1.05733 0.57938 0.43488
 O73 O 1.06085 0.44742 0.41950
 O74 O 1.02894 0.40795 0.46138
 C75 C 1.05216 0.41536 0.43170
 O76 O 0.93552 0.54820 0.42304
 O77 O 0.96940 0.58838 0.46147
 C78 C 0.94437 0.58045 0.43452
 Zr79 Zr 0.95624 0.49840 0.44295
 O80 O 0.95673 0.50127 0.37302
 O81 O 0.90133 0.49699 0.44542
 Zr82 Zr 1.04307 0.49768 0.44252
 O83 O 1.03632 0.49881 0.37320
 O84 O 1.09761 0.49563 0.43454
 O85 O 0.99946 0.46548 0.43451
 O86 O 0.99999 0.52987 0.43440
 O87 O 0.93491 0.54934 0.57284
 O88 O 0.96912 0.58898 0.53425
 C89 C 0.94387 0.58144 0.56111
 O90 O 1.06095 0.44878 0.57878
 O91 O 1.02900 0.40860 0.53775
 C92 C 1.05223 0.41651 0.56724
 O93 O 1.06477 0.54848 0.57370
 O94 O 1.03172 0.58854 0.53436
 C95 C 1.05647 0.58066 0.56165
 O96 O 0.93793 0.44969 0.57881
 O97 O 0.96963 0.40906 0.53809
 C98 C 0.94637 0.41729 0.56746
 Zr99 Zr 0.95637 0.49934 0.55470
 O100 O 0.95925 0.50414 0.62445
 O101 O 0.90153 0.49692 0.55759
 Zr102 Zr 1.04332 0.49867 0.55466
 O103 O 1.04060 0.50336 0.62442
 O104 O 1.09815 0.49486 0.55752
 Zr105 Zr 0.99947 0.44463 0.49928
 Zr106 Zr 1.00033 0.55249 0.49820
 O107 O 1.00007 0.53087 0.56238
 O108 O 0.99961 0.46662 0.56368
 O109 O 0.94980 0.53073 0.49850
 O110 O 1.04961 0.46717 0.49887
 O111 O 0.94961 0.46776 0.49908
 O112 O 1.05051 0.52974 0.49830
 H113 H 1.00016 0.54633 0.40871
 H114 H 1.07029 0.45136 0.49903
 H115 H 1.00009 0.54778 0.58776
 H116 H 0.92873 0.45221 0.49918
 H117 H 1.10763 0.49278 0.46437
 H118 H 1.10766 0.51164 0.53529
 H119 H 1.02990 0.48114 0.63596
 H120 H 0.96923 0.48160 0.63605
 H121 H 0.89283 0.50709 0.52951
 H122 H 0.89320 0.49681 0.41432
 H123 H 0.97189 0.48169 0.36211
 H124 H 1.06001 0.49928 0.36038
 O125 O 0.54721 0.06540 0.57974
 O126 O 0.58644 0.03337 0.53801
 C127 C 0.57858 0.05687 0.56823
 O128 O 0.45144 -0.06489 0.57483
 O129 O 0.41241 -0.03086 0.53562
 C130 C 0.42016 -0.05607 0.56344
 O131 O 0.54782 -0.06057 0.58030
 O132 O 0.58689 -0.02792 0.53922
 C133 C 0.57914 -0.05155 0.56919
 O134 O 0.45064 0.06837 0.57454
 O135 O 0.41201 0.03357 0.53534
 C136 C 0.41945 0.05910 0.56314
 Zr137 Zr 0.49907 0.04739 0.55433
 O138 O 0.49564 0.04856 0.62421
 O139 O 0.50043 0.10398 0.54989
 Zr140 Zr 0.49954 -0.04255 0.55579
 O141 O 0.49777 -0.03535 0.62510
 O142 O 0.50095 -0.09891 0.56350
 O143 O 0.53061 0.00262 0.56388
 O144 O 0.46853 0.00224 0.56293
 O145 O 0.45163 0.06743 0.42247
 O146 O 0.41255 0.03318 0.46151
 C147 C 0.42032 0.05835 0.43357
 O148 O 0.54857 -0.06210 0.42005
 O149 O 0.58711 -0.02938 0.46196
 C150 C 0.57973 -0.05312 0.43190
 O151 O 0.45198 -0.06543 0.42287
 O152 O 0.41270 -0.03057 0.46083
 C153 C 0.42060 -0.05631 0.43353
 O154 O 0.54831 0.06415 0.41883
 O155 O 0.58713 0.03176 0.46051
 C156 C 0.57957 0.05527 0.43038
 Zr157 Zr 0.49979 0.04614 0.44297
 O158 O 0.49623 0.04365 0.37311
 O159 O 0.50260 0.10282 0.44111
 Zr160 Zr 0.50004 -0.04393 0.44390
 O161 O 0.49661 -0.04292 0.37399
 O162 O 0.50357 -0.10064 0.44345
 Zr163 Zr 0.55188 0.00186 0.49960
 Zr164 Zr 0.44727 0.00130 0.49889
 O165 O 0.46938 0.00092 0.43519
 O166 O 0.53128 0.00113 0.43494
 O167 O 0.46835 0.05352 0.49838
 O168 O 0.52997 -0.04988 0.50015
 O169 O 0.52977 0.05350 0.49885
 O170 O 0.46897 -0.05068 0.49969
 H171 H 0.45248 0.00235 0.58858
 H172 H 0.54544 -0.07111 0.50051
 H173 H 0.45370 0.00076 0.40921
 H174 H 0.54511 0.07486 0.49872
 H175 H 0.50503 -0.10929 0.53387
 H176 H 0.48519 -0.10991 0.46327
 H177 H 0.51742 -0.03036 0.36265
 H178 H 0.51733 0.03145 0.36196
 H179 H 0.48888 0.11191 0.46647
 H180 H 0.50027 0.11315 0.58071
 H181 H 0.51289 0.03125 0.63567
 H182 H 0.49712 -0.05977 0.63795
 O183 O 0.54880 0.56588 0.08096
 O184 O 0.58736 0.53356 0.03852
 C185 C 0.57997 0.55703 0.06895
 O186 O 0.45180 0.43667 0.07699
 O187 O 0.41276 0.47125 0.03855
 C188 C 0.42050 0.44583 0.06609
 O189 O 0.54832 0.44007 0.08109
 O190 O 0.58729 0.47232 0.03937
 C191 C 0.57962 0.44875 0.06941
 O192 O 0.45221 0.57008 0.07714
 O193 O 0.41298 0.53580 0.03824
 C194 C 0.42084 0.56122 0.06603
 Zr195 Zr 0.50026 0.54851 0.05624
 O196 O 0.49738 0.54947 0.12616
 O197 O 0.50220 0.60510 0.05204
 Zr198 Zr 0.49994 0.45863 0.05741
 O199 O 0.49887 0.46578 0.12675
 O200 O 0.50074 0.40225 0.06506
 O201 O 0.53150 0.50343 0.06516
 O202 O 0.46937 0.50368 0.06508
 O203 O 0.45180 0.56907 -0.07514
 O204 O 0.41279 0.53503 -0.03573
 C205 C 0.42051 0.56013 -0.06376
 O206 O 0.54784 0.43883 -0.07896
 O207 O 0.58704 0.47165 -0.03812
 C208 C 0.57920 0.44771 -0.06779
 O209 O 0.45112 0.43632 -0.07467
 O210 O 0.41243 0.47079 -0.03513
 C211 C 0.41992 0.44538 -0.06304
 O212 O 0.54825 0.56537 -0.08008
 O213 O 0.58711 0.53284 -0.03872
 C214 C 0.57951 0.55638 -0.06881
 Zr215 Zr 0.49997 0.54747 -0.05523
 O216 O 0.49582 0.54504 -0.12504
 O217 O 0.50315 0.60413 -0.05689
 Zr218 Zr 0.49955 0.45741 -0.05455
 O219 O 0.49552 0.45868 -0.12440
 O220 O 0.50251 0.40068 -0.05542
 Zr221 Zr 0.55218 0.50253 0.00054
 Zr222 Zr 0.44762 0.50309 0.00130
 O223 O 0.46912 0.50252 -0.06272
 O224 O 0.53106 0.50220 -0.06382
 O225 O 0.46911 0.55509 0.00067
 O226 O 0.52984 0.45103 0.00128
 O227 O 0.53049 0.55438 0.00031
 O228 O 0.46892 0.45092 0.00169
 H229 H 0.45351 0.50392 0.09092
 H230 H 0.54519 0.42970 0.00129
 H231 H 0.45314 0.50242 -0.08840
 H232 H 0.54596 0.57564 0.00008
 H233 H 0.50544 0.39185 0.03558
 H234 H 0.48467 0.39157 -0.03471
 H235 H 0.51652 0.47074 -0.13600
 H236 H 0.51671 0.53262 -0.13647
 H237 H 0.48972 0.61326 -0.03131
 H238 H 0.50244 0.61417 0.08290
 H239 H 0.51473 0.53213 0.13733
 H240 H 0.49806 0.44137 0.13957
 C241 C 1.21941 0.22719 0.20844
 C242 C 1.19864 0.21236 0.18497
 C243 C 1.17240 0.19466 0.15922
 C244 C 1.13760 0.19668 0.17267
 C245 C 1.11216 0.17702 0.15025
 C246 C 1.12148 0.15539 0.11423
 C247 C 1.15613 0.15419 0.09996
 C248 C 1.18158 0.17382 0.12243
 C249 C 1.09649 0.13144 0.09492
 C250 C 1.07705 0.10935 0.07970
 H251 H 1.13030 0.21264 0.20123
 H252 H 1.08552 0.17780 0.16183
 H253 H 1.16362 0.13720 0.07241
 H254 H 1.20844 0.17199 0.11192
 C255 C 1.21970 0.72637 0.70843
 C256 C 1.19898 0.71146 0.68499
 C257 C 1.17280 0.69376 0.65920
 C258 C 1.13795 0.69612 0.67231
 C259 C 1.11251 0.67656 0.64978
 C260 C 1.12190 0.65471 0.61400
 C261 C 1.15662 0.65315 0.60009
 C262 C 1.18207 0.67268 0.62267
 C263 C 1.09685 0.63095 0.59454
 C264 C 1.07729 0.60907 0.57917
 H265 H 1.13059 0.71229 0.70067
 H266 H 1.08580 0.67761 0.66107
 H267 H 1.16415 0.63599 0.57271
 H268 H 1.20898 0.67061 0.61242
 C269 C 0.72674 0.21784 0.72283
 C270 C 0.71009 0.19574 0.70266
 C271 C 0.69041 0.16917 0.67854
 C272 C 0.67475 0.14056 0.70100
 C273 C 0.65481 0.11535 0.67776
 C274 C 0.65052 0.11852 0.63190
 C275 C 0.66662 0.14683 0.60935
 C276 C 0.68655 0.17204 0.63259
 C277 C 0.62719 0.09472 0.60870
 C278 C 0.60604 0.07630 0.58980
 H279 H 0.67755 0.13803 0.73650
 H280 H 0.64220 0.09382 0.69566
 H281 H 0.66320 0.14982 0.57399
 H282 H 0.69854 0.19402 0.61484
 C283 C 0.72763 0.71797 0.22275
 C284 C 0.71125 0.69565 0.20270
 C285 C 0.69196 0.66884 0.17863
 C286 C 0.68849 0.67141 0.13262
 C287 C 0.66877 0.64604 0.10941
 C288 C 0.65253 0.61789 0.13208
 C289 C 0.65651 0.61497 0.17800
 C290 C 0.67623 0.64034 0.20121
 C291 C 0.62912 0.59423 0.10898
 C292 C 0.60776 0.57604 0.09022
 H293 H 0.70056 0.69331 0.11481
 H294 H 0.66555 0.64882 0.07399
 H295 H 0.64374 0.59358 0.19596
 H296 H 0.67875 0.63807 0.23678
 C297 C 0.78354 -0.22752 0.21525
 C298 C 0.80555 -0.21348 0.19300
 C299 C 0.83303 -0.19650 0.16874
 C300 C 0.86576 -0.19252 0.18843
 C301 C 0.89194 -0.17353 0.16666
 C302 C 0.88546 -0.15860 0.12507
 C303 C 0.85304 -0.16348 0.10482
 C304 C 0.82683 -0.18243 0.12663
 C305 C 0.91037 -0.13490 0.10533
 C306 C 0.92932 -0.11295 0.08900
 H307 H 0.87073 -0.20326 0.22109
 H308 H 0.91678 -0.16952 0.18280
 H309 H 0.84767 -0.15164 0.07286
 H310 H 0.80157 -0.18530 0.11122
 C311 C 0.78276 0.27263 0.71582
 C312 C 0.80443 0.28720 0.69346
 C313 C 0.83138 0.30484 0.66883
 C314 C 0.86455 0.30848 0.68742
 C315 C 0.89027 0.32787 0.66523
 C316 C 0.88291 0.34358 0.62430
 C317 C 0.85000 0.33916 0.60519
 C318 C 0.82426 0.31980 0.62740
 C319 C 0.90765 0.36725 0.60399
 C320 C 0.92664 0.38903 0.58727
 H321 H 0.87026 0.29707 0.71952
 H322 H 0.91549 0.33147 0.68051
 H323 H 0.84394 0.35155 0.57375
 H324 H 0.79867 0.31722 0.61283
 C325 C 0.27344 -0.21744 0.71725
 C326 C 0.28981 -0.19546 0.69678
 C327 C 0.30906 -0.16924 0.67192
 C328 C 0.31896 -0.17664 0.62822
 C329 C 0.33855 -0.15164 0.60444
 C330 C 0.34825 -0.11908 0.62419
 C331 C 0.33787 -0.11143 0.66765
 C332 C 0.31826 -0.13643 0.69144
 C333 C 0.37147 -0.09513 0.60139
 C334 C 0.39263 -0.07636 0.58330
 H335 H 0.31196 -0.20191 0.61278
 H336 H 0.34676 -0.15802 0.57103
 H337 H 0.34554 -0.08651 0.68342
 H338 H 0.31071 -0.13041 0.72518
 C339 C 0.27329 0.28339 0.21795
 C340 C 0.28973 0.30558 0.19788
 C341 C 0.30910 0.33208 0.17353
 C342 C 0.31758 0.32596 0.12906
 C343 C 0.33729 0.35117 0.10574
 C344 C 0.34852 0.38269 0.12672
 C345 C 0.33956 0.38908 0.17099
 C346 C 0.31985 0.36387 0.19432
 C347 C 0.37178 0.40677 0.10412
 C348 C 0.39296 0.42559 0.08608
 H349 H 0.30940 0.30149 0.11263
 H350 H 0.34437 0.34574 0.07167
 H351 H 0.34841 0.41317 0.18771
 H352 H 0.31341 0.36891 0.22868
 C353 C 0.78085 0.22704 -0.20841
 C354 C 0.80148 0.21179 -0.18523
 C355 C 0.82744 0.19339 -0.15983
 C356 C 0.86233 0.19514 -0.17301
 C357 C 0.88745 0.17490 -0.15095
 C358 C 0.87777 0.15292 -0.11557
 C359 C 0.84303 0.15189 -0.10165
 C360 C 0.81789 0.17211 -0.12375
 C361 C 0.90261 0.12888 -0.09622
 C362 C 0.92211 0.10699 -0.08080
 H363 H 0.86994 0.21141 -0.20104
 H364 H 0.91417 0.17562 -0.16225
 H365 H 0.83524 0.13470 -0.07456
 H366 H 0.79096 0.17044 -0.11345
 C367 C 0.78141 0.72805 0.29148
 C368 C 0.80221 0.71323 0.31476
 C369 C 0.82850 0.69533 0.34001
 C370 C 0.81938 0.67413 0.37633
 C371 C 0.84482 0.65409 0.39803
 C372 C 0.87938 0.65522 0.38344
 C373 C 0.88865 0.67722 0.34792
 C374 C 0.86322 0.69729 0.32626
 C375 C 0.90435 0.63106 0.40209
 C376 C 0.92377 0.60894 0.41704
 H377 H 0.79256 0.67231 0.38702
 H378 H 0.83738 0.63684 0.42524
 H379 H 0.91523 0.67797 0.33613
 H380 H 0.87045 0.71351 0.29802
 C381 C 0.27325 0.21818 0.27770
 C382 C 0.28968 0.19641 0.29843
 C383 C 0.30902 0.17029 0.32339
 C384 C 0.32120 0.13900 0.30274
 C385 C 0.34088 0.11416 0.32665
 C386 C 0.34839 0.12042 0.37137
 C387 C 0.33574 0.15144 0.39220
 C388 C 0.31606 0.17628 0.36829
 C389 C 0.37162 0.09679 0.39466
 C390 C 0.39278 0.07828 0.41317
 H391 H 0.31590 0.13407 0.26806
 H392 H 0.35083 0.09049 0.31006
 H393 H 0.34169 0.15678 0.42662
 H394 H 0.30676 0.20036 0.38462
 C395 C 0.27341 0.71804 -0.22203
 C396 C 0.28980 0.69655 -0.20086
 C397 C 0.30911 0.67080 -0.17536
 C398 C 0.32059 0.63886 -0.19509
 C399 C 0.34028 0.61436 -0.17068
 C400 C 0.34846 0.62163 -0.12639
 C401 C 0.33648 0.65330 -0.10645
 C402 C 0.31680 0.67780 -0.13086
 C403 C 0.37173 0.59831 -0.10277
 C404 C 0.39295 0.57999 -0.08412
 H405 H 0.31478 0.63315 -0.22946
 H406 H 0.34972 0.59015 -0.18659
 H407 H 0.34297 0.65939 -0.07238
 H408 H 0.30803 0.70240 -0.11525
 C409 C 1.21757 -0.22758 -0.21631
 C410 C 1.19569 -0.21325 -0.19404
 C411 C 1.16840 -0.19616 -0.16946
 C412 C 1.13565 -0.19186 -0.18894
 C413 C 1.10958 -0.17304 -0.16660
 C414 C 1.11619 -0.15862 -0.12465
 C415 C 1.14865 -0.16377 -0.10465
 C416 C 1.17474 -0.18256 -0.12702
 C417 C 1.09139 -0.13506 -0.10428
 C418 C 1.07247 -0.11319 -0.08760
 H419 H 1.13056 -0.20227 -0.22182
 H420 H 1.08472 -0.16879 -0.18255
 H421 H 1.15412 -0.15231 -0.07242
 H422 H 1.20001 -0.18572 -0.11175
 C423 C 1.21735 0.27262 0.28429
 C424 C 1.19540 0.28676 0.30668
 C425 C 1.16802 0.30366 0.33135
 C426 C 1.17449 0.31800 0.37339
 C427 C 1.14830 0.33671 0.39569
 C428 C 1.11560 0.34106 0.37603
 C429 C 1.10886 0.32588 0.33451
 C430 C 1.13503 0.30714 0.31224
 C431 C 1.09065 0.36464 0.39615
 C432 C 1.07165 0.38660 0.41253
 H433 H 1.19994 0.31551 0.38836
 H434 H 1.15388 0.34877 0.42757
 H435 H 1.08382 0.32950 0.31880
 H436 H 1.12983 0.29617 0.27967
 C437 C 0.72764 -0.21569 0.28107
 C438 C 0.71125 -0.19301 0.30050
 C439 C 0.69193 -0.16589 0.32401
 C440 C 0.68903 -0.16747 0.37017
 C441 C 0.66925 -0.14187 0.39292
 C442 C 0.65238 -0.11450 0.36963
 C443 C 0.65579 -0.11255 0.32354
 C444 C 0.67557 -0.13815 0.30079
 C445 C 0.62892 -0.09067 0.39240
 C446 C 0.60753 -0.07234 0.41091
 H447 H 0.70159 -0.18878 0.38847
 H448 H 0.66647 -0.14390 0.42849
 H449 H 0.64253 -0.09177 0.30513
 H450 H 0.67765 -0.13666 0.26511
 C451 C 0.72693 0.28371 -0.21800
 C452 C 0.71040 0.30633 -0.19857
 C453 C 0.69088 0.33348 -0.17523
 C454 C 0.67526 0.36164 -0.19852
 C455 C 0.65541 0.38736 -0.17601
 C456 C 0.65118 0.38515 -0.13004
 C457 C 0.66726 0.35730 -0.10667
 C458 C 0.68710 0.33158 -0.12918
 C459 C 0.62787 0.40938 -0.10750
 C460 C 0.60670 0.42807 -0.08902
 H461 H 0.67800 0.36342 -0.23411
 H462 H 0.64280 0.40851 -0.19453
 H463 H 0.66388 0.35505 -0.07120
 H464 H 0.69906 0.30996 -0.11079
 C465 C 1.21850 0.22710 -0.20981
 C466 C 1.19766 0.21179 -0.18696
 C467 C 1.17140 0.19354 -0.16185
 C468 C 1.18035 0.17375 -0.12428
 C469 C 1.15496 0.15389 -0.10211
 C470 C 1.12058 0.15380 -0.11743
 C471 C 1.11149 0.17430 -0.15435
 C472 C 1.13686 0.19419 -0.17648
 C473 C 1.09568 0.12990 -0.09791
 C474 C 1.07629 0.10797 -0.08233
 H475 H 1.20701 0.17299 -0.11282
 H476 H 1.16230 0.13780 -0.07383
 H477 H 1.08508 0.17411 -0.16673
 H478 H 1.12973 0.20935 -0.20563
 C479 C 1.22013 0.72745 0.28831
 C480 C 1.19965 0.71169 0.31131
 C481 C 1.17377 0.69295 0.33666
 C482 C 1.13868 0.69569 0.32471
 C483 C 1.11352 0.67558 0.34699
 C484 C 1.12334 0.65270 0.38143
 C485 C 1.15833 0.65058 0.39406
 C486 C 1.18351 0.67067 0.37173
 C487 C 1.09825 0.62904 0.40122
 C488 C 1.07852 0.60744 0.41696
 H489 H 1.13090 0.71275 0.29750
 H490 H 1.08661 0.67718 0.33666
 H491 H 1.16625 0.63270 0.42039
 H492 H 1.21057 0.66823 0.38113
 C493 C 0.72594 0.21737 0.27647
 C494 C 0.70961 0.19502 0.29648
 C495 C 0.69043 0.16812 0.32050
 C496 C 0.67499 0.13935 0.29789
 C497 C 0.65551 0.11382 0.32105
 C498 C 0.65147 0.11683 0.36700
 C499 C 0.66738 0.14528 0.38970
 C500 C 0.68685 0.17081 0.36654
 C501 C 0.62836 0.09286 0.39014
 C502 C 0.60723 0.07445 0.40897
 H503 H 0.67759 0.13695 0.26232
 H504 H 0.64301 0.09221 0.30304
 H505 H 0.66412 0.14815 0.42514
 H506 H 0.69868 0.19290 0.38442
 C507 C 0.72663 0.71752 -0.22363
 C508 C 0.71023 0.69518 -0.20364
 C509 C 0.69088 0.66841 -0.17955
 C510 C 0.68789 0.67080 -0.13342
 C511 C 0.66823 0.64547 -0.11015
 C512 C 0.65153 0.61750 -0.13283
 C513 C 0.65498 0.61478 -0.17889
 C514 C 0.67464 0.64011 -0.20216
 C515 C 0.62832 0.59372 -0.10949
 C516 C 0.60716 0.57545 -0.09047
 H517 H 0.70033 0.69252 -0.11553
 H518 H 0.66546 0.64814 -0.07462
 H519 H 0.64188 0.59354 -0.19690
 H520 H 0.67676 0.63793 -0.23781
 C521 C 0.78254 -0.22784 -0.21544
 C522 C 0.80439 -0.21390 -0.19267
 C523 C 0.83164 -0.19708 -0.16758
 C524 C 0.86486 -0.19375 -0.18615
 C525 C 0.89086 -0.17500 -0.16355
 C526 C 0.88376 -0.15964 -0.12220
 C527 C 0.85082 -0.16384 -0.10307
 C528 C 0.82479 -0.18256 -0.12571
 C529 C 0.90866 -0.13612 -0.10174
 C530 C 0.92768 -0.11423 -0.08517
 H531 H 0.87037 -0.20482 -0.21859
 H532 H 0.91609 -0.17152 -0.17889
 H533 H 0.84493 -0.15167 -0.07134
 H534 H 0.79917 -0.18490 -0.11112
 C535 C 0.78184 0.27215 0.28410
 C536 C 0.80369 0.28643 0.30653
 C537 C 0.83092 0.30369 0.33115
 C538 C 0.86404 0.30699 0.31229
 C539 C 0.89003 0.32614 0.33440
 C540 C 0.88299 0.34193 0.37551
 C541 C 0.85013 0.33779 0.39491
 C542 C 0.82413 0.31867 0.37277
 C543 C 0.90790 0.36561 0.39557
 C544 C 0.92697 0.38752 0.41201
 H545 H 0.86950 0.29556 0.28002
 H546 H 0.91519 0.32954 0.31888
 H547 H 0.84432 0.35027 0.42648
 H548 H 0.79857 0.31636 0.38755
 C549 C 0.27145 -0.21885 0.28139
 C550 C 0.28839 -0.19714 0.30189
 C551 C 0.30849 -0.17115 0.32657
 C552 C 0.32741 -0.18189 0.36384
 C553 C 0.34759 -0.15695 0.38720
 C554 C 0.34897 -0.12104 0.37355
 C555 C 0.32972 -0.11018 0.33659
 C556 C 0.30950 -0.13515 0.31322
 C557 C 0.37213 -0.09627 0.39563
 C558 C 0.39316 -0.07695 0.41347
 H559 H 0.32688 -0.20960 0.37455
 H560 H 0.36258 -0.16581 0.41545
 H561 H 0.33078 -0.08261 0.32543
 H562 H 0.29499 -0.12647 0.28449
 C563 C 0.27258 0.28353 -0.21727
 C564 C 0.28903 0.30545 -0.19654
 C565 C 0.30841 0.33167 -0.17149
 C566 C 0.31545 0.36551 -0.18955
 C567 C 0.33514 0.39056 -0.16570
 C568 C 0.34779 0.38196 -0.12357
 C569 C 0.34027 0.34833 -0.10524
 C570 C 0.32060 0.32329 -0.12909
 C571 C 0.37101 0.40618 -0.10088
 C572 C 0.39222 0.42510 -0.08285
 H573 H 0.30615 0.37233 -0.22227
 H574 H 0.34108 0.41630 -0.18044
 H575 H 0.35021 0.34120 -0.07292
 H576 H 0.31532 0.29725 -0.11475
 C577 C 1.21850 -0.22722 0.21801
 C578 C 1.19701 -0.21222 0.19577
 C579 C 1.17013 -0.19440 0.17116
 C580 C 1.17707 -0.18015 0.12929
 C581 C 1.15124 -0.16116 0.10675
 C582 C 1.11838 -0.15642 0.12596
 C583 C 1.11123 -0.17134 0.16742
 C584 C 1.13703 -0.19035 0.18993
 C585 C 1.09344 -0.13322 0.10512
 C586 C 1.07427 -0.11176 0.08811
 H587 H 1.20257 -0.18308 0.11450
 H588 H 1.15718 -0.14937 0.07491
 H589 H 1.08607 -0.16749 0.18282
 H590 H 1.13141 -0.20125 0.22234
 C591 C 1.21671 0.27391 0.71591
 C592 C 1.19484 0.28845 0.69391
 C593 C 1.16755 0.30575 0.66963
 C594 C 1.17309 0.31714 0.62612
 C595 C 1.14699 0.33581 0.60375
 C596 C 1.11527 0.34304 0.62481
 C597 C 1.10945 0.33088 0.66794
 C598 C 1.13552 0.31219 0.69027
 C599 C 1.09053 0.36639 0.60405
 C600 C 1.07164 0.38808 0.58709
 H601 H 1.19777 0.31230 0.60990
 H602 H 1.15189 0.34551 0.57059
 H603 H 1.08521 0.33673 0.68471
 H604 H 1.13102 0.30348 0.72395
 C605 C 0.72629 -0.21563 0.71915
 C606 C 0.70947 -0.19281 0.70066
 C607 C 0.68942 -0.16549 0.67858
 C608 C 0.70246 -0.14851 0.64067
 C609 C 0.68245 -0.12272 0.61863
 C610 C 0.64934 -0.11371 0.63450
 C611 C 0.63654 -0.13039 0.67269
 C612 C 0.65649 -0.15614 0.69466
 C613 C 0.62722 -0.08937 0.61039
 C614 C 0.60659 -0.07076 0.59099
 H615 H 0.72789 -0.15550 0.62791
 H616 H 0.69255 -0.11027 0.58896
 H617 H 0.61085 -0.12392 0.68508
 H618 H 0.64607 -0.16905 0.72386
 C619 C 0.72594 0.28377 0.21831
 C620 C 0.70960 0.30658 0.19915
 C621 C 0.69039 0.33395 0.17605
 C622 C 0.67438 0.36185 0.19967
 C623 C 0.65488 0.38781 0.17733
 C624 C 0.65137 0.38611 0.13121
 C625 C 0.66785 0.35853 0.10754
 C626 C 0.68735 0.33257 0.12987
 C627 C 0.62828 0.41048 0.10877
 C628 C 0.60719 0.42921 0.09042
 H629 H 0.67656 0.36323 0.23536
 H630 H 0.64195 0.40873 0.19607
 H631 H 0.66501 0.35666 0.07195
 H632 H 0.69962 0.31117 0.11123
 C633 C 0.77984 0.22723 0.20762
 C634 C 0.80060 0.21223 0.18423
 C635 C 0.82679 0.19410 0.15873
 C636 C 0.81743 0.17176 0.12339
 C637 C 0.84286 0.15167 0.10145
 C638 C 0.87767 0.15387 0.11480
 C639 C 0.88714 0.17694 0.14938
 C640 C 0.86173 0.19706 0.17127
 C641 C 0.90284 0.12986 0.09587
 C642 C 0.92255 0.10792 0.08081
 H643 H 0.79046 0.16915 0.11362
 H644 H 0.83524 0.13362 0.07500
 H645 H 0.91392 0.17856 0.16024
 H646 H 0.86918 0.21414 0.19875
 C647 C 0.78049 0.72807 0.70726
 C648 C 0.80128 0.71341 0.68355
 C649 C 0.82751 0.69570 0.65764
 C650 C 0.81823 0.67410 0.62156
 C651 C 0.84367 0.65435 0.59917
 C652 C 0.87846 0.65614 0.61279
 C653 C 0.88786 0.67852 0.64809
 C654 C 0.86243 0.69830 0.67043
 C655 C 0.90356 0.63219 0.59353
 C656 C 0.92312 0.61014 0.57834
 H657 H 0.79129 0.67176 0.61157
 H658 H 0.83609 0.63681 0.57219
 H659 H 0.91460 0.67979 0.65918
 H660 H 0.86984 0.71481 0.69845
 C661 C 0.27253 0.21912 0.72085
 C662 C 0.28890 0.19747 0.69958
 C663 C 0.30817 0.17142 0.67409
 C664 C 0.31679 0.17845 0.62991
 C665 C 0.33636 0.15361 0.60557
 C666 C 0.34731 0.12152 0.62523
 C667 C 0.33821 0.11425 0.66920
 C668 C 0.31864 0.13909 0.69353
 C669 C 0.37051 0.09775 0.60176
 C670 C 0.39171 0.07913 0.58326
 H671 H 0.30882 0.20333 0.61449
 H672 H 0.34355 0.15974 0.57178
 H673 H 0.34684 0.08974 0.68494
 H674 H 0.31212 0.13332 0.72764
 C675 C 0.27150 0.72075 0.22265
 C676 C 0.28843 0.69938 0.20157
 C677 C 0.30844 0.67360 0.17644
 C678 C 0.31740 0.68064 0.13235
 C679 C 0.33756 0.65603 0.10837
 C680 C 0.34882 0.62414 0.12826
 C681 C 0.33946 0.61689 0.17216
 C682 C 0.31930 0.64149 0.19613
 C683 C 0.37220 0.60036 0.10493
 C684 C 0.39335 0.58160 0.08642
 H685 H 0.30917 0.70533 0.11670
 H686 H 0.34488 0.66217 0.07463
 H687 H 0.34826 0.59254 0.18811
 H688 H 0.31255 0.63569 0.23016
   
