data_POSCAR
  _audit_creation_date              2014-09-24
  _audit_creation_method            'ToBaCCo'
  _symmetry_space_group_name_H-M    'P1'
  _symmetry_Int_Tables_number       1
  _symmetry_cell_setting            triclinic
  loop_
  _symmetry_equiv_pos_as_xyz
 x,y,z
_cell_length_a 30.6511
_cell_length_b 30.7112
_cell_length_c 49.8741
_cell_angle_alpha 89.319200
_cell_angle_beta 90.831700
_cell_angle_gamma 89.323800
loop_
  _atom_site_label
  _atom_site_type_symbol
  _atom_site_fract_x
  _atom_site_fract_y
  _atom_site_fract_z
O1 O 0.03552 0.54149 1.02618
 O2 O 0.03668 0.45766 0.97393
 O3 O 0.03714 0.54253 0.97405
 O4 O 0.03607 0.45662 1.02603
 O5 O -0.03589 0.45729 1.02481
 O6 O -0.03474 0.54355 0.97280
 O7 O -0.03528 0.45865 0.97269
 O8 O -0.03644 0.54221 1.02494
 Cu9 Cu 0.04355 0.49951 1.00017
 Cu10 Cu -0.04279 0.50053 0.99868
 C11 C -0.00070 0.55631 1.03445
 C12 C 0.00085 0.44364 0.96446
 C13 C 0.00145 0.55801 0.96454
 C14 C -0.00004 0.44204 1.03423
 O15 O 0.54476 -0.03249 0.52685
 O16 O 0.45738 -0.03473 0.47537
 O17 O 0.54241 -0.03462 0.47473
 O18 O 0.45974 -0.03361 0.52748
 O19 O 0.45821 0.03819 0.52611
 O20 O 0.54113 0.03718 0.47335
 O21 O 0.45611 0.03708 0.47400
 O22 O 0.54323 0.03925 0.52547
 Cu23 Cu 0.50123 -0.04105 0.50125
 Cu24 Cu 0.49954 0.04511 0.49960
 C25 C 0.55916 0.00380 0.53496
 C26 C 0.44166 0.00084 0.46594
 C27 C 0.55607 0.00107 0.46506
 C28 C 0.44463 0.00242 0.53575
 C29 C 0.08325 -0.00173 0.26162
 H30 H 0.08603 -0.00131 0.24002
 C31 C 0.12080 -0.00105 0.27781
 H32 H 0.15247 -0.00064 0.26848
 C33 C 0.03844 -0.00333 0.29992
 H34 H 0.00633 -0.00345 0.30852
 C35 C 0.07509 -0.00270 0.31685
 H36 H 0.07066 -0.00235 0.33834
 N37 N 0.04313 -0.00359 0.27285
 C38 C -0.04009 -0.06389 0.21237
 H39 H -0.06654 -0.04028 0.21106
 C40 C -0.04095 -0.10086 0.19635
 H41 H -0.06800 -0.10519 0.18248
 C42 C 0.02771 -0.08622 0.23172
 H43 H 0.05413 -0.08079 0.24579
 C44 C 0.02818 -0.12363 0.21609
 H45 H 0.05509 -0.14660 0.21833
 Zn46 Zn -0.00623 -0.00510 0.24957
 N47 N -0.00570 -0.05683 0.22923
 C48 C -0.00302 0.04013 0.19955
 N49 N -0.00388 0.04446 0.22665
 C50 C -0.00189 0.08432 0.23816
 C51 C -0.00040 0.12198 0.22224
 C52 C -0.00145 0.07690 0.18288
 C53 C -0.06590 -0.03890 0.28609
 C54 C -0.10305 -0.03962 0.30196
 C55 C -0.12497 0.02994 0.28272
 C56 C -0.08739 0.02933 0.26723
 N57 N -0.05832 -0.00436 0.26957
 H58 H -0.00354 0.00821 0.19073
 H59 H -0.00174 0.08680 0.25978
 H60 H 0.00120 0.15342 0.23179
 H61 H -0.00173 0.07277 0.16135
 H62 H -0.04254 -0.06556 0.28729
 H63 H -0.10776 -0.06679 0.31559
 H64 H -0.14767 0.05710 0.28062
 H65 H -0.08155 0.05588 0.25342
 C66 C -0.00624 -0.13111 0.19789
 C67 C 0.11700 -0.00189 0.30584
 C68 C -0.13296 -0.00462 0.30060
 C69 C -0.00039 0.11855 0.19419
 C70 C 0.00086 0.09248 0.76140
 H71 H 0.00015 0.09567 0.73977
 C72 C 0.00006 0.12968 0.77725
 H73 H -0.00076 0.16148 0.76764
 C74 C 0.00342 0.04702 0.80012
 H75 H 0.00401 0.01480 0.80901
 C76 C 0.00269 0.08328 0.81671
 H77 H 0.00271 0.07845 0.83825
 N78 N 0.00330 0.05220 0.77299
 C79 C 0.06458 -0.03081 0.71354
 H80 H 0.04130 -0.05698 0.71260
 C81 C 0.10166 -0.03201 0.69762
 H82 H 0.10639 -0.05903 0.68418
 C83 C 0.08603 0.03657 0.73191
 H84 H 0.08024 0.06293 0.74558
 C85 C 0.12353 0.03668 0.71635
 H86 H 0.14620 0.06328 0.71825
 Zn87 Zn 0.00534 0.00324 0.75025
 N88 N 0.05705 0.00352 0.72988
 C89 C -0.04023 0.00723 0.70021
 N90 N -0.04448 0.00624 0.72732
 C91 C -0.08443 0.00837 0.73877
 C92 C -0.12225 0.01004 0.72280
 C93 C -0.07715 0.00897 0.68349
 C94 C 0.04069 -0.05708 0.78725
 C95 C 0.04231 -0.09435 0.80355
 C96 C -0.02749 -0.11536 0.78504
 C97 C -0.02780 -0.07765 0.76912
 N98 N 0.00560 -0.04899 0.77087
 H99 H -0.00827 0.00659 0.69142
 H100 H -0.08686 0.00842 0.76039
 H101 H -0.15376 0.01166 0.73230
 H102 H -0.07306 0.00870 0.66197
 H103 H 0.06720 -0.03415 0.78787
 H104 H 0.07045 -0.10008 0.81654
 H105 H -0.05495 -0.13715 0.78389
 H106 H -0.05493 -0.07126 0.75554
 C107 C 0.13154 0.00228 0.69871
 C108 C 0.00139 0.12533 0.80532
 C109 C 0.00768 -0.12387 0.80278
 C110 C -0.11888 0.01008 0.69475
 C111 C -0.00260 -0.34260 0.09323
 C112 C 0.03723 -0.35957 0.08447
 C113 C 0.03791 -0.39278 0.06553
 C114 C -0.00132 -0.40942 0.05509
 C115 C -0.04119 -0.39239 0.06422
 C116 C -0.04178 -0.35919 0.08315
 C117 C -0.00327 -0.30750 0.11208
 C118 C -0.00380 -0.27772 0.12761
 C119 C -0.00430 -0.24173 0.14583
 C120 C 0.03417 -0.21922 0.15131
 C121 C 0.03360 -0.18351 0.16842
 C122 C -0.00553 -0.16978 0.18028
 C123 C -0.04400 -0.19283 0.17479
 C124 C -0.04334 -0.22857 0.15767
 H125 H 0.06775 -0.34690 0.09211
 H126 H 0.06914 -0.40515 0.05892
 H127 H -0.07196 -0.40446 0.05659
 H128 H -0.07279 -0.34624 0.08977
 H129 H 0.06453 -0.22901 0.14215
 H130 H 0.06362 -0.16610 0.17193
 H131 H -0.07451 -0.18341 0.18385
 H132 H -0.07331 -0.24581 0.15358
 C133 C -0.00033 0.33728 0.09207
 C134 C 0.03917 0.35470 0.08357
 C135 C 0.03927 0.38915 0.06500
 C136 C -0.00024 0.40663 0.05465
 C137 C -0.03983 0.38921 0.06356
 C138 C -0.03982 0.35473 0.08214
 C139 C -0.00024 0.30076 0.11042
 C140 C 0.00007 0.26975 0.12547
 C141 C 0.00062 0.23226 0.14307
 C142 C 0.02582 0.19562 0.13674
 C143 C 0.02579 0.15878 0.15345
 C144 C 0.00050 0.15809 0.17677
 C145 C -0.02446 0.19524 0.18309
 C146 C -0.02441 0.23206 0.16631
 H147 H 0.06993 0.34138 0.09110
 H148 H 0.07030 0.40179 0.05857
 H149 H -0.07078 0.40190 0.05598
 H150 H -0.07060 0.34143 0.08855
 H151 H 0.04541 0.19548 0.11882
 H152 H 0.04581 0.13094 0.14824
 H153 H -0.04468 0.19553 0.20071
 H154 H -0.04414 0.26021 0.17136
 C155 C 0.34384 0.00285 0.59470
 C156 C 0.35952 0.04222 0.58449
 C157 C 0.39269 0.04217 0.56553
 C158 C 0.41057 0.00264 0.55651
 C159 C 0.39488 -0.03676 0.56712
 C160 C 0.36172 -0.03661 0.58607
 C161 C 0.30867 0.00287 0.61350
 C162 C 0.27880 0.00284 0.62897
 C163 C 0.24269 0.00285 0.64708
 C164 C 0.21966 0.04153 0.65184
 C165 C 0.18378 0.04141 0.66882
 C166 C 0.17039 0.00253 0.68126
 C167 C 0.19397 -0.03615 0.67649
 C168 C 0.22988 -0.03595 0.65951
 H169 H 0.34584 0.07295 0.59101
 H170 H 0.40402 0.07304 0.55777
 H171 H 0.40792 -0.06774 0.56061
 H172 H 0.34977 -0.06727 0.59382
 H173 H 0.22917 0.07170 0.64221
 H174 H 0.16596 0.07159 0.67176
 H175 H 0.18482 -0.06649 0.68603
 H176 H 0.24751 -0.06607 0.65598
 C177 C -0.33744 0.00690 0.59188
 C178 C -0.35582 0.04576 0.58183
 C179 C -0.39030 0.04481 0.56320
 C180 C -0.40696 0.00479 0.55426
 C181 C -0.38841 -0.03415 0.56479
 C182 C -0.35391 -0.03302 0.58343
 C183 C -0.30100 0.00801 0.61037
 C184 C -0.27009 0.00902 0.62557
 C185 C -0.23273 0.01020 0.64334
 C186 C -0.19678 0.03557 0.63665
 C187 C -0.15993 0.03591 0.65348
 C188 C -0.15855 0.01082 0.67728
 C189 C -0.19506 -0.01424 0.68398
 C190 C -0.23188 -0.01456 0.66709
 H191 H -0.34327 0.07685 0.58823
 H192 H -0.40358 0.07551 0.55569
 H193 H -0.40019 -0.06560 0.55852
 H194 H -0.33986 -0.06332 0.59107
 H195 H -0.19713 0.05493 0.61834
 H196 H -0.13261 0.05599 0.64796
 H197 H -0.19479 -0.03431 0.70198
 H198 H -0.25948 -0.03444 0.67242
 C199 C 0.00348 -0.33982 0.90706
 C200 C -0.03636 -0.35632 0.91566
 C201 C -0.03715 -0.39043 0.93447
 C202 C 0.00206 -0.40855 0.94505
 C203 C 0.04198 -0.39187 0.93594
 C204 C 0.04259 -0.35779 0.91714
 C205 C 0.00430 -0.30371 0.88843
 C206 C 0.00519 -0.27304 0.87314
 C207 C 0.00641 -0.23595 0.85527
 C208 C -0.00819 -0.23938 0.82867
 C209 C -0.00752 -0.20306 0.81149
 C210 C 0.00782 -0.16281 0.82073
 C211 C 0.02264 -0.15983 0.84748
 C212 C 0.02191 -0.19615 0.86460
 H213 H -0.06685 -0.34258 0.90800
 H214 H -0.06853 -0.40225 0.94087
 H215 H 0.07288 -0.40482 0.94347
 H216 H 0.07362 -0.34520 0.91063
 H217 H -0.02016 -0.27007 0.82122
 H218 H -0.01866 -0.20654 0.79094
 H219 H 0.03403 -0.12919 0.85532
 H220 H 0.03316 -0.19310 0.88519
 C221 C 0.00155 0.34127 0.90652
 C222 C 0.04096 0.35753 0.91649
 C223 C 0.04081 0.39127 0.93508
 C224 C 0.00116 0.40913 0.94397
 C225 C -0.03828 0.39290 0.93356
 C226 C -0.03804 0.35918 0.91498
 C227 C 0.00169 0.30534 0.88826
 C228 C 0.00183 0.27476 0.87333
 C229 C 0.00211 0.23769 0.85595
 C230 C 0.02856 0.20152 0.86237
 C231 C 0.02841 0.16507 0.84587
 C232 C 0.00173 0.16430 0.82267
 C233 C -0.02458 0.20095 0.81630
 C234 C -0.02441 0.23738 0.83287
 H235 H 0.07179 0.34383 0.91012
 H236 H 0.07172 0.40300 0.94270
 H237 H -0.06936 0.40592 0.93998
 H238 H -0.06874 0.34677 0.90742
 H239 H 0.04927 0.20145 0.88016
 H240 H 0.04951 0.13766 0.85111
 H241 H -0.04583 0.20115 0.79876
 H242 H -0.04514 0.26517 0.82777
 C243 C -0.34384 -0.00064 0.40566
 C244 C -0.36093 0.03908 0.41446
 C245 C -0.39383 0.03970 0.43360
 C246 C -0.41002 0.00052 0.44421
 C247 C -0.39289 -0.03924 0.43504
 C248 C -0.36001 -0.03977 0.41590
 C249 C -0.30900 -0.00124 0.38664
 C250 C -0.27940 -0.00176 0.37098
 C251 C -0.24358 -0.00230 0.35265
 C252 C -0.22064 0.03593 0.34746
 C253 C -0.18497 0.03526 0.33031
 C254 C -0.17172 -0.00374 0.31814
 C255 C -0.19524 -0.04194 0.32332
 C256 C -0.23094 -0.04118 0.34047
 H257 H -0.34858 0.06956 0.40670
 H258 H -0.40630 0.07084 0.44023
 H259 H -0.40462 -0.06997 0.44279
 H260 H -0.34695 -0.07069 0.40926
 H261 H -0.23002 0.06616 0.35689
 H262 H -0.16719 0.06507 0.32705
 H263 H -0.18619 -0.07233 0.31400
 H264 H -0.24850 -0.07096 0.34433
 C265 C 0.33605 -0.00099 0.40841
 C266 C 0.35396 -0.04014 0.41843
 C267 C 0.38868 -0.03963 0.43693
 C268 C 0.40588 0.00014 0.44568
 C269 C 0.38791 0.03931 0.43527
 C270 C 0.35322 0.03870 0.41677
 C271 C 0.29937 -0.00149 0.39008
 C272 C 0.26826 -0.00182 0.37503
 C273 C 0.23068 -0.00222 0.35740
 C274 C 0.19504 -0.02829 0.36369
 C275 C 0.15815 -0.02826 0.34690
 C276 C 0.15639 -0.00209 0.32354
 C277 C 0.19250 0.02385 0.31731
 C278 C 0.22937 0.02380 0.33417
 H279 H 0.34086 -0.07105 0.41212
 H280 H 0.40174 -0.07033 0.44456
 H281 H 0.40037 0.07046 0.44158
 H282 H 0.33954 0.06919 0.40918
 H283 H 0.19574 -0.04861 0.38161
 H284 H 0.13117 -0.04905 0.35204
 H285 H 0.19194 0.04472 0.29965
 H286 H 0.25673 0.04423 0.32917
   
