data_POSCAR
  _audit_creation_date              2014-09-24
  _audit_creation_method            'ToBaCCo'
  _symmetry_space_group_name_H-M    'P1'
  _symmetry_Int_Tables_number       1
  _symmetry_cell_setting            triclinic
  loop_
  _symmetry_equiv_pos_as_xyz
 x,y,z
_cell_length_a 28.2884
_cell_length_b 28.2637
_cell_length_c 28.2295
_cell_angle_alpha 89.517900
_cell_angle_beta 89.761000
_cell_angle_gamma 89.943900
loop_
  _atom_site_label
  _atom_site_type_symbol
  _atom_site_fract_x
  _atom_site_fract_y
  _atom_site_fract_z
C1 C 0.46059 1.01204 -0.52703
 C2 C 0.45813 1.00917 -0.47712
 C3 C 0.49994 1.00475 -0.45101
 C4 C 0.54515 1.00631 -0.47232
 C5 C 0.54789 1.01477 -0.52209
 C6 C 0.50550 1.01669 -0.54814
 H7 H 0.50749 1.02056 -0.58638
 H8 H 0.49688 1.00192 -0.41275
 C9 C -0.52214 1.45497 0.00835
 C10 C -0.47482 1.45358 -0.00742
 C11 C -0.45072 1.49616 -0.01592
 C12 C -0.47188 1.54067 -0.00817
 C13 C -0.51968 1.54172 0.00748
 C14 C -0.54374 1.49897 0.01563
 H15 H -0.58085 1.49996 0.02546
 H16 H -0.41357 1.49415 -0.02530
 C17 C -0.01090 0.46775 0.46088
 C18 C -0.01304 0.51755 0.45512
 C19 C -0.01190 0.54655 0.49516
 C20 C -0.01141 0.52808 0.54167
 C21 C -0.01449 0.47831 0.54738
 C22 C -0.01279 0.44929 0.50735
 H23 H -0.01386 0.41125 0.51281
 H24 H -0.01229 0.58460 0.48965
 O25 O -0.11969 1.00150 -0.06175
 O26 O 0.12329 0.99847 -0.06426
 O27 O -0.00037 1.06692 -0.11812
 O28 O 0.00282 0.93806 -0.12223
 O29 O 0.00475 0.87850 -0.06587
 O30 O -0.00026 1.12179 -0.05820
 O31 O 0.06489 1.00060 -0.12089
 O32 O -0.06193 1.00336 -0.11963
 Zr33 Zr 0.00170 1.00092 -0.08169
 O34 O 0.04506 0.95662 -0.04318
 O35 O -0.04120 1.04194 -0.03965
 C36 C -0.10562 1.00354 -0.10567
 C37 C 0.10876 0.99904 -0.10796
 C38 C -0.00124 1.11011 -0.10247
 C39 C 0.00454 0.89381 -0.10927
 H40 H 0.06454 1.06327 -0.06014
 O41 O 0.04446 1.04229 -0.04038
 H42 H -0.06057 0.93692 -0.06277
 O43 O -0.04042 0.95638 -0.04208
 O44 O 0.12378 0.99870 0.06499
 O45 O -0.11895 0.99283 0.06744
 O46 O 0.06598 1.11944 0.00662
 O47 O 0.06753 0.87643 -0.00415
 O48 O -0.06160 0.87560 -0.00020
 O49 O -0.06314 1.11889 0.00370
 O50 O 0.00352 1.05712 0.12523
 O51 O 0.00139 0.92811 0.12121
 O52 O 0.00383 1.11671 0.06885
 O53 O 0.00120 0.87338 0.06115
 O54 O 0.12335 1.06155 0.00421
 O55 O -0.11976 1.06035 0.00251
 O56 O -0.11905 0.93350 0.00167
 O57 O 0.12418 0.93492 -0.00256
 O58 O 0.06613 0.99470 0.12291
 O59 O -0.06041 0.99131 0.12399
 Zr60 Zr 0.08520 0.99804 0.00073
 Zr61 Zr -0.08092 0.99712 0.00239
 Zr62 Zr 0.00169 1.08078 0.00408
 Zr63 Zr 0.00273 0.91440 -0.00106
 Zr64 Zr 0.00258 0.99420 0.08477
 O65 O -0.04028 0.95264 0.04360
 O66 O 0.04489 1.03893 0.04536
 C67 C 0.10972 0.99742 0.10892
 C68 C -0.10427 0.99109 0.11109
 C69 C 0.10976 1.10524 0.00696
 C70 C 0.11117 0.89103 -0.00450
 C71 C -0.10540 0.88974 0.00079
 C72 C -0.10675 1.10428 0.00234
 C73 C 0.00448 1.10138 0.11224
 C74 C 0.00035 0.88498 0.10543
 H75 H -0.06079 1.05784 0.06685
 O76 O -0.04054 1.03843 0.04600
 H77 H 0.06579 0.93262 0.06217
 O78 O 0.04540 0.95337 0.04263
 C79 C 0.34837 1.00804 0.37388
 C80 C 0.34348 1.03488 0.41544
 C81 C 0.37922 1.03479 0.44980
 C82 C 0.42093 1.00842 0.44283
 C83 C 0.42433 0.97999 0.40218
 C84 C 0.38852 0.97941 0.36865
 C85 C 0.31300 1.01048 0.33506
 C86 C 0.32795 1.00830 0.28751
 C87 C 0.29521 1.00750 0.25073
 C88 C 0.24652 1.00972 0.26034
 C89 C 0.23152 1.01366 0.30781
 C90 C 0.26438 1.01384 0.34476
 C91 C 0.21167 1.00655 0.22109
 C92 C 0.16873 0.98240 0.22793
 C93 C 0.13605 0.97906 0.19125
 C94 C 0.14573 0.99914 0.14656
 C95 C 0.18886 1.02258 0.13921
 C96 C 0.22134 1.02659 0.17620
 H97 H 0.31305 1.05757 0.42045
 H98 H 0.37555 1.05820 0.47969
 H99 H 0.45499 0.95775 0.39627
 H100 H 0.39268 0.95675 0.33818
 H101 H 0.36517 1.00688 0.27856
 H102 H 0.30818 1.00400 0.21481
 H103 H 0.19433 1.01642 0.31652
 H104 H 0.25161 1.01551 0.38091
 H105 H 0.16051 0.96551 0.26151
 H106 H 0.10319 0.96040 0.19780
 H107 H 0.19692 1.03889 0.10528
 H108 H 0.25369 1.04608 0.16978
 C109 C -0.33688 1.00752 0.38280
 C110 C -0.33943 0.97574 0.42143
 C111 C -0.37529 0.98013 0.45564
 C112 C -0.40967 1.01597 0.45130
 C113 C -0.40461 1.04961 0.41455
 C114 C -0.36856 1.04572 0.38117
 C115 C -0.30344 1.00000 0.34272
 C116 C -0.31775 1.00994 0.29597
 C117 C -0.28625 1.00526 0.25813
 C118 C -0.23968 0.98994 0.26586
 C119 C -0.22582 0.97828 0.31241
 C120 C -0.25729 0.98337 0.35042
 C121 C -0.20516 0.98856 0.22594
 C122 C -0.15814 1.00239 0.23328
 C123 C -0.12579 1.00293 0.19594
 C124 C -0.13956 0.99005 0.14998
 C125 C -0.18659 0.97636 0.14231
 C126 C -0.21902 0.97538 0.17999
 H127 H -0.31550 0.94592 0.42377
 H128 H -0.37838 0.95312 0.48291
 H129 H -0.42961 1.07848 0.41090
 H130 H -0.36644 1.07197 0.35309
 H131 H -0.35342 1.02164 0.28852
 H132 H -0.29812 1.01494 0.22295
 H133 H -0.19044 0.96553 0.31957
 H134 H -0.24514 0.97533 0.38590
 H135 H -0.14642 1.01392 0.26777
 H136 H -0.08997 1.01427 0.20307
 H137 H -0.19815 0.96595 0.10739
 H138 H -0.25487 0.96402 0.17317
 C139 C -0.34401 1.00612 -0.37151
 C140 C -0.38014 0.97219 -0.36942
 C141 C -0.41535 0.97132 -0.40370
 C142 C -0.41521 1.00376 -0.44189
 C143 C -0.37735 1.03598 -0.44561
 C144 C -0.34233 1.03731 -0.41064
 C145 C -0.30940 1.00946 -0.33208
 C146 C -0.26174 1.02050 -0.34087
 C147 C -0.22927 1.02190 -0.30366
 C148 C -0.24358 1.01192 -0.25678
 C149 C -0.29144 1.00191 -0.24793
 C150 C -0.32393 1.00099 -0.28501
 C151 C -0.20849 1.01027 -0.21760
 C152 C -0.22040 1.02532 -0.17159
 C153 C -0.18739 1.02259 -0.13481
 C154 C -0.14164 1.00532 -0.14347
 C155 C -0.12982 0.99027 -0.18935
 C156 C -0.16284 0.99244 -0.22581
 H157 H -0.38163 0.94644 -0.34084
 H158 H -0.44299 0.94498 -0.40027
 H159 H -0.37646 1.06246 -0.47352
 H160 H -0.31517 1.06417 -0.41320
 H161 H -0.24925 1.02707 -0.37662
 H162 H -0.19286 1.03065 -0.31172
 H163 H -0.30374 0.99364 -0.21246
 H164 H -0.36057 0.99350 -0.27669
 H165 H -0.25505 1.03979 -0.16409
 H166 H -0.19734 1.03479 -0.09989
 H167 H -0.09502 0.97620 -0.19706
 H168 H -0.15272 0.97938 -0.26034
 C169 C 0.34250 1.00453 -0.37965
 C170 C 0.35254 0.96492 -0.40795
 C171 C 0.38805 0.96716 -0.44263
 C172 C 0.41370 1.00906 -0.44958
 C173 C 0.40216 1.04919 -0.42311
 C174 C 0.36667 1.04709 -0.38875
 C175 C 0.30910 1.00107 -0.33901
 C176 C 0.31985 1.02310 -0.29586
 C177 C 0.28844 1.02073 -0.25761
 C178 C 0.24554 0.99618 -0.26153
 C179 C 0.23516 0.97334 -0.30436
 C180 C 0.26662 0.97572 -0.34267
 C181 C 0.21093 0.99602 -0.22177
 C182 C 0.16254 1.00143 -0.23109
 C183 C 0.12976 1.00247 -0.19412
 C184 C 0.14441 0.99821 -0.14666
 C185 C 0.19288 0.99278 -0.13720
 C186 C 0.22580 0.99172 -0.17440
 H187 H 0.33474 0.93156 -0.40159
 H188 H 0.39728 0.93564 -0.46218
 H189 H 0.42209 1.08162 -0.42775
 H190 H 0.35909 1.07846 -0.36830
 H191 H 0.35274 1.04212 -0.29156
 H192 H 0.29732 1.03902 -0.22531
 H193 H 0.20264 0.95362 -0.30829
 H194 H 0.25731 0.95844 -0.37542
 H195 H 0.14999 1.00575 -0.26705
 H196 H 0.09280 1.00694 -0.20294
 H197 H 0.20536 0.98914 -0.10114
 H198 H 0.26286 0.98707 -0.16612
 C199 C 0.37872 1.34041 0.01639
 C200 C 0.38635 1.36948 0.05580
 C201 C 0.42062 1.40499 0.05417
 C202 C 0.44821 1.41199 0.01327
 C203 C 0.44238 1.38152 -0.02525
 C204 C 0.40795 1.34605 -0.02373
 C205 C 0.33893 1.30606 0.01625
 C206 C 0.34410 1.26159 -0.00502
 C207 C 0.30626 1.22989 -0.00612
 C208 C 0.26234 1.24179 0.01414
 C209 C 0.25711 1.28629 0.03530
 C210 C 0.29495 1.31806 0.03632
 C211 C 0.22251 1.20750 0.01364
 C212 C 0.17573 1.22247 0.00545
 C213 C 0.13873 1.18957 0.00389
 C214 C 0.14786 1.14105 0.01029
 C215 C 0.19455 1.12639 0.01932
 C216 C 0.23127 1.15913 0.02108
 H217 H 0.36515 1.36539 0.08759
 H218 H 0.42462 1.42809 0.08431
 H219 H 0.46270 1.38680 -0.05747
 H220 H 0.40272 1.32460 -0.05485
 H221 H 0.37753 1.25113 -0.02054
 H222 H 0.31130 1.19614 -0.02329
 H223 H 0.22392 1.29638 0.05158
 H224 H 0.28952 1.35235 0.05228
 H225 H 0.16788 1.25950 -0.00075
 H226 H 0.10322 1.20203 -0.00316
 H227 H 0.20293 1.08940 0.02507
 H228 H 0.26663 1.14650 0.02858
 C229 C 0.38160 0.65685 0.00486
 C230 C 0.38949 0.63112 0.04695
 C231 C 0.42384 0.59566 0.04870
 C232 C 0.45137 0.58548 0.00860
 C233 C 0.44557 0.61289 -0.03264
 C234 C 0.41096 0.64825 -0.03453
 C235 C 0.34136 0.69062 0.00143
 C236 C 0.34576 0.73323 -0.02419
 C237 C 0.30766 0.76461 -0.02754
 C238 C 0.26426 0.75424 -0.00523
 C239 C 0.25969 0.71137 0.01990
 C240 C 0.29773 0.67993 0.02312
 C241 C 0.22462 0.78884 -0.00661
 C242 C 0.17734 0.77388 -0.01066
 C243 C 0.14027 0.80684 -0.01040
 C244 C 0.14976 0.85543 -0.00610
 C245 C 0.19712 0.87019 -0.00251
 C246 C 0.23394 0.83740 -0.00264
 H247 H 0.36829 0.63762 0.07826
 H248 H 0.42780 0.57488 0.08086
 H249 H 0.46594 0.60510 -0.06421
 H250 H 0.40562 0.66714 -0.06759
 H251 H 0.37887 0.74265 -0.04116
 H252 H 0.31219 0.79705 -0.04771
 H253 H 0.22697 0.70249 0.03789
 H254 H 0.29280 0.64699 0.04235
 H255 H 0.16902 0.73672 -0.01431
 H256 H 0.10428 0.79425 -0.01346
 H257 H 0.20599 0.90725 0.00107
 H258 H 0.26977 0.85012 0.00143
 C259 C -0.37377 0.65394 -0.01148
 C260 C -0.41057 0.65331 0.02221
 C261 C -0.44509 0.61783 0.02153
 C262 C -0.44322 0.58162 -0.01249
 C263 C -0.40793 0.58431 -0.04784
 C264 C -0.37402 0.62004 -0.04752
 C265 C -0.33398 0.68816 -0.00801
 C266 C -0.28755 0.67405 -0.01929
 C267 C -0.25001 0.70596 -0.01658
 C268 C -0.25778 0.75275 -0.00210
 C269 C -0.30404 0.76662 0.01013
 C270 C -0.34169 0.73479 0.00704
 C271 C -0.21816 0.78736 -0.00113
 C272 C -0.22593 0.83453 -0.01502
 C273 C -0.18922 0.86734 -0.01436
 C274 C -0.14349 0.85387 -0.00025
 C275 C -0.13528 0.80659 0.01306
 C276 C -0.17233 0.77369 0.01284
 H277 H -0.41130 0.67868 0.05071
 H278 H -0.47057 0.61667 0.05021
 H279 H -0.40621 0.55835 -0.07582
 H280 H -0.34733 0.62051 -0.07512
 H281 H -0.28007 0.63812 -0.03000
 H282 H -0.21501 0.69414 -0.02668
 H283 H -0.31123 0.80218 0.02219
 H284 H -0.37693 0.74695 0.01581
 H285 H -0.26035 0.84610 -0.02712
 H286 H -0.19668 0.90334 -0.02549
 H287 H -0.10050 0.79524 0.02436
 H288 H -0.16521 0.73773 0.02424
 C289 C -0.37851 1.33676 -0.01047
 C290 C -0.40735 1.34420 0.02954
 C291 C -0.44145 1.38009 0.02938
 C292 C -0.44728 1.40911 -0.01074
 C293 C -0.42053 1.39987 -0.05162
 C294 C -0.38660 1.36397 -0.05155
 C295 C -0.33829 1.30292 -0.00847
 C296 C -0.29454 1.31471 -0.02932
 C297 C -0.25628 1.28347 -0.02679
 C298 C -0.26085 1.23970 -0.00333
 C299 C -0.30448 1.22807 0.01786
 C300 C -0.34274 1.25929 0.01531
 C301 C -0.22079 1.20565 -0.00202
 C302 C -0.22932 1.15720 -0.00808
 C303 C -0.19224 1.12476 -0.00674
 C304 C -0.14542 1.13978 0.00062
 C305 C -0.13663 1.18836 0.00616
 C306 C -0.17399 1.22098 0.00488
 H307 H -0.40181 1.32409 0.06185
 H308 H -0.46118 1.38710 0.06153
 H309 H -0.42453 1.42189 -0.08295
 H310 H -0.36574 1.35840 -0.08327
 H311 H -0.28966 1.34842 -0.04716
 H312 H -0.22332 1.29330 -0.04384
 H313 H -0.30898 1.19486 0.03672
 H314 H -0.37597 1.24908 0.03158
 H315 H -0.26473 1.14431 -0.01451
 H316 H -0.20048 1.08773 -0.01176
 H317 H -0.10105 1.20112 0.01187
 H318 H -0.16635 1.25811 0.00999
 C319 C -0.00373 1.36445 0.35253
 C320 C -0.03257 1.40468 0.34670
 C321 C -0.03386 1.43999 0.38127
 C322 C -0.00676 1.43558 0.42286
 C323 C 0.02304 1.39581 0.42762
 C324 C 0.02489 1.36118 0.39289
 C325 C -0.00399 1.32528 0.31758
 C326 C 0.00080 1.27799 0.33289
 C327 C 0.00240 1.24112 0.30031
 C328 C -0.00142 1.25041 0.25152
 C329 C -0.00741 1.29760 0.23625
 C330 C -0.00844 1.33458 0.26884
 C331 C 0.00146 1.21122 0.21669
 C332 C 0.02369 1.21847 0.17260
 C333 C 0.02533 1.18240 0.13922
 C334 C 0.00542 1.13791 0.14929
 C335 C -0.01557 1.12993 0.19376
 C336 C -0.01785 1.16634 0.22702
 H337 H -0.05561 1.40805 0.31635
 H338 H -0.05874 1.46871 0.37676
 H339 H 0.04571 1.39166 0.45822
 H340 H 0.04880 1.33165 0.39786
 H341 H 0.00327 1.26930 0.37021
 H342 H 0.00748 1.20538 0.31342
 H343 H -0.01142 1.30606 0.19901
 H344 H -0.01191 1.37051 0.25573
 H345 H 0.04007 1.25203 0.16384
 H346 H 0.04226 1.18936 0.10538
 H347 H -0.03159 1.09609 0.20222
 H348 H -0.03576 1.15961 0.26035
 C349 C -0.01364 1.38570 -0.33275
 C350 C 0.02671 1.41294 -0.34358
 C351 C 0.02559 1.44653 -0.38032
 C352 C -0.01589 1.45339 -0.40648
 C353 C -0.05687 1.42839 -0.39384
 C354 C -0.05588 1.39515 -0.35710
 C355 C -0.01101 1.34518 -0.29899
 C356 C -0.03374 1.30230 -0.30954
 C357 C -0.03115 1.26374 -0.27843
 C358 C -0.00569 1.26704 -0.23601
 C359 C 0.01745 1.30976 -0.22561
 C360 C 0.01487 1.34839 -0.25680
 C361 C -0.00428 1.22648 -0.20223
 C362 C -0.00822 1.23438 -0.15337
 C363 C -0.00746 1.19657 -0.12135
 C364 C -0.00275 1.14971 -0.13727
 C365 C 0.00096 1.14168 -0.18622
 C366 C 0.00021 1.17969 -0.21836
 H367 H 0.05985 1.40629 -0.32566
 H368 H 0.05774 1.46492 -0.39031
 H369 H -0.08903 1.43298 -0.41409
 H370 H -0.08779 1.37552 -0.34892
 H371 H -0.05321 1.29834 -0.34221
 H372 H -0.04973 1.23154 -0.28726
 H373 H 0.03782 1.31322 -0.19345
 H374 H 0.03269 1.38093 -0.24765
 H375 H -0.01263 1.26986 -0.13985
 H376 H -0.01076 1.20426 -0.08396
 H377 H 0.00481 1.10612 -0.19969
 H378 H 0.00376 1.17251 -0.25582
 C379 C -0.00496 0.63116 -0.34981
 C380 C 0.02439 0.63407 -0.38988
 C381 C 0.02276 0.59951 -0.42466
 C382 C -0.00763 0.56017 -0.42025
 C383 C -0.03551 0.55610 -0.37892
 C384 C -0.03438 0.59134 -0.34428
 C385 C -0.00529 0.67027 -0.31482
 C386 C -0.01026 0.66095 -0.26609
 C387 C -0.00908 0.69787 -0.23344
 C388 C -0.00248 0.74499 -0.24867
 C389 C 0.00178 0.75432 -0.29744
 C390 C 0.00008 0.71752 -0.33006
 C391 C 0.00066 0.78407 -0.21379
 C392 C -0.01828 0.82915 -0.22393
 C393 C -0.01572 0.86550 -0.19066
 C394 C 0.00522 0.85728 -0.14637
 C395 C 0.02478 0.81258 -0.13652
 C396 C 0.02281 0.77655 -0.16990
 H397 H 0.04873 0.66329 -0.39459
 H398 H 0.04606 0.60336 -0.45500
 H399 H -0.06081 0.52773 -0.37467
 H400 H -0.05795 0.58827 -0.31411
 H401 H -0.01421 0.62504 -0.25305
 H402 H -0.01342 0.68942 -0.19621
 H403 H 0.00732 0.79001 -0.31050
 H404 H 0.00298 0.72621 -0.36738
 H405 H -0.03610 0.83609 -0.25713
 H406 H -0.03147 0.89950 -0.19897
 H407 H 0.04167 0.80540 -0.10283
 H408 H 0.03889 0.74280 -0.16131
 C409 C -0.00872 0.60814 0.33359
 C410 C -0.05159 0.59944 0.35740
 C411 C -0.05352 0.56715 0.39496
 C412 C -0.01289 0.54236 0.40892
 C413 C 0.02944 0.54896 0.38376
 C414 C 0.03156 0.58175 0.34635
 C415 C -0.00566 0.64721 0.29831
 C416 C 0.03186 0.67975 0.29975
 C417 C 0.03266 0.71894 0.26917
 C418 C -0.00384 0.72615 0.23631
 C419 C -0.04098 0.69321 0.23444
 C420 C -0.04193 0.65424 0.26517
 C421 C -0.00303 0.76740 0.20345
 C422 C -0.01480 0.76142 0.15567
 C423 C -0.01402 0.79974 0.12432
 C424 C -0.00157 0.84521 0.13991
 C425 C 0.00979 0.85145 0.18787
 C426 C 0.00930 0.81281 0.21932
 H427 H -0.08301 0.61961 0.34879
 H428 H -0.08621 0.56308 0.41471
 H429 H 0.06130 0.53071 0.39475
 H430 H 0.06494 0.58755 0.32832
 H431 H 0.05995 0.67557 0.32540
 H432 H 0.06196 0.74348 0.27103
 H433 H -0.06977 0.69802 0.20970
 H434 H -0.07120 0.62968 0.26320
 H435 H -0.02395 0.72683 0.14230
 H436 H -0.02320 0.79359 0.08768
 H437 H 0.01961 0.88598 0.20094
 H438 H 0.01810 0.81847 0.25613
   
