data_POSCAR
  _audit_creation_date              2014-09-24
  _audit_creation_method            'ToBaCCo'
  _symmetry_space_group_name_H-M    'P1'
  _symmetry_Int_Tables_number       1
  _symmetry_cell_setting            triclinic
  loop_
  _symmetry_equiv_pos_as_xyz
 x,y,z
_cell_length_a 15.6536
_cell_length_b 15.6931
_cell_length_c 15.7289
_cell_angle_alpha 102.867400
_cell_angle_beta 76.718800
_cell_angle_gamma 76.304200
loop_
  _atom_site_label
  _atom_site_type_symbol
  _atom_site_fract_x
  _atom_site_fract_y
  _atom_site_fract_z
C1 C 0.58285 0.51787 0.00906
 C2 C 0.51785 0.58316 -0.01154
 C3 C 0.43600 0.56607 -0.02085
 C4 C 0.41773 0.48513 -0.01058
 C5 C 0.48270 0.41995 0.00988
 C6 C 0.56448 0.43693 0.01921
 H7 H 0.61487 0.38585 0.03366
 H8 H 0.38533 0.61696 -0.03529
 C9 C -0.01079 0.41955 0.51761
 C10 C 0.01151 0.48265 0.58105
 C11 C 0.02158 0.56385 0.56334
 C12 C 0.01041 0.58314 0.48311
 C13 C -0.01173 0.51984 0.41950
 C14 C -0.02181 0.43867 0.43735
 H15 H -0.03741 0.38927 0.38766
 H16 H 0.03717 0.61308 0.61329
 C17 C 0.48442 0.00884 0.41899
 C18 C 0.42010 -0.01261 0.48282
 C19 C 0.43712 -0.02184 0.56442
 C20 C 0.51756 -0.01064 0.58359
 C21 C 0.58213 0.01084 0.51950
 C22 C 0.56483 0.02006 0.43789
 H23 H 0.61504 0.03514 0.38782
 H24 H 0.38646 -0.03692 0.61403
 O25 O 0.44054 -0.00240 -0.10996
 O26 O 0.41039 0.02825 0.13556
 O27 O 0.40935 0.13628 0.02911
 O28 O 0.44120 -0.11020 -0.00360
 O29 O 0.59175 -0.13822 -0.03098
 O30 O 0.55990 0.10835 0.00165
 O31 O 0.56092 0.00056 0.10791
 O32 O 0.59108 -0.03017 -0.13763
 Cu33 Cu 0.41027 0.01549 0.01527
 Cu34 Cu 0.59103 -0.01742 -0.01730
 C35 C 0.52002 -0.01908 -0.16473
 C36 C 0.48143 0.01729 0.16269
 C37 C 0.48013 0.16343 0.01856
 C38 C 0.52091 -0.16529 -0.02037
 O39 O -0.13760 0.59111 1.02779
 O40 O 0.10949 0.56114 0.99704
 O41 O 0.00343 0.55889 0.88954
 O42 O -0.03129 0.59290 1.13561
 O43 O -0.00307 0.44310 1.11060
 O44 O 0.03169 0.40908 0.86454
 O45 O 0.13800 0.41137 0.97231
 O46 O -0.10914 0.44134 1.00302
 Cu47 Cu -0.01658 0.59106 1.01474
 Cu48 Cu 0.01697 0.41118 0.98543
 C49 C -0.16454 0.52040 1.01818
 C50 C 0.16495 0.48209 0.98175
 C51 C 0.02094 0.47919 0.83604
 C52 C -0.02063 0.52279 1.16412
 O53 O 0.02799 -0.13692 0.41011
 O54 O -0.00458 0.10965 0.44198
 O55 O 0.13561 -0.03092 0.40943
 O56 O -0.11208 0.00391 0.44317
 O57 O -0.13798 0.02930 0.59226
 O58 O 0.10970 -0.00554 0.55853
 O59 O -0.03021 0.13529 0.59106
 O60 O 0.00235 -0.11126 0.55919
 Cu61 Cu 0.01402 -0.01584 0.41118
 Cu62 Cu -0.01636 0.01427 0.59026
 C63 C 0.01831 -0.16517 0.48020
 C64 C -0.02045 0.16354 0.52096
 C65 C 0.16391 -0.02172 0.47927
 C66 C -0.16627 0.01999 0.52243
 C67 C -0.33414 0.52750 1.01576
 C68 C -0.25809 0.52810 1.01937
 C69 C 0.33474 0.47523 0.98320
 C70 C 0.25861 0.47444 0.98007
 C71 C 0.01697 -0.33434 0.47273
 C72 C 0.02022 -0.25851 0.47197
 C73 C -0.01842 0.33260 0.52874
 C74 C -0.02201 0.25681 0.52919
 C75 C 0.52726 -0.01707 -0.33362
 C76 C 0.52785 -0.02046 -0.25784
 C77 C 0.47387 0.01571 0.33171
 C78 C 0.47354 0.01890 0.25585
 C79 C 0.52831 -0.33443 -0.01852
 C80 C 0.52912 -0.25866 -0.02206
 C81 C 0.47184 0.33286 0.01730
 C82 C 0.47166 0.25689 0.02055
 C83 C -0.33568 0.01829 0.53038
 C84 C -0.25986 0.02197 0.53116
 C85 C 0.33350 -0.02058 0.47100
 C86 C 0.25757 -0.02399 0.47049
 C87 C -0.01960 0.53144 1.33297
 C88 C -0.02294 0.53176 1.25731
 C89 C 0.01950 0.47067 0.66734
 C90 C 0.02304 0.47023 0.74292
   
