data_POSCAR
  _audit_creation_date              2014-09-24
  _audit_creation_method            'ToBaCCo'
  _symmetry_space_group_name_H-M    'P1'
  _symmetry_Int_Tables_number       1
  _symmetry_cell_setting            triclinic
  loop_
  _symmetry_equiv_pos_as_xyz
 x,y,z
_cell_length_a 30.8623
_cell_length_b 31.3034
_cell_length_c 27.9382
_cell_angle_alpha 89.023100
_cell_angle_beta 89.790500
_cell_angle_gamma 88.819500
loop_
  _atom_site_label
  _atom_site_type_symbol
  _atom_site_fract_x
  _atom_site_fract_y
  _atom_site_fract_z
C1 C 0.22409 0.19941 0.29663
 C2 C 0.20162 0.23466 0.27555
 C3 C 0.22027 0.25961 0.23884
 C4 C 0.26185 0.24791 0.22168
 C5 C 0.28535 0.21291 0.24185
 C6 C 0.26697 0.19120 0.28136
 H7 H 0.16802 0.24090 0.28440
 H8 H 0.27628 0.26661 0.19312
 H9 H 0.28517 0.16557 0.29846
 C10 C -0.17180 0.81248 0.20534
 C11 C -0.15200 0.77714 0.18347
 C12 C -0.17404 0.75365 0.14965
 C13 C -0.21631 0.76554 0.13653
 C14 C -0.23701 0.80096 0.15761
 C15 C -0.21481 0.82366 0.19271
 H16 H -0.11930 0.76713 0.19306
 H17 H -0.23269 0.74738 0.10960
 H18 H -0.22974 0.85230 0.20713
 C19 C -0.21024 0.20160 -0.25197
 C20 C -0.24227 0.17644 -0.22919
 C21 C -0.25535 0.18403 -0.18191
 C22 C -0.23675 0.21711 -0.15654
 C23 C -0.20590 0.24307 -0.17818
 C24 C -0.19464 0.23670 -0.22624
 H25 H -0.25456 0.14814 -0.24546
 H26 H -0.24540 0.22194 -0.11935
 H27 H -0.17191 0.25853 -0.24206
 C28 C 0.18029 0.80969 -0.23874
 C29 C 0.17263 0.76762 -0.22264
 C30 C 0.19399 0.75063 -0.18205
 C31 C 0.22620 0.77420 -0.16003
 C32 C 0.23492 0.81570 -0.17582
 C33 C 0.21202 0.83324 -0.21497
 H34 H 0.14631 0.74993 -0.23775
 H35 H 0.24223 0.76139 -0.12827
 H36 H 0.21948 0.86534 -0.22702
 C37 C 0.22136 1.18978 0.70811
 C38 C 0.25940 1.17247 0.73029
 C39 C 0.28234 1.19531 0.76459
 C40 C 0.26794 1.23670 0.77537
 C41 C 0.22687 1.25146 0.76131
 C42 C 0.20494 1.22938 0.72570
 H43 H 0.26935 1.13976 0.72436
 H44 H 0.28629 1.25573 0.79980
 H45 H 0.17466 1.24322 0.71355
 C46 C 0.82939 0.81966 0.80281
 C47 C 0.79225 0.83315 0.82825
 C48 C 0.76995 0.80509 0.85858
 C49 C 0.78534 0.76307 0.86535
 C50 C 0.82295 0.74834 0.84136
 C51 C 0.84397 0.77692 0.80940
 H52 H 0.77866 0.86501 0.82270
 H53 H 0.76721 0.74189 0.88860
 H54 H 0.87431 0.76715 0.79308
 C55 C 0.14417 0.81798 1.20111
 C56 C 0.14028 0.77325 1.19641
 C57 C 0.16724 0.74986 1.16431
 C58 C 0.20070 0.77173 1.14011
 C59 C 0.20481 0.81601 1.14427
 C60 C 0.17622 0.83866 1.17381
 H61 H 0.11417 0.75745 1.21507
 H62 H 0.22331 0.75469 1.11728
 H63 H 0.18113 0.87262 1.17763
 C64 C 0.78371 1.21321 1.25345
 C65 C 0.74316 1.20116 1.23497
 C66 C 0.72704 1.21796 1.19123
 C67 C 0.75149 1.24891 1.16659
 C68 C 0.79197 1.26092 1.18344
 C69 C 0.80748 1.24374 1.22683
 H70 H 0.72412 1.17803 1.25410
 H71 H 0.73995 1.26317 1.13335
 H72 H 0.84002 1.25185 1.23700
 O73 O 0.54311 0.93927 0.95097
 O74 O 0.44740 0.94982 1.08753
 O75 O 0.57302 0.96484 1.05366
 O76 O 0.40715 0.97479 0.96835
 O77 O 0.52376 0.95485 1.10700
 O78 O 0.46116 0.93072 0.95316
 O79 O 0.39848 0.98810 1.05107
 O80 O 0.58067 0.96766 1.00929
 C81 C 0.57823 0.94293 0.97276
 C82 C 0.40952 0.95387 1.07258
 C83 C 0.56004 0.94518 1.09064
 C84 C 0.42115 0.93795 0.95691
 O85 O 0.45295 1.00496 0.90910
 O86 O 0.51727 1.04257 1.10682
 O87 O 0.57751 1.03007 0.97769
 O88 O 0.43760 1.06732 1.03674
 O89 O 0.43695 1.03332 1.10175
 O90 O 0.53144 1.01906 0.91980
 O91 O 0.44433 1.05487 0.95682
 O92 O 0.58233 1.03997 1.06946
 Co93 Co 0.49638 0.97537 0.94107
 Co94 Co 0.48199 0.99527 1.09255
 Co95 Co 0.54681 1.01425 1.03127
 Co96 Co 0.42644 1.01954 1.00417
 O97 O 0.48833 0.99652 1.01453
 C98 C 0.44193 1.04266 0.91550
 C99 C 0.55636 1.05589 1.10247
 C100 C 0.56624 1.03464 0.93480
 C101 C 0.43054 1.06767 1.07993
 O102 O 0.04726 0.43595 0.08725
 O103 O 0.05780 0.51554 -0.09997
 O104 O 0.07296 0.40528 -0.05599
 O105 O 0.07811 0.53986 0.00596
 O106 O 0.04273 0.43996 -0.11387
 O107 O 0.06677 0.51349 0.07530
 O108 O 0.03296 0.56741 -0.05895
 O109 O 0.07906 0.41419 0.02541
 C110 C 0.07833 0.41612 0.06902
 C111 C 0.05851 0.55404 -0.09021
 C112 C 0.07028 0.41348 -0.09925
 C113 C 0.08954 0.53627 0.04823
 O114 O -0.01879 0.53219 0.06721
 O115 O -0.03761 0.45017 -0.09375
 O116 O -0.00783 0.39721 0.03834
 O117 O -0.03834 0.54255 -0.01529
 O118 O -0.02861 0.52909 -0.08913
 O119 O -0.03395 0.45648 0.06695
 O120 O 0.01263 0.58589 0.03013
 O121 O -0.01345 0.39416 -0.05121
 Co122 Co 0.01658 0.48371 0.06530
 Co123 Co 0.00973 0.48365 -0.09088
 Co124 Co 0.03142 0.40886 -0.01037
 Co125 Co 0.02041 0.53831 -0.00395
 O126 O 0.02088 0.47587 -0.01376
 C127 C -0.01146 0.57213 0.06563
 C128 C -0.04028 0.41153 -0.08071
 C129 C -0.03640 0.41713 0.06214
 C130 C -0.05111 0.54626 -0.05719
 O131 O 1.07110 0.02148 0.45394
 O132 O 0.89245 0.02036 0.54934
 O133 O 0.93697 0.05898 0.41895
 O134 O 1.01700 0.06928 0.54734
 O135 O 0.88890 0.02270 0.46061
 O136 O 1.07038 0.02565 0.54026
 O137 O 0.94002 0.06767 0.55432
 O138 O 1.01908 0.06404 0.43036
 C139 C 1.05824 0.05769 0.43867
 C140 C 0.90162 0.05809 0.55752
 C141 C 0.89868 0.05284 0.43192
 C142 C 1.05655 0.06260 0.54957
 O143 O 1.03675 -0.05486 0.54599
 O144 O 0.91427 -0.05749 0.45783
 O145 O 1.02648 -0.01673 0.40153
 O146 O 0.94638 -0.01092 0.59951
 O147 O 0.92816 -0.05788 0.54765
 O148 O 1.04166 -0.06011 0.45907
 O149 O 1.02390 -0.00579 0.59612
 O150 O 0.94640 -0.02188 0.39983
 Co151 Co 1.04881 -0.01531 0.49984
 Co152 Co 0.91342 -0.01627 0.50380
 Co153 Co 0.98268 0.01955 0.42095
 Co154 Co 0.98176 0.02776 0.56816
 O155 O 0.98132 0.00319 0.49785
 C156 C 1.03741 -0.04280 0.58798
 C157 C 0.92237 -0.05158 0.41443
 C158 C 1.03795 -0.05350 0.41524
 C159 C 0.93507 -0.04837 0.59003
 C160 C 1.21669 0.12700 0.33243
 C161 C 1.20295 0.17047 0.32868
 C162 C 1.16577 0.18308 0.35513
 C163 C 1.14158 0.15296 0.38106
 C164 C 1.15545 0.10969 0.38281
 C165 C 1.19362 0.09737 0.35953
 C166 C 1.12963 0.07895 0.40537
 C167 C 1.08909 0.09073 0.42425
 C168 C 1.07619 0.13403 0.42414
 C169 C 1.10255 0.16503 0.40335
 H170 H 1.15498 0.21617 0.35553
 H171 H 1.20451 0.06422 0.36016
 H172 H 1.13960 0.04553 0.40509
 H173 H 1.09140 0.19809 0.40267
 H174 H 1.24351 0.11422 0.31188
 H175 H 1.04510 0.14370 0.43898
 C176 C 0.89655 -0.15764 0.23300
 C177 C 0.85147 -0.16343 0.23841
 C178 C 0.83027 -0.14533 0.27806
 C179 C 0.85356 -0.12305 0.31209
 C180 C 0.89846 -0.11660 0.30555
 C181 C 0.91959 -0.13392 0.26580
 C182 C 0.92138 -0.09313 0.33906
 C183 C 0.90012 -0.07786 0.37988
 C184 C 0.85590 -0.08563 0.38688
 C185 C 0.83264 -0.10761 0.35296
 H186 H 0.79603 -0.15047 0.28404
 H187 H 0.95397 -0.12935 0.26021
 H188 H 0.95560 -0.08722 0.33384
 H189 H 0.79834 -0.11253 0.35873
 H190 H 0.91396 -0.16991 0.20229
 H191 H 0.83899 -0.07350 0.41803
 C192 C 0.85128 0.20325 0.69058
 C193 C 0.80964 0.18866 0.70403
 C194 C 0.79104 0.15720 0.67489
 C195 C 0.81556 0.13660 0.63933
 C196 C 0.85811 0.14977 0.62957
 C197 C 0.87474 0.18444 0.65359
 C198 C 0.88463 0.12619 0.59862
 C199 C 0.86999 0.08806 0.57917
 C200 C 0.82667 0.07653 0.58641
 C201 C 0.79940 0.10103 0.61576
 H202 H 0.75814 0.14704 0.68051
 H203 H 0.90731 0.19512 0.64615
 H204 H 0.91790 0.13567 0.59299
 H205 H 0.76665 0.09057 0.62242
 H206 H 0.86844 0.22679 0.71033
 H207 H 0.81451 0.04750 0.57129
 C208 C 1.13698 -0.19427 0.68735
 C209 C 1.15382 -0.17074 0.72551
 C210 C 1.14195 -0.12718 0.72869
 C211 C 1.11420 -0.10765 0.69507
 C212 C 1.09895 -0.13104 0.65597
 C213 C 1.11049 -0.17443 0.65254
 C214 C 1.07270 -0.11043 0.62109
 C215 C 1.06084 -0.06708 0.62594
 C216 C 1.07466 -0.04500 0.66639
 C217 C 1.10135 -0.06492 0.70032
 H218 H 1.15234 -0.10864 0.75882
 H219 H 1.09898 -0.19307 0.62302
 H220 H 1.06195 -0.12780 0.59023
 H221 H 1.11235 -0.04670 0.73044
 H222 H 1.14557 -0.22771 0.68319
 H223 H 1.06616 -0.01158 0.67105
 C224 C 0.35404 1.17116 1.24690
 C225 C 0.32345 1.19562 1.21989
 C226 C 0.32835 1.19659 1.16951
 C227 C 0.35828 1.16890 1.14696
 C228 C 0.38498 1.14110 1.17488
 C229 C 0.38416 1.14412 1.22471
 C230 C 0.41041 1.10934 1.15269
 C231 C 0.40952 1.10503 1.10277
 C232 C 0.38532 1.13479 1.07501
 C233 C 0.35980 1.16635 1.09690
 H234 H 0.30589 1.21498 1.14726
 H235 H 0.40552 1.12417 1.24669
 H236 H 0.42950 1.08691 1.17432
 H237 H 0.33990 1.18759 1.07475
 H238 H 0.35417 1.17185 1.28561
 H239 H 0.38437 1.13231 1.03640
 C240 C 0.25069 0.88334 0.86587
 C241 C 0.26440 0.84232 0.85199
 C242 C 0.30546 0.82654 0.86615
 C243 C 0.33314 0.85213 0.89261
 C244 C 0.31902 0.89348 0.90598
 C245 C 0.27763 0.90859 0.89294
 C246 C 0.34709 0.91985 0.93047
 C247 C 0.38998 0.90642 0.94003
 C248 C 0.40348 0.86484 0.92791
 C249 C 0.37509 0.83770 0.90481
 H250 H 0.31616 0.79486 0.85555
 H251 H 0.26635 0.94022 0.90301
 H252 H 0.33619 0.95187 0.93951
 H253 H 0.38643 0.80605 0.89500
 H254 H 0.21881 0.89568 0.85616
 H255 H 0.43634 0.85376 0.93500
 C256 C 0.71151 0.81667 1.09014
 C257 C 0.72040 0.81724 1.13951
 C258 C 0.69027 0.83708 1.17046
 C259 C 0.65369 0.85891 1.15195
 C260 C 0.64635 0.85951 1.10208
 C261 C 0.67456 0.83716 1.07169
 C262 C 0.61252 0.88466 1.08299
 C263 C 0.58718 0.91096 1.11244
 C264 C 0.59260 0.90826 1.16225
 C265 C 0.62555 0.88211 1.18198
 H266 H 0.69621 0.83711 1.20867
 H267 H 0.66926 0.83739 1.03336
 H268 H 0.60712 0.88518 1.04493
 H269 H 0.63046 0.88182 1.22036
 H270 H 0.73420 0.80227 1.06525
 H271 H 0.57313 0.92825 1.18558
 C272 C 0.72924 1.13657 0.88789
 C273 C 0.71614 1.15373 0.84340
 C274 C 0.67645 1.14155 0.82358
 C275 C 0.64946 1.11345 0.84901
 C276 C 0.66301 1.09703 0.89404
 C277 C 0.70299 1.10837 0.91293
 C278 C 0.63608 1.07015 0.92026
 C279 C 0.59490 1.05979 0.90317
 C280 C 0.58172 1.07531 0.85794
 C281 C 0.60893 1.10192 0.83093
 H282 H 0.66631 1.15468 0.78916
 H283 H 0.71376 1.09580 0.94737
 H284 H 0.64710 1.05800 0.95480
 H285 H 0.59799 1.11409 0.79642
 H286 H 0.76007 1.14487 0.90323
 H287 H 0.55015 1.06769 0.84401
 C288 C 0.16419 0.31974 0.24243
 C289 C 0.19421 0.29519 0.21569
 C290 C 0.19725 0.30323 0.16612
 C291 C 0.17008 0.33388 0.14354
 C292 C 0.13872 0.35691 0.17033
 C293 C 0.13661 0.35002 0.22000
 C294 C 0.10942 0.38541 0.14672
 C295 C 0.11146 0.39097 0.09664
 C296 C 0.14435 0.36914 0.07109
 C297 C 0.17310 0.34089 0.09415
 H298 H 0.21947 0.28445 0.14450
 H299 H 0.11324 0.36760 0.24145
 H300 H 0.08443 0.40204 0.16693
 H301 H 0.19718 0.32384 0.07308
 H302 H 0.16160 0.31520 0.28082
 H303 H 0.14720 0.37288 0.03259
 C304 C -0.16075 0.25777 -0.10651
 C305 C -0.18046 0.27260 -0.14914
 C306 C -0.17141 0.31371 -0.16664
 C307 C -0.14121 0.33884 -0.14340
 C308 C -0.11984 0.32287 -0.10187
 C309 C -0.13068 0.28270 -0.08304
 C310 C -0.08717 0.34679 -0.08081
 C311 C -0.07602 0.38668 -0.10054
 C312 C -0.09873 0.40280 -0.14080
 C313 C -0.13088 0.37908 -0.16209
 H314 H -0.18677 0.32544 -0.19929
 H315 H -0.11492 0.27002 -0.05109
 H316 H -0.07007 0.33412 -0.04972
 H317 H -0.14707 0.39188 -0.19373
 H318 H -0.16698 0.22595 -0.09265
 H319 H -0.09091 0.43347 -0.15675
 C320 C 0.16630 0.71574 -0.10796
 C321 C 0.17631 0.71292 -0.15695
 C322 C 0.16458 0.67648 -0.18217
 C323 C 0.14125 0.64407 -0.15906
 C324 C 0.12958 0.64851 -0.11037
 C325 C 0.14316 0.68380 -0.08485
 C326 C 0.10318 0.61840 -0.08827
 C327 C 0.08865 0.58334 -0.11369
 C328 C 0.10207 0.57761 -0.16124
 C329 C 0.12799 0.60806 -0.18398
 H330 H 0.17235 0.67412 -0.21992
 H331 H 0.13459 0.68744 -0.04746
 H332 H 0.09344 0.62259 -0.05131
 H333 H 0.13690 0.60390 -0.22118
 H334 H 0.17438 0.74383 -0.08799
 H335 H 0.09126 0.55047 -0.18119
 C336 C -0.14094 0.72302 0.07674
 C337 C -0.15049 0.71897 0.12564
 C338 C -0.13182 0.68541 0.15296
 C339 C -0.10224 0.65691 0.13193
 C340 C -0.09093 0.66264 0.08320
 C341 C -0.11105 0.69514 0.05564
 C342 C -0.05953 0.63589 0.06283
 C343 C -0.04061 0.60226 0.08975
 C344 C -0.05290 0.59566 0.13756
 C345 C -0.08308 0.62335 0.15887
 H346 H -0.13927 0.68254 0.19083
 H347 H -0.10293 0.69959 0.01814
 H348 H -0.05090 0.64037 0.02545
 H349 H -0.09167 0.61836 0.19615
 H350 H -0.15481 0.74917 0.05558
 H351 H -0.03897 0.56931 0.15835
 C352 C 1.21943 0.13168 0.64844
 C353 C 1.19886 0.16616 0.67259
 C354 C 1.15504 0.17554 0.66048
 C355 C 1.13239 0.15032 0.62830
 C356 C 1.15289 0.11442 0.60760
 C357 C 1.19669 0.10600 0.61711
 C358 C 1.12885 0.08689 0.57904
 C359 C 1.08443 0.09504 0.57112
 C360 C 1.06520 0.13253 0.58942
 C361 C 1.08884 0.15974 0.61787
 H362 H 1.13676 0.20081 0.67743
 H363 H 1.21341 0.07927 0.60054
 H364 H 1.14417 0.05828 0.56489
 H365 H 1.07262 0.18748 0.63293
 H366 H 1.25353 0.12423 0.65275
 H367 H 1.03114 0.13987 0.58370
 C368 C 0.85042 -0.10717 0.77963
 C369 C 0.85126 -0.15163 0.77139
 C370 C 0.87348 -0.16643 0.73029
 C371 C 0.89211 -0.13763 0.69739
 C372 C 0.89020 -0.09333 0.70614
 C373 C 0.86994 -0.07857 0.74773
 C374 C 0.90703 -0.06438 0.67224
 C375 C 0.92404 -0.07907 0.62868
 C376 C 0.92644 -0.12321 0.62055
 C377 C 0.91113 -0.15229 0.65486
 H378 H 0.87388 -0.20006 0.72177
 H379 H 0.86846 -0.04471 0.75522
 H380 H 0.90456 -0.03033 0.67854
 H381 H 0.91289 -0.18614 0.64743
 H382 H 0.83567 -0.09412 0.81154
 H383 H 0.93955 -0.13517 0.58723
 C384 C 1.10494 -0.11519 0.21911
 C385 C 1.11734 -0.15746 0.23230
 C386 C 1.10539 -0.17265 0.27845
 C387 C 1.08568 -0.14471 0.31185
 C388 C 1.07514 -0.10217 0.29794
 C389 C 1.08368 -0.08825 0.25114
 C390 C 1.05779 -0.07349 0.33143
 C391 C 1.05219 -0.08589 0.37966
 C392 C 1.06207 -0.12847 0.39325
 C393 C 1.07822 -0.15771 0.35958
 H394 H 1.11471 -0.20478 0.28988
 H395 H 1.07529 -0.05588 0.23969
 H396 H 1.05038 -0.04083 0.32023
 H397 H 1.08608 -0.19013 0.37122
 H398 H 1.11148 -0.10271 0.18347
 H399 H 1.05781 -0.13902 0.43005
 C400 C 0.83544 0.21222 0.32096
 C401 C 0.80200 0.19278 0.29509
 C402 C 0.78943 0.15133 0.31041
 C403 C 0.81197 0.12900 0.34693
 C404 C 0.84762 0.14796 0.36898
 C405 C 0.85808 0.19002 0.35699
 C406 C 0.87376 0.12376 0.40061
 C407 C 0.86483 0.08066 0.41032
 C408 C 0.82734 0.06293 0.39141
 C409 C 0.80110 0.08692 0.35977
 H410 H 0.76471 0.13425 0.29183
 H411 H 0.88462 0.20547 0.37462
 H412 H 0.90264 0.13759 0.41537
 H413 H 0.77358 0.07190 0.34357
 H414 H 0.84459 0.24485 0.31373
 H415 H 0.82016 0.02964 0.39826
 C416 C 0.20997 0.28147 -0.15846
 C417 C 0.20408 0.28383 -0.20849
 C418 C 0.17408 0.31415 -0.22744
 C419 C 0.15002 0.34094 -0.19661
 C420 C 0.15639 0.33750 -0.14658
 C421 C 0.18680 0.30816 -0.12803
 C422 C 0.13132 0.36240 -0.11547
 C423 C 0.09918 0.39070 -0.13322
 C424 C 0.09362 0.39498 -0.18307
 C425 C 0.11890 0.37036 -0.21452
 H426 H 0.16901 0.31644 -0.26576
 H427 H 0.19181 0.30493 -0.08974
 H428 H 0.13615 0.35883 -0.07716
 H429 H 0.11348 0.37368 -0.25270
 H430 H 0.23151 0.25769 -0.14228
 H431 H 0.06907 0.41664 -0.19772
 C432 C -0.16586 0.27250 0.10796
 C433 C -0.17931 0.28733 0.15293
 C434 C -0.16304 0.32579 0.16975
 C435 C -0.13322 0.34906 0.14212
 C436 C -0.11849 0.33308 0.09770
 C437 C -0.13544 0.29498 0.08072
 C438 C -0.08683 0.35527 0.07136
 C439 C -0.07082 0.39395 0.08819
 C440 C -0.08698 0.41023 0.13149
 C441 C -0.11748 0.38782 0.15844
 H442 H -0.17346 0.33736 0.20438
 H443 H -0.12489 0.28237 0.04663
 H444 H -0.07478 0.34261 0.03790
 H445 H -0.12858 0.40071 0.19219
 H446 H -0.17794 0.24274 0.09462
 H447 H -0.07505 0.43990 0.14528
 C448 C -0.13503 0.68535 -0.18520
 C449 C -0.15934 0.70671 -0.14960
 C450 C -0.16325 0.68646 -0.10407
 C451 C -0.14038 0.64813 -0.09343
 C452 C -0.11475 0.62860 -0.12917
 C453 C -0.11338 0.64674 -0.17520
 C454 C -0.08885 0.59263 -0.11774
 C455 C -0.08647 0.57684 -0.07038
 C456 C -0.11361 0.59506 -0.03543
 C457 C -0.14070 0.63018 -0.04698
 H458 H -0.18088 0.70203 -0.07543
 H459 H -0.09434 0.63178 -0.20321
 H460 H -0.06804 0.57899 -0.14511
 H461 H -0.16037 0.64447 -0.01907
 H462 H -0.13289 0.69816 -0.22134
 H463 H -0.11263 0.58320 0.00119
 C464 C 0.13915 0.67651 0.18756
 C465 C 0.15877 0.70372 0.15347
 C466 C 0.16801 0.68707 0.10766
 C467 C 0.15610 0.64539 0.09560
 C468 C 0.13415 0.61963 0.12937
 C469 C 0.12680 0.63516 0.17560
 C470 C 0.11742 0.58012 0.11538
 C471 C 0.12134 0.56663 0.06755
 C472 C 0.14653 0.59097 0.03557
 C473 C 0.16373 0.62989 0.04941
 H474 H 0.18236 0.70712 0.08020
 H475 H 0.11045 0.61571 0.20225
 H476 H 0.09770 0.56211 0.14042
 H477 H 0.18101 0.64894 0.02313
 H478 H 0.13267 0.68725 0.22352
 H479 H 0.15018 0.58147 -0.00134
 C480 C 0.31884 1.18553 0.84421
 C481 C 0.31605 1.17399 0.79570
 C482 C 0.34280 1.14007 0.77935
 C483 C 0.37044 1.11746 0.81137
 C484 C 0.37256 1.13007 0.85960
 C485 C 0.34729 1.16448 0.87537
 C486 C 0.39826 1.10686 0.89224
 C487 C 0.42072 1.06972 0.87830
 C488 C 0.41930 1.05744 0.83018
 C489 C 0.39476 1.08149 0.79677
 H490 H 0.34145 1.13055 0.74231
 H491 H 0.34812 1.17405 0.91247
 H492 H 0.39887 1.11658 0.92931
 H493 H 0.39362 1.07114 0.75999
 H494 H 0.29780 1.20987 0.85924
 H495 H 0.43645 1.02886 0.81867
 C496 C 0.22756 0.87455 1.08845
 C497 C 0.23912 0.83983 1.11863
 C498 C 0.28305 0.83193 1.12919
 C499 C 0.31486 0.86007 1.11218
 C500 C 0.30266 0.89577 1.08314
 C501 C 0.25906 0.90200 1.07042
 C502 C 0.33391 0.92557 1.06895
 C503 C 0.37719 0.92068 1.08415
 C504 C 0.38916 0.88429 1.11169
 C505 C 0.35837 0.85426 1.12545
 H506 H 0.29206 0.80551 1.15297
 H507 H 0.24910 0.92904 1.04805
 H508 H 0.32425 0.95319 1.04729
 H509 H 0.36840 0.82705 1.14752
 H510 H 0.19380 0.88116 1.08010
 H511 H 0.42231 0.87941 1.12348
 C512 C 0.68594 1.19700 1.11800
 C513 C 0.68808 1.19901 1.16832
 C514 C 0.65549 1.17850 1.19568
 C515 C 0.62457 1.15308 1.17334
 C516 C 0.62444 1.15063 1.12301
 C517 C 0.65397 1.17396 1.09570
 C518 C 0.59733 1.12212 1.10061
 C519 C 0.57224 1.09352 1.12754
 C520 C 0.57001 1.09757 1.17739
 C521 C 0.59570 1.12773 1.20021
 H522 H 0.65523 1.18042 1.23431
 H523 H 0.65427 1.17203 1.05699
 H524 H 0.59859 1.11961 1.06193
 H525 H 0.59512 1.12923 1.23891
 H526 H 0.71041 1.21099 1.09524
 H527 H 0.55079 1.07577 1.19872
 C528 C 0.68964 0.80360 0.87103
 C529 C 0.73001 0.82052 0.88246
 C530 C 0.73188 0.85551 0.91290
 C531 C 0.69375 0.87479 0.93022
 C532 C 0.65294 0.85911 0.91676
 C533 C 0.65130 0.82285 0.88795
 C534 C 0.61474 0.88070 0.93125
 C535 C 0.61715 0.91734 0.95951
 C536 C 0.65798 0.93142 0.97401
 C537 C 0.69585 0.91046 0.95947
 H538 H 0.76311 0.86851 0.92177
 H539 H 0.62043 0.81011 0.87749
 H540 H 0.58343 0.86944 0.92012
 H541 H 0.72684 0.92269 0.97033
 H542 H 0.68779 0.77669 0.84732
 H543 H 0.66077 0.95959 0.99570
   
