data_POSCAR
  _audit_creation_date              2014-09-24
  _audit_creation_method            'ToBaCCo'
  _symmetry_space_group_name_H-M    'P1'
  _symmetry_Int_Tables_number       1
  _symmetry_cell_setting            triclinic
  loop_
  _symmetry_equiv_pos_as_xyz
 x,y,z
_cell_length_a 21.3852
_cell_length_b 21.4967
_cell_length_c 21.5394
_cell_angle_alpha 89.127400
_cell_angle_beta 90.402600
_cell_angle_gamma 91.042200
loop_
  _atom_site_label
  _atom_site_type_symbol
  _atom_site_fract_x
  _atom_site_fract_y
  _atom_site_fract_z
N1 N 0.21860 0.23093 0.23059
 N2 N -0.19676 0.80209 0.19940
 N3 N -0.21906 0.21123 -0.22128
 N4 N 0.24403 0.75189 -0.24425
 N5 N 0.21240 1.21586 0.78884
 N6 N 0.76564 0.79173 0.79583
 N7 N 0.21573 0.77419 1.24092
 N8 N 0.78439 1.21266 1.20442
 O9 O 0.52917 0.93006 0.91616
 O10 O 0.43742 0.95172 1.14216
 O11 O 0.61981 0.99762 1.06423
 O12 O 0.41082 0.90860 0.95601
 O13 O 0.55314 0.94421 1.12111
 O14 O 0.42607 0.96525 0.87709
 O15 O 0.40828 0.90044 1.06387
 O16 O 0.61012 0.97333 0.95616
 C17 C 0.58618 0.92923 0.92669
 C18 C 0.41015 0.90585 1.12055
 C19 C 0.60744 0.95236 1.10074
 C20 C 0.40144 0.91724 0.89962
 O21 O 0.44499 1.07584 0.91492
 O22 O 0.55825 1.06502 1.12568
 O23 O 0.55652 1.08519 0.93265
 O24 O 0.36420 1.02036 1.07480
 O25 O 0.44117 1.06808 1.12584
 O26 O 0.53370 1.03173 0.85170
 O27 O 0.36594 1.02752 0.95852
 O28 O 0.56229 1.11000 1.03837
 Co29 Co 0.49012 1.00384 0.92014
 Co30 Co 0.49715 1.00644 1.11745
 Co31 Co 0.57953 1.03842 0.99936
 Co32 Co 0.39512 0.96748 1.01317
 O33 O 0.48803 1.00118 1.01590
 C34 C 0.38732 1.07225 0.92556
 C35 C 0.57227 1.11201 1.09462
 C36 C 0.56920 1.07442 0.87673
 C37 C 0.38392 1.06270 1.11189
 O38 O 0.04237 0.44100 0.11549
 O39 O 0.04251 0.55086 -0.14598
 O40 O 0.09747 0.43397 -0.06742
 O41 O 0.09201 0.60681 0.04037
 O42 O 0.03376 0.43708 -0.14117
 O43 O 0.04413 0.55765 0.11601
 O44 O 0.10159 0.58274 -0.07091
 O45 O 0.10304 0.42393 0.04001
 C46 C 0.09362 0.42154 0.09618
 C47 C 0.09471 0.57213 -0.12684
 C48 C 0.08686 0.42283 -0.12186
 C49 C 0.08544 0.59576 0.09663
 O50 O -0.07325 0.56068 0.08454
 O51 O -0.08168 0.44583 -0.08973
 O52 O -0.01315 0.37178 0.04535
 O53 O -0.01200 0.62595 -0.08860
 O54 O -0.07943 0.55508 -0.09986
 O55 O -0.07638 0.44282 0.07385
 O56 O -0.02643 0.63271 0.02649
 O57 O -0.01865 0.37337 -0.06700
 Co58 Co -0.01383 0.49997 0.08646
 Co59 Co -0.01824 0.49802 -0.11031
 Co60 Co 0.03922 0.40895 -0.01299
 Co61 Co 0.03559 0.60109 -0.02277
 O62 O 0.00915 0.50245 -0.01342
 C63 C -0.06736 0.61609 0.06609
 C64 C -0.07151 0.38958 -0.08617
 C65 C -0.06363 0.38685 0.07036
 C66 C -0.06661 0.61108 -0.10151
 O67 O 1.12105 0.05075 0.44513
 O68 O 0.90254 0.07710 0.53799
 O69 O 0.92878 0.07635 0.42648
 O70 O 1.05066 0.01660 0.63378
 O71 O 0.84075 0.03059 0.44739
 O72 O 1.11062 0.06129 0.56169
 O73 O 0.93745 0.02911 0.62059
 O74 O 1.03614 0.09575 0.42756
 C75 C 1.09319 0.09598 0.42283
 C76 C 0.91055 0.07528 0.59604
 C77 C 0.87225 0.06818 0.41086
 C78 C 1.09204 0.05713 0.61695
 O79 O 1.11913 -0.05558 0.57309
 O80 O 0.89506 -0.07378 0.46202
 O81 O 1.05862 -0.02314 0.38268
 O82 O 0.92732 -0.09071 0.57826
 O83 O 0.85429 -0.02966 0.56051
 O84 O 1.10913 -0.06832 0.45917
 O85 O 1.03441 -0.10411 0.59280
 O86 O 0.94727 -0.04062 0.38373
 Co87 Co 1.10346 -0.00311 0.50910
 Co88 Co 0.90396 0.00215 0.49742
 Co89 Co 0.99339 0.02456 0.41294
 Co90 Co 0.98803 -0.03484 0.59894
 O91 O 1.00016 -0.00548 0.50728
 C92 C 1.09188 -0.10155 0.59560
 C93 C 0.91068 -0.07997 0.40711
 C94 C 1.09399 -0.06593 0.40320
 C95 C 0.87208 -0.07760 0.58767
 C96 C 1.12128 0.20245 0.28599
 C97 C 1.18689 0.20537 0.28423
 C98 C 1.22138 0.17727 0.33236
 C99 C 1.19080 0.14470 0.38016
 C100 C 1.12522 0.14056 0.38093
 C101 C 1.09073 0.17171 0.33470
 H102 H 1.09364 0.22182 0.24836
 H103 H 1.27200 0.17854 0.33138
 H104 H 1.21837 0.12068 0.41510
 H105 H 1.04012 0.16879 0.33375
 C106 C 0.79088 -0.15529 0.30487
 C107 C 0.82912 -0.18094 0.25920
 C108 C 0.89375 -0.18450 0.27081
 C109 C 0.92004 -0.15761 0.32385
 C110 C 0.88236 -0.12728 0.36651
 C111 C 0.81729 -0.12890 0.35822
 H112 H 0.74085 -0.15269 0.29764
 H113 H 0.92452 -0.20411 0.23686
 H114 H 0.97025 -0.15698 0.32971
 H115 H 0.78741 -0.10474 0.38994
 C116 C 0.86953 0.14924 0.74683
 C117 C 0.81850 0.18572 0.73041
 C118 C 0.80166 0.19210 0.66737
 C119 C 0.83440 0.16003 0.62162
 C120 C 0.88377 0.12090 0.63889
 C121 C 0.90139 0.11711 0.70193
 H122 H 0.88256 0.14256 0.79501
 H123 H 0.76185 0.21985 0.65413
 H124 H 0.81890 0.16293 0.57372
 H125 H 0.93752 0.08588 0.71756
 C126 C 1.14750 -0.19175 0.73439
 C127 C 1.20628 -0.21121 0.71451
 C128 C 1.22539 -0.19828 0.65357
 C129 C 1.18670 -0.16448 0.61346
 C130 C 1.12765 -0.14558 0.63331
 C131 C 1.10791 -0.16022 0.69370
 H132 H 1.13223 -0.20201 0.78134
 H133 H 1.27008 -0.21410 0.63737
 H134 H 1.20292 -0.15254 0.56718
 H135 H 1.06323 -0.14479 0.71032
 C136 C 0.32365 1.20339 1.19523
 C137 C 0.25964 1.18962 1.19891
 C138 C 0.23578 1.13482 1.17209
 C139 C 0.27567 1.09395 1.14232
 C140 C 0.34018 1.10696 1.13970
 C141 C 0.36363 1.16232 1.16622
 H142 H 0.34253 1.24551 1.21562
 H143 H 0.18623 1.12383 1.17449
 H144 H 0.25633 1.05167 1.12261
 H145 H 0.41311 1.17388 1.16471
 C146 C 0.27765 0.79624 0.85680
 C147 C 0.28824 0.78751 0.79318
 C148 C 0.33703 0.82219 0.76470
 C149 C 0.37396 0.86450 0.79882
 C150 C 0.36388 0.87199 0.86261
 C151 C 0.31612 0.83639 0.89134
 H152 H 0.23848 0.77323 0.87961
 H153 H 0.34561 0.81763 0.71558
 H154 H 0.41045 0.89122 0.77543
 H155 H 0.30683 0.84122 0.94031
 C156 C 0.69384 0.81413 1.16664
 C157 C 0.75463 0.83881 1.17209
 C158 C 0.76738 0.90020 1.15271
 C159 C 0.71967 0.93672 1.12799
 C160 C 0.65825 0.91272 1.12389
 C161 C 0.64568 0.85110 1.14335
 H162 H 0.68367 0.76677 1.18175
 H163 H 0.81427 0.91959 1.15695
 H164 H 0.73043 0.98420 1.11360
 H165 H 0.59872 0.83158 1.14035
 C166 C 0.68678 1.20391 0.84553
 C167 C 0.72332 1.17955 0.79797
 C168 C 0.70344 1.12254 0.77140
 C169 C 0.65076 1.08972 0.79404
 C170 C 0.61701 1.11288 0.84385
 C171 C 0.63480 1.17088 0.86836
 H172 H 0.69931 1.24784 0.86657
 H173 H 0.72964 1.10179 0.73454
 H174 H 0.63846 1.04483 0.77482
 H175 H 0.60947 1.19003 0.90682
 C176 C 0.21093 0.30001 0.13765
 C177 C 0.19794 0.28806 0.20060
 C178 C 0.16015 0.33054 0.23209
 C179 C 0.12826 0.37711 0.19928
 C180 C 0.13651 0.38424 0.13511
 C181 C 0.18125 0.34785 0.10563
 H182 H 0.24111 0.27024 0.11169
 H183 H 0.15188 0.32530 0.28140
 H184 H 0.09516 0.40543 0.22344
 H185 H 0.18991 0.35291 0.05631
 C186 C -0.18788 0.31972 -0.20004
 C187 C -0.18871 0.25687 -0.18214
 C188 C -0.15534 0.23848 -0.12859
 C189 C -0.11831 0.28173 -0.09594
 C190 C -0.11600 0.34452 -0.11496
 C191 C -0.15271 0.36331 -0.16624
 H192 H -0.21329 0.33462 -0.24114
 H193 H -0.15608 0.19018 -0.11363
 H194 H -0.09075 0.26605 -0.05652
 H195 H -0.15173 0.41131 -0.18223
 C196 C 0.16585 0.66482 -0.25689
 C197 C 0.21858 0.69086 -0.22565
 C198 C 0.24053 0.65900 -0.17262
 C199 C 0.20300 0.61315 -0.14398
 C200 C 0.14378 0.59719 -0.16879
 C201 C 0.12813 0.61926 -0.22812
 H202 H 0.14991 0.68380 -0.30091
 H203 H 0.28377 0.67293 -0.15005
 H204 H 0.21760 0.59460 -0.09924
 H205 H 0.08378 0.60641 -0.24937
 C206 C -0.14400 0.76877 0.10389
 C207 C -0.16901 0.75462 0.16278
 C208 C -0.16475 0.69411 0.18680
 C209 C -0.13473 0.64853 0.15332
 C210 C -0.10709 0.66287 0.09551
 C211 C -0.11262 0.72336 0.07072
 H212 H -0.14680 0.81550 0.08477
 H213 H -0.18398 0.68258 0.23199
 H214 H -0.13085 0.60259 0.17415
 H215 H -0.09165 0.73581 0.02651
 C216 C 1.21679 0.14777 0.70171
 C217 C 1.18193 0.18041 0.74523
 C218 C 1.11664 0.17000 0.74773
 C219 C 1.08717 0.12885 0.70683
 C220 C 1.12213 0.09814 0.66243
 C221 C 1.18705 0.10811 0.65993
 H222 H 1.26714 0.15386 0.69974
 H223 H 1.08890 0.19211 0.78270
 H224 H 1.03722 0.12176 0.70924
 H225 H 1.21491 0.08436 0.62613
 C226 C 0.76830 -0.11504 0.72484
 C227 C 0.78350 -0.17763 0.73775
 C228 C 0.82101 -0.20855 0.69499
 C229 C 0.84680 -0.17671 0.64398
 C230 C 0.83426 -0.11361 0.63321
 C231 C 0.79304 -0.08357 0.67278
 H232 H 0.74001 -0.08921 0.75654
 H233 H 0.83280 -0.25684 0.70260
 H234 H 0.87853 -0.20086 0.61409
 H235 H 0.78346 -0.03462 0.66594
 C236 C 1.20501 -0.18459 0.34292
 C237 C 1.18000 -0.19704 0.28401
 C238 C 1.12386 -0.16852 0.26548
 C239 C 1.09601 -0.12485 0.30348
 C240 C 1.12187 -0.11174 0.36190
 C241 C 1.17568 -0.14332 0.38184
 H242 H 1.24859 -0.20531 0.35760
 H243 H 1.10474 -0.17610 0.21946
 H244 H 1.05513 -0.10059 0.28679
 H245 H 1.19683 -0.13416 0.42670
 C246 C 0.84919 0.20180 0.29739
 C247 C 0.80455 0.17754 0.25518
 C248 C 0.78145 0.11606 0.26692
 C249 C 0.80042 0.08171 0.31943
 C250 C 0.84476 0.10663 0.36052
 C251 C 0.86927 0.16670 0.34872
 H252 H 0.86818 0.24851 0.29131
 H253 H 0.74994 0.09336 0.23453
 H254 H 0.78269 0.03459 0.32628
 H255 H 0.90437 0.18665 0.37939
 C256 C 0.14819 0.30662 -0.23503
 C257 C 0.19185 0.27464 -0.19661
 C258 C 0.21013 0.30349 -0.14076
 C259 C 0.18027 0.35635 -0.12064
 C260 C 0.12974 0.38126 -0.15429
 C261 C 0.11606 0.35806 -0.21321
 H262 H 0.13565 0.28970 -0.28058
 H263 H 0.24426 0.28329 -0.10961
 H264 H 0.19332 0.37425 -0.07552
 H265 H 0.07851 0.37746 -0.24093
 C266 C -0.11431 0.24262 0.16189
 C267 C -0.17666 0.25649 0.17653
 C268 C -0.20064 0.31391 0.15563
 C269 C -0.16433 0.35524 0.12008
 C270 C -0.10306 0.34042 0.10384
 C271 C -0.07819 0.28387 0.12532
 H272 H -0.09458 0.19859 0.17617
 H273 H -0.24810 0.32641 0.16657
 H274 H -0.18438 0.39893 0.10508
 H275 H -0.03055 0.27190 0.11451
 C276 C -0.21544 0.68670 -0.16044
 C277 C -0.19327 0.74668 -0.17612
 C278 C -0.13042 0.76252 -0.16454
 C279 C -0.08991 0.71873 -0.13897
 C280 C -0.11127 0.65788 -0.12500
 C281 C -0.17461 0.64236 -0.13552
 H282 H -0.26396 0.67403 -0.16879
 H283 H -0.11284 0.80889 -0.17569
 H284 H -0.04147 0.73223 -0.13124
 H285 H -0.19239 0.59595 -0.12490
 C286 C 0.20000 0.71928 0.14449
 C287 C 0.18918 0.72541 0.20845
 C288 C 0.14603 0.68316 0.23693
 C289 C 0.11446 0.63748 0.20216
 C290 C 0.12596 0.63272 0.13845
 C291 C 0.17096 0.67266 0.11097
 H292 H 0.22798 0.75289 0.11856
 H293 H 0.13578 0.68633 0.28593
 H294 H 0.07944 0.60790 0.22439
 H295 H 0.18082 0.67118 0.06175
 C296 C 0.23700 1.12904 0.85541
 C297 C 0.25504 1.18510 0.82559
 C298 C 0.31744 1.20649 0.83199
 C299 C 0.36113 1.17093 0.86565
 C300 C 0.34249 1.11458 0.89473
 C301 C 0.27968 1.09495 0.89009
 H302 H 0.18925 1.11170 0.85189
 H303 H 0.33264 1.24921 0.80898
 H304 H 0.40938 1.18690 0.86819
 H305 H 0.26364 1.05163 0.91143
 C306 C 0.31858 0.77099 1.19131
 C307 C 0.27107 0.80342 1.22227
 C308 C 0.27983 0.86845 1.22907
 C309 C 0.32835 0.90009 1.19925
 C310 C 0.36905 0.86841 1.16089
 C311 C 0.36547 0.80348 1.15844
 H312 H 0.31680 0.72073 1.18873
 H313 H 0.24643 0.89650 1.25300
 H314 H 0.33093 0.95038 1.20222
 H315 H 0.39792 0.77824 1.13030
 C316 C 0.71789 1.20559 1.11270
 C317 C 0.72619 1.20213 1.17795
 C318 C 0.67387 1.18542 1.21447
 C319 C 0.61918 1.16280 1.18660
 C320 C 0.61492 1.15854 1.12175
 C321 C 0.66241 1.18501 1.08507
 H322 H 0.75614 1.21902 1.08238
 H323 H 0.67671 1.18612 1.26466
 H324 H 0.58225 1.14381 1.21582
 H325 H 0.65978 1.18338 1.03491
 C326 C 0.65585 0.82233 0.80974
 C327 C 0.71672 0.81625 0.83358
 C328 C 0.73094 0.83945 0.89270
 C329 C 0.68651 0.87237 0.92538
 C330 C 0.62675 0.88194 0.89990
 C331 C 0.61094 0.85458 0.84290
 H332 H 0.64418 0.80454 0.76428
 H333 H 0.77765 0.83536 0.91185
 H334 H 0.69987 0.89308 0.96918
 H335 H 0.56541 0.86191 0.82197
   
