data_POSCAR
  _audit_creation_date              2014-09-24
  _audit_creation_method            'ToBaCCo'
  _symmetry_space_group_name_H-M    'P1'
  _symmetry_Int_Tables_number       1
  _symmetry_cell_setting            triclinic
  loop_
  _symmetry_equiv_pos_as_xyz
 x,y,z
_cell_length_a 24.2741
_cell_length_b 24.1556
_cell_length_c 24.6022
_cell_angle_alpha 89.589000
_cell_angle_beta 89.302400
_cell_angle_gamma 89.925700
loop_
  _atom_site_label
  _atom_site_type_symbol
  _atom_site_fract_x
  _atom_site_fract_y
  _atom_site_fract_z
O1 O 0.22105 1.03865 0.45645
 O2 O 0.23861 0.93037 0.56303
 O3 O 0.23678 1.03561 0.55852
 O4 O 0.23620 0.92462 0.45344
 O5 O 0.32601 0.93544 0.44350
 O6 O 0.32723 1.04000 0.54820
 O7 O 0.32849 0.93412 0.54847
 O8 O 0.31153 1.04478 0.44752
 Cu9 Cu 0.22418 0.98011 0.50639
 Cu10 Cu 0.33196 0.98859 0.49496
 C11 C 0.26358 1.06289 0.43734
 C12 C 0.28710 0.91431 0.57413
 C13 C 0.28314 1.05660 0.57083
 C14 C 0.28223 0.90969 0.43285
 O15 O 0.67329 -0.04110 0.46108
 O16 O 0.69498 0.06148 0.56658
 O17 O 0.67929 0.07103 0.46503
 O18 O 0.71369 -0.04381 0.56077
 O19 O 0.80110 -0.03185 0.53740
 O20 O 0.76591 0.07165 0.43665
 O21 O 0.78269 0.06725 0.54156
 O22 O 0.76159 -0.04209 0.43905
 Cu23 Cu 0.68145 0.01036 0.51429
 Cu24 Cu 0.78535 0.01638 0.48349
 C25 C 0.71327 -0.06191 0.43482
 C26 C 0.74278 0.08074 0.57317
 C27 C 0.71812 0.09226 0.43634
 C28 C 0.76477 -0.05436 0.56746
 O29 O 0.17127 0.44693 0.94643
 O30 O 0.21290 0.53186 1.06307
 O31 O 0.21174 0.54074 0.95020
 O32 O 0.18072 0.42330 1.04163
 O33 O 0.26868 0.39990 1.04358
 O34 O 0.29791 0.51158 0.94763
 O35 O 0.29834 0.50213 1.05490
 O36 O 0.25631 0.41413 0.94023
 Cu37 Cu 0.18678 0.49130 1.00443
 Cu38 Cu 0.28858 0.45514 0.99608
 C39 C 0.20650 0.41500 0.92451
 C40 C 0.26222 0.53115 1.07944
 C41 C 0.26011 0.54249 0.92974
 C42 C 0.21881 0.38965 1.05515
 O43 O 0.43585 0.17674 1.02691
 O44 O 0.53862 0.22679 0.92761
 O45 O 0.54123 0.21555 1.03886
 O46 O 0.43417 0.21221 0.92805
 O47 O 0.41207 0.29849 0.94910
 O48 O 0.51200 0.29992 1.05530
 O49 O 0.51477 0.31262 0.94679
 O50 O 0.41076 0.26202 1.04706
 Cu51 Cu 0.49135 0.19949 0.98046
 Cu52 Cu 0.46174 0.30067 1.00262
 C53 C 0.40429 0.20991 1.05205
 C54 C 0.54161 0.27814 0.91755
 C55 C 0.54311 0.25989 1.06693
 C56 C 0.40603 0.25639 0.91960
 O57 O 0.47230 0.70668 -0.04190
 O58 O 0.58224 0.71116 0.05728
 O59 O 0.47003 0.70773 0.06114
 O60 O 0.57367 0.74125 -0.04660
 O61 O 0.55752 0.82984 -0.03092
 O62 O 0.46122 0.79743 0.07647
 O63 O 0.57099 0.80128 0.06666
 O64 O 0.45461 0.79549 -0.02854
 Cu65 Cu 0.52716 0.70815 0.00739
 Cu66 Cu 0.50955 0.81376 0.02247
 C67 C 0.44305 0.74910 -0.05017
 C68 C 0.59779 0.75695 0.07612
 C69 C 0.44500 0.74830 0.08361
 C70 C 0.58309 0.79245 -0.05642
 O71 O 1.05832 0.46080 0.20383
 O72 O 0.94665 0.55453 0.24382
 O73 O 1.05501 0.55524 0.24261
 O74 O 0.95304 0.45378 0.19723
 O75 O 0.94198 0.42256 0.28127
 O76 O 1.06034 0.50796 0.31962
 O77 O 0.95045 0.52120 0.32745
 O78 O 1.04716 0.41430 0.28118
 Cu79 Cu 1.00113 0.51062 0.21357
 Cu80 Cu 0.99806 0.46393 0.31134
 C81 C 1.07239 0.42239 0.23638
 C82 C 0.93114 0.55523 0.29318
 C83 C 1.07957 0.54406 0.28658
 C84 C 0.93063 0.42071 0.23114
 O85 O -0.06315 0.48312 0.67688
 O86 O 0.05087 0.57597 0.71077
 O87 O 0.04652 0.47473 0.67631
 O88 O -0.05475 0.58261 0.71470
 O89 O -0.07081 0.53534 0.79046
 O90 O 0.04341 0.44109 0.75993
 O91 O 0.03884 0.54902 0.79599
 O92 O -0.06125 0.44291 0.75793
 Cu93 Cu -0.00447 0.53150 0.68582
 Cu94 Cu -0.00931 0.49031 0.78533
 C95 C -0.08288 0.44905 0.71164
 C96 C 0.06173 0.58033 0.76065
 C97 C 0.06284 0.44023 0.71187
 C98 C -0.08344 0.57390 0.75747
 O99 O 0.44232 0.94744 0.19644
 O100 O 0.55036 1.05092 0.21942
 O101 O 0.54738 0.93951 0.20421
 O102 O 0.44148 1.04879 0.21909
 O103 O 0.42483 1.01375 0.30094
 O104 O 0.54916 0.93032 0.29352
 O105 O 0.52988 1.04449 0.30670
 O106 O 0.44503 0.92038 0.28259
 Cu107 Cu 0.49845 0.99904 0.20095
 Cu108 Cu 0.49100 0.97760 0.30563
 C109 C 0.42485 0.91680 0.23522
 C110 C 0.55401 1.06914 0.26727
 C111 C 0.56447 0.91504 0.24666
 C112 C 0.41052 1.04370 0.26099
 O113 O 1.03542 0.20894 0.52506
 O114 O 0.93152 0.23995 0.42205
 O115 O 1.03935 0.23711 0.42465
 O116 O 0.92586 0.22539 0.52541
 O117 O 0.93596 0.31312 0.54823
 O118 O 1.04525 0.32596 0.44464
 O119 O 0.93598 0.32838 0.44390
 O120 O 1.04342 0.29772 0.54483
 Cu121 Cu 0.98227 0.21874 0.47309
 Cu122 Cu 0.99068 0.32504 0.49731
 C123 C 1.05949 0.24790 0.54946
 C124 C 0.91482 0.28930 0.41652
 C125 C 1.06272 0.28391 0.41902
 C126 C 0.91029 0.26774 0.55212
 O127 O -0.02986 0.80588 0.56435
 O128 O 0.07907 0.78328 0.46027
 O129 O -0.02700 0.81420 0.45457
 O130 O 0.07371 0.80844 0.55981
 O131 O 0.05776 0.71937 0.57432
 O132 O -0.04486 0.72501 0.46047
 O133 O 0.06170 0.69391 0.46842
 O134 O -0.04924 0.71639 0.56434
 Cu135 Cu 0.02351 0.81130 0.50734
 Cu136 Cu 0.00616 0.70525 0.51646
 C137 C -0.05559 0.76399 0.58399
 C138 C 0.09107 0.73297 0.45015
 C139 C -0.05448 0.77280 0.43993
 C140 C 0.08121 0.76492 0.58741
 O141 O 0.80450 0.44390 1.02931
 O142 O 0.80772 0.57663 0.95453
 O143 O 0.82610 0.54860 1.05332
 O144 O 0.79716 0.47172 0.92814
 O145 O 0.70841 0.47596 0.94874
 O146 O 0.73756 0.56486 1.06743
 O147 O 0.71756 0.58471 0.96474
 O148 O 0.71750 0.45903 1.05213
 Cu149 Cu 0.81761 0.50933 0.98989
 Cu150 Cu 0.71128 0.52258 1.00945
 C151 C 0.76017 0.42861 1.05311
 C152 C 0.76331 0.60341 0.94727
 C153 C 0.78769 0.57195 1.08016
 C154 C 0.74791 0.45726 0.91957
 O155 O 0.44013 1.07364 0.80618
 O156 O 0.56489 0.98695 0.80091
 O157 O 0.53971 1.08595 0.78581
 O158 O 0.45574 0.96582 0.82471
 O159 O 0.44729 0.93942 0.73934
 O160 O 0.51665 1.06905 0.70087
 O161 O 0.54650 0.96202 0.71681
 O162 O 0.41425 1.03374 0.73016
 Cu163 Cu 0.50100 1.02727 0.81396
 Cu164 Cu 0.48128 1.00150 0.71211
 C165 C 0.40415 1.06523 0.77022
 C166 C 0.57819 0.96214 0.75736
 C167 C 0.54061 1.09878 0.73588
 C168 C 0.43566 0.93369 0.78935
 C169 C 0.23246 0.19351 0.28837
 C170 C 0.20501 0.24469 0.28327
 C171 C 0.20468 0.27226 0.23277
 C172 C 0.22851 0.24767 0.18634
 C173 C 0.25962 0.19887 0.19135
 C174 C 0.25974 0.17031 0.24208
 C175 C 0.73789 0.78276 0.30866
 C176 C 0.70738 0.77302 0.26110
 C177 C 0.72894 0.73763 0.22052
 C178 C 0.77400 0.70278 0.23206
 C179 C 0.79922 0.70664 0.28377
 C180 C 0.78703 0.75244 0.31737
 C181 C 0.72627 0.23361 0.69989
 C182 C 0.67858 0.24258 0.73146
 C183 C 0.67702 0.28788 0.76741
 C184 C 0.72361 0.32364 0.76981
 C185 C 0.76223 0.32313 0.72605
 C186 C 0.76237 0.27793 0.68996
 C187 C 0.26856 0.78741 0.73206
 C188 C 0.22232 0.75151 0.72852
 C189 C 0.21759 0.70675 0.76573
 C190 C 0.26090 0.69640 0.80155
 C191 C 0.29741 0.73921 0.81421
 C192 C 0.30064 0.78573 0.77982
 C193 C 0.20103 0.23721 0.68808
 C194 C 0.23850 0.19578 0.70454
 C195 C 0.25948 0.19547 0.75779
 C196 C 0.25286 0.24216 0.79046
 C197 C 0.21147 0.28120 0.77683
 C198 C 0.18754 0.28069 0.72432
 C199 C 0.79836 0.76179 0.72070
 C200 C 0.76800 0.81170 0.71452
 C201 C 0.72523 0.82434 0.75184
 C202 C 0.71734 0.79011 0.79846
 C203 C 0.74745 0.74048 0.80399
 C204 C 0.78334 0.72307 0.76160
 C205 C 0.23313 0.71161 0.31017
 C206 C 0.23343 0.66708 0.27279
 C207 C 0.26620 0.67031 0.22505
 C208 C 0.29458 0.71996 0.21322
 C209 C 0.29297 0.76474 0.24991
 C210 C 0.26511 0.75915 0.29995
 C211 C 0.77171 0.26693 0.27937
 C212 C 0.77942 0.28745 0.22579
 C213 C 0.73788 0.27900 0.18663
 C214 C 0.69042 0.24741 0.20000
 C215 C 0.68679 0.22068 0.25132
 C216 C 0.72752 0.23050 0.29106
 C217 C 0.25895 0.11530 0.40688
 C218 C 0.29126 0.16057 0.41801
 C219 C 0.28148 0.19755 0.37732
 C220 C 0.24430 0.17200 0.34391
 O221 O 0.22980 0.12221 0.36223
 H222 H 0.32028 0.16496 0.45075
 H223 H 0.30181 0.23689 0.37061
 C224 C 0.70317 0.88833 0.40219
 C225 C 0.65540 0.85773 0.40668
 C226 C 0.66330 0.81331 0.37397
 C227 C 0.71508 0.82017 0.35119
 O228 O 0.73972 0.86557 0.36869
 H229 H 0.61943 0.86629 0.43169
 H230 H 0.63442 0.78017 0.36673
 C231 C 0.75240 0.11714 0.61931
 C232 C 0.79979 0.11581 0.64928
 C233 C 0.79267 0.15552 0.68752
 C234 C 0.74154 0.17854 0.67786
 O235 O 0.71667 0.15494 0.63643
 H236 H 0.83556 0.08967 0.64324
 H237 H 0.82282 0.16916 0.71656
 C238 C 0.29741 0.87211 0.61654
 C239 C 0.34836 0.84772 0.62248
 C240 C 0.34310 0.81311 0.66573
 C241 C 0.28953 0.81910 0.68404
 O242 O 0.26099 0.85444 0.65363
 H243 H 0.38515 0.85447 0.59800
 H244 H 0.37472 0.78652 0.68237
 C245 C 0.35958 0.18750 0.08682
 C246 C 0.34337 0.13276 0.08746
 C247 C 0.30198 0.12946 0.12536
 C248 C 0.29637 0.18236 0.14549
 O249 O 0.33088 0.21777 0.12168
 H250 H 0.35995 0.09925 0.06327
 H251 H 0.27933 0.09277 0.13755
 C252 C 0.39037 0.74147 0.92325
 C253 C 0.34596 0.71913 0.95064
 C254 C 0.30497 0.71787 0.91410
 C255 C 0.32834 0.73623 0.86589
 O256 O 0.38047 0.75143 0.87138
 H257 H 0.34400 0.70443 0.99211
 H258 H 0.26301 0.70466 0.92160
 C259 C 0.64963 0.75967 0.10568
 C260 C 0.68943 0.79895 0.09520
 C261 C 0.72877 0.78985 0.13313
 C262 C 0.70982 0.74594 0.16421
 O263 O 0.66189 0.72707 0.14718
 H264 H 0.68863 0.83160 0.06484
 H265 H 0.76425 0.81562 0.14082
 C266 C 0.57406 0.29803 0.87001
 C267 C 0.57101 0.35138 0.85009
 C268 C 0.60580 0.35288 0.80632
 C269 C 0.62778 0.30031 0.80230
 O270 O 0.60834 0.26663 0.84094
 H271 H 0.54686 0.38537 0.86612
 H272 H 0.61632 0.38881 0.78181
 C273 C 0.12190 0.39080 0.22491
 C274 C 0.16985 0.41465 0.20562
 C275 C 0.20820 0.37382 0.20847
 C276 C 0.18010 0.32800 0.22784
 O277 O 0.12792 0.33847 0.23917
 H278 H 0.17644 0.45728 0.19332
 H279 H 0.25134 0.37672 0.19725
 C280 C 0.86557 0.42055 0.70044
 C281 C 0.83064 0.43587 0.65925
 C282 C 0.78512 0.40396 0.66665
 C283 C 0.79572 0.37171 0.71183
 O284 O 0.84462 0.38151 0.73252
 H285 H 0.83744 0.46695 0.62799
 H286 H 0.74939 0.40233 0.64081
 C287 C 0.09997 0.62305 0.77815
 C288 C 0.09916 0.64482 0.82969
 C289 C 0.14092 0.68200 0.82985
 C290 C 0.16455 0.67964 0.77858
 O291 O 0.13951 0.64410 0.74668
 H292 H 0.07183 0.63422 0.86325
 H293 H 0.15460 0.70610 0.86406
 C294 C 0.88976 0.59568 0.31020
 C295 C 0.86437 0.59679 0.36052
 C296 C 0.82727 0.63900 0.35734
 C297 C 0.83359 0.66099 0.30561
 O298 O 0.87112 0.63421 0.27693
 H299 H 0.87121 0.56942 0.39480
 H300 H 0.79846 0.65191 0.38870
 C301 C 0.11141 0.23636 0.57653
 C302 C 0.15904 0.22527 0.54776
 C303 C 0.19958 0.22450 0.58530
 C304 C 0.17335 0.23374 0.63461
 O305 O 0.11975 0.24243 0.62905
 H306 H 0.16389 0.22124 0.50415
 H307 H 0.24320 0.21985 0.57709
 C308 C 0.91421 0.76798 0.63509
 C309 C 0.94089 0.77195 0.68392
 C310 C 0.90090 0.76521 0.72240
 C311 C 0.85287 0.75726 0.69401
 O312 O 0.86081 0.75849 0.64072
 H313 H 0.98447 0.77814 0.69046
 H314 H 0.90542 0.76839 0.76598
 C315 C 0.14215 0.71815 0.42186
 C316 C 0.17984 0.68210 0.44416
 C317 C 0.21976 0.67599 0.40559
 C318 C 0.20243 0.70739 0.36212
 O319 O 0.15569 0.73403 0.37201
 H320 H 0.17820 0.66269 0.48394
 H321 H 0.25685 0.65134 0.40848
 C322 C 0.86837 0.30076 0.38020
 C323 C 0.83826 0.34917 0.38126
 C324 C 0.79706 0.34165 0.34502
 C325 C 0.80537 0.28948 0.32404
 O326 O 0.84839 0.26414 0.34561
 H327 H 0.84510 0.38524 0.40613
 H328 H 0.76530 0.37104 0.33413
 C329 C 0.18870 0.37712 0.88210
 C330 C 0.13479 0.36107 0.87551
 C331 C 0.13647 0.32277 0.83535
 C332 C 0.19100 0.31972 0.81912
 O333 O 0.22308 0.35167 0.84852
 H334 H 0.09896 0.37421 0.89867
 H335 H 0.10212 0.29931 0.81996
 C336 C 0.75713 0.37312 0.07824
 C337 C 0.77153 0.32532 0.05124
 C338 C 0.76021 0.28313 0.08668
 C339 C 0.74191 0.30840 0.13352
 O340 O 0.73951 0.36313 0.12851
 H341 H 0.78912 0.32166 0.01083
 H342 H 0.76857 0.23956 0.08079
 C343 C 0.76639 0.65747 0.91979
 C344 C 0.80979 0.69330 0.92668
 C345 C 0.80388 0.73281 0.88763
 C346 C 0.75757 0.71799 0.85934
 O347 O 0.73412 0.67252 0.87927
 H348 H 0.84370 0.68898 0.95456
 H349 H 0.83279 0.76547 0.87744
 C350 C 0.27839 0.56334 0.12773
 C351 C 0.32858 0.55685 0.15266
 C352 C 0.32858 0.59385 0.19405
 C353 C 0.27843 0.62046 0.19174
 O354 O 0.24765 0.60230 0.15124
 H355 H 0.36172 0.52908 0.14129
 H356 H 0.36208 0.60231 0.22139
 C357 C 0.35185 0.08732 0.77589
 C358 C 0.30509 0.05676 0.76689
 C359 C 0.26308 0.09358 0.76976
 C360 C 0.28744 0.14461 0.77725
 O361 O 0.34163 0.14075 0.78227
 H362 H 0.30232 0.01311 0.75752
 H363 H 0.22047 0.08549 0.76007
 C364 C 0.37753 0.88070 0.22598
 C365 C 0.33652 0.89381 0.18986
 C366 C 0.29825 0.85326 0.19615
 C367 C 0.31926 0.81794 0.23490
 O368 O 0.36710 0.83481 0.25393
 H369 H 0.33419 0.92961 0.16329
 H370 H 0.25987 0.84936 0.17465
 C371 C 0.58305 0.12143 0.27650
 C372 C 0.56658 0.15932 0.31499
 C373 C 0.60101 0.20325 0.30804
 C374 C 0.63683 0.18839 0.26666
 O375 O 0.62541 0.13903 0.24661
 H376 H 0.53275 0.15573 0.34386
 H377 H 0.60100 0.24113 0.33122
 C378 C 0.63264 0.93672 0.75272
 C379 C 0.68059 0.96693 0.75388
 C380 C 0.72175 0.92889 0.75036
 C381 C 0.69571 0.87814 0.74750
 O382 O 0.64132 0.88279 0.74915
 H383 H 0.68482 1.01131 0.75792
 H384 H 0.76551 0.93684 0.75266
 C385 C 0.78268 0.91107 0.60911
 C386 C 0.83609 0.91221 0.62763
 C387 C 0.83687 0.87686 0.67043
 C388 C 0.78497 0.85374 0.67305
 O389 O 0.75107 0.87608 0.63702
 H390 H 0.86969 0.93827 0.61358
 H391 H 0.87106 0.86991 0.69733
 C392 C 0.20603 0.34025 0.08146
 C393 C 0.15415 0.31734 0.08399
 C394 C 0.15943 0.27183 0.11642
 C395 C 0.21381 0.27106 0.13257
 O396 O 0.24245 0.31199 0.11018
 H397 H 0.11663 0.33323 0.06633
 H398 H 0.12607 0.24669 0.13251
 C399 C 0.28700 0.09928 0.60820
 C400 C 0.33624 0.12531 0.61921
 C401 C 0.32344 0.16539 0.65523
 C402 C 0.26750 0.16072 0.66425
 O403 O 0.24479 0.12062 0.63565
 H404 H 0.37673 0.11646 0.60246
 H405 H 0.35156 0.19430 0.67362
 C406 C 0.28825 0.85791 0.40238
 C407 C 0.32891 0.82040 0.41537
 C408 C 0.32429 0.77897 0.37903
 C409 C 0.28149 0.79427 0.34605
 O410 O 0.25874 0.84227 0.36009
 H411 H 0.35824 0.82297 0.44804
 H412 H 0.34915 0.74184 0.37653
 C413 C 0.70984 0.14387 0.40566
 C414 C 0.69119 0.19219 0.42902
 C415 C 0.69886 0.23220 0.39020
 C416 C 0.72112 0.20512 0.34591
 O417 O 0.72832 0.15157 0.35532
 H418 H 0.67574 0.19781 0.47007
 H419 H 0.68786 0.27552 0.39300
 C420 C 0.62318 0.80903 0.90640
 C421 C 0.64441 0.86203 0.90510
 C422 C 0.68420 0.86126 0.86621
 C423 C 0.68243 0.80879 0.84454
 O424 O 0.64663 0.77619 0.87017
 H425 H 0.63382 0.89649 0.93115
 H426 H 0.71161 0.89490 0.85544
 C427 C 0.11258 0.28898 0.38499
 C428 C 0.14811 0.33343 0.38682
 C429 C 0.18971 0.32103 0.35138
 C430 C 0.17630 0.27005 0.33039
 O431 O 0.12969 0.25021 0.35101
 H432 H 0.14406 0.37042 0.41111
 H433 H 0.22453 0.34688 0.34036
 C434 C 0.57740 0.26715 0.11202
 C435 C 0.57031 0.31187 0.14635
 C436 C 0.60964 0.30716 0.18434
 C437 C 0.63884 0.26044 0.17085
 O438 O 0.61964 0.23535 0.12676
 H439 H 0.53988 0.34459 0.14385
 H440 H 0.61776 0.33562 0.21708
 C441 C 0.36954 0.26350 0.87280
 C442 C 0.37210 0.31114 0.84179
 C443 C 0.32839 0.30897 0.80841
 C444 C 0.30111 0.26070 0.82199
 O445 O 0.32650 0.23207 0.86080
 H446 H 0.40209 0.34416 0.84415
 H447 H 0.31745 0.33901 0.77749
 C448 C 0.39019 0.74094 0.10779
 C449 C 0.34421 0.76218 0.08283
 C450 C 0.30146 0.75102 0.11695
 C451 C 0.32497 0.72633 0.16149
 O452 O 0.37914 0.72023 0.15651
 H453 H 0.34257 0.78527 0.04503
 H454 H 0.25900 0.76369 0.11225
 C455 C 0.86852 0.60379 0.76652
 C456 C 0.82231 0.58103 0.79067
 C457 C 0.78299 0.62073 0.78651
 C458 C 0.80904 0.66662 0.76434
 O459 O 0.86052 0.65525 0.74955
 H460 H 0.81692 0.53921 0.80600
 H461 H 0.74017 0.61659 0.79837
 C462 C 0.35816 0.06614 0.26144
 C463 C 0.31308 0.03767 0.28157
 C464 C 0.26929 0.07059 0.27063
 C465 C 0.29135 0.11838 0.24860
 O466 O 0.34526 0.11492 0.24055
 H467 H 0.31209 -0.00335 0.29962
 H468 H 0.22645 0.06196 0.27992
 C469 C 0.13040 0.56820 0.29621
 C470 C 0.16843 0.54731 0.33227
 C471 C 0.21450 0.57858 0.32428
 C472 C 0.20055 0.61717 0.28527
 O473 O 0.14985 0.61054 0.26750
 H474 H 0.16385 0.51220 0.35955
 H475 H 0.25305 0.57501 0.34560
 C476 C 0.89331 0.37788 0.21185
 C477 C 0.90277 0.34787 0.16538
 C478 C 0.86250 0.30877 0.16526
 C479 C 0.83026 0.31901 0.21078
 O480 O 0.84977 0.36039 0.23974
 H481 H 0.93654 0.35236 0.13656
 H482 H 0.85795 0.27599 0.13600
 C483 C 0.10502 0.39901 0.69740
 C484 C 0.13674 0.40098 0.65066
 C485 C 0.17187 0.35719 0.65469
 C486 C 0.15836 0.33091 0.70319
 O487 O 0.11801 0.35675 0.72929
 H488 H 0.13528 0.43145 0.61824
 H489 H 0.20403 0.34603 0.62595
 C490 C 0.90183 0.78313 0.39972
 C491 C 0.89529 0.83411 0.37494
 C492 C 0.85047 0.82921 0.34311
 C493 C 0.83167 0.77596 0.35120
 O494 O 0.86349 0.74733 0.38505
 H495 H 0.92076 0.87054 0.37915
 H496 H 0.83440 0.86025 0.31557
 C497 C 0.85693 0.26672 0.58031
 C498 C 0.80929 0.25662 0.55245
 C499 C 0.76806 0.26437 0.58911
 C500 C 0.79347 0.27751 0.63731
 O501 O 0.84788 0.28015 0.63192
 H502 H 0.80526 0.24580 0.51004
 H503 H 0.72445 0.25862 0.58238
 C504 C 0.11286 0.77200 0.63756
 C505 C 0.10794 0.82013 0.66717
 C506 C 0.14792 0.81775 0.70486
 C507 C 0.17473 0.76850 0.69565
 O508 O 0.15345 0.73985 0.65496
 H509 H 0.07932 0.85390 0.66072
 H510 H 0.15727 0.84858 0.73509
 C511 C 0.80245 0.61005 0.12431
 C512 C 0.85500 0.63044 0.13062
 C513 C 0.85109 0.66777 0.17157
 C514 C 0.79682 0.66631 0.18873
 O515 O 0.76666 0.63237 0.15901
 H516 H 0.89143 0.62078 0.10671
 H517 H 0.88379 0.69357 0.18685
 C518 C 0.27320 0.57791 0.88283
 C519 C 0.32076 0.57180 0.85218
 C520 C 0.31906 0.61270 0.81428
 C521 C 0.27059 0.64069 0.82444
 O522 O 0.24230 0.61957 0.86601
 H523 H 0.35360 0.54204 0.85794
 H524 H 0.35105 0.62345 0.78505
 C525 C 0.73815 0.40843 0.88584
 C526 C 0.72725 0.35873 0.91089
 C527 C 0.72687 0.32108 0.87082
 C528 C 0.73467 0.35058 0.82302
 O529 O 0.74309 0.40428 0.83195
 H530 H 0.72003 0.35112 0.95366
 H531 H 0.71816 0.27734 0.87543
 C532 C 0.59464 0.86307 0.24177
 C533 C 0.56786 0.81412 0.23171
 C534 C 0.60634 0.77404 0.23886
 C535 C 0.65412 0.80165 0.25158
 O536 O 0.64687 0.85592 0.25489
 H537 H 0.52470 0.80836 0.22269
 H538 H 0.60037 0.72980 0.23567
 C539 C 0.57089 0.14800 0.71864
 C540 C 0.56722 0.17196 0.66785
 C541 C 0.60517 0.21326 0.66763
 C542 C 0.62899 0.21108 0.71823
 O543 O 0.60833 0.17155 0.74944
 H544 H 0.54129 0.15961 0.63459
 H545 H 0.61630 0.24010 0.63384
 C546 C 0.39348 0.89374 0.80540
 C547 C 0.36262 0.89800 0.85253
 C548 C 0.32193 0.85993 0.84757
 C549 C 0.33157 0.83475 0.79811
 O550 O 0.37461 0.85572 0.77206
 H551 H 0.36788 0.92694 0.88545
 H552 H 0.28961 0.85063 0.87691
   
