data_POSCAR
  _audit_creation_date              2014-09-24
  _audit_creation_method            'ToBaCCo'
  _symmetry_space_group_name_H-M    'P1'
  _symmetry_Int_Tables_number       1
  _symmetry_cell_setting            triclinic
  loop_
  _symmetry_equiv_pos_as_xyz
 x,y,z
_cell_length_a 31.3551
_cell_length_b 31.4274
_cell_length_c 36.4141
_cell_angle_alpha 89.263100
_cell_angle_beta 90.024200
_cell_angle_gamma 90.054100
loop_
  _atom_site_label
  _atom_site_type_symbol
  _atom_site_fract_x
  _atom_site_fract_y
  _atom_site_fract_z
C1 C 1.24124 0.25048 0.25068
 C2 C 0.74174 -0.24954 0.24951
 C3 C 0.74894 0.24973 -0.24926
 C4 C 1.25166 -0.25017 -0.25028
 C5 C 0.24146 0.25035 0.74913
 C6 C 0.74745 0.75051 0.75070
 C7 C 0.76691 0.24906 0.24928
 C8 C 0.26219 0.74943 0.25040
 O9 O 1.06260 0.03897 0.04462
 O10 O 0.91615 -0.04338 0.01999
 O11 O 0.98271 0.06039 0.04740
 O12 O 1.04689 -0.09018 0.02691
 O13 O 0.92297 0.03197 0.03403
 O14 O 1.07040 -0.03286 0.05012
 O15 O 0.96894 -0.08197 0.04137
 O16 O 1.04418 0.09036 0.01154
 C17 C 1.06522 0.07748 0.03811
 C18 C 0.93109 -0.06990 0.04308
 C19 C 0.94537 0.05247 0.05596
 C20 C 1.06788 -0.07185 0.05074
 O21 O 1.08560 -0.04218 -0.02364
 O22 O 0.93926 0.04952 -0.03852
 O23 O 1.01586 0.06025 -0.04825
 O24 O 0.95277 -0.08407 -0.02857
 O25 O 0.93647 -0.02365 -0.05184
 O26 O 1.07764 0.03600 -0.03067
 O27 O 1.03179 -0.08223 -0.04184
 O28 O 0.96583 0.10429 -0.01073
 Co29 Co 1.06846 -0.00021 0.00914
 Co30 Co 0.93501 0.00273 -0.00801
 Co31 Co 0.99779 0.05762 -0.00053
 Co32 Co 1.00009 -0.07702 -0.00031
 O33 O 1.00244 -0.00686 0.00118
 C34 C 1.06967 -0.06972 -0.04504
 C35 C 0.93659 0.08891 -0.03196
 C36 C 1.05478 0.05498 -0.05431
 C37 C 0.93723 -0.06274 -0.05414
 O38 O 1.08319 0.54255 0.52346
 O39 O 0.93669 0.45077 0.53860
 O40 O 0.95051 0.58443 0.52886
 O41 O 1.01348 0.44009 0.54838
 O42 O 0.93376 0.52395 0.55189
 O43 O 1.07516 0.46449 0.53058
 O44 O 0.96325 0.39597 0.51093
 O45 O 1.02955 0.58231 0.54215
 C46 C 1.06743 0.56985 0.54513
 C47 C 0.93395 0.41137 0.53205
 C48 C 0.93450 0.56304 0.55420
 C49 C 1.05242 0.44552 0.55433
 O50 O 1.05968 0.46138 0.45534
 O51 O 0.91371 0.54371 0.48005
 O52 O 1.04464 0.59050 0.47340
 O53 O 0.98004 0.43979 0.45275
 O54 O 0.92038 0.46831 0.46602
 O55 O 1.06733 0.53320 0.44972
 O56 O 1.04163 0.40996 0.48856
 O57 O 0.96659 0.58257 0.45897
 Co58 Co 1.06578 0.50060 0.49075
 Co59 Co 0.93244 0.49755 0.50808
 Co60 Co 0.99781 0.57735 0.50061
 Co61 Co 0.99526 0.44264 0.50068
 O62 O 0.99989 0.50716 0.49894
 C63 C 1.06259 0.42291 0.46195
 C64 C 0.92871 0.57047 0.45716
 C65 C 1.06509 0.57220 0.44923
 C66 C 0.94272 0.44774 0.44414
 O67 O 0.58135 0.05380 0.52364
 O68 O 0.41954 -0.03850 0.52956
 O69 O 0.45150 0.09101 0.51930
 O70 O 0.54938 -0.07558 0.52386
 O71 O 0.42855 0.03407 0.54373
 O72 O 0.57299 -0.01732 0.54382
 O73 O 0.47894 -0.06456 0.54776
 O74 O 0.52300 0.08084 0.54227
 C75 C 0.56122 0.07355 0.54754
 C76 C 0.44068 -0.05832 0.55339
 C77 C 0.43209 0.07298 0.54491
 C78 C 0.56874 -0.05594 0.54803
 O79 O 0.57868 -0.04342 0.47196
 O80 O 0.42087 0.05505 0.47020
 O81 O 0.55212 0.08729 0.47226
 O82 O 0.44749 -0.07502 0.47970
 O83 O 0.42590 -0.01759 0.45562
 O84 O 0.57228 0.02786 0.45210
 O85 O 0.51854 -0.06825 0.45493
 O86 O 0.48046 0.07871 0.45023
 Co87 Co 0.56912 0.00538 0.49799
 Co88 Co 0.43089 0.00809 0.49969
 Co89 Co 0.50161 0.07659 0.49634
 Co90 Co 0.49875 -0.06304 0.50126
 O91 O 0.50008 0.00675 0.49884
 C92 C 0.55703 -0.06343 0.44915
 C93 C 0.44206 0.07254 0.44516
 C94 C 0.57029 0.06666 0.44793
 C95 C 0.42947 -0.05641 0.45381
 O96 O 0.57741 0.54355 0.02831
 O97 O 0.42033 0.44424 0.03001
 O98 O 0.44602 0.57446 0.02071
 O99 O 0.55173 0.41264 0.02704
 O100 O 0.42501 0.51679 0.04473
 O101 O 0.57161 0.47203 0.04755
 O102 O 0.48016 0.42077 0.04961
 O103 O 0.51718 0.56803 0.04545
 C104 C 0.55571 0.56341 0.05116
 C105 C 0.44179 0.42686 0.05494
 C106 C 0.42833 0.55563 0.04665
 C107 C 0.57017 0.43316 0.05134
 O108 O 0.58027 0.44695 -0.02431
 O109 O 0.41822 0.53793 -0.02923
 O110 O 0.54788 0.57607 -0.02337
 O111 O 0.45064 0.40863 -0.01933
 O112 O 0.42749 0.46554 -0.04356
 O113 O 0.57158 0.51818 -0.04383
 O114 O 0.52193 0.41943 -0.04269
 O115 O 0.47745 0.56459 -0.04736
 Co116 Co 0.56804 0.49499 0.00184
 Co117 Co 0.42990 0.49134 0.00056
 Co118 Co 0.49733 0.56296 -0.00088
 Co119 Co 0.50090 0.42327 0.00338
 O120 O 0.49903 0.49314 0.00121
 C121 C 0.56004 0.42715 -0.04816
 C122 C 0.43924 0.55799 -0.05302
 C123 C 0.56723 0.55681 -0.04773
 C124 C 0.43113 0.42665 -0.04487
 C125 C 1.16096 0.22960 0.17338
 C126 C 1.15958 0.18529 0.17227
 C127 C 1.18064 0.16120 0.19931
 C128 C 1.20527 0.18135 0.22606
 C129 C 1.21045 0.22600 0.22526
 C130 C 1.18548 0.24975 0.19994
 C131 C 1.13813 0.16473 0.14241
 C132 C 1.12104 0.14736 0.11703
 C133 C 1.10160 0.12579 0.08771
 C134 C 1.08508 0.10528 0.06388
 H135 H 1.14410 0.24863 0.15305
 H136 H 1.17868 0.12678 0.19932
 H137 H 1.22040 0.16169 0.24680
 H138 H 1.18696 0.28419 0.19952
 C139 C 1.19255 0.65310 0.70741
 C140 C 1.17164 0.67271 0.67781
 C141 C 1.17224 0.71707 0.67439
 C142 C 1.19598 0.74142 0.69892
 C143 C 1.22119 0.72186 0.72656
 C144 C 1.21635 0.67744 0.73202
 C145 C 1.15062 0.64755 0.65028
 C146 C 1.13327 0.62744 0.62649
 C147 C 1.11232 0.60529 0.59808
 C148 C 1.09302 0.58799 0.57374
 H149 H 1.19106 0.61888 0.71116
 H150 H 1.15527 0.73282 0.65215
 H151 H 1.19676 0.77563 0.69502
 H152 H 1.23117 0.66097 0.75488
 C153 C 0.65455 0.20529 0.69461
 C154 C 0.67263 0.16920 0.67913
 C155 C 0.71482 0.15827 0.68736
 C156 C 0.73880 0.18344 0.71117
 C157 C 0.72069 0.21946 0.72798
 C158 C 0.67836 0.23049 0.71823
 C159 C 0.64849 0.14558 0.65272
 C160 C 0.62773 0.12750 0.62988
 C161 C 0.60348 0.10788 0.60225
 C162 C 0.58347 0.09197 0.57777
 H163 H 0.62232 0.21476 0.68754
 H164 H 0.72950 0.13092 0.67473
 H165 H 0.77184 0.17519 0.71606
 H166 H 0.66369 0.25946 0.72771
 C167 C 0.70774 0.66644 0.17919
 C168 C 0.66426 0.67473 0.17487
 C169 C 0.64550 0.70835 0.19362
 C170 C 0.66984 0.73298 0.21743
 C171 C 0.71335 0.72355 0.22391
 C172 C 0.73217 0.69101 0.20297
 C173 C 0.63920 0.64969 0.15017
 C174 C 0.61857 0.62902 0.12896
 C175 C 0.59525 0.60535 0.10323
 C176 C 0.57640 0.58575 0.08015
 H177 H 0.72284 0.64112 0.16404
 H178 H 0.61211 0.71589 0.18952
 H179 H 0.65438 0.75978 0.23007
 H180 H 0.76592 0.68428 0.20550
 C181 C 0.77161 -0.16724 0.17446
 C182 C 0.81500 -0.17489 0.16909
 C183 C 0.83528 -0.20715 0.18933
 C184 C 0.81248 -0.23120 0.21531
 C185 C 0.76900 -0.22264 0.22236
 C186 C 0.74877 -0.19119 0.20035
 C187 C 0.83842 -0.15041 0.14212
 C188 C 0.85827 -0.13030 0.11944
 C189 C 0.88224 -0.10763 0.09279
 C190 C 0.90376 -0.08948 0.07004
 H191 H 0.75530 -0.14294 0.15844
 H192 H 0.86866 -0.21411 0.18469
 H193 H 0.82901 -0.25699 0.22908
 H194 H 0.71501 -0.18498 0.20346
 C195 C 0.77863 0.32086 0.66751
 C196 C 0.82067 0.30862 0.66051
 C197 C 0.84024 0.27824 0.68320
 C198 C 0.81803 0.26020 0.71279
 C199 C 0.77590 0.27306 0.72112
 C200 C 0.75631 0.30287 0.69711
 C201 C 0.84388 0.32732 0.63020
 C202 C 0.86383 0.34374 0.60548
 C203 C 0.88778 0.36460 0.57775
 C204 C 0.90869 0.38450 0.55567
 H205 H 0.76290 0.34399 0.64984
 H206 H 0.87256 0.26797 0.67768
 H207 H 0.83374 0.23523 0.72835
 H208 H 0.72334 0.31190 0.70105
 C209 C 0.31514 -0.20751 0.66539
 C210 C 0.33702 -0.17320 0.68045
 C211 C 0.33428 -0.16581 0.71815
 C212 C 0.30798 -0.19143 0.74029
 C213 C 0.28233 -0.22372 0.72490
 C214 C 0.28882 -0.23299 0.68737
 C215 C 0.36147 -0.14557 0.65661
 C216 C 0.38068 -0.12339 0.63499
 C217 C 0.40210 -0.09882 0.60798
 C218 C 0.41985 -0.07935 0.58366
 H219 H 0.31818 -0.21448 0.63644
 H220 H 0.35200 -0.13999 0.73036
 H221 H 0.30640 -0.18507 0.76942
 H222 H 0.27384 -0.25996 0.67453
 C223 C 0.30827 0.29456 0.16951
 C224 C 0.33036 0.32795 0.18565
 C225 C 0.32522 0.33573 0.22313
 C226 C 0.29685 0.31081 0.24404
 C227 C 0.27174 0.27891 0.22746
 C228 C 0.28006 0.26989 0.19013
 C229 C 0.35795 0.35345 0.16276
 C230 C 0.37943 0.37277 0.14076
 C231 C 0.40270 0.39321 0.11248
 C232 C 0.42119 0.40918 0.08679
 H233 H 0.31300 0.28737 0.14076
 H234 H 0.34309 0.36089 0.23618
 H235 H 0.29412 0.31674 0.27316
 H236 H 0.26538 0.24330 0.17647
 C237 C 0.83250 0.23201 -0.17319
 C238 C 0.82316 0.19089 -0.16064
 C239 C 0.79055 0.16771 -0.17735
 C240 C 0.76731 0.18552 -0.20652
 C241 C 0.77696 0.22671 -0.22023
 C242 C 0.80936 0.24990 -0.20228
 C243 C 0.84687 0.17251 -0.13050
 C244 C 0.86695 0.15630 -0.10578
 C245 C 0.89082 0.13562 -0.07793
 C246 C 0.91156 0.11578 -0.05572
 H247 H 0.85734 0.25050 -0.16019
 H248 H 0.78257 0.13604 -0.16743
 H249 H 0.74095 0.16734 -0.21728
 H250 H 0.81641 0.28234 -0.21065
 C251 C 0.82400 0.71777 0.32344
 C252 C 0.81395 0.67500 0.33004
 C253 C 0.78076 0.65608 0.31054
 C254 C 0.75796 0.67957 0.28430
 C255 C 0.76868 0.72244 0.27607
 C256 C 0.80125 0.74138 0.29719
 C257 C 0.83697 0.65080 0.35743
 C258 C 0.85650 0.63082 0.38039
 C259 C 0.88016 0.60822 0.40727
 C260 C 0.90150 0.59009 0.43015
 H261 H 0.84912 0.73305 0.33890
 H262 H 0.77197 0.62327 0.31608
 H263 H 0.73114 0.66411 0.27145
 H264 H 0.80894 0.77474 0.29338
 C265 C 0.32504 0.16509 0.27788
 C266 C 0.33023 0.17264 0.31540
 C267 C 0.30829 0.20599 0.33168
 C268 C 0.28015 0.23084 0.31114
 C269 C 0.27176 0.22202 0.27378
 C270 C 0.29676 0.19018 0.25708
 C271 C 0.35771 0.14690 0.33816
 C272 C 0.37916 0.12732 0.35998
 C273 C 0.40251 0.10656 0.38803
 C274 C 0.42115 0.09036 0.41353
 H275 H 0.34279 0.13996 0.26473
 H276 H 0.31307 0.21301 0.36046
 H277 H 0.26556 0.25737 0.32491
 H278 H 0.29396 0.18438 0.22794
 C279 C 0.33350 0.66503 -0.21831
 C280 C 0.33617 0.67249 -0.18061
 C281 C 0.31451 0.70697 -0.16569
 C282 C 0.28848 0.73256 -0.18780
 C283 C 0.28204 0.72324 -0.22533
 C284 C 0.30748 0.69077 -0.24059
 C285 C 0.36034 0.64482 -0.15664
 C286 C 0.37936 0.62265 -0.13489
 C287 C 0.40062 0.59818 -0.10774
 C288 C 0.41832 0.57883 -0.08333
 H289 H 0.35106 0.63907 -0.23042
 H290 H 0.31753 0.71400 -0.13674
 H291 H 0.27369 0.75966 -0.17505
 H292 H 0.30595 0.68436 -0.26971
 C293 C 1.19334 -0.15315 -0.20792
 C294 C 1.17225 -0.17270 -0.17837
 C295 C 1.17237 -0.21706 -0.17509
 C296 C 1.19587 -0.24152 -0.19967
 C297 C 1.22130 -0.22205 -0.22721
 C298 C 1.21688 -0.17758 -0.23258
 C299 C 1.15160 -0.14748 -0.15072
 C300 C 1.13458 -0.12735 -0.12680
 C301 C 1.11400 -0.10520 -0.09823
 C302 C 1.09498 -0.08790 -0.07377
 H303 H 1.19221 -0.11890 -0.21157
 H304 H 1.15526 -0.23276 -0.15290
 H305 H 1.19633 -0.27575 -0.19584
 H306 H 1.23190 -0.16116 -0.25538
 C307 C 1.18059 0.33971 0.30195
 C308 C 1.15938 0.31559 0.32890
 C309 C 1.16091 0.27128 0.32788
 C310 C 1.18560 0.25118 0.30146
 C311 C 1.21058 0.27496 0.27616
 C312 C 1.20539 0.31959 0.27533
 C313 C 1.13747 0.33610 0.35850
 C314 C 1.11991 0.35339 0.38367
 C315 C 1.09989 0.37483 0.41275
 C316 C 1.08290 0.39523 0.43638
 H317 H 1.17854 0.37412 0.30187
 H318 H 1.14394 0.25222 0.34814
 H319 H 1.18709 0.21674 0.30191
 H320 H 1.22058 0.33928 0.25462
 C321 C 0.69953 -0.15411 0.30542
 C322 C 0.66631 -0.17328 0.32512
 C323 C 0.65856 -0.21678 0.32158
 C324 C 0.68315 -0.24082 0.29760
 C325 C 0.71517 -0.22161 0.27565
 C326 C 0.72420 -0.17808 0.28138
 C327 C 0.64105 -0.14863 0.34991
 C328 C 0.62024 -0.12829 0.37119
 C329 C 0.59673 -0.10498 0.39700
 C330 C 0.57776 -0.08562 0.42013
 H331 H 0.70667 -0.12066 0.30890
 H332 H 0.63358 -0.23219 0.33744
 H333 H 0.67667 -0.27456 0.29562
 H334 H 0.75060 -0.16230 0.26784
 C335 C 0.66528 0.28634 -0.17954
 C336 C 0.67244 0.33006 -0.17784
 C337 C 0.70475 0.34874 -0.19910
 C338 C 0.72946 0.32370 -0.22248
 C339 C 0.72148 0.27961 -0.22558
 C340 C 0.68981 0.26136 -0.20266
 C341 C 0.64768 0.35473 -0.15266
 C342 C 0.62659 0.37332 -0.13040
 C343 C 0.60217 0.39315 -0.10304
 C344 C 0.58216 0.40901 -0.07856
 H345 H 0.64099 0.27137 -0.16259
 H346 H 0.71132 0.38248 -0.19716
 H347 H 0.75529 0.33891 -0.23729
 H348 H 0.68394 0.22741 -0.20283
 C349 C 1.14481 0.20233 -0.19763
 C350 C 1.16358 0.16738 -0.17992
 C351 C 1.20728 0.16007 -0.18407
 C352 C 1.23182 0.18691 -0.20659
 C353 C 1.21301 0.22098 -0.22650
 C354 C 1.16924 0.22921 -0.22016
 C355 C 1.13838 0.14043 -0.15598
 C356 C 1.11750 0.11870 -0.13512
 C357 C 1.09383 0.09450 -0.10920
 C358 C 1.07492 0.07534 -0.08531
 H359 H 1.11130 0.20922 -0.19361
 H360 H 1.22251 0.13379 -0.16968
 H361 H 1.26568 0.18077 -0.20895
 H362 H 1.15356 0.25681 -0.23185
 C363 C 1.16898 0.71900 0.31271
 C364 C 1.18497 0.68279 0.33039
 C365 C 1.22668 0.66958 0.32359
 C366 C 1.25179 0.69153 0.29798
 C367 C 1.23510 0.72620 0.27716
 C368 C 1.19392 0.74102 0.28710
 C369 C 1.15853 0.65935 0.35565
 C370 C 1.13621 0.63960 0.37664
 C371 C 1.11041 0.61633 0.40131
 C372 C 1.08908 0.59627 0.42283
 H373 H 1.13715 0.73033 0.31876
 H374 H 1.23982 0.64224 0.33805
 H375 H 1.28424 0.68081 0.29391
 H376 H 1.18059 0.76972 0.27509
 C377 C 0.66863 0.18859 0.28932
 C378 C 0.68677 0.16809 0.31982
 C379 C 0.73068 0.17114 0.32584
 C380 C 0.75599 0.19613 0.30247
 C381 C 0.73776 0.22000 0.27327
 C382 C 0.69389 0.21364 0.26589
 C383 C 0.66029 0.14498 0.34557
 C384 C 0.63851 0.12641 0.36792
 C385 C 0.61369 0.10530 0.39497
 C386 C 0.59331 0.08760 0.41876
 H387 H 0.63483 0.18549 0.28377
 H388 H 0.74531 0.15473 0.34895
 H389 H 0.78989 0.19815 0.30794
 H390 H 0.67867 0.22772 0.24207
 C391 C 0.71607 0.66667 -0.17637
 C392 C 0.67243 0.67369 -0.17215
 C393 C 0.65260 0.70680 -0.19159
 C394 C 0.67611 0.73206 -0.21612
 C395 C 0.71978 0.72371 -0.22253
 C396 C 0.73962 0.69181 -0.20080
 C397 C 0.64839 0.64751 -0.14707
 C398 C 0.62891 0.62556 -0.12559
 C399 C 0.60683 0.60037 -0.09964
 C400 C 0.58849 0.57974 -0.07652
 H401 H 0.73196 0.64175 -0.16075
 H402 H 0.61901 0.71333 -0.18757
 H403 H 0.65988 0.75835 -0.22943
 H404 H 0.77348 0.68583 -0.20338
 C405 C 0.78214 -0.16644 -0.17858
 C406 C 0.82587 -0.17391 -0.17550
 C407 C 0.84457 -0.20728 -0.19464
 C408 C 0.81989 -0.23222 -0.21793
 C409 C 0.77613 -0.22328 -0.22346
 C410 C 0.75739 -0.19131 -0.20181
 C411 C 0.85128 -0.14819 -0.15170
 C412 C 0.87216 -0.12697 -0.13116
 C413 C 0.89589 -0.10301 -0.10601
 C414 C 0.91535 -0.08373 -0.08316
 H415 H 0.76714 -0.14137 -0.16305
 H416 H 0.87821 -0.21423 -0.19137
 H417 H 0.83535 -0.25871 -0.23102
 H418 H 0.72350 -0.18499 -0.20363
 C419 C 0.85015 0.33358 0.27798
 C420 C 0.83992 0.34005 0.31489
 C421 C 0.80505 0.31871 0.33032
 C422 C 0.78142 0.28999 0.30961
 C423 C 0.79295 0.28058 0.27302
 C424 C 0.82638 0.30483 0.25707
 C425 C 0.86510 0.36770 0.33772
 C426 C 0.88499 0.38925 0.35899
 C427 C 0.90684 0.41240 0.38632
 C428 C 0.92410 0.42998 0.41163
 H429 H 0.87655 0.35056 0.26540
 H430 H 0.79603 0.32428 0.35858
 H431 H 0.75379 0.27578 0.32255
 H432 H 0.83461 0.30079 0.22845
 C433 C 0.35091 -0.20951 0.31246
 C434 C 0.33270 -0.17205 0.32540
 C435 C 0.29187 -0.16033 0.31400
 C436 C 0.26949 -0.18553 0.28932
 C437 C 0.28795 -0.22261 0.27407
 C438 C 0.32864 -0.23490 0.28769
 C439 C 0.35486 -0.14656 0.35180
 C440 C 0.37265 -0.12519 0.37436
 C441 C 0.39279 -0.10046 0.40136
 C442 C 0.40963 -0.07989 0.42498
 H443 H 0.38206 -0.21959 0.32208
 H444 H 0.27694 -0.13197 0.32468
 H445 H 0.23734 -0.17598 0.28222
 H446 H 0.34321 -0.26463 0.27991
 C447 C 0.33766 0.28679 -0.19135
 C448 C 0.31859 0.31733 -0.16916
 C449 C 0.27486 0.32514 -0.17247
 C450 C 0.25060 0.30338 -0.19848
 C451 C 0.26971 0.27423 -0.22275
 C452 C 0.31350 0.26499 -0.21740
 C453 C 0.34378 0.34033 -0.14275
 C454 C 0.36470 0.35978 -0.12068
 C455 C 0.38876 0.38282 -0.09468
 C456 C 0.40862 0.40270 -0.07219
 H457 H 0.37127 0.27955 -0.18836
 H458 H 0.25943 0.34805 -0.15493
 H459 H 0.21672 0.30979 -0.20013
 H460 H 0.32940 0.24046 -0.23272
 C461 C 1.22551 -0.16453 0.18259
 C462 C 1.18817 -0.18270 0.16899
 C463 C 1.17651 -0.22375 0.17998
 C464 C 1.20101 -0.24586 0.20583
 C465 C 1.23689 -0.22667 0.22279
 C466 C 1.25015 -0.18654 0.20848
 C467 C 1.16170 -0.15922 0.14380
 C468 C 1.13934 -0.13940 0.12292
 C469 C 1.11345 -0.11605 0.09840
 C470 C 1.09202 -0.09593 0.07701
 H471 H 1.23559 -0.13324 0.17321
 H472 H 1.14828 -0.23863 0.16872
 H473 H 1.19115 -0.27782 0.21333
 H474 H 1.27950 -0.17174 0.21738
 C475 C 1.19659 0.35160 0.69992
 C476 C 1.16393 0.33413 0.67871
 C477 C 1.15768 0.29010 0.67907
 C478 C 1.18303 0.26382 0.70129
 C479 C 1.21449 0.28098 0.72470
 C480 C 1.22203 0.32535 0.72224
 C481 C 1.13793 0.36096 0.65531
 C482 C 1.11644 0.38249 0.63477
 C483 C 1.09214 0.40640 0.60909
 C484 C 1.07282 0.42533 0.58531
 H485 H 1.20271 0.38553 0.69893
 H486 H 1.13324 0.27599 0.66205
 H487 H 1.17754 0.22980 0.70082
 H488 H 1.24789 0.34015 0.73696
 C489 C 0.70769 -0.15278 0.69315
 C490 C 0.67381 -0.17077 0.67394
 C491 C 0.66430 -0.21392 0.67867
 C492 C 0.68804 -0.23880 0.70328
 C493 C 0.72088 -0.22070 0.72463
 C494 C 0.73145 -0.17753 0.71774
 C495 C 0.64997 -0.14513 0.64832
 C496 C 0.63057 -0.12357 0.62651
 C497 C 0.60851 -0.09877 0.60028
 C498 C 0.59011 -0.07847 0.57699
 H499 H 0.71619 -0.11968 0.68873
 H500 H 0.63877 -0.22844 0.66314
 H501 H 0.68054 -0.27234 0.70599
 H502 H 0.75862 -0.16264 0.73055
 C503 C 0.72585 0.30785 0.16161
 C504 C 0.69140 0.33072 0.17555
 C505 C 0.68337 0.32982 0.21332
 C506 C 0.70850 0.30462 0.23674
 C507 C 0.74116 0.27837 0.22275
 C508 C 0.75094 0.28261 0.18493
 C509 C 0.66403 0.35430 0.15080
 C510 C 0.64141 0.37310 0.12923
 C511 C 0.61550 0.39434 0.10301
 C512 C 0.59420 0.41212 0.07986
 H513 H 0.73321 0.30930 0.13255
 H514 H 0.65737 0.34815 0.22463
 H515 H 0.70146 0.30438 0.26585
 H516 H 0.77793 0.26658 0.17295
 C517 C 0.79956 0.16144 0.18173
 C518 C 0.84351 0.15798 0.18725
 C519 C 0.86306 0.18204 0.21462
 C520 C 0.83904 0.21065 0.23537
 C521 C 0.79511 0.21694 0.22820
 C522 C 0.77558 0.18997 0.20231
 C523 C 0.86843 0.13147 0.16331
 C524 C 0.88808 0.11048 0.14150
 C525 C 0.90969 0.08767 0.11388
 C526 C 0.92681 0.07020 0.08848
 H527 H 0.78385 0.14261 0.16099
 H528 H 0.89696 0.17898 0.21972
 H529 H 0.85524 0.22747 0.25697
 H530 H 0.74162 0.19207 0.19719
 C531 C 0.78809 0.65453 0.69480
 C532 C 0.82177 0.67310 0.67533
 C533 C 0.83001 0.71656 0.67856
 C534 C 0.80558 0.74110 0.70228
 C535 C 0.77338 0.72236 0.72432
 C536 C 0.76362 0.67897 0.71855
 C537 C 0.84717 0.64775 0.65128
 C538 C 0.86823 0.62681 0.63069
 C539 C 0.89231 0.60311 0.60564
 C540 C 0.91215 0.58397 0.58297
 H541 H 0.78054 0.62115 0.69145
 H542 H 0.85534 0.73149 0.66278
 H543 H 0.81246 0.77477 0.70417
 H544 H 0.73688 0.66360 0.73192
 C545 C 0.28480 0.16066 0.68658
 C546 C 0.31777 0.18178 0.66802
 C547 C 0.32497 0.22493 0.67455
 C548 C 0.30014 0.24648 0.70026
 C549 C 0.26837 0.22508 0.72100
 C550 C 0.25993 0.18211 0.71230
 C551 C 0.34367 0.15922 0.64190
 C552 C 0.36501 0.13991 0.62008
 C553 C 0.38941 0.11689 0.59436
 C554 C 0.40946 0.09697 0.57207
 H555 H 0.27804 0.12755 0.68097
 H556 H 0.34978 0.24198 0.65978
 H557 H 0.30621 0.27998 0.70453
 H558 H 0.23376 0.16480 0.72471
 C559 C 0.29645 0.65427 0.19365
 C560 C 0.33304 0.67008 0.17650
 C561 C 0.34690 0.71135 0.18378
 C562 C 0.32444 0.73665 0.20841
 C563 C 0.28819 0.72082 0.22757
 C564 C 0.27388 0.67939 0.21825
 C565 C 0.35480 0.64471 0.14980
 C566 C 0.37228 0.62354 0.12696
 C567 C 0.39211 0.59911 0.09963
 C568 C 0.40871 0.57881 0.07574
 H569 H 0.28467 0.62278 0.18731
 H570 H 0.37458 0.72436 0.16980
 H571 H 0.33522 0.76904 0.21214
 H572 H 0.24448 0.66641 0.22916
   
