data_POSCAR
  _audit_creation_date              2014-09-24
  _audit_creation_method            'ToBaCCo'
  _symmetry_space_group_name_H-M    'P1'
  _symmetry_Int_Tables_number       1
  _symmetry_cell_setting            triclinic
  loop_
  _symmetry_equiv_pos_as_xyz
 x,y,z
_cell_length_a 23.2886
_cell_length_b 23.9716
_cell_length_c 27.3497
_cell_angle_alpha 89.948800
_cell_angle_beta 90.541800
_cell_angle_gamma 90.119400
loop_
  _atom_site_label
  _atom_site_type_symbol
  _atom_site_fract_x
  _atom_site_fract_y
  _atom_site_fract_z
B1 B 0.27556 0.22447 0.29748
 B2 B 0.20826 0.20754 0.28310
 B3 B 0.22269 0.27417 0.29443
 B4 B 0.28946 0.28818 0.27367
 B5 B 0.31452 0.22859 0.24663
 B6 B 0.26319 0.17844 0.25256
 B7 B 0.21797 0.26119 0.19592
 B8 B 0.28600 0.28010 0.21264
 B9 B 0.27009 0.21245 0.19939
 B10 B 0.20358 0.19809 0.22140
 B11 B 0.17880 0.25757 0.24758
 B12 B 0.22930 0.30839 0.24137
 B13 B 0.71161 0.77658 0.29930
 B14 B 0.78316 0.78802 0.29557
 B15 B 0.75887 0.72370 0.30933
 B16 B 0.69762 0.71213 0.27740
 B17 B 0.68459 0.76988 0.24254
 B18 B 0.73814 0.81729 0.25484
 B19 B 0.78679 0.72629 0.21323
 B20 B 0.71577 0.71353 0.21783
 B21 B 0.73901 0.77900 0.20331
 B22 B 0.80108 0.79034 0.23568
 B23 B 0.81359 0.73237 0.27017
 B24 B 0.76093 0.68520 0.25803
 B25 B 0.73444 0.23398 -0.30794
 B26 B 0.80329 0.22610 -0.29130
 B27 B 0.77898 0.29072 -0.30201
 B28 B 0.71010 0.29425 -0.28256
 B29 B 0.69307 0.23088 -0.25768
 B30 B 0.75144 0.18869 -0.26334
 B31 B 0.78239 0.27488 -0.20399
 B32 B 0.71279 0.28421 -0.22138
 B33 B 0.73789 0.21961 -0.20954
 B34 B 0.80612 0.21507 -0.22966
 B35 B 0.82318 0.27778 -0.25360
 B36 B 0.76546 0.32104 -0.24865
 B37 B 0.28252 0.77527 -0.29476
 B38 B 0.21327 0.78088 -0.27842
 B39 B 0.23979 0.71800 -0.29543
 B40 B 0.30793 0.71305 -0.27386
 B41 B 0.32313 0.77311 -0.24382
 B42 B 0.26481 0.81541 -0.24652
 B43 B 0.23344 0.72148 -0.19683
 B44 B 0.30283 0.71595 -0.21195
 B45 B 0.27822 0.77879 -0.19591
 B46 B 0.20937 0.78383 -0.21688
 B47 B 0.19395 0.72365 -0.24812
 B48 B 0.25345 0.68192 -0.24440
 B49 B 1.21553 1.27389 0.80532
 B50 B 1.28184 1.29251 0.79075
 B51 B 1.27097 1.22683 0.80760
 B52 B 1.20535 1.20668 0.78625
 B53 B 1.17829 1.26142 0.75405
 B54 B 1.22630 1.31507 0.75634
 B55 B 1.27815 1.22894 0.70910
 B56 B 1.21099 1.20874 0.72427
 B57 B 1.22266 1.27511 0.70670
 B58 B 1.28775 1.29539 0.72874
 B59 B 1.31433 1.24116 0.76095
 B60 B 1.26688 1.18670 0.75787
 B61 B 0.77516 0.72305 0.79975
 B62 B 0.70750 0.71097 0.78198
 B63 B 0.72633 0.77572 0.79670
 B64 B 0.79484 0.78667 0.77888
 B65 B 0.81666 0.72723 0.75086
 B66 B 0.76220 0.67969 0.75242
 B67 B 0.72576 0.76972 0.69837
 B68 B 0.79304 0.78140 0.71720
 B69 B 0.77444 0.71637 0.70152
 B70 B 0.70554 0.70549 0.71944
 B71 B 0.68360 0.76499 0.74738
 B72 B 0.73833 0.81223 0.74642
 B73 B 1.23906 0.73478 0.19810
 B74 B 1.30464 0.72202 0.22036
 B75 B 1.28823 0.78728 0.20499
 B76 B 1.21834 0.79912 0.21808
 B77 B 1.19278 0.73993 0.24391
 B78 B 1.24655 0.69171 0.24596
 B79 B 1.27952 0.78014 0.30258
 B80 B 1.21396 0.79354 0.27986
 B81 B 1.23036 0.72825 0.29560
 B82 B 1.30040 0.71611 0.28240
 B83 B 1.32597 0.77541 0.25670
 B84 B 1.27214 0.82368 0.25483
 B85 B 0.79771 1.26854 0.21289
 B86 B 0.73157 1.29278 0.22088
 B87 B 0.73987 1.22655 0.20400
 B88 B 0.80034 1.20131 0.23172
 B89 B 0.82678 1.25334 0.26748
 B90 B 0.78349 1.31043 0.26059
 B91 B 0.71955 1.22636 0.30094
 B92 B 0.78631 1.20281 0.29305
 B93 B 0.77763 1.26926 0.30994
 B94 B 0.71721 1.29401 0.28214
 B95 B 0.69067 1.24204 0.24657
 B96 B 0.73412 1.18540 0.25248
 O97 O 0.45264 1.10695 0.04359
 O98 O 0.57954 0.90234 0.03595
 O99 O 0.40368 0.93708 0.02935
 O100 O 0.62835 1.07245 0.02642
 O101 O 0.48155 0.91015 0.06017
 O102 O 0.55258 1.10120 0.05952
 O103 O 0.61809 0.97835 0.05972
 O104 O 0.41680 1.02876 0.06596
 C105 C 0.42146 1.07978 0.07225
 C106 C 0.61474 0.92680 0.06347
 C107 C 0.42862 0.91281 0.06279
 C108 C 0.60560 1.10047 0.05871
 O109 O 0.57355 1.11144 -0.03847
 O110 O 0.45062 0.90271 -0.03825
 O111 O 0.39802 1.07090 -0.02189
 O112 O 0.62597 0.94138 -0.03180
 O113 O 0.54677 0.91344 -0.06029
 O114 O 0.47237 1.10249 -0.05538
 O115 O 0.60971 1.03455 -0.06340
 O116 O 0.41001 0.97924 -0.05911
 Co117 Co 0.51283 1.09613 0.00209
 Co118 Co 0.51441 0.91646 -0.00027
 Co119 Co 0.41883 1.00422 0.00333
 Co120 Co 0.60860 1.00657 -0.00187
 O121 O 0.51377 1.00588 0.00083
 C122 C 0.60432 1.08573 -0.06825
 C123 C 0.41629 0.92835 -0.06573
 C124 C 0.41926 1.09921 -0.05465
 C125 C 0.59958 0.91462 -0.06327
 O126 O 0.96656 0.59844 0.55969
 O127 O 1.05492 0.43199 0.56602
 O128 O 0.88670 0.45403 0.51812
 O129 O 1.11687 0.53276 0.55039
 O130 O 0.95695 0.43717 0.56509
 O131 O 1.07250 0.61038 0.53564
 O132 O 1.12456 0.43440 0.52118
 O133 O 0.89354 0.55505 0.52554
 C134 C 0.91413 0.58574 0.55952
 C135 C 1.10450 0.41738 0.55948
 C136 C 0.90446 0.43679 0.55836
 C137 C 1.11154 0.58390 0.55727
 O138 O 1.03913 0.61135 0.44339
 O139 O 0.94969 0.39243 0.47405
 O140 O 0.92953 0.55491 0.42655
 O141 O 1.10223 0.46437 0.43338
 O142 O 1.05498 0.39488 0.46627
 O143 O 0.93784 0.62218 0.47228
 O144 O 1.11649 0.56399 0.45865
 O145 O 0.92916 0.45886 0.42624
 Co146 Co 1.00467 0.59917 0.50192
 Co147 Co 1.00481 0.42153 0.51559
 Co148 Co 0.91808 0.50623 0.47622
 Co149 Co 1.10314 0.49988 0.49144
 O150 O 1.00760 0.50652 0.49565
 C151 C 1.09107 0.60168 0.43589
 C152 C 0.92591 0.40869 0.43558
 C153 C 0.91576 0.60310 0.43504
 C154 C 1.08919 0.41387 0.43352
 O155 O 1.07858 0.44855 0.07253
 O156 O 1.04112 0.55672 -0.08949
 O157 O 1.06542 0.40988 -0.01773
 O158 O 1.04453 0.61791 0.06169
 O159 O 1.04892 0.45179 -0.08494
 O160 O 1.09208 0.54590 0.07441
 O161 O 1.07123 0.60650 -0.02605
 O162 O 1.02006 0.38328 0.05826
 C163 C 1.06505 0.39867 0.07875
 C164 C 1.07521 0.59331 -0.07017
 C165 C 1.07624 0.41556 -0.06149
 C166 C 1.09039 0.59748 0.07441
 O167 O 0.97570 0.55998 0.10173
 O168 O 0.93514 0.44250 -0.06289
 O169 O 0.92380 0.42780 0.03349
 O170 O 0.96626 0.61556 -0.04968
 O171 O 0.92369 0.54147 -0.07013
 O172 O 0.96565 0.45796 0.09955
 O173 O 0.93906 0.60647 0.03939
 O174 O 0.96761 0.36530 -0.02886
 Co175 Co 1.02628 0.50383 0.08133
 Co176 Co 0.98939 0.49917 -0.06963
 Co177 Co 0.99465 0.42404 0.00554
 Co178 Co 1.00528 0.60124 0.00649
 O179 O 1.00597 0.50911 0.00770
 C180 C 0.93870 0.59403 0.08381
 C181 C 0.93605 0.38911 -0.06240
 C182 C 0.92502 0.43089 0.07932
 C183 C 0.92387 0.59297 -0.06835
 O184 O 0.56209 0.94365 0.59037
 O185 O 0.53713 1.06082 0.41525
 O186 O 0.51765 0.89092 0.44544
 O187 O 0.53122 1.11281 0.56482
 O188 O 0.55339 0.96402 0.41669
 O189 O 0.57845 1.04162 0.58118
 O190 O 0.56784 1.10002 0.48157
 O191 O 0.57372 0.90250 0.52104
 C192 C 0.59009 0.91026 0.56381
 C193 C 0.57220 1.09292 0.43680
 C194 C 0.55491 0.91271 0.42048
 C195 C 0.57686 1.09337 0.57973
 O196 O 0.45956 1.05959 0.59843
 O197 O 0.43550 0.94371 0.42279
 O198 O 0.47872 0.89251 0.56945
 O199 O 0.46385 1.11441 0.45017
 O200 O 0.41978 1.04165 0.43117
 O201 O 0.44193 0.96493 0.59577
 O202 O 0.42547 1.09594 0.53243
 O203 O 0.42224 0.90238 0.49219
 Co204 Co 0.50981 1.00232 0.58422
 Co205 Co 0.48732 1.00259 0.42894
 Co206 Co 0.49802 0.90807 0.50708
 Co207 Co 0.49710 1.09366 0.50732
 O208 O 0.49843 1.00132 0.50674
 C209 C 0.42181 1.08896 0.57722
 C210 C 0.40703 0.91025 0.44896
 C211 C 0.43848 0.91386 0.59104
 C212 C 0.42153 1.09322 0.43088
 O213 O 1.10749 1.04252 0.45523
 O214 O 0.91568 1.07053 0.52973
 O215 O 0.92503 1.05616 0.44084
 O216 O 1.03865 1.06699 0.58920
 O217 O 0.85125 1.01397 0.47302
 O218 O 1.11538 1.03989 0.54808
 O219 O 0.93826 1.03257 0.59566
 O220 O 1.02650 1.07983 0.43041
 C221 C 1.07991 1.07895 0.43090
 C222 C 0.91965 1.07401 0.57496
 C223 C 0.87273 1.04204 0.43604
 C224 C 1.09074 1.07312 0.57825
 O225 O 1.09831 0.92330 0.54011
 O226 O 0.91126 0.92790 0.48010
 O227 O 1.04879 0.97983 0.39893
 O228 O 0.97363 0.93132 0.58850
 O229 O 0.89169 0.95881 0.55769
 O230 O 1.08904 0.93180 0.45491
 O231 O 1.07279 0.96954 0.60017
 O232 O 0.94978 0.95163 0.41282
 Co233 Co 1.09461 0.98583 0.50038
 Co234 Co 0.91812 0.99828 0.50395
 Co235 Co 0.98859 1.01482 0.42857
 Co236 Co 1.00500 0.99933 0.58533
 O237 O 1.00442 0.99630 0.50658
 C238 C 1.09396 0.92678 0.58471
 C239 C 0.91988 0.91831 0.43624
 C240 C 1.07820 0.93905 0.41119
 C241 C 0.92050 0.92598 0.58484
 O242 O 0.60782 0.55582 -0.03220
 O243 O 0.41837 0.57011 0.04010
 O244 O 0.49051 0.56760 -0.08347
 O245 O 0.53532 0.56450 0.08631
 O246 O 0.40948 0.55700 -0.04570
 O247 O 0.61433 0.53914 0.05241
 O248 O 0.44059 0.52378 0.10146
 O249 O 0.57908 0.51341 -0.09325
 C250 C 0.60316 0.55459 -0.07716
 C251 C 0.42039 0.56697 0.08523
 C252 C 0.44080 0.58375 -0.07532
 C253 C 0.58744 0.57159 0.08030
 O254 O 0.59985 0.42375 0.03584
 O255 O 0.40251 0.44054 -0.02974
 O256 O 0.52350 0.42017 -0.08154
 O257 O 0.48069 0.42419 0.08628
 O258 O 0.40141 0.45399 0.05398
 O259 O 0.60594 0.43779 -0.04796
 O260 O 0.57674 0.46613 0.09876
 O261 O 0.43441 0.47834 -0.09194
 Co262 Co 0.59863 0.48989 0.00206
 Co263 Co 0.41633 0.50474 0.00443
 Co264 Co 0.50698 0.49446 -0.07818
 Co265 Co 0.50832 0.49461 0.08292
 O266 O 0.50754 0.49571 0.00275
 C267 C 0.59813 0.42465 0.08086
 C268 C 0.40671 0.44066 -0.07443
 C269 C 0.57527 0.40806 -0.07626
 C270 C 0.42779 0.41955 0.08110
 C271 C 0.33855 1.20013 0.12501
 C272 C 0.29883 1.17553 0.15650
 C273 C 0.30208 1.11646 0.16143
 C274 C 0.34362 1.08467 0.13648
 C275 C 0.38339 1.11079 0.10558
 C276 C 0.37981 1.16866 0.10068
 C277 C 0.37355 1.20013 0.05417
 C278 C 0.32696 1.23221 0.07907
 H279 H 0.27354 1.09453 0.18587
 H280 H 0.34382 1.03975 0.14068
 H281 H 0.35740 1.17422 0.02323
 H282 H 0.41216 1.22577 0.04614
 H283 H 0.28402 1.22241 0.06351
 H284 H 0.33865 1.27665 0.08256
 C285 C 0.86745 0.69061 0.65250
 C286 C 0.80779 0.68352 0.65858
 C287 C 0.78158 0.64358 0.62721
 C288 C 0.81522 0.61028 0.59492
 C289 C 0.87588 0.61613 0.59347
 C290 C 0.89913 0.65973 0.62054
 C291 C 0.95359 0.66596 0.64880
 C292 C 0.91902 0.69979 0.68509
 H293 H 0.73572 0.63649 0.62892
 H294 H 0.79403 0.57944 0.57213
 H295 H 0.98573 0.69119 0.62871
 H296 H 0.96948 0.62570 0.66389
 H297 H 0.93267 0.74419 0.68671
 H298 H 0.91605 0.67826 0.72098
 C299 C 0.68941 0.79884 0.11458
 C300 C 0.72197 0.81731 0.15519
 C301 C 0.72871 0.87659 0.15733
 C302 C 0.69542 0.91322 0.12754
 C303 C 0.65721 0.89232 0.09181
 C304 C 0.66136 0.83518 0.08245
 C305 C 0.61523 0.79493 0.07002
 C306 C 0.64217 0.75734 0.10770
 H307 H 0.75507 0.89550 0.18560
 H308 H 0.69688 0.95717 0.13506
 H309 H 0.61911 0.77901 0.03201
 H310 H 0.57177 0.80929 0.08027
 H311 H 0.65648 0.71760 0.09137
 H312 H 0.61419 0.75594 0.14013
 C313 C 1.13103 0.31197 0.65925
 C314 C 1.19138 0.30504 0.66075
 C315 C 1.22256 0.33331 0.62422
 C316 C 1.19454 0.36797 0.58941
 C317 C 1.13468 0.37704 0.59151
 C318 C 1.10381 0.34572 0.62506
 C319 C 1.05863 0.36454 0.65923
 C320 C 1.08878 0.32982 0.69769
 H321 H 1.26890 0.33208 0.62468
 H322 H 1.22017 0.39055 0.56312
 H323 H 1.01574 0.34775 0.64880
 H324 H 1.06027 0.41010 0.66678
 H325 H 1.06123 0.29543 0.71128
 H326 H 1.10861 0.35595 0.72688
 C327 C 0.69195 1.20267 -0.12359
 C328 C 0.71302 1.17996 -0.16699
 C329 C 0.69605 1.12426 -0.17783
 C330 C 0.66050 1.09346 -0.14626
 C331 C 0.63970 1.11749 -0.10316
 C332 C 0.65541 1.17282 -0.09311
 C333 C 0.68249 1.19635 -0.04795
 C334 C 0.72317 1.22793 -0.08109
 H335 H 0.70905 1.10417 -0.21132
 H336 H 0.64907 1.05097 -0.15575
 H337 H 0.70419 1.16411 -0.02511
 H338 H 0.65271 1.22410 -0.02782
 H339 H 0.76820 1.21310 -0.07779
 H340 H 0.71755 1.27394 -0.07938
 C341 C 1.21881 0.66698 0.37369
 C342 C 1.19349 0.69672 0.33542
 C343 C 1.13226 0.69870 0.33366
 C344 C 1.09876 0.66940 0.36718
 C345 C 1.12513 0.63587 0.40257
 C346 C 1.18543 0.63739 0.40647
 C347 C 1.22838 0.59139 0.40954
 C348 C 1.26477 0.62392 0.37353
 H349 H 1.10941 0.72282 0.30633
 H350 H 1.05239 0.67125 0.36405
 H351 H 1.21123 0.55199 0.39421
 H352 H 1.24840 0.58804 0.44646
 H353 H 1.26896 0.60295 0.33748
 H354 H 1.30557 0.63975 0.38978
 C355 C 0.28552 0.86080 -0.12832
 C356 C 0.30965 0.81435 -0.15218
 C357 C 0.36995 0.80782 -0.14485
 C358 C 0.40335 0.84602 -0.11853
 C359 C 0.37950 0.89453 -0.09901
 C360 C 0.31929 0.89918 -0.10166
 C361 C 0.28305 0.94712 -0.11776
 C362 C 0.24644 0.90568 -0.14655
 H363 H 0.39404 0.77579 -0.16296
 H364 H 0.44905 0.83840 -0.11504
 H365 H 0.30677 0.97701 -0.14129
 H366 H 0.25986 0.96639 -0.08674
 H367 H 0.24886 0.91223 -0.18669
 H368 H 0.20227 0.90109 -0.13203
 C369 C 0.86040 0.28087 0.37642
 C370 C 0.80707 0.29852 0.35687
 C371 C 0.79078 0.35344 0.37003
 C372 C 0.82971 0.38985 0.39437
 C373 C 0.88503 0.37170 0.40903
 C374 C 0.89596 0.31508 0.40386
 C375 C 0.94842 0.28477 0.38902
 C376 C 0.90970 0.24518 0.36071
 H377 H 0.75052 0.37060 0.35692
 H378 H 0.81684 0.43253 0.40006
 H379 H 0.97107 0.26482 0.42041
 H380 H 0.97453 0.31079 0.36403
 H381 H 0.90844 0.20281 0.37721
 H382 H 0.91972 0.24622 0.32122
 C383 C 1.20108 0.32707 0.11954
 C384 C 1.18175 0.28161 0.14773
 C385 C 1.12160 0.27188 0.14729
 C386 C 1.08306 0.31012 0.12585
 C387 C 1.10342 0.35906 0.10371
 C388 C 1.16241 0.36644 0.09999
 C389 C 1.19128 0.37173 0.05236
 C390 C 1.22907 0.32547 0.06982
 H391 H 1.10361 0.23717 0.16740
 H392 H 1.03734 0.30212 0.12767
 H393 H 1.21387 0.41243 0.04874
 H394 H 1.16389 0.35981 0.02050
 H395 H 1.27434 0.33904 0.06977
 H396 H 1.21971 0.28633 0.04956
 C397 C 0.67097 0.78327 0.61185
 C398 C 0.70108 0.80565 0.65188
 C399 C 0.70695 0.86507 0.65144
 C400 C 0.67442 0.89903 0.61986
 C401 C 0.63676 0.87557 0.58548
 C402 C 0.64049 0.81728 0.57896
 C403 C 0.59498 0.77405 0.57245
 C404 C 0.62802 0.73743 0.60848
 H405 H 0.73341 0.88675 0.67798
 H406 H 0.67563 0.94371 0.62489
 H407 H 0.59394 0.75695 0.53469
 H408 H 0.55323 0.78837 0.58648
 H409 H 0.64614 0.69935 0.59143
 H410 H 0.60497 0.73052 0.64340
 C411 C 1.18005 0.70549 -0.11189
 C412 C 1.20180 0.68404 -0.15552
 C413 C 1.18703 0.62719 -0.16569
 C414 C 1.14521 0.59849 -0.13899
 C415 C 1.11985 0.62290 -0.09841
 C416 C 1.14153 0.67520 -0.08344
 C417 C 1.11060 0.72699 -0.06872
 C418 C 1.15260 0.75982 -0.10003
 H419 H 1.20331 0.60516 -0.19702
 H420 H 1.13094 0.55819 -0.15149
 H421 H 1.11551 0.73565 -0.02897
 H422 H 1.06572 0.72824 -0.08284
 H423 H 1.18162 0.78735 -0.07835
 H424 H 1.13180 0.77980 -0.13231
 C425 C 0.64924 1.21595 0.37824
 C426 C 0.67798 1.19294 0.33853
 C427 C 0.66986 1.13373 0.33337
 C428 C 0.63782 1.10180 0.36658
 C429 C 0.61199 1.12643 0.40717
 C430 C 0.61947 1.18429 0.41155
 C431 C 0.60332 1.23384 0.44113
 C432 C 0.63731 1.26920 0.40405
 H433 H 0.68932 1.11004 0.30439
 H434 H 0.63322 1.05742 0.36029
 H435 H 0.62313 1.23293 0.47826
 H436 H 0.55641 1.24187 0.44005
 H437 H 0.67679 1.28857 0.41968
 H438 H 0.60987 1.29754 0.38177
 C439 C 0.82982 0.69938 0.12660
 C440 C 0.83002 0.69486 0.17742
 C441 C 0.87025 0.65537 0.19708
 C442 C 0.90472 0.62180 0.16693
 C443 C 0.90085 0.62613 0.11580
 C444 C 0.86324 0.66664 0.09764
 C445 C 0.84005 0.69021 0.05125
 C446 C 0.80164 0.72660 0.08364
 H447 H 0.87438 0.64830 0.23601
 H448 H 0.93401 0.59235 0.18385
 H449 H 0.81578 0.65874 0.02946
 H450 H 0.87289 0.71427 0.03082
 H451 H 0.75575 0.71513 0.07996
 H452 H 0.81150 0.77190 0.08136
 C453 C 0.30483 1.19117 0.61853
 C454 C 0.31859 1.19811 0.66856
 C455 C 0.36382 1.16356 0.68668
 C456 C 0.39318 1.12604 0.65737
 C457 C 0.38144 1.12179 0.60729
 C458 C 0.33585 1.15419 0.58872
 C459 C 0.33429 1.19221 0.54584
 C460 C 0.30222 1.23305 0.57796
 H461 H 0.37673 1.16330 0.72469
 H462 H 0.42732 1.10193 0.67425
 H463 H 0.30754 1.17518 0.51542
 H464 H 0.37761 1.20719 0.53516
 H465 H 0.25750 1.24059 0.56505
 H466 H 0.32796 1.27107 0.58603
 C467 C 0.85240 0.27166 -0.12572
 C468 C 0.81296 0.30095 -0.15559
 C469 C 0.81127 0.35938 -0.14791
 C470 C 0.84870 0.38676 -0.11556
 C471 C 0.89181 0.35749 -0.09035
 C472 C 0.89018 0.29910 -0.09363
 C473 C 0.93725 0.25848 -0.10214
 C474 C 0.89666 0.22865 -0.13741
 H475 H 0.78612 0.38614 -0.17083
 H476 H 0.84658 0.43185 -0.11358
 H477 H 0.94740 0.23364 -0.06885
 H478 H 0.97494 0.27775 -0.12032
 H479 H 0.88393 0.18641 -0.12463
 H480 H 0.91151 0.23076 -0.17587
 C481 C 0.28995 0.86603 0.36289
 C482 C 0.30365 0.81011 0.35156
 C483 C 0.34379 0.78429 0.38350
 C484 C 0.37348 0.81574 0.41997
 C485 C 0.36346 0.87364 0.42565
 C486 C 0.31755 0.89586 0.39940
 C487 C 0.30913 0.95026 0.37451
 C488 C 0.27987 0.91812 0.33356
 H489 H 0.35567 0.74115 0.37792
 H490 H 0.40809 0.79602 0.44020
 H491 H 0.35004 0.97014 0.36315
 H492 H 0.27885 0.97705 0.39502
 H493 H 0.30503 0.92004 0.29930
 H494 H 0.23375 0.92888 0.32970
 C495 C 1.17933 1.18149 0.37499
 C496 C 1.17240 1.17399 0.32348
 C497 C 1.13121 1.13379 0.30899
 C498 C 1.09998 1.10334 0.34419
 C499 C 1.10927 1.11213 0.39477
 C500 C 1.14918 1.15128 0.40804
 C501 C 1.17322 1.17642 0.45278
 C502 C 1.20862 1.21162 0.41764
 H503 H 1.12325 1.12543 0.27063
 H504 H 1.06965 1.07211 0.33176
 H505 H 1.19894 1.14616 0.47463
 H506 H 1.14068 1.20060 0.47330
 H507 H 1.25474 1.20278 0.42306
 H508 H 1.19807 1.25636 0.42127
 C509 C 0.66971 0.68476 -0.12813
 C510 C 0.66859 0.67685 -0.17987
 C511 C 0.63698 0.63016 -0.19625
 C512 C 0.61344 0.59180 -0.16266
 C513 C 0.62192 0.59785 -0.11146
 C514 C 0.64821 0.64622 -0.09636
 C515 C 0.67093 0.67110 -0.05097
 C516 C 0.69476 0.71621 -0.08455
 H517 H 0.63268 0.62149 -0.23497
 H518 H 0.59036 0.55644 -0.17726
 H519 H 0.70469 0.64484 -0.03354
 H520 H 0.63627 0.68575 -0.02646
 H521 H 0.74205 0.71837 -0.08241
 H522 H 0.67330 0.75644 -0.07705
 C523 C 0.84360 1.20369 0.62018
 C524 C 0.84705 1.19648 0.67177
 C525 C 0.87931 1.15139 0.68953
 C526 C 0.90413 1.11348 0.65755
 C527 C 0.89784 1.11888 0.60631
 C528 C 0.86870 1.16491 0.58810
 C529 C 0.89501 1.20770 0.55631
 C530 C 0.86944 1.24987 0.59006
 H531 H 0.88300 1.14317 0.72835
 H532 H 0.92684 1.07852 0.67355
 H533 H 0.87589 1.20883 0.51903
 H534 H 0.94278 1.20713 0.55746
 H535 H 0.83647 1.27449 0.57032
 H536 H 0.90267 1.27431 0.61014
 C537 C 0.35375 0.69765 0.13447
 C538 C 0.34734 0.68760 0.18542
 C539 C 0.37632 0.63986 0.20336
 C540 C 0.40277 0.60170 0.17095
 C541 C 0.40086 0.61000 0.11952
 C542 C 0.37855 0.65995 0.10377
 C543 C 0.35754 0.68445 0.05761
 C544 C 0.33084 0.72880 0.09012
 H545 H 0.37512 0.62966 0.24191
 H546 H 0.42146 0.56409 0.18611
 H547 H 0.32523 0.65738 0.03905
 H548 H 0.39305 0.70011 0.03441
 H549 H 0.28367 0.73024 0.08599
 H550 H 0.35261 0.76920 0.08386
 C551 C 1.14146 0.79438 0.64850
 C552 C 1.16827 0.81602 0.69051
 C553 C 1.16187 0.87308 0.70031
 C554 C 1.13771 0.90826 0.66547
 C555 C 1.11961 0.88773 0.61965
 C556 C 1.11876 0.83007 0.61232
 C557 C 1.06501 0.79655 0.60724
 C558 C 1.08722 0.76040 0.64823
 H559 H 1.17846 0.89146 0.73373
 H560 H 1.13347 0.95186 0.67467
 H561 H 1.06263 0.77454 0.57151
 H562 H 1.02561 0.82010 0.61698
 H563 H 1.09330 0.71640 0.63724
 H564 H 1.06242 0.76520 0.68256
 C565 C 0.71237 0.33051 0.12968
 C566 C 0.70496 0.33621 0.18160
 C567 C 0.65576 0.36491 0.19737
 C568 C 0.61715 0.38846 0.16406
 C569 C 0.62581 0.38404 0.11346
 C570 C 0.67047 0.35083 0.09749
 C571 C 0.70948 0.36374 0.05756
 C572 C 0.76011 0.34797 0.09184
 H573 H 0.64602 0.36867 0.23586
 H574 H 0.58187 0.41272 0.17822
 H575 H 0.71038 0.40841 0.04763
 H576 H 0.70128 0.33519 0.02621
 H577 H 0.77285 0.39012 0.10716
 H578 H 0.85576 0.27750 0.06206
 C579 C 0.79501 0.85046 0.37370
 C580 C 0.82070 0.82202 0.33494
 C581 C 0.88137 0.81664 0.33655
 C582 C 0.91459 0.84312 0.37309
 C583 C 0.88816 0.87464 0.40978
 C584 C 0.82822 0.87635 0.40990
 C585 C 0.79134 0.92683 0.40980
 C586 C 0.75502 0.89911 0.37147
 H587 H 0.90373 0.79354 0.30862
 H588 H 0.96099 0.84187 0.37087
 H589 H 0.81337 0.96333 0.39435
 H590 H 0.76894 0.93315 0.44508
 H591 H 0.75507 0.92088 0.33553
 H592 H 0.71246 0.89032 0.38676
 C593 C 0.31278 0.32670 -0.12045
 C594 C 0.31617 0.33106 -0.17223
 C595 C 0.35310 0.37257 -0.19053
 C596 C 0.38344 0.40785 -0.15847
 C597 C 0.37792 0.40240 -0.10718
 C598 C 0.34296 0.36082 -0.09023
 C599 C 0.32134 0.33890 -0.04359
 C600 C 0.28644 0.29913 -0.07571
 H601 H 0.35829 0.37846 -0.22949
 H602 H 0.41053 0.43981 -0.17410
 H603 H 0.29485 0.36998 -0.02387
 H604 H 0.35550 0.31810 -0.02156
 H605 H 0.24008 0.30649 -0.07084
 H606 H 0.29940 0.25543 -0.06897
 C607 C 1.19146 0.36693 -0.14648
 C608 C 1.18257 0.30865 -0.15208
 C609 C 1.14255 0.28488 -0.11936
 C610 C 1.11072 0.31917 -0.08654
 C611 C 1.11779 0.37809 -0.08583
 C612 C 1.16157 0.39955 -0.11401
 C613 C 1.16554 0.45058 -0.14433
 C614 C 1.19827 0.41557 -0.18073
 H615 H 1.13397 0.24051 -0.12056
 H616 H 1.07778 0.30006 -0.06439
 H617 H 1.19249 0.48316 -0.12647
 H618 H 1.12295 0.46407 -0.15858
 H619 H 1.24367 0.42907 -0.18450
 H620 H 1.17397 0.41092 -0.21565
 C621 C 0.63970 0.85715 0.31660
 C622 C 0.66786 0.80883 0.33384
 C623 C 0.65438 0.79299 0.38229
 C624 C 0.61742 0.82681 0.41132
 C625 C 0.59397 0.87744 0.39261
 C626 C 0.60596 0.88969 0.34462
 C627 C 0.59366 0.93126 0.30579
 C628 C 0.63246 0.89546 0.27349
 H629 H 0.67265 0.75547 0.39783
 H630 H 0.60814 0.81399 0.44838
 H631 H 0.61202 0.97292 0.31441
 H632 H 0.54780 0.93084 0.29416
 H633 H 0.67291 0.91720 0.26354
 H634 H 0.60917 0.87527 0.24253
 C635 C 0.84816 0.71723 -0.12556
 C636 C 0.80469 0.69241 -0.15403
 C637 C 0.79418 0.63476 -0.14499
 C638 C 0.83014 0.60299 -0.11412
 C639 C 0.87840 0.62742 -0.09161
 C640 C 0.88352 0.68572 -0.09495
 C641 C 0.93453 0.72159 -0.10496
 C642 C 0.89605 0.75593 -0.13855
 H643 H 0.76109 0.61238 -0.16486
 H644 H 0.82277 0.55848 -0.11126
 H645 H 0.96890 0.69895 -0.12470
 H646 H 0.94906 0.74484 -0.07193
 H647 H 0.90870 0.75309 -0.17755
 H648 H 0.88862 0.79894 -0.12491
 C649 C 0.35134 1.21884 0.37048
 C650 C 0.30743 1.19417 0.34258
 C651 C 0.29675 1.13642 0.35182
 C652 C 0.33060 1.10522 0.38399
 C653 C 0.37861 1.12889 0.40638
 C654 C 0.38584 1.18702 0.40172
 C655 C 0.43792 1.22083 0.39037
 C656 C 0.40036 1.25526 0.35600
 H657 H 0.26405 1.11333 0.33216
 H658 H 0.32182 1.06147 0.38815
 H659 H 0.47146 1.19641 0.37122
 H660 H 0.45328 1.24481 0.42270
 H661 H 0.41209 1.25048 0.31693
 H662 H 0.39458 1.29901 0.36841
 C663 C 1.22460 0.64568 0.13993
 C664 C 1.21257 0.70254 0.15095
 C665 C 1.16690 0.72650 0.12390
 C666 C 1.12980 0.69292 0.09499
 C667 C 1.13760 0.63440 0.09181
 C668 C 1.18903 0.61350 0.11018
 C669 C 1.20208 0.56032 0.13564
 C670 C 1.24059 0.59441 0.16912
 H671 H 1.15600 0.76999 0.12894
 H672 H 1.09204 0.71216 0.07896
 H673 H 1.22606 0.53086 0.11204
 H674 H 1.16425 0.54228 0.15452
 H675 H 1.28619 0.58252 0.16518
 H676 H 1.22435 0.59364 0.20709
 C677 C 0.71866 1.14784 0.63039
 C678 C 0.70548 1.20346 0.64483
 C679 C 0.65397 1.22509 0.62470
 C680 C 0.61384 1.18994 0.60040
 C681 C 0.62406 1.13200 0.59488
 C682 C 0.67954 1.11414 0.60540
 C683 C 0.70133 1.06122 0.62619
 C684 C 0.74423 1.09666 0.65438
 H685 H 0.64125 1.26753 0.63257
 H686 H 0.57268 1.20740 0.58995
 H687 H 0.72150 1.03446 0.59799
 H688 H 0.66942 1.04028 0.65002
 H689 H 0.78881 1.08844 0.64275
 H690 H 0.73701 1.09268 0.69419
 C691 C 0.83002 0.29515 0.12471
 C692 C 0.83879 0.29809 0.17431
 C693 C 0.87874 0.34030 0.19002
 C694 C 0.90357 0.38283 0.16003
 C695 C 0.89202 0.39035 0.10953
 C696 C 0.85780 0.34959 0.08922
 C697 C 0.81607 0.33129 0.02674
 C698 C 0.77889 0.26148 0.06788
 H699 H 0.89000 0.34285 0.22845
 H700 H 0.93287 0.41157 0.17796
 H701 H 0.84577 0.31708 -0.00246
 H702 H 0.79278 0.36660 0.00931
 H703 H 0.79405 0.21957 0.05535
 H704 H 0.73138 0.25687 0.06945
 C705 C 0.35427 0.78655 0.63170
 C706 C 0.31024 0.80896 0.66018
 C707 C 0.30172 0.86757 0.65547
 C708 C 0.34149 0.90202 0.63096
 C709 C 0.39060 0.87890 0.60962
 C710 C 0.39247 0.82045 0.60649
 C711 C 0.44092 0.78089 0.61443
 C712 C 0.39957 0.74401 0.64227
 H713 H 0.26840 0.88843 0.67541
 H714 H 0.33596 0.94686 0.63203
 H715 H 0.47535 0.79878 0.63814
 H716 H 0.45526 0.76165 0.57969
 H717 H 0.41144 0.74083 0.68160
 H718 H 0.39063 0.70363 0.62374
 C719 C 0.36576 1.21169 -0.13913
 C720 C 0.30708 1.19865 -0.14836
 C721 C 0.28482 1.15380 -0.12079
 C722 C 0.32115 1.12160 -0.08983
 C723 C 0.38083 1.13322 -0.08568
 C724 C 0.40010 1.18147 -0.10787
 C725 C 0.45455 1.19717 -0.13197
 C726 C 0.41748 1.23091 -0.16732
 H727 H 0.24030 1.14154 -0.12514
 H728 H 0.30296 1.08613 -0.07090
 H729 H 0.47613 1.16102 -0.14935
 H730 H 0.48226 1.22334 -0.10792
 H731 H 0.41978 1.21388 -0.20496
 H732 H 0.42520 1.27650 -0.16413
 C733 C 0.80907 0.71591 0.39546
 C734 C 0.77701 0.68925 0.35836
 C735 C 0.78615 0.63101 0.35301
 C736 C 0.83297 0.60410 0.37547
 C737 C 0.86919 0.63275 0.40817
 C738 C 0.85458 0.68800 0.41973
 C739 C 0.83680 0.70708 0.46899
 C740 C 0.78600 0.73391 0.44420
 H741 H 0.76100 0.60696 0.32703
 H742 H 0.84046 0.56053 0.36735
 H743 H 0.86765 0.73771 0.48487
 H744 H 0.82475 0.67226 0.49380
 H745 H 0.78532 0.77972 0.44921
 H746 H 0.74469 0.71310 0.45324
 C747 C 0.73382 1.15963 0.12746
 C748 C 0.71004 1.20258 0.15526
 C749 C 0.65196 1.21683 0.14386
 C750 C 0.61825 1.18459 0.11184
 C751 C 0.64143 1.13738 0.08945
 C752 C 0.70087 1.12911 0.09431
 C753 C 0.73372 1.07716 0.10473
 C754 C 0.76983 1.11056 0.14092
 H755 H 0.63022 1.25022 0.16263
 H756 H 0.57339 1.19513 0.10660
 H757 H 0.75819 1.06251 0.07252
 H758 H 0.70630 1.04562 0.12255
 H759 H 0.81513 1.11584 0.12936
 H760 H 0.76397 1.09677 0.17937
 C761 C 1.20441 0.69844 0.61319
 C762 C 1.21622 0.67846 0.66039
 C763 C 1.19440 0.62420 0.67133
 C764 C 1.16272 0.59280 0.63723
 C765 C 1.15059 0.61419 0.59078
 C766 C 1.17139 0.66773 0.57960
 C767 C 1.20810 0.68542 0.53793
 C768 C 1.24426 0.71819 0.57450
 H769 H 1.19982 0.60545 0.70699
 H770 H 1.14613 0.55235 0.64785
 H771 H 1.18439 0.71246 0.51162
 H772 H 1.23146 0.64998 0.52114
 H773 H 1.24165 0.76407 0.56900
 H774 H 1.28840 0.70135 0.57923
 C775 C 0.72230 0.84458 -0.12866
 C776 C 0.69405 0.80868 -0.16123
 C777 C 0.63307 0.80586 -0.15820
 C778 C 0.60241 0.84008 -0.12649
 C779 C 0.63125 0.87901 -0.09718
 C780 C 0.69159 0.87850 -0.09709
 C781 C 0.73286 0.92570 -0.10295
 C782 C 0.76628 0.88868 -0.13762
 H783 H 0.60812 0.77795 -0.18109
 H784 H 0.55604 0.83690 -0.12591
 H785 H 0.75662 0.93491 -0.06845
 H786 H 0.71310 0.96256 -0.12116
 H787 H 0.80927 0.87672 -0.12314
 H788 H 0.76576 0.90411 -0.17596
 C789 C 1.21438 0.35307 0.36171
 C790 C 1.18997 0.30746 0.33726
 C791 C 1.13179 0.29499 0.34919
 C792 C 1.10115 0.32636 0.38369
 C793 C 1.12351 0.37615 0.40208
 C794 C 1.18185 0.38675 0.39242
 C795 C 1.21198 0.43831 0.37618
 C796 C 1.24743 0.40170 0.34267
 H797 H 1.10879 0.26132 0.33154
 H798 H 1.05910 0.31327 0.39418
 H799 H 1.23801 0.45720 0.40614
 H800 H 1.18303 0.46725 0.35594
 H801 H 1.29354 0.39978 0.35339
 H802 H 1.23908 0.40995 0.30324
 C803 C 0.38476 0.82438 0.16920
 C804 C 0.32437 0.82133 0.16627
 C805 C 0.29840 0.85397 0.12929
 C806 C 0.33262 0.88485 0.09624
 C807 C 0.39374 0.88424 0.09945
 C808 C 0.41730 0.85383 0.13742
 C809 C 0.47293 0.83663 0.15947
 C810 C 0.43685 0.80360 0.19621
 H811 H 0.25211 0.85501 0.12532
 H812 H 0.31104 0.90827 0.06766
 H813 H 0.49685 0.87222 0.17596
 H814 H 0.49785 0.80940 0.13477
 H815 H 0.44000 0.82041 0.23402
 H816 H 0.44274 0.75779 0.19306
 C817 C 0.78320 0.35067 0.61501
 C818 C 0.80844 0.33322 0.65933
 C819 C 0.86353 0.35617 0.67037
 C820 C 0.89142 0.39282 0.63906
 C821 C 0.86687 0.40861 0.59437
 C822 C 0.81223 0.38665 0.58262
 C823 C 0.75804 0.41771 0.57164
 C824 C 0.72706 0.37860 0.60637
 H825 H 0.88694 0.34658 0.70354
 H826 H 0.93341 0.40818 0.64984
 H827 H 0.74419 0.41256 0.53290
 H828 H 0.75959 0.46165 0.58465
 H829 H 0.69578 0.35067 0.58756
 H830 H 0.71067 0.39972 0.63961
 C831 C 1.20623 1.13013 0.65919
 C832 C 1.17659 1.16853 0.68806
 C833 C 1.11968 1.18073 0.67423
 C834 C 1.09379 1.15466 0.63383
 C835 C 1.12360 1.11417 0.60667
 C836 C 1.18132 1.10494 0.61844
 C837 C 1.21150 1.05115 0.62786
 C838 C 1.23604 1.07742 0.67388
 H839 H 1.09445 1.20956 0.69516
 H840 H 1.04891 1.16320 0.62616
 H841 H 1.24456 1.04252 0.59980
 H842 H 1.18172 1.01622 0.63483
 H843 H 1.28343 1.08069 0.67322
 H844 H 1.21839 1.05920 0.70801
 C845 C 0.70996 0.63725 0.14990
 C846 C 0.68156 0.67133 0.18360
 C847 C 0.62111 0.66820 0.18543
 C848 C 0.59011 0.63924 0.14943
 C849 C 0.61891 0.60938 0.11284
 C850 C 0.67884 0.60706 0.11487
 C851 C 0.71302 0.55529 0.12235
 C852 C 0.74538 0.58642 0.16154
 H853 H 0.59741 0.69146 0.21249
 H854 H 0.54364 0.63937 0.15091
 H855 H 0.73958 0.54526 0.08996
 H856 H 0.68732 0.51982 0.13677
 H857 H 0.79110 0.59070 0.15209
 H858 H 0.73764 0.57000 0.19896
 C859 C 1.16387 0.82016 0.36414
 C860 C 1.16974 0.82849 0.31312
 C861 C 1.13720 0.87362 0.29345
 C862 C 1.10472 0.90962 0.32421
 C863 C 1.10404 0.90121 0.37541
 C864 C 1.13318 0.85521 0.39266
 C865 C 1.15127 0.83204 0.44036
 C866 C 1.18476 0.79050 0.41023
 H867 H 1.13881 0.88280 0.25473
 H868 H 1.08248 0.94492 0.30824
 H869 H 1.11487 0.81346 0.46081
 H870 H 1.17927 0.86117 0.46142
 H871 H 1.16589 0.74893 0.41619
 H872 H 1.23114 0.79290 0.41851
 C873 C 0.68049 0.37109 -0.17389
 C874 C 0.66809 0.31622 -0.18677
 C875 C 0.61924 0.29152 -0.16489
 C876 C 0.58818 0.31994 -0.12803
 C877 C 0.60502 0.37385 -0.11314
 C878 C 0.65096 0.39876 -0.13743
 C879 C 0.64906 0.45121 -0.16698
 C880 C 0.68020 0.42085 -0.20684
 H881 H 0.60575 0.24997 -0.17543
 H882 H 0.55164 0.29997 -0.11124
 H883 H 0.67506 0.48514 -0.15007
 H884 H 0.60474 0.46253 -0.17822
 H885 H 0.72352 0.43836 -0.21380
 H886 H 0.65355 0.41432 -0.24033
 C887 C 0.78706 1.15266 0.38073
 C888 C 0.80834 1.15656 0.33211
 C889 C 0.83818 1.10912 0.31553
 C890 C 0.85330 1.06582 0.34820
 C891 C 0.83731 1.06803 0.39780
 C892 C 0.79678 1.10714 0.41063
 C893 C 0.78878 1.13795 0.45690
 C894 C 0.78157 1.18940 0.42545
 H895 H 0.85162 1.10608 0.27785
 H896 H 0.87882 1.03162 0.33491
 H897 H 0.82791 1.13802 0.48034
 H898 H 0.74868 1.12521 0.47568
 H899 H 0.81800 1.21723 0.43341
 H900 H 0.73931 1.20885 0.43051
 C901 C 0.39606 0.66120 -0.18899
 C902 C 0.34409 0.68442 -0.17440
 C903 C 0.33316 0.68570 -0.12343
 C904 C 0.36805 0.65707 -0.09008
 C905 C 0.41548 0.62701 -0.10645
 C906 C 0.43078 0.63255 -0.15584
 C907 C 0.44453 0.58908 -0.19310
 C908 C 0.40742 0.62110 -0.22925
 H909 H 0.29719 0.70817 -0.10874
 H910 H 0.35576 0.65554 -0.05202
 H911 H 0.42592 0.54768 -0.18398
 H912 H 0.49070 0.58910 -0.20292
 H913 H 0.36828 0.59792 -0.24109
 H914 H 0.43231 0.64056 -0.25928
 C915 C 0.87468 0.85288 0.69909
 C916 C 0.83367 0.81528 0.68148
 C917 C 0.82853 0.80935 0.62986
 C918 C 0.85720 0.84505 0.59807
 C919 C 0.89286 0.88652 0.61700
 C920 C 0.90448 0.88730 0.66737
 C921 C 0.90247 0.93514 0.70233
 C922 C 0.86949 0.89748 0.73677
 H923 H 0.79972 0.77935 0.61333
 H924 H 0.85005 0.84144 0.55898
 H925 H 0.87674 0.97080 0.68814
 H926 H 0.94568 0.94625 0.71689
 H927 H 0.82439 0.91107 0.74224
 H928 H 0.89368 0.88718 0.77081
 C929 C 0.38483 0.30841 0.17207
 C930 C 0.32693 0.31966 0.18146
 C931 C 0.30691 0.37124 0.16284
 C932 C 0.33909 0.40209 0.12871
 C933 C 0.39454 0.38476 0.11476
 C934 C 0.41663 0.33895 0.13994
 C935 C 0.47003 0.30654 0.14900
 C936 C 0.43486 0.27264 0.18615
 H937 H 0.26577 0.38775 0.17362
 H938 H 0.32065 0.44009 0.11401
 H939 H 0.50441 0.33220 0.16625
 H940 H 0.48307 0.28208 0.11644
 H941 H 0.44860 0.27991 0.22466
 H942 H 0.43002 0.22811 0.17628
   
