data_POSCAR
  _audit_creation_date              2014-09-24
  _audit_creation_method            'ToBaCCo'
  _symmetry_space_group_name_H-M    'P1'
  _symmetry_Int_Tables_number       1
  _symmetry_cell_setting            triclinic
  loop_
  _symmetry_equiv_pos_as_xyz
 x,y,z
_cell_length_a 35.0963
_cell_length_b 36.1113
_cell_length_c 34.3349
_cell_angle_alpha 91.229100
_cell_angle_beta 90.772200
_cell_angle_gamma 89.272100
loop_
  _atom_site_label
  _atom_site_type_symbol
  _atom_site_fract_x
  _atom_site_fract_y
  _atom_site_fract_z
C1 C 0.19686 0.19449 0.24066
 C2 C 0.23308 0.18190 0.22856
 C3 C 0.25126 0.19665 0.19593
 C4 C 0.23254 0.22604 0.17649
 C5 C 0.19682 0.23939 0.18857
 C6 C 0.17914 0.22347 0.22030
 H7 H 0.24486 0.15750 0.24209
 H8 H 0.24573 0.23973 0.15254
 H9 H 0.15159 0.23422 0.22925
 C10 C -0.22066 0.78572 0.27034
 C11 C -0.25505 0.80100 0.25580
 C12 C -0.27719 0.78224 0.22761
 C13 C -0.26575 0.74667 0.21502
 C14 C -0.23065 0.73128 0.22707
 C15 C -0.20871 0.75077 0.25521
 H16 H -0.26288 0.82929 0.26332
 H17 H -0.28354 0.73173 0.19422
 H18 H -0.18207 0.73867 0.26492
 C19 C -0.20024 0.20594 -0.26552
 C20 C -0.22709 0.18741 -0.24310
 C21 C -0.23993 0.20181 -0.20705
 C22 C -0.22478 0.23551 -0.19294
 C23 C -0.19920 0.25553 -0.21534
 C24 C -0.18821 0.24109 -0.25187
 H25 H -0.23510 0.15950 -0.25121
 H26 H -0.23336 0.24666 -0.16486
 H27 H -0.17028 0.25779 -0.26963
 C28 C 0.18463 0.80070 -0.21419
 C29 C 0.16499 0.77578 -0.19125
 C30 C 0.18026 0.76471 -0.15528
 C31 C 0.21434 0.78033 -0.14137
 C32 C 0.23437 0.80559 -0.16389
 C33 C 0.21992 0.81428 -0.20109
 H34 H 0.13796 0.76487 -0.20153
 H35 H 0.22537 0.77242 -0.11307
 H36 H 0.23396 0.83479 -0.21826
 C37 C 0.21061 1.21228 0.75939
 C38 C 0.24623 1.20017 0.77394
 C39 C 0.26375 1.21825 0.80615
 C40 C 0.24504 1.24876 0.82386
 C41 C 0.20902 1.26033 0.81061
 C42 C 0.19272 1.24293 0.77766
 H43 H 0.25931 1.17531 0.76171
 H44 H 0.25758 1.26249 0.84919
 H45 H 0.16536 1.25292 0.76705
 C46 C 0.81691 0.79089 0.73626
 C47 C 0.78415 0.80792 0.75236
 C48 C 0.76445 0.79133 0.78266
 C49 C 0.77695 0.75671 0.79608
 C50 C 0.80919 0.73832 0.78037
 C51 C 0.82818 0.75578 0.74984
 H52 H 0.77553 0.83545 0.74364
 H53 H 0.76201 0.74525 0.82020
 H54 H 0.85073 0.74125 0.73459
 C55 C 0.19974 0.81021 1.21408
 C56 C 0.18070 0.78202 1.19268
 C57 C 0.19461 0.76809 1.15722
 C58 C 0.22865 0.78155 1.14276
 C59 C 0.24846 0.80964 1.16303
 C60 C 0.23416 0.82349 1.19874
 H61 H 0.15546 0.76934 1.20389
 H62 H 0.23925 0.77065 1.11526
 H63 H 0.24872 0.84645 1.21281
 C64 C 0.80707 1.19645 1.26168
 C65 C 0.77424 1.18002 1.24516
 C66 C 0.75342 1.19748 1.21557
 C67 C 0.76404 1.23261 1.20366
 C68 C 0.79734 1.24977 1.21855
 C69 C 0.81850 1.23103 1.24770
 H70 H 0.76615 1.15239 1.25325
 H71 H 0.74616 1.24579 1.18202
 H72 H 0.84441 1.24289 1.25942
 O73 O 0.54789 0.96590 0.91250
 O74 O 0.48843 0.96116 1.05068
 O75 O 0.55896 0.94935 1.03141
 O76 O 0.43572 0.99872 0.95356
 O77 O 0.54940 0.98606 1.07799
 O78 O 0.47670 0.96588 0.92023
 O79 O 0.43929 0.98348 1.02187
 O80 O 0.56628 0.94103 0.96522
 C81 C 0.56545 0.94072 0.92932
 C82 C 0.45419 0.95860 1.04204
 C83 C 0.56359 0.95629 1.06657
 C84 C 0.44332 0.97154 0.93119
 O85 O 0.47731 1.03841 0.91623
 O86 O 0.53663 1.04971 1.04956
 O87 O 0.59291 1.01120 0.95682
 O88 O 0.46886 1.05196 1.03804
 O89 O 0.48429 1.02214 1.08965
 O90 O 0.54901 1.03613 0.91819
 O91 O 0.46869 1.06518 0.97128
 O92 O 0.58688 1.02063 1.02822
 Co93 Co 0.51261 1.00153 0.92379
 Co94 Co 0.51111 1.00568 1.04749
 Co95 Co 0.57147 0.98242 0.99517
 Co96 Co 0.45817 1.02277 0.99559
 O97 O 0.51505 1.00149 0.98801
 C98 C 0.46688 1.06635 0.93539
 C99 C 0.57208 1.04835 1.04571
 C100 C 0.58300 1.03347 0.93012
 C101 C 0.46188 1.04636 1.07344
 O102 O 0.02867 0.46482 0.07573
 O103 O 0.03655 0.53473 -0.03052
 O104 O 0.00273 0.42416 -0.03302
 O105 O -0.01273 0.57567 0.04518
 O106 O 0.04162 0.46831 -0.03653
 O107 O 0.02801 0.53536 0.06697
 O108 O -0.00816 0.57473 -0.02450
 O109 O 0.00282 0.42144 0.03837
 C110 C 0.02733 0.43187 0.06345
 C111 C 0.02632 0.56771 -0.03000
 C112 C 0.03576 0.43473 -0.03905
 C113 C 0.02009 0.56794 0.05835
 O114 O -0.04508 0.53602 0.08779
 O115 O -0.02795 0.46633 -0.07466
 O116 O -0.07061 0.43592 0.03947
 O117 O -0.07551 0.53817 -0.03099
 O118 O -0.03040 0.53292 -0.07145
 O119 O -0.04453 0.46707 0.08830
 O120 O -0.08210 0.54299 0.03876
 O121 O -0.06944 0.44791 -0.03343
 Co122 Co -0.00919 0.50096 0.07280
 Co123 Co 0.00283 0.50037 -0.04809
 Co124 Co -0.03254 0.43882 0.00311
 Co125 Co -0.04262 0.55297 0.00717
 O126 O -0.02019 0.49796 0.00927
 C127 C -0.07732 0.54459 0.07447
 C128 C -0.06015 0.45276 -0.06775
 C129 C -0.06897 0.44454 0.07494
 C130 C -0.06456 0.54067 -0.06493
 O131 O 1.08893 0.03095 0.46969
 O132 O 0.93288 0.00801 0.53854
 O133 O 0.98437 0.02002 0.42602
 O134 O 1.04155 0.05133 0.55485
 O135 O 0.95746 0.03726 0.47864
 O136 O 1.09417 0.02456 0.54307
 O137 O 0.97808 0.04351 0.54821
 O138 O 1.05297 0.00703 0.42265
 C139 C 1.07773 0.03008 0.43472
 C140 C 0.94426 0.03712 0.55423
 C141 C 0.96350 0.04269 0.44391
 C142 C 1.07646 0.05128 0.55768
 O143 O 1.08792 -0.04632 0.53521
 O144 O 0.92181 -0.02323 0.46851
 O145 O 1.03924 -0.06373 0.44416
 O146 O 0.98398 -0.02958 0.57259
 O147 O 0.96273 -0.05456 0.51859
 O148 O 1.09231 -0.04018 0.46195
 O149 O 1.05228 -0.01995 0.58014
 O150 O 0.97270 -0.05151 0.44753
 Co151 Co 1.08395 -0.00752 0.50240
 Co152 Co 0.96269 -0.00886 0.49752
 Co153 Co 1.01290 -0.02051 0.44071
 Co154 Co 1.01427 0.00991 0.55938
 O155 O 1.02083 -0.00577 0.50149
 C156 C 1.07603 -0.04480 0.56951
 C157 C 0.93713 -0.04596 0.44330
 C158 C 1.07443 -0.06456 0.44340
 C159 C 0.96768 -0.05610 0.55462
 C160 C 1.14115 0.13225 0.32599
 C161 C 1.18030 0.14014 0.33027
 C162 C 1.19849 0.16122 0.30234
 C163 C 1.17788 0.17633 0.27079
 C164 C 1.13813 0.17135 0.26913
 C165 C 1.12010 0.14931 0.29603
 C166 C 1.12377 0.10621 0.35377
 C167 C 1.08734 0.09111 0.34763
 C168 C 1.07284 0.06595 0.37368
 C169 C 1.09374 0.05612 0.40703
 C170 C 1.13020 0.07072 0.41327
 C171 C 1.14582 0.09465 0.38623
 C172 C 1.20098 0.12711 0.36249
 C173 C 1.18376 0.10577 0.39053
 H174 H 1.23084 0.13379 0.36628
 H175 H 1.20082 0.09666 0.41516
 H176 H 1.22870 0.16652 0.30577
 H177 H 1.12098 0.18227 0.24549
 H178 H 1.04509 0.05421 0.36777
 H179 H 1.14699 0.06231 0.43840
 H180 H 1.08973 0.14575 0.29276
 H181 H 1.07012 0.09755 0.32233
 C182 C 0.84902 -0.14710 0.34544
 C183 C 0.80894 -0.14334 0.34612
 C184 C 0.78616 -0.16637 0.32229
 C185 C 0.80244 -0.19336 0.29692
 C186 C 0.84243 -0.19767 0.29772
 C187 C 0.86525 -0.17503 0.32147
 C188 C 0.87240 -0.12103 0.37016
 C189 C 0.91251 -0.12179 0.37042
 C190 C 0.93305 -0.09706 0.39388
 C191 C 0.91435 -0.07078 0.41773
 C192 C 0.87441 -0.06936 0.41746
 C193 C 0.85335 -0.09425 0.39387
 C194 C 0.79176 -0.11641 0.37037
 C195 C 0.81348 -0.09248 0.39380
 H196 H 0.76099 -0.11363 0.37109
 H197 H 0.79881 -0.07208 0.41194
 H198 H 0.75548 -0.16346 0.32430
 H199 H 0.85693 -0.21700 0.27836
 H200 H 0.96388 -0.09877 0.39347
 H201 H 0.85971 -0.04909 0.43574
 H202 H 0.89561 -0.17953 0.31995
 H203 H 0.92870 -0.14120 0.35279
 C204 C 0.85719 0.14418 0.64540
 C205 C 0.81942 0.13540 0.65480
 C206 C 0.79928 0.15773 0.68174
 C207 C 0.81684 0.18796 0.70154
 C208 C 0.85377 0.19751 0.68987
 C209 C 0.87339 0.17626 0.66223
 C210 C 0.87901 0.11797 0.61946
 C211 C 0.91714 0.12399 0.60971
 C212 C 0.93737 0.09768 0.58816
 C213 C 0.92036 0.06458 0.57532
 C214 C 0.88189 0.05866 0.58345
 C215 C 0.86112 0.08517 0.60557
 C216 C 0.80252 0.10352 0.63854
 C217 C 0.82298 0.07884 0.61462
 H218 H 0.77337 0.09689 0.64542
 H219 H 0.80897 0.05406 0.60371
 H220 H 0.76999 0.15083 0.68740
 H221 H 0.86943 0.21976 0.70388
 H222 H 0.96691 0.10326 0.58194
 H223 H 0.86846 0.03327 0.57335
 H224 H 0.90192 0.18474 0.65593
 H225 H 0.93228 0.14851 0.61883
 C226 C 1.13659 -0.14413 0.68655
 C227 C 1.11559 -0.14685 0.72130
 C228 C 1.13039 -0.16724 0.75253
 C229 C 1.16667 -0.18378 0.75040
 C230 C 1.18730 -0.18145 0.71592
 C231 C 1.17238 -0.16219 0.68421
 C232 C 1.12069 -0.12040 0.65473
 C233 C 1.13857 -0.11679 0.61850
 C234 C 1.12367 -0.09275 0.59066
 C235 C 1.09081 -0.07146 0.59830
 C236 C 1.07225 -0.07559 0.63385
 C237 C 1.08653 -0.10021 0.66172
 C238 C 1.08086 -0.12775 0.72546
 C239 C 1.06689 -0.10455 0.69652
 H240 H 1.06478 -0.12985 0.75204
 H241 H 1.04040 -0.08957 0.70160
 H242 H 1.11470 -0.16832 0.77947
 H243 H 1.21547 -0.19391 0.71387
 H244 H 1.13838 -0.09033 0.56331
 H245 H 1.04655 -0.05962 0.63989
 H246 H 1.18990 -0.16073 0.65874
 H247 H 1.16408 -0.13218 0.61110
 C248 C 0.34949 1.13975 1.15155
 C249 C 0.32758 1.16328 1.12735
 C250 C 0.29613 1.18300 1.14234
 C251 C 0.28584 1.18037 1.18180
 C252 C 0.31011 1.15929 1.20624
 C253 C 0.34110 1.13916 1.19139
 C254 C 0.38037 1.11626 1.13343
 C255 C 0.40095 1.08869 1.15377
 C256 C 0.42796 1.06616 1.13467
 C257 C 0.43525 1.07091 1.09510
 C258 C 0.41560 1.09887 1.07503
 C259 C 0.38784 1.12082 1.09348
 C260 C 0.33667 1.16654 1.08801
 C261 C 0.36661 1.14626 1.07163
 H262 H 0.32029 1.18495 1.06951
 H263 H 0.37241 1.14966 1.04103
 H264 H 0.27857 1.19836 1.12207
 H265 H 0.30580 1.15837 1.23732
 H266 H 0.44271 1.04468 1.15070
 H267 H 0.42110 1.10298 1.04445
 H268 H 0.35815 1.12332 1.21161
 H269 H 0.39587 1.08345 1.18406
 C270 C 0.32425 0.87187 0.88006
 C271 C 0.32685 0.85561 0.84245
 C272 C 0.29705 0.83356 0.82784
 C273 C 0.26617 0.82464 0.85159
 C274 C 0.26652 0.83725 0.89069
 C275 C 0.29474 0.86118 0.90452
 C276 C 0.35383 0.89896 0.89275
 C277 C 0.34853 0.92359 0.92448
 C278 C 0.37707 0.94825 0.93560
 C279 C 0.41216 0.94773 0.91651
 C280 C 0.41686 0.92467 0.88340
 C281 C 0.38722 0.90148 0.87047
 C282 C 0.35952 0.86093 0.82024
 C283 C 0.38988 0.88204 0.83479
 H284 H 0.36211 0.84774 0.79174
 H285 H 0.41506 0.88445 0.81715
 H286 H 0.29851 0.82237 0.79832
 H287 H 0.24344 0.83097 0.91001
 H288 H 0.37195 0.96720 0.95989
 H289 H 0.44310 0.92551 0.86714
 H290 H 0.29317 0.87107 0.93439
 H291 H 0.32213 0.92472 0.94031
 C292 C 0.64281 0.85073 1.16479
 C293 C 0.66399 0.82261 1.14515
 C294 C 0.68819 0.79896 1.16614
 C295 C 0.69169 0.80247 1.20683
 C296 C 0.66856 0.82860 1.22650
 C297 C 0.64444 0.85246 1.20583
 C298 C 0.62059 0.87798 1.14081
 C299 C 0.60163 0.90928 1.15704
 C300 C 0.58295 0.93481 1.13307
 C301 C 0.58250 0.92952 1.09253
 C302 C 0.60084 0.89828 1.07622
 C303 C 0.62020 0.87292 1.09981
 C304 C 0.66193 0.81892 1.10452
 C305 C 0.64011 0.84326 1.08237
 H306 H 0.67780 0.79709 1.08955
 H307 H 0.63972 0.83943 1.05096
 H308 H 0.70602 0.77921 1.15036
 H309 H 0.66996 0.83136 1.25796
 H310 H 0.56897 0.95877 1.14625
 H311 H 0.60088 0.89410 1.04483
 H312 H 0.62791 0.87246 1.22242
 H313 H 0.60148 0.91489 1.18801
 C314 C 0.68577 1.13402 0.85658
 C315 C 0.68192 1.13685 0.81572
 C316 C 0.70610 1.15976 0.79529
 C317 C 0.73394 1.18129 0.81472
 C318 C 0.73560 1.18060 0.85573
 C319 C 0.71220 1.15697 0.87634
 C320 C 0.66089 1.10718 0.87684
 C321 C 0.66516 1.09873 0.91665
 C322 C 0.64072 1.07371 0.93400
 C323 C 0.61129 1.05720 0.91212
 C324 C 0.60748 1.06470 0.87243
 C325 C 0.63234 1.08881 0.85455
 C326 C 0.65375 1.11706 0.79528
 C327 C 0.62896 1.09415 0.81442
 H328 H 0.65053 1.11964 0.76401
 H329 H 0.60725 1.07981 0.79739
 H330 H 0.70242 1.16149 0.76397
 H331 H 0.75654 1.19654 0.87206
 H332 H 0.64409 1.06808 0.96473
 H333 H 0.58516 1.05134 0.85528
 H334 H 0.71531 1.15691 0.90765
 H335 H 0.68725 1.11101 0.93468
 C336 C 0.13195 0.32300 0.12858
 C337 C 0.14210 0.32811 0.16839
 C338 C 0.16397 0.30107 0.18754
 C339 C 0.17689 0.26930 0.16737
 C340 C 0.16878 0.26521 0.12747
 C341 C 0.14644 0.29164 0.10824
 C342 C 0.10596 0.35111 0.11011
 C343 C 0.09058 0.34660 0.07215
 C344 C 0.06520 0.37290 0.05695
 C345 C 0.05506 0.40461 0.07890
 C346 C 0.07057 0.40960 0.11647
 C347 C 0.09513 0.38284 0.13249
 C348 C 0.13022 0.36002 0.18892
 C349 C 0.10780 0.38710 0.17115
 H350 H 0.13840 0.36415 0.21924
 H351 H 0.09938 0.41131 0.18832
 H352 H 0.17078 0.30452 0.21830
 H353 H 0.17873 0.24088 0.11144
 H354 H 0.05351 0.36845 0.02788
 H355 H 0.06232 0.43374 0.13388
 H356 H 0.14066 0.28689 0.07762
 H357 H 0.09712 0.32262 0.05408
 C358 C -0.14766 0.35415 -0.16536
 C359 C -0.12634 0.32961 -0.18951
 C360 C -0.14357 0.29814 -0.20631
 C361 C -0.18214 0.29055 -0.19980
 C362 C -0.20364 0.31588 -0.17732
 C363 C -0.18674 0.34724 -0.16033
 C364 C -0.12711 0.38518 -0.14462
 C365 C -0.14480 0.40880 -0.11690
 C366 C -0.12323 0.43334 -0.09399
 C367 C -0.08376 0.43564 -0.09881
 C368 C -0.06638 0.41485 -0.12871
 C369 C -0.08752 0.38899 -0.15091
 C370 C -0.08764 0.33593 -0.19586
 C371 C -0.06871 0.36515 -0.17721
 H372 H -0.07145 0.31744 -0.21483
 H373 H -0.03849 0.36816 -0.18221
 H374 H -0.12637 0.27874 -0.22324
 H375 H -0.23366 0.31135 -0.17262
 H376 H -0.13712 0.44919 -0.07096
 H377 H -0.03573 0.41610 -0.13207
 H378 H -0.20467 0.36539 -0.14301
 H379 H -0.17482 0.40739 -0.11092
 C380 C 0.12150 0.68241 -0.09080
 C381 C 0.10219 0.71496 -0.10299
 C382 C 0.12160 0.74178 -0.12373
 C383 C 0.16035 0.73715 -0.13196
 C384 C 0.17993 0.70582 -0.11837
 C385 C 0.16080 0.67865 -0.09817
 C386 C 0.09893 0.65311 -0.07144
 C387 C 0.11438 0.61823 -0.06145
 C388 C 0.09120 0.59076 -0.04661
 C389 C 0.05227 0.59761 -0.04087
 C390 C 0.03713 0.63285 -0.04879
 C391 C 0.05979 0.66019 -0.06471
 C392 C 0.06358 0.72045 -0.09474
 C393 C 0.04294 0.69384 -0.07559
 H394 H 0.04895 0.74558 -0.10357
 H395 H 0.01298 0.69922 -0.07033
 H396 H 0.10657 0.76638 -0.13355
 H397 H 0.20998 0.70192 -0.12428
 H398 H 0.10356 0.56383 -0.04053
 H399 H 0.00703 0.63848 -0.04451
 H400 H 0.17720 0.65491 -0.08885
 H401 H 0.14394 0.61117 -0.06606
 C402 C -0.17856 0.63904 0.16405
 C403 C -0.17011 0.64490 0.20408
 C404 C -0.18917 0.67315 0.22533
 C405 C -0.21487 0.69751 0.20665
 C406 C -0.22270 0.69151 0.16675
 C407 C -0.20531 0.66257 0.14592
 C408 C -0.15631 0.61012 0.14184
 C409 C -0.16420 0.60090 0.10255
 C410 C -0.13969 0.57760 0.08156
 C411 C -0.10672 0.56273 0.09913
 C412 C -0.10053 0.56894 0.13925
 C413 C -0.12527 0.59233 0.16075
 C414 C -0.14116 0.62397 0.22204
 C415 C -0.11864 0.59887 0.20064
 H416 H -0.13456 0.62836 0.25270
 H417 H -0.09540 0.58473 0.21546
 H418 H -0.18282 0.67688 0.25610
 H419 H -0.24108 0.71023 0.15074
 H420 H -0.14575 0.57259 0.05089
 H421 H -0.07564 0.55691 0.15337
 H422 H -0.21185 0.66034 0.11519
 H423 H -0.18867 0.61200 0.08722
 C424 C 1.15082 0.15032 0.66863
 C425 C 1.19107 0.15180 0.66864
 C426 C 1.21047 0.17288 0.69743
 C427 C 1.19039 0.19121 0.72756
 C428 C 1.15051 0.18815 0.72811
 C429 C 1.13100 0.16840 0.69902
 C430 C 1.13106 0.12779 0.63749
 C431 C 1.09115 0.12750 0.63301
 C432 C 1.07382 0.10388 0.60570
 C433 C 1.09573 0.07984 0.58213
 C434 C 1.13567 0.08162 0.58460
 C435 C 1.15344 0.10582 0.61173
 C436 C 1.21164 0.13120 0.64073
 C437 C 1.19328 0.10803 0.61349
 H438 H 1.24250 0.13206 0.64076
 H439 H 1.21053 0.09171 0.59340
 H440 H 1.24124 0.17465 0.69651
 H441 H 1.13409 0.20032 0.75168
 H442 H 1.04298 0.10359 0.60404
 H443 H 1.15288 0.06371 0.56595
 H444 H 1.10049 0.16671 0.70160
 H445 H 1.07274 0.14507 0.65048
 C446 C 0.88501 -0.15239 0.65502
 C447 C 0.84484 -0.14851 0.65391
 C448 C 0.82244 -0.16679 0.68107
 C449 C 0.83919 -0.19090 0.70835
 C450 C 0.87911 -0.19615 0.70753
 C451 C 0.90162 -0.17702 0.68166
 C452 C 0.90805 -0.13019 0.62756
 C453 C 0.94813 -0.12754 0.63032
 C454 C 0.96796 -0.10451 0.60556
 C455 C 0.94850 -0.08466 0.57680
 C456 C 0.90885 -0.08783 0.57309
 C457 C 0.88842 -0.10938 0.59899
 C458 C 0.82721 -0.12688 0.62529
 C459 C 0.84850 -0.10850 0.59784
 H460 H 0.79642 -0.12436 0.62388
 H461 H 0.83345 -0.09226 0.57619
 H462 H 0.79174 -0.16336 0.67966
 H463 H 0.89362 -0.21371 0.72830
 H464 H 0.99847 -0.10182 0.60917
 H465 H 0.89362 -0.07139 0.55170
 H466 H 0.93199 -0.18196 0.68293
 H467 H 0.96445 -0.14181 0.65236
 C468 C 1.15193 -0.14439 0.31917
 C469 C 1.12852 -0.16170 0.29057
 C470 C 1.14446 -0.17648 0.25627
 C471 C 1.18402 -0.17483 0.24926
 C472 C 1.20706 -0.15764 0.27820
 C473 C 1.19138 -0.14278 0.31248
 C474 C 1.13330 -0.12739 0.35457
 C475 C 1.15377 -0.10845 0.38428
 C476 C 1.13468 -0.08999 0.41458
 C477 C 1.09474 -0.09024 0.41634
 C478 C 1.07430 -0.11113 0.38840
 C479 C 1.09314 -0.12921 0.35744
 C480 C 1.08907 -0.16355 0.29583
 C481 C 1.07178 -0.14770 0.32852
 H482 H 1.07113 -0.17702 0.27398
 H483 H 1.04106 -0.14928 0.33078
 H484 H 1.12512 -0.18750 0.23426
 H485 H 1.23767 -0.15654 0.27537
 H486 H 1.15120 -0.07422 0.43585
 H487 H 1.04343 -0.11155 0.38939
 H488 H 1.21073 -0.13015 0.33333
 H489 H 1.18440 -0.10653 0.38403
 C490 C 0.87255 0.13876 0.34697
 C491 C 0.89090 0.15858 0.31773
 C492 C 0.86919 0.17908 0.29080
 C493 C 0.82899 0.17772 0.29031
 C494 C 0.81117 0.15614 0.31830
 C495 C 0.83249 0.13752 0.34656
 C496 C 0.89663 0.11768 0.37546
 C497 C 0.88153 0.10148 0.40872
 C498 C 0.90443 0.07930 0.43247
 C499 C 0.94270 0.07227 0.42329
 C500 C 0.95870 0.09031 0.39178
 C501 C 0.93614 0.11380 0.36848
 C502 C 0.93066 0.15617 0.31426
 C503 C 0.95264 0.13326 0.33825
 H504 H 0.94483 0.17096 0.29157
 H505 H 0.98302 0.13101 0.33329
 H506 H 0.88388 0.19376 0.26837
 H507 H 0.78040 0.15455 0.31933
 H508 H 0.89158 0.06590 0.45689
 H509 H 0.98848 0.08577 0.38522
 H510 H 0.81714 0.12145 0.36720
 H511 H 0.85204 0.10532 0.41658
 C512 C 0.14172 0.33620 -0.11931
 C513 C 0.12698 0.30168 -0.13223
 C514 C 0.14905 0.27769 -0.15552
 C515 C 0.18610 0.28708 -0.16597
 C516 C 0.20121 0.32077 -0.15246
 C517 C 0.17926 0.34522 -0.12958
 C518 C 0.11643 0.36156 -0.09563
 C519 C 0.12726 0.39742 -0.08310
 C520 C 0.10158 0.42079 -0.06333
 C521 C 0.06471 0.40885 -0.05523
 C522 C 0.05430 0.37267 -0.06604
 C523 C 0.07947 0.34930 -0.08657
 C524 C 0.09034 0.29110 -0.12181
 C525 C 0.06720 0.31430 -0.09924
 H526 H 0.07927 0.26451 -0.13144
 H527 H 0.03891 0.30496 -0.09226
 H528 H 0.13760 0.25119 -0.16506
 H529 H 0.22994 0.32832 -0.15993
 H530 H 0.11030 0.44860 -0.05525
 H531 H 0.02583 0.36316 -0.06002
 H532 H 0.19220 0.37088 -0.12019
 H533 H 0.15498 0.40830 -0.08915
 C534 C -0.15672 0.34661 0.16810
 C535 C -0.18359 0.32474 0.14734
 C536 C -0.19950 0.29379 0.16456
 C537 C -0.18941 0.28351 0.20285
 C538 C -0.16435 0.30699 0.22404
 C539 C -0.14825 0.33785 0.20700
 C540 C -0.13714 0.37681 0.14692
 C541 C -0.10760 0.39831 0.16370
 C542 C -0.08691 0.42255 0.14098
 C543 C -0.09540 0.42601 0.10120
 C544 C -0.12674 0.40706 0.08517
 C545 C -0.14711 0.38221 0.10735
 C546 C -0.19346 0.33289 0.10879
 C547 C -0.17579 0.36116 0.08930
 H548 H -0.21450 0.31649 0.09304
 H549 H -0.18363 0.36561 0.05910
 H550 H -0.21755 0.27642 0.14636
 H551 H -0.15724 0.30222 0.25426
 H552 H -0.06291 0.43697 0.15406
 H553 H -0.13388 0.40990 0.05453
 H554 H -0.12892 0.35424 0.22471
 H555 H -0.09893 0.39564 0.19377
 C556 C -0.14644 0.64095 -0.16531
 C557 C -0.12348 0.66149 -0.19025
 C558 C -0.13839 0.69291 -0.20864
 C559 C -0.17679 0.70433 -0.20385
 C560 C -0.20012 0.68149 -0.18149
 C561 C -0.18521 0.65063 -0.16237
 C562 C -0.12801 0.61058 -0.14227
 C563 C -0.14673 0.59222 -0.11224
 C564 C -0.12676 0.56756 -0.08833
 C565 C -0.08799 0.56003 -0.09439
 C566 C -0.06989 0.57617 -0.12589
 C567 C -0.08911 0.60216 -0.14888
 C568 C -0.08534 0.65117 -0.19606
 C569 C -0.06875 0.62165 -0.17640
 H570 H -0.06786 0.66646 -0.21577
 H571 H -0.03895 0.61518 -0.18145
 H572 H -0.11869 0.70940 -0.22460
 H573 H -0.23036 0.68668 -0.17883
 H574 H -0.14127 0.55553 -0.06409
 H575 H -0.03977 0.57094 -0.13053
 H576 H -0.20453 0.63470 -0.14543
 H577 H -0.17617 0.59797 -0.10548
 C578 C 0.12710 0.68321 0.10174
 C579 C 0.11138 0.71890 0.10925
 C580 C 0.13404 0.74675 0.12619
 C581 C 0.17249 0.73987 0.13527
 C582 C 0.18878 0.70539 0.12552
 C583 C 0.16638 0.67726 0.10901
 C584 C 0.10088 0.65317 0.08762
 C585 C 0.11265 0.61586 0.08346
 C586 C 0.08644 0.58843 0.07337
 C587 C 0.04797 0.59747 0.06667
 C588 C 0.03622 0.63468 0.06910
 C589 C 0.06210 0.66238 0.08031
 C590 C 0.07298 0.72640 0.10061
 C591 C 0.04900 0.69885 0.08592
 H592 H 0.06114 0.75391 0.10578
 H593 H 0.01938 0.70595 0.08019
 H594 H 0.12163 0.77373 0.13310
 H595 H 0.21855 0.69979 0.13207
 H596 H 0.09629 0.55991 0.07119
 H597 H 0.00652 0.64191 0.06398
 H598 H 0.18019 0.65100 0.10276
 H599 H 0.14168 0.60710 0.08893
 C600 C 0.36367 1.16680 0.85751
 C601 C 0.33605 1.18455 0.88132
 C602 C 0.30428 1.20214 0.86436
 C603 C 0.29945 1.20283 0.82368
 C604 C 0.32792 1.18691 0.80013
 C605 C 0.35960 1.16913 0.81672
 C606 C 0.39485 1.14479 0.87689
 C607 C 0.42156 1.12311 0.85589
 C608 C 0.44676 1.09932 0.87521
 C609 C 0.44646 1.09700 0.91592
 C610 C 0.42209 1.12061 0.93728
 C611 C 0.39582 1.14377 0.91812
 C612 C 0.33958 1.18369 0.92196
 C613 C 0.36903 1.16402 0.93996
 H614 H 0.31874 1.19778 0.94019
 H615 H 0.36994 1.16349 0.97148
 H616 H 0.28242 1.21382 0.88310
 H617 H 0.32548 1.18779 0.76869
 H618 H 0.46548 1.08151 0.85809
 H619 H 0.42150 1.11893 0.96876
 H620 H 0.38020 1.15696 0.79709
 H621 H 0.42235 1.12281 0.82450
 C622 C 0.34531 0.86213 1.11181
 C623 C 0.31263 0.85322 1.08899
 C624 C 0.28187 0.83522 1.10572
 C625 C 0.28243 0.82650 1.14535
 C626 C 0.31479 0.83525 1.16798
 C627 C 0.34593 0.85267 1.15147
 C628 C 0.37677 0.88299 1.09308
 C629 C 0.41093 0.89276 1.11269
 C630 C 0.43753 0.91536 1.09499
 C631 C 0.43057 0.92884 1.05753
 C632 C 0.39807 0.91718 1.03695
 C633 C 0.37132 0.89436 1.05418
 C634 C 0.31017 0.86344 1.04992
 C635 C 0.33870 0.88388 1.03302
 H636 H 0.28524 0.85647 1.03241
 H637 H 0.33487 0.89209 1.00306
 H638 H 0.25670 0.82931 1.08812
 H639 H 0.31598 0.82865 1.19860
 H640 H 0.46259 0.92394 1.11143
 H641 H 0.39307 0.92683 1.00782
 H642 H 0.36983 0.85913 1.17038
 H643 H 0.41716 0.88401 1.14196
 C644 C 0.67191 1.14007 1.14215
 C645 C 0.70998 1.12697 1.14606
 C646 C 0.73551 1.14495 1.17164
 C647 C 0.72436 1.17684 1.19262
 C648 C 0.68704 1.19052 1.18821
 C649 C 0.66090 1.17216 1.16361
 C650 C 0.64537 1.11927 1.11499
 C651 C 0.60614 1.12781 1.11107
 C652 C 0.58235 1.10594 1.08711
 C653 C 0.59723 1.07549 1.06597
 C654 C 0.63651 1.06792 1.06843
 C655 C 0.66031 1.08880 1.09325
 C656 C 0.72274 1.09649 1.12379
 C657 C 0.69860 1.07817 1.09757
 H658 H 0.75198 1.08677 1.12648
 H659 H 0.70993 1.05472 1.08101
 H660 H 0.76471 1.13497 1.17418
 H661 H 0.67822 1.21557 1.20368
 H662 H 0.55210 1.11221 1.08603
 H663 H 0.64842 1.04427 1.05262
 H664 H 0.63254 1.18383 1.16122
 H665 H 0.59310 1.15045 1.12724
 C666 C 0.67176 0.84939 0.84065
 C667 C 0.69961 0.82967 0.86234
 C668 C 0.72953 0.81098 0.84322
 C669 C 0.73236 0.81120 0.80243
 C670 C 0.70464 0.83061 0.78094
 C671 C 0.67473 0.84943 0.79968
 C672 C 0.64110 0.87019 0.86249
 C673 C 0.61264 0.89160 0.84391
 C674 C 0.58674 0.91290 0.86571
 C675 C 0.58819 0.91318 0.90659
 C676 C 0.61501 0.89029 0.92535
 C677 C 0.64159 0.86924 0.90374
 C678 C 0.69784 0.82907 0.90305
 C679 C 0.66946 0.84838 0.92328
 H680 H 0.71906 0.81378 0.91963
 H681 H 0.66977 0.84750 0.95483
 H682 H 0.75118 0.79683 0.86034
 H683 H 0.70593 0.83100 0.74945
 H684 H 0.56629 0.93021 0.85044
 H685 H 0.61653 0.89030 0.95692
 H686 H 0.65437 0.86390 0.78157
 H687 H 0.61051 0.89312 0.81262
   
