data_POSCAR
  _audit_creation_date              2014-09-24
  _audit_creation_method            'ToBaCCo'
  _symmetry_space_group_name_H-M    'P1'
  _symmetry_Int_Tables_number       1
  _symmetry_cell_setting            triclinic
  loop_
  _symmetry_equiv_pos_as_xyz
 x,y,z
_cell_length_a 14.7110
_cell_length_b 14.7824
_cell_length_c 14.7266
_cell_angle_alpha 89.822600
_cell_angle_beta 83.502900
_cell_angle_gamma 93.509800
loop_
  _atom_site_label
  _atom_site_type_symbol
  _atom_site_fract_x
  _atom_site_fract_y
  _atom_site_fract_z
O1 O 0.61169 0.51126 0.08111
 O2 O 0.36291 0.48674 0.06733
 O3 O 0.48852 0.37474 0.07411
 O4 O 0.48113 0.62262 0.07447
 O5 O 0.50980 0.62601 -0.07540
 O6 O 0.51556 0.37796 -0.07585
 O7 O 0.38541 0.49049 -0.08241
 O8 O 0.63476 0.51290 -0.06880
 Cu9 Cu 0.48404 0.49865 0.08933
 Cu10 Cu 0.51333 0.50205 -0.09074
 C11 C 0.66647 0.51810 0.00790
 C12 C 0.33063 0.48242 -0.00915
 C13 C 0.50215 0.33343 -0.00119
 C14 C 0.49556 0.66721 -0.00010
 O15 O -0.08030 0.61753 0.51135
 O16 O -0.06841 0.36933 0.51587
 O17 O -0.06411 0.49512 0.63552
 O18 O -0.08412 0.48657 0.38938
 O19 O 0.06563 0.51013 0.36350
 O20 O 0.08611 0.51158 0.60987
 O21 O 0.08151 0.38427 0.48331
 O22 O 0.07002 0.63226 0.48808
 Cu23 Cu -0.08941 0.49112 0.51572
 Cu24 Cu 0.09099 0.51058 0.48340
 C25 C -0.00666 0.66808 0.50126
 C26 C 0.00805 0.33398 0.49825
 C27 C 0.01350 0.50561 0.66545
 C28 C -0.01174 0.49613 0.33375
 O29 O 0.49712 0.07358 0.62653
 O30 O 0.51516 0.07526 0.37507
 O31 O 0.38103 0.07724 0.50819
 O32 O 0.63119 0.07021 0.49380
 O33 O 0.61992 -0.07845 0.49395
 O34 O 0.36980 -0.07144 0.50973
 O35 O 0.50293 -0.07340 0.37645
 O36 O 0.48657 -0.07496 0.62802
 Cu37 Cu 0.50756 0.08899 0.50083
 Cu38 Cu 0.49348 -0.08948 0.50221
 C39 C 0.48561 -0.00068 0.67129
 C40 C 0.51486 0.00098 0.33199
 C41 C 0.33179 0.00350 0.51464
 C42 C 0.66917 -0.00475 0.48789
 C43 C 0.43348 0.22279 -0.14929
 C44 C 0.43003 0.15855 -0.21553
 C45 C 0.46906 0.08301 -0.18424
 N46 N 0.49498 0.09889 -0.10015
 C47 C 0.47549 0.18530 -0.07966
 C48 C 0.47571 -0.00030 -0.23130
 C49 C 0.46500 -0.08333 -0.18150
 C50 C 0.41887 -0.16155 -0.20867
 C51 C 0.42217 -0.22575 -0.14199
 C52 C 0.47075 -0.18566 -0.07572
 N53 N 0.49483 -0.09802 -0.09924
 C54 C 0.49701 -0.23168 0.00076
 C55 C 0.52304 -0.18494 0.07844
 C56 C 0.56386 -0.22286 0.14872
 C57 C 0.56753 -0.15846 0.21484
 C58 C 0.53012 -0.08249 0.18263
 N59 N 0.50466 -0.09820 0.09838
 C60 C 0.52388 0.00076 0.22929
 C61 C 0.53351 0.08391 0.18015
 C62 C 0.57832 0.16239 0.20820
 C63 C 0.57501 0.22672 0.14160
 C64 C 0.52747 0.18641 0.07466
 N65 N 0.50413 0.09855 0.09769
 C66 C 0.50127 0.23228 -0.00197
 H67 H 0.40552 0.28855 -0.15188
 H68 H 0.39717 0.16550 -0.27705
 H69 H 0.46213 0.05410 0.06375
 H70 H 0.38256 -0.17087 -0.26814
 H71 H 0.39053 -0.29377 -0.14201
 H72 H 0.59074 -0.28908 0.15194
 H73 H 0.59953 -0.16571 0.27682
 H74 H 0.60612 0.29492 0.14214
 H75 H 0.53765 -0.05387 -0.06587
 H76 H 0.61418 0.17182 0.26796
 C77 C -0.12711 0.59274 0.78697
 C78 C -0.19869 0.59380 0.85460
 C79 C -0.17468 0.54392 0.92706
 N80 N -0.08995 0.51359 0.90641
 C81 C -0.06173 0.54145 0.81969
 C82 C -0.23146 0.52690 1.01017
 C83 C -0.19314 0.52403 1.09406
 C84 C -0.23321 0.55652 1.17625
 C85 C -0.17055 0.55042 1.23821
 C86 C -0.09411 0.51275 1.19295
 N87 N -0.10848 0.49753 1.10491
 C88 C -0.01527 0.48923 1.23297
 C89 C 0.06375 0.46046 1.17984
 C90 C 0.12861 0.40892 1.21293
 C91 C 0.19994 0.40677 1.14523
 C92 C 0.17667 0.45701 1.07249
 N93 N 0.09218 0.48798 1.09300
 C94 C 0.23379 0.47338 0.98908
 C95 C 0.19469 0.47514 0.90528
 C96 C 0.23350 0.44082 0.82335
 C97 C 0.17081 0.44764 0.76155
 C98 C 0.09549 0.48742 0.80651
 N99 N 0.11054 0.50313 0.89435
 C100 C 0.01711 0.51235 0.76635
 H101 H -0.12355 0.62662 0.72129
 H102 H -0.25996 0.63014 0.85161
 H103 H 0.06877 0.53807 0.94214
 H104 H -0.29797 0.58755 1.18956
 H105 H -0.18066 0.57360 1.30783
 H106 H 0.12470 0.37542 1.27884
 H107 H 0.26066 0.36961 1.14843
 H108 H 0.18017 0.42348 0.69227
 H109 H -0.06572 0.46408 1.05677
 H110 H 0.29758 0.40853 0.81016
 C111 C 0.20340 -0.15350 0.58220
 C112 C 0.13568 -0.22035 0.57938
 C113 C 0.06999 -0.18565 0.53072
 N114 N 0.09426 -0.09829 0.50641
 C115 C 0.17702 -0.07937 0.53610
 C116 C -0.00854 -0.23593 0.50569
 C117 C -0.08669 -0.19171 0.48409
 C118 C -0.15823 -0.23160 0.44131
 C119 C -0.22089 -0.16739 0.43614
 C120 C -0.18603 -0.08912 0.47469
 N121 N -0.10371 -0.10407 0.50286
 C122 C -0.22838 -0.00549 0.47803
 C123 C -0.17595 0.07778 0.46424
 C124 C -0.20315 0.15268 0.41977
 C125 C -0.13489 0.21927 0.42183
 C126 C -0.06810 0.18333 0.46783
 N127 N -0.09230 0.09594 0.49184
 C128 C 0.00992 0.23300 0.49365
 C129 C 0.08691 0.18919 0.51755
 C130 C 0.15835 0.23026 0.55927
 C131 C 0.22144 0.16642 0.56491
 C132 C 0.18678 0.08750 0.52717
 N133 N 0.10430 0.10167 0.49928
 C134 C 0.22936 0.00410 0.52356
 H135 H 0.26287 -0.15799 0.61856
 H136 H 0.13415 -0.28617 0.61207
 H137 H 0.06627 0.05639 0.46225
 H138 H -0.16409 -0.29873 0.41303
 H139 H -0.28203 -0.17641 0.40192
 H140 H -0.26378 0.15813 0.38538
 H141 H -0.13411 0.28595 0.39113
 H142 H 0.28303 0.17638 0.59827
 H143 H -0.06515 -0.05900 0.53964
 H144 H 0.16419 0.29829 0.58540
   
