data_POSCAR
  _audit_creation_date              2014-09-24
  _audit_creation_method            'ToBaCCo'
  _symmetry_space_group_name_H-M    'P1'
  _symmetry_Int_Tables_number       1
  _symmetry_cell_setting            triclinic
  loop_
  _symmetry_equiv_pos_as_xyz
 x,y,z
_cell_length_a 27.0259
_cell_length_b 20.8681
_cell_length_c 20.8537
_cell_angle_alpha 89.999000
_cell_angle_beta 90.005700
_cell_angle_gamma 89.986400
loop_
  _atom_site_label
  _atom_site_type_symbol
  _atom_site_fract_x
  _atom_site_fract_y
  _atom_site_fract_z
C1 C 1.24985 0.25014 0.24973
 C2 C 0.74998 -0.25019 0.24993
 C3 C 0.75000 0.24960 -0.25002
 C4 C 1.25008 -0.24996 -0.25038
 C5 C 0.24991 0.24977 0.74998
 C6 C 0.75000 0.75007 0.74977
 C7 C 0.74984 0.24995 0.24978
 C8 C 0.24977 0.74952 0.25030
 O9 O 1.06911 0.10425 0.12189
 O10 O 1.12534 0.05435 0.05615
 C11 C 1.11393 0.09307 0.10263
 O12 O 0.93144 -0.12221 0.10521
 O13 O 0.87521 -0.05649 0.05530
 C14 C 0.88659 -0.10306 0.09388
 O15 O 1.06894 -0.11665 0.11233
 O16 O 1.12521 -0.05527 0.05735
 C17 C 1.11387 -0.09876 0.09955
 O18 O 0.93182 0.11118 0.11641
 O19 O 0.87551 0.05636 0.05496
 C20 C 0.88695 0.09853 0.09830
 Zr21 Zr 1.00034 0.07647 0.08389
 O22 O 0.99481 0.07386 0.18515
 O23 O 1.00601 0.17764 0.08709
 Zr24 Zr 1.00027 -0.08381 0.07795
 O25 O 0.99454 -0.08585 0.17922
 O26 O 1.00591 -0.18500 0.07644
 O27 O 1.04494 -0.00409 0.09373
 O28 O 0.95683 -0.00399 0.09294
 O29 O 0.93123 0.12088 -0.10440
 O30 O 0.87506 0.05528 -0.05432
 C31 C 0.88637 0.10183 -0.09308
 O32 O 1.06870 -0.10958 -0.11768
 O33 O 1.12519 -0.05385 -0.05734
 C34 C 1.11365 -0.09439 -0.10223
 O35 O 0.93180 -0.11263 -0.11501
 O36 O 0.87547 -0.05745 -0.05390
 C37 C 0.88692 -0.09963 -0.09725
 O38 O 1.06841 0.11546 -0.11114
 O39 O 1.12490 0.05419 -0.05634
 C40 C 1.11333 0.09765 -0.09838
 Zr41 Zr 0.99999 0.08256 -0.07665
 O42 O 0.99441 0.08495 -0.17791
 O43 O 1.00540 0.18377 -0.07466
 Zr44 Zr 1.00026 -0.07790 -0.08248
 O45 O 0.99572 -0.07250 -0.18375
 O46 O 1.00493 -0.17906 -0.08748
 Zr47 Zr 1.07530 -0.00055 0.00047
 Zr48 Zr 0.92519 -0.00062 0.00063
 O49 O 0.95672 0.00262 -0.09164
 O50 O 1.04468 0.00278 -0.09259
 O51 O 0.95564 0.09246 0.00412
 O52 O 1.04373 -0.09277 -0.00259
 O53 O 1.04354 0.09161 0.00387
 O54 O 0.95571 -0.09375 -0.00269
 H55 H 0.93484 -0.00501 0.13096
 H56 H 1.06565 -0.13085 -0.00343
 H57 H 0.93470 0.00367 -0.12963
 H58 H 1.06537 0.12975 0.00492
 H59 H 0.98008 -0.20131 0.04711
 H60 H 0.97798 -0.19684 -0.06081
 H61 H 1.02528 -0.04925 -0.19927
 H62 H 1.02255 0.06026 -0.19548
 H63 H 0.97942 0.19988 -0.04542
 H64 H 0.97772 0.19550 0.06291
 H65 H 1.02132 0.04542 0.20123
 H66 H 1.02361 -0.06315 0.19691
 O67 O 1.06864 0.61023 0.61656
 O68 O 1.12511 0.55318 0.55745
 C69 C 1.11359 0.59445 0.60166
 O70 O 0.93119 0.37805 0.60412
 O71 O 0.87496 0.44378 0.55426
 C72 C 0.88632 0.39713 0.59288
 O73 O 1.06838 0.38367 0.61083
 O74 O 1.12480 0.44521 0.55621
 C75 C 1.11327 0.40163 0.59815
 O76 O 0.93179 0.61332 0.61375
 O77 O 0.87530 0.55684 0.55412
 C78 C 0.88685 0.59975 0.59670
 Zr79 Zr 1.00008 0.57658 0.58332
 O80 O 0.99616 0.56483 0.68416
 O81 O 1.00027 0.67700 0.59699
 Zr82 Zr 0.99990 0.41650 0.57641
 O83 O 0.99440 0.41340 0.67765
 O84 O 1.00542 0.31532 0.57366
 O85 O 1.04469 0.49612 0.59276
 O86 O 0.95639 0.49627 0.59188
 O87 O 0.93112 0.62172 0.39506
 O88 O 0.87495 0.55608 0.44511
 C89 C 0.88629 0.60260 0.40647
 O90 O 1.06892 0.39582 0.37763
 O91 O 1.12513 0.44553 0.44349
 C92 C 1.11374 0.40698 0.39688
 O93 O 0.93170 0.38879 0.38322
 O94 O 0.87537 0.44322 0.44499
 C95 C 0.88684 0.40129 0.40144
 O96 O 1.06848 0.61668 0.38817
 O97 O 1.12489 0.55504 0.44268
 C98 C 1.11348 0.59867 0.40059
 Zr99 Zr 0.99996 0.58369 0.42273
 O100 O 0.99443 0.58721 0.32149
 O101 O 1.00455 0.68494 0.42620
 Zr102 Zr 1.00019 0.42339 0.41591
 O103 O 0.99459 0.42638 0.31467
 O104 O 1.00597 0.32224 0.41237
 Zr105 Zr 1.07514 0.50011 0.49958
 Zr106 Zr 0.92500 0.50002 0.49956
 O107 O 0.95663 0.50387 0.40729
 O108 O 1.04467 0.50408 0.40642
 O109 O 0.95564 0.59307 0.50351
 O110 O 1.04346 0.40793 0.49581
 O111 O 1.04348 0.59222 0.50324
 O112 O 0.95553 0.40698 0.49560
 H113 H 0.93415 0.49527 0.62965
 H114 H 1.06535 0.36984 0.49459
 H115 H 0.93470 0.50502 0.36921
 H116 H 1.06557 0.63010 0.50369
 H117 H 0.97920 0.29934 0.54471
 H118 H 0.97765 0.30425 0.43637
 H119 H 1.02103 0.45495 0.29866
 H120 H 1.02284 0.56330 0.30359
 H121 H 0.97842 0.70022 0.45575
 H122 H 1.01176 0.69667 0.55658
 H123 H 1.02878 0.54956 0.69937
 H124 H 1.02213 0.43875 0.69534
 O125 O 0.56810 0.11366 0.61303
 O126 O 0.62441 0.05315 0.55718
 C127 C 0.61299 0.09603 0.59991
 O128 O 0.43125 -0.11803 0.60836
 O129 O 0.37484 -0.05490 0.55565
 C130 C 0.38634 -0.10020 0.59568
 O131 O 0.56856 -0.10775 0.61853
 O132 O 0.62483 -0.05593 0.55446
 C133 C 0.61345 -0.09550 0.60023
 O134 O 0.43093 0.11954 0.60590
 O135 O 0.37454 0.05508 0.55470
 C136 C 0.38602 0.10094 0.59417
 Zr137 Zr 0.49963 0.08128 0.57813
 O138 O 0.49391 0.08113 0.67943
 O139 O 0.50514 0.18246 0.57891
 Zr140 Zr 0.49973 -0.07905 0.58118
 O141 O 0.49285 -0.07529 0.68231
 O142 O 0.50632 -0.17994 0.58686
 O143 O 0.54427 0.00129 0.59258
 O144 O 0.45623 0.00126 0.59170
 O145 O 0.43138 0.11311 0.38523
 O146 O 0.37495 0.05728 0.44555
 C147 C 0.38650 0.10005 0.40286
 O148 O 0.56800 -0.11449 0.38589
 O149 O 0.62435 -0.05415 0.44187
 C150 C 0.61287 -0.09690 0.39915
 O151 O 0.43075 -0.12003 0.39167
 O152 O 0.37453 -0.05683 0.44456
 C153 C 0.38582 -0.10211 0.40426
 O154 O 0.56856 0.10602 0.37934
 O155 O 0.62476 0.05512 0.44432
 C156 C 0.61341 0.09439 0.39825
 Zr157 Zr 0.49984 0.07823 0.41749
 O158 O 0.49433 0.07861 0.31623
 O159 O 0.50571 0.17945 0.41720
 Zr160 Zr 0.49941 -0.08238 0.42066
 O161 O 0.49383 -0.08326 0.31935
 O162 O 0.50497 -0.18363 0.42145
 Zr163 Zr 0.57465 -0.00051 0.49935
 Zr164 Zr 0.42462 -0.00025 0.49928
 O165 O 0.45618 -0.00212 0.40698
 O166 O 0.54415 -0.00241 0.40614
 O167 O 0.45523 0.09282 0.49752
 O168 O 0.54298 -0.09279 0.50104
 O169 O 0.54313 0.09179 0.49769
 O170 O 0.45500 -0.09350 0.50115
 H171 H 0.43419 0.00163 0.62968
 H172 H 0.56482 -0.13094 0.50163
 H173 H 0.43413 -0.00265 0.36901
 H174 H 0.56511 0.12980 0.49722
 H175 H 0.48326 -0.19845 0.55509
 H176 H 0.47746 -0.20048 0.44779
 H177 H 0.52278 -0.06003 0.30200
 H178 H 0.51937 0.04835 0.29956
 H179 H 0.47646 0.19686 0.43974
 H180 H 0.48043 0.19921 0.54822
 H181 H 0.52296 0.05798 0.69662
 H182 H 0.52163 -0.05141 0.69925
 O183 O 0.56802 0.61462 0.11341
 O184 O 0.62438 0.55415 0.05756
 C185 C 0.61290 0.59694 0.10024
 O186 O 0.43139 0.38719 0.11439
 O187 O 0.37497 0.44294 0.05394
 C188 C 0.38651 0.40024 0.09670
 O189 O 0.56857 0.39405 0.12021
 O190 O 0.62478 0.44489 0.05525
 C191 C 0.61342 0.40564 0.10131
 O192 O 0.43074 0.62029 0.10751
 O193 O 0.37454 0.55701 0.05471
 C194 C 0.38582 0.60233 0.09498
 Zr195 Zr 0.49943 0.58259 0.07857
 O196 O 0.49385 0.58384 0.17987
 O197 O 0.50502 0.68383 0.07742
 Zr198 Zr 0.49985 0.42197 0.08209
 O199 O 0.49435 0.42201 0.18336
 O200 O 0.50567 0.32075 0.08275
 O201 O 0.54417 0.50260 0.09328
 O202 O 0.45620 0.50237 0.09242
 O203 O 0.43132 0.61803 -0.10905
 O204 O 0.37489 0.55492 -0.05640
 C205 C 0.38640 0.60021 -0.09642
 O206 O 0.56815 0.38596 -0.11324
 O207 O 0.62446 0.44661 -0.05757
 C208 C 0.61304 0.40359 -0.10015
 O209 O 0.43094 0.38016 -0.10607
 O210 O 0.37455 0.44488 -0.05515
 C211 C 0.38603 0.39884 -0.09442
 O212 O 0.56861 0.60772 -0.11915
 O213 O 0.62487 0.55582 -0.05509
 C214 C 0.61351 0.59545 -0.10083
 Zr215 Zr 0.49977 0.57887 -0.08196
 O216 O 0.49291 0.57445 -0.18307
 O217 O 0.50628 0.67971 -0.08833
 Zr218 Zr 0.49965 0.41860 -0.07858
 O219 O 0.49392 0.41887 -0.17988
 O220 O 0.50514 0.31742 -0.07956
 Zr221 Zr 0.57470 0.50048 0.00010
 Zr222 Zr 0.42465 0.50032 0.00011
 O223 O 0.45623 0.49859 -0.09231
 O224 O 0.54434 0.49850 -0.09316
 O225 O 0.45503 0.59355 -0.00196
 O226 O 0.54314 0.40821 0.00192
 O227 O 0.54301 0.59277 -0.00181
 O228 O 0.45527 0.40725 0.00206
 H229 H 0.43416 0.50299 0.13038
 H230 H 0.56507 0.37016 0.00248
 H231 H 0.43415 0.49815 -0.13025
 H232 H 0.56484 0.63092 -0.00242
 H233 H 0.47648 0.30330 0.06010
 H234 H 0.48090 0.30071 -0.04825
 H235 H 0.52318 0.44157 -0.19706
 H236 H 0.52202 0.55116 -0.19992
 H237 H 0.48391 0.69835 -0.05581
 H238 H 0.47732 0.70065 0.05139
 H239 H 0.52261 0.56026 0.19730
 H240 H 0.51969 0.45188 0.19996
 C241 C 1.21448 0.20365 0.20465
 C242 C 1.16677 0.23705 0.17999
 C243 C 1.13584 0.20004 0.14560
 C244 C 1.15319 0.13105 0.13678
 C245 C 1.20453 0.13772 0.10623
 C246 C 1.23630 0.17556 0.14098
 C247 C 1.19484 0.14211 0.23855
 C248 C 1.16299 0.10578 0.20398
 H249 H 1.15848 0.28723 0.18264
 H250 H 1.10331 0.22002 0.12240
 H251 H 1.21496 0.11558 0.06112
 H252 H 1.27322 0.18403 0.12335
 H253 H 1.20541 0.12616 0.28576
 H254 H 1.14777 0.06117 0.22218
 C255 C 1.21474 0.70265 0.70546
 C256 C 1.23655 0.63771 0.68045
 C257 C 1.20452 0.60075 0.64517
 C258 C 1.15303 0.63053 0.63763
 C259 C 1.13623 0.64324 0.70622
 C260 C 1.16724 0.67986 0.74066
 C261 C 1.19478 0.73291 0.64226
 C262 C 1.16256 0.69630 0.60845
 H263 H 1.27389 0.62130 0.68808
 H264 H 1.21527 0.55542 0.62404
 H265 H 1.10399 0.62117 0.72812
 H266 H 1.15905 0.68547 0.79062
 H267 H 1.20555 0.77897 0.62339
 H268 H 1.14702 0.71186 0.56301
 C269 C 0.71446 0.20220 0.70581
 C270 C 0.73595 0.13706 0.68087
 C271 C 0.70386 0.10055 0.64500
 C272 C 0.65259 0.13106 0.63690
 C273 C 0.63547 0.14362 0.70545
 C274 C 0.66668 0.17959 0.74055
 C275 C 0.69488 0.23291 0.64260
 C276 C 0.66277 0.19680 0.60824
 H277 H 0.77290 0.11981 0.69001
 H278 H 0.71400 0.05429 0.62517
 H279 H 0.60296 0.12170 0.72680
 H280 H 0.65854 0.18479 0.79060
 H281 H 0.70569 0.27905 0.62408
 H282 H 0.64760 0.21282 0.56273
 C283 C 0.71450 0.70250 0.20580
 C284 C 0.73589 0.63731 0.18084
 C285 C 0.70369 0.60095 0.14504
 C286 C 0.65250 0.63172 0.13707
 C287 C 0.63543 0.64421 0.20559
 C288 C 0.66673 0.67998 0.24063
 C289 C 0.69500 0.73329 0.14260
 C290 C 0.66276 0.69736 0.10833
 H291 H 0.77280 0.61992 0.18996
 H292 H 0.71370 0.55464 0.12519
 H293 H 0.60299 0.62218 0.22704
 H294 H 0.65873 0.68474 0.29075
 H295 H 0.70600 0.77930 0.12396
 H296 H 0.64764 0.71339 0.06280
 C297 C 0.78548 -0.20516 0.20356
 C298 C 0.83312 -0.18066 0.23730
 C299 C 0.86425 -0.14636 0.20055
 C300 C 0.84718 -0.13736 0.13147
 C301 C 0.83737 -0.20443 0.10595
 C302 C 0.80525 -0.23894 0.14199
 C303 C 0.76384 -0.14146 0.17541
 C304 C 0.79583 -0.10672 0.13788
 H305 H 0.84117 -0.18316 0.28757
 H306 H 0.89670 -0.12325 0.22081
 H307 H 0.85266 -0.22251 0.06131
 H308 H 0.79448 -0.28598 0.12579
 H309 H 0.72688 -0.12383 0.18357
 H310 H 0.78552 -0.06159 0.11570
 C311 C 0.78547 0.29467 0.70339
 C312 C 0.76370 0.35831 0.67523
 C313 C 0.79553 0.39311 0.63748
 C314 C 0.84694 0.36268 0.63080
 C315 C 0.86416 0.35370 0.69989
 C316 C 0.83317 0.31927 0.73685
 C317 C 0.80519 0.26088 0.64178
 C318 C 0.83713 0.29548 0.60549
 H319 H 0.72673 0.37583 0.68355
 H320 H 0.78507 0.43817 0.61529
 H321 H 0.89672 0.37674 0.71994
 H322 H 0.84144 0.31644 0.78706
 H323 H 0.79457 0.21371 0.62581
 H324 H 0.85239 0.27734 0.56086
 C325 C 0.28539 -0.20454 0.70342
 C326 C 0.30536 -0.23748 0.64154
 C327 C 0.33755 -0.20230 0.60615
 C328 C 0.34696 -0.13535 0.63250
 C329 C 0.29546 -0.10529 0.63886
 C330 C 0.26351 -0.14076 0.67570
 C331 C 0.33290 -0.18020 0.73757
 C332 C 0.36384 -0.14504 0.70152
 H333 H 0.29465 -0.28435 0.62474
 H334 H 0.35316 -0.21978 0.56148
 H335 H 0.28480 -0.06047 0.61644
 H336 H 0.22627 -0.12384 0.68299
 H337 H 0.34118 -0.18380 0.78768
 H338 H 0.39621 -0.12214 0.72226
 C339 C 0.28531 0.29427 0.20241
 C340 C 0.26380 0.31923 0.13725
 C341 C 0.29585 0.35517 0.10084
 C342 C 0.34705 0.36323 0.13150
 C343 C 0.33687 0.39180 0.19726
 C344 C 0.30481 0.35740 0.23329
 C345 C 0.33311 0.25960 0.17976
 C346 C 0.36427 0.29475 0.14388
 H347 H 0.22689 0.30998 0.11988
 H348 H 0.28575 0.37502 0.05454
 H349 H 0.35200 0.43727 0.21337
 H350 H 0.29401 0.37586 0.27946
 H351 H 0.34127 0.20957 0.18473
 H352 H 0.39677 0.27346 0.12182
 C353 C 0.78546 0.20446 -0.20344
 C354 C 0.76366 0.14087 -0.17526
 C355 C 0.79551 0.10598 -0.13756
 C356 C 0.84694 0.13632 -0.13095
 C357 C 0.86411 0.14527 -0.20005
 C358 C 0.83312 0.17977 -0.23696
 C359 C 0.80525 0.23821 -0.14186
 C360 C 0.83720 0.20354 -0.10562
 H361 H 0.72666 0.12344 -0.18353
 H362 H 0.78503 0.06094 -0.11535
 H363 H 0.89663 0.12218 -0.22015
 H364 H 0.84135 0.18259 -0.28718
 H365 H 0.79464 0.28538 -0.12586
 H366 H 0.85249 0.22164 -0.06099
 C367 C 0.78534 0.70469 0.29644
 C368 C 0.76361 0.64105 0.32457
 C369 C 0.79552 0.60628 0.36225
 C370 C 0.84689 0.63684 0.36877
 C371 C 0.86404 0.64576 0.29971
 C372 C 0.83299 0.68008 0.26285
 C373 C 0.80504 0.73848 0.35805
 C374 C 0.83707 0.70395 0.39420
 H375 H 0.72665 0.62347 0.31628
 H376 H 0.78516 0.56118 0.38442
 H377 H 0.89648 0.62252 0.27953
 H378 H 0.84109 0.68249 0.21259
 H379 H 0.79427 0.78554 0.37420
 H380 H 0.85230 0.72204 0.43888
 C381 C 0.28532 0.20604 0.29709
 C382 C 0.33309 0.24072 0.31978
 C383 C 0.36426 0.20556 0.35570
 C384 C 0.34706 0.13709 0.36805
 C385 C 0.29584 0.14513 0.39867
 C386 C 0.26379 0.18108 0.36223
 C387 C 0.30486 0.14292 0.26623
 C388 C 0.33692 0.10851 0.30229
 H389 H 0.34124 0.29075 0.31481
 H390 H 0.39674 0.22685 0.37778
 H391 H 0.28573 0.12529 0.44496
 H392 H 0.22688 0.19033 0.37957
 H393 H 0.29412 0.12446 0.22003
 H394 H 0.35208 0.06305 0.28619
 C395 C 0.28542 0.70460 -0.20418
 C396 C 0.26356 0.64081 -0.17647
 C397 C 0.29552 0.60533 -0.13964
 C398 C 0.34702 0.63538 -0.13326
 C399 C 0.36389 0.64509 -0.20227
 C400 C 0.33293 0.68025 -0.23832
 C401 C 0.30539 0.73752 -0.14229
 C402 C 0.33759 0.70233 -0.10690
 H403 H 0.22632 0.62389 -0.18378
 H404 H 0.28489 0.56049 -0.11725
 H405 H 0.39627 0.62219 -0.22301
 H406 H 0.34121 0.68385 -0.28844
 H407 H 0.29467 0.78439 -0.12549
 H408 H 0.35320 0.71980 -0.06222
 C409 C 1.21475 -0.20255 -0.20621
 C410 C 1.23656 -0.13762 -0.18121
 C411 C 1.20454 -0.10065 -0.14589
 C412 C 1.15307 -0.13041 -0.13833
 C413 C 1.13623 -0.14311 -0.20692
 C414 C 1.16723 -0.17975 -0.24138
 C415 C 1.19483 -0.23282 -0.14300
 C416 C 1.16264 -0.19619 -0.10916
 H417 H 1.27390 -0.12122 -0.18882
 H418 H 1.21530 -0.05536 -0.12472
 H419 H 1.10400 -0.12097 -0.22882
 H420 H 1.15903 -0.18534 -0.29134
 H421 H 1.20562 -0.27888 -0.12415
 H422 H 1.14713 -0.21175 -0.06371
 C423 C 1.21441 0.29660 0.29478
 C424 C 1.23619 0.32470 0.35846
 C425 C 1.20438 0.36247 0.39321
 C426 C 1.15303 0.36910 0.36265
 C427 C 1.16281 0.39441 0.29546
 C428 C 1.19472 0.35814 0.26089
 C429 C 1.16672 0.26314 0.31939
 C430 C 1.13575 0.30009 0.35378
 H431 H 1.27312 0.31628 0.37609
 H432 H 1.21479 0.38461 0.43833
 H433 H 1.14755 0.43901 0.27728
 H434 H 1.20529 0.37411 0.21369
 H435 H 1.15848 0.21296 0.31671
 H436 H 1.10323 0.28007 0.37694
 C437 C 0.71448 -0.20279 0.29394
 C438 C 0.66678 -0.18015 0.25896
 C439 C 0.63549 -0.14427 0.29389
 C440 C 0.65247 -0.13180 0.36244
 C441 C 0.66258 -0.19747 0.39124
 C442 C 0.69482 -0.23351 0.35708
 C443 C 0.73591 -0.13766 0.31894
 C444 C 0.70371 -0.10118 0.35463
 H445 H 0.65884 -0.18493 0.20883
 H446 H 0.60311 -0.12216 0.27234
 H447 H 0.64737 -0.21343 0.43673
 H448 H 0.70573 -0.27955 0.37577
 H449 H 0.77287 -0.12038 0.30996
 H450 H 0.71375 -0.05491 0.37451
 C451 C 0.71449 0.29707 -0.20586
 C452 C 0.73603 0.36218 -0.18092
 C453 C 0.70396 0.39879 -0.14511
 C454 C 0.65265 0.36840 -0.13704
 C455 C 0.63556 0.35584 -0.20559
 C456 C 0.66673 0.31977 -0.24064
 C457 C 0.69486 0.26643 -0.14266
 C458 C 0.66276 0.30264 -0.10833
 H459 H 0.77302 0.37931 -0.19001
 H460 H 0.71415 0.44502 -0.12526
 H461 H 0.60306 0.37781 -0.22698
 H462 H 0.65859 0.31456 -0.29068
 H463 H 0.70565 0.22029 -0.12411
 H464 H 0.64757 0.28668 -0.06283
 C465 C 1.21442 0.20300 -0.20532
 C466 C 1.23613 0.13843 -0.17938
 C467 C 1.20420 0.10246 -0.14287
 C468 C 1.15277 0.13262 -0.13551
 C469 C 1.16257 0.19883 -0.10780
 C470 C 1.19466 0.23457 -0.14259
 C471 C 1.16675 0.17964 -0.23981
 C472 C 1.13569 0.14396 -0.20426
 H473 H 1.27331 0.12157 -0.18762
 H474 H 1.21491 0.05747 -0.12099
 H475 H 1.14732 0.21538 -0.06254
 H476 H 1.20539 0.28095 -0.12463
 H477 H 1.15854 0.18410 -0.28990
 H478 H 1.10323 0.12160 -0.22531
 C479 C 1.21524 0.70419 0.29351
 C480 C 1.19638 0.73410 0.35337
 C481 C 1.16253 0.69659 0.38984
 C482 C 1.15322 0.63384 0.36304
 C483 C 1.13680 0.64476 0.29781
 C484 C 1.16967 0.68209 0.26062
 C485 C 1.23579 0.64248 0.31811
 C486 C 1.20189 0.60442 0.35625
 H487 H 1.20737 0.77964 0.37287
 H488 H 1.14788 0.71272 0.43560
 H489 H 1.10588 0.61983 0.27570
 H490 H 1.16243 0.68252 0.21018
 H491 H 1.27253 0.62446 0.30968
 H492 H 1.21181 0.55825 0.37652
 C493 C 0.71437 0.20392 0.29534
 C494 C 0.66667 0.23765 0.31961
 C495 C 0.63562 0.20103 0.35426
 C496 C 0.65283 0.13207 0.36382
 C497 C 0.66271 0.10617 0.29686
 C498 C 0.69469 0.14208 0.26202
 C499 C 0.73606 0.17638 0.35932
 C500 C 0.70417 0.13894 0.39439
 H501 H 0.65851 0.28784 0.31658
 H502 H 0.60311 0.22134 0.37722
 H503 H 0.64749 0.06140 0.27906
 H504 H 0.70538 0.12563 0.21502
 H505 H 0.77298 0.18497 0.37693
 H506 H 0.71451 0.11724 0.43975
 C507 C 0.71459 0.70404 -0.20459
 C508 C 0.69479 0.64213 -0.23761
 C509 C 0.66272 0.60651 -0.20254
 C510 C 0.65298 0.63274 -0.13562
 C511 C 0.70440 0.63947 -0.10524
 C512 C 0.73634 0.67655 -0.14060
 C513 C 0.66698 0.73799 -0.18034
 C514 C 0.63595 0.70170 -0.14540
 H515 H 0.70555 0.62543 -0.28452
 H516 H 0.64742 0.56169 -0.22007
 H517 H 0.71480 0.61774 -0.05992
 H518 H 0.77339 0.68471 -0.12326
 H519 H 0.65886 0.78816 -0.18360
 H520 H 0.60357 0.72229 -0.12240
 C521 C 0.78545 -0.20542 -0.20315
 C522 C 0.83315 -0.24015 -0.18020
 C523 C 0.86435 -0.20500 -0.14435
 C524 C 0.84734 -0.13642 -0.13231
 C525 C 0.83730 -0.10809 -0.19830
 C526 C 0.80511 -0.14251 -0.23427
 C527 C 0.76391 -0.17996 -0.13820
 C528 C 0.79603 -0.14407 -0.10182
 H529 H 0.84124 -0.29021 -0.18496
 H530 H 0.89678 -0.22633 -0.12217
 H531 H 0.85252 -0.06273 -0.21452
 H532 H 0.79422 -0.12423 -0.28051
 H533 H 0.72690 -0.18865 -0.12100
 H534 H 0.78586 -0.12383 -0.05573
 C535 C 0.78535 0.29451 0.29671
 C536 C 0.83313 0.25999 0.31975
 C537 C 0.86438 0.29548 0.35521
 C538 C 0.84727 0.36409 0.36688
 C539 C 0.83709 0.39200 0.30083
 C540 C 0.80492 0.35730 0.26519
 C541 C 0.76391 0.32018 0.36160
 C542 C 0.79603 0.35645 0.39762
 H543 H 0.84116 0.20986 0.31548
 H544 H 0.89686 0.27438 0.37749
 H545 H 0.85224 0.43728 0.28426
 H546 H 0.79404 0.37534 0.21887
 H547 H 0.72700 0.31116 0.37905
 H548 H 0.78596 0.37678 0.44371
 C549 C 0.28419 -0.20649 0.29441
 C550 C 0.30432 -0.23882 0.35711
 C551 C 0.33635 -0.20367 0.39271
 C552 C 0.34622 -0.13697 0.36658
 C553 C 0.36334 -0.14694 0.29774
 C554 C 0.33235 -0.18172 0.26112
 C555 C 0.26295 -0.14182 0.32211
 C556 C 0.29491 -0.10662 0.35941
 H557 H 0.29426 -0.28559 0.37461
 H558 H 0.35183 -0.22128 0.43742
 H559 H 0.39578 -0.12392 0.27731
 H560 H 0.34113 -0.18409 0.21110
 H561 H 0.22622 -0.12353 0.31401
 H562 H 0.28458 -0.06117 0.38090
 C563 C 0.28534 0.29538 -0.20398
 C564 C 0.33305 0.31962 -0.23767
 C565 C 0.36399 0.35447 -0.20107
 C566 C 0.34672 0.36415 -0.13210
 C567 C 0.29531 0.39447 -0.13909
 C568 C 0.26354 0.35931 -0.17658
 C569 C 0.30505 0.26227 -0.14198
 C570 C 0.33694 0.29726 -0.10606
 H571 H 0.34143 0.31608 -0.28780
 H572 H 0.39658 0.37724 -0.22133
 H573 H 0.28473 0.43952 -0.11706
 H574 H 0.22655 0.37670 -0.18505
 H575 H 0.29446 0.21533 -0.12538
 H576 H 0.35216 0.27962 -0.06119
 C577 C 1.21563 -0.20500 0.20729
 C578 C 1.23689 -0.13966 0.18131
 C579 C 1.20486 -0.10348 0.14490
 C580 C 1.15357 -0.13376 0.13687
 C581 C 1.16364 -0.19972 0.10904
 C582 C 1.19570 -0.23565 0.14371
 C583 C 1.16736 -0.18102 0.24110
 C584 C 1.13635 -0.14546 0.20532
 H585 H 1.27363 -0.12165 0.18995
 H586 H 1.21510 -0.05745 0.12463
 H587 H 1.14853 -0.21607 0.06364
 H588 H 1.20624 -0.28170 0.12476
 H589 H 1.15867 -0.18396 0.29115
 H590 H 1.10404 -0.12271 0.22636
 C591 C 1.21440 0.29651 0.70525
 C592 C 1.23604 0.36111 0.67934
 C593 C 1.20410 0.39702 0.64277
 C594 C 1.15272 0.36677 0.63535
 C595 C 1.16261 0.30058 0.60767
 C596 C 1.19470 0.26489 0.64251
 C597 C 1.16669 0.31982 0.73969
 C598 C 1.13560 0.35544 0.70409
 H599 H 1.27317 0.37807 0.68769
 H600 H 1.21473 0.44210 0.62100
 H601 H 1.14739 0.28399 0.56240
 H602 H 1.20546 0.21851 0.62458
 H603 H 1.15848 0.31539 0.78978
 H604 H 1.10311 0.37779 0.72509
 C605 C 0.71456 -0.20393 0.70413
 C606 C 0.69470 -0.14203 0.73712
 C607 C 0.66261 -0.10645 0.70201
 C608 C 0.65292 -0.13272 0.63509
 C609 C 0.70434 -0.13943 0.60475
 C610 C 0.73630 -0.17645 0.64014
 C611 C 0.66697 -0.23793 0.67989
 C612 C 0.63593 -0.20169 0.64490
 H613 H 0.70544 -0.12531 0.78404
 H614 H 0.64727 -0.06162 0.71950
 H615 H 0.71475 -0.11770 0.55943
 H616 H 0.77336 -0.18456 0.62284
 H617 H 0.65886 -0.28809 0.68318
 H618 H 0.60356 -0.22230 0.62190
 C619 C 0.71438 0.29600 0.20421
 C620 C 0.66669 0.26230 0.17991
 C621 C 0.63563 0.29895 0.14526
 C622 C 0.65284 0.36790 0.13573
 C623 C 0.66272 0.39378 0.20269
 C624 C 0.69469 0.35784 0.23753
 C625 C 0.73607 0.32354 0.14024
 C626 C 0.70419 0.36101 0.10518
 H627 H 0.65854 0.21211 0.18290
 H628 H 0.60313 0.27867 0.12227
 H629 H 0.64750 0.43855 0.22050
 H630 H 0.70537 0.37428 0.28454
 H631 H 0.77299 0.31491 0.12264
 H632 H 0.71453 0.38271 0.05982
 C633 C 0.78538 0.20536 0.20289
 C634 C 0.83315 0.23988 0.17989
 C635 C 0.86444 0.20438 0.14448
 C636 C 0.84736 0.13576 0.13279
 C637 C 0.83714 0.10787 0.19884
 C638 C 0.80494 0.14257 0.23443
 C639 C 0.76397 0.17969 0.13798
 C640 C 0.79613 0.14342 0.10200
 H641 H 0.84116 0.29000 0.18415
 H642 H 0.89692 0.22548 0.12222
 H643 H 0.85229 0.06258 0.21543
 H644 H 0.79404 0.12453 0.28074
 H645 H 0.72706 0.18873 0.12049
 H646 H 0.78608 0.12308 0.05589
 C647 C 0.78546 0.70561 0.70266
 C648 C 0.83315 0.74035 0.67971
 C649 C 0.86433 0.70522 0.64380
 C650 C 0.84733 0.63664 0.63174
 C651 C 0.83733 0.60830 0.69773
 C652 C 0.80516 0.64271 0.73375
 C653 C 0.76390 0.68017 0.63771
 C654 C 0.79602 0.64431 0.60129
 H655 H 0.84123 0.79040 0.68450
 H656 H 0.89674 0.72657 0.62156
 H657 H 0.85259 0.56293 0.71394
 H658 H 0.79432 0.62442 0.78001
 H659 H 0.72687 0.68884 0.62053
 H660 H 0.78583 0.62409 0.55519
 C661 C 0.28536 0.20420 0.70392
 C662 C 0.33311 0.17999 0.73757
 C663 C 0.36405 0.14518 0.70092
 C664 C 0.34673 0.13553 0.63195
 C665 C 0.29537 0.10515 0.63898
 C666 C 0.26360 0.14024 0.67653
 C667 C 0.30500 0.23735 0.64192
 C668 C 0.33689 0.20241 0.60595
 H669 H 0.34151 0.18353 0.78771
 H670 H 0.39667 0.12242 0.72114
 H671 H 0.28482 0.06010 0.61694
 H672 H 0.22664 0.12278 0.68505
 H673 H 0.29439 0.28430 0.62536
 H674 H 0.35207 0.22009 0.56108
 C675 C 0.28406 0.70579 0.20569
 C676 C 0.33251 0.68131 0.23856
 C677 C 0.36352 0.64688 0.20166
 C678 C 0.34619 0.63694 0.13290
 C679 C 0.29507 0.60618 0.14032
 C680 C 0.26305 0.64101 0.17790
 C681 C 0.30375 0.73840 0.14290
 C682 C 0.33586 0.70362 0.10700
 H683 H 0.34144 0.68358 0.28855
 H684 H 0.39614 0.62406 0.22185
 H685 H 0.28501 0.56049 0.11914
 H686 H 0.22672 0.62181 0.18670
 H687 H 0.29337 0.78513 0.12563
 H688 H 0.35107 0.72147 0.06224
   
