data_POSCAR
  _audit_creation_date              2014-09-24
  _audit_creation_method            'ToBaCCo'
  _symmetry_space_group_name_H-M    'P1'
  _symmetry_Int_Tables_number       1
  _symmetry_cell_setting            triclinic
  loop_
  _symmetry_equiv_pos_as_xyz
 x,y,z
_cell_length_a 25.4161
_cell_length_b 17.1622
_cell_length_c 23.1321
_cell_angle_alpha 89.829600
_cell_angle_beta 89.957300
_cell_angle_gamma 90.663400
loop_
  _atom_site_label
  _atom_site_type_symbol
  _atom_site_fract_x
  _atom_site_fract_y
  _atom_site_fract_z
C1 C 0.21294 0.21333 0.22383
 C2 C 0.21279 0.29617 0.22507
 C3 C 0.24617 0.33612 0.26326
 C4 C 0.28204 0.29581 0.29773
 C5 C 0.28638 0.21397 0.29205
 C6 C 0.25176 0.17370 0.25513
 H7 H 0.25344 0.11062 0.25313
 H8 H 0.24565 0.39926 0.26461
 C9 C 0.78316 0.30121 0.20302
 C10 C 0.78162 0.21864 0.20103
 C11 C 0.74729 0.17719 0.23741
 C12 C 0.71614 0.21572 0.27808
 C13 C 0.71782 0.29823 0.28043
 C14 C 0.75047 0.34003 0.24220
 H15 H 0.75197 0.40314 0.24460
 H16 H 0.74532 0.11417 0.23455
 C17 C 0.72948 0.72111 0.70616
 C18 C 0.72324 0.80275 0.71162
 C19 C 0.75255 0.84331 0.75340
 C20 C 0.78917 0.80487 0.78829
 C21 C 0.79433 0.72290 0.78378
 C22 C 0.76447 0.68205 0.74274
 H23 H 0.76803 0.61931 0.73970
 H24 H 0.74822 0.90590 0.75721
 C25 C 0.29056 0.79906 0.71722
 C26 C 0.29734 0.71773 0.72064
 C27 C 0.26816 0.67409 0.76087
 C28 C 0.23337 0.71054 0.79936
 C29 C 0.22478 0.79223 0.79373
 C30 C 0.25436 0.83545 0.75345
 H31 H 0.24831 0.89765 0.74928
 H32 H 0.27446 0.61181 0.76391
 O33 O 0.95980 0.01878 -0.07646
 O34 O 1.05813 0.10110 0.02366
 O35 O 1.06162 0.01141 -0.06851
 O36 O 0.95631 0.10463 0.01482
 O37 O 0.95019 0.00029 0.07057
 O38 O 1.05327 -0.09462 -0.01466
 O39 O 1.05228 -0.00495 0.07790
 O40 O 0.95143 -0.08507 -0.02014
 Cu41 Cu 1.01026 0.06958 -0.03211
 Cu42 Cu 1.00174 -0.05673 0.03406
 C43 C 0.93821 -0.04636 -0.06456
 C44 C 1.07109 0.06268 0.06826
 C45 C 1.07395 -0.05841 -0.05701
 C46 C 0.93455 0.06765 0.05622
 O47 O 0.45481 0.51713 0.42731
 O48 O 0.56076 0.60461 0.51497
 O49 O 0.55720 0.51715 0.42453
 O50 O 0.45831 0.60702 0.51935
 O51 O 0.46071 0.50403 0.57686
 O52 O 0.55575 0.41160 0.47931
 O53 O 0.56265 0.49893 0.56944
 O54 O 0.45314 0.41459 0.48535
 Cu55 Cu 0.50729 0.57196 0.46588
 Cu56 Cu 0.50764 0.44668 0.53328
 C57 C 0.43602 0.45097 0.44149
 C58 C 0.58087 0.56585 0.55610
 C59 C 0.57408 0.44961 0.43646
 C60 C 0.44378 0.57146 0.56496
 O61 O 0.06275 0.49841 -0.06810
 O62 O -0.04678 0.41546 0.01683
 O63 O -0.04088 0.50778 -0.07325
 O64 O 0.05490 0.41482 0.02403
 O65 O 0.05619 0.52025 0.07850
 O66 O -0.04056 0.61170 -0.01742
 O67 O -0.04591 0.51958 0.07291
 O68 O 0.06200 0.60392 -0.01423
 Cu69 Cu 0.00714 0.44891 -0.03109
 Cu70 Cu 0.00765 0.57455 0.03519
 C71 C 0.08250 0.56408 -0.05438
 C72 C -0.06419 0.45269 0.05991
 C73 C -0.05798 0.57515 -0.06107
 C74 C 0.07276 0.45252 0.06713
 O75 O 0.45432 1.10137 0.47569
 O76 O 0.55577 1.02305 0.57173
 O77 O 0.55526 1.09774 0.47283
 O78 O 0.45295 1.02038 0.57062
 O79 O 0.45062 0.91153 0.51990
 O80 O 0.55574 0.98615 0.42526
 O81 O 0.55291 0.91158 0.52412
 O82 O 0.45407 0.99245 0.42502
 Cu83 Cu 0.50492 1.07152 0.52797
 Cu84 Cu 0.50334 0.93911 0.46888
 C85 C 0.43786 1.06131 0.43323
 C86 C 0.57137 0.95387 0.56446
 C87 C 0.57231 1.05546 0.43208
 C88 C 0.43354 0.95314 0.56089
 C89 C 1.12072 0.18377 0.19516
 C90 C 1.17576 0.17043 0.19095
 C91 C 1.19384 0.11570 0.15058
 C92 C 1.15938 0.08078 0.11128
 C93 C 1.10595 0.09922 0.11131
 C94 C 1.08601 0.15032 0.15370
 C95 C 1.09907 0.22629 0.24155
 C96 C 1.04533 0.24129 0.24400
 C97 C 1.01195 0.21281 0.20121
 C98 C 1.03188 0.16742 0.15663
 H99 H 1.12347 0.24793 0.27643
 H100 H 1.02952 0.27498 0.27933
 H101 H 0.97028 0.22450 0.20320
 H102 H 1.00450 0.14513 0.12501
 H103 H 1.23542 0.10325 0.14707
 H104 H 1.17474 0.04061 0.07959
 C105 C 0.70191 0.68544 0.60375
 C106 C 0.69775 0.67492 0.66437
 C107 C 0.65982 0.62335 0.68668
 C108 C 0.62382 0.58649 0.65045
 C109 C 0.62445 0.59998 0.59064
 C110 C 0.66513 0.64749 0.56640
 C111 C 0.74221 0.73248 0.57955
 C112 C 0.74599 0.74278 0.51993
 C113 C 0.71075 0.70482 0.48331
 C114 C 0.67110 0.65688 0.50601
 H115 H 0.77135 0.76105 0.60645
 H116 H 0.77691 0.77943 0.50200
 H117 H 0.71457 0.71176 0.43696
 H118 H 0.64629 0.62624 0.47555
 H119 H 0.65645 0.61447 0.73294
 H120 H 0.59362 0.54972 0.66979
 C121 C -0.19801 0.39489 0.12338
 C122 C -0.18123 0.34451 0.16859
 C123 C -0.12718 0.33247 0.17672
 C124 C -0.08999 0.36893 0.14149
 C125 C -0.10559 0.41700 0.09601
 C126 C -0.15974 0.42923 0.08575
 C127 C -0.25189 0.40785 0.11210
 C128 C -0.26746 0.45291 0.06499
 C129 C -0.23000 0.48490 0.02771
 C130 C -0.17663 0.47293 0.03769
 H131 H -0.28254 0.38211 0.13863
 H132 H -0.30887 0.46194 0.05679
 H133 H -0.24236 0.51859 -0.00941
 H134 H -0.14873 0.49662 0.00688
 H135 H -0.11367 0.29483 0.21120
 H136 H -0.04858 0.35888 0.14939
 C137 C 0.31078 0.84534 0.61553
 C138 C 0.32132 0.84670 0.67558
 C139 C 0.36428 0.88970 0.69650
 C140 C 0.39900 0.92670 0.65858
 C141 C 0.39163 0.92174 0.59871
 C142 C 0.34619 0.88327 0.57662
 C143 C 0.26559 0.80733 0.59345
 C144 C 0.25559 0.80644 0.53422
 C145 C 0.28983 0.84424 0.49612
 C146 C 0.33453 0.88281 0.51690
 H147 H 0.23754 0.77852 0.62178
 H148 H 0.22082 0.77695 0.51784
 H149 H 0.28146 0.84428 0.45024
 H150 H 0.35905 0.91331 0.48583
 H151 H 0.37229 0.89168 0.74248
 H152 H 0.43327 0.95644 0.67607
 C153 C -0.18181 0.67960 -0.11455
 C154 C -0.17223 0.67865 -0.17493
 C155 C -0.12813 0.63994 -0.19612
 C156 C -0.09244 0.60548 -0.15844
 C157 C -0.09859 0.61111 -0.09831
 C158 C -0.14377 0.64880 -0.07569
 C159 C -0.22902 0.70977 -0.09213
 C160 C -0.23721 0.71473 -0.03275
 C161 C -0.19916 0.68820 0.00537
 C162 C -0.15319 0.65487 -0.01558
 H163 H -0.26012 0.72935 -0.12035
 H164 H -0.27334 0.73902 -0.01628
 H165 H -0.20580 0.69184 0.05151
 H166 H -0.12622 0.63276 0.01626
 H167 H -0.12059 0.63812 -0.24220
 H168 H -0.05847 0.57663 -0.17645
 C169 C 0.36597 1.13193 0.29726
 C170 C 0.32373 1.17192 0.32399
 C171 C 0.32002 1.17264 0.38443
 C172 C 0.35698 1.13545 0.41850
 C173 C 0.39910 1.09600 0.39357
 C174 C 0.40436 1.09441 0.33242
 C175 C 0.37295 1.13279 0.23658
 C176 C 0.41603 1.09688 0.21117
 C177 C 0.45357 1.06088 0.24542
 C178 C 0.44826 1.06009 0.30538
 H179 H 0.34590 1.16237 0.20818
 H180 H 0.42076 1.09813 0.16467
 H181 H 0.48744 1.03432 0.22546
 H182 H 0.47956 1.03381 0.32988
 H183 H 0.28766 1.20152 0.40560
 H184 H 0.35256 1.13743 0.46508
 C185 C 1.12993 -0.19219 -0.17246
 C186 C 1.18328 -0.16683 -0.17264
 C187 C 1.19848 -0.10442 -0.13710
 C188 C 1.16257 -0.06994 -0.09980
 C189 C 1.11104 -0.09888 -0.09523
 C190 C 1.09449 -0.16150 -0.13096
 C191 C 1.11089 -0.24691 -0.21305
 C192 C 1.05959 -0.27614 -0.20939
 C193 C 1.02611 -0.25033 -0.16610
 C194 C 1.04304 -0.19308 -0.12752
 H195 H 1.13560 -0.26776 -0.24769
 H196 H 1.04585 -0.31924 -0.24010
 H197 H 0.98641 -0.27340 -0.16314
 H198 H 1.01527 -0.17364 -0.09547
 H199 H 1.23885 -0.08347 -0.13726
 H200 H 1.17541 -0.02143 -0.07324
 C201 C 0.69400 0.33616 0.38329
 C202 C 0.68586 0.34204 0.32283
 C203 C 0.64468 0.38741 0.30173
 C204 C 0.60976 0.42303 0.33938
 C205 C 0.61493 0.41461 0.39938
 C206 C 0.65837 0.37284 0.42201
 C207 C 0.73735 0.29550 0.40599
 C208 C 0.74513 0.29001 0.46545
 C209 C 0.71087 0.32659 0.50332
 C210 C 0.66827 0.36839 0.48207
 H211 H 0.76584 0.26832 0.37801
 H212 H 0.77837 0.25822 0.48221
 H213 H 0.71771 0.32339 0.54945
 H214 H 0.64419 0.39818 0.51326
 H215 H 0.63836 0.39280 0.25557
 H216 H 0.57728 0.45546 0.32137
 C217 C 0.80531 -0.10834 -0.12746
 C218 C 0.82311 -0.15119 -0.17616
 C219 C 0.87717 -0.15354 -0.18829
 C220 C 0.91343 -0.11549 -0.15323
 C221 C 0.89731 -0.07810 -0.10293
 C222 C 0.84307 -0.07398 -0.08946
 C223 C 0.75132 -0.10288 -0.11341
 C224 C 0.73516 -0.06462 -0.06345
 C225 C 0.77218 -0.03203 -0.02614
 C226 C 0.82566 -0.03703 -0.03867
 H227 H 0.72113 -0.12912 -0.14011
 H228 H 0.69368 -0.06110 -0.05327
 H229 H 0.75945 -0.00304 0.01287
 H230 H 0.85321 -0.01218 -0.00816
 H231 H 0.89144 -0.18456 -0.22583
 H232 H 0.95460 -0.11674 -0.16488
 C233 C 0.30389 0.36751 0.39067
 C234 C 0.31860 0.34116 0.33503
 C235 C 0.37006 0.35400 0.31527
 C236 C 0.40719 0.39138 0.35002
 C237 C 0.39421 0.41532 0.40597
 C238 C 0.34229 0.40376 0.42684
 C239 C 0.25211 0.35714 0.41161
 C240 C 0.23853 0.38189 0.46697
 C241 C 0.27611 0.41706 0.50241
 C242 C 0.32757 0.42791 0.48274
 H243 H 0.22187 0.32965 0.38552
 H244 H 0.19868 0.37356 0.48252
 H245 H 0.26536 0.43604 0.54537
 H246 H 0.35562 0.45528 0.51157
 H247 H 0.38168 0.33390 0.27282
 H248 H 0.44683 0.39990 0.33369
 C249 C 0.20408 0.68508 -0.09967
 C250 C 0.20602 0.66486 -0.15916
 C251 C 0.17537 0.60171 -0.17859
 C252 C 0.13684 0.56849 -0.14328
 C253 C 0.12918 0.59460 -0.08648
 C254 C 0.16584 0.64916 -0.06276
 C255 C 0.24123 0.73765 -0.07571
 C256 C 0.23994 0.75635 -0.01722
 C257 C 0.20304 0.72102 0.01896
 C258 C 0.16692 0.66711 -0.00310
 H259 H 0.27202 0.76383 -0.10192
 H260 H 0.26846 0.79716 0.00035
 H261 H 0.20315 0.73415 0.06471
 H262 H 0.14173 0.63793 0.02783
 H263 H 0.17706 0.58350 -0.22338
 H264 H 0.11086 0.52479 -0.16184
 C265 C 0.70014 1.11014 0.35460
 C266 C 0.68104 1.16897 0.31680
 C267 C 0.62700 1.18449 0.31574
 C268 C 0.59252 1.14670 0.35336
 C269 C 0.61042 1.08899 0.39097
 C270 C 0.66402 1.06782 0.39031
 C271 C 0.75432 1.09353 0.35898
 C272 C 0.77189 1.03356 0.39464
 C273 C 0.73615 0.98951 0.42697
 C274 C 0.68271 1.00671 0.42534
 H275 H 0.78371 1.12684 0.33551
 H276 H 0.81349 1.02113 0.39714
 H277 H 0.74999 0.94265 0.45425
 H278 H 0.65627 0.97185 0.45172
 H279 H 0.61147 1.22760 0.28626
 H280 H 0.55134 1.16246 0.35300
 C281 C 0.19076 0.33650 0.12213
 C282 C 0.18190 0.34210 0.18254
 C283 C 0.14196 0.39025 0.20301
 C284 C 0.10769 0.42651 0.16481
 C285 C 0.11294 0.41707 0.10492
 C286 C 0.15612 0.37440 0.08292
 C287 C 0.23420 0.29553 0.09995
 C288 C 0.24296 0.29102 0.04062
 C289 C 0.20954 0.32860 0.00232
 C290 C 0.16690 0.37062 0.02301
 H291 H 0.26226 0.26766 0.12816
 H292 H 0.27636 0.25925 0.02431
 H293 H 0.21715 0.32617 -0.04369
 H294 H 0.14363 0.40142 -0.00849
 H295 H 0.13562 0.39661 0.24907
 H296 H 0.07566 0.46023 0.18234
 C297 C 0.70206 0.90945 0.63821
 C298 C 0.68579 0.84660 0.67452
 C299 C 0.63258 0.82414 0.67552
 C300 C 0.59621 0.85942 0.63936
 C301 C 0.61123 0.92154 0.60356
 C302 C 0.66398 0.94906 0.60417
 C303 C 0.75544 0.93268 0.63367
 C304 C 0.77032 0.99625 0.59947
 C305 C 0.73267 1.03738 0.56871
 C306 C 0.68004 1.01380 0.57047
 H307 H 0.78628 0.90180 0.65585
 H308 H 0.81132 1.01368 0.59681
 H309 H 0.74443 1.08692 0.54243
 H310 H 0.65228 1.04650 0.54497
 H311 H 0.61926 0.77769 0.70387
 H312 H 0.55580 0.83852 0.63971
 C313 C 0.81101 0.18001 0.10008
 C314 C 0.81564 0.17430 0.16096
 C315 C 0.85586 0.12990 0.18504
 C316 C 0.89299 0.09464 0.15000
 C317 C 0.89176 0.10382 0.08977
 C318 C 0.84997 0.14601 0.06399
 C319 C 0.76794 0.21795 0.07443
 C320 C 0.76418 0.22507 0.01459
 C321 C 0.80253 0.19317 -0.02078
 C322 C 0.84480 0.15352 0.00337
 H323 H 0.73662 0.24169 0.10043
 H324 H 0.73110 0.25489 -0.00443
 H325 H 0.79912 0.19814 -0.06728
 H326 H 0.87232 0.12775 -0.02628
 H327 H 0.85953 0.12465 0.23156
 H328 H 0.92423 0.06211 0.17041
 C329 C 0.39108 0.68187 0.69542
 C330 C 0.33642 0.67801 0.68365
 C331 C 0.31850 0.63942 0.63404
 C332 C 0.35387 0.60636 0.59542
 C333 C 0.40806 0.60983 0.60588
 C334 C 0.42721 0.64791 0.65602
 C335 C 0.41063 0.71861 0.74565
 C336 C 0.46460 0.72310 0.75619
 C337 C 0.49995 0.69077 0.71730
 C338 C 0.48161 0.65348 0.66766
 H339 H 0.38443 0.74404 0.77711
 H340 H 0.47906 0.75172 0.79477
 H341 H 0.54177 0.69425 0.72577
 H342 H 0.51030 0.62934 0.63850
 H343 H 0.27678 0.63621 0.62462
 H344 H 0.33879 0.57789 0.55708
   
