data_POSCAR
  _audit_creation_date              2014-09-24
  _audit_creation_method            'ToBaCCo'
  _symmetry_space_group_name_H-M    'P1'
  _symmetry_Int_Tables_number       1
  _symmetry_cell_setting            triclinic
  loop_
  _symmetry_equiv_pos_as_xyz
 x,y,z
_cell_length_a 23.0693
_cell_length_b 23.5909
_cell_length_c 23.1606
_cell_angle_alpha 91.720400
_cell_angle_beta 89.864000
_cell_angle_gamma 90.529200
loop_
  _atom_site_label
  _atom_site_type_symbol
  _atom_site_fract_x
  _atom_site_fract_y
  _atom_site_fract_z
N1 N 0.24549 0.24537 0.24786
 N2 N -0.24594 0.76439 0.23200
 N3 N -0.25796 0.23921 -0.25090
 N4 N 0.22179 0.74989 -0.24218
 N5 N 0.25467 1.25164 0.76941
 N6 N 0.76821 0.75804 0.75105
 N7 N 0.24178 0.76944 1.23629
 N8 N 0.77007 1.23916 1.25277
 O9 O 0.54558 0.92249 0.90833
 O10 O 0.44822 0.97111 1.11188
 O11 O 0.59535 0.93556 1.03189
 O12 O 0.35488 0.96256 0.95638
 O13 O 0.55338 0.96438 1.10941
 O14 O 0.43504 0.92675 0.91401
 O15 O 0.41310 0.92659 1.03620
 O16 O 0.62122 0.97005 0.93807
 C17 C 0.59952 0.92924 0.90929
 C18 C 0.42069 0.92934 1.08948
 C19 C 0.58462 0.92908 1.08345
 C20 C 0.37949 0.92879 0.91833
 O21 O 0.44228 1.03684 0.88650
 O22 O 0.56554 1.07262 1.07601
 O23 O 0.59118 1.07198 0.96368
 O24 O 0.37952 1.03029 1.06072
 O25 O 0.45705 1.08007 1.07727
 O26 O 0.55073 1.03390 0.88538
 O27 O 0.39816 1.06077 0.96508
 O28 O 0.64608 1.03094 1.04388
 Co29 Co 0.49401 0.98151 0.90692
 Co30 Co 0.50532 1.02069 1.08637
 Co31 Co 0.58682 1.00455 1.00088
 Co32 Co 0.41218 0.99316 0.99851
 O33 O 0.49925 0.99949 0.99771
 C34 C 0.40740 1.06854 0.91313
 C35 C 0.62053 1.06578 1.08058
 C36 C 0.58155 1.07247 0.91015
 C37 C 0.40344 1.07368 1.08294
 O38 O 0.07249 0.44755 0.09692
 O39 O 0.02804 0.53901 -0.11281
 O40 O 0.06534 0.40305 -0.03329
 O41 O 0.02961 0.62005 0.05077
 O42 O 0.02949 0.43628 -0.10926
 O43 O 0.07324 0.55180 0.09318
 O44 O 0.06665 0.57885 -0.03923
 O45 O 0.02859 0.37356 0.05892
 C46 C 0.06697 0.39495 0.09120
 C47 C 0.06809 0.56849 -0.09148
 C48 C 0.06921 0.41009 -0.08546
 C49 C 0.06861 0.60337 0.08349
 O50 O -0.04116 0.55537 0.11494
 O51 O -0.07971 0.43347 -0.06826
 O52 O -0.07454 0.40207 0.03952
 O53 O -0.03304 0.62627 -0.05502
 O54 O -0.08019 0.54411 -0.07237
 O55 O -0.04124 0.44537 0.11883
 O56 O -0.07352 0.58731 0.03263
 O57 O -0.03477 0.35343 -0.04708
 Co58 Co 0.01444 0.49962 0.09812
 Co59 Co -0.02388 0.48851 -0.08224
 Co60 Co -0.00545 0.40900 -0.00075
 Co61 Co -0.00425 0.57654 -0.00620
 O62 O 0.00108 0.49375 0.00805
 C63 C -0.07686 0.58472 0.08685
 C64 C -0.07356 0.37977 -0.07735
 C65 C -0.07666 0.41114 0.09362
 C66 C -0.07319 0.59714 -0.08309
 O67 O 1.11339 0.06506 0.46472
 O68 O 0.88076 0.02170 0.55449
 O69 O 0.97377 0.07512 0.41659
 O70 O 1.04344 0.09015 0.59684
 O71 O 0.89418 0.04523 0.45194
 O72 O 1.12096 0.04845 0.57081
 O73 O 0.94541 0.08109 0.57795
 O74 O 1.06641 0.03283 0.38901
 C75 C 1.10233 0.06682 0.41204
 C76 C 0.89386 0.06891 0.57581
 C77 C 0.92131 0.08187 0.42456
 C78 C 1.09670 0.08842 0.59642
 O79 O 1.10933 -0.05800 0.55543
 O80 O 0.92813 -0.06261 0.42960
 O81 O 1.03004 -0.06941 0.41363
 O82 O 0.94647 -0.03096 0.61209
 O83 O 0.92578 -0.07967 0.53368
 O84 O 1.11402 -0.04574 0.44673
 O85 O 1.05153 -0.02253 0.62395
 O86 O 0.96124 -0.01597 0.35529
 Co87 Co 1.10408 0.00276 0.50854
 Co88 Co 0.91645 -0.01611 0.49356
 Co89 Co 1.00045 0.00315 0.42068
 Co90 Co 0.99702 0.02746 0.59524
 O91 O 1.00848 0.00670 0.50770
 C92 C 1.08853 -0.05879 0.60567
 C93 C 0.92318 -0.05190 0.37620
 C94 C 1.08308 -0.07775 0.41593
 C95 C 0.92818 -0.07596 0.58739
 C96 C 1.21513 0.21078 0.28474
 C97 C 1.18871 0.17927 0.31530
 C98 C 1.15806 0.14071 0.34923
 C99 C 1.13227 0.10700 0.37773
 C100 C 0.79067 -0.19648 0.25965
 C101 C 0.82206 -0.16194 0.28349
 C102 C 0.85812 -0.12166 0.31245
 C103 C 0.88829 -0.08851 0.33959
 C104 C 0.76921 0.20438 0.70809
 C105 C 0.79326 0.17324 0.67354
 C106 C 0.82374 0.13608 0.63562
 C107 C 0.85324 0.10467 0.60616
 C108 C 1.18586 -0.21495 0.72734
 C109 C 1.15753 -0.18141 0.70140
 C110 C 1.12910 -0.13906 0.67074
 C111 C 1.10861 -0.10201 0.64272
 C112 C 0.28160 1.21316 1.21259
 C113 C 0.31123 1.18366 1.18161
 C114 C 0.34372 1.14696 1.14574
 C115 C 0.37083 1.11406 1.11612
 C116 C 0.25649 0.78252 0.79474
 C117 C 0.28534 0.81345 0.82560
 C118 C 0.31771 0.85260 0.85964
 C119 C 0.34538 0.88731 0.88718
 C120 C 0.71314 0.79151 1.19919
 C121 C 0.67879 0.81761 1.17154
 C122 C 0.64160 0.85239 1.14024
 C123 C 0.61325 0.88561 1.11408
 C124 C 0.70343 1.20856 0.78216
 C125 C 0.67145 1.18076 0.81148
 C126 C 0.63697 1.14587 0.84625
 C127 C 0.61013 1.11373 0.87581
 C128 C 0.20812 0.27650 0.21498
 C129 C 0.17546 0.30259 0.18564
 C130 C 0.13727 0.33279 0.15120
 C131 C 0.10484 0.35989 0.12270
 C132 C -0.21852 0.26891 -0.21599
 C133 C -0.18479 0.29422 -0.18458
 C134 C -0.14591 0.32347 -0.14689
 C135 C -0.11292 0.34872 -0.11474
 C136 C 0.19228 0.70750 -0.21368
 C137 C 0.16688 0.67114 -0.18797
 C138 C 0.13591 0.63078 -0.15609
 C139 C 0.10690 0.59963 -0.12730
 C140 C -0.21526 0.72354 0.20062
 C141 C -0.18722 0.68864 0.17393
 C142 C -0.15179 0.64956 0.14330
 C143 C -0.11905 0.61836 0.11744
 C144 C 1.22363 0.22187 0.73161
 C145 C 1.19445 0.19401 0.69787
 C146 C 1.15976 0.15979 0.66042
 C147 C 1.13041 0.12858 0.63017
 C148 C 0.80513 -0.21153 0.71576
 C149 C 0.83681 -0.18427 0.68540
 C150 C 0.87222 -0.15008 0.65045
 C151 C 0.89986 -0.11810 0.62119
 C152 C 1.20890 -0.20187 0.27304
 C153 C 1.17738 -0.17661 0.30648
 C154 C 1.14047 -0.14646 0.34506
 C155 C 1.11146 -0.11773 0.37774
 C156 C 0.80236 0.21343 0.29067
 C157 C 0.83116 0.18856 0.32534
 C158 C 0.86373 0.15619 0.36418
 C159 C 0.89061 0.12480 0.39434
 C160 C 0.22208 0.28695 -0.20011
 C161 C 0.19029 0.31891 -0.17362
 C162 C 0.15021 0.35427 -0.14387
 C163 C 0.11405 0.38177 -0.11808
 C164 C -0.20112 0.27640 0.22244
 C165 C -0.17528 0.31013 0.19340
 C166 C -0.14431 0.34797 0.15821
 C167 C -0.11552 0.37831 0.12816
 C168 C -0.20199 0.72043 -0.21534
 C169 C -0.17547 0.68867 -0.18559
 C170 C -0.14265 0.65371 -0.15010
 C171 C -0.11240 0.62625 -0.11946
 C172 C 0.21023 0.73774 0.20074
 C173 C 0.17957 0.70856 0.16970
 C174 C 0.14155 0.67382 0.13649
 C175 C 0.10821 0.64275 0.11078
 C176 C 0.28695 1.21889 0.80108
 C177 C 0.31654 1.18733 0.82866
 C178 C 0.35018 1.14800 0.85899
 C179 C 0.37743 1.11267 0.88391
 C180 C 0.28030 0.80083 1.20953
 C181 C 0.31582 0.82905 1.18432
 C182 C 0.35610 0.86220 1.15327
 C183 C 0.38788 0.89169 1.12516
 C184 C 0.74042 1.20335 1.21938
 C185 C 0.71328 1.17100 1.18799
 C186 C 0.68156 1.13390 1.15048
 C187 C 0.65411 1.10267 1.11836
 C188 C 0.73263 0.79323 0.78433
 C189 C 0.70199 0.82386 0.81356
 C190 C 0.66644 0.86000 0.84777
 C191 C 0.63604 0.89128 0.87643
   
