data_POSCAR
  _audit_creation_date              2014-09-24
  _audit_creation_method            'ToBaCCo'
  _symmetry_space_group_name_H-M    'P1'
  _symmetry_Int_Tables_number       1
  _symmetry_cell_setting            triclinic
  loop_
  _symmetry_equiv_pos_as_xyz
 x,y,z
_cell_length_a 47.0845
_cell_length_b 50.0209
_cell_length_c 45.7522
_cell_angle_alpha 89.794700
_cell_angle_beta 89.647300
_cell_angle_gamma 89.693300
loop_
  _atom_site_label
  _atom_site_type_symbol
  _atom_site_fract_x
  _atom_site_fract_y
  _atom_site_fract_z
C1 C 0.23901 0.19834 0.23206
 C2 C 0.23022 0.18969 0.25980
 C3 C 0.20478 0.19925 0.27247
 C4 C 0.18906 0.21900 0.25737
 C5 C 0.19781 0.22803 0.22962
 C6 C 0.22270 0.21739 0.21676
 C7 C 0.26317 0.18712 0.21887
 C8 C 0.27062 0.19352 0.18980
 C9 C 0.25455 0.21311 0.17490
 C10 C 0.23090 0.22529 0.18831
 C11 C 0.21474 0.24455 0.17333
 C12 C 0.18997 0.25536 0.18603
 C13 C 0.18156 0.24687 0.21411
 H14 H 0.24281 0.17464 0.27096
 H15 H 0.16952 0.22686 0.26669
 H16 H 0.27516 0.17215 0.23084
 H17 H 0.26011 0.21869 0.15268
 H18 H 0.22100 0.25059 0.15146
 H19 H 0.16237 0.25498 0.22393
 C20 C -0.18444 0.81467 0.19970
 C21 C -0.16391 0.82879 0.21523
 C22 C -0.14322 0.81529 0.23187
 C23 C -0.14282 0.78710 0.23170
 C24 C -0.16264 0.77274 0.21519
 C25 C -0.18390 0.78658 0.19958
 C26 C -0.20562 0.82844 0.18449
 C27 C -0.22708 0.81466 0.16950
 C28 C -0.22620 0.78644 0.16913
 C29 C -0.20443 0.77236 0.18364
 C30 C -0.20245 0.74438 0.18196
 C31 C -0.18033 0.73048 0.19615
 C32 C -0.16113 0.74481 0.21352
 H33 H -0.16480 0.85046 0.21503
 H34 H -0.12683 0.77624 0.24396
 H35 H -0.20562 0.85011 0.18506
 H36 H -0.24213 0.77537 0.15727
 H37 H -0.21763 0.73354 0.16889
 H38 H -0.14419 0.73437 0.22482
 C39 C -0.23894 0.20894 -0.24965
 C40 C -0.22558 0.19752 -0.27407
 C41 C -0.19979 0.20778 -0.28469
 C42 C -0.18842 0.23087 -0.27195
 C43 C -0.20205 0.24303 -0.24803
 C44 C -0.22702 0.23161 -0.23636
 C45 C -0.26303 0.19695 -0.23728
 C46 C -0.27455 0.20628 -0.21068
 C47 C -0.26294 0.22942 -0.19800
 C48 C -0.23952 0.24227 -0.21085
 C49 C -0.22770 0.26499 -0.19789
 C50 C -0.20320 0.27698 -0.20977
 C51 C -0.19046 0.26574 -0.23483
 H52 H -0.23432 0.17956 -0.28361
 H53 H -0.16862 0.23898 -0.28022
 H54 H -0.27153 0.17920 -0.24749
 H55 H -0.27174 0.23726 -0.17780
 H56 H -0.23742 0.27307 -0.17827
 H57 H -0.17126 0.27440 -0.24387
 C58 C 0.22286 0.80256 -0.20999
 C59 C 0.21157 0.81489 -0.23483
 C60 C 0.18534 0.80677 -0.24641
 C61 C 0.17145 0.78463 -0.23364
 C62 C 0.18241 0.77229 -0.20837
 C63 C 0.20791 0.78171 -0.19616
 C64 C 0.24835 0.81164 -0.19810
 C65 C 0.25857 0.80101 -0.17176
 C66 C 0.24330 0.78067 -0.15752
 C67 C 0.21817 0.77074 -0.16974
 C68 C 0.20279 0.75048 -0.15565
 C69 C 0.17767 0.74061 -0.16792
 C70 C 0.16775 0.75138 -0.19444
 H71 H 0.22308 0.83140 -0.24462
 H72 H 0.15142 0.77778 -0.24235
 H73 H 0.25965 0.82786 -0.20873
 H74 H 0.25100 0.77259 -0.13701
 H75 H 0.21051 0.74219 -0.13524
 H76 H 0.14812 0.74409 -0.20368
 C77 C 0.18299 1.21734 0.79255
 C78 C 0.17149 1.20595 0.76735
 C79 C 0.18625 1.18589 0.75174
 C80 C 0.21304 1.17734 0.76211
 C81 C 0.22474 1.18844 0.78753
 C82 C 0.20974 1.20872 0.80257
 C83 C 0.16786 1.23699 0.80809
 C84 C 0.17939 1.24877 0.83332
 C85 C 0.20643 1.24036 0.84275
 C86 C 0.22130 1.22013 0.82795
 C87 C 0.24722 1.21066 0.83872
 C88 C 0.26190 1.18979 0.82464
 C89 C 0.25083 1.17916 0.79862
 H90 H 0.15084 1.21283 0.76002
 H91 H 0.22472 1.16177 0.75072
 H92 H 0.14715 1.24321 0.80028
 H93 H 0.21567 1.24889 0.86224
 H94 H 0.25569 1.21926 0.85854
 H95 H 0.26201 1.16311 0.78753
 C96 C 0.82205 0.76337 0.76820
 C97 C 0.83687 0.77707 0.74615
 C98 C 0.82740 0.80222 0.73602
 C99 C 0.80251 0.81340 0.74845
 C100 C 0.78797 0.80027 0.77116
 C101 C 0.79775 0.77513 0.78103
 C102 C 0.83144 0.73818 0.77786
 C103 C 0.81698 0.72450 0.80043
 C104 C 0.79294 0.73671 0.81334
 C105 C 0.78343 0.76190 0.80398
 C106 C 0.76007 0.77424 0.81760
 C107 C 0.75045 0.79948 0.80829
 C108 C 0.76417 0.81215 0.78464
 H109 H 0.85574 0.76791 0.73677
 H110 H 0.79482 0.83276 0.74115
 H111 H 0.85015 0.72938 0.76777
 H112 H 0.78161 0.72682 0.83098
 H113 H 0.74940 0.76419 0.83557
 H114 H 0.75693 0.83166 0.77736
 C115 C 0.18410 0.77503 1.20826
 C116 C 0.17187 0.78919 1.23162
 C117 C 0.18430 0.81284 1.24181
 C118 C 0.20967 0.82190 1.22884
 C119 C 0.22249 0.80761 1.20586
 C120 C 0.20955 0.78415 1.19539
 C121 C 0.17079 0.75227 1.19711
 C122 C 0.18261 0.73814 1.17328
 C123 C 0.20852 0.74703 1.16113
 C124 C 0.22180 0.77009 1.17174
 C125 C 0.24678 0.77969 1.15859
 C126 C 0.25983 0.80301 1.16890
 C127 C 0.24768 0.81671 1.19275
 H128 H 0.15213 0.78228 1.24127
 H129 H 0.21940 0.84011 1.23662
 H130 H 0.15102 0.74577 1.20702
 H131 H 0.21802 0.73657 1.14277
 H132 H 0.25603 0.76901 1.14025
 H133 H 0.25743 0.83487 1.20064
 C134 C 0.78754 1.24244 1.24327
 C135 C 0.80080 1.22930 1.26662
 C136 C 0.79264 1.20331 1.27507
 C137 C 0.77004 1.19102 1.26013
 C138 C 0.75673 1.20390 1.23649
 C139 C 0.76567 1.22964 1.22790
 C140 C 0.79652 1.26792 1.23454
 C141 C 0.78429 1.28076 1.21026
 C142 C 0.76243 1.26788 1.19500
 C143 C 0.75314 1.24239 1.20358
 C144 C 0.73205 1.22917 1.18774
 C145 C 0.72303 1.20348 1.19605
 C146 C 0.73521 1.19114 1.22072
 H147 H 0.81791 1.23934 1.27785
 H148 H 0.76327 1.17107 1.26623
 H149 H 0.81356 1.27748 1.24634
 H150 H 0.75296 1.27742 1.17610
 H151 H 0.72270 1.23888 1.16886
 H152 H 0.72857 1.17123 1.22712
 O153 O 0.53582 0.97052 0.94232
 O154 O 0.48362 0.96546 1.04710
 O155 O 0.57050 0.99059 1.02501
 O156 O 0.44801 0.98812 0.96457
 O157 O 0.53620 0.96869 1.04536
 O158 O 0.48483 0.96977 0.94544
 O159 O 0.46342 0.95973 1.00566
 O160 O 0.55849 0.96517 0.98194
 C161 C 0.55320 0.95745 0.95699
 C162 C 0.46788 0.95180 1.03100
 C163 C 0.56229 0.97266 1.04214
 C164 C 0.45836 0.97141 0.94745
 O165 O 0.48410 1.02436 0.94670
 O166 O 0.53264 1.02272 1.04748
 O167 O 0.57864 1.01062 0.96744
 O168 O 0.43900 1.00263 1.02395
 O169 O 0.47776 1.01866 1.04623
 O170 O 0.53740 1.02415 0.94776
 O171 O 0.46297 1.03093 0.98847
 O172 O 0.55207 1.03468 1.00548
 Co173 Co 0.51019 0.99704 0.94954
 Co174 Co 0.50784 0.99395 1.04219
 Co175 Co 0.55163 0.99975 0.99194
 Co176 Co 0.46639 0.99529 0.99805
 O177 O 0.50905 0.99462 0.99547
 C178 C 0.46833 1.03845 0.96294
 C179 C 0.54737 1.03909 1.03233
 C180 C 0.56478 1.02419 0.94757
 C181 C 0.45052 1.01673 1.04462
 O182 O 0.02266 0.46694 0.04530
 O183 O 0.02306 0.51635 -0.03623
 O184 O -0.00713 0.43554 -0.01402
 O185 O -0.00635 0.54590 0.04038
 O186 O 0.02376 0.46511 -0.02797
 O187 O 0.02396 0.51509 0.04810
 O188 O -0.00167 0.54740 -0.01329
 O189 O -0.00874 0.43711 0.03867
 C190 C 0.01626 0.44299 0.04490
 C191 C 0.01902 0.54030 -0.02929
 C192 C 0.01733 0.44130 -0.02339
 C193 C 0.01827 0.53924 0.04715
 O194 O -0.03027 0.51536 0.07085
 O195 O -0.02865 0.46397 -0.04972
 O196 O -0.06017 0.46232 0.03608
 O197 O -0.05543 0.53477 -0.01900
 O198 O -0.03001 0.51355 -0.05214
 O199 O -0.03032 0.46727 0.07042
 O200 O -0.05891 0.52718 0.03618
 O201 O -0.05975 0.45774 -0.01624
 Co202 Co -0.00464 0.49117 0.05466
 Co203 Co -0.00416 0.48967 -0.03640
 Co204 Co -0.03255 0.45177 0.01117
 Co205 Co -0.02950 0.53426 0.01124
 O206 O -0.01755 0.49191 0.00984
 C207 C -0.05419 0.52409 0.06273
 C208 C -0.05336 0.45758 -0.04248
 C209 C -0.05516 0.46240 0.06254
 C210 C -0.05064 0.52851 -0.04503
 O211 O 1.06847 0.01772 0.47231
 O212 O 0.94891 0.02467 0.51730
 O213 O 0.98725 0.04991 0.45715
 O214 O 1.02356 0.03929 0.54077
 O215 O 0.95136 0.02428 0.46243
 O216 O 1.06249 0.02345 0.52512
 O217 O 0.97780 0.01775 0.55441
 O218 O 1.03601 0.04622 0.46788
 C219 C 1.06151 0.04116 0.46670
 C220 C 0.95574 0.02818 0.54361
 C221 C 0.96126 0.04647 0.45546
 C222 C 1.04944 0.04177 0.53797
 O223 O 1.04574 -0.02746 0.53078
 O224 O 0.96354 -0.02613 0.46190
 O225 O 1.03770 -0.00361 0.44011
 O226 O 0.99604 -0.02939 0.54189
 O227 O 0.95656 -0.02673 0.51784
 O228 O 1.04703 -0.03127 0.47571
 O229 O 1.03080 -0.00468 0.56961
 O230 O 0.98747 0.00030 0.43225
 Co231 Co 1.05136 -0.00341 0.50041
 Co232 Co 0.95996 -0.00046 0.49036
 Co233 Co 1.01210 0.02207 0.45273
 Co234 Co 1.01059 0.00493 0.53791
 O235 O 1.00590 0.00660 0.49416
 C236 C 1.04798 -0.02291 0.55832
 C237 C 0.97406 -0.02122 0.43721
 C238 C 1.04538 -0.02654 0.44888
 C239 C 0.97162 -0.03774 0.53678
 C240 C 1.17256 0.16283 0.34658
 N241 N 1.19797 0.15513 0.33525
 N242 N 1.20874 0.16748 0.31190
 C243 C 1.19452 0.18795 0.29874
 N244 N 1.16931 0.19595 0.31057
 N245 N 1.15855 0.18363 0.33399
 C246 C 1.15923 0.14730 0.37021
 N247 N 1.13342 0.15458 0.38098
 N248 N 1.11993 0.13904 0.40019
 C249 C 1.13168 0.11563 0.40931
 N250 N 1.15771 0.10855 0.39891
 N251 N 1.17125 0.12413 0.37974
 C252 C 1.11508 0.09717 0.42758
 N253 N 1.12497 0.07225 0.43400
 N254 N 1.10839 0.05455 0.44765
 C255 C 1.08135 0.06119 0.45531
 N256 N 1.07174 0.08623 0.44938
 N257 N 1.08827 0.10388 0.43581
 C258 C 0.91023 -0.14090 0.28405
 N259 N 0.90929 -0.16794 0.28659
 N260 N 0.89270 -0.18226 0.26914
 C261 C 0.87600 -0.17005 0.24886
 N262 N 0.87736 -0.14300 0.24626
 N263 N 0.89418 -0.12874 0.26339
 C264 C 0.92599 -0.12467 0.30496
 N265 N 0.93084 -0.09843 0.29931
 N266 N 0.94215 -0.08275 0.31956
 C267 C 0.94871 -0.09270 0.34631
 N268 N 0.94422 -0.11904 0.35185
 N269 N 0.93318 -0.13479 0.33148
 C270 C 0.95768 -0.07476 0.36971
 N271 N 0.95504 -0.08243 0.39806
 N272 N 0.96056 -0.06538 0.41952
 C273 C 0.96907 -0.04008 0.41342
 N274 N 0.97220 -0.03250 0.38507
 N275 N 0.96638 -0.04949 0.36358
 C276 C 0.84674 0.16009 0.65704
 N277 N 0.86018 0.17716 0.67527
 N278 N 0.84533 0.19320 0.69290
 C279 C 0.81649 0.19266 0.69308
 N280 N 0.80309 0.17580 0.67454
 N281 N 0.81793 0.15993 0.65673
 C282 C 0.86302 0.14088 0.63941
 N283 N 0.85017 0.12654 0.61816
 N284 N 0.86467 0.10820 0.60308
 C285 C 0.89243 0.10330 0.60900
 N286 N 0.90528 0.11763 0.63025
 N287 N 0.89085 0.13613 0.64515
 C288 C 0.90836 0.08294 0.59262
 N289 N 0.93414 0.07437 0.60206
 N290 N 0.94890 0.05631 0.58685
 C291 C 0.93846 0.04627 0.56160
 N292 N 0.91264 0.05479 0.55221
 N293 N 0.89777 0.07267 0.56755
 C294 C 1.14695 -0.14684 0.69021
 N295 N 1.13571 -0.17085 0.69782
 N296 N 1.14828 -0.18617 0.71794
 C297 C 1.17276 -0.17824 0.73091
 N298 N 1.18412 -0.15442 0.72265
 N299 N 1.17141 -0.13898 0.70291
 C300 C 1.13239 -0.12880 0.66983
 N301 N 1.13671 -0.10205 0.67152
 N302 N 1.12332 -0.08528 0.65357
 C303 C 1.10542 -0.09469 0.63295
 N304 N 1.10124 -0.12149 0.63105
 N305 N 1.11433 -0.13826 0.64934
 C306 C 1.09069 -0.07605 0.61337
 N307 N 1.08192 -0.08401 0.58659
 N308 N 1.06871 -0.06689 0.56882
 C309 C 1.06349 -0.04137 0.57738
 N310 N 1.07209 -0.03346 0.60421
 N311 N 1.08569 -0.05045 0.62179
 C312 C 0.33141 1.14805 1.14748
 N313 N 0.32845 1.14672 1.17693
 N314 N 0.30930 1.16190 1.19063
 C315 C 0.29250 1.17926 1.17554
 N316 N 0.29612 1.18103 1.14608
 N317 N 0.31503 1.16559 1.13230
 C318 C 0.35047 1.12942 1.13222
 N319 N 0.34608 1.12343 1.10371
 N320 N 0.36209 1.10511 1.09033
 C321 C 0.38322 1.09229 1.10489
 N322 N 0.38786 1.09852 1.13331
 N323 N 0.37161 1.11661 1.14681
 C324 C 0.40041 1.07183 1.09012
 N325 N 0.42651 1.06493 1.10023
 N326 N 0.44237 1.04692 1.08611
 C327 C 0.43244 1.03486 1.06170
 N328 N 0.40621 1.04152 1.05186
 N329 N 0.39053 1.05975 1.06574
 C330 C 0.32781 0.83973 0.86574
 N331 N 0.32628 0.83672 0.83634
 N332 N 0.30472 0.82359 0.82449
 C333 C 0.28404 0.81275 0.84157
 N334 N 0.28597 0.81522 0.87103
 N335 N 0.30738 0.82860 0.88288
 C336 C 0.34949 0.85700 0.87849
 N337 N 0.34555 0.86727 0.90562
 N338 N 0.36371 0.88497 0.91631
 C339 C 0.38660 0.89289 0.90039
 N340 N 0.39085 0.88230 0.87343
 N341 N 0.37248 0.86479 0.86259
 C342 C 0.40547 0.91351 0.91185
 N343 N 0.43211 0.91698 0.90091
 N344 N 0.44906 0.93570 0.91186
 C345 C 0.43970 0.95185 0.93374
 N346 N 0.41302 0.94849 0.94440
 N347 N 0.39625 0.92963 0.93373
 C348 C 0.70899 0.85828 1.13007
 N349 N 0.73198 0.87052 1.14143
 N350 N 0.75250 0.85632 1.15399
 C351 C 0.75116 0.82922 1.15553
 N352 N 0.72817 0.81692 1.14381
 N353 N 0.70739 0.83119 1.13144
 C354 C 0.68648 0.87456 1.11676
 N355 N 0.66035 0.86439 1.11133
 N356 N 0.63999 0.87986 1.10002
 C357 C 0.64515 0.90595 1.09362
 N358 N 0.67130 0.91598 1.09891
 N359 N 0.69152 0.90062 1.11041
 C360 C 0.62320 0.92325 1.08086
 N361 N 0.63052 0.94717 1.06904
 N362 N 0.61098 0.96300 1.05705
 C363 C 0.58330 0.95565 1.05676
 N364 N 0.57585 0.93181 1.06878
 N365 N 0.59549 0.91583 1.08057
 C366 C 0.66753 1.15970 0.83391
 N367 N 0.67341 1.15496 0.80535
 N368 N 0.69152 1.17046 0.79073
 C369 C 0.70425 1.19154 0.80392
 N370 N 0.69759 1.19667 0.83234
 N371 N 0.67979 1.18093 0.84710
 C372 C 0.65023 1.14084 0.85082
 N373 N 0.65409 1.13825 0.88006
 N374 N 0.64013 1.11965 0.89520
 C375 C 0.62157 1.10318 0.88169
 N376 N 0.61738 1.10602 0.85252
 N377 N 0.63167 1.12437 0.83729
 C378 C 0.60695 1.08224 0.89833
 N379 N 0.58181 1.07225 0.88908
 N380 N 0.56843 1.05351 0.90462
 C381 C 0.58002 1.04375 0.92960
 N382 N 0.60529 1.05353 0.93864
 N383 N 0.61845 1.07253 0.92336
 C384 C 0.14011 0.31041 0.13930
 N385 N 0.16855 0.30882 0.13451
 N386 N 0.18440 0.29129 0.14929
 C387 C 0.17248 0.27493 0.16967
 N388 N 0.14404 0.27669 0.17454
 N389 N 0.12816 0.29399 0.15955
 C390 C 0.12243 0.32955 0.12297
 N391 N 0.09378 0.32677 0.12258
 N392 N 0.07757 0.34422 0.10818
 C393 C 0.08935 0.36525 0.09383
 N394 N 0.11802 0.36809 0.09423
 N395 N 0.13429 0.35045 0.10840
 C396 C 0.07109 0.38500 0.07911
 N397 N 0.08109 0.40955 0.07167
 N398 N 0.06383 0.42795 0.06012
 C399 C 0.03606 0.42233 0.05531
 N400 N 0.02624 0.39766 0.06231
 N401 N 0.04339 0.37938 0.07408
 C402 C -0.16571 0.34229 -0.16760
 N403 N -0.15419 0.33230 -0.19256
 N404 N -0.16630 0.31183 -0.20617
 C405 C -0.19035 0.30050 -0.19533
 N406 N -0.20195 0.31073 -0.17048
 N407 N -0.18986 0.33118 -0.15686
 C408 C -0.15141 0.36365 -0.15148
 N409 N -0.16200 0.37223 -0.12547
 N410 N -0.14802 0.39018 -0.10975
 C411 C -0.12297 0.40029 -0.11948
 N412 N -0.11257 0.39200 -0.14569
 N413 N -0.12654 0.37401 -0.16141
 C414 C -0.10625 0.41796 -0.10074
 N415 N -0.08044 0.42697 -0.10964
 N416 N -0.06402 0.44066 -0.09145
 C417 C -0.07282 0.44581 -0.06371
 N418 N -0.09884 0.43722 -0.05500
 N419 N -0.11527 0.42358 -0.07319
 C420 C 0.13228 0.68040 -0.12440
 N421 N 0.14674 0.69907 -0.10911
 N422 N 0.16126 0.71811 -0.12298
 C423 C 0.16158 0.71942 -0.15265
 N424 N 0.14693 0.70086 -0.16792
 N425 N 0.13269 0.68161 -0.15405
 C426 C 0.11653 0.65923 -0.10915
 N427 N 0.10933 0.63651 -0.12338
 N428 N 0.09506 0.61726 -0.10960
 C429 C 0.08717 0.62012 -0.08119
 N430 N 0.09423 0.64289 -0.06697
 N431 N 0.10883 0.66202 -0.08065
 C432 C 0.07071 0.59910 -0.06647
 N433 N 0.05498 0.60457 -0.04220
 N434 N 0.03885 0.58573 -0.02991
 C435 C 0.03823 0.56067 -0.04122
 N436 N 0.05428 0.55515 -0.06521
 N437 N 0.07011 0.57404 -0.07769
 C438 C -0.16152 0.65067 0.17546
 N439 N -0.14753 0.66322 0.19725
 N440 N -0.15441 0.68814 0.20474
 C441 C -0.17554 0.70155 0.19073
 N442 N -0.19002 0.68867 0.16944
 N443 N -0.18312 0.66374 0.16192
 C444 C -0.15088 0.62508 0.16400
 N445 N -0.16211 0.61461 0.13934
 N446 N -0.14976 0.59381 0.12623
 C447 C -0.12575 0.58266 0.13731
 N448 N -0.11497 0.59265 0.16244
 N449 N -0.12731 0.61349 0.17554
 C450 C -0.10943 0.56318 0.11999
 N451 N -0.08404 0.55369 0.12962
 N452 N -0.06704 0.53969 0.11191
 C453 C -0.07477 0.53479 0.08390
 N454 N -0.10048 0.54364 0.07457
 N455 N -0.11750 0.55751 0.09229
 C456 C 1.14960 0.15179 0.67899
 N457 N 1.17603 0.14427 0.68757
 N458 N 1.18800 0.15536 0.71090
 C459 C 1.17405 0.17444 0.72662
 N460 N 1.14767 0.18201 0.71772
 N461 N 1.13567 0.17089 0.69449
 C462 C 1.13566 0.13874 0.65416
 N463 N 1.10793 0.14391 0.64824
 N464 N 1.09471 0.13105 0.62685
 C465 C 1.10877 0.11266 0.61041
 N466 N 1.13661 0.10773 0.61609
 N467 N 1.14980 0.12051 0.63757
 C468 C 1.09356 0.09671 0.58861
 N469 N 1.10774 0.07861 0.57190
 N470 N 1.09367 0.06210 0.55445
 C471 C 1.06488 0.06305 0.55304
 N472 N 1.05071 0.08150 0.56932
 N473 N 1.06480 0.09810 0.58669
 C474 C 0.87263 -0.15679 0.67269
 N475 N 0.88348 -0.17934 0.68493
 N476 N 0.86873 -0.19272 0.70513
 C477 C 0.84272 -0.18394 0.71421
 N478 N 0.83207 -0.16125 0.70192
 N479 N 0.84662 -0.14806 0.68146
 C480 C 0.88863 -0.14185 0.65041
 N481 N 0.91729 -0.14444 0.64787
 N482 N 0.93169 -0.12999 0.62824
 C483 C 0.91782 -0.11275 0.61021
 N484 N 0.88917 -0.11044 0.61261
 N485 N 0.87486 -0.12460 0.63242
 C486 C 0.93319 -0.09576 0.58926
 N487 N 0.91858 -0.08311 0.56781
 N488 N 0.93143 -0.06564 0.55028
 C489 C 0.95938 -0.06000 0.55356
 N490 N 0.97422 -0.07291 0.57478
 N491 N 0.96136 -0.09063 0.59224
 C492 C 1.14210 -0.14206 0.30609
 N493 N 1.13927 -0.16904 0.30532
 N494 N 1.15288 -0.18342 0.28508
 C495 C 1.17010 -0.17141 0.26506
 N496 N 1.17313 -0.14444 0.26610
 N497 N 1.15930 -0.13005 0.28613
 C498 C 1.12629 -0.12591 0.32756
 N499 N 1.12308 -0.09922 0.32329
 N500 N 1.10857 -0.08441 0.34241
 C501 C 1.09691 -0.09566 0.36668
 N502 N 1.10020 -0.12236 0.37109
 N503 N 1.11448 -0.13726 0.35176
 C504 C 1.08158 -0.07879 0.38786
 N505 N 1.07663 -0.08722 0.41571
 N506 N 1.06440 -0.07092 0.43518
 C507 C 1.05642 -0.04576 0.42736
 N508 N 1.06094 -0.03760 0.39940
 N509 N 1.07336 -0.05375 0.38008
 C510 C 0.83829 0.16246 0.33801
 N511 N 0.84602 0.18739 0.32953
 N512 N 0.83093 0.20071 0.30965
 C513 C 0.80760 0.18965 0.29723
 N514 N 0.79983 0.16471 0.30601
 N515 N 0.81482 0.15143 0.32602
 C516 C 0.85573 0.14720 0.35879
 N517 N 0.84667 0.12329 0.36923
 N518 N 0.86303 0.10880 0.38695
 C519 C 0.88913 0.11759 0.39479
 N520 N 0.89816 0.14160 0.38449
 N521 N 0.88171 0.15617 0.36688
 C522 C 0.90767 0.10053 0.41274
 N523 N 0.93543 0.10673 0.41696
 N524 N 0.95255 0.08997 0.43137
 C525 C 0.94243 0.06652 0.44215
 N526 N 0.91462 0.06061 0.43828
 N527 N 0.89758 0.07726 0.42384
 C528 C 0.13389 0.30480 -0.11948
 N529 N 0.16158 0.29992 -0.11337
 N530 N 0.17626 0.28183 -0.12862
 C531 C 0.16399 0.26816 -0.15085
 N532 N 0.13630 0.27339 -0.15706
 N533 N 0.12150 0.29121 -0.14157
 C534 C 0.11747 0.32430 -0.10245
 N535 N 0.08871 0.32300 -0.10166
 N536 N 0.07362 0.34080 -0.08648
 C537 C 0.08672 0.36074 -0.07181
 N538 N 0.11551 0.36212 -0.07265
 N539 N 0.13063 0.34407 -0.08753
 C540 C 0.06974 0.38106 -0.05658
 N541 N 0.08046 0.40571 -0.05126
 N542 N 0.06404 0.42484 -0.03981
 C543 C 0.03647 0.41983 -0.03294
 N544 N 0.02600 0.39502 -0.03769
 N545 N 0.04228 0.37603 -0.04943
 C546 C -0.18063 0.35225 0.17852
 N547 N -0.17054 0.34069 0.20325
 N548 N -0.18223 0.31843 0.21375
 C549 C -0.20440 0.30678 0.19992
 N550 N -0.21477 0.31867 0.17542
 N551 N -0.20309 0.34095 0.16491
 C552 C -0.16564 0.37484 0.16506
 N553 N -0.17430 0.38491 0.13900
 N554 N -0.15880 0.40313 0.12498
 C555 C -0.13407 0.41198 0.13650
 N556 N -0.12572 0.40235 0.16287
 N557 N -0.14124 0.38413 0.17691
 C558 C -0.11504 0.42883 0.11895
 N559 N -0.08885 0.43535 0.12891
 N560 N -0.07008 0.44732 0.11136
 C561 C -0.07685 0.45312 0.08324
 N562 N -0.10324 0.44718 0.07353
 N563 N -0.12199 0.43528 0.09106
 C564 C -0.15332 0.65215 -0.16824
 N565 N -0.13964 0.66474 -0.19051
 N566 N -0.14948 0.68788 -0.20099
 C567 C -0.17328 0.69944 -0.18953
 N568 N -0.18707 0.68649 -0.16751
 N569 N -0.17728 0.66338 -0.15705
 C570 C -0.14121 0.62813 -0.15456
 N571 N -0.15380 0.61751 -0.13047
 N572 N -0.14141 0.59766 -0.11583
 C573 C -0.11602 0.58755 -0.12478
 N574 N -0.10369 0.59773 -0.14929
 N575 N -0.11608 0.61768 -0.16393
 C576 C -0.10069 0.56868 -0.10592
 N577 N -0.07527 0.55803 -0.11416
 N578 N -0.05981 0.54385 -0.09525
 C579 C -0.06916 0.54007 -0.06740
 N580 N -0.09477 0.55029 -0.05942
 N581 N -0.11030 0.56422 -0.07834
 C582 C 0.13891 0.67538 0.13660
 N583 N 0.12705 0.69027 0.15821
 N584 N 0.14143 0.71011 0.17041
 C585 C 0.16816 0.71618 0.16128
 N586 N 0.18004 0.70109 0.13966
 N587 N 0.16576 0.68100 0.12765
 C588 C 0.12218 0.65449 0.12242
 N589 N 0.13478 0.63470 0.10662
 N590 N 0.11911 0.61602 0.09371
 C591 C 0.09032 0.61677 0.09584
 N592 N 0.07783 0.63663 0.11151
 N593 N 0.09345 0.65504 0.12468
 C594 C 0.07252 0.59673 0.08159
 N595 N 0.04471 0.60224 0.07680
 N596 N 0.02782 0.58401 0.06512
 C597 C 0.03797 0.55944 0.05803
 N598 N 0.06586 0.55384 0.06268
 N599 N 0.08291 0.57226 0.07411
 C600 C 0.33353 1.15581 0.86489
 N601 N 0.32802 1.15078 0.83632
 N602 N 0.30552 1.16179 0.82329
 C603 C 0.28778 1.17837 0.83831
 N604 N 0.29357 1.18352 0.86680
 N605 N 0.31591 1.17242 0.87986
 C606 C 0.35718 1.14242 0.87992
 N607 N 0.35911 1.14331 0.90951
 N608 N 0.37942 1.12976 0.92343
 C609 C 0.39871 1.11501 0.90822
 N610 N 0.39702 1.11445 0.87859
 N611 N 0.37660 1.12785 0.86469
 C612 C 0.41943 1.09799 0.92348
 N613 N 0.43949 1.08446 0.90803
 N614 N 0.45619 1.06659 0.92114
 C615 C 0.45348 1.06153 0.95019
 N616 N 0.43379 1.07546 0.96582
 N617 N 0.41714 1.09346 0.95271
 C618 C 0.33158 0.83479 1.12666
 N619 N 0.31382 0.81819 1.11224
 N620 N 0.29133 0.80769 1.12581
 C621 C 0.28558 0.81360 1.15423
 N622 N 0.30345 0.83015 1.16861
 N623 N 0.32605 0.84046 1.15513
 C624 C 0.35554 0.84760 1.11147
 N625 N 0.37519 0.86134 1.12685
 N626 N 0.39585 0.87454 1.11314
 C627 C 0.39760 0.87465 1.08351
 N628 N 0.37811 0.86071 1.06808
 N629 N 0.35753 0.84732 1.08183
 C630 C 0.41859 0.89170 1.06866
 N631 N 0.41666 0.89700 1.03958
 N632 N 0.43348 0.91516 1.02704
 C633 C 0.45297 0.92851 1.04309
 N634 N 0.45534 0.92270 1.07197
 N635 N 0.43848 0.90466 1.08451
 C636 C 0.66334 1.16225 1.14565
 N637 N 0.67857 1.18260 1.13384
 N638 N 0.69723 1.19592 1.14997
 C639 C 0.70157 1.18926 1.17844
 N640 N 0.68629 1.16888 1.19018
 N641 N 0.66748 1.15571 1.17414
 C642 C 0.64330 1.14695 1.12782
 N643 N 0.62529 1.12937 1.14075
 N644 N 0.60789 1.11461 1.12471
 C645 C 0.60790 1.11672 1.09512
 N646 N 0.62582 1.13440 1.08213
 N647 N 0.64312 1.14934 1.09822
 C648 C 0.59002 1.09881 1.07776
 N649 N 0.59355 1.09649 1.04835
 N650 N 0.57909 1.07823 1.03337
 C651 C 0.56046 1.06181 1.04730
 N652 N 0.55660 1.06456 1.07655
 N653 N 0.57108 1.08267 1.09147
 C654 C 0.68447 0.83849 0.85353
 N655 N 0.70026 0.81928 0.86685
 N656 N 0.72091 0.80666 0.85231
 C657 C 0.72677 0.81290 0.82398
 N658 N 0.71095 0.83215 0.81069
 N659 N 0.69013 0.84462 0.82515
 C660 C 0.66226 0.85305 0.86975
 N661 N 0.64341 0.86884 0.85537
 N662 N 0.62398 0.88291 0.87006
 C663 C 0.62276 0.88189 0.89970
 N664 N 0.64154 0.86601 0.91413
 N665 N 0.66085 0.85174 0.89940
 C666 C 0.60263 0.89912 0.91567
 N667 N 0.60550 0.90352 0.94481
 N668 N 0.58893 0.92129 0.95848
 C669 C 0.56873 0.93509 0.94353
 N670 N 0.56553 0.93024 0.91458
 N671 N 0.58217 0.91263 0.90091
   
