data_POSCAR
  _audit_creation_date              2014-09-24
  _audit_creation_method            'ToBaCCo'
  _symmetry_space_group_name_H-M    'P1'
  _symmetry_Int_Tables_number       1
  _symmetry_cell_setting            triclinic
  loop_
  _symmetry_equiv_pos_as_xyz
 x,y,z
_cell_length_a 39.7592
_cell_length_b 41.2157
_cell_length_c 40.6717
_cell_angle_alpha 90.551100
_cell_angle_beta 90.397100
_cell_angle_gamma 90.512700
loop_
  _atom_site_label
  _atom_site_type_symbol
  _atom_site_fract_x
  _atom_site_fract_y
  _atom_site_fract_z
C1 C 0.18059 0.18609 0.22324
 C2 C 0.16626 0.21214 0.20604
 C3 C 0.17753 0.22069 0.17458
 C4 C 0.20373 0.20295 0.16026
 C5 C 0.21871 0.17680 0.17673
 C6 C 0.20694 0.16873 0.20830
 H7 H 0.14597 0.22576 0.21700
 H8 H 0.21233 0.20952 0.13599
 H9 H 0.21817 0.14862 0.22120
 C10 C -0.19747 0.78402 0.26874
 C11 C -0.18699 0.75415 0.25541
 C12 C -0.20403 0.73959 0.22866
 C13 C -0.23256 0.75485 0.21561
 C14 C -0.24375 0.78460 0.22850
 C15 C -0.22620 0.79884 0.25520
 H16 H -0.16482 0.74254 0.26524
 H17 H -0.24556 0.74395 0.19474
 H18 H -0.23456 0.82193 0.26492
 C19 C -0.21050 0.21786 -0.24414
 C20 C -0.20254 0.25005 -0.23496
 C21 C -0.21533 0.26399 -0.20603
 C22 C -0.23716 0.24556 -0.18639
 C23 C -0.24588 0.21346 -0.19515
 C24 C -0.23257 0.19996 -0.22414
 H25 H -0.18545 0.26413 -0.24988
 H26 H -0.24687 0.25602 -0.16390
 H27 H -0.23893 0.17512 -0.23073
 C28 C 0.20148 0.80400 -0.24508
 C29 C 0.18686 0.77846 -0.22714
 C30 C 0.20385 0.76436 -0.20051
 C31 C 0.23625 0.77563 -0.19220
 C32 C 0.25152 0.80104 -0.20960
 C33 C 0.23403 0.81495 -0.23608
 H34 H 0.16180 0.76986 -0.23343
 H35 H 0.24932 0.76507 -0.17151
 H36 H 0.24569 0.83470 -0.24932
 C37 C 0.20413 1.19403 0.77098
 C38 C 0.18762 1.22093 0.78505
 C39 C 0.19596 1.23211 0.81692
 C40 C 0.22126 1.21625 0.83469
 C41 C 0.23800 1.18947 0.82129
 C42 C 0.22953 1.17878 0.78939
 H43 H 0.16790 1.23294 0.77144
 H44 H 0.22762 1.22446 0.85934
 H45 H 0.24239 1.15798 0.77918
 C46 C 0.79781 0.79661 0.74880
 C47 C 0.80978 0.76646 0.75961
 C48 C 0.79091 0.74710 0.78133
 C49 C 0.75918 0.75818 0.79159
 C50 C 0.74662 0.78806 0.78088
 C51 C 0.76592 0.80681 0.75927
 H52 H 0.83433 0.75841 0.75175
 H53 H 0.74442 0.74392 0.80855
 H54 H 0.75640 0.83003 0.75142
 C55 C 0.20904 0.80316 1.24116
 C56 C 0.19243 0.77922 1.22192
 C57 C 0.20915 0.76287 1.19636
 C58 C 0.24309 0.77040 1.19038
 C59 C 0.26019 0.79420 1.20915
 C60 C 0.24312 0.81003 1.23471
 H61 H 0.16618 0.77371 1.22635
 H62 H 0.25597 0.75836 1.17040
 H63 H 0.25627 0.82856 1.24896
 C64 C 0.80585 1.21134 1.23869
 C65 C 0.78128 1.19594 1.21879
 C66 C 0.76710 1.21157 1.19156
 C67 C 0.77704 1.24354 1.18473
 C68 C 0.80137 1.25963 1.20435
 C69 C 0.81549 1.24341 1.23133
 H70 H 0.77372 1.17122 1.22392
 H71 H 0.76647 1.25559 1.16356
 H72 H 0.83450 1.25564 1.24621
 O73 O 0.54401 0.97403 0.93550
 O74 O 0.48791 0.96463 1.07210
 O75 O 0.56002 0.94021 1.03201
 O76 O 0.47173 0.93545 0.97089
 O77 O 0.54989 0.97384 1.07049
 O78 O 0.48332 0.97109 0.93399
 O79 O 0.46312 0.93523 1.03326
 O80 O 0.55478 0.94013 0.97341
 C81 C 0.55261 0.94610 0.94376
 C82 C 0.47111 0.93990 1.06280
 C83 C 0.56006 0.94660 1.06168
 C84 C 0.47355 0.94294 0.94142
 O85 O 0.48025 1.03115 0.96181
 O86 O 0.54100 1.03337 1.04816
 O87 O 0.58086 1.00126 0.97155
 O88 O 0.44128 0.99479 1.03058
 O89 O 0.47770 1.02576 1.05708
 O90 O 0.54026 1.03379 0.96580
 O91 O 0.44329 0.99428 0.97022
 O92 O 0.58210 1.00335 1.03100
 Co93 Co 0.51223 1.00100 0.95373
 Co94 Co 0.51426 0.99813 1.05618
 Co95 Co 0.56475 0.97245 1.00210
 Co96 Co 0.46053 0.96658 1.00106
 O97 O 0.51262 0.98461 1.00355
 C98 C 0.45030 1.02306 0.96345
 C99 C 0.57141 1.03014 1.04185
 C100 C 0.57085 1.02909 0.96501
 C101 C 0.44805 1.01869 1.04917
 O102 O 0.03696 0.47493 0.04411
 O103 O 0.03970 0.53608 -0.04584
 O104 O -0.00155 0.44261 -0.04192
 O105 O 0.00871 0.57582 0.02302
 O106 O 0.03647 0.47808 -0.05040
 O107 O 0.04216 0.53703 0.03741
 O108 O 0.00609 0.57498 -0.03634
 O109 O 0.00389 0.43983 0.01837
 C110 C 0.02955 0.44636 0.03583
 C111 C 0.03467 0.56563 -0.04450
 C112 C 0.02788 0.44924 -0.05002
 C113 C 0.03689 0.56653 0.03365
 O114 O -0.01947 0.54203 0.06227
 O115 O -0.02765 0.48214 -0.07513
 O116 O -0.05820 0.45972 0.02547
 O117 O -0.05718 0.54908 -0.03386
 O118 O -0.02297 0.54064 -0.07301
 O119 O -0.02539 0.48206 0.06312
 O120 O -0.05563 0.55346 0.02509
 O121 O -0.06192 0.46991 -0.03602
 Co122 Co 0.00708 0.50931 0.04601
 Co123 Co 0.00502 0.50926 -0.05655
 Co124 Co -0.02770 0.45847 -0.00864
 Co125 Co -0.02317 0.55881 -0.00572
 O126 O -0.00953 0.50876 -0.00592
 C127 C -0.04823 0.55156 0.05457
 C128 C -0.05648 0.47320 -0.06584
 C129 C -0.05143 0.46604 0.05491
 C130 C -0.05154 0.54899 -0.06369
 O131 O 1.06589 0.03681 0.47403
 O132 O 0.93529 0.04158 0.53565
 O133 O 0.96713 0.02059 0.43577
 O134 O 1.03758 0.05812 0.54385
 O135 O 0.94199 0.04476 0.47537
 O136 O 1.07458 0.02400 0.53341
 O137 O 0.98044 0.06364 0.55476
 O138 O 1.01904 0.04984 0.45170
 C139 C 1.04925 0.05595 0.45663
 C140 C 0.94950 0.06346 0.55190
 C141 C 0.94746 0.04206 0.44542
 C142 C 1.06736 0.05117 0.54430
 O143 O 1.04917 -0.03422 0.52387
 O144 O 0.94088 -0.02054 0.47323
 O145 O 1.02782 -0.00309 0.42071
 O146 O 0.97403 0.00095 0.57333
 O147 O 0.93992 -0.02010 0.53518
 O148 O 1.04964 -0.02668 0.46392
 O149 O 1.03515 -0.00558 0.56692
 O150 O 0.99050 -0.03411 0.45792
 Co151 Co 1.05410 0.00164 0.49923
 Co152 Co 0.94529 0.01152 0.50439
 Co153 Co 1.00534 0.00834 0.45725
 Co154 Co 1.00684 0.02790 0.55536
 O155 O 1.00031 0.01358 0.50603
 C156 C 1.04631 -0.03151 0.55439
 C157 C 0.96000 -0.04063 0.45992
 C158 C 1.05106 -0.02188 0.43302
 C159 C 0.95085 -0.01886 0.56435
 N160 N 1.16903 0.14239 0.29970
 C161 C 1.14297 0.15852 0.31337
 N162 N 1.12979 0.18415 0.29731
 N163 N 1.14226 0.19333 0.26848
 C164 C 1.16828 0.17715 0.25442
 N165 N 1.18149 0.15158 0.27087
 C166 C 1.12779 0.14684 0.34305
 C167 C 1.11442 0.13559 0.36701
 C168 C 1.09777 0.12008 0.39401
 N169 N 1.06371 0.11844 0.39467
 N170 N 1.04809 0.09973 0.41643
 C171 C 1.06596 0.08204 0.43837
 N172 N 1.10007 0.08432 0.43814
 N173 N 1.11570 0.10302 0.41635
 N174 N 0.86848 -0.19915 0.32909
 C175 C 0.85921 -0.16974 0.34087
 N176 N 0.83071 -0.15606 0.32921
 N177 N 0.81214 -0.17118 0.30629
 C178 C 0.82134 -0.20060 0.29407
 N179 N 0.84988 -0.21428 0.30616
 C180 C 0.87978 -0.15255 0.36449
 C181 C 0.89619 -0.13663 0.38387
 C182 C 0.91404 -0.11559 0.40638
 N183 N 0.89666 -0.09858 0.42915
 N184 N 0.91195 -0.07581 0.44736
 C185 C 0.94521 -0.06925 0.44353
 N186 N 0.96280 -0.08671 0.42107
 N187 N 0.94742 -0.10950 0.40275
 N188 N 0.84278 0.20634 0.68452
 C189 C 0.83657 0.17482 0.67676
 N190 N 0.81402 0.15785 0.69474
 N191 N 0.79830 0.17191 0.71987
 C192 C 0.80461 0.20347 0.72810
 N193 N 0.82705 0.22039 0.70964
 C194 C 0.85536 0.15893 0.65138
 C195 C 0.87169 0.14478 0.63102
 C196 C 0.89153 0.12669 0.60806
 N197 N 0.87660 0.10506 0.58717
 N198 N 0.89517 0.08581 0.56824
 C199 C 0.92929 0.08751 0.56955
 N200 N 0.94417 0.10947 0.59022
 N201 N 0.92558 0.12873 0.60916
 N202 N 1.17907 -0.14076 0.68924
 C203 C 1.14734 -0.15074 0.68170
 N204 N 1.13388 -0.17615 0.69807
 N205 N 1.15155 -0.19102 0.72135
 C206 C 1.18335 -0.18104 0.72930
 N207 N 1.19674 -0.15565 0.71253
 C208 C 1.12760 -0.13339 0.65804
 C209 C 1.11110 -0.11785 0.63890
 C210 C 1.09188 -0.09788 0.61707
 N211 N 1.09349 -0.10214 0.58399
 N212 N 1.07778 -0.08178 0.56385
 C213 C 1.05995 -0.05650 0.57615
 N214 N 1.05811 -0.05257 0.60928
 N215 N 1.07375 -0.07292 0.62937
 N216 N 0.28357 1.11652 1.16291
 C217 C 0.29441 1.12439 1.13246
 N218 N 0.28016 1.14973 1.11681
 N219 N 0.25580 1.16663 1.13115
 C220 C 0.24469 1.15893 1.16171
 N221 N 0.25920 1.13344 1.17724
 C222 C 0.32079 1.10626 1.11702
 C223 C 0.34308 1.09113 1.10417
 C224 C 0.36987 1.07317 1.08923
 N225 N 0.40237 1.08067 1.09647
 N226 N 0.42727 1.06356 1.08331
 C227 C 0.42054 1.03838 1.06243
 N228 N 0.38795 1.03101 1.05509
 N229 N 0.36304 1.04813 1.06826
 N230 N 0.33096 0.81230 0.83720
 C231 C 0.34344 0.84012 0.82444
 N232 N 0.32638 0.85467 0.79974
 N233 N 0.29767 0.84182 0.78826
 C234 C 0.28483 0.81408 0.80122
 N235 N 0.30227 0.79950 0.82576
 C236 C 0.37213 0.85572 0.83960
 C237 C 0.39485 0.86912 0.85431
 C238 C 0.41981 0.88552 0.87421
 N239 N 0.43289 0.91449 0.86488
 N240 N 0.45194 0.93203 0.88565
 C241 C 0.45846 0.92120 0.91648
 N242 N 0.44584 0.89191 0.92547
 N243 N 0.42688 0.87438 0.90471
 N244 N 0.68676 0.80430 1.17116
 C245 C 0.67783 0.83431 1.18159
 N246 N 0.69393 0.84774 1.20795
 N247 N 0.71831 0.83168 1.22329
 C248 C 0.72759 0.80166 1.21279
 N249 N 0.71114 0.78827 1.18649
 C250 C 0.65348 0.85256 1.16336
 C251 C 0.63407 0.86807 1.14700
 C252 C 0.61236 0.88675 1.12622
 N253 N 0.59889 0.91494 1.13721
 N254 N 0.58119 0.93358 1.11694
 C255 C 0.57642 0.92465 1.08499
 N256 N 0.58966 0.89626 1.07418
 N257 N 0.60731 0.87764 1.09444
 N258 N 0.70123 1.18761 0.87485
 C259 C 0.69363 1.15646 0.86648
 N260 N 0.70548 1.14414 0.83785
 N261 N 0.72445 1.16231 0.81827
 C262 C 0.73228 1.19354 0.82649
 N263 N 0.72023 1.20579 0.85523
 C264 C 0.67315 1.13661 0.88740
 C265 C 0.65582 1.11918 0.90407
 C266 C 0.63488 1.09754 0.92263
 N267 N 0.64711 1.06887 0.93337
 N268 N 0.62694 1.04747 0.94797
 C269 C 0.59384 1.05402 0.95233
 N270 N 0.58176 1.08291 0.94190
 N271 N 0.60192 1.10429 0.92729
 N272 N 0.12154 0.28893 0.15362
 C273 C 0.13211 0.29681 0.12308
 N274 N 0.15765 0.27993 0.10943
 N275 N 0.17213 0.25588 0.12582
 C276 C 0.16164 0.24779 0.15646
 N277 N 0.13603 0.26488 0.16999
 C278 C 0.11625 0.32262 0.10545
 C279 C 0.10248 0.34437 0.09115
 C280 C 0.08544 0.37041 0.07499
 N281 N 0.05922 0.36412 0.05433
 N282 N 0.04197 0.38835 0.04105
 C283 C 0.05038 0.41971 0.04799
 N284 N 0.07684 0.42591 0.06847
 N285 N 0.09408 0.40168 0.08174
 N286 N -0.16890 0.34218 -0.20301
 C287 C -0.17813 0.35443 -0.17343
 N288 N -0.20059 0.33770 -0.15508
 N289 N -0.21329 0.30949 -0.16587
 C290 C -0.20382 0.29686 -0.19534
 N291 N -0.18161 0.31400 -0.21379
 C292 C -0.16096 0.38223 -0.15974
 C293 C -0.14520 0.40391 -0.14660
 C294 C -0.12522 0.42726 -0.12862
 N295 N -0.13385 0.43518 -0.09744
 N296 N -0.11258 0.45180 -0.07813
 C297 C -0.08190 0.46109 -0.08930
 N298 N -0.07358 0.45384 -0.12084
 N299 N -0.09488 0.43710 -0.14016
 N300 N 0.14000 0.70655 -0.16958
 C301 C 0.15543 0.69447 -0.14259
 N302 N 0.18699 0.70477 -0.13484
 N303 N 0.20255 0.72662 -0.15347
 C304 C 0.18713 0.73897 -0.18051
 N305 N 0.15554 0.72838 -0.18817
 C306 C 0.13801 0.67173 -0.12213
 C307 C 0.12221 0.65298 -0.10556
 C308 C 0.10185 0.63102 -0.08687
 N309 N 0.10921 0.59897 -0.08582
 N310 N 0.08845 0.57818 -0.07112
 C311 C 0.05963 0.58876 -0.05701
 N312 N 0.05257 0.62091 -0.05776
 N313 N 0.07333 0.64168 -0.07243
 N314 N -0.14815 0.67090 0.20903
 C315 C -0.16231 0.65879 0.18106
 N316 N -0.19089 0.67231 0.16936
 N317 N -0.20477 0.69732 0.18504
 C318 C -0.19047 0.70985 0.21290
 N319 N -0.16202 0.69589 0.22469
 C320 C -0.14515 0.63468 0.16205
 C321 C -0.12985 0.61599 0.14494
 C322 C -0.11085 0.59582 0.12313
 N323 N -0.12088 0.59203 0.09141
 N324 N -0.10137 0.57679 0.06987
 C325 C -0.07110 0.56487 0.07927
 N326 N -0.06127 0.56829 0.11118
 N327 N -0.08081 0.58360 0.13274
 N328 N 1.15902 0.18214 0.69368
 C329 C 1.17423 0.15541 0.68131
 N330 N 1.19993 0.14209 0.69834
 N331 N 1.21000 0.15503 0.72692
 C332 C 1.19467 0.18165 0.73976
 N333 N 1.16912 0.19508 0.72228
 C334 C 1.16098 0.13946 0.65242
 C335 C 1.14817 0.12542 0.62933
 C336 C 1.13040 0.10835 0.60355
 N337 N 1.14091 0.07890 0.59268
 N338 N 1.12171 0.06115 0.57219
 C339 C 1.09132 0.07227 0.56209
 N340 N 1.08120 0.10194 0.57266
 N341 N 1.10039 0.11966 0.59300
 N342 N 0.82535 -0.13408 0.70122
 C343 C 0.85652 -0.14322 0.69194
 N344 N 0.86809 -0.17262 0.70114
 N345 N 0.84909 -0.19217 0.71935
 C346 C 0.81775 -0.18314 0.72892
 N347 N 0.80639 -0.15362 0.71939
 C348 C 0.87628 -0.12236 0.67156
 C349 C 0.89157 -0.10451 0.65363
 C350 C 0.90796 -0.08322 0.63103
 N351 N 0.93215 -0.06191 0.64129
 N352 N 0.94617 -0.04139 0.62010
 C353 C 0.93630 -0.04150 0.58805
 N354 N 0.91215 -0.06292 0.57796
 N355 N 0.89820 -0.08338 0.59908
 N356 N 1.14168 -0.16629 0.29257
 C357 C 1.15775 -0.14243 0.30983
 N358 N 1.19097 -0.13722 0.30481
 N359 N 1.20759 -0.15516 0.28303
 C360 C 1.19167 -0.17899 0.26533
 N361 N 1.15833 -0.18424 0.27077
 C362 C 1.13958 -0.12198 0.33210
 C363 C 1.12439 -0.10428 0.35036
 C364 C 1.10619 -0.08283 0.37161
 N365 N 1.08593 -0.05986 0.35871
 N366 N 1.06867 -0.04012 0.37834
 C367 C 1.07117 -0.04267 0.41151
 N368 N 1.09159 -0.06561 0.42438
 N369 N 1.10885 -0.08535 0.40474
 N370 N 0.82778 0.14635 0.29417
 C371 C 0.85283 0.16020 0.31225
 N372 N 0.86185 0.19140 0.30643
 N373 N 0.84636 0.20817 0.28300
 C374 C 0.82133 0.19433 0.26449
 N375 N 0.81235 0.16309 0.27079
 C376 C 0.87020 0.14147 0.33637
 C377 C 0.88447 0.12477 0.35606
 C378 C 0.90106 0.10406 0.37898
 N379 N 0.92243 0.08090 0.36815
 N380 N 0.93724 0.06105 0.38934
 C381 C 0.93104 0.06366 0.42204
 N382 N 0.90964 0.08689 0.43280
 N383 N 0.89483 0.10674 0.41161
 N384 N 0.13456 0.29783 -0.16898
 C385 C 0.14304 0.30816 -0.13824
 N386 N 0.16906 0.29398 -0.12246
 N387 N 0.18602 0.27013 -0.13691
 C388 C 0.17762 0.25951 -0.16767
 N389 N 0.15156 0.27395 -0.18344
 C390 C 0.12412 0.33311 -0.12214
 C391 C 0.10801 0.35373 -0.10835
 C392 C 0.08835 0.37796 -0.09200
 N393 N 0.05799 0.37006 -0.07923
 N394 N 0.03908 0.39271 -0.06512
 C395 C 0.04992 0.42401 -0.06323
 N396 N 0.08047 0.43182 -0.07581
 N397 N 0.09939 0.40915 -0.08993
 N398 N -0.14564 0.33366 0.19981
 C399 C -0.16011 0.34957 0.17446
 N400 N -0.18797 0.33671 0.15984
 N401 N -0.20087 0.30869 0.17010
 C402 C -0.18626 0.29236 0.19522
 N403 N -0.15860 0.30564 0.21011
 C404 C -0.14343 0.37672 0.15980
 C405 C -0.12900 0.39765 0.14483
 C406 C -0.11168 0.41981 0.12382
 N407 N -0.08246 0.43440 0.13351
 N408 N -0.06385 0.45074 0.11195
 C409 C -0.07378 0.45272 0.08000
 N410 N -0.10326 0.43849 0.07062
 N411 N -0.12186 0.42233 0.09213
 N412 N -0.19899 0.67413 -0.17022
 C413 C -0.16773 0.66464 -0.17899
 N414 N -0.15073 0.68198 -0.20171
 N415 N -0.16445 0.70812 -0.21510
 C416 C -0.19563 0.71813 -0.20617
 N417 N -0.21272 0.70029 -0.18365
 C418 C -0.15130 0.63889 -0.16189
 C419 C -0.13629 0.61875 -0.14646
 C420 C -0.11707 0.59682 -0.12681
 N421 N -0.08789 0.58444 -0.13833
 N422 N -0.06764 0.56779 -0.11857
 C423 C -0.07585 0.56310 -0.08661
 N424 N -0.10533 0.57511 -0.07529
 N425 N -0.12557 0.59172 -0.09505
 N426 N 0.18988 0.70344 0.12977
 C427 C 0.15680 0.69715 0.13470
 N428 N 0.14096 0.71197 0.16006
 N429 N 0.15764 0.73259 0.17979
 C430 C 0.19081 0.73912 0.17495
 N431 N 0.20655 0.72407 0.14952
 C432 C 0.13865 0.67497 0.11352
 C433 C 0.12273 0.65627 0.09638
 C434 C 0.10281 0.63379 0.07714
 N435 N 0.07467 0.64389 0.06139
 N436 N 0.05435 0.62255 0.04624
 C437 C 0.06150 0.59038 0.04631
 N438 N 0.08995 0.58041 0.06172
 N439 N 0.11027 0.60176 0.07687
 N440 N 0.30138 1.12921 0.84615
 C441 C 0.30847 1.13850 0.87748
 N442 N 0.29291 1.16477 0.89037
 N443 N 0.27075 1.18115 0.87243
 C444 C 0.26341 1.17189 0.84098
 N445 N 0.27924 1.14558 0.82824
 C446 C 0.33211 1.12052 0.89660
 C447 C 0.35223 1.10471 0.91162
 C448 C 0.37661 1.08512 0.92798
 N449 N 0.40910 1.09515 0.93015
 N450 N 0.43247 1.07568 0.94248
 C451 C 0.42410 1.04551 0.95297
 N452 N 0.39146 1.03566 0.95113
 N453 N 0.36810 1.05515 0.93878
 N454 N 0.34028 0.80225 1.16422
 C455 C 0.35482 0.82823 1.17948
 N456 N 0.33920 0.84201 1.20552
 N457 N 0.30980 0.83030 1.21582
 C458 C 0.29478 0.80459 1.20027
 N459 N 0.31088 0.79057 1.17450
 C460 C 0.38298 0.84419 1.16467
 C461 C 0.40444 0.85863 1.14986
 C462 C 0.42684 0.87661 1.12929
 N463 N 0.44202 0.90431 1.14033
 N464 N 0.45791 0.92386 1.11945
 C465 C 0.45882 0.91642 1.08685
 N466 N 0.44408 0.88843 1.07609
 N467 N 0.42837 0.86889 1.09692
 N468 N 0.71070 1.19036 1.12146
 C469 C 0.70170 1.15945 1.12872
 N470 N 0.71353 1.14597 1.15667
 N471 N 0.73394 1.16273 1.17668
 C472 C 0.74327 1.19366 1.16961
 N473 N 0.73118 1.20716 1.14155
 C474 C 0.67969 1.14091 1.10760
 C475 C 0.66101 1.12380 1.09154
 C476 C 0.63838 1.10195 1.07473
 N477 N 0.65006 1.07442 1.06046
 N478 N 0.62871 1.05195 1.04876
 C479 C 0.59499 1.05622 1.05114
 N480 N 0.58341 1.08402 1.06503
 N481 N 0.60474 1.10646 1.07670
 N482 N 0.67530 0.84291 0.79641
 C483 C 0.66007 0.82860 0.82226
 N484 N 0.67224 0.80018 0.83365
 N485 N 0.69899 0.78662 0.81975
 C486 C 0.71471 0.80111 0.79411
 N487 N 0.70204 0.82937 0.78256
 C488 C 0.63461 0.84564 0.84007
 C489 C 0.61515 0.86121 0.85625
 C490 C 0.59453 0.88088 0.87708
 N491 N 0.59014 0.87255 0.90891
 N492 N 0.57539 0.89289 0.92980
 C493 C 0.56462 0.92233 0.91963
 N494 N 0.56854 0.93045 0.88759
 N495 N 0.58336 0.91008 0.86668
   
