data_POSCAR
  _audit_creation_date              2014-09-24
  _audit_creation_method            'ToBaCCo'
  _symmetry_space_group_name_H-M    'P1'
  _symmetry_Int_Tables_number       1
  _symmetry_cell_setting            triclinic
  loop_
  _symmetry_equiv_pos_as_xyz
 x,y,z
_cell_length_a 31.7707
_cell_length_b 32.0960
_cell_length_c 30.1831
_cell_angle_alpha 90.628000
_cell_angle_beta 90.437000
_cell_angle_gamma 90.306600
loop_
  _atom_site_label
  _atom_site_type_symbol
  _atom_site_fract_x
  _atom_site_fract_y
  _atom_site_fract_z
C1 C 0.19779 0.23107 0.25625
 C2 C 0.20124 0.26274 0.22480
 C3 C 0.23430 0.26263 0.19499
 C4 C 0.26448 0.23088 0.19652
 C5 C 0.26131 0.20000 0.22807
 C6 C 0.22786 0.20004 0.25790
 C7 C 0.16576 0.21962 0.28433
 N8 N 0.17617 0.18270 0.30267
 C9 C 0.21386 0.17037 0.28684
 C10 C 0.29070 0.17016 0.21818
 N11 N 0.31153 0.18219 0.18154
 C12 C 0.29588 0.21909 0.16772
 C13 C 0.22639 0.29344 0.16462
 N14 N 0.18976 0.31212 0.17569
 C15 C 0.17398 0.29361 0.21210
 H16 H 0.13610 0.23554 0.28890
 H17 H 0.22865 0.14076 0.29369
 H18 H 0.29451 0.14046 0.23442
 H19 H 0.30456 0.23457 0.13739
 H20 H 0.24448 0.30009 0.13525
 H21 H 0.14364 0.30039 0.22655
 C22 C -0.18931 0.77085 0.24212
 C23 C -0.19367 0.73964 0.20938
 C24 C -0.22854 0.73918 0.18133
 C25 C -0.25962 0.76990 0.18589
 C26 C -0.25546 0.80025 0.21867
 C27 C -0.22022 0.80078 0.24672
 C28 C -0.15644 0.78236 0.26999
 N29 N -0.16720 0.81826 0.29103
 C30 C -0.20593 0.82986 0.27711
 C31 C -0.28684 0.82887 0.21228
 N32 N -0.30989 0.81670 0.17654
 C33 C -0.29367 0.78085 0.15985
 C34 C -0.22233 0.70796 0.15028
 N35 N -0.18496 0.68960 0.15924
 C36 C -0.16706 0.70873 0.19495
 H37 H -0.12622 0.76713 0.27285
 H38 H -0.22150 0.85854 0.28650
 H39 H -0.29071 0.85798 0.23028
 H40 H -0.30395 0.76559 0.12944
 H41 H -0.24269 0.70013 0.12244
 H42 H -0.13626 0.70162 0.20840
 C43 C -0.19932 0.22339 -0.26961
 C44 C -0.20058 0.25343 -0.23540
 C45 C -0.23263 0.25233 -0.20446
 C46 C -0.26373 0.22122 -0.20723
 C47 C -0.26255 0.19169 -0.24103
 C48 C -0.23027 0.19283 -0.27239
 C49 C -0.16920 0.21345 -0.30070
 N50 N -0.18155 0.17798 -0.32204
 C51 C -0.21860 0.16499 -0.30499
 C52 C -0.29293 0.16223 -0.23225
 N53 N -0.31237 0.17337 -0.19418
 C54 C -0.29486 0.20919 -0.17841
 C55 C -0.22344 0.28201 -0.17246
 N56 N -0.18691 0.30104 -0.18342
 C57 C -0.17246 0.28385 -0.22156
 H58 H -0.13943 0.22930 -0.30548
 H59 H -0.23449 0.13606 -0.31369
 H60 H -0.29854 0.13347 -0.25052
 H61 H -0.30225 0.22381 -0.14692
 H62 H -0.24088 0.28795 -0.14237
 H63 H -0.14273 0.29152 -0.23687
 C64 C 0.18574 0.77593 -0.24795
 C65 C 0.18695 0.74592 -0.21438
 C66 C 0.21718 0.74874 -0.18100
 C67 C 0.24649 0.78162 -0.18070
 C68 C 0.24538 0.81098 -0.21398
 C69 C 0.21502 0.80807 -0.24771
 C70 C 0.15735 0.78387 -0.28171
 N71 N 0.16924 0.81971 -0.30161
 C72 C 0.20424 0.83481 -0.28114
 C73 C 0.27462 0.84129 -0.20342
 N74 N 0.29333 0.83091 -0.16471
 C75 C 0.27655 0.79465 -0.15027
 C76 C 0.20873 0.71770 -0.15111
 N77 N 0.17444 0.69624 -0.16573
 C78 C 0.16067 0.71318 -0.20410
 H79 H 0.12906 0.76623 -0.28957
 H80 H 0.21932 0.86430 -0.28839
 H81 H 0.28063 0.86962 -0.22157
 H82 H 0.28438 0.77983 -0.11923
 H83 H 0.22523 0.71212 -0.12023
 H84 H 0.13273 0.70337 -0.22224
 C85 C 0.22694 1.18912 0.76759
 C86 C 0.25929 1.19401 0.79911
 C87 C 0.26114 1.22943 0.82592
 C88 C 0.23065 1.26071 0.82099
 C89 C 0.19924 1.25601 0.78915
 C90 C 0.19721 1.22007 0.76266
 C91 C 0.21433 1.15594 0.74113
 N92 N 0.17784 1.16649 0.72070
 C93 C 0.16700 1.20546 0.73348
 C94 C 0.17133 1.28804 0.79466
 N95 N 0.18482 1.31207 0.82901
 C96 C 0.22089 1.29582 0.84571
 C97 C 0.29344 1.22361 0.85612
 N98 N 0.31097 1.18594 0.84769
 C99 C 0.29033 1.16754 0.81325
 H100 H 0.22943 1.12585 0.73852
 H101 H 0.13834 1.22121 0.72382
 H102 H 0.14173 1.29183 0.77711
 H103 H 0.23707 1.30694 0.87530
 H104 H 0.30259 1.24447 0.88298
 H105 H 0.29654 1.13652 0.80051
 C106 C 0.76669 0.79730 0.73440
 C107 C 0.73479 0.79480 0.76617
 C108 C 0.73508 0.76297 0.79691
 C109 C 0.76723 0.73320 0.79611
 C110 C 0.79851 0.73553 0.76444
 C111 C 0.79827 0.76771 0.73351
 C112 C 0.77828 0.82849 0.70581
 N113 N 0.81580 0.81816 0.68781
 C114 C 0.82844 0.78127 0.70446
 C115 C 0.82890 0.70705 0.77548
 N116 N 0.81671 0.68761 0.81283
 C117 C 0.77927 0.70326 0.82601
 C118 C 0.70449 0.77193 0.82767
 N119 N 0.68577 0.80804 0.81602
 C120 C 0.70404 0.82244 0.77877
 H121 H 0.76226 0.85783 0.70104
 H122 H 0.85874 0.76701 0.69851
 H123 H 0.85901 0.70294 0.75943
 H124 H 0.76354 0.69562 0.85661
 H125 H 0.69831 0.75508 0.85784
 H126 H 0.69742 0.85223 0.76381
 C127 C 0.22599 0.81352 1.24855
 C128 C 0.25658 0.81199 1.21517
 C129 C 0.25405 0.78166 1.18210
 C130 C 0.22091 0.75260 1.18195
 C131 C 0.19097 0.75405 1.21503
 C132 C 0.19353 0.78452 1.24845
 C133 C 0.21759 0.84208 1.28183
 N134 N 0.18115 0.83064 1.30157
 C135 C 0.16609 0.79570 1.28147
 C136 C 0.16037 0.72513 1.20442
 N137 N 0.17113 0.70630 1.16588
 C138 C 0.20793 0.72269 1.15161
 C139 C 0.28538 0.78991 1.15207
 N140 N 0.30675 0.82419 1.16630
 C141 C 0.28946 0.83813 1.20458
 H142 H 0.23534 0.87020 1.28947
 H143 H 0.13621 0.78091 1.28867
 H144 H 0.13150 0.71947 1.22228
 H145 H 0.22302 0.71474 1.12063
 H146 H 0.29111 0.77334 1.12128
 H147 H 0.29901 0.86617 1.22233
 C148 C 0.77663 1.19828 1.26964
 C149 C 0.74658 1.19961 1.23533
 C150 C 0.74780 1.23147 1.20473
 C151 C 0.77906 1.26237 1.20803
 C152 C 0.80877 1.26107 1.24186
 C153 C 0.80754 1.22885 1.27286
 C154 C 0.78632 1.16826 1.30036
 N155 N 0.82203 1.18014 1.32198
 C156 C 0.83547 1.21691 1.30544
 C157 C 0.83836 1.29144 1.23345
 N158 N 0.82707 1.31096 1.19566
 C159 C 0.79108 1.29351 1.17969
 C160 C 0.71844 1.22215 1.17222
 N161 N 0.69954 1.18568 1.18260
 C162 C 0.71644 1.17146 1.22087
 H163 H 0.77012 1.13882 1.30473
 H164 H 0.86469 1.23246 1.31449
 H165 H 0.86728 1.29714 1.25180
 H166 H 0.77633 1.30110 1.14836
 H167 H 0.71288 1.23934 1.14208
 H168 H 0.70900 1.14178 1.23570
 O169 O 0.54274 0.95807 0.91823
 O170 O 0.45986 0.97150 1.08402
 O171 O 0.59101 0.97648 1.05225
 O172 O 0.41611 0.98563 0.96133
 O173 O 0.53297 0.95939 1.08251
 O174 O 0.46693 0.95049 0.93407
 O175 O 0.44515 0.94877 1.02172
 O176 O 0.58384 0.94588 0.97533
 C177 C 0.57080 0.93677 0.93723
 C178 C 0.44401 0.94322 1.06149
 C179 C 0.57078 0.95313 1.07661
 C180 C 0.42813 0.95583 0.93739
 O181 O 0.45822 1.03455 0.92394
 O182 O 0.54819 1.04296 1.07855
 O183 O 0.58991 1.02014 0.94360
 O184 O 0.40956 1.02229 1.04521
 O185 O 0.46903 1.05237 1.06931
 O186 O 0.53146 1.04202 0.91718
 O187 O 0.44946 1.05810 0.98928
 O188 O 0.58924 1.05070 1.02104
 Co189 Co 0.50070 0.99607 0.92967
 Co190 Co 0.50380 1.00636 1.07096
 Co191 Co 0.58091 0.99839 0.99821
 Co192 Co 0.45003 1.00381 1.00757
 O193 O 0.51133 0.99985 0.99903
 C194 C 0.44621 1.06336 0.94893
 C195 C 0.57788 1.06140 1.05910
 C196 C 0.57015 1.04485 0.92002
 C197 C 0.42871 1.04967 1.07123
 O198 O 0.04146 0.45877 0.07840
 O199 O 0.02625 0.54290 -0.08531
 O200 O 0.01994 0.41315 -0.05624
 O201 O 0.01285 0.58493 0.03826
 O202 O 0.03903 0.47065 -0.08432
 O203 O 0.04871 0.53426 0.06400
 O204 O 0.04941 0.55688 -0.02303
 O205 O 0.05244 0.41859 0.02024
 C206 C 0.06235 0.43094 0.05842
 C207 C 0.05484 0.55848 -0.06281
 C208 C 0.04522 0.43322 -0.07852
 C209 C 0.04316 0.57270 0.06154
 O210 O -0.03600 0.54256 0.07576
 O211 O -0.04580 0.45527 -0.08049
 O212 O -0.02188 0.41244 0.05351
 O213 O -0.02498 0.59222 -0.04521
 O214 O -0.05528 0.53347 -0.06990
 O215 O -0.04328 0.46994 0.08178
 O216 O -0.06069 0.55251 0.01097
 O217 O -0.05424 0.41487 -0.02309
 Co218 Co 0.00283 0.50063 0.06867
 Co219 Co -0.00875 0.49918 -0.07246
 Co220 Co -0.00094 0.42221 -0.00142
 Co221 Co -0.00607 0.55192 -0.00824
 O222 O -0.00199 0.49108 -0.00078
 C223 C -0.06528 0.55523 0.05156
 C224 C -0.06488 0.42613 -0.06109
 C225 C -0.04601 0.43165 0.07850
 C226 C -0.05252 0.57339 -0.07143
 O227 O 1.07144 0.05662 0.46547
 O228 O 0.91903 0.02087 0.53829
 O229 O 0.97457 0.05083 0.43354
 O230 O 1.03834 0.02016 0.60008
 O231 O 0.92040 0.02080 0.45820
 O232 O 1.06856 0.05394 0.54727
 O233 O 0.97248 0.04783 0.57036
 O234 O 1.04247 0.02706 0.40743
 C235 C 1.06577 0.05467 0.42438
 C236 C 0.93478 0.04980 0.56104
 C237 C 0.93636 0.05121 0.43926
 C238 C 1.06304 0.04811 0.58766
 O239 O 1.08479 -0.02832 0.54608
 O240 O 0.95191 -0.05630 0.45447
 O241 O 1.03012 -0.04816 0.42698
 O242 O 0.96082 -0.02481 0.60567
 O243 O 0.94927 -0.05707 0.54082
 O244 O 1.08786 -0.02483 0.46025
 O245 O 1.02475 -0.05276 0.57195
 O246 O 0.96633 -0.02112 0.39269
 Co247 Co 1.07242 0.01334 0.50456
 Co248 Co 0.94130 -0.01655 0.49827
 Co249 Co 0.99976 0.00043 0.43542
 Co250 Co 0.99640 -0.00290 0.56626
 O251 O 1.00676 0.00295 0.50131
 C252 C 1.06426 -0.05502 0.56841
 C253 C 0.94642 -0.05152 0.41245
 C254 C 1.06943 -0.04979 0.43335
 C255 C 0.94038 -0.05306 0.58219
 C256 C 1.15132 0.15915 0.32714
 C257 C 1.12957 0.13660 0.34904
 C258 C 1.10569 0.10875 0.37458
 C259 C 1.08668 0.08421 0.39684
 C260 C 0.85781 -0.15823 0.31643
 C261 C 0.87967 -0.13558 0.33908
 C262 C 0.90391 -0.10733 0.36499
 C263 C 0.92370 -0.08221 0.38676
 C264 C 0.84191 0.15543 0.65061
 C265 C 0.86305 0.13368 0.62678
 C266 C 0.88774 0.10621 0.60101
 C267 C 0.90900 0.08122 0.58127
 C268 C 1.14705 -0.15934 0.66870
 C269 C 1.12744 -0.13861 0.64269
 C270 C 1.10517 -0.11172 0.61425
 C271 C 1.08646 -0.08679 0.59201
 C272 C 0.33715 1.15774 1.15878
 C273 C 0.35953 1.13431 1.13847
 C274 C 0.38441 1.10543 1.11512
 C275 C 0.40489 1.08007 1.09521
 C276 C 0.32082 0.85475 0.85719
 C277 C 0.34552 0.87717 0.87653
 C278 C 0.37417 0.90432 0.89831
 C279 C 0.39867 0.92785 0.91637
 C280 C 0.66226 0.84083 1.15654
 C281 C 0.63820 0.86434 1.13869
 C282 C 0.61234 0.89399 1.11788
 C283 C 0.59225 0.92058 1.09959
 C284 C 0.66134 1.14920 0.82795
 C285 C 0.63834 1.12654 0.84836
 C286 C 0.61298 1.09895 0.87275
 C287 C 0.59268 1.07461 0.89405
 C288 C 0.16774 0.34072 0.14969
 C289 C 0.14723 0.36429 0.12761
 C290 C 0.12054 0.38997 0.10242
 C291 C 0.09531 0.40994 0.08173
 C292 C -0.16482 0.32987 -0.15666
 C293 C -0.14501 0.35397 -0.13358
 C294 C -0.11988 0.38091 -0.10695
 C295 C -0.09623 0.40252 -0.08516
 C296 C 0.15361 0.66471 -0.14251
 C297 C 0.13461 0.63820 -0.12272
 C298 C 0.11002 0.60841 -0.10028
 C299 C 0.08646 0.58449 -0.08225
 C300 C -0.16551 0.65859 0.13358
 C301 C -0.14711 0.63250 0.11225
 C302 C -0.12240 0.60328 0.08879
 C303 C -0.09819 0.58003 0.07053
 C304 C 1.15431 0.14164 0.69525
 C305 C 1.13249 0.11955 0.67203
 C306 C 1.10698 0.09434 0.64415
 C307 C 1.08603 0.07313 0.61920
 C308 C 0.84000 -0.15656 0.66454
 C309 C 0.86263 -0.13346 0.64427
 C310 C 0.88976 -0.10607 0.62181
 C311 C 0.91303 -0.08221 0.60343
 C312 C 1.15999 -0.14680 0.33090
 C313 C 1.13984 -0.12620 0.35671
 C314 C 1.11529 -0.10131 0.38532
 C315 C 1.09413 -0.07878 0.40821
 C316 C 0.84406 0.15631 0.34923
 C317 C 0.86455 0.13407 0.37299
 C318 C 0.88919 0.10679 0.39876
 C319 C 0.91061 0.08221 0.41864
 C320 C 0.16117 0.34091 -0.15190
 C321 C 0.13757 0.36568 -0.13523
 C322 C 0.10710 0.39198 -0.11621
 C323 C 0.07938 0.41210 -0.09959
 C324 C -0.14763 0.33919 0.17267
 C325 C -0.12538 0.36253 0.15224
 C326 C -0.09854 0.38829 0.12738
 C327 C -0.07493 0.40890 0.10541
 C328 C -0.15878 0.66301 -0.16342
 C329 C -0.13560 0.64141 -0.14199
 C330 C -0.10729 0.61718 -0.11720
 C331 C -0.08245 0.59703 -0.09622
 C332 C 0.14565 0.67774 0.14257
 C333 C 0.12290 0.65354 0.12309
 C334 C 0.09537 0.62552 0.10107
 C335 C 0.07152 0.60154 0.08280
 C336 C 0.34261 1.16651 0.87254
 C337 C 0.36910 1.14760 0.89278
 C338 C 0.39849 1.12188 0.91455
 C339 C 0.42167 1.09684 0.93135
 C340 C 0.33823 0.84493 1.14262
 C341 C 0.36466 0.86383 1.12241
 C342 C 0.39432 0.88829 1.09948
 C343 C 0.41813 0.91174 1.08113
 C344 C 0.67164 1.16317 1.15506
 C345 C 0.64837 1.14283 1.13150
 C346 C 0.62233 1.11705 1.10462
 C347 C 0.60127 1.09295 1.08285
 C348 C 0.65803 0.83100 0.84249
 C349 C 0.63525 0.85206 0.86517
 C350 C 0.61050 0.87901 0.89128
 C351 C 0.59121 0.90417 0.91286
   
