data_POSCAR
  _audit_creation_date              2014-09-24
  _audit_creation_method            'ToBaCCo'
  _symmetry_space_group_name_H-M    'P1'
  _symmetry_Int_Tables_number       1
  _symmetry_cell_setting            triclinic
  loop_
  _symmetry_equiv_pos_as_xyz
 x,y,z
_cell_length_a 20.8697
_cell_length_b 20.1963
_cell_length_c 20.5871
_cell_angle_alpha 91.057800
_cell_angle_beta 88.329700
_cell_angle_gamma 90.352600
loop_
  _atom_site_label
  _atom_site_type_symbol
  _atom_site_fract_x
  _atom_site_fract_y
  _atom_site_fract_z
C1 C 0.32507 0.34559 0.23231
 H2 H 0.33151 0.34692 0.28428
 C3 C 0.36682 0.38081 0.19132
 H4 H 0.40509 0.40975 0.21238
 C5 C 0.26802 0.30488 0.14187
 H6 H 0.23005 0.27448 0.12260
 C7 C 0.30845 0.33946 0.09916
 H8 H 0.30096 0.33578 0.04735
 N9 N 0.27695 0.30850 0.20707
 C10 C 0.12630 0.27832 0.35412
 H11 H 0.12299 0.22487 0.35147
 C12 C 0.08434 0.31403 0.39506
 H13 H 0.04876 0.28763 0.42409
 C14 C 0.17681 0.37734 0.31902
 H15 H 0.21285 0.40166 0.28905
 C16 C 0.13576 0.41514 0.35946
 H17 H 0.14206 0.46825 0.36044
 Zn18 Zn 0.22524 0.25669 0.26342
 N19 N 0.17169 0.31022 0.31760
 C20 C 0.27570 0.21262 0.38112
 N21 N 0.28007 0.20649 0.31517
 C22 C 0.32651 0.16887 0.28539
 C23 C 0.36984 0.13420 0.32227
 C24 C 0.31823 0.17916 0.41982
 C25 C 0.11863 0.23321 0.18977
 C26 C 0.07898 0.20026 0.14642
 C27 C 0.14821 0.10497 0.15021
 C28 C 0.18617 0.13953 0.19437
 N29 N 0.17133 0.20287 0.21233
 H30 H 0.23997 0.24435 0.40406
 H31 H 0.33056 0.16670 0.23290
 H32 H 0.40656 0.10465 0.29760
 H33 H 0.31419 0.18469 0.47223
 H34 H 0.10835 0.28388 0.20421
 H35 H 0.03772 0.22553 0.12820
 H36 H 0.16121 0.05497 0.13550
 H37 H 0.22813 0.11624 0.21286
 C38 C 0.08852 0.38331 0.39818
 C39 C 0.35886 0.37746 0.12348
 C40 C 0.09428 0.13593 0.12513
 C41 C 0.36577 0.13919 0.39066
 C42 C 0.84954 0.83915 0.19970
 H43 H 0.85811 0.84235 0.25124
 C44 C 0.88940 0.87308 0.15592
 H45 H 0.92851 0.90252 0.17467
 C46 C 0.78775 0.79647 0.11350
 H47 H 0.74838 0.76618 0.09712
 C48 C 0.82626 0.82960 0.06799
 H49 H 0.81562 0.82475 0.01690
 N50 N 0.79939 0.80261 0.17799
 C51 C 0.65714 0.79787 0.33715
 H52 H 0.65102 0.74507 0.34306
 C53 C 0.61988 0.84206 0.37488
 H54 H 0.58470 0.82252 0.40919
 C55 C 0.70786 0.88677 0.28199
 H56 H 0.74118 0.90407 0.24488
 C57 C 0.67120 0.93260 0.31816
 H58 H 0.67699 0.98493 0.30878
 Zn59 Zn 0.74679 0.75856 0.23957
 N60 N 0.70044 0.82078 0.29215
 C61 C 0.79978 0.71415 0.35633
 N62 N 0.80050 0.70670 0.29054
 C63 C 0.84186 0.66430 0.25932
 C64 C 0.88287 0.62530 0.29463
 C65 C 0.84015 0.67636 0.39356
 C66 C 0.63712 0.73702 0.16835
 C67 C 0.59278 0.70166 0.13178
 C68 C 0.65165 0.60157 0.15101
 C69 C 0.69423 0.63866 0.18819
 N70 N 0.68691 0.70531 0.19519
 H71 H 0.76850 0.74994 0.38020
 H72 H 0.84292 0.66082 0.20679
 H73 H 0.91508 0.59135 0.26894
 H74 H 0.83896 0.68447 0.44558
 H75 H 0.63235 0.79005 0.17484
 H76 H 0.55335 0.72749 0.11063
 H77 H 0.65800 0.54853 0.14628
 H78 H 0.73329 0.61408 0.21080
 C79 C 0.62678 0.91053 0.36544
 C80 C 0.87754 0.86907 0.08884
 C81 C 0.60061 0.63342 0.12170
 C82 C 0.88189 0.63037 0.36269
 C83 C 0.86717 0.32523 0.73229
 H84 H 0.87974 0.30881 0.77993
 C85 C 0.90448 0.37378 0.70161
 H86 H 0.94537 0.39460 0.72618
 C87 C 0.79926 0.31759 0.64236
 H88 H 0.75810 0.29605 0.61938
 C89 C 0.83521 0.36613 0.60992
 H90 H 0.81980 0.38142 0.56288
 N91 N 0.81520 0.29861 0.70282
 C92 C 0.64690 0.27640 0.81486
 H93 H 0.62422 0.24045 0.78348
 C94 C 0.60901 0.31489 0.85793
 H95 H 0.55743 0.30858 0.85843
 C96 C 0.74116 0.32811 0.85287
 H97 H 0.79269 0.33310 0.85092
 C98 C 0.70525 0.36702 0.89708
 H99 H 0.72948 0.40212 0.92849
 Zn100 Zn 0.76449 0.23641 0.75064
 N101 N 0.71175 0.28442 0.81219
 C102 C 0.81116 0.17211 0.86032
 N103 N 0.82103 0.18142 0.79566
 C104 C 0.87116 0.15253 0.76267
 C105 C 0.91377 0.11225 0.79486
 C106 C 0.85277 0.13286 0.89467
 C107 C 0.66509 0.21057 0.66069
 C108 C 0.62678 0.17145 0.62033
 C109 C 0.68799 0.07594 0.64910
 C110 C 0.72448 0.11661 0.68954
 N111 N 0.71299 0.18284 0.69441
 H112 H 0.77057 0.19487 0.88550
 H113 H 0.87796 0.16079 0.71115
 H114 H 0.95321 0.08985 0.76715
 H115 H 0.84173 0.12694 0.94574
 H116 H 0.65626 0.26317 0.66547
 H117 H 0.58978 0.19493 0.59329
 H118 H 0.69836 0.02348 0.64546
 H119 H 0.76205 0.09491 0.71695
 C120 C 0.63841 0.36143 0.89945
 C121 C 0.88884 0.39500 0.63964
 C122 C 0.63808 0.10301 0.61430
 C123 C 0.90571 0.10201 0.86214
 C124 C 0.38148 0.78465 0.69879
 H125 H 0.40353 0.75027 0.73063
 C126 C 0.42066 0.82640 0.66136
 H127 H 0.47229 0.82254 0.66386
 C128 C 0.28835 0.83442 0.65919
 H129 H 0.23690 0.83925 0.66017
 C130 C 0.32573 0.87715 0.62092
 H131 H 0.30215 0.91323 0.59171
 N132 N 0.31643 0.78859 0.69662
 C133 C 0.15143 0.78331 0.81754
 H134 H 0.12755 0.74150 0.79515
 C135 C 0.11606 0.82773 0.85685
 H136 H 0.06536 0.81859 0.86460
 C137 C 0.24710 0.84344 0.83665
 H138 H 0.29823 0.84917 0.82826
 C139 C 0.21365 0.88895 0.87640
 H140 H 0.23948 0.92957 0.89891
 Zn141 Zn 0.26355 0.73460 0.75199
 N142 N 0.21564 0.79214 0.80790
 C143 C 0.31230 0.68173 0.86779
 N144 N 0.31602 0.67920 0.80172
 C145 C 0.35569 0.63576 0.76952
 C146 C 0.39377 0.59283 0.80377
 C147 C 0.34963 0.63955 0.90409
 C148 C 0.16178 0.70907 0.66575
 C149 C 0.11801 0.67031 0.63150
 C150 C 0.16503 0.57257 0.67548
 C151 C 0.20734 0.61320 0.70951
 N152 N 0.20591 0.68024 0.70342
 H153 H 0.27977 0.71588 0.89250
 H154 H 0.35731 0.63418 0.71693
 H155 H 0.42495 0.55859 0.77710
 H156 H 0.34458 0.64202 0.95645
 H157 H 0.15942 0.76226 0.66319
 H158 H 0.08373 0.69448 0.60152
 H159 H 0.16757 0.51934 0.68030
 H160 H 0.24078 0.59069 0.74123
 C161 C 0.14719 0.88193 0.88640
 C162 C 0.39310 0.87334 0.62179
 C163 C 0.11970 0.60094 0.63582
 C164 C 0.39139 0.59441 0.87190
 Si165 Si 0.01015 -0.00308 -0.00416
 Si166 Si -0.02002 0.52658 0.50669
 Si167 Si 0.49643 0.01348 0.49355
 Si168 Si 0.50179 0.49074 0.00924
 C169 C 0.11323 -0.06988 -0.06988
 C170 C 0.04968 -0.06166 -0.06744
 H171 H 0.14218 -0.03974 -0.03789
 H172 H 0.01839 -0.08904 -0.09918
 C173 C 0.04386 0.41924 0.44347
 C174 C 0.03600 0.48482 0.44484
 H175 H 0.01595 0.38976 0.47750
 H176 H 0.06222 0.51682 0.41202
 C177 C 0.58521 -0.04023 0.39969
 C178 C 0.55575 -0.05043 0.45715
 H179 H 0.57861 0.00674 0.37628
 H180 H 0.56377 -0.09485 0.48423
 C181 C 0.60201 0.40650 -0.05580
 C182 C 0.53894 0.42301 -0.05242
 H183 H 0.55281 0.39022 -0.06142
 H184 H 0.52853 0.47578 -0.04010
 C185 C -0.05157 0.06327 -0.10792
 C186 C -0.05119 0.05282 -0.04380
 H187 H -0.01402 0.03956 -0.13733
 H188 H -0.08439 0.07613 -0.00959
 C189 C -0.07372 0.58854 0.39886
 C190 C -0.07835 0.57940 0.46296
 H191 H -0.03616 0.56335 0.37099
 H192 H -0.11613 0.60157 0.49277
 C193 C 0.41020 0.10492 0.43334
 C194 C 0.45803 0.06047 0.42005
 H195 H 0.43274 0.07045 0.39960
 H196 H 0.49986 0.05306 0.45194
 C197 C 0.43238 0.54756 -0.09351
 C198 C 0.44448 0.55183 -0.03017
 H199 H 0.45555 0.50864 -0.12229
 H200 H 0.42420 0.59043 0.00084
 C201 C -0.08588 -0.09584 0.04268
 C202 C -0.03753 -0.05632 0.05915
 H203 H -0.09834 -0.09954 -0.00811
 H204 H -0.01471 -0.03033 0.02417
 C205 C -0.07147 0.44786 0.60878
 C206 C -0.07147 0.46037 0.54530
 H207 H -0.03963 0.47640 0.63927
 H208 H -0.10024 0.43151 0.51234
 C209 C 0.43654 -0.08294 0.58341
 C210 C 0.42597 -0.03421 0.53994
 H211 H 0.40224 -0.05342 0.55856
 H212 H 0.46694 -0.00922 0.51628
 C213 C 0.40163 0.41182 0.07627
 C214 C 0.45600 0.44863 0.08356
 H215 H 0.43703 0.43169 0.10858
 H216 H 0.48023 0.47121 0.04160
 C217 C 0.05371 0.10329 0.07645
 C218 C 0.07304 0.05013 0.04245
 H219 H 0.00776 0.12512 0.06645
 H220 H 0.05035 0.03534 0.00054
 C221 C 0.07720 0.55724 0.59762
 C222 C 0.02868 0.58111 0.56484
 H223 H 0.08793 0.50479 0.59392
 H224 H 0.00332 0.55054 0.53415
 C225 C 0.60114 0.05910 0.57035
 C226 C 0.54070 0.07068 0.55425
 H227 H 0.62424 0.01445 0.55189
 H228 H 0.51472 0.11287 0.57427
 C229 C 0.55315 0.59627 0.08359
 C230 C 0.56815 0.54289 0.04727
 H231 H 0.50416 0.61374 0.08529
 H232 H 0.61680 0.52473 0.04333
   
