data_POSCAR
  _audit_creation_date              2014-09-24
  _audit_creation_method            'ToBaCCo'
  _symmetry_space_group_name_H-M    'P1'
  _symmetry_Int_Tables_number       1
  _symmetry_cell_setting            triclinic
  loop_
  _symmetry_equiv_pos_as_xyz
 x,y,z
_cell_length_a 32.5436
_cell_length_b 32.4544
_cell_length_c 31.1175
_cell_angle_alpha 90.244600
_cell_angle_beta 90.320500
_cell_angle_gamma 89.633800
loop_
  _atom_site_label
  _atom_site_type_symbol
  _atom_site_fract_x
  _atom_site_fract_y
  _atom_site_fract_z
N1 N 0.17023 1.25437 0.13641
 N2 N 0.14219 1.25256 0.16653
 C3 C 0.11587 1.28436 0.16182
 C4 C 0.12783 1.30773 0.12669
 C5 C 0.16259 1.28729 0.11141
 H6 H 0.08903 1.28917 0.18153
 H7 H 0.17864 1.29312 0.08175
 Cu8 Cu 0.13922 1.20455 0.20352
 Cu9 Cu 0.21045 1.21005 0.12767
 Cu10 Cu 0.21856 1.13999 0.21190
 N11 N 0.13626 1.15653 0.24049
 N12 N 0.16761 1.13094 0.24317
 C13 C 0.15785 1.09965 0.26933
 C14 C 0.11760 1.10509 0.28302
 C15 C 0.10537 1.14223 0.26468
 H16 H 0.17916 1.07552 0.27857
 H17 H 0.07553 1.15683 0.26731
 N18 N 0.25915 1.14364 0.16528
 N19 N 0.25624 1.17004 0.13322
 C20 C 0.28667 1.16219 0.10512
 C21 C 0.30978 1.12915 0.12007
 C22 C 0.29100 1.11798 0.15805
 H23 H 0.29066 1.17802 0.07495
 H24 H 0.29817 1.09128 0.17743
 H25 H 0.18480 1.16094 0.16138
 H26 H 0.21316 1.20154 0.19169
 N27 N 0.82697 0.74568 0.14952
 N28 N 0.84436 0.73490 0.18606
 C29 C 0.87142 0.70417 0.17873
 C30 C 0.87151 0.69588 0.13506
 C31 C 0.84247 0.72228 0.11762
 H32 H 0.89136 0.69068 0.20286
 H33 H 0.83509 0.72590 0.08391
 Cu34 Cu 0.83548 0.76671 0.23815
 Cu35 Cu 0.78986 0.79284 0.14528
 Cu36 Cu 0.76352 0.84084 0.24084
 N37 N 0.83694 0.81032 0.28118
 N38 N 0.80858 0.83923 0.28245
 C39 C 0.81894 0.86732 0.31246
 C40 C 0.85611 0.85558 0.33127
 C41 C 0.86644 0.81908 0.31016
 H42 H 0.80268 0.89618 0.31678
 H43 H 0.89403 0.80078 0.31437
 N44 N 0.73414 0.85113 0.18655
 N45 N 0.74486 0.83368 0.14984
 C46 C 0.72169 0.84971 0.11801
 C47 C 0.69578 0.87913 0.13545
 C48 C 0.70398 0.87881 0.17909
 H49 H 0.72446 0.84185 0.08434
 H50 H 0.69028 0.89848 0.20330
 H51 H 0.80830 0.82567 0.19914
 H52 H 0.76881 0.78487 0.20603
 N53 N 0.82027 1.26376 -0.14592
 N54 N 0.84176 1.27276 -0.18023
 C55 C 0.86566 1.30546 -0.17159
 C56 C 0.85868 1.31781 -0.12958
 C57 C 0.82985 1.29041 -0.11423
 H58 H 0.88857 1.31750 -0.19315
 H59 H 0.81907 1.28810 -0.08152
 Cu60 Cu 0.84234 1.23657 -0.22999
 Cu61 Cu 0.78639 1.21453 -0.14301
 Cu62 Cu 0.77553 1.15897 -0.23754
 N63 N 0.85254 1.18961 -0.26750
 N64 N 0.82635 1.15913 -0.27053
 C65 C 0.84238 1.12948 -0.29583
 C66 C 0.88157 1.14128 -0.30829
 C67 C 0.88616 1.18044 -0.29067
 H68 H 0.82765 1.10027 -0.30213
 H69 H 0.91167 1.20123 -0.29461
 N70 N 0.73954 1.15116 -0.18780
 N71 N 0.74479 1.17106 -0.15109
 C72 C 0.71900 1.15546 -0.12175
 C73 C 0.69706 1.12385 -0.14072
 C74 C 0.71023 1.12252 -0.18288
 H75 H 0.71745 1.16507 -0.08847
 H76 H 0.70073 1.10094 -0.20754
 H77 H 0.81326 1.17918 -0.19067
 H78 H 0.77311 1.21740 -0.20681
 N79 N 0.17897 0.73473 -0.14605
 N80 N 0.14983 0.73785 -0.17531
 C81 C 0.12154 0.70857 -0.16833
 C82 C 0.13383 0.68546 -0.13309
 C83 C 0.17038 0.70322 -0.11973
 H84 H 0.09252 0.70636 -0.18524
 H85 H 0.18790 0.69562 -0.09117
 Cu86 Cu 0.14902 0.78422 -0.21476
 Cu87 Cu 0.22111 0.77684 -0.13897
 Cu88 Cu 0.23481 0.83799 -0.22909
 N89 N 0.15051 0.82959 -0.25537
 N90 N 0.18443 0.85061 -0.26084
 C91 C 0.17708 0.88156 -0.28850
 C92 C 0.13576 0.88104 -0.29997
 C93 C 0.12027 0.84671 -0.27911
 H94 H 0.20045 0.90243 -0.29965
 H95 H 0.08871 0.83646 -0.27917
 N96 N 0.27480 0.83513 -0.18126
 N97 N 0.26898 0.81294 -0.14638
 C98 C 0.29765 0.82299 -0.11688
 C99 C 0.32282 0.85291 -0.13394
 C100 C 0.30728 0.85990 -0.17478
 H101 H 0.29809 0.81203 -0.08411
 H102 H 0.31677 0.88375 -0.19671
 H103 H 0.19948 0.82566 -0.17687
 H104 H 0.22315 0.77958 -0.20313
 C105 C 0.46211 0.96878 -0.03234
 C106 C 0.48234 0.99845 -0.00735
 C107 C 0.45962 1.02554 0.01858
 C108 C 0.41667 1.02227 0.02075
 C109 C 0.39669 0.99234 -0.00434
 C110 C 0.41922 0.96543 -0.03075
 C111 C 0.52741 0.99976 -0.00669
 C112 C 0.54876 1.02225 -0.03774
 C113 C 0.59186 1.02265 -0.03729
 C114 C 0.61328 1.00121 -0.00509
 C115 C 0.59215 0.97890 0.02614
 C116 C 0.54914 0.97792 0.02502
 H117 H 0.47973 0.94809 -0.05266
 H118 H 0.47539 1.04884 0.03738
 H119 H 0.53195 1.03903 -0.06230
 H120 H 0.53260 0.96035 0.04882
 H121 H 0.36352 0.98975 -0.00308
 H122 H 0.64660 1.00174 -0.00444
 C123 C -0.03225 0.45892 0.97716
 C124 C -0.00360 0.47999 1.00267
 C125 C 0.02430 0.45790 1.02831
 C126 C 0.02416 0.41466 1.02796
 C127 C -0.00496 0.39379 1.00271
 C128 C -0.03341 0.41573 0.97749
 C129 C -0.00238 0.52517 1.00187
 C130 C -0.02732 0.54827 1.02969
 C131 C -0.02578 0.59142 1.02924
 C132 C -0.00045 0.61125 0.99956
 C133 C 0.02460 0.58840 0.97157
 C134 C 0.02401 0.54521 0.97340
 H135 H -0.05351 0.47607 0.95701
 H136 H 0.04623 0.47430 1.04826
 H137 H -0.04724 0.53272 1.05213
 H138 H 0.04398 0.52721 0.95271
 H139 H -0.00545 0.36039 1.00264
 H140 H 0.00020 0.64464 0.99871
 C141 C 0.97210 -0.02934 0.46062
 C142 C 1.00161 -0.00180 0.47644
 C143 C 1.02675 0.01961 0.44783
 C144 C 1.02268 0.01326 0.40344
 C145 C 0.99268 -0.01384 0.38779
 C146 C 0.96713 -0.03506 0.41618
 C147 C 1.00652 0.00415 0.52298
 C148 C 1.03438 -0.02053 0.54606
 C149 C 1.03889 -0.01516 0.59052
 C150 C 1.01493 0.01446 0.61179
 C151 C 0.98746 0.03976 0.58894
 C152 C 0.98305 0.03419 0.54442
 H153 H 0.95307 -0.04627 0.48282
 H154 H 1.04971 0.04074 0.46008
 H155 H 1.05248 -0.04376 0.52950
 H156 H 0.96144 0.05312 0.52652
 H157 H 0.98924 -0.01842 0.35343
 H158 H 1.01758 0.01768 0.64640
 C159 C 0.03684 0.36543 1.08671
 C160 C 0.06203 0.34046 1.11186
 C161 C 0.10495 0.33946 1.10616
 C162 C 0.12251 0.36827 1.07707
 C163 C 0.09651 0.39271 1.05034
 C164 C 0.05329 0.39080 1.05510
 C165 C 0.11483 0.41817 1.01947
 N166 N 0.15626 0.42166 1.01810
 N167 N 0.18054 0.40143 1.04545
 C168 C 0.16514 0.37528 1.07506
 H169 H 0.00387 0.36414 1.09125
 H170 H 0.04696 0.31985 1.13388
 H171 H 0.09671 0.43555 0.99658
 H172 H 0.18635 0.36143 1.09763
 C173 C -0.09334 0.61461 1.05670
 C174 C -0.11793 0.64039 1.08175
 C175 C -0.10042 0.66842 1.11081
 C176 C -0.05696 0.67042 1.11472
 C177 C -0.03200 0.64353 1.08981
 C178 C -0.05046 0.61622 1.05982
 C179 C 0.01089 0.64495 1.09567
 N180 N 0.02757 0.67286 1.12306
 N181 N 0.00431 0.69940 1.14494
 C182 C -0.03724 0.69932 1.14156
 H183 H -0.10786 0.59397 1.03384
 H184 H -0.15101 0.63867 1.07818
 H185 H 0.03133 0.62409 1.07888
 H186 H -0.05413 0.72228 1.15947
 C187 C -0.04718 0.36730 0.91788
 C188 C -0.07315 0.34443 0.89151
 C189 C -0.11591 0.34648 0.89638
 C190 C -0.13277 0.37352 0.92773
 C191 C -0.10620 0.39642 0.95509
 C192 C -0.06303 0.39312 0.94997
 C193 C -0.12390 0.42131 0.98725
 N194 N -0.16535 0.42439 0.99036
 N195 N -0.19025 0.40417 0.96365
 C196 C -0.17543 0.37897 0.93243
 H197 H -0.01427 0.36454 0.91347
 H198 H -0.05952 0.32391 0.86794
 H199 H -0.10530 0.43825 1.01004
 H200 H -0.19717 0.36395 0.91131
 C201 C 0.08109 0.63771 0.96155
 C202 C 0.10789 0.66045 0.93657
 C203 C 0.10824 0.65628 0.89169
 C204 C 0.08187 0.62695 0.87197
 C205 C 0.05350 0.60469 0.89740
 C206 C 0.05329 0.61019 0.94268
 C207 C 0.02568 0.57832 0.87635
 N208 N 0.02798 0.57274 0.83323
 N209 N 0.05602 0.59189 0.80972
 C210 C 0.08308 0.61864 0.82758
 H211 H 0.08160 0.64216 0.99609
 H212 H 0.12756 0.68257 0.95257
 H213 H 0.00200 0.56221 0.89357
 H214 H 0.10562 0.63256 0.80696
 C215 C 1.04327 0.07763 0.36795
 C216 C 1.06512 0.09954 0.33741
 C217 C 1.09435 0.08005 0.31084
 C218 C 1.09950 0.03638 0.31422
 C219 C 1.07792 0.01444 0.34641
 C220 C 1.04932 0.03531 0.37294
 C221 C 1.08511 -0.02816 0.35060
 N222 N 1.10987 -0.04804 0.32237
 N223 N 1.12755 -0.02824 0.29010
 C224 C 1.12280 0.01295 0.28469
 H225 H 1.02109 0.09386 0.38772
 H226 H 1.06000 0.13250 0.33593
 H227 H 1.07102 -0.04592 0.37583
 H228 H 1.13583 0.02628 0.25625
 C229 C 1.05786 -0.08261 0.62118
 C230 C 1.08029 -0.10722 0.64943
 C231 C 1.11360 -0.09141 0.67331
 C232 C 1.12314 -0.04864 0.66904
 C233 C 1.10101 -0.02415 0.63889
 C234 C 1.06759 -0.04116 0.61575
 C235 C 1.11230 0.01729 0.63356
 N236 N 1.14160 0.03403 0.65913
 N237 N 1.15999 0.01221 0.68989
 C238 C 1.15138 -0.02814 0.69615
 H239 H 1.03200 -0.09586 0.60406
 H240 H 1.07185 -0.13936 0.65167
 H241 H 1.09789 0.03658 0.60948
 H242 H 1.16539 -0.04281 0.72355
 C243 C 0.95129 -0.09817 0.37521
 C244 C 0.92443 -0.12578 0.35578
 C245 C 0.88152 -0.12064 0.35885
 C246 C 0.86620 -0.08909 0.38671
 C247 C 0.89374 -0.06007 0.40528
 C248 C 0.93660 -0.06458 0.39891
 C249 C 0.87727 -0.02725 0.42950
 N250 N 0.83644 -0.02570 0.43770
 N251 N 0.81106 -0.05472 0.42335
 C252 C 0.82455 -0.08648 0.39862
 H253 H 0.98404 -0.10246 0.37068
 H254 H 0.93787 -0.14958 0.33579
 H255 H 0.89638 -0.00295 0.44226
 H256 H 0.80276 -0.11003 0.38986
 C257 C 0.91918 0.06571 0.61091
 C258 C 0.89370 0.08908 0.63737
 C259 C 0.90977 0.11775 0.66704
 C260 C 0.95347 0.12164 0.67020
 C261 C 0.97910 0.09948 0.64119
 C262 C 0.96181 0.07014 0.61264
 C263 C 1.02170 0.10662 0.64239
 N264 N 1.03801 0.13094 0.67345
 N265 N 1.01459 0.14828 0.70349
 C266 C 0.97318 0.14394 0.70337
 H267 H 0.90543 0.04318 0.58953
 H268 H 0.86088 0.08495 0.63377
 H269 H 1.04219 0.09286 0.61908
 H270 H 0.95674 0.15632 0.73047
 C271 C 0.36086 1.07380 0.02799
 C272 C 0.33576 1.10021 0.05161
 C273 C 0.34130 1.10513 0.09605
 C274 C 0.37437 1.08408 0.11659
 C275 C 0.39888 1.05574 0.09280
 C276 C 0.39213 1.05086 0.04795
 C277 C 0.42877 1.03258 0.11514
 N278 N 0.43559 1.03966 0.15754
 N279 N 0.41441 1.06809 0.17917
 C280 C 0.38423 1.09062 0.16017
 H281 H 0.35536 1.07072 -0.00625
 H282 H 0.31086 1.11585 0.03503
 H283 H 0.44665 1.00875 0.09955
 H284 H 0.36880 1.11385 0.17920
 C285 C 0.61116 1.08931 -0.06931
 C286 C 0.63736 1.11362 -0.09356
 C287 C 0.66842 1.09577 -0.11868
 C288 C 0.67249 1.05215 -0.12007
 C289 C 0.64510 1.02745 -0.09610
 C290 C 0.61526 1.04637 -0.06939
 C291 C 0.64882 0.98432 -0.09918
 N292 N 0.67920 0.96723 -0.12307
 N293 N 0.70611 0.99033 -0.14396
 C294 C 0.70402 1.03207 -0.14306
 H295 H 0.58862 1.10422 -0.04889
 H296 H 0.63391 1.14682 -0.09200
 H297 H 0.62778 0.96404 -0.08294
 H298 H 0.72746 1.04881 -0.15982
 C299 C 0.36979 0.94946 -0.08872
 C300 C 0.34729 0.92242 -0.11425
 C301 C 0.35156 0.87965 -0.10958
 C302 C 0.38053 0.86399 -0.07944
 C303 C 0.40302 0.89162 -0.05287
 C304 C 0.39741 0.93473 -0.05767
 C305 C 0.42978 0.87499 -0.02171
 N306 N 0.43498 0.83360 -0.01888
 N307 N 0.41513 0.80777 -0.04493
 C308 C 0.38821 0.82150 -0.07513
 H309 H 0.36522 0.98232 -0.09285
 H310 H 0.32525 0.93518 -0.13684
 H311 H 0.44652 0.89436 0.00054
 H312 H 0.37355 0.79907 -0.09577
 C313 C 0.61373 0.91223 0.05722
 C314 C 0.63945 0.88828 0.08301
 C315 C 0.66764 0.90661 0.11129
 C316 C 0.66951 0.95025 0.11401
 C317 C 0.64288 0.97460 0.08809
 C318 C 0.61564 0.95528 0.05871
 C319 C 0.64464 1.01774 0.09215
 N320 N 0.67237 1.03521 0.11916
 N321 N 0.69844 1.01248 0.14228
 C322 C 0.69815 0.97072 0.14048
 H323 H 0.59321 0.89704 0.03475
 H324 H 0.63779 0.85502 0.08040
 H325 H 0.62414 1.03772 0.07423
 H326 H 0.72067 0.95422 0.15940
   
