data_POSCAR
  _audit_creation_date              2014-09-24
  _audit_creation_method            'ToBaCCo'
  _symmetry_space_group_name_H-M    'P1'
  _symmetry_Int_Tables_number       1
  _symmetry_cell_setting            triclinic
  loop_
  _symmetry_equiv_pos_as_xyz
 x,y,z
_cell_length_a 22.6260
_cell_length_b 22.8252
_cell_length_c 45.9374
_cell_angle_alpha 79.572000
_cell_angle_beta 94.989500
_cell_angle_gamma 121.565900
loop_
  _atom_site_label
  _atom_site_type_symbol
  _atom_site_fract_x
  _atom_site_fract_y
  _atom_site_fract_z
C1 C 0.00944 0.14866 0.53136
 H2 H 0.06345 0.17213 0.52571
 C3 C -0.00947 0.17965 0.54925
 H4 H 0.03069 0.22683 0.55699
 C5 C -0.10673 0.05482 0.53064
 H6 H -0.14397 0.00533 0.52384
 C7 C -0.12782 0.08368 0.54878
 H8 H -0.18159 0.05620 0.55580
 N9 N -0.03907 0.08745 0.52238
 C10 C -0.00797 -0.08295 0.52008
 H11 H -0.01106 -0.08580 0.49670
 C12 C -0.00965 -0.13697 0.54078
 H13 H -0.01288 -0.18059 0.53304
 C14 C 0.00045 -0.02221 0.55846
 H15 H 0.00386 0.02234 0.56529
 C16 C 0.00003 -0.07433 0.57980
 H17 H 0.00319 -0.06938 0.60298
 Zn18 Zn -0.01080 0.04138 0.50170
 N19 N -0.00435 -0.02769 0.52926
 C20 C 0.12375 0.08779 0.48108
 N21 N 0.07597 0.10611 0.48273
 C22 C 0.08568 0.16798 0.46816
 C23 C 0.14408 0.21326 0.45027
 C24 C 0.18298 0.13152 0.46330
 C25 C -0.12977 -0.06878 0.47904
 C26 C -0.17097 -0.10558 0.45666
 C27 C -0.10456 -0.00233 0.42089
 C28 C -0.06439 0.03191 0.44387
 N29 N -0.07632 -0.00197 0.47223
 H30 H 0.11463 0.03801 0.49253
 H31 H 0.04618 0.18067 0.46928
 H32 H 0.14812 0.26017 0.43778
 H33 H 0.21946 0.11523 0.46137
 H34 H -0.13878 -0.09457 0.50180
 H35 H -0.21164 -0.15898 0.46324
 H36 H -0.09215 0.02584 0.39845
 H37 H -0.02219 0.08499 0.43871
 C38 C -0.00673 -0.13335 0.57114
 C39 C -0.07898 0.14682 0.55834
 C40 C -0.15726 -0.07291 0.42676
 C41 C 0.19326 0.19470 0.44732
 C42 C 1.18335 0.12410 0.11646
 H43 H 1.16205 0.15762 0.11275
 C44 C 1.23206 0.13384 0.09676
 H45 H 1.24806 0.17514 0.07787
 C46 C 1.18607 0.02829 0.14530
 H47 H 1.16686 -0.01326 0.16408
 C48 C 1.23515 0.03604 0.12591
 H49 H 1.25275 -0.00048 0.13006
 N50 N 1.16132 0.07211 0.14011
 C51 C 0.97838 0.08229 0.13700
 H52 H 0.98660 0.11286 0.15399
 C53 C 0.92304 0.06708 0.11727
 H54 H 0.88909 0.08607 0.11959
 C55 C 1.01040 0.01748 0.11431
 H56 H 1.04351 -0.00327 0.11359
 C57 C 0.95616 0.00101 0.09442
 H58 H 0.94876 -0.03152 0.07830
 Zn59 Zn 1.09126 0.06486 0.16264
 N60 N 1.02027 0.05674 0.13532
 C61 C 1.09209 0.15198 0.20023
 N62 N 1.13089 0.14528 0.18153
 C63 C 1.20050 0.19118 0.17866
 C64 C 1.23398 0.24508 0.19539
 C65 C 1.12374 0.20500 0.21765
 C66 C 0.99733 -0.07649 0.18432
 C67 C 0.95425 -0.13127 0.20604
 C68 C 1.02632 -0.06359 0.24340
 C69 C 1.06767 -0.00973 0.22095
 N70 N 1.05119 -0.01611 0.19203
 H71 H 1.03719 0.11401 0.20280
 H72 H 1.23127 0.18478 0.16431
 H73 H 1.28928 0.28029 0.19241
 H74 H 1.09245 0.20804 0.23320
 H75 H 0.98512 -0.08104 0.16132
 H76 H 0.91038 -0.17785 0.19934
 H77 H 1.03820 -0.05643 0.26630
 H78 H 1.11066 0.03858 0.22667
 C79 C 0.91124 0.02521 0.09578
 C80 C 1.25835 0.08941 0.10109
 C81 C 0.96692 -0.12384 0.23601
 C82 C 1.19591 0.25122 0.21598
 C83 C 0.00728 0.85046 0.88510
 H84 H -0.03569 0.79914 0.88258
 C85 C 0.05940 0.85704 0.90507
 H86 H 0.05511 0.81080 0.91857
 C87 C 0.06645 0.97266 0.86961
 H88 H 0.06890 1.01738 0.85561
 C89 C 0.12111 0.98152 0.88891
 H90 H 0.16488 1.03339 0.89012
 N91 N 0.01041 0.90775 0.86848
 C92 C -0.18578 0.88676 0.85500
 H93 H -0.17879 0.91439 0.83264
 C94 C -0.23146 0.88555 0.87407
 H95 H -0.25870 0.91211 0.86550
 C96 C -0.15625 0.82146 0.89280
 H97 H -0.12586 0.79805 0.90054
 C98 C -0.20151 0.81863 0.91256
 H99 H -0.20514 0.79243 0.93509
 Zn100 Zn -0.06555 0.88765 0.84256
 N101 N -0.14650 0.85819 0.86500
 C102 C -0.13204 0.76086 0.81623
 N103 N -0.07272 0.81969 0.82194
 C104 C -0.01050 0.83848 0.81074
 C105 C -0.00616 0.79967 0.79193
 C106 C -0.13001 0.71991 0.79731
 C107 C -0.04318 1.02387 0.82256
 C108 C -0.04718 1.07452 0.80154
 C109 C -0.06075 1.00800 0.76353
 C110 C -0.05701 0.95879 0.78511
 N111 N -0.04998 0.96643 0.81411
 H112 H -0.18097 0.74739 0.82527
 H113 H 0.03569 0.88581 0.81545
 H114 H 0.04376 0.81733 0.78242
 H115 H -0.17791 0.67518 0.79176
 H116 H -0.03925 1.02810 0.84581
 H117 H -0.04519 1.11774 0.80905
 H118 H -0.06894 0.99924 0.74073
 H119 H -0.06390 0.91251 0.77862
 C120 C -0.23709 0.85417 0.90389
 C121 C 0.11712 0.92294 0.90712
 C122 C -0.05793 1.06571 0.77159
 C123 C -0.06623 0.74039 0.78452
 C124 C 0.42769 0.03001 0.02294
 C125 C 0.38638 0.02492 -0.00210
 C126 C 0.40101 0.01332 -0.02877
 C127 C 0.45902 0.00613 -0.03051
 C128 C 0.50310 0.01379 -0.00573
 C129 C 0.48771 0.02659 0.02095
 C130 C 0.53306 0.03630 0.04491
 C131 C 0.59205 0.03300 0.04291
 C132 C 0.60761 0.01870 0.01701
 C133 C 0.56197 0.00735 -0.00738
 C134 C 0.47258 -0.01119 -0.05590
 C135 C 0.52800 -0.02109 -0.05701
 C136 C 0.57432 -0.01141 -0.03315
 C137 C 0.63046 -0.02299 -0.03352
 C138 C 0.67656 -0.00798 -0.00948
 C139 C 0.66705 0.01431 0.01525
 H140 H 0.52401 0.04756 0.06541
 H141 H 0.62431 0.04002 0.06232
 H142 H 0.43911 -0.01949 -0.07497
 H143 H 0.53287 -0.03691 -0.07696
 H144 H 0.34090 0.02857 -0.00066
 H145 H 0.72362 -0.00882 -0.01085
 C146 C -0.06308 0.34284 0.64189
 C147 C -0.06128 0.30380 0.66882
 C148 C -0.07214 0.31649 0.69605
 C149 C -0.08551 0.37055 0.69626
 C150 C -0.08491 0.41251 0.66918
 C151 C -0.07275 0.39916 0.64197
 C152 C -0.07103 0.44220 0.61556
 C153 C -0.07903 0.49851 0.61585
 C154 C -0.09155 0.51266 0.64244
 C155 C -0.09584 0.46845 0.66935
 C156 C -0.09994 0.38353 0.72276
 C157 C -0.11161 0.43761 0.72287
 C158 C -0.10934 0.48101 0.69649
 C159 C -0.11832 0.53781 0.69661
 C160 C -0.11312 0.58118 0.66991
 C161 C -0.09815 0.57079 0.64302
 H162 H -0.06267 0.43339 0.59434
 H163 H -0.07532 0.53067 0.59487
 H164 H -0.10298 0.35170 0.74376
 H165 H -0.12163 0.44546 0.74401
 H166 H -0.04818 0.26459 0.66841
 H167 H -0.12101 0.62407 0.67009
 C168 C 0.41884 0.43956 0.30186
 C169 C 0.37765 0.40967 0.32756
 C170 C 0.39905 0.44004 0.35324
 C171 C 0.46364 0.50261 0.35348
 C172 C 0.50759 0.53256 0.32816
 C173 C 0.48529 0.50069 0.30228
 C174 C 0.52969 0.53140 0.27745
 C175 C 0.59479 0.59127 0.27810
 C176 C 0.61778 0.62416 0.30335
 C177 C 0.57387 0.59449 0.32874
 C178 C 0.48581 0.53532 0.37864
 C179 C 0.54963 0.59626 0.37908
 C180 C 0.59572 0.62659 0.35465
 C181 C 0.66138 0.68938 0.35487
 C182 C 0.70377 0.71708 0.32940
 C183 C 0.68381 0.68526 0.30401
 H184 H 0.51482 0.50956 0.25716
 H185 H 0.62683 0.61130 0.25844
 H186 H 0.45381 0.51438 0.39839
 H187 H 0.56088 0.61890 0.39898
 H188 H 0.32791 0.36162 0.32770
 H189 H 0.75458 0.76346 0.32929
 C190 C -0.10066 0.17298 0.58002
 C191 C -0.06597 0.23939 0.58444
 C192 C -0.08445 0.25918 0.60943
 C193 C -0.05099 0.32515 0.61431
 H194 H -0.02223 0.27887 0.57044
 H195 H -0.12407 0.21854 0.62502
 H196 H -0.14638 0.13536 0.59344
 H197 H -0.01278 0.36627 0.59841
 C198 C 0.91757 0.82460 0.25980
 C199 C 0.84881 0.78790 0.25573
 C200 C 0.80082 0.74659 0.28107
 C201 C 0.73219 0.71913 0.27808
 H202 H 0.82729 0.79265 0.23404
 H203 H 0.82223 0.74110 0.30273
 H204 H 0.93758 0.82249 0.28204
 H205 H 0.71132 0.72391 0.25624
 C206 C 0.16955 -0.07176 -0.07038
 C207 C 0.23770 -0.02766 -0.07451
 C208 C 0.28545 -0.02715 -0.05052
 C209 C 0.35434 0.00896 -0.05423
 H210 H 0.25792 0.00707 -0.09533
 H211 H 0.26344 -0.05714 -0.02901
 H212 H 0.15113 -0.10880 -0.04999
 H213 H 0.37671 0.03619 -0.07597
 C214 C -0.01029 0.81082 0.59446
 C215 C -0.04330 0.74354 0.59145
 C216 C -0.05022 0.69097 0.61704
 C217 C -0.08852 0.62253 0.61617
 H218 H -0.06827 0.72673 0.57085
 H219 H -0.02434 0.70872 0.63742
 H220 H 0.01087 0.82515 0.61591
 H221 H -0.11305 0.60453 0.59568
 C222 C 0.22957 0.30253 0.23679
 C223 C 0.29717 0.33325 0.24361
 C224 C 0.32549 0.37646 0.26729
 C225 C 0.39193 0.40362 0.27554
 H226 H 0.33152 0.32335 0.23326
 H227 H 0.29088 0.38408 0.27888
 H228 H 0.19632 0.31155 0.24860
 H229 H 0.42659 0.39724 0.26339
 C230 C 0.72823 -0.13882 -0.07416
 C231 C 0.69594 -0.09968 -0.07855
 C232 C 0.67709 -0.08382 -0.05426
 C233 C 0.64315 -0.04635 -0.05753
 H234 H 0.68756 -0.07892 -0.10053
 H235 H 0.68869 -0.10182 -0.03228
 H236 H 0.73088 -0.16160 -0.05155
 H237 H 0.62451 -0.03778 -0.07937
 C238 C 0.30540 0.09861 0.07789
 C239 C 0.33872 0.06418 0.07913
 C240 C 0.37546 0.07146 0.05257
 C241 C 0.40353 0.03305 0.05138
 H242 H 0.33614 0.02833 0.09863
 H243 H 0.37581 0.10595 0.03285
 H244 H 0.31092 0.13464 0.05784
 H245 H 0.40519 0.00006 0.07123
 C246 C 0.80986 0.89400 0.40350
 C247 C 0.76058 0.82282 0.40509
 C248 C 0.73550 0.79379 0.37922
 C249 C 0.68597 0.72290 0.38020
 H250 H 0.74257 0.78871 0.42608
 H251 H 0.75374 0.82783 0.35817
 H252 H 0.82471 0.92433 0.38143
 H253 H 0.66546 0.69365 0.40183
 C254 C -0.07185 0.11094 0.74819
 C255 C -0.06554 0.17138 0.75093
 C256 C -0.08250 0.20932 0.72541
 C257 C -0.06404 0.27591 0.72382
 H258 H -0.04635 0.19378 0.77101
 H259 H -0.10890 0.18234 0.70690
 H260 H -0.08879 0.09278 0.72703
 H261 H -0.03923 0.30205 0.74267
 C262 C 0.85176 0.00225 0.07524
 C263 C 0.81397 0.03222 0.06859
 C264 C 0.75754 0.00586 0.04694
 C265 C 0.72226 0.03781 0.03800
 H266 H 0.82555 0.07705 0.07816
 H267 H 0.74483 -0.04034 0.03813
 H268 H 0.83980 -0.04083 0.06415
 H269 H 0.73448 0.08299 0.04752
 C270 C 0.25129 0.23604 0.42566
 C271 C 0.27590 0.30319 0.41467
 C272 C 0.32652 0.33836 0.39015
 C273 C 0.35198 0.40560 0.37930
 H274 H 0.25755 0.33225 0.42309
 H275 H 0.34192 0.30861 0.38024
 H276 H 0.27332 0.20939 0.41781
 H277 H 0.33834 0.43602 0.38968
 C278 C -0.05959 0.70731 0.76112
 C279 C -0.10507 0.64286 0.75575
 C280 C -0.09282 0.62044 0.72992
 C281 C -0.13078 0.55524 0.72422
 H282 H -0.15046 0.60790 0.76968
 H283 H -0.05120 0.65920 0.71467
 H284 H -0.01344 0.73887 0.74723
 H285 H -0.17043 0.51484 0.73979
   
