data_POSCAR
  _audit_creation_date              2014-09-24
  _audit_creation_method            'ToBaCCo'
  _symmetry_space_group_name_H-M    'P1'
  _symmetry_Int_Tables_number       1
  _symmetry_cell_setting            triclinic
  loop_
  _symmetry_equiv_pos_as_xyz
 x,y,z
_cell_length_a 29.7109
_cell_length_b 29.1913
_cell_length_c 29.7901
_cell_angle_alpha 89.766100
_cell_angle_beta 89.950900
_cell_angle_gamma 90.151500
loop_
  _atom_site_label
  _atom_site_type_symbol
  _atom_site_fract_x
  _atom_site_fract_y
  _atom_site_fract_z
Zr1 Zr 0.24773 0.25088 0.32802
 O2 O 0.28188 0.28927 0.37763
 O3 O 0.20766 0.20708 0.36692
 O4 O 0.20133 0.29130 0.36450
 O5 O 0.33349 0.17344 0.31110
 O6 O 0.16521 0.33213 0.30999
 O7 O 0.29172 0.20843 0.36528
 O8 O 0.16596 0.17089 0.31347
 O9 O 0.18836 0.25064 0.29008
 O10 O 0.24881 0.19099 0.28967
 O11 O 0.24961 0.31130 0.28932
 O12 O 0.30780 0.25396 0.29015
 Zr13 Zr 0.24990 0.25305 0.17044
 Zr14 Zr 0.19204 0.30884 0.24900
 Zr15 Zr 0.30604 0.19540 0.24964
 Zr16 Zr 0.19113 0.19202 0.25058
 O17 O 0.37696 0.20217 0.24794
 O18 O 0.12053 0.20251 0.24948
 O19 O 0.24836 0.19216 0.20906
 O20 O 0.19069 0.24993 0.20920
 O21 O 0.24912 0.31361 0.20809
 O22 O 0.30888 0.25344 0.20893
 C23 C 0.17685 0.17906 0.35457
 C24 C 0.32305 0.18099 0.35241
 C25 C 0.17235 0.32128 0.35132
 O26 O 0.12112 0.30251 0.24636
 O27 O 0.16856 0.33556 0.18780
 O28 O 0.20595 0.29608 0.13349
 C29 C 0.17679 0.32587 0.14646
 O30 O 0.33644 0.33909 0.30731
 Zr31 Zr 0.30665 0.31199 0.24820
 O32 O 0.29070 0.29732 0.13209
 O33 O 0.19738 0.38108 0.25136
 O34 O 0.29479 0.38360 0.24803
 O35 O 0.37754 0.30383 0.24614
 O36 O 0.32862 0.33725 0.18581
 C37 C 0.31931 0.32774 0.14468
 O38 O 0.21442 0.21740 0.11971
 O39 O 0.30142 0.12306 0.25160
 O40 O 0.29116 0.20706 0.13406
 O41 O 0.32871 0.16783 0.18875
 O42 O 0.19970 0.11999 0.25422
 O43 O 0.16626 0.16047 0.19135
 C44 C 0.31937 0.17637 0.14736
 H45 H 0.24968 0.16266 0.30801
 H46 H 0.16355 0.24886 0.18998
 H47 H 0.33657 0.25304 0.19044
 H48 H 0.24979 0.33878 0.30870
 H49 H 0.10604 0.17328 0.25852
 H50 H 0.10872 0.33398 0.24744
 H51 H 0.16631 0.39328 0.25017
 H52 H 0.32329 0.39895 0.23926
 H53 H 0.17023 0.10646 0.26262
 H54 H 0.33264 0.11127 0.25309
 H55 H 0.38945 0.17073 0.24728
 H56 H 0.39085 0.33383 0.23771
 H57 H 0.14078 0.13998 0.19910
 H58 H 0.22568 0.22877 0.09031
 H59 H 0.27110 0.27797 0.40719
 H60 H 0.35647 0.36502 0.29925
 Zr61 Zr 0.75243 0.75610 0.32847
 O62 O 0.71955 0.71935 0.38043
 O63 O 0.79409 0.80068 0.36480
 O64 O 0.79902 0.71564 0.36509
 O65 O 0.66544 0.83258 0.31064
 O66 O 0.83439 0.67408 0.31087
 O67 O 0.70832 0.79917 0.36510
 O68 O 0.83446 0.83606 0.30949
 O69 O 0.81105 0.75564 0.28926
 O70 O 0.75037 0.81510 0.28847
 O71 O 0.74996 0.69487 0.29131
 O72 O 0.69175 0.75166 0.29171
 Zr73 Zr 0.74745 0.75042 0.17097
 Zr74 Zr 0.80686 0.69656 0.24984
 Zr75 Zr 0.69245 0.80937 0.24961
 Zr76 Zr 0.80734 0.81344 0.24816
 O77 O 0.62154 0.80219 0.24939
 O78 O 0.87796 0.80336 0.24540
 O79 O 0.74935 0.81210 0.20784
 O80 O 0.80732 0.75464 0.20845
 O81 O 0.74915 0.69065 0.21019
 O82 O 0.68909 0.75051 0.21045
 C83 C 0.82477 0.82843 0.35101
 C84 C 0.67637 0.82596 0.35198
 C85 C 0.82761 0.68524 0.35208
 O86 O 0.87769 0.70324 0.24598
 O87 O 0.82935 0.66865 0.18885
 O88 O 0.79104 0.70721 0.13431
 C89 C 0.82038 0.67765 0.14744
 O90 O 0.66326 0.66717 0.31160
 Zr91 Zr 0.69225 0.69279 0.25122
 O92 O 0.70680 0.70464 0.13461
 O93 O 0.80191 0.62435 0.25410
 O94 O 0.70443 0.62127 0.25359
 O95 O 0.62132 0.70074 0.24966
 O96 O 0.66995 0.66530 0.18984
 C97 C 0.67900 0.67380 0.14831
 O98 O 0.78168 0.78546 0.11865
 O99 O 0.69676 0.88176 0.24946
 O100 O 0.70520 0.79507 0.13408
 O101 O 0.66866 0.83537 0.18843
 O102 O 0.79827 0.88545 0.25022
 O103 O 0.83041 0.84383 0.18736
 C104 C 0.67716 0.82588 0.14714
 H105 H 0.74973 0.84374 0.30613
 H106 H 0.83411 0.75541 0.18868
 H107 H 0.66115 0.75022 0.19238
 H108 H 0.75012 0.66779 0.31142
 H109 H 0.89254 0.83298 0.25273
 H110 H 0.89025 0.67185 0.24747
 H111 H 0.83300 0.61224 0.25248
 H112 H 0.67592 0.60553 0.24577
 H113 H 0.82789 0.89941 0.25717
 H114 H 0.66551 0.89345 0.25090
 H115 H 0.60883 0.83351 0.24769
 H116 H 0.60805 0.67053 0.24220
 H117 H 0.85576 0.86487 0.19383
 H118 H 0.77012 0.77339 0.08976
 H119 H 0.73096 0.73167 0.40926
 H120 H 0.64290 0.64125 0.30462
 Zr121 Zr 0.75534 0.23981 -0.32775
 O122 O 0.72271 0.27394 -0.38138
 O123 O 0.79727 0.19392 -0.36234
 O124 O 0.80142 0.28015 -0.36583
 O125 O 0.66766 0.16361 -0.30644
 O126 O 0.83675 0.32346 -0.31285
 O127 O 0.71028 0.19527 -0.36228
 O128 O 0.83739 0.16033 -0.30598
 O129 O 0.81405 0.24201 -0.28874
 O130 O 0.75337 0.18231 -0.28573
 O131 O 0.75288 0.30224 -0.29238
 O132 O 0.69484 0.24551 -0.29072
 Zr133 Zr 0.75091 0.25133 -0.17000
 Zr134 Zr 0.80992 0.30239 -0.25116
 Zr135 Zr 0.69563 0.18930 -0.24677
 Zr136 Zr 0.81042 0.18568 -0.24561
 O137 O 0.62473 0.19633 -0.24636
 O138 O 0.88105 0.19626 -0.24379
 O139 O 0.75260 0.18842 -0.20504
 O140 O 0.81054 0.24584 -0.20780
 O141 O 0.75242 0.30965 -0.21127
 O142 O 0.69248 0.24940 -0.20935
 C143 C 0.82771 0.16644 -0.34771
 C144 C 0.67817 0.16888 -0.34807
 C145 C 0.82973 0.31141 -0.35372
 O146 O 0.88076 0.29579 -0.24807
 O147 O 0.83382 0.33275 -0.19187
 O148 O 0.79553 0.29644 -0.13567
 C149 C 0.82525 0.32542 -0.15010
 O150 O 0.66646 0.32978 -0.31289
 Zr151 Zr 0.69539 0.30569 -0.25199
 O152 O 0.70990 0.29792 -0.13519
 O153 O 0.80475 0.37444 -0.25741
 O154 O 0.70782 0.37715 -0.25627
 O155 O 0.62450 0.29696 -0.25047
 O156 O 0.67242 0.33477 -0.19146
 C157 C 0.68154 0.32769 -0.14971
 O158 O 0.78483 0.21895 -0.11607
 O159 O 0.70016 0.11698 -0.24418
 O160 O 0.70860 0.20714 -0.13173
 O161 O 0.67195 0.16524 -0.18494
 O162 O 0.80090 0.11364 -0.24470
 O163 O 0.83377 0.15776 -0.18389
 C164 C 0.68036 0.17589 -0.14397
 H165 H 0.75253 0.15305 -0.30239
 H166 H 0.83746 0.24589 -0.18824
 H167 H 0.66454 0.25007 -0.19125
 H168 H 0.75287 0.32868 -0.31329
 H169 H 0.89563 0.16641 -0.24984
 H170 H 0.89353 0.32706 -0.25104
 H171 H 0.83583 0.38686 -0.25688
 H172 H 0.67940 0.39306 -0.24872
 H173 H 0.83041 0.09934 -0.25117
 H174 H 0.66894 0.10496 -0.24496
 H175 H 0.61189 0.16510 -0.24323
 H176 H 0.61097 0.32718 -0.24380
 H177 H 0.85908 0.13661 -0.18976
 H178 H 0.77311 0.23248 -0.08788
 H179 H 0.73410 0.26018 -0.40958
 H180 H 0.64603 0.35570 -0.30644
 Zr181 Zr 0.24549 0.75356 -0.32854
 O182 O 0.27754 0.71793 -0.38140
 O183 O 0.20127 0.79556 -0.36504
 O184 O 0.20010 0.71162 -0.36501
 O185 O 0.33313 0.83176 -0.31035
 O186 O 0.16456 0.66985 -0.31060
 O187 O 0.29298 0.79474 -0.36440
 O188 O 0.15694 0.82713 -0.31102
 O189 O 0.18685 0.75081 -0.28949
 O190 O 0.24527 0.81317 -0.28996
 O191 O 0.24934 0.69244 -0.29081
 O192 O 0.30571 0.75162 -0.29113
 Zr193 Zr 0.24961 0.74794 -0.17104
 Zr194 Zr 0.19211 0.69193 -0.24955
 Zr195 Zr 0.30294 0.80969 -0.24998
 Zr196 Zr 0.18808 0.80910 -0.24950
 O197 O 0.37411 0.80644 -0.24726
 O198 O 0.11782 0.79742 -0.24366
 O199 O 0.24573 0.80970 -0.20851
 O200 O 0.18975 0.75014 -0.20877
 O201 O 0.25002 0.68833 -0.20984
 O202 O 0.30798 0.75076 -0.21041
 C203 C 0.16691 0.81884 -0.35227
 C204 C 0.32537 0.82140 -0.35150
 C205 C 0.17137 0.68117 -0.35186
 O206 O 0.12124 0.69682 -0.24462
 O207 O 0.17075 0.66077 -0.18908
 O208 O 0.20964 0.69941 -0.13525
 C209 C 0.18167 0.66802 -0.14796
 O210 O 0.33658 0.66860 -0.31093
 Zr211 Zr 0.30699 0.69274 -0.25052
 O212 O 0.29279 0.70469 -0.13417
 O213 O 0.19912 0.62003 -0.25496
 O214 O 0.29715 0.62079 -0.25202
 O215 O 0.37762 0.70336 -0.24908
 O216 O 0.33058 0.66637 -0.18901
 C217 C 0.32160 0.67485 -0.14756
 O218 O 0.21295 0.77997 -0.11898
 O219 O 0.29488 0.88165 -0.25220
 O220 O 0.28998 0.79471 -0.13420
 O221 O 0.32492 0.83698 -0.18871
 O222 O 0.19493 0.88120 -0.25553
 O223 O 0.16606 0.84023 -0.18900
 C224 C 0.31698 0.82684 -0.14736
 H225 H 0.24533 0.84118 -0.30883
 H226 H 0.16315 0.74950 -0.18874
 H227 H 0.33583 0.75169 -0.19223
 H228 H 0.25002 0.66539 -0.31075
 H229 H 0.10239 0.82661 -0.25084
 H230 H 0.10921 0.66522 -0.24700
 H231 H 0.16837 0.60679 -0.25390
 H232 H 0.32628 0.60624 -0.24440
 H233 H 0.16475 0.89362 -0.26262
 H234 H 0.32556 0.89503 -0.25286
 H235 H 0.38542 0.83838 -0.24558
 H236 H 0.39187 0.67354 -0.24198
 H237 H 0.14135 0.86191 -0.19565
 H238 H 0.22493 0.76794 -0.09020
 H239 H 0.26613 0.73103 -0.40999
 H240 H 0.35745 0.64316 -0.30395
 Zr241 Zr 1.25093 1.25452 0.82957
 O242 O 1.21764 1.21876 0.88203
 O243 O 1.29270 1.29912 0.86595
 O244 O 1.29471 1.21168 0.86693
 O245 O 1.16615 1.33318 0.81073
 O246 O 1.33291 1.17257 0.81293
 O247 O 1.20529 1.29593 0.86562
 O248 O 1.33357 1.33408 0.81072
 O249 O 1.30999 1.25370 0.79096
 O250 O 1.24987 1.31356 0.78939
 O251 O 1.24826 1.19331 0.79264
 O252 O 1.19055 1.25116 0.79229
 Zr253 Zr 1.24655 1.24832 0.67220
 Zr254 Zr 1.30553 1.19465 0.75168
 Zr255 Zr 1.19231 1.30877 0.74988
 Zr256 Zr 1.30698 1.31121 0.74928
 O257 O 1.12128 1.30306 0.74981
 O258 O 1.37748 1.30019 0.74721
 O259 O 1.24931 1.31042 0.70833
 O260 O 1.30645 1.25226 0.70971
 O261 O 1.24777 1.18900 0.71201
 O262 O 1.18822 1.24943 0.71160
 C263 C 1.32348 1.32683 0.85222
 C264 C 1.17500 1.32430 0.85217
 C265 C 1.32400 1.18192 0.85418
 O266 O 1.37640 1.20107 0.74797
 O267 O 1.32826 1.16644 0.69110
 O268 O 1.28773 1.20207 0.63622
 C269 C 1.31760 1.17319 0.64973
 O270 O 1.16126 1.16773 0.81332
 Zr271 Zr 1.19066 1.19191 0.75257
 O272 O 1.20588 1.20308 0.63581
 O273 O 1.30035 1.12246 0.75619
 O274 O 1.20186 1.12023 0.75534
 O275 O 1.11975 1.19990 0.75052
 O276 O 1.16864 1.16443 0.69123
 C277 C 1.17791 1.17264 0.64971
 O278 O 1.28191 1.28322 0.62064
 O279 O 1.19803 1.38105 0.74894
 O280 O 1.20258 1.29070 0.63450
 O281 O 1.16898 1.33451 0.68814
 O282 O 1.29827 1.38329 0.75072
 O283 O 1.33153 1.34112 0.68883
 C284 C 1.17541 1.32262 0.64702
 H285 H 1.24935 1.34220 0.80706
 H286 H 1.33318 1.25251 0.68984
 H287 H 1.16016 1.24915 0.69372
 H288 H 1.24794 1.16616 0.81267
 H289 H 1.39238 1.32953 0.75495
 H290 H 1.38888 1.16967 0.74984
 H291 H 1.33142 1.11027 0.75502
 H292 H 1.17307 1.10490 0.74775
 H293 H 1.32780 1.39715 0.75822
 H294 H 1.16700 1.39336 0.75014
 H295 H 1.10924 1.33463 0.74780
 H296 H 1.10652 1.16954 0.74359
 H297 H 1.35672 1.36222 0.69573
 H298 H 1.27071 1.27102 0.59168
 H299 H 1.22894 1.23121 0.91088
 H300 H 1.14123 1.14142 0.80683
 Zr301 Zr 0.74925 0.75125 0.82978
 O302 O 0.78305 0.78869 0.88040
 O303 O 0.70891 0.70693 0.86829
 O304 O 0.70513 0.79413 0.86658
 O305 O 0.83444 0.67328 0.81147
 O306 O 0.66616 0.83217 0.81216
 O307 O 0.79572 0.71089 0.86620
 O308 O 0.66756 0.67072 0.81456
 O309 O 0.68966 0.75075 0.79208
 O310 O 0.75023 0.69140 0.79115
 O311 O 0.75081 0.81171 0.79116
 O312 O 0.80899 0.75424 0.79136
 Zr313 Zr 0.75138 0.75425 0.67213
 Zr314 Zr 0.69301 0.80900 0.75112
 Zr315 Zr 0.80707 0.69578 0.75051
 Zr316 Zr 0.69258 0.69246 0.75194
 O317 O 0.87806 0.70183 0.74888
 O318 O 0.62197 0.70285 0.75097
 O319 O 0.74955 0.69286 0.70994
 O320 O 0.69210 0.75053 0.71078
 O321 O 0.75017 0.81444 0.71027
 O322 O 0.81016 0.75432 0.71074
 C323 C 0.67829 0.67867 0.85571
 C324 C 0.82614 0.68270 0.85283
 C325 C 0.67538 0.82339 0.85352
 O326 O 0.62213 0.80191 0.74915
 O327 O 0.66835 0.83493 0.69019
 O328 O 0.70912 0.79930 0.63567
 C329 C 0.67850 0.82743 0.64887
 O330 O 0.83708 0.83949 0.80964
 Zr331 Zr 0.80782 0.81270 0.75014
 O332 O 0.79204 0.79839 0.63398
 O333 O 0.69777 0.88130 0.75311
 O334 O 0.79569 0.88425 0.74940
 O335 O 0.87879 0.80509 0.74891
 O336 O 0.83065 0.83741 0.68783
 C337 C 0.82132 0.82796 0.64671
 O338 O 0.71557 0.71835 0.62189
 O339 O 0.80178 0.62347 0.75196
 O340 O 0.79497 0.71110 0.63499
 O341 O 0.82963 0.66857 0.68922
 O342 O 0.70190 0.62050 0.75508
 O343 O 0.66703 0.66107 0.69290
 C344 C 0.82246 0.67952 0.64788
 H345 H 0.75132 0.66311 0.80955
 H346 H 0.66507 0.74947 0.69140
 H347 H 0.83809 0.75408 0.69262
 H348 H 0.75108 0.83928 0.81040
 H349 H 0.60747 0.67364 0.76008
 H350 H 0.60937 0.83323 0.75026
 H351 H 0.66658 0.89321 0.75214
 H352 H 0.82426 0.89960 0.74089
 H353 H 0.67269 0.60657 0.76377
 H354 H 0.83289 0.61138 0.75314
 H355 H 0.89026 0.67029 0.74772
 H356 H 0.89197 0.83528 0.74095
 H357 H 0.64216 0.63992 0.70095
 H358 H 0.72650 0.72998 0.59249
 H359 H 0.77231 0.77685 0.90981
 H360 H 0.85616 0.86627 0.80199
 Zr361 Zr 1.25184 0.74529 0.17015
 O362 O 1.21906 0.78080 0.11735
 O363 O 1.29313 0.70011 0.13394
 O364 O 1.29559 0.78778 0.13223
 O365 O 1.16553 0.66834 0.19001
 O366 O 1.33429 0.82702 0.18584
 O367 O 1.20512 0.70462 0.13464
 O368 O 1.33388 0.66532 0.18914
 O369 O 1.31101 0.74613 0.20847
 O370 O 1.25023 0.68650 0.21065
 O371 O 1.24982 0.80678 0.20667
 O372 O 1.19164 0.74926 0.20771
 Zr373 Zr 1.24784 0.75268 0.32737
 Zr374 Zr 1.30717 0.80547 0.24742
 Zr375 Zr 1.19289 0.69197 0.25051
 Zr376 Zr 1.30752 0.68888 0.25050
 O377 O 1.12188 0.69761 0.25148
 O378 O 1.37813 0.69958 0.25226
 O379 O 1.24997 0.69028 0.29175
 O380 O 1.30765 0.74815 0.28973
 O381 O 1.24954 0.81169 0.28717
 O382 O 1.18940 0.75161 0.28829
 C383 C 1.32376 0.67236 0.14764
 C384 C 1.17405 0.67722 0.14849
 C385 C 1.32498 0.81762 0.14469
 O386 O 1.37795 0.79872 0.25106
 O387 O 1.32979 0.83430 0.30785
 O388 O 1.28874 0.79936 0.36297
 C389 C 1.31867 0.82816 0.34924
 O390 O 1.16309 0.83271 0.18608
 Zr391 Zr 1.19232 0.80881 0.24689
 O392 O 1.20772 0.79836 0.36361
 O393 O 1.30297 0.87766 0.24229
 O394 O 1.20426 0.88041 0.24367
 O395 O 1.12135 0.80109 0.24913
 O396 O 1.17063 0.83675 0.30810
 C397 C 1.17993 0.82876 0.34962
 O398 O 1.28331 0.71799 0.37881
 O399 O 1.19792 0.61968 0.25133
 O400 O 1.20361 0.71115 0.36578
 O401 O 1.16977 0.66682 0.31265
 O402 O 1.29795 0.61685 0.24958
 O403 O 1.33196 0.65929 0.31104
 C404 C 1.17625 0.67919 0.35365
 H405 H 1.24922 0.65781 0.19307
 H406 H 1.33438 0.74801 0.30956
 H407 H 1.16138 0.75214 0.30628
 H408 H 1.24967 0.83381 0.18650
 H409 H 1.39274 0.67012 0.24472
 H410 H 1.39071 0.83005 0.24889
 H411 H 1.33421 0.88962 0.24336
 H412 H 1.17563 0.89593 0.25122
 H413 H 1.32729 0.60272 0.24210
 H414 H 1.16675 0.60755 0.25050
 H415 H 1.10967 0.66605 0.25372
 H416 H 1.10840 0.83153 0.25594
 H417 H 1.35681 0.63789 0.30415
 H418 H 1.27239 0.73035 0.40780
 H419 H 1.23009 0.76794 0.08857
 H420 H 1.14335 0.85918 0.19246
 Zr421 Zr 0.75041 1.24819 0.17100
 O422 O 0.78292 1.21024 0.11995
 O423 O 0.70984 1.29313 0.13308
 O424 O 0.70559 1.20570 0.13484
 O425 O 0.83742 1.32496 0.18735
 O426 O 0.66631 1.16824 0.18968
 O427 O 0.79717 1.28757 0.13354
 O428 O 0.66962 1.33012 0.18706
 O429 O 0.69119 1.24920 0.20938
 O430 O 0.75274 1.30808 0.20930
 O431 O 0.75156 1.18781 0.20998
 O432 O 0.81054 1.24428 0.20872
 Zr433 Zr 0.75390 1.24556 0.32849
 Zr434 Zr 0.69407 1.19096 0.25056
 Zr435 Zr 0.81009 1.30303 0.24908
 Zr436 Zr 0.69534 1.30765 0.24919
 O437 O 0.88094 1.29585 0.25023
 O438 O 0.62461 1.29785 0.25098
 O439 O 0.75289 1.30672 0.29027
 O440 O 0.69423 1.24961 0.29064
 O441 O 0.75150 1.18526 0.29071
 O442 O 0.81252 1.24468 0.28951
 C443 C 0.67971 1.32190 0.14580
 C444 C 0.82836 1.31543 0.14609
 C445 C 0.67555 1.17681 0.14822
 O446 O 0.62337 1.19861 0.25427
 O447 O 0.67124 1.16420 0.31230
 O448 O 0.71247 1.20052 0.36607
 C449 C 0.68226 1.17156 0.35352
 O450 O 0.83807 1.15926 0.19106
 Zr451 Zr 0.80892 1.18610 0.25057
 O452 O 0.79325 1.20086 0.36706
 O453 O 0.69744 1.11863 0.24768
 O454 O 0.79583 1.11465 0.25027
 O455 O 0.87997 1.19293 0.25262
 O456 O 0.83004 1.16006 0.31332
 C457 C 0.82079 1.16966 0.35456
 O458 O 0.71845 1.28239 0.37826
 O459 O 0.80649 1.37541 0.24714
 O460 O 0.79819 1.28833 0.36499
 O461 O 0.83296 1.33036 0.31021
 O462 O 0.70577 1.37951 0.24597
 O463 O 0.67121 1.33924 0.30868
 C464 C 0.82577 1.31973 0.35166
 H465 H 0.75410 1.33626 0.19075
 H466 H 0.66747 1.25071 0.31042
 H467 H 0.84042 1.24443 0.30765
 H468 H 0.75131 1.16023 0.19077
 H469 H 0.61039 1.32731 0.24251
 H470 H 0.61028 1.16737 0.25334
 H471 H 0.66609 1.10709 0.24956
 H472 H 0.82407 1.09896 0.25895
 H473 H 0.67659 1.39383 0.23813
 H474 H 0.83787 1.38691 0.24577
 H475 H 0.89373 1.32721 0.25127
 H476 H 0.89248 1.16267 0.26108
 H477 H 0.64633 1.36040 0.30110
 H478 H 0.72922 1.27109 0.40780
 H479 H 0.77207 1.22210 0.09062
 H480 H 0.85756 1.13291 0.19879
 N481 N 0.57826 1.04863 0.04955
 N482 N 0.60931 1.07943 0.06010
 N483 N 0.54586 0.95219 0.07936
 N484 N 0.55443 0.92215 0.11130
 N485 N 0.57777 0.95192 0.04881
 N486 N 0.60903 0.92146 0.05915
 N487 N 0.54598 1.04824 0.07973
 N488 N 0.55406 1.07829 0.11157
 C489 C 0.59296 1.09802 0.09847
 C490 C 0.59323 0.90276 0.09776
 N491 N 0.41756 0.95204 0.04839
 N492 N 0.38761 0.91961 0.05761
 N493 N 0.44940 1.04832 0.07942
 N494 N 0.44066 1.07794 0.11148
 N495 N 0.41761 1.04892 0.04879
 N496 N 0.38627 1.07928 0.05923
 N497 N 0.44958 0.95227 0.07878
 N498 N 0.44251 0.92048 0.10938
 Mn499 Mn 0.49768 1.00028 0.07952
 C500 C 0.40446 0.89994 0.09538
 C501 C 0.40187 1.09749 0.09803
 N502 N 0.57829 0.95241 -0.04825
 N503 N 0.60915 0.92139 -0.05841
 N504 N 0.54736 1.04932 -0.07825
 N505 N 0.55647 1.08004 -0.10951
 N506 N 0.57889 1.04917 -0.04734
 N507 N 0.61032 1.07997 -0.05669
 N508 N 0.54642 0.95304 -0.07884
 N509 N 0.55466 0.92287 -0.11055
 Mn510 Mn 0.57887 1.00051 0.00068
 C511 C 0.59319 0.90286 -0.09697
 C512 C 0.59514 1.09937 -0.09512
 N513 N 0.41830 1.04999 -0.04841
 N514 N 0.38802 1.08173 -0.05824
 N515 N 0.44931 0.95357 -0.07938
 N516 N 0.44000 0.92420 -0.11159
 N517 N 0.41743 0.95317 -0.04874
 N518 N 0.38559 0.92323 -0.05928
 N519 N 0.45052 1.04977 -0.07869
 N520 N 0.44311 1.08093 -0.10986
 Mn521 Mn 0.41710 1.00103 0.00001
 Mn522 Mn 0.49841 1.00141 -0.07907
 Cl523 Cl 0.49800 1.00080 0.00023
 C524 C 0.40474 1.10110 -0.09626
 C525 C 0.40083 0.90500 -0.09816
 N526 N 1.04425 0.54950 0.57988
 N527 N 1.07362 0.55803 0.61191
 N528 N 0.94978 0.58162 0.54889
 N529 N 0.91947 0.61310 0.55941
 N530 N 0.94967 0.54843 0.57889
 N531 N 0.91972 0.55642 0.61053
 N532 N 1.04493 0.58221 0.54941
 N533 N 1.07499 0.61397 0.55997
 C534 C 1.09297 0.59769 0.59866
 C535 C 0.90058 0.59615 0.59753
 N536 N 0.95118 0.55067 0.42100
 N537 N 0.92229 0.56010 0.38875
 N538 N 1.04596 0.58317 0.45198
 N539 N 1.07706 0.61435 0.44220
 N540 N 1.04563 0.55077 0.42146
 N541 N 1.07613 0.55874 0.39035
 N542 N 0.95085 0.58294 0.45164
 N543 N 0.92146 0.61527 0.44102
 Mn544 Mn 0.99792 0.58308 0.50050
 C545 C 0.90352 0.59980 0.40211
 C546 C 1.09590 0.59779 0.40403
 N547 N 0.95059 0.44944 0.57801
 N548 N 0.92128 0.43917 0.60974
 N549 N 1.04635 0.41885 0.54825
 N550 N 1.07744 0.38796 0.55834
 N551 N 1.04518 0.45105 0.57896
 N552 N 1.07514 0.44313 0.61058
 N553 N 0.95133 0.41725 0.54728
 N554 N 0.92236 0.38419 0.55731
 Mn555 Mn 0.99735 0.49960 0.57916
 C556 C 0.90343 0.39908 0.59593
 C557 C 1.09545 0.40438 0.59695
 N558 N 1.04613 0.45266 0.42046
 N559 N 1.07538 0.44430 0.38828
 N560 N 0.95176 0.41885 0.45028
 N561 N 0.92171 0.38709 0.43964
 N562 N 0.95168 0.45203 0.42031
 N563 N 0.92202 0.44382 0.38851
 N564 N 1.04681 0.41992 0.45086
 N565 N 1.07676 0.38825 0.44006
 Mn566 Mn 0.99858 0.50155 0.42063
 Mn567 Mn 0.99913 0.41816 0.49916
 Cl568 Cl 0.99821 0.50061 0.49990
 C569 C 1.09471 0.40472 0.40137
 C570 C 0.90308 0.40390 0.40143
 N571 N 0.94829 0.58197 0.04816
 N572 N 0.91763 0.61296 0.05892
 N573 N 1.04280 0.55088 0.08098
 N574 N 1.07267 0.55790 0.11280
 N575 N 1.04332 0.58444 0.05150
 N576 N 1.07413 0.61529 0.06229
 N577 N 0.94860 0.54863 0.07792
 N578 N 0.91847 0.55584 0.10954
 C579 C 0.89884 0.59534 0.09680
 C580 C 1.09227 0.59756 0.10027
 N581 N 1.04720 0.42110 0.04765
 N582 N 1.07856 0.39053 0.05780
 N583 N 0.95090 0.45090 0.07583
 N584 N 0.92209 0.44042 0.10780
 N585 N 0.95199 0.41883 0.04503
 N586 N 0.92357 0.38527 0.05561
 N587 N 1.04520 0.45290 0.07867
 N588 N 1.07470 0.44496 0.11070
 Mn589 Mn 0.99693 0.50084 0.07844
 C590 C 1.09571 0.40667 0.09690
 C591 C 0.90471 0.40017 0.09446
 N592 N 1.04736 0.58827 -0.04500
 N593 N 1.08218 0.61653 -0.04658
 N594 N 0.95548 0.55394 -0.08067
 N595 N 0.92661 0.56246 -0.11309
 N596 N 0.95264 0.58504 -0.04902
 N597 N 0.92158 0.61578 -0.05913
 N598 N 1.05042 0.55713 -0.07658
 N599 N 1.08754 0.56371 -0.10055
 Mn600 Mn 0.99775 0.58546 0.00138
 C601 C 1.10627 0.60186 -0.08229
 C602 C 0.90539 0.60045 -0.09883
 N603 N 0.95530 0.42231 -0.05280
 N604 N 0.92452 0.39129 -0.06360
 N605 N 1.05140 0.45758 -0.07900
 N606 N 1.08137 0.44947 -0.11055
 N607 N 1.05035 0.42389 -0.04952
 N608 N 1.08003 0.39202 -0.06027
 N609 N 0.95695 0.45512 -0.08324
 N610 N 0.92759 0.44713 -0.11556
 Mn611 Mn 1.00114 0.42092 -0.00249
 Mn612 Mn 1.00368 0.50596 -0.08026
 Cl613 Cl 0.99983 0.50323 -0.00085
 C614 C 0.90715 0.40781 -0.10250
 C615 C 1.09951 0.40921 -0.09789
 N616 N 0.57612 1.04386 0.55251
 N617 N 0.60781 1.07366 0.56387
 N618 N 0.54123 0.94600 0.57863
 N619 N 0.55042 0.91620 0.61069
 N620 N 0.57407 0.94742 0.54895
 N621 N 0.60628 0.91829 0.56003
 N622 N 0.54424 1.04222 0.58324
 N623 N 0.55353 1.07083 0.61626
 C624 C 0.59272 1.09069 0.60334
 C625 C 0.59037 0.89856 0.59804
 N626 N 0.41191 0.95191 0.54496
 N627 N 0.38248 0.91797 0.54740
 N628 N 0.44673 1.04461 0.58100
 N629 N 0.43783 1.07293 0.61416
 N630 N 0.41612 1.04804 0.54929
 N631 N 0.38541 1.07885 0.56020
 N632 N 0.44270 0.94792 0.57638
 N633 N 0.43471 0.91083 0.60108
 Mn634 Mn 0.49370 0.99500 0.58021
 C635 C 0.39616 0.89329 0.58334
 C636 C 0.40015 1.09445 0.60036
 N637 N 0.57640 0.95099 0.45205
 N638 N 0.60745 0.92039 0.44136
 N639 N 0.54726 1.04890 0.42373
 N640 N 0.55762 1.07827 0.39173
 N641 N 0.57874 1.04777 0.45466
 N642 N 0.61179 1.07658 0.44411
 N643 N 0.54503 0.95276 0.42101
 N644 N 0.55388 0.92375 0.38839
 Mn645 Mn 0.57678 0.99763 0.50211
 C646 C 0.59223 0.90324 0.40195
 C647 C 0.59722 1.09586 0.40518
 N648 N 0.41890 1.05262 0.45195
 N649 N 0.38861 1.08406 0.44133
 N650 N 0.44821 0.95590 0.41899
 N651 N 0.44012 0.92640 0.38666
 N652 N 0.41525 0.95602 0.44841
 N653 N 0.38377 0.92608 0.43700
 N654 N 0.45129 1.05189 0.42190
 N655 N 0.44413 1.08266 0.39026
 Mn656 Mn 0.41512 1.00233 0.49866
 Mn657 Mn 0.49793 1.00224 0.42131
 Cl658 Cl 0.49593 0.99931 0.50072
 C659 C 0.40565 1.10301 0.40328
 C660 C 0.40043 0.90765 0.39876
 N661 N 1.08402 1.04526 0.55025
 N662 N 1.11369 1.07711 0.56114
 N663 N 1.05661 0.94535 0.57549
 N664 N 1.06249 0.90721 0.59882
 N665 N 1.08760 0.94936 0.54426
 N666 N 1.11519 0.91402 0.54520
 N667 N 1.05322 1.04111 0.58166
 N668 N 1.06073 1.06982 0.61469
 C669 C 1.09789 1.09229 0.60105
 C670 C 1.09988 0.88884 0.58019
 N671 N 0.92662 0.94524 0.54756
 N672 N 0.89448 0.91579 0.55804
 N673 N 0.95710 1.03865 0.58353
 N674 N 0.94901 1.06716 0.61673
 N675 N 0.92527 1.04116 0.55297
 N676 N 0.89453 1.07157 0.56461
 N677 N 0.95948 0.94320 0.57705
 N678 N 0.95059 0.91259 0.60835
 Mn679 Mn 1.00662 0.99189 0.57982
 C680 C 0.91070 0.89525 0.59539
 C681 C 0.91047 1.08776 0.60407
 N682 N 1.08499 0.95546 0.44827
 N683 N 1.11590 0.92523 0.43683
 N684 N 1.04934 1.05129 0.42355
 N685 N 1.05581 1.08301 0.39283
 N686 N 1.08184 1.05151 0.45337
 N687 N 1.11184 1.08350 0.44338
 N688 N 1.05218 0.95596 0.41881
 N689 N 1.05971 0.92665 0.38632
 Mn690 Mn 1.08526 1.00060 0.49907
 C691 C 1.09895 0.90744 0.39849
 C692 C 1.09417 1.10322 0.40610
 N693 N 0.92279 1.04699 0.45553
 N694 N 0.88990 1.07569 0.44498
 N695 N 0.95620 0.95294 0.42048
 N696 N 0.94779 0.92439 0.38746
 N697 N 0.92461 0.95070 0.45125
 N698 N 0.89370 0.92017 0.44009
 N699 N 0.95447 1.04848 0.42482
 N700 N 0.94461 1.07803 0.39302
 Mn701 Mn 0.92420 0.99616 0.50192
 Mn702 Mn 1.00309 1.00202 0.42178
 Cl703 Cl 1.00475 0.99768 0.50074
 C704 C 0.90503 1.09528 0.40637
 C705 C 0.90941 0.90373 0.40062
 N706 N 0.58232 0.54648 0.04894
 N707 N 0.61351 0.57687 0.05996
 N708 N 0.54977 0.44948 0.07726
 N709 N 0.55794 0.41886 0.10873
 N710 N 0.58202 0.44987 0.04704
 N711 N 0.61320 0.41919 0.05728
 N712 N 0.55028 0.54535 0.07933
 N713 N 0.55859 0.57456 0.11181
 C714 C 0.59745 0.59439 0.09887
 C715 C 0.59688 0.39971 0.09540
 N716 N 0.42151 0.45092 0.04643
 N717 N 0.38964 0.42087 0.05643
 N718 N 0.45400 0.54589 0.07902
 N719 N 0.44577 0.57521 0.11143
 N720 N 0.42217 0.54724 0.04845
 N721 N 0.39124 0.57780 0.05931
 N722 N 0.45350 0.45007 0.07682
 N723 N 0.44447 0.41967 0.10827
 Mn724 Mn 0.50188 0.49767 0.07832
 C725 C 0.40527 0.40127 0.09460
 C726 C 0.40721 0.59530 0.09825
 N727 N 0.58223 0.45251 -0.05019
 N728 N 0.61383 0.42284 -0.06157
 N729 N 0.55003 0.54931 -0.07843
 N730 N 0.55741 0.58110 -0.10889
 N731 N 0.58212 0.54894 -0.04811
 N732 N 0.61255 0.58079 -0.05731
 N733 N 0.55031 0.45358 -0.08068
 N734 N 0.55922 0.42501 -0.11359
 Mn735 Mn 0.58284 0.49946 -0.00060
 C736 C 0.59827 0.40563 -0.10080
 C737 C 0.59579 0.60082 -0.09486
 N738 N 0.42206 0.54953 -0.04863
 N739 N 0.39037 0.57950 -0.05921
 N740 N 0.45389 0.45373 -0.08058
 N741 N 0.44590 0.42373 -0.11244
 N742 N 0.42179 0.45302 -0.05025
 N743 N 0.39090 0.42215 -0.06063
 N744 N 0.45400 0.54963 -0.07913
 N745 N 0.44508 0.57943 -0.11119
 Mn746 Mn 0.42128 0.50021 -0.00099
 Mn747 Mn 0.50209 0.50153 -0.07992
 Cl748 Cl 0.50205 0.49971 -0.00079
 C749 C 0.40601 0.59834 -0.09786
 C750 C 0.40718 0.40389 -0.09909
 N751 N 0.34249 1.14985 0.11430
 N752 N 0.37716 1.12752 0.12644
 N753 N 0.84830 0.65591 0.61453
 N754 N 0.87065 0.62069 0.62626
 N755 N 0.65324 0.85150 0.11396
 N756 N 0.61825 0.87307 0.12626
 N757 N 1.14896 0.34550 0.61357
 N758 N 1.12606 0.38024 0.62532
 N759 N 0.65595 1.15090 -0.11044
 N760 N 0.62091 1.12927 -0.12299
 N761 N 1.14964 0.65677 0.38735
 N762 N 1.12672 0.62192 0.37579
 N763 N 0.34068 0.85296 -0.11426
 N764 N 0.37546 0.87534 -0.12658
 N765 N 0.85153 0.34364 0.38472
 N766 N 0.87338 0.37917 0.37276
 N767 N 1.15047 0.34903 0.11314
 N768 N 1.12623 0.38260 0.12539
 N769 N 0.65357 0.85213 0.61573
 N770 N 0.61639 0.87026 0.62711
 N771 N 1.16563 0.64149 -0.11847
 N772 N 1.15249 0.61475 -0.08890
 N773 N 0.65901 1.14568 0.38735
 N774 N 0.62318 1.12470 0.37624
 N775 N 0.84597 0.65403 0.11406
 N776 N 0.86905 0.61941 0.12588
 N777 N 0.34082 1.14650 0.61691
 N778 N 0.37557 1.12430 0.62904
 N779 N 0.85188 0.35006 -0.11789
 N780 N 0.87652 0.38341 -0.13096
 N781 N 0.34124 0.85558 0.38188
 N782 N 0.37653 0.87722 0.37011
 N783 N 1.15376 1.15383 0.38837
 N784 N 1.11780 1.13343 0.37725
 N785 N 0.65516 0.65282 -0.11083
 N786 N 0.61988 0.63163 -0.12282
 N787 N 0.85182 1.13978 0.62029
 N788 N 0.88641 1.11773 0.63293
 N789 N 0.34766 0.64646 0.11488
 N790 N 0.38275 0.62498 0.12702
 N791 N 1.14020 0.83225 0.61793
 N792 N 1.11370 0.84279 0.58786
 N793 N 0.65637 0.34773 0.11229
 N794 N 0.62140 0.36965 0.12405
 N795 N 0.84930 0.85358 0.38376
 N796 N 0.88464 0.87474 0.37153
 N797 N 0.34752 0.35263 -0.11511
 N798 N 0.38274 0.37391 -0.12750
 N799 N 1.14934 0.34810 -0.11480
 N800 N 1.12873 0.38427 -0.12664
 N801 N 0.65215 0.85155 0.38510
 N802 N 0.61720 0.87362 0.37314
 N803 N 0.85267 0.65957 -0.11429
 N804 N 0.87524 0.62501 -0.12692
 N805 N 0.34681 1.15541 0.38586
 N806 N 0.38169 1.13324 0.37424
 N807 N 1.14670 0.65489 0.11588
 N808 N 1.12323 0.62077 0.12851
 N809 N 0.65324 1.14239 0.61972
 N810 N 0.61803 1.12055 0.63207
 N811 N 0.85431 0.33837 0.11218
 N812 N 0.87615 0.37402 0.12340
 N813 N 0.35287 0.83587 0.61942
 N814 N 0.38116 0.84710 0.59090
 N815 N 0.34737 1.15596 -0.11235
 N816 N 0.38085 1.13200 -0.12466
 N817 N 0.85374 0.66169 0.38525
 N818 N 0.87426 0.62539 0.37362
 N819 N 0.65159 1.15116 0.11507
 N820 N 0.61737 1.12799 0.12726
 N821 N 1.14474 0.65811 0.61511
 N822 N 1.12303 0.62242 0.62701
 N823 N 0.65163 0.84919 -0.11322
 N824 N 0.61769 0.87262 -0.12547
 N825 N 1.14594 0.34433 0.38443
 N826 N 1.12444 0.38007 0.37271
 N827 N 0.34786 0.84386 0.11104
 N828 N 0.38093 0.86843 0.12344
 N829 N 0.85516 0.33531 0.61264
 N830 N 0.87451 0.37247 0.62407
 N831 N 1.15520 1.14579 0.61709
 N832 N 1.12125 1.12267 0.62971
 N833 N 0.65614 0.64701 0.11546
 N834 N 0.62161 0.62441 0.12762
 N835 N 1.15728 0.85564 0.38214
 N836 N 1.12244 0.87728 0.36984
 N837 N 0.65803 0.35464 -0.11742
 N838 N 0.62293 0.37610 -0.12964
 N839 N 0.84363 1.14423 0.38850
 N840 N 0.87939 1.12360 0.37730
 N841 N 0.34561 0.64909 -0.11449
 N842 N 0.38082 0.62775 -0.12658
 N843 N 0.84639 0.85153 0.61326
 N844 N 0.88447 0.86755 0.62439
 N845 N 0.34333 0.35267 0.11118
 N846 N 0.37962 0.37221 0.12302
   
