data_POSCAR
  _audit_creation_date              2014-09-24
  _audit_creation_method            'ToBaCCo'
  _symmetry_space_group_name_H-M    'P1'
  _symmetry_Int_Tables_number       1
  _symmetry_cell_setting            triclinic
  loop_
  _symmetry_equiv_pos_as_xyz
 x,y,z
_cell_length_a 39.3264
_cell_length_b 39.4595
_cell_length_c 53.2087
_cell_angle_alpha 88.160300
_cell_angle_beta 89.986300
_cell_angle_gamma 91.668600
loop_
  _atom_site_label
  _atom_site_type_symbol
  _atom_site_fract_x
  _atom_site_fract_y
  _atom_site_fract_z
C1 C -0.00652 0.50088 0.98621
 C2 C -0.00737 0.49924 1.01184
 C3 C -0.00620 0.53038 1.02680
 C4 C -0.00886 0.46630 1.02629
 C5 C -0.00437 0.46985 0.97132
 C6 C -0.00745 0.53369 0.97171
 C7 C 0.02092 0.55396 1.02439
 C8 C 0.02176 0.58320 1.03854
 C9 C -0.00464 0.58993 1.05579
 C10 C -0.03168 0.56530 1.05799
 C11 C -0.03221 0.53607 1.04388
 C12 C 0.01459 0.46030 1.04567
 C13 C 0.01403 0.42933 1.05913
 C14 C -0.00994 0.40354 1.05345
 C15 C -0.03390 0.40991 1.03435
 C16 C -0.03361 0.44110 1.02113
 C17 C -0.03003 0.46213 0.95396
 C18 C -0.02901 0.43241 0.94046
 C19 C -0.00200 0.41016 0.94380
 C20 C 0.02418 0.41841 0.96071
 C21 C 0.02298 0.44802 0.97439
 C22 C -0.03317 0.55688 0.97574
 C23 C -0.03329 0.58787 0.96225
 C24 C -0.00800 0.59605 0.94417
 C25 C 0.01719 0.57236 0.93976
 C26 C 0.01743 0.54152 0.95338
 H27 H 0.04176 0.54950 1.01171
 H28 H 0.04432 0.59927 1.03646
 H29 H -0.05379 0.56872 1.06955
 H30 H -0.05351 0.51814 1.04587
 H31 H 0.03362 0.47953 1.05022
 H32 H 0.03230 0.42570 1.07412
 H33 H -0.05254 0.44546 1.00671
 H34 H -0.05118 0.47883 0.95123
 H35 H -0.04925 0.42688 0.92728
 H36 H 0.04521 0.40164 0.96369
 H37 H 0.04322 0.45382 0.98752
 H38 H -0.05307 0.55105 0.98940
 H39 H -0.05293 0.60560 0.96624
 H40 H 0.03660 0.57750 0.92561
 H41 H 0.03728 0.52384 0.94977
 H42 H -0.05259 0.39062 1.02932
 C43 C 0.50208 -0.00167 0.48576
 C44 C 0.50234 0.00161 0.51120
 C45 C 0.47021 0.00157 0.52595
 C46 C 0.53467 0.00507 0.52559
 C47 C 0.53387 -0.00568 0.47123
 C48 C 0.46999 -0.00087 0.47107
 C49 C 0.46426 0.02800 0.54224
 C50 C 0.43421 0.02822 0.55624
 C51 C 0.40959 0.00185 0.55433
 C52 C 0.41585 -0.02486 0.53823
 C53 C 0.44595 -0.02509 0.52428
 C54 C 0.56002 0.02922 0.51829
 C55 C 0.59061 0.03152 0.53157
 C56 C 0.59617 0.01033 0.55286
 C57 C 0.57019 -0.01298 0.56062
 C58 C 0.53985 -0.01561 0.54709
 C59 C 0.55603 -0.03204 0.47715
 C60 C 0.58631 -0.03491 0.46369
 C61 C 0.59487 -0.01148 0.44407
 C62 C 0.57225 0.01442 0.43788
 C63 C 0.54196 0.01716 0.45124
 C64 C 0.46142 -0.02762 0.45533
 C65 C 0.43142 -0.02711 0.44130
 C66 C 0.40956 0.00038 0.44251
 C67 C 0.41843 0.02734 0.45814
 C68 C 0.44841 0.02675 0.47223
 H69 H 0.48282 0.04861 0.54398
 H70 H 0.43044 0.04883 0.56880
 H71 H 0.39731 -0.04540 0.53620
 H72 H 0.45034 -0.04607 0.51217
 H73 H 0.55626 0.04613 0.50216
 H74 H 0.61006 0.04958 0.52489
 H75 H 0.52046 -0.03408 0.55330
 H76 H 0.54997 -0.05020 0.49230
 H77 H 0.60332 -0.05504 0.46890
 H78 H 0.57792 0.03247 0.42259
 H79 H 0.52505 0.03749 0.44627
 H80 H 0.47780 -0.04911 0.45416
 H81 H 0.42514 -0.04848 0.42974
 H82 H 0.40248 0.04916 0.45916
 H83 H 0.45495 0.04796 0.48390
 H84 H 0.57315 -0.02911 0.57727
 C85 C 0.07103 -0.00201 0.25659
 H86 H 0.07158 0.00137 0.23633
 C87 C 0.10121 0.00033 0.27031
 H88 H 0.12490 0.00581 0.26043
 C89 C 0.03917 -0.01221 0.29400
 H90 H 0.01494 -0.01681 0.30321
 C91 C 0.06875 -0.01022 0.30845
 H92 H 0.06691 -0.01402 0.32865
 N93 N 0.04086 -0.00864 0.26851
 C94 C -0.02743 -0.06000 0.21660
 H95 H -0.04954 -0.04444 0.21777
 C96 C -0.02875 -0.08917 0.20240
 H97 H -0.05215 -0.09601 0.19286
 C98 C 0.02944 -0.07050 0.22848
 H99 H 0.05199 -0.06339 0.23883
 C100 C 0.02930 -0.09975 0.21440
 H101 H 0.05213 -0.11438 0.21374
 Zn102 Zn 0.00119 -0.01156 0.24838
 N103 N 0.00145 -0.05109 0.22910
 C104 C -0.00617 0.02600 0.20214
 N105 N 0.00061 0.02782 0.22713
 C106 C 0.00719 0.05810 0.23787
 C107 C 0.00664 0.08823 0.22344
 C108 C -0.00740 0.05556 0.18704
 C109 C -0.04447 -0.04169 0.28395
 C110 C -0.07398 -0.04446 0.29861
 C111 C -0.09106 0.00958 0.28094
 C112 C -0.06117 0.01143 0.26679
 N113 N -0.03848 -0.01389 0.26863
 H114 H -0.01110 0.00170 0.19389
 H115 H 0.01282 0.05878 0.25775
 H116 H 0.01245 0.11195 0.23238
 H117 H -0.01386 0.05355 0.16737
 H118 H -0.02631 -0.06178 0.28470
 H119 H -0.07846 -0.06682 0.31062
 H120 H -0.10862 0.03017 0.27941
 H121 H -0.05629 0.03305 0.25422
 C122 C -0.00006 -0.10947 0.20109
 C123 C 0.10038 -0.00406 0.29661
 C124 C -0.09777 -0.01862 0.29712
 C125 C -0.00106 0.08731 0.19766
 C126 C 0.00409 0.08075 0.75870
 H127 H 0.00656 0.08292 0.73845
 C128 C 0.00368 0.10994 0.77280
 H129 H 0.00646 0.13448 0.76322
 C130 C -0.00201 0.04591 0.79559
 H131 H -0.00494 0.02094 0.80437
 C132 C -0.00284 0.07445 0.81043
 H133 H -0.00640 0.07099 0.83053
 N134 N 0.00190 0.04953 0.77024
 C135 C 0.04730 -0.01432 0.71458
 H136 H 0.02729 -0.03353 0.71300
 C137 C 0.07680 -0.01603 0.70012
 H138 H 0.07914 -0.03647 0.68719
 C139 C 0.06828 0.03580 0.73327
 H140 H 0.06524 0.05556 0.74660
 C141 C 0.09816 0.03512 0.71913
 H142 H 0.11778 0.05453 0.72169
 Zn143 Zn 0.00259 0.01151 0.74942
 N144 N 0.04338 0.01155 0.73050
 C145 C -0.03174 0.01909 0.70253
 N146 N -0.03552 0.01448 0.72783
 C147 C -0.06684 0.01302 0.73867
 C148 C -0.09605 0.01477 0.72386
 C149 C -0.06028 0.02146 0.68702
 C150 C 0.02506 -0.03487 0.78636
 C151 C 0.02477 -0.06476 0.80116
 C152 C -0.02543 -0.08393 0.77897
 C153 C -0.02436 -0.05356 0.76476
 N154 N 0.00037 -0.02956 0.76890
 H155 H -0.00661 0.02130 0.69434
 H156 H -0.06909 0.00990 0.75888
 H157 H -0.12067 0.01227 0.73292
 H158 H -0.05664 0.02558 0.66698
 H159 H 0.04492 -0.01572 0.78886
 H160 H 0.04459 -0.06854 0.81501
 H161 H -0.04555 -0.10256 0.77563
 H162 H -0.04313 -0.04944 0.75026
 C163 C 0.10265 0.00903 0.70221
 C164 C 0.00025 0.10706 0.79908
 C165 C -0.00078 -0.08972 0.79757
 C166 C -0.09308 0.01897 0.69760
 C167 C -0.00309 -0.32123 0.09850
 C168 C -0.02408 -0.34925 0.10548
 C169 C -0.02455 -0.37861 0.09150
 C170 C -0.00407 -0.38121 0.06969
 C171 C 0.01696 -0.35247 0.06295
 C172 C 0.01743 -0.32323 0.07710
 C173 C -0.00261 -0.29008 0.11354
 C174 C -0.00018 -0.25775 0.10166
 C175 C 0.00021 -0.22851 0.11582
 C176 C -0.00199 -0.23086 0.14220
 C177 C -0.00450 -0.26319 0.15406
 C178 C -0.00469 -0.29242 0.13992
 C179 C -0.00160 -0.19976 0.15729
 C180 C 0.01565 -0.19894 0.18041
 C181 C 0.01598 -0.16978 0.19464
 C182 C -0.00075 -0.14061 0.18604
 C183 C -0.01799 -0.14142 0.16291
 C184 C -0.01848 -0.17066 0.14874
 H185 H -0.04040 -0.34853 0.12183
 H186 H -0.04013 -0.39952 0.09899
 H187 H 0.03227 -0.35118 0.04609
 H188 H 0.03409 -0.30211 0.07124
 H189 H 0.00106 -0.25500 0.08137
 H190 H 0.00259 -0.20404 0.10609
 H191 H -0.00667 -0.26595 0.17431
 H192 H -0.00615 -0.31690 0.14971
 H193 H 0.02927 -0.22073 0.18743
 H194 H 0.02913 -0.17023 0.21252
 H195 H -0.03080 -0.11930 0.15558
 H196 H -0.03237 -0.17055 0.13118
 C197 C -0.00921 0.30700 0.09416
 C198 C 0.02136 0.32489 0.08829
 C199 C 0.02109 0.35592 0.07492
 C200 C -0.00978 0.37017 0.06733
 C201 C -0.04036 0.35230 0.07318
 C202 C -0.04008 0.32104 0.08631
 C203 C -0.00885 0.27408 0.10864
 C204 C -0.03439 0.26548 0.12641
 C205 C -0.03368 0.23489 0.14035
 C206 C -0.00719 0.21223 0.13712
 C207 C 0.01827 0.22075 0.11926
 C208 C 0.01734 0.25116 0.10511
 C209 C -0.00587 0.18010 0.15251
 C210 C 0.00625 0.15037 0.14220
 C211 C 0.00797 0.12039 0.15681
 C212 C -0.00272 0.11924 0.18206
 C213 C -0.01512 0.14890 0.19230
 C214 C -0.01647 0.17896 0.17778
 H215 H 0.04559 0.31516 0.09431
 H216 H 0.04518 0.36864 0.07040
 H217 H -0.06464 0.36263 0.06791
 H218 H -0.06409 0.30780 0.09017
 H219 H -0.05473 0.28264 0.12989
 H220 H -0.05402 0.22897 0.15362
 H221 H 0.03930 0.20418 0.11645
 H222 H 0.03716 0.25664 0.09133
 H223 H 0.01420 0.15013 0.12273
 H224 H 0.01806 0.09821 0.14835
 H225 H -0.02409 0.14890 0.21153
 H226 H -0.02548 0.20143 0.18650
 C227 C 0.31700 0.00299 0.59775
 C228 C 0.33393 -0.02748 0.59458
 C229 C 0.36388 -0.02788 0.58046
 C230 C 0.37760 0.00218 0.56917
 C231 C 0.36061 0.03262 0.57226
 C232 C 0.33068 0.03303 0.58639
 C233 C 0.28532 0.00350 0.61294
 C234 C 0.25819 0.02377 0.60520
 C235 C 0.22853 0.02454 0.61963
 C236 C 0.22529 0.00499 0.64209
 C237 C 0.25233 -0.01541 0.64977
 C238 C 0.28202 -0.01612 0.63538
 C239 C 0.19387 0.00599 0.65749
 C240 C 0.17950 -0.02392 0.66856
 C241 C 0.14990 -0.02296 0.68303
 C242 C 0.13410 0.00796 0.68685
 C243 C 0.14853 0.03787 0.67583
 C244 C 0.17804 0.03689 0.66128
 H245 H 0.32385 -0.05111 0.60285
 H246 H 0.37654 -0.05168 0.57865
 H247 H 0.37031 0.05614 0.56357
 H248 H 0.31848 0.05697 0.58869
 H249 H 0.25969 0.03874 0.58780
 H250 H 0.20792 0.04009 0.61302
 H251 H 0.25077 -0.03037 0.66718
 H252 H 0.30265 -0.03158 0.64207
 H253 H 0.19095 -0.04815 0.66579
 H254 H 0.13957 -0.04638 0.69148
 H255 H 0.13675 0.06203 0.67823
 H256 H 0.18871 0.06040 0.65321
 C257 C -0.30878 0.01587 0.59355
 C258 C -0.32270 0.04529 0.58262
 C259 C -0.35352 0.04356 0.56957
 C260 C -0.37106 0.01232 0.56685
 C261 C -0.35698 -0.01711 0.57760
 C262 C -0.32642 -0.01533 0.59092
 C263 C -0.27621 0.01767 0.60781
 C264 C -0.25316 -0.00887 0.60706
 C265 C -0.22314 -0.00774 0.62107
 C266 C -0.21506 0.02019 0.63595
 C267 C -0.23780 0.04703 0.63634
 C268 C -0.26807 0.04570 0.62258
 C269 C -0.18343 0.02095 0.65135
 C270 C -0.18310 0.03537 0.67518
 C271 C -0.15371 0.03529 0.68993
 C272 C -0.12396 0.02036 0.68142
 C273 C -0.12419 0.00618 0.65750
 C274 C -0.15345 0.00667 0.64261
 H275 H -0.30965 0.06970 0.58394
 H276 H -0.36375 0.06684 0.56185
 H277 H -0.36942 -0.04171 0.57558
 H278 H -0.31684 -0.03845 0.59939
 H279 H -0.25823 -0.03060 0.59558
 H280 H -0.20655 -0.02911 0.62054
 H281 H -0.23224 0.06920 0.64724
 H282 H -0.28533 0.06643 0.62390
 H283 H -0.20576 0.04621 0.68273
 H284 H -0.15438 0.04699 0.70804
 H285 H -0.10195 -0.00591 0.65040
 H286 H -0.15252 -0.00417 0.62420
 C287 C -0.00720 -0.30848 0.90216
 C288 C -0.03810 -0.32569 0.90816
 C289 C -0.03841 -0.35655 0.92182
 C290 C -0.00782 -0.37090 0.92991
 C291 C 0.02305 -0.35352 0.92412
 C292 C 0.02336 -0.32276 0.91035
 C293 C -0.00676 -0.27597 0.88719
 C294 C 0.01680 -0.24971 0.89258
 C295 C 0.01769 -0.21946 0.87817
 C296 C -0.00507 -0.21462 0.85808
 C297 C -0.02884 -0.24075 0.85285
 C298 C -0.02961 -0.27108 0.86717
 C299 C -0.00389 -0.18256 0.84257
 C300 C -0.00931 -0.18305 0.81646
 C301 C -0.00832 -0.15295 0.80188
 C302 C -0.00166 -0.12167 0.81304
 C303 C 0.00397 -0.12111 0.83909
 C304 C 0.00274 -0.15120 0.85371
 H305 H -0.06213 -0.31520 0.90243
 H306 H -0.06261 -0.36942 0.92573
 H307 H 0.04705 -0.36358 0.93036
 H308 H 0.04764 -0.31043 0.90581
 H309 H 0.03447 -0.25243 0.90806
 H310 H 0.03658 -0.20003 0.88255
 H311 H -0.04705 -0.23771 0.83775
 H312 H -0.04782 -0.29090 0.86230
 H313 H -0.01382 -0.20679 0.80719
 H314 H -0.01226 -0.15418 0.78178
 H315 H 0.00871 -0.09731 0.84823
 H316 H 0.00646 -0.14981 0.87381
 C317 C -0.00078 0.31824 0.90229
 C318 C 0.02886 0.33881 0.90437
 C319 C 0.02859 0.36846 0.91806
 C320 C -0.00138 0.37836 0.92976
 C321 C -0.03095 0.35779 0.92781
 C322 C -0.03062 0.32800 0.91434
 C323 C -0.00072 0.28694 0.88741
 C324 C -0.02918 0.27760 0.87293
 C325 C -0.02920 0.24827 0.85890
 C326 C -0.00064 0.22765 0.85882
 C327 C 0.02785 0.23701 0.87327
 C328 C 0.02777 0.26623 0.88745
 C329 C -0.00053 0.19667 0.84360
 C330 C 0.01512 0.16713 0.85268
 C331 C 0.01538 0.13812 0.83828
 C332 C -0.00020 0.13785 0.81450
 C333 C -0.01604 0.16733 0.80550
 C334 C -0.01608 0.19639 0.81981
 H335 H 0.05213 0.33237 0.89501
 H336 H 0.05164 0.38406 0.91906
 H337 H -0.05426 0.36458 0.93699
 H338 H -0.05370 0.31244 0.91358
 H339 H -0.05139 0.29317 0.87216
 H340 H -0.05175 0.24162 0.84827
 H341 H 0.05045 0.22197 0.87341
 H342 H 0.04997 0.27241 0.89862
 H343 H 0.02696 0.16628 0.87105
 H344 H 0.02817 0.11603 0.84568
 H345 H -0.02870 0.16791 0.78743
 H346 H -0.02799 0.21880 0.81207
 C347 C -0.31185 -0.01738 0.40214
 C348 C -0.32292 0.01392 0.41046
 C349 C -0.35300 0.01571 0.42423
 C350 C -0.37266 -0.01376 0.43012
 C351 C -0.36133 -0.04516 0.42229
 C352 C -0.33127 -0.04695 0.40838
 C353 C -0.28054 -0.01893 0.38661
 C354 C -0.25791 -0.04562 0.39005
 C355 C -0.22846 -0.04682 0.37539
 C356 C -0.22099 -0.02137 0.35695
 C357 C -0.24366 0.00528 0.35353
 C358 C -0.27309 0.00643 0.36811
 C359 C -0.18963 -0.02227 0.34141
 C360 C -0.19027 -0.01222 0.31583
 C361 C -0.16055 -0.01145 0.30143
 C362 C -0.12951 -0.02091 0.31223
 C363 C -0.12893 -0.03176 0.33763
 C364 C -0.15866 -0.03236 0.35209
 H365 H -0.30820 0.03707 0.40646
 H366 H -0.36079 0.04018 0.43043
 H367 H -0.37616 -0.06824 0.42637
 H368 H -0.32368 -0.07139 0.40200
 H369 H -0.26276 -0.06538 0.40430
 H370 H -0.21169 -0.06786 0.37834
 H371 H -0.23847 0.02555 0.33974
 H372 H -0.29019 0.02709 0.36472
 H373 H -0.21382 -0.00501 0.30687
 H374 H -0.16188 -0.00359 0.28178
 H375 H -0.10528 -0.03887 0.34649
 H376 H -0.15721 -0.03983 0.37181
 C377 C 0.31705 0.00101 0.39898
 C378 C 0.34712 -0.01129 0.38886
 C379 C 0.37713 -0.01125 0.40291
 C380 C 0.37773 0.00092 0.42746
 C381 C 0.34766 0.01338 0.43752
 C382 C 0.31767 0.01350 0.42341
 C383 C 0.28514 0.00056 0.38411
 C384 C 0.26375 0.02847 0.38374
 C385 C 0.23385 0.02808 0.36952
 C386 C 0.22460 -0.00032 0.35546
 C387 C 0.24593 -0.02832 0.35600
 C388 C 0.27589 -0.02784 0.37011
 C389 C 0.19286 -0.00081 0.34027
 C390 C 0.19212 -0.01559 0.31658
 C391 C 0.16220 -0.01653 0.30243
 C392 C 0.13230 -0.00258 0.31156
 C393 C 0.13310 0.01244 0.33517
 C394 C 0.16301 0.01327 0.34937
 H395 H 0.34754 -0.02056 0.36993
 H396 H 0.39998 -0.02041 0.39441
 H397 H 0.34712 0.02246 0.45650
 H398 H 0.29477 0.02274 0.43180
 H399 H 0.27047 0.05087 0.39410
 H400 H 0.21827 0.05026 0.36921
 H401 H 0.23925 -0.05085 0.34580
 H402 H 0.29160 -0.04994 0.37036
 H403 H 0.21476 -0.02627 0.30885
 H404 H 0.16239 -0.02866 0.28447
 H405 H 0.11065 0.02378 0.34264
 H406 H 0.16260 0.02454 0.36765
   
