data_POSCAR
  _audit_creation_date              2014-09-24
  _audit_creation_method            'ToBaCCo'
  _symmetry_space_group_name_H-M    'P1'
  _symmetry_Int_Tables_number       1
  _symmetry_cell_setting            triclinic
  loop_
  _symmetry_equiv_pos_as_xyz
 x,y,z
_cell_length_a 22.7547
_cell_length_b 20.5045
_cell_length_c 24.6112
_cell_angle_alpha 86.461500
_cell_angle_beta 90.544200
_cell_angle_gamma 88.837200
loop_
  _atom_site_label
  _atom_site_type_symbol
  _atom_site_fract_x
  _atom_site_fract_y
  _atom_site_fract_z
C1 C 0.40707 0.39441 0.19460
 N2 N 0.36078 0.43721 0.19028
 C3 C 0.31461 0.43013 0.22462
 N4 N 0.31532 0.38044 0.26379
 C5 C 0.36200 0.33802 0.26861
 N6 N 0.40725 0.34454 0.23339
 C7 C 0.58254 -0.40375 0.24153
 N8 N 0.63356 -0.42648 0.22095
 C9 C 0.68522 -0.42019 0.24809
 N10 N 0.68626 -0.38679 0.29414
 C11 C 0.63547 -0.36197 0.31387
 N12 N 0.58370 -0.37210 0.28824
 C13 C 0.79732 0.14760 0.77819
 N14 N 0.84087 0.19185 0.77926
 C15 C 0.88756 0.18771 0.74554
 N16 N 0.89074 0.13852 0.71106
 C17 C 0.84709 0.09451 0.70937
 N18 N 0.80021 0.09940 0.74274
 C19 C 0.21188 -0.14066 0.80407
 N20 N 0.16405 -0.17840 0.81298
 C21 C 0.11426 -0.16675 0.78295
 N22 N 0.11249 -0.11765 0.74353
 C23 C 0.16039 -0.08094 0.73318
 N24 N 0.21030 -0.09249 0.76339
 C25 C 0.58665 -0.39084 0.80775
 N26 N 0.63931 -0.41442 0.82821
 C27 C 0.68867 -0.40732 0.79775
 N28 N 0.68569 -0.37275 0.74892
 C29 C 0.63397 -0.34681 0.72950
 N30 N 0.58426 -0.35749 0.75829
 C31 C 0.39231 0.38881 0.77393
 N32 N 0.34575 0.43164 0.76891
 C33 C 0.30548 0.42611 0.72835
 N34 N 0.31199 0.37831 0.69318
 C35 C 0.35781 0.33516 0.69841
 N36 N 0.39776 0.34022 0.73905
 C37 C 0.20632 -0.14301 0.21113
 N38 N 0.15847 -0.18002 0.20340
 C39 C 0.10846 -0.17022 0.23161
 N40 N 0.10645 -0.12301 0.26790
 C41 C 0.15442 -0.08674 0.27689
 N42 N 0.20446 -0.09687 0.24854
 C43 C 0.80582 0.14414 0.20706
 N44 N 0.85005 0.18770 0.20309
 C45 C 0.89731 0.18068 0.23739
 N46 N 0.90004 0.12973 0.27552
 C47 C 0.85532 0.08704 0.28050
 N48 N 0.80821 0.09457 0.24635
 O49 O 0.26039 0.20064 0.43511
 O50 O 0.18404 0.11168 0.54657
 O51 O 0.26303 0.20081 0.54060
 O52 O 0.18280 0.10909 0.44096
 O53 O 0.25450 0.03469 0.44402
 O54 O 0.33430 0.12580 0.54514
 O55 O 0.25552 0.03697 0.55195
 O56 O 0.33207 0.12614 0.43995
 Cu57 Cu 0.21540 0.16301 0.49028
 Cu58 Cu 0.30093 0.07280 0.49552
 C59 C 0.30929 0.17884 0.41871
 C60 C 0.20732 0.06002 0.56906
 C61 C 0.31197 0.17891 0.56012
 C62 C 0.20546 0.05672 0.42484
 O63 O 0.82330 -0.11929 0.56005
 O64 O 0.74882 -0.21788 0.46073
 O65 O 0.82444 -0.12241 0.45467
 O66 O 0.74563 -0.21244 0.56528
 O67 O 0.67266 -0.13959 0.55736
 O68 O 0.75095 -0.05039 0.44658
 O69 O 0.67535 -0.14558 0.45507
 O70 O 0.74966 -0.04731 0.55412
 Cu71 Cu 0.79303 -0.17505 0.51086
 Cu72 Cu 0.70542 -0.08756 0.50222
 C73 C 0.79907 -0.06677 0.57421
 C74 C 0.69833 -0.19949 0.44258
 C75 C 0.80098 -0.07098 0.43176
 C76 C 0.69500 -0.19223 0.57904
 O77 O 0.53205 0.28072 0.04251
 O78 O 0.61036 0.19238 -0.06135
 O79 O 0.61381 0.19133 0.04458
 O80 O 0.52572 0.27895 -0.06288
 O81 O 0.58976 0.35859 -0.06805
 O82 O 0.67957 0.26916 0.03985
 O83 O 0.67591 0.27033 -0.06755
 O84 O 0.59676 0.35966 0.03584
 Cu85 Cu 0.56411 0.22798 -0.00874
 Cu86 Cu 0.64270 0.32186 -0.01583
 C87 C 0.55051 0.33546 0.05635
 C88 C 0.65641 0.21650 -0.08239
 C89 C 0.66115 0.21533 0.06115
 C90 C 0.54186 0.33404 -0.08308
 O91 O 0.47094 0.68800 0.07438
 O92 O 0.40049 0.78797 -0.03827
 O93 O 0.39908 0.78812 0.06788
 O94 O 0.47463 0.68975 -0.03127
 O95 O 0.39934 0.62345 -0.03192
 O96 O 0.32418 0.72123 0.06842
 O97 O 0.32561 0.72099 -0.03646
 O98 O 0.39575 0.62143 0.07674
 Cu99 Cu 0.44390 0.74492 0.01812
 Cu100 Cu 0.35413 0.66422 0.01940
 C101 C 0.44452 0.63907 0.09577
 C102 C 0.35094 0.77140 -0.05661
 C103 C 0.34882 0.77144 0.08515
 C104 C 0.44901 0.64137 -0.04988
 O105 O 0.07738 0.50604 0.16802
 O106 O -0.08266 0.51939 0.16958
 O107 O 0.00331 0.60233 0.17196
 O108 O -0.00891 0.42154 0.17711
 O109 O -0.00398 0.42008 0.26686
 O110 O 0.00362 0.59772 0.26194
 O111 O -0.08162 0.51704 0.25945
 O112 O 0.08130 0.50283 0.25788
 Cu113 Cu -0.00287 0.51240 0.16272
 Cu114 Cu 0.00006 0.50873 0.27044
 C115 C 0.10682 0.50333 0.21204
 C116 C -0.10959 0.52103 0.21424
 C117 C 0.00547 0.63036 0.21667
 C118 C -0.00867 0.39037 0.22352
 O119 O 0.02192 0.58806 0.82444
 O120 O -0.00273 0.41252 0.80701
 O121 O 0.08811 0.49027 0.79740
 O122 O -0.06689 0.50962 0.83906
 O123 O -0.09218 0.52941 0.75265
 O124 O 0.06223 0.51969 0.71257
 O125 O -0.02274 0.43643 0.71996
 O126 O -0.00946 0.61068 0.73996
 Cu127 Cu 0.01281 0.49747 0.82570
 Cu128 Cu -0.01814 0.52573 0.72267
 C129 C 0.00937 0.62916 0.78498
 C130 C -0.01632 0.39491 0.75997
 C131 C 0.10160 0.50328 0.74797
 C132 C -0.10583 0.52335 0.80260
 N133 N 0.51320 0.43541 0.09351
 N134 N 0.47405 0.45340 0.12957
 C135 C 0.45390 0.39793 0.15434
 C136 C 0.48121 0.34547 0.13222
 N137 N 0.51781 0.37087 0.09450
 H138 H 0.47344 0.29398 0.14101
 N139 N 0.43935 0.61115 0.19172
 N140 N 0.47656 0.60307 0.23340
 C141 C 0.53029 0.59405 0.21221
 C142 C 0.52487 0.59667 0.15628
 N143 N 0.46747 0.60795 0.14508
 H144 H 0.55990 0.59947 0.12678
 N145 N 0.66720 0.12817 -0.14350
 N146 N 0.70357 0.10835 -0.18116
 C147 C 0.74720 0.15186 -0.18496
 C148 C 0.73652 0.19909 -0.14847
 N149 N 0.68622 0.18246 -0.12346
 H150 H 0.76262 0.24121 -0.14084
 N151 N 0.34770 0.85931 -0.12843
 N152 N 0.31113 0.88404 -0.16705
 C153 C 0.26194 0.84841 -0.16342
 C154 C 0.26947 0.80109 -0.12150
 N155 N 0.32337 0.80960 -0.10074
 H156 H 0.23876 0.76430 -0.10727
 N157 N 0.19873 0.53246 0.16922
 N158 N 0.25498 0.51471 0.17166
 C159 C 0.26144 0.47090 0.21454
 C160 C 0.20725 0.46271 0.23877
 N161 N 0.16948 0.50193 0.20908
 H162 H 0.19553 0.42765 0.27138
 N163 N -0.01389 0.74315 0.76275
 N164 N 0.01339 0.79959 0.76119
 C165 C 0.06493 0.78866 0.78796
 C166 C 0.06813 0.72382 0.80664
 N167 N 0.01817 0.69717 0.78986
 H168 H 0.10612 0.69695 0.82374
 N169 N -0.20486 0.51068 0.17130
 N170 N -0.26076 0.52611 0.17908
 C171 C -0.26333 0.55432 0.22708
 C172 C -0.20719 0.55499 0.24904
 N173 N -0.17220 0.52730 0.21282
 H174 H -0.19294 0.57532 0.28642
 N175 N -0.00076 0.29623 0.71213
 N176 N -0.02650 0.23957 0.70677
 C177 C -0.07010 0.23585 0.74353
 C178 C -0.06955 0.29154 0.77241
 N179 N -0.02560 0.32768 0.75158
 H180 H -0.10094 0.30686 0.80214
 N181 N 0.39077 0.19633 0.35646
 N182 N 0.40641 0.23806 0.31620
 C183 C 0.36277 0.28350 0.30993
 C184 C 0.31989 0.26855 0.34748
 N185 N 0.33905 0.21389 0.37563
 H186 H 0.27869 0.29437 0.35342
 N187 N 0.88635 -0.02809 0.61906
 N188 N 0.90101 0.01518 0.65441
 C189 C 0.85043 0.04268 0.67092
 C190 C 0.80422 0.01539 0.64430
 N191 N 0.82857 -0.02842 0.61231
 H192 H 0.75777 0.02709 0.64705
 N193 N 0.12223 0.03564 0.62505
 N194 N 0.10820 -0.00081 0.66912
 C195 C 0.15808 -0.03166 0.68750
 C196 C 0.20312 -0.01388 0.65290
 N197 N 0.17876 0.02796 0.61443
 H198 H 0.24854 -0.03071 0.65473
 N199 N 0.60776 -0.23506 0.40240
 N200 N 0.58903 -0.27960 0.37001
 C201 C 0.63658 -0.31521 0.35655
 C202 C 0.68539 -0.29094 0.38163
 N203 N 0.66537 -0.24080 0.40954
 H204 H 0.73097 -0.30607 0.37796
 N205 N 0.44427 0.61416 -0.14300
 N206 N 0.48108 0.60939 -0.18394
 C207 C 0.53556 0.60360 -0.16201
 C208 C 0.53101 0.60478 -0.10619
 N209 N 0.47323 0.61210 -0.09601
 H210 H 0.56633 0.60945 -0.07697
 N211 N 0.49649 0.43321 -0.12638
 N212 N 0.45487 0.44979 -0.16312
 C213 C 0.43650 0.39369 -0.18290
 C214 C 0.46788 0.34238 -0.15735
 N215 N 0.50479 0.36898 -0.12252
 H216 H 0.46378 0.29069 -0.16296
 N217 N 0.34374 0.85796 0.14898
 N218 N 0.30626 0.88204 0.18395
 C219 C 0.25689 0.84698 0.18110
 C220 C 0.26523 0.80068 0.14340
 N221 N 0.31983 0.80919 0.12435
 H222 H 0.23478 0.76429 0.13111
 N223 N 0.67464 0.12645 0.13006
 N224 N 0.71178 0.10622 0.16955
 C225 C 0.75535 0.14977 0.16936
 C226 C 0.74388 0.19757 0.12830
 N227 N 0.69307 0.18103 0.10483
 H228 H 0.76958 0.24000 0.11682
 N229 N -0.18982 0.51566 0.86450
 N230 N -0.24626 0.53380 0.86444
 C231 C -0.25753 0.56530 0.81551
 C232 C -0.20675 0.56547 0.78564
 N233 N -0.16573 0.53408 0.81735
 H234 H -0.20010 0.58650 0.74474
 N235 N 0.01204 0.28301 0.26618
 N236 N -0.01347 0.22559 0.27195
 C237 C -0.05939 0.22780 0.23682
 C238 C -0.06038 0.28815 0.20826
 N239 N -0.01516 0.32111 0.22806
 H240 H -0.09435 0.30869 0.18081
 N241 N 0.17852 0.51407 0.68075
 N242 N 0.23399 0.49578 0.67438
 C243 C 0.25320 0.46874 0.72278
 C244 C 0.20726 0.47004 0.75904
 N245 N 0.16149 0.49862 0.73108
 H246 H 0.20548 0.44647 0.79957
 N247 N -0.01584 0.73599 0.25087
 N248 N 0.01247 0.79082 0.25734
 C249 C 0.06156 0.78788 0.22729
 C250 C 0.06162 0.73027 0.20100
 N251 N 0.01269 0.69922 0.21698
 H252 H 0.09735 0.70906 0.17874
 N253 N 0.60504 -0.22015 0.62698
 N254 N 0.58647 -0.26227 0.66575
 C255 C 0.63326 -0.30036 0.68174
 C256 C 0.68124 -0.28011 0.65173
 N257 N 0.66178 -0.22988 0.61828
 H258 H 0.72622 -0.29828 0.65536
 N259 N 0.11789 0.02766 0.37503
 N260 N 0.10259 -0.00993 0.33556
 C261 C 0.15238 -0.03903 0.31891
 C262 C 0.19871 -0.01882 0.34983
 N263 N 0.17522 0.02256 0.38442
 H264 H 0.24465 -0.03318 0.34782
 N265 N 0.89001 -0.03658 0.38485
 N266 N 0.90642 0.00573 0.34522
 C267 C 0.85687 0.03471 0.32409
 C268 C 0.80952 0.00927 0.35225
 N269 N 0.83211 -0.03495 0.38982
 H270 H 0.76349 0.02286 0.34700
 N271 N 0.39170 0.19513 0.62476
 N272 N 0.40554 0.23597 0.66243
 C273 C 0.36233 0.28207 0.66140
 C274 C 0.32176 0.26848 0.62212
 N275 N 0.34157 0.21398 0.60027
 H276 H 0.28095 0.29452 0.61154
   
