data_POSCAR
  _audit_creation_date              2014-09-24
  _audit_creation_method            'ToBaCCo'
  _symmetry_space_group_name_H-M    'P1'
  _symmetry_Int_Tables_number       1
  _symmetry_cell_setting            triclinic
  loop_
  _symmetry_equiv_pos_as_xyz
 x,y,z
_cell_length_a 48.0905
_cell_length_b 48.6839
_cell_length_c 48.4421
_cell_angle_alpha 89.647200
_cell_angle_beta 89.936700
_cell_angle_gamma 89.917000
loop_
  _atom_site_label
  _atom_site_type_symbol
  _atom_site_fract_x
  _atom_site_fract_y
  _atom_site_fract_z
C1 C 0.16177 0.18468 0.20435
 C2 C 0.16455 0.20625 0.18525
 C3 C 0.18616 0.20609 0.16643
 C4 C 0.20521 0.18425 0.16637
 C5 C 0.20241 0.16301 0.18512
 C6 C 0.18065 0.16335 0.20444
 C7 C 0.14238 0.17913 0.22446
 N8 N 0.14901 0.15489 0.23717
 C9 C 0.17259 0.14524 0.22482
 C10 C 0.22293 0.14418 0.17946
 N11 N 0.23837 0.15335 0.15758
 C12 C 0.22746 0.17809 0.14969
 C13 C 0.18317 0.22901 0.14994
 N14 N 0.16021 0.24303 0.15826
 C15 C 0.14873 0.22920 0.17990
 H16 H 0.12510 0.19239 0.22960
 H17 H 0.18289 0.12600 0.22939
 H18 H 0.22614 0.12529 0.19085
 H19 H 0.23415 0.19052 0.13237
 H20 H 0.19629 0.23458 0.13262
 H21 H 0.13017 0.23531 0.19095
 C22 C -0.15571 0.81642 0.20053
 C23 C -0.15350 0.79793 0.17857
 C24 C -0.17242 0.79902 0.15714
 C25 C -0.19372 0.81872 0.15733
 C26 C -0.19589 0.83691 0.17894
 C27 C -0.17659 0.83587 0.20064
 C28 C -0.13994 0.82038 0.22379
 N29 N -0.15048 0.84204 0.23821
 C30 C -0.17303 0.85153 0.22391
 C31 C -0.21825 0.85373 0.17347
 N32 N -0.22982 0.84641 0.14885
 C33 C -0.21464 0.82485 0.13900
 C34 C -0.16504 0.77901 0.13859
 N35 N -0.14202 0.76584 0.14819
 C36 C -0.13484 0.77734 0.17267
 H37 H -0.12148 0.80875 0.22894
 H38 H -0.18643 0.86832 0.22990
 H39 H -0.22477 0.87059 0.18639
 H40 H -0.21849 0.81376 0.12014
 H41 H -0.17537 0.77474 0.11924
 H42 H -0.11742 0.77108 0.18539
 C43 C -0.16455 0.18669 -0.20773
 C44 C -0.16579 0.20832 -0.18877
 C45 C -0.18591 0.20830 -0.16841
 C46 C -0.20495 0.18659 -0.16661
 C47 C -0.20349 0.16510 -0.18499
 C48 C -0.18310 0.16517 -0.20578
 C49 C -0.14744 0.18158 -0.22984
 N50 N -0.15495 0.15730 -0.24166
 C51 C -0.17682 0.14719 -0.22672
 C52 C -0.22436 0.14698 -0.17809
 N53 N -0.23878 0.15698 -0.15598
 C54 C -0.22671 0.18133 -0.14899
 C55 C -0.18199 0.23150 -0.15281
 N56 N -0.15984 0.24554 -0.16312
 C57 C -0.14986 0.23149 -0.18520
 H58 H -0.13040 0.19462 -0.23618
 H59 H -0.18818 0.12855 -0.23094
 H60 H -0.22890 0.12830 -0.18913
 H61 H -0.23258 0.19431 -0.13192
 H62 H -0.19391 0.23728 -0.13478
 H63 H -0.13227 0.23760 -0.19775
 C64 C 0.16292 0.82485 -0.20015
 C65 C 0.16191 0.80366 -0.18046
 C66 C 0.18230 0.80167 -0.16048
 C67 C 0.20391 0.82096 -0.15985
 C68 C 0.20467 0.84205 -0.17897
 C69 C 0.18399 0.84401 -0.19933
 C70 C 0.14586 0.83175 -0.22181
 N71 N 0.15584 0.85488 -0.23443
 C72 C 0.17927 0.86243 -0.22048
 C73 C 0.22746 0.85794 -0.17292
 N74 N 0.24088 0.84699 -0.15056
 C75 C 0.22632 0.82422 -0.14261
 C76 C 0.17571 0.77961 -0.14385
 N77 N 0.15171 0.76826 -0.15319
 C78 C 0.14319 0.78285 -0.17566
 H79 H 0.12708 0.82086 -0.22717
 H80 H 0.19257 0.87965 -0.22543
 H81 H 0.23381 0.87585 -0.18460
 H82 H 0.23083 0.81117 -0.12504
 H83 H 0.18713 0.77286 -0.12580
 H84 H 0.12471 0.77869 -0.18764
 C85 C 0.17540 1.15235 0.80231
 C86 C 0.19708 1.15355 0.82160
 C87 C 0.19770 1.17438 0.84089
 C88 C 0.17651 1.19426 0.84119
 C89 C 0.15505 1.19280 0.82240
 C90 C 0.15449 1.17171 0.80283
 C91 C 0.16918 1.13416 0.78162
 N92 N 0.14476 1.14183 0.76942
 C93 C 0.13577 1.16493 0.78258
 C94 C 0.13699 1.21390 0.82806
 N95 N 0.14681 1.22852 0.84994
 C96 C 0.17120 1.21642 0.85793
 C97 C 0.22038 1.16966 0.85762
 N98 N 0.23339 1.14639 0.84903
 C99 C 0.21927 1.13652 0.82692
 H100 H 0.18139 1.11619 0.77670
 H101 H 0.11726 1.17661 0.77775
 H102 H 0.11828 1.21821 0.81647
 H103 H 0.18395 1.22240 0.87523
 H104 H 0.22631 1.18168 0.87538
 H105 H 0.22453 1.11809 0.81567
 C106 C 0.81336 0.83453 0.79573
 C107 C 0.79147 0.83222 0.81467
 C108 C 0.79067 0.81041 0.83304
 C109 C 0.81177 0.79046 0.83251
 C110 C 0.83335 0.79275 0.81381
 C111 C 0.83404 0.81490 0.79510
 C112 C 0.81957 0.85391 0.77598
 N113 N 0.84360 0.84662 0.76291
 C114 C 0.85244 0.82256 0.77464
 C115 C 0.85105 0.77099 0.81854
 N116 N 0.84080 0.75525 0.83966
 C117 C 0.81660 0.76727 0.84813
 C118 C 0.76744 0.81389 0.84934
 N119 N 0.75412 0.83721 0.84113
 C120 C 0.76874 0.84851 0.81992
 H121 H 0.80679 0.87160 0.77123
 H122 H 0.87130 0.81159 0.76953
 H123 H 0.86976 0.76701 0.80685
 H124 H 0.80360 0.76050 0.86506
 H125 H 0.76069 0.80038 0.86585
 H126 H 0.76358 0.86754 0.80944
 C127 C 0.18044 0.83623 1.20185
 C128 C 0.20118 0.83533 1.18151
 C129 C 0.19958 0.81636 1.16046
 C130 C 0.17706 0.79808 1.15940
 C131 C 0.15646 0.79921 1.17933
 C132 C 0.15819 0.81846 1.20070
 C133 C 0.17673 0.85252 1.22464
 N134 N 0.15256 0.84528 1.23758
 C135 C 0.14117 0.82435 1.22274
 C136 C 0.13714 0.77941 1.17300
 N137 N 0.14552 0.76619 1.14978
 C138 C 0.16995 0.77753 1.14134
 C139 C 0.22226 0.82056 1.14356
 N140 N 0.23747 0.84172 1.15378
 C141 C 0.22470 0.85078 1.17707
 H142 H 0.19055 0.86893 1.23059
 H143 H 0.12221 0.81347 1.22763
 H144 H 0.11853 0.77473 1.18469
 H145 H 0.18156 0.77154 1.12319
 H146 H 0.22690 0.80949 1.12479
 H147 H 0.23195 0.86739 1.18992
 C148 C 0.81285 1.17314 1.21245
 C149 C 0.79295 1.17263 1.19132
 C150 C 0.79378 1.19206 1.17044
 C151 C 0.81460 1.21218 1.17029
 C152 C 0.83432 1.21260 1.19103
 C153 C 0.83350 1.19280 1.21223
 C154 C 0.81710 1.15672 1.23522
 N155 N 0.84008 1.16565 1.24903
 C156 C 0.85016 1.18782 1.23481
 C157 C 0.85195 1.23422 1.18543
 N158 N 0.84339 1.24686 1.16178
 C159 C 0.82053 1.23343 1.15244
 C160 C 0.77226 1.18642 1.15267
 N161 N 0.75844 1.16394 1.16220
 C162 C 0.77100 1.15540 1.18589
 H163 H 0.80464 1.13899 1.24050
 H164 H 0.86797 1.20008 1.24047
 H165 H 0.86992 1.24002 1.19748
 H166 H 0.80878 1.23888 1.13417
 H167 H 0.76743 1.19753 1.13385
 H168 H 0.76457 1.13801 1.19837
 O169 O 0.46547 1.05437 1.05079
 O170 O 0.43393 1.02855 1.02685
 C171 C 0.44019 1.04792 1.04399
 O172 O 0.54403 1.04597 0.95294
 O173 O 0.57312 1.01993 0.98003
 C174 C 0.56861 1.03753 0.96032
 O175 O 0.46595 1.05264 0.95504
 O176 O 0.43421 1.02772 0.98006
 C177 C 0.44060 1.04648 0.96205
 O178 O 0.54331 1.04815 1.05381
 O179 O 0.57272 1.02182 1.02771
 C180 C 0.56799 1.03992 1.04669
 Zr181 Zr 0.50379 1.03669 1.03845
 O182 O 0.50900 1.07986 1.03754
 O183 O 0.50038 1.03735 1.08202
 Zr184 Zr 0.50422 1.03549 0.96865
 O185 O 0.50956 1.07865 0.96781
 O186 O 0.50133 1.03500 0.92505
 O187 O 0.47948 1.04272 1.00328
 O188 O 0.52835 1.03995 1.00354
 O189 O 0.53896 0.95324 1.05653
 O190 O 0.57060 0.97604 1.02938
 C191 C 0.56429 0.95913 1.04918
 O192 O 0.46115 0.95234 0.95740
 O193 O 0.43195 0.98072 0.98154
 C194 C 0.43652 0.96114 0.96409
 O195 O 0.53947 0.95073 0.95559
 O196 O 0.57078 0.97438 0.98197
 C197 C 0.56470 0.95653 0.96318
 O198 O 0.46047 0.95380 1.05297
 O199 O 0.43158 0.98141 1.02731
 C200 C 0.43591 0.96219 1.04547
 Zr201 Zr 0.50047 0.96726 1.04010
 O202 O 0.50176 0.92379 1.04090
 O203 O 0.49686 0.96789 1.08364
 Zr204 Zr 0.50090 0.96607 0.97034
 O205 O 0.50180 0.92260 0.97142
 O206 O 0.49821 0.96561 0.92672
 Zr207 Zr 0.46112 1.00345 1.00415
 Zr208 Zr 0.54355 0.99941 1.00464
 O209 O 0.52455 0.96050 1.00553
 O210 O 0.47565 0.96255 1.00518
 O211 O 0.52683 1.00091 1.04485
 O212 O 0.47853 1.00186 0.96430
 O213 O 0.47802 1.00322 1.04420
 O214 O 0.52733 0.99947 0.96422
 H215 H 0.54175 1.05539 1.00312
 H216 H 0.46610 1.00218 0.94801
 H217 H 0.53638 0.94382 1.00615
 H218 H 0.46532 1.00405 1.06030
 H219 H 0.51596 1.02248 0.91819
 H220 H 0.51462 0.97547 0.91939
 H221 H 0.48583 0.91641 0.98273
 H222 H 0.48582 0.91712 1.02995
 H223 H 0.51234 0.97915 1.09077
 H224 H 0.51565 1.02597 1.08959
 H225 H 0.49413 1.08760 1.02574
 H226 H 0.49413 1.08682 0.97852
 O227 O 0.05389 0.53747 -0.05339
 O228 O 0.02771 0.56764 -0.02809
 C229 C 0.04653 0.56219 -0.04647
 O230 O -0.04561 0.46103 -0.05548
 O231 O -0.01990 0.43074 -0.02954
 C232 C -0.03844 0.43626 -0.04818
 O233 O -0.04247 0.53843 -0.05782
 O234 O -0.01812 0.56810 -0.03033
 C235 C -0.03521 0.56301 -0.05035
 O236 O 0.05600 0.46015 -0.05049
 O237 O 0.02731 0.43031 -0.02734
 C238 C 0.04786 0.43552 -0.04389
 Zr239 Zr 0.03985 0.49889 -0.03846
 O240 O 0.04179 0.49595 -0.08200
 O241 O 0.08373 0.50169 -0.03651
 Zr242 Zr -0.03054 0.49954 -0.04161
 O243 O -0.02888 0.49680 -0.08518
 O244 O -0.07441 0.50297 -0.04307
 O245 O 0.00511 0.52366 -0.04548
 O246 O 0.00474 0.47549 -0.04507
 O247 O 0.05117 0.45971 0.04514
 O248 O 0.02506 0.43012 0.01927
 C249 C 0.04368 0.43515 0.03787
 O250 O -0.04712 0.53779 0.04304
 O251 O -0.02053 0.56783 0.01769
 C252 C -0.03938 0.56246 0.03612
 O253 O -0.05005 0.46052 0.04064
 O254 O -0.02265 0.43047 0.01650
 C255 C -0.04259 0.43583 0.03368
 O256 O 0.04932 0.53702 0.04724
 O257 O 0.02545 0.56741 0.01975
 C258 C 0.04261 0.56181 0.03964
 Zr259 Zr 0.03659 0.49857 0.03124
 O260 O 0.03459 0.49539 0.07480
 O261 O 0.08050 0.50120 0.03297
 Zr262 Zr -0.03384 0.49916 0.02797
 O263 O -0.03662 0.49602 0.07148
 O264 O -0.07764 0.50261 0.02516
 Zr265 Zr 0.00336 0.53979 -0.00523
 Zr266 Zr 0.00277 0.45829 -0.00514
 O267 O 0.00096 0.47511 0.03473
 O268 O 0.00130 0.52325 0.03504
 O269 O 0.04349 0.47415 -0.00332
 O270 O -0.03703 0.52333 -0.00706
 O271 O 0.04346 0.52254 -0.00341
 O272 O -0.03774 0.47482 -0.00705
 H273 H 0.00549 0.46321 -0.06129
 H274 H -0.05312 0.53604 -0.00781
 H275 H 0.00006 0.46265 0.05096
 H276 H 0.05980 0.53488 -0.00270
 H277 H -0.08221 0.48716 -0.03276
 H278 H -0.08445 0.48660 0.01467
 H279 H -0.02437 0.51029 0.07929
 H280 H 0.02305 0.51082 0.08148
 H281 H 0.08813 0.48550 0.02254
 H282 H 0.09038 0.48645 -0.02464
 H283 H 0.03103 0.51151 -0.08976
 H284 H -0.01647 0.51160 -0.09186
 O285 O 1.04796 -0.05301 0.53622
 O286 O 1.02235 -0.02850 0.56759
 C287 C 1.04118 -0.04651 0.56134
 O288 O 1.04905 0.04785 0.46285
 O289 O 1.02276 0.02399 0.43169
 C290 C 1.04163 0.04195 0.43779
 O291 O 1.05162 0.04141 0.54020
 O292 O 1.02370 0.01658 0.56949
 C293 C 1.04397 0.03349 0.56473
 O294 O 1.04463 -0.05195 0.45829
 O295 O 1.02001 -0.02336 0.42948
 C296 C 1.03719 -0.04345 0.43388
 Zr297 Zr 1.03253 -0.03789 0.49796
 O298 O 1.07639 -0.03932 0.49441
 O299 O 1.03099 -0.08133 0.49934
 Zr300 Zr 1.03488 0.03156 0.50102
 O301 O 1.07877 0.03124 0.49786
 O302 O 1.03521 0.07474 0.50604
 O303 O 1.03925 -0.00456 0.52395
 O304 O 1.03872 -0.00221 0.47558
 O305 O 0.94860 -0.04856 0.45905
 O306 O 0.97395 -0.02096 0.42995
 C307 C 0.95564 -0.03996 0.43457
 O308 O 0.94946 0.04537 0.54094
 O309 O 0.97536 0.01803 0.56984
 C310 C 0.95651 0.03661 0.56536
 O311 O 0.95215 0.05195 0.46331
 O312 O 0.97656 0.02634 0.43191
 C313 C 0.95935 0.04586 0.43818
 O314 O 0.94674 -0.05027 0.53667
 O315 O 0.97400 -0.02737 0.56774
 C316 C 0.95440 -0.04457 0.56171
 Zr317 Zr 0.96225 -0.03537 0.49842
 O318 O 0.91836 -0.03303 0.49576
 O319 O 0.96036 -0.07880 0.49944
 Zr320 Zr 0.96464 0.03405 0.50144
 O321 O 0.92076 0.03583 0.49855
 O322 O 0.96633 0.07717 0.50652
 Zr323 Zr 0.99873 -0.00394 0.54061
 Zr324 Zr 0.99844 0.00012 0.45881
 O325 O 0.95827 0.00072 0.47604
 O326 O 0.95807 -0.00171 0.52453
 O327 O 0.99709 -0.04076 0.47339
 O328 O 1.00003 0.03662 0.52545
 O329 O 0.99734 -0.04281 0.52191
 O330 O 0.99990 0.03939 0.47685
 H331 H 1.05497 -0.00236 0.46299
 H332 H 1.00065 0.05194 0.53881
 H333 H 0.94198 0.00202 0.46359
 H334 H 0.99698 -0.05948 0.53374
 H335 H 1.02601 0.08299 0.48972
 H336 H 0.97817 0.08465 0.49155
 H337 H 0.91314 0.02363 0.51309
 H338 H 0.91160 -0.02351 0.51247
 H339 H 0.97201 -0.08567 0.48412
 H340 H 1.01941 -0.08741 0.48367
 H341 H 1.08421 -0.02940 0.51037
 H342 H 1.08574 0.01729 0.51107
 C343 C 1.10724 0.15085 0.26509
 C344 C 1.09256 0.13815 0.28654
 C345 C 1.10485 0.11724 0.30229
 C346 C 1.13190 0.10859 0.29570
 C347 C 1.14650 0.12094 0.27399
 C348 C 1.13456 0.14250 0.25832
 C349 C 1.08870 0.10426 0.32483
 C350 C 1.10062 0.09454 0.34789
 C351 C 1.08459 0.08172 0.37062
 C352 C 1.09469 0.08364 0.39768
 C353 C 1.08046 0.07120 0.41957
 C354 C 1.05607 0.05608 0.41475
 C355 C 1.04611 0.05394 0.38757
 C356 C 1.06016 0.06669 0.36573
 H357 H 1.09658 0.16666 0.25348
 H358 H 1.07156 0.14488 0.29101
 H359 H 1.14172 0.09200 0.30705
 H360 H 1.16742 0.11381 0.27017
 H361 H 1.06625 0.10418 0.32298
 H362 H 1.12276 0.09728 0.35095
 H363 H 1.11362 0.09489 0.40189
 H364 H 1.08885 0.07305 0.44021
 H365 H 1.02755 0.04223 0.38310
 H366 H 1.05224 0.06415 0.34500
 C367 C 0.87988 -0.16212 0.27804
 C368 C 0.89108 -0.15108 0.30214
 C369 C 0.88335 -0.12484 0.31096
 C370 C 0.86334 -0.11015 0.29581
 C371 C 0.85179 -0.12126 0.27189
 C372 C 0.86011 -0.14736 0.26225
 C373 C 0.89617 -0.11360 0.33624
 C374 C 0.90093 -0.08671 0.33958
 C375 C 0.91496 -0.07544 0.36420
 C376 C 0.93051 -0.05123 0.36143
 C377 C 0.94395 -0.03989 0.38420
 C378 C 0.94169 -0.05227 0.41041
 C379 C 0.92576 -0.07632 0.41328
 C380 C 0.91256 -0.08783 0.39041
 H381 H 0.88650 -0.18253 0.27237
 H382 H 0.90616 -0.16298 0.31376
 H383 H 0.85637 -0.09011 0.30249
 H384 H 0.83695 -0.10878 0.26074
 H385 H 0.90367 -0.12812 0.35155
 H386 H 0.89607 -0.07254 0.32295
 H387 H 0.93246 -0.04120 0.34150
 H388 H 0.95588 -0.02123 0.38130
 H389 H 0.92351 -0.08629 0.43320
 H390 H 0.90010 -0.10609 0.39341
 C391 C 0.87546 0.16054 0.71839
 C392 C 0.88750 0.14863 0.69509
 C393 C 0.88213 0.12123 0.68839
 C394 C 0.86385 0.10602 0.70514
 C395 C 0.85147 0.11796 0.72830
 C396 C 0.85711 0.14548 0.73554
 C397 C 0.89518 0.10955 0.66335
 C398 C 0.90142 0.08284 0.66079
 C399 C 0.91534 0.07150 0.63604
 C400 C 0.93249 0.04835 0.63899
 C401 C 0.94602 0.03716 0.61611
 C402 C 0.94227 0.04860 0.58964
 C403 C 0.92467 0.07151 0.58662
 C404 C 0.91137 0.08287 0.60957
 H405 H 0.88015 0.18185 0.72221
 H406 H 0.90124 0.16090 0.68228
 H407 H 0.85869 0.08499 0.70018
 H408 H 0.83792 0.10516 0.74065
 H409 H 0.90138 0.12382 0.64725
 H410 H 0.89786 0.06901 0.67802
 H411 H 0.93569 0.03908 0.65913
 H412 H 0.95933 0.01945 0.61919
 H413 H 0.92118 0.08074 0.56653
 H414 H 0.89765 0.10025 0.60642
 C415 C 1.15277 -0.10517 0.73540
 C416 C 1.14062 -0.09167 0.71288
 C417 C 1.12018 -0.10460 0.69705
 C418 C 1.11163 -0.13119 0.70448
 C419 C 1.12346 -0.14463 0.72715
 C420 C 1.14433 -0.13193 0.74314
 C421 C 1.10724 -0.08945 0.67380
 C422 C 1.09700 -0.10201 0.65145
 C423 C 1.08329 -0.08700 0.62855
 C424 C 1.08412 -0.09810 0.60190
 C425 C 1.07074 -0.08482 0.57995
 C426 C 1.05576 -0.06044 0.58437
 C427 C 1.05468 -0.04948 0.61114
 C428 C 1.06832 -0.06258 0.63300
 H429 H 1.16815 -0.09402 0.74704
 H430 H 1.14728 -0.07100 0.70776
 H431 H 1.09537 -0.14152 0.69315
 H432 H 1.11633 -0.16521 0.73156
 H433 H 1.10719 -0.06723 0.67472
 H434 H 1.09967 -0.12398 0.64921
 H435 H 1.09528 -0.11704 0.59804
 H436 H 1.07180 -0.09386 0.55961
 H437 H 1.04330 -0.03072 0.61524
 H438 H 1.06657 -0.05388 0.65343
 C439 C 0.26606 1.11203 1.15143
 C440 C 0.28784 1.09822 1.13836
 C441 C 0.30482 1.11177 1.11917
 C442 C 0.29934 1.13944 1.11289
 C443 C 0.27743 1.15328 1.12572
 C444 C 0.26024 1.13988 1.14529
 C445 C 0.32729 1.09619 1.10538
 C446 C 0.35054 1.10800 1.09571
 C447 C 0.37308 1.09225 1.08226
 C448 C 0.40047 1.10193 1.08405
 C449 C 0.42229 1.08754 1.07169
 C450 C 0.41708 1.06336 1.05686
 C451 C 0.38954 1.05400 1.05454
 C452 C 0.36776 1.06826 1.06712
 H453 H 0.25348 1.10031 1.16571
 H454 H 0.29146 1.07677 1.14332
 H455 H 0.31158 1.15039 1.09766
 H456 H 0.27450 1.17463 1.12033
 H457 H 0.32514 1.07407 1.10450
 H458 H 0.35405 1.12968 1.09911
 H459 H 0.40503 1.12053 1.09534
 H460 H 0.44323 1.09544 1.07368
 H461 H 0.38478 1.03553 1.04313
 H462 H 0.34679 1.06068 1.06458
 C463 C 0.27950 0.84119 0.88124
 C464 C 0.30325 0.85159 0.89403
 C465 C 0.31243 0.87829 0.88831
 C466 C 0.29792 0.89419 0.86879
 C467 C 0.27434 0.88376 0.85570
 C468 C 0.26442 0.85710 0.86184
 C469 C 0.33750 0.88869 0.90251
 C470 C 0.34103 0.91530 0.90848
 C471 C 0.36567 0.92592 0.92326
 C472 C 0.36294 0.95001 0.93874
 C473 C 0.38581 0.96113 0.95241
 C474 C 0.41211 0.94859 0.95052
 C475 C 0.41490 0.92452 0.93487
 C476 C 0.39192 0.91325 0.92140
 H477 H 0.27360 0.82037 0.88632
 H478 H 0.31435 0.83879 0.90872
 H479 H 0.30490 0.91464 0.86332
 H480 H 0.26374 0.89713 0.84129
 H481 H 0.35255 0.87372 0.90971
 H482 H 0.32457 0.92979 0.90376
 H483 H 0.34299 0.96026 0.94030
 H484 H 0.38295 0.97982 0.96409
 H485 H 0.43489 0.91445 0.93288
 H486 H 0.39495 0.89506 0.90903
 C487 C 0.74112 0.85297 1.10835
 C488 C 0.71855 0.86567 1.09538
 C489 C 0.70149 0.88397 1.10978
 C490 C 0.70771 0.88977 1.13745
 C491 C 0.73046 0.87732 1.15045
 C492 C 0.74769 0.85859 1.13619
 C493 C 0.67829 0.89753 1.09492
 C494 C 0.65514 0.90654 1.10742
 C495 C 0.63215 0.92002 1.09214
 C496 C 0.60488 0.91772 1.10222
 C497 C 0.58275 0.93023 1.08824
 C498 C 0.58755 0.94569 1.06409
 C499 C 0.61497 0.94840 1.05433
 C500 C 0.63701 0.93574 1.06818
 H501 H 0.75370 0.83940 1.09597
 H502 H 0.71439 0.86113 1.07390
 H503 H 0.69538 0.90433 1.14903
 H504 H 0.73401 0.88229 1.17184
 H505 H 0.67988 0.89886 1.07265
 H506 H 0.65217 0.90272 1.12927
 H507 H 0.60066 0.90596 1.12082
 H508 H 0.56192 0.92792 1.09644
 H509 H 0.61947 0.96032 1.03591
 H510 H 0.65787 0.93871 1.06030
 C511 C 0.72199 1.15993 0.87546
 C512 C 0.69895 1.14788 0.88821
 C513 C 0.69206 1.12044 0.88322
 C514 C 0.70837 1.10531 0.86465
 C515 C 0.73128 1.11740 0.85155
 C516 C 0.73869 1.14498 0.85677
 C517 C 0.66714 1.10876 0.89688
 C518 C 0.66431 1.08199 0.90294
 C519 C 0.63951 1.07087 0.91731
 C520 C 0.64237 1.04759 0.93429
 C521 C 0.61941 1.03680 0.94838
 C522 C 0.59297 1.04884 0.94537
 C523 C 0.59001 1.07176 0.92783
 C524 C 0.61301 1.08268 0.91397
 H525 H 0.72593 1.18127 0.87989
 H526 H 0.68647 1.16009 0.90217
 H527 H 0.70324 1.08426 0.85978
 H528 H 0.74331 1.10469 0.83778
 H529 H 0.65131 1.12309 0.90360
 H530 H 0.68132 1.06799 0.89885
 H531 H 0.66251 1.03794 0.93694
 H532 H 0.62236 1.01893 0.96149
 H533 H 0.56992 1.08141 0.92489
 H534 H 0.60987 1.10011 0.90035
 C535 C 0.16712 0.28659 0.13266
 C536 C 0.15640 0.31018 0.11993
 C537 C 0.12766 0.31509 0.11953
 C538 C 0.10984 0.29640 0.13297
 C539 C 0.12056 0.27291 0.14579
 C540 C 0.14929 0.26762 0.14560
 C541 C 0.11696 0.34002 0.10543
 C542 C 0.09157 0.34119 0.09408
 C543 C 0.08050 0.36567 0.07947
 C544 C 0.05910 0.36202 0.06021
 C545 C 0.04743 0.38452 0.04649
 C546 C 0.05671 0.41132 0.05196
 C547 C 0.07809 0.41503 0.07135
 C548 C 0.08985 0.39245 0.08501
 H549 H 0.18938 0.28331 0.13258
 H550 H 0.17058 0.32446 0.11005
 H551 H 0.08765 0.29995 0.13389
 H552 H 0.10627 0.25866 0.15548
 H553 H 0.13108 0.35717 0.10299
 H554 H 0.07866 0.32299 0.09418
 H555 H 0.05136 0.34163 0.05574
 H556 H 0.03091 0.38087 0.03179
 H557 H 0.08559 0.43540 0.07618
 H558 H 0.10575 0.39618 0.10031
 C559 C -0.16529 0.28937 -0.13814
 C560 C -0.15387 0.31296 -0.12639
 C561 C -0.12514 0.31777 -0.12764
 C562 C -0.10812 0.29902 -0.14184
 C563 C -0.11957 0.27554 -0.15374
 C564 C -0.14823 0.27030 -0.15177
 C565 C -0.11366 0.34259 -0.11427
 C566 C -0.08779 0.34353 -0.10401
 C567 C -0.07621 0.36772 -0.08962
 C568 C -0.05436 0.36362 -0.07088
 C569 C -0.04239 0.38581 -0.05722
 C570 C -0.05176 0.41276 -0.06226
 C571 C -0.07353 0.41693 -0.08119
 C572 C -0.08563 0.39465 -0.09476
 H573 H -0.18750 0.28612 -0.13670
 H574 H -0.16746 0.32727 -0.11589
 H575 H -0.08601 0.30249 -0.14399
 H576 H -0.10587 0.26122 -0.16402
 H577 H -0.12761 0.35978 -0.11121
 H578 H -0.07492 0.32528 -0.10468
 H579 H -0.04657 0.34312 -0.06671
 H580 H -0.02557 0.38181 -0.04289
 H581 H -0.08112 0.43742 -0.08568
 H582 H -0.10189 0.39872 -0.10965
 C583 C 0.10817 0.74356 -0.14226
 C584 C 0.09416 0.72158 -0.12991
 C585 C 0.10893 0.70073 -0.11620
 C586 C 0.13809 0.70259 -0.11457
 C587 C 0.15209 0.72466 -0.12681
 C588 C 0.13730 0.74535 -0.14084
 C589 C 0.09324 0.67801 -0.10303
 C590 C 0.10411 0.65299 -0.09865
 C591 C 0.08848 0.63020 -0.08552
 C592 C 0.09648 0.60309 -0.09115
 C593 C 0.08269 0.58101 -0.07873
 C594 C 0.06075 0.58558 -0.06011
 C595 C 0.05288 0.61277 -0.05427
 C596 C 0.06661 0.63485 -0.06679
 H597 H 0.09616 0.75944 -0.15248
 H598 H 0.07168 0.72080 -0.13115
 H599 H 0.15015 0.68736 -0.10346
 H600 H 0.17453 0.72545 -0.12543
 H601 H 0.07161 0.68177 -0.09811
 H602 H 0.12483 0.64843 -0.10611
 H603 H 0.11343 0.59898 -0.10529
 H604 H 0.08941 0.56036 -0.08359
 H605 H 0.03626 0.61706 -0.03981
 H606 H 0.06042 0.65546 -0.06123
 C607 C -0.09877 0.74039 0.13787
 C608 C -0.08481 0.71892 0.12474
 C609 C -0.09944 0.70008 0.10848
 C610 C -0.12827 0.70358 0.10498
 C611 C -0.14219 0.72514 0.11798
 C612 C -0.12762 0.74370 0.13468
 C613 C -0.08393 0.67756 0.09494
 C614 C -0.09561 0.65339 0.08871
 C615 C -0.08025 0.63055 0.07554
 C616 C -0.08988 0.60364 0.07951
 C617 C -0.07643 0.58153 0.06700
 C618 C -0.05320 0.58589 0.04988
 C619 C -0.04366 0.61290 0.04572
 C620 C -0.05704 0.63501 0.05838
 H621 H -0.08691 0.75464 0.15021
 H622 H -0.06255 0.71687 0.12747
 H623 H -0.14012 0.68998 0.09191
 H624 H -0.16442 0.72713 0.11519
 H625 H -0.06189 0.68056 0.09150
 H626 H -0.11693 0.64947 0.09475
 H627 H -0.10786 0.59969 0.09243
 H628 H -0.08445 0.56103 0.07053
 H629 H -0.02592 0.61701 0.03254
 H630 H -0.04951 0.65554 0.05417
 C631 C 1.10381 0.13511 0.74094
 C632 C 1.09048 0.12178 0.71922
 C633 C 1.10451 0.10206 0.70355
 C634 C 1.13202 0.09529 0.71049
 C635 C 1.14535 0.10834 0.73242
 C636 C 1.13160 0.12871 0.74804
 C637 C 1.08962 0.08853 0.68063
 C638 C 1.10251 0.07920 0.65799
 C639 C 1.08732 0.06697 0.63454
 C640 C 1.09823 0.06987 0.60782
 C641 C 1.08418 0.05904 0.58513
 C642 C 1.05911 0.04464 0.58877
 C643 C 1.04858 0.04109 0.61565
 C644 C 1.06250 0.05216 0.63830
 H645 H 1.09179 0.14990 0.75242
 H646 H 1.06912 0.12708 0.71448
 H647 H 1.14324 0.07964 0.69926
 H648 H 1.16667 0.10265 0.73649
 H649 H 1.06713 0.08798 0.68171
 H650 H 1.12467 0.08234 0.65559
 H651 H 1.11748 0.08095 0.60445
 H652 H 1.09300 0.06192 0.56474
 H653 H 1.02942 0.02993 0.61921
 H654 H 1.05395 0.04882 0.65872
 C655 C 0.84915 -0.11145 0.73614
 C656 C 0.86204 -0.09690 0.71477
 C657 C 0.88204 -0.10951 0.69811
 C658 C 0.88964 -0.13684 0.70373
 C659 C 0.87713 -0.15136 0.72542
 C660 C 0.85638 -0.13905 0.74193
 C661 C 0.89514 -0.09337 0.67564
 C662 C 0.90349 -0.10464 0.65186
 C663 C 0.91591 -0.08835 0.62909
 C664 C 0.91225 -0.09712 0.60182
 C665 C 0.92419 -0.08255 0.57986
 C666 C 0.94052 -0.05917 0.58481
 C667 C 0.94436 -0.05052 0.61218
 C668 C 0.93214 -0.06490 0.63409
 H669 H 0.83410 -0.10052 0.74847
 H670 H 0.85616 -0.07570 0.71107
 H671 H 0.90553 -0.14695 0.69162
 H672 H 0.88340 -0.17246 0.72856
 H673 H 0.89622 -0.07131 0.67814
 H674 H 0.89970 -0.12625 0.64824
 H675 H 0.90003 -0.11526 0.59748
 H676 H 0.92104 -0.08994 0.55906
 H677 H 0.95701 -0.03274 0.61674
 H678 H 0.93602 -0.05800 0.65493
 C679 C 1.15797 -0.12545 0.27766
 C680 C 1.14697 -0.11357 0.30148
 C681 C 1.11937 -0.11840 0.30929
 C682 C 1.10309 -0.13607 0.29320
 C683 C 1.11410 -0.14826 0.26951
 C684 C 1.14176 -0.14305 0.26107
 C685 C 1.10851 -0.10531 0.33464
 C686 C 1.08168 -0.09855 0.33792
 C687 C 1.07096 -0.08453 0.36282
 C688 C 1.04754 -0.06749 0.36032
 C689 C 1.03676 -0.05397 0.38333
 C690 C 1.04890 -0.05759 0.40950
 C691 C 1.07206 -0.07506 0.41212
 C692 C 1.08303 -0.08836 0.38902
 H693 H 1.17947 -0.12115 0.27291
 H694 H 1.16007 -0.10032 0.31378
 H695 H 1.08190 -0.14084 0.29903
 H696 H 1.10045 -0.16126 0.25771
 H697 H 1.12347 -0.09952 0.35025
 H698 H 1.06725 -0.10177 0.32111
 H699 H 1.03771 -0.06444 0.34043
 H700 H 1.01871 -0.04089 0.38064
 H701 H 1.08179 -0.07841 0.43201
 H702 H 1.10061 -0.10199 0.39184
 C703 C 0.83573 0.13517 0.28866
 C704 C 0.84714 0.12306 0.31230
 C705 C 0.87439 0.12902 0.32036
 C706 C 0.88978 0.14820 0.30492
 C707 C 0.87830 0.16069 0.28148
 C708 C 0.85113 0.15413 0.27259
 C709 C 0.88599 0.11513 0.34507
 C710 C 0.91296 0.10853 0.34733
 C711 C 0.92432 0.09279 0.37101
 C712 C 0.94718 0.07545 0.36666
 C713 C 0.95835 0.06006 0.38840
 C714 C 0.94725 0.06212 0.41519
 C715 C 0.92466 0.07992 0.41967
 C716 C 0.91324 0.09505 0.39780
 H717 H 0.81455 0.12989 0.28358
 H718 H 0.83472 0.10864 0.32413
 H719 H 0.91066 0.15378 0.31102
 H720 H 0.89128 0.17483 0.27005
 H721 H 0.87149 0.10822 0.36076
 H722 H 0.92691 0.11290 0.33028
 H723 H 0.95620 0.07351 0.34626
 H724 H 0.97579 0.04664 0.38422
 H725 H 0.91570 0.08207 0.44007
 H726 H 0.89606 0.10879 0.40199
 C727 C 0.10641 0.25795 -0.14442
 C728 C 0.09353 0.28049 -0.13211
 C729 C 0.10802 0.29707 -0.11355
 C730 C 0.13567 0.29034 -0.10702
 C731 C 0.14857 0.26759 -0.11908
 C732 C 0.13424 0.25092 -0.13815
 C733 C 0.09325 0.32041 -0.10063
 C734 C 0.10609 0.34311 -0.09171
 C735 C 0.09083 0.36647 -0.07934
 C736 C 0.10168 0.39308 -0.08208
 C737 C 0.08769 0.41558 -0.07076
 C738 C 0.06274 0.41182 -0.05606
 C739 C 0.05218 0.38506 -0.05287
 C740 C 0.06605 0.36264 -0.06436
 H741 H 0.09394 0.24578 -0.15823
 H742 H 0.07207 0.28502 -0.13719
 H743 H 0.14728 0.30230 -0.09223
 H744 H 0.16996 0.26362 -0.11360
 H745 H 0.07076 0.31937 -0.09992
 H746 H 0.12824 0.34547 -0.09496
 H747 H 0.12088 0.39652 -0.09328
 H748 H 0.09652 0.43587 -0.07340
 H749 H 0.03313 0.38137 -0.04149
 H750 H 0.05754 0.34232 -0.06107
 C751 C -0.12957 0.28998 0.16455
 C752 C -0.11749 0.31294 0.15189
 C753 C -0.11901 0.31664 0.12317
 C754 C -0.13341 0.29712 0.10737
 C755 C -0.14556 0.27424 0.12004
 C756 C -0.14377 0.27036 0.14876
 C757 C -0.10612 0.34138 0.11056
 C758 C -0.09734 0.34236 0.08427
 C759 C -0.08383 0.36678 0.07173
 C760 C -0.06570 0.36298 0.04937
 C761 C -0.05243 0.38538 0.03697
 C762 C -0.05731 0.41222 0.04643
 C763 C -0.07598 0.41611 0.06842
 C764 C -0.08912 0.39364 0.08095
 H765 H -0.12820 0.28783 0.18675
 H766 H -0.10680 0.32782 0.16457
 H767 H -0.13578 0.29963 0.08530
 H768 H -0.15622 0.25946 0.10727
 H769 H -0.10242 0.35875 0.12391
 H770 H -0.09851 0.32407 0.07173
 H771 H -0.06150 0.34254 0.04168
 H772 H -0.03834 0.38162 0.01995
 H773 H -0.08033 0.43652 0.07610
 H774 H -0.10365 0.39746 0.09755
 C775 C -0.16229 0.71445 -0.13135
 C776 C -0.15005 0.69092 -0.11999
 C777 C -0.12233 0.68427 -0.12577
 C778 C -0.10722 0.70120 -0.14393
 C779 C -0.11948 0.72459 -0.15561
 C780 C -0.14724 0.73192 -0.14937
 C781 C -0.11011 0.65925 -0.11306
 C782 C -0.08299 0.65686 -0.10706
 C783 C -0.07107 0.63241 -0.09302
 C784 C -0.04756 0.63568 -0.07624
 C785 C -0.03596 0.61317 -0.06236
 C786 C -0.04734 0.58677 -0.06537
 C787 C -0.07047 0.58338 -0.08274
 C788 C -0.08226 0.60596 -0.09638
 H789 H -0.18380 0.71833 -0.12629
 H790 H -0.16227 0.67796 -0.10637
 H791 H -0.08598 0.69627 -0.14943
 H792 H -0.10668 0.73710 -0.16900
 H793 H -0.12430 0.64314 -0.10675
 H794 H -0.06926 0.67411 -0.11077
 H795 H -0.03838 0.65579 -0.07355
 H796 H -0.01800 0.61648 -0.04934
 H797 H -0.07964 0.56330 -0.08562
 H798 H -0.09988 0.60257 -0.10980
 C799 C 0.10192 0.74227 0.13765
 C800 C 0.08792 0.72065 0.12487
 C801 C 0.10273 0.70002 0.11108
 C802 C 0.13191 0.70183 0.10968
 C803 C 0.14589 0.72356 0.12228
 C804 C 0.13108 0.74395 0.13653
 C805 C 0.08711 0.67750 0.09768
 C806 C 0.09786 0.65237 0.09376
 C807 C 0.08246 0.62965 0.08044
 C808 C 0.09047 0.60250 0.08622
 C809 C 0.07722 0.58047 0.07339
 C810 C 0.05583 0.58513 0.05415
 C811 C 0.04780 0.61235 0.04832
 C812 C 0.06097 0.63438 0.06128
 H813 H 0.08990 0.75789 0.14808
 H814 H 0.06543 0.71993 0.12595
 H815 H 0.14400 0.68677 0.09852
 H816 H 0.16836 0.72424 0.12113
 H817 H 0.06565 0.68148 0.09226
 H818 H 0.11837 0.64769 0.10171
 H819 H 0.10710 0.59829 0.10072
 H820 H 0.08405 0.55981 0.07828
 H821 H 0.03153 0.61671 0.03348
 H822 H 0.05474 0.65502 0.05566
 C823 C 0.25995 1.10473 0.86172
 C824 C 0.28241 1.09205 0.87487
 C825 C 0.30262 1.10772 0.88842
 C826 C 0.29967 1.13649 0.88891
 C827 C 0.27705 1.14919 0.87587
 C828 C 0.25696 1.13344 0.86210
 C829 C 0.32560 1.09319 0.90274
 C830 C 0.35031 1.10467 0.90826
 C831 C 0.37308 1.08954 0.92233
 C832 C 0.40073 1.09724 0.91723
 C833 C 0.42271 1.08328 0.93003
 C834 C 0.41744 1.06151 0.94851
 C835 C 0.38969 1.05421 0.95405
 C836 C 0.36777 1.06808 0.94118
 H837 H 0.24457 1.09198 0.85176
 H838 H 0.28400 1.06985 0.87446
 H839 H 0.31438 1.14924 0.89979
 H840 H 0.27532 1.17134 0.87646
 H841 H 0.32235 1.07170 0.90765
 H842 H 0.35471 1.12527 0.90097
 H843 H 0.40536 1.11390 0.90303
 H844 H 0.44381 1.08958 0.92545
 H845 H 0.38482 1.03774 0.96839
 H846 H 0.34673 1.06218 0.94641
 C847 C 0.28059 0.83665 1.12631
 C848 C 0.30461 0.84788 1.11450
 C849 C 0.31066 0.87591 1.11738
 C850 C 0.29253 0.89240 1.13299
 C851 C 0.26863 0.88115 1.14492
 C852 C 0.26230 0.85318 1.14163
 C853 C 0.33628 0.88713 1.10454
 C854 C 0.33866 0.91345 1.09651
 C855 C 0.36395 0.92497 1.08332
 C856 C 0.36123 0.94831 1.06641
 C857 C 0.38453 0.96023 1.05399
 C858 C 0.41123 0.94928 1.05852
 C859 C 0.41402 0.92606 1.07572
 C860 C 0.39064 0.91402 1.08800
 H861 H 0.27651 0.81497 1.12377
 H862 H 0.31840 0.83468 1.10286
 H863 H 0.29691 0.91390 1.13641
 H864 H 0.25491 0.89447 1.15646
 H865 H 0.35300 0.87285 1.10027
 H866 H 0.32086 0.92698 1.09829
 H867 H 0.34095 0.95730 1.06268
 H868 H 0.38159 0.97818 1.04100
 H869 H 0.43429 0.91720 1.07975
 H870 H 0.39366 0.89653 1.10156
 C871 C 0.71586 1.16702 1.13387
 C872 C 0.69301 1.15467 1.12122
 C873 C 0.68885 1.12621 1.12329
 C874 C 0.70771 1.11036 1.13887
 C875 C 0.73047 1.12275 1.15167
 C876 C 0.73486 1.15119 1.14922
 C877 C 0.66418 1.11404 1.10978
 C878 C 0.66300 1.08779 1.10160
 C879 C 0.63835 1.07593 1.08777
 C880 C 0.64197 1.05359 1.06995
 C881 C 0.61919 1.04192 1.05653
 C882 C 0.59219 1.05215 1.06095
 C883 C 0.58852 1.07416 1.07925
 C884 C 0.61131 1.08590 1.09255
 H885 H 0.71844 1.18903 1.13198
 H886 H 0.67860 1.16738 1.10964
 H887 H 0.70476 1.08849 1.14162
 H888 H 0.74481 1.11001 1.16326
 H889 H 0.64701 1.12771 1.10515
 H890 H 0.68118 1.07480 1.10367
 H891 H 0.66255 1.04533 1.06619
 H892 H 0.62275 1.02481 1.04276
 H893 H 0.56800 1.08239 1.08334
 H894 H 0.60757 1.10246 1.10687
 C895 C 0.71040 0.86352 0.83675
 C896 C 0.68685 0.87554 0.84852
 C897 C 0.68188 0.87329 0.87697
 C898 C 0.70037 0.85776 0.89332
 C899 C 0.72381 0.84552 0.88149
 C900 C 0.72927 0.84859 0.85314
 C901 C 0.65720 0.88718 0.88877
 C902 C 0.65647 0.89662 0.91471
 C903 C 0.63256 0.91198 0.92626
 C904 C 0.63731 0.93016 0.94809
 C905 C 0.61536 0.94488 0.95979
 C906 C 0.58802 0.94147 0.95013
 C907 C 0.58320 0.92305 0.92841
 C908 C 0.60521 0.90843 0.91660
 H909 H 0.71383 0.86580 0.81477
 H910 H 0.67274 0.88708 0.83543
 H911 H 0.69672 0.85489 0.91519
 H912 H 0.73800 0.83416 0.89461
 H913 H 0.64005 0.89152 0.87495
 H914 H 0.67479 0.89466 0.92757
 H915 H 0.65813 0.93311 0.95604
 H916 H 0.61985 0.95874 0.97660
 H917 H 0.56237 0.91977 0.92063
 H918 H 0.60061 0.89400 0.90036
   
