data_POSCAR
  _audit_creation_date              2014-09-24
  _audit_creation_method            'ToBaCCo'
  _symmetry_space_group_name_H-M    'P1'
  _symmetry_Int_Tables_number       1
  _symmetry_cell_setting            triclinic
  loop_
  _symmetry_equiv_pos_as_xyz
 x,y,z
_cell_length_a 31.5778
_cell_length_b 44.2717
_cell_length_c 41.8124
_cell_angle_alpha 90.012600
_cell_angle_beta 90.037100
_cell_angle_gamma 89.775000
loop_
  _atom_site_label
  _atom_site_type_symbol
  _atom_site_fract_x
  _atom_site_fract_y
  _atom_site_fract_z
O1 O 0.25714 0.27444 0.20684
 O2 O 0.29917 0.21591 0.26095
 O3 O 0.25403 0.21555 0.20877
 O4 O 0.30224 0.27454 0.25895
 O5 O 0.24384 0.27709 0.28773
 O6 O 0.19537 0.21864 0.23710
 O7 O 0.24050 0.21821 0.28944
 O8 O 0.19861 0.27686 0.23555
 Cu9 Cu 0.28399 0.24483 0.23099
 Cu10 Cu 0.21380 0.24794 0.26543
 C11 C 0.22058 0.28555 0.21186
 C12 C 0.27706 0.20707 0.28450
 C13 C 0.21621 0.20716 0.21408
 C14 C 0.28133 0.28589 0.28198
 O15 O 0.80688 0.27588 0.24213
 O16 O 0.75832 0.21764 0.29315
 O17 O 0.80541 0.21721 0.24205
 O18 O 0.76043 0.27657 0.29349
 O19 O 0.70267 0.27754 0.26375
 O20 O 0.74783 0.21806 0.21219
 O21 O 0.70063 0.21925 0.26352
 O22 O 0.74928 0.27703 0.21230
 Cu23 Cu 0.78851 0.24669 0.27071
 Cu24 Cu 0.71942 0.24805 0.23485
 C25 C 0.78637 0.28642 0.21845
 C26 C 0.72090 0.20864 0.28729
 C27 C 0.78446 0.20750 0.21827
 C28 C 0.72379 0.28710 0.28754
 O29 O 0.70109 0.71862 0.73551
 O30 O 0.75035 0.77634 0.78638
 O31 O 0.70386 0.77693 0.73488
 O32 O 0.74863 0.71737 0.78667
 O33 O 0.80596 0.71611 0.75670
 O34 O 0.76168 0.77570 0.70529
 O35 O 0.80798 0.77479 0.75665
 O36 O 0.75853 0.71685 0.70555
 Cu37 Cu 0.72031 0.74741 0.76395
 Cu38 Cu 0.78929 0.74565 0.72805
 C39 C 0.72110 0.70809 0.71163
 C40 C 0.78751 0.78556 0.78023
 C41 C 0.72515 0.78643 0.71117
 C42 C 0.78515 0.70655 0.78062
 O43 O 0.30887 0.77669 0.74352
 O44 O 0.25929 0.71867 0.79432
 O45 O 0.30655 0.71804 0.74319
 O46 O 0.26252 0.77758 0.79483
 O47 O 0.20451 0.77869 0.76553
 O48 O 0.24925 0.71973 0.71307
 O49 O 0.20192 0.72046 0.76421
 O50 O 0.25108 0.77868 0.71395
 Cu51 Cu 0.29006 0.74753 0.77197
 Cu52 Cu 0.22101 0.74956 0.73610
 C53 C 0.28837 0.78767 0.72006
 C54 C 0.22193 0.70983 0.78805
 C55 C 0.28563 0.70878 0.71918
 C56 C 0.22579 0.78822 0.78929
 C57 C 0.97631 -0.00128 -0.00264
 C58 C 1.01961 -0.00072 -0.00236
 C59 C 1.04316 0.02114 0.01802
 C60 C 1.04507 -0.02208 -0.02216
 C61 C 0.95250 -0.01919 -0.02666
 C62 C 0.95115 0.01576 0.02137
 C63 C 1.03232 0.05197 0.01799
 C64 C 1.05172 0.07187 0.03928
 C65 C 1.08341 0.06154 0.06014
 C66 C 1.09613 0.03115 0.05889
 C67 C 1.07598 0.01105 0.03809
 C68 C 1.07845 -0.01133 -0.04116
 C69 C 1.10101 -0.03107 -0.06103
 C70 C 1.09017 -0.06175 -0.06241
 C71 C 1.05772 -0.07269 -0.04275
 C72 C 1.03594 -0.05314 -0.02233
 C73 C 0.92296 -0.04075 -0.01659
 C74 C 0.90380 -0.05993 -0.03880
 C75 C 0.91354 -0.05768 -0.07154
 C76 C 0.94164 -0.03506 -0.08168
 C77 C 0.96076 -0.01590 -0.05946
 C78 C 0.95853 0.01161 0.05418
 C79 C 0.93838 0.03006 0.07662
 C80 C 0.91024 0.05291 0.06668
 C81 C 0.90124 0.05593 0.03387
 C82 C 0.92137 0.03738 0.01143
 H83 H 1.00812 0.06051 0.00198
 H84 H 1.04195 0.09535 0.03956
 H85 H 1.12064 0.02281 0.07477
 H86 H 1.08517 -0.01254 0.03828
 H87 H 1.08639 0.01244 -0.04116
 H88 H 1.12610 -0.02229 -0.07598
 H89 H 1.01138 -0.06218 -0.00706
 H90 H 0.91612 -0.04359 0.00861
 H91 H 0.88256 -0.07726 -0.03020
 H92 H 0.94911 -0.03237 -0.10679
 H93 H 0.98290 0.00101 -0.06775
 H94 H 0.98085 -0.00537 0.06233
 H95 H 0.94526 0.02672 0.10174
 H96 H 0.87997 0.07343 0.02543
 H97 H 0.91519 0.04082 -0.01380
 H98 H 1.04939 -0.09640 -0.04316
 C99 C 0.47384 0.49946 0.49685
 C100 C 0.51711 0.49996 0.49661
 C101 C 0.54115 0.52191 0.51651
 C102 C 0.54210 0.47849 0.47666
 C103 C 0.44951 0.48140 0.47326
 C104 C 0.44927 0.51679 0.52098
 C105 C 0.53093 0.55283 0.51587
 C106 C 0.55103 0.57294 0.53656
 C107 C 0.58263 0.56268 0.55758
 C108 C 0.59457 0.53209 0.55698
 C109 C 0.57388 0.51184 0.53666
 C110 C 0.57452 0.48918 0.45673
 C111 C 0.59667 0.46929 0.43680
 C112 C 0.58653 0.43843 0.43635
 C113 C 0.55500 0.42761 0.45697
 C114 C 0.53345 0.44738 0.47730
 C115 C 0.42012 0.45993 0.48380
 C116 C 0.40041 0.44069 0.46191
 C117 C 0.40950 0.44277 0.42905
 C118 C 0.43743 0.46530 0.41846
 C119 C 0.45709 0.48453 0.44034
 C120 C 0.45719 0.51282 0.55374
 C121 C 0.43751 0.53146 0.57624
 C122 C 0.40935 0.55433 0.56643
 C123 C 0.39987 0.55723 0.53368
 C124 C 0.41951 0.53849 0.51117
 H125 H 0.50673 0.56128 0.49981
 H126 H 0.54183 0.59653 0.53623
 H127 H 0.61889 0.52372 0.57300
 H128 H 0.58255 0.48815 0.53731
 H129 H 0.58198 0.51303 0.45607
 H130 H 0.62092 0.47810 0.42109
 H131 H 0.50954 0.43846 0.49322
 H132 H 0.41380 0.45723 0.50909
 H133 H 0.37929 0.42343 0.47084
 H134 H 0.44439 0.46787 0.39326
 H135 H 0.47907 0.50137 0.43170
 H136 H 0.47951 0.49581 0.56178
 H137 H 0.44475 0.52821 0.60132
 H138 H 0.37858 0.57475 0.52532
 H139 H 0.41295 0.54180 0.48598
 H140 H 0.54720 0.40381 0.45742
 C141 C 0.01940 0.49903 0.00061
 C142 C -0.02388 0.49871 0.00087
 C143 C -0.04778 0.48068 0.02470
 C144 C -0.04883 0.51613 -0.02296
 C145 C 0.04317 0.52111 -0.01927
 C146 C 0.04458 0.47726 0.02006
 C147 C -0.07742 0.45923 0.01448
 C148 C -0.09666 0.43998 0.03657
 C149 C -0.08686 0.44203 0.06933
 C150 C -0.05865 0.46453 0.07961
 C151 C -0.03945 0.48375 0.05753
 C152 C -0.04174 0.51202 -0.05580
 C153 C -0.06187 0.53062 -0.07812
 C154 C -0.08958 0.55368 -0.06804
 C155 C -0.09815 0.55676 -0.03517
 C156 C -0.07813 0.53801 -0.01285
 C157 C 0.03302 0.55202 -0.01823
 C158 C 0.05294 0.57232 -0.03877
 C159 C 0.08431 0.56225 -0.06004
 C160 C 0.09617 0.53164 -0.05989
 C161 C 0.07565 0.51120 -0.03971
 C162 C 0.07736 0.48760 0.03990
 C163 C 0.09940 0.46743 0.05962
 C164 C 0.08877 0.43665 0.05991
 C165 C 0.05702 0.42617 0.03926
 C166 C 0.03559 0.44620 0.01916
 H167 H -0.08430 0.45656 -0.01074
 H168 H -0.11800 0.42275 0.02786
 H169 H -0.05114 0.46709 0.10474
 H170 H -0.01723 0.50056 0.06593
 H171 H -0.01977 0.49487 -0.06407
 H172 H -0.05533 0.52718 -0.10328
 H173 H -0.08403 0.54144 0.01241
 H174 H 0.00905 0.56035 -0.00192
 H175 H 0.04382 0.59592 -0.03810
 H176 H 0.12033 0.52342 -0.07611
 H177 H 0.08427 0.48752 -0.04067
 H178 H 0.08511 0.51139 0.04075
 H179 H 0.12382 0.47597 0.07536
 H180 H 0.04882 0.40244 0.03872
 H181 H 0.01138 0.43755 0.00329
 H182 H -0.11903 0.57443 -0.02659
 C183 C 0.52176 1.00110 0.50252
 C184 C 0.47849 1.00050 0.50315
 C185 C 0.45523 0.98205 0.52701
 C186 C 0.45262 1.01802 0.47993
 C187 C 0.54522 1.02320 0.48240
 C188 C 0.54730 0.97944 0.52185
 C189 C 0.42578 0.96048 0.51677
 C190 C 0.40673 0.94112 0.53883
 C191 C 0.41655 0.94317 0.57158
 C192 C 0.44472 0.96568 0.58188
 C193 C 0.46371 0.98504 0.55982
 C194 C 0.45960 1.01521 0.44690
 C195 C 0.43757 1.03354 0.42534
 C196 C 0.40785 1.05485 0.43638
 C197 C 0.39967 1.05669 0.46939
 C198 C 0.42173 1.03834 0.49094
 C199 C 0.53413 1.05400 0.48251
 C200 C 0.55375 1.07410 0.46157
 C201 C 0.58594 1.06402 0.44104
 C202 C 0.59886 1.03368 0.44221
 C203 C 0.57849 1.01338 0.46262
 C204 C 0.57955 0.98999 0.54205
 C205 C 0.60159 0.96993 0.56189
 C206 C 0.59149 0.93906 0.56194
 C207 C 0.56031 0.92838 0.54091
 C208 C 0.53888 0.94831 0.52069
 H209 H 0.41878 0.95789 0.49156
 H210 H 0.38543 0.92387 0.53012
 H211 H 0.45226 0.96821 0.60701
 H212 H 0.48577 1.00195 0.56824
 H213 H 0.48272 0.99920 0.43790
 H214 H 0.44393 1.03114 0.40002
 H215 H 0.41580 1.04075 0.51633
 H216 H 0.50963 1.06236 0.49833
 H217 H 0.54381 1.09755 0.46133
 H218 H 0.62373 1.02554 0.42656
 H219 H 0.58792 0.98983 0.46237
 H220 H 0.58681 1.01386 0.54311
 H221 H 0.62560 0.97862 0.57791
 H222 H 0.55255 0.90458 0.54016
 H223 H 0.51504 0.93954 0.50458
 H224 H 0.37722 1.07303 0.47867
 C225 C 1.15712 0.14388 0.15242
 C226 C 1.20099 0.14970 0.14969
 C227 C 1.22043 0.17071 0.17011
 C228 C 1.19711 0.18547 0.19422
 C229 C 1.15400 0.17837 0.19779
 C230 C 1.13423 0.15805 0.17715
 C231 C 1.13709 0.12260 0.12903
 C232 C 1.09300 0.11788 0.12750
 C233 C 1.07583 0.09813 0.10500
 C234 C 1.10212 0.08233 0.08380
 C235 C 1.14598 0.08683 0.08496
 C236 C 1.16353 0.10731 0.10691
 C237 C 1.22526 0.13432 0.12680
 C238 C 1.20708 0.11315 0.10630
 H239 H 1.25897 0.13848 0.12492
 H240 H 1.22731 0.10165 0.08922
 H241 H 1.25393 0.17532 0.16728
 H242 H 1.13502 0.18894 0.21628
 H243 H 1.04182 0.09496 0.10429
 H244 H 1.16625 0.07500 0.06815
 H245 H 1.10108 0.15366 0.18111
 H246 H 1.07119 0.12955 0.14307
 C247 C 0.65866 0.64537 0.64861
 C248 C 0.70336 0.64783 0.64833
 C249 C 0.72366 0.66832 0.66890
 C250 C 0.70012 0.68592 0.69049
 C251 C 0.65599 0.68259 0.69149
 C252 C 0.63547 0.66271 0.67082
 C253 C 0.63805 0.62419 0.62540
 C254 C 0.59375 0.62198 0.62200
 C255 C 0.57607 0.60209 0.59988
 C256 C 0.60197 0.58373 0.58078
 C257 C 0.64609 0.58574 0.58384
 C258 C 0.66428 0.60615 0.60558
 C259 C 0.72748 0.62971 0.62772
 C260 C 0.70840 0.60901 0.60714
 H261 H 0.76172 0.63137 0.62766
 H262 H 0.72850 0.59535 0.59185
 H263 H 0.75786 0.67038 0.66827
 H264 H 0.63707 0.69580 0.70800
 H265 H 0.54191 0.60080 0.59790
 H266 H 0.66621 0.57188 0.56874
 H267 H 0.60150 0.66123 0.67276
 H268 H 0.57216 0.63558 0.63589
 C269 C -0.15622 0.35371 0.15786
 C270 C -0.19883 0.34497 0.15302
 C271 C -0.21733 0.32310 0.17286
 C272 C -0.19411 0.30971 0.19780
 C273 C -0.15205 0.31865 0.20276
 C274 C -0.13329 0.34030 0.18311
 C275 C -0.13748 0.37681 0.13579
 C276 C -0.09515 0.38656 0.13810
 C277 C -0.07909 0.40784 0.11672
 C278 C -0.10470 0.42008 0.09251
 C279 C -0.14696 0.41063 0.09009
 C280 C -0.16341 0.38912 0.11136
 C281 C -0.22277 0.35808 0.12842
 C282 C -0.20549 0.37973 0.10812
 H283 H -0.25543 0.35146 0.12477
 H284 H -0.22535 0.38914 0.08943
 H285 H -0.24994 0.31652 0.16884
 H286 H -0.13337 0.30876 0.22183
 H287 H -0.04614 0.41429 0.11878
 H288 H -0.16717 0.42013 0.07166
 H289 H -0.10086 0.34614 0.18815
 H290 H -0.07373 0.37786 0.15597
 C291 C 0.34642 0.85499 0.65988
 C292 C 0.30371 0.84651 0.65503
 C293 C 0.28500 0.82466 0.67477
 C294 C 0.30812 0.81100 0.69958
 C295 C 0.35030 0.81966 0.70456
 C296 C 0.36925 0.84132 0.68503
 C297 C 0.36537 0.87809 0.63791
 C298 C 0.40779 0.88765 0.64026
 C299 C 0.42406 0.90890 0.61894
 C300 C 0.39855 0.92128 0.59474
 C301 C 0.35621 0.91205 0.59231
 C302 C 0.33955 0.89059 0.61353
 C303 C 0.27988 0.85983 0.63051
 C304 C 0.29737 0.88145 0.61027
 H305 H 0.24714 0.85341 0.62685
 H306 H 0.27760 0.89102 0.59162
 H307 H 0.25232 0.81828 0.67073
 H308 H 0.36889 0.80956 0.72355
 H309 H 0.45705 0.91522 0.62102
 H310 H 0.33608 0.92169 0.57391
 H311 H 0.40177 0.84695 0.69005
 H312 H 0.42911 0.87882 0.65814
 C313 C -0.15972 0.64029 -0.15866
 C314 C -0.20132 0.65094 -0.15284
 C315 C -0.21957 0.67278 -0.17306
 C316 C -0.19713 0.68418 -0.19950
 C317 C -0.15618 0.67294 -0.20550
 C318 C -0.13774 0.65140 -0.18546
 C319 C -0.14092 0.61763 -0.13600
 C320 C -0.09913 0.60669 -0.13890
 C321 C -0.08290 0.58591 -0.11699
 C322 C -0.10780 0.57526 -0.09163
 C323 C -0.14951 0.58601 -0.08852
 C324 C -0.16606 0.60718 -0.11029
 C325 C -0.22449 0.63974 -0.12688
 C326 C -0.20736 0.61819 -0.10622
 H327 H -0.25644 0.64774 -0.12247
 H328 H -0.22663 0.61025 -0.08652
 H329 H -0.25134 0.68089 -0.16806
 H330 H -0.13790 0.68094 -0.22570
 H331 H -0.05030 0.57861 -0.11958
 H332 H -0.16919 0.57785 -0.06915
 H333 H -0.10626 0.64382 -0.19147
 H334 H -0.07818 0.61415 -0.15761
 C335 C 0.32738 1.14015 0.34941
 C336 C 0.35300 1.15229 0.32482
 C337 C 0.33623 1.17376 0.30354
 C338 C 0.29419 1.18380 0.30649
 C339 C 0.26888 1.17178 0.33090
 C340 C 0.28512 1.15023 0.35203
 C341 C 0.34668 1.11744 0.37180
 C342 C 0.32388 1.10376 0.39686
 C343 C 0.34361 1.08326 0.41749
 C344 C 0.38651 1.07577 0.41370
 C345 C 0.40934 1.08897 0.38855
 C346 C 0.38984 1.10957 0.36765
 C347 C 0.39535 1.14322 0.32179
 C348 C 0.41341 1.12243 0.34282
 H349 H 0.41498 1.15253 0.30299
 H350 H 0.44642 1.11636 0.33960
 H351 H 0.35622 1.18296 0.28489
 H352 H 0.23633 1.17909 0.33375
 H353 H 0.32510 1.07308 0.43640
 H354 H 0.44267 1.08369 0.38563
 H355 H 0.26411 1.14196 0.37033
 H356 H 0.29085 1.10855 0.40102
 C357 C 1.17346 -0.14599 -0.14815
 C358 C 1.14819 -0.15940 -0.17220
 C359 C 1.16604 -0.18045 -0.19347
 C360 C 1.20854 -0.18968 -0.19031
 C361 C 1.23311 -0.17689 -0.16575
 C362 C 1.21600 -0.15522 -0.14516
 C363 C 1.15332 -0.12329 -0.12624
 C364 C 1.17647 -0.10660 -0.10345
 C365 C 1.15599 -0.08624 -0.08310
 C366 C 1.11204 -0.08236 -0.08471
 C367 C 1.08878 -0.09827 -0.10770
 C368 C 1.10915 -0.11820 -0.12883
 C369 C 1.10497 -0.15241 -0.17433
 C370 C 1.08570 -0.13273 -0.15271
 H371 H 1.08550 -0.16285 -0.19257
 H372 H 1.05198 -0.12856 -0.15494
 H373 H 1.14622 -0.19035 -0.21186
 H374 H 1.26588 -0.18350 -0.16239
 H375 H 1.17438 -0.07385 -0.06563
 H376 H 1.05483 -0.09474 -0.10937
 H377 H 1.23639 -0.14644 -0.12670
 H378 H 1.21036 -0.10878 -0.10112
 C379 C 0.66997 0.35408 0.35050
 C380 C 0.64357 0.33647 0.33051
 C381 C 0.66143 0.31522 0.30949
 C382 C 0.70536 0.31042 0.30873
 C383 C 0.73141 0.32744 0.32899
 C384 C 0.71408 0.34911 0.34948
 C385 C 0.64962 0.37668 0.37244
 C386 C 0.67306 0.39668 0.39178
 C387 C 0.65253 0.41693 0.41223
 C388 C 0.60825 0.41754 0.41412
 C389 C 0.58458 0.39816 0.39461
 C390 C 0.60483 0.37810 0.37355
 C391 C 0.59948 0.33966 0.33209
 C392 C 0.58051 0.35972 0.35346
 H393 H 0.57925 0.32606 0.31692
 H394 H 0.54624 0.36101 0.35411
 H395 H 0.64097 0.30182 0.29429
 H396 H 0.76541 0.32407 0.32893
 H397 H 0.67131 0.43185 0.42704
 H398 H 0.55026 0.39904 0.39554
 H399 H 0.73570 0.36137 0.36460
 H400 H 0.70719 0.39716 0.39140
 C401 C 0.84466 -0.14653 -0.15974
 C402 C 0.80211 -0.15537 -0.15485
 C403 C 0.78375 -0.17746 -0.17449
 C404 C 0.80704 -0.19102 -0.19927
 C405 C 0.84907 -0.18204 -0.20427
 C406 C 0.86770 -0.16014 -0.18482
 C407 C 0.86323 -0.12316 -0.13789
 C408 C 0.90546 -0.11321 -0.14030
 C409 C 0.92141 -0.09177 -0.11902
 C410 C 0.89577 -0.07958 -0.09481
 C411 C 0.85358 -0.08914 -0.09237
 C412 C 0.83725 -0.11081 -0.11354
 C413 C 0.77809 -0.14216 -0.13039
 C414 C 0.79524 -0.12031 -0.11024
 H415 H 0.74548 -0.14885 -0.12670
 H416 H 0.77534 -0.11085 -0.09162
 H417 H 0.75117 -0.18408 -0.17044
 H418 H 0.86778 -0.19206 -0.22323
 H419 H 0.95429 -0.08520 -0.12112
 H420 H 0.83334 -0.07965 -0.07397
 H421 H 0.90011 -0.15427 -0.18985
 H422 H 0.92688 -0.12188 -0.15818
 C423 C 0.33910 0.35387 0.34159
 C424 C 0.29652 0.34519 0.34668
 C425 C 0.27784 0.32313 0.32713
 C426 C 0.30090 0.30944 0.30231
 C427 C 0.34296 0.31828 0.29715
 C428 C 0.36185 0.34015 0.31646
 C429 C 0.35803 0.37719 0.36333
 C430 C 0.40029 0.38700 0.36063
 C431 C 0.41659 0.40843 0.38175
 C432 C 0.39130 0.42075 0.40608
 C433 C 0.34910 0.41129 0.40886
 C434 C 0.33239 0.38964 0.38782
 C435 C 0.27283 0.35850 0.37127
 C436 C 0.29034 0.38028 0.39134
 H437 H 0.24020 0.35193 0.37513
 H438 H 0.27068 0.38982 0.41007
 H439 H 0.24526 0.31659 0.33132
 H440 H 0.36153 0.30816 0.27817
 H441 H 0.44948 0.41492 0.37940
 H442 H 0.32914 0.42086 0.42738
 H443 H 0.39427 0.34588 0.31128
 H444 H 0.42147 0.37826 0.34264
 C445 C 0.15985 0.64621 -0.14986
 C446 C 0.20453 0.64878 -0.14952
 C447 C 0.22471 0.66959 -0.16975
 C448 C 0.20106 0.68741 -0.19108
 C449 C 0.15695 0.68400 -0.19214
 C450 C 0.13654 0.66380 -0.17180
 C451 C 0.13936 0.62466 -0.12700
 C452 C 0.09508 0.62230 -0.12365
 C453 C 0.07751 0.60210 -0.10183
 C454 C 0.10352 0.58355 -0.08302
 C455 C 0.14763 0.58567 -0.08605
 C456 C 0.16570 0.60640 -0.10746
 C457 C 0.22876 0.63042 -0.12919
 C458 C 0.20980 0.60938 -0.10897
 H459 H 0.26299 0.63216 -0.12910
 H460 H 0.22998 0.59556 -0.09389
 H461 H 0.25890 0.67171 -0.16909
 H462 H 0.13795 0.69738 -0.20847
 H463 H 0.04336 0.60072 -0.09985
 H464 H 0.16782 0.57166 -0.07115
 H465 H 0.10258 0.66226 -0.17377
 H466 H 0.07341 0.63605 -0.13733
 C467 C 0.66094 1.14616 0.34930
 C468 C 0.70459 1.15245 0.35276
 C469 C 0.72432 1.17325 0.33227
 C470 C 0.70155 1.18725 0.30735
 C471 C 0.65870 1.17965 0.30310
 C472 C 0.63863 1.15960 0.32382
 C473 C 0.64055 1.12510 0.37269
 C474 C 0.59651 1.12003 0.37351
 C475 C 0.57900 1.10035 0.39591
 C476 C 0.60494 1.08497 0.41771
 C477 C 0.64873 1.08991 0.41734
 C478 C 0.66657 1.11034 0.39550
 C479 C 0.72840 1.13769 0.37638
 C480 C 0.70997 1.11663 0.39686
 H481 H 0.76195 1.14221 0.37884
 H482 H 0.72986 1.10556 0.41448
 H483 H 0.75763 1.17825 0.33564
 H484 H 0.64015 1.18963 0.28399
 H485 H 0.54505 1.09686 0.39604
 H486 H 0.66868 1.07841 0.43464
 H487 H 0.60571 1.15478 0.31930
 H488 H 0.57497 1.13136 0.35743
 C489 C 0.16934 0.35188 0.14690
 C490 C 0.14227 0.33494 0.16699
 C491 C 0.15933 0.31384 0.18853
 C492 C 0.20312 0.30852 0.18978
 C493 C 0.22985 0.32478 0.16937
 C494 C 0.21330 0.34631 0.14831
 C495 C 0.14980 0.37447 0.12453
 C496 C 0.17393 0.39394 0.10510
 C497 C 0.15410 0.41433 0.08437
 C498 C 0.10986 0.41556 0.08228
 C499 C 0.08552 0.39666 0.10182
 C500 C 0.10506 0.37652 0.12316
 C501 C 0.09828 0.33869 0.16507
 C502 C 0.08006 0.35872 0.14332
 H503 H 0.07755 0.32559 0.18031
 H504 H 0.04583 0.36049 0.14245
 H505 H 0.13832 0.30101 0.20384
 H506 H 0.26376 0.32098 0.16979
 H507 H 0.17338 0.42888 0.06955
 H508 H 0.05124 0.39804 0.10074
 H509 H 0.23539 0.35803 0.13313
 H510 H 0.20807 0.39393 0.10566
 C511 C 0.67281 0.85402 0.64822
 C512 C 0.64595 0.83644 0.66786
 C513 C 0.66330 0.81499 0.68891
 C514 C 0.70717 0.80996 0.69001
 C515 C 0.73366 0.82696 0.67010
 C516 C 0.71684 0.84883 0.64960
 C517 C 0.65301 0.87682 0.62623
 C518 C 0.67694 0.89681 0.60723
 C519 C 0.65692 0.91723 0.58667
 C520 C 0.61269 0.91802 0.58431
 C521 C 0.58853 0.89867 0.60350
 C522 C 0.60826 0.87845 0.62468
 C523 C 0.60191 0.83986 0.66588
 C524 C 0.58346 0.86011 0.64443
 H525 H 0.58133 0.82630 0.68077
 H526 H 0.54921 0.86156 0.64346
 H527 H 0.64251 0.80161 0.70384
 H528 H 0.76762 0.82342 0.67043
 H529 H 0.67606 0.93213 0.57214
 H530 H 0.55424 0.89971 0.60222
 H531 H 0.73880 0.86105 0.63476
 H532 H 0.71106 0.89715 0.60798
 C533 C 0.84055 0.13994 0.15692
 C534 C 0.79834 0.14970 0.15176
 C535 C 0.78009 0.17159 0.17190
 C536 C 0.80322 0.18394 0.19741
 C537 C 0.84480 0.17385 0.20273
 C538 C 0.86327 0.15221 0.18284
 C539 C 0.85920 0.11706 0.13445
 C540 C 0.90128 0.10660 0.13696
 C541 C 0.91740 0.08567 0.11517
 C542 C 0.89209 0.07442 0.09031
 C543 C 0.85005 0.08459 0.08766
 C544 C 0.83357 0.10583 0.10936
 C545 C 0.77463 0.13763 0.12651
 C546 C 0.79180 0.11609 0.10586
 H547 H 0.74227 0.14499 0.12260
 H548 H 0.77214 0.10751 0.08667
 H549 H 0.74784 0.17906 0.16761
 H550 H 0.86341 0.18288 0.22226
 H551 H 0.95020 0.07874 0.11741
 H552 H 0.83008 0.07591 0.06870
 H553 H 0.89533 0.14550 0.18821
 H554 H 0.92253 0.11452 0.15530
 C555 C 0.34097 0.64143 0.65720
 C556 C 0.29876 0.65131 0.65228
 C557 C 0.28078 0.67315 0.67261
 C558 C 0.30414 0.68529 0.69811
 C559 C 0.34571 0.67507 0.70320
 C560 C 0.36392 0.65349 0.68310
 C561 C 0.35933 0.61860 0.63453
 C562 C 0.40141 0.60809 0.63675
 C563 C 0.41722 0.58716 0.61482
 C564 C 0.39159 0.57596 0.59013
 C565 C 0.34957 0.58622 0.58774
 C566 C 0.33339 0.60747 0.60956
 C567 C 0.27478 0.63938 0.62710
 C568 C 0.29164 0.61784 0.60631
 H569 H 0.24241 0.64683 0.62338
 H570 H 0.27176 0.60935 0.58720
 H571 H 0.24853 0.68071 0.66851
 H572 H 0.36449 0.68394 0.72272
 H573 H 0.45002 0.58017 0.61685
 H574 H 0.32935 0.57759 0.56890
 H575 H 0.39599 0.64666 0.68832
 H576 H 0.42289 0.61596 0.65495
   
