data_POSCAR
  _audit_creation_date              2014-09-24
  _audit_creation_method            'ToBaCCo'
  _symmetry_space_group_name_H-M    'P1'
  _symmetry_Int_Tables_number       1
  _symmetry_cell_setting            triclinic
  loop_
  _symmetry_equiv_pos_as_xyz
 x,y,z
_cell_length_a 56.8392
_cell_length_b 56.1766
_cell_length_c 28.1051
_cell_angle_alpha 90.048700
_cell_angle_beta 90.267400
_cell_angle_gamma 119.401500
loop_
  _atom_site_label
  _atom_site_type_symbol
  _atom_site_fract_x
  _atom_site_fract_y
  _atom_site_fract_z
C1 C 0.15606 0.43925 0.47956
 C2 C 0.17070 0.44414 0.43678
 C3 C 0.19823 0.45151 0.44019
 C4 C 0.21041 0.45181 0.48403
 C5 C 0.19468 0.44567 0.52553
 C6 C 0.16802 0.44125 0.52458
 C7 C 0.23969 0.45931 0.48688
 C8 C 0.25449 0.47021 0.52935
 C9 C 0.28138 0.47594 0.53396
 C10 C 0.29436 0.47289 0.49398
 C11 C 0.28087 0.46405 0.45014
 C12 C 0.25329 0.45618 0.44739
 H13 H 0.13528 0.43424 0.47777
 H14 H 0.21066 0.45845 0.40887
 H15 H 0.20308 0.44370 0.55883
 H16 H 0.24536 0.47472 0.55912
 H17 H 0.31502 0.47700 0.49691
 H18 H 0.24278 0.44809 0.41408
 C19 C 0.58453 -0.26988 0.49458
 C20 C 0.58347 -0.25751 0.45167
 C21 C 0.58014 -0.23435 0.45425
 C22 C 0.57372 -0.22590 0.49714
 C23 C 0.57272 -0.24029 0.53901
 C24 C 0.57926 -0.26152 0.53872
 C25 C 0.56733 -0.20278 0.49754
 C26 C 0.56774 -0.18923 0.54022
 C27 C 0.56000 -0.16896 0.54109
 C28 C 0.55357 -0.16076 0.49806
 C29 C 0.55470 -0.17253 0.45495
 C30 C 0.56046 -0.19406 0.45504
 H31 H 0.58636 -0.28813 0.49341
 H32 H 0.58311 -0.22271 0.42220
 H33 H 0.56764 -0.23454 0.57233
 H34 H 0.57449 -0.19384 0.57310
 H35 H 0.54793 -0.14494 0.49775
 H36 H 0.55906 -0.20390 0.42134
 C37 C 1.29650 0.83204 0.51191
 C38 C 1.28566 0.81690 0.46977
 C39 C 1.25890 0.79511 0.47104
 C40 C 1.24234 0.78993 0.51132
 C41 C 1.25381 0.80620 0.55236
 C42 C 1.28113 0.82636 0.55344
 C43 C 1.21357 0.76704 0.51045
 C44 C 1.20014 0.75418 0.55281
 C45 C 1.17351 0.73190 0.55237
 C46 C 1.16087 0.72190 0.50786
 C47 C 1.17405 0.73379 0.46528
 C48 C 1.19973 0.75691 0.46691
 H49 H 1.31670 0.84936 0.51264
 H50 H 1.25137 0.78130 0.44110
 H51 H 1.24192 0.80306 0.58400
 H52 H 1.21108 0.76028 0.58609
 H53 H 1.14058 0.70481 0.50565
 H54 H 1.20879 0.76661 0.43360
 C55 C 0.83389 0.54268 0.50315
 C56 C 0.82793 0.54970 0.45859
 C57 C 0.80473 0.55227 0.45338
 C58 C 0.78615 0.54566 0.49083
 C59 C 0.79222 0.53779 0.53489
 C60 C 0.81628 0.53684 0.54172
 C61 C 0.75992 0.54552 0.48309
 C62 C 0.74593 0.54886 0.52153
 C63 C 0.72020 0.54665 0.51550
 C64 C 0.70977 0.54322 0.46879
 C65 C 0.72371 0.54075 0.42983
 C66 C 0.74827 0.54121 0.43734
 H67 H 0.85238 0.54180 0.50764
 H68 H 0.80085 0.55853 0.41926
 H69 H 0.77788 0.53138 0.56372
 H70 H 0.75555 0.55405 0.55608
 H71 H 0.69014 0.54121 0.46213
 H72 H 0.75765 0.53733 0.40719
 C73 C 0.41653 0.27840 0.50560
 C74 C 0.42365 0.27020 0.46367
 C75 C 0.42572 0.24645 0.46346
 C76 C 0.41914 0.22973 0.50398
 C77 C 0.41221 0.23850 0.54622
 C78 C 0.41213 0.26367 0.54837
 C79 C 0.42032 0.20366 0.50208
 C80 C 0.42720 0.19363 0.54282
 C81 C 0.42917 0.16954 0.54099
 C82 C 0.42432 0.15587 0.49699
 C83 C 0.41899 0.16618 0.45548
 C84 C 0.41593 0.18938 0.45867
 H85 H 0.41454 0.29656 0.50424
 H86 H 0.43245 0.24116 0.43124
 H87 H 0.40800 0.22613 0.57768
 H88 H 0.43271 0.20559 0.57517
 H89 H 0.42397 0.13648 0.49464
 H90 H 0.41076 0.19661 0.42684
 C91 C 0.71761 0.16112 0.53287
 C92 C 0.72711 0.17338 0.48860
 C93 C 0.75423 0.19352 0.48378
 C94 C 0.77255 0.20059 0.52223
 C95 C 0.76279 0.18636 0.56554
 C96 C 0.73527 0.16742 0.57180
 C97 C 0.80135 0.22317 0.51782
 C98 C 0.81621 0.23747 0.55857
 C99 C 0.84328 0.25859 0.55570
 C100 C 0.85496 0.26630 0.51029
 C101 C 0.84015 0.25365 0.46894
 C102 C 0.81388 0.23151 0.47303
 H103 H 0.69636 0.14649 0.53665
 H104 H 0.76049 0.20386 0.44999
 H105 H 0.77649 0.18964 0.59473
 H106 H 0.80683 0.23184 0.59300
 H107 H 0.87486 0.28392 0.50652
 H108 H 0.80342 0.22117 0.44079
 O109 O 0.96729 0.51557 -0.05294
 O110 O 1.02768 0.51853 0.09860
 O111 O 0.94752 0.48826 0.04516
 O112 O 1.05046 0.55004 -0.04461
 O113 O 0.98480 0.51772 0.07778
 O114 O 1.01281 0.54570 -0.07008
 O115 O 1.04640 0.54776 0.04313
 O116 O 0.93999 0.47464 -0.04076
 C117 C 0.94398 0.49698 -0.05593
 C118 C 1.04295 0.54264 0.08640
 C119 C 0.96043 0.50936 0.07034
 C120 C 1.03769 0.55948 -0.06639
 O121 O 1.02090 0.50490 -0.10163
 O122 O 0.98016 0.47595 0.12021
 O123 O 0.96360 0.44517 -0.02954
 O124 O 1.04960 0.50117 0.04024
 O125 O 1.01023 0.47018 0.06330
 O126 O 0.97292 0.47243 -0.09041
 O127 O 1.05000 0.50432 -0.04967
 O128 O 0.96246 0.44937 0.05809
 Co129 Co 0.99355 0.50863 -0.07267
 Co130 Co 0.99709 0.49407 0.06724
 Co131 Co 0.95803 0.46820 0.00766
 Co132 Co 1.04458 0.52336 -0.00189
 O133 O 1.00044 0.50064 -0.00288
 C134 C 1.04065 0.50107 -0.09145
 C135 C 0.96199 0.45225 0.10310
 C136 C 0.96637 0.44908 -0.07362
 C137 C 1.03482 0.47842 0.05931
 O138 O 0.46051 0.45455 -0.06981
 O139 O 0.48290 0.50499 0.08348
 O140 O 0.49521 0.44944 0.03109
 O141 O 0.46709 0.53189 -0.05120
 O142 O 0.51050 0.48294 0.08253
 O143 O 0.45183 0.49026 -0.06005
 O144 O 0.45843 0.50568 0.02594
 O145 O 0.49229 0.44548 -0.05816
 C146 C 0.46876 0.43795 -0.07132
 C147 C 0.46021 0.49989 0.06800
 C148 C 0.49818 0.45763 0.07323
 C149 C 0.44893 0.51032 -0.06805
 O150 O 0.50050 0.52621 -0.10267
 O151 O 0.55031 0.52791 0.03920
 O152 O 0.53934 0.48759 -0.06564
 O153 O 0.49089 0.55692 0.02802
 O154 O 0.52447 0.55049 0.04351
 O155 O 0.50879 0.48770 -0.11373
 O156 O 0.51759 0.55333 -0.04145
 O157 O 0.54533 0.48848 0.02323
 Co158 Co 0.48191 0.49059 -0.08108
 Co159 Co 0.51552 0.51517 0.05595
 Co160 Co 0.51630 0.47079 -0.01684
 Co161 Co 0.48888 0.52861 -0.00633
 O162 O 0.50025 0.49940 -0.01402
 C163 C 0.51669 0.54960 -0.08570
 C164 C 0.55996 0.51241 0.03766
 C165 C 0.53206 0.49037 -0.10651
 C166 C 0.51186 0.56304 0.05439
 O167 O 0.54876 0.02554 -0.04195
 O168 O 0.50158 -0.01841 0.10003
 O169 O 0.54453 0.05943 0.06330
 O170 O 0.48193 -0.05915 -0.03256
 O171 O 0.51447 0.03012 0.11298
 O172 O 0.51862 -0.02212 -0.04862
 O173 O 0.51311 -0.03136 0.03525
 O174 O 0.54880 0.06285 -0.02612
 C175 C 0.56100 0.05081 -0.04069
 C176 C 0.51434 -0.02875 0.07968
 C177 C 0.53772 0.05020 0.10467
 C178 C 0.50288 -0.04688 -0.05940
 O179 O 0.47952 -0.01195 -0.08382
 O180 O 0.46621 0.01950 0.07546
 O181 O 0.49989 0.05697 -0.03096
 O182 O 0.46326 -0.05567 0.04879
 O183 O 0.45290 -0.02591 0.06327
 O184 O 0.51190 0.03666 -0.08345
 O185 O 0.45490 -0.03443 -0.02474
 O186 O 0.49900 0.05896 0.05787
 Co187 Co 0.51346 0.00719 -0.05800
 Co188 Co 0.48517 0.00176 0.08217
 Co189 Co 0.52099 0.05481 0.01542
 Co190 Co 0.48495 -0.03119 0.00394
 O191 O 0.50114 0.00992 0.01312
 C192 C 0.45652 -0.02699 -0.06683
 C193 C 0.47601 0.04457 0.07475
 C194 C 0.50104 0.05092 -0.07322
 C195 C 0.44776 -0.04974 0.06958
 C196 C 1.13282 0.43730 0.30222
 C197 C 1.12216 0.44207 0.34348
 C198 C 1.13477 0.44484 0.38736
 C199 C 1.15823 0.44220 0.39163
 C200 C 1.16867 0.43727 0.34929
 C201 C 1.15628 0.43518 0.30517
 C202 C 1.11997 0.43616 0.25612
 C203 C 1.09342 0.41558 0.24703
 C204 C 1.07946 0.41716 0.20720
 C205 C 1.09157 0.43983 0.17658
 C206 C 1.11880 0.45960 0.18458
 C207 C 1.13291 0.45764 0.22381
 C208 C 1.07516 0.44477 0.14052
 C209 C 1.08710 0.45976 0.09896
 C210 C 1.07330 0.46934 0.07052
 C211 C 1.04708 0.46358 0.08244
 C212 C 1.03419 0.44652 0.12129
 C213 C 1.04815 0.43744 0.15030
 H214 H 1.10440 0.44449 0.34148
 H215 H 1.12639 0.45026 0.41713
 H216 H 1.18589 0.43399 0.34979
 H217 H 1.16476 0.43151 0.27340
 H218 H 1.08320 0.39881 0.27172
 H219 H 1.05882 0.40118 0.20157
 H220 H 1.12878 0.47759 0.16247
 H221 H 1.15333 0.47385 0.23070
 H222 H 1.10755 0.46514 0.08949
 H223 H 1.08356 0.48222 0.04036
 H224 H 1.01402 0.44189 0.13144
 H225 H 1.03828 0.42628 0.18217
 C226 C 0.57591 0.70063 0.32122
 C227 C 0.59222 0.69982 0.35825
 C228 C 0.59565 0.71431 0.40056
 C229 C 0.58323 0.73053 0.40691
 C230 C 0.56839 0.73267 0.36822
 C231 C 0.56457 0.71775 0.32642
 C232 C 0.56917 0.68238 0.27886
 C233 C 0.56427 0.69037 0.23404
 C234 C 0.55570 0.67223 0.19546
 C235 C 0.55243 0.64595 0.20063
 C236 C 0.55795 0.63813 0.24483
 C237 C 0.56600 0.65602 0.28359
 C238 C 0.54301 0.62641 0.16039
 C239 C 0.55707 0.61259 0.14853
 C240 C 0.54735 0.59272 0.11287
 C241 C 0.52306 0.58586 0.08891
 C242 C 0.50931 0.60018 0.09987
 C243 C 0.51932 0.62046 0.13518
 H244 H 0.60212 0.68764 0.35489
 H245 H 0.60833 0.71291 0.42799
 H246 H 0.55770 0.74408 0.37113
 H247 H 0.55148 0.71860 0.29921
 H248 H 0.56699 0.71064 0.22869
 H249 H 0.55183 0.67876 0.16148
 H250 H 0.55529 0.61783 0.24972
 H251 H 0.56891 0.64880 0.31760
 H252 H 0.57553 0.61707 0.16715
 H253 H 0.55867 0.58238 0.10469
 H254 H 0.49058 0.59533 0.08189
 H255 H 0.50810 0.63083 0.14397
 C256 C 0.33123 -0.15628 0.34216
 C257 C 0.34434 -0.15142 0.38633
 C258 C 0.32951 -0.16127 0.42807
 C259 C 0.30096 -0.17602 0.42703
 C260 C 0.28811 -0.18213 0.38189
 C261 C 0.30308 -0.17240 0.34013
 C262 C 0.34677 -0.14264 0.29898
 C263 C 0.34250 -0.15702 0.25597
 C264 C 0.35696 -0.14351 0.21520
 C265 C 0.37543 -0.11537 0.21673
 C266 C 0.37958 -0.10110 0.25975
 C267 C 0.36549 -0.11460 0.30046
 C268 C 0.39087 -0.10061 0.17416
 C269 C 0.39334 -0.07520 0.16245
 C270 C 0.41073 -0.05938 0.12639
 C271 C 0.42618 -0.06855 0.10162
 C272 C 0.42264 -0.09462 0.11149
 C273 C 0.40499 -0.11061 0.14741
 H274 H 0.36615 -0.13961 0.38861
 H275 H 0.34077 -0.15736 0.46096
 H276 H 0.26636 -0.19273 0.37832
 H277 H 0.29250 -0.17624 0.30641
 H278 H 0.32816 -0.17867 0.25405
 H279 H 0.35345 -0.15491 0.18237
 H280 H 0.39395 -0.07945 0.26196
 H281 H 0.36888 -0.10300 0.33302
 H282 H 0.38237 -0.06724 0.18220
 H283 H 0.41294 -0.03942 0.11932
 H284 H 0.43433 -0.10214 0.09286
 H285 H 0.40345 -0.13012 0.15594
 C286 C 0.86939 0.55005 0.33061
 C287 C 0.86437 0.53084 0.36662
 C288 C 0.85199 0.53156 0.40890
 C289 C 0.84428 0.55151 0.41624
 C290 C 0.85020 0.57140 0.38097
 C291 C 0.86276 0.57075 0.33861
 C292 C 0.88068 0.54772 0.28446
 C293 C 0.90153 0.57078 0.26221
 C294 C 0.91330 0.56791 0.22048
 C295 C 0.90427 0.54195 0.20005
 C296 C 0.88266 0.51912 0.22139
 C297 C 0.87103 0.52197 0.26304
 C298 C 0.91879 0.53797 0.15970
 C299 C 0.90458 0.51818 0.12444
 C300 C 0.91832 0.51033 0.09249
 C301 C 0.94653 0.52212 0.09523
 C302 C 0.96089 0.54361 0.12765
 C303 C 0.94716 0.55144 0.15958
 H304 H 0.86969 0.51494 0.36177
 H305 H 0.84745 0.51577 0.43508
 H306 H 0.84470 0.58716 0.38582
 H307 H 0.86642 0.58583 0.31146
 H308 H 0.90934 0.59088 0.27796
 H309 H 0.92980 0.58590 0.20467
 H310 H 0.87545 0.49879 0.20705
 H311 H 0.85468 0.50389 0.27896
 H312 H 0.88273 0.50783 0.12305
 H313 H 0.90672 0.49388 0.06763
 H314 H 0.98267 0.55317 0.13054
 H315 H 0.95871 0.56665 0.18638
 C316 C 0.44300 0.32207 0.34123
 C317 C 0.46030 0.31224 0.35600
 C318 C 0.45370 0.29484 0.39512
 C319 C 0.42981 0.28718 0.42041
 C320 C 0.41231 0.29667 0.40523
 C321 C 0.41879 0.31387 0.36586
 C322 C 0.45059 0.34154 0.30122
 C323 C 0.43150 0.33838 0.26628
 C324 C 0.43864 0.35710 0.22905
 C325 C 0.46491 0.37947 0.22642
 C326 C 0.48397 0.38262 0.26139
 C327 C 0.47691 0.36377 0.29831
 C328 C 0.47254 0.39948 0.18730
 C329 C 0.48758 0.42762 0.19686
 C330 C 0.49551 0.44652 0.15987
 C331 C 0.48875 0.43764 0.11249
 C332 C 0.47340 0.40949 0.10300
 C333 C 0.46528 0.39060 0.14009
 H334 H 0.47898 0.31809 0.33733
 H335 H 0.46759 0.28793 0.40637
 H336 H 0.39368 0.29087 0.42401
 H337 H 0.40521 0.32133 0.35542
 H338 H 0.41111 0.32132 0.26762
 H339 H 0.42354 0.35433 0.20268
 H340 H 0.50443 0.39955 0.25990
 H341 H 0.49192 0.36683 0.32508
 H342 H 0.49314 0.43499 0.23304
 H343 H 0.50723 0.46808 0.16835
 H344 H 0.46782 0.40204 0.06687
 H345 H 0.45384 0.36900 0.13177
 C346 C 0.67199 0.14160 0.37059
 C347 C 0.66531 0.15188 0.41079
 C348 C 0.68347 0.16283 0.44889
 C349 C 0.70878 0.16419 0.44690
 C350 C 0.71582 0.15483 0.40596
 C351 C 0.69747 0.14339 0.36829
 C352 C 0.65208 0.12817 0.33185
 C353 C 0.64561 0.10186 0.31637
 C354 C 0.62648 0.08887 0.28029
 C355 C 0.61393 0.10221 0.25846
 C356 C 0.62053 0.12860 0.27368
 C357 C 0.63925 0.14136 0.31048
 C358 C 0.59431 0.08880 0.21933
 C359 C 0.59765 0.10234 0.17589
 C360 C 0.57942 0.08961 0.13852
 C361 C 0.55717 0.06329 0.14420
 C362 C 0.55363 0.04990 0.18797
 C363 C 0.57225 0.06242 0.22503
 H364 H 0.64572 0.15062 0.41329
 H365 H 0.67768 0.16998 0.48016
 H366 H 0.73517 0.15551 0.40388
 H367 H 0.70308 0.13574 0.33746
 H368 H 0.65515 0.09125 0.33263
 H369 H 0.62177 0.06857 0.26887
 H370 H 0.61099 0.13919 0.25738
 H371 H 0.64399 0.16167 0.32187
 H372 H 0.61461 0.12264 0.17070
 H373 H 0.58259 0.10051 0.10531
 H374 H 0.53658 0.02971 0.19347
 H375 H 0.56924 0.05170 0.25840
 C376 C 0.44809 0.13615 -0.33829
 C377 C 0.43647 0.15296 -0.33219
 C378 C 0.43067 0.16447 -0.37163
 C379 C 0.43631 0.15937 -0.41832
 C380 C 0.44904 0.14332 -0.42349
 C381 C 0.45469 0.13186 -0.38423
 C382 C 0.45335 0.12284 -0.29730
 C383 C 0.44745 0.09550 -0.30084
 C384 C 0.45395 0.08325 -0.26375
 C385 C 0.46654 0.09807 -0.22224
 C386 C 0.47181 0.12522 -0.21814
 C387 C 0.46523 0.13748 -0.25530
 C388 C 0.47474 0.08542 -0.18397
 C389 C 0.47163 0.09010 -0.13591
 C390 C 0.47994 0.07868 -0.09998
 C391 C 0.49158 0.06235 -0.11133
 C392 C 0.49439 0.05739 -0.15938
 C393 C 0.48609 0.06883 -0.19531
 H394 H 0.43111 0.15652 -0.29701
 H395 H 0.42048 0.17613 -0.36523
 H396 H 0.45560 0.14008 -0.45777
 H397 H 0.46455 0.11978 -0.38982
 H398 H 0.43783 0.08359 -0.33249
 H399 H 0.44913 0.06215 -0.26756
 H400 H 0.48177 0.13725 -0.18678
 H401 H 0.47022 0.15865 -0.25185
 H402 H 0.46258 0.10244 -0.12608
 H403 H 0.47734 0.08273 -0.06326
 H404 H 0.50326 0.04489 -0.16925
 H405 H 0.48905 0.06512 -0.23203
 C406 C 0.66894 0.53886 -0.36836
 C407 C 0.69065 0.53386 -0.36208
 C408 C 0.70817 0.53750 -0.39952
 C409 C 0.70457 0.54631 -0.44474
 C410 C 0.68368 0.55298 -0.44960
 C411 C 0.66612 0.54915 -0.41215
 C412 C 0.64859 0.53201 -0.33023
 C413 C 0.63679 0.54853 -0.32166
 C414 C 0.61714 0.54147 -0.28649
 C415 C 0.60904 0.51787 -0.25900
 C416 C 0.62072 0.50132 -0.26769
 C417 C 0.64017 0.50825 -0.30297
 C418 C 0.58900 0.51074 -0.22045
 C419 C 0.59365 0.50233 -0.17608
 C420 C 0.57503 0.49556 -0.13943
 C421 C 0.55116 0.49684 -0.14634
 C422 C 0.54635 0.50508 -0.19085
 C423 C 0.56521 0.51216 -0.22751
 H424 H 0.69375 0.52645 -0.32838
 H425 H 0.72332 0.53153 -0.39322
 H426 H 0.68072 0.56140 -0.48219
 H427 H 0.64974 0.55345 -0.41813
 H428 H 0.64301 0.56712 -0.34169
 H429 H 0.60867 0.55474 -0.28011
 H430 H 0.61454 0.48279 -0.24751
 H431 H 0.64830 0.49469 -0.30942
 H432 H 0.61196 0.50137 -0.16947
 H433 H 0.57940 0.48937 -0.10555
 H434 H 0.52817 0.50630 -0.19719
 H435 H 0.56108 0.51842 -0.26153
 C436 C 0.88823 0.30302 -0.32210
 C437 C 0.85996 0.29113 -0.32340
 C438 C 0.84512 0.27596 -0.36285
 C439 C 0.85811 0.27259 -0.40292
 C440 C 0.88646 0.28411 -0.40093
 C441 C 0.90120 0.29881 -0.36101
 C442 C 0.90410 0.32131 -0.28191
 C443 C 0.92917 0.34470 -0.29034
 C444 C 0.94250 0.36377 -0.25419
 C445 C 0.93092 0.36026 -0.20885
 C446 C 0.90667 0.33612 -0.19953
 C447 C 0.89351 0.31681 -0.23556
 C448 C 0.94252 0.38291 -0.17341
 C449 C 0.94144 0.37784 -0.12417
 C450 C 0.94995 0.39935 -0.09130
 C451 C 0.95966 0.42627 -0.10715
 C452 C 0.96156 0.43134 -0.15631
 C453 C 0.95306 0.41000 -0.18892
 H454 H 0.84924 0.29448 -0.29477
 H455 H 0.82360 0.26855 -0.36271
 H456 H 0.89742 0.28121 -0.42968
 H457 H 0.92286 0.30697 -0.36082
 H458 H 0.93798 0.34908 -0.32548
 H459 H 0.96148 0.38181 -0.26232
 H460 H 0.89711 0.33275 -0.16510
 H461 H 0.87460 0.29871 -0.22735
 H462 H 0.93369 0.35723 -0.11106
 H463 H 0.94834 0.39483 -0.05362
 H464 H 0.96883 0.45180 -0.16983
 H465 H 0.95371 0.41472 -0.22638
 C466 C 0.55075 -0.13411 -0.32797
 C467 C 0.56057 -0.11809 -0.36921
 C468 C 0.56456 -0.12906 -0.41096
 C469 C 0.55821 -0.15658 -0.41312
 C470 C 0.54889 -0.17251 -0.37169
 C471 C 0.54542 -0.16135 -0.32956
 C472 C 0.54522 -0.12265 -0.28427
 C473 C 0.52338 -0.13918 -0.25456
 C474 C 0.51727 -0.12802 -0.21517
 C475 C 0.53250 -0.09992 -0.20492
 C476 C 0.55459 -0.08351 -0.23426
 C477 C 0.56105 -0.09476 -0.27295
 C478 C 0.52496 -0.08752 -0.16499
 C479 C 0.54487 -0.06456 -0.14034
 C480 C 0.53767 -0.05155 -0.10565
 C481 C 0.51048 -0.06163 -0.09382
 C482 C 0.49059 -0.08512 -0.11678
 C483 C 0.49770 -0.09778 -0.15238
 H484 H 0.56454 -0.09718 -0.36984
 H485 H 0.57235 -0.11595 -0.44174
 H486 H 0.54354 -0.19385 -0.37205
 H487 H 0.53834 -0.17421 -0.29838
 H488 H 0.51047 -0.16066 -0.26229
 H489 H 0.50045 -0.14147 -0.19299
 H490 H 0.56661 -0.06172 -0.22822
 H491 H 0.57838 -0.08144 -0.29424
 H492 H 0.56609 -0.05645 -0.14793
 H493 H 0.55341 -0.03356 -0.08804
 H494 H 0.46945 -0.09308 -0.10843
 H495 H 0.48171 -0.11506 -0.17099
 C496 C 0.32323 0.49619 -0.33062
 C497 C 0.33726 0.50792 -0.37296
 C498 C 0.32360 0.50225 -0.41655
 C499 C 0.29560 0.48429 -0.41918
 C500 C 0.28145 0.47326 -0.37665
 C501 C 0.29504 0.47934 -0.33296
 C502 C 0.33818 0.50003 -0.28497
 C503 C 0.32951 0.47849 -0.25213
 C504 C 0.34491 0.48094 -0.21169
 C505 C 0.36967 0.50481 -0.20334
 C506 C 0.37778 0.52681 -0.23501
 C507 C 0.36214 0.52451 -0.27512
 C508 C 0.38796 0.50584 -0.16427
 C509 C 0.40506 0.53044 -0.14025
 C510 C 0.42429 0.53179 -0.10742
 C511 C 0.42660 0.50851 -0.09767
 C512 C 0.40868 0.48368 -0.11983
 C513 C 0.38975 0.48239 -0.15295
 H514 H 0.35899 0.52076 -0.37285
 H515 H 0.33514 0.51166 -0.44830
 H516 H 0.25994 0.45917 -0.37710
 H517 H 0.28343 0.47038 -0.30109
 H518 H 0.31135 0.45920 -0.25852
 H519 H 0.33769 0.46379 -0.18757
 H520 H 0.39679 0.54544 -0.23003
 H521 H 0.36918 0.54177 -0.29896
 H522 H 0.40391 0.54878 -0.14741
 H523 H 0.43781 0.55117 -0.09064
 H524 H 0.41003 0.46540 -0.11308
 H525 H 0.37736 0.46320 -0.17119
 C526 C 1.13267 0.69442 -0.31907
 C527 C 1.12660 0.67936 -0.36152
 C528 C 1.14001 0.69156 -0.40352
 C529 C 1.16013 0.71938 -0.40458
 C530 C 1.16637 0.73429 -0.36142
 C531 C 1.15280 0.72197 -0.31936
 C532 C 1.11830 0.68092 -0.27469
 C533 C 1.13235 0.68566 -0.23133
 C534 C 1.11929 0.67039 -0.19098
 C535 C 1.09195 0.65007 -0.19324
 C536 C 1.07763 0.64646 -0.23600
 C537 C 1.09062 0.66177 -0.27613
 C538 C 1.07905 0.63064 -0.15339
 C539 C 1.05137 0.61973 -0.14393
 C540 C 1.03811 0.59754 -0.11325
 C541 C 1.05232 0.58602 -0.09098
 C542 C 1.08038 0.59835 -0.09729
 C543 C 1.09359 0.62034 -0.12835
 H544 H 1.11182 0.65781 -0.36212
 H545 H 1.13521 0.67852 -0.43448
 H546 H 1.18092 0.75587 -0.36009
 H547 H 1.15772 0.73417 -0.28722
 H548 H 1.15371 0.70026 -0.22913
 H549 H 1.13080 0.67394 -0.15840
 H550 H 1.05666 0.63082 -0.23931
 H551 H 1.07912 0.65805 -0.30879
 H552 H 1.03972 0.62762 -0.16180
 H553 H 1.01650 0.58865 -0.10864
 H554 H 1.09189 0.58993 -0.08060
 H555 H 1.11484 0.62803 -0.13505
 C556 C 0.83834 0.51758 -0.32202
 C557 C 0.82505 0.53309 -0.32465
 C558 C 0.81745 0.53891 -0.36870
 C559 C 0.82286 0.52930 -0.41120
 C560 C 0.83540 0.51311 -0.40844
 C561 C 0.84314 0.50744 -0.36451
 C562 C 0.84844 0.51310 -0.27568
 C563 C 0.84861 0.48855 -0.26668
 C564 C 0.86080 0.48550 -0.22553
 C565 C 0.87297 0.50684 -0.19206
 C566 C 0.87156 0.53085 -0.19986
 C567 C 0.85955 0.53398 -0.24120
 C568 C 0.88909 0.50496 -0.15167
 C569 C 0.91368 0.52789 -0.13841
 C570 C 0.93071 0.52555 -0.10505
 C571 C 0.92369 0.50020 -0.08425
 C572 C 0.89849 0.47757 -0.09539
 C573 C 0.88135 0.47993 -0.12871
 H574 H 0.82068 0.54091 -0.29266
 H575 H 0.80795 0.55155 -0.36951
 H576 H 0.83942 0.50492 -0.44033
 H577 H 0.85361 0.49573 -0.36407
 H578 H 0.83979 0.47183 -0.29196
 H579 H 0.86168 0.46682 -0.22105
 H580 H 0.88031 0.54754 -0.17451
 H581 H 0.85999 0.55324 -0.24696
 H582 H 0.92054 0.54740 -0.15566
 H583 H 0.95002 0.54338 -0.09729
 H584 H 0.89253 0.45779 -0.07984
 H585 H 0.86234 0.46197 -0.13742
 C586 C 0.40517 0.29819 -0.32044
 C587 C 0.41783 0.31467 -0.35987
 C588 C 0.41986 0.30328 -0.40255
 C589 C 0.40901 0.27473 -0.40788
 C590 C 0.39618 0.25820 -0.36780
 C591 C 0.39441 0.26983 -0.32467
 C592 C 0.40490 0.31130 -0.27476
 C593 C 0.41291 0.30420 -0.23216
 C594 C 0.41789 0.32030 -0.19128
 C595 C 0.41495 0.34377 -0.19231
 C596 C 0.40488 0.34948 -0.23399
 C597 C 0.39987 0.33340 -0.27464
 C598 C 0.42566 0.36428 -0.15309
 C599 C 0.41336 0.38003 -0.14186
 C600 C 0.42658 0.40314 -0.11269
 C601 C 0.45230 0.41084 -0.09388
 C602 C 0.46354 0.39381 -0.10182
 C603 C 0.45042 0.37085 -0.13120
 H604 H 0.42718 0.33671 -0.35723
 H605 H 0.43147 0.31750 -0.43024
 H606 H 0.38673 0.23619 -0.36949
 H607 H 0.38443 0.25663 -0.29473
 H608 H 0.41697 0.28728 -0.23125
 H609 H 0.42519 0.31508 -0.15951
 H610 H 0.40259 0.36746 -0.23639
 H611 H 0.39333 0.33910 -0.30683
 H612 H 0.39404 0.37520 -0.15736
 H613 H 0.41727 0.41570 -0.10683
 H614 H 0.48329 0.39912 -0.08767
 H615 H 0.46065 0.35940 -0.13931
 C616 C 0.70089 0.13317 -0.29135
 C617 C 0.72360 0.15941 -0.29456
 C618 C 0.73521 0.17023 -0.33868
 C619 C 0.72471 0.15492 -0.38075
 C620 C 0.70293 0.12816 -0.37720
 C621 C 0.69102 0.11755 -0.33328
 C622 C 0.68642 0.12272 -0.24534
 C623 C 0.67261 0.09456 -0.23547
 C624 C 0.65603 0.08444 -0.19558
 C625 C 0.65320 0.10223 -0.16376
 C626 C 0.66847 0.13052 -0.17189
 C627 C 0.68462 0.14061 -0.21233
 C628 C 0.63260 0.09115 -0.12520
 C629 C 0.61801 0.10452 -0.11291
 C630 C 0.59595 0.09226 -0.08226
 C631 C 0.58762 0.06612 -0.06383
 C632 C 0.60304 0.05340 -0.07365
 C633 C 0.62545 0.06591 -0.10357
 H634 H 0.73219 0.17188 -0.26307
 H635 H 0.75184 0.19098 -0.33989
 H636 H 0.69468 0.11547 -0.40856
 H637 H 0.67340 0.09742 -0.33267
 H638 H 0.67399 0.08014 -0.25926
 H639 H 0.64451 0.06252 -0.19108
 H640 H 0.66741 0.14496 -0.14771
 H641 H 0.69473 0.16240 -0.21861
 H642 H 0.62248 0.12373 -0.12915
 H643 H 0.58432 0.10246 -0.07565
 H644 H 0.59716 0.03331 -0.05960
 H645 H 0.63660 0.05530 -0.11099
 C646 C 1.12811 0.44726 -0.35114
 C647 C 1.11310 0.43259 -0.39113
 C648 C 1.12586 0.42907 -0.43079
 C649 C 1.15430 0.44067 -0.43247
 C650 C 1.16895 0.45385 -0.39069
 C651 C 1.15606 0.45693 -0.35083
 C652 C 1.11500 0.45382 -0.31119
 C653 C 1.12892 0.47913 -0.28743
 C654 C 1.11652 0.48596 -0.25124
 C655 C 1.08974 0.46788 -0.23831
 C656 C 1.07568 0.44262 -0.26189
 C657 C 1.08823 0.43556 -0.29768
 C658 C 1.07667 0.47559 -0.20040
 C659 C 1.05086 0.47262 -0.20735
 C660 C 1.03917 0.48111 -0.17219
 C661 C 1.05287 0.49223 -0.12908
 C662 C 1.07849 0.49474 -0.12195
 C663 C 1.09034 0.48671 -0.15736
 H664 H 1.09148 0.42457 -0.39272
 H665 H 1.11296 0.41708 -0.45982
 H666 H 1.19073 0.46368 -0.38910
 H667 H 1.16826 0.46768 -0.32014
 H668 H 1.14925 0.49407 -0.29751
 H669 H 1.12769 0.50572 -0.23404
 H670 H 1.05508 0.42820 -0.25218
 H671 H 1.07697 0.41574 -0.31455
 H672 H 1.03999 0.46426 -0.24038
 H673 H 1.01941 0.47889 -0.17867
 H674 H 1.08957 0.50322 -0.08914
 H675 H 1.11018 0.48905 -0.15102
 C676 C 0.57767 0.69440 -0.33652
 C677 C 0.59614 0.69906 -0.37321
 C678 C 0.59676 0.71367 -0.41382
 C679 C 0.57938 0.72481 -0.41878
 C680 C 0.56187 0.72134 -0.38069
 C681 C 0.56081 0.70609 -0.34057
 C682 C 0.57481 0.67604 -0.29587
 C683 C 0.56666 0.67987 -0.25058
 C684 C 0.56126 0.66087 -0.21419
 C685 C 0.56418 0.63772 -0.22196
 C686 C 0.57385 0.63478 -0.26630
 C687 C 0.57880 0.65346 -0.30282
 C688 C 0.55491 0.61548 -0.18591
 C689 C 0.54175 0.58806 -0.20094
 C690 C 0.53067 0.56689 -0.16804
 C691 C 0.53214 0.57241 -0.11902
 C692 C 0.54614 0.59973 -0.10352
 C693 C 0.55743 0.62108 -0.13668
 H694 H 0.61018 0.69131 -0.37081
 H695 H 0.61151 0.71677 -0.44084
 H696 H 0.54751 0.72868 -0.38284
 H697 H 0.54590 0.70257 -0.31367
 H698 H 0.56394 0.69729 -0.24338
 H699 H 0.55372 0.66377 -0.18064
 H700 H 0.57692 0.61756 -0.27335
 H701 H 0.58474 0.64946 -0.33712
 H702 H 0.53886 0.58281 -0.23838
 H703 H 0.51997 0.54610 -0.18130
 H704 H 0.54758 0.60461 -0.06596
 H705 H 0.56773 0.64195 -0.12380
 C706 C 0.32291 -0.12656 -0.32236
 C707 C 0.29665 -0.13150 -0.33275
 C708 C 0.28252 -0.14742 -0.37241
 C709 C 0.29447 -0.15862 -0.40212
 C710 C 0.32020 -0.15461 -0.39026
 C711 C 0.33422 -0.13880 -0.35099
 C712 C 0.33922 -0.10810 -0.28299
 C713 C 0.36660 -0.08931 -0.29043
 C714 C 0.38299 -0.07351 -0.25300
 C715 C 0.37245 -0.07589 -0.20702
 C716 C 0.34477 -0.09400 -0.19980
 C717 C 0.32826 -0.10989 -0.23754
 C718 C 0.39103 -0.06099 -0.16677
 C719 C 0.38877 -0.07406 -0.12297
 C720 C 0.40923 -0.06202 -0.08856
 C721 C 0.43240 -0.03687 -0.09761
 C722 C 0.43371 -0.02289 -0.13974
 C723 C 0.41315 -0.03470 -0.17375
 H724 H 0.28748 -0.12230 -0.31122
 H725 H 0.26272 -0.15018 -0.38076
 H726 H 0.32965 -0.16353 -0.41180
 H727 H 0.35412 -0.13596 -0.34315
 H728 H 0.37553 -0.08719 -0.32522
 H729 H 0.40426 -0.06018 -0.25984
 H730 H 0.33600 -0.09617 -0.16488
 H731 H 0.30721 -0.12424 -0.23084
 H732 H 0.37211 -0.09436 -0.11651
 H733 H 0.40780 -0.07323 -0.05637
 H734 H 0.45121 -0.00329 -0.14730
 H735 H 0.41516 -0.02375 -0.20651
 C736 C 0.54822 -0.13476 0.32651
 C737 C 0.57041 -0.13882 0.33419
 C738 C 0.57186 -0.15217 0.37510
 C739 C 0.55143 -0.16116 0.40950
 C740 C 0.52906 -0.15743 0.40156
 C741 C 0.52731 -0.14461 0.36009
 C742 C 0.54745 -0.11911 0.28482
 C743 C 0.52468 -0.12978 0.25491
 C744 C 0.52336 -0.11424 0.21722
 C745 C 0.54454 -0.08757 0.20948
 C746 C 0.56748 -0.07703 0.23900
 C747 C 0.56906 -0.09281 0.27604
 C748 C 0.54151 -0.07015 0.17328
 C749 C 0.54405 -0.04491 0.18666
 C750 C 0.53683 -0.03042 0.15495
 C751 C 0.52753 -0.04062 0.10899
 C752 C 0.52687 -0.06487 0.09444
 C753 C 0.53349 -0.07971 0.12657
 H754 H 0.58670 -0.13143 0.30868
 H755 H 0.58941 -0.15463 0.38076
 H756 H 0.51312 -0.16417 0.42768
 H757 H 0.51009 -0.14154 0.35496
 H758 H 0.50783 -0.15003 0.26104
 H759 H 0.50534 -0.12265 0.19521
 H760 H 0.58399 -0.05648 0.23373
 H761 H 0.58674 -0.08414 0.29891
 H762 H 0.55005 -0.03723 0.22259
 H763 H 0.53738 -0.01185 0.16699
 H764 H 0.51944 -0.07332 0.05937
 H765 H 0.53146 -0.09911 0.11553
 C766 C 0.32693 0.46516 0.32751
 C767 C 0.30060 0.44332 0.33411
 C768 C 0.28538 0.44285 0.37364
 C769 C 0.29622 0.46424 0.40722
 C770 C 0.32225 0.48634 0.39973
 C771 C 0.33738 0.48679 0.36050
 C772 C 0.34396 0.46550 0.28718
 C773 C 0.37149 0.47442 0.29477
 C774 C 0.38818 0.47644 0.25699
 C775 C 0.37783 0.46949 0.21044
 C776 C 0.35014 0.46003 0.20281
 C777 C 0.33334 0.45794 0.24087
 C778 C 0.39642 0.47334 0.17034
 C779 C 0.39445 0.48471 0.12687
 C780 C 0.41440 0.49198 0.09203
 C781 C 0.43673 0.48818 0.10026
 C782 C 0.43781 0.47533 0.14241
 C783 C 0.41783 0.46784 0.17685
 H784 H 0.29206 0.42630 0.30939
 H785 H 0.26542 0.42549 0.37851
 H786 H 0.33092 0.50348 0.42420
 H787 H 0.35732 0.50423 0.35584
 H788 H 0.38024 0.48004 0.33009
 H789 H 0.40945 0.48421 0.26416
 H790 H 0.34151 0.45434 0.16744
 H791 H 0.31221 0.45110 0.23389
 H792 H 0.37830 0.48933 0.12080
 H793 H 0.41313 0.50191 0.05987
 H794 H 0.45460 0.47178 0.14942
 H795 H 0.41958 0.45845 0.20932
 C796 C 1.13789 0.68722 0.33818
 C797 C 1.12254 0.69388 0.36891
 C798 C 1.13446 0.71008 0.40926
 C799 C 1.16202 0.72019 0.41921
 C800 C 1.17762 0.71471 0.38703
 C801 C 1.16565 0.69827 0.34708
 C802 C 1.12468 0.66717 0.29912
 C803 C 1.12993 0.64535 0.29374
 C804 C 1.11663 0.62553 0.25865
 C805 C 1.09804 0.62727 0.22781
 C806 C 1.09313 0.64936 0.23250
 C807 C 1.10615 0.66901 0.26818
 C808 C 1.08352 0.60572 0.19152
 C809 C 1.08192 0.61258 0.14403
 C810 C 1.06887 0.59209 0.10970
 C811 C 1.05679 0.56439 0.12245
 C812 C 1.05805 0.55758 0.17013
 C813 C 1.07144 0.57804 0.20422
 H814 H 1.10107 0.68551 0.36292
 H815 H 1.12202 0.71411 0.43339
 H816 H 1.19883 0.72200 0.39404
 H817 H 1.17795 0.69361 0.32369
 H818 H 1.14390 0.64329 0.31745
 H819 H 1.12091 0.60880 0.25552
 H820 H 1.07878 0.65105 0.20925
 H821 H 1.10182 0.68568 0.27158
 H822 H 1.09120 0.63379 0.13335
 H823 H 1.06811 0.59791 0.07324
 H824 H 1.04892 0.53641 0.18100
 H825 H 1.07220 0.57223 0.24070
 C826 C 0.41858 0.12860 0.32139
 C827 C 0.43630 0.13085 0.35810
 C828 C 0.43650 0.14334 0.40094
 C829 C 0.41856 0.15344 0.40871
 C830 C 0.40100 0.15156 0.37150
 C831 C 0.40118 0.13939 0.32795
 C832 C 0.41863 0.11467 0.27692
 C833 C 0.42528 0.12859 0.23336
 C834 C 0.43024 0.11687 0.19331
 C835 C 0.42826 0.09094 0.19626
 C836 C 0.41998 0.07648 0.23929
 C837 C 0.41534 0.08828 0.27921
 C838 C 0.43763 0.07999 0.15705
 C839 C 0.42401 0.05188 0.14680
 C840 C 0.43577 0.04059 0.11752
 C841 C 0.46142 0.05719 0.09776
 C842 C 0.47408 0.08559 0.10490
 C843 C 0.46229 0.09689 0.13431
 H844 H 0.45022 0.12308 0.35339
 H845 H 0.45098 0.14526 0.42797
 H846 H 0.38686 0.15902 0.37624
 H847 H 0.38738 0.13784 0.29987
 H848 H 0.42810 0.14908 0.23107
 H849 H 0.43647 0.12839 0.16052
 H850 H 0.41866 0.05668 0.24300
 H851 H 0.41029 0.07727 0.31258
 H852 H 0.40478 0.03843 0.16325
 H853 H 0.42536 0.01865 0.11231
 H854 H 0.49381 0.09892 0.09004
 H855 H 0.47336 0.11861 0.14178
 C856 C 0.68941 0.53275 0.28989
 C857 C 0.71702 0.55074 0.29799
 C858 C 0.72834 0.55284 0.34318
 C859 C 0.71219 0.53717 0.38118
 C860 C 0.68474 0.51879 0.37283
 C861 C 0.67348 0.51660 0.32772
 C862 C 0.67675 0.53154 0.24298
 C863 C 0.65678 0.50640 0.22452
 C864 C 0.64238 0.50543 0.18354
 C865 C 0.64766 0.52959 0.15985
 C866 C 0.66861 0.55465 0.17690
 C867 C 0.68303 0.55561 0.21803
 C868 C 0.62942 0.52856 0.12086
 C869 C 0.62030 0.54774 0.11939
 C870 C 0.59905 0.54373 0.08917
 C871 C 0.58639 0.52036 0.06008
 C872 C 0.59702 0.50246 0.05857
 C873 C 0.61837 0.50657 0.08855
 H874 H 0.72982 0.56328 0.26944
 H875 H 0.74954 0.56725 0.34877
 H876 H 0.67191 0.50623 0.40134
 H877 H 0.65208 0.50278 0.32280
 H878 H 0.65176 0.48748 0.24255
 H879 H 0.62617 0.48580 0.17183
 H880 H 0.67336 0.57358 0.15919
 H881 H 0.69824 0.57531 0.23150
 H882 H 0.62824 0.56482 0.14396
 H883 H 0.59132 0.55790 0.09113
 H884 H 0.58785 0.48442 0.03615
 H885 H 0.62537 0.49179 0.08805
 C886 C 0.87466 0.29828 0.34013
 C887 C 0.89003 0.29123 0.37049
 C888 C 0.87847 0.27533 0.41095
 C889 C 0.85121 0.26590 0.42178
 C890 C 0.83537 0.27135 0.38979
 C891 C 0.84698 0.28742 0.34949
 C892 C 0.88789 0.31884 0.30171
 C893 C 0.87459 0.31682 0.25827
 C894 C 0.88624 0.33763 0.22428
 C895 C 0.91138 0.36095 0.23308
 C896 C 0.92502 0.36248 0.27580
 C897 C 0.91342 0.34178 0.30968
 C898 C 0.92311 0.38414 0.19895
 C899 C 0.93610 0.41117 0.21601
 C900 C 0.94814 0.43315 0.18467
 C901 C 0.94746 0.42872 0.13541
 C902 C 0.93383 0.40177 0.11799
 C903 C 0.92177 0.37966 0.14949
 H904 H 0.91126 0.29872 0.36375
 H905 H 0.89105 0.27114 0.43468
 H906 H 0.81439 0.26464 0.39749
 H907 H 0.83458 0.29265 0.32726
 H908 H 0.85503 0.29930 0.25077
 H909 H 0.87518 0.33585 0.19178
 H910 H 0.94464 0.37990 0.28334
 H911 H 0.92411 0.34427 0.34290
 H912 H 0.93693 0.41538 0.25377
 H913 H 0.95821 0.45368 0.19917
 H914 H 0.93301 0.39775 0.08015
 H915 H 0.91201 0.35908 0.13523
   
