data_POSCAR
  _audit_creation_date              2014-09-24
  _audit_creation_method            'ToBaCCo'
  _symmetry_space_group_name_H-M    'P1'
  _symmetry_Int_Tables_number       1
  _symmetry_cell_setting            triclinic
  loop_
  _symmetry_equiv_pos_as_xyz
 x,y,z
_cell_length_a 28.8922
_cell_length_b 28.8207
_cell_length_c 28.8578
_cell_angle_alpha 81.313300
_cell_angle_beta 96.403900
_cell_angle_gamma 95.946400
loop_
  _atom_site_label
  _atom_site_type_symbol
  _atom_site_fract_x
  _atom_site_fract_y
  _atom_site_fract_z
C1 C 0.58430 0.60250 0.00194
 C2 C 0.59348 0.55535 0.00627
 C3 C 0.55647 0.51994 0.00639
 C4 C 0.50948 0.53122 -0.00077
 C5 C 0.50095 0.57926 -0.00588
 C6 C 0.53816 0.61449 -0.00342
 C7 C 0.47004 0.49304 -0.00328
 C8 C 0.42458 0.49974 0.00685
 C9 C 0.38819 0.46371 0.00421
 C10 C 0.39706 0.41999 -0.00644
 C11 C 0.44177 0.41245 -0.01584
 C12 C 0.47758 0.44898 -0.01566
 H13 H 0.61308 0.62989 0.00260
 H14 H 0.56490 0.48369 0.01217
 H15 H 0.46566 0.58976 -0.01229
 H16 H 0.41703 0.53246 0.01722
 H17 H 0.36916 0.39178 -0.00730
 H18 H 0.51116 0.44237 -0.02527
 C19 C -0.00049 0.58293 0.41684
 C20 C 0.00422 0.59247 0.46322
 C21 C 0.00547 0.55536 0.50070
 C22 C -0.00058 0.50788 0.49232
 C23 C -0.00659 0.49914 0.44495
 C24 C -0.00524 0.53641 0.40763
 C25 C -0.00059 0.46794 0.53252
 C26 C 0.00953 0.42244 0.52628
 C27 C 0.00831 0.38503 0.56339
 C28 C -0.00050 0.39291 0.60806
 C29 C -0.00935 0.43783 0.61545
 C30 C -0.01067 0.47471 0.57778
 H31 H -0.00046 0.61176 0.38786
 H32 H 0.01149 0.56410 0.53615
 H33 H -0.01262 0.46360 0.43645
 H34 H 0.01866 0.41542 0.49285
 H35 H -0.00046 0.36413 0.63701
 H36 H -0.01982 0.50837 0.58439
 C37 C 0.60505 0.00704 0.58044
 C38 C 0.56022 0.01620 0.58786
 C39 C 0.52412 0.01557 0.55139
 C40 C 0.53151 0.00295 0.50749
 C41 C 0.57710 -0.00694 0.50085
 C42 C 0.61379 -0.00383 0.53682
 C43 C 0.49177 -0.00004 0.46943
 C44 C 0.49982 0.00481 0.42142
 C45 C 0.46234 0.00199 0.38632
 C46 C 0.41639 -0.00351 0.39831
 C47 C 0.40767 -0.00760 0.44540
 C48 C 0.44494 -0.00733 0.48074
 H49 H 0.63308 0.00825 0.60873
 H50 H 0.49043 0.02499 0.55792
 H51 H 0.58442 -0.01749 0.46818
 H52 H 0.53488 0.01131 0.41073
 H53 H 0.38742 -0.00442 0.37100
 H54 H 0.43673 -0.01287 0.51691
 O55 O 0.46800 0.01613 -0.08784
 O56 O 0.45725 0.00496 0.03964
 O57 O 0.45604 0.07373 -0.02985
 O58 O 0.46603 -0.05359 -0.01923
 O59 O 0.54287 -0.04139 -0.00573
 O60 O 0.53283 0.08645 -0.01614
 O61 O 0.53409 0.01727 0.05302
 O62 O 0.54479 0.02864 -0.07392
 Cu63 Cu 0.45408 0.00897 -0.02561
 Cu64 Cu 0.54639 0.02390 -0.00924
 C65 C 0.50837 0.02428 -0.10230
 C66 C 0.49392 0.00969 0.06779
 C67 C 0.49258 0.10158 -0.02474
 C68 C 0.50608 -0.06900 -0.01115
 O69 O -0.07081 0.53692 0.99776
 O70 O 0.05599 0.52876 1.00581
 O71 O -0.01206 0.52566 0.93856
 O72 O -0.00361 0.53703 1.06501
 O73 O -0.01482 0.45953 1.08230
 O74 O -0.02351 0.44825 0.95625
 O75 O 0.04492 0.45129 1.02325
 O76 O -0.08247 0.45950 1.01544
 Cu77 Cu -0.00643 0.53987 0.99990
 Cu78 Cu -0.02005 0.44681 1.02090
 C79 C -0.09800 0.49983 1.00592
 C80 C 0.07193 0.48875 1.01593
 C81 C -0.01912 0.48490 0.92611
 C82 C -0.00825 0.50015 1.09493
 O83 O 0.00259 -0.06444 0.46326
 O84 O 0.01095 0.06186 0.47552
 O85 O 0.06968 0.00237 0.46396
 O86 O -0.05699 -0.00497 0.47192
 O87 O -0.04533 -0.02297 0.54932
 O88 O 0.08190 -0.01586 0.54131
 O89 O 0.02297 0.04362 0.55285
 O90 O 0.01439 -0.08228 0.54069
 Cu91 Cu 0.00531 0.00065 0.46089
 Cu92 Cu 0.01962 -0.02101 0.55387
 C93 C 0.00753 -0.09461 0.49996
 C94 C 0.01828 0.07400 0.51638
 C95 C 0.09712 -0.00619 0.50104
 C96 C -0.07262 -0.01528 0.51187
 C97 C -0.36160 0.54407 1.00840
 C98 C -0.32185 0.53463 1.00896
 C99 C -0.27518 0.52449 1.00846
 C100 C -0.23511 0.51681 1.00751
 C101 C -0.18782 0.50919 1.00630
 C102 C -0.14704 0.50406 1.00567
 C103 C 0.34111 0.47127 1.01118
 C104 C 0.30082 0.47582 1.01530
 C105 C 0.25294 0.47954 1.01833
 C106 C 0.21168 0.48185 1.01954
 C107 C 0.16307 0.48402 1.01951
 C108 C 0.12147 0.48592 1.01840
 C109 C 0.00635 -0.36201 0.47150
 C110 C 0.00713 -0.32145 0.47753
 C111 C 0.00709 -0.27370 0.48328
 C112 C 0.00669 -0.23277 0.48742
 C113 C 0.00625 -0.18470 0.49175
 C114 C 0.00636 -0.14358 0.49537
 C115 C 0.01440 0.33802 0.55520
 C116 C 0.01795 0.29834 0.54832
 C117 C 0.02053 0.25152 0.54042
 C118 C 0.02153 0.21126 0.53400
 C119 C 0.02146 0.16377 0.52702
 C120 C 0.02047 0.12294 0.52171
 C121 C 0.55059 0.02352 -0.36607
 C122 C 0.54255 0.02759 -0.32690
 C123 C 0.53345 0.03018 -0.28042
 C124 C 0.52623 0.03076 -0.24023
 C125 C 0.51869 0.02976 -0.19264
 C126 C 0.51329 0.02776 -0.15159
 C127 C 0.47054 0.00423 0.33770
 C128 C 0.47581 0.00520 0.29671
 C129 C 0.48053 0.00567 0.24849
 C130 C 0.48378 0.00591 0.20718
 C131 C 0.48711 0.00640 0.15869
 C132 C 0.48999 0.00739 0.11720
 C133 C 0.52996 -0.33945 -0.00568
 C134 C 0.52430 -0.29841 -0.00680
 C135 C 0.51928 -0.25012 -0.00739
 C136 C 0.51590 -0.20874 -0.00767
 C137 C 0.51256 -0.16014 -0.00813
 C138 C 0.50978 -0.11856 -0.00904
 C139 C 0.45150 0.36626 -0.02307
 C140 C 0.45952 0.32695 -0.02712
 C141 C 0.46848 0.28030 -0.02977
 C142 C 0.47551 0.23996 -0.03046
 C143 C 0.48277 0.19220 -0.02968
 C144 C 0.48793 0.15101 -0.02791
 C145 C -0.34160 -0.01024 0.52966
 C146 C -0.30134 -0.01435 0.52497
 C147 C -0.25349 -0.01737 0.52112
 C148 C -0.21225 -0.01860 0.51874
 C149 C -0.16368 -0.01861 0.51652
 C150 C -0.12210 -0.01759 0.51463
 C151 C 0.36034 -0.00988 0.45730
 C152 C 0.32067 -0.01031 0.46667
 C153 C 0.27408 -0.00961 0.47672
 C154 C 0.23407 -0.00849 0.48430
 C155 C 0.18684 -0.00705 0.49183
 C156 C 0.14611 -0.00620 0.49688
 C157 C -0.00732 0.52782 1.36224
 C158 C -0.00804 0.52167 1.32175
 C159 C -0.00794 0.51593 1.27405
 C160 C -0.00749 0.51190 1.23314
 C161 C -0.00701 0.50779 1.18508
 C162 C -0.00709 0.50441 1.14394
 C163 C -0.01539 0.44646 0.66225
 C164 C -0.01890 0.45355 0.70181
 C165 C -0.02143 0.46153 0.74856
 C166 C -0.02241 0.46793 0.78879
 C167 C -0.02233 0.47476 0.83628
 C168 C -0.02133 0.47987 0.87712
   
