data_POSCAR
  _audit_creation_date              2014-09-24
  _audit_creation_method            'ToBaCCo'
  _symmetry_space_group_name_H-M    'P1'
  _symmetry_Int_Tables_number       1
  _symmetry_cell_setting            triclinic
  loop_
  _symmetry_equiv_pos_as_xyz
 x,y,z
_cell_length_a 31.8440
_cell_length_b 31.8478
_cell_length_c 27.2707
_cell_angle_alpha 89.955100
_cell_angle_beta 89.958600
_cell_angle_gamma 90.030300
loop_
  _atom_site_label
  _atom_site_type_symbol
  _atom_site_fract_x
  _atom_site_fract_y
  _atom_site_fract_z
O1 O -0.04138 0.31088 0.04640
 O2 O 0.04238 0.30980 -0.04787
 O3 O -0.04063 0.31073 -0.04879
 O4 O 0.04132 0.31081 0.04707
 O5 O 0.04029 0.24142 0.04752
 O6 O -0.04061 0.24134 -0.04808
 O7 O 0.04015 0.24050 -0.04823
 O8 O -0.04055 0.24149 0.04754
 Cu9 Cu 0.00044 0.31761 -0.00092
 Cu10 Cu -0.00022 0.23428 -0.00026
 C11 C -0.05494 0.27614 0.06308
 C12 C 0.05543 0.27473 -0.06410
 C13 C -0.05453 0.27588 -0.06457
 C14 C 0.05467 0.27596 0.06348
 O15 O 0.54211 0.81182 0.45228
 O16 O 0.45936 0.81211 0.54745
 O17 O 0.54220 0.81151 0.54742
 O18 O 0.45930 0.81170 0.45234
 O19 O 0.46004 0.74231 0.45217
 O20 O 0.54099 0.74213 0.54780
 O21 O 0.46003 0.74271 0.54787
 O22 O 0.54098 0.74244 0.45208
 Cu23 Cu 0.50077 0.81883 0.49987
 Cu24 Cu 0.50049 0.73549 0.50000
 C25 C 0.55551 0.77693 0.43605
 C26 C 0.44572 0.77730 0.56376
 C27 C 0.55558 0.77660 0.56371
 C28 C 0.44569 0.77684 0.43617
 O29 O 1.04407 0.69139 0.04744
 O30 O 0.96121 0.68971 -0.04769
 O31 O 1.04416 0.69142 -0.04740
 O32 O 0.96111 0.68962 0.04758
 O33 O 0.96060 0.75901 0.04778
 O34 O 1.04142 0.76071 -0.04795
 O35 O 0.96064 0.75910 -0.04785
 O36 O 1.04139 0.76068 0.04795
 Cu37 Cu 1.00272 0.68350 -0.00001
 Cu38 Cu 1.00089 0.76676 -0.00002
 C39 C 1.05682 0.72652 0.06384
 C40 C 0.94699 0.72432 -0.06392
 C41 C 1.05689 0.72658 -0.06381
 C42 C 0.94689 0.72421 0.06380
 O43 O 0.45809 0.18767 0.45271
 O44 O 0.54063 0.18752 0.54796
 O45 O 0.45785 0.18763 0.54781
 O46 O 0.54086 0.18764 0.45286
 O47 O 0.53999 0.25703 0.45259
 O48 O 0.45891 0.25702 0.54811
 O49 O 0.53978 0.25692 0.54825
 O50 O 0.45913 0.25706 0.45245
 Cu51 Cu 0.49935 0.18056 0.50034
 Cu52 Cu 0.49946 0.26393 0.50036
 C53 C 0.44471 0.22257 0.43644
 C54 C 0.55412 0.22237 0.56423
 C55 C 0.44439 0.22251 0.56404
 C56 C 0.55441 0.22252 0.43663
 O57 O 0.68918 0.04003 -0.04660
 O58 O 0.69070 -0.04358 0.04777
 O59 O 0.68923 0.03939 0.04857
 O60 O 0.68987 -0.04265 -0.04716
 O61 O 0.75926 -0.04117 -0.04748
 O62 O 0.75864 0.03979 0.04801
 O63 O 0.76000 -0.04095 0.04826
 O64 O 0.75858 0.03966 -0.04761
 Cu65 Cu 0.68269 -0.00176 0.00075
 Cu66 Cu 0.76603 -0.00058 0.00026
 C67 C 0.72385 0.05381 -0.06323
 C68 C 0.72583 -0.05642 0.06408
 C69 C 0.72398 0.05351 0.06441
 C70 C 0.72483 -0.05579 -0.06348
 O71 O 0.18776 0.54192 0.45313
 O72 O 0.18778 0.45919 0.54838
 O73 O 0.18801 0.54204 0.54827
 O74 O 0.18798 0.45908 0.45326
 O75 O 0.25737 0.46007 0.45292
 O76 O 0.25740 0.54109 0.54849
 O77 O 0.25718 0.46012 0.54862
 O78 O 0.25716 0.54101 0.45277
 Cu79 Cu 0.18084 0.50056 0.50078
 Cu80 Cu 0.26418 0.50058 0.50070
 C81 C 0.22263 0.55542 0.43681
 C82 C 0.22264 0.44567 0.56460
 C83 C 0.22290 0.55556 0.56446
 C84 C 0.22286 0.44558 0.43701
 O85 O 0.30899 0.95896 -0.04896
 O86 O 0.30970 1.04197 0.04607
 O87 O 0.31013 0.95928 0.04610
 O88 O 0.30871 1.04225 -0.04899
 O89 O 0.23939 1.04066 -0.04851
 O90 O 0.24074 0.95991 0.04731
 O91 O 0.24032 1.04079 0.04723
 O92 O 0.23965 0.95996 -0.04845
 Cu93 Cu 0.31643 1.00065 -0.00167
 Cu94 Cu 0.23314 1.00029 -0.00051
 C95 C 0.27399 0.94532 -0.06479
 C96 C 0.27493 1.05531 0.06281
 C97 C 0.27546 0.94569 0.06289
 C98 C 0.27362 1.05560 -0.06483
 O99 O 0.81220 0.54064 0.54703
 O100 O 0.81174 0.45809 0.45187
 O101 O 0.81187 0.54082 0.45195
 O102 O 0.81171 0.45788 0.54697
 O103 O 0.74231 0.45906 0.54743
 O104 O 0.74246 0.54006 0.45185
 O105 O 0.74233 0.45922 0.45177
 O106 O 0.74279 0.53992 0.54750
 Cu107 Cu 0.81894 0.49933 0.49944
 Cu108 Cu 0.73555 0.49959 0.49966
 C109 C 0.77740 0.55419 0.56338
 C110 C 0.77680 0.44475 0.43569
 C111 C 0.77701 0.55441 0.43580
 C112 C 0.77679 0.44450 0.56330
 O113 O 0.21839 0.27698 0.31303
 O114 O 0.24038 0.18436 0.23628
 O115 O 0.27641 0.21864 0.31268
 O116 O 0.18361 0.24118 0.23674
 O117 O 0.22231 0.28126 0.18832
 O118 O 0.31512 0.25872 0.26427
 O119 O 0.28037 0.22316 0.18787
 O120 O 0.25839 0.31575 0.26462
 Cu121 Cu 0.22586 0.22645 0.27985
 Cu122 Cu 0.27289 0.27359 0.22116
 C123 C 0.23523 0.31197 0.30226
 C124 C 0.26349 0.18818 0.19858
 C125 C 0.31139 0.23540 0.30177
 C126 C 0.18736 0.26439 0.19915
 O127 O 0.76064 0.81561 0.23523
 O128 O 0.78164 0.72294 0.31211
 O129 O 0.81686 0.75846 0.23610
 O130 O 0.72385 0.78149 0.31170
 O131 O 0.68517 0.74134 0.26350
 O132 O 0.77801 0.71911 0.18718
 O133 O 0.74187 0.68436 0.26336
 O134 O 0.71985 0.77737 0.18724
 Cu135 Cu 0.77453 0.77349 0.27898
 Cu136 Cu 0.72736 0.72673 0.22017
 C137 C 0.73730 0.81207 0.19777
 C138 C 0.76489 0.68800 0.30109
 C139 C 0.81309 0.73554 0.19832
 C140 C 0.68889 0.76463 0.30098
 O141 O 0.81544 0.24072 0.23573
 O142 O 0.72285 0.21833 0.31241
 O143 O 0.75882 0.18359 0.23629
 O144 O 0.78095 0.27653 0.31203
 O145 O 0.74080 0.31502 0.26358
 O146 O 0.71867 0.22201 0.18777
 O147 O 0.68399 0.25808 0.26391
 O148 O 0.77658 0.28046 0.18722
 Cu149 Cu 0.77338 0.22596 0.27926
 Cu150 Cu 0.72614 0.27271 0.22047
 C151 C 0.81162 0.26384 0.19806
 C152 C 0.68782 0.23500 0.30159
 C153 C 0.73558 0.18714 0.19875
 C154 C 0.76408 0.31142 0.30109
 O155 O 0.28083 0.77770 0.18771
 O156 O 0.25827 0.68501 0.26416
 O157 O 0.22239 0.71979 0.18789
 O158 O 0.31546 0.74163 0.26401
 O159 O 0.27697 0.78154 0.31271
 O160 O 0.18421 0.76068 0.23584
 O161 O 0.21820 0.72379 0.31237
 O162 O 0.24153 0.81669 0.23657
 Cu163 Cu 0.27306 0.72715 0.22084
 Cu164 Cu 0.22638 0.77445 0.27960
 C165 C 0.26441 0.81280 0.19872
 C166 C 0.23497 0.68878 0.30166
 C167 C 0.18774 0.73738 0.19835
 C168 C 0.31188 0.76470 0.30172
 O169 O 0.68399 0.25797 0.73627
 O170 O 0.77698 0.28029 0.81202
 O171 O 0.74091 0.31482 0.73584
 O172 O 0.71873 0.22219 0.81254
 O173 O 0.75850 0.18342 0.76398
 O174 O 0.78075 0.27605 0.68737
 O175 O 0.81549 0.24018 0.76354
 O176 O 0.72254 0.21794 0.68774
 Cu177 Cu 0.72632 0.27267 0.77932
 Cu178 Cu 0.77315 0.22553 0.72051
 C179 C 0.68761 0.23474 0.69872
 C180 C 0.81190 0.26345 0.80106
 C181 C 0.76404 0.31104 0.69819
 C182 C 0.73543 0.18719 0.80168
 O183 O 0.31565 0.74272 0.73624
 O184 O 0.22269 0.72071 0.81247
 O185 O 0.25868 0.68589 0.73630
 O186 O 0.28085 0.77902 0.81226
 O187 O 0.24066 0.81743 0.76373
 O188 O 0.21867 0.72442 0.68777
 O189 O 0.18418 0.76088 0.76403
 O190 O 0.27708 0.78261 0.68760
 Cu191 Cu 0.27332 0.72826 0.77945
 Cu192 Cu 0.22637 0.77513 0.72048
 C193 C 0.31202 0.76580 0.69854
 C194 C 0.18788 0.73784 0.80175
 C195 C 0.23547 0.68948 0.69873
 C196 C 0.26369 0.81382 0.80144
 O197 O 0.25789 0.31527 0.73655
 O198 O 0.27977 0.22209 0.81250
 O199 O 0.31454 0.25819 0.73635
 O200 O 0.22174 0.28052 0.81274
 O201 O 0.18304 0.24051 0.76434
 O202 O 0.27574 0.21839 0.68787
 O203 O 0.23935 0.18380 0.76412
 O204 O 0.21771 0.27687 0.68807
 Cu205 Cu 0.27235 0.27284 0.77966
 Cu206 Cu 0.22514 0.22612 0.72082
 C207 C 0.23466 0.31175 0.69899
 C208 C 0.26252 0.18733 0.80172
 C209 C 0.31076 0.23506 0.69874
 C210 C 0.18684 0.26352 0.80202
 O211 O 0.72429 0.78060 0.68728
 O212 O 0.81719 0.75837 0.76339
 O213 O 0.78242 0.72242 0.68725
 O214 O 0.76032 0.81515 0.76352
 O215 O 0.72035 0.77641 0.81202
 O216 O 0.74255 0.68370 0.73589
 O217 O 0.77858 0.71840 0.81203
 O218 O 0.68566 0.74053 0.73578
 Cu219 Cu 0.77489 0.77297 0.72020
 Cu220 Cu 0.72794 0.72591 0.77907
 C221 C 0.68932 0.76377 0.69818
 C222 C 0.81353 0.73525 0.80108
 C223 C 0.76566 0.68745 0.69822
 C224 C 0.73717 0.81137 0.80116
 N225 N 0.24124 0.09069 0.13186
 C226 C 0.27411 0.08824 0.10032
 N227 N 0.30453 0.11810 0.10231
 N228 N 0.30172 0.14971 0.13423
 C229 C 0.26876 0.15209 0.16578
 N230 N 0.23878 0.12185 0.16423
 N231 N 0.80697 0.61701 0.60262
 C232 C 0.77655 0.58715 0.60074
 N233 N 0.74362 0.58970 0.63216
 N234 N 0.74108 0.62100 0.66432
 C235 C 0.77105 0.65126 0.66573
 N236 N 0.80408 0.64876 0.63432
 N237 N 0.69305 0.88859 0.11055
 C238 C 0.72751 0.91191 0.09919
 N239 N 0.76447 0.90283 0.12159
 N240 N 0.76699 0.87176 0.15407
 C241 C 0.73285 0.84802 0.16475
 N242 N 0.69580 0.85683 0.14234
 N243 N 0.25671 0.40973 0.63300
 C244 C 0.22362 0.41252 0.60186
 N245 N 0.19314 0.38271 0.60389
 N246 N 0.19610 0.35082 0.63545
 C247 C 0.22927 0.34809 0.66658
 N248 N 0.25931 0.37828 0.66502
 N249 N 0.88190 0.30542 0.10215
 C250 C 0.91205 0.27530 0.10050
 N251 N 0.90971 0.24250 0.13215
 N252 N 0.87837 0.23979 0.16429
 C253 C 0.84782 0.26944 0.16548
 N254 N 0.85010 0.30235 0.13385
 N255 N 0.40983 0.74350 0.63243
 C256 C 0.41259 0.77645 0.60106
 N257 N 0.38283 0.80694 0.60294
 N258 N 0.35099 0.80412 0.63461
 C259 C 0.34829 0.77108 0.66599
 N260 N 0.37844 0.74103 0.66456
 N261 N 0.09745 0.76502 0.12168
 C262 C 0.08835 0.72813 0.09913
 N263 N 0.11146 0.69359 0.11056
 N264 N 0.14305 0.69616 0.14257
 C265 C 0.15188 0.73312 0.16515
 N266 N 0.12835 0.76737 0.15438
 N267 N 0.58968 0.25639 0.63279
 C268 C 0.58710 0.22336 0.60158
 N269 N 0.61699 0.19301 0.60358
 N270 N 0.64879 0.19606 0.63518
 C271 C 0.65133 0.22919 0.66638
 N272 N 0.62104 0.25909 0.66486
 N273 N 0.75727 0.08926 0.86764
 C274 C 0.72451 0.08679 0.89933
 N275 N 0.69425 0.11680 0.89769
 N276 N 0.69714 0.14858 0.86596
 C277 C 0.73001 0.15099 0.83429
 N278 N 0.75980 0.12058 0.83546
 N279 N 0.25666 0.59099 0.36808
 C280 C 0.22365 0.58845 0.39940
 N281 N 0.19329 0.61835 0.39736
 N282 N 0.19631 0.65010 0.36560
 C283 C 0.22942 0.65258 0.33428
 N284 N 0.25932 0.62229 0.33586
 N285 N 0.23564 0.90386 0.87814
 C286 C 0.27262 0.91365 0.90008
 N287 N 0.30741 0.89103 0.88826
 N288 N 0.30496 0.85926 0.85647
 C289 C 0.26788 0.84976 0.83451
 N290 N 0.23341 0.87281 0.84566
 N291 N 0.74248 0.40921 0.36730
 C292 C 0.77564 0.41179 0.39835
 N293 N 0.80603 0.38196 0.39613
 N294 N 0.80291 0.35021 0.36448
 C295 C 0.76966 0.34767 0.33345
 N296 N 0.73971 0.37790 0.33518
 N297 N 0.11032 0.30767 0.88936
 C298 C 0.08712 0.27315 0.90079
 N299 N 0.09630 0.23620 0.87844
 N300 N 0.12734 0.23376 0.84592
 C301 C 0.15096 0.26796 0.83515
 N302 N 0.14207 0.30500 0.85753
 N303 N 0.61840 0.80628 0.39648
 C304 C 0.58855 0.77585 0.39868
 N305 N 0.59113 0.74279 0.36751
 N306 N 0.62243 0.74014 0.33530
 C307 C 0.65267 0.77012 0.33356
 N308 N 0.65015 0.80328 0.36473
 N309 N 0.88426 0.69430 0.89682
 C310 C 0.91403 0.72482 0.89860
 N311 N 0.91131 0.75767 0.86709
 N312 N 0.87998 0.76004 0.83494
 C313 C 0.84981 0.72998 0.83362
 N314 N 0.85246 0.69702 0.86513
 N315 N 0.40931 0.25677 0.36786
 C316 C 0.41176 0.22368 0.39906
 N317 N 0.38179 0.19338 0.39701
 N318 N 0.35003 0.19654 0.36535
 C319 C 0.34762 0.22973 0.33417
 N320 N 0.37799 0.25957 0.33574
 N321 N 0.75911 0.90883 0.86791
 C322 C 0.72600 0.91131 0.89909
 N323 N 0.69553 0.88153 0.89679
 N324 N 0.69853 0.84991 0.86494
 C325 C 0.73173 0.84748 0.83377
 N326 N 0.76176 0.87766 0.83559
 N327 N 0.25700 0.40983 0.36851
 C328 C 0.22393 0.41244 0.39974
 N329 N 0.19357 0.38251 0.39775
 N330 N 0.19662 0.35071 0.36613
 C331 C 0.22978 0.34817 0.33489
 N332 N 0.25971 0.37847 0.33643
 N333 N 0.30668 0.11019 0.88829
 C334 C 0.27204 0.08729 0.90006
 N335 N 0.23499 0.09686 0.87815
 N336 N 0.23255 0.12799 0.84574
 C337 C 0.26688 0.15132 0.83466
 N338 N 0.30403 0.14203 0.85658
 N339 N 0.80643 0.61734 0.39642
 C340 C 0.77601 0.58747 0.39847
 N341 N 0.74297 0.59011 0.36727
 N342 N 0.74032 0.62148 0.33515
 C343 C 0.77029 0.65174 0.33357
 N344 N 0.80343 0.64915 0.36477
 N345 N 0.09746 0.76518 0.87833
 C346 C 0.08844 0.72826 0.90091
 N347 N 0.11164 0.69377 0.88953
 N348 N 0.14326 0.69645 0.85752
 C349 C 0.15201 0.73344 0.83490
 N350 N 0.12838 0.76762 0.84563
 N351 N 0.58999 0.25662 0.36796
 C352 C 0.58747 0.22360 0.39928
 N353 N 0.61742 0.19329 0.39727
 N354 N 0.64919 0.19637 0.36555
 C355 C 0.65165 0.22948 0.33423
 N356 N 0.62131 0.25933 0.33578
 N357 N 0.90974 0.24169 0.86710
 C358 C 0.91250 0.27487 0.89807
 N359 N 0.88274 0.30535 0.89589
 N360 N 0.85090 0.30228 0.86433
 C361 C 0.84820 0.26899 0.83337
 N362 N 0.87836 0.23897 0.83507
 N363 N 0.40981 0.74276 0.36774
 C364 C 0.41255 0.77583 0.39890
 N365 N 0.38272 0.80625 0.39689
 N366 N 0.35086 0.80324 0.36533
 C367 C 0.34818 0.77008 0.33417
 N368 N 0.37840 0.74011 0.33572
 N369 N 0.30518 0.88285 0.10215
 C370 C 0.27488 0.91282 0.10048
 N371 N 0.24228 0.91049 0.13240
 N372 N 0.23993 0.87932 0.16480
 C373 C 0.26976 0.84895 0.16601
 N374 N 0.30247 0.85122 0.13410
 N375 N 0.74260 0.40894 0.63191
 C376 C 0.77565 0.41144 0.60064
 N377 N 0.80591 0.38145 0.60265
 N378 N 0.80276 0.34966 0.63433
 C379 C 0.76962 0.34723 0.66560
 N380 N 0.73980 0.37761 0.66406
 N381 N 0.69416 0.11616 0.10377
 C382 C 0.72474 0.08649 0.10174
 N383 N 0.75781 0.08936 0.13287
 N384 N 0.76033 0.12076 0.16488
 C385 C 0.73021 0.15083 0.16643
 N386 N 0.69703 0.14801 0.13532
 N387 N 0.25707 0.59140 0.63285
 C388 C 0.22399 0.58873 0.60170
 N389 N 0.19365 0.61865 0.60367
 N390 N 0.19675 0.65053 0.63519
 C391 C 0.22992 0.65314 0.66634
 N392 N 0.25981 0.62284 0.66483
 N393 N 0.91132 0.75739 0.13290
 C394 C 0.91387 0.72470 0.10120
 N395 N 0.88381 0.69444 0.10267
 N396 N 0.85191 0.69727 0.13424
 C397 C 0.84942 0.73009 0.16592
 N398 N 0.87988 0.75986 0.16492
 N399 N 0.38126 0.19331 0.60331
 C400 C 0.41128 0.22358 0.60134
 N401 N 0.40878 0.25658 0.63262
 N402 N 0.37740 0.25932 0.66471
 C403 C 0.34700 0.22950 0.66622
 N404 N 0.34944 0.19640 0.63495
 N405 N 0.11720 0.30561 0.10324
 C406 C 0.08750 0.27505 0.10101
 N407 N 0.09002 0.24206 0.13235
 N408 N 0.12115 0.23961 0.16475
 C409 C 0.15125 0.26972 0.16651
 N410 N 0.14877 0.30280 0.13518
 N411 N 0.61868 0.80573 0.60300
 C412 C 0.58870 0.77543 0.60099
 N413 N 0.59128 0.74231 0.63215
 N414 N 0.62267 0.73950 0.66418
 C415 C 0.65304 0.76936 0.66573
 N416 N 0.65052 0.80257 0.63457
   
