data_POSCAR
  _audit_creation_date              2014-09-24
  _audit_creation_method            'ToBaCCo'
  _symmetry_space_group_name_H-M    'P1'
  _symmetry_Int_Tables_number       1
  _symmetry_cell_setting            triclinic
  loop_
  _symmetry_equiv_pos_as_xyz
 x,y,z
_cell_length_a 28.5143
_cell_length_b 28.5302
_cell_length_c 28.5290
_cell_angle_alpha 90.005800
_cell_angle_beta 89.973800
_cell_angle_gamma 89.979200
loop_
  _atom_site_label
  _atom_site_type_symbol
  _atom_site_fract_x
  _atom_site_fract_y
  _atom_site_fract_z
C1 C 0.12510 -0.00094 0.25065
 C2 C 0.37504 0.00061 0.74964
 C3 C 0.87484 0.50015 0.24897
 C4 C 0.62469 0.49909 0.75065
 C5 C 0.25042 0.12500 0.99978
 C6 C 0.75047 0.37436 0.99934
 C7 C 0.25043 0.87470 0.49973
 C8 C 0.74945 0.62521 0.49994
 C9 C -0.00097 0.25131 0.12468
 C10 C 0.00095 0.75030 0.37526
 C11 C 0.50055 0.24945 0.87533
 C12 C 0.49891 0.75103 0.62480
 C13 C 0.87542 0.99896 0.75043
 C14 C 0.37482 0.49883 0.25051
 C15 C 0.62506 1.00064 0.24944
 C16 C 0.12523 0.50079 0.74878
 C17 C 0.75037 0.87448 -0.00020
 C18 C 0.24952 0.37495 0.50002
 C19 C 0.25061 0.62448 -0.00005
 C20 C 0.75055 0.12478 0.49925
 C21 C 0.99901 0.75122 0.87482
 C22 C 0.49855 0.25095 0.37539
 C23 C 1.00096 0.25052 0.62490
 C24 C 0.50089 0.74941 0.12561
 O25 O 0.10719 0.99358 1.08757
 O26 O 0.11861 0.92821 1.04010
 O27 O 0.08721 1.10676 0.99179
 O28 O 0.03929 1.12448 0.93228
 O29 O -0.00812 1.08799 1.10735
 O30 O -0.07267 1.03630 1.12107
 O31 O -0.04073 0.98785 0.86969
 O32 O 0.02928 1.02478 0.86152
 O33 O -0.01224 0.87037 0.95878
 O34 O 0.02117 0.86093 1.03622
 O35 O -0.13028 0.95827 0.98855
 O36 O -0.14003 1.03563 1.02125
 O37 O -0.10522 1.00530 0.91338
 O38 O -0.12041 1.07335 0.96636
 O39 O -0.08675 0.89406 1.00644
 O40 O -0.03353 0.88058 1.07456
 O41 O 0.00395 0.91401 0.89415
 O42 O 0.07684 0.96151 0.88883
 O43 O 0.04246 1.01091 1.13103
 O44 O -0.03388 0.97790 1.13984
 O45 O 0.01050 1.13122 1.04310
 O46 O -0.02643 1.13697 0.96612
 O47 O 0.13048 1.04295 1.01198
 O48 O 0.13503 0.96684 0.97227
 Zr49 Zr 0.08107 0.98868 1.01878
 O50 O 0.04058 0.94406 0.97630
 Zr51 Zr 0.01774 1.08182 0.98892
 O52 O -0.02463 1.04106 0.94447
 Zr53 Zr -0.01216 1.01875 1.08195
 O54 O -0.05659 0.97573 1.04170
 Zr55 Zr 0.01257 0.98245 0.92016
 O56 O 0.05711 1.02650 0.95995
 Zr57 Zr -0.01798 0.91970 1.01341
 O58 O 0.02540 0.96004 1.05798
 Zr59 Zr -0.08080 1.01275 0.98281
 O60 O -0.04110 1.05787 1.02654
 O61 O 0.04503 1.04603 1.04607
 O62 O -0.04541 0.95490 0.95550
 C63 C 0.08628 1.00098 1.12680
 C64 C 0.12638 1.08629 1.00054
 C65 C -0.00018 1.12716 1.08664
 C66 C -0.08467 0.99707 0.87412
 C67 C -0.00375 0.87480 0.91475
 C68 C -0.12592 0.91444 0.99800
 H69 H 0.06062 0.91809 0.96502
 H70 H -0.08265 0.96482 1.06177
 H71 H 0.06506 1.06617 1.06602
 H72 H -0.03540 1.06077 0.91809
 H73 H 0.05778 1.04271 0.86997
 H74 H 0.02897 1.10866 0.90324
 H75 H -0.06164 0.89455 1.08935
 H76 H -0.01747 0.94744 1.13710
 H77 H 0.07006 0.95018 0.85668
 H78 H 0.16595 0.97248 0.98723
 H79 H -0.14005 1.01861 1.05146
 H80 H -0.09039 1.05935 1.10211
 H81 H 0.09822 0.91086 1.06218
 H82 H 0.05085 0.86043 1.01826
 H83 H -0.05478 1.13615 0.98615
 H84 H -0.10606 1.08825 0.93853
 O85 O 0.49204 0.58776 0.60751
 O86 O 0.42572 0.53865 0.61875
 O87 O 0.60530 0.49168 0.58782
 O88 O 0.62343 0.43241 0.53981
 O89 O 0.58630 0.60737 0.49281
 O90 O 0.53480 0.62098 0.42818
 O91 O 0.48649 0.36980 0.45963
 O92 O 0.52379 0.36176 0.52991
 O93 O 0.36877 0.45897 0.48832
 O94 O 0.35812 0.53066 0.52196
 O95 O 0.45740 0.48845 0.37031
 O96 O 0.53463 0.52125 0.36074
 O97 O 0.50416 0.41353 0.39530
 O98 O 0.57253 0.46644 0.38058
 O99 O 0.39295 0.50636 0.41355
 O100 O 0.38068 0.57564 0.46790
 O101 O 0.41249 0.39431 0.50436
 O102 O 0.45951 0.38807 0.57671
 O103 O 0.50948 0.63111 0.54286
 O104 O 0.47603 0.63947 0.46665
 O105 O 0.62972 0.54321 0.51136
 O106 O 0.63565 0.46610 0.47416
 O107 O 0.54184 0.51289 0.63130
 O108 O 0.46729 0.46894 0.63387
 Zr109 Zr 0.48734 0.51856 0.58195
 O110 O 0.44282 0.47640 0.54100
 Zr111 Zr 0.58049 0.48889 0.51835
 O112 O 0.53982 0.44438 0.47599
 Zr113 Zr 0.51714 0.58182 0.48858
 O114 O 0.47439 0.54158 0.44399
 Zr115 Zr 0.48108 0.42011 0.51306
 O116 O 0.52518 0.45988 0.55759
 Zr117 Zr 0.41835 0.51328 0.48249
 O118 O 0.45843 0.55778 0.52633
 Zr119 Zr 0.51167 0.48280 0.41988
 O120 O 0.55658 0.52660 0.45963
 O121 O 0.54450 0.54589 0.54565
 O122 O 0.45371 0.45544 0.45507
 C123 C 0.49951 0.62696 0.58661
 C124 C 0.58509 0.50094 0.62701
 C125 C 0.62552 0.58676 0.50080
 C126 C 0.49581 0.37430 0.41575
 C127 C 0.37322 0.41492 0.49679
 C128 C 0.41355 0.49788 0.37447
 H129 H 0.41648 0.46548 0.56080
 H130 H 0.46353 0.56166 0.41793
 H131 H 0.56461 0.56591 0.56564
 H132 H 0.55957 0.41799 0.46525
 H133 H 0.54127 0.37019 0.55869
 H134 H 0.60746 0.40332 0.52991
 H135 H 0.39278 0.58880 0.43819
 H136 H 0.44587 0.63723 0.48370
 H137 H 0.44888 0.35575 0.56957
 H138 H 0.47412 0.48166 0.66548
 H139 H 0.51760 0.55145 0.36072
 H140 H 0.55800 0.60211 0.41054
 H141 H 0.43431 0.54803 0.65112
 H142 H 0.36966 0.54370 0.55192
 H143 H 0.63509 0.48642 0.44604
 H144 H 0.58717 0.43835 0.39469
 O145 O 0.41337 -0.10661 0.49245
 O146 O 0.46084 -0.11806 0.42712
 O147 O 0.50899 -0.08624 0.60570
 O148 O 0.56843 -0.03841 0.62340
 O149 O 0.39322 0.00836 0.58663
 O150 O 0.37937 0.07300 0.53517
 O151 O 0.63115 0.04139 0.48652
 O152 O 0.63947 -0.02848 0.52319
 O153 O 0.54179 0.01291 0.36901
 O154 O 0.46465 -0.01980 0.35939
 O155 O 0.51190 0.13108 0.45757
 O156 O 0.48010 0.14109 0.53419
 O157 O 0.58746 0.10579 0.50419
 O158 O 0.53399 0.12029 0.57284
 O159 O 0.49412 0.08781 0.39318
 O160 O 0.42589 0.03424 0.37973
 O161 O 0.60651 -0.00342 0.41248
 O162 O 0.61192 -0.07614 0.46023
 O163 O 0.36976 -0.04201 0.50982
 O164 O 0.36098 0.03444 0.47644
 O165 O 0.45750 -0.01011 0.62991
 O166 O 0.53468 0.02737 0.63554
 O167 O 0.48878 -0.12956 0.54195
 O168 O 0.52877 -0.13416 0.46568
 Zr169 Zr 0.48210 -0.08033 0.48746
 O170 O 0.52442 -0.03975 0.44277
 Zr171 Zr 0.51186 -0.01697 0.58058
 O172 O 0.55639 0.02525 0.53979
 Zr173 Zr 0.41874 0.01272 0.51749
 O174 O 0.45903 0.05727 0.47466
 Zr175 Zr 0.58065 -0.01184 0.48107
 O176 O 0.54092 -0.05633 0.52526
 Zr177 Zr 0.48730 0.01886 0.41851
 O178 O 0.44281 -0.02475 0.45877
 Zr179 Zr 0.51798 0.08140 0.51168
 O180 O 0.47408 0.04175 0.55669
 O181 O 0.45476 -0.04433 0.54476
 O182 O 0.54530 0.04622 0.45367
 C183 C 0.37410 -0.08582 0.50001
 C184 C 0.50007 -0.12537 0.58533
 C185 C 0.41387 0.00031 0.62578
 C186 C 0.62674 0.08525 0.49593
 C187 C 0.58580 0.00420 0.37330
 C188 C 0.50233 0.12692 0.41378
 H189 H 0.53564 -0.05978 0.41677
 H190 H 0.43892 0.08334 0.46388
 H191 H 0.43482 -0.06440 0.56488
 H192 H 0.58280 0.03597 0.55949
 H193 H 0.63102 -0.05685 0.54133
 H194 H 0.59752 -0.02855 0.60735
 H195 H 0.41129 0.06251 0.39354
 H196 H 0.36348 0.01759 0.44621
 H197 H 0.64404 -0.06939 0.44870
 H198 H 0.51396 -0.16508 0.47160
 H199 H 0.44911 0.14016 0.51868
 H200 H 0.39817 0.09063 0.55842
 H201 H 0.43875 -0.09774 0.40970
 H202 H 0.48179 -0.04995 0.35941
 H203 H 0.51404 0.05528 0.63525
 H204 H 0.56258 0.10668 0.58701
 O205 O -0.08659 0.39343 0.99187
 O206 O -0.03911 0.38200 0.92657
 O207 O 0.00895 0.41396 1.10518
 O208 O 0.06827 0.46182 1.12295
 O209 O -0.10690 0.50843 1.08596
 O210 O -0.12081 0.57301 1.03446
 O211 O 0.13115 0.54148 0.98629
 O212 O 0.13944 0.47154 1.02264
 O213 O 0.04189 0.51314 0.86843
 O214 O -0.03509 0.48057 0.85863
 O215 O 0.01196 0.63131 0.95717
 O216 O -0.01980 0.64142 1.03341
 O217 O 0.08746 0.60589 1.00395
 O218 O 0.03358 0.62017 1.07260
 O219 O -0.00583 0.58809 0.89275
 O220 O -0.07412 0.53433 0.87922
 O221 O 0.10659 0.49690 0.91196
 O222 O 0.11191 0.42405 0.95959
 O223 O -0.13027 0.45798 1.00922
 O224 O -0.13901 0.53444 0.97565
 O225 O -0.04265 0.48999 1.12929
 O226 O 0.03458 0.52756 1.13495
 O227 O -0.01116 0.37057 1.04144
 O228 O 0.02885 0.36601 0.96510
 Zr229 Zr -0.01787 0.41978 0.98689
 O230 O 0.02444 0.46041 0.94220
 Zr231 Zr 0.01176 0.48318 1.08001
 O232 O 0.05634 0.52538 1.03927
 Zr233 Zr -0.08132 0.51278 1.01684
 O234 O -0.04099 0.55739 0.97410
 Zr235 Zr 0.08064 0.48832 0.98053
 O236 O 0.04090 0.44382 1.02472
 Zr237 Zr -0.01263 0.51905 0.91794
 O238 O -0.05714 0.47536 0.95813
 Zr239 Zr 0.01793 0.58154 1.01118
 O240 O -0.02605 0.54187 1.05610
 O241 O -0.04528 0.45577 1.04415
 O242 O 0.04532 0.54641 0.95317
 C243 C -0.12589 0.41416 0.99945
 C244 C 0.00009 0.37481 1.08484
 C245 C -0.08627 0.50038 1.12513
 C246 C 0.12675 0.58532 0.99582
 C247 C 0.08592 0.50450 0.87274
 C248 C 0.00240 0.62719 0.91338
 H249 H 0.03568 0.44042 0.91619
 H250 H -0.06108 0.58347 0.96332
 H251 H -0.06521 0.43568 1.06426
 H252 H 0.08271 0.53607 1.05903
 H253 H 0.13094 0.44317 1.04075
 H254 H 0.09738 0.47139 1.10677
 H255 H -0.08863 0.56270 0.89292
 H256 H -0.13653 0.51745 0.94549
 H257 H 0.14403 0.43081 0.94805
 H258 H 0.01410 0.33507 0.97110
 H259 H -0.05101 0.64017 1.01835
 H260 H -0.10206 0.59067 1.05772
 H261 H -0.06114 0.40233 0.90910
 H262 H -0.01827 0.45024 0.85888
 H263 H 0.01376 0.55533 1.13484
 H264 H 0.06239 0.60683 1.08658
 O265 O 0.00672 0.58702 0.39209
 O266 O 0.07205 0.53934 0.38052
 O267 O -0.10664 0.49118 0.41204
 O268 O -0.12435 0.43174 0.46000
 O269 O -0.08757 0.60687 0.50703
 O270 O -0.03601 0.62038 0.57182
 O271 O 0.01227 0.36930 0.54037
 O272 O -0.02460 0.36087 0.47032
 O273 O 0.12995 0.45816 0.51133
 O274 O 0.13961 0.53532 0.47825
 O275 O 0.04175 0.48821 0.62947
 O276 O -0.03599 0.52132 0.63868
 O277 O -0.00521 0.41318 0.60468
 O278 O -0.07305 0.46572 0.61981
 O279 O 0.10610 0.50579 0.58598
 O280 O 0.11960 0.57402 0.53247
 O281 O 0.08631 0.39351 0.49529
 O282 O 0.03861 0.38803 0.42263
 O283 O -0.01064 0.63039 0.45683
 O284 O 0.02243 0.63922 0.53295
 O285 O -0.13095 0.54272 0.48840
 O286 O -0.13686 0.46578 0.52565
 O287 O -0.04281 0.51142 0.36877
 O288 O 0.03338 0.47158 0.36423
 Zr289 Zr 0.01157 0.51813 0.41813
 O290 O 0.05616 0.47564 0.45869
 Zr291 Zr -0.08164 0.48838 0.48144
 O292 O -0.04091 0.44398 0.52388
 Zr293 Zr -0.01844 0.58132 0.51130
 O294 O 0.02457 0.54115 0.55575
 Zr295 Zr 0.01777 0.41954 0.48681
 O296 O -0.02627 0.45932 0.44218
 Zr297 Zr 0.08058 0.51276 0.51718
 O298 O 0.04028 0.55731 0.47374
 Zr299 Zr -0.01264 0.48240 0.57997
 O300 O -0.05775 0.52605 0.54021
 O301 O -0.04576 0.54546 0.45415
 O302 O 0.04529 0.45496 0.54471
 C303 C -0.00073 0.62622 0.41305
 C304 C -0.08619 0.50000 0.37288
 C305 C -0.12676 0.58627 0.49898
 C306 C 0.00301 0.37389 0.58428
 C307 C 0.12556 0.41414 0.50285
 C308 C 0.08560 0.49757 0.62514
 H309 H 0.08213 0.46433 0.43866
 H310 H 0.03548 0.56126 0.58175
 H311 H -0.06586 0.56542 0.43407
 H312 H -0.06064 0.41763 0.53469
 H313 H -0.04263 0.36929 0.44187
 H314 H -0.10861 0.40271 0.47047
 H315 H 0.10595 0.58859 0.56083
 H316 H 0.05293 0.63643 0.51660
 H317 H 0.04994 0.35588 0.42948
 H318 H 0.02763 0.48648 0.33332
 H319 H -0.01826 0.55111 0.63918
 H320 H -0.05935 0.60159 0.58934
 H321 H 0.08943 0.56146 0.40084
 H322 H 0.13974 0.51784 0.44831
 H323 H -0.13608 0.48595 0.55388
 H324 H -0.08836 0.43833 0.60506
 O325 O 0.63068 0.95735 0.01141
 O326 O 0.63539 1.03087 -0.02929
 O327 O 0.54180 0.99052 0.12997
 O328 O 0.46960 1.01719 0.14287
 O329 O 0.51027 0.86841 0.04183
 O330 O 0.47679 0.86027 -0.03418
 O331 O 0.41364 1.10695 0.00572
 O332 O 0.45841 1.11741 0.07183
 O333 O 0.50630 1.08633 -0.10627
 O334 O 0.57690 1.02808 -0.11592
 O335 O 0.39378 0.99421 -0.08723
 O336 O 0.37809 0.92774 -0.03493
 O337 O 0.37030 1.04249 -0.01243
 O338 O 0.36090 0.96407 0.02169
 O339 O 0.45817 1.01149 -0.13084
 O340 O 0.53108 0.98117 -0.14325
 O341 O 0.48607 1.12968 -0.04255
 O342 O 0.53015 1.13386 0.03127
 O343 O 0.58725 0.89320 -0.00773
 O344 O 0.53560 0.87914 -0.07282
 O345 O 0.49276 0.91204 0.10612
 O346 O 0.42449 0.96437 0.11614
 O347 O 0.60690 1.00581 0.08638
 O348 O 0.61274 1.07574 0.03768
 Zr349 Zr 0.58081 1.01147 0.01763
 O350 O 0.54032 1.05565 -0.02543
 Zr351 Zr 0.48760 0.98103 0.08072
 O352 O 0.44373 1.02447 0.04047
 Zr353 Zr 0.51775 0.91799 -0.01225
 O354 O 0.47498 0.95843 -0.05661
 Zr355 Zr 0.48209 1.08035 0.01199
 O356 O 0.52497 1.03996 0.05704
 Zr357 Zr 0.51221 1.01700 -0.08115
 O358 O 0.55676 0.97342 -0.04098
 Zr359 Zr 0.41907 0.98728 -0.01814
 O360 O 0.45883 0.94181 0.02522
 O361 O 0.54479 0.95404 0.04480
 O362 O 0.45453 1.04492 -0.04585
 C363 C 0.62646 0.91377 0.00062
 C364 C 0.58586 0.99934 0.12566
 C365 C 0.50036 0.87280 0.08557
 C366 C 0.37450 1.08633 -0.00279
 C367 C 0.49683 1.12545 -0.08605
 C368 C 0.41429 1.00235 -0.12648
 H369 H 0.56029 1.08182 -0.03633
 H370 H 0.46402 0.93843 -0.08269
 H371 H 0.56481 0.93407 0.06492
 H372 H 0.41789 1.03601 0.06051
 H373 H 0.48111 1.11073 0.09723
 H374 H 0.45335 1.04625 0.13329
 H375 H 0.52095 0.94825 -0.13935
 H376 H 0.55958 0.89762 -0.08980
 H377 H 0.51403 1.16455 0.02847
 H378 H 0.64470 1.06939 0.04982
 H379 H 0.39391 0.91094 -0.06082
 H380 H 0.44625 0.86313 -0.01790
 H381 H 0.66605 1.02773 -0.01319
 H382 H 0.58824 1.05973 -0.10742
 H383 H 0.41011 0.93771 0.09920
 H384 H 0.35936 0.98345 0.05040
 O385 O 0.36998 0.54118 0.01251
 O386 O 0.36521 0.46754 -0.02801
 O387 O 0.45867 0.50793 0.13118
 O388 O 0.53086 0.48116 0.14402
 O389 O 0.49059 0.63004 0.04290
 O390 O 0.52385 0.63813 -0.03313
 O391 O 0.58706 0.39156 0.00657
 O392 O 0.54227 0.38095 0.07276
 O393 O 0.49435 0.41232 -0.10527
 O394 O 0.42365 0.47034 -0.11471
 O395 O 0.60673 0.50434 -0.08618
 O396 O 0.62210 0.57116 -0.03341
 O397 O 0.63027 0.45609 -0.01168
 O398 O 0.64002 0.53399 0.02246
 O399 O 0.54231 0.48702 -0.12967
 O400 O 0.46928 0.51748 -0.14194
 O401 O 0.51463 0.36885 -0.04167
 O402 O 0.47053 0.36452 0.03227
 O403 O 0.41351 0.60533 -0.00640
 O404 O 0.46498 0.61931 -0.07157
 O405 O 0.50802 0.58648 0.10724
 O406 O 0.57605 0.53391 0.11738
 O407 O 0.39361 0.49268 0.08756
 O408 O 0.38784 0.42273 0.03894
 Zr409 Zr 0.41979 0.48699 0.01885
 O410 O 0.46026 0.44281 -0.02427
 Zr411 Zr 0.51296 0.51739 0.08191
 O412 O 0.55685 0.47399 0.04155
 Zr413 Zr 0.48291 0.58044 -0.01106
 O414 O 0.52562 0.54006 -0.05550
 Zr415 Zr 0.51855 0.41809 0.01302
 O416 O 0.47564 0.45846 0.05816
 Zr417 Zr 0.48831 0.48152 -0.07998
 O418 O 0.44381 0.52508 -0.03974
 Zr419 Zr 0.58148 0.51122 -0.01706
 O420 O 0.54177 0.55661 0.02642
 O421 O 0.45581 0.54441 0.04602
 O422 O 0.54602 0.45361 -0.04479
 C423 C 0.37428 0.58478 0.00179
 C424 C 0.41460 0.49914 0.12684
 C425 C 0.50058 0.62572 0.08660
 C426 C 0.62616 0.41224 -0.00210
 C427 C 0.50392 0.37319 -0.08517
 C428 C 0.58616 0.49621 -0.12537
 H429 H 0.44032 0.41663 -0.03518
 H430 H 0.53657 0.56009 -0.08157
 H431 H 0.43583 0.56442 0.06617
 H432 H 0.58271 0.46242 0.06153
 H433 H 0.51958 0.38758 0.09820
 H434 H 0.54706 0.45208 0.13440
 H435 H 0.47976 0.55030 -0.13818
 H436 H 0.44102 0.60080 -0.08854
 H437 H 0.48666 0.33384 0.02933
 H438 H 0.35587 0.42907 0.05106
 H439 H 0.60689 0.58737 -0.06001
 H440 H 0.55442 0.63527 -0.01695
 H441 H 0.33455 0.47077 -0.01190
 H442 H 0.41235 0.43868 -0.10620
 H443 H 0.59058 0.56043 0.10035
 H444 H 0.64116 0.51501 0.05145
 O445 O -0.12999 0.04188 0.51217
 O446 O -0.13472 -0.03178 0.47180
 O447 O -0.04131 0.00866 0.63092
 O448 O 0.03103 -0.01749 0.64398
 O449 O -0.00956 0.13092 0.54245
 O450 O 0.02385 0.13891 0.46657
 O451 O 0.08704 -0.10773 0.50668
 O452 O 0.04222 -0.11822 0.57280
 O453 O -0.00561 -0.08700 0.39470
 O454 O -0.07621 -0.02901 0.38508
 O455 O 0.10683 0.00485 0.41373
 O456 O 0.12239 0.07163 0.46622
 O457 O 0.13033 -0.04327 0.48844
 O458 O 0.13992 0.03491 0.52248
 O459 O 0.04244 -0.01250 0.37022
 O460 O -0.03058 0.01814 0.35791
 O461 O 0.01464 -0.13039 0.45835
 O462 O -0.02950 -0.13463 0.53233
 O463 O -0.08650 0.10602 0.49309
 O464 O -0.03485 0.11987 0.42794
 O465 O 0.00783 0.08750 0.60689
 O466 O 0.07605 0.03494 0.61711
 O467 O -0.10641 -0.00649 0.58733
 O468 O -0.11209 -0.07649 0.53882
 Zr469 Zr -0.08018 -0.01224 0.51866
 O470 O -0.03968 -0.05646 0.47562
 Zr471 Zr 0.01295 0.01834 0.58170
 O472 O 0.05685 -0.02519 0.54148
 Zr473 Zr -0.01706 0.08119 0.48861
 O474 O 0.02573 0.04074 0.44431
 Zr475 Zr 0.01856 -0.08113 0.51301
 O476 O -0.02434 -0.04066 0.55806
 Zr477 Zr -0.01160 -0.01780 0.41989
 O478 O -0.05614 0.02577 0.46002
 Zr479 Zr 0.08156 0.01192 0.48283
 O480 O 0.04180 0.05744 0.52614
 O481 O -0.04419 0.04526 0.54574
 O482 O 0.04608 -0.04570 0.45517
 C483 C -0.12572 0.08544 0.50131
 C484 C -0.08539 -0.00013 0.62661
 C485 C 0.00036 0.12669 0.58617
 C486 C 0.12616 -0.08711 0.49806
 C487 C 0.00394 -0.12609 0.41485
 C488 C 0.08629 -0.00337 0.37454
 H489 H -0.05963 -0.08265 0.46474
 H490 H 0.03672 0.06071 0.41822
 H491 H -0.06423 0.06527 0.56585
 H492 H 0.08267 -0.03673 0.56152
 H493 H 0.01955 -0.11151 0.59823
 H494 H 0.04666 -0.04691 0.63445
 H495 H -0.01985 0.05090 0.36152
 H496 H -0.05886 0.10137 0.41103
 H497 H -0.01342 -0.16532 0.52936
 H498 H -0.14408 -0.07016 0.55091
 H499 H 0.10697 0.08804 0.43986
 H500 H 0.05446 0.13599 0.48267
 H501 H -0.16540 -0.02857 0.48790
 H502 H -0.08761 -0.06060 0.39374
 H503 H 0.09047 0.06157 0.60015
 H504 H 0.14118 0.01582 0.55139
 O505 O 0.70744 0.12021 0.26151
 O506 O 0.78098 0.11553 0.22089
 O507 O 0.74038 0.20881 0.38007
 O508 O 0.76672 0.28121 0.39302
 O509 O 0.61795 0.24053 0.29179
 O510 O 0.60995 0.27385 0.21585
 O511 O 0.85668 0.33710 0.25557
 O512 O 0.86723 0.29250 0.32175
 O513 O 0.83604 0.24446 0.14372
 O514 O 0.77802 0.17366 0.13440
 O515 O 0.74393 0.35666 0.16260
 O516 O 0.67697 0.37215 0.21542
 O517 O 0.79216 0.38037 0.23735
 O518 O 0.71414 0.39020 0.27122
 O519 O 0.76142 0.29222 0.11920
 O520 O 0.73090 0.21935 0.10700
 O521 O 0.87940 0.26487 0.20734
 O522 O 0.88375 0.22075 0.28131
 O523 O 0.64313 0.16352 0.24244
 O524 O 0.62897 0.21509 0.17730
 O525 O 0.66151 0.25798 0.35612
 O526 O 0.71397 0.32614 0.36632
 O527 O 0.75573 0.14381 0.33639
 O528 O 0.82579 0.13827 0.28791
 Zr529 Zr 0.76142 0.17005 0.26778
 O530 O 0.80559 0.21045 0.22467
 Zr531 Zr 0.73069 0.26311 0.33086
 O532 O 0.77412 0.30698 0.29051
 Zr533 Zr 0.66775 0.23299 0.23787
 O534 O 0.70817 0.27568 0.19343
 Zr535 Zr 0.83014 0.26872 0.26202
 O536 O 0.78978 0.22588 0.30716
 Zr537 Zr 0.76680 0.23839 0.16898
 O538 O 0.72325 0.19396 0.20921
 Zr539 Zr 0.73696 0.33159 0.23183
 O540 O 0.69152 0.29189 0.27531
 O541 O 0.70383 0.20597 0.29494
 O542 O 0.79464 0.29612 0.20417
 C543 C 0.66385 0.12438 0.25073
 C544 C 0.74927 0.16476 0.37569
 C545 C 0.62224 0.25046 0.33552
 C546 C 0.83604 0.37619 0.24692
 C547 C 0.87514 0.25413 0.16384
 C548 C 0.75222 0.33605 0.12343
 H549 H 0.83182 0.19053 0.21377
 H550 H 0.68816 0.28660 0.16734
 H551 H 0.68386 0.18596 0.31508
 H552 H 0.78564 0.33284 0.31049
 H553 H 0.86060 0.26986 0.34721
 H554 H 0.79596 0.29712 0.38342
 H555 H 0.69804 0.22981 0.11074
 H556 H 0.64751 0.19111 0.16036
 H557 H 0.91444 0.23686 0.27831
 H558 H 0.81953 0.10626 0.29993
 H559 H 0.66079 0.35691 0.18882
 H560 H 0.61285 0.30445 0.23195
 H561 H 0.77791 0.08488 0.23700
 H562 H 0.80983 0.16255 0.14266
 H563 H 0.68741 0.34061 0.34927
 H564 H 0.73285 0.39117 0.30039
 O565 O 0.75608 0.64229 0.66309
 O566 O 0.82149 0.63078 0.71045
 O567 O 0.64293 0.66229 0.75917
 O568 O 0.62509 0.71041 0.81845
 O569 O 0.66190 0.75734 0.64331
 O570 O 0.71341 0.82204 0.62970
 O571 O 0.76218 0.79042 0.88078
 O572 O 0.72512 0.72048 0.88921
 O573 O 0.87951 0.76175 0.79164
 O574 O 0.88911 0.72853 0.71443
 O575 O 0.79141 0.87974 0.76208
 O576 O 0.71379 0.88913 0.72910
 O577 O 0.74459 0.85479 0.83706
 O578 O 0.67648 0.86993 0.78453
 O579 O 0.85569 0.83623 0.74424
 O580 O 0.86902 0.78283 0.67578
 O581 O 0.83596 0.74547 0.85633
 O582 O 0.78825 0.67274 0.86180
 O583 O 0.73878 0.70705 0.61974
 O584 O 0.77192 0.78325 0.61086
 O585 O 0.61851 0.73877 0.70750
 O586 O 0.61276 0.77599 0.78457
 O587 O 0.70675 0.61903 0.73885
 O588 O 0.78304 0.61454 0.77840
 Zr589 Zr 0.76108 0.66840 0.73190
 O590 O 0.80577 0.70893 0.77426
 Zr591 Zr 0.66788 0.73173 0.76180
 O592 O 0.70871 0.77410 0.80619
 Zr593 Zr 0.73104 0.76158 0.66878
 O594 O 0.77408 0.80605 0.70890
 Zr595 Zr 0.76740 0.73697 0.83044
 O596 O 0.72326 0.69243 0.79075
 Zr597 Zr 0.83011 0.76746 0.73713
 O598 O 0.78976 0.72400 0.69267
 Zr599 Zr 0.73698 0.83023 0.76778
 O600 O 0.69182 0.79051 0.72414
 O601 O 0.70372 0.70443 0.70466
 O602 O 0.79489 0.79490 0.79504
 C603 C 0.74861 0.66324 0.62391
 C604 C 0.66340 0.62312 0.75040
 C605 C 0.62270 0.74935 0.66394
 C606 C 0.75295 0.83432 0.87629
 C607 C 0.87516 0.75322 0.83565
 C608 C 0.83528 0.87538 0.75270
 H609 H 0.83176 0.68892 0.78551
 H610 H 0.78498 0.83208 0.68882
 H611 H 0.68357 0.68435 0.68477
 H612 H 0.68904 0.78489 0.83260
 H613 H 0.70709 0.69203 0.88083
 H614 H 0.64106 0.72050 0.84748
 H615 H 0.85542 0.81128 0.66135
 H616 H 0.80237 0.76681 0.61355
 H617 H 0.79966 0.67955 0.89393
 H618 H 0.77727 0.58362 0.76354
 H619 H 0.73128 0.88949 0.69916
 H620 H 0.69026 0.83968 0.64863
 H621 H 0.83889 0.65117 0.68841
 H622 H 0.88932 0.69864 0.73198
 H623 H 0.61350 0.80420 0.76438
 H624 H 0.66142 0.85537 0.81217
 O625 O 0.35789 0.16388 0.74315
 O626 O 0.36961 0.21148 0.67795
 O627 O 0.33753 0.25967 0.85652
 O628 O 0.28951 0.31895 0.87432
 O629 O 0.24272 0.14389 0.83702
 O630 O 0.17805 0.13039 0.78558
 O631 O 0.20978 0.38180 0.73731
 O632 O 0.27976 0.39009 0.77414
 O633 O 0.23857 0.29253 0.61980
 O634 O 0.27162 0.21549 0.61014
 O635 O 0.12042 0.26302 0.70789
 O636 O 0.11047 0.23047 0.78491
 O637 O 0.14538 0.33808 0.75486
 O638 O 0.13048 0.28498 0.82307
 O639 O 0.16391 0.24516 0.64362
 O640 O 0.21741 0.17673 0.63031
 O641 O 0.25479 0.35724 0.66329
 O642 O 0.32752 0.36265 0.71115
 O643 O 0.29310 0.12050 0.76034
 O644 O 0.21677 0.11187 0.72690
 O645 O 0.26119 0.20802 0.88050
 O646 O 0.22376 0.28525 0.88629
 O647 O 0.38094 0.23941 0.79281
 O648 O 0.38571 0.27927 0.71659
 Zr649 Zr 0.33177 0.23273 0.73827
 O650 O 0.29127 0.27516 0.69359
 Zr651 Zr 0.26822 0.26248 0.83133
 O652 O 0.22601 0.30705 0.79054
 Zr653 Zr 0.23850 0.16956 0.76802
 O654 O 0.19405 0.20984 0.72514
 Zr655 Zr 0.26320 0.33136 0.73189
 O656 O 0.30766 0.29154 0.77608
 Zr657 Zr 0.23272 0.23809 0.66918
 O658 O 0.27620 0.19355 0.70944
 Zr659 Zr 0.16988 0.26871 0.76226
 O660 O 0.20947 0.22485 0.80730
 O661 O 0.29561 0.20541 0.79546
 O662 O 0.20524 0.29601 0.70438
 C663 C 0.33694 0.12468 0.75057
 C664 C 0.37673 0.25077 0.83617
 C665 C 0.25072 0.16444 0.87623
 C666 C 0.16586 0.37733 0.74661
 C667 C 0.24714 0.33653 0.62410
 C668 C 0.12475 0.25356 0.66408
 H669 H 0.31134 0.28640 0.66764
 H670 H 0.16800 0.18980 0.71423
 H671 H 0.31565 0.18544 0.81557
 H672 H 0.21523 0.33343 0.81025
 H673 H 0.30812 0.38160 0.79229
 H674 H 0.27979 0.34805 0.85824
 H675 H 0.18891 0.16233 0.64384
 H676 H 0.23361 0.11440 0.69666
 H677 H 0.32074 0.39475 0.69964
 H678 H 0.41664 0.26442 0.72253
 H679 H 0.11076 0.20004 0.76831
 H680 H 0.16037 0.14927 0.80874
 H681 H 0.34928 0.18947 0.66045
 H682 H 0.30168 0.23278 0.61013
 H683 H 0.19577 0.26474 0.88581
 H684 H 0.14458 0.31303 0.83776
 O685 O 0.16389 0.74228 0.35732
 O686 O 0.21126 0.67693 0.36886
 O687 O 0.25961 0.85538 0.33691
 O688 O 0.31907 0.87305 0.28891
 O689 O 0.14383 0.83624 0.24224
 O690 O 0.13009 0.78481 0.17762
 O691 O 0.38167 0.73599 0.20929
 O692 O 0.39005 0.77264 0.27912
 O693 O 0.29214 0.61858 0.23780
 O694 O 0.21504 0.60906 0.27070
 O695 O 0.26258 0.70689 0.11972
 O696 O 0.23051 0.78385 0.10980
 O697 O 0.33800 0.75352 0.14487
 O698 O 0.28491 0.82201 0.13005
 O699 O 0.24461 0.64261 0.16307
 O700 O 0.17622 0.62945 0.21670
 O701 O 0.35692 0.66197 0.25407
 O702 O 0.36237 0.70978 0.32683
 O703 O 0.12043 0.75965 0.29266
 O704 O 0.11157 0.72614 0.21629
 O705 O 0.20808 0.87956 0.26069
 O706 O 0.28535 0.88514 0.22322
 O707 O 0.23937 0.79169 0.38030
 O708 O 0.27927 0.71541 0.38487
 Zr709 Zr 0.23263 0.73720 0.33106
 O710 O 0.27488 0.69239 0.29051
 Zr711 Zr 0.26247 0.83023 0.26761
 O712 O 0.30696 0.78931 0.22540
 Zr713 Zr 0.16938 0.76715 0.23793
 O714 O 0.20958 0.72419 0.19342
 Zr715 Zr 0.33115 0.73061 0.26253
 O716 O 0.29148 0.77492 0.30699
 Zr717 Zr 0.23774 0.66811 0.23195
 O718 O 0.19332 0.70849 0.27552
 Zr719 Zr 0.26856 0.76115 0.16927
 O720 O 0.22475 0.80630 0.20889
 O721 O 0.20535 0.79446 0.29499
 O722 O 0.29578 0.70318 0.20453
 C723 C 0.12469 0.74989 0.33647
 C724 C 0.25072 0.83506 0.37608
 C725 C 0.16445 0.87540 0.25030
 C726 C 0.37725 0.74531 0.16541
 C727 C 0.33615 0.62281 0.24646
 C728 C 0.25299 0.66311 0.12395
 H729 H 0.28607 0.66640 0.31055
 H730 H 0.18947 0.71339 0.16738
 H731 H 0.18544 0.81463 0.31505
 H732 H 0.33340 0.80897 0.21465
 H733 H 0.38160 0.79084 0.30745
 H734 H 0.34815 0.85688 0.27919
 H735 H 0.16177 0.64309 0.18829
 H736 H 0.11400 0.69595 0.23322
 H737 H 0.39445 0.69814 0.32007
 H738 H 0.26447 0.72134 0.41581
 H739 H 0.19980 0.76775 0.11035
 H740 H 0.14897 0.80795 0.15994
 H741 H 0.18919 0.65949 0.34854
 H742 H 0.23222 0.60907 0.30081
 H743 H 0.26480 0.88473 0.19526
 H744 H 0.31316 0.83648 0.14401
 O745 O 0.11864 0.73916 0.79185
 O746 O 0.11402 0.77975 0.71838
 O747 O 0.20765 0.62055 0.75857
 O748 O 0.27990 0.60757 0.73234
 O749 O 0.23923 0.70862 0.88102
 O750 O 0.27241 0.78472 0.88915
 O751 O 0.33572 0.74489 0.64243
 O752 O 0.29107 0.67863 0.63205
 O753 O 0.24318 0.85670 0.66296
 O754 O 0.17253 0.86641 0.72127
 O755 O 0.35563 0.83765 0.75536
 O756 O 0.37128 0.78537 0.82170
 O757 O 0.37899 0.76310 0.70692
 O758 O 0.38838 0.72869 0.78538
 O759 O 0.29133 0.88133 0.73797
 O760 O 0.21836 0.89379 0.76812
 O761 O 0.26345 0.79294 0.61970
 O762 O 0.21929 0.71921 0.61552
 O763 O 0.16202 0.75819 0.85606
 O764 O 0.21362 0.82321 0.87027
 O765 O 0.25662 0.64434 0.83731
 O766 O 0.32491 0.63438 0.78495
 O767 O 0.14248 0.66407 0.74339
 O768 O 0.13674 0.71283 0.67350
 Zr769 Zr 0.16858 0.73284 0.73783
 O770 O 0.20910 0.77593 0.69369
 Zr771 Zr 0.26178 0.66977 0.76834
 O772 O 0.30568 0.71001 0.72493
 Zr773 Zr 0.23156 0.76269 0.83139
 O774 O 0.27435 0.80707 0.79098
 Zr775 Zr 0.26733 0.73848 0.66904
 O776 O 0.22443 0.69343 0.70939
 Zr777 Zr 0.23721 0.83166 0.73235
 O778 O 0.19264 0.79144 0.77590
 Zr779 Zr 0.33027 0.76861 0.76217
 O780 O 0.29050 0.72525 0.80761
 O781 O 0.20454 0.70564 0.79531
 O782 O 0.29488 0.79631 0.70449
 C783 C 0.12283 0.74996 0.83543
 C784 C 0.16359 0.62481 0.74974
 C785 C 0.24920 0.66489 0.87660
 C786 C 0.37481 0.75350 0.66307
 C787 C 0.25273 0.83644 0.62386
 C788 C 0.33518 0.87692 0.74721
 H789 H 0.18916 0.78683 0.66751
 H790 H 0.28530 0.83314 0.81100
 H791 H 0.18452 0.68550 0.81526
 H792 H 0.33152 0.68999 0.71338
 H793 H 0.26830 0.65326 0.63861
 H794 H 0.29586 0.61712 0.70311
 H795 H 0.22835 0.88985 0.80108
 H796 H 0.18977 0.84026 0.85170
 H797 H 0.23545 0.72192 0.58484
 H798 H 0.10478 0.70066 0.67980
 H799 H 0.35540 0.81118 0.83858
 H800 H 0.30299 0.76853 0.88631
 H801 H 0.08336 0.76364 0.72142
 H802 H 0.16124 0.85797 0.68958
 H803 H 0.33928 0.65131 0.81162
 H804 H 0.39011 0.70016 0.76576
 O805 O 0.25647 0.14223 0.16310
 O806 O 0.32166 0.13081 0.21081
 O807 O 0.14283 0.16221 0.25884
 O808 O 0.12464 0.21022 0.31793
 O809 O 0.16215 0.25722 0.14301
 O810 O 0.21368 0.32190 0.12956
 O811 O 0.26136 0.29026 0.38110
 O812 O 0.22442 0.22025 0.38922
 O813 O 0.37915 0.26169 0.29225
 O814 O 0.38898 0.22850 0.21496
 O815 O 0.29104 0.37963 0.26236
 O816 O 0.21394 0.38936 0.22950
 O817 O 0.24387 0.35459 0.33729
 O818 O 0.17577 0.36945 0.28407
 O819 O 0.35544 0.33619 0.24480
 O820 O 0.36923 0.28303 0.17651
 O821 O 0.33542 0.24539 0.35681
 O822 O 0.28773 0.17263 0.36204
 O823 O 0.23928 0.20695 0.11967
 O824 O 0.27236 0.28328 0.11106
 O825 O 0.11859 0.23871 0.20709
 O826 O 0.11254 0.27584 0.28420
 O827 O 0.20677 0.11901 0.23876
 O828 O 0.28291 0.11444 0.27848
 Zr829 Zr 0.26110 0.16836 0.23197
 O830 O 0.30554 0.20889 0.27460
 Zr831 Zr 0.16774 0.23162 0.26155
 O832 O 0.20831 0.27395 0.30618
 Zr833 Zr 0.23121 0.26148 0.16874
 O834 O 0.27399 0.30596 0.20913
 Zr835 Zr 0.26695 0.23688 0.33067
 O836 O 0.22304 0.19234 0.29070
 Zr837 Zr 0.32996 0.26744 0.23757
 O838 O 0.28988 0.22398 0.19288
 Zr839 Zr 0.23666 0.33010 0.26790
 O840 O 0.19177 0.29040 0.22397
 O841 O 0.20380 0.20431 0.20452
 O842 O 0.29451 0.29484 0.29538
 C843 C 0.24919 0.16315 0.12386
 C844 C 0.16339 0.12308 0.25018
 C845 C 0.12288 0.24930 0.16355
 C846 C 0.25206 0.33416 0.37659
 C847 C 0.37468 0.25311 0.33624
 C848 C 0.33493 0.37531 0.25313
 H849 H 0.33150 0.18888 0.28592
 H850 H 0.28493 0.33203 0.18912
 H851 H 0.18376 0.18423 0.18453
 H852 H 0.18850 0.28470 0.33251
 H853 H 0.20646 0.19178 0.38072
 H854 H 0.14056 0.22010 0.34707
 H855 H 0.35545 0.31128 0.16187
 H856 H 0.30279 0.26681 0.11385
 H857 H 0.29900 0.17942 0.39422
 H858 H 0.27720 0.08353 0.26356
 H859 H 0.23083 0.38922 0.19922
 H860 H 0.19045 0.33954 0.14841
 H861 H 0.33912 0.15119 0.18881
 H862 H 0.38929 0.19869 0.23266
 H863 H 0.11320 0.30398 0.26392
 H864 H 0.16098 0.35529 0.31206
 O865 O 0.74340 0.64346 0.33703
 O866 O 0.67803 0.63222 0.28962
 O867 O 0.85674 0.66329 0.24137
 O868 O 0.87482 0.71130 0.18208
 O869 O 0.83781 0.75839 0.35711
 O870 O 0.78638 0.82307 0.37078
 O871 O 0.73801 0.79134 0.11927
 O872 O 0.77483 0.72144 0.11105
 O873 O 0.62038 0.76297 0.20844
 O874 O 0.61068 0.73020 0.28577
 O875 O 0.70870 0.88109 0.23808
 O876 O 0.78578 0.89076 0.27052
 O877 O 0.75564 0.85577 0.16287
 O878 O 0.82397 0.87053 0.21607
 O879 O 0.64431 0.83777 0.25582
 O880 O 0.63072 0.78457 0.32417
 O881 O 0.66399 0.74665 0.14379
 O882 O 0.71165 0.67386 0.13849
 O883 O 0.76069 0.70810 0.38054
 O884 O 0.72762 0.78459 0.38927
 O885 O 0.88120 0.73976 0.29294
 O886 O 0.88711 0.77689 0.21582
 O887 O 0.79282 0.62017 0.26153
 O888 O 0.71666 0.61586 0.22175
 Zr889 Zr 0.73857 0.66967 0.26832
 O890 O 0.69402 0.71028 0.22591
 Zr891 Zr 0.83190 0.73278 0.23859
 O892 O 0.79123 0.77515 0.19405
 Zr893 Zr 0.76867 0.76275 0.33154
 O894 O 0.72585 0.80733 0.29124
 Zr895 Zr 0.73251 0.73813 0.16975
 O896 O 0.77654 0.69355 0.20954
 Zr897 Zr 0.66974 0.76892 0.26296
 O898 O 0.70992 0.72535 0.30751
 Zr899 Zr 0.76300 0.83140 0.23233
 O900 O 0.80797 0.79163 0.27619
 O901 O 0.79594 0.70555 0.29567
 O902 O 0.70505 0.79620 0.20502
 C903 C 0.75079 0.66431 0.37626
 C904 C 0.83620 0.62418 0.25011
 C905 C 0.87702 0.75032 0.33650
 C906 C 0.74738 0.83521 0.12364
 C907 C 0.62476 0.75426 0.16445
 C908 C 0.66482 0.87688 0.24745
 H909 H 0.66802 0.69028 0.21467
 H910 H 0.71500 0.83343 0.31127
 H911 H 0.81602 0.68544 0.31561
 H912 H 0.81099 0.78584 0.16767
 H913 H 0.79284 0.69298 0.11950
 H914 H 0.85884 0.72122 0.15300
 H915 H 0.64456 0.81282 0.33875
 H916 H 0.69723 0.76804 0.38663
 H917 H 0.70028 0.68061 0.10634
 H918 H 0.72229 0.58492 0.23665
 H919 H 0.76930 0.89043 0.30103
 H920 H 0.80949 0.84075 0.35185
 H921 H 0.66069 0.65259 0.31174
 H922 H 0.61045 0.70024 0.26832
 H923 H 0.88651 0.80505 0.23609
 H924 H 0.83857 0.85644 0.18794
 O925 O 0.66376 0.24175 0.85697
 O926 O 0.71144 0.17659 0.86829
 O927 O 0.75926 0.35528 0.83654
 O928 O 0.81851 0.37322 0.78858
 O929 O 0.64338 0.33604 0.74208
 O930 O 0.62965 0.28458 0.67740
 O931 O 0.88164 0.23670 0.70865
 O932 O 0.88988 0.27306 0.77859
 O933 O 0.79242 0.11867 0.73737
 O934 O 0.71527 0.10898 0.77000
 O935 O 0.76246 0.20724 0.61911
 O936 O 0.73042 0.28364 0.60908
 O937 O 0.83784 0.25425 0.64433
 O938 O 0.78400 0.32267 0.63000
 O939 O 0.74484 0.14281 0.66238
 O940 O 0.67658 0.12919 0.71591
 O941 O 0.85711 0.16225 0.75349
 O942 O 0.86245 0.21008 0.82620
 O943 O 0.62013 0.25902 0.79241
 O944 O 0.61140 0.22579 0.71591
 O945 O 0.70757 0.37947 0.76047
 O946 O 0.78475 0.38524 0.72288
 O947 O 0.73924 0.29148 0.87987
 O948 O 0.77926 0.21529 0.88435
 Zr949 Zr 0.73254 0.23702 0.83059
 O950 O 0.77497 0.19245 0.78992
 Zr951 Zr 0.76204 0.33023 0.76723
 O952 O 0.80668 0.28955 0.72494
 Zr953 Zr 0.66908 0.26695 0.73763
 O954 O 0.70947 0.22422 0.69301
 Zr955 Zr 0.83113 0.23085 0.76193
 O956 O 0.79127 0.27494 0.80649
 Zr957 Zr 0.73789 0.16811 0.73134
 O958 O 0.69331 0.20826 0.77502
 Zr959 Zr 0.76833 0.26137 0.66881
 O960 O 0.72432 0.30627 0.70854
 O961 O 0.70504 0.29427 0.79468
 O962 O 0.79581 0.20340 0.70390
 C963 C 0.62446 0.24918 0.83622
 C964 C 0.75051 0.33487 0.87569
 C965 C 0.66394 0.37526 0.75013
 C966 C 0.87718 0.24620 0.66481
 C967 C 0.83644 0.12300 0.74603
 C968 C 0.75304 0.16342 0.62327
 H969 H 0.78624 0.16648 0.80993
 H970 H 0.68939 0.21339 0.66694
 H971 H 0.68507 0.31433 0.81480
 H972 H 0.83301 0.30935 0.71422
 H973 H 0.88135 0.29122 0.80693
 H974 H 0.84764 0.35716 0.77883
 H975 H 0.66198 0.14297 0.68765
 H976 H 0.61403 0.19551 0.73265
 H977 H 0.89457 0.19856 0.81942
 H978 H 0.76445 0.22113 0.91530
 H979 H 0.69938 0.26822 0.61018
 H980 H 0.64840 0.30787 0.65977
 H981 H 0.68935 0.15914 0.84799
 H982 H 0.73241 0.10901 0.80014
 H983 H 0.76403 0.38498 0.69505
 H984 H 0.81258 0.33690 0.64354
 N985 N 0.09557 0.99955 1.20889
 N986 N 0.11407 0.99879 1.16827
 N987 N 0.59494 0.49978 0.70905
 N988 N 0.61314 0.49847 0.66831
 N989 N 0.40449 0.00031 0.70782
 N990 N 0.38602 0.00221 0.66724
 N991 N -0.09570 0.50023 1.20715
 N992 N -0.11416 0.50213 1.16658
 N993 N -0.09567 0.50007 0.29078
 N994 N -0.11406 0.49795 0.33142
 N995 N 0.40456 1.00061 -0.20855
 N996 N 0.38621 1.00075 -0.16784
 N997 N 0.59546 0.49830 -0.20737
 N998 N 0.61408 0.49810 -0.16681
 N999 N 0.09572 -0.00170 0.29252
 N1000 N 0.11425 -0.00163 0.33312
 N1001 N 0.20855 1.09556 1.00004
 N1002 N 0.16792 1.11405 0.99830
 N1003 N 0.70755 0.59592 0.50004
 N1004 N 0.66699 0.61454 0.49872
 N1005 N 0.70830 0.40336 -0.00108
 N1006 N 0.66779 0.38455 -0.00049
 N1007 N 0.20832 -0.09619 0.49929
 N1008 N 0.16776 -0.11489 0.49977
 N1009 N 0.29202 -0.09552 0.49968
 N1010 N 0.33273 -0.11379 0.49829
 N1011 N -0.20799 0.40423 0.99933
 N1012 N -0.16722 0.38610 0.99779
 N1013 N -0.20881 0.59567 0.49954
 N1014 N -0.16820 0.61412 0.50109
 N1015 N 0.29233 1.09560 -0.00092
 N1016 N 0.33296 1.11415 -0.00086
 N1017 N -0.00112 1.20924 1.09560
 N1018 N -0.00239 1.16874 1.11432
 N1019 N 0.49892 0.70904 0.59561
 N1020 N 0.49749 0.66853 0.61430
 N1021 N 0.00030 0.70826 0.40433
 N1022 N 0.00144 0.66782 0.38548
 N1023 N 0.49940 1.20750 -0.09539
 N1024 N 0.49907 1.16689 -0.11395
 N1025 N 0.50165 0.29115 -0.09502
 N1026 N 0.50185 0.33188 -0.11328
 N1027 N 0.00179 -0.20810 0.40501
 N1028 N 0.00193 -0.16738 0.38676
 N1029 N 0.49927 -0.20735 0.59510
 N1030 N 0.50179 -0.16671 0.61333
 N1031 N -0.00071 0.29283 1.09484
 N1032 N 0.00184 0.33353 1.11293
 N1033 N 0.75104 0.34521 0.04137
 N1034 N 0.75055 0.36387 0.08192
 N1035 N 0.25103 0.84559 0.54180
 N1036 N 0.25074 0.86427 0.58236
 N1037 N 0.74926 0.65438 0.54190
 N1038 N 0.75055 0.63560 0.58236
 N1039 N 0.25030 0.15416 0.04178
 N1040 N 0.25136 0.13546 0.08230
 N1041 N 0.25044 0.15472 0.95820
 N1042 N 0.24882 0.13645 0.91754
 N1043 N 0.74980 0.65486 0.45830
 N1044 N 0.74868 0.63646 0.41767
 N1045 N 0.25043 0.84492 0.45813
 N1046 N 0.25263 0.86308 0.41742
 N1047 N 0.75051 0.34462 0.95773
 N1048 N 0.75247 0.36284 0.91705
 N1049 N 0.84538 0.45831 0.24838
 N1050 N 0.86390 0.41767 0.24860
 N1051 N 0.34523 0.95900 0.74925
 N1052 N 0.36337 0.91821 0.74901
 N1053 N 0.15479 0.95742 0.25044
 N1054 N 0.13648 0.91677 0.24858
 N1055 N 0.65427 0.45732 0.75024
 N1056 N 0.63593 0.41666 0.74848
 N1057 N 0.65406 0.54099 0.75064
 N1058 N 0.63559 0.58160 0.75268
 N1059 N 0.15432 0.04102 0.25066
 N1060 N 0.13568 0.08154 0.25246
 N1061 N 0.34589 0.04264 0.74998
 N1062 N 0.36463 0.08312 0.74861
 N1063 N 0.84542 0.54203 0.24957
 N1064 N 0.86393 0.58261 0.24776
 N1065 N 0.95720 0.25234 0.15416
 N1066 N 0.91651 0.25214 0.13578
 N1067 N 0.45691 0.75191 0.65400
 N1068 N 0.41637 0.75169 0.63531
 N1069 N 0.45876 0.25015 0.84584
 N1070 N 0.41811 0.25255 0.86417
 N1071 N 0.95910 0.75071 0.34587
 N1072 N 0.91848 0.75218 0.36437
 N1073 N 0.04271 0.75022 0.34578
 N1074 N 0.08326 0.74827 0.36430
 N1075 N 0.54237 0.24899 0.84583
 N1076 N 0.58303 0.24739 0.86419
 N1077 N 0.54059 0.75051 0.65445
 N1078 N 0.58127 0.75156 0.63608
 N1079 N 0.04084 0.25081 0.15413
 N1080 N 0.08148 0.25161 0.13566
 N1081 N -0.09488 0.99884 0.79210
 N1082 N -0.11295 0.99869 0.83290
 N1083 N 0.40410 0.49888 0.29244
 N1084 N 0.38559 0.49937 0.33305
 N1085 N 0.59553 0.00103 0.29126
 N1086 N 0.61386 0.00233 0.33192
 N1087 N 0.09576 0.50121 0.79068
 N1088 N 0.11405 0.50268 0.83136
 N1089 N 0.09553 0.49988 0.70713
 N1090 N 0.11374 0.49954 0.66640
 N1091 N 0.59548 1.00029 0.20771
 N1092 N 0.61381 1.00132 0.16704
 N1093 N 0.40464 0.49837 0.20892
 N1094 N 0.38651 0.49740 0.16818
 N1095 N -0.09506 -0.00137 0.70864
 N1096 N -0.11339 -0.00204 0.66798
 N1097 N -0.20796 0.90420 0.99963
 N1098 N -0.16714 0.88616 0.99962
 N1099 N 0.29115 0.40473 0.49931
 N1100 N 0.33197 0.38667 0.49852
 N1101 N 0.29226 0.59477 0.00013
 N1102 N 0.33301 0.61291 -0.00035
 N1103 N -0.20772 0.09520 0.49950
 N1104 N -0.16703 0.11347 0.49903
 N1105 N 0.70878 0.09522 0.49856
 N1106 N 0.66802 0.11342 0.49792
 N1107 N 0.20875 0.59505 0.99912
 N1108 N 0.16807 0.61339 0.99812
 N1109 N 0.20759 0.40433 0.50008
 N1110 N 0.16691 0.38600 0.50125
 N1111 N 0.70852 0.90396 -0.00030
 N1112 N 0.66782 0.88570 -0.00136
 N1113 N -0.00145 0.79281 0.90462
 N1114 N -0.00221 0.83357 0.88652
 N1115 N 0.49803 0.29238 0.40536
 N1116 N 0.49752 0.33319 0.38740
 N1117 N 0.00080 0.29198 0.59494
 N1118 N 0.00139 0.33285 0.61277
 N1119 N 0.50017 0.79092 0.09581
 N1120 N 0.49877 0.83166 0.11384
 N1121 N 0.50133 0.70760 0.09625
 N1122 N 0.50253 0.66700 0.11464
 N1123 N 0.00112 0.20861 0.59565
 N1124 N 0.00229 0.16804 0.61412
 N1125 N 0.49937 0.20892 0.40452
 N1126 N 0.50010 0.16837 0.38592
 N1127 N -0.00035 0.70926 0.90409
 N1128 N 0.00028 0.66867 0.88554
 N1129 N 0.25063 0.65450 0.95855
 N1130 N 0.25126 0.63660 0.91772
 N1131 N 0.75050 0.15467 0.45774
 N1132 N 0.75127 0.13664 0.41695
 N1133 N 0.24987 0.34483 0.45862
 N1134 N 0.25028 0.36259 0.41770
 N1135 N 0.75099 0.84468 0.95823
 N1136 N 0.75129 0.86267 0.91743
 N1137 N 0.74988 0.84507 0.04166
 N1138 N 0.74925 0.86335 0.08234
 N1139 N 0.24946 0.34589 0.54212
 N1140 N 0.24871 0.36449 0.58268
 N1141 N 0.75070 0.15401 0.54124
 N1142 N 0.75117 0.13550 0.58183
 N1143 N 0.25080 0.65364 0.04198
 N1144 N 0.25110 0.63512 0.08256
 N1145 N 0.15438 0.54280 0.74854
 N1146 N 0.13576 0.58334 0.74774
 N1147 N 0.65447 0.04243 0.24959
 N1148 N 0.63598 0.08301 0.24861
 N1149 N 0.84610 0.04096 0.74976
 N1150 N 0.86450 0.08159 0.74812
 N1151 N 0.34554 0.54080 0.24954
 N1152 N 0.36408 0.58137 0.24844
 N1153 N 0.34499 0.45729 0.25110
 N1154 N 0.36312 0.41653 0.25148
 N1155 N 0.84555 0.95741 0.75108
 N1156 N 0.86356 0.91659 0.75106
 N1157 N 0.65477 0.95895 0.24922
 N1158 N 0.63664 0.91819 0.24908
 N1159 N 0.15528 0.45934 0.74872
 N1160 N 0.13744 0.41847 0.74828
 N1161 N 0.04073 0.75133 0.84518
 N1162 N 0.08144 0.75208 0.86343
 N1163 N 0.54018 0.25132 0.34561
 N1164 N 0.58096 0.25229 0.36369
 N1165 N 0.54279 0.75070 0.15493
 N1166 N 0.58340 0.75211 0.13646
 N1167 N 0.04277 0.25141 0.65435
 N1168 N 0.08345 0.25165 0.63600
 N1169 N 0.95923 0.24993 0.65461
 N1170 N 0.91844 0.24846 0.63655
 N1171 N 0.45926 0.74843 0.15537
 N1172 N 0.41851 0.74734 0.13723
 N1173 N 0.45666 0.25114 0.34603
 N1174 N 0.41597 0.25156 0.36439
 N1175 N 0.95718 0.75139 0.84537
 N1176 N 0.91649 0.75176 0.86373
   
