data_POSCAR
  _audit_creation_date              2014-09-24
  _audit_creation_method            'ToBaCCo'
  _symmetry_space_group_name_H-M    'P1'
  _symmetry_Int_Tables_number       1
  _symmetry_cell_setting            triclinic
  loop_
  _symmetry_equiv_pos_as_xyz
 x,y,z
_cell_length_a 27.0824
_cell_length_b 27.0830
_cell_length_c 27.1054
_cell_angle_alpha 89.957900
_cell_angle_beta 90.009300
_cell_angle_gamma 90.001300
loop_
  _atom_site_label
  _atom_site_type_symbol
  _atom_site_fract_x
  _atom_site_fract_y
  _atom_site_fract_z
C1 C -0.06724 0.51123 0.27096
 C2 C -0.02087 0.52073 0.24986
 C3 C -0.01136 0.56711 0.22876
 C4 C -0.04808 0.60356 0.22827
 C5 C -0.09415 0.59407 0.24987
 C6 C -0.10366 0.54798 0.27147
 C7 C 0.01764 0.48221 0.24986
 C8 C 0.00812 0.43579 0.22888
 C9 C 0.04486 0.39942 0.22840
 C10 C 0.09094 0.40895 0.24984
 C11 C 0.10047 0.45500 0.27129
 C12 C 0.06408 0.49172 0.27084
 H13 H -0.07451 0.47557 0.28770
 H14 H 0.02429 0.57438 0.21202
 H15 H -0.02751 0.42837 0.21220
 H16 H 0.07151 0.52734 0.28752
 H17 H -0.12248 0.62243 0.24988
 H18 H 0.11926 0.38064 0.24982
 C19 C -0.06542 0.49023 0.73156
 C20 C -0.01905 0.48077 0.75269
 C21 C -0.00946 0.43431 0.77361
 C22 C -0.04611 0.39777 0.77386
 C23 C -0.09216 0.40729 0.75222
 C24 C -0.10170 0.45341 0.73085
 C25 C 0.01942 0.51934 0.75268
 C26 C 0.00985 0.56576 0.77363
 C27 C 0.04652 0.60228 0.77390
 C28 C 0.09255 0.59280 0.75224
 C29 C 0.10206 0.54671 0.73083
 C30 C 0.06577 0.50991 0.73154
 H31 H -0.07286 0.52587 0.71488
 H32 H 0.02620 0.42703 0.79033
 H33 H -0.02580 0.57301 0.79037
 H34 H 0.07319 0.47430 0.71484
 H35 H -0.12049 0.37896 0.75193
 H36 H 0.12089 0.62112 0.75196
 C37 C 0.27092 -0.06688 0.50834
 C38 C 0.24979 -0.02051 0.51779
 C39 C 0.22883 -0.01098 0.56418
 C40 C 0.22852 -0.04763 0.60063
 C41 C 0.25012 -0.09366 0.59122
 C42 C 0.27159 -0.10325 0.54516
 C43 C 0.24970 0.01802 0.47926
 C44 C 0.22857 0.00854 0.43292
 C45 C 0.22797 0.04534 0.39654
 C46 C 0.24951 0.09143 0.40608
 C47 C 0.27111 0.10087 0.45208
 C48 C 0.27072 0.06443 0.48874
 H49 H 0.28758 -0.07419 0.47269
 H50 H 0.21206 0.02462 0.57154
 H51 H 0.21188 -0.02714 0.42565
 H52 H 0.28751 0.07182 0.52431
 H53 H 0.25020 -0.12184 0.61970
 H54 H 0.24950 0.11989 0.37789
 C55 C 0.72934 -0.06689 0.49146
 C56 C 0.75044 -0.02050 0.48195
 C57 C 0.77138 -0.01095 0.43554
 C58 C 0.77169 -0.04759 0.39913
 C59 C 0.75012 -0.09363 0.40861
 C60 C 0.72867 -0.10324 0.45469
 C61 C 0.75052 0.01802 0.52042
 C62 C 0.77163 0.00852 0.56678
 C63 C 0.77221 0.04531 0.60311
 C64 C 0.75070 0.09140 0.59351
 C65 C 0.72913 0.10086 0.54749
 C66 C 0.72952 0.06443 0.51088
 H67 H 0.71269 -0.07421 0.52713
 H68 H 0.78813 0.02466 0.42812
 H69 H 0.78831 -0.02716 0.57411
 H70 H 0.71275 0.07183 0.47530
 H71 H 0.75004 -0.12181 0.38016
 H72 H 0.75070 0.11986 0.62167
 C73 C 0.49019 0.26876 1.06553
 C74 C 0.48074 0.24756 1.01924
 C75 C 0.43431 0.22655 1.00973
 C76 C 0.39780 0.22627 1.04637
 C77 C 0.40731 0.24798 1.09233
 C78 C 0.45340 0.26946 1.10181
 C79 C 0.51930 0.24754 0.98078
 C80 C 0.56574 0.22654 0.99034
 C81 C 0.60223 0.22620 0.95368
 C82 C 0.59270 0.24785 0.90766
 C83 C 0.54662 0.26931 0.89814
 C84 C 0.50984 0.26867 0.93443
 H85 H 0.52580 0.28549 1.07292
 H86 H 0.42704 0.20976 0.97413
 H87 H 0.57302 0.20980 1.02599
 H88 H 0.47422 0.28539 0.92701
 H89 H 0.37900 0.24825 1.12066
 H90 H 0.62100 0.24807 0.87932
 C91 C 0.50985 0.73137 1.06530
 C92 C 0.51930 0.75243 1.01892
 C93 C 0.56574 0.77337 1.00930
 C94 C 0.60227 0.77371 1.04594
 C95 C 0.59277 0.75213 1.09199
 C96 C 0.54666 0.73075 1.10157
 C97 C 0.48071 0.75241 0.98049
 C98 C 0.43426 0.77334 0.99006
 C99 C 0.39772 0.77361 0.95344
 C100 C 0.40721 0.75196 0.90745
 C101 C 0.45332 0.73057 0.89792
 C102 C 0.49014 0.73128 0.93417
 H103 H 0.47423 0.71470 1.07277
 H104 H 0.57301 0.79005 0.97363
 H105 H 0.42700 0.79007 1.02568
 H106 H 0.52577 0.71460 0.92674
 H107 H 0.62109 0.75192 1.12032
 H108 H 0.37887 0.75169 0.87914
 B109 B 1.00001 1.05020 0.03089
 B110 B 1.00013 1.05020 -0.03127
 B111 B 1.05040 1.03098 -0.00012
 B112 B 1.03111 0.99985 0.05019
 B113 B 0.96889 0.99990 0.05009
 B114 B 0.94974 1.03098 -0.00023
 B115 B 1.00008 0.94954 -0.03118
 B116 B 1.00004 0.94955 0.03098
 B117 B 0.94974 0.96877 -0.00021
 B118 B 0.96902 0.99985 -0.05048
 B119 B 1.03124 0.99988 -0.05039
 B120 B 1.05039 0.96876 -0.00003
 B121 B 0.55046 0.50017 0.46879
 B122 B 0.55045 0.50010 0.53095
 B123 B 0.53124 0.55046 0.49994
 B124 B 0.50011 0.53133 0.44961
 B125 B 0.50015 0.46911 0.44954
 B126 B 0.53124 0.44980 0.49979
 B127 B 0.44980 0.50006 0.53093
 B128 B 0.44981 0.50021 0.46877
 B129 B 0.46901 0.44981 0.49982
 B130 B 0.50010 0.46894 0.55011
 B131 B 0.50015 0.53115 0.55017
 B132 B 0.46903 0.55046 0.49988
 C133 C 1.02042 1.26786 0.15950
 N134 N 1.04049 1.22555 0.17724
 N135 N 1.03444 1.18311 0.15313
 C136 C 1.00810 1.18171 0.11059
 N137 N 0.98798 1.22401 0.09287
 N138 N 0.99403 1.26645 0.11698
 C139 C 1.02842 1.31385 0.18446
 C140 C 1.03569 1.35272 0.20485
 C141 C 1.00350 1.13647 0.08359
 C142 C 1.00093 1.09855 0.06061
 C143 C 0.97684 0.73240 0.16028
 N144 N 1.00457 0.73363 0.11863
 N145 N 1.01128 0.77594 0.09440
 C146 C 0.99052 0.81829 0.11114
 N147 N 0.96283 0.81707 0.15282
 N148 N 0.95611 0.77477 0.17704
 C149 C 0.96827 0.68654 0.18539
 C150 C 0.96069 0.64774 0.20586
 C151 C 0.99582 0.86338 0.08394
 C152 C 0.99885 0.90123 0.06082
 C153 C 0.97846 1.26833 -0.15919
 N154 N 1.00586 1.26660 -0.11733
 N155 N 1.01224 1.22404 -0.09345
 C156 C 0.99146 1.18192 -0.11077
 N157 N 0.96410 1.18363 -0.15265
 N158 N 0.95772 1.22619 -0.17652
 C159 C 0.97015 1.31446 -0.18388
 C160 C 0.96268 1.35345 -0.20403
 C161 C 0.99636 1.13658 -0.08393
 C162 C 0.99912 1.09858 -0.06101
 C163 C 1.02198 0.73159 -0.15907
 N164 N 1.04301 0.77370 -0.17617
 N165 N 1.03661 0.81621 -0.15228
 C166 C 1.00894 0.81789 -0.11061
 N167 N 0.98787 0.77580 -0.09353
 N168 N 0.99427 0.73329 -0.11742
 C169 C 1.03029 0.68551 -0.18378
 C170 C 1.03775 0.64656 -0.20396
 C171 C 1.00397 0.86319 -0.08376
 C172 C 1.00116 0.90116 -0.06086
 C173 C 1.15999 1.02121 0.26766
 N174 N 1.11763 0.99452 0.26633
 N175 N 1.09345 0.98827 0.22396
 C176 C 1.11095 1.00847 0.18164
 N177 N 1.15333 1.03512 0.18296
 N178 N 1.17751 1.04137 0.22533
 C179 C 1.18506 1.02936 0.31358
 C180 C 1.20553 1.03669 0.35240
 C181 C 1.08387 1.00363 0.13645
 C182 C 1.06085 1.00089 0.09855
 C183 C 1.15985 0.97757 -0.26784
 N184 N 1.17695 0.95681 -0.22562
 N185 N 1.15291 0.96332 -0.18322
 C186 C 1.11109 0.99083 -0.18176
 N187 N 1.09401 1.01163 -0.22396
 N188 N 1.11805 1.00513 -0.26636
 C189 C 1.18474 0.96917 -0.31380
 C190 C 1.20505 0.96167 -0.35265
 C191 C 1.08408 0.99590 -0.13657
 C192 C 1.06106 0.99878 -0.09868
 C193 C 0.84029 0.97765 0.26755
 N194 N 0.88197 1.00538 0.26599
 N195 N 0.90600 1.01188 0.22357
 C196 C 0.88903 0.99089 0.18145
 N197 N 0.84733 0.96321 0.18300
 N198 N 0.82330 0.95670 0.22541
 C199 C 0.81542 0.96925 0.31353
 C200 C 0.79513 0.96173 0.35239
 C201 C 0.91605 0.99596 0.13626
 C202 C 0.93907 0.99882 0.09838
 C203 C 0.84014 1.02115 -0.26796
 N204 N 0.82266 1.04138 -0.22567
 N205 N 0.84683 1.03513 -0.18329
 C206 C 0.88917 1.00842 -0.18192
 N207 N 0.90663 0.98815 -0.22419
 N208 N 0.88246 0.99439 -0.26657
 C209 C 0.81509 1.02930 -0.31389
 C210 C 0.79463 1.03665 -0.35272
 C211 C 0.91625 1.00359 -0.13673
 C212 C 0.93928 1.00087 -0.09883
 C213 C 1.26846 1.15904 0.02191
 N214 N 1.26683 1.11713 -0.00542
 N215 N 1.22430 1.09321 -0.01184
 C216 C 1.18213 1.11051 0.00883
 N217 N 1.18375 1.15244 0.03612
 N218 N 1.22627 1.17636 0.04254
 C219 C 1.31455 1.18382 0.03021
 C220 C 1.35351 1.20406 0.03764
 C221 C 1.13680 1.08364 0.00384
 C222 C 1.09881 1.06072 0.00099
 C223 C 0.73161 1.15900 -0.02193
 N224 N 0.77376 1.17640 -0.04261
 N225 N 0.81630 1.15249 -0.03628
 C226 C 0.81798 1.11049 -0.00905
 N227 N 0.77585 1.09310 0.01167
 N228 N 0.73330 1.11702 0.00535
 C229 C 0.68549 1.18376 -0.03016
 C230 C 0.64652 1.20400 -0.03757
 C231 C 0.86333 1.08363 -0.00414
 C232 C 0.90134 1.06072 -0.00135
 C233 C 1.26837 0.84067 -0.02193
 N234 N 1.22621 0.82348 -0.04275
 N235 N 1.18369 0.84739 -0.03630
 C236 C 1.18205 0.88917 -0.00879
 N237 N 1.22419 0.90633 0.01208
 N238 N 1.26671 0.88242 0.00563
 C239 C 1.31445 0.81593 -0.03028
 C240 C 1.35342 0.79574 -0.03777
 C241 C 1.13674 0.91606 -0.00381
 C242 C 1.09877 0.93900 -0.00101
 C243 C 0.73166 0.84076 0.02138
 N244 N 0.73335 0.88266 -0.00601
 N245 N 0.77590 0.90657 -0.01236
 C246 C 0.81802 0.88925 0.00843
 N247 N 0.81634 0.84732 0.03577
 N248 N 0.77380 0.82341 0.04213
 C249 C 0.68554 0.81603 0.02966
 C250 C 0.64657 0.79585 0.03713
 C251 C 0.86336 0.91612 0.00354
 C252 C 0.90135 0.93904 0.00079
 C253 C 0.76755 0.52319 0.33950
 N254 N 0.76628 0.49523 0.38103
 N255 N 0.72398 0.48858 0.40527
 C256 C 0.68169 0.50963 0.38867
 N257 N 0.68296 0.53755 0.34713
 N258 N 0.72524 0.54421 0.32289
 C259 C 0.81339 0.53170 0.31438
 C260 C 0.85218 0.53924 0.29390
 C261 C 0.63662 0.50436 0.41588
 C262 C 0.59879 0.50135 0.43899
 C263 C 0.23212 0.47954 0.34009
 N264 N 0.23370 0.50668 0.38210
 N265 N 0.27615 0.51280 0.40620
 C266 C 0.31830 0.49200 0.38897
 N267 N 0.31673 0.46491 0.34694
 N268 N 0.27428 0.45879 0.32284
 C269 C 0.18610 0.47149 0.31516
 C270 C 0.14721 0.46419 0.29480
 C271 C 0.36353 0.49668 0.41600
 C272 C 0.40146 0.49929 0.43902
 C273 C 0.76723 0.47822 0.66100
 N274 N 0.72484 0.45756 0.67783
 N275 N 0.68263 0.46393 0.65337
 C276 C 0.68153 0.49118 0.61139
 N277 N 0.72390 0.51189 0.59457
 N278 N 0.76612 0.50552 0.61903
 C279 C 0.81300 0.46997 0.68634
 C280 C 0.85171 0.46258 0.70701
 C281 C 0.63653 0.49617 0.58402
 C282 C 0.59874 0.49900 0.56080
 C283 C 0.23306 0.52189 0.66093
 N284 N 0.27560 0.54196 0.67809
 N285 N 0.31779 0.53557 0.65363
 C286 C 0.31873 0.50887 0.61133
 N287 N 0.27621 0.48876 0.59419
 N288 N 0.23401 0.49515 0.61865
 C289 C 0.18733 0.53017 0.68630
 C290 C 0.14863 0.53756 0.70699
 C291 C 0.36372 0.50389 0.58397
 C292 C 0.40151 0.50108 0.56076
 C293 C 0.52188 0.66121 0.23276
 N294 N 0.49415 0.61952 0.23410
 N295 N 0.48780 0.59515 0.27636
 C296 C 0.50894 0.61178 0.31855
 N297 N 0.53663 0.65349 0.31722
 N298 N 0.54298 0.67786 0.27497
 C299 C 0.53012 0.68644 0.18695
 C300 C 0.53749 0.70702 0.14820
 C301 C 0.50398 0.58446 0.36357
 C302 C 0.50117 0.56124 0.40136
 C303 C 0.47816 0.66084 0.76693
 N304 N 0.50520 0.61870 0.76586
 N305 N 0.51161 0.59431 0.72366
 C306 C 0.49121 0.61137 0.68126
 N307 N 0.46421 0.65354 0.68231
 N308 N 0.45780 0.67792 0.72451
 C309 C 0.46988 0.68613 0.81267
 C310 C 0.46248 0.70677 0.85136
 C311 C 0.49623 0.58408 0.63626
 C312 C 0.49907 0.56093 0.59847
 C313 C 0.47821 0.33937 0.23274
 N314 N 0.45826 0.32204 0.27525
 N315 N 0.46466 0.34645 0.31745
 C316 C 0.49123 0.38889 0.31841
 N317 N 0.51122 0.40620 0.27592
 N318 N 0.50483 0.38179 0.23373
 C319 C 0.46995 0.31402 0.18702
 C320 C 0.46257 0.29334 0.14835
 C321 C 0.49623 0.41619 0.36343
 C322 C 0.49907 0.43934 0.40123
 C323 C 0.52184 0.33902 0.76699
 N324 N 0.54261 0.32217 0.72471
 N325 N 0.53626 0.34655 0.68246
 C326 C 0.50892 0.38849 0.68122
 N327 N 0.48810 0.40532 0.72348
 N328 N 0.49445 0.38093 0.76573
 C329 C 0.53006 0.31374 0.81280
 C330 C 0.53744 0.29311 0.85154
 C331 C 0.50396 0.41581 0.63618
 C332 C 0.50116 0.43902 0.59838
 C333 C 0.66058 0.76783 0.47881
 N334 N 0.67763 0.72559 0.45805
 N335 N 0.65337 0.68324 0.46427
 C336 C 0.61136 0.68183 0.49146
 N337 N 0.59433 0.72404 0.51227
 N338 N 0.61859 0.76640 0.50606
 C339 C 0.68570 0.81375 0.47069
 C340 C 0.70621 0.85259 0.46335
 C341 C 0.58417 0.63668 0.49627
 C342 C 0.56105 0.59880 0.49897
 C343 C 0.66016 0.23235 0.52220
 N344 N 0.61824 0.23371 0.49483
 N345 N 0.59410 0.27609 0.48828
 C346 C 0.61119 0.31839 0.50886
 N347 N 0.65313 0.31705 0.53618
 N348 N 0.67727 0.27467 0.54273
 C349 C 0.68517 0.18642 0.53065
 C350 C 0.70557 0.14758 0.53818
 C351 C 0.58409 0.36356 0.50374
 C352 C 0.56103 0.40146 0.50086
 C353 C 0.33973 0.76784 0.52117
 N354 N 0.38162 0.76641 0.49379
 N355 N 0.40588 0.72406 0.48758
 C356 C 0.38894 0.68185 0.50854
 N357 N 0.34703 0.68326 0.53588
 N358 N 0.32277 0.72561 0.54209
 C359 C 0.31459 0.81376 0.52926
 C360 C 0.29408 0.85259 0.53655
 C361 C 0.41612 0.63669 0.50369
 C362 C 0.43922 0.59881 0.50095
 C363 C 0.34010 0.23236 0.47724
 N364 N 0.32316 0.27465 0.45644
 N365 N 0.34730 0.31702 0.46300
 C366 C 0.38906 0.31839 0.49058
 N367 N 0.40599 0.27612 0.51141
 N368 N 0.38185 0.23374 0.50486
 C369 C 0.31509 0.18643 0.46883
 C370 C 0.29468 0.14759 0.46134
 C371 C 0.41615 0.36356 0.49573
 C372 C 0.43921 0.40146 0.49866
   
