data_POSCAR
  _audit_creation_date              2014-09-24
  _audit_creation_method            'ToBaCCo'
  _symmetry_space_group_name_H-M    'P1'
  _symmetry_Int_Tables_number       1
  _symmetry_cell_setting            triclinic
  loop_
  _symmetry_equiv_pos_as_xyz
 x,y,z
_cell_length_a 19.7671
_cell_length_b 19.4211
_cell_length_c 21.8832
_cell_angle_alpha 89.304700
_cell_angle_beta 89.535300
_cell_angle_gamma 82.606800
loop_
  _atom_site_label
  _atom_site_type_symbol
  _atom_site_fract_x
  _atom_site_fract_y
  _atom_site_fract_z
C1 C 1.20793 0.19381 0.19532
 C2 C 1.24796 0.24029 0.15602
 C3 C 1.28386 0.28190 0.18901
 C4 C 1.27646 0.27357 0.25862
 C5 C 1.26072 0.15345 0.23753
 C6 C 1.29643 0.19545 0.27078
 C7 C 1.16299 0.24330 0.23729
 C8 C 1.19900 0.28481 0.27061
 H9 H 1.24879 0.23953 0.10635
 H10 H 1.30582 0.30777 0.28540
 H11 H 1.26483 0.09762 0.24484
 H12 H 1.10875 0.24132 0.24412
 C13 C 0.69643 -0.29872 0.19451
 C14 C 0.73696 -0.25488 0.15277
 C15 C 0.77819 -0.21606 0.18344
 C16 C 0.77502 -0.22515 0.25386
 C17 C 0.74972 -0.34247 0.23368
 C18 C 0.79048 -0.30427 0.26539
 C19 C 0.65761 -0.24727 0.23866
 C20 C 0.69857 -0.20906 0.27020
 H21 H 0.73317 -0.25439 0.10325
 H22 H 0.80861 -0.19374 0.27902
 H23 H 0.74904 -0.39767 0.24214
 H24 H 0.60373 -0.24689 0.24926
 C25 C 0.69983 0.21622 -0.30358
 C26 C 0.74150 0.25801 -0.33987
 C27 C 0.78086 0.29908 -0.30381
 C28 C 0.77084 0.29025 -0.23744
 C29 C 0.74680 0.17440 -0.26283
 C30 C 0.78606 0.21500 -0.22595
 C31 C 0.65771 0.26472 -0.26460
 C32 C 0.69662 0.30560 -0.22776
 H33 H 0.74329 0.25810 -0.38960
 H34 H 0.80139 0.32223 -0.20939
 H35 H 0.74722 0.11874 -0.25602
 H36 H 0.60308 0.26440 -0.25826
 C37 C 1.20393 -0.29439 -0.31208
 C38 C 1.25183 -0.25492 -0.34990
 C39 C 1.28858 -0.21551 -0.31542
 C40 C 1.27386 -0.21880 -0.24654
 C41 C 1.24890 -0.33640 -0.26531
 C42 C 1.28507 -0.29660 -0.23101
 C43 C 1.15922 -0.23931 -0.27539
 C44 C 1.19615 -0.20003 -0.24069
 H45 H 1.25633 -0.25783 -0.39938
 H46 H 1.30412 -0.18655 -0.21858
 H47 H 1.24823 -0.39160 -0.25679
 H48 H 1.10432 -0.23818 -0.27046
 C49 C 0.20656 0.21507 0.80890
 C50 C 0.25008 0.25000 0.84723
 C51 C 0.29446 0.28909 0.81384
 C52 C 0.28687 0.28597 0.74700
 C53 C 0.16812 0.27124 0.76876
 C54 C 0.20956 0.30788 0.73497
 C55 C 0.25419 0.17034 0.76548
 C56 C 0.29637 0.20725 0.73257
 H57 H 0.24783 0.24865 0.89692
 H58 H 0.32129 0.31655 0.72076
 H59 H 0.11369 0.27386 0.76015
 H60 H 0.25045 0.11585 0.75732
 C61 C 0.72162 0.70073 0.81403
 C62 C 0.76155 0.74620 0.84580
 C63 C 0.79627 0.78862 0.80615
 C64 C 0.78459 0.77788 0.74094
 C65 C 0.67513 0.74607 0.77463
 C66 C 0.71010 0.78877 0.73380
 C67 C 0.76886 0.66040 0.77247
 C68 C 0.80343 0.70305 0.73162
 H69 H 0.76607 0.74748 0.89536
 H70 H 0.81223 0.81123 0.71038
 H71 H 0.62076 0.74281 0.77159
 H72 H 0.77117 0.60453 0.76712
 C73 C 0.71352 0.20293 0.30373
 C74 C 0.75112 0.24821 0.34450
 C75 C 0.79403 0.28553 0.31361
 C76 C 0.79530 0.27465 0.24396
 C77 C 0.67702 0.25268 0.25573
 C78 C 0.72045 0.28989 0.22389
 C79 C 0.76908 0.15810 0.26826
 C80 C 0.81100 0.19569 0.23606
 H81 H 0.74620 0.24871 0.39404
 H82 H 0.83071 0.30522 0.21892
 H83 H 0.62392 0.25255 0.24335
 H84 H 0.76720 0.10327 0.25996
 C85 C 0.20537 0.71630 0.30398
 C86 C 0.24837 0.75827 0.34318
 C87 C 0.28615 0.79978 0.31035
 C88 C 0.27719 0.79515 0.24007
 C89 C 0.16228 0.76952 0.26435
 C90 C 0.19926 0.80995 0.22986
 C91 C 0.25596 0.67582 0.25967
 C92 C 0.29356 0.71704 0.22571
 H93 H 0.24896 0.75533 0.39282
 H94 H 0.30753 0.82930 0.21313
 H95 H 0.10831 0.76735 0.25644
 H96 H 0.25680 0.62067 0.25134
 O97 O 1.11022 0.02337 0.07141
 O98 O 0.87999 -0.03403 0.07049
 O99 O 0.95913 0.11717 0.07251
 O100 O 1.04065 -0.12480 0.06830
 O101 O 0.86534 0.08696 0.04226
 O102 O 1.13060 -0.09191 0.03228
 O103 O 0.92576 -0.13009 0.03387
 O104 O 1.06986 0.12338 0.03871
 C105 C 1.10209 0.08667 0.07842
 C106 C 0.89000 -0.09813 0.07432
 C107 C 0.89899 0.11199 0.08247
 C108 C 1.10101 -0.11692 0.07553
 O109 O 1.11363 -0.04008 -0.08262
 O110 O 0.87685 0.05095 -0.07853
 O111 O 1.02680 0.11629 -0.07985
 O112 O 0.96729 -0.11542 -0.08350
 O113 O 0.87139 -0.06734 -0.04967
 O114 O 1.12220 0.07090 -0.04507
 O115 O 1.08285 -0.13560 -0.05205
 O116 O 0.91149 0.14073 -0.04245
 Co117 Co 1.10735 -0.00860 -0.00570
 Co118 Co 0.88521 0.00842 -0.00402
 Co119 Co 0.99238 0.11186 -0.00345
 Co120 Co 1.00376 -0.11427 -0.00778
 O121 O 0.99690 -0.00076 -0.00523
 C122 C 1.10881 -0.10136 -0.09241
 C123 C 0.88248 0.11319 -0.08413
 C124 C 1.08926 0.10608 -0.08493
 C125 C 0.90512 -0.10132 -0.09030
 O126 O 1.11465 0.52799 0.57165
 O127 O 0.88522 0.47165 0.58180
 O128 O 0.95775 0.62272 0.57155
 O129 O 1.04865 0.38151 0.57947
 O130 O 0.86523 0.58950 0.54278
 O131 O 1.13714 0.41039 0.53746
 O132 O 0.93295 0.37276 0.55210
 O133 O 1.06928 0.62540 0.53593
 C134 C 1.10261 0.59147 0.57641
 C135 C 0.89659 0.40812 0.59035
 C136 C 0.89721 0.61821 0.58185
 C137 C 1.10991 0.38720 0.58298
 O138 O 1.11507 0.45545 0.42112
 O139 O 0.87711 0.54022 0.42657
 O140 O 1.02884 0.61123 0.41834
 O141 O 0.96858 0.37844 0.43111
 O142 O 0.87364 0.42498 0.46681
 O143 O 1.12479 0.56954 0.45431
 O144 O 1.08503 0.36183 0.45762
 O145 O 0.91252 0.63370 0.45415
 Co146 Co 1.11035 0.49158 0.49666
 Co147 Co 0.88747 0.50597 0.50402
 Co148 Co 0.99275 0.61129 0.49519
 Co149 Co 1.00812 0.38568 0.50484
 O150 O 0.99944 0.49865 0.50017
 C151 C 1.11072 0.39327 0.41498
 C152 C 0.88436 0.60127 0.41519
 C153 C 1.09168 0.60298 0.41357
 C154 C 0.90616 0.39056 0.42609
 O155 O 0.63073 0.06975 0.54542
 O156 O 0.37823 -0.06973 0.54355
 O157 O 0.41930 0.13802 0.54481
 O158 O 0.58964 -0.13817 0.54918
 O159 O 0.38536 0.04555 0.57880
 O160 O 0.62276 -0.04516 0.58109
 O161 O 0.47248 -0.11710 0.57975
 O162 O 0.53424 0.11457 0.57937
 C163 C 0.59673 0.10486 0.58483
 C164 C 0.40993 -0.10520 0.58422
 C165 C 0.39153 0.10735 0.58630
 C166 C 0.61767 -0.10720 0.58976
 O167 O 0.64014 -0.09062 0.46409
 O168 O 0.37237 0.09101 0.46068
 O169 O 0.57693 0.12538 0.46174
 O170 O 0.43462 -0.12602 0.46002
 O171 O 0.39034 -0.02707 0.42641
 O172 O 0.62048 0.02759 0.42777
 O173 O 0.54928 -0.12127 0.42919
 O174 O 0.46483 0.12128 0.42691
 Co175 Co 0.61636 -0.00868 0.50438
 Co176 Co 0.39364 0.00911 0.50259
 Co177 Co 0.49932 0.11264 0.50333
 Co178 Co 0.51103 -0.11334 0.50451
 O179 O 0.50507 -0.00013 0.50378
 C180 C 0.61021 -0.11625 0.42194
 C181 C 0.40411 0.11672 0.41882
 C182 C 0.60870 0.09112 0.42079
 C183 C 0.40020 -0.09081 0.42019
 O184 O 0.59108 0.52537 0.08566
 O185 O 0.36542 0.43470 0.04404
 O186 O 0.42648 0.64331 0.03760
 O187 O 0.57734 0.39545 0.07264
 O188 O 0.36919 0.56047 0.07181
 O189 O 0.66927 0.43334 0.03481
 O190 O 0.45900 0.39514 0.08622
 O191 O 0.55001 0.62502 0.04691
 C192 C 0.58088 0.58998 0.08927
 C193 C 0.39628 0.40152 0.08623
 C194 C 0.38701 0.61980 0.07696
 C195 C 0.64193 0.39067 0.07097
 O196 O 0.61008 0.46054 -0.06896
 O197 O 0.35681 0.59341 -0.04092
 O198 O 0.56030 0.59047 -0.07537
 O199 O 0.44045 0.37147 -0.03725
 O200 O 0.37447 0.46539 -0.06996
 O201 O 0.64283 0.56216 -0.01721
 O202 O 0.56553 0.36872 -0.04956
 O203 O 0.44784 0.60684 -0.08630
 Co204 Co 0.59540 0.49053 0.00850
 Co205 Co 0.37875 0.51266 0.00101
 Co206 Co 0.49557 0.60834 -0.01751
 Co207 Co 0.50917 0.39318 0.01603
 O208 O 0.49138 0.50412 0.00044
 C209 C 0.60238 0.40090 -0.08293
 C210 C 0.38592 0.61361 -0.08619
 C211 C 0.62062 0.59410 -0.06398
 C212 C 0.39617 0.40170 -0.07450
 C213 C 1.16952 0.15044 0.15833
 C214 C 1.13826 0.11866 0.12403
 C215 C 1.16614 0.66233 0.65180
 C216 C 1.13648 0.62754 0.61960
 C217 C 0.66198 0.17672 0.66074
 C218 C 0.63061 0.14317 0.62786
 C219 C 0.65210 0.65930 0.16195
 C220 C 0.61741 0.62579 0.13221
 C221 C 0.81989 -0.17109 0.15032
 C222 C 0.85269 -0.13612 0.11790
 C223 C 0.82344 0.34053 0.66774
 C224 C 0.85832 0.37361 0.63563
 C225 C 0.33618 -0.17480 0.65653
 C226 C 0.37270 -0.14225 0.62681
 C227 C 0.32628 0.32711 0.15882
 C228 C 0.35966 0.36245 0.12822
 C229 C 0.82125 0.18494 -0.17663
 C230 C 0.85009 0.15377 -0.13404
 C231 C 0.82712 0.66497 0.31773
 C232 C 0.85423 0.63630 0.36200
 C233 C 0.33747 0.16900 0.32182
 C234 C 0.36926 0.14573 0.36566
 C235 C 0.32062 0.67486 -0.17869
 C236 C 0.34973 0.64761 -0.13558
 C237 C 1.16531 -0.16250 -0.18967
 C238 C 1.13929 -0.13389 -0.14556
 C239 C 1.16816 0.32480 0.32080
 C240 C 1.14179 0.35654 0.36352
 C241 C 0.67259 -0.17273 0.32424
 C242 C 0.64610 -0.14574 0.36927
 C243 C 0.66645 0.34040 -0.17863
 C244 C 0.63705 0.36881 -0.13537
 C245 C 1.16084 0.17598 -0.15724
 C246 C 1.12510 0.14401 -0.12681
 C247 C 1.16266 0.67378 0.33928
 C248 C 1.12765 0.64100 0.37059
 C249 C 0.67107 0.16097 0.33942
 C250 C 0.64108 0.12686 0.37389
 C251 C 0.68946 0.66061 -0.14429
 C252 C 0.66090 0.62868 -0.10646
 C253 C 0.83763 -0.16851 -0.16846
 C254 C 0.87059 -0.13529 -0.13649
 C255 C 0.83760 0.32570 0.34689
 C256 C 0.87073 0.35649 0.38073
 C257 C 0.32958 -0.15726 0.34210
 C258 C 0.36311 -0.12501 0.37506
 C259 C 0.33480 0.32883 -0.15450
 C260 C 0.36562 0.36198 -0.12004
 C261 C 1.16812 -0.16002 0.17505
 C262 C 1.13769 -0.13970 0.12962
 C263 C 1.18081 0.34063 0.67999
 C264 C 1.14971 0.36304 0.63534
 C265 C 0.67803 -0.17538 0.68517
 C266 C 0.65015 -0.14428 0.64185
 C267 C 0.70014 0.32624 0.16755
 C268 C 0.67828 0.35561 0.12144
 C269 C 0.84363 0.16635 0.18241
 C270 C 0.86824 0.14117 0.13651
 C271 C 0.83591 0.67581 0.68016
 C272 C 0.86374 0.65009 0.63499
 C273 C 0.33331 0.17551 0.68082
 C274 C 0.36083 0.14495 0.63779
 C275 C 0.33109 0.68969 0.17204
 C276 C 0.35877 0.66124 0.12775
   
