data_POSCAR
  _audit_creation_date              2014-09-24
  _audit_creation_method            'ToBaCCo'
  _symmetry_space_group_name_H-M    'P1'
  _symmetry_Int_Tables_number       1
  _symmetry_cell_setting            triclinic
  loop_
  _symmetry_equiv_pos_as_xyz
 x,y,z
_cell_length_a 12.0949
_cell_length_b 12.6429
_cell_length_c 22.1879
_cell_angle_alpha 97.092500
_cell_angle_beta 94.067100
_cell_angle_gamma 92.377200
loop_
  _atom_site_label
  _atom_site_type_symbol
  _atom_site_fract_x
  _atom_site_fract_y
  _atom_site_fract_z
O1 O -0.07375 0.56785 0.92486
 O2 O -0.11072 0.39316 1.04319
 O3 O -0.10549 0.60381 1.03861
 O4 O -0.07120 0.36693 0.92759
 O5 O 0.10829 0.37440 0.95567
 O6 O 0.07591 0.61642 1.06083
 O7 O 0.06753 0.41237 1.07114
 O8 O 0.10659 0.57815 0.94836
 Cu9 Cu -0.10899 0.48071 0.98212
 Cu10 Cu 0.10760 0.49527 1.01182
 C11 C 0.02292 0.60306 0.91617
 C12 C -0.02830 0.37168 1.07748
 C13 C -0.01905 0.65403 1.06566
 C14 C 0.02493 0.33188 0.92217
 O15 O 0.62657 0.09533 0.45412
 O16 O 0.41594 0.06619 0.56520
 O17 O 0.63520 0.05520 0.56845
 O18 O 0.41478 0.10649 0.45363
 O19 O 0.39706 -0.06601 0.42188
 O20 O 0.60863 -0.11732 0.54024
 O21 O 0.39741 -0.10568 0.53334
 O22 O 0.61437 -0.07915 0.42882
 Cu23 Cu 0.52596 0.09820 0.51403
 Cu24 Cu 0.50250 -0.10908 0.47746
 C25 C 0.65833 0.01185 0.42353
 C26 C 0.36821 -0.02496 0.56701
 C27 C 0.66020 -0.04016 0.57393
 C28 C 0.36689 0.02841 0.41879
 C29 C -0.01779 0.04509 0.24201
 C30 C 0.04067 -0.06460 0.75213
 C31 C -0.10120 -0.13946 0.18826
 C32 C -0.10276 -0.23112 0.14657
 C33 C -0.02676 -0.24125 0.10249
 C34 C 0.04611 -0.15335 0.09675
 C35 C 0.05338 -0.06161 0.14142
 C36 C -0.01942 -0.05446 0.19055
 C37 C 0.13666 0.01748 0.13581
 N38 N 0.19888 0.00994 0.08718
 N39 N 0.18575 -0.07245 0.04352
 C40 C 0.11198 -0.15445 0.04678
 H41 H -0.16529 -0.13834 0.21964
 H42 H -0.16236 -0.29613 0.14996
 H43 H 0.15781 0.08272 0.17058
 H44 H 0.10450 -0.21896 0.00977
 C45 C 0.04358 0.22753 0.20926
 C46 C 0.04378 0.30144 0.16807
 C47 C -0.04099 0.30078 0.12178
 C48 C -0.13262 0.22562 0.12006
 C49 C -0.13178 0.14686 0.16143
 C50 C -0.03877 0.14359 0.20555
 C51 C -0.22370 0.07336 0.15682
 N52 N -0.30846 0.07598 0.11425
 N53 N -0.30752 0.15012 0.07423
 C54 C -0.22124 0.22641 0.07533
 H55 H 0.11607 0.23256 0.24088
 H56 H 0.11356 0.35921 0.17226
 H57 H -0.23185 0.01505 0.18749
 H58 H -0.29922 0.18936 0.05696
 C59 C 0.21363 0.02296 0.70875
 C60 C 0.28276 0.03670 0.66249
 C61 C 0.28192 -0.03851 0.61082
 C62 C 0.21275 -0.13274 0.60834
 C63 C 0.15598 -0.15280 0.66019
 C64 C 0.13784 -0.06682 0.70658
 C65 C 0.13353 -0.26070 0.66579
 N66 N 0.13620 -0.33653 0.61709
 N67 N 0.16536 -0.31200 0.56367
 C68 C 0.20313 -0.21200 0.55744
 H69 H 0.22326 0.08429 0.74734
 H70 H 0.33906 0.10673 0.66803
 H71 H 0.11560 -0.28689 0.70814
 H72 H 0.22600 -0.19638 0.51311
 C73 C -0.15715 -0.00046 0.72064
 C74 C -0.23820 0.01173 0.67454
 C75 C -0.25195 -0.06069 0.62124
 C76 C -0.19209 -0.15554 0.61952
 C77 C -0.11554 -0.16928 0.66958
 C78 C -0.07747 -0.07905 0.71311
 C79 C -0.09598 -0.27545 0.67827
 N80 N -0.12399 -0.35629 0.63308
 N81 N -0.17586 -0.33894 0.58070
 C82 C -0.21050 -0.24116 0.57215
 H83 H -0.15567 0.05606 0.76132
 H84 H -0.29118 0.07860 0.68105
 H85 H -0.05950 -0.29678 0.72014
 H86 H -0.25427 -0.23400 0.52917
 C87 C -0.05159 -0.18092 0.82135
 C88 C -0.05735 -0.26201 0.85774
 C89 C 0.03537 -0.31987 0.87125
 C90 C 0.13793 -0.29130 0.84852
 C91 C 0.14612 -0.20052 0.81659
 C92 C 0.04702 -0.15365 0.79510
 C93 C 0.25360 -0.15933 0.80940
 N94 N 0.34346 -0.21522 0.82256
 N95 N 0.33356 -0.30858 0.84396
 C96 C 0.23392 -0.34872 0.85724
 H97 H -0.12662 -0.13938 0.81342
 H98 H -0.13579 -0.27796 0.87644
 H99 H 0.26839 -0.08152 0.79634
 H100 H 0.23140 -0.42555 0.87359
 C101 C 0.07220 0.05139 0.85905
 C102 C 0.06707 0.14457 0.89860
 C103 C 0.03948 0.23917 0.87697
 C104 C 0.02565 0.24299 0.81356
 C105 C 0.03240 0.14799 0.77228
 C106 C 0.04849 0.04701 0.79502
 C107 C 0.02074 0.15277 0.70892
 N108 N 0.00280 0.25197 0.68994
 N109 N -0.00424 0.34287 0.72989
 C110 C 0.00664 0.33981 0.79056
 H111 H 0.09336 -0.01737 0.88089
 H112 H 0.08163 0.14187 0.94717
 H113 H 0.00781 0.20365 0.67450
 H114 H 0.00171 0.41362 0.82034
 C115 C -0.18836 0.10531 0.30046
 C116 C -0.26002 0.10176 0.34658
 C117 C -0.25825 0.01944 0.38306
 C118 C -0.17531 -0.05625 0.37610
 C119 C -0.10161 -0.05375 0.32892
 C120 C -0.10723 0.02894 0.28933
 C121 C -0.02430 -0.13482 0.32363
 N122 N -0.01607 -0.20583 0.36446
 N123 N -0.07978 -0.20256 0.41088
 C124 C -0.15829 -0.13008 0.41823
 H125 H -0.19590 0.17200 0.27473
 H126 H -0.32109 0.16198 0.35182
 H127 H 0.02879 -0.14525 0.28706
 H128 H -0.20393 -0.12861 0.45821
 C129 C 0.18083 -0.01130 0.27444
 C130 C 0.26849 -0.01688 0.31752
 C131 C 0.27518 0.04641 0.37378
 C132 C 0.19380 0.12226 0.38557
 C133 C 0.10829 0.13434 0.33957
 C134 C 0.09500 0.06044 0.28406
 C135 C 0.03704 0.21873 0.35200
 N136 N 0.04382 0.27838 0.40729
 N137 N 0.11751 0.26046 0.45166
 C138 C 0.19200 0.18424 0.44292
 H139 H 0.17837 -0.07149 0.23564
 H140 H 0.32991 -0.07530 0.30749
 H141 H -0.02323 0.24000 0.31844
 H142 H 0.24711 0.17248 0.48156
   
