data_POSCAR
  _audit_creation_date              2014-09-24
  _audit_creation_method            'ToBaCCo'
  _symmetry_space_group_name_H-M    'P1'
  _symmetry_Int_Tables_number       1
  _symmetry_cell_setting            triclinic
  loop_
  _symmetry_equiv_pos_as_xyz
 x,y,z
_cell_length_a 67.9083
_cell_length_b 67.9357
_cell_length_c 20.2121
_cell_angle_alpha 89.921000
_cell_angle_beta 90.074800
_cell_angle_gamma 120.019100
loop_
  _atom_site_label
  _atom_site_type_symbol
  _atom_site_fract_x
  _atom_site_fract_y
  _atom_site_fract_z
C1 C 0.24866 0.49715 0.52816
 C2 C 0.24863 0.49755 0.46068
 C3 C 0.22923 0.49607 0.42239
 C4 C 0.26801 0.49932 0.42186
 C5 C 0.26686 0.49605 0.56605
 C6 C 0.23053 0.49782 0.56740
 C7 C 0.20694 0.47809 0.43263
 C8 C 0.18880 0.47712 0.39705
 C9 C 0.19278 0.49399 0.35030
 C10 C 0.21504 0.51170 0.33898
 C11 C 0.23316 0.51267 0.37463
 C12 C 0.26415 0.48276 0.37418
 C13 C 0.28237 0.48363 0.33959
 C14 C 0.30459 0.50117 0.35192
 C15 C 0.30850 0.51810 0.39809
 C16 C 0.29028 0.51726 0.43267
 C17 C 0.27930 0.51262 0.61407
 C18 C 0.29692 0.51217 0.64858
 C19 C 0.30216 0.49505 0.63585
 C20 C 0.28948 0.47818 0.58909
 C21 C 0.27184 0.47860 0.55459
 C22 C 0.22536 0.51525 0.55794
 C23 C 0.20785 0.51533 0.59401
 C24 C 0.19552 0.49815 0.64032
 C25 C 0.20093 0.48104 0.65101
 C26 C 0.21841 0.48092 0.61493
 H27 H 0.20361 0.46487 0.46830
 H28 H 0.17171 0.46324 0.40626
 H29 H 0.21845 0.52487 0.30293
 H30 H 0.25023 0.52658 0.36572
 H31 H 0.24709 0.46887 0.36494
 H32 H 0.27917 0.47047 0.30389
 H33 H 0.29355 0.53041 0.46841
 H34 H 0.27563 0.52613 0.62388
 H35 H 0.30658 0.52527 0.68477
 H36 H 0.29332 0.46479 0.57908
 H37 H 0.26216 0.46542 0.51865
 H38 H 0.23480 0.52868 0.52242
 H39 H 0.20386 0.52870 0.58558
 H40 H 0.19152 0.46769 0.68682
 H41 H 0.22224 0.46743 0.62320
 H42 H 0.32562 0.53179 0.40781
 C43 C 0.50390 -0.24872 0.53461
 C44 C 0.50363 -0.24894 0.46713
 C45 C 0.50221 -0.26828 0.42889
 C46 C 0.50488 -0.22980 0.42814
 C47 C 0.50300 -0.23054 0.57307
 C48 C 0.50509 -0.26670 0.57322
 C49 C 0.51878 -0.26427 0.38102
 C50 C 0.51803 -0.28237 0.34609
 C51 C 0.50061 -0.30466 0.35825
 C52 C 0.48374 -0.30875 0.40487
 C53 C 0.48445 -0.29064 0.43980
 C54 C 0.52274 -0.20742 0.43775
 C55 C 0.52341 -0.18951 0.40171
 C56 C 0.50638 -0.19385 0.35530
 C57 C 0.48883 -0.21617 0.34450
 C58 C 0.48813 -0.23407 0.38053
 C59 C 0.48547 -0.22556 0.56284
 C60 C 0.48518 -0.20803 0.59822
 C61 C 0.50225 -0.19548 0.64464
 C62 C 0.51947 -0.20069 0.65607
 C63 C 0.51980 -0.21819 0.62069
 C64 C 0.48830 -0.27930 0.62053
 C65 C 0.48864 -0.29698 0.65494
 C66 C 0.50589 -0.30211 0.64280
 C67 C 0.52304 -0.28920 0.59694
 C68 C 0.52271 -0.27149 0.56259
 H69 H 0.53252 -0.24715 0.37164
 H70 H 0.53114 -0.27901 0.31002
 H71 H 0.47012 -0.32592 0.41446
 H72 H 0.47127 -0.29405 0.47561
 H73 H 0.53606 -0.20383 0.47332
 H74 H 0.53712 -0.17231 0.41024
 H75 H 0.47432 -0.25123 0.37214
 H76 H 0.47212 -0.23517 0.52727
 H77 H 0.47171 -0.20422 0.58920
 H78 H 0.53273 -0.19113 0.69197
 H79 H 0.53337 -0.22186 0.62958
 H80 H 0.47466 -0.27576 0.62964
 H81 H 0.47530 -0.30680 0.69040
 H82 H 0.53655 -0.29290 0.58727
 H83 H 0.53604 -0.26169 0.52714
 H84 H 0.47560 -0.21970 0.30862
 C85 C 1.24745 0.75318 0.53591
 C86 C 1.24759 0.75310 0.46844
 C87 C 1.26573 0.77218 0.42976
 C88 C 1.22968 0.73387 0.42985
 C89 C 1.22825 0.73517 0.57452
 C90 C 1.26657 0.77121 0.57455
 C91 C 1.27059 0.79466 0.43938
 C92 C 1.28802 0.81247 0.40356
 C93 C 1.30061 0.80796 0.35727
 C94 C 1.29551 0.78552 0.34656
 C95 C 1.27811 0.76773 0.38240
 C96 C 1.21734 0.73804 0.38153
 C97 C 1.20010 0.72004 0.34588
 C98 C 1.19517 0.69773 0.35779
 C99 C 1.20773 0.69349 0.40492
 C100 C 1.22500 0.71148 0.44056
 C101 C 1.23254 0.72294 0.62292
 C102 C 1.21462 0.70561 0.65857
 C103 C 1.19221 0.70043 0.64661
 C104 C 1.18784 0.71288 0.59934
 C105 C 1.20578 0.73025 0.56372
 C106 C 1.28899 0.77585 0.56497
 C107 C 1.30689 0.79324 0.60057
 C108 C 1.30251 0.80598 0.64660
 C109 C 1.28013 0.80108 0.65739
 C110 C 1.26225 0.78373 0.62174
 H111 H 1.26095 0.79840 0.47477
 H112 H 1.29170 0.82973 0.41218
 H113 H 1.30507 0.78176 0.31084
 H114 H 1.27453 0.75050 0.37400
 H115 H 1.22080 0.75519 0.37228
 H116 H 1.19052 0.72350 0.30942
 H117 H 1.23463 0.70797 0.47670
 H118 H 1.24975 0.72657 0.63224
 H119 H 1.21827 0.69615 0.69504
 H120 H 1.17060 0.70913 0.58973
 H121 H 1.20216 0.73978 0.52751
 H122 H 1.29261 0.76609 0.52971
 H123 H 1.32411 0.79677 0.59194
 H124 H 1.27649 0.81077 0.69295
 H125 H 1.24506 0.78029 0.63011
 H126 H 1.20412 0.67629 0.41429
 C127 C 0.75187 0.50275 0.53547
 C128 C 0.75176 0.50241 0.46800
 C129 C 0.76964 0.50088 0.42987
 C130 C 0.73390 0.50373 0.42899
 C131 C 0.73282 0.50189 0.57395
 C132 C 0.77110 0.50402 0.57409
 C133 C 0.78230 0.51743 0.38201
 C134 C 0.79976 0.51669 0.34765
 C135 C 0.80461 0.49929 0.36038
 C136 C 0.79168 0.48241 0.40686
 C137 C 0.77419 0.48311 0.44121
 C138 C 0.72944 0.52163 0.43859
 C139 C 0.71226 0.52239 0.40250
 C140 C 0.69955 0.50544 0.35601
 C141 C 0.70425 0.48785 0.34522
 C142 C 0.72140 0.48705 0.38131
 C143 C 0.71031 0.48435 0.56392
 C144 C 0.69249 0.48407 0.59930
 C145 C 0.69702 0.50118 0.64555
 C146 C 0.71949 0.51842 0.65676
 C147 C 0.73730 0.51871 0.62135
 C148 C 0.76695 0.48739 0.62194
 C149 C 0.78500 0.48791 0.65676
 C150 C 0.80737 0.50518 0.64447
 C151 C 0.81157 0.52215 0.59795
 C152 C 0.79352 0.52165 0.56319
 H153 H 0.77897 0.53118 0.37232
 H154 H 0.80963 0.52981 0.31169
 H155 H 0.79523 0.46882 0.41687
 H156 H 0.76434 0.46995 0.47705
 H157 H 0.73919 0.53491 0.47419
 H158 H 0.70882 0.53613 0.41103
 H159 H 0.72469 0.47321 0.37289
 H160 H 0.70655 0.47097 0.52850
 H161 H 0.67520 0.47056 0.59033
 H162 H 0.72327 0.53174 0.69248
 H163 H 0.75455 0.53229 0.63005
 H164 H 0.74978 0.47375 0.63128
 H165 H 0.78149 0.47470 0.69271
 H166 H 0.82877 0.53569 0.58815
 H167 H 0.79701 0.53487 0.52734
 H168 H 0.69455 0.47467 0.30927
 C169 C 0.49650 0.24783 0.53726
 C170 C 0.49616 0.24781 0.46979
 C171 C 0.49699 0.26688 0.43143
 C172 C 0.49500 0.22869 0.43102
 C173 C 0.49803 0.22990 0.57529
 C174 C 0.49524 0.26566 0.57639
 C175 C 0.48016 0.26244 0.38393
 C176 C 0.48047 0.28027 0.34847
 C177 C 0.49772 0.30270 0.35973
 C178 C 0.51482 0.30722 0.40606
 C179 C 0.51454 0.28939 0.44152
 C180 C 0.47744 0.20623 0.44168
 C181 C 0.47708 0.18830 0.40679
 C182 C 0.49410 0.19268 0.36044
 C183 C 0.51129 0.21507 0.34836
 C184 C 0.51169 0.23301 0.38327
 C185 C 0.51584 0.22542 0.56411
 C186 C 0.51658 0.20792 0.59844
 C187 C 0.49966 0.19490 0.64480
 C188 C 0.48220 0.19969 0.65732
 C189 C 0.48144 0.21716 0.62295
 C190 C 0.51200 0.27810 0.62397
 C191 C 0.51131 0.29526 0.66010
 C192 C 0.49374 0.30004 0.64945
 C193 C 0.47669 0.28737 0.60302
 C194 C 0.47737 0.27017 0.56692
 H195 H 0.46658 0.24520 0.37514
 H196 H 0.46719 0.27658 0.31262
 H197 H 0.52830 0.32450 0.41492
 H198 H 0.52792 0.29313 0.47700
 H199 H 0.46418 0.20260 0.47743
 H200 H 0.46365 0.17104 0.41630
 H201 H 0.52528 0.25022 0.37410
 H202 H 0.52902 0.23535 0.52842
 H203 H 0.53025 0.20448 0.58845
 H204 H 0.46903 0.18979 0.69315
 H205 H 0.46766 0.22045 0.63250
 H206 H 0.52583 0.27476 0.63226
 H207 H 0.52459 0.30490 0.69593
 H208 H 0.46294 0.29081 0.59445
 H209 H 0.46404 0.26047 0.53137
 H210 H 0.52451 0.21865 0.31249
 C211 C 0.75021 0.25056 0.53560
 C212 C 0.75015 0.25035 0.46811
 C213 C 0.73221 0.23094 0.43006
 C214 C 0.76813 0.26942 0.42913
 C215 C 0.76955 0.26859 0.57366
 C216 C 0.73104 0.23267 0.57450
 C217 C 0.72770 0.20864 0.44133
 C218 C 0.71024 0.19043 0.40685
 C219 C 0.69731 0.19437 0.36029
 C220 C 0.70210 0.21660 0.34768
 C221 C 0.71953 0.23482 0.38218
 C222 C 0.78066 0.26508 0.38204
 C223 C 0.79825 0.28299 0.34704
 C224 C 0.80335 0.30538 0.35834
 C225 C 0.79055 0.30978 0.40401
 C226 C 0.77293 0.29188 0.43900
 C227 C 0.76561 0.28146 0.62055
 C228 C 0.78378 0.29904 0.65479
 C229 C 0.80607 0.30380 0.64292
 C230 C 0.81005 0.29065 0.59739
 C231 C 0.79187 0.27305 0.56320
 C232 C 0.70859 0.22781 0.56370
 C233 C 0.69059 0.21017 0.59832
 C234 C 0.69488 0.19739 0.64456
 C235 C 0.71726 0.20258 0.65687
 C236 C 0.73527 0.22019 0.62224
 H237 H 0.73758 0.20535 0.47716
 H238 H 0.70675 0.17331 0.41676
 H239 H 0.69223 0.21984 0.31163
 H240 H 0.72285 0.25190 0.37253
 H241 H 0.77714 0.24788 0.37350
 H242 H 0.80803 0.27939 0.31172
 H243 H 0.76318 0.29553 0.47423
 H244 H 0.74851 0.27818 0.62956
 H245 H 0.78044 0.30904 0.69000
 H246 H 0.82718 0.29405 0.58793
 H247 H 0.79521 0.26303 0.52813
 H248 H 0.70502 0.23750 0.52793
 H249 H 0.67334 0.20636 0.58862
 H250 H 0.72076 0.19283 0.69264
 H251 H 0.75246 0.22376 0.63149
 H252 H 0.79429 0.32704 0.41292
 O253 O 0.96869 0.44961 0.11903
 O254 O 0.94367 0.45501 0.05579
 C255 C 0.94833 0.44467 0.10172
 O256 O 1.03264 0.55134 0.11616
 O257 O 1.05774 0.54533 0.05536
 C258 C 1.05303 0.55635 0.09884
 O259 O 0.96884 0.51787 0.12204
 O260 O 0.94373 0.48801 0.05727
 C261 C 0.94845 0.50267 0.10419
 O262 O 1.03222 0.47918 0.11228
 O263 O 1.05740 0.51098 0.05409
 C264 C 1.05263 0.49469 0.09578
 Zr265 Zr 1.00052 0.47479 0.08069
 O266 O 1.00279 0.47432 0.18507
 O267 O 0.99928 0.44320 0.07149
 Zr268 Zr 1.00064 0.52459 0.08352
 O269 O 1.00316 0.52552 0.18802
 O270 O 0.99815 0.55445 0.08372
 O271 O 0.98029 0.48952 0.09499
 O272 O 1.02033 0.50946 0.09447
 O273 O 1.03235 0.48029 -0.11760
 O274 O 1.05744 0.51157 -0.05740
 C275 C 1.05273 0.49570 -0.10039
 O276 O 0.96896 0.51925 -0.12098
 O277 O 0.94377 0.48866 -0.05863
 C278 C 0.94855 0.50390 -0.10392
 O279 O 1.03248 0.55269 -0.11446
 O280 O 1.05755 0.54608 -0.05559
 C281 C 1.05286 0.55758 -0.09754
 O282 O 0.96881 0.45045 -0.12408
 O283 O 0.94369 0.45548 -0.06030
 C284 C 0.94842 0.44535 -0.10663
 Zr285 Zr 1.00061 0.47569 -0.08588
 O286 O 1.00319 0.47774 -0.19035
 O287 O 0.99846 0.44352 -0.08673
 Zr288 Zr 1.00069 0.52542 -0.08337
 O289 O 1.00332 0.52708 -0.18784
 O290 O 0.99818 0.55525 -0.08124
 Zr291 Zr 0.96654 0.48316 -0.00145
 Zr292 Zr 1.03462 0.51713 -0.00093
 O293 O 1.02047 0.51051 -0.09659
 O294 O 0.98031 0.49048 -0.09779
 O295 O 1.02094 0.48164 -0.00257
 O296 O 0.98083 0.51871 0.00017
 O297 O 0.98062 0.46173 -0.00280
 O298 O 1.02101 0.53905 0.00042
 H299 H 1.03048 0.51427 0.13361
 H300 H 0.97059 0.52517 0.00075
 H301 H 1.03074 0.51581 -0.13542
 H302 H 0.97031 0.44504 -0.00326
 H303 H 1.01144 0.56633 0.05943
 H304 H 1.01083 0.56656 -0.05367
 H305 H 0.99058 0.51282 -0.20564
 H306 H 0.99026 0.47911 -0.20730
 H307 H 1.00924 0.44394 -0.05300
 H308 H 0.99918 0.43787 0.11720
 H309 H 0.99165 0.47821 0.20323
 H310 H 0.99062 0.51097 0.20505
 O311 O 0.45057 0.48229 0.11876
 O312 O 0.45575 0.51221 0.05336
 C313 C 0.44558 0.49758 0.10026
 O314 O 0.55249 0.51999 0.11230
 O315 O 0.54601 0.48834 0.05365
 C316 C 0.55737 0.50447 0.09581
 O317 O 0.51902 0.55021 0.11725
 O318 O 0.48879 0.54479 0.05309
 C319 C 0.50368 0.55516 0.09925
 O320 O 0.48019 0.44818 0.11504
 O321 O 0.51160 0.45432 0.05571
 C322 C 0.49566 0.44321 0.09861
 Zr323 Zr 0.47552 0.47511 0.08146
 O324 O 0.47576 0.47348 0.18603
 O325 O 0.44387 0.44466 0.07527
 Zr326 Zr 0.52550 0.52487 0.07999
 O327 O 0.52716 0.52424 0.18451
 O328 O 0.55533 0.55723 0.07716
 O329 O 0.49045 0.51020 0.09304
 O330 O 0.51035 0.49015 0.09354
 O331 O 0.47997 0.44692 -0.11454
 O332 O 0.51172 0.45376 -0.05534
 C333 C 0.49552 0.44215 -0.09721
 O334 O 0.51857 0.54931 -0.12566
 O335 O 0.48830 0.54428 -0.06239
 C336 C 0.50330 0.55445 -0.10843
 O337 O 0.55217 0.51919 -0.11860
 O338 O 0.54582 0.48806 -0.05732
 C339 C 0.55707 0.50380 -0.10067
 O340 O 0.45000 0.48081 -0.12323
 O341 O 0.45545 0.51152 -0.06131
 C342 C 0.44503 0.49627 -0.10660
 Zr343 Zr 0.47538 0.47433 -0.08532
 O344 O 0.47662 0.47268 -0.18973
 O345 O 0.44319 0.44431 -0.08401
 Zr346 Zr 0.52517 0.52411 -0.08718
 O347 O 0.52607 0.52222 -0.19159
 O348 O 0.55504 0.55644 -0.08793
 Zr349 Zr 0.48350 0.51657 -0.00388
 Zr350 Zr 0.51734 0.48265 -0.00158
 O351 O 0.51012 0.48926 -0.09769
 O352 O 0.49012 0.50930 -0.09998
 O353 O 0.48183 0.46077 -0.00101
 O354 O 0.51905 0.53798 -0.00428
 O355 O 0.46196 0.48108 -0.00242
 O356 O 0.53933 0.51817 -0.00312
 H357 H 0.51546 0.48520 0.13290
 H358 H 0.52545 0.55467 -0.00487
 H359 H 0.51513 0.48389 -0.13623
 H360 H 0.44527 0.47474 -0.00227
 H361 H 0.56702 0.55561 0.05257
 H362 H 0.56655 0.55533 -0.06063
 H363 H 0.51172 0.52064 -0.20890
 H364 H 0.47810 0.48690 -0.20771
 H365 H 0.44372 0.43436 -0.04908
 H366 H 0.43883 0.43999 0.12149
 H367 H 0.47931 0.48855 0.20296
 H368 H 0.51258 0.52200 0.20192
 O369 O 0.54972 0.03151 -0.12053
 O370 O 0.54463 0.05650 -0.05646
 C371 C 0.55478 0.05186 -0.10289
 O372 O 0.44782 -0.03210 -0.11474
 O373 O 0.45416 -0.05714 -0.05488
 C374 C 0.44291 -0.05246 -0.09769
 O375 O 0.48138 0.03148 -0.12013
 O376 O 0.51160 0.05649 -0.05630
 C377 C 0.49670 0.05184 -0.10254
 O378 O 0.51994 -0.03205 -0.11439
 O379 O 0.48846 -0.05712 -0.05489
 C380 C 0.50443 -0.05243 -0.09755
 Zr381 Zr 0.52464 -0.00034 -0.08194
 O382 O 0.52460 -0.00250 -0.18639
 O383 O 0.55622 0.00078 -0.07417
 Zr384 Zr 0.47482 -0.00035 -0.08219
 O385 O 0.47352 -0.00279 -0.18671
 O386 O 0.44499 0.00219 -0.08079
 O387 O 0.50987 0.01994 -0.09494
 O388 O 0.48987 -0.02006 -0.09431
 O389 O 0.51986 -0.03245 0.11516
 O390 O 0.48813 -0.05753 0.05622
 C391 C 0.50430 -0.05283 0.09830
 O392 O 0.48123 0.03119 0.12284
 O393 O 0.51153 0.05639 0.05956
 C394 C 0.49651 0.05159 0.10547
 O395 O 0.44775 -0.03249 0.11611
 O396 O 0.45409 -0.05753 0.05623
 C397 C 0.44278 -0.05286 0.09887
 O398 O 0.55000 0.03124 0.12255
 O399 O 0.54471 0.05640 0.05962
 C400 C 0.55503 0.05163 0.10539
 Zr401 Zr 0.52457 -0.00049 0.08467
 O402 O 0.52316 -0.00315 0.18915
 O403 O 0.55674 0.00163 0.08410
 Zr404 Zr 0.47482 -0.00052 0.08476
 O405 O 0.47355 -0.00317 0.18923
 O406 O 0.44497 0.00199 0.08405
 Zr407 Zr 0.51672 0.03364 0.00152
 Zr408 Zr 0.48271 -0.03434 0.00118
 O409 O 0.48982 -0.02027 0.09686
 O410 O 0.50986 0.01981 0.09787
 O411 O 0.51820 -0.02077 0.00120
 O412 O 0.48115 0.01939 0.00139
 O413 O 0.53813 0.01951 0.00139
 O414 O 0.46077 -0.02076 0.00118
 H415 H 0.48483 -0.03018 -0.13347
 H416 H 0.47471 0.02965 0.00141
 H417 H 0.48471 -0.03058 0.13566
 H418 H 0.55484 0.02980 0.00135
 H419 H 0.43331 -0.01092 -0.05543
 H420 H 0.43339 -0.01086 0.05769
 H421 H 0.48801 0.00940 0.20664
 H422 H 0.52169 0.00965 0.20658
 H423 H 0.55613 -0.00918 0.05025
 H424 H 0.56133 0.00089 -0.12014
 H425 H 0.52063 0.00866 -0.20400
 H426 H 0.48792 0.00988 -0.20407
 C427 C 1.17580 0.49338 0.31785
 C428 C 1.16021 0.49301 0.28809
 C429 C 1.14167 0.49282 0.25291
 C430 C 1.11924 0.47567 0.26515
 C431 C 1.10120 0.47579 0.23203
 C432 C 1.10550 0.49307 0.18652
 C433 C 1.12794 0.51015 0.17400
 C434 C 1.14598 0.51003 0.20711
 C435 C 1.08690 0.49352 0.15372
 C436 C 1.07127 0.49400 0.12689
 H437 H 1.11570 0.46230 0.30054
 H438 H 1.08391 0.46253 0.24220
 H439 H 1.13147 0.52362 0.13901
 H440 H 1.16325 0.52340 0.19735
 C441 C 0.50030 0.67671 0.32353
 C442 C 0.50033 0.66121 0.29458
 C443 C 0.50067 0.64285 0.26016
 C444 C 0.51604 0.64753 0.20818
 C445 C 0.51664 0.62973 0.17532
 C446 C 0.50188 0.60717 0.19430
 C447 C 0.48646 0.60248 0.24615
 C448 C 0.48587 0.62029 0.27903
 C449 C 0.50260 0.58886 0.16076
 C450 C 0.50316 0.57351 0.13268
 H451 H 0.52759 0.66491 0.19324
 H452 H 0.52862 0.63355 0.13529
 H453 H 0.47497 0.58510 0.26122
 H454 H 0.47394 0.61647 0.31920
 C455 C 0.31792 -0.17469 0.32330
 C456 C 0.33340 -0.15942 0.29340
 C457 C 0.35204 -0.14127 0.25803
 C458 C 0.34978 -0.12352 0.23085
 C459 C 0.36804 -0.10575 0.19722
 C460 C 0.38861 -0.10568 0.19063
 C461 C 0.39083 -0.12349 0.21756
 C462 C 0.37259 -0.14124 0.25117
 C463 C 0.40758 -0.08715 0.15736
 C464 C 0.42359 -0.07155 0.13022
 H465 H 0.33398 -0.12336 0.23589
 H466 H 0.36615 -0.09204 0.17670
 H467 H 0.40668 -0.12358 0.21287
 H468 H 0.37453 -0.15488 0.27201
 C469 C 0.82314 0.49907 0.32659
 C470 C 0.83885 0.49921 0.29849
 C471 C 0.85779 0.49972 0.26505
 C472 C 0.85997 0.48028 0.26343
 C473 C 0.87848 0.48088 0.23113
 C474 C 0.89487 0.50094 0.20037
 C475 C 0.89268 0.52037 0.20201
 C476 C 0.87419 0.51976 0.23429
 C477 C 0.91386 0.50158 0.16684
 C478 C 0.92972 0.50212 0.13844
 H479 H 0.84740 0.46469 0.28711
 H480 H 0.88000 0.46575 0.23010
 H481 H 0.90525 0.53596 0.17834
 H482 H 0.87267 0.53490 0.23529
 C483 C 0.49768 0.32105 0.32424
 C484 C 0.49746 0.33638 0.29472
 C485 C 0.49706 0.35464 0.25975
 C486 C 0.47720 0.35084 0.22736
 C487 C 0.47672 0.36865 0.19399
 C488 C 0.49610 0.39033 0.19289
 C489 C 0.51598 0.39412 0.22514
 C490 C 0.51646 0.37631 0.25851
 C491 C 0.49561 0.40875 0.15915
 C492 C 0.49544 0.42436 0.13128
 H493 H 0.46210 0.33415 0.22807
 H494 H 0.46126 0.36554 0.16925
 H495 H 0.53106 0.41082 0.22462
 H496 H 0.53189 0.37945 0.28344
 C497 C 0.67889 0.17558 0.32622
 C498 C 0.66333 0.15986 0.29805
 C499 C 0.64462 0.14111 0.26476
 C500 C 0.64376 0.14035 0.19550
 C501 C 0.62550 0.12217 0.16320
 C502 C 0.60803 0.10468 0.20006
 C503 C 0.60889 0.10544 0.26932
 C504 C 0.62715 0.12362 0.30161
 C505 C 0.58927 0.08597 0.16684
 C506 C 0.57360 0.07028 0.13889
 H507 H 0.65717 0.15380 0.16653
 H508 H 0.62500 0.12175 0.10962
 H509 H 0.59547 0.09201 0.29829
 H510 H 0.62763 0.12405 0.35519
 C511 C 0.49993 0.17739 -0.32317
 C512 C 0.49991 0.16172 -0.29502
 C513 C 0.49961 0.14286 -0.26160
 C514 C 0.48952 0.13612 -0.19908
 C515 C 0.48889 0.11756 -0.16698
 C516 C 0.49834 0.10566 -0.19730
 C517 C 0.50849 0.11243 -0.25975
 C518 C 0.50912 0.13099 -0.29186
 C519 C 0.49765 0.08655 -0.16427
 C520 C 0.49713 0.07062 -0.13630
 H521 H 0.48209 0.14515 -0.17528
 H522 H 0.48103 0.11248 -0.11867
 H523 H 0.51587 0.10336 -0.28360
 H524 H 0.51693 0.13604 -0.34024
 C525 C 0.67965 0.50125 -0.32108
 C526 C 0.66430 0.50149 -0.29182
 C527 C 0.64600 0.50192 -0.25730
 C528 C 0.64977 0.52182 -0.22542
 C529 C 0.63189 0.52235 -0.19275
 C530 C 0.61019 0.50299 -0.19183
 C531 C 0.60645 0.48307 -0.22349
 C532 C 0.62432 0.48254 -0.25616
 C533 C 0.59169 0.50358 -0.15908
 C534 C 0.57600 0.50386 -0.13213
 H535 H 0.66646 0.53691 -0.22607
 H536 H 0.63497 0.53785 -0.16847
 H537 H 0.58973 0.46801 -0.22313
 H538 H 0.62122 0.46707 -0.28072
 C539 C 0.82383 0.32138 -0.32519
 C540 C 0.83958 0.33705 -0.29736
 C541 C 0.85839 0.35583 -0.26449
 C542 C 0.86000 0.37721 -0.26344
 C543 C 0.87833 0.39550 -0.23174
 C544 C 0.89514 0.39248 -0.20099
 C545 C 0.89353 0.37110 -0.20204
 C546 C 0.87520 0.35281 -0.23373
 C547 C 0.91396 0.41125 -0.16813
 C548 C 0.92972 0.42689 -0.14028
 H549 H 0.84710 0.37973 -0.28711
 H550 H 0.87940 0.41196 -0.23119
 H551 H 0.90642 0.36857 -0.17837
 H552 H 0.87413 0.33636 -0.23428
 C553 C 0.50229 -0.17707 -0.32004
 C554 C 0.50250 -0.16151 -0.29073
 C555 C 0.50290 -0.14281 -0.25607
 C556 C 0.52269 -0.12682 -0.22329
 C557 C 0.52318 -0.10848 -0.19035
 C558 C 0.50388 -0.10604 -0.19005
 C559 C 0.48406 -0.12207 -0.22265
 C560 C 0.48357 -0.14041 -0.25558
 C561 C 0.50441 -0.08704 -0.15687
 C562 C 0.50461 -0.07118 -0.12952
 H563 H 0.53774 -0.12850 -0.22340
 H564 H 0.53860 -0.09619 -0.16535
 H565 H 0.46904 -0.12035 -0.22277
 H566 H 0.46818 -0.15265 -0.28081
 C567 C 0.32071 0.49498 -0.32983
 C568 C 0.33637 0.49509 -0.30130
 C569 C 0.35517 0.49535 -0.26746
 C570 C 0.35407 0.47488 -0.24968
 C571 C 0.37237 0.47516 -0.21702
 C572 C 0.39187 0.49590 -0.20202
 C573 C 0.39297 0.51637 -0.21977
 C574 C 0.37466 0.51610 -0.25242
 C575 C 0.41070 0.49615 -0.16844
 C576 C 0.42642 0.49627 -0.14026
 H577 H 0.33909 0.45875 -0.26109
 H578 H 0.37134 0.45923 -0.20351
 H579 H 0.40796 0.53250 -0.20840
 H580 H 0.37570 0.53203 -0.26597
 C581 C 1.17472 0.68308 -0.31992
 C582 C 1.15930 0.66754 -0.29065
 C583 C 1.14093 0.64876 -0.25633
 C584 C 1.13844 0.64979 -0.18781
 C585 C 1.12067 0.63140 -0.15458
 C586 C 1.10535 0.61190 -0.18978
 C587 C 1.10785 0.61090 -0.25828
 C588 C 1.12559 0.62927 -0.29146
 C589 C 1.08702 0.59293 -0.15596
 C590 C 1.07151 0.57687 -0.12867
 H591 H 1.15022 0.66476 -0.16014
 H592 H 1.11889 0.63236 -0.10161
 H593 H 1.09610 0.59591 -0.28598
 H594 H 1.12738 0.62827 -0.34443
 C595 C 0.82500 0.50524 -0.32318
 C596 C 0.84060 0.50513 -0.29494
 C597 C 0.85919 0.50485 -0.26163
 C598 C 0.86067 0.48500 -0.26127
 C599 C 0.87881 0.48474 -0.22926
 C600 C 0.89555 0.50434 -0.19751
 C601 C 0.89407 0.52418 -0.19781
 C602 C 0.87592 0.52444 -0.22982
 C603 C 0.91424 0.50410 -0.16466
 C604 C 0.92991 0.50397 -0.13703
 H605 H 0.84783 0.46976 -0.28575
 H606 H 0.87979 0.46931 -0.22931
 H607 H 0.90692 0.53943 -0.17339
 H608 H 0.87495 0.53988 -0.22984
 C609 C 0.49347 0.31721 -0.31662
 C610 C 0.49348 0.33260 -0.28694
 C611 C 0.49377 0.35118 -0.25205
 C612 C 0.47357 0.34895 -0.22658
 C613 C 0.47385 0.36721 -0.19371
 C614 C 0.49435 0.38775 -0.18620
 C615 C 0.51455 0.38993 -0.21139
 C616 C 0.51426 0.37169 -0.24423
 C617 C 0.49461 0.40674 -0.15387
 C618 C 0.49496 0.42282 -0.12755
 H619 H 0.45762 0.33318 -0.23242
 H620 H 0.45812 0.36536 -0.17454
 H621 H 0.53048 0.40576 -0.20599
 H622 H 0.52998 0.37360 -0.26381
 C623 C 0.67631 0.17863 -0.32174
 C624 C 0.66084 0.16270 -0.29389
 C625 C 0.64248 0.14352 -0.26095
 C626 C 0.64690 0.12893 -0.22279
 C627 C 0.62907 0.11016 -0.19119
 C628 C 0.60672 0.10588 -0.19766
 C629 C 0.60229 0.12048 -0.23580
 C630 C 0.62013 0.13926 -0.26741
 C631 C 0.58840 0.08666 -0.16476
 C632 C 0.57305 0.07066 -0.13679
 H633 H 0.66412 0.13205 -0.21753
 H634 H 0.63269 0.09900 -0.16174
 H635 H 0.58507 0.11735 -0.24105
 H636 H 0.61652 0.15041 -0.29687
 C637 C 1.17708 0.49784 -0.32388
 C638 C 1.16148 0.49741 -0.29428
 C639 C 1.14270 0.49675 -0.25946
 C640 C 1.14670 0.51199 -0.20767
 C641 C 1.12841 0.51147 -0.17437
 C642 C 1.10604 0.49569 -0.19273
 C643 C 1.10205 0.48039 -0.24435
 C644 C 1.12034 0.48092 -0.27764
 C645 C 1.08722 0.49546 -0.15947
 C646 C 1.07145 0.49543 -0.13217
 H647 H 1.16393 0.52431 -0.19326
 H648 H 1.13168 0.52341 -0.13461
 H649 H 1.08482 0.46816 -0.25903
 H650 H 1.11706 0.46906 -0.31764
 C651 C 0.50572 0.68011 -0.32550
 C652 C 0.50540 0.66422 -0.29788
 C653 C 0.50490 0.64513 -0.26533
 C654 C 0.49920 0.62533 -0.30111
 C655 C 0.49868 0.60675 -0.26952
 C656 C 0.50384 0.60790 -0.20201
 C657 C 0.50951 0.62769 -0.16621
 C658 C 0.51004 0.64627 -0.19780
 C659 C 0.50347 0.58887 -0.16952
 C660 C 0.50329 0.57305 -0.14192
 H661 H 0.49518 0.62427 -0.35335
 H662 H 0.49428 0.59153 -0.29766
 H663 H 0.51355 0.62875 -0.11399
 H664 H 0.51445 0.66149 -0.16967
 C665 C 0.31997 -0.17671 -0.31984
 C666 C 0.33538 -0.16125 -0.29042
 C667 C 0.35376 -0.14265 -0.25570
 C668 C 0.34992 -0.12698 -0.22137
 C669 C 0.36785 -0.10868 -0.18848
 C670 C 0.38969 -0.10599 -0.18983
 C671 C 0.39351 -0.12171 -0.22396
 C672 C 0.37558 -0.14001 -0.25685
 C673 C 0.40823 -0.08703 -0.15678
 C674 C 0.42395 -0.07119 -0.12954
 H675 H 0.33311 -0.12885 -0.22026
 H676 H 0.36472 -0.09661 -0.16226
 H677 H 0.41034 -0.11978 -0.22533
 H678 H 0.37873 -0.15201 -0.28332
 C679 C 0.50666 -0.17540 0.31951
 C680 C 0.50661 -0.16003 0.28987
 C681 C 0.50627 -0.14174 0.25495
 C682 C 0.52640 -0.12387 0.22874
 C683 C 0.52605 -0.10594 0.19570
 C684 C 0.50557 -0.10583 0.18878
 C685 C 0.48543 -0.12376 0.21473
 C686 C 0.48578 -0.14168 0.24775
 C687 C 0.50524 -0.08718 0.15608
 C688 C 0.50487 -0.07151 0.12933
 H689 H 0.54233 -0.12375 0.23410
 H690 H 0.54172 -0.09214 0.17590
 H691 H 0.46951 -0.12382 0.20975
 H692 H 0.47012 -0.15541 0.26789
 C693 C 0.32339 0.50143 0.31843
 C694 C 0.33905 0.50131 0.29085
 C695 C 0.35763 0.50082 0.25834
 C696 C 0.36104 0.48231 0.26802
 C697 C 0.37901 0.48171 0.23628
 C698 C 0.39364 0.49961 0.19473
 C699 C 0.39026 0.51815 0.18512
 C700 C 0.37229 0.51875 0.21688
 C701 C 0.41201 0.49888 0.16169
 C702 C 0.42735 0.49826 0.13380
 H703 H 0.34980 0.46836 0.29998
 H704 H 0.38146 0.46730 0.24401
 H705 H 0.40148 0.53207 0.15306
 H706 H 0.36979 0.53314 0.20906
 C707 C 1.17700 0.67919 0.32232
 C708 C 1.16161 0.66370 0.29293
 C709 C 1.14308 0.64523 0.25828
 C710 C 1.13297 0.64967 0.20413
 C711 C 1.11471 0.63173 0.17113
 C712 C 1.10648 0.60930 0.19221
 C713 C 1.11663 0.60486 0.24623
 C714 C 1.13489 0.62280 0.27921
 C715 C 1.08758 0.59082 0.15874
 C716 C 1.07176 0.57518 0.13114
 H717 H 1.13916 0.66696 0.18762
 H718 H 1.10697 0.63533 0.12941
 H719 H 1.11040 0.58758 0.26291
 H720 H 1.14256 0.61919 0.32108
 C721 C 0.49421 0.17418 0.32620
 C722 C 0.49449 0.15871 0.29795
 C723 C 0.49498 0.14026 0.26462
 C724 C 0.50149 0.12652 0.29912
 C725 C 0.50200 0.10859 0.26680
 C726 C 0.49601 0.10434 0.19984
 C727 C 0.48953 0.11810 0.16531
 C728 C 0.48901 0.13602 0.19764
 C729 C 0.49637 0.08579 0.16670
 C730 C 0.49652 0.07020 0.13885
 H731 H 0.50615 0.12966 0.35092
 H732 H 0.50703 0.09805 0.29397
 H733 H 0.48485 0.11494 0.11353
 H734 H 0.48397 0.14655 0.17049
 C735 C 0.68146 0.50585 0.32006
 C736 C 0.66612 0.50594 0.29025
 C737 C 0.64760 0.50578 0.25509
 C738 C 0.65019 0.52591 0.22778
 C739 C 0.63205 0.52573 0.19434
 C740 C 0.61126 0.50542 0.18809
 C741 C 0.60871 0.48528 0.21519
 C742 C 0.62684 0.48546 0.24861
 C743 C 0.59244 0.50526 0.15479
 C744 C 0.57652 0.50498 0.12750
 H745 H 0.66617 0.54172 0.23256
 H746 H 0.63420 0.54141 0.17366
 H747 H 0.59270 0.46950 0.21074
 H748 H 0.62465 0.46980 0.26958
 C749 C 0.82204 0.32383 0.32408
 C750 C 0.83789 0.33919 0.29569
 C751 C 0.85699 0.35742 0.26207
 C752 C 0.85964 0.37924 0.26062
 C753 C 0.87832 0.39696 0.22831
 C754 C 0.89442 0.39292 0.19737
 C755 C 0.89176 0.37111 0.19880
 C756 C 0.87309 0.35339 0.23110
 C757 C 0.91358 0.41112 0.16391
 C758 C 0.92954 0.42640 0.13566
 H759 H 0.84730 0.38254 0.28447
 H760 H 0.88021 0.41377 0.22745
 H761 H 0.90410 0.36780 0.17499
 H762 H 0.87121 0.33659 0.23199
   
