data_POSCAR
  _audit_creation_date              2014-09-24
  _audit_creation_method            'ToBaCCo'
  _symmetry_space_group_name_H-M    'P1'
  _symmetry_Int_Tables_number       1
  _symmetry_cell_setting            triclinic
  loop_
  _symmetry_equiv_pos_as_xyz
 x,y,z
_cell_length_a 43.2825
_cell_length_b 43.2392
_cell_length_c 15.3646
_cell_angle_alpha 89.955400
_cell_angle_beta 90.030800
_cell_angle_gamma 119.963900
loop_
  _atom_site_label
  _atom_site_type_symbol
  _atom_site_fract_x
  _atom_site_fract_y
  _atom_site_fract_z
O1 O 0.20418 0.46719 0.41546
 O2 O 0.26512 0.46792 0.58405
 O3 O 0.20430 0.46705 0.58475
 O4 O 0.26503 0.46823 0.41572
 O5 O 0.29386 0.52728 0.41602
 O6 O 0.23308 0.52608 0.58518
 O7 O 0.29396 0.52695 0.58447
 O8 O 0.23294 0.52622 0.41574
 Cu9 Cu 0.23169 0.46165 0.49999
 Cu10 Cu 0.26629 0.53260 0.50044
 C11 C 0.20814 0.49657 0.38744
 C12 C 0.29016 0.49753 0.61177
 C13 C 0.20828 0.49636 0.61306
 C14 C 0.28999 0.49794 0.38823
 O15 O 0.53200 -0.26556 0.41422
 O16 O 0.53282 -0.20469 0.58316
 O17 O 0.53186 -0.26560 0.58266
 O18 O 0.53292 -0.20469 0.41392
 O19 O 0.47394 -0.23351 0.41361
 O20 O 0.47289 -0.29449 0.58251
 O21 O 0.47386 -0.23350 0.58301
 O22 O 0.47303 -0.29444 0.41392
 Cu23 Cu 0.53834 -0.23218 0.49853
 Cu24 Cu 0.46748 -0.26683 0.49825
 C25 C 0.50240 -0.29056 0.38638
 C26 C 0.50349 -0.20865 0.61119
 C27 C 0.50223 -0.29063 0.61019
 C28 C 0.50361 -0.20867 0.38568
 O29 O 1.26253 0.79743 0.41652
 O30 O 1.20176 0.73681 0.58491
 O31 O 1.26214 0.79711 0.58563
 O32 O 1.20220 0.73723 0.41577
 O33 O 1.23156 0.70755 0.41593
 O34 O 1.29154 0.76748 0.58588
 O35 O 1.23112 0.70714 0.58516
 O36 O 1.29192 0.76778 0.41669
 Cu37 Cu 1.22919 0.77013 0.50074
 Cu38 Cu 1.26450 0.73449 0.50098
 C39 C 1.28762 0.79298 0.38855
 C40 C 1.20599 0.71157 0.61300
 C41 C 1.28714 0.79259 0.61390
 C42 C 1.20662 0.71215 0.38756
 O43 O 0.73592 0.53316 0.58444
 O44 O 0.79623 0.53216 0.41658
 O45 O 0.73647 0.53328 0.41508
 O46 O 0.79584 0.53220 0.58482
 O47 O 0.76571 0.47316 0.58491
 O48 O 0.70625 0.47425 0.41502
 O49 O 0.76608 0.47313 0.41653
 O50 O 0.70573 0.47415 0.58454
 Cu51 Cu 0.76907 0.53865 0.50029
 Cu52 Cu 0.73280 0.46771 0.50030
 C53 C 0.71050 0.50384 0.61247
 C54 C 0.79165 0.50249 0.38912
 C55 C 0.71124 0.50396 0.38668
 C56 C 0.79118 0.50252 0.61243
 O57 O 0.46731 0.26333 0.41634
 O58 O 0.46807 0.20284 0.58438
 O59 O 0.46715 0.26280 0.58560
 O60 O 0.46819 0.20337 0.41604
 O61 O 0.52718 0.23344 0.41628
 O62 O 0.52613 0.29294 0.58599
 O63 O 0.52704 0.23291 0.58476
 O64 O 0.52628 0.29346 0.41658
 Cu65 Cu 0.46174 0.23012 0.50057
 Cu66 Cu 0.53262 0.26631 0.50095
 C67 C 0.49666 0.28873 0.38843
 C68 C 0.49767 0.20733 0.61204
 C69 C 0.49645 0.28805 0.61400
 C70 C 0.49783 0.20805 0.38846
 O71 O 0.73564 0.20478 0.41688
 O72 O 0.79640 0.26550 0.58492
 O73 O 0.73591 0.20504 0.58533
 O74 O 0.79608 0.26514 0.41636
 O75 O 0.76670 0.29481 0.41614
 O76 O 0.70643 0.23461 0.58529
 O77 O 0.76701 0.29514 0.58488
 O78 O 0.70618 0.23437 0.41666
 Cu79 Cu 0.76898 0.23214 0.50093
 Cu80 Cu 0.73362 0.26774 0.50078
 C81 C 0.71037 0.20903 0.38923
 C82 C 0.79229 0.29088 0.61241
 C83 C 0.71069 0.20933 0.61284
 C84 C 0.79184 0.29038 0.38853
 O85 O 0.95102 0.42246 0.15994
 O86 O 0.91127 0.42972 0.07549
 C87 C 0.91896 0.41427 0.13717
 O88 O 1.05013 0.58104 0.15256
 O89 O 1.08970 0.57189 0.07253
 C90 C 1.08214 0.58892 0.13027
 O91 O 0.95054 0.52847 0.16016
 O92 O 0.91105 0.48120 0.07624
 C93 C 0.91855 0.50436 0.13777
 O94 O 1.05056 0.46940 0.15127
 O95 O 1.08997 0.51843 0.07170
 C96 C 1.08256 0.49376 0.12932
 Zr97 Zr 1.00060 0.46091 0.10659
 O98 O 1.00160 0.45611 0.24339
 O99 O 0.99951 0.41188 0.08996
 Zr100 Zr 1.00032 0.53910 0.10887
 O101 O 1.00372 0.54103 0.24642
 O102 O 0.99636 0.58598 0.10644
 O103 O 0.96884 0.48409 0.12514
 O104 O 1.03134 0.51549 0.12399
 O105 O 1.05029 0.46950 -0.15488
 O106 O 1.08975 0.51859 -0.07568
 C107 C 1.08227 0.49386 -0.13297
 O108 O 0.95058 0.52845 -0.16272
 O109 O 0.91106 0.48151 -0.07779
 C110 C 0.91859 0.50459 -0.13952
 O111 O 1.05020 0.58135 -0.15484
 O112 O 1.08977 0.57207 -0.07523
 C113 C 1.08223 0.58917 -0.13294
 O114 O 0.95059 0.42203 -0.16221
 O115 O 0.91108 0.42987 -0.07860
 C116 C 0.91858 0.41413 -0.13990
 Zr117 Zr 1.00039 0.46155 -0.11163
 O118 O 1.00416 0.46314 -0.24916
 O119 O 0.99706 0.41101 -0.10921
 Zr120 Zr 1.00029 0.53987 -0.10967
 O121 O 1.00345 0.54553 -0.24650
 O122 O 0.99616 0.58653 -0.09915
 Zr123 Zr 0.94688 0.47351 -0.00134
 Zr124 Zr 1.05377 0.52719 -0.00150
 O125 O 1.03114 0.51618 -0.12701
 O126 O 0.96867 0.48486 -0.12803
 O127 O 1.03267 0.47144 -0.00260
 O128 O 0.96890 0.52930 -0.00033
 O129 O 0.96902 0.43986 -0.00232
 O130 O 1.03244 0.56166 -0.00036
 H131 H 1.04722 0.52342 0.17550
 H132 H 0.95246 0.53903 -0.00008
 H133 H 1.04679 0.52406 -0.17894
 H134 H 0.95271 0.41367 -0.00234
 H135 H 1.01726 0.60445 0.07428
 H136 H 1.01923 0.60599 -0.07724
 H137 H 0.99296 0.52123 -0.27090
 H138 H 0.98413 0.46555 -0.27231
 H139 H 1.01672 0.41316 -0.07201
 H140 H 0.99885 0.40262 0.14932
 H141 H 1.00665 0.47922 0.26826
 H142 H 0.98502 0.51759 0.26869
 O143 O 0.42289 0.47239 0.16013
 O144 O 0.42990 0.51912 0.07481
 C145 C 0.41461 0.49618 0.13695
 O146 O 0.58125 0.53126 0.15068
 O147 O 0.57169 0.48212 0.07173
 C148 C 0.58892 0.50689 0.12892
 O149 O 0.52885 0.57870 0.15796
 O150 O 0.48135 0.57073 0.07460
 C151 C 0.50465 0.58653 0.13576
 O152 O 0.46963 0.41960 0.15245
 O153 O 0.51847 0.42895 0.07277
 C154 C 0.49393 0.41187 0.13065
 Zr155 Zr 0.46116 0.46100 0.10682
 O156 O 0.45677 0.45566 0.24373
 O157 O 0.41212 0.41308 0.09116
 Zr158 Zr 0.53940 0.53940 0.10709
 O159 O 0.54204 0.53871 0.24462
 O160 O 0.58623 0.59015 0.10278
 O161 O 0.48446 0.51601 0.12425
 O162 O 0.51573 0.48482 0.12344
 O163 O 0.46922 0.41891 -0.15372
 O164 O 0.51863 0.42889 -0.07528
 C165 C 0.49372 0.41142 -0.13201
 O166 O 0.52845 0.57819 -0.16362
 O167 O 0.48132 0.57064 -0.07943
 C168 C 0.50445 0.58622 -0.14098
 O169 O 0.58102 0.53099 -0.15592
 O170 O 0.57174 0.48219 -0.07587
 C171 C 0.58880 0.50673 -0.13380
 O172 O 0.42173 0.47134 -0.16232
 O173 O 0.42972 0.51897 -0.07939
 C174 C 0.41388 0.49554 -0.14030
 Zr175 Zr 0.46116 0.46098 -0.11136
 O176 O 0.46219 0.45816 -0.24880
 O177 O 0.41066 0.41385 -0.10757
 Zr178 Zr 0.53935 0.53930 -0.11160
 O179 O 0.54297 0.53920 -0.24891
 O180 O 0.58611 0.59010 -0.10597
 Zr181 Zr 0.47348 0.52696 -0.00234
 Zr182 Zr 0.52703 0.47357 -0.00194
 O183 O 0.51568 0.48471 -0.12759
 O184 O 0.48436 0.51599 -0.12889
 O185 O 0.47135 0.43895 -0.00199
 O186 O 0.52923 0.56059 -0.00239
 O187 O 0.43983 0.47118 -0.00215
 O188 O 0.56150 0.52935 -0.00218
 H189 H 0.52374 0.47704 0.17517
 H190 H 0.53905 0.58678 -0.00254
 H191 H 0.52349 0.47676 -0.17933
 H192 H 0.41366 0.46137 -0.00191
 H193 H 0.60477 0.58736 0.07211
 H194 H 0.60507 0.58699 -0.07854
 H195 H 0.51905 0.53206 -0.27230
 H196 H 0.46615 0.48118 -0.27212
 H197 H 0.41302 0.39637 -0.07065
 H198 H 0.40296 0.40472 0.15069
 H199 H 0.47970 0.47424 0.26814
 H200 H 0.51865 0.53389 0.26735
 O201 O 0.47187 0.04935 0.16050
 O202 O 0.51877 0.08897 0.07573
 C203 C 0.49573 0.08138 0.13750
 O204 O 0.53052 -0.05053 0.15294
 O205 O 0.48153 -0.09003 0.07351
 C206 C 0.50621 -0.08255 0.13096
 O207 O 0.57802 0.04938 0.16039
 O208 O 0.57030 0.08896 0.07639
 C209 C 0.58595 0.08142 0.13792
 O210 O 0.41900 -0.05021 0.15230
 O211 O 0.42832 -0.08984 0.07285
 C212 C 0.41121 -0.08228 0.13045
 Zr213 Zr 0.46053 -0.00035 0.10736
 O214 O 0.45489 -0.00133 0.24418
 O215 O 0.41274 0.00097 0.09095
 Zr216 Zr 0.53876 -0.00044 0.10932
 O217 O 0.53759 -0.00380 0.24687
 O218 O 0.58944 0.00330 0.10651
 O219 O 0.51545 0.03125 0.12562
 O220 O 0.48419 -0.03127 0.12478
 O221 O 0.41898 -0.05020 -0.15379
 O222 O 0.42857 -0.08975 -0.07461
 C223 C 0.41131 -0.08222 -0.13182
 O224 O 0.57764 0.04918 -0.16244
 O225 O 0.57044 0.08887 -0.07765
 C226 C 0.58587 0.08124 -0.13939
 O227 O 0.53063 -0.05059 -0.15413
 O228 O 0.48187 -0.09000 -0.07417
 C229 C 0.50638 -0.08260 -0.13200
 O230 O 0.47144 0.04955 -0.16161
 O231 O 0.51894 0.08905 -0.07836
 C232 C 0.49563 0.08156 -0.13951
 Zr233 Zr 0.46105 -0.00032 -0.11084
 O234 O 0.45868 -0.00418 -0.24835
 O235 O 0.41400 0.00323 -0.10815
 Zr236 Zr 0.53925 -0.00052 -0.10926
 O237 O 0.54129 -0.00388 -0.24616
 O238 O 0.58993 0.00343 -0.09939
 Zr239 Zr 0.52671 0.05317 -0.00098
 Zr240 Zr 0.47325 -0.05379 -0.00063
 O241 O 0.48473 -0.03125 -0.12625
 O242 O 0.51602 0.03127 -0.12756
 O243 O 0.43877 -0.03252 -0.00162
 O244 O 0.56028 0.03093 -0.00005
 O245 O 0.47100 0.03120 -0.00168
 O246 O 0.52897 -0.03266 0.00019
 H247 H 0.47625 -0.04712 0.17640
 H248 H 0.58643 0.04731 0.00007
 H249 H 0.47686 -0.04697 -0.17808
 H250 H 0.46121 0.04759 -0.00170
 H251 H 0.58682 -0.01780 0.07493
 H252 H 0.58632 -0.01957 -0.07666
 H253 H 0.52848 0.00772 -0.27043
 H254 H 0.48114 0.01575 -0.27162
 H255 H 0.39652 -0.01640 -0.07085
 H256 H 0.40425 0.00171 0.15035
 H257 H 0.47326 -0.00593 0.26897
 H258 H 0.53298 0.01497 0.26925
 C259 C 1.18332 0.49618 0.32474
 C260 C 1.16159 0.49570 0.27472
 C261 C 1.13510 0.49501 0.21961
 C262 C 1.11160 0.49440 0.17610
 C263 C 0.50220 0.68557 0.32861
 C264 C 0.50231 0.66372 0.28005
 C265 C 0.50279 0.63741 0.22650
 C266 C 0.50349 0.61444 0.18355
 C267 C 0.31227 -0.18238 0.32596
 C268 C 0.33370 -0.16083 0.27594
 C269 C 0.35969 -0.13458 0.22078
 C270 C 0.38272 -0.11123 0.17722
 C271 C 0.81678 0.50219 0.32866
 C272 C 0.83888 0.50222 0.28081
 C273 C 0.86577 0.50260 0.22797
 C274 C 0.88949 0.50323 0.18542
 C275 C 0.49628 0.31331 0.32603
 C276 C 0.49583 0.33467 0.27622
 C277 C 0.49520 0.36057 0.22124
 C278 C 0.49461 0.38350 0.17770
 C279 C 0.68516 0.18371 0.32868
 C280 C 0.66324 0.16144 0.28084
 C281 C 0.63687 0.13436 0.22806
 C282 C 0.61387 0.11053 0.18557
 C283 C 0.49786 0.18347 -0.33074
 C284 C 0.49778 0.16135 -0.28269
 C285 C 0.49735 0.13442 -0.22970
 C286 C 0.49671 0.11067 -0.18711
 C287 C 0.68727 0.50428 -0.32869
 C288 C 0.66598 0.50479 -0.27887
 C289 C 0.64013 0.50548 -0.22396
 C290 C 0.61721 0.50609 -0.18057
 C291 C 0.81631 0.31477 -0.33046
 C292 C 0.83857 0.33669 -0.28258
 C293 C 0.86565 0.36309 -0.22983
 C294 C 0.88948 0.38614 -0.18742
 C295 C 0.50390 -0.18372 -0.32637
 C296 C 0.50440 -0.16189 -0.27666
 C297 C 0.50510 -0.13528 -0.22193
 C298 C 0.50572 -0.11170 -0.17867
 C299 C 0.31417 0.49770 -0.33100
 C300 C 0.33618 0.49759 -0.28302
 C301 C 0.36268 0.49715 -0.23019
 C302 C 0.38581 0.49653 -0.18776
 C303 C 1.18251 0.68818 -0.32810
 C304 C 1.16088 0.66674 -0.27821
 C305 C 1.13454 0.64072 -0.22322
 C306 C 1.11116 0.61767 -0.17975
 C307 C 0.81626 0.50225 -0.32725
 C308 C 0.83850 0.50236 -0.27996
 C309 C 0.86562 0.50286 -0.22817
 C310 C 0.88951 0.50354 -0.18651
 C311 C 0.49596 0.31238 -0.32355
 C312 C 0.49540 0.33368 -0.27409
 C313 C 0.49470 0.35965 -0.22008
 C314 C 0.49416 0.38277 -0.17763
 C315 C 0.68547 0.18399 -0.32701
 C316 C 0.66347 0.16157 -0.27986
 C317 C 0.63697 0.13429 -0.22818
 C318 C 0.61385 0.11031 -0.18652
 C319 C 1.18338 0.49586 -0.32469
 C320 C 1.16152 0.49536 -0.27535
 C321 C 1.13488 0.49475 -0.22136
 C322 C 1.11128 0.49427 -0.17884
 C323 C 0.50198 0.68544 -0.33234
 C324 C 0.50208 0.66352 -0.28413
 C325 C 0.50258 0.63715 -0.23112
 C326 C 0.50331 0.61412 -0.18856
 C327 C 0.31171 -0.18280 -0.32367
 C328 C 0.33321 -0.16115 -0.27417
 C329 C 0.35938 -0.13471 -0.22006
 C330 C 0.38261 -0.11121 -0.17752
 C331 C 0.50408 -0.18374 0.32340
 C332 C 0.50459 -0.16186 0.27395
 C333 C 0.50523 -0.13521 0.21978
 C334 C 0.50574 -0.11159 0.17706
 C335 C 0.31523 0.49829 0.32747
 C336 C 0.33723 0.49828 0.27954
 C337 C 0.36368 0.49791 0.22687
 C338 C 0.38675 0.49729 0.18451
 C339 C 1.18216 0.68778 0.32462
 C340 C 1.16067 0.66648 0.27452
 C341 C 1.13442 0.64055 0.21962
 C342 C 1.11104 0.61748 0.17648
 C343 C 0.49811 0.18313 0.32762
 C344 C 0.49801 0.16108 0.27970
 C345 C 0.49753 0.13417 0.22712
 C346 C 0.49684 0.11040 0.18488
 C347 C 0.68710 0.50447 0.32364
 C348 C 0.66600 0.50505 0.27349
 C349 C 0.64028 0.50579 0.21853
 C350 C 0.61737 0.50638 0.17529
 C351 C 0.81698 0.31537 0.32770
 C352 C 0.83919 0.33716 0.27978
 C353 C 0.86622 0.36343 0.22716
 C354 C 0.89002 0.38640 0.18481
   
