data_POSCAR
  _audit_creation_date              2014-09-24
  _audit_creation_method            'ToBaCCo'
  _symmetry_space_group_name_H-M    'P1'
  _symmetry_Int_Tables_number       1
  _symmetry_cell_setting            triclinic
  loop_
  _symmetry_equiv_pos_as_xyz
 x,y,z
_cell_length_a 35.5524
_cell_length_b 35.4873
_cell_length_c 60.4102
_cell_angle_alpha 90.098800
_cell_angle_beta 90.546400
_cell_angle_gamma 91.173400
loop_
  _atom_site_label
  _atom_site_type_symbol
  _atom_site_fract_x
  _atom_site_fract_y
  _atom_site_fract_z
C1 C 0.02059 0.38262 0.98907
 C2 C 0.02087 0.38244 1.01178
 C3 C 0.01174 0.41853 1.01850
 N4 N 0.00569 0.44055 1.00064
 C5 C 0.01135 0.41878 0.98263
 C6 C 0.00661 0.42980 1.04071
 C7 C 0.00018 0.46742 1.04728
 C8 C -0.01167 0.47821 1.06815
 C9 C -0.01242 0.51693 1.06826
 C10 C -0.00101 0.52887 1.04745
 N11 N 0.00683 0.49850 1.03485
 C12 C 0.00399 0.56702 1.04110
 C13 C 0.00881 0.57893 1.01896
 C14 C 0.01668 0.61574 1.01246
 C15 C 0.01661 0.61580 0.98976
 C16 C 0.00872 0.57905 0.98309
 N17 N 0.00370 0.55667 1.00095
 C18 C 0.00384 0.56735 0.96088
 C19 C -0.00123 0.52937 0.95426
 C20 C -0.01262 0.51775 0.93326
 C21 C -0.01208 0.47900 0.93316
 C22 C -0.00035 0.46798 0.95410
 N23 N 0.00646 0.49887 0.96678
 C24 C 0.00586 0.43033 0.96051
 H25 H 0.02615 0.35873 0.97852
 H26 H 0.02665 0.35837 1.02215
 H27 H 0.01969 0.49926 0.98216
 H28 H -0.01870 0.46006 1.08195
 H29 H -0.02014 0.53434 1.08216
 H30 H 0.02150 0.64011 1.02299
 H31 H 0.02137 0.64021 0.97936
 H32 H -0.01918 0.46102 0.91918
 H33 H 0.02008 0.49910 1.01962
 H34 H -0.02023 0.53537 0.91938
 C35 C 0.38010 0.00692 0.48942
 C36 C 0.38084 0.00779 0.51210
 C37 C 0.41841 0.00715 0.51851
 N38 N 0.44047 0.00595 0.50045
 C39 C 0.41723 0.00579 0.48263
 C40 C 0.43126 0.00636 0.54072
 C41 C 0.46951 0.00498 0.54745
 C42 C 0.48136 -0.00090 0.56909
 C43 C 0.51996 -0.00093 0.56895
 C44 C 0.53095 0.00487 0.54719
 N45 N 0.49996 0.00910 0.53427
 C46 C 0.56889 0.00596 0.54010
 C47 C 0.58034 0.00545 0.51769
 C48 C 0.61749 0.00472 0.51081
 C49 C 0.61663 0.00266 0.48817
 C50 C 0.57903 0.00238 0.48182
 N51 N 0.55701 0.00405 0.49990
 C52 C 0.56611 0.00171 0.45960
 C53 C 0.52792 0.00350 0.45284
 C54 C 0.51612 0.00859 0.43111
 C55 C 0.47754 0.00977 0.43131
 C56 C 0.46658 0.00532 0.45316
 N57 N 0.49749 0.00088 0.46611
 C58 C 0.42873 0.00559 0.46028
 H59 H 0.35502 0.00720 0.47912
 H60 H 0.35643 0.00857 0.52265
 H61 H 0.49771 -0.00619 0.48271
 H62 H 0.46399 -0.00517 0.58353
 H63 H 0.53792 -0.00529 0.58326
 H64 H 0.64264 0.00527 0.52106
 H65 H 0.64101 0.00175 0.47760
 H66 H 0.45963 0.01392 0.41697
 H67 H 0.49970 0.01718 0.51782
 H68 H 0.53350 0.01172 0.41659
 C69 C 0.07101 0.00470 0.25968
 H70 H 0.07366 0.00466 0.24185
 C71 C 0.10318 0.00708 0.27312
 H72 H 0.13076 0.00874 0.26567
 C73 C 0.03187 0.00283 0.29126
 H74 H 0.00409 0.00172 0.29830
 C75 C 0.06327 0.00520 0.30528
 H76 H 0.05955 0.00548 0.32306
 N77 N 0.03626 0.00203 0.26890
 C78 C -0.03529 -0.05408 0.21923
 H79 H -0.05827 -0.03460 0.21838
 C80 C -0.03598 -0.08636 0.20596
 H81 H -0.05949 -0.09177 0.19478
 C82 C 0.02359 -0.07081 0.23473
 H83 H 0.04658 -0.06489 0.24609
 C84 C 0.02400 -0.10343 0.22176
 H85 H 0.04751 -0.12228 0.22300
 Zn86 Zn -0.00616 -0.00139 0.24970
 N87 N -0.00546 -0.04654 0.23293
 C88 C -0.00312 0.03650 0.20834
 N89 N -0.00422 0.04104 0.23071
 C90 C -0.00266 0.07597 0.24008
 C91 C -0.00100 0.10813 0.22677
 C92 C -0.00144 0.06789 0.19446
 C93 C -0.05751 -0.03235 0.27969
 C94 C -0.08957 -0.03421 0.29285
 C95 C -0.10873 0.02539 0.27759
 C96 C -0.07629 0.02616 0.26471
 N97 N -0.05112 -0.00215 0.26629
 H98 H -0.00332 0.00862 0.20118
 H99 H -0.00288 0.07876 0.25791
 H100 H -0.00009 0.13584 0.23434
 H101 H -0.00079 0.06403 0.17667
 H102 H -0.03730 -0.05471 0.28038
 H103 H -0.09408 -0.05802 0.30378
 H104 H -0.12834 0.04830 0.27653
 H105 H -0.07123 0.04946 0.25360
 C106 C -0.00589 -0.11107 0.20711
 C107 C 0.09923 0.00711 0.29613
 C108 C -0.11523 -0.00491 0.29192
 C109 C -0.00054 0.10400 0.20375
 C110 C 0.00005 0.07541 0.75884
 H111 H -0.00017 0.07765 0.74098
 C112 C -0.00036 0.10797 0.77188
 H113 H -0.00075 0.13543 0.76408
 C114 C 0.00062 0.03696 0.79092
 H115 H 0.00047 0.00930 0.79832
 C116 C 0.00019 0.06876 0.80454
 H117 H 0.00015 0.06545 0.82237
 N118 N 0.00114 0.04081 0.76850
 C119 C 0.05249 -0.03266 0.71981
 H120 H 0.03189 -0.05553 0.71934
 C121 C 0.08442 -0.03413 0.70658
 H122 H 0.08844 -0.05813 0.69581
 C123 C 0.07242 0.02668 0.73433
 H124 H 0.06789 0.05014 0.74532
 C125 C 0.10476 0.02632 0.72137
 H126 H 0.12480 0.04970 0.72224
 Zn127 Zn 0.00206 -0.00218 0.74987
 N128 N 0.04674 -0.00226 0.73303
 C129 C -0.03658 -0.00021 0.70853
 N130 N -0.04066 -0.00055 0.73091
 C131 C -0.07524 0.00135 0.74029
 C132 C -0.10758 0.00248 0.72699
 C133 C -0.06816 0.00091 0.69465
 C134 C 0.03132 -0.05301 0.78051
 C135 C 0.03207 -0.08487 0.79403
 C136 C -0.02861 -0.10417 0.77906
 C137 C -0.02825 -0.07193 0.76581
 N138 N 0.00115 -0.04679 0.76707
 H139 H -0.00892 -0.00069 0.70135
 H140 H -0.07764 0.00171 0.75813
 H141 H -0.13504 0.00357 0.73457
 H142 H -0.06468 0.00085 0.67685
 H143 H 0.05456 -0.03285 0.78093
 H144 H 0.05589 -0.08926 0.80498
 H145 H -0.05236 -0.12376 0.77824
 H146 H -0.05152 -0.06702 0.75466
 C147 C 0.11062 -0.00422 0.70725
 C148 C -0.00006 0.10456 0.79494
 C149 C 0.00168 -0.11050 0.79342
 C150 C -0.10396 0.00205 0.70396
 C151 C 0.00310 -0.40581 0.05724
 C152 C 0.00244 -0.38141 0.07114
 C153 C 0.00183 -0.35165 0.08732
 C154 C -0.01034 -0.35895 0.10888
 C155 C -0.01108 -0.32979 0.12448
 C156 C 0.00045 -0.29296 0.11868
 C157 C 0.01264 -0.28597 0.09695
 C158 C 0.01330 -0.31512 0.08140
 C159 C -0.00037 -0.26184 0.13513
 C160 C 0.02897 -0.23466 0.13610
 C161 C 0.02780 -0.20482 0.15118
 C162 C -0.00267 -0.20172 0.16552
 C163 C -0.03186 -0.22877 0.16484
 C164 C -0.03072 -0.25870 0.14977
 C165 C -0.00419 -0.17029 0.18055
 C166 C -0.00515 -0.14353 0.19283
 H167 H -0.01922 -0.38716 0.11364
 H168 H -0.02021 -0.33613 0.14113
 H169 H 0.02114 -0.25784 0.09188
 H170 H 0.02263 -0.30914 0.06472
 H171 H 0.05296 -0.23659 0.12527
 H172 H 0.05058 -0.18406 0.15159
 H173 H -0.05565 -0.22655 0.17581
 H174 H -0.05394 -0.27892 0.14925
 C175 C 0.00674 0.40240 0.05669
 C176 C 0.00693 0.37779 0.07043
 C177 C 0.00724 0.34773 0.08636
 C178 C 0.02613 0.31453 0.08160
 C179 C 0.02574 0.28477 0.09672
 C180 C 0.00637 0.28780 0.11683
 C181 C -0.01225 0.32146 0.12157
 C182 C -0.01184 0.35121 0.10640
 C183 C 0.00518 0.25573 0.13260
 C184 C 0.00850 0.26195 0.15556
 C185 C 0.00743 0.23160 0.17031
 C186 C 0.00298 0.19472 0.16231
 C187 C -0.00044 0.18829 0.13952
 C188 C 0.00064 0.21854 0.12476
 C189 C 0.00188 0.16335 0.17736
 C190 C 0.00085 0.13655 0.18960
 H191 H 0.04103 0.31158 0.06615
 H192 H 0.04079 0.25947 0.09273
 H193 H -0.02776 0.32448 0.13678
 H194 H -0.02666 0.37676 0.11021
 H195 H 0.01243 0.29021 0.16208
 H196 H 0.01018 0.23689 0.18793
 H197 H -0.00404 0.15986 0.13315
 H198 H -0.00257 0.21285 0.10722
 C199 C 0.40292 0.00502 0.55783
 C200 C 0.37880 0.00371 0.57172
 C201 C 0.34935 0.00195 0.58787
 C202 C 0.31232 -0.00613 0.58108
 C203 C 0.28349 -0.00782 0.59662
 C204 C 0.29130 -0.00141 0.61921
 C205 C 0.32864 0.00671 0.62588
 C206 C 0.35748 0.00834 0.61029
 C207 C 0.26051 -0.00292 0.63564
 C208 C 0.25915 0.02380 0.65284
 C209 C 0.22946 0.02302 0.66787
 C210 C 0.20085 -0.00450 0.66595
 C211 C 0.20219 -0.03146 0.64907
 C212 C 0.23180 -0.03071 0.63401
 C213 C 0.16955 -0.00453 0.68088
 C214 C 0.14291 -0.00446 0.69307
 H215 H 0.30571 -0.01099 0.56375
 H216 H 0.25498 -0.01357 0.59091
 H217 H 0.33560 0.01137 0.64317
 H218 H 0.38608 0.01453 0.61572
 H219 H 0.28057 0.04580 0.65438
 H220 H 0.22860 0.04413 0.68083
 H221 H 0.18020 -0.05291 0.64744
 H222 H 0.23233 -0.05198 0.62115
 C223 C -0.40335 0.00575 0.55604
 C224 C -0.37844 0.00559 0.56973
 C225 C -0.34801 0.00536 0.58558
 C226 C -0.35529 0.00137 0.60819
 C227 C -0.32549 0.00087 0.62348
 C228 C -0.28802 0.00428 0.61630
 C229 C -0.28108 0.00842 0.59353
 C230 C -0.31087 0.00895 0.57830
 C231 C -0.25623 0.00338 0.63241
 C232 C -0.22335 -0.01616 0.62735
 C233 C -0.19313 -0.01650 0.64229
 C234 C -0.19529 0.00263 0.66249
 C235 C -0.22795 0.02195 0.66778
 C236 C -0.25828 0.02230 0.65285
 C237 C -0.16370 0.00272 0.67757
 C238 C -0.13673 0.00256 0.68981
 H239 H -0.38395 -0.00152 0.61399
 H240 H -0.33171 -0.00277 0.64087
 H241 H -0.25261 0.01167 0.58752
 H242 H -0.30495 0.01216 0.56084
 H243 H -0.22112 -0.03145 0.61191
 H244 H -0.16801 -0.03163 0.63806
 H245 H -0.22987 0.03694 0.68335
 H246 H -0.28303 0.03793 0.65712
 C247 C 0.00289 -0.40379 0.94396
 C248 C 0.00217 -0.37932 0.93016
 C249 C 0.00139 -0.34957 0.91403
 C250 C -0.00047 -0.31206 0.92103
 C251 C -0.00109 -0.28296 0.90549
 C252 C 0.00017 -0.29100 0.88269
 C253 C 0.00208 -0.32882 0.87581
 C254 C 0.00265 -0.35791 0.89140
 C255 C -0.00033 -0.25998 0.86622
 C256 C 0.02302 -0.26080 0.84755
 C257 C 0.02314 -0.23108 0.83237
 C258 C -0.00011 -0.20024 0.83562
 C259 C -0.02368 -0.19934 0.85402
 C260 C -0.02382 -0.22898 0.86922
 C261 C 0.00064 -0.16913 0.82038
 C262 C 0.00118 -0.14263 0.80792
 H263 H -0.00130 -0.30529 0.93851
 H264 H -0.00200 -0.25413 0.91132
 H265 H 0.00267 -0.33593 0.85838
 H266 H 0.00403 -0.38688 0.88582
 H267 H 0.04173 -0.28405 0.84492
 H268 H 0.04160 -0.23199 0.81822
 H269 H -0.04185 -0.17564 0.85667
 H270 H -0.04249 -0.22777 0.88325
 C271 C 0.00554 0.40157 0.94345
 C272 C 0.00538 0.37717 0.92954
 C273 C 0.00537 0.34747 0.91331
 C274 C -0.01149 0.35259 0.89253
 C275 C -0.01182 0.32340 0.87692
 C276 C 0.00478 0.28873 0.88193
 C277 C 0.02172 0.28396 0.90286
 C278 C 0.02198 0.31313 0.91842
 C279 C 0.00417 0.25748 0.86554
 C280 C 0.03585 0.23483 0.86290
 C281 C 0.03490 0.20467 0.84799
 C282 C 0.00235 0.19673 0.83550
 C283 C -0.02919 0.21932 0.83781
 C284 C -0.02830 0.24955 0.85271
 C285 C 0.00111 0.16478 0.82079
 C286 C 0.00039 0.13757 0.80881
 H287 H -0.02438 0.37910 0.88840
 H288 H -0.02470 0.32807 0.86088
 H289 H 0.03424 0.25744 0.90734
 H290 H 0.03495 0.30882 0.93450
 H291 H 0.06142 0.24053 0.87230
 H292 H 0.05949 0.18738 0.84631
 H293 H -0.05459 0.21332 0.82829
 H294 H -0.05327 0.26618 0.85456
 C295 C -0.40566 0.00069 0.44244
 C296 C -0.38172 -0.00034 0.42846
 C297 C -0.35256 -0.00174 0.41216
 C298 C -0.36046 0.00645 0.38996
 C299 C -0.33191 0.00520 0.37422
 C300 C -0.29509 -0.00433 0.38050
 C301 C -0.28750 -0.01255 0.40286
 C302 C -0.31605 -0.01124 0.41856
 C303 C -0.26458 -0.00541 0.36390
 C304 C -0.23772 -0.03397 0.36464
 C305 C -0.20830 -0.03433 0.34946
 C306 C -0.20532 -0.00621 0.33334
 C307 C -0.23212 0.02210 0.33229
 C308 C -0.26160 0.02249 0.34744
 C309 C -0.17413 -0.00585 0.31833
 C310 C -0.14753 -0.00548 0.30610
 H311 H -0.38867 0.01376 0.38484
 H312 H -0.33872 0.01127 0.35710
 H313 H -0.25934 -0.01942 0.40828
 H314 H -0.30960 -0.01749 0.43572
 H315 H -0.23953 -0.05613 0.37691
 H316 H -0.18773 -0.05639 0.35041
 H317 H -0.22997 0.04411 0.31993
 H318 H -0.28157 0.04509 0.34661
 C319 C 0.39947 0.00723 0.44343
 C320 C 0.37467 0.00860 0.42972
 C321 C 0.34450 0.01021 0.41374
 C322 C 0.31326 0.03236 0.41797
 C323 C 0.28332 0.03315 0.40284
 C324 C 0.28420 0.01171 0.38324
 C325 C 0.31592 -0.01018 0.37902
 C326 C 0.34585 -0.01093 0.39419
 C327 C 0.25185 0.01168 0.36749
 C328 C 0.25772 0.01211 0.34448
 C329 C 0.22713 0.01170 0.32973
 C330 C 0.19034 0.01081 0.33779
 C331 C 0.18423 0.01043 0.36063
 C332 C 0.21473 0.01086 0.37539
 C333 C 0.15874 0.00985 0.32272
 C334 C 0.13184 0.00877 0.31042
 H335 H 0.31196 0.04888 0.43304
 H336 H 0.25955 0.05069 0.40642
 H337 H 0.31724 -0.02734 0.36422
 H338 H 0.36985 -0.02829 0.39080
 H339 H 0.28594 0.01315 0.33790
 H340 H 0.23217 0.01204 0.31207
 H341 H 0.15586 0.00957 0.36704
 H342 H 0.20927 0.00993 0.39298
   
