data_POSCAR
  _audit_creation_date              2014-09-24
  _audit_creation_method            'ToBaCCo'
  _symmetry_space_group_name_H-M    'P1'
  _symmetry_Int_Tables_number       1
  _symmetry_cell_setting            triclinic
  loop_
  _symmetry_equiv_pos_as_xyz
 x,y,z
_cell_length_a 55.6250
_cell_length_b 54.2557
_cell_length_c 55.2520
_cell_angle_alpha 90.332000
_cell_angle_beta 90.090500
_cell_angle_gamma 92.681500
loop_
  _atom_site_label
  _atom_site_type_symbol
  _atom_site_fract_x
  _atom_site_fract_y
  _atom_site_fract_z
N1 N 0.59432 0.66425 0.61183
 N2 N 0.58567 0.65499 0.63213
 C3 C 0.56626 0.66737 0.63870
 C4 C 0.56242 0.68517 0.62146
 C5 C 0.58052 0.68259 0.60462
 H6 H 0.55563 0.66370 0.65475
 H7 H 0.58381 0.69371 0.58867
 Cu8 Cu 0.60073 0.62777 0.64806
 Cu9 Cu 0.62352 0.65277 0.59693
 Cu10 Cu 0.65169 0.60555 0.62613
 N11 N 0.61616 0.60056 0.66364
 N12 N 0.63678 0.59292 0.65569
 C13 C 0.64408 0.57482 0.67011
 C14 C 0.62689 0.57044 0.68797
 C15 C 0.60936 0.58719 0.68315
 H16 H 0.66026 0.56497 0.66712
 H17 H 0.59311 0.58986 0.69332
 N18 N 0.66388 0.62060 0.59593
 N19 N 0.65328 0.63864 0.58483
 C20 C 0.66572 0.64457 0.56460
 C21 C 0.68491 0.62934 0.56277
 C22 C 0.68317 0.61441 0.58294
 H23 H 0.66086 0.65849 0.55180
 H24 H 0.69510 0.60006 0.58777
 H25 H 0.62051 0.61726 0.61030
 H26 H 0.63856 0.64055 0.62857
 N27 N 0.90942 0.33853 0.10902
 N28 N 0.91604 0.34506 0.13105
 C29 C 0.93334 0.33033 0.13856
 C30 C 0.93819 0.31382 0.12007
 C31 C 0.92259 0.31975 0.10154
 H32 H 0.94220 0.33209 0.15593
 H33 H 0.92048 0.31086 0.08406
 Cu34 Cu 0.90221 0.37296 0.14726
 Cu35 Cu 0.88406 0.35475 0.09179
 Cu36 Cu 0.85501 0.40041 0.12293
 N37 N 0.88871 0.40160 0.16245
 N38 N 0.86963 0.41160 0.15337
 C39 C 0.86336 0.43028 0.16784
 C40 C 0.87957 0.43228 0.18684
 C41 C 0.89546 0.41383 0.18281
 H42 H 0.84843 0.44189 0.16453
 H43 H 0.91053 0.40944 0.19411
 N44 N 0.84342 0.38661 0.09175
 N45 N 0.85423 0.36892 0.08011
 C46 C 0.84154 0.36284 0.05998
 C47 C 0.82211 0.37775 0.05869
 C48 C 0.82389 0.39264 0.07905
 H49 H 0.84616 0.34878 0.04709
 H50 H 0.81156 0.40649 0.08438
 H51 H 0.88677 0.38898 0.10943
 H52 H 0.86640 0.36439 0.12298
 N53 N 0.40108 0.16179 -0.11433
 N54 N 0.40989 0.15222 -0.13415
 C55 C 0.42956 0.16588 -0.14093
 C56 C 0.43341 0.18478 -0.12428
 C57 C 0.41505 0.18159 -0.10760
 H58 H 0.44058 0.16214 -0.15651
 H59 H 0.41189 0.19307 -0.09197
 Cu60 Cu 0.39537 0.12233 -0.14867
 Cu61 Cu 0.37179 0.14839 -0.09918
 Cu62 Cu 0.34576 0.09478 -0.12407
 N63 N 0.38114 0.09156 -0.16162
 N64 N 0.36140 0.08126 -0.15235
 C65 C 0.35500 0.06083 -0.16518
 C66 C 0.37179 0.05798 -0.18329
 C67 C 0.38818 0.07776 -0.18045
 H68 H 0.33946 0.04873 -0.16144
 H69 H 0.40379 0.08199 -0.19158
 N70 N 0.33259 0.11126 -0.09548
 N71 N 0.34210 0.13208 -0.08644
 C72 C 0.32854 0.13922 -0.06771
 C73 C 0.30980 0.12189 -0.06464
 C74 C 0.31296 0.10439 -0.08248
 H75 H 0.33216 0.15561 -0.05685
 H76 H 0.30149 0.08811 -0.08596
 H77 H 0.37649 0.11235 -0.10993
 H78 H 0.35713 0.13112 -0.12961
 N79 N 0.09844 0.83981 0.38362
 N80 N 0.08301 0.85459 0.37409
 C81 C 0.06148 0.84245 0.37183
 C82 C 0.06351 0.81846 0.38008
 C83 C 0.08741 0.81756 0.38733
 H84 H 0.04584 0.85036 0.36392
 H85 H 0.09618 0.80217 0.39523
 Cu86 Cu 0.09291 0.88763 0.36368
 Cu87 Cu 0.13157 0.85066 0.39088
 Cu88 Cu 0.14515 0.91305 0.38377
 N89 N 0.10819 0.91628 0.34797
 N90 N 0.12899 0.92592 0.35556
 C91 C 0.13586 0.94487 0.34117
 C92 C 0.11835 0.94729 0.32362
 C93 C 0.10098 0.92890 0.32856
 H94 H 0.15234 0.95606 0.34337
 H95 H 0.08465 0.92459 0.31842
 N96 N 0.16458 0.89190 0.40380
 N97 N 0.16003 0.86791 0.40577
 C98 C 0.17608 0.85870 0.42118
 C99 C 0.19135 0.87789 0.42938
 C100 C 0.18352 0.89865 0.41786
 H101 H 0.17582 0.83970 0.42701
 H102 H 0.19081 0.91739 0.41980
 H103 H 0.12080 0.88540 0.39759
 H104 H 0.13577 0.88065 0.36776
 N105 N 0.09150 0.16288 0.11047
 N106 N 0.08320 0.15472 0.13134
 C107 C 0.06456 0.16816 0.13808
 C108 C 0.06083 0.18543 0.12033
 C109 C 0.07819 0.18150 0.10301
 H110 H 0.05426 0.16547 0.15450
 H111 H 0.08125 0.19184 0.08654
 Cu112 Cu 0.09719 0.12702 0.14748
 Cu113 Cu 0.11967 0.14959 0.09519
 Cu114 Cu 0.14489 0.10000 0.12339
 N115 N 0.11090 0.09854 0.16249
 N116 N 0.12995 0.08848 0.15336
 C117 C 0.13616 0.06977 0.16763
 C118 C 0.11996 0.06781 0.18656
 C119 C 0.10412 0.08630 0.18268
 H120 H 0.15114 0.05821 0.16430
 H121 H 0.08906 0.09073 0.19400
 N122 N 0.15742 0.11431 0.09297
 N123 N 0.14823 0.13362 0.08259
 C124 C 0.16139 0.13972 0.06288
 C125 C 0.17950 0.12328 0.06059
 C126 C 0.17640 0.10738 0.07990
 H127 H 0.15799 0.15487 0.05092
 H128 H 0.18756 0.09226 0.08436
 H129 H 0.11426 0.11444 0.10899
 H130 H 0.13497 0.13618 0.12628
 N131 N 0.40434 0.83251 0.61144
 N132 N 0.41259 0.84126 0.63225
 C133 C 0.43150 0.82830 0.63910
 C134 C 0.43544 0.81067 0.62153
 C135 C 0.41791 0.81394 0.60420
 H136 H 0.44181 0.83156 0.65550
 H137 H 0.41491 0.80322 0.58782
 Cu138 Cu 0.39794 0.86887 0.64818
 Cu139 Cu 0.37602 0.84511 0.59580
 Cu140 Cu 0.34881 0.89340 0.62467
 N141 N 0.38295 0.89650 0.66377
 N142 N 0.36321 0.90537 0.65490
 C143 C 0.35626 0.92387 0.66922
 C144 C 0.37268 0.92697 0.68792
 C145 C 0.38943 0.90934 0.68388
 H146 H 0.34081 0.93475 0.66590
 H147 H 0.40504 0.90607 0.69488
 N148 N 0.33697 0.87886 0.59391
 N149 N 0.34717 0.86037 0.58296
 C150 C 0.33491 0.85472 0.56244
 C151 C 0.31625 0.87058 0.56028
 C152 C 0.31814 0.88560 0.58056
 H153 H 0.33946 0.84045 0.54975
 H154 H 0.30651 0.90028 0.58531
 H155 H 0.37998 0.88044 0.60985
 H156 H 0.36042 0.85780 0.62705
 N157 N 0.90162 0.66129 0.38552
 N158 N 0.91696 0.64651 0.37565
 C159 C 0.93841 0.65874 0.37319
 C160 C 0.93629 0.68259 0.38167
 C161 C 0.91265 0.68360 0.38926
 H162 H 0.95415 0.65113 0.36510
 H163 H 0.90418 0.69926 0.39718
 Cu164 Cu 0.90699 0.61344 0.36498
 Cu165 Cu 0.86860 0.65038 0.39296
 Cu166 Cu 0.85503 0.58796 0.38523
 N167 N 0.89166 0.58465 0.34919
 N168 N 0.87093 0.57502 0.35682
 C169 C 0.86399 0.55596 0.34235
 C170 C 0.88139 0.55345 0.32474
 C171 C 0.89875 0.57191 0.32969
 H172 H 0.84756 0.54473 0.34457
 H173 H 0.91501 0.57617 0.31952
 N174 N 0.83581 0.60909 0.40565
 N175 N 0.84034 0.63308 0.40790
 C176 C 0.82445 0.64224 0.42356
 C177 C 0.80931 0.62302 0.43164
 C178 C 0.81704 0.60229 0.41979
 H179 H 0.82474 0.66124 0.42963
 H180 H 0.80979 0.58355 0.42154
 H181 H 0.87952 0.61562 0.39919
 H182 H 0.86419 0.62034 0.36955
 N183 N 0.59860 0.33937 -0.11437
 N184 N 0.58854 0.34997 -0.13290
 C185 C 0.56854 0.33658 -0.13938
 C186 C 0.56576 0.31678 -0.12383
 C187 C 0.58511 0.31916 -0.10813
 H188 H 0.55664 0.34104 -0.15405
 H189 H 0.58928 0.30684 -0.09355
 Cu190 Cu 0.60216 0.38055 -0.14646
 Cu191 Cu 0.62879 0.35205 -0.10023
 Cu192 Cu 0.65495 0.40506 -0.12548
 N193 N 0.61740 0.41011 -0.16055
 N194 N 0.63850 0.41896 -0.15295
 C195 C 0.64547 0.43849 -0.16659
 C196 C 0.62761 0.44227 -0.18340
 C197 C 0.61002 0.42401 -0.17902
 H198 H 0.66212 0.44935 -0.16428
 H199 H 0.59340 0.42080 -0.18897
 N200 N 0.66885 0.38834 -0.09757
 N201 N 0.65930 0.36769 -0.08845
 C202 C 0.67324 0.36048 -0.07008
 C203 C 0.69222 0.37762 -0.06729
 C204 C 0.68884 0.39506 -0.08494
 H205 H 0.66960 0.34431 -0.05909
 H206 H 0.70029 0.41131 -0.08840
 H207 H 0.62489 0.38859 -0.10920
 H208 H 0.64134 0.36937 -0.13130
 C209 C -0.01019 0.25912 0.12012
 C210 C -0.02109 0.26546 0.09826
 C211 C -0.03854 0.28332 0.09837
 C212 C -0.04470 0.29542 0.12008
 C213 C -0.03325 0.28882 0.14181
 C214 C -0.01627 0.27053 0.14196
 C215 C 0.00799 0.24018 0.12014
 C216 C 0.01841 0.23337 0.14213
 C217 C 0.03549 0.21517 0.14210
 C218 C 0.04258 0.20431 0.12021
 C219 C 0.03221 0.21156 0.09827
 C220 C 0.01463 0.22929 0.09818
 C221 C -0.00530 0.26338 0.16358
 C222 C 0.01164 0.24500 0.16369
 C223 C -0.01418 0.25395 0.07666
 C224 C 0.00349 0.23629 0.07660
 H225 H -0.00990 0.27199 0.18059
 H226 H 0.01960 0.23996 0.18076
 H227 H -0.02239 0.25873 0.05964
 H228 H 0.00839 0.22797 0.05954
 H229 H -0.04671 0.28814 0.08135
 H230 H -0.03782 0.29738 0.15883
 H231 H 0.04362 0.20982 0.15900
 H232 H 0.03748 0.20307 0.08141
 C233 C 0.50803 0.73845 0.62143
 C234 C 0.51722 0.73022 0.59931
 C235 C 0.53515 0.71286 0.59942
 C236 C 0.54352 0.70346 0.62142
 C237 C 0.53390 0.71172 0.64343
 C238 C 0.51630 0.72941 0.64354
 C239 C 0.48942 0.75694 0.62145
 C240 C 0.48061 0.76558 0.64358
 C241 C 0.46310 0.78335 0.64350
 C242 C 0.45410 0.79213 0.62148
 C243 C 0.46296 0.78309 0.59945
 C244 C 0.48081 0.76565 0.59933
 C245 C 0.50691 0.73834 0.66532
 C246 C 0.48944 0.75619 0.66534
 C247 C 0.50827 0.73948 0.57755
 C248 C 0.49029 0.75681 0.57755
 H249 H 0.51318 0.73154 0.68250
 H250 H 0.48274 0.76266 0.68254
 H251 H 0.51517 0.73322 0.56036
 H252 H 0.48384 0.76342 0.56037
 H253 H 0.54230 0.70642 0.58241
 H254 H 0.54044 0.70478 0.66045
 H255 H 0.45618 0.79001 0.66053
 H256 H 0.45629 0.78993 0.58244
 C257 C 1.00954 0.76102 0.38145
 C258 C 1.00310 0.78527 0.37705
 C259 C 1.02109 0.80425 0.37639
 C260 C 1.04547 0.79929 0.38066
 C261 C 1.05141 0.77473 0.38544
 C262 C 1.03360 0.75555 0.38553
 C263 C 0.99073 0.74093 0.38172
 C264 C 0.99728 0.71655 0.38539
 C265 C 0.97937 0.69747 0.38519
 C266 C 0.95505 0.70276 0.38191
 C267 C 0.94875 0.72734 0.37862
 C268 C 0.96657 0.74649 0.37820
 C269 C 1.03943 0.73095 0.38943
 C270 C 1.02159 0.71177 0.38922
 C271 C 0.97874 0.79009 0.37344
 C272 C 0.96078 0.77105 0.37414
 H273 H 1.05795 0.72647 0.39253
 H274 H 1.02687 0.69304 0.39215
 H275 H 0.97351 0.80876 0.37010
 H276 H 0.94222 0.77558 0.37134
 H277 H 1.01583 0.82288 0.37306
 H278 H 1.06991 0.77020 0.38847
 H279 H 0.98429 0.67859 0.38795
 H280 H 0.93007 0.73148 0.37585
 C281 C 0.48994 0.24099 -0.12414
 C282 C 0.48039 0.23226 -0.14629
 C283 C 0.46208 0.21357 -0.14625
 C284 C 0.45296 0.20415 -0.12425
 C285 C 0.46252 0.21332 -0.10220
 C286 C 0.48126 0.23154 -0.10204
 C287 C 0.50939 0.26041 -0.12407
 C288 C 0.51939 0.26866 -0.10194
 C289 C 0.53809 0.28692 -0.10200
 C290 C 0.54631 0.29731 -0.12393
 C291 C 0.53588 0.28908 -0.14594
 C292 C 0.51760 0.27037 -0.14613
 C293 C 0.49155 0.24043 -0.08026
 C294 C 0.51040 0.25857 -0.08022
 C295 C 0.48925 0.24249 -0.16801
 C296 C 0.50743 0.26133 -0.16792
 H297 H 0.48506 0.23323 -0.06310
 H298 H 0.51792 0.26484 -0.06303
 H299 H 0.48198 0.23596 -0.18521
 H300 H 0.51367 0.26881 -0.18506
 H301 H 0.45461 0.20671 -0.16326
 H302 H 0.45570 0.20594 -0.08522
 H303 H 0.54592 0.29338 -0.08501
 H304 H 0.54232 0.29689 -0.16287
 C305 C 0.11898 -0.00128 0.26519
 C306 C 0.09689 -0.00961 0.27519
 C307 C 0.09676 -0.02663 0.29422
 C308 C 0.11854 -0.03485 0.30353
 C309 C 0.14053 -0.02609 0.29346
 C310 C 0.14085 -0.00949 0.27410
 C311 C 0.11922 0.01638 0.24498
 C312 C 0.14128 0.02426 0.23461
 C313 C 0.14138 0.04087 0.21525
 C314 C 0.11969 0.04997 0.20666
 C315 C 0.09776 0.04207 0.21743
 C316 C 0.09739 0.02504 0.23645
 C317 C 0.16257 -0.00103 0.26338
 C318 C 0.16277 0.01546 0.24388
 C319 C 0.07541 -0.00069 0.26601
 C320 C 0.07566 0.01645 0.24705
 H321 H 0.17955 -0.00729 0.27005
 H322 H 0.17990 0.02145 0.23607
 H323 H 0.05826 -0.00692 0.27361
 H324 H 0.05870 0.02294 0.24058
 H325 H 0.07979 -0.03315 0.30203
 H326 H 0.15735 -0.03256 0.30037
 H327 H 0.15834 0.04707 0.20720
 H328 H 0.08098 0.04883 0.21073
 C329 C 0.62728 0.51666 -0.25706
 C330 C 0.64855 0.52269 -0.26974
 C331 C 0.64827 0.54039 -0.28813
 C332 C 0.62705 0.55266 -0.29350
 C333 C 0.60598 0.54661 -0.28009
 C334 C 0.60592 0.52837 -0.26219
 C335 C 0.62737 0.49765 -0.23809
 C336 C 0.60588 0.49097 -0.22600
 C337 C 0.60598 0.47254 -0.20829
 C338 C 0.62752 0.46144 -0.20221
 C339 C 0.64899 0.46862 -0.21421
 C340 C 0.64894 0.48648 -0.23246
 C341 C 0.58483 0.52142 -0.24947
 C342 C 0.58477 0.50291 -0.23181
 C343 C 0.66974 0.51094 -0.26376
 C344 C 0.66997 0.49327 -0.24531
 H345 H 0.56818 0.53024 -0.25332
 H346 H 0.56808 0.49798 -0.22256
 H347 H 0.68631 0.51551 -0.27335
 H348 H 0.68670 0.48473 -0.24119
 H349 H 0.66483 0.54490 -0.29772
 H350 H 0.58935 0.55540 -0.28398
 H351 H 0.58946 0.46717 -0.19892
 H352 H 0.66555 0.45992 -0.20972
 C353 C 0.37225 1.00130 0.76258
 C354 C 0.39419 1.01181 0.77121
 C355 C 0.39395 1.03053 0.78883
 C356 C 0.37198 1.03830 0.79814
 C357 C 0.35016 1.02732 0.78952
 C358 C 0.35019 1.00900 0.77151
 C359 C 0.37238 0.98196 0.74371
 C360 C 0.35044 0.97200 0.73455
 C361 C 0.35066 0.95401 0.71624
 C362 C 0.37261 0.94565 0.70748
 C363 C 0.39446 0.95551 0.71716
 C364 C 0.39445 0.97393 0.73509
 C365 C 0.32860 0.99835 0.76212
 C366 C 0.32872 0.98026 0.74386
 C367 C 0.41591 1.00339 0.76206
 C368 C 0.41603 0.98467 0.74440
 H369 H 0.31146 1.00418 0.76883
 H370 H 0.31167 0.97266 0.73699
 H371 H 0.43295 1.01129 0.76863
 H372 H 0.43317 0.97869 0.73786
 H373 H 0.41080 1.03876 0.79556
 H374 H 0.33320 1.03341 0.79643
 H375 H 0.33379 0.94631 0.70901
 H376 H 0.41141 0.94933 0.71031
 C377 C 0.88036 0.48388 0.24572
 C378 C 0.85829 0.47603 0.23518
 C379 C 0.85816 0.45935 0.21569
 C380 C 0.87984 0.45017 0.20711
 C381 C 0.90178 0.45805 0.21804
 C382 C 0.90217 0.47513 0.23720
 C383 C 0.88062 0.50162 0.26606
 C384 C 0.90272 0.50994 0.27621
 C385 C 0.90289 0.52707 0.29532
 C386 C 0.88113 0.53543 0.30458
 C387 C 0.85912 0.52665 0.29440
 C388 C 0.85877 0.50994 0.27493
 C389 C 0.92391 0.48370 0.24798
 C390 C 0.92419 0.50091 0.26706
 C391 C 0.83682 0.48492 0.24444
 C392 C 0.83705 0.50149 0.26406
 H393 H 0.94086 0.47713 0.24153
 H394 H 0.94135 0.50713 0.27478
 H395 H 0.81968 0.47895 0.23651
 H396 H 0.82007 0.50783 0.27070
 H397 H 0.84120 0.45317 0.20750
 H398 H 0.91855 0.45124 0.21136
 H399 H 0.91987 0.53360 0.30324
 H400 H 0.84233 0.53321 0.30128
 C401 C 0.25395 0.12246 -0.01152
 C402 C 0.26244 0.09983 -0.01946
 C403 C 0.28054 0.09974 -0.03710
 C404 C 0.29051 0.12209 -0.04631
 C405 C 0.28199 0.14463 -0.03794
 C406 C 0.26349 0.14492 -0.02074
 C407 C 0.23475 0.12266 0.00685
 C408 C 0.22587 0.14527 0.01438
 C409 C 0.20748 0.14533 0.03171
 C410 C 0.19844 0.12305 0.04189
 C411 C 0.20769 0.10057 0.03430
 C412 C 0.22568 0.10025 0.01656
 C413 C 0.25427 0.16717 -0.01261
 C414 C 0.23569 0.16734 0.00454
 C415 C 0.25273 0.07777 -0.00951
 C416 C 0.23476 0.07798 0.00830
 H417 H 0.26143 0.18461 -0.01964
 H418 H 0.22904 0.18490 0.01026
 H419 H 0.25917 0.06019 -0.01545
 H420 H 0.22787 0.06056 0.01560
 H421 H 0.28720 0.08235 -0.04331
 H422 H 0.28944 0.16188 -0.04515
 H423 H 0.20059 0.16271 0.03767
 H424 H 0.20063 0.08336 0.04192
 C425 C 0.73729 0.62669 0.50618
 C426 C 0.73167 0.60545 0.51982
 C427 C 0.71458 0.60650 0.53836
 C428 C 0.70294 0.62851 0.54314
 C429 C 0.70862 0.64959 0.52912
 C430 C 0.72594 0.64883 0.51071
 C431 C 0.75549 0.62574 0.48685
 C432 C 0.76150 0.64708 0.47349
 C433 C 0.77911 0.64614 0.45537
 C434 C 0.79043 0.62397 0.45044
 C435 C 0.78397 0.60270 0.46389
 C436 C 0.76663 0.60352 0.48221
 C437 C 0.73227 0.66976 0.49682
 C438 C 0.74979 0.66892 0.47858
 C439 C 0.74323 0.58356 0.51464
 C440 C 0.76037 0.58259 0.49611
 H441 H 0.72368 0.68697 0.50014
 H442 H 0.75422 0.68551 0.46839
 H443 H 0.73899 0.56704 0.52501
 H444 H 0.76887 0.56535 0.49270
 H445 H 0.71013 0.59009 0.54880
 H446 H 0.69990 0.66666 0.53279
 H447 H 0.78382 0.66255 0.44501
 H448 H 0.79276 0.58562 0.46051
 C449 C 0.76723 0.37768 0.00444
 C450 C 0.77543 0.40011 0.01506
 C451 C 0.79329 0.39997 0.03299
 C452 C 0.80332 0.37771 0.03981
 C453 C 0.79520 0.35543 0.02870
 C454 C 0.77688 0.35527 0.01122
 C455 C 0.74810 0.37766 -0.01407
 C456 C 0.73932 0.35515 -0.02412
 C457 C 0.72080 0.35522 -0.04138
 C458 C 0.71159 0.37762 -0.04902
 C459 C 0.72085 0.40003 -0.03905
 C460 C 0.73889 0.40014 -0.02129
 C461 C 0.76786 0.33315 0.00052
 C462 C 0.74928 0.33308 -0.01673
 C463 C 0.76564 0.42220 0.00751
 C464 C 0.74779 0.42223 -0.01048
 H465 H 0.77510 0.31574 0.00565
 H466 H 0.74273 0.31561 -0.02441
 H467 H 0.77188 0.43963 0.01551
 H468 H 0.74078 0.43969 -0.01585
 H469 H 0.79966 0.41719 0.04135
 H470 H 0.80275 0.33823 0.03408
 H471 H 0.71385 0.33794 -0.04918
 H472 H 0.71362 0.41730 -0.04472
 C473 C 0.24564 0.87486 0.48426
 C474 C 0.23467 0.89718 0.47986
 C475 C 0.21721 0.89812 0.46163
 C476 C 0.21043 0.87686 0.44803
 C477 C 0.22161 0.85459 0.45270
 C478 C 0.23934 0.85353 0.47073
 C479 C 0.26393 0.87376 0.50353
 C480 C 0.27505 0.85150 0.50786
 C481 C 0.29240 0.85057 0.52628
 C482 C 0.29835 0.87163 0.54050
 C483 C 0.28697 0.89378 0.53588
 C484 C 0.26984 0.89499 0.51735
 C485 C 0.25084 0.83157 0.47560
 C486 C 0.26844 0.83059 0.49380
 C487 C 0.24123 0.91808 0.49393
 C488 C 0.25848 0.91699 0.51240
 H489 H 0.24619 0.81498 0.46527
 H490 H 0.27685 0.81328 0.49696
 H491 H 0.23287 0.93541 0.49072
 H492 H 0.26293 0.93350 0.52291
 H493 H 0.20854 0.91527 0.45845
 H494 H 0.21667 0.83819 0.44222
 H495 H 0.30089 0.83339 0.52982
 H496 H 0.29162 0.91018 0.54648
   
