data_POSCAR
  _audit_creation_date              2014-09-24
  _audit_creation_method            'ToBaCCo'
  _symmetry_space_group_name_H-M    'P1'
  _symmetry_Int_Tables_number       1
  _symmetry_cell_setting            triclinic
  loop_
  _symmetry_equiv_pos_as_xyz
 x,y,z
_cell_length_a 36.8210
_cell_length_b 35.5893
_cell_length_c 35.9117
_cell_angle_alpha 90.855800
_cell_angle_beta 92.901100
_cell_angle_gamma 91.739500
loop_
  _atom_site_label
  _atom_site_type_symbol
  _atom_site_fract_x
  _atom_site_fract_y
  _atom_site_fract_z
C1 C 0.72547 0.63701 1.03993
 C2 C 0.74299 0.65673 1.01220
 C3 C 0.77817 0.67195 1.01980
 C4 C 0.79679 0.66650 1.05425
 C5 C 0.77854 0.64665 1.08207
 C6 C 0.74293 0.63124 1.07500
 C7 C 0.72636 0.65741 0.97387
 C8 C 0.68948 0.66555 0.96709
 C9 C 0.67356 0.66287 0.93062
 C10 C 0.69463 0.65097 0.90140
 C11 C 0.73129 0.64257 0.90802
 C12 C 0.74712 0.64669 0.94404
 H13 H 0.69858 0.62461 1.03345
 H14 H 0.79156 0.68707 0.99808
 H15 H 0.67339 0.67326 0.99025
 H16 H 0.77527 0.63932 0.94923
 H17 H 0.79133 0.64453 1.10947
 H18 H 0.68249 0.64858 0.87330
 C19 C 0.74409 0.37131 0.44259
 C20 C 0.76397 0.35817 0.47375
 C21 C 0.80002 0.34735 0.47025
 C22 C 0.81630 0.34966 0.43591
 C23 C 0.79670 0.36511 0.40536
 C24 C 0.76063 0.37591 0.40867
 C25 C 0.74830 0.35932 0.51070
 C26 C 0.71389 0.34289 0.51645
 C27 C 0.69925 0.34496 0.55171
 C28 C 0.71838 0.36572 0.58051
 C29 C 0.75239 0.38292 0.57470
 C30 C 0.76749 0.37875 0.54004
 H31 H 0.71644 0.38021 0.44537
 H32 H 0.81529 0.33682 0.49430
 H33 H 0.69903 0.32773 0.49382
 H34 H 0.79377 0.39196 0.53539
 H35 H 0.80930 0.36894 0.37904
 H36 H 0.70682 0.36838 0.60746
 C37 C 0.23361 -0.12040 -0.06637
 C38 C 0.25137 -0.13714 -0.03571
 C39 C 0.28631 -0.15119 -0.03924
 C40 C 0.30387 -0.14851 -0.07308
 C41 C 0.28515 -0.13208 -0.10375
 C42 C 0.25064 -0.11733 -0.10038
 C43 C 0.23444 -0.13747 0.00079
 C44 C 0.19987 -0.15428 0.00461
 C45 C 0.18289 -0.15258 0.03883
 C46 C 0.20181 -0.13414 0.06961
 C47 C 0.23656 -0.11720 0.06612
 C48 C 0.25255 -0.11934 0.03156
 H49 H 0.20672 -0.10953 -0.06349
 H50 H 0.29998 -0.16375 -0.01526
 H51 H 0.18605 -0.16827 -0.01937
 H52 H 0.27910 -0.10615 0.02827
 H53 H 0.29671 -0.13076 -0.13078
 H54 H 0.19038 -0.13459 0.09659
 C55 C 0.24406 0.13799 0.55722
 C56 C 0.26417 0.15268 0.52820
 C57 C 0.30092 0.16401 0.53549
 C58 C 0.31744 0.16047 0.57140
 C59 C 0.29690 0.14555 0.59975
 C60 C 0.26046 0.13390 0.59319
 C61 C 0.24799 0.15163 0.48943
 C62 C 0.21302 0.16526 0.48084
 C63 C 0.19717 0.16132 0.44435
 C64 C 0.21639 0.14294 0.41694
 C65 C 0.25086 0.12844 0.42532
 C66 C 0.26667 0.13374 0.46139
 H67 H 0.21641 0.12814 0.55075
 H68 H 0.31670 0.17422 0.51290
 H69 H 0.19822 0.17817 0.50268
 H70 H 0.29310 0.12229 0.46820
 H71 H 0.30979 0.14220 0.62729
 H72 H 0.20430 0.14037 0.38890
 C73 C 0.13778 0.55414 0.22902
 C74 C 0.15336 0.52487 0.24966
 C75 C 0.17039 0.53260 0.28492
 C76 C 0.17291 0.56958 0.29892
 C77 C 0.15763 0.59852 0.27796
 C78 C 0.13894 0.59133 0.24346
 C79 C 0.15154 0.48610 0.23424
 C80 C 0.16444 0.47869 0.19880
 C81 C 0.16299 0.44204 0.18396
 C82 C 0.14639 0.41317 0.20409
 C83 C 0.13337 0.41993 0.23943
 C84 C 0.13669 0.45656 0.25478
 H85 H 0.12448 0.54701 0.20226
 H86 H 0.18257 0.51010 0.30070
 H87 H 0.17644 0.50134 0.18322
 H88 H 0.12759 0.46255 0.28235
 H89 H 0.15934 0.62694 0.28946
 H90 H 0.14269 0.38517 0.19204
 C91 C -0.10518 -0.05187 0.24042
 C92 C -0.12386 -0.02543 0.26057
 C93 C -0.13863 -0.03547 0.29452
 C94 C -0.13515 -0.07239 0.30812
 C95 C -0.11542 -0.09823 0.28753
 C96 C -0.10019 -0.08810 0.25388
 C97 C -0.12543 0.01336 0.24669
 C98 C -0.14274 0.02077 0.21198
 C99 C -0.14051 0.05684 0.19639
 C100 C -0.12020 0.08558 0.21668
 C101 C -0.10254 0.07819 0.25146
 C102 C -0.10591 0.04216 0.26634
 H103 H -0.09362 -0.04376 0.21442
 H104 H -0.15277 -0.01433 0.30951
 H105 H -0.15749 -0.00199 0.19686
 H106 H -0.09212 0.03604 0.29287
 H107 H -0.11299 -0.12675 0.29721
 H108 H -0.11925 0.11400 0.20670
 C109 C 0.38546 0.43055 0.74804
 C110 C 0.36617 0.46001 0.76299
 C111 C 0.34899 0.45526 0.79654
 C112 C 0.35169 0.42164 0.81620
 C113 C 0.37155 0.39221 0.80103
 C114 C 0.38868 0.39651 0.76722
 C115 C 0.36616 0.49703 0.74531
 C116 C 0.34909 0.50191 0.71000
 C117 C 0.34843 0.53769 0.69414
 C118 C 0.36514 0.56854 0.71408
 C119 C 0.38292 0.56368 0.74913
 C120 C 0.38280 0.52790 0.76470
 H121 H 0.39794 0.43453 0.72168
 H122 H 0.33416 0.47839 0.80774
 H123 H 0.33584 0.47805 0.69525
 H124 H 0.39592 0.52391 0.79202
 H125 H 0.37318 0.36537 0.81464
 H126 H 0.36284 0.59654 0.70311
 C127 C 0.64188 1.03687 0.73743
 C128 C 0.65840 1.00829 0.75783
 C129 C 0.67084 1.01556 0.79502
 C130 C 0.66581 1.05067 0.81246
 C131 C 0.64814 1.07879 0.79136
 C132 C 0.63602 1.07183 0.75402
 C133 C 0.65776 0.96961 0.74174
 C134 C 0.66793 0.96254 0.70499
 C135 C 0.66213 0.92649 0.68845
 C136 C 0.64489 0.89817 0.70868
 C137 C 0.63478 0.90498 0.74524
 C138 C 0.64224 0.94030 0.76188
 H139 H 0.63164 1.03122 0.70899
 H140 H 0.68360 0.99327 0.81069
 H141 H 0.67929 0.98535 0.68924
 H142 H 0.63349 0.94574 0.78978
 H143 H 0.64497 1.10663 0.80283
 H144 H 0.63965 0.87056 0.69606
 C145 C -0.07084 0.24625 -0.12320
 C146 C -0.04155 0.26575 -0.13804
 C147 C -0.04540 0.30322 -0.14874
 C148 C -0.07799 0.32190 -0.14398
 C149 C -0.10691 0.30205 -0.12771
 C150 C -0.10324 0.26441 -0.11721
 C151 C -0.00576 0.24833 -0.13878
 C152 C -0.00185 0.21273 -0.15539
 C153 C 0.03214 0.19563 -0.15402
 C154 C 0.06227 0.21553 -0.13634
 C155 C 0.05843 0.25069 -0.11916
 C156 C 0.02446 0.26707 -0.12096
 H157 H -0.06776 0.21743 -0.11447
 H158 H -0.02254 0.31792 -0.16052
 H159 H -0.02535 0.19837 -0.16913
 H160 H 0.02131 0.29425 -0.10765
 H161 H -0.13284 0.31464 -0.12425
 H162 H 0.08943 0.20527 -0.13790
 C163 C 0.54529 0.22324 0.14003
 C164 C 0.51609 0.24229 0.15410
 C165 C 0.52191 0.27899 0.16870
 C166 C 0.55642 0.29688 0.16859
 C167 C 0.58544 0.27734 0.15405
 C168 C 0.57984 0.24071 0.13908
 C169 C 0.47887 0.22556 0.14866
 C170 C 0.47084 0.18815 0.15874
 C171 C 0.43631 0.17160 0.14931
 C172 C 0.41058 0.19228 0.12898
 C173 C 0.41817 0.22949 0.11917
 C174 C 0.45201 0.24622 0.12975
 H175 H 0.54058 0.19536 0.12779
 H176 H 0.49930 0.29397 0.17930
 H177 H 0.49149 0.17209 0.17329
 H178 H 0.45806 0.27487 0.12165
 H179 H 0.61241 0.29035 0.15514
 H180 H 0.38383 0.17976 0.12207
 C181 C 1.05334 0.73285 0.62730
 C182 C 1.02248 0.75023 0.63989
 C183 C 1.02608 0.78556 0.65764
 C184 C 1.05993 0.80473 0.66145
 C185 C 1.09085 0.78683 0.64867
 C186 C 1.08773 0.75129 0.63111
 C187 C 0.98583 0.73374 0.63073
 C188 C 0.97560 0.69786 0.64299
 C189 C 0.94046 0.68286 0.63374
 C190 C 0.91619 0.70363 0.61144
 C191 C 0.92589 0.73990 0.59975
 C192 C 0.96090 0.75450 0.60929
 H193 H 1.05014 0.70540 0.61394
 H194 H 1.00191 0.79890 0.66684
 H195 H 0.99491 0.68193 0.65956
 H196 H 0.96889 0.78225 0.59996
 H197 H 1.11765 0.80009 0.65229
 H198 H 0.88957 0.69140 0.60361
 C199 C 0.44514 0.72981 0.38254
 C200 C 0.47165 0.74883 0.36276
 C201 C 0.46335 0.78278 0.34547
 C202 C 0.42878 0.79783 0.34771
 C203 C 0.40225 0.77835 0.36757
 C204 C 0.41049 0.74464 0.38575
 C205 C 0.50890 0.73470 0.36243
 C206 C 0.51573 0.69967 0.34623
 C207 C 0.55133 0.68647 0.34629
 C208 C 0.58012 0.70886 0.36315
 C209 C 0.57336 0.74378 0.38004
 C210 C 0.53772 0.75656 0.37895
 H211 H 0.45193 0.70387 0.39634
 H212 H 0.48401 0.79759 0.33039
 H213 H 0.49338 0.68292 0.33318
 H214 H 0.53217 0.78350 0.39161
 H215 H 0.37502 0.78880 0.36777
 H216 H 0.60778 0.69983 0.36168
 C217 C 0.38098 -0.06946 0.26431
 H218 H 0.38538 -0.06522 0.23509
 C219 C 0.39412 -0.10142 0.28204
 H220 H 0.40849 -0.12146 0.26587
 C221 C 0.35404 -0.04967 0.31953
 H222 H 0.33736 -0.03022 0.33378
 C223 C 0.36670 -0.08107 0.33831
 H224 H 0.36005 -0.08505 0.36706
 N225 N 0.36104 -0.04461 0.28310
 C226 C 0.35459 0.05753 0.21860
 H227 H 0.32521 0.05840 0.21661
 C228 C 0.37531 0.08629 0.20365
 H229 H 0.36148 0.10943 0.19053
 C230 C 0.40782 0.02712 0.24032
 H231 H 0.42015 0.00421 0.25524
 C232 C 0.42981 0.05584 0.22599
 H233 H 0.45914 0.05484 0.22966
 Zn234 Zn 0.33762 -0.00606 0.25638
 N235 N 0.37091 0.02849 0.23608
 C236 C 0.33056 0.04412 0.31475
 N237 N 0.31040 0.02260 0.28933
 C238 C 0.27345 0.02317 0.28757
 C239 C 0.25544 0.04522 0.31296
 C240 C 0.31377 0.06679 0.34035
 C241 C 0.31480 -0.02289 0.18122
 C242 C 0.29457 -0.04156 0.15226
 C243 C 0.26003 -0.07394 0.19804
 C244 C 0.28109 -0.05475 0.22620
 N245 N 0.30771 -0.02955 0.21740
 H246 H 0.35994 0.04366 0.31504
 H247 H 0.25788 0.00659 0.26661
 H248 H 0.22598 0.04504 0.31145
 H249 H 0.33097 0.08380 0.35958
 H250 H 0.33656 -0.00351 0.17461
 H251 H 0.30039 -0.03507 0.12380
 H252 H 0.23893 -0.09390 0.20551
 H253 H 0.27646 -0.06021 0.25516
 C254 C 0.41347 0.08555 0.20686
 C255 C 0.38663 -0.10772 0.31956
 C256 C 0.26701 -0.06788 0.16051
 C257 C 0.27554 0.06717 0.34011
 C258 C 0.06720 1.05242 0.77166
 H259 H 0.04963 1.03017 0.75938
 C260 C 0.05259 1.08161 0.79255
 H261 H 0.02365 1.08180 0.79648
 C262 C 0.12663 1.07930 0.78264
 H263 H 0.15554 1.07804 0.77893
 C264 C 0.11353 1.10798 0.80407
 H265 H 0.13248 1.12900 0.81659
 N266 N 0.10380 1.05173 0.76782
 C267 C 0.11340 0.96866 0.68324
 H268 H 0.12895 0.98904 0.66826
 C269 C 0.10586 0.93353 0.66675
 H270 H 0.11484 0.92785 0.63900
 C271 C 0.08664 0.94940 0.73881
 H272 H 0.08143 0.95507 0.76770
 C273 C 0.07816 0.91373 0.72308
 H274 H 0.06583 0.89232 0.73989
 Zn275 Zn 0.13138 1.01529 0.74459
 N276 N 0.10504 0.97553 0.71914
 C277 C 0.18502 0.96609 0.77323
 N278 N 0.16087 0.99245 0.78236
 C279 C 0.15383 0.99952 0.81860
 C280 C 0.17148 0.98011 0.84723
 C281 C 0.20333 0.94582 0.80115
 C282 C 0.13767 1.06234 0.68517
 C283 C 0.15374 1.08231 0.65695
 C284 C 0.21238 1.06152 0.68026
 C285 C 0.19509 1.04177 0.70811
 N286 N 0.15831 1.04217 0.70966
 H287 H 0.18939 0.96011 0.74420
 H288 H 0.13345 1.01921 0.82559
 H289 H 0.16504 0.98601 0.87580
 H290 H 0.22238 0.92519 0.79286
 H291 H 0.10846 1.06223 0.68722
 H292 H 0.13676 1.09769 0.63735
 H293 H 0.24152 1.05965 0.67872
 H294 H 0.21095 1.02573 0.72801
 C295 C 0.08924 0.90524 0.68708
 C296 C 0.07632 1.10928 0.80952
 C297 C 0.19149 1.08217 0.65420
 C298 C 0.19621 0.95249 0.83887
 C299 C 0.63413 0.54051 0.31168
 H300 H 0.65335 0.52232 0.32528
 C301 C 0.61996 0.56968 0.33233
 H302 H 0.62888 0.57364 0.36138
 C303 C 0.59953 0.55791 0.25779
 H304 H 0.59142 0.55323 0.22878
 C305 C 0.58460 0.58754 0.27745
 H306 H 0.56601 0.60566 0.26263
 N307 N 0.62520 0.53618 0.27457
 C308 C 0.63309 0.45513 0.18473
 H309 H 0.65407 0.47104 0.17137
 C310 C 0.61901 0.42186 0.16791
 H311 H 0.62885 0.41313 0.14131
 C312 C 0.59732 0.44549 0.23693
 H313 H 0.59034 0.45404 0.26464
 C314 C 0.58268 0.41169 0.22117
 H315 H 0.56406 0.39518 0.23707
 Zn316 Zn 0.65296 0.50275 0.24547
 N317 N 0.62295 0.46574 0.21911
 C318 C 0.68274 0.43879 0.28010
 N319 N 0.68636 0.47687 0.27771
 C320 C 0.71279 0.49642 0.29847
 C321 C 0.73598 0.47780 0.32355
 C322 C 0.70486 0.41923 0.30526
 C323 C 0.66043 0.55242 0.18527
 C324 C 0.67857 0.57467 0.15996
 C325 C 0.73556 0.55239 0.18578
 C326 C 0.71631 0.53063 0.21067
 N327 N 0.67935 0.53141 0.21048
 H328 H 0.66241 0.42335 0.26293
 H329 H 0.71540 0.52663 0.29601
 H330 H 0.75645 0.49376 0.34038
 H331 H 0.70120 0.38902 0.30706
 H332 H 0.63113 0.55184 0.18449
 H333 H 0.66263 0.59192 0.14122
 H334 H 0.76497 0.55151 0.18654
 H335 H 0.73110 0.51296 0.22986
 C336 C 0.59449 0.39886 0.18660
 C337 C 0.59572 0.59442 0.31508
 C338 C 0.71676 0.57474 0.15990
 C339 C 0.73141 0.43892 0.32782
 C340 C 0.85119 0.47381 0.82295
 H341 H 0.83025 0.49131 0.83291
 C342 C 0.86137 0.44266 0.84363
 H343 H 0.84801 0.43667 0.86916
 C344 C 0.89289 0.45927 0.77725
 H345 H 0.90499 0.46573 0.75123
 C346 C 0.90381 0.42763 0.79697
 H347 H 0.92354 0.40982 0.78494
 N348 N 0.86558 0.48044 0.78942
 C349 C 0.85821 0.56871 0.70685
 H350 H 0.82941 0.56454 0.70001
 C351 C 0.87800 0.59603 0.68861
 H352 H 0.86366 0.61308 0.66836
 C353 C 0.91043 0.55308 0.74406
 H354 H 0.92259 0.53666 0.76621
 C355 C 0.93142 0.58042 0.72643
 H356 H 0.95987 0.58485 0.73502
 Zn357 Zn 0.84193 0.51463 0.75663
 N358 N 0.87446 0.54801 0.73401
 C359 C 0.81762 0.57991 0.79186
 N360 N 0.80917 0.54316 0.78359
 C361 C 0.77828 0.52622 0.79541
 C362 C 0.75465 0.54628 0.81675
 C363 C 0.79497 0.60089 0.81355
 C364 C 0.83323 0.45966 0.69945
 C365 C 0.81497 0.43811 0.67129
 C366 C 0.76140 0.47407 0.67992
 C367 C 0.78071 0.49490 0.70803
 N368 N 0.81583 0.48697 0.71776
 H369 H 0.84238 0.59279 0.78237
 H370 H 0.77234 0.49686 0.78876
 H371 H 0.73047 0.53227 0.82650
 H372 H 0.80225 0.63003 0.82006
 H373 H 0.86129 0.45429 0.70666
 H374 H 0.82927 0.41572 0.65828
 H375 H 0.73341 0.48059 0.67267
 H376 H 0.76764 0.51770 0.72165
 C377 C 0.91524 0.60212 0.69813
 C378 C 0.88693 0.41824 0.83005
 C379 C 0.77855 0.44534 0.66110
 C380 C 0.76337 0.58377 0.82675
 C381 C 0.26043 0.37976 -0.06404
 H382 H 0.23118 0.38074 -0.06669
 C383 C 0.28092 0.39201 -0.09348
 H384 H 0.26699 0.40226 -0.11840
 C385 C 0.31391 0.36196 -0.03018
 H386 H 0.32673 0.34950 -0.00583
 C387 C 0.33531 0.37326 -0.05913
 H388 H 0.36441 0.36943 -0.05682
 N389 N 0.27703 0.36374 -0.03378
 C390 C 0.20773 0.33832 0.05745
 H391 H 0.20305 0.30910 0.04937
 C392 C 0.19405 0.35177 0.09013
 H393 H 0.17844 0.33288 0.10702
 C394 C 0.23575 0.39772 0.04613
 H395 H 0.25301 0.41490 0.02928
 C396 C 0.22192 0.41269 0.07872
 H397 H 0.22859 0.44156 0.08697
 Zn398 Zn 0.25011 0.33365 -0.00119
 N399 N 0.22900 0.36086 0.03685
 C400 C 0.29190 0.30540 0.05892
 N401 N 0.28292 0.29998 0.02196
 C402 C 0.30017 0.27430 0.00126
 C403 C 0.32723 0.25248 0.01791
 C404 C 0.31909 0.28474 0.07643
 C405 C 0.18256 0.32923 -0.03884
 C406 C 0.15168 0.31292 -0.05731
 C407 C 0.17959 0.25254 -0.05253
 C408 C 0.20993 0.27006 -0.03401
 N409 N 0.21113 0.30791 -0.02809
 H410 H 0.27901 0.32674 0.07480
 H411 H 0.29373 0.27157 -0.02839
 H412 H 0.34095 0.23225 0.00121
 H413 H 0.32577 0.28952 0.10587
 H414 H 0.18337 0.35898 -0.03218
 H415 H 0.12951 0.33093 -0.06478
 H416 H 0.17916 0.22237 -0.05710
 H417 H 0.23209 0.25320 -0.02397
 C418 C 0.20156 0.38905 0.10144
 C419 C 0.31873 0.38738 -0.09168
 C420 C 0.14999 0.27395 -0.06465
 C421 C 0.33742 0.25830 0.05571
 C422 C 0.76613 0.09833 1.06804
 H423 H 0.73860 0.08742 1.06318
 C424 C 0.78738 0.08547 1.09850
 H425 H 0.77529 0.06560 1.11711
 C426 C 0.81465 0.13813 1.05045
 H427 H 0.82556 0.15867 1.03198
 C428 C 0.83672 0.12622 1.08048
 H429 H 0.86408 0.13810 1.08470
 N430 N 0.77932 0.12575 1.04585
 C431 C 0.68685 0.13216 0.96610
 H432 H 0.67432 0.15393 0.98183
 C433 C 0.66947 0.11860 0.93298
 H434 H 0.64333 0.12956 0.92419
 C435 C 0.73754 0.09443 0.95651
 H436 H 0.76497 0.08682 0.96479
 C437 C 0.72106 0.08013 0.92290
 H438 H 0.73610 0.06124 0.90606
 Zn439 Zn 0.74730 0.15270 1.01241
 N440 N 0.72077 0.12095 0.97666
 C441 C 0.77666 0.18340 0.94773
 N442 N 0.77523 0.18815 0.98531
 C443 C 0.79416 0.21696 1.00355
 C444 C 0.81680 0.24117 0.98418
 C445 C 0.79929 0.20655 0.92745
 C446 C 0.69279 0.15891 1.06460
 C447 C 0.66804 0.17678 1.08652
 C448 C 0.68508 0.23569 1.05890
 C449 C 0.70976 0.21669 1.03771
 N450 N 0.71349 0.17893 1.04111
 H451 H 0.76088 0.16120 0.93327
 H452 H 0.79240 0.22051 1.03337
 H453 H 0.83246 0.26334 0.99918
 H454 H 0.80048 0.20184 0.89768
 H455 H 0.69513 0.12889 1.06625
 H456 H 0.65292 0.15989 1.10551
 H457 H 0.68240 0.26570 1.05560
 H458 H 0.72541 0.23219 1.01814
 C459 C 0.68697 0.09328 0.91015
 C460 C 0.82286 0.10055 1.10576
 C461 C 0.66363 0.21577 1.08358
 C462 C 0.82037 0.23526 0.94591
 C463 C 0.31105 0.62358 0.54910
 H464 H 0.32327 0.64511 0.53252
 C465 C 0.33196 0.60770 0.57775
 H466 H 0.36012 0.61703 0.58249
 C467 C 0.25919 0.58725 0.56473
 H468 H 0.23052 0.58024 0.55994
 C469 C 0.27916 0.57075 0.59407
 H470 H 0.26525 0.55126 0.61167
 N471 N 0.27526 0.61355 0.54336
 C472 C 0.20731 0.63027 0.44363
 H473 H 0.20350 0.65990 0.44872
 C474 C 0.19400 0.61365 0.41040
 H475 H 0.17886 0.63056 0.39059
 C476 C 0.23171 0.57269 0.46393
 H477 H 0.24723 0.55734 0.48470
 C478 C 0.21905 0.55481 0.43044
 H479 H 0.22449 0.52546 0.42558
 Zn480 Zn 0.24705 0.64070 0.50823
 N481 N 0.22605 0.60995 0.46939
 C482 C 0.30036 0.65615 0.46049
 N483 N 0.27828 0.67436 0.48349
 C484 C 0.27897 0.71255 0.48608
 C485 C 0.30362 0.73375 0.46572
 C486 C 0.32489 0.67605 0.43950
 C487 C 0.17458 0.65116 0.52547
 C488 C 0.14550 0.66672 0.54290
 C489 C 0.18790 0.70894 0.57726
 C490 C 0.21637 0.69249 0.55895
 N491 N 0.20920 0.66455 0.53310
 H492 H 0.29879 0.62579 0.45840
 H493 H 0.26062 0.72659 0.50384
 H494 H 0.30425 0.76413 0.46825
 H495 H 0.34113 0.66039 0.42082
 H496 H 0.16929 0.62791 0.50612
 H497 H 0.11819 0.65569 0.53604
 H498 H 0.19438 0.73169 0.59695
 H499 H 0.24418 0.70209 0.56532
 C500 C 0.20108 0.57584 0.40275
 C501 C 0.31603 0.58152 0.60118
 C502 C 0.15175 0.69599 0.56914
 C503 C 0.32740 0.71546 0.44247
 C504 C 0.78293 0.92159 0.45513
 H505 H 0.77584 0.93852 0.47877
 C506 C 0.79990 0.93848 0.42520
 H507 H 0.80586 0.96848 0.42605
 C508 C 0.78367 0.86204 0.42489
 H509 H 0.77703 0.83222 0.42487
 C510 C 0.80029 0.87767 0.39452
 H511 H 0.80526 0.85950 0.37104
 N512 N 0.77569 0.88385 0.45457
 C513 C 0.69846 0.88504 0.53726
 H514 H 0.68026 0.86778 0.51921
 C515 C 0.68524 0.90163 0.56917
 H516 H 0.65668 0.89785 0.57436
 C517 C 0.75779 0.90976 0.55297
 H518 H 0.78632 0.91163 0.54716
 C519 C 0.74567 0.92687 0.58527
 H520 H 0.76499 0.94230 0.60392
 Zn521 Zn 0.75356 0.85706 0.49318
 N522 N 0.73435 0.88858 0.53020
 C523 C 0.77817 0.80798 0.54839
 N524 N 0.78849 0.82709 0.51798
 C525 C 0.82298 0.82549 0.50631
 C526 C 0.84853 0.80350 0.52514
 C527 C 0.80283 0.78572 0.56808
 C528 C 0.69077 0.84231 0.44737
 C529 C 0.66371 0.82060 0.42778
 C530 C 0.68951 0.76493 0.45455
 C531 C 0.71620 0.78770 0.47348
 N532 N 0.71614 0.82570 0.46990
 H533 H 0.75064 0.81002 0.55727
 H534 H 0.83081 0.84115 0.48232
 H535 H 0.87541 0.80202 0.51454
 H536 H 0.79409 0.77060 0.59217
 H537 H 0.69195 0.87250 0.44423
 H538 H 0.64459 0.83470 0.40939
 H539 H 0.68992 0.73473 0.45782
 H540 H 0.73715 0.77484 0.49062
 C541 C 0.70930 0.92163 0.59449
 C542 C 0.80943 0.91633 0.39467
 C543 C 0.66258 0.78126 0.43159
 C544 C 0.83861 0.78345 0.55674
 C545 C -0.03870 0.28536 0.41584
 H546 H -0.01946 0.27731 0.43783
 C547 C -0.07263 0.29929 0.42452
 H548 H -0.07923 0.30160 0.45344
 C549 C -0.05410 0.29056 0.35126
 H550 H -0.04674 0.28687 0.32268
 C551 C -0.08791 0.30421 0.35855
 H552 H -0.10641 0.31102 0.33536
 N553 N -0.03028 0.28140 0.37957
 C554 C 0.05176 0.20353 0.39543
 H555 H 0.03483 0.18490 0.37752
 C556 C 0.08191 0.18916 0.41483
 H557 H 0.08673 0.15939 0.41247
 C558 C 0.06677 0.26481 0.41906
 H559 H 0.06146 0.29454 0.41939
 C560 C 0.09754 0.25157 0.43881
 H561 H 0.11550 0.27122 0.45468
 Zn562 Zn 0.01187 0.26089 0.36063
 N563 N 0.04527 0.24095 0.39694
 C564 C 0.06707 0.29210 0.31697
 N565 N 0.03681 0.29966 0.33557
 C566 C 0.02550 0.33552 0.33934
 C567 C 0.04412 0.36526 0.32321
 C568 C 0.08670 0.32116 0.30046
 C569 C -0.03073 0.19792 0.34391
 C570 C -0.05021 0.17038 0.32271
 C571 C -0.02024 0.19200 0.26835
 C572 C -0.00142 0.21959 0.29073
 N573 N -0.00690 0.22183 0.32787
 H574 H 0.07626 0.26355 0.31545
 H575 H 0.00237 0.34144 0.35549
 H576 H 0.03447 0.39352 0.32648
 H577 H 0.11104 0.31430 0.28656
 H578 H -0.03543 0.20111 0.37327
 H579 H -0.06998 0.15308 0.33638
 H580 H -0.01585 0.19060 0.23878
 H581 H 0.01678 0.23962 0.27827
 C582 C 0.10633 0.21359 0.43540
 C583 C -0.09774 0.30877 0.39539
 C584 C -0.04495 0.16684 0.28432
 C585 C 0.07493 0.35841 0.30317
 C586 C 1.05610 0.75758 0.07950
 H587 H 1.05357 0.72744 0.07519
 C588 C 1.08567 0.77769 0.06544
 H589 H 1.10538 0.76270 0.05009
 C590 C 1.03634 0.81271 0.10904
 H591 H 1.01848 0.82625 0.12757
 C592 C 1.06532 0.83369 0.09570
 H593 H 1.06875 0.86311 0.10369
 N594 N 1.03290 0.77506 0.10198
 C595 C 0.94268 0.70428 0.13906
 H596 H 0.95415 0.70356 0.16738
 C597 C 0.90875 0.68755 0.13048
 H598 H 0.89439 0.67376 0.15234
 C599 C 0.94758 0.72426 0.07680
 H600 H 0.96282 0.73910 0.05632
 C601 C 0.91310 0.70797 0.06692
 H602 H 0.90256 0.70973 0.03838
 Zn603 Zn 1.00416 0.74583 0.13420
 N604 N 0.96140 0.72216 0.11253
 C605 C 0.95882 0.79940 0.15715
 N606 N 0.98623 0.77810 0.17099
 C607 C 0.99678 0.77947 0.20786
 C608 C 0.98015 0.80420 0.23207
 C609 C 0.94144 0.82403 0.18017
 C610 C 1.02576 0.67155 0.14433
 C611 C 1.04755 0.64269 0.15715
 C612 C 1.08745 0.68908 0.18915
 C613 C 1.06473 0.71720 0.17569
 N614 N 1.03411 0.70794 0.15438
 H615 H 0.95035 0.79707 0.12790
 H616 H 1.01789 0.76151 0.21855
 H617 H 0.98888 0.80542 0.26133
 H618 H 0.91915 0.83974 0.16824
 H619 H 1.00242 0.66470 0.12582
 H620 H 1.04008 0.61390 0.14916
 H621 H 1.11188 0.69732 0.20559
 H622 H 1.07170 0.74645 0.18192
 C623 C 0.89311 0.68968 0.09432
 C624 C 1.09122 0.81604 0.07486
 C625 C 1.07849 0.65107 0.18036
 C626 C 0.95253 0.82733 0.21809
 C627 C 0.56012 0.27028 0.59044
 H628 H 0.53757 0.26222 0.57122
 C629 C 0.59250 0.28528 0.57697
 H630 H 0.59443 0.28855 0.54726
 C631 C 0.58522 0.27462 0.65251
 H632 H 0.58217 0.27023 0.68194
 C633 C 0.61783 0.28931 0.64039
 H634 H 0.63976 0.29636 0.66080
 N635 N 0.55716 0.26559 0.62771
 C636 C 0.46875 0.18896 0.61588
 H637 H 0.48348 0.16943 0.63317
 C638 C 0.43669 0.17676 0.59644
 H639 H 0.42790 0.14756 0.59817
 C640 C 0.46131 0.25091 0.59407
 H641 H 0.47045 0.28010 0.59447
 C642 C 0.42889 0.23989 0.57430
 H643 H 0.41333 0.26067 0.55927
 Zn644 Zn 0.51650 0.24429 0.65029
 N645 N 0.47986 0.22572 0.61524
 C646 C 0.50778 0.31774 0.67917
 N647 N 0.49485 0.28154 0.67927
 C648 C 0.46390 0.27208 0.69649
 C649 C 0.44435 0.29967 0.71415
 C650 C 0.48925 0.34612 0.69664
 C651 C 0.55361 0.17859 0.66219
 C652 C 0.57247 0.15134 0.68209
 C653 C 0.55308 0.17920 0.73920
 C654 C 0.53435 0.20589 0.71809
 N655 N 0.53517 0.20521 0.68027
 H656 H 0.53181 0.32498 0.66448
 H657 H 0.45372 0.24322 0.69532
 H658 H 0.41916 0.29131 0.72629
 H659 H 0.49969 0.37486 0.69567
 H660 H 0.55431 0.17911 0.63211
 H661 H 0.58640 0.13068 0.66634
 H662 H 0.55264 0.18050 0.76933
 H663 H 0.52022 0.22782 0.73199
 C664 C 0.41539 0.20280 0.57682
 C665 C 0.62188 0.29503 0.60231
 C666 C 0.57305 0.15177 0.72136
 C667 C 0.45694 0.33745 0.71417
 C668 C 0.43497 0.77205 0.89617
 H669 H 0.44119 0.74511 0.90795
 C670 C 0.40448 0.79087 0.90742
 H671 H 0.38708 0.77733 0.92689
 C672 C 0.44973 0.82145 0.85569
 H673 H 0.46712 0.83340 0.83542
 C674 C 0.41970 0.84126 0.86618
 H675 H 0.41429 0.86809 0.85350
 N676 N 0.45585 0.78666 0.86938
 C677 C 0.52785 0.69707 0.88187
 H678 H 0.51309 0.67979 0.86089
 C679 C 0.55660 0.68189 0.90268
 H680 H 0.56279 0.65268 0.89816
 C681 C 0.53876 0.75636 0.91197
 H682 H 0.53245 0.78577 0.91429
 C683 C 0.56818 0.74238 0.93310
 H684 H 0.58430 0.76111 0.95186
 Zn685 Zn 0.49096 0.75600 0.84779
 N686 N 0.52069 0.73414 0.88552
 C687 C 0.55773 0.78853 0.82579
 N688 N 0.52141 0.78502 0.81674
 C689 C 0.50676 0.80145 0.78567
 C690 C 0.52859 0.82350 0.76328
 C691 C 0.58039 0.81067 0.80450
 C692 C 0.44098 0.69500 0.83488
 C693 C 0.42296 0.66548 0.81495
 C694 C 0.45765 0.68114 0.76177
 C695 C 0.47511 0.71037 0.78278
 N696 N 0.46646 0.71690 0.81867
 H697 H 0.56943 0.77429 0.84958
 H698 H 0.47800 0.79761 0.77841
 H699 H 0.51644 0.83688 0.73899
 H700 H 0.60915 0.81315 0.81237
 H701 H 0.43482 0.70000 0.86349
 H702 H 0.40234 0.64908 0.82843
 H703 H 0.46496 0.67621 0.73330
 H704 H 0.49601 0.72730 0.77049
 C705 C 0.57867 0.70536 0.92680
 C706 C 0.39593 0.82553 0.89140
 C707 C 0.43158 0.65798 0.77797
 C708 C 0.56568 0.82905 0.77319
 C709 C 0.42089 -0.16680 0.32797
 C710 C 0.39637 -0.14260 0.33936
 H711 H 0.43695 -0.16008 0.30444
 H712 H 0.38298 -0.14811 0.36497
 C713 C 0.91954 0.35903 0.84306
 C714 C 0.89170 0.38164 0.84867
 H715 H 0.94188 0.36990 0.82752
 H716 H 0.87077 0.37342 0.86718
 C717 C 0.03594 1.16055 0.82785
 C718 C 0.06491 1.13924 0.83462
 H719 H 0.01525 1.15105 0.80698
 H720 H 0.08418 1.14627 0.85756
 C721 C 0.55801 0.65056 0.32645
 C722 C 0.58569 0.62848 0.33631
 H723 H 0.53909 0.64207 0.30364
 H724 H 0.60230 0.63571 0.36130
 C725 C 0.56163 0.33570 0.18421
 C726 C 0.58527 0.36073 0.17048
 H727 H 0.54481 0.34364 0.20665
 H728 H 0.59955 0.35261 0.14611
 C729 C 0.06135 0.84137 0.67700
 C730 C 0.08832 0.86652 0.67168
 H731 H 0.03809 0.85073 0.69160
 H732 H 0.10956 0.85999 0.65311
 C733 C 0.92721 0.64623 0.64738
 C734 C 0.93635 0.63311 0.68130
 H735 H 0.90588 0.63180 0.63034
 H736 H 0.95803 0.64694 0.69836
 C737 C 0.42473 0.13338 0.16029
 C738 C 0.43556 0.11697 0.19212
 H739 H 0.40214 0.12035 0.14379
 H740 H 0.45848 0.12844 0.20914
 C741 C 0.33361 0.41846 -0.15034
 C742 C 0.34057 0.39232 -0.12469
 H743 H 0.31367 0.43924 -0.14434
 H744 H 0.36350 0.37428 -0.12691
 C745 C 0.84891 0.91450 0.34067
 C746 C 0.82757 0.93405 0.36288
 H747 H 0.85416 0.88571 0.34807
 H748 H 0.82305 0.96352 0.35844
 C749 C 0.84061 0.06272 1.16170
 C750 C 0.84485 0.09341 1.14071
 H751 H 0.82217 0.04041 1.15090
 H752 H 0.86583 0.11436 1.14843
 C753 C 0.32802 0.54307 0.65811
 C754 C 0.33792 0.56994 0.63458
 H755 H 0.30460 0.52472 0.65135
 H756 H 0.36335 0.58547 0.64069
 C757 C 0.19112 0.58000 0.33520
 C758 C 0.18999 0.55902 0.36583
 H759 H 0.20273 0.60834 0.33762
 H760 H 0.17941 0.53029 0.36425
 C761 C 0.67915 0.05631 0.84993
 C762 C 0.67076 0.08548 0.87187
 H763 H 0.69644 0.03510 0.86196
 H764 H 0.65048 0.10483 0.86213
 C765 C 0.67189 0.91718 0.64978
 C766 C 0.69777 0.93536 0.63131
 H767 H 0.65895 0.89203 0.63720
 H768 H 0.71342 0.95837 0.64488
 C769 C 0.17824 0.43437 0.14723
 C770 C 0.19018 0.40037 0.13853
 H771 H 0.17933 0.45678 0.12719
 H772 H 0.19002 0.37840 0.15902
 C773 C -0.14613 0.33642 0.43295
 C774 C -0.13482 0.32207 0.40105
 H775 H -0.12819 0.33756 0.45777
 H776 H -0.15378 0.32015 0.37699
 C777 C 0.33897 0.83690 0.92467
 C778 C 0.36103 0.84414 0.89671
 H779 H 0.34888 0.81966 0.94736
 H780 H 0.35384 0.86496 0.87627
 C781 C 1.14826 0.82959 0.04158
 C782 C 1.12585 0.83701 0.06900
 H783 H 1.13874 0.80986 0.01969
 H784 H 1.13233 0.86024 0.08819
 C785 C 0.66382 0.32590 0.55817
 C786 C 0.65725 0.31109 0.59135
 H787 H 0.64345 0.32427 0.53540
 H788 H 0.67907 0.31179 0.61279
 C789 C 0.35650 0.16925 0.58074
 C790 C 0.37788 0.19275 0.56207
 H791 H 0.36755 0.15745 0.60639
 H792 H 0.36673 0.20789 0.53844
 C793 C 0.83285 0.68123 0.05923
 C794 C 0.85615 0.67240 0.08750
 H795 H 0.84233 0.70040 0.03845
 H796 H 0.84811 0.65213 0.10783
 C797 C 0.63502 0.67106 0.92142
 C798 C 0.61463 0.69335 0.94178
 H799 H 0.62407 0.66085 0.89445
 H800 H 0.62617 0.70694 0.96701
 C801 C 0.16006 0.17390 0.43338
 C802 C 0.14196 0.20057 0.45097
 H803 H 0.14802 0.16199 0.40753
 H804 H 0.15478 0.21557 0.47483
 C805 C 0.61743 0.10041 0.73106
 C806 C 0.59382 0.12454 0.74460
 H807 H 0.62219 0.09949 0.70167
 H808 H 0.58904 0.12415 0.77412
 C809 C 1.12131 0.62165 0.22614
 C810 C 1.10017 0.61933 0.19456
 H811 H 1.12353 0.64847 0.24082
 H812 H 1.09580 0.59287 0.17971
 C813 C 0.91934 0.88514 0.23071
 C814 C 0.93484 0.85377 0.24333
 H815 H 0.92199 0.89263 0.20185
 H816 H 0.93577 0.84774 0.27280
 C817 C 0.40883 0.36450 0.75242
 C818 C 0.43658 0.36890 0.72991
 H819 H 0.40141 0.33682 0.76204
 H820 H 0.44568 0.39707 0.72315
 C821 C 0.40026 0.59550 0.77108
 C822 C 0.41368 0.62671 0.75563
 H823 H 0.40382 0.59196 0.80091
 H824 H 0.41352 0.62871 0.72557
 C825 C -0.08130 0.10726 0.27406
 C826 C -0.06588 0.13847 0.26031
 H827 H -0.07668 0.10124 0.30331
 H828 H -0.06740 0.14294 0.23054
 C829 C 0.11689 0.38758 0.25886
 C830 C 0.09380 0.39095 0.28626
 H831 H 0.12222 0.35990 0.24800
 H832 H 0.08625 0.41869 0.29517
 C833 C 0.61531 0.87616 0.76643
 C834 C 0.58827 0.85427 0.75082
 H835 H 0.62063 0.87601 0.79638
 H836 H 0.58026 0.85753 0.72162
 C837 C 0.72391 0.60984 0.10104
 C838 C 0.73789 0.59801 0.13405
 H839 H 0.69624 0.60099 0.09283
 H840 H 0.76621 0.60333 0.14222
 C841 C 0.24219 1.11542 0.62439
 C842 C 0.20766 1.10234 0.62292
 H843 H 0.25845 1.11234 0.65007
 H844 H 0.18992 1.10708 0.59868
 C845 C 0.23326 0.90121 0.86695
 C846 C 0.21323 0.93174 0.87048
 H847 H 0.23915 0.89047 0.83969
 H848 H 0.20901 0.94246 0.89829
 C849 C 0.73972 0.39257 0.37732
 C850 C 0.75390 0.41954 0.35633
 H851 H 0.71095 0.38521 0.37395
 H852 H 0.78153 0.43000 0.36255
 C853 C 0.77327 0.40476 0.60432
 C854 C 0.75756 0.42315 0.63178
 H855 H 0.80240 0.40746 0.60190
 H856 H 0.72819 0.42364 0.63193
 C857 C 0.25760 -0.09716 0.09739
 C858 C 0.24479 -0.08872 0.13082
 H859 H 0.28540 -0.08885 0.09225
 H860 H 0.21768 -0.09770 0.13756
 C861 C 0.27126 0.10744 0.39749
 C862 C 0.25557 0.08992 0.36706
 H863 H 0.29998 0.10468 0.40403
 H864 H 0.22637 0.09058 0.36224
 C865 C 0.75348 0.62800 0.87829
 C866 C 0.73985 0.60361 0.85210
 H867 H 0.78256 0.63383 0.88088
 H868 H 0.71149 0.59453 0.85215
 C869 C 0.12083 0.73477 0.61638
 C870 C 0.11956 0.71221 0.58605
 H871 H 0.14674 0.74306 0.63002
 H872 H 0.09337 0.70516 0.57225
 C873 C 0.60884 0.21982 1.12137
 C874 C 0.63692 0.23656 1.10504
 H875 H 0.60464 0.18969 1.11889
 H876 H 0.63917 0.26695 1.10495
 C877 C 0.86714 0.24319 0.90001
 C878 C 0.84694 0.25832 0.92601
 H879 H 0.86439 0.21331 0.89379
 H880 H 0.85247 0.28710 0.93540
 C881 C 0.38367 0.72335 0.40741
 C882 C 0.35367 0.73792 0.42107
 H883 H 0.39023 0.69465 0.41371
 H884 H 0.34867 0.76753 0.41793
 C885 C 0.60249 0.76854 0.39812
 C886 C 0.63457 0.75635 0.41170
 H887 H 0.59591 0.79764 0.40247
 H888 H 0.63992 0.72665 0.41027
 C889 C 0.08973 0.27156 -0.10033
 C890 C 0.11801 0.25426 -0.08377
 H891 H 0.08841 0.30181 -0.09957
 H892 H 0.11787 0.22383 -0.08388
 C893 C 0.39040 0.25169 0.09930
 C894 C 0.36674 0.23646 0.07335
 H895 H 0.39000 0.28154 0.10566
 H896 H 0.36952 0.20765 0.06399
 C897 C 0.90053 0.76315 0.57726
 C898 C 0.86420 0.75942 0.57806
 H899 H 0.91250 0.78557 0.56149
 H900 H 0.85239 0.73932 0.59665
   
