data_POSCAR
  _audit_creation_date              2014-09-24
  _audit_creation_method            'ToBaCCo'
  _symmetry_space_group_name_H-M    'P1'
  _symmetry_Int_Tables_number       1
  _symmetry_cell_setting            triclinic
  loop_
  _symmetry_equiv_pos_as_xyz
 x,y,z
_cell_length_a 32.7272
_cell_length_b 33.9367
_cell_length_c 29.4978
_cell_angle_alpha 90.626300
_cell_angle_beta 93.602200
_cell_angle_gamma 120.276200
loop_
  _atom_site_label
  _atom_site_type_symbol
  _atom_site_fract_x
  _atom_site_fract_y
  _atom_site_fract_z
C1 C 0.55491 0.08064 0.07877
 H2 H 0.58576 0.07708 0.08532
 C3 C 0.55166 0.11449 0.10245
 H4 H 0.57960 0.13570 0.12827
 C5 C 0.48160 0.05714 0.03662
 H6 H 0.45511 0.03539 0.01001
 C7 C 0.47747 0.09154 0.05880
 H8 H 0.44765 0.09588 0.04883
 N9 N 0.52023 0.05278 0.04665
 C10 C 0.55213 -0.05625 0.02929
 H11 H 0.55392 -0.05633 -0.00721
 C12 C 0.55610 -0.08906 0.05418
 H13 H 0.56130 -0.11428 0.03679
 C14 C 0.54111 -0.02449 0.09619
 H15 H 0.53340 -0.00052 0.11229
 C16 C 0.54578 -0.05616 0.12251
 H17 H 0.54212 -0.05597 0.15874
 Zn18 Zn 0.53330 0.01369 0.01243
 N19 N 0.54445 -0.02502 0.05044
 C20 C 0.63044 0.05579 -0.00704
 N21 N 0.58784 0.05277 -0.01764
 C22 C 0.58367 0.08143 -0.04692
 C23 C 0.62314 0.11438 -0.06743
 C24 C 0.67118 0.08905 -0.02610
 C25 C 0.44044 -0.05558 -0.01305
 C26 C 0.40315 -0.08919 -0.04175
 C27 C 0.45136 -0.05804 -0.10497
 C28 C 0.48771 -0.02538 -0.07490
 N29 N 0.48185 -0.02493 -0.02983
 H30 H 0.63316 0.03349 0.01732
 H31 H 0.54964 0.07915 -0.05367
 H32 H 0.61931 0.13733 -0.09022
 H33 H 0.70512 0.09183 -0.01684
 H34 H 0.43709 -0.05512 0.02319
 H35 H 0.37264 -0.11416 -0.02540
 H36 H 0.45791 -0.05511 -0.14052
 H37 H 0.52109 -0.00115 -0.08771
 C38 C 0.55263 -0.08933 0.10133
 C39 C 0.51332 0.12137 0.09173
 C40 C 0.40800 -0.09214 -0.08899
 C41 C 0.66763 0.11881 -0.05663
 C42 C -0.08319 0.48348 0.61485
 H43 H -0.08613 0.45031 0.61220
 C44 C -0.11725 0.49066 0.59181
 H45 H -0.14658 0.46248 0.57192
 C46 C -0.04255 0.55950 0.64616
 H47 H -0.01391 0.58602 0.66801
 C48 C -0.07561 0.56832 0.62331
 H49 H -0.07122 0.60203 0.62713
 N50 N -0.04666 0.51770 0.64123
 C51 C 0.06448 0.48262 0.65012
 H52 H 0.06963 0.48232 0.68668
 C53 C 0.09210 0.47387 0.62213
 H54 H 0.11829 0.46645 0.63741
 C55 C 0.02358 0.49226 0.58595
 H56 H -0.00276 0.50002 0.57205
 C57 C 0.05032 0.48349 0.55665
 H58 H 0.04439 0.48474 0.52029
 Zn59 Zn -0.00421 0.50311 0.67289
 N60 N 0.03086 0.49132 0.63174
 C61 C -0.04570 0.40955 0.69066
 N62 N -0.04172 0.44982 0.70454
 C63 C -0.06806 0.45162 0.73754
 C64 C -0.09947 0.41192 0.75843
 C65 C -0.07749 0.36894 0.70987
 C66 C 0.07022 0.59200 0.69343
 C67 C 0.10403 0.63000 0.72036
 C68 C 0.07639 0.58581 0.78686
 C69 C 0.04305 0.54860 0.75861
 N70 N 0.04010 0.55254 0.71283
 H71 H -0.02564 0.40852 0.66343
 H72 H -0.06538 0.48379 0.74693
 H73 H -0.12077 0.41362 0.78420
 H74 H -0.08126 0.33694 0.69775
 H75 H 0.06767 0.59397 0.65687
 H76 H 0.12694 0.66136 0.70424
 H77 H 0.07847 0.58194 0.82318
 H78 H 0.01998 0.51657 0.77334
 C79 C 0.08517 0.47420 0.57471
 C80 C -0.11373 0.53361 0.59572
 C81 C 0.10735 0.62728 0.76780
 C82 C -0.10487 0.36995 0.74401
 C83 C 0.52290 0.45819 0.36732
 H84 H 0.49037 0.42543 0.36461
 C85 C 0.56442 0.46169 0.38712
 H86 H 0.56378 0.43161 0.39994
 C87 C 0.56382 0.53692 0.35211
 H88 H 0.56364 0.56578 0.33725
 C89 C 0.60617 0.54216 0.37262
 H90 H 0.63846 0.57514 0.37378
 N91 N 0.52335 0.49528 0.34976
 C92 C 0.37900 0.47014 0.34136
 H93 H 0.37258 0.47083 0.30503
 C94 C 0.34688 0.46975 0.37065
 H95 H 0.31594 0.47036 0.35637
 C96 C 0.42940 0.47246 0.40389
 H97 H 0.46217 0.47469 0.41677
 C98 C 0.39798 0.47145 0.43436
 H99 H 0.40657 0.47179 0.47045
 Zn100 Zn 0.46591 0.48272 0.31751
 N101 N 0.41975 0.47244 0.35839
 C102 C 0.40893 0.38883 0.28662
 N103 N 0.44755 0.43011 0.27994
 C104 C 0.47911 0.43440 0.24984
 C105 C 0.47279 0.39637 0.22510
 C106 C 0.40195 0.34939 0.26341
 C107 C 0.48513 0.57219 0.30408
 C108 C 0.48877 0.60870 0.27953
 C109 C 0.47022 0.56242 0.21020
 C110 C 0.46626 0.52670 0.23606
 N111 N 0.47422 0.53223 0.28212
 H112 H 0.38501 0.38611 0.31168
 H113 H 0.51013 0.46746 0.24601
 H114 H 0.49837 0.40111 0.20105
 H115 H 0.37250 0.31654 0.27100
 H116 H 0.49009 0.57536 0.34082
 H117 H 0.49627 0.63973 0.29784
 H118 H 0.46459 0.55730 0.17355
 H119 H 0.45604 0.49438 0.21909
 C120 C 0.35664 0.47137 0.41797
 C121 C 0.60667 0.50393 0.38953
 C122 C 0.48115 0.60406 0.23184
 C123 C 0.43484 0.35275 0.23289
 C124 C 0.16358 0.48498 0.55546
 C125 C 0.19166 0.47696 0.52698
 C126 C 0.17049 0.44876 0.48687
 C127 C 0.12157 0.42920 0.47592
 C128 C 0.09390 0.43759 0.50436
 C129 C 0.11456 0.46544 0.54440
 C130 C 0.19861 0.44087 0.45825
 C131 C 0.24772 0.46133 0.46896
 C132 C 0.26878 0.48963 0.50903
 C133 C 0.24062 0.49706 0.53787
 C134 C 0.31784 0.51054 0.51937
 C135 C 0.34602 0.50406 0.49007
 C136 C 0.32573 0.47607 0.44999
 C137 C 0.27626 0.45445 0.43993
 H138 H 0.18003 0.50706 0.58590
 H139 H 0.10472 0.40748 0.44535
 H140 H 0.05614 0.42179 0.49534
 H141 H 0.18237 0.41927 0.42746
 H142 H 0.25689 0.51882 0.56857
 H143 H 0.33458 0.53254 0.54980
 H144 H 0.38401 0.52204 0.49835
 H145 H 0.25991 0.43236 0.40951
 C146 C 0.52247 0.82825 0.11360
 C147 C 0.52099 0.79318 0.13942
 C148 C 0.55141 0.80416 0.17957
 C149 C 0.58231 0.85016 0.19348
 C150 C 0.58279 0.88490 0.16803
 C151 C 0.55310 0.87419 0.12785
 C152 C 0.55007 0.76903 0.20531
 C153 C 0.51799 0.72311 0.19190
 C154 C 0.48704 0.71232 0.15218
 C155 C 0.48903 0.74736 0.12600
 C156 C 0.45429 0.66659 0.13940
 C157 C 0.45220 0.63172 0.16555
 C158 C 0.48329 0.64173 0.20473
 C159 C 0.51616 0.68776 0.21768
 H160 H 0.49894 0.81986 0.08297
 H161 H 0.60574 0.85924 0.22423
 H162 H 0.60660 0.92019 0.17949
 H163 H 0.57358 0.77742 0.23596
 H164 H 0.46540 0.73898 0.09543
 H165 H 0.42999 0.65777 0.10932
 H166 H 0.42568 0.59681 0.15524
 H167 H 0.54069 0.69614 0.24748
 C168 C 0.32600 0.84553 0.89501
 C169 C 0.29145 0.80838 0.86693
 C170 C 0.30324 0.79816 0.82497
 C171 C 0.34910 0.82534 0.81157
 C172 C 0.38348 0.86191 0.83968
 C173 C 0.37330 0.87300 0.88254
 C174 C 0.26913 0.76072 0.79712
 C175 C 0.22321 0.73314 0.81084
 C176 C 0.21114 0.74340 0.85277
 C177 C 0.24525 0.78108 0.88045
 C178 C 0.16521 0.71560 0.86641
 C179 C 0.13159 0.67790 0.83886
 C180 C 0.14318 0.66732 0.79709
 C181 C 0.18923 0.69526 0.78335
 H182 H 0.31460 0.85328 0.92574
 H183 H 0.35883 0.81773 0.77956
 H184 H 0.41867 0.87922 0.82793
 H185 H 0.27841 0.75289 0.76492
 H186 H 0.23597 0.78882 0.91269
 H187 H 0.15529 0.72301 0.89839
 H188 H 0.09623 0.65731 0.84999
 H189 H 0.19888 0.68713 0.75155
 C190 C 0.82874 0.52061 0.52876
 C191 C 0.79199 0.52534 0.50751
 C192 C 0.77654 0.55237 0.52911
 C193 C 0.79841 0.57440 0.57154
 C194 C 0.83442 0.56882 0.59288
 C195 C 0.84973 0.54156 0.57197
 C196 C 0.73885 0.55607 0.50845
 C197 C 0.71561 0.53207 0.46704
 C198 C 0.73119 0.50503 0.44552
 C199 C 0.76968 0.50242 0.46553
 C200 C 0.70714 0.47994 0.40490
 C201 C 0.66715 0.48048 0.38643
 C202 C 0.65119 0.50688 0.40764
 C203 C 0.67603 0.53338 0.44748
 H204 H 0.84069 0.50021 0.51173
 H205 H 0.78697 0.59514 0.58871
 H206 H 0.84938 0.58493 0.62637
 H207 H 0.72682 0.57660 0.52516
 H208 H 0.78139 0.48149 0.44907
 H209 H 0.71856 0.45902 0.38803
 H210 H 0.64824 0.45988 0.35567
 H211 H 0.66334 0.55338 0.46408
 C212 C 0.46989 0.15881 0.12249
 C213 C 0.47028 0.19681 0.14264
 C214 C 0.51414 0.23724 0.15415
 C215 C 0.55652 0.23963 0.14431
 C216 C 0.55580 0.20225 0.12354
 C217 C 0.51274 0.16112 0.11300
 C218 C 0.51513 0.27492 0.17503
 C219 C 0.47280 0.27334 0.18372
 C220 C 0.42874 0.23357 0.17143
 C221 C 0.42771 0.19525 0.15135
 C222 C 0.38663 0.23306 0.17937
 C223 C 0.38827 0.27168 0.19903
 C224 C 0.43209 0.31133 0.21163
 C225 C 0.47415 0.31134 0.20430
 H226 H 0.43637 0.12748 0.11474
 H227 H 0.59033 0.27063 0.15231
 H228 H 0.58927 0.20594 0.11529
 H229 H 0.54891 0.30572 0.18411
 H230 H 0.39395 0.16450 0.14223
 H231 H 0.35243 0.20297 0.16999
 H232 H 0.35523 0.27062 0.20385
 H233 H 0.50833 0.34087 0.21501
 C234 C -0.28967 0.16288 0.87767
 C235 C -0.25139 0.20091 0.86013
 C236 C -0.21297 0.23299 0.88998
 C237 C -0.21261 0.22537 0.93662
 C238 C -0.25065 0.18708 0.95372
 C239 C -0.28982 0.15613 0.92455
 C240 C -0.17601 0.27247 0.87284
 C241 C -0.17673 0.27995 0.82617
 C242 C -0.21420 0.24683 0.79613
 C243 C -0.25140 0.20770 0.81334
 C244 C -0.21414 0.25367 0.74935
 C245 C -0.17778 0.29331 0.73249
 C246 C -0.14136 0.32705 0.76215
 C247 C -0.14082 0.32018 0.80898
 H248 H -0.31972 0.13881 0.85503
 H249 H -0.18334 0.24941 0.95995
 H250 H -0.25032 0.18252 0.99000
 H251 H -0.14700 0.29751 0.89584
 H252 H -0.28057 0.18279 0.79038
 H253 H -0.24238 0.22853 0.72585
 H254 H -0.17866 0.29825 0.69629
 H255 H -0.11244 0.34612 0.83184
   
