data_POSCAR
  _audit_creation_date              2014-09-24
  _audit_creation_method            'ToBaCCo'
  _symmetry_space_group_name_H-M    'P1'
  _symmetry_Int_Tables_number       1
  _symmetry_cell_setting            triclinic
  loop_
  _symmetry_equiv_pos_as_xyz
 x,y,z
_cell_length_a 41.9989
_cell_length_b 41.9722
_cell_length_c 42.0256
_cell_angle_alpha 89.963200
_cell_angle_beta 90.000300
_cell_angle_gamma 89.926600
loop_
  _atom_site_label
  _atom_site_type_symbol
  _atom_site_fract_x
  _atom_site_fract_y
  _atom_site_fract_z
O1 O 0.22390 1.03149 0.46945
 O2 O 0.22372 0.96946 0.53143
 O3 O 0.22386 1.03155 0.53146
 O4 O 0.22376 0.96941 0.46942
 O5 O 0.27641 0.96923 0.46945
 O6 O 0.27651 1.03137 0.53150
 O7 O 0.27638 0.96928 0.53146
 O8 O 0.27656 1.03131 0.46948
 Cu9 Cu 0.21851 1.00050 0.50044
 Cu10 Cu 0.28177 1.00028 0.50048
 C11 C 0.25026 1.04186 0.45900
 C12 C 0.25002 0.95889 0.54190
 C13 C 0.25020 1.04196 0.54197
 C14 C 0.25007 0.95882 0.45896
 O15 O 0.77600 -0.03158 0.46969
 O16 O 0.77612 0.03041 0.53158
 O17 O 0.77602 -0.03165 0.53168
 O18 O 0.77610 0.03047 0.46960
 O19 O 0.72344 0.03062 0.46962
 O20 O 0.72337 -0.03150 0.53170
 O21 O 0.72346 0.03056 0.53160
 O22 O 0.72334 -0.03142 0.46971
 Cu23 Cu 0.78137 -0.00061 0.50064
 Cu24 Cu 0.71809 -0.00042 0.50066
 C25 C 0.74965 -0.04194 0.45925
 C26 C 0.74981 0.04095 0.54202
 C27 C 0.74968 -0.04207 0.54218
 C28 C 0.74978 0.04103 0.45913
 O29 O 0.22381 0.46813 0.96949
 O30 O 0.22382 0.53013 1.03143
 O31 O 0.22380 0.53018 0.96946
 O32 O 0.22385 0.46808 1.03148
 O33 O 0.27650 0.46803 1.03146
 O34 O 0.27646 0.53012 0.96944
 O35 O 0.27648 0.53009 1.03141
 O36 O 0.27647 0.46808 0.96947
 Cu37 Cu 0.21851 0.49913 1.00047
 Cu38 Cu 0.28179 0.49907 1.00044
 C39 C 0.25014 0.45765 0.95902
 C40 C 0.25015 0.54058 1.04186
 C41 C 0.25012 0.54063 0.95898
 C42 C 0.25018 0.45757 1.04195
 O43 O 0.46990 0.22348 1.03142
 O44 O 0.53186 0.22346 0.96951
 O45 O 0.53194 0.22353 1.03151
 O46 O 0.46984 0.22340 0.96943
 O47 O 0.46973 0.27609 0.96933
 O48 O 0.53183 0.27620 1.03142
 O49 O 0.53176 0.27615 0.96942
 O50 O 0.46979 0.27618 1.03132
 Cu51 Cu 0.50090 0.21816 1.00048
 Cu52 Cu 0.50077 0.28147 1.00037
 C53 C 0.45939 0.24984 1.04181
 C54 C 0.54225 0.24980 0.95901
 C55 C 0.54237 0.24988 1.04196
 C56 C 0.45930 0.24972 0.95890
 O57 O 0.46947 0.77639 -0.03157
 O58 O 0.53144 0.77662 0.03033
 O59 O 0.53152 0.77655 -0.03168
 O60 O 0.46942 0.77643 0.03042
 O61 O 0.46964 0.72374 0.03049
 O62 O 0.53173 0.72387 -0.03160
 O63 O 0.53166 0.72393 0.03041
 O64 O 0.46969 0.72370 -0.03149
 Cu65 Cu 0.50044 0.78181 -0.00064
 Cu66 Cu 0.50071 0.71850 -0.00054
 C67 C 0.45911 0.75001 -0.04196
 C68 C 0.54199 0.75031 0.04083
 C69 C 0.54211 0.75023 -0.04214
 C70 C 0.45904 0.75006 0.04094
 O71 O 1.03145 0.46963 0.22353
 O72 O 0.96944 0.53164 0.22362
 O73 O 1.03148 0.53170 0.22361
 O74 O 0.96943 0.46957 0.22357
 O75 O 0.96944 0.46948 0.27619
 O76 O 1.03150 0.53162 0.27622
 O77 O 0.96946 0.53156 0.27624
 O78 O 1.03148 0.46954 0.27616
 Cu79 Cu 1.00045 0.50065 0.21828
 Cu80 Cu 1.00047 0.50054 0.28151
 C81 C 1.04193 0.45912 0.24983
 C82 C 0.95898 0.54205 0.24994
 C83 C 1.04198 0.54215 0.24992
 C84 C 0.95896 0.45903 0.24987
 O85 O -0.03162 0.46952 0.77618
 O86 O 0.03031 0.53146 0.77633
 O87 O -0.03173 0.53161 0.77625
 O88 O 0.03041 0.46939 0.77623
 O89 O 0.03046 0.46950 0.72361
 O90 O -0.03168 0.53171 0.72364
 O91 O 0.03037 0.53156 0.72370
 O92 O -0.03157 0.46962 0.72355
 Cu93 Cu -0.00067 0.50049 0.78155
 Cu94 Cu -0.00061 0.50061 0.71832
 C95 C -0.04203 0.45911 0.74984
 C96 C 0.04080 0.54195 0.75004
 C97 C -0.04221 0.54217 0.74995
 C98 C 0.04093 0.45894 0.74992
 O99 O 0.46821 0.96963 0.22365
 O100 O 0.53018 1.03159 0.22370
 O101 O 0.53019 0.96957 0.22367
 O102 O 0.46818 1.03168 0.22368
 O103 O 0.46816 1.03162 0.27630
 O104 O 0.53018 0.96951 0.27630
 O105 O 0.53016 1.03154 0.27632
 O106 O 0.46819 0.96957 0.27627
 Cu107 Cu 0.49918 1.00063 0.21836
 Cu108 Cu 0.49916 1.00056 0.28161
 C109 C 0.45775 0.95913 0.24995
 C110 C 0.54064 1.04201 0.25002
 C111 C 0.54066 0.95907 0.24998
 C112 C 0.45770 1.04215 0.24999
 O113 O 1.03126 0.22347 0.53074
 O114 O 0.96924 0.22344 0.46882
 O115 O 1.03124 0.22351 0.46879
 O116 O 0.96926 0.22343 0.53078
 O117 O 0.96915 0.27612 0.53077
 O118 O 1.03112 0.27620 0.46877
 O119 O 0.96912 0.27614 0.46881
 O120 O 1.03114 0.27617 0.53073
 Cu121 Cu 1.00026 0.21814 0.49979
 Cu122 Cu 1.00012 0.28148 0.49977
 C123 C 1.04166 0.24983 0.54119
 C124 C 0.95871 0.24978 0.45837
 C125 C 1.04164 0.24987 0.45832
 C126 C 0.95875 0.24976 0.54124
 O127 O -0.03109 0.77650 0.53099
 O128 O 0.03093 0.77642 0.46906
 O129 O -0.03107 0.77648 0.46903
 O130 O 0.03091 0.77645 0.53103
 O131 O 0.03093 0.72375 0.53108
 O132 O -0.03105 0.72378 0.46909
 O133 O 0.03095 0.72373 0.46912
 O134 O -0.03106 0.72380 0.53104
 Cu135 Cu -0.00008 0.78178 0.50002
 Cu136 Cu -0.00006 0.71845 0.50009
 C137 C -0.04154 0.75016 0.54146
 C138 C 0.04140 0.75006 0.45864
 C139 C -0.04152 0.75014 0.45860
 C140 C 0.04137 0.75010 0.54152
 O141 O 0.77612 0.46909 1.03098
 O142 O 0.77612 0.53112 0.96907
 O143 O 0.77610 0.53111 1.03100
 O144 O 0.77616 0.46911 0.96904
 O145 O 0.72350 0.46915 0.96901
 O146 O 0.72344 0.53116 1.03098
 O147 O 0.72346 0.53117 0.96904
 O148 O 0.72345 0.46914 1.03095
 Cu149 Cu 0.78145 0.50010 1.00003
 Cu150 Cu 0.71814 0.50016 1.00000
 C151 C 0.74978 0.45865 1.04141
 C152 C 0.74979 0.54161 0.95861
 C153 C 0.74976 0.54160 1.04145
 C154 C 0.74984 0.45867 0.95857
 O155 O 0.46835 1.03159 0.77627
 O156 O 0.53039 0.96952 0.77632
 O157 O 0.53036 1.03154 0.77629
 O158 O 0.46840 0.96954 0.77635
 O159 O 0.46839 0.96953 0.72372
 O160 O 0.53036 1.03153 0.72366
 O161 O 0.53037 0.96951 0.72369
 O162 O 0.46835 1.03158 0.72365
 Cu163 Cu 0.49937 1.00055 0.78162
 Cu164 Cu 0.49936 1.00054 0.71837
 C165 C 0.45788 1.04206 0.74995
 C166 C 0.54085 0.95904 0.75001
 C167 C 0.54083 1.04199 0.74997
 C168 C 0.45795 0.95906 0.75005
 C169 C 0.25047 0.22640 0.27366
 C170 C 0.22667 0.25023 0.27361
 C171 C 0.22669 0.27401 0.24979
 C172 C 0.25047 0.27398 0.22600
 C173 C 0.27426 0.25014 0.22608
 C174 C 0.27427 0.22635 0.24989
 C175 C 0.74969 0.77408 0.27382
 C176 C 0.77355 0.75031 0.27380
 C177 C 0.77362 0.72657 0.24998
 C178 C 0.74985 0.72659 0.22618
 C179 C 0.72605 0.75041 0.22618
 C180 C 0.72595 0.77416 0.25000
 C181 C 0.75015 0.22617 0.72621
 C182 C 0.77392 0.24996 0.72615
 C183 C 0.77389 0.27378 0.74989
 C184 C 0.75015 0.27379 0.77371
 C185 C 0.72640 0.24997 0.77376
 C186 C 0.72637 0.22619 0.74999
 C187 C 0.24987 0.77364 0.72651
 C188 C 0.27369 0.77359 0.75026
 C189 C 0.27373 0.74973 0.77402
 C190 C 0.24994 0.72595 0.77407
 C191 C 0.22611 0.72604 0.75033
 C192 C 0.22609 0.74986 0.72653
 C193 C 0.22646 0.24966 0.72603
 C194 C 0.22639 0.27345 0.74985
 C195 C 0.25020 0.27337 0.77366
 C196 C 0.27407 0.24957 0.77365
 C197 C 0.27408 0.22579 0.74981
 C198 C 0.25028 0.22581 0.72599
 C199 C 0.77359 0.75021 0.72622
 C200 C 0.74976 0.77405 0.72619
 C201 C 0.72597 0.77406 0.75001
 C202 C 0.72597 0.75025 0.77383
 C203 C 0.74981 0.72643 0.77380
 C204 C 0.77364 0.72638 0.75002
 C205 C 0.22612 0.74974 0.27373
 C206 C 0.24991 0.77357 0.27374
 C207 C 0.27369 0.77355 0.24992
 C208 C 0.27374 0.74972 0.22613
 C209 C 0.24995 0.72591 0.22618
 C210 C 0.22611 0.72590 0.24996
 C211 C 0.77375 0.24989 0.27369
 C212 C 0.74991 0.22612 0.27374
 C213 C 0.72611 0.22617 0.24994
 C214 C 0.72612 0.24996 0.22609
 C215 C 0.74997 0.27372 0.22611
 C216 C 0.77379 0.27372 0.24989
 C217 C 0.27464 0.17725 0.34531
 C218 C 0.25046 0.15432 0.34605
 C219 C 0.22629 0.15494 0.32309
 C220 C 0.22631 0.17839 0.29948
 C221 C 0.25032 0.06598 0.43483
 C222 C 0.27465 0.20074 0.32174
 C223 C 0.25042 0.13018 0.37035
 C224 C 0.25040 0.10994 0.39070
 C225 C 0.25037 0.08624 0.41450
 C226 C 0.25048 0.20143 0.29869
 H227 H 0.29343 0.17698 0.36297
 H228 H 0.20748 0.13731 0.32344
 H229 H 0.20758 0.17859 0.28177
 H230 H 0.29339 0.21844 0.32147
 C231 C 0.74269 0.81424 0.35414
 C232 C 0.74950 0.84592 0.34626
 C233 C 0.75634 0.85414 0.31470
 C234 C 0.75641 0.83073 0.29108
 C235 C 0.74960 0.93399 0.43509
 C236 C 0.74269 0.79083 0.33053
 C237 C 0.74951 0.87000 0.37057
 C238 C 0.74953 0.89017 0.39093
 C239 C 0.74956 0.91379 0.41476
 C240 C 0.74958 0.79895 0.29887
 H241 H 0.73736 0.80765 0.37849
 H242 H 0.76165 0.87858 0.30837
 H243 H 0.76186 0.83729 0.26675
 H244 H 0.73729 0.76640 0.33684
 C245 C 0.74328 0.18550 0.64614
 C246 C 0.75007 0.15385 0.65424
 C247 C 0.75692 0.14584 0.68586
 C248 C 0.75700 0.16942 0.70931
 C249 C 0.74986 0.06512 0.56607
 C250 C 0.74328 0.20908 0.66959
 C251 C 0.75000 0.12959 0.63013
 C252 C 0.74994 0.10925 0.60993
 C253 C 0.74990 0.08544 0.58628
 C254 C 0.75015 0.20115 0.70130
 H255 H 0.73793 0.19192 0.62174
 H256 H 0.76223 0.12143 0.69236
 H257 H 0.76243 0.16300 0.73369
 H258 H 0.73786 0.23347 0.66311
 C259 C 0.24302 0.85398 0.68602
 C260 C 0.24983 0.84599 0.65440
 C261 C 0.25663 0.81433 0.64635
 C262 C 0.25667 0.79075 0.66984
 C263 C 0.24995 0.93472 0.56601
 C264 C 0.24299 0.83041 0.70952
 C265 C 0.24983 0.87025 0.63022
 C266 C 0.24986 0.89059 0.60997
 C267 C 0.24990 0.91439 0.58627
 C268 C 0.24984 0.79867 0.70156
 H269 H 0.23771 0.87840 0.69250
 H270 H 0.26194 0.80790 0.62196
 H271 H 0.26209 0.76636 0.66339
 H272 H 0.23758 0.83683 0.73389
 C273 C 0.32360 0.22584 0.15471
 C274 C 0.34655 0.25000 0.15408
 C275 C 0.34585 0.27422 0.17697
 C276 C 0.32231 0.27426 0.20045
 C277 C 0.43524 0.24985 0.06588
 C278 C 0.30001 0.22590 0.17815
 C279 C 0.37081 0.24993 0.12997
 C280 C 0.39114 0.24989 0.10976
 C281 C 0.41492 0.24986 0.08610
 C282 C 0.29926 0.25010 0.20115
 H283 H 0.32393 0.20700 0.13710
 H284 H 0.36352 0.29301 0.17668
 H285 H 0.32205 0.29303 0.21812
 H286 H 0.28229 0.20717 0.17837
 C287 C 0.35407 0.74285 0.81427
 C288 C 0.34613 0.74966 0.84590
 C289 C 0.31451 0.75646 0.85405
 C290 C 0.29091 0.75649 0.83063
 C291 C 0.43494 0.74992 0.93399
 C292 C 0.33047 0.74282 0.79085
 C293 C 0.37042 0.74971 0.86999
 C294 C 0.39078 0.74976 0.89017
 C295 C 0.41460 0.74985 0.91380
 C296 C 0.29877 0.74966 0.79890
 H297 H 0.37846 0.73755 0.80774
 H298 H 0.30814 0.76177 0.87846
 H299 H 0.26654 0.76191 0.83714
 H300 H 0.33683 0.73741 0.76646
 C301 C 0.64601 0.74370 0.18534
 C302 C 0.65417 0.75056 0.15377
 C303 C 0.68582 0.75740 0.14587
 C304 C 0.70924 0.75741 0.16948
 C305 C 0.56606 0.75040 0.06498
 C306 C 0.66942 0.74364 0.20895
 C307 C 0.63009 0.75054 0.12947
 C308 C 0.60990 0.75051 0.10912
 C309 C 0.58627 0.75046 0.08531
 C310 C 0.70117 0.75050 0.20114
 H311 H 0.62159 0.73835 0.19168
 H312 H 0.69237 0.76275 0.12152
 H313 H 0.73364 0.76284 0.16315
 H314 H 0.66289 0.73816 0.23328
 C315 C 0.68617 0.24299 0.85405
 C316 C 0.65451 0.24986 0.84615
 C317 C 0.64634 0.25677 0.81458
 C318 C 0.66977 0.25684 0.79099
 C319 C 0.56633 0.24980 0.93487
 C320 C 0.70960 0.24300 0.83046
 C321 C 0.63040 0.24982 0.87042
 C322 C 0.61021 0.24980 0.89076
 C323 C 0.58655 0.24980 0.91455
 C324 C 0.70152 0.24994 0.79880
 H325 H 0.69272 0.23760 0.87840
 H326 H 0.62191 0.26213 0.80824
 H327 H 0.66324 0.26234 0.76666
 H328 H 0.73400 0.23753 0.83679
 C329 C 0.17749 0.34566 0.27388
 C330 C 0.15453 0.34632 0.24974
 C331 C 0.15515 0.32334 0.22560
 C332 C 0.17865 0.29975 0.22562
 C333 C 0.06606 0.43497 0.24979
 C334 C 0.20103 0.32212 0.27389
 C335 C 0.13033 0.37056 0.24972
 C336 C 0.11006 0.39088 0.24973
 C337 C 0.08633 0.41466 0.24975
 C338 C 0.20172 0.29903 0.24976
 H339 H 0.17721 0.36335 0.29265
 H340 H 0.13748 0.32364 0.20683
 H341 H 0.17886 0.28201 0.20692
 H342 H 0.21876 0.32189 0.29260
 C343 C 0.85396 0.31454 0.75657
 C344 C 0.84580 0.34616 0.74973
 C345 C 0.81414 0.35412 0.74291
 C346 C 0.79071 0.33053 0.74291
 C347 C 0.93391 0.43495 0.74979
 C348 C 0.83054 0.29094 0.75664
 C349 C 0.86989 0.37045 0.74972
 C350 C 0.89008 0.39080 0.74973
 C351 C 0.91371 0.41461 0.74976
 C352 C 0.79878 0.29882 0.74981
 H353 H 0.87839 0.30815 0.76189
 H354 H 0.80759 0.37852 0.73757
 H355 H 0.76630 0.33691 0.73750
 H356 H 0.83706 0.26657 0.76210
 C357 C 0.14581 0.68578 0.75718
 C358 C 0.15376 0.65411 0.75033
 C359 C 0.18536 0.64594 0.74352
 C360 C 0.20896 0.66938 0.74352
 C361 C 0.06497 0.56600 0.75010
 C362 C 0.16939 0.70922 0.75724
 C363 C 0.12947 0.63001 0.75026
 C364 C 0.10912 0.60983 0.75020
 C365 C 0.08530 0.58620 0.75014
 C366 C 0.20109 0.70114 0.75038
 H367 H 0.12142 0.69233 0.76249
 H368 H 0.19174 0.62151 0.73818
 H369 H 0.23331 0.66285 0.73808
 H370 H 0.16303 0.73363 0.76267
 C371 C 0.85395 0.68617 0.24312
 C372 C 0.84602 0.65450 0.24994
 C373 C 0.81442 0.64639 0.25676
 C374 C 0.79081 0.66987 0.25679
 C375 C 0.93480 0.56616 0.24996
 C376 C 0.83035 0.70966 0.24309
 C377 C 0.87030 0.63034 0.24994
 C378 C 0.89066 0.61011 0.24994
 C379 C 0.91447 0.58641 0.24996
 C380 C 0.79866 0.70163 0.24995
 H381 H 0.87833 0.69268 0.23780
 H382 H 0.80805 0.62195 0.26208
 H383 H 0.76646 0.66337 0.26222
 H384 H 0.83670 0.73407 0.23768
 C385 C 0.14624 0.24303 0.68545
 C386 C 0.15430 0.24977 0.65382
 C387 C 0.18596 0.25648 0.64580
 C388 C 0.20947 0.25648 0.66933
 C389 C 0.06581 0.24983 0.56530
 C390 C 0.16974 0.24297 0.70898
 C391 C 0.13011 0.24977 0.62959
 C392 C 0.10984 0.24979 0.60931
 C393 C 0.08610 0.24982 0.58557
 C394 C 0.20149 0.24971 0.70105
 H395 H 0.12182 0.23779 0.69189
 H396 H 0.19244 0.26173 0.62141
 H397 H 0.23386 0.26182 0.66290
 H398 H 0.16328 0.23761 0.73334
 C399 C 0.82289 0.72594 0.65477
 C400 C 0.84577 0.75018 0.65404
 C401 C 0.84505 0.77442 0.67691
 C402 C 0.82155 0.77443 0.70044
 C403 C 0.93431 0.75018 0.56557
 C404 C 0.79936 0.72596 0.67827
 C405 C 0.86998 0.75016 0.62984
 C406 C 0.89027 0.75016 0.60956
 C407 C 0.91402 0.75018 0.58584
 C408 C 0.79856 0.75020 0.70125
 H409 H 0.82324 0.70709 0.63719
 H410 H 0.86264 0.79327 0.67655
 H411 H 0.82128 0.79322 0.71809
 H412 H 0.78170 0.70718 0.67855
 C413 C 0.17685 0.72553 0.34521
 C414 C 0.15397 0.74981 0.34594
 C415 C 0.15466 0.77406 0.32305
 C416 C 0.17814 0.77402 0.29950
 C417 C 0.06553 0.75002 0.43451
 C418 C 0.20038 0.72550 0.32170
 C419 C 0.12978 0.74985 0.37017
 C420 C 0.10952 0.74990 0.39047
 C421 C 0.08580 0.74997 0.41423
 C422 C 0.20114 0.74975 0.29871
 H423 H 0.17653 0.70667 0.36282
 H424 H 0.13706 0.79295 0.32340
 H425 H 0.17840 0.79282 0.28183
 H426 H 0.21804 0.70669 0.32143
 C427 C 0.85401 0.24303 0.31420
 C428 C 0.84598 0.24977 0.34583
 C429 C 0.81433 0.25654 0.35388
 C430 C 0.79079 0.25661 0.33038
 C431 C 0.93456 0.24976 0.43426
 C432 C 0.83048 0.24304 0.29070
 C433 C 0.87021 0.24974 0.37002
 C434 C 0.89050 0.24973 0.39029
 C435 C 0.91427 0.24974 0.41400
 C436 C 0.79874 0.24984 0.29866
 H437 H 0.87842 0.23775 0.30773
 H438 H 0.80787 0.26180 0.37828
 H439 H 0.76641 0.26200 0.33683
 H440 H 0.83692 0.23768 0.26633
 C441 C 0.24340 0.31362 0.85399
 C442 C 0.25008 0.34533 0.84607
 C443 C 0.25677 0.35352 0.81446
 C444 C 0.25682 0.33008 0.79086
 C445 C 0.25013 0.43355 0.93486
 C446 C 0.24339 0.29018 0.83040
 C447 C 0.25007 0.36945 0.87036
 C448 C 0.25009 0.38966 0.89072
 C449 C 0.25011 0.41332 0.91453
 C450 C 0.25013 0.29828 0.79870
 H451 H 0.23818 0.30705 0.87837
 H452 H 0.26198 0.37797 0.80809
 H453 H 0.26216 0.33664 0.76651
 H454 H 0.23808 0.26575 0.83676
 C455 C 0.74315 0.35398 0.18556
 C456 C 0.74991 0.34592 0.15395
 C457 C 0.75671 0.31426 0.14592
 C458 C 0.75677 0.29073 0.16944
 C459 C 0.74978 0.43449 0.06551
 C460 C 0.74315 0.33045 0.20908
 C461 C 0.74986 0.37013 0.12974
 C462 C 0.74982 0.39043 0.10948
 C463 C 0.74979 0.41419 0.08576
 C464 C 0.74997 0.29870 0.20114
 H465 H 0.73785 0.37841 0.19200
 H466 H 0.76198 0.30780 0.12153
 H467 H 0.76217 0.26633 0.16301
 H468 H 0.73776 0.33690 0.23345
 C469 C 0.72563 0.65493 0.82307
 C470 C 0.74983 0.65424 0.84598
 C471 C 0.77403 0.67714 0.84529
 C472 C 0.77403 0.70069 0.82178
 C473 C 0.74979 0.56576 0.93451
 C474 C 0.72564 0.67843 0.79952
 C475 C 0.74981 0.63005 0.87020
 C476 C 0.74979 0.60978 0.89049
 C477 C 0.74978 0.58604 0.91423
 C478 C 0.74983 0.70144 0.79877
 H479 H 0.70681 0.63730 0.82341
 H480 H 0.79285 0.67682 0.86292
 H481 H 0.79278 0.71838 0.82152
 H482 H 0.70688 0.67869 0.78184
 C483 C 0.22579 0.67644 0.15484
 C484 C 0.25004 0.65353 0.15418
 C485 C 0.27428 0.65430 0.17705
 C486 C 0.27425 0.67786 0.20052
 C487 C 0.25014 0.56476 0.06594
 C488 C 0.22577 0.70005 0.17826
 C489 C 0.25006 0.62924 0.13006
 C490 C 0.25009 0.60889 0.10985
 C491 C 0.25012 0.58508 0.08617
 C492 C 0.24999 0.70088 0.20125
 H493 H 0.20693 0.67607 0.13724
 H494 H 0.29315 0.63667 0.17676
 H495 H 0.29303 0.67816 0.21818
 H496 H 0.20696 0.71773 0.17849
 C497 C 0.35439 0.18521 0.74312
 C498 C 0.34638 0.15353 0.74981
 C499 C 0.31473 0.14547 0.75649
 C500 C 0.29117 0.16901 0.75651
 C501 C 0.43502 0.06493 0.74993
 C502 C 0.33084 0.20876 0.74309
 C503 C 0.37062 0.12930 0.74982
 C504 C 0.39094 0.10900 0.74984
 C505 C 0.41472 0.08524 0.74989
 C506 C 0.29910 0.20079 0.74980
 H507 H 0.37880 0.19169 0.73792
 H508 H 0.30828 0.12104 0.76170
 H509 H 0.26678 0.16255 0.76183
 H510 H 0.33726 0.23317 0.73777
 C511 C 0.32272 0.84521 0.22563
 C512 C 0.34561 0.84600 0.24984
 C513 C 0.34502 0.82307 0.27406
 C514 C 0.32162 0.79943 0.27406
 C515 C 0.43369 0.93493 0.24993
 C516 C 0.29928 0.82161 0.22564
 C517 C 0.36969 0.87034 0.24985
 C518 C 0.38986 0.89073 0.24987
 C519 C 0.41349 0.91458 0.24991
 C520 C 0.29861 0.79858 0.24986
 H521 H 0.32296 0.86284 0.20679
 H522 H 0.36262 0.82347 0.29289
 H523 H 0.32144 0.78174 0.29284
 H524 H 0.28160 0.82129 0.20688
 C525 C 0.64573 0.18595 0.25671
 C526 C 0.65368 0.15424 0.25004
 C527 C 0.68531 0.14604 0.24336
 C528 C 0.70892 0.16947 0.24331
 C529 C 0.56483 0.06608 0.25003
 C530 C 0.66933 0.20938 0.25672
 C531 C 0.62937 0.13013 0.25003
 C532 C 0.60900 0.10994 0.25003
 C533 C 0.58517 0.08629 0.25004
 C534 C 0.70105 0.20127 0.25000
 H535 H 0.62134 0.19254 0.26192
 H536 H 0.69170 0.12157 0.23816
 H537 H 0.73328 0.16290 0.23798
 H538 H 0.66296 0.23382 0.26202
 C539 C 0.67658 0.84561 0.77418
 C540 C 0.65367 0.84631 0.74998
 C541 C 0.65440 0.82340 0.72578
 C542 C 0.67794 0.79984 0.72579
 C543 C 0.56500 0.93488 0.75001
 C544 C 0.70016 0.82209 0.77418
 C545 C 0.62941 0.87053 0.74998
 C546 C 0.60909 0.89082 0.74999
 C547 C 0.58531 0.91458 0.75000
 C548 C 0.70096 0.79907 0.74999
 H549 H 0.67623 0.86323 0.79300
 H550 H 0.63678 0.82373 0.70696
 H551 H 0.67822 0.78215 0.70704
 H552 H 0.71784 0.82183 0.79294
 C553 C 0.74307 0.81467 0.64584
 C554 C 0.74967 0.84638 0.65382
 C555 C 0.75629 0.85443 0.68548
 C556 C 0.75635 0.83089 0.70904
 C557 C 0.74965 0.93504 0.56506
 C558 C 0.74307 0.79112 0.66940
 C559 C 0.74964 0.87064 0.62954
 C560 C 0.74962 0.89095 0.60921
 C561 C 0.74963 0.91473 0.58539
 C562 C 0.74973 0.79909 0.70115
 H563 H 0.73790 0.80816 0.62144
 H564 H 0.76144 0.87887 0.69193
 H565 H 0.76163 0.83739 0.73341
 H566 H 0.73781 0.76671 0.66296
 C567 C 0.24368 0.31447 0.14565
 C568 C 0.25035 0.34617 0.15358
 C569 C 0.25707 0.35426 0.18521
 C570 C 0.25715 0.33076 0.20879
 C571 C 0.25019 0.43470 0.06482
 C572 C 0.24370 0.29096 0.16923
 C573 C 0.25028 0.37038 0.12930
 C574 C 0.25024 0.39066 0.10896
 C575 C 0.25021 0.41441 0.08515
 C576 C 0.25045 0.29897 0.20094
 H577 H 0.23844 0.30794 0.12127
 H578 H 0.26227 0.37871 0.19161
 H579 H 0.26250 0.33727 0.23314
 H580 H 0.23838 0.26654 0.16284
 C581 C 0.22602 0.15432 0.67644
 C582 C 0.25032 0.15349 0.65361
 C583 C 0.27461 0.17632 0.65448
 C584 C 0.27460 0.19987 0.67801
 C585 C 0.25023 0.06486 0.56484
 C586 C 0.22602 0.17783 0.70002
 C587 C 0.25031 0.12925 0.62932
 C588 C 0.25029 0.10895 0.60898
 C589 C 0.25025 0.08517 0.58516
 C590 C 0.25030 0.20077 0.70095
 H591 H 0.20712 0.13680 0.67603
 H592 H 0.29352 0.17594 0.63695
 H593 H 0.29344 0.21746 0.67834
 H594 H 0.20718 0.17814 0.71761
 C595 C 0.25653 0.81418 0.35408
 C596 C 0.24992 0.84592 0.34608
 C597 C 0.24330 0.85398 0.31441
 C598 C 0.24326 0.83044 0.29086
 C599 C 0.25003 0.93462 0.43478
 C600 C 0.25655 0.79064 0.33054
 C601 C 0.24992 0.87019 0.37035
 C602 C 0.24994 0.89050 0.39067
 C603 C 0.24998 0.91430 0.41447
 C604 C 0.24990 0.79861 0.29878
 H605 H 0.26169 0.80766 0.37849
 H606 H 0.23814 0.87843 0.30792
 H607 H 0.23798 0.83695 0.26649
 H608 H 0.26183 0.76621 0.33701
 C609 C 0.77409 0.15452 0.32327
 C610 C 0.74984 0.15382 0.34614
 C611 C 0.72560 0.17677 0.34531
 C612 C 0.72563 0.20032 0.32177
 C613 C 0.74980 0.06521 0.43493
 C614 C 0.77411 0.17803 0.29968
 C615 C 0.74981 0.12958 0.37043
 C616 C 0.74980 0.10929 0.39078
 C617 C 0.74981 0.08552 0.41460
 C618 C 0.74988 0.20109 0.29879
 H619 H 0.79295 0.13689 0.32366
 H620 H 0.70672 0.17647 0.36288
 H621 H 0.70684 0.21801 0.32145
 H622 H 0.79292 0.17826 0.28206
 C623 C 0.68535 0.75685 0.85420
 C624 C 0.65364 0.75029 0.84621
 C625 C 0.64560 0.74372 0.81453
 C626 C 0.66914 0.74368 0.79098
 C627 C 0.56499 0.75027 0.93497
 C628 C 0.70888 0.75688 0.83065
 C629 C 0.62938 0.75028 0.87049
 C630 C 0.60908 0.75029 0.89082
 C631 C 0.58530 0.75029 0.91464
 C632 C 0.70093 0.75027 0.79888
 H633 H 0.69186 0.76198 0.87860
 H634 H 0.62118 0.73859 0.80805
 H635 H 0.66264 0.73843 0.76660
 H636 H 0.73328 0.76211 0.83711
 C637 C 0.18598 0.25699 0.35377
 C638 C 0.15436 0.25017 0.34571
 C639 C 0.14638 0.24341 0.31407
 C640 C 0.16993 0.24342 0.29058
 C641 C 0.06578 0.24990 0.43418
 C642 C 0.20954 0.25706 0.33028
 C643 C 0.13012 0.25008 0.36990
 C644 C 0.10982 0.25001 0.39017
 C645 C 0.08606 0.24994 0.41391
 C646 C 0.20164 0.25025 0.29856
 H647 H 0.19241 0.26226 0.37817
 H648 H 0.12199 0.23809 0.30759
 H649 H 0.16352 0.23802 0.26621
 H650 H 0.23390 0.26247 0.33675
 C651 C 0.65465 0.27429 0.17646
 C652 C 0.65385 0.24996 0.15366
 C653 C 0.67670 0.22563 0.15457
 C654 C 0.70024 0.22564 0.17812
 C655 C 0.56525 0.24992 0.06486
 C656 C 0.67815 0.27429 0.20004
 C657 C 0.62961 0.24995 0.12937
 C658 C 0.60932 0.24995 0.10902
 C659 C 0.58555 0.24994 0.08519
 C660 C 0.70111 0.24997 0.20102
 H661 H 0.63710 0.29323 0.17601
 H662 H 0.67634 0.20669 0.13708
 H663 H 0.71785 0.20677 0.17849
 H664 H 0.67843 0.29316 0.21761
 C665 C 0.34554 0.27388 0.82316
 C666 C 0.34644 0.24954 0.84598
 C667 C 0.32365 0.22520 0.84512
 C668 C 0.30009 0.22521 0.82160
 C669 C 0.43510 0.24967 0.93471
 C670 C 0.32202 0.27387 0.79960
 C671 C 0.37070 0.24955 0.87025
 C672 C 0.39101 0.24957 0.89057
 C673 C 0.41480 0.24961 0.91438
 C674 C 0.29913 0.24954 0.79867
 H675 H 0.36304 0.29282 0.82356
 H676 H 0.32408 0.20626 0.86264
 H677 H 0.28253 0.20634 0.82127
 H678 H 0.32166 0.29275 0.78202
 C679 C 0.31438 0.75631 0.14577
 C680 C 0.34610 0.74979 0.15379
 C681 C 0.35415 0.74323 0.18548
 C682 C 0.33060 0.74317 0.20902
 C683 C 0.43484 0.75000 0.06513
 C684 C 0.29083 0.75631 0.16930
 C685 C 0.37038 0.74982 0.12953
 C686 C 0.39071 0.74986 0.10922
 C687 C 0.41452 0.74993 0.08544
 C688 C 0.29879 0.74973 0.20108
 H689 H 0.30786 0.76143 0.12135
 H690 H 0.37859 0.73813 0.19198
 H691 H 0.33710 0.73794 0.23341
 H692 H 0.26641 0.76152 0.16282
 C693 C 0.85406 0.68563 0.75658
 C694 C 0.84606 0.65391 0.75002
 C695 C 0.81436 0.64590 0.74348
 C696 C 0.79079 0.66948 0.74345
 C697 C 0.93489 0.56509 0.74995
 C698 C 0.83050 0.70921 0.75662
 C699 C 0.87036 0.62961 0.74999
 C700 C 0.89071 0.60927 0.74997
 C701 C 0.91454 0.58544 0.74997
 C702 C 0.79870 0.70129 0.75003
 H703 H 0.87849 0.69212 0.76169
 H704 H 0.80787 0.62147 0.73835
 H705 H 0.76639 0.66301 0.73822
 H706 H 0.83697 0.73362 0.76185
 C707 C 0.35450 0.18557 0.25669
 C708 C 0.34644 0.15391 0.24995
 C709 C 0.31478 0.14595 0.24321
 C710 C 0.29127 0.16954 0.24316
 C711 C 0.43487 0.06505 0.24999
 C712 C 0.33099 0.20916 0.25670
 C713 C 0.37063 0.12962 0.24996
 C714 C 0.39089 0.10926 0.24996
 C715 C 0.41461 0.08541 0.24998
 C716 C 0.29925 0.20128 0.24992
 H717 H 0.37891 0.19198 0.26195
 H718 H 0.30829 0.12154 0.23795
 H719 H 0.26688 0.16314 0.23778
 H720 H 0.33746 0.23355 0.26206
 C721 C 0.14570 0.68536 0.24338
 C722 C 0.15370 0.65362 0.24995
 C723 C 0.18540 0.64553 0.25653
 C724 C 0.20896 0.66904 0.25656
 C725 C 0.06488 0.56503 0.24993
 C726 C 0.16926 0.70888 0.24334
 C727 C 0.12940 0.62938 0.24994
 C728 C 0.10905 0.60909 0.24995
 C729 C 0.08521 0.58533 0.24994
 C730 C 0.20105 0.70088 0.24995
 H731 H 0.12128 0.69192 0.23824
 H732 H 0.19188 0.62107 0.26166
 H733 H 0.23336 0.66250 0.26181
 H734 H 0.16279 0.73331 0.23810
 C735 C 0.84531 0.32320 0.22559
 C736 C 0.84614 0.34607 0.24984
 C737 C 0.82330 0.34525 0.27412
 C738 C 0.79973 0.32172 0.27413
 C739 C 0.93478 0.43482 0.24985
 C740 C 0.82180 0.29963 0.22561
 C741 C 0.87040 0.37034 0.24982
 C742 C 0.89070 0.39067 0.24981
 C743 C 0.91448 0.41449 0.24982
 C744 C 0.79884 0.29875 0.24988
 H745 H 0.86285 0.32357 0.20669
 H746 H 0.82367 0.36280 0.29300
 H747 H 0.78213 0.32143 0.29296
 H748 H 0.82149 0.28202 0.20679
 C749 C 0.17683 0.34510 0.72561
 C750 C 0.15396 0.34590 0.74986
 C751 C 0.15479 0.32300 0.77411
 C752 C 0.17834 0.29940 0.77411
 C753 C 0.06513 0.43470 0.74990
 C754 C 0.20043 0.32154 0.72562
 C755 C 0.12965 0.37019 0.74985
 C756 C 0.10931 0.39053 0.74986
 C757 C 0.08547 0.41436 0.74989
 C758 C 0.20132 0.29853 0.74986
 H759 H 0.17645 0.36268 0.70673
 H760 H 0.13723 0.32336 0.79299
 H761 H 0.17865 0.28175 0.79292
 H762 H 0.21805 0.32126 0.70680
 C763 C 0.84503 0.77448 0.32312
 C764 C 0.84576 0.75023 0.34601
 C765 C 0.82287 0.72600 0.34529
 C766 C 0.79932 0.72603 0.32179
 C767 C 0.93434 0.75014 0.43447
 C768 C 0.82152 0.77450 0.29958
 C769 C 0.86998 0.75019 0.37021
 C770 C 0.89028 0.75017 0.39048
 C771 C 0.91404 0.75015 0.41420
 C772 C 0.79853 0.75028 0.29879
 H773 H 0.86263 0.79333 0.32345
 H774 H 0.82321 0.70713 0.36289
 H775 H 0.78166 0.70725 0.32153
 H776 H 0.82125 0.79331 0.28192
 C777 C 0.84547 0.22565 0.67692
 C778 C 0.84612 0.24983 0.65394
 C779 C 0.82316 0.27405 0.65458
 C780 C 0.79963 0.27409 0.67808
 C781 C 0.93462 0.24974 0.56538
 C782 C 0.82198 0.22571 0.70047
 C783 C 0.87033 0.24977 0.62972
 C784 C 0.89060 0.24975 0.60943
 C785 C 0.91434 0.24973 0.58567
 C786 C 0.79891 0.24992 0.70117
 H787 H 0.86313 0.20682 0.67665
 H788 H 0.82344 0.29285 0.63691
 H789 H 0.78191 0.29286 0.67828
 H790 H 0.82177 0.20697 0.71819
 C791 C 0.15455 0.77414 0.67723
 C792 C 0.15390 0.74994 0.65431
 C793 C 0.17684 0.72571 0.65502
 C794 C 0.20037 0.72568 0.67853
 C795 C 0.06549 0.75008 0.56567
 C796 C 0.17804 0.77410 0.70078
 C797 C 0.12971 0.74998 0.63007
 C798 C 0.10945 0.75001 0.60976
 C799 C 0.08575 0.75005 0.58598
 C800 C 0.20110 0.74988 0.70155
 H801 H 0.13691 0.79299 0.67690
 H802 H 0.17656 0.70688 0.63740
 H803 H 0.21808 0.70690 0.67878
 H804 H 0.17826 0.79287 0.71846
 C805 C 0.72565 0.65504 0.17697
 C806 C 0.74983 0.65433 0.15403
 C807 C 0.77403 0.67725 0.15469
 C808 C 0.77404 0.70081 0.17818
 C809 C 0.74975 0.56575 0.06557
 C810 C 0.72568 0.67855 0.20050
 C811 C 0.74979 0.63011 0.12983
 C812 C 0.74976 0.60981 0.10956
 C813 C 0.74974 0.58604 0.08583
 C814 C 0.74986 0.70158 0.20122
 H815 H 0.70683 0.63742 0.17668
 H816 H 0.79283 0.67692 0.13705
 H817 H 0.79279 0.71849 0.17839
 H818 H 0.70693 0.67881 0.21820
 C819 C 0.22581 0.67652 0.84559
 C820 C 0.25002 0.65354 0.84627
 C821 C 0.27421 0.65426 0.82333
 C822 C 0.27418 0.67782 0.79980
 C823 C 0.25010 0.56482 0.93482
 C824 C 0.22579 0.70012 0.82211
 C825 C 0.25004 0.62925 0.87047
 C826 C 0.25005 0.60892 0.89075
 C827 C 0.25007 0.58513 0.91452
 C828 C 0.24997 0.70090 0.79906
 H829 H 0.20699 0.67620 0.86322
 H830 H 0.29305 0.63660 0.82362
 H831 H 0.29293 0.67806 0.78211
 H832 H 0.20702 0.71783 0.82189
 C833 C 0.77433 0.32312 0.84517
 C834 C 0.75007 0.34604 0.84588
 C835 C 0.72586 0.34535 0.82297
 C836 C 0.72591 0.32184 0.79944
 C837 C 0.74986 0.43453 0.93443
 C838 C 0.77435 0.29957 0.82168
 C839 C 0.75002 0.37024 0.87010
 C840 C 0.74995 0.39051 0.89040
 C841 C 0.74989 0.41425 0.91415
 C842 C 0.75014 0.29881 0.79867
 H843 H 0.79316 0.32343 0.86278
 H844 H 0.70700 0.36297 0.82330
 H845 H 0.70713 0.32160 0.78177
 H846 H 0.79315 0.28188 0.82143
 C847 C 0.67659 0.84579 0.22587
 C848 C 0.65358 0.84638 0.24998
 C849 C 0.65424 0.82335 0.27411
 C850 C 0.67780 0.79981 0.27411
 C851 C 0.56483 0.93490 0.24997
 C852 C 0.70019 0.82230 0.22589
 C853 C 0.62929 0.87058 0.24996
 C854 C 0.60895 0.89086 0.24995
 C855 C 0.58515 0.91461 0.24996
 C856 C 0.70092 0.79916 0.25000
 H857 H 0.67630 0.86350 0.20710
 H858 H 0.63655 0.82358 0.29286
 H859 H 0.67802 0.78204 0.29281
 H860 H 0.71795 0.82213 0.20720
 C861 C 0.65466 0.17723 0.72578
 C862 C 0.65391 0.15423 0.74993
 C863 C 0.67687 0.15474 0.77409
 C864 C 0.70051 0.17815 0.77410
 C865 C 0.56502 0.06607 0.74995
 C866 C 0.67825 0.20067 0.72580
 C867 C 0.62959 0.13012 0.74991
 C868 C 0.60921 0.10994 0.74992
 C869 C 0.58537 0.08629 0.74993
 C870 C 0.70132 0.20126 0.74996
 H871 H 0.63700 0.17705 0.70699
 H872 H 0.67652 0.13705 0.79287
 H873 H 0.71822 0.17826 0.79283
 H874 H 0.67853 0.21843 0.70709
 C875 C 0.32280 0.84523 0.77443
 C876 C 0.34570 0.84599 0.75021
 C877 C 0.34508 0.82304 0.72604
 C878 C 0.32166 0.79942 0.72608
 C879 C 0.43387 0.93487 0.75007
 C880 C 0.29934 0.82164 0.77445
 C881 C 0.36980 0.87031 0.75016
 C882 C 0.39000 0.89068 0.75013
 C883 C 0.41365 0.91452 0.75010
 C884 C 0.29864 0.79861 0.75027
 H885 H 0.32306 0.86287 0.79323
 H886 H 0.36269 0.82341 0.70721
 H887 H 0.32146 0.78173 0.70733
 H888 H 0.28166 0.82136 0.79321
   
