data_POSCAR
  _audit_creation_date              2014-09-24
  _audit_creation_method            'ToBaCCo'
  _symmetry_space_group_name_H-M    'P1'
  _symmetry_Int_Tables_number       1
  _symmetry_cell_setting            triclinic
  loop_
  _symmetry_equiv_pos_as_xyz
 x,y,z
_cell_length_a 13.9474
_cell_length_b 13.7218
_cell_length_c 34.0626
_cell_angle_alpha 90.011400
_cell_angle_beta 90.533700
_cell_angle_gamma 119.289200
loop_
  _atom_site_label
  _atom_site_type_symbol
  _atom_site_fract_x
  _atom_site_fract_y
  _atom_site_fract_z
C1 C 0.05916 0.19888 0.53798
 H2 H 0.13141 0.23061 0.52002
 C3 C 0.06043 0.26362 0.56951
 H4 H 0.13176 0.34484 0.57462
 C5 C -0.11391 0.04979 0.55678
 H6 H -0.17823 -0.03588 0.55291
 C7 C -0.11629 0.11283 0.58882
 H8 H -0.18424 0.07646 0.60907
 N9 N -0.02657 0.09369 0.53216
 C10 C -0.05104 -0.19811 0.53193
 H11 H -0.11636 -0.22974 0.51029
 C12 C -0.05981 -0.26617 0.56350
 H13 H -0.13032 -0.34920 0.56525
 C14 C 0.11080 -0.04757 0.55912
 H15 H 0.17266 0.03980 0.55851
 C16 C 0.10632 -0.11416 0.59102
 H17 H 0.16722 -0.07860 0.61435
 Zn18 Zn 0.00444 0.00475 0.49755
 N19 N 0.03162 -0.09005 0.53066
 C20 C 0.22014 0.11766 0.45864
 N21 N 0.11873 0.10593 0.46470
 C22 C 0.08116 0.16423 0.44328
 C23 C 0.14422 0.23564 0.41373
 C24 C 0.28633 0.18834 0.42867
 C25 C -0.21441 -0.12651 0.45858
 C26 C -0.27810 -0.20144 0.42847
 C27 C -0.11344 -0.19577 0.40399
 C28 C -0.05504 -0.12568 0.43484
 N29 N -0.10459 -0.09017 0.46088
 H30 H 0.24735 0.06900 0.47566
 H31 H -0.00031 0.15215 0.44855
 H32 H 0.11112 0.27832 0.39615
 H33 H 0.36478 0.19382 0.42242
 H34 H -0.25244 -0.09797 0.47985
 H35 H -0.36455 -0.22619 0.42614
 H36 H -0.06988 -0.22170 0.38408
 H37 H 0.03147 -0.09906 0.43810
 C38 C 0.01883 -0.22431 0.59367
 C39 C -0.02755 0.22078 0.59543
 C40 C -0.22711 -0.23592 0.40001
 C41 C 0.24690 0.24662 0.40557
 C42 C 1.19931 0.05564 0.12960
 H43 H 1.22966 0.12896 0.14805
 C44 C 1.26527 0.05503 0.09929
 H45 H 1.34583 0.12692 0.09518
 C46 C 1.05279 -0.11967 0.10897
 H47 H 0.96807 -0.18448 0.11176
 C48 C 1.11674 -0.12396 0.07823
 H49 H 1.08142 -0.19334 0.05769
 N50 N 1.09467 -0.03008 0.13369
 C51 C 0.80730 -0.05929 0.12811
 H52 H 0.77876 -0.13456 0.14515
 C53 C 0.74015 -0.05724 0.09805
 H54 H 0.66058 -0.13004 0.09275
 C55 C 0.95069 0.11995 0.11052
 H56 H 1.03474 0.18599 0.11435
 C57 C 0.88549 0.12564 0.08000
 H58 H 0.91922 0.19711 0.06064
 Zn59 Zn 1.00307 -0.00167 0.16710
 N60 N 0.91085 0.02786 0.13369
 C61 C 1.10539 0.21553 0.20807
 N62 N 1.09641 0.11320 0.20226
 C63 C 1.15428 0.07745 0.22463
 C64 C 1.22335 0.14388 0.25461
 C65 C 1.17409 0.28532 0.23829
 C66 C 0.90400 -0.21897 0.20705
 C67 C 0.83631 -0.28922 0.23684
 C68 C 0.77999 -0.15230 0.25153
 C69 C 0.84888 -0.08493 0.22225
 N70 N 0.90974 -0.11822 0.20091
 H71 H 1.05739 0.24147 0.19024
 H72 H 1.14476 -0.00464 0.21948
 H73 H 1.26648 0.11260 0.27276
 H74 H 1.17859 0.36511 0.24394
 H75 H 0.95454 -0.24273 0.19008
 H76 H 0.83530 -0.36705 0.24313
 H77 H 0.73496 -0.12263 0.26907
 H78 H 0.85622 -0.00383 0.21697
 C79 C 0.77930 0.03534 0.07331
 C80 C 1.22387 -0.03484 0.07292
 C81 C 0.77468 -0.25453 0.25958
 C82 C 1.23279 0.24828 0.26206
 C83 C 0.06762 0.91542 0.89086
 H84 H -0.01431 0.84724 0.88501
 C85 C 0.13033 0.90552 0.92075
 H86 H 0.09648 0.82982 0.93803
 C87 C 0.20871 1.09895 0.87624
 H88 H 0.23712 1.17449 0.85922
 C89 C 0.27467 1.09281 0.90653
 H90 H 0.35416 1.16430 0.91308
 N91 N 0.10658 1.01087 0.86953
 C92 C -0.22314 0.90523 0.87426
 H93 H -0.25906 0.83459 0.85433
 C94 C -0.28629 0.91476 0.90451
 H95 H -0.37052 0.84933 0.90821
 C96 C -0.06850 1.07440 0.89513
 H97 H 0.01637 1.13737 0.89106
 C98 C -0.12664 1.08563 0.92583
 H99 H -0.08545 1.15745 0.94519
 Zn100 Zn -0.00628 0.99830 0.83517
 N101 N -0.11585 0.98470 0.87056
 C102 C -0.12127 0.83753 0.77421
 N103 N -0.03587 0.87878 0.80034
 C104 C 0.04954 0.85795 0.79600
 C105 C 0.05271 0.79571 0.76440
 C106 C -0.12170 0.77341 0.74204
 C107 C -0.06276 1.14326 0.79905
 C108 C -0.06905 1.20435 0.76754
 C109 C 0.10197 1.22365 0.74382
 C110 C 0.10421 1.16008 0.77567
 N111 N 0.02164 1.12025 0.80225
 H112 H -0.18533 0.85984 0.77701
 H113 H 0.12035 0.89661 0.81524
 H114 H 0.12394 0.78485 0.76051
 H115 H -0.18799 0.74371 0.72060
 H116 H -0.13089 1.10651 0.81901
 H117 H -0.14038 1.21554 0.76421
 H118 H 0.16570 1.25159 0.72191
 H119 H 0.16747 1.13630 0.77769
 C120 C -0.23698 1.00539 0.93125
 C121 C 0.23422 0.99524 0.92935
 C122 C 0.01332 1.24458 0.73930
 C123 C -0.03306 0.75311 0.73688
 C124 C 0.29196 -0.01010 -0.03469
 C125 C 0.23803 -0.02342 0.00099
 C126 C 0.28586 -0.02714 0.03677
 C127 C 0.39274 -0.01506 0.03713
 C128 C 0.44655 -0.00669 0.00103
 C129 C 0.39523 -0.00589 -0.03504
 C130 C 0.44777 -0.00230 -0.07041
 C131 C 0.54917 0.00106 -0.07046
 C132 C 0.60277 0.00202 -0.03511
 C133 C 0.55228 0.00169 0.00104
 C134 C 0.44714 -0.01139 0.07247
 C135 C 0.55400 0.00577 0.07254
 C136 C 0.60786 0.01162 0.03722
 C137 C 0.71648 0.02888 0.03705
 C138 C 0.76509 0.02967 0.00135
 C139 C 0.70897 0.01169 -0.03473
 H140 H 0.41061 -0.00271 -0.09848
 H141 H 0.58666 0.00681 -0.09862
 H142 H 0.40860 -0.01969 0.10059
 H143 H 0.59362 0.01397 0.10072
 H144 H 0.15811 -0.02798 0.00098
 H145 H 0.84614 0.03686 0.00206
 C146 C -0.02008 0.28454 0.63151
 C147 C -0.01038 0.24054 0.66741
 C148 C -0.00010 0.29636 0.70292
 C149 C -0.00649 0.39636 0.70284
 C150 C -0.01087 0.44484 0.66653
 C151 C -0.01427 0.39051 0.63071
 C152 C -0.01129 0.44391 0.59516
 C153 C -0.00047 0.55016 0.59481
 C154 C -0.00318 0.60299 0.62983
 C155 C -0.01094 0.54847 0.66603
 C156 C -0.00774 0.44979 0.73789
 C157 C -0.01851 0.54531 0.73733
 C158 C -0.01777 0.59767 0.70176
 C159 C -0.02329 0.69802 0.70088
 C160 C -0.01071 0.75314 0.66516
 C161 C 0.00266 0.70913 0.62984
 H162 H -0.01480 0.40548 0.56710
 H163 H 0.00821 0.58909 0.56655
 H164 H -0.00239 0.41764 0.76628
 H165 H -0.02509 0.57865 0.76529
 H166 H -0.00975 0.16177 0.66769
 H167 H -0.01018 0.83248 0.66492
 C168 C 0.71845 0.70203 0.36771
 C169 C 0.77086 0.73636 0.33115
 C170 C 0.71848 0.68684 0.29581
 C171 C 0.61089 0.59561 0.29610
 C172 C 0.55858 0.55282 0.33254
 C173 C 0.61179 0.60575 0.36851
 C174 C 0.56175 0.55383 0.40403
 C175 C 0.46060 0.45621 0.40439
 C176 C 0.40531 0.40551 0.36927
 C177 C 0.45347 0.45540 0.33296
 C178 C 0.55459 0.54597 0.26093
 C179 C 0.44946 0.45371 0.26138
 C180 C 0.39787 0.40649 0.29702
 C181 C 0.29336 0.30965 0.29781
 C182 C 0.24824 0.26081 0.33379
 C183 C 0.30304 0.30589 0.36935
 H184 H 0.60219 0.58506 0.43207
 H185 H 0.42644 0.42036 0.43259
 H186 H 0.59181 0.57772 0.23270
 H187 H 0.40985 0.41825 0.23349
 H188 H 0.85112 0.81055 0.32938
 H189 H 0.16935 0.18461 0.33408
   
