data_POSCAR
  _audit_creation_date              2014-09-24
  _audit_creation_method            'ToBaCCo'
  _symmetry_space_group_name_H-M    'P1'
  _symmetry_Int_Tables_number       1
  _symmetry_cell_setting            triclinic
  loop_
  _symmetry_equiv_pos_as_xyz
 x,y,z
_cell_length_a 16.3527
_cell_length_b 16.1162
_cell_length_c 16.4039
_cell_angle_alpha 91.360900
_cell_angle_beta 90.145900
_cell_angle_gamma 90.761800
loop_
  _atom_site_label
  _atom_site_type_symbol
  _atom_site_fract_x
  _atom_site_fract_y
  _atom_site_fract_z
C1 C -0.01468 0.42204 0.20088
 C2 C 0.05650 0.41645 0.26194
 C3 C 0.07294 0.48608 0.30945
 C4 C 0.00815 0.55455 0.29358
 C5 C -0.08863 0.44551 0.25113
 C6 C -0.07693 0.51130 0.30261
 C7 C 0.00269 0.49961 0.15295
 C8 C 0.01359 0.56906 0.20028
 H9 H 0.09166 0.36043 0.26290
 H10 H 0.01519 0.61193 0.33158
 H11 H -0.14677 0.41249 0.24662
 H12 H -0.00347 0.50163 0.08721
 C13 C 0.00850 0.42088 0.79660
 C14 C -0.03483 0.39786 0.72184
 C15 C -0.04546 0.46344 0.66624
 C16 C 0.01045 0.53456 0.68710
 C17 C 0.08910 0.44507 0.77071
 C18 C 0.09196 0.50090 0.70610
 C19 C -0.02764 0.50072 0.82556
 C20 C -0.02313 0.56629 0.76501
 H21 H -0.06525 0.33814 0.71483
 H22 H 0.01592 0.58020 0.63824
 H23 H 0.14286 0.44012 0.80857
 H24 H -0.04485 0.51276 0.88839
 C25 C 0.19174 -0.00183 0.40566
 C26 C 0.22924 0.08362 0.41909
 C27 C 0.27449 0.09149 0.48835
 C28 C 0.27589 0.01232 0.54058
 C29 C 0.26486 -0.05983 0.41123
 C30 C 0.30559 -0.05778 0.48245
 C31 C 0.14088 -0.01639 0.48338
 C32 C 0.18514 -0.00846 0.55423
 H33 H 0.22284 0.13323 0.37612
 H34 H 0.31154 0.02146 0.59761
 H35 H 0.28130 -0.10322 0.36352
 H36 H 0.07542 -0.02651 0.48219
 C37 C 0.79096 -0.00041 0.41630
 C38 C 0.77002 -0.07749 0.45390
 C39 C 0.71519 -0.07135 0.52024
 C40 C 0.70242 0.01434 0.54813
 C41 C 0.70818 0.04350 0.40609
 C42 C 0.66755 0.06153 0.47607
 C43 C 0.83487 0.04724 0.48735
 C44 C 0.78937 0.05093 0.55864
 H45 H 0.80883 -0.13118 0.45172
 H46 H 0.66493 0.01834 0.60432
 H47 H 0.68543 0.06307 0.34788
 H48 H 0.90050 0.05637 0.48748
 C49 C 0.41461 0.18381 1.01041
 C50 C 0.43114 0.22803 1.08564
 C51 C 0.49828 0.28391 1.08670
 C52 C 0.54524 0.27913 1.00849
 C53 C 0.41271 0.24693 0.94868
 C54 C 0.48594 0.29629 0.94195
 C55 C 0.48985 0.13800 0.99499
 C56 C 0.56326 0.19015 0.99584
 H57 H 0.41325 0.20476 1.14379
 H58 H 0.59917 0.32163 1.00764
 H59 H 0.36540 0.24692 0.90212
 H60 H 0.49109 0.07097 0.99398
 C61 C 0.41285 0.78010 1.00013
 C62 C 0.43847 0.73433 0.92334
 C63 C 0.50603 0.68742 0.93204
 C64 C 0.54062 0.68990 1.01968
 C65 C 0.40246 0.71196 1.05962
 C66 C 0.47023 0.66997 1.07799
 C67 C 0.48636 0.82808 1.02688
 C68 C 0.55918 0.77718 1.03593
 H69 H 0.40926 0.74431 0.86507
 H70 H 0.58869 0.64506 1.02614
 H71 H 0.34378 0.70032 1.08477
 H72 H 0.48841 0.89517 1.02722
 B73 B 0.98620 1.07154 0.04202
 B74 B 1.03484 0.97909 0.06993
 B75 B 0.93095 0.98002 0.06850
 B76 B 0.89868 1.03835 -0.01454
 B77 B 0.98732 1.07580 -0.06262
 B78 B 1.07135 1.03713 -0.01108
 B79 B 0.98138 0.90116 -0.07814
 B80 B 0.93096 0.99043 -0.10319
 B81 B 1.03612 0.99171 -0.10349
 B82 B 1.06788 0.93167 -0.02202
 B83 B 0.98688 0.89417 0.02708
 B84 B 0.89732 0.92895 -0.01835
 B85 B 0.59246 0.50282 0.45840
 B86 B 0.50582 0.56183 0.43043
 B87 B 0.50069 0.45685 0.42586
 B88 B 0.55277 0.41680 0.51163
 B89 B 0.59912 0.50258 0.56140
 B90 B 0.56753 0.59260 0.51264
 B91 B 0.42748 0.51472 0.57405
 B92 B 0.50856 0.45305 0.60091
 B93 B 0.52228 0.55822 0.60354
 B94 B 0.46385 0.60152 0.52436
 B95 B 0.41834 0.51642 0.46961
 B96 B 0.44865 0.42476 0.51302
 C97 C 1.01536 1.32491 0.07934
 C98 C 0.97279 1.34189 0.15131
 C99 C 0.93899 1.27394 0.19013
 C100 C 0.94896 1.19321 0.16039
 C101 C 0.99529 1.16939 0.09077
 C102 C 1.03321 1.24147 0.05508
 C103 C 1.12177 1.27421 0.05478
 C104 C 1.09579 1.36152 0.06140
 H105 H 0.90786 1.28192 0.24784
 H106 H 0.91894 1.15330 0.19837
 H107 H 1.15803 1.26411 -0.00031
 H108 H 1.15548 1.26203 0.11159
 H109 H 1.09581 1.39404 0.00241
 H110 H 1.12672 1.39643 0.11218
 C111 C 1.07081 0.67006 0.10402
 C112 C 1.01298 0.64966 0.16110
 C113 C 0.94638 0.70146 0.16574
 C114 C 0.94386 0.77263 0.11707
 C115 C 1.00595 0.80142 0.06769
 C116 C 1.07479 0.74510 0.06401
 C117 C 1.16541 0.71892 0.03753
 C118 C 1.14918 0.63631 0.08354
 H119 H 0.89383 0.68306 0.20084
 H120 H 0.88894 0.80134 0.10773
 H121 H 1.20542 0.75495 0.08208
 H122 H 1.21236 0.72554 -0.13317
 H123 H 1.18535 0.62813 0.13937
 H124 H 1.14019 0.57877 0.04563
 C125 C 1.07543 1.29427 -0.14610
 C126 C 1.00870 1.34842 -0.15089
 C127 C 0.93487 1.31288 -0.12322
 C128 C 0.92890 1.22803 -0.10140
 C129 C 0.99573 1.17146 -0.10171
 C130 C 1.07070 1.21257 -0.12097
 C131 C 1.15662 1.19874 -0.15223
 C132 C 1.15704 1.28511 -0.18459
 H133 H 0.87925 1.34859 -0.12555
 H134 H 0.86944 1.20923 -0.08595
 H135 H 1.16592 1.15180 -0.20103
 H136 H 1.20414 1.19993 -0.10496
 H137 H 1.15395 1.28460 -0.25205
 H138 H 1.20538 1.32561 -0.15620
 C139 C 0.89616 0.68407 -0.17522
 C140 C 0.96276 0.65281 -0.21873
 C141 C 1.01831 0.71337 -0.24355
 C142 C 1.02982 0.78634 -0.19456
 C143 C 0.97082 0.81548 -0.13804
 C144 C 0.89835 0.76661 -0.13978
 C145 C 0.81917 0.78838 -0.18110
 C146 C 0.81800 0.70353 -0.21825
 H147 H 1.06078 0.69885 -0.29124
 H148 H 1.08599 0.81662 -0.20252
 H149 H 0.82109 0.83682 -0.22663
 H150 H 0.76483 0.79725 -0.14274
 H151 H 0.82378 0.70385 -0.28518
 H152 H 0.76590 0.66772 -0.19632
 C153 C 1.16179 0.91914 0.27392
 C154 C 1.14682 0.98760 0.32497
 C155 C 1.08285 1.03820 0.30311
 C156 C 1.04479 1.02625 0.22714
 C157 C 1.06988 0.96863 0.16635
 C158 C 1.12378 0.90738 0.19617
 C159 C 1.10067 0.82266 0.22884
 C160 C 1.14589 0.83625 0.30516
 H161 H 1.06247 1.08723 0.34423
 H162 H 0.99627 1.06395 0.21599
 H163 H 1.13237 0.77164 0.19838
 H164 H 1.03442 0.81538 0.24103
 H165 H 1.20198 0.79826 0.30914
 H166 H 1.10614 0.83531 0.36019
 C167 C 1.09214 1.04915 -0.33866
 C168 C 1.14876 0.99137 -0.36305
 C169 C 1.17558 0.93928 -0.30166
 C170 C 1.14624 0.94726 -0.22043
 C171 C 1.08193 1.00137 -0.19590
 C172 C 1.06070 1.05652 -0.26039
 C173 C 1.01694 1.13340 -0.29101
 C174 C 1.05299 1.12012 -0.37520
 H175 H 1.21663 0.88983 -0.31690
 H176 H 1.17515 0.90889 -0.17697
 H177 H 1.03824 1.19384 -0.26737
 H178 H 0.95102 1.13092 -0.29369
 H179 H 1.09793 1.16879 -0.39258
 H180 H 1.00766 1.10104 -0.42266
 C181 C 0.86477 0.91546 0.29783
 C182 C 0.83570 0.99154 0.33218
 C183 C 0.82301 1.05446 0.27486
 C184 C 0.83311 1.04096 0.19007
 C185 C 0.87662 0.97377 0.15791
 C186 C 0.87496 0.90580 0.21106
 C187 C 0.80270 0.84386 0.21665
 C188 C 0.82002 0.83518 0.30331
 H189 H 0.79947 1.11407 0.29465
 H190 H 0.81475 1.08945 0.15148
 H191 H 0.79989 0.78137 0.18830
 H192 H 0.74303 0.87508 0.20700
 H193 H 0.86275 0.78385 0.31614
 H194 H 0.76288 0.82899 0.33585
 C195 C 0.87803 0.97815 -0.34532
 C196 C 0.82748 1.04354 -0.36019
 C197 C 0.80455 1.09044 -0.29106
 C198 C 0.83911 1.07424 -0.21303
 C199 C 0.88824 1.00328 -0.19606
 C200 C 0.90584 0.95680 -0.26925
 C201 C 0.95057 0.88663 -0.31326
 C202 C 0.91731 0.91317 -0.39415
 H203 H 0.76363 1.14219 -0.29756
 H204 H 0.82522 1.11908 -0.16741
 H205 H 0.92632 0.82388 -0.30257
 H206 H 1.01767 0.89214 -0.31179
 H207 H 0.87284 0.86782 -0.42132
 H208 H 0.96443 0.93802 -0.43577
 C209 C 1.27653 1.15226 0.07112
 C210 C 1.33731 1.13689 0.01202
 C211 C 1.31000 1.08943 -0.05622
 C212 C 1.22745 1.06146 -0.06342
 C213 C 1.16540 1.07843 -0.00411
 C214 C 1.19814 1.11855 0.06593
 C215 C 1.19260 1.11272 0.15651
 C216 C 1.27626 1.15206 0.16219
 H217 H 1.35156 1.07667 -0.10615
 H218 H 1.21405 1.02754 -0.11714
 H219 H 1.19912 1.04964 0.17852
 H220 H 1.14431 1.15090 0.18550
 H221 H 1.32255 1.10986 0.18799
 H222 H 1.27541 1.21562 0.19006
 C223 C 0.66005 1.08607 -0.05523
 C224 C 0.64320 1.15812 -0.01052
 C225 C 0.71201 1.19655 0.02767
 C226 C 0.79063 1.15990 0.02461
 C227 C 0.80737 1.08494 -0.01973
 C228 C 0.73717 1.05381 -0.06462
 C229 C 0.70089 0.98754 -0.12328
 C230 C 0.61737 1.02638 -0.11093
 H231 H 0.70534 1.25307 0.06376
 H232 H 0.83900 1.19297 0.05557
 H233 H 0.70100 0.92284 -0.10330
 H234 H 0.71785 0.99039 -0.18808
 H235 H 0.57381 0.98475 -0.07930
 H236 H 0.59320 1.05660 -0.16609
 C237 C 1.26776 0.77151 -0.04211
 C238 C 1.33015 0.81963 -0.01004
 C239 C 1.30335 0.89125 0.02978
 C240 C 1.21967 0.91431 0.03076
 C241 C 1.15406 0.88290 -0.02079
 C242 C 1.17062 0.80867 -0.06448
 C243 C 1.12058 0.68277 -0.08518
 C244 C 1.24483 0.65098 -0.05436
 H245 H 1.34587 0.92620 0.06840
 H246 H 1.20739 0.96080 0.07554
 H247 H 1.10946 0.65940 -0.14718
 H248 H 1.06704 0.65553 -0.05324
 H249 H 1.28138 0.62374 -0.10506
 H250 H 1.26312 0.61284 -0.00209
 C251 C 0.70962 0.75817 0.02614
 C252 C 0.64135 0.80750 0.04198
 C253 C 0.66107 0.89134 0.05492
 C254 C 0.74206 0.92145 0.04418
 C255 C 0.80669 0.87666 0.00355
 C256 C 0.78554 0.78911 0.00154
 C257 C 0.81494 0.69903 0.00178
 C258 C 0.73805 0.67353 0.04474
 H259 H 0.61519 0.93428 0.07657
 H260 H 0.75051 0.98278 0.06790
 H261 H 0.87010 0.67860 0.03212
 H262 H 0.81079 0.66726 -0.05777
 H263 H 0.74728 0.66605 0.11128
 H264 H 0.70953 0.61856 0.01494
 C265 C 0.83660 0.46949 0.41826
 C266 C 0.85753 0.52956 0.36186
 C267 C 0.79574 0.58524 0.34269
 C268 C 0.71595 0.57565 0.37495
 C269 C 0.68767 0.50382 0.41543
 C270 C 0.75461 0.45116 0.43540
 C271 C 0.77650 0.36004 0.43372
 C272 C 0.86536 0.38332 0.42685
 H273 H 0.80798 0.63532 0.30167
 H274 H 0.67582 0.62548 0.36679
 H275 H 0.75776 0.32750 0.37600
 H276 H 0.76483 0.32556 0.49004
 H277 H 0.89564 0.35425 0.37350
 H278 H 0.89986 0.37609 0.48461
 C279 C 0.17423 0.56034 0.41396
 C280 C 0.15149 0.49383 0.36119
 C281 C 0.21250 0.43262 0.35618
 C282 C 0.29147 0.44402 0.39058
 C283 C 0.31896 0.51491 0.43605
 C284 C 0.25113 0.56965 0.45293
 C285 C 0.22708 0.65806 0.47731
 C286 C 0.14588 0.64490 0.43241
 H287 H 0.20374 0.37585 0.32119
 H288 H 0.33139 0.39383 0.37896
 H289 H 0.26315 0.70947 0.45365
 H290 H 0.21417 0.67156 0.54157
 H291 H 0.14086 0.68167 0.37647
 H292 H 0.09145 0.64523 0.47289
 C293 C 0.84327 0.54947 0.61481
 C294 C 0.87317 0.47287 0.63517
 C295 C 0.81309 0.40867 0.63472
 C296 C 0.73040 0.42246 0.61475
 C297 C 0.69767 0.50070 0.59609
 C298 C 0.76091 0.56524 0.59768
 C299 C 0.79470 0.64098 0.55253
 C300 C 0.88098 0.61694 0.56917
 H301 H 0.82907 0.34487 0.64401
 H302 H 0.69539 0.36745 0.60468
 H303 H 0.78884 0.70156 0.58422
 H304 H 0.78161 0.64552 0.48797
 H305 H 0.91451 0.66349 0.60804
 H306 H 0.91434 0.59453 0.51425
 C307 C 0.20947 0.58588 0.66166
 C308 C 0.16693 0.51014 0.66337
 C309 C 0.21549 0.43972 0.65296
 C310 C 0.29974 0.44543 0.64026
 C311 C 0.34092 0.52009 0.62526
 C312 C 0.29463 0.59261 0.64114
 C313 C 0.30432 0.65177 0.71389
 C314 C 0.21715 0.64021 0.73381
 H315 H 0.18882 0.37856 0.65876
 H316 H 0.33339 0.38895 0.64348
 H317 H 0.31108 0.71768 0.70170
 H318 H 0.34598 0.63421 0.76262
 H319 H 0.18455 0.69943 0.72968
 H320 H 0.20772 0.60294 0.78854
 C321 C 0.42631 0.66695 0.22428
 C322 C 0.48302 0.64741 0.16414
 C323 C 0.55268 0.60713 0.19162
 C324 C 0.55919 0.58328 0.27380
 C325 C 0.49885 0.59874 0.33546
 C326 C 0.42986 0.63786 0.30204
 C327 C 0.34132 0.65739 0.31311
 C328 C 0.33841 0.68498 0.22738
 H329 H 0.60034 0.58898 0.14954
 H330 H 0.60938 0.54507 0.28367
 H331 H 0.32927 0.71203 0.35090
 H332 H 0.30034 0.60351 0.31661
 H333 H 0.32477 0.75196 0.22050
 H334 H 0.30315 0.63966 0.18947
 C335 C 0.57189 0.57684 0.84519
 C336 C 0.55021 0.65956 0.85867
 C337 C 0.54723 0.71054 0.79132
 C338 C 0.53705 0.67460 0.71423
 C339 C 0.54630 0.59250 0.69684
 C340 C 0.57796 0.54652 0.76311
 C341 C 0.66546 0.52351 0.77869
 C342 C 0.65435 0.54696 0.86631
 H343 H 0.54063 0.77697 0.79963
 H344 H 0.52814 0.70942 0.66354
 H345 H 0.70832 0.56455 0.74692
 H346 H 0.68268 0.45799 0.77224
 H347 H 0.69636 0.59682 0.88701
 H348 H 0.65102 0.49295 0.90720
 C349 C 0.43395 0.35502 0.20097
 C350 C 0.50651 0.33269 0.16083
 C351 C 0.57879 0.35784 0.20052
 C352 C 0.57641 0.39679 0.27989
 C353 C 0.50248 0.41552 0.32525
 C354 C 0.43217 0.40203 0.27496
 C355 C 0.37898 0.46161 0.22791
 C356 C 0.37024 0.40113 0.15872
 H357 H 0.63726 0.34485 0.17254
 H358 H 0.63556 0.41360 0.30345
 H359 H 0.41462 0.51365 0.20582
 H360 H 0.31840 0.47890 0.25024
 H361 H 0.38951 0.42626 0.09897
 H362 H 0.31074 0.36686 0.15778
 C363 C 0.43276 0.37604 0.83105
 C364 C 0.49867 0.33672 0.86571
 C365 C 0.56851 0.33212 0.81603
 C366 C 0.56861 0.36410 0.73464
 C367 C 0.50179 0.40621 0.69704
 C368 C 0.43430 0.41269 0.75356
 C369 C 0.38980 0.48488 0.79547
 C370 C 0.38733 0.44118 0.87441
 H371 H 0.62186 0.29999 0.83754
 H372 H 0.62257 0.35241 0.70180
 H373 H 0.32547 0.49452 0.77873
 H374 H 0.42624 0.54224 0.80040
 H375 H 0.32526 0.41942 0.89241
 H376 H 0.42335 0.47347 0.92365
 C377 C 0.62001 0.82981 0.46011
 C378 C 0.65963 0.86293 0.52899
 C379 C 0.66977 0.80761 0.59254
 C380 C 0.64574 0.72294 0.58294
 C381 C 0.61412 0.68634 0.50956
 C382 C 0.61060 0.74536 0.44545
 C383 C 0.60179 0.76417 0.35435
 C384 C 0.60513 0.85619 0.37568
 H385 H 0.70278 0.82730 0.64721
 H386 H 0.66039 0.68397 0.63294
 H387 H 0.54511 0.75037 0.32068
 H388 H 0.65542 0.74558 0.31742
 H389 H 0.54492 0.88649 0.37053
 H390 H 0.65370 0.89204 0.34573
 C391 C 0.60160 0.17436 0.56189
 C392 C 0.63197 0.14608 0.48710
 C393 C 0.64142 0.20619 0.42739
 C394 C 0.61742 0.28778 0.44116
 C395 C 0.58488 0.31876 0.51350
 C396 C 0.57737 0.25715 0.57610
 C397 C 0.50909 0.22225 0.62995
 C398 C 0.53708 0.13519 0.61100
 H399 H 0.66815 0.19251 0.36862
 H400 H 0.62638 0.32773 0.39340
 H401 H 0.44575 0.23463 0.61194
 H402 H 0.51594 0.23082 0.69624
 H403 H 0.49305 0.09721 0.57381
 H404 H 0.56239 0.10358 0.66486
 C405 C 0.35357 0.83430 0.58001
 C406 C 0.35315 0.86734 0.50291
 C407 C 0.39813 0.82551 0.44361
 C408 C 0.43244 0.74862 0.45859
 C409 C 0.42818 0.70473 0.53029
 C410 C 0.39544 0.75764 0.59528
 C411 C 0.43782 0.81406 0.66116
 C412 C 0.38645 0.88555 0.64739
 H413 H 0.40600 0.85100 0.38365
 H414 H 0.46449 0.72358 0.41157
 H415 H 0.50222 0.83205 0.64668
 H416 H 0.42738 0.79230 0.72385
 H417 H 0.42259 0.94093 0.62848
 H418 H 0.34435 0.89750 0.69873
 C419 C 0.39731 0.18050 0.46922
 C420 C 0.32069 0.16885 0.50513
 C421 C 0.27672 0.24031 0.52488
 C422 C 0.31151 0.31958 0.51591
 C423 C 0.39532 0.33310 0.49773
 C424 C 0.43069 0.26136 0.46028
 C425 C 0.43964 0.23936 0.37033
 C426 C 0.41890 0.15080 0.38614
 H427 H 0.21245 0.23525 0.53994
 H428 H 0.26944 0.36958 0.51950
 H429 H 0.50134 0.24626 0.34401
 H430 H 0.38993 0.26601 0.33357
 H431 H 0.47315 0.10994 0.38684
 H432 H 0.36749 0.12679 0.34779
   
