data_POSCAR
  _audit_creation_date              2014-09-24
  _audit_creation_method            'ToBaCCo'
  _symmetry_space_group_name_H-M    'P1'
  _symmetry_Int_Tables_number       1
  _symmetry_cell_setting            triclinic
  loop_
  _symmetry_equiv_pos_as_xyz
 x,y,z
_cell_length_a 45.7434
_cell_length_b 45.7413
_cell_length_c 45.7430
_cell_angle_alpha 89.826600
_cell_angle_beta 90.001100
_cell_angle_gamma 89.999700
loop_
  _atom_site_label
  _atom_site_type_symbol
  _atom_site_fract_x
  _atom_site_fract_y
  _atom_site_fract_z
N1 N 0.18096 0.18033 0.17982
 N2 N -0.18010 0.81897 0.18142
 N3 N -0.18042 0.18134 -0.18125
 N4 N 0.18095 0.82029 -0.17995
 N5 N 0.18220 1.18254 0.81775
 N6 N 0.81792 0.81842 0.81807
 N7 N 0.18206 0.81784 1.18235
 N8 N 0.81793 1.18210 1.18188
 N9 N 0.53141 1.05188 0.96872
 N10 N 0.55380 1.06976 0.96523
 N11 N 0.46985 1.03175 0.94841
 N12 N 0.44767 1.03555 0.93032
 N13 N 0.46978 1.05187 0.96882
 N14 N 0.44745 1.06983 0.96529
 N15 N 0.53127 1.03178 0.94829
 N16 N 0.55347 1.03550 0.93022
 C17 C 0.56727 1.05926 0.94109
 C18 C 0.43392 1.05937 0.94116
 N19 N 0.47011 0.94830 0.96863
 N20 N 0.44788 0.93027 0.96507
 N21 N 0.53143 0.96878 0.94823
 N22 N 0.55359 0.96515 0.93009
 N23 N 0.53163 0.94852 0.96864
 N24 N 0.55397 0.93062 0.96502
 N25 N 0.46989 0.96879 0.94847
 N26 N 0.44742 0.96537 0.93070
 Mn27 Mn 0.50060 1.00027 0.94800
 C28 C 0.43398 0.94122 0.94133
 C29 C 0.56741 0.94127 0.94087
 N30 N 0.46994 1.05159 1.03171
 N31 N 0.44751 1.06940 1.03516
 N32 N 0.53150 1.03140 1.05206
 N33 N 0.55369 1.03509 1.07014
 N34 N 0.53155 1.05166 1.03167
 N35 N 0.55384 1.06964 1.03523
 N36 N 0.47004 1.03132 1.05210
 N37 N 0.44777 1.03487 1.07010
 Mn38 Mn 0.50068 1.05211 1.00023
 C39 C 0.43397 1.05870 1.05922
 C40 C 0.56740 1.05902 1.05933
 N41 N 0.53164 0.94831 1.03157
 N42 N 0.55407 0.93047 1.03503
 N43 N 0.47007 0.96828 1.05204
 N44 N 0.44790 0.96447 1.07012
 N45 N 0.47001 0.94816 1.03162
 N46 N 0.44768 0.93019 1.03515
 N47 N 0.53150 0.96840 1.05201
 N48 N 0.55373 0.96472 1.07004
 Mn49 Mn 0.50085 0.94796 1.00012
 Mn50 Mn 0.50077 0.99985 1.05240
 Cl51 Cl 0.50073 1.00005 1.00019
 C52 C 0.56756 0.94099 1.05914
 C53 C 0.43416 0.94064 1.05929
 N54 N -0.03171 0.46962 -0.05193
 N55 N -0.03512 0.44729 -0.06981
 N56 N -0.05218 0.53109 -0.03172
 N57 N -0.07026 0.55330 -0.03544
 N58 N -0.03176 0.53124 -0.05191
 N59 N -0.03531 0.55364 -0.06984
 N60 N -0.05217 0.46964 -0.03180
 N61 N -0.07018 0.44741 -0.03550
 C62 C -0.05923 0.43372 -0.05929
 C63 C -0.05943 0.56714 -0.05930
 N64 N -0.03194 0.53069 0.05155
 N65 N -0.03541 0.55298 0.06946
 N66 N -0.05228 0.46926 0.03120
 N67 N -0.07036 0.44704 0.03487
 N68 N -0.03190 0.46908 0.05142
 N69 N -0.03547 0.44668 0.06933
 N70 N -0.05232 0.53073 0.03133
 N71 N -0.07032 0.55296 0.03501
 Mn72 Mn -0.05259 0.50019 -0.00025
 C73 C -0.05946 0.56659 0.05888
 C74 C -0.05957 0.43319 0.05874
 N75 N 0.03122 0.53116 -0.05188
 N76 N 0.03485 0.55347 -0.06988
 N77 N 0.05162 0.46974 -0.03163
 N78 N 0.06978 0.44761 -0.03534
 N79 N 0.03122 0.46963 -0.05182
 N80 N 0.03483 0.44735 -0.06975
 N81 N 0.05136 0.53127 -0.03142
 N82 N 0.06916 0.55372 -0.03484
 Mn83 Mn -0.00026 0.50041 -0.05225
 C84 C 0.05859 0.56729 -0.05894
 C85 C 0.05899 0.43388 -0.05920
 N86 N 0.03105 0.46922 0.05150
 N87 N 0.03453 0.44670 0.06927
 N88 N 0.05137 0.53092 0.03152
 N89 N 0.06945 0.55307 0.03535
 N90 N 0.03094 0.53086 0.05169
 N91 N 0.03446 0.55308 0.06971
 N92 N 0.05151 0.46950 0.03136
 N93 N 0.06956 0.44727 0.03494
 Mn94 Mn -0.00046 0.49995 0.05190
 Mn95 Mn 0.05181 0.50036 -0.00005
 Cl96 Cl -0.00038 0.50023 -0.00016
 C97 C 0.05867 0.43330 0.05867
 C98 C 0.05859 0.56667 0.05924
 N99 N 0.94818 -0.03112 0.46952
 N100 N 0.93036 -0.03464 0.44710
 N101 N 0.96836 -0.05124 0.53123
 N102 N 0.96459 -0.06927 0.55351
 N103 N 0.94817 -0.03084 0.53115
 N104 N 0.93017 -0.03434 0.55346
 N105 N 0.96832 -0.05158 0.46980
 N106 N 0.96468 -0.06968 0.44768
 C107 C 0.94093 -0.05882 0.43378
 C108 C 0.94070 -0.05842 0.56715
 N109 N 1.05175 -0.03110 0.53081
 N110 N 1.06983 -0.03461 0.55304
 N111 N 1.03132 -0.05170 0.46964
 N112 N 1.03497 -0.06990 0.44758
 N113 N 1.05150 -0.03128 0.46929
 N114 N 1.06935 -0.03493 0.44692
 N115 N 1.03131 -0.05124 0.53118
 N116 N 1.03480 -0.06895 0.55375
 Mn117 Mn 0.99983 -0.05179 0.50047
 C118 C 1.05894 -0.05830 0.56709
 C119 C 1.05878 -0.05912 0.43365
 N120 N 0.94833 0.03208 0.53060
 N121 N 0.93052 0.03561 0.55302
 N122 N 0.96849 0.05222 0.46893
 N123 N 0.96476 0.07025 0.44664
 N124 N 0.94826 0.03184 0.46899
 N125 N 0.93028 0.03538 0.44668
 N126 N 0.96856 0.05244 0.53038
 N127 N 0.96499 0.07051 0.55254
 Mn128 Mn 0.94787 0.00049 0.50006
 C129 C 0.94118 0.05970 0.56641
 C130 C 0.94085 0.05944 0.43299
 N131 N 1.05160 0.03164 0.46890
 N132 N 1.06943 0.03501 0.44645
 N133 N 1.03160 0.05231 0.53035
 N134 N 1.03538 0.07044 0.55244
 N135 N 1.05177 0.03187 0.53052
 N136 N 1.06972 0.03543 0.55283
 N137 N 1.03147 0.05210 0.46891
 N138 N 1.03513 0.07006 0.44658
 Mn139 Mn 1.05201 0.00029 0.49987
 Mn140 Mn 1.00003 0.05262 0.49965
 Cl141 Cl 0.99993 0.00040 0.50001
 C142 C 1.05888 0.05909 0.43282
 C143 C 1.05923 0.05961 0.56623
 C144 C 1.14400 0.14380 0.25462
 N145 N 1.13939 0.17232 0.24782
 N146 N 1.15125 0.18401 0.22391
 C147 C 1.16806 0.16761 0.20574
 N148 N 1.17253 0.13902 0.21258
 N149 N 1.16080 0.12736 0.23658
 C150 C 1.13112 0.13101 0.28109
 N151 N 1.13847 0.10358 0.28980
 N152 N 1.12693 0.09206 0.31397
 C153 C 1.10750 0.10750 0.33020
 N154 N 1.10008 0.13489 0.32143
 N155 N 1.11173 0.14646 0.29735
 C156 C 1.09481 0.09486 0.35683
 N157 N 1.07302 0.10890 0.37124
 N158 N 1.06151 0.09744 0.39544
 C159 C 1.07149 0.07163 0.40618
 N160 N 1.09331 0.05759 0.39183
 N161 N 1.10472 0.06897 0.36754
 C162 C 0.85679 -0.14431 0.25595
 N163 N 0.86154 -0.17281 0.24933
 N164 N 0.84974 -0.18456 0.22548
 C165 C 0.83285 -0.16825 0.20722
 N166 N 0.82825 -0.13968 0.21387
 N167 N 0.83992 -0.12795 0.23780
 C168 C 0.86953 -0.13144 0.28239
 N169 N 0.86201 -0.10404 0.29087
 N170 N 0.87339 -0.09243 0.31500
 C171 C 0.89281 -0.10776 0.33144
 N172 N 0.90040 -0.13513 0.32290
 N173 N 0.88891 -0.14679 0.29885
 C174 C 0.90533 -0.09500 0.35803
 N175 N 0.92711 -0.10893 0.37266
 N176 N 0.93849 -0.09735 0.39680
 C177 C 0.92839 -0.07151 0.40724
 N178 N 0.90659 -0.05760 0.39267
 N179 N 0.89530 -0.06911 0.36845
 C180 C 0.85653 0.14481 0.74416
 N181 N 0.83964 0.12840 0.76225
 N182 N 0.82793 0.14006 0.78619
 C183 C 0.83250 0.16862 0.79291
 N184 N 0.84940 0.18499 0.77470
 N185 N 0.86124 0.17330 0.75085
 C186 C 0.86937 0.13200 0.71775
 N187 N 0.88881 0.14739 0.70139
 N188 N 0.90040 0.13579 0.67737
 C189 C 0.89286 0.10844 0.66875
 N190 N 0.87338 0.09306 0.68507
 N191 N 0.86189 0.10461 0.70918
 C192 C 0.90547 0.09574 0.64217
 N193 N 0.89544 0.06989 0.63165
 N194 N 0.90678 0.05844 0.60743
 C195 C 0.92865 0.07236 0.59296
 N196 N 0.93875 0.09815 0.60350
 N197 N 0.92731 0.10968 0.62764
 C198 C 1.14424 -0.14250 0.74546
 N199 N 1.17278 -0.13790 0.75210
 N200 N 1.18452 -0.14981 0.77597
 C201 C 1.16817 -0.16666 0.79424
 N202 N 1.13956 -0.17110 0.78756
 N203 N 1.12785 -0.15933 0.76361
 C204 C 1.13138 -0.12967 0.71899
 N205 N 1.10395 -0.13708 0.71047
 N206 N 1.09236 -0.12564 0.68629
 C207 C 1.10774 -0.10626 0.66985
 N208 N 1.13514 -0.09877 0.67842
 N209 N 1.14678 -0.11033 0.70252
 C210 C 1.09501 -0.09373 0.64317
 N211 N 1.10899 -0.07201 0.62849
 N212 N 1.09744 -0.06065 0.60425
 C213 C 1.07160 -0.07074 0.59376
 N214 N 1.05764 -0.09249 0.60839
 N215 N 1.06912 -0.10374 0.63271
 C216 C 0.25580 1.14350 1.14357
 N217 N 0.23782 1.16043 1.12709
 N218 N 0.21381 1.17212 1.13866
 C219 C 0.20690 1.16748 1.16721
 N220 N 0.22501 1.15055 1.18364
 N221 N 0.24894 1.13873 1.17205
 C222 C 0.28228 1.13065 1.13087
 N223 N 0.29850 1.11116 1.14635
 N224 N 0.32258 1.09953 1.13484
 C225 C 0.33139 1.10710 1.10751
 N226 N 0.31519 1.12663 1.09205
 N227 N 0.29103 1.13814 1.10350
 C228 C 0.35802 1.09445 1.09492
 N229 N 0.36872 1.10450 1.06910
 N230 N 0.39300 1.09314 1.05775
 C231 C 0.40735 1.07124 1.07176
 N232 N 0.39663 1.06112 1.09753
 N233 N 0.37243 1.07258 1.10895
 C234 C 0.25572 0.85663 0.85694
 N235 N 0.23770 0.87310 0.84005
 N236 N 0.21370 0.86150 0.82836
 C237 C 0.20685 0.83294 0.83295
 N238 N 0.22499 0.81651 0.84985
 N239 N 0.24891 0.82814 0.86168
 C240 C 0.28221 0.86937 0.86974
 N241 N 0.29852 0.85389 0.88915
 N242 N 0.32262 0.86543 0.90072
 C243 C 0.33135 0.89279 0.89316
 N244 N 0.31506 0.90825 0.87371
 N245 N 0.29088 0.89677 0.86226
 C246 C 0.35800 0.90541 0.90574
 N247 N 0.36860 0.93129 0.89571
 N248 N 0.39289 0.94268 0.90702
 C249 C 0.40735 0.92865 0.92883
 N250 N 0.39673 0.90282 0.93893
 N251 N 0.37252 0.89137 0.92752
 C252 C 0.74536 0.85605 1.14461
 N253 N 0.75197 0.86060 1.17315
 N254 N 0.77582 0.84872 1.18492
 C255 C 0.79408 0.83195 1.16861
 N256 N 0.78743 0.82754 1.13999
 N257 N 0.76351 0.83929 1.12824
 C258 C 0.71894 0.86891 1.13171
 N259 N 0.71042 0.86157 1.10427
 N260 N 0.68630 0.87308 1.09265
 C261 C 0.66994 0.89245 1.10800
 N262 N 0.67852 0.89986 1.13540
 N263 N 0.70255 0.88824 1.14708
 C264 C 0.64336 0.90511 1.09524
 N265 N 0.62883 0.92686 1.10919
 N266 N 0.60468 0.93835 1.09763
 C267 C 0.59413 0.92838 1.07180
 N268 N 0.60860 0.90660 1.05785
 N269 N 0.63283 0.89520 1.06934
 C270 C 0.74500 1.14430 0.85555
 N271 N 0.75167 1.13967 0.82704
 N272 N 0.77553 1.15154 0.81526
 C273 C 0.79375 1.16838 0.83156
 N274 N 0.78705 1.17286 0.86015
 N275 N 0.76311 1.16113 0.87189
 C276 C 0.71858 1.13144 0.86845
 N277 N 0.71003 1.13883 0.89587
 N278 N 0.68591 1.12732 0.90749
 C279 C 0.66958 1.10789 0.89216
 N280 N 0.67819 1.10044 0.86478
 N281 N 0.70222 1.11207 0.85310
 C282 C 0.64301 1.09523 0.90493
 N283 N 0.62850 1.07344 0.89100
 N284 N 0.60437 1.06193 0.90258
 C285 C 0.59381 1.07191 0.92841
 N286 N 0.60826 1.09372 0.94233
 N287 N 0.63247 1.10514 0.93082
 C288 C 0.14414 0.25494 0.14275
 N289 N 0.17267 0.24831 0.13807
 N290 N 0.18444 0.22443 0.14992
 C291 C 0.16814 0.20614 0.16680
 N292 N 0.13954 0.21281 0.17132
 N293 N 0.12779 0.23676 0.15960
 C294 C 0.13124 0.28142 0.12998
 N295 N 0.10382 0.28993 0.13747
 N296 N 0.09221 0.31412 0.12608
 C297 C 0.10754 0.33059 0.10668
 N298 N 0.13493 0.32203 0.09912
 N299 N 0.14660 0.29792 0.11063
 C300 C 0.09478 0.35726 0.09417
 N301 N 0.10873 0.37194 0.07242
 N302 N 0.09716 0.39616 0.06106
 C303 C 0.07133 0.40665 0.07116
 N304 N 0.05740 0.39204 0.09294
 N305 N 0.06890 0.36773 0.10420
 C306 C -0.14399 0.25605 -0.14446
 N307 N -0.12754 0.23803 -0.16128
 N308 N -0.13917 0.21406 -0.17296
 C309 C -0.16774 0.20724 -0.16842
 N310 N -0.18414 0.22539 -0.15160
 N311 N -0.17248 0.24928 -0.13979
 C312 C -0.13121 0.28248 -0.13161
 N313 N -0.14666 0.29872 -0.11221
 N314 N -0.13510 0.32274 -0.10056
 C315 C -0.10773 0.33147 -0.10802
 N316 N -0.09229 0.31526 -0.12746
 N317 N -0.10380 0.29116 -0.13900
 C318 C -0.09507 0.35802 -0.09532
 N319 N -0.06919 0.36868 -0.10523
 N320 N -0.05779 0.39288 -0.09379
 C321 C -0.07181 0.40719 -0.07194
 N322 N -0.09763 0.39651 -0.06196
 N323 N -0.10910 0.37239 -0.07350
 C324 C 0.14390 0.74546 -0.14356
 N325 N 0.13928 0.75233 -0.17206
 N326 N 0.15118 0.77626 -0.18370
 C327 C 0.16804 0.79435 -0.16728
 N328 N 0.17253 0.78743 -0.13871
 N329 N 0.16077 0.76343 -0.12710
 C330 C 0.13097 0.71899 -0.13081
 N331 N 0.13831 0.71023 -0.10339
 N332 N 0.12671 0.68608 -0.09190
 C333 C 0.10725 0.66990 -0.10736
 N334 N 0.09984 0.67872 -0.13474
 N335 N 0.11154 0.70279 -0.14628
 C336 C 0.09453 0.64327 -0.09473
 N337 N 0.07273 0.62888 -0.10878
 N338 N 0.06120 0.60467 -0.09732
 C339 C 0.07118 0.59393 -0.07151
 N340 N 0.09301 0.60827 -0.05748
 N341 N 0.10443 0.63256 -0.06886
 C342 C -0.14388 0.74415 0.14462
 N343 N -0.12741 0.76207 0.16153
 N344 N -0.13897 0.78606 0.17323
 C345 C -0.16750 0.79301 0.16864
 N346 N -0.18393 0.77495 0.15175
 N347 N -0.17235 0.75104 0.13992
 C348 C -0.13118 0.71773 0.13169
 N349 N -0.14665 0.70164 0.11218
 N350 N -0.13515 0.67764 0.10044
 C351 C -0.10781 0.66879 0.10788
 N352 N -0.09236 0.68485 0.12743
 N353 N -0.10381 0.70894 0.13907
 C354 C -0.09521 0.64225 0.09509
 N355 N -0.06938 0.63149 0.10501
 N356 N -0.05802 0.60730 0.09350
 C357 C -0.07202 0.59312 0.07157
 N358 N -0.09779 0.60390 0.06157
 N359 N -0.10923 0.62801 0.07318
 C360 C 1.14521 0.14572 0.74321
 N361 N 1.16226 0.12944 0.76127
 N362 N 1.17400 0.14119 0.78516
 C363 C 1.16930 0.16974 0.79190
 N364 N 1.15225 0.18598 0.77371
 N365 N 1.14038 0.17420 0.74990
 C366 C 1.13226 0.13277 0.71684
 N367 N 1.11267 0.14804 0.70054
 N368 N 1.10093 0.13631 0.67663
 C369 C 1.10847 0.10893 0.66805
 N370 N 1.12810 0.09368 0.68432
 N371 N 1.13973 0.10536 0.70832
 C372 C 1.09563 0.09606 0.64159
 N373 N 1.10555 0.07014 0.63112
 N374 N 1.09400 0.05855 0.60705
 C375 C 1.07202 0.07240 0.59267
 N376 N 1.06203 0.09826 0.60316
 N377 N 1.07368 0.10992 0.62715
 C378 C 0.85456 -0.14486 0.74442
 N379 N 0.83582 -0.12932 0.76127
 N380 N 0.82405 -0.14119 0.78515
 C381 C 0.83031 -0.16919 0.79330
 N382 N 0.84916 -0.18457 0.77614
 N383 N 0.86105 -0.17270 0.75232
 C384 C 0.86754 -0.13180 0.71804
 N385 N 0.88821 -0.14644 0.70261
 N386 N 0.89995 -0.13463 0.67867
 C387 C 0.89137 -0.10781 0.66920
 N388 N 0.87066 -0.09319 0.68461
 N389 N 0.85900 -0.10495 0.70862
 C390 C 0.90423 -0.09488 0.64270
 N391 N 0.89382 -0.06932 0.63166
 N392 N 0.90541 -0.05771 0.60755
 C393 C 0.92789 -0.07118 0.59367
 N394 N 0.93835 -0.09668 0.60472
 N395 N 0.92669 -0.10835 0.62877
 C396 C 1.14492 -0.14535 0.25682
 N397 N 1.14016 -0.17384 0.25015
 N398 N 1.15209 -0.18562 0.22637
 C399 C 1.16915 -0.16936 0.20820
 N400 N 1.17379 -0.14081 0.21492
 N401 N 1.16198 -0.12905 0.23878
 C402 C 1.13188 -0.13240 0.28314
 N403 N 1.13927 -0.10496 0.29164
 N404 N 1.12757 -0.09328 0.31559
 C405 C 1.10794 -0.10855 0.33184
 N406 N 1.10048 -0.13596 0.32329
 N407 N 1.11229 -0.14769 0.29942
 C408 C 1.09507 -0.09567 0.35828
 N409 N 1.07315 -0.10954 0.37277
 N410 N 1.06151 -0.09785 0.39675
 C411 C 1.07148 -0.07196 0.40719
 N412 N 1.09343 -0.05812 0.39276
 N413 N 1.10497 -0.06973 0.36870
 C414 C 0.85463 0.14557 0.25559
 N415 N 0.83587 0.12999 0.23881
 N416 N 0.82407 0.14181 0.21491
 C417 C 0.83033 0.16978 0.20667
 N418 N 0.84920 0.18520 0.22377
 N419 N 0.86112 0.17339 0.24761
 C420 C 0.86763 0.13259 0.28200
 N421 N 0.88833 0.14725 0.29738
 N422 N 0.90009 0.13551 0.32134
 C423 C 0.89152 0.10871 0.33087
 N424 N 0.87079 0.09405 0.31552
 N425 N 0.85911 0.10575 0.29149
 C426 C 0.90439 0.09583 0.35739
 N427 N 0.89398 0.07029 0.36847
 N428 N 0.90557 0.05871 0.39260
 C429 C 0.92805 0.07219 0.40646
 N430 N 0.93853 0.09767 0.39536
 N431 N 0.92687 0.10931 0.37130
 C432 C 0.14529 0.25705 -0.14527
 N433 N 0.17379 0.25032 -0.14049
 N434 N 0.18560 0.22653 -0.15237
 C435 C 0.16937 0.20840 -0.16938
 N436 N 0.14080 0.21518 -0.17404
 N437 N 0.12902 0.23906 -0.16229
 C438 C 0.13232 0.28338 -0.13229
 N439 N 0.10488 0.29197 -0.13972
 N440 N 0.09318 0.31594 -0.12806
 C441 C 0.10843 0.33211 -0.10842
 N442 N 0.13583 0.32347 -0.10093
 N443 N 0.14758 0.29959 -0.11271
 C444 C 0.09553 0.35854 -0.09557
 N445 N 0.10937 0.37289 -0.07361
 N446 N 0.09769 0.39687 -0.06196
 C447 C 0.07181 0.40744 -0.07195
 N448 N 0.05798 0.39315 -0.09393
 N449 N 0.06960 0.36909 -0.10548
 C450 C -0.14563 0.25578 0.14502
 N451 N -0.17343 0.24785 0.13854
 N452 N -0.18521 0.22402 0.15050
 C453 C -0.16978 0.20688 0.16942
 N454 N -0.14182 0.21507 0.17568
 N455 N -0.13004 0.23896 0.16384
 C456 C -0.13267 0.28218 0.13197
 N457 N -0.10584 0.29159 0.14046
 N458 N -0.09416 0.31561 0.12875
 C459 C -0.10883 0.33104 0.10801
 N460 N -0.13563 0.32158 0.09946
 N461 N -0.14736 0.29763 0.11126
 C462 C -0.09597 0.35756 0.09513
 N463 N -0.10947 0.37160 0.07267
 N464 N -0.09783 0.39567 0.06102
 C465 C -0.07234 0.40664 0.07149
 N466 N -0.05884 0.39265 0.09395
 N467 N -0.07043 0.36851 0.10553
 C468 C -0.14558 0.74467 -0.14528
 N469 N -0.17337 0.75258 -0.13873
 N470 N -0.18517 0.77644 -0.15063
 C471 C -0.16977 0.79362 -0.16954
 N472 N -0.14182 0.78544 -0.17585
 N473 N -0.13002 0.76153 -0.16408
 C474 C -0.13260 0.71824 -0.13230
 N475 N -0.10578 0.70884 -0.14085
 N476 N -0.09409 0.68480 -0.12920
 C477 C -0.10873 0.66932 -0.10848
 N478 N -0.13552 0.67876 -0.09988
 N479 N -0.14726 0.70274 -0.11161
 C480 C -0.09585 0.64278 -0.09565
 N481 N -0.10934 0.62871 -0.07321
 N482 N -0.09770 0.60464 -0.06159
 C483 C -0.07220 0.59368 -0.07206
 N484 N -0.05871 0.60770 -0.09451
 N485 N -0.07030 0.63184 -0.10606
 C486 C 0.14501 0.74340 0.14539
 N487 N 0.17353 0.75005 0.14064
 N488 N 0.18539 0.77383 0.15249
 C489 C 0.16918 0.79202 0.16946
 N490 N 0.14059 0.78532 0.17409
 N491 N 0.12876 0.76146 0.16236
 C492 C 0.13199 0.71707 0.13245
 N493 N 0.10454 0.70853 0.13989
 N494 N 0.09280 0.68457 0.12825
 C495 C 0.10802 0.66836 0.10864
 N496 N 0.13544 0.67695 0.10114
 N497 N 0.14723 0.70082 0.11288
 C498 C 0.09510 0.64194 0.09577
 N499 N 0.10894 0.62762 0.07380
 N500 N 0.09725 0.60367 0.06212
 C501 C 0.07138 0.59308 0.07209
 N502 N 0.05755 0.60734 0.09409
 N503 N 0.06917 0.63138 0.10568
 C504 C 0.25676 1.14548 0.85478
 N505 N 0.25008 1.14075 0.82628
 N506 N 0.22626 1.15264 0.81443
 C507 C 0.20806 1.16961 0.83063
 N508 N 0.21479 1.17421 0.85920
 N509 N 0.23869 1.16245 0.87102
 C510 C 0.28314 1.13251 0.86780
 N511 N 0.29169 1.13991 0.89522
 N512 N 0.31570 1.12827 0.90695
 C513 C 0.33197 1.10868 0.89175
 N514 N 0.32337 1.10122 0.86436
 N515 N 0.29944 1.11297 0.85257
 C516 C 0.35845 1.09583 0.90466
 N517 N 0.37286 1.07391 0.89083
 N518 N 0.39688 1.06224 0.90252
 C519 C 0.40744 1.07218 0.92837
 N520 N 0.39308 1.09413 0.94219
 N521 N 0.36898 1.10570 0.93058
 C522 C 0.25677 0.85476 1.14546
 N523 N 0.23874 0.83775 1.12921
 N524 N 0.21479 0.82603 1.14098
 C525 C 0.20797 0.83072 1.16952
 N526 N 0.22612 0.84774 1.18572
 N527 N 0.24999 0.85958 1.17392
 C528 C 0.28320 0.86768 1.13248
 N529 N 0.29947 0.88724 1.14771
 N530 N 0.32344 0.89895 1.13597
 C531 C 0.33210 0.89142 1.10861
 N532 N 0.31586 0.87182 1.09340
 N533 N 0.29181 0.86022 1.10510
 C534 C 0.35863 0.90424 1.09573
 N535 N 0.36919 0.89434 1.06984
 N536 N 0.39331 0.90589 1.05825
 C537 C 0.40766 0.92784 1.07206
 N538 N 0.39707 0.93781 1.09790
 N539 N 0.37303 0.92617 1.10956
 C540 C 0.74437 1.14534 1.14543
 N541 N 0.75228 1.13883 1.17325
 N542 N 0.77607 1.15077 1.18504
 C543 C 0.79319 1.16968 1.16958
 N544 N 0.78502 1.17597 1.14160
 N545 N 0.76118 1.16415 1.12981
 C546 C 0.71803 1.13231 1.13246
 N547 N 0.70862 1.14084 1.10561
 N548 N 0.68465 1.12913 1.09392
 C549 C 0.66928 1.10837 1.10861
 N550 N 0.67873 1.09979 1.13543
 N551 N 0.70264 1.11158 1.14716
 C552 C 0.64282 1.09548 1.09574
 N553 N 0.62888 1.07298 1.10925
 N554 N 0.60488 1.06131 1.09761
 C555 C 0.59387 1.07181 1.07210
 N556 N 0.60776 1.09432 1.05859
 N557 N 0.63184 1.10592 1.07018
 C558 C 0.74436 0.85510 0.85458
 N559 N 0.76117 0.83626 0.87016
 N560 N 0.78501 0.82447 0.85835
 C561 C 0.79317 0.83079 0.83038
 N562 N 0.77604 0.84972 0.81495
 N563 N 0.75225 0.86164 0.82676
 C564 C 0.71803 0.86812 0.86757
 N565 N 0.70261 0.88885 0.85288
 N566 N 0.67872 0.90064 0.86463
 C567 C 0.66929 0.89206 0.89146
 N568 N 0.68468 0.87130 0.90613
 N569 N 0.70864 0.85959 0.89443
 C570 C 0.64284 0.90493 0.90435
 N571 N 0.63191 0.89450 0.92994
 N572 N 0.60784 0.90606 0.94155
 C573 C 0.59389 0.92855 0.92806
 N574 N 0.60484 0.93905 0.90252
 N575 N 0.62884 0.92741 0.89085
   
