data_POSCAR
  _audit_creation_date              2014-09-24
  _audit_creation_method            'ToBaCCo'
  _symmetry_space_group_name_H-M    'P1'
  _symmetry_Int_Tables_number       1
  _symmetry_cell_setting            triclinic
  loop_
  _symmetry_equiv_pos_as_xyz
 x,y,z
_cell_length_a 30.5504
_cell_length_b 28.7363
_cell_length_c 29.2644
_cell_angle_alpha 85.058500
_cell_angle_beta 93.644600
_cell_angle_gamma 93.835100
loop_
  _atom_site_label
  _atom_site_type_symbol
  _atom_site_fract_x
  _atom_site_fract_y
  _atom_site_fract_z
C1 C 0.31203 0.32130 0.23353
 H2 H 0.31548 0.32165 0.27052
 C3 C 0.34117 0.34892 0.20613
 H4 H 0.36708 0.37079 0.22199
 C5 C 0.27513 0.29109 0.16761
 H6 H 0.25014 0.26769 0.15271
 C7 C 0.30356 0.31814 0.13899
 H8 H 0.30002 0.31580 0.10217
 N9 N 0.27969 0.29328 0.21397
 C10 C 0.18158 0.26597 0.31692
 H11 H 0.17892 0.22811 0.31954
 C12 C 0.15565 0.29046 0.34303
 H13 H 0.13300 0.27148 0.36600
 C14 C 0.21395 0.33712 0.28338
 H15 H 0.23620 0.35520 0.25964
 C16 C 0.18861 0.36295 0.30884
 H17 H 0.19174 0.40084 0.30495
 Zn18 Zn 0.24398 0.25383 0.25365
 N19 N 0.21038 0.28949 0.28823
 C20 C 0.28281 0.21616 0.33928
 N21 N 0.28242 0.21709 0.29265
 C22 C 0.31094 0.19267 0.27170
 C23 C 0.34064 0.16494 0.29781
 C24 C 0.31206 0.18879 0.36673
 C25 C 0.17375 0.23534 0.18971
 C26 C 0.14532 0.20818 0.16193
 C27 C 0.17907 0.13908 0.19684
 C28 C 0.20689 0.16749 0.22389
 N29 N 0.20445 0.21481 0.21916
 H30 H 0.26063 0.23663 0.35529
 H31 H 0.31037 0.19464 0.23458
 H32 H 0.36296 0.14532 0.28080
 H33 H 0.31205 0.18791 0.40381
 H34 H 0.17210 0.27298 0.18712
 H35 H 0.12177 0.22487 0.13770
 H36 H 0.18190 0.10154 0.20009
 H37 H 0.23065 0.15165 0.24826
 C38 C 0.15933 0.33939 0.33903
 C39 C 0.33696 0.34716 0.15844
 C40 C 0.14840 0.15965 0.16520
 C41 C 0.34109 0.16284 0.34573
 C42 C 0.81298 0.82317 0.23257
 H43 H 0.81651 0.82373 0.26954
 C44 C 0.84195 0.85081 0.20496
 H45 H 0.86774 0.87290 0.22074
 C46 C 0.77610 0.79239 0.16693
 H47 H 0.75120 0.76875 0.15223
 C48 C 0.80432 0.81943 0.13808
 H49 H 0.80060 0.81678 0.10130
 N50 N 0.78074 0.79485 0.21325
 C51 C 0.68276 0.76717 0.31634
 H52 H 0.68023 0.72931 0.31891
 C53 C 0.65670 0.79148 0.34247
 H54 H 0.63410 0.77237 0.36541
 C55 C 0.71490 0.83848 0.28292
 H56 H 0.73713 0.85669 0.25923
 C57 C 0.68943 0.86415 0.30842
 H58 H 0.69243 0.90204 0.30460
 Zn59 Zn 0.74527 0.75533 0.25314
 N60 N 0.71151 0.79085 0.28771
 C61 C 0.78410 0.71778 0.33882
 N62 N 0.78388 0.71884 0.29219
 C63 C 0.81252 0.69451 0.27130
 C64 C 0.84209 0.66666 0.29746
 C65 C 0.81321 0.69029 0.36632
 C66 C 0.67502 0.73623 0.18939
 C67 C 0.64671 0.70879 0.16175
 C68 C 0.68087 0.64003 0.19686
 C69 C 0.70857 0.66870 0.22376
 N70 N 0.70587 0.71598 0.21885
 H71 H 0.76182 0.73817 0.35479
 H72 H 0.81206 0.69655 0.23419
 H73 H 0.86444 0.64703 0.28050
 H74 H 0.81301 0.68925 0.40340
 H75 H 0.67316 0.77384 0.18666
 H76 H 0.62302 0.72525 0.13750
 H77 H 0.68391 0.60252 0.20024
 H78 H 0.73244 0.65308 0.24815
 C79 C 0.66020 0.84041 0.33856
 C80 C 0.83765 0.84877 0.15727
 C81 C 0.65005 0.66030 0.16519
 C82 C 0.84229 0.66435 0.34538
 C83 C 0.81369 0.32045 0.73507
 H84 H 0.81732 0.32081 0.77206
 C85 C 0.84259 0.34823 0.70750
 H86 H 0.86847 0.37023 0.72321
 C87 C 0.77658 0.29011 0.66932
 H88 H 0.75161 0.26661 0.65455
 C89 C 0.80475 0.31731 0.64054
 H90 H 0.80101 0.31499 0.60373
 N91 N 0.78135 0.29230 0.71568
 C92 C 0.68346 0.26498 0.81888
 H93 H 0.68088 0.22712 0.82165
 C94 C 0.65737 0.28953 0.84479
 H95 H 0.63471 0.27058 0.86777
 C96 C 0.71567 0.33609 0.78508
 H97 H 0.73789 0.35413 0.76128
 C98 C 0.69017 0.36196 0.81034
 H99 H 0.69318 0.39985 0.80624
 Zn100 Zn 0.74580 0.25280 0.75548
 N101 N 0.71223 0.28846 0.79014
 C102 C 0.78469 0.21473 0.84097
 N103 N 0.78432 0.21598 0.79433
 C104 C 0.81281 0.19170 0.77320
 C105 C 0.84245 0.16373 0.79910
 C106 C 0.81386 0.18713 0.86828
 C107 C 0.67540 0.23438 0.69174
 C108 C 0.64700 0.20728 0.66387
 C109 C 0.68093 0.13815 0.69843
 C110 C 0.70873 0.16650 0.72557
 N111 N 0.70619 0.21381 0.72103
 H112 H 0.76250 0.23509 0.85711
 H113 H 0.81222 0.19392 0.73608
 H114 H 0.86467 0.14425 0.78172
 H115 H 0.81366 0.18610 0.90539
 H116 H 0.67368 0.27200 0.68930
 H117 H 0.62338 0.22401 0.63975
 H118 H 0.68386 0.10063 0.70149
 H119 H 0.73257 0.15062 0.74981
 C120 C 0.66087 0.33846 0.84053
 C121 C 0.83811 0.34650 0.65981
 C122 C 0.65019 0.15877 0.66691
 C123 C 0.84290 0.16121 0.84710
 C124 C 0.31233 0.82216 0.73407
 H125 H 0.31579 0.82266 0.77105
 C126 C 0.34142 0.84973 0.70657
 H127 H 0.36728 0.87174 0.72233
 C128 C 0.27551 0.79157 0.66830
 H129 H 0.25060 0.76801 0.65350
 C130 C 0.30389 0.81856 0.63958
 H131 H 0.30036 0.81604 0.60279
 N132 N 0.28006 0.79395 0.71464
 C133 C 0.18205 0.76633 0.81771
 H134 H 0.17958 0.72847 0.82044
 C135 C 0.15584 0.79073 0.84363
 H136 H 0.13321 0.77168 0.86657
 C137 C 0.21409 0.83758 0.78404
 H138 H 0.23630 0.85573 0.76029
 C139 C 0.18847 0.86332 0.80930
 H140 H 0.19137 0.90121 0.80527
 Zn141 Zn 0.24452 0.75442 0.75442
 N142 N 0.21079 0.78995 0.78903
 C143 C 0.28346 0.71650 0.83996
 N144 N 0.28312 0.71777 0.79331
 C145 C 0.31172 0.69360 0.77221
 C146 C 0.34144 0.66575 0.79814
 C147 C 0.31273 0.68900 0.86725
 C148 C 0.17432 0.73561 0.69053
 C149 C 0.14603 0.70831 0.66274
 C150 C 0.18005 0.63940 0.69770
 C151 C 0.20772 0.66794 0.72476
 N152 N 0.20509 0.71523 0.71999
 H153 H 0.26119 0.73675 0.85610
 H154 H 0.31116 0.69581 0.73508
 H155 H 0.36380 0.64630 0.78100
 H156 H 0.31266 0.68782 0.90434
 H157 H 0.17251 0.77323 0.68792
 H158 H 0.12241 0.72489 0.63849
 H159 H 0.18305 0.60189 0.70096
 H160 H 0.23154 0.65222 0.74914
 C161 C 0.15919 0.83967 0.83944
 C162 C 0.33723 0.84774 0.65890
 C163 C 0.14932 0.65981 0.66603
 C164 C 0.34182 0.66327 0.84607
 C165 C 0.03648 -0.03699 -0.03753
 C166 C 0.06424 -0.00543 -0.00576
 C167 C 0.03977 0.02005 0.01910
 C168 C -0.01015 0.01184 0.01009
 C169 C 0.00558 -0.06707 -0.00604
 C170 C -0.01876 -0.04140 0.01881
 C171 C 0.00669 -0.00409 -0.06723
 C172 C -0.01766 0.02138 -0.04222
 H173 H 0.09995 -0.00361 -0.00296
 H174 H -0.03000 0.03269 0.03040
 H175 H 0.00293 -0.10508 -0.00388
 H176 H 0.00459 -0.00165 -0.10456
 C177 C 0.03790 0.46290 0.46318
 C178 C 0.06571 0.49438 0.49499
 C179 C 0.04126 0.51982 0.51993
 C180 C -0.00867 0.51163 0.51094
 C181 C 0.00703 0.43277 0.49464
 C182 C -0.01728 0.45838 0.51957
 C183 C 0.00811 0.49585 0.43356
 C184 C -0.01621 0.52128 0.45865
 H185 H 0.10141 0.49622 0.49772
 H186 H -0.02850 0.53244 0.53132
 H187 H 0.00440 0.39475 0.49677
 H188 H 0.00603 0.49842 0.39623
 C189 C 0.53839 -0.03687 0.46311
 C190 C 0.56621 -0.00547 0.49498
 C191 C 0.54178 0.01992 0.51997
 C192 C 0.49185 0.01179 0.51097
 C193 C 0.50749 -0.06705 0.49453
 C194 C 0.48319 -0.04146 0.51950
 C195 C 0.50861 -0.00387 0.43355
 C196 C 0.48430 0.02152 0.45869
 H197 H 0.60191 -0.00372 0.49778
 H198 H 0.47204 0.03258 0.53138
 H199 H 0.50476 -0.10506 0.49651
 H200 H 0.50638 -0.00139 0.39622
 C201 C 0.53854 0.46247 -0.03671
 C202 C 0.56632 0.49401 -0.00493
 C203 C 0.54185 0.51952 0.01991
 C204 C 0.49194 0.51135 0.01087
 C205 C 0.50761 0.43242 -0.00524
 C206 C 0.48327 0.45812 0.01958
 C207 C 0.50880 0.49539 -0.06644
 C208 C 0.48445 0.52089 -0.04144
 H209 H 0.60203 0.49588 -0.00219
 H210 H 0.47210 0.53222 0.03117
 H211 H 0.50484 0.39441 -0.00316
 H212 H 0.50668 0.49781 -0.10377
 C213 C 0.13258 -0.13441 -0.13418
 C214 C 0.11043 -0.11251 -0.11213
 C215 C 0.08467 -0.08665 -0.08634
 C216 C 0.06283 -0.06436 -0.06433
 C217 C 0.13308 0.36540 0.36569
 C218 C 0.11123 0.38736 0.38800
 C219 C 0.08578 0.41326 0.41405
 C220 C 0.06414 0.43556 0.43625
 C221 C 0.63384 -0.13377 0.36530
 C222 C 0.61189 -0.11199 0.38768
 C223 C 0.58635 -0.08629 0.41383
 C224 C 0.56465 -0.06413 0.43611
 C225 C 0.63437 0.36454 -0.13314
 C226 C 0.61231 0.38659 -0.11114
 C227 C 0.58664 0.41262 -0.08542
 C228 C 0.56486 0.43502 -0.06346
 C229 C -0.12985 0.13459 -0.12832
 C230 C -0.10448 0.10951 -0.10670
 C231 C -0.07451 0.07948 -0.08282
 C232 C -0.04870 0.05330 -0.06365
 C233 C -0.12785 0.63505 0.37261
 C234 C -0.10261 0.60986 0.39423
 C235 C -0.07279 0.57968 0.41813
 C236 C -0.04712 0.55336 0.43728
 C237 C 0.37127 0.13388 0.37291
 C238 C 0.39683 0.10902 0.39447
 C239 C 0.42705 0.07924 0.41829
 C240 C 0.45304 0.05325 0.43738
 C241 C 0.37193 0.63406 -0.12694
 C242 C 0.39741 0.60898 -0.10554
 C243 C 0.42750 0.57895 -0.08188
 C244 C 0.45337 0.55277 -0.06284
 C245 C -0.13324 -0.12640 0.12973
 C246 C -0.10729 -0.10537 0.10495
 C247 C -0.07668 -0.08192 0.07544
 C248 C -0.05038 -0.06292 0.04985
 C249 C -0.13128 0.37295 0.63073
 C250 C -0.10545 0.39410 0.60591
 C251 C -0.07498 0.41768 0.57634
 C252 C -0.04879 0.43679 0.55069
 C253 C 0.36814 -0.12615 0.62993
 C254 C 0.39424 -0.10527 0.60524
 C255 C 0.42502 -0.08196 0.57586
 C256 C 0.45146 -0.06301 0.55039
 C257 C 0.36790 0.37336 0.12958
 C258 C 0.39406 0.39431 0.10499
 C259 C 0.42491 0.41769 0.07575
 C260 C 0.45143 0.43665 0.05037
 C261 C 0.12176 0.13106 0.13483
 C262 C 0.10081 0.10650 0.10892
 C263 C 0.07789 0.07705 0.07810
 C264 C 0.05974 0.05137 0.05140
 C265 C 0.12286 0.63111 0.63563
 C266 C 0.10206 0.60644 0.60971
 C267 C 0.07929 0.57690 0.57888
 C268 C 0.06122 0.55116 0.55220
 C269 C 0.62363 0.13029 0.63638
 C270 C 0.60275 0.10584 0.61032
 C271 C 0.57990 0.07656 0.57931
 C272 C 0.56177 0.05104 0.55245
 C273 C 0.62354 0.63144 0.13498
 C274 C 0.60270 0.60663 0.10921
 C275 C 0.57989 0.57692 0.07857
 C276 C 0.56180 0.55103 0.05203
   
