data_POSCAR
  _audit_creation_date              2014-09-24
  _audit_creation_method            'ToBaCCo'
  _symmetry_space_group_name_H-M    'P1'
  _symmetry_Int_Tables_number       1
  _symmetry_cell_setting            triclinic
  loop_
  _symmetry_equiv_pos_as_xyz
 x,y,z
_cell_length_a 56.2394
_cell_length_b 29.3445
_cell_length_c 22.3360
_cell_angle_alpha 90.152500
_cell_angle_beta 90.029100
_cell_angle_gamma 90.088500
loop_
  _atom_site_label
  _atom_site_type_symbol
  _atom_site_fract_x
  _atom_site_fract_y
  _atom_site_fract_z
C1 C 0.70516 0.29232 0.55232
 C2 C 0.69379 0.29855 0.49702
 C3 C 0.70459 0.28680 0.44300
 C4 C 0.72741 0.26692 0.44318
 C5 C 0.73922 0.25927 0.49841
 C6 C 0.72814 0.27210 0.55323
 C7 C 0.73973 0.26168 0.60726
 C8 C 0.76190 0.24097 0.60771
 C9 C 0.77310 0.22749 0.55427
 C10 C 0.76196 0.23792 0.49881
 C11 C 0.73858 0.25414 0.38958
 C12 C 0.76094 0.23407 0.38988
 C13 C 0.77334 0.22673 0.44375
 C14 C 0.79615 0.20591 0.44443
 C15 C 0.80662 0.19580 0.49975
 C16 C 0.79563 0.20577 0.55452
 H17 H 0.73171 0.26856 0.65024
 H18 H 0.77013 0.23599 0.65089
 H19 H 0.73002 0.25918 0.34670
 H20 H 0.76807 0.22339 0.34719
 H21 H 0.67633 0.31425 0.49561
 H22 H 0.82400 0.17975 0.50027
 C23 C 0.20631 0.79607 0.56061
 C24 C 0.19451 0.80406 0.50671
 C25 C 0.20436 0.79116 0.45175
 C26 C 0.22689 0.76964 0.45045
 C27 C 0.23894 0.76070 0.50514
 C28 C 0.22860 0.77406 0.56035
 C29 C 0.24084 0.76544 0.61386
 C30 C 0.26276 0.74367 0.61346
 C31 C 0.27318 0.72866 0.55961
 C32 C 0.26148 0.73880 0.50464
 C33 C 0.23790 0.75767 0.39618
 C34 C 0.26032 0.73745 0.39554
 C35 C 0.27244 0.72800 0.44915
 C36 C 0.29526 0.70803 0.44892
 C37 C 0.30646 0.69800 0.50308
 C38 C 0.29575 0.70683 0.55869
 H39 H 0.23367 0.77585 0.65672
 H40 H 0.27168 0.74000 0.65601
 H41 H 0.22940 0.76444 0.35365
 H42 H 0.26809 0.72919 0.35253
 H43 H 0.17722 0.82042 0.50761
 H44 H 0.32368 0.68141 0.50147
 C45 C 0.29526 0.29129 -0.55218
 C46 C 0.30631 0.30071 -0.49748
 C47 C 0.29498 0.29190 -0.44312
 C48 C 0.27217 0.27169 -0.44289
 C49 C 0.26087 0.26088 -0.49797
 C50 C 0.27235 0.27133 -0.55287
 C51 C 0.26059 0.26184 -0.60686
 C52 C 0.23786 0.24316 -0.60714
 C53 C 0.22624 0.23131 -0.55348
 C54 C 0.23787 0.24050 -0.49812
 C55 C 0.26035 0.26234 -0.38905
 C56 C 0.23775 0.24321 -0.38905
 C57 C 0.22628 0.23105 -0.44286
 C58 C 0.20276 0.21334 -0.44311
 C59 C 0.19119 0.20719 -0.49820
 C60 C 0.20260 0.21413 -0.55331
 H61 H 0.26869 0.26957 -0.64959
 H62 H 0.22932 0.23940 -0.65020
 H63 H 0.26831 0.27042 -0.34619
 H64 H 0.22917 0.23946 -0.34609
 H65 H 0.32382 0.31631 -0.49722
 H66 H 0.17342 0.19267 -0.49829
 C67 C -0.29847 0.71635 -0.44858
 C68 C -0.31076 0.71504 -0.50312
 C69 C -0.29986 0.72481 -0.55810
 C70 C -0.27557 0.73863 -0.55834
 C71 C -0.26308 0.74284 -0.50310
 C72 C -0.27451 0.73151 -0.44817
 C73 C -0.26241 0.73974 -0.39400
 C74 C -0.23963 0.75782 -0.39335
 C75 C -0.22807 0.76940 -0.44673
 C76 C -0.23955 0.76105 -0.50232
 C77 C -0.26415 0.75280 -0.61121
 C78 C -0.24088 0.76902 -0.61056
 C79 C -0.22800 0.77295 -0.55681
 C80 C -0.20478 0.79251 -0.55515
 C81 C -0.19427 0.80130 -0.49927
 C82 C -0.20548 0.79018 -0.44571
 H83 H -0.27073 0.73431 -0.35104
 H84 H -0.23136 0.76360 -0.35022
 H85 H -0.27335 0.75335 -0.65367
 H86 H -0.23358 0.78074 -0.65256
 H87 H -0.32896 0.70261 -0.50328
 H88 H -0.17658 0.81607 -0.49702
 O89 O -0.03386 0.92039 0.11013
 O90 O -0.05975 0.95836 0.04861
 C91 C -0.05523 0.93093 0.09251
 O92 O 0.03040 1.08358 0.10698
 O93 O 0.05818 1.04198 0.05541
 C94 C 0.05223 1.07268 0.09458
 O95 O -0.03610 1.07714 0.10581
 O96 O -0.06091 1.03402 0.04707
 C97 C -0.05712 1.06380 0.08900
 O98 O 0.03319 0.91909 0.10903
 O99 O 0.05924 0.96354 0.05579
 C100 C 0.05460 0.93251 0.09533
 Zr101 Zr -0.00031 0.94147 0.07577
 O102 O -0.00020 0.93543 0.17005
 O103 O -0.00012 0.86983 0.06635
 Zr104 Zr -0.00208 1.05686 0.07463
 O105 O -0.00113 1.05866 0.16940
 O106 O -0.00547 1.12869 0.07144
 O107 O -0.02242 0.99811 0.08540
 O108 O 0.01925 1.00047 0.08800
 O109 O 0.03519 0.91667 -0.10019
 O110 O 0.06053 0.96235 -0.04633
 C111 C 0.05633 0.93010 -0.08491
 O112 O -0.03276 1.07289 -0.11525
 O113 O -0.05956 1.03258 -0.05908
 C114 C -0.05426 1.06029 -0.10227
 O115 O 0.03307 1.08169 -0.10317
 O116 O 0.05961 1.04107 -0.04680
 C117 C 0.05455 1.07124 -0.08728
 O118 O -0.03081 0.91756 -0.11188
 O119 O -0.05850 0.95701 -0.05743
 C120 C -0.05259 0.92834 -0.09912
 Zr121 Zr 0.00148 0.94056 -0.07406
 O122 O 0.00536 0.93800 -0.16830
 O123 O -0.00009 0.86848 -0.07055
 Zr124 Zr -0.00007 1.05580 -0.07524
 O125 O 0.00355 1.06006 -0.16932
 O126 O -0.00403 1.12754 -0.07106
 Zr127 Zr -0.03587 0.99675 -0.00290
 Zr128 Zr 0.03540 1.00082 0.00287
 O129 O 0.02138 0.99919 -0.08450
 O130 O -0.02017 0.99689 -0.08858
 O131 O 0.02219 0.93351 0.00266
 O132 O -0.02211 1.06344 -0.00234
 O133 O -0.02031 0.93162 -0.00064
 O134 O 0.02025 1.06654 0.00132
 H135 H 0.02932 1.00129 0.12441
 H136 H -0.03342 1.08927 -0.00399
 H137 H 0.03224 0.99940 -0.11942
 H138 H -0.03090 0.90458 -0.00114
 H139 H 0.00877 1.14086 0.05093
 H140 H 0.01063 1.14032 -0.05314
 H141 H -0.00514 1.03385 -0.18659
 H142 H -0.00715 0.95747 -0.18589
 H143 H 0.01286 0.85814 -0.04384
 H144 H -0.00090 0.85747 0.10752
 H145 H -0.00045 0.96673 0.18628
 H146 H -0.01422 1.03914 0.18417
 O147 O 0.47065 0.42028 0.11484
 O148 O 0.44284 0.45753 0.05806
 C149 C 0.44881 0.43013 0.10109
 O150 O 0.53425 0.58349 0.10455
 O151 O 0.56053 0.54195 0.04808
 C152 C 0.55572 0.57254 0.08822
 O153 O 0.46723 0.57568 0.11290
 O154 O 0.44147 0.53301 0.05618
 C155 C 0.44593 0.56213 0.09840
 O156 O 0.53708 0.41876 0.10317
 O157 O 0.56194 0.46383 0.04735
 C158 C 0.55813 0.43239 0.08690
 Zr159 Zr 0.50298 0.44133 0.07547
 O160 O 0.50587 0.43501 0.16943
 O161 O 0.50280 0.36971 0.06566
 Zr162 Zr 0.50082 0.55670 0.07651
 O163 O 0.50404 0.55833 0.17098
 O164 O 0.49707 0.62845 0.07421
 O165 O 0.48091 0.49757 0.08897
 O166 O 0.52257 0.50037 0.08598
 O167 O 0.53471 0.41859 -0.10564
 O168 O 0.56105 0.46358 -0.05394
 C169 C 0.55612 0.43222 -0.09321
 O170 O 0.46622 0.57251 -0.11002
 O171 O 0.44050 0.53208 -0.05087
 C172 C 0.44500 0.55962 -0.09496
 O173 O 0.53209 0.58263 -0.10619
 O174 O 0.55976 0.54181 -0.05369
 C175 C 0.55388 0.57204 -0.09324
 O176 O 0.46863 0.41826 -0.10783
 O177 O 0.44183 0.45691 -0.04964
 C178 C 0.44708 0.42865 -0.09244
 Zr179 Zr 0.50150 0.44128 -0.07405
 O180 O 0.50316 0.43883 -0.16873
 O181 O 0.50036 0.36918 -0.07050
 Zr182 Zr 0.49960 0.55672 -0.07337
 O183 O 0.50096 0.56384 -0.16742
 O184 O 0.49550 0.62827 -0.06545
 Zr185 Zr 0.46549 0.49653 0.00268
 Zr186 Zr 0.53674 0.50139 -0.00131
 O187 O 0.52087 0.50031 -0.08657
 O188 O 0.47949 0.49756 -0.08488
 O189 O 0.52385 0.43394 -0.00059
 O190 O 0.47903 0.56346 0.00244
 O191 O 0.48129 0.43162 0.00201
 O192 O 0.52153 0.56705 0.00034
 H193 H 0.53338 0.50089 0.12097
 H194 H 0.46751 0.58899 0.00247
 H195 H 0.53089 0.50085 -0.12303
 H196 H 0.47074 0.40454 0.00276
 H197 H 0.51094 0.64091 0.05245
 H198 H 0.51098 0.64115 -0.05277
 H199 H 0.49522 0.53477 -0.18459
 H200 H 0.49051 0.45893 -0.18435
 H201 H 0.51427 0.35899 -0.04691
 H202 H 0.50319 0.35718 0.10678
 H203 H 0.50135 0.46483 0.18649
 H204 H 0.49127 0.53893 0.18766
 C205 C 0.30133 0.34122 0.35832
 C206 C 0.31562 0.35652 0.31114
 C207 C 0.33732 0.33495 0.29833
 C208 C 0.34368 0.29589 0.33119
 C209 C 0.32945 0.28077 0.37835
 C210 C 0.30839 0.30370 0.39280
 C211 C 0.35321 0.35456 0.25191
 C212 C 0.37697 0.35069 0.25517
 C213 C 0.39433 0.37092 0.21264
 C214 C 0.41845 0.36089 0.22160
 C215 C 0.43592 0.37959 0.18490
 C216 C 0.42981 0.40913 0.13796
 C217 C 0.40564 0.41906 0.12829
 C218 C 0.38804 0.40016 0.16520
 H219 H 0.28517 0.35948 0.36924
 H220 H 0.31019 0.38632 0.28614
 H221 H 0.35974 0.27714 0.32113
 H222 H 0.33510 0.25169 0.40450
 H223 H 0.34506 0.37452 0.21693
 H224 H 0.38452 0.33239 0.29263
 H225 H 0.42392 0.33860 0.25765
 H226 H 0.45430 0.37113 0.19391
 H227 H 0.40033 0.44181 0.09262
 H228 H 0.36976 0.40918 0.15658
 C229 C -0.18724 0.77115 0.34778
 C230 C -0.17077 0.78001 0.30212
 C231 C -0.15856 0.82173 0.30019
 C232 C -0.16316 0.85458 0.34448
 C233 C -0.17912 0.84544 0.39059
 C234 C -0.19131 0.80351 0.39335
 C235 C -0.13977 0.82946 0.25494
 C236 C -0.13575 0.87079 0.23173
 C237 C -0.11543 0.88141 0.19226
 C238 C -0.11818 0.91529 0.14883
 C239 C -0.09879 0.92980 0.11495
 C240 C -0.07595 0.91182 0.12503
 C241 C -0.07324 0.87725 0.16798
 C242 C -0.09285 0.86193 0.20104
 H243 H -0.19564 0.73793 0.34948
 H244 H -0.16725 0.75398 0.26883
 H245 H -0.15367 0.88670 0.34506
 H246 H -0.18182 0.87127 0.42469
 H247 H -0.12910 0.80071 0.24071
 H248 H -0.14800 0.89828 0.24166
 H249 H -0.13537 0.93099 0.14159
 H250 H -0.10165 0.95610 0.08190
 H251 H -0.05592 0.86263 0.17676
 H252 H -0.09014 0.83635 0.23520
 C253 C 0.66273 0.73800 0.38924
 C254 C 0.64715 0.72859 0.34229
 C255 C 0.65396 0.69984 0.29524
 C256 C 0.67735 0.68274 0.29425
 C257 C 0.69319 0.69278 0.34106
 C258 C 0.68594 0.71998 0.38983
 C259 C 0.63568 0.68751 0.25009
 C260 C 0.63541 0.64775 0.22033
 C261 C 0.61492 0.63220 0.18347
 C262 C 0.61865 0.59859 0.13972
 C263 C 0.59955 0.58028 0.10754
 C264 C 0.57612 0.59481 0.11887
 C265 C 0.57238 0.62882 0.16221
 C266 C 0.59151 0.64724 0.19425
 H267 H 0.65652 0.75930 0.42572
 H268 H 0.62931 0.74246 0.34401
 H269 H 0.68338 0.66115 0.25800
 H270 H 0.71063 0.67714 0.34071
 H271 H 0.62089 0.71073 0.24518
 H272 H 0.65026 0.62458 0.22464
 H273 H 0.63642 0.58599 0.13097
 H274 H 0.60313 0.55389 0.07480
 H275 H 0.55459 0.64047 0.17254
 H276 H 0.58766 0.67186 0.22899
 C277 C 0.19913 1.17345 0.35025
 C278 C 0.18497 1.15835 0.30241
 C279 C 0.16113 1.17201 0.29767
 C280 C 0.15213 1.20314 0.34000
 C281 C 0.16605 1.21757 0.38804
 C282 C 0.18971 1.20286 0.39423
 C283 C 0.14592 1.15304 0.24908
 C284 C 0.12222 1.14987 0.25480
 C285 C 0.10570 1.13239 0.20847
 C286 C 0.08182 1.14560 0.21262
 C287 C 0.06482 1.12763 0.17389
 C288 C 0.07115 1.09535 0.13016
 C289 C 0.09521 1.08281 0.12470
 C290 C 0.11240 1.10123 0.16350
 H291 H 0.21703 1.16025 0.35447
 H292 H 0.19242 1.13468 0.27022
 H293 H 0.13430 1.21659 0.33654
 H294 H 0.15832 1.24080 0.42041
 H295 H 0.15452 1.14074 0.20884
 H296 H 0.11396 1.16106 0.29601
 H297 H 0.07617 1.16949 0.24685
 H298 H 0.04652 1.13817 0.17965
 H299 H 0.10064 1.05775 0.09179
 H300 H 0.13058 1.08965 0.15962
 C301 C 0.70280 0.33565 -0.35300
 C302 C 0.68920 0.35199 -0.30491
 C303 C 0.66524 0.33934 -0.29894
 C304 C 0.65551 0.30815 -0.34022
 C305 C 0.66887 0.29250 -0.38844
 C306 C 0.69268 0.30594 -0.39574
 C307 C 0.65054 0.35896 -0.25004
 C308 C 0.62701 0.36409 -0.25652
 C309 C 0.61047 0.37923 -0.20921
 C310 C 0.58690 0.36435 -0.21369
 C311 C 0.56973 0.38002 -0.17409
 C312 C 0.57553 0.41183 -0.12921
 C313 C 0.59936 0.42600 -0.12333
 C314 C 0.61679 0.40964 -0.16299
 H315 H 0.72087 0.34782 -0.35820
 H316 H 0.69717 0.37567 -0.27346
 H317 H 0.63753 0.29552 -0.33561
 H318 H 0.66061 0.26909 -0.41983
 H319 H 0.65919 0.36920 -0.20883
 H320 H 0.61883 0.35508 -0.29882
 H321 H 0.58160 0.34091 -0.24885
 H322 H 0.55165 0.36814 -0.18024
 H323 H 0.60438 0.45064 -0.08940
 H324 H 0.63482 0.42219 -0.15894
 C325 C 0.20033 0.85119 -0.35516
 C326 C 0.18724 0.86638 -0.30571
 C327 C 0.16782 0.84093 -0.28455
 C328 C 0.16275 0.79848 -0.31145
 C329 C 0.17572 0.78355 -0.36095
 C330 C 0.19428 0.81014 -0.38363
 C331 C 0.15269 0.86004 -0.23617
 C332 C 0.12944 0.85019 -0.23257
 C333 C 0.11247 0.86952 -0.18854
 C334 C 0.08983 0.84968 -0.18596
 C335 C 0.07211 0.86834 -0.15018
 C336 C 0.07644 0.90773 -0.11599
 C337 C 0.09939 0.92681 -0.11630
 C338 C 0.11731 0.90795 -0.15243
 H339 H 0.21475 0.87192 -0.37222
 H340 H 0.19173 0.89880 -0.28532
 H341 H 0.14866 0.77682 -0.29485
 H342 H 0.17105 0.75155 -0.38225
 H343 H 0.16066 0.88432 -0.20568
 H344 H 0.12182 0.82719 -0.26535
 H345 H 0.08557 0.82005 -0.21300
 H346 H 0.05473 0.85238 -0.15068
 H347 H 0.10325 0.95723 -0.09048
 H348 H 0.13445 0.92461 -0.15337
 C349 C 0.29712 0.66718 -0.34386
 C350 C 0.31047 0.64951 -0.29617
 C351 C 0.33510 0.65681 -0.29335
 C352 C 0.34588 0.68447 -0.33693
 C353 C 0.33272 0.70169 -0.38450
 C354 C 0.30818 0.69306 -0.38923
 C355 C 0.34960 0.63525 -0.24566
 C356 C 0.37188 0.62169 -0.25714
 C357 C 0.38934 0.60640 -0.21205
 C358 C 0.41334 0.61320 -0.22575
 C359 C 0.43103 0.59888 -0.18684
 C360 C 0.42533 0.57653 -0.13312
 C361 C 0.40120 0.56947 -0.11895
 C362 C 0.38326 0.58463 -0.15803
 H363 H 0.27842 0.65860 -0.34681
 H364 H 0.30173 0.62864 -0.26283
 H365 H 0.36462 0.69274 -0.33466
 H366 H 0.34179 0.72230 -0.41760
 H367 H 0.34202 0.63125 -0.20144
 H368 H 0.37854 0.62477 -0.30248
 H369 H 0.41850 0.62982 -0.26703
 H370 H 0.44933 0.60474 -0.19984
 H371 H 0.39625 0.55205 -0.07812
 H372 H 0.36484 0.57828 -0.14673
 C373 C -0.20239 1.16599 -0.34849
 C374 C -0.18869 1.14935 -0.30087
 C375 C -0.16437 1.15973 -0.29717
 C376 C -0.15439 1.18957 -0.33940
 C377 C -0.16787 1.20566 -0.38700
 C378 C -0.19198 1.19372 -0.39282
 C379 C -0.14932 1.13848 -0.25053
 C380 C -0.12668 1.12753 -0.26246
 C381 C -0.10921 1.11055 -0.21851
 C382 C -0.08513 1.11649 -0.23238
 C383 C -0.06753 1.10081 -0.19401
 C384 C -0.07350 1.07812 -0.14079
 C385 C -0.09767 1.07181 -0.12665
 C386 C -0.11545 1.08811 -0.16513
 H387 H -0.22075 1.15513 -0.35241
 H388 H -0.19680 1.12676 -0.26847
 H389 H -0.13597 1.20012 -0.33630
 H390 H -0.15940 1.22764 -0.41959
 H391 H -0.15698 1.13183 -0.20699
 H392 H -0.11995 1.13312 -0.30731
 H393 H -0.07985 1.13352 -0.27327
 H394 H -0.04915 1.10599 -0.20680
 H395 H -0.10281 1.05417 -0.08614
 H396 H -0.13387 1.08223 -0.15361
 C397 C 0.69849 0.67001 -0.35691
 C398 C 0.68490 0.65376 -0.30887
 C399 C 0.66161 0.66941 -0.29982
 C400 C 0.65261 0.70335 -0.33799
 C401 C 0.66595 0.71899 -0.38623
 C402 C 0.68907 0.70261 -0.39662
 C403 C 0.64690 0.64973 -0.25107
 C404 C 0.62311 0.64838 -0.25481
 C405 C 0.60693 0.63099 -0.20796
 C406 C 0.58327 0.64573 -0.20981
 C407 C 0.56646 0.62803 -0.17062
 C408 C 0.57277 0.59451 -0.12875
 C409 C 0.59667 0.58054 -0.12536
 C410 C 0.61367 0.59867 -0.16468
 H411 H 0.71597 0.65562 -0.36449
 H412 H 0.69232 0.62788 -0.27989
 H413 H 0.63525 0.71818 -0.33090
 H414 H 0.65827 0.74471 -0.41509
 H415 H 0.65588 0.63560 -0.21250
 H416 H 0.61453 0.66129 -0.29467
 H417 H 0.57761 0.67058 -0.24264
 H418 H 0.54829 0.63980 -0.17457
 H419 H 0.60206 0.55454 -0.09384
 H420 H 0.63169 0.58596 -0.16259
 C421 C 0.20025 1.17153 -0.34756
 C422 C 0.18663 1.15577 -0.29924
 C423 C 0.16271 1.16868 -0.29310
 C424 C 0.15311 1.19958 -0.33469
 C425 C 0.16647 1.21456 -0.38327
 C426 C 0.19023 1.20082 -0.39067
 C427 C 0.14810 1.14951 -0.24361
 C428 C 0.12433 1.14683 -0.24738
 C429 C 0.10837 1.13044 -0.19945
 C430 C 0.08508 1.14714 -0.19919
 C431 C 0.06820 1.12948 -0.16021
 C432 C 0.07400 1.09402 -0.12068
 C433 C 0.09767 1.07837 -0.11885
 C434 C 0.11479 1.09656 -0.15798
 H435 H 0.21826 1.15909 -0.35271
 H436 H 0.19458 1.13237 -0.26762
 H437 H 0.13524 1.21262 -0.33015
 H438 H 0.15826 1.23769 -0.41485
 H439 H 0.15710 1.13706 -0.20405
 H440 H 0.11552 1.15800 -0.28780
 H441 H 0.07968 1.17330 -0.23052
 H442 H 0.05025 1.14258 -0.16288
 H443 H 0.10269 1.05083 -0.08926
 H444 H 0.13258 1.08255 -0.15778
 C445 C 0.30067 0.34341 -0.35477
 C446 C 0.31439 0.35854 -0.30631
 C447 C 0.33541 0.33573 -0.29067
 C448 C 0.34161 0.29571 -0.32200
 C449 C 0.32799 0.28082 -0.37048
 C450 C 0.30768 0.30494 -0.38771
 C451 C 0.35097 0.35507 -0.24327
 C452 C 0.37466 0.35004 -0.24519
 C453 C 0.39192 0.36947 -0.20182
 C454 C 0.41567 0.35574 -0.20743
 C455 C 0.43325 0.37413 -0.17081
 C456 C 0.42765 0.40711 -0.12737
 C457 C 0.40379 0.42048 -0.12056
 C458 C 0.38603 0.40186 -0.15748
 H459 H 0.28500 0.36240 -0.36774
 H460 H 0.30908 0.38907 -0.28249
 H461 H 0.35710 0.27605 -0.30968
 H462 H 0.33350 0.25089 -0.39531
 H463 H 0.34275 0.37557 -0.20876
 H464 H 0.38228 0.33108 -0.28211
 H465 H 0.42080 0.33095 -0.24106
 H466 H 0.45139 0.36287 -0.17747
 H467 H 0.39892 0.44604 -0.08774
 H468 H 0.36801 0.41382 -0.15186
 C469 C -0.19985 0.83940 -0.35523
 C470 C -0.18581 0.85419 -0.30721
 C471 C -0.16441 0.83191 -0.29361
 C472 C -0.15818 0.79255 -0.32624
 C473 C -0.17215 0.77794 -0.37425
 C474 C -0.19280 0.80175 -0.38970
 C475 C -0.14850 0.85133 -0.24711
 C476 C -0.12477 0.84764 -0.25107
 C477 C -0.10732 0.86797 -0.20885
 C478 C -0.08331 0.85664 -0.21691
 C479 C -0.06574 0.87568 -0.18069
 C480 C -0.07166 0.90681 -0.13524
 C481 C -0.09572 0.91805 -0.12651
 C482 C -0.11342 0.89884 -0.16291
 H483 H -0.21574 0.85822 -0.36692
 H484 H -0.19112 0.88424 -0.28234
 H485 H -0.14235 0.77335 -0.31547
 H486 H -0.16656 0.74871 -0.40037
 H487 H -0.15658 0.87107 -0.21168
 H488 H -0.11733 0.82939 -0.28883
 H489 H -0.07802 0.83311 -0.25191
 H490 H -0.04742 0.86629 -0.18899
 H491 H -0.10087 0.94218 -0.09212
 H492 H -0.13161 0.90904 -0.15529
 C493 C 0.31989 0.73155 0.36112
 C494 C 0.33662 0.72060 0.31697
 C495 C 0.34221 0.67491 0.30435
 C496 C 0.33014 0.64028 0.33570
 C497 C 0.31353 0.65128 0.37990
 C498 C 0.30860 0.69693 0.39363
 C499 C 0.36218 0.66461 0.26294
 C500 C 0.36456 0.62447 0.23472
 C501 C 0.38552 0.61189 0.19797
 C502 C 0.38288 0.57762 0.15466
 C503 C 0.40239 0.56227 0.12179
 C504 C 0.42523 0.58042 0.13194
 C505 C 0.42794 0.61492 0.17523
 C506 C 0.40829 0.63055 0.20793
 H507 H 0.31667 0.76698 0.37210
 H508 H 0.34579 0.74791 0.29395
 H509 H 0.33438 0.60472 0.32884
 H510 H 0.30538 0.62418 0.40560
 H511 H 0.37524 0.69116 0.25559
 H512 H 0.35035 0.59964 0.23746
 H513 H 0.36562 0.56234 0.14651
 H514 H 0.39957 0.53552 0.08905
 H515 H 0.44528 0.62943 0.18443
 H516 H 0.41116 0.65608 0.24220
 C517 C -0.18598 1.22809 0.34817
 C518 C -0.17029 1.21860 0.30104
 C519 C -0.15941 1.17575 0.29638
 C520 C -0.16444 1.14249 0.33966
 C521 C -0.17969 1.15215 0.38716
 C522 C -0.19071 1.19506 0.39230
 C523 C -0.14126 1.16742 0.24969
 C524 C -0.13793 1.12610 0.22548
 C525 C -0.11767 1.11476 0.18603
 C526 C -0.12029 1.07948 0.14415
 C527 C -0.10082 1.06432 0.11086
 C528 C -0.07811 1.08320 0.12006
 C529 C -0.07559 1.11928 0.16118
 C530 C -0.09520 1.13507 0.19368
 H531 H -0.19334 1.26207 0.35190
 H532 H -0.16632 1.24501 0.26874
 H533 H -0.15582 1.10954 0.33837
 H534 H -0.18282 1.12592 0.42030
 H535 H -0.13030 1.19581 0.23558
 H536 H -0.15046 1.09904 0.23531
 H537 H -0.13739 1.06312 0.13779
 H538 H -0.10349 1.03693 0.07908
 H539 H -0.05838 1.13472 0.16924
 H540 H -0.09249 1.16167 0.22666
 C541 C 0.68004 0.26124 0.35572
 C542 C 0.66446 0.27127 0.30873
 C543 C 0.65986 0.31668 0.29270
 C544 C 0.67158 0.35193 0.32393
 C545 C 0.68706 0.34186 0.37093
 C546 C 0.69116 0.29655 0.38756
 C547 C 0.64099 0.32629 0.24810
 C548 C 0.63954 0.36562 0.21787
 C549 C 0.61881 0.37846 0.18059
 C550 C 0.62168 0.41229 0.13694
 C551 C 0.60210 0.42873 0.10512
 C552 C 0.57911 0.41202 0.11679
 C553 C 0.57629 0.37751 0.15972
 C554 C 0.59589 0.36095 0.19137
 H555 H 0.68275 0.22609 0.36874
 H556 H 0.65547 0.24355 0.28590
 H557 H 0.66797 0.38737 0.31448
 H558 H 0.69519 0.36950 0.39589
 H559 H 0.62772 0.30010 0.24080
 H560 H 0.65402 0.38990 0.22059
 H561 H 0.63908 0.42667 0.12817
 H562 H 0.60496 0.45539 0.07245
 H563 H 0.55884 0.36404 0.17007
 H564 H 0.59280 0.33589 0.22593
 C565 C 0.17908 0.76523 0.36575
 C566 C 0.16233 0.77484 0.32111
 C567 C 0.15646 0.82012 0.30709
 C568 C 0.16806 0.85567 0.33802
 C569 C 0.18467 0.84602 0.38274
 C570 C 0.19010 0.80080 0.39743
 C571 C 0.13680 0.82923 0.26426
 C572 C 0.13496 0.86832 0.23359
 C573 C 0.11433 0.88046 0.19533
 C574 C 0.11747 0.91390 0.15132
 C575 C 0.09821 0.92964 0.11787
 C576 C 0.07514 0.91271 0.12802
 C577 C 0.07198 0.87862 0.17147
 C578 C 0.09137 0.86263 0.20481
 H579 H 0.18271 0.73011 0.37738
 H580 H 0.15350 0.74685 0.29847
 H581 H 0.16354 0.89095 0.33009
 H582 H 0.19263 0.87386 0.40765
 H583 H 0.12363 0.80273 0.25783
 H584 H 0.14937 0.89277 0.23577
 H585 H 0.13489 0.92848 0.14334
 H586 H 0.10138 0.95597 0.08493
 H587 H 0.05445 0.86500 0.18067
 H588 H 0.08811 0.83767 0.23941
   
