data_POSCAR
  _audit_creation_date              2014-09-24
  _audit_creation_method            'ToBaCCo'
  _symmetry_space_group_name_H-M    'P1'
  _symmetry_Int_Tables_number       1
  _symmetry_cell_setting            triclinic
  loop_
  _symmetry_equiv_pos_as_xyz
 x,y,z
_cell_length_a 24.7392
_cell_length_b 24.5854
_cell_length_c 28.0763
_cell_angle_alpha 88.551700
_cell_angle_beta 89.361400
_cell_angle_gamma 88.182800
loop_
  _atom_site_label
  _atom_site_type_symbol
  _atom_site_fract_x
  _atom_site_fract_y
  _atom_site_fract_z
C1 C 1.24389 0.23184 0.23862
 C2 C 0.75258 -0.26100 0.24891
 C3 C 0.73850 0.26377 -0.26431
 C4 C 1.23712 -0.24562 -0.24660
 C5 C 0.26308 0.24046 0.76444
 C6 C 0.76558 0.74155 0.75118
 C7 C 0.74685 0.26636 0.26915
 C8 C 0.24642 0.77293 0.24304
 O9 O 1.09002 0.05901 0.01452
 O10 O 0.87132 -0.01087 0.04874
 O11 O 0.93526 0.08356 0.06940
 O12 O 1.02622 -0.07332 0.06018
 O13 O 0.87120 0.08746 0.02345
 O14 O 1.08957 -0.03645 0.01624
 O15 O 0.92462 -0.08370 0.04779
 O16 O 1.02790 0.07442 0.06564
 C17 C 1.07653 0.07151 0.05599
 C18 C 0.88448 -0.05786 0.06413
 C19 C 0.88824 0.09797 0.06298
 C20 C 1.07466 -0.06160 0.05404
 O21 O 1.04478 -0.03191 -0.07648
 O22 O 0.89332 0.06287 -0.06386
 O23 O 1.03240 0.12355 -0.02209
 O24 O 0.94356 -0.09370 -0.04319
 O25 O 0.87509 -0.03595 -0.04079
 O26 O 1.03899 0.06276 -0.07324
 O27 O 1.04073 -0.09715 -0.02802
 O28 O 0.93556 0.12645 -0.02731
 Co29 Co 1.05847 0.01322 -0.02769
 Co30 Co 0.88813 0.02447 -0.00767
 Co31 Co 0.98171 0.09477 0.01928
 Co32 Co 0.98301 -0.07684 0.00843
 O33 O 0.97727 0.01280 -0.00203
 C34 C 1.05087 -0.08107 -0.06890
 C35 C 0.90888 0.11071 -0.06287
 C36 C 1.04659 0.11015 -0.06300
 C37 C 0.89699 -0.07881 -0.05550
 O38 O 1.11851 0.51894 0.55583
 O39 O 0.92883 0.47717 0.55962
 O40 O 0.99375 0.59473 0.55298
 O41 O 1.05071 0.40756 0.56510
 O42 O 0.92084 0.56759 0.52422
 O43 O 1.12613 0.42808 0.53397
 O44 O 0.95969 0.39984 0.53904
 O45 O 1.08804 0.59607 0.53011
 C46 C 1.11195 0.56823 0.56175
 C47 C 0.93528 0.42803 0.56882
 C48 C 0.94396 0.59243 0.55573
 C49 C 1.10056 0.40574 0.56703
 O50 O 1.11528 0.45821 0.43961
 O51 O 0.93253 0.52687 0.43708
 O52 O 1.05968 0.58724 0.43675
 O53 O 0.99457 0.40325 0.44688
 O54 O 0.91974 0.43692 0.47054
 O55 O 1.13174 0.55104 0.46444
 O56 O 1.08281 0.38891 0.47400
 O57 O 0.96778 0.60114 0.45762
 Co58 Co 1.11273 0.48981 0.49812
 Co59 Co 0.93538 0.50134 0.49814
 Co60 Co 1.02706 0.58539 0.49502
 Co61 Co 1.02198 0.40933 0.50569
 O62 O 1.02423 0.49670 0.49917
 C63 C 1.10544 0.40909 0.43854
 C64 C 0.94197 0.57528 0.42794
 C65 C 1.10878 0.57835 0.43234
 C66 C 0.94569 0.40964 0.44079
 O67 O 0.60556 0.04192 0.53676
 O68 O 0.39105 -0.06632 0.52654
 O69 O 0.44090 0.09565 0.53775
 O70 O 0.55418 -0.11918 0.53367
 O71 O 0.40405 0.02063 0.55585
 O72 O 0.58756 -0.04917 0.56223
 O73 O 0.46265 -0.10011 0.55780
 O74 O 0.53283 0.07880 0.56333
 C75 C 0.58180 0.06884 0.56821
 C76 C 0.41293 -0.09483 0.55868
 C77 C 0.41292 0.06786 0.56628
 C78 C 0.57946 -0.09819 0.56611
 O79 O 0.60108 -0.08060 0.46942
 O80 O 0.40113 0.06403 0.46660
 O81 O 0.56792 0.08984 0.47082
 O82 O 0.43497 -0.10493 0.46387
 O83 O 0.40996 -0.02774 0.43536
 O84 O 0.59748 0.01310 0.44521
 O85 O 0.52531 -0.09959 0.44145
 O86 O 0.47766 0.09149 0.44447
 Co87 Co 0.58798 -0.01799 0.50325
 Co88 Co 0.41136 -0.00301 0.49622
 Co89 Co 0.50412 0.07956 0.50387
 Co90 Co 0.49491 -0.09637 0.49959
 O91 O 0.49966 -0.00922 0.50072
 C92 C 0.57468 -0.10022 0.43679
 C93 C 0.42909 0.08872 0.43638
 C94 C 0.59407 0.06314 0.44032
 C95 C 0.41494 -0.07756 0.43027
 O96 O 0.60656 0.55238 0.03033
 O97 O 0.39484 0.44467 0.04251
 O98 O 0.44306 0.60864 0.04040
 O99 O 0.55697 0.39143 0.03207
 O100 O 0.40994 0.53429 0.06584
 O101 O 0.59123 0.46197 0.05820
 O102 O 0.47071 0.41112 0.06439
 O103 O 0.53679 0.59135 0.06036
 C104 C 0.58526 0.57851 0.06348
 C105 C 0.42212 0.41679 0.07210
 C106 C 0.41564 0.58328 0.07125
 C107 C 0.58175 0.41353 0.06416
 O108 O 0.59499 0.42961 -0.03547
 O109 O 0.39722 0.57248 -0.02537
 O110 O 0.56540 0.59955 -0.03471
 O111 O 0.42829 0.40363 -0.02481
 O112 O 0.40243 0.48081 -0.05180
 O113 O 0.58940 0.52124 -0.05980
 O114 O 0.51652 0.40859 -0.05680
 O115 O 0.47196 0.59925 -0.05387
 Co116 Co 0.58611 0.49199 -0.00096
 Co117 Co 0.41053 0.50720 0.00719
 Co118 Co 0.50371 0.59010 0.00314
 Co119 Co 0.49361 0.41326 0.00373
 O120 O 0.49851 0.50091 0.00323
 C121 C 0.56533 0.40874 -0.06522
 C122 C 0.42269 0.59617 -0.05812
 C123 C 0.58881 0.57094 -0.06577
 C124 C 0.40516 0.43124 -0.05674
 C125 C 1.18652 0.13665 0.15120
 C126 C 1.13063 0.14366 0.15791
 N127 N 1.11129 0.17690 0.19234
 C128 C 1.14526 0.20432 0.22010
 C129 C 1.20187 0.19760 0.21374
 N130 N 1.22053 0.16288 0.17960
 N131 N 1.20586 0.10738 0.11396
 C132 C 1.17160 0.08495 0.08295
 C133 C 1.11548 0.09097 0.09020
 N134 N 1.09651 0.12023 0.12773
 H135 H 1.12749 0.23209 0.24533
 H136 H 1.18802 0.06374 0.05248
 C137 C 1.18527 0.64356 0.67718
 C138 C 1.14793 0.67252 0.64817
 N139 N 1.13691 0.72588 0.65608
 C140 C 1.16211 0.75196 0.69124
 C141 C 1.20090 0.72364 0.71991
 N142 N 1.21126 0.66979 0.71177
 N143 N 1.19651 0.59020 0.66907
 C144 C 1.17253 0.56461 0.63290
 C145 C 1.13626 0.59395 0.60283
 N146 N 1.12461 0.64729 0.61154
 H147 H 1.15369 0.79502 0.69533
 H148 H 1.18256 0.52209 0.62710
 C149 C 0.67898 0.14922 0.66599
 C150 C 0.62874 0.17182 0.65197
 N151 N 0.61378 0.22235 0.66621
 C152 C 0.64672 0.25156 0.69357
 C153 C 0.69766 0.22939 0.70842
 N154 N 0.71189 0.17831 0.69364
 N155 N 0.69509 0.09956 0.64998
 C156 C 0.66354 0.07190 0.62005
 C157 C 0.61331 0.09470 0.60543
 N158 N 0.59700 0.14418 0.62222
 H159 H 0.63308 0.29208 0.70295
 H160 H 0.67791 0.03287 0.60710
 C161 C 0.68499 0.64003 0.16935
 C162 C 0.64277 0.67230 0.14953
 N163 N 0.63662 0.72510 0.16186
 C164 C 0.67028 0.74701 0.19362
 C165 C 0.71133 0.71428 0.21567
 N166 N 0.71804 0.66162 0.20175
 N167 N 0.69333 0.58818 0.15473
 C168 C 0.66137 0.56719 0.12107
 C169 C 0.61854 0.59917 0.10167
 N170 N 0.61020 0.65107 0.11656
 H171 H 0.66550 0.78986 0.20105
 H172 H 0.66920 0.52594 0.10962
 C173 C 0.80260 -0.14270 0.17462
 C174 C 0.84228 -0.16819 0.14634
 N175 N 0.85408 -0.22205 0.15284
 C176 C 0.82783 -0.25201 0.18655
 C177 C 0.78836 -0.22686 0.21593
 N178 N 0.77645 -0.17254 0.20857
 N179 N 0.78967 -0.08902 0.16649
 C180 C 0.81481 -0.05974 0.13120
 C181 C 0.85480 -0.08545 0.10298
 N182 N 0.86732 -0.13909 0.11164
 H183 H 0.83669 -0.29533 0.18956
 H184 H 0.80389 -0.01712 0.12541
 C185 C 0.85251 0.33056 0.66813
 C186 C 0.82472 0.37115 0.64119
 N187 N 0.77004 0.37465 0.64336
 C188 C 0.74173 0.33966 0.67141
 C189 C 0.76917 0.29887 0.69912
 N190 N 0.82431 0.29580 0.69653
 N191 N 0.90724 0.32622 0.66509
 C192 C 0.93531 0.36009 0.63565
 C193 C 0.90751 0.40050 0.60835
 N194 N 0.85271 0.40510 0.61187
 H195 H 0.69840 0.34527 0.67335
 H196 H 0.97877 0.35451 0.63239
 C197 C 0.31266 -0.19037 0.64606
 C198 C 0.35190 -0.15852 0.66658
 N199 N 0.35452 -0.15613 0.71473
 C200 C 0.31952 -0.18393 0.74325
 C201 C 0.28004 -0.21635 0.72284
 N202 N 0.27838 -0.21849 0.67443
 N203 N 0.30788 -0.19102 0.59808
 C204 C 0.34041 -0.16081 0.56949
 C205 C 0.37991 -0.12908 0.58975
 N206 N 0.38515 -0.12882 0.63797
 H207 H 0.32150 -0.17982 0.78147
 H208 H 0.33556 -0.16153 0.53122
 C209 C 0.35219 0.30865 0.17198
 C210 C 0.32199 0.33263 0.13440
 N211 N 0.27000 0.31955 0.12875
 C212 C 0.24618 0.28416 0.15930
 C213 C 0.27557 0.25994 0.19799
 N214 N 0.32825 0.27339 0.20322
 N215 N 0.40437 0.32258 0.17743
 C216 C 0.42760 0.35895 0.14676
 C217 C 0.39704 0.38292 0.10924
 N218 N 0.34492 0.36903 0.10414
 H219 H 0.20355 0.27755 0.15481
 H220 H 0.46957 0.36865 0.15130
 C221 C 0.82126 0.21336 -0.15807
 C222 C 0.84871 0.16709 -0.17497
 N223 N 0.84324 0.15399 -0.22142
 C224 C 0.81027 0.18424 -0.25128
 C225 C 0.77859 0.22826 -0.23343
 N226 N 0.78666 0.24174 -0.18710
 N227 N 0.82867 0.22871 -0.11256
 C228 C 0.86131 0.19879 -0.08258
 C229 C 0.88605 0.15013 -0.09819
 N230 N 0.87933 0.13551 -0.14438
 H231 H 0.80913 0.17392 -0.28841
 H232 H 0.86487 0.21090 -0.04596
 C233 C 0.86562 0.66844 0.31817
 C234 C 0.83894 0.62545 0.34114
 N235 N 0.78599 0.61811 0.33200
 C236 C 0.75835 0.65189 0.30114
 C237 C 0.78491 0.69486 0.27724
 N238 N 0.83815 0.70196 0.28704
 N239 N 0.91755 0.67812 0.32964
 C240 C 0.94379 0.64721 0.36355
 C241 C 0.91708 0.60436 0.38691
 N242 N 0.86525 0.59424 0.37477
 H243 H 0.71553 0.64638 0.29647
 H244 H 0.98478 0.65655 0.37280
 C245 C 0.35549 0.17465 0.31950
 C246 C 0.32811 0.13418 0.34536
 N247 N 0.27668 0.12342 0.33396
 C248 C 0.25088 0.15147 0.29828
 C249 C 0.27730 0.19320 0.27207
 N250 N 0.32935 0.20377 0.28407
 N251 N 0.40716 0.18526 0.33141
 C252 C 0.43231 0.15758 0.36809
 C253 C 0.40426 0.11800 0.39489
 N254 N 0.35274 0.10729 0.38245
 H255 H 0.20906 0.14266 0.29201
 H256 H 0.47339 0.16713 0.37683
 C257 C 0.34550 0.68322 -0.17146
 C258 C 0.31541 0.65021 -0.14034
 N259 N 0.26113 0.64793 -0.14623
 C260 C 0.23548 0.67842 -0.18088
 C261 C 0.26511 0.71428 -0.21064
 N262 N 0.31984 0.71413 -0.20539
 N263 N 0.39973 0.68555 -0.16624
 C264 C 0.42535 0.65689 -0.13076
 C265 C 0.39532 0.62486 -0.09837
 N266 N 0.34082 0.62191 -0.10427
 H267 H 0.19224 0.67530 -0.18466
 H268 H 0.46869 0.65998 -0.12740
 C269 C 1.13508 -0.18910 -0.15887
 C270 C 1.13609 -0.13281 -0.16798
 N271 N 1.16812 -0.11335 -0.20353
 C272 C 1.20024 -0.14748 -0.22964
 C273 C 1.20156 -0.20425 -0.21913
 N274 N 1.16736 -0.22303 -0.18458
 N275 N 1.10328 -0.20894 -0.12333
 C276 C 1.07337 -0.17479 -0.09558
 C277 C 1.07571 -0.11817 -0.10345
 N278 N 1.10657 -0.09846 -0.14002
 H279 H 1.22381 -0.13001 -0.25843
 H280 H 1.04924 -0.19165 -0.06674
 C281 C 1.16514 0.29732 0.33829
 C282 C 1.17684 0.35269 0.33289
 N283 N 1.20919 0.36898 0.29648
 C284 C 1.23034 0.33262 0.26522
 C285 C 1.21891 0.27636 0.27046
 N286 N 1.18690 0.26088 0.30774
 N287 N 1.13247 0.28056 0.37420
 C288 C 1.11148 0.31660 0.40551
 C289 C 1.12444 0.37204 0.40136
 N290 N 1.15668 0.38901 0.36475
 H291 H 1.25638 0.34826 0.23739
 H292 H 1.08571 0.30161 0.43399
 C293 C 0.64753 -0.19028 0.32599
 C294 C 0.67956 -0.16239 0.35769
 N295 N 0.73417 -0.16570 0.35305
 C296 C 0.75813 -0.19580 0.31826
 C297 C 0.72614 -0.22483 0.28680
 N298 N 0.67141 -0.22128 0.29206
 N299 N 0.59298 -0.18585 0.32946
 C300 C 0.56886 -0.15546 0.36378
 C301 C 0.60060 -0.12919 0.39696
 N302 N 0.65550 -0.13293 0.39283
 H303 H 0.80179 -0.19751 0.31532
 H304 H 0.52532 -0.15241 0.36534
 C305 C 0.63516 0.31879 -0.17666
 C306 C 0.66098 0.36405 -0.15912
 N307 N 0.70973 0.37791 -0.17726
 C308 C 0.73400 0.34848 -0.21220
 C309 C 0.70869 0.30229 -0.22975
 N310 N 0.66008 0.28843 -0.21047
 N311 N 0.58591 0.30543 -0.15913
 C312 C 0.56151 0.33509 -0.12436
 C313 C 0.58831 0.37916 -0.10547
 N314 N 0.63745 0.39268 -0.12344
 H315 H 0.77360 0.35986 -0.22492
 H316 H 0.52242 0.32332 -0.11058
 C317 C 1.16714 0.19377 -0.13939
 C318 C 1.13881 0.15303 -0.16130
 N319 N 1.15217 0.13942 -0.20663
 C320 C 1.19286 0.16449 -0.23089
 C321 C 1.22339 0.20386 -0.20826
 N322 N 1.20840 0.21767 -0.16307
 N323 N 1.15220 0.20986 -0.09519
 C324 C 1.11071 0.18616 -0.07132
 C325 C 1.08353 0.14349 -0.09214
 N326 N 1.09827 0.12804 -0.13695
 H327 H 1.19975 0.15511 -0.26789
 H328 H 1.10079 0.19886 -0.03555
 C329 C 1.20160 0.66059 0.32646
 C330 C 1.15497 0.68501 0.34668
 N331 N 1.14078 0.73693 0.33435
 C332 C 1.17037 0.76556 0.30213
 C333 C 1.21610 0.74095 0.27907
 N334 N 1.23092 0.68879 0.29303
 N335 N 1.21690 0.60925 0.34105
 C336 C 1.18770 0.58153 0.37476
 C337 C 1.14031 0.60570 0.39420
 N338 N 1.12528 0.65703 0.37946
 H339 H 1.15742 0.80704 0.29347
 H340 H 1.20108 0.54094 0.38609
 C341 C 0.68918 0.14860 0.33993
 C342 C 0.64061 0.17156 0.35763
 N343 N 0.62508 0.22276 0.34388
 C344 C 0.65644 0.25271 0.31398
 C345 C 0.70689 0.23116 0.29759
 N346 N 0.72139 0.17903 0.31107
 N347 N 0.70407 0.09680 0.35304
 C348 C 0.67291 0.06729 0.38372
 C349 C 0.62545 0.09123 0.40312
 N350 N 0.61034 0.14280 0.38926
 H351 H 0.64234 0.29344 0.30405
 H352 H 0.68608 0.02635 0.39418
 C353 C 0.68875 0.63707 -0.17490
 C354 C 0.65067 0.67034 -0.15084
 N355 N 0.64748 0.72425 -0.16162
 C356 C 0.68144 0.74674 -0.19432
 C357 C 0.72215 0.71431 -0.21699
 N358 N 0.72371 0.65970 -0.20697
 N359 N 0.69140 0.58292 -0.16453
 C360 C 0.65837 0.56071 -0.13079
 C361 C 0.62147 0.59426 -0.10527
 N362 N 0.61835 0.64846 -0.11632
 H363 H 0.67768 0.79011 -0.20156
 H364 H 0.66200 0.51740 -0.12308
 C365 C 0.80722 -0.16662 -0.15206
 C366 C 0.86373 -0.17222 -0.15198
 N367 N 0.88887 -0.20472 -0.18431
 C368 C 0.85997 -0.23253 -0.21621
 C369 C 0.80268 -0.22847 -0.21532
 N370 N 0.77867 -0.19455 -0.18333
 N371 N 0.78145 -0.13338 -0.12093
 C372 C 0.80980 -0.10510 -0.08948
 C373 C 0.86656 -0.11060 -0.08886
 N374 N 0.89242 -0.14430 -0.12016
 H375 H 0.88197 -0.25671 -0.24195
 H376 H 0.78810 -0.07878 -0.06498
 C377 C 0.86285 0.32283 0.33785
 C378 C 0.83514 0.35744 0.36943
 N379 N 0.78064 0.36244 0.36794
 C380 C 0.75221 0.33389 0.33668
 C381 C 0.77924 0.29783 0.30523
 N382 N 0.83442 0.29407 0.30643
 N383 N 0.91768 0.31829 0.33948
 C384 C 0.94586 0.34651 0.37158
 C385 C 0.91784 0.38072 0.40360
 N386 N 0.86308 0.38537 0.40141
 H387 H 0.70899 0.34050 0.33589
 H388 H 0.98950 0.34180 0.37246
 C389 C 0.34506 -0.17145 0.32499
 C390 C 0.32484 -0.11842 0.33272
 N391 N 0.27918 -0.10073 0.31001
 C392 C 0.25303 -0.13342 0.27988
 C393 C 0.27387 -0.18686 0.27113
 N394 N 0.31930 -0.20387 0.29503
 N395 N 0.38859 -0.19097 0.34939
 C396 C 0.41272 -0.16008 0.38169
 C397 C 0.39292 -0.10679 0.38996
 N398 N 0.34918 -0.08696 0.36506
 H399 H 0.21553 -0.11816 0.26448
 H400 H 0.44598 -0.17786 0.40204
 C401 C 0.32261 0.35304 -0.16530
 C402 C 0.35457 0.32317 -0.13229
 N403 N 0.35777 0.26812 -0.13413
 C404 C 0.32984 0.24138 -0.16716
 C405 C 0.29642 0.27084 -0.19970
 N406 N 0.29437 0.32633 -0.19815
 N407 N 0.31945 0.40819 -0.16326
 C408 C 0.34641 0.43480 -0.12934
 C409 C 0.37764 0.40481 -0.09567
 N410 N 0.38111 0.34962 -0.09830
 H411 H 0.33284 0.19737 -0.16767
 H412 H 0.34286 0.47876 -0.12826
 C413 C 1.18752 -0.13305 0.15009
 C414 C 1.13795 -0.15686 0.14172
 N415 N 1.12641 -0.20495 0.16327
 C416 C 1.16126 -0.22943 0.19456
 C417 C 1.20901 -0.20304 0.20755
 N418 N 1.22170 -0.15645 0.18269
 N419 N 1.20048 -0.08682 0.12559
 C420 C 1.16542 -0.06295 0.09373
 C421 C 1.11454 -0.08526 0.08739
 N422 N 1.10247 -0.13214 0.11127
 H423 H 1.15100 -0.26867 0.20982
 H424 H 1.17695 -0.02699 0.07387
 C425 C 1.19634 0.30547 0.65698
 C426 C 1.15767 0.34149 0.67689
 N427 N 1.15436 0.34545 0.72501
 C428 C 1.18803 0.31508 0.75396
 C429 C 1.22732 0.27916 0.73392
 N430 N 1.22946 0.27537 0.68571
 N431 N 1.20065 0.30124 0.60917
 C432 C 1.16840 0.33211 0.58002
 C433 C 1.12996 0.36868 0.59951
 N434 N 1.12502 0.37256 0.64769
 H435 H 1.18389 0.31842 0.79218
 H436 H 1.17316 0.32869 0.54180
 C437 C 0.66225 -0.20135 0.66475
 C438 C 0.67800 -0.14754 0.65700
 N439 N 0.72248 -0.12997 0.67908
 C440 C 0.75170 -0.16359 0.70897
 C441 C 0.73551 -0.21765 0.71767
 N442 N 0.69127 -0.23488 0.69448
 N443 N 0.61846 -0.21950 0.64209
 C444 C 0.58993 -0.18634 0.61147
 C445 C 0.60591 -0.13253 0.60308
 N446 N 0.64959 -0.11429 0.62634
 H447 H 0.78728 -0.14809 0.72526
 H448 H 0.55561 -0.20211 0.59330
 C449 C 0.64811 0.32000 0.17767
 C450 C 0.66740 0.37179 0.16625
 N451 N 0.71049 0.39017 0.18971
 C452 C 0.73547 0.35899 0.22404
 C453 C 0.71602 0.30690 0.23613
 N454 N 0.67284 0.28898 0.21191
 N455 N 0.60654 0.30045 0.15286
 C456 C 0.58370 0.33027 0.11661
 C457 C 0.60335 0.38193 0.10475
 N458 N 0.64451 0.40170 0.13020
 H459 H 0.77106 0.37429 0.24050
 H460 H 0.55083 0.31364 0.09706
 C461 C 0.79914 0.19699 0.15841
 C462 C 0.84121 0.16267 0.17538
 N463 N 0.85236 0.16145 0.22274
 C464 C 0.82363 0.19344 0.25373
 C465 C 0.78240 0.22972 0.23655
 N466 N 0.77150 0.22940 0.18899
 N467 N 0.78601 0.19719 0.11167
 C468 C 0.81342 0.16467 0.08075
 C469 C 0.85666 0.13102 0.09707
 N470 N 0.86966 0.13077 0.14426
 H471 H 0.83270 0.19036 0.29131
 H472 H 0.80228 0.16599 0.04355
 C473 C 0.83996 0.68504 0.64430
 C474 C 0.86968 0.64047 0.66362
 N475 N 0.86278 0.62670 0.71047
 C476 C 0.82800 0.65581 0.73892
 C477 C 0.79851 0.70140 0.71985
 N478 N 0.80579 0.71413 0.67263
 N479 N 0.84641 0.69937 0.59769
 C480 C 0.88124 0.67096 0.56926
 C481 C 0.91152 0.62648 0.58827
 N482 N 0.90485 0.61186 0.63518
 H483 H 0.82556 0.64520 0.77647
 H484 H 0.88490 0.68257 0.53192
 C485 C 0.33040 0.13379 0.68609
 C486 C 0.36653 0.16541 0.65912
 N487 N 0.37257 0.21818 0.67018
 C488 C 0.34297 0.24124 0.70587
 C489 C 0.30409 0.21073 0.73141
 N490 N 0.30003 0.15706 0.72130
 N491 N 0.32398 0.08112 0.67481
 C492 C 0.35123 0.05887 0.63738
 C493 C 0.38613 0.09089 0.60910
 N494 N 0.39334 0.14349 0.62117
 H495 H 0.34746 0.28400 0.71260
 H496 H 0.34475 0.01679 0.62921
 C497 C 0.31826 0.66154 0.17671
 C498 C 0.35610 0.69093 0.14966
 N499 N 0.35939 0.74511 0.15583
 C500 C 0.32643 0.77145 0.18733
 C501 C 0.28715 0.74269 0.21457
 N502 N 0.28435 0.68795 0.20776
 N503 N 0.31497 0.60724 0.17044
 C504 C 0.34722 0.58118 0.13810
 C505 C 0.38422 0.61074 0.10975
 N506 N 0.38781 0.66518 0.11659
 H507 H 0.32977 0.81504 0.19012
 H508 H 0.34298 0.53791 0.13378
   
