data_POSCAR
  _audit_creation_date              2014-09-24
  _audit_creation_method            'ToBaCCo'
  _symmetry_space_group_name_H-M    'P1'
  _symmetry_Int_Tables_number       1
  _symmetry_cell_setting            triclinic
  loop_
  _symmetry_equiv_pos_as_xyz
 x,y,z
_cell_length_a 23.4008
_cell_length_b 23.4114
_cell_length_c 23.4607
_cell_angle_alpha 90.118400
_cell_angle_beta 90.136200
_cell_angle_gamma 89.990800
loop_
  _atom_site_label
  _atom_site_type_symbol
  _atom_site_fract_x
  _atom_site_fract_y
  _atom_site_fract_z
O1 O 0.44809 0.95357 -0.55719
 O2 O 0.55441 0.95292 -0.44101
 O3 O 0.44332 0.95202 -0.44644
 O4 O 0.55934 0.95236 -0.55200
 O5 O 0.55267 1.04627 -0.55832
 O6 O 0.45020 1.04587 -0.43901
 O7 O 0.56141 1.04672 -0.44767
 O8 O 0.44170 1.04745 -0.54972
 Cu9 Cu 0.50132 0.94316 -0.49924
 Cu10 Cu 0.50151 1.05614 -0.49857
 C11 C 0.42566 1.00068 -0.57202
 C12 C 0.57724 0.99977 -0.42566
 C13 C 0.42810 0.99880 -0.42365
 C14 C 0.57459 0.99927 -0.57430
 O15 O -0.55718 1.44448 0.04721
 O16 O -0.44279 1.55215 0.04636
 O17 O -0.55441 1.55701 0.04773
 O18 O -0.44727 1.44149 0.04341
 O19 O -0.44629 1.44691 -0.05061
 O20 O -0.56071 1.55449 -0.04617
 O21 O -0.44974 1.55848 -0.04736
 O22 O -0.55863 1.44465 -0.04692
 Cu23 Cu -0.50037 1.49887 0.05569
 Cu24 Cu -0.50386 1.50113 -0.05726
 C25 C -0.57691 1.42559 0.00035
 C26 C -0.42722 1.57405 -0.00053
 C27 C -0.57653 1.57477 0.00144
 C28 C -0.42800 1.42522 -0.00448
 O29 O -0.04696 0.44668 0.44427
 O30 O -0.04612 0.55565 0.55804
 O31 O -0.04794 0.55710 0.44614
 O32 O -0.04716 0.44525 0.55599
 O33 O 0.04727 0.44461 0.55521
 O34 O 0.04651 0.55777 0.44612
 O35 O 0.04823 0.55674 0.55631
 O36 O 0.04748 0.44584 0.44496
 Cu37 Cu -0.05653 0.50120 0.50116
 Cu38 Cu 0.05686 0.50124 0.50063
 C39 C 0.00022 0.42761 0.42550
 C40 C 0.00126 0.57495 0.57639
 C41 C -0.00093 0.57646 0.42748
 C42 C 0.00010 0.42581 0.57416
 O43 O -0.14575 0.99944 -0.07938
 O44 O 0.14865 0.99920 -0.07451
 O45 O 0.00221 1.07493 -0.14818
 O46 O 0.00518 0.92047 -0.14559
 O47 O 0.00080 0.85173 -0.07527
 O48 O -0.00301 1.14556 -0.07957
 O49 O 0.07990 0.99494 -0.14515
 O50 O -0.07505 1.00111 -0.14794
 Zr51 Zr 0.00177 0.99855 -0.10039
 O52 O 0.05293 0.94759 -0.05019
 O53 O -0.05131 1.05081 -0.05344
 C54 C -0.12805 1.00081 -0.13173
 C55 C 0.13244 0.99614 -0.12736
 C56 C -0.00107 1.12786 -0.13197
 C57 C 0.00388 0.86797 -0.12803
 H58 H 0.07693 1.07519 -0.07555
 O59 O 0.05226 1.05110 -0.05134
 H60 H -0.07467 0.92303 -0.07613
 O61 O -0.05060 0.94773 -0.05171
 O62 O 0.14647 1.00196 0.07917
 O63 O -0.14768 0.99947 0.07516
 O64 O 0.07637 1.14770 -0.00087
 O65 O 0.07768 0.85338 -0.00054
 O66 O -0.07714 0.85305 0.00382
 O67 O -0.07815 1.14659 -0.00662
 O68 O 0.00126 1.07981 0.14528
 O69 O -0.00104 0.92516 0.14775
 O70 O -0.00107 1.14854 0.07481
 O71 O -0.00319 0.85442 0.07900
 O72 O 0.14637 1.07838 0.00539
 O73 O -0.14746 1.07653 -0.00411
 O74 O -0.14693 0.92259 -0.00040
 O75 O 0.14739 0.92322 0.00242
 O76 O 0.07599 1.00545 0.14771
 O77 O -0.07852 0.99879 0.14556
 Zr78 Zr 0.10072 1.00052 0.00164
 Zr79 Zr -0.10038 0.99975 -0.00148
 Zr80 Zr -0.00058 1.10064 -0.00167
 Zr81 Zr 0.00016 0.89958 0.00119
 Zr82 Zr -0.00077 1.00167 0.10020
 O83 O -0.05218 0.94895 0.05169
 O84 O 0.05112 1.05316 0.05162
 C85 C 0.12896 1.00453 0.13150
 C86 C -0.13115 0.99836 0.12800
 C87 C 0.12911 1.13103 0.00307
 C88 C 0.13044 0.87046 0.00062
 C89 C -0.12994 0.86994 0.00237
 C90 C -0.13083 1.12930 -0.00663
 C91 C 0.00075 1.13233 0.12767
 C92 C -0.00298 0.87218 0.13145
 H93 H -0.07700 1.07685 0.07372
 O94 O -0.05223 1.05225 0.05001
 H95 H 0.07533 0.92534 0.07759
 O96 O 0.05119 0.94939 0.05270
 C97 C 0.29843 1.00261 0.30290
 N98 N 0.30073 1.04427 0.34316
 N99 N 0.34148 1.04379 0.38292
 C100 C 0.38079 1.00115 0.38435
 N101 N 0.37816 0.95921 0.34441
 N102 N 0.33796 0.96018 0.30412
 C103 C 0.25435 1.00358 0.25843
 N104 N 0.26405 0.97844 0.20720
 N105 N 0.22424 0.97943 0.16657
 C106 C 0.17298 1.00484 0.17600
 N107 N 0.16307 1.02966 0.22740
 N108 N 0.20327 1.02946 0.26775
 C109 C -0.30120 0.99808 0.29815
 N110 N -0.30240 0.95643 0.33828
 N111 N -0.34230 0.95662 0.37869
 C112 C -0.38181 0.99901 0.38097
 N113 N -0.38036 1.04094 0.34111
 N114 N -0.34100 1.04023 0.30014
 C115 C -0.25730 0.99771 0.25366
 N116 N -0.26729 1.02256 0.20236
 N117 N -0.22735 1.02209 0.16197
 C118 C -0.17570 0.99753 0.17180
 N119 N -0.16559 0.97302 0.22323
 N120 N -0.20586 0.97268 0.26327
 C121 C -0.29734 0.99990 -0.30309
 N122 N -0.30868 1.04784 -0.33349
 N123 N -0.34968 1.04790 -0.37299
 C124 C -0.38009 0.99972 -0.38428
 N125 N -0.36822 0.95161 -0.35422
 N126 N -0.32796 0.95186 -0.31396
 C127 C -0.25319 1.00014 -0.25875
 N128 N -0.25996 0.96874 -0.21070
 N129 N -0.22022 0.96946 -0.16996
 C130 C -0.17187 1.00078 -0.17633
 N131 N -0.16480 1.03177 -0.22464
 N132 N -0.20506 1.03190 -0.26492
 C133 C 0.30330 0.99666 -0.29669
 N134 N 0.30506 0.95501 -0.33696
 N135 N 0.34514 0.95554 -0.37718
 C136 C 0.38430 0.99825 -0.37912
 N137 N 0.38230 1.04017 -0.33911
 N138 N 0.34275 1.03915 -0.29834
 C139 C 0.25923 0.99592 -0.25238
 N140 N 0.26855 1.02150 -0.20122
 N141 N 0.22842 1.02080 -0.16102
 C142 C 0.17726 0.99525 -0.17089
 N143 N 0.16782 0.96998 -0.22218
 N144 N 0.20828 0.96989 -0.26204
 C145 C 0.29917 1.30155 0.00210
 N146 N 0.31276 1.32864 -0.04713
 N147 N 0.35337 1.36851 -0.04784
 C148 C 0.38107 1.38356 0.00088
 N149 N 0.36700 1.35675 0.05021
 N150 N 0.32717 1.31610 0.05071
 C151 C 0.25487 1.25739 0.00274
 N152 N 0.26012 1.21100 0.03699
 N153 N 0.22015 1.17045 0.03693
 C154 C 0.17301 1.17552 0.00349
 N155 N 0.16750 1.22219 -0.03030
 N156 N 0.20799 1.26218 -0.03106
 C157 C 0.29981 0.69915 0.00298
 N158 N 0.31171 0.66988 -0.04550
 N159 N 0.35215 0.62989 -0.04591
 C160 C 0.38146 0.61683 0.00240
 N161 N 0.36909 0.64576 0.05111
 N162 N 0.32934 0.68659 0.05125
 C163 C 0.25570 0.74354 0.00286
 N164 N 0.26194 0.79153 0.03484
 N165 N 0.22229 0.83239 0.03356
 C166 C 0.17463 0.82621 0.00102
 N167 N 0.16814 0.77797 -0.03049
 N168 N 0.20829 0.73763 -0.03006
 C169 C -0.30032 0.69945 0.00058
 N170 N -0.33997 0.69787 -0.04175
 N171 N -0.38012 0.65752 -0.04248
 C172 C -0.38257 0.61790 -0.00040
 N173 N -0.34317 0.61973 0.04213
 N174 N -0.30248 0.65952 0.04237
 C175 C -0.25606 0.74375 0.00130
 N176 N -0.20510 0.73428 0.02740
 N177 N -0.16471 0.77441 0.02759
 C178 C -0.17428 0.82576 0.00254
 N179 N -0.22542 0.83537 -0.02314
 N180 N -0.26545 0.79493 -0.02411
 C181 C -0.30231 1.29866 -0.00845
 N182 N -0.30546 1.33824 -0.05057
 N183 N -0.34596 1.37829 -0.04972
 C184 C -0.38408 1.38067 -0.00624
 N185 N -0.38064 1.34135 0.03604
 N186 N -0.34077 1.30078 0.03471
 C187 C -0.25801 1.25442 -0.00917
 N188 N -0.26719 1.20347 0.01671
 N189 N -0.22685 1.16333 0.01675
 C190 C -0.17554 1.17307 -0.00826
 N191 N -0.16619 1.22417 -0.03387
 N192 N -0.20690 1.26399 -0.03472
 C193 C 0.00097 1.30296 0.29788
 N194 N 0.04440 1.30625 0.33619
 N195 N 0.04432 1.34630 0.37661
 C196 C 0.00030 1.38383 0.38078
 N197 N -0.04339 1.38027 0.34276
 N198 N -0.04283 1.34080 0.30173
 C199 C 0.00124 1.25892 0.25337
 N200 N -0.02546 1.26793 0.20274
 N201 N -0.02499 1.22786 0.16231
 C202 C 0.00142 1.17704 0.17146
 N203 N 0.02777 1.16791 0.22223
 N204 N 0.02812 1.20833 0.26228
 C205 C -0.00088 1.29814 -0.30179
 N206 N 0.04316 1.30222 -0.33914
 N207 N 0.04380 1.34328 -0.37841
 C208 C -0.00002 1.38110 -0.38224
 N209 N -0.04426 1.37670 -0.34520
 N210 N -0.04444 1.33625 -0.30535
 C211 C -0.00128 1.25359 -0.25797
 N212 N -0.02896 1.26224 -0.20792
 N213 N -0.02875 1.22216 -0.16770
 C214 C -0.00171 1.17162 -0.17651
 N215 N 0.02551 1.16273 -0.22680
 N216 N 0.02609 1.20320 -0.26667
 C217 C 0.00324 0.69747 -0.29816
 N218 N -0.04606 0.67013 -0.31192
 N219 N -0.04686 0.63074 -0.35301
 C220 C 0.00185 0.61649 -0.38108
 N221 N 0.05124 0.64354 -0.36682
 N222 N 0.05181 0.68371 -0.32651
 C223 C 0.00394 0.74142 -0.25362
 N224 N 0.03782 0.78818 -0.25878
 N225 N 0.03770 0.82868 -0.21878
 C226 C 0.00460 0.82321 -0.17168
 N227 N -0.02880 0.77615 -0.16621
 N228 N -0.02951 0.73619 -0.20674
 C229 C -0.00285 0.70302 0.30233
 N230 N -0.04619 0.66470 0.30604
 N231 N -0.04578 0.62465 0.34630
 C232 C -0.00154 0.62091 0.38363
 N233 N 0.04204 0.65893 0.37964
 N234 N 0.04116 0.69959 0.33997
 C235 C -0.00343 0.74720 0.25817
 N236 N 0.02316 0.79798 0.26701
 N237 N 0.02261 0.83815 0.22686
 C238 C -0.00375 0.82857 0.17613
 N239 N -0.03000 0.77764 0.16714
 N240 N -0.03027 0.73784 0.20765
   
