data_POSCAR
  _audit_creation_date              2014-09-24
  _audit_creation_method            'ToBaCCo'
  _symmetry_space_group_name_H-M    'P1'
  _symmetry_Int_Tables_number       1
  _symmetry_cell_setting            triclinic
  loop_
  _symmetry_equiv_pos_as_xyz
 x,y,z
_cell_length_a 47.1929
_cell_length_b 47.1929
_cell_length_c 45.1991
_cell_angle_alpha 90.057300
_cell_angle_beta 89.888600
_cell_angle_gamma 89.977800
loop_
  _atom_site_label
  _atom_site_type_symbol
  _atom_site_fract_x
  _atom_site_fract_y
  _atom_site_fract_z
C1 C 0.29335 0.28856 0.23852
 H2 H 0.29465 0.28899 0.26241
 C3 C 0.31155 0.30538 0.22163
 H4 H 0.32688 0.31892 0.23250
 C5 C 0.27197 0.27023 0.19507
 H6 H 0.25681 0.25624 0.18478
 C7 C 0.28978 0.28671 0.17736
 H8 H 0.28808 0.28557 0.15349
 N9 N 0.27379 0.27174 0.22510
 C10 C 0.20687 0.26044 0.29081
 H11 H 0.20562 0.23756 0.29148
 C12 C 0.18868 0.27675 0.30832
 H13 H 0.17340 0.26644 0.32263
 C14 C 0.22808 0.30193 0.27113
 H15 H 0.24313 0.31169 0.25631
 C16 C 0.21028 0.31901 0.28826
 H17 H 0.21190 0.34186 0.28679
 Zn18 Zn 0.25002 0.24959 0.24971
 N19 N 0.22633 0.27318 0.27299
 C20 C 0.27221 0.22898 0.30416
 N21 N 0.27384 0.22737 0.27413
 C22 C 0.29328 0.21045 0.26055
 C23 C 0.31157 0.19364 0.27732
 C24 C 0.29011 0.21253 0.32175
 C25 C 0.20662 0.23894 0.20905
 C26 C 0.18825 0.22272 0.19174
 C27 C 0.20981 0.18035 0.21156
 C28 C 0.22779 0.19735 0.22849
 N29 N 0.22614 0.22610 0.22666
 H30 H 0.25715 0.24306 0.31457
 H31 H 0.29444 0.20993 0.23665
 H32 H 0.32681 0.18004 0.26634
 H33 H 0.28856 0.21377 0.34563
 H34 H 0.20545 0.26182 0.20840
 H35 H 0.17292 0.23310 0.17761
 H36 H 0.21134 0.15749 0.21301
 H37 H 0.24290 0.18751 0.24315
 C38 C 0.19050 0.30629 0.30710
 C39 C 0.30965 0.30453 0.19078
 C40 C 0.18995 0.19316 0.19295
 C41 C 0.30986 0.19463 0.30819
 C42 C 0.79398 0.78946 0.23809
 H43 H 0.79530 0.78993 0.26198
 C44 C 0.81209 0.80634 0.22116
 H45 H 0.82736 0.81994 0.23206
 C46 C 0.77262 0.77098 0.19471
 H47 H 0.75750 0.75691 0.18446
 C48 C 0.79033 0.78750 0.17693
 H49 H 0.78854 0.78627 0.15306
 N50 N 0.77447 0.77254 0.22472
 C51 C 0.70761 0.76112 0.29048
 H52 H 0.70640 0.73823 0.29115
 C53 C 0.68938 0.77738 0.30799
 H54 H 0.67413 0.76704 0.32230
 C55 C 0.72871 0.80265 0.27079
 H56 H 0.74374 0.81246 0.25597
 C57 C 0.71087 0.81969 0.28793
 H58 H 0.71244 0.84255 0.28646
 Zn59 Zn 0.75078 0.75036 0.24939
 N60 N 0.72703 0.77391 0.27265
 C61 C 0.77298 0.72981 0.30386
 N62 N 0.77466 0.72822 0.27383
 C63 C 0.79413 0.71131 0.26028
 C64 C 0.81236 0.69447 0.27706
 C65 C 0.79083 0.71332 0.32147
 C66 C 0.70739 0.73952 0.20876
 C67 C 0.68905 0.72321 0.19150
 C68 C 0.71074 0.68094 0.21139
 C69 C 0.72868 0.69802 0.22827
 N70 N 0.72695 0.72677 0.22639
 H71 H 0.75790 0.74387 0.31425
 H72 H 0.79531 0.71080 0.23637
 H73 H 0.82760 0.68085 0.26610
 H74 H 0.78923 0.71453 0.34535
 H75 H 0.70614 0.76240 0.20807
 H76 H 0.67368 0.73352 0.17735
 H77 H 0.71234 0.65809 0.21288
 H78 H 0.74382 0.68825 0.24295
 C79 C 0.69112 0.80693 0.30677
 C80 C 0.81016 0.80544 0.19028
 C81 C 0.69084 0.69366 0.19276
 C82 C 0.81059 0.69541 0.30792
 C83 C 0.79433 0.28793 0.73958
 H84 H 0.79566 0.28841 0.76347
 C85 C 0.81245 0.30479 0.72262
 H86 H 0.82775 0.31839 0.73344
 C87 C 0.77291 0.26951 0.69620
 H88 H 0.75776 0.25547 0.68595
 C89 C 0.79064 0.28602 0.67842
 H90 H 0.78888 0.28486 0.65456
 N91 N 0.77478 0.27106 0.72621
 C92 C 0.70787 0.25985 0.79197
 H93 H 0.70662 0.23697 0.79269
 C94 C 0.68964 0.27618 0.80941
 H95 H 0.67435 0.26591 0.82372
 C96 C 0.72907 0.30130 0.77220
 H97 H 0.74413 0.31104 0.75736
 C98 C 0.71123 0.31841 0.78925
 H99 H 0.71283 0.34126 0.78772
 Zn100 Zn 0.75103 0.24893 0.75088
 N101 N 0.72734 0.27256 0.77413
 C102 C 0.77319 0.22832 0.80534
 N103 N 0.77485 0.22672 0.77531
 C104 C 0.79427 0.20978 0.76174
 C105 C 0.81251 0.19291 0.77849
 C106 C 0.79102 0.21182 0.82295
 C107 C 0.70761 0.23827 0.71026
 C108 C 0.68925 0.22205 0.69293
 C109 C 0.71084 0.17968 0.71272
 C110 C 0.72880 0.19668 0.72967
 N111 N 0.72713 0.22543 0.72786
 H112 H 0.75813 0.24241 0.81573
 H113 H 0.79544 0.20929 0.73784
 H114 H 0.82770 0.17931 0.76737
 H115 H 0.78935 0.21313 0.84684
 H116 H 0.70642 0.26115 0.70963
 H117 H 0.67392 0.23243 0.67880
 H118 H 0.71239 0.15682 0.71415
 H119 H 0.74392 0.18684 0.74432
 C120 C 0.69143 0.30573 0.80809
 C121 C 0.81047 0.30391 0.69178
 C122 C 0.69097 0.19249 0.69411
 C123 C 0.81079 0.19384 0.80940
 C124 C 0.29321 0.78904 0.73895
 H125 H 0.29451 0.78951 0.76284
 C126 C 0.31139 0.80585 0.72202
 H127 H 0.32670 0.81943 0.73286
 C128 C 0.27185 0.77061 0.69554
 H129 H 0.25671 0.75657 0.68527
 C130 C 0.28964 0.78707 0.67779
 H131 H 0.28794 0.78589 0.65392
 N132 N 0.27367 0.77216 0.72556
 C133 C 0.20681 0.76079 0.79133
 H134 H 0.20560 0.73791 0.79203
 C135 C 0.18856 0.77708 0.80880
 H136 H 0.17330 0.76676 0.82311
 C137 C 0.22792 0.80230 0.77160
 H138 H 0.24295 0.81208 0.75676
 C139 C 0.21007 0.81936 0.78868
 H140 H 0.21163 0.84222 0.78717
 Zn141 Zn 0.24996 0.74999 0.75021
 N142 N 0.22624 0.77356 0.77349
 C143 C 0.27219 0.72935 0.80464
 N144 N 0.27383 0.72781 0.77460
 C145 C 0.29330 0.71094 0.76098
 C146 C 0.31160 0.69412 0.77770
 C147 C 0.29011 0.71287 0.82218
 C148 C 0.20657 0.73924 0.70956
 C149 C 0.18824 0.72297 0.69224
 C150 C 0.20990 0.68066 0.71208
 C151 C 0.22783 0.69770 0.72902
 N152 N 0.22611 0.72645 0.72718
 H153 H 0.25711 0.74337 0.81508
 H154 H 0.29445 0.71048 0.73708
 H155 H 0.32685 0.68055 0.76669
 H156 H 0.28856 0.71405 0.84607
 H157 H 0.20534 0.76212 0.70890
 H158 H 0.17290 0.73331 0.67810
 H159 H 0.21149 0.65780 0.71353
 H160 H 0.24296 0.68790 0.74368
 C161 C 0.19030 0.80663 0.80752
 C162 C 0.30948 0.80494 0.69117
 C163 C 0.19002 0.69342 0.69346
 C164 C 0.30989 0.69502 0.80857
 C165 C 0.03781 0.04387 0.01102
 H166 H 0.03827 0.04519 -0.01287
 C167 C 0.05467 0.06201 0.02792
 H168 H 0.06825 0.07732 0.01706
 C169 C 0.01941 0.02247 0.05446
 H170 H 0.00539 0.00732 0.06475
 C171 C 0.03592 0.04022 0.07218
 H172 H 0.03477 0.03848 0.09605
 N173 N 0.02094 0.02432 0.02444
 C174 C 0.00970 -0.04257 -0.04125
 H175 H -0.01318 -0.04381 -0.04194
 C176 C 0.02603 -0.06079 -0.05871
 H177 H 0.01574 -0.07607 -0.07300
 C178 C 0.05116 -0.02139 -0.02154
 H179 H 0.06091 -0.00635 -0.00672
 C180 C 0.06826 -0.03922 -0.03862
 H181 H 0.09112 -0.03763 -0.03711
 Zn182 Zn -0.00119 0.00058 -0.00018
 N183 N 0.02242 -0.02312 -0.02343
 C184 C -0.02178 0.02277 -0.05464
 N185 N -0.02339 0.02441 -0.02461
 C186 C -0.04032 0.04386 -0.01105
 C187 C -0.05714 0.06212 -0.02782
 C188 C -0.03825 0.04064 -0.07224
 C189 C -0.01189 -0.04283 0.04051
 C190 C -0.02813 -0.06120 0.05784
 C191 C -0.07047 -0.03960 0.03804
 C192 C -0.05346 -0.02163 0.02108
 N193 N -0.02471 -0.02330 0.02289
 H194 H -0.00770 0.00771 -0.06505
 H195 H -0.04083 0.04502 0.01286
 H196 H -0.07076 0.07735 -0.01684
 H197 H -0.03702 0.03909 -0.09612
 H198 H 0.01099 -0.04403 0.04113
 H199 H -0.01776 -0.07654 0.07198
 H200 H -0.09334 -0.03804 0.03661
 H201 H -0.06329 -0.00651 0.00642
 C202 C 0.05557 -0.05901 -0.05743
 C203 C 0.05379 0.06006 0.05877
 C204 C -0.05768 -0.05947 0.05665
 C205 C -0.05617 0.06039 -0.05868
 C206 C 0.03868 0.54349 0.51135
 H207 H 0.03915 0.54480 0.48746
 C208 C 0.05549 0.56168 0.52825
 H209 H 0.06906 0.57699 0.51739
 C210 C 0.02027 0.52210 0.55480
 H211 H 0.00625 0.50695 0.56509
 C212 C 0.03673 0.53990 0.57252
 H213 H 0.03555 0.53818 0.59639
 N214 N 0.02182 0.52394 0.52477
 C215 C 0.01052 0.45704 0.45911
 H216 H -0.01236 0.45580 0.45846
 C217 C 0.02682 0.43884 0.44160
 H218 H 0.01650 0.42356 0.42732
 C219 C 0.05202 0.47823 0.47872
 H220 H 0.06179 0.49328 0.49352
 C221 C 0.06909 0.46042 0.46160
 H222 H 0.09195 0.46202 0.46304
 Zn223 Zn -0.00032 0.50019 0.50017
 N224 N 0.02328 0.47650 0.47690
 C225 C -0.02088 0.52239 0.44572
 N226 N -0.02252 0.52402 0.47575
 C227 C -0.03946 0.54346 0.48931
 C228 C -0.05625 0.56174 0.47254
 C229 C -0.03732 0.54030 0.42812
 C230 C -0.01097 0.45677 0.54085
 C231 C -0.02717 0.43840 0.55820
 C232 C -0.06955 0.45998 0.53846
 C233 C -0.05256 0.47796 0.52148
 N234 N -0.02381 0.47630 0.52325
 H235 H -0.00680 0.50734 0.43532
 H236 H -0.03999 0.54460 0.51321
 H237 H -0.06987 0.57698 0.48351
 H238 H -0.03606 0.53876 0.40424
 H239 H 0.01192 0.45559 0.54145
 H240 H -0.01679 0.42306 0.57232
 H241 H -0.09242 0.46153 0.53706
 H242 H -0.06241 0.49309 0.50684
 C243 C 0.05637 0.44063 0.44280
 C244 C 0.05458 0.55975 0.55910
 C245 C -0.05673 0.44011 0.55705
 C246 C -0.05524 0.56005 0.44167
 C247 C 0.53921 0.04356 0.51153
 H248 H 0.53972 0.04492 0.48764
 C249 C 0.55605 0.06164 0.52851
 H250 H 0.56968 0.07694 0.51771
 C251 C 0.52068 0.02210 0.55489
 H252 H 0.50661 0.00696 0.56512
 C253 C 0.53718 0.03979 0.57268
 H254 H 0.53597 0.03801 0.59655
 N255 N 0.52228 0.02401 0.52487
 C256 C 0.51097 -0.04274 0.45903
 H257 H 0.48809 -0.04395 0.45835
 C258 C 0.52727 -0.06092 0.44150
 H259 H 0.51696 -0.07614 0.42716
 C260 C 0.55247 -0.02164 0.47876
 H261 H 0.56224 -0.00664 0.49361
 C262 C 0.56954 -0.03944 0.46162
 H263 H 0.59240 -0.03786 0.46309
 Zn264 Zn 0.50014 0.00035 0.50017
 N265 N 0.52373 -0.02334 0.47689
 C266 C 0.47962 0.02264 0.44573
 N267 N 0.47801 0.02427 0.47576
 C268 C 0.46109 0.04371 0.48934
 C269 C 0.44425 0.06197 0.47259
 C270 C 0.46314 0.04052 0.42815
 C271 C 0.48928 -0.04311 0.54077
 C272 C 0.47296 -0.06144 0.55806
 C273 C 0.43071 -0.03972 0.53820
 C274 C 0.44779 -0.02178 0.52129
 N275 N 0.47654 -0.02353 0.52315
 H276 H 0.49369 0.00758 0.43532
 H277 H 0.46057 0.04485 0.51324
 H278 H 0.43062 0.07718 0.48357
 H279 H 0.46435 0.03896 0.40426
 H280 H 0.51216 -0.04435 0.54145
 H281 H 0.48326 -0.07682 0.57221
 H282 H 0.40785 -0.03811 0.53673
 H283 H 0.43803 -0.00663 0.50662
 C284 C 0.55682 -0.05915 0.44274
 C285 C 0.55511 0.05963 0.55935
 C286 C 0.44342 -0.05964 0.55682
 C287 C 0.44520 0.06025 0.44172
 C288 C 0.53920 0.54353 0.01117
 H289 H 0.53967 0.54483 -0.01273
 C290 C 0.55603 0.56171 0.02805
 H291 H 0.56961 0.57701 0.01717
 C292 C 0.52079 0.52218 0.05463
 H293 H 0.50677 0.50704 0.06494
 C294 C 0.53728 0.53997 0.07233
 H295 H 0.53611 0.53826 0.09621
 N296 N 0.52234 0.52400 0.02461
 C297 C 0.51102 0.45709 -0.04105
 H298 H 0.48814 0.45588 -0.04174
 C299 C 0.52733 0.43883 -0.05848
 H300 H 0.51702 0.42355 -0.07276
 C301 C 0.55251 0.47822 -0.02135
 H302 H 0.56228 0.49327 -0.00654
 C303 C 0.56959 0.46035 -0.03840
 H304 H 0.59245 0.46192 -0.03689
 Zn305 Zn 0.50018 0.50026 0.00000
 N306 N 0.52377 0.47653 -0.02324
 C307 C 0.47955 0.52245 -0.05445
 N308 N 0.47801 0.52411 -0.02441
 C309 C 0.46112 0.54358 -0.01082
 C310 C 0.44428 0.56184 -0.02756
 C311 C 0.46305 0.54033 -0.07202
 C312 C 0.48940 0.45688 0.04072
 C313 C 0.47311 0.43853 0.05803
 C314 C 0.43082 0.46016 0.03812
 C315 C 0.44788 0.47811 0.02120
 N316 N 0.47663 0.47641 0.02307
 H317 H 0.49359 0.50736 -0.06487
 H318 H 0.46066 0.54475 0.01308
 H319 H 0.43069 0.57709 -0.01657
 H320 H 0.46423 0.53875 -0.09590
 H321 H 0.51228 0.45567 0.04140
 H322 H 0.48343 0.42319 0.07219
 H323 H 0.40796 0.46173 0.03664
 H324 H 0.43810 0.49323 0.00651
 C325 C 0.55688 0.44057 -0.05720
 C326 C 0.55514 0.55980 0.05890
 C327 C 0.44356 0.44028 0.05677
 C328 C 0.44518 0.56010 -0.05843
 C329 C 0.10490 -0.11189 -0.14256
 C330 C 0.13771 -0.11102 -0.14294
 C331 C 0.13823 -0.14353 -0.14132
 C332 C 0.10570 -0.14469 -0.14122
 C333 C 0.10555 -0.11094 -0.10859
 C334 C 0.10607 -0.14346 -0.10696
 C335 C 0.13809 -0.10979 -0.10870
 C336 C 0.13889 -0.14258 -0.10735
 C337 C 0.15660 -0.16151 -0.15956
 C338 C 0.17188 -0.17612 -0.17456
 C339 C 0.08752 -0.09263 -0.09035
 C340 C 0.07287 -0.07739 -0.07535
 H341 H 0.09072 -0.09907 -0.15683
 H342 H 0.15092 -0.09788 -0.15793
 H343 H 0.09259 -0.15925 -0.15480
 H344 H 0.09285 -0.15659 -0.09196
 H345 H 0.15120 -0.09524 -0.09512
 H346 H 0.15307 -0.15540 -0.09308
 C347 C 0.10540 0.38786 0.35745
 C348 C 0.13821 0.38868 0.35695
 C349 C 0.13869 0.35616 0.35850
 C350 C 0.10615 0.35505 0.35872
 C351 C 0.10617 0.38874 0.39142
 C352 C 0.10663 0.35623 0.39298
 C353 C 0.13870 0.38984 0.39119
 C354 C 0.13945 0.35704 0.39247
 C355 C 0.15696 0.33818 0.34017
 C356 C 0.17216 0.32356 0.32509
 C357 C 0.08822 0.40705 0.40975
 C358 C 0.07362 0.42227 0.42482
 H359 H 0.09119 0.40073 0.34326
 H360 H 0.15140 0.40182 0.34194
 H361 H 0.09297 0.34055 0.34515
 H362 H 0.09344 0.34309 0.40800
 H363 H 0.15189 0.40434 0.40475
 H364 H 0.15366 0.34417 0.40667
 C365 C 0.60588 -0.11172 0.35727
 C366 C 0.63869 -0.11084 0.35676
 C367 C 0.63923 -0.14336 0.35825
 C368 C 0.60669 -0.14452 0.35847
 C369 C 0.60666 -0.11089 0.39124
 C370 C 0.60718 -0.14341 0.39273
 C371 C 0.63919 -0.10974 0.39100
 C372 C 0.64000 -0.14253 0.39222
 C373 C 0.65753 -0.16127 0.33988
 C374 C 0.67276 -0.17585 0.32478
 C375 C 0.58869 -0.09265 0.40961
 C376 C 0.57408 -0.07747 0.42472
 H377 H 0.59165 -0.09884 0.34310
 H378 H 0.65185 -0.09765 0.34176
 H379 H 0.59354 -0.15903 0.34488
 H380 H 0.59402 -0.15660 0.40773
 H381 H 0.65236 -0.09524 0.40458
 H382 H 0.65424 -0.15541 0.40638
 C383 C 0.60615 0.38744 -0.14219
 C384 C 0.63896 0.38825 -0.14256
 C385 C 0.63943 0.35574 -0.14087
 C386 C 0.60689 0.35464 -0.14079
 C387 C 0.60679 0.38845 -0.10822
 C388 C 0.60724 0.35594 -0.10652
 C389 C 0.63932 0.38954 -0.10832
 C390 C 0.64006 0.35676 -0.10690
 C391 C 0.65777 0.33770 -0.15906
 C392 C 0.67303 0.32303 -0.17403
 C393 C 0.58878 0.40684 -0.09004
 C394 C 0.57415 0.42213 -0.07507
 H395 H 0.59200 0.40026 -0.15650
 H396 H 0.65221 0.40134 -0.15757
 H397 H 0.59376 0.34008 -0.15434
 H398 H 0.59399 0.34287 -0.09150
 H399 H 0.65246 0.40410 -0.09477
 H400 H 0.65422 0.34394 -0.09259
 C401 C -0.10182 0.11812 -0.14237
 C402 C -0.13391 0.11344 -0.14763
 C403 C -0.13906 0.14508 -0.14164
 C404 C -0.10725 0.15005 -0.13666
 C405 C -0.10640 0.11233 -0.10926
 C406 C -0.11154 0.14397 -0.10326
 C407 C -0.13821 0.10738 -0.11425
 C408 C -0.14364 0.13929 -0.10853
 C409 C -0.15738 0.16318 -0.15968
 C410 C -0.17259 0.17795 -0.17451
 C411 C -0.08834 0.09397 -0.09123
 C412 C -0.07361 0.07873 -0.07639
 H413 H -0.08442 0.10920 -0.15608
 H414 H -0.14331 0.10109 -0.16608
 H415 H -0.09473 0.16780 -0.14608
 H416 H -0.10214 0.15632 -0.08481
 H417 H -0.15074 0.08963 -0.10484
 H418 H -0.16103 0.14820 -0.09482
 C419 C -0.10059 0.61791 0.35793
 C420 C -0.13268 0.61332 0.35259
 C421 C -0.13776 0.64497 0.35858
 C422 C -0.10595 0.64985 0.36363
 C423 C -0.10525 0.61213 0.39103
 C424 C -0.11033 0.64378 0.39702
 C425 C -0.13706 0.60726 0.38596
 C426 C -0.14242 0.63919 0.39167
 C427 C -0.15600 0.66312 0.34051
 C428 C -0.17115 0.67791 0.32565
 C429 C -0.08728 0.59372 0.40910
 C430 C -0.07261 0.57844 0.42395
 H431 H -0.08318 0.60895 0.34426
 H432 H -0.14207 0.60099 0.33412
 H433 H -0.09336 0.66757 0.35425
 H434 H -0.10094 0.65610 0.41550
 H435 H -0.14966 0.58954 0.39534
 H436 H -0.15983 0.64814 0.40534
 C437 C 0.39928 0.11773 0.35803
 C438 C 0.36720 0.11292 0.35283
 C439 C 0.36194 0.14455 0.35876
 C440 C 0.39373 0.14964 0.36368
 C441 C 0.39477 0.11199 0.39115
 C442 C 0.38951 0.14362 0.39710
 C443 C 0.36297 0.10690 0.38623
 C444 C 0.35743 0.13881 0.39189
 C445 C 0.34352 0.16255 0.34072
 C446 C 0.32825 0.17724 0.32589
 C447 C 0.41292 0.09371 0.40919
 C448 C 0.42771 0.07854 0.42402
 H449 H 0.41669 0.10885 0.34431
 H450 H 0.35782 0.10050 0.33442
 H451 H 0.40617 0.16742 0.35420
 H452 H 0.39890 0.15603 0.41551
 H453 H 0.35052 0.08913 0.39570
 H454 H 0.34002 0.14768 0.40561
 C455 C 0.39923 0.61784 -0.14195
 C456 C 0.36714 0.61311 -0.14711
 C457 C 0.36194 0.64473 -0.14106
 C458 C 0.39376 0.64975 -0.13618
 C459 C 0.39477 0.61200 -0.10884
 C460 C 0.38958 0.64362 -0.10277
 C461 C 0.36295 0.60700 -0.11373
 C462 C 0.35748 0.63889 -0.10795
 C463 C 0.34354 0.66282 -0.15901
 C464 C 0.32826 0.67757 -0.17378
 C465 C 0.41291 0.59365 -0.09088
 C466 C 0.42769 0.57842 -0.07610
 H467 H 0.41661 0.60898 -0.15573
 H468 H 0.35771 0.60077 -0.16555
 H469 H 0.40622 0.66754 -0.14561
 H470 H 0.39901 0.65596 -0.08434
 H471 H 0.35049 0.58921 -0.10430
 H472 H 0.34011 0.64775 -0.09416
 C473 C -0.10357 -0.11626 0.14101
 C474 C -0.13600 -0.11286 0.14503
 C475 C -0.13951 -0.14489 0.14020
 C476 C -0.10735 -0.14858 0.13647
 C477 C -0.10723 -0.11191 0.10756
 C478 C -0.11073 -0.14394 0.10272
 C479 C -0.13939 -0.10823 0.11130
 C480 C -0.14317 -0.14054 0.10674
 C481 C -0.15763 -0.16311 0.15838
 C482 C -0.17269 -0.17795 0.17336
 C483 C -0.08940 -0.09339 0.08939
 C484 C -0.07487 -0.07800 0.07446
 H485 H -0.08708 -0.10606 0.15490
 H486 H -0.14659 -0.10027 0.16263
 H487 H -0.09439 -0.16539 0.14702
 H488 H -0.10014 -0.15651 0.08511
 H489 H -0.15236 -0.09143 0.10075
 H490 H -0.15966 -0.15073 0.09285
 C491 C -0.13114 0.37013 0.59616
 C492 C -0.12053 0.34437 0.61426
 C493 C -0.13833 0.35457 0.64070
 C494 C -0.14921 0.38005 0.62288
 C495 C -0.10615 0.38762 0.60801
 C496 C -0.12396 0.39781 0.63445
 C497 C -0.09526 0.36215 0.62582
 C498 C -0.11335 0.37206 0.65255
 C499 C -0.15640 0.33632 0.65890
 C500 C -0.17142 0.32147 0.67389
 C501 C -0.08837 0.40617 0.58982
 C502 C -0.07388 0.42157 0.57488
 H503 H -0.13825 0.36954 0.57278
 H504 H -0.11932 0.32218 0.60616
 H505 H -0.17160 0.38721 0.62187
 H506 H -0.12518 0.42000 0.64255
 H507 H -0.07287 0.35500 0.62683
 H508 H -0.10624 0.37265 0.67594
 C509 C 0.36855 -0.12925 0.59569
 C510 C 0.37895 -0.15505 0.61386
 C511 C 0.36109 -0.14471 0.64021
 C512 C 0.35042 -0.11920 0.62231
 C513 C 0.39359 -0.11188 0.60763
 C514 C 0.37573 -0.10156 0.63398
 C515 C 0.40427 -0.13739 0.62552
 C516 C 0.38612 -0.12735 0.65215
 C517 C 0.34285 -0.16284 0.65836
 C518 C 0.32771 -0.17760 0.67331
 C519 C 0.41153 -0.09345 0.58950
 C520 C 0.42615 -0.07812 0.57460
 H521 H 0.36153 -0.12982 0.57227
 H522 H 0.38006 -0.17725 0.60580
 H523 H 0.32808 -0.11192 0.62119
 H524 H 0.37460 -0.07936 0.64205
 H525 H 0.42661 -0.14467 0.62663
 H526 H 0.39314 -0.12678 0.67557
 C527 C 0.39730 0.38351 0.14094
 C528 C 0.36487 0.38700 0.14483
 C529 C 0.36128 0.35498 0.13995
 C530 C 0.39344 0.35120 0.13635
 C531 C 0.39377 0.38790 0.10748
 C532 C 0.39020 0.35588 0.10259
 C533 C 0.36162 0.39167 0.11109
 C534 C 0.35775 0.35937 0.10649
 C535 C 0.34304 0.33681 0.15805
 C536 C 0.32789 0.32201 0.17296
 C537 C 0.41171 0.40639 0.08940
 C538 C 0.42632 0.42176 0.07452
 H539 H 0.41377 0.39364 0.15491
 H540 H 0.35425 0.39960 0.16240
 H541 H 0.40631 0.33435 0.14694
 H542 H 0.40082 0.34329 0.08502
 H543 H 0.34873 0.40852 0.10051
 H544 H 0.34129 0.34925 0.09252
 C545 C 0.11122 0.10591 0.14238
 C546 C 0.14286 0.11212 0.13587
 C547 C 0.13745 0.14365 0.14219
 C548 C 0.10609 0.13773 0.14898
 C549 C 0.10442 0.11138 0.10965
 C550 C 0.09899 0.14292 0.11596
 C551 C 0.13577 0.11731 0.10288
 C552 C 0.13064 0.14913 0.10946
 C553 C 0.15599 0.16148 0.16030
 C554 C 0.17139 0.17600 0.17519
 C555 C 0.08618 0.09326 0.09152
 C556 C 0.07133 0.07820 0.07660
 H557 H 0.10304 0.08794 0.15571
 H558 H 0.16110 0.09965 0.14426
 H559 H 0.09410 0.14632 0.16814
 H560 H 0.08075 0.15538 0.10757
 H561 H 0.14777 0.10872 0.08372
 H562 H 0.13883 0.16710 0.09613
 C563 C 0.11169 0.60588 0.64278
 C564 C 0.14331 0.61220 0.63634
 C565 C 0.13777 0.64372 0.64261
 C566 C 0.10643 0.63769 0.64933
 C567 C 0.10494 0.61130 0.61003
 C568 C 0.09939 0.64282 0.61628
 C569 C 0.13629 0.61734 0.60332
 C570 C 0.13103 0.64914 0.60986
 C571 C 0.15622 0.66162 0.66075
 C572 C 0.17154 0.67620 0.67566
 C573 C 0.08681 0.59309 0.59188
 C574 C 0.07204 0.57797 0.57694
 H575 H 0.10353 0.58789 0.65611
 H576 H 0.16158 0.59980 0.64479
 H577 H 0.09436 0.64626 0.66845
 H578 H 0.08112 0.65521 0.60783
 H579 H 0.14837 0.60876 0.58420
 H580 H 0.13919 0.66713 0.59653
 C581 C 0.62067 0.13766 0.59935
 C582 C 0.61137 0.15327 0.62795
 C583 C 0.63860 0.14303 0.64317
 C584 C 0.64818 0.12771 0.61485
 C585 C 0.60565 0.11082 0.61047
 C586 C 0.63287 0.10060 0.62569
 C587 C 0.59606 0.12614 0.63879
 C588 C 0.62357 0.11619 0.65428
 C589 C 0.65709 0.16082 0.66136
 C590 C 0.67246 0.17533 0.67630
 C591 C 0.58745 0.09274 0.59226
 C592 C 0.57263 0.07773 0.57726
 H593 H 0.61927 0.14629 0.57656
 H594 H 0.60274 0.17513 0.62909
 H595 H 0.66981 0.12855 0.60521
 H596 H 0.64151 0.07874 0.62456
 H597 H 0.57442 0.12529 0.64842
 H598 H 0.62497 0.10756 0.67707
 C599 C 0.61380 0.64195 0.10175
 C600 C 0.60767 0.65091 0.13413
 C601 C 0.63850 0.64386 0.14213
 C602 C 0.64491 0.63518 0.11004
 C603 C 0.60559 0.61138 0.10969
 C604 C 0.63643 0.60434 0.11770
 C605 C 0.59918 0.62006 0.14178
 C606 C 0.63030 0.61329 0.15006
 C607 C 0.65698 0.66180 0.16019
 C608 C 0.67233 0.67640 0.17504
 C609 C 0.58742 0.59315 0.09161
 C610 C 0.57263 0.57802 0.07671
 H611 H 0.60680 0.65352 0.08168
 H612 H 0.59606 0.67027 0.14110
 H613 H 0.66392 0.64159 0.09719
 H614 H 0.64805 0.58498 0.11074
 H615 H 0.58017 0.61363 0.15463
 H616 H 0.63729 0.60171 0.17013
   
