data_POSCAR
  _audit_creation_date              2014-09-24
  _audit_creation_method            'ToBaCCo'
  _symmetry_space_group_name_H-M    'P1'
  _symmetry_Int_Tables_number       1
  _symmetry_cell_setting            triclinic
  loop_
  _symmetry_equiv_pos_as_xyz
 x,y,z
_cell_length_a 29.6297
_cell_length_b 29.5335
_cell_length_c 29.4366
_cell_angle_alpha 90.196300
_cell_angle_beta 89.860500
_cell_angle_gamma 89.756900
loop_
  _atom_site_label
  _atom_site_type_symbol
  _atom_site_fract_x
  _atom_site_fract_y
  _atom_site_fract_z
C1 C 0.25197 0.49873 1.00423
 C2 C 0.75061 0.49861 -0.00896
 C3 C -0.00689 0.25033 0.48765
 C4 C 1.00048 0.74924 0.50773
 C5 C 0.50491 -0.00157 0.25296
 C6 C 0.49890 0.00598 0.75085
 C7 C 0.32089 0.03353 0.44722
 H8 H 0.32373 0.05733 0.47507
 C9 C 0.35372 0.03249 0.41320
 H10 H 0.38189 0.05569 0.41489
 C11 C 0.28206 -0.02740 0.41240
 H12 H 0.25490 -0.05165 0.41292
 C13 C 0.31383 -0.02903 0.37712
 H14 H 0.31089 -0.05445 0.35069
 N15 N 0.28639 0.00336 0.44674
 C16 C 0.18243 0.05988 0.53551
 H17 H 0.18234 0.03428 0.56170
 C18 C 0.15099 0.09508 0.53699
 H19 H 0.12711 0.09653 0.56486
 C20 C 0.21290 0.08795 0.46671
 H21 H 0.23645 0.08431 0.43883
 C22 C 0.18164 0.12372 0.46668
 H23 H 0.18112 0.14714 0.43848
 Zn24 Zn 0.24839 0.00343 0.49871
 N25 N 0.21216 0.05652 0.50047
 C26 C 0.28682 0.03351 0.58293
 N27 N 0.28629 0.00033 0.55070
 C28 C 0.31500 -0.03558 0.55297
 C29 C 0.34581 -0.03920 0.58853
 C30 C 0.31748 0.03144 0.61900
 C31 C 0.17753 -0.04806 0.46344
 C32 C 0.14612 -0.08307 0.46128
 C33 C 0.17967 -0.11579 0.52833
 C34 C 0.21039 -0.07999 0.52932
 N35 N 0.20888 -0.04707 0.49706
 H36 H 0.26450 0.06237 0.58007
 H37 H 0.31427 -0.06124 0.52666
 H38 H 0.36829 -0.06817 0.58949
 H39 H 0.31859 0.05898 0.64334
 H40 H 0.17664 -0.02122 0.43853
 H41 H 0.12128 -0.08307 0.43435
 H42 H 0.18060 -0.14103 0.55491
 H43 H 0.23464 -0.07813 0.55654
 C44 C 0.14937 0.12688 0.50160
 C45 C 0.35069 0.00051 0.37802
 C46 C 0.14663 -0.11729 0.49431
 C47 C 0.34802 -0.00496 0.62175
 C48 C 0.66572 -0.00014 0.54459
 H49 H 0.65355 -0.00311 0.51019
 C50 C 0.63478 0.00377 0.58000
 H51 H 0.59900 0.00334 0.57252
 C52 C 0.72673 0.00463 0.59632
 H53 H 0.76273 0.00579 0.60218
 C54 C 0.69677 0.00784 0.63304
 H55 H 0.70969 0.01124 0.66726
 N56 N 0.71076 -0.00014 0.55320
 C57 C 0.83498 0.03722 0.49417
 H58 H 0.84746 0.00332 0.48837
 C59 C 0.86453 0.07356 0.49091
 H60 H 0.89971 0.06709 0.48306
 C61 C 0.77429 0.08687 0.51165
 H62 H 0.73883 0.09164 0.51919
 C63 C 0.80290 0.12435 0.50909
 H64 H 0.78938 0.15802 0.51471
 Zn65 Zn 0.75086 -0.00558 0.50331
 N66 N 0.79060 0.04441 0.50356
 C67 C 0.71480 0.03203 0.42277
 N68 N 0.71757 -0.00602 0.44853
 C69 C 0.69508 -0.04439 0.43686
 C70 C 0.66682 -0.04482 0.39897
 C71 C 0.68652 0.03324 0.38498
 C72 C 0.78898 -0.08308 0.54630
 C73 C 0.81756 -0.12064 0.54880
 C74 C 0.83291 -0.11297 0.46854
 C75 C 0.80452 -0.07520 0.46771
 N76 N 0.78415 -0.06033 0.50647
 H77 H 0.73320 0.06202 0.43233
 H78 H 0.69793 -0.07420 0.45794
 H79 H 0.64757 -0.07496 0.39122
 H80 H 0.68327 0.06430 0.36578
 H81 H 0.77195 -0.07145 0.57658
 H82 H 0.82244 -0.13740 0.58109
 H83 H 0.85046 -0.12308 0.43781
 H84 H 0.79992 -0.05665 0.43643
 C85 C 0.84848 0.11787 0.49766
 C86 C 0.65021 0.00756 0.62482
 C87 C 0.84066 -0.13534 0.50977
 C88 C 0.66141 -0.00522 0.37335
 C89 C 0.46644 0.19582 1.07615
 H90 H 0.43514 0.20238 1.05847
 C91 C 0.46704 0.16657 1.11322
 H92 H 0.43605 0.15023 1.12357
 C93 C 0.54540 0.20712 1.08212
 H94 H 0.57594 0.22237 1.06924
 C95 C 0.54756 0.17799 1.11929
 H96 H 0.57985 0.17138 1.13515
 N97 N 0.50534 0.21492 1.06109
 C98 C 0.41837 0.28893 0.98011
 H99 H 0.42182 0.26787 0.95032
 C100 C 0.38150 0.31834 0.98365
 H101 H 0.35782 0.32061 0.95577
 C102 C 0.44507 0.31239 1.05217
 H103 H 0.46934 0.30918 1.07927
 C104 C 0.40868 0.34204 1.05721
 H105 H 0.40577 0.36211 1.08794
 Zn106 Zn 0.50238 0.25071 1.00830
 N107 N 0.45016 0.28771 1.01340
 C108 C 0.49487 0.22912 0.91369
 N109 N 0.49861 0.21211 0.95653
 C110 C 0.50158 0.16676 0.96370
 C111 C 0.50183 0.13672 0.92720
 C112 C 0.49471 0.20007 0.87600
 C113 C 0.56568 0.31449 1.04029
 C114 C 0.60320 0.34285 1.03832
 C115 C 0.61924 0.31420 0.96306
 C116 C 0.58177 0.28588 0.96673
 N117 N 0.55513 0.28726 1.00449
 H118 H 0.49301 0.26535 0.90871
 H119 H 0.50470 0.15368 0.99775
 H120 H 0.50460 0.10074 0.93370
 H121 H 0.49275 0.21401 0.84209
 H122 H 0.54504 0.31428 1.07053
 H123 H 0.61031 0.36518 1.06665
 H124 H 0.63945 0.31348 0.93237
 H125 H 0.57392 0.26324 0.93908
 C126 C 0.37705 0.34627 1.02206
 C127 C 0.50811 0.15672 1.13476
 C128 C 0.62999 0.34348 0.99898
 C129 C 0.49903 0.15328 0.88267
 C130 C 0.45928 0.81887 -0.05359
 H131 H 0.43472 0.81844 -0.02633
 C132 C 0.45522 0.85043 -0.08847
 H133 H 0.42691 0.87371 -0.08795
 C134 C 0.52588 0.78879 -0.08683
 H135 H 0.55375 0.76511 -0.08560
 C136 C 0.52346 0.82032 -0.12217
 H137 H 0.54996 0.82087 -0.14753
 N138 N 0.49424 0.78894 -0.05324
 C139 C 0.44584 0.67954 0.03329
 H140 H 0.47286 0.67738 0.05786
 C141 C 0.40984 0.64925 0.03539
 H142 H 0.40921 0.62346 0.06146
 C143 C 0.41491 0.71389 -0.03242
 H144 H 0.41747 0.73827 -0.05950
 C145 C 0.37856 0.68398 -0.03183
 H146 H 0.35331 0.68553 -0.05834
 Zn147 Zn 0.49859 0.74985 -0.00237
 N148 N 0.44758 0.71130 -0.00005
 C149 C 0.47250 0.78116 0.08632
 N150 N 0.50114 0.78676 0.05048
 C151 C 0.53087 0.82165 0.04941
 C152 C 0.53171 0.85338 0.08458
 C153 C 0.47278 0.81178 0.12271
 C154 C 0.54943 0.67924 -0.03893
 C155 C 0.58413 0.64729 -0.04165
 C156 C 0.62235 0.68594 0.01956
 C157 C 0.58645 0.71691 0.02159
 N158 N 0.55074 0.71270 -0.00717
 H159 H 0.44844 0.75385 0.08632
 H160 H 0.55293 0.82561 0.02036
 H161 H 0.55464 0.88178 0.08256
 H162 H 0.44902 0.80775 0.15040
 H163 H 0.52054 0.67650 -0.06116
 H164 H 0.58187 0.61995 -0.06614
 H165 H 0.64988 0.68868 0.04354
 H166 H 0.58659 0.74346 0.04693
 C167 C 0.37592 0.65137 0.00241
 C168 C 0.48816 0.85226 -0.12291
 C169 C 0.62079 0.65001 -0.01169
 C170 C 0.50196 0.84894 0.12145
 C171 C 1.03308 0.50774 0.16099
 H172 H 0.99973 0.51436 0.14820
 C173 C 1.06867 0.50473 0.13026
 H174 H 1.06185 0.51070 0.09465
 C175 C 1.08219 0.49176 0.22218
 H176 H 1.08715 0.48538 0.25789
 C177 C 1.11895 0.48794 0.19235
 H178 H 1.15185 0.47910 0.20563
 N179 N 1.04029 0.50233 0.20624
 C180 C 0.97209 0.46200 0.32684
 H181 H 0.96262 0.49523 0.33916
 C182 C 0.97051 0.42509 0.35609
 H183 H 0.96052 0.43068 0.39107
 C184 C 0.99825 0.41513 0.26673
 H185 H 1.00931 0.41174 0.23183
 C186 C 0.99699 0.37704 0.29493
 H187 H 1.00664 0.34430 0.28134
 Zn188 Zn 0.99030 0.50906 0.24685
 N189 N 0.98610 0.45656 0.28320
 C190 C 0.90374 0.48434 0.21278
 N191 N 0.93607 0.51697 0.21288
 C192 C 0.93227 0.55420 0.18600
 C193 C 0.89708 0.55780 0.15488
 C194 C 0.86759 0.48683 0.18232
 C195 C 1.03656 0.55954 0.31297
 C196 C 1.04304 0.59365 0.34510
 C197 C 0.97367 0.62877 0.32036
 C198 C 0.96845 0.59386 0.28867
 N199 N 0.99955 0.55985 0.28575
 H200 H 0.90718 0.45516 0.23459
 H201 H 0.95832 0.57974 0.18667
 H202 H 0.89612 0.58632 0.13184
 H203 H 0.84365 0.45926 0.18054
 H204 H 1.06020 0.53177 0.31128
 H205 H 1.07225 0.59209 0.36709
 H206 H 0.94761 0.65443 0.32352
 H207 H 0.93852 0.59314 0.26792
 C208 C 0.98296 0.38178 0.34036
 C209 C 1.11239 0.49465 0.14563
 C210 C 1.01088 0.62839 0.34972
 C211 C 0.86514 0.52304 0.15167
 C212 C -0.06897 0.45339 0.78847
 H213 H -0.06185 0.42447 0.76699
 C214 C -0.10656 0.45287 0.81728
 H215 H -0.12832 0.42351 0.81788
 C216 C -0.04861 0.52621 0.81545
 H217 H -0.02549 0.55445 0.81482
 C218 C -0.08640 0.52759 0.84383
 H219 H -0.09207 0.55677 0.86551
 N220 N -0.04104 0.48986 0.78793
 C221 C 0.04294 0.40899 0.70782
 H222 H 0.07099 0.41054 0.73109
 C223 C 0.04135 0.37414 0.67545
 H224 H 0.06813 0.34908 0.67404
 C225 C -0.02476 0.44080 0.67898
 H226 H -0.05022 0.46715 0.68035
 C227 C -0.02717 0.40721 0.64572
 H228 H -0.05440 0.40786 0.62123
 Zn229 Zn 0.01020 0.49170 0.74934
 N230 N 0.01004 0.44140 0.70899
 C231 C 0.07312 0.45536 0.81150
 N232 N 0.06241 0.49260 0.78657
 C233 C 0.08668 0.53146 0.79033
 C234 C 0.12341 0.53380 0.81975
 C235 C 0.11023 0.45595 0.84070
 C236 C -0.03024 0.57058 0.71187
 C237 C -0.03245 0.60864 0.68399
 C238 C 0.04402 0.59347 0.65948
 C239 C 0.04447 0.55514 0.68715
 N240 N 0.00790 0.54476 0.71312
 H241 H 0.05234 0.42543 0.80929
 H242 H 0.07665 0.56137 0.77192
 H243 H 0.14166 0.56531 0.82330
 H244 H 0.11792 0.42638 0.86098
 H245 H -0.05952 0.56107 0.73144
 H246 H -0.06330 0.62838 0.68262
 H247 H 0.07315 0.60108 0.63862
 H248 H 0.07402 0.53352 0.68798
 C249 C 0.00624 0.37357 0.64364
 C250 C -0.11574 0.49053 0.84501
 C251 C 0.00499 0.62036 0.65740
 C252 C 0.13537 0.49579 0.84545
 C253 C 0.07930 0.23416 0.48290
 C254 C 0.03491 0.21818 0.49003
 C255 C 0.03057 0.17306 0.50569
 C256 C 0.06755 0.14428 0.50911
 C257 C 0.11103 0.15940 0.49882
 C258 C 0.11673 0.20483 0.48590
 H259 H 0.08498 0.26935 0.47456
 H260 H -0.00142 0.15924 0.51637
 H261 H 0.06183 0.10967 0.51961
 H262 H 0.15015 0.21779 0.47891
 C263 C 0.73143 0.58403 -0.01183
 C264 C 0.71620 0.53869 -0.01001
 C265 C 0.66913 0.53210 -0.00450
 C266 C 0.63888 0.56824 -0.00571
 C267 C 0.65425 0.61266 -0.01016
 C268 C 0.70087 0.62051 -0.01215
 H269 H 0.76721 0.59114 -0.01356
 H270 H 0.65464 0.49925 0.00164
 H271 H 0.60312 0.56147 -0.00221
 H272 H 0.71356 0.65474 -0.01469
 C273 C 0.94693 -0.19506 0.54619
 C274 C 0.95432 -0.22590 0.51009
 C275 C 0.91893 -0.23225 0.47867
 C276 C 0.88097 -0.20394 0.47943
 C277 C 0.87646 -0.17021 0.51282
 C278 C 0.90885 -0.16732 0.54728
 H279 H 0.97239 -0.19047 0.57214
 H280 H 0.92030 -0.25829 0.45292
 H281 H 0.85544 -0.20784 0.45346
 H282 H 0.90610 -0.14181 0.57367
 C283 C 0.26882 0.41272 1.00302
 C284 C 0.28326 0.45735 1.01204
 C285 C 0.32571 0.46257 1.03327
 C286 C 0.35523 0.42620 1.03783
 C287 C 0.34278 0.38290 1.02316
 C288 C 0.29871 0.37610 1.00712
 H289 H 0.23494 0.40633 0.99099
 H290 H 0.33701 0.49505 1.04580
 H291 H 0.38858 0.43251 1.05134
 H292 H 0.28759 0.34259 0.99733
 C293 C 0.91552 0.22444 0.52186
 C294 C 0.94940 0.22157 0.48811
 C295 C 0.94372 0.18929 0.45307
 C296 C 0.90990 0.15687 0.45544
 C297 C 0.87964 0.15654 0.49207
 C298 C 0.88129 0.19188 0.52407
 H299 H 0.91565 0.25081 0.54733
 H300 H 0.96786 0.18714 0.42545
 H301 H 0.90833 0.13103 0.42929
 H302 H 0.85739 0.19315 0.55194
 C303 C 0.31643 0.54412 -0.02921
 C304 C 0.28058 0.54252 0.00257
 C305 C 0.27289 0.58124 0.02988
 C306 C 0.30364 0.61719 0.02969
 C307 C 0.34114 0.61612 0.00058
 C308 C 0.34653 0.58013 -0.02981
 H309 H 0.32234 0.51606 -0.05229
 H310 H 0.24358 0.58413 0.05155
 H311 H 0.29837 0.64569 0.05237
 H312 H 0.37495 0.57922 -0.05304
 C313 C 0.08492 -0.22930 0.50776
 C314 C 0.03930 -0.21569 0.50413
 C315 C 0.03093 -0.17018 0.49147
 C316 C 0.06571 -0.13890 0.48812
 C317 C 0.11052 -0.15195 0.49550
 C318 C 0.11998 -0.19767 0.50469
 H319 H 0.09338 -0.26447 0.51379
 H320 H -0.00253 -0.15798 0.48349
 H321 H 0.05728 -0.10406 0.48030
 H322 H 0.15450 -0.20899 0.50907
 C323 C 0.72689 0.42150 1.02808
 C324 C 0.72514 0.45267 0.99180
 C325 C 0.69797 0.44121 0.95402
 C326 C 0.66883 0.40430 0.95543
 C327 C 0.66651 0.37720 0.99431
 C328 C 0.69699 0.38500 1.02984
 H329 H 0.75032 0.42516 1.05579
 H330 H 0.69704 0.46298 0.92449
 H331 H 0.64616 0.39863 0.92718
 H332 H 0.69713 0.36322 1.05937
 C333 C 0.47518 0.07940 1.23180
 C334 C 0.50703 0.04398 1.22691
 C335 C 0.54335 0.05077 1.19645
 C336 C 0.54463 0.08829 1.16804
 C337 C 0.51027 0.12096 1.16986
 C338 C 0.47637 0.11696 1.20300
 H339 H 0.44885 0.07843 1.25713
 H340 H 0.56947 0.02524 1.19272
 H341 H 0.57130 0.09038 1.14293
 H342 H 0.45033 0.14263 1.20614
 C343 C 0.03288 0.72363 0.58660
 C344 C 0.00063 0.72014 0.55149
 C345 C -0.03362 0.68725 0.55627
 C346 C -0.03311 0.65636 0.59180
 C347 C 0.00162 0.65723 0.62383
 C348 C 0.03405 0.69166 0.62168
 H349 H 0.05773 0.75019 0.58714
 H350 H -0.05974 0.68405 0.53078
 H351 H -0.05873 0.63032 0.59299
 H352 H 0.06041 0.69358 0.64703
 C353 C 0.47626 0.96948 -0.17294
 C354 C 0.49468 0.96453 -0.21708
 C355 C 0.50445 0.92005 -0.23199
 C356 C 0.50208 0.88331 -0.20190
 C357 C 0.48778 0.88975 -0.15668
 C358 C 0.47402 0.93319 -0.14310
 H359 H 0.46381 1.00173 -0.16060
 H360 H 0.51503 0.91385 -0.26668
 H361 H 0.51137 0.84990 -0.21402
 H362 H 0.46240 0.93969 -0.10880
 C363 C 0.95120 0.30820 0.43990
 C364 C 0.98859 0.27850 0.44340
 C365 C 1.01953 0.27755 0.40683
 C366 C 1.01683 0.30986 0.37205
 C367 C 0.98226 0.34269 0.37211
 C368 C 0.94827 0.33986 0.40515
 H369 H 0.92547 0.30884 0.46610
 H370 H 1.04654 0.25302 0.40512
 H371 H 1.04295 0.31036 0.34629
 H372 H 0.92010 0.36336 0.40521
 C373 C 0.49154 0.96562 0.17199
 C374 C 0.50035 0.95844 0.21872
 C375 C 0.50206 0.91301 0.23370
 C376 C 0.50190 0.87694 0.20248
 C377 C 0.49868 0.88551 0.15573
 C378 C 0.49201 0.92995 0.14106
 H379 H 0.48440 0.99877 0.15837
 H380 H 0.50560 0.90560 0.26953
 H381 H 0.50570 0.84258 0.21467
 H382 H 0.48703 0.93711 0.10533
 C383 C 0.00784 0.32932 0.52388
 C384 C -0.00192 0.28268 0.52916
 C385 C -0.00285 0.26564 0.57403
 C386 C 0.00090 0.29469 0.61167
 C387 C 0.00641 0.34134 0.60525
 C388 C 0.01074 0.35816 0.56121
 H389 H 0.01348 0.34441 0.49099
 H390 H -0.00769 0.22984 0.57992
 H391 H -0.00164 0.28097 0.64565
 H392 H 0.01654 0.39393 0.55574
 C393 C 0.47151 0.08734 0.77530
 C394 C 0.50100 0.04990 0.77973
 C395 C 0.53504 0.05252 0.81315
 C396 C 0.53538 0.08724 0.84504
 C397 C 0.50239 0.12123 0.84405
 C398 C 0.47178 0.12235 0.80768
 H399 H 0.44764 0.08957 0.74775
 H400 H 0.55994 0.02576 0.81630
 H401 H 0.56064 0.08666 0.87159
 H402 H 0.44696 0.14926 0.80534
 C403 C 0.99988 0.73530 0.42116
 C404 C 1.00637 0.71821 0.46544
 C405 C 1.02204 0.67304 0.46925
 C406 C 1.02461 0.64469 0.43153
 C407 C 1.01327 0.66067 0.38831
 C408 C 1.00199 0.70660 0.38319
 H409 H 0.99119 0.77058 0.41617
 H410 H 1.03205 0.65870 0.50141
 H411 H 1.03410 0.60963 0.43663
 H412 H 0.99440 0.72016 0.34994
 C413 C 1.22711 0.50766 0.08833
 C414 C 1.21671 0.49579 0.04306
 C415 C 1.17444 0.47512 0.03526
 C416 C 1.14177 0.47317 0.06908
 C417 C 1.15011 0.49105 0.11236
 C418 C 1.19380 0.50666 0.12231
 H419 H 1.26060 0.51918 0.09714
 H420 H 1.16595 0.46044 0.00269
 H421 H 1.10958 0.45794 0.06100
 H422 H 1.20193 0.51930 0.15585
 C423 C 0.54612 0.04224 0.68910
 C424 C 0.54317 0.00849 0.72288
 C425 C 0.58108 -0.01992 0.72935
 C426 C 0.61746 -0.01876 0.69881
 C427 C 0.61701 0.01141 0.66208
 C428 C 0.58201 0.04310 0.65866
 H429 H 0.51888 0.06637 0.68455
 H430 H 0.58272 -0.04354 0.75721
 H431 H 0.64494 -0.04272 0.70268
 H432 H 0.58167 0.06758 0.63133
 C433 C -0.21894 0.52692 0.91235
 C434 C -0.21881 0.49522 0.94820
 C435 C -0.18771 0.45877 0.94540
 C436 C -0.15581 0.45617 0.91061
 C437 C -0.15365 0.49008 0.87768
 C438 C -0.18598 0.52492 0.87816
 H439 H -0.24347 0.55392 0.91064
 H440 H -0.18679 0.43326 0.97174
 H441 H -0.13134 0.42881 0.91071
 H442 H -0.18538 0.55086 0.85225
 C443 C 0.46867 -0.01386 0.33263
 C444 C 0.46370 -0.00503 0.28563
 C445 C 0.41915 -0.00159 0.26874
 C446 C 0.38191 -0.00087 0.29833
 C447 C 0.38838 -0.00446 0.34537
 C448 C 0.43182 -0.01233 0.36199
 H449 H 0.50095 -0.02168 0.34769
 H450 H 0.41340 0.00254 0.23267
 H451 H 0.34833 0.00401 0.28470
 H452 H 0.43726 -0.01728 0.39803
 C453 C 0.23416 0.46850 0.92228
 C454 C 0.22702 0.49975 0.95804
 C455 C 0.19428 0.53403 0.95157
 C456 C 0.16607 0.53375 0.91390
 C457 C 0.16995 0.49944 0.88124
 C458 C 0.20497 0.46756 0.88492
 H459 H 0.26142 0.44418 0.92306
 H460 H 0.18888 0.55979 0.97732
 H461 H 0.13960 0.55904 0.91153
 H462 H 0.20940 0.44170 0.85910
 C463 C 0.55761 0.03372 0.31115
 C464 C 0.54963 -0.00226 0.28038
 C465 C 0.58335 -0.03606 0.27628
 C466 C 0.62035 -0.03669 0.30578
 C467 C 0.62579 -0.00244 0.33840
 C468 C 0.59488 0.03349 0.33977
 H469 H 0.53344 0.06114 0.31455
 H470 H 0.58165 -0.06242 0.25095
 H471 H 0.64464 -0.06411 0.30335
 H472 H 0.59832 0.06044 0.36457
 C473 C 0.82620 0.51977 0.03015
 C474 C 0.78028 0.50711 0.03378
 C475 C 0.76121 0.50668 0.07790
 C476 C 0.78831 0.51188 0.11660
 C477 C 0.83454 0.52096 0.11204
 C478 C 0.85277 0.52606 0.06850
 H479 H 0.84247 0.52516 -0.00223
 H480 H 0.72548 0.50049 0.08239
 H481 H 0.77327 0.50883 0.15001
 H482 H 0.88822 0.53375 0.06399
 C483 C 0.46383 -0.01682 0.67401
 C484 C 0.45813 0.00185 0.71802
 C485 C 0.41350 0.01149 0.73210
 C486 C 0.37747 0.00931 0.70123
 C487 C 0.38473 -0.00520 0.65620
 C488 C 0.42818 -0.01920 0.64349
 H489 H 0.49619 -0.02943 0.66237
 H490 H 0.40663 0.02180 0.76675
 H491 H 0.34396 0.01880 0.71261
 H492 H 0.43512 -0.03113 0.60935
   
