data_POSCAR
  _audit_creation_date              2014-09-24
  _audit_creation_method            'ToBaCCo'
  _symmetry_space_group_name_H-M    'P1'
  _symmetry_Int_Tables_number       1
  _symmetry_cell_setting            triclinic
  loop_
  _symmetry_equiv_pos_as_xyz
 x,y,z
_cell_length_a 29.8529
_cell_length_b 27.7920
_cell_length_c 24.3479
_cell_angle_alpha 90.495100
_cell_angle_beta 90.137000
_cell_angle_gamma 89.682200
loop_
  _atom_site_label
  _atom_site_type_symbol
  _atom_site_fract_x
  _atom_site_fract_y
  _atom_site_fract_z
C1 C 0.35933 0.26875 0.34702
 C2 C 0.36082 0.21960 0.34296
 C3 C 0.31731 0.20451 0.33267
 N4 N 0.28962 0.24294 0.32844
 C5 C 0.31529 0.28213 0.33740
 C6 C 0.30287 0.15612 0.32914
 C7 C 0.26217 0.14391 0.30285
 C8 C 0.23943 0.10110 0.31041
 C9 C 0.20325 0.10187 0.27570
 C10 C 0.20486 0.14504 0.24738
 N11 N 0.24061 0.17082 0.26482
 C12 C 0.17533 0.15829 0.20430
 C13 C 0.17061 0.20731 0.18876
 C14 C 0.15325 0.22409 0.13957
 C15 C 0.15055 0.27322 0.14420
 C16 C 0.16875 0.28539 0.19482
 N17 N 0.18090 0.24502 0.22196
 C18 C 0.17084 0.33239 0.21762
 C19 C 0.19952 0.34404 0.26201
 C20 C 0.19844 0.38677 0.29197
 C21 C 0.23509 0.38621 0.32654
 C22 C 0.25757 0.34328 0.31655
 N23 N 0.23567 0.31784 0.27732
 C24 C 0.29897 0.32968 0.34017
 H25 H 0.38755 0.29206 0.35519
 H26 H 0.39073 0.19772 0.34666
 H27 H 0.24765 0.28704 0.25751
 H28 H 0.24779 0.07235 0.33840
 H29 H 0.17849 0.07372 0.27215
 H30 H 0.14398 0.20350 0.10346
 H31 H 0.13730 0.29676 0.11300
 H32 H 0.24452 0.41455 0.35497
 H33 H 0.25240 0.20247 0.24748
 H34 H 0.17447 0.41593 0.28835
 C35 C 0.86270 0.23088 0.15939
 C36 C 0.86317 0.28010 0.16369
 C37 C 0.81946 0.29449 0.17441
 N38 N 0.79257 0.25570 0.17789
 C39 C 0.81895 0.21689 0.16880
 C40 C 0.80395 0.34259 0.17719
 C41 C 0.76106 0.35444 0.19770
 C42 C 0.73918 0.39798 0.18997
 C43 C 0.69981 0.39591 0.21924
 C44 C 0.69898 0.35128 0.24437
 N45 N 0.73642 0.32630 0.23096
 C46 C 0.66744 0.33694 0.28404
 C47 C 0.66607 0.28948 0.30439
 C48 C 0.64888 0.27590 0.35464
 C49 C 0.65338 0.22682 0.35723
 C50 C 0.67027 0.21142 0.30696
 N51 N 0.67903 0.25009 0.27533
 C52 C 0.67604 0.16291 0.28873
 C53 C 0.70504 0.15236 0.24415
 C54 C 0.70359 0.11113 0.21153
 C55 C 0.73937 0.11326 0.17618
 C56 C 0.76190 0.15551 0.18835
 N57 N 0.74044 0.17946 0.22926
 C58 C 0.80322 0.16935 0.16529
 H59 H 0.89134 0.20800 0.15079
 H60 H 0.89242 0.30253 0.15922
 H61 H 0.75225 0.20966 0.25029
 H62 H 0.75063 0.42827 0.16625
 H63 H 0.67545 0.42470 0.22313
 H64 H 0.63584 0.29855 0.38717
 H65 H 0.64588 0.20552 0.39296
 H66 H 0.74803 0.08644 0.14547
 H67 H 0.74710 0.29435 0.24887
 H68 H 0.67926 0.08245 0.21285
 C69 C 0.88106 0.76370 0.81336
 C70 C 0.88118 0.71442 0.81120
 C71 C 0.83846 0.70082 0.79542
 N72 N 0.81221 0.74000 0.78779
 C73 C 0.83805 0.77854 0.79956
 C74 C 0.82323 0.65294 0.79139
 C75 C 0.78514 0.64062 0.76012
 C76 C 0.76226 0.59753 0.76330
 C77 C 0.72955 0.59871 0.72330
 C78 C 0.73385 0.64229 0.69634
 N79 N 0.76773 0.66761 0.71933
 C80 C 0.70954 0.65635 0.64909
 C81 C 0.71195 0.70379 0.62883
 C82 C 0.70321 0.71767 0.57532
 C83 C 0.70536 0.76706 0.57479
 C84 C 0.71507 0.78158 0.62808
 N85 N 0.71964 0.74284 0.66082
 C86 C 0.71584 0.82953 0.64783
 C87 C 0.73807 0.84163 0.69734
 C88 C 0.73200 0.88413 0.72672
 C89 C 0.76215 0.88338 0.76946
 C90 C 0.78600 0.84048 0.76501
 N91 N 0.77084 0.81511 0.72112
 C92 C 0.82245 0.82678 0.79895
 H93 H 0.90967 0.78597 0.82307
 H94 H 0.90965 0.69132 0.81954
 H95 H 0.78530 0.78393 0.70484
 H96 H 0.76864 0.56821 0.79128
 H97 H 0.70587 0.57028 0.71474
 H98 H 0.69609 0.69463 0.54036
 H99 H 0.70023 0.78962 0.53930
 H100 H 0.76591 0.91136 0.80029
 H101 H 0.78161 0.69909 0.70416
 H102 H 0.70834 0.91280 0.71841
 C103 C 0.20239 0.78338 0.91662
 C104 C 0.20151 0.73398 0.91589
 C105 C 0.20498 0.71985 0.86132
 N106 N 0.20915 0.75886 0.82886
 C107 C 0.20645 0.79774 0.86250
 C108 C 0.20319 0.67202 0.84082
 C109 C 0.22788 0.65928 0.79310
 C110 C 0.22261 0.61758 0.76179
 C111 C 0.25627 0.61709 0.72329
 C112 C 0.28081 0.65866 0.73159
 N113 N 0.26319 0.68430 0.77386
 C114 C 0.32043 0.67028 0.70338
 C115 C 0.33845 0.71707 0.70453
 C116 C 0.38170 0.72905 0.68957
 C117 C 0.38431 0.77824 0.69301
 C118 C 0.34249 0.79456 0.70969
 N119 N 0.31458 0.75710 0.71699
 C120 C 0.32920 0.84328 0.71376
 C121 C 0.28991 0.85774 0.74156
 C122 C 0.26886 0.90191 0.73574
 C123 C 0.23334 0.90258 0.77170
 C124 C 0.23412 0.85895 0.79933
 N125 N 0.26861 0.83180 0.78021
 C126 C 0.20599 0.84584 0.84365
 H127 H 0.20087 0.80619 0.95285
 H128 H 0.19953 0.71112 0.95155
 H129 H 0.27978 0.79937 0.79660
 H130 H 0.19745 0.59002 0.76600
 H131 H 0.26217 0.58915 0.69288
 H132 H 0.40860 0.70494 0.67757
 H133 H 0.41361 0.79949 0.68402
 H134 H 0.21003 0.93220 0.77658
 H135 H 0.27753 0.71430 0.79270
 H136 H 0.27802 0.93063 0.70827
 O137 O 1.03817 -0.07217 0.03483
 O138 O 0.94306 -0.00088 0.08531
 O139 O 0.95211 -0.08000 0.02827
 O140 O 1.02908 0.01083 0.08687
 O141 O 1.02548 0.05140 0.00934
 O142 O 0.95147 -0.04009 -0.04978
 O143 O 0.94014 0.03840 0.00689
 O144 O 1.03810 -0.03141 -0.04266
 Cu145 Cu 0.99107 -0.03953 0.06664
 Cu146 Cu 0.98895 0.00851 -0.02696
 C147 C 1.05383 -0.06478 -0.01263
 C148 C 0.92536 0.03091 0.05497
 C149 C 0.93883 -0.07536 -0.02104
 C150 C 1.03904 0.04745 0.05842
 O151 O 0.44598 0.49645 0.41292
 O152 O 0.53331 0.57696 0.46673
 O153 O 0.53402 0.49443 0.41356
 O154 O 0.44706 0.57583 0.47082
 O155 O 0.44887 0.53486 0.54812
 O156 O 0.53553 0.45472 0.49174
 O157 O 0.53575 0.53605 0.54412
 O158 O 0.44765 0.45552 0.49020
 Cu159 Cu 0.48999 0.53967 0.43298
 Cu160 Cu 0.49198 0.49101 0.52613
 C161 C 0.43152 0.46259 0.44256
 C162 C 0.54903 0.57066 0.51458
 C163 C 0.54994 0.46107 0.44348
 C164 C 0.43369 0.56942 0.51972
 O165 O -0.04454 0.56450 0.02005
 O166 O 0.04506 0.48928 0.08011
 O167 O 0.04125 0.57296 0.02996
 O168 O -0.04217 0.48281 0.07035
 O169 O -0.03253 0.44476 -0.00878
 O170 O 0.05002 0.53559 -0.04976
 O171 O 0.05452 0.45309 -0.00015
 O172 O -0.03621 0.52646 -0.05935
 Cu173 Cu -0.00071 0.53093 0.05834
 Cu174 Cu 0.00997 0.48608 -0.03735
 C175 C -0.05562 0.55820 -0.02987
 C176 C 0.06510 0.45839 0.05002
 C177 C 0.05919 0.57015 -0.01718
 C178 C -0.05200 0.44881 0.03734
 O179 O 0.46341 1.05372 0.51779
 O180 O 0.55537 0.96947 0.54911
 O181 O 0.54750 1.05351 0.49905
 O182 O 0.46841 0.97084 0.56442
 O183 O 0.45767 0.93417 0.48464
 O184 O 0.53916 1.01497 0.41999
 O185 O 0.54346 0.93099 0.47074
 O186 O 0.45367 1.01714 0.43771
 Cu187 Cu 0.51036 1.01519 0.54079
 Cu188 Cu 0.49792 0.97052 0.44520
 C189 C 0.44323 1.05004 0.47205
 C190 C 0.56411 0.93504 0.51612
 C191 C 0.55542 1.04948 0.44803
 C192 C 0.44890 0.93900 0.53535
 C193 C 1.15144 0.12043 0.17797
 C194 C 1.11226 0.12490 0.15159
 C195 C 1.09025 0.08258 0.12708
 C196 C 1.06454 0.08743 0.08263
 H197 H 1.09468 0.15892 0.14950
 H198 H 1.09570 0.04738 0.14484
 H199 H 1.16463 0.08415 0.18137
 H200 H 1.06185 0.12228 0.06315
 C201 C 0.68076 0.61984 0.62104
 C202 C 0.64136 0.63098 0.59794
 C203 C 0.61192 0.59378 0.57455
 C204 C 0.58174 0.60529 0.53623
 H205 H 0.62981 0.66799 0.59716
 H206 H 0.61489 0.55700 0.58867
 H207 H 0.69094 0.58237 0.62211
 H208 H 0.58117 0.64140 0.51970
 C209 C -0.16667 0.38238 0.15887
 C210 C -0.14400 0.38041 0.11158
 C211 C -0.11146 0.41780 0.09718
 C212 C -0.08627 0.41334 0.05206
 H213 H -0.14818 0.34977 0.08420
 H214 H -0.10720 0.44848 0.12448
 H215 H -0.16417 0.41412 0.18487
 H216 H -0.09095 0.38269 0.02484
 C217 C 0.35697 0.88089 0.68770
 C218 C 0.37115 0.87663 0.63585
 C219 C 0.40174 0.91194 0.61181
 C220 C 0.41611 0.90650 0.56018
 H221 H 0.36116 0.84568 0.61140
 H222 H 0.41349 0.94172 0.63691
 H223 H 0.36489 0.91297 0.71135
 H224 H 0.40371 0.87691 0.53525
 C225 C -0.15126 0.61395 -0.18095
 C226 C -0.13692 0.61845 -0.12908
 C227 C -0.10623 0.58294 -0.10465
 C228 C -0.09063 0.58923 -0.05359
 H229 H -0.14597 0.65026 -0.10539
 H230 H -0.09458 0.55287 -0.12955
 H231 H -0.14411 0.58122 -0.20392
 H232 H -0.10279 0.61917 -0.02887
 C233 C 0.32906 1.11815 0.35072
 C234 C 0.35484 1.12221 0.39555
 C235 C 0.38444 1.08256 0.41228
 C236 C 0.40863 1.08572 0.45831
 H237 H 0.35447 1.15493 0.42008
 H238 H 0.38812 1.05157 0.38526
 H239 H 0.32624 1.08278 0.33186
 H240 H 0.40439 1.11648 0.48553
 C241 C 1.17818 -0.11841 -0.13147
 C242 C 1.14294 -0.12785 -0.09927
 C243 C 1.11371 -0.08938 -0.07734
 C244 C 1.08863 -0.09788 -0.03320
 H245 H 1.13338 -0.16441 -0.09039
 H246 H 1.11196 -0.05492 -0.09777
 H247 H 1.18399 -0.08092 -0.14048
 H248 H 1.09272 -0.13169 -0.01178
 C249 C 0.63320 0.37255 0.30213
 C250 C 0.63158 0.38999 0.35330
 C251 C 0.59607 0.42392 0.37037
 C252 C 0.58603 0.42926 0.42346
 H253 H 0.65601 0.37813 0.38336
 H254 H 0.57683 0.44289 0.33944
 H255 H 0.60961 0.38557 0.27171
 H256 H 0.60391 0.40799 0.45364
 C257 C 0.84405 -0.13695 -0.16976
 C258 C 0.86515 -0.14468 -0.12191
 C259 C 0.89035 -0.10588 -0.09473
 C260 C 0.90939 -0.11206 -0.04551
 H261 H 0.86408 -0.17961 -0.10255
 H262 H 0.89477 -0.07229 -0.11636
 H263 H 0.84182 -0.10010 -0.18383
 H264 H 0.90423 -0.14523 -0.02335
 C265 C 0.32651 0.36500 0.37122
 C266 C 0.34099 0.40584 0.34865
 C267 C 0.37507 0.43807 0.37360
 C268 C 0.39585 0.43064 0.42188
 H269 H 0.32919 0.41516 0.30797
 H270 H 0.38429 0.46900 0.34942
 H271 H 0.33910 0.35342 0.41057
 H272 H 0.38729 0.40052 0.44743
 C273 C 0.17764 0.63575 -0.13322
 C274 C 0.14384 0.64358 -0.09794
 C275 C 0.11701 0.60312 -0.07764
 C276 C 0.08974 0.60849 -0.03457
 H277 H 0.13340 0.67955 -0.08638
 H278 H 0.11910 0.56867 -0.09878
 H279 H 0.18403 0.59858 -0.14450
 H280 H 0.08925 0.64223 -0.01190
 C281 C 0.65420 1.12336 0.31376
 C282 C 0.61677 1.12603 0.34389
 C283 C 0.59814 1.08344 0.37084
 C284 C 0.58091 1.08776 0.42121
 H285 H 0.59820 1.15924 0.34853
 H286 H 0.59831 1.04904 0.34954
 H287 H 0.66811 1.08765 0.30720
 H288 H 0.58380 1.12182 0.44298
 C289 C 0.13950 0.37009 0.19754
 C290 C 0.14124 0.38731 0.14653
 C291 C 0.10720 0.42161 0.12646
 C292 C 0.10104 0.42780 0.07258
 H293 H 0.16683 0.37425 0.11852
 H294 H 0.08540 0.43970 0.15571
 H295 H 0.11463 0.38405 0.22595
 H296 H 0.12154 0.40758 0.04371
 C297 C 0.69182 0.86885 0.61823
 C298 C 0.65276 0.86259 0.59219
 C299 C 0.62699 0.90375 0.57103
 C300 C 0.59636 0.89734 0.53165
 H301 H 0.63797 0.82720 0.58895
 H302 H 0.63191 0.93908 0.58923
 H303 H 0.70489 0.90507 0.62181
 H304 H 0.59347 0.86249 0.51163
 C305 C 0.83110 0.13410 0.13428
 C306 C 0.84101 0.09039 0.15378
 C307 C 0.87381 0.05727 0.12798
 C308 C 0.88832 0.06083 0.07604
 H309 H 0.82751 0.07978 0.19309
 H310 H 0.88719 0.02921 0.15401
 H311 H 0.84751 0.14701 0.09776
 H312 H 0.87426 0.08732 0.04858
 C313 C 0.34436 0.63117 0.67340
 C314 C 0.35856 0.63615 0.62172
 C315 C 0.38588 0.59842 0.59518
 C316 C 0.40133 0.60359 0.54406
 H317 H 0.35154 0.66916 0.59982
 H318 H 0.39529 0.56706 0.61885
 H319 H 0.34955 0.59729 0.69428
 H320 H 0.39172 0.63489 0.52043
   
