data_POSCAR
  _audit_creation_date              2014-09-24
  _audit_creation_method            'ToBaCCo'
  _symmetry_space_group_name_H-M    'P1'
  _symmetry_Int_Tables_number       1
  _symmetry_cell_setting            triclinic
  loop_
  _symmetry_equiv_pos_as_xyz
 x,y,z
_cell_length_a 38.8499
_cell_length_b 38.8662
_cell_length_c 50.2217
_cell_angle_alpha 90.124800
_cell_angle_beta 90.108600
_cell_angle_gamma 77.595200
loop_
  _atom_site_label
  _atom_site_type_symbol
  _atom_site_fract_x
  _atom_site_fract_y
  _atom_site_fract_z
C1 C 1.21946 0.24072 0.20601
 C2 C 1.24349 0.25839 0.18942
 C3 C 1.26359 0.27626 0.20391
 C4 C 1.25772 0.27477 0.23429
 C5 C 1.24407 0.21756 0.22572
 C6 C 1.26411 0.23508 0.24067
 C7 C 1.19786 0.27034 0.22308
 C8 C 1.21767 0.28786 0.23829
 H9 H 1.24456 0.25668 0.16788
 H10 H 1.27416 0.28926 0.24618
 H11 H 1.24433 0.18984 0.22832
 H12 H 1.16950 0.27459 0.22500
 C13 C 0.73679 -0.28500 0.20256
 C14 C 0.75375 -0.25942 0.18699
 C15 C 0.77144 -0.24013 0.20236
 C16 C 0.77050 -0.24819 0.23234
 C17 C 0.76687 -0.30741 0.21874
 C18 C 0.78415 -0.28834 0.23477
 C19 C 0.71358 -0.26230 0.22330
 C20 C 0.73101 -0.24306 0.23901
 H21 H 0.75191 -0.25691 0.16552
 H22 H 0.78482 -0.23236 0.24494
 H23 H 0.77134 -0.33585 0.21976
 H24 H 0.68603 -0.26280 0.22603
 C25 C 0.73556 0.21785 -0.29719
 C26 C 0.75230 0.24105 -0.31271
 C27 C 0.77146 0.26152 -0.29712
 C28 C 0.76990 0.25489 -0.26839
 C29 C 0.76387 0.19647 -0.28148
 C30 C 0.78244 0.21673 -0.26504
 C31 C 0.71353 0.24052 -0.27802
 C32 C 0.73219 0.26098 -0.26191
 H33 H 0.75120 0.24203 -0.33428
 H34 H 0.78455 0.27089 -0.25620
 H35 H 0.76806 0.16808 -0.27987
 H36 H 0.68593 0.24029 -0.27504
 C37 C 1.22448 -0.25703 -0.29425
 C38 C 1.24934 -0.23983 -0.31038
 C39 C 1.26927 -0.22228 -0.29543
 C40 C 1.26252 -0.22365 -0.26520
 C41 C 1.24822 -0.28045 -0.27420
 C42 C 1.26815 -0.26329 -0.25888
 C43 C 1.20277 -0.22715 -0.27749
 C44 C 1.22247 -0.20997 -0.26192
 H45 H 1.25090 -0.24139 -0.33190
 H46 H 1.27888 -0.20944 -0.25298
 H47 H 1.24807 -0.30811 -0.27176
 H48 H 1.17433 -0.22236 -0.27610
 C49 C 0.23532 0.21506 0.79692
 C50 C 0.25189 0.23833 0.81236
 C51 C 0.27139 0.25838 0.79696
 C52 C 0.27042 0.25149 0.76833
 C53 C 0.21272 0.23857 0.77629
 C54 C 0.23087 0.25764 0.76111
 C55 C 0.26504 0.19228 0.78056
 C56 C 0.28313 0.21121 0.76512
 H57 H 0.25025 0.23973 0.83389
 H58 H 0.28523 0.26706 0.75600
 H59 H 0.18514 0.23850 0.77309
 H60 H 0.26872 0.16393 0.77902
 C61 C 0.71895 0.73878 0.79372
 C62 C 0.74082 0.75606 0.81016
 C63 C 0.76181 0.77560 0.79549
 C64 C 0.75680 0.77383 0.76646
 C65 C 0.69803 0.76679 0.77750
 C66 C 0.71874 0.78575 0.76190
 C67 C 0.74311 0.71705 0.77526
 C68 C 0.76401 0.73606 0.75999
 H69 H 0.74068 0.75488 0.83174
 H70 H 0.77313 0.78881 0.75498
 H71 H 0.66976 0.77056 0.77503
 H72 H 0.74366 0.68930 0.77215
 C73 C 0.72388 0.24125 0.29452
 C74 C 0.74817 0.25905 0.31087
 C75 C 0.76793 0.27688 0.29614
 C76 C 0.76158 0.27517 0.26584
 C77 C 0.70195 0.27075 0.27755
 C78 C 0.72149 0.28820 0.26216
 C79 C 0.74817 0.21799 0.27467
 C80 C 0.76788 0.23546 0.25951
 H81 H 0.74951 0.25763 0.33241
 H82 H 0.77780 0.28961 0.25379
 H83 H 0.67356 0.27499 0.27584
 H84 H 0.74832 0.19028 0.27208
 C85 C 0.23508 0.71782 0.29697
 C86 C 0.25295 0.74318 0.31214
 C87 C 0.27064 0.76194 0.29642
 C88 C 0.26873 0.75367 0.26649
 C89 C 0.21162 0.74064 0.27644
 C90 C 0.22900 0.75936 0.26034
 C91 C 0.26445 0.69486 0.28048
 C92 C 0.28172 0.71342 0.26413
 H93 H 0.25181 0.74584 0.33362
 H94 H 0.28302 0.76909 0.25359
 H95 H 0.18392 0.74051 0.27408
 H96 H 0.26861 0.66642 0.27968
 O97 O 1.05753 0.02935 0.02439
 O98 O 0.93194 -0.03346 0.02026
 O99 O 0.94749 0.06991 0.01900
 O100 O 1.04193 -0.07415 0.02303
 O101 O 0.93145 0.02487 0.03345
 O102 O 1.05518 -0.02776 0.03806
 O103 O 0.98145 -0.05921 0.03655
 O104 O 1.00655 0.05585 0.03740
 C105 C 1.03869 0.04808 0.04133
 C106 C 0.94906 -0.05067 0.03878
 C107 C 0.93348 0.05574 0.03693
 C108 C 1.05503 -0.05907 0.04113
 O109 O 1.06631 -0.05103 -0.01326
 O110 O 0.92722 0.04522 -0.01921
 O111 O 1.03181 0.05909 -0.01273
 O112 O 0.96187 -0.06477 -0.01498
 O113 O 0.93979 -0.01523 -0.03209
 O114 O 1.05556 0.00864 -0.02777
 O115 O 1.02051 -0.06478 -0.02898
 O116 O 0.97498 0.05998 -0.03025
 Co117 Co 1.05267 -0.00948 0.00509
 Co118 Co 0.93860 0.00467 0.00083
 Co119 Co 0.99073 0.05500 0.00347
 Co120 Co 1.00099 -0.05948 0.00383
 O121 O 0.99572 -0.00230 0.00333
 C122 C 1.05143 -0.06267 -0.03218
 C123 C 0.94432 0.05887 -0.03570
 C124 C 1.04918 0.04086 -0.03051
 C125 C 0.94619 -0.04762 -0.03400
 O126 O 1.06036 0.53111 0.52659
 O127 O 0.93442 0.46895 0.52405
 O128 O 0.95032 0.57224 0.52280
 O129 O 1.04449 0.42778 0.52513
 O130 O 0.93480 0.52707 0.53750
 O131 O 1.05856 0.47386 0.53999
 O132 O 0.98415 0.44273 0.53975
 O133 O 1.00969 0.55756 0.54032
 C134 C 1.04189 0.54963 0.54383
 C135 C 0.95177 0.45128 0.54227
 C136 C 0.93659 0.55802 0.54087
 C137 C 1.05827 0.44258 0.54301
 O138 O 1.06813 0.45121 0.48839
 O139 O 0.92916 0.54793 0.48494
 O140 O 1.03389 0.56142 0.48995
 O141 O 0.96342 0.43790 0.48838
 O142 O 0.94096 0.48768 0.47177
 O143 O 1.05699 0.51115 0.47430
 O144 O 1.02180 0.43740 0.47363
 O145 O 0.97678 0.56223 0.47310
 Co146 Co 1.05501 0.49258 0.50714
 Co147 Co 0.94082 0.50721 0.50472
 Co148 Co 0.99316 0.55712 0.50663
 Co149 Co 1.00303 0.44269 0.50670
 O150 O 0.99799 0.49990 0.50632
 C151 C 1.05268 0.43933 0.46988
 C152 C 0.94605 0.56105 0.46800
 C153 C 1.05098 0.54343 0.47193
 C154 C 0.94760 0.45532 0.46955
 O155 O 0.55906 0.00959 0.52720
 O156 O 0.44319 -0.01414 0.52945
 O157 O 0.47854 0.06047 0.52814
 O158 O 0.52431 -0.06426 0.52784
 O159 O 0.43108 0.04595 0.51606
 O160 O 0.57055 -0.05041 0.51311
 O161 O 0.46594 -0.06406 0.51307
 O162 O 0.53567 0.05971 0.51153
 C163 C 0.55269 0.04186 0.52964
 C164 C 0.45007 -0.04647 0.53182
 C165 C 0.44780 0.05928 0.53308
 C166 C 0.55519 -0.06228 0.53160
 O167 O 0.56084 -0.02802 0.46151
 O168 O 0.43696 0.02452 0.46362
 O169 O 0.51170 0.05542 0.46104
 O170 O 0.48656 -0.05966 0.46172
 O171 O 0.43678 -0.03350 0.47726
 O172 O 0.56243 0.02939 0.47495
 O173 O 0.54687 -0.07408 0.47635
 O174 O 0.45228 0.06994 0.47826
 Co175 Co 0.55720 -0.00914 0.49435
 Co176 Co 0.44300 0.00502 0.49646
 Co177 Co 0.49507 0.05516 0.49467
 Co178 Co 0.50545 -0.05931 0.49476
 O179 O 0.50016 -0.00207 0.49503
 C180 C 0.56037 -0.05927 0.45840
 C181 C 0.43859 0.05548 0.46021
 C182 C 0.54392 0.04773 0.45765
 C183 C 0.45419 -0.05114 0.45907
 O184 O 0.55825 0.50606 0.02677
 O185 O 0.44240 0.48238 0.02949
 O186 O 0.47758 0.55694 0.02875
 O187 O 0.52346 0.43223 0.02669
 O188 O 0.42993 0.54276 0.01677
 O189 O 0.56935 0.44636 0.01167
 O190 O 0.46490 0.43266 0.01258
 O191 O 0.53447 0.55652 0.01186
 C192 C 0.55181 0.53828 0.02963
 C193 C 0.44892 0.45000 0.03144
 C194 C 0.44683 0.55588 0.03378
 C195 C 0.55430 0.43441 0.03027
 O196 O 0.55899 0.47008 -0.03939
 O197 O 0.43512 0.52230 -0.03591
 O198 O 0.50989 0.55341 -0.03858
 O199 O 0.48455 0.43844 -0.03907
 O200 O 0.43513 0.46398 -0.02271
 O201 O 0.56081 0.52718 -0.02521
 O202 O 0.54508 0.42357 -0.02526
 O203 O 0.45072 0.56737 -0.02087
 Co204 Co 0.55584 0.48815 -0.00632
 Co205 Co 0.44166 0.50219 -0.00329
 Co206 Co 0.49369 0.55237 -0.00486
 Co207 Co 0.50403 0.43795 -0.00618
 O208 O 0.49879 0.49517 -0.00519
 C209 C 0.55877 0.43884 -0.04286
 C210 C 0.43696 0.55325 -0.03906
 C211 C 0.54207 0.54577 -0.04226
 C212 C 0.45215 0.44689 -0.04130
 C213 C 1.16177 0.18051 0.16097
 N214 N 1.19753 0.17304 0.16063
 N215 N 1.21554 0.19238 0.17465
 C216 C 1.19850 0.21998 0.18956
 N217 N 1.16267 0.22754 0.18982
 N218 N 1.14463 0.20821 0.17575
 C219 C 1.14221 0.15895 0.14545
 N220 N 1.10642 0.16688 0.14456
 N221 N 1.08899 0.14754 0.12990
 C222 C 1.10677 0.11951 0.11574
 N223 N 1.14251 0.11150 0.11682
 N224 N 1.15990 0.13082 0.13141
 C225 C 1.08818 0.09918 0.09826
 N226 N 1.10689 0.07253 0.08333
 N227 N 1.09076 0.05555 0.06588
 C228 C 1.05527 0.06446 0.06275
 N229 N 1.03636 0.09076 0.07798
 N230 N 1.05256 0.10783 0.09545
 C231 C 1.16676 0.68285 0.66086
 N232 N 1.20251 0.67539 0.66039
 N233 N 1.22057 0.69484 0.67424
 C234 C 1.20356 0.72255 0.68906
 N235 N 1.16775 0.73013 0.68938
 N236 N 1.14967 0.71069 0.67550
 C237 C 1.14711 0.66101 0.64580
 N238 N 1.11132 0.66876 0.64536
 N239 N 1.09371 0.64910 0.63120
 C240 C 1.11132 0.62092 0.61712
 N241 N 1.14708 0.61310 0.61775
 N242 N 1.16465 0.63274 0.63185
 C243 C 1.09247 0.60041 0.60010
 N244 N 1.11091 0.57379 0.58501
 N245 N 1.09444 0.55682 0.56780
 C246 C 1.05890 0.56573 0.56510
 N247 N 1.04028 0.59197 0.58051
 N248 N 1.05680 0.60902 0.59774
 C249 C 0.67652 0.16342 0.65636
 N250 N 0.66943 0.19914 0.65663
 N251 N 0.68857 0.21641 0.67148
 C252 C 0.71565 0.19865 0.68663
 N253 N 0.72268 0.16281 0.68624
 N254 N 0.70352 0.14553 0.67138
 C255 C 0.65571 0.14460 0.63965
 N256 N 0.66286 0.10885 0.63893
 N257 N 0.64456 0.09191 0.62301
 C258 C 0.61847 0.11017 0.60732
 N259 N 0.61119 0.14589 0.60822
 N260 N 0.62945 0.16281 0.62413
 C261 C 0.59971 0.09195 0.58851
 N262 N 0.57591 0.11082 0.57141
 N263 N 0.56040 0.09465 0.55304
 C264 C 0.56807 0.05901 0.55114
 N265 N 0.59153 0.04001 0.56845
 N266 N 0.60714 0.05623 0.58682
 C267 C 0.67755 0.65934 0.15519
 N268 N 0.66986 0.69507 0.15577
 N269 N 0.68888 0.71250 0.17059
 C270 C 0.71636 0.69485 0.18532
 N271 N 0.72409 0.65907 0.18466
 N272 N 0.70505 0.64162 0.16983
 C273 C 0.65665 0.64039 0.13869
 N274 N 0.66431 0.60464 0.13761
 N275 N 0.64576 0.58763 0.12194
 C276 C 0.61891 0.60583 0.10689
 N277 N 0.61114 0.64153 0.10815
 N278 N 0.62964 0.65851 0.12380
 C279 C 0.59981 0.58766 0.08832
 N280 N 0.57522 0.60665 0.07185
 N281 N 0.55939 0.59065 0.05358
 C282 C 0.56749 0.55507 0.05116
 N283 N 0.59173 0.53593 0.06787
 N284 N 0.60767 0.55198 0.08614
 C285 C 0.82222 -0.16843 0.16539
 N286 N 0.79151 -0.17456 0.15569
 N287 N 0.77516 -0.19680 0.16790
 C288 C 0.78861 -0.21354 0.19050
 N289 N 0.81903 -0.20695 0.20062
 N290 N 0.83569 -0.18492 0.18817
 C291 C 0.84111 -0.14605 0.15016
 N292 N 0.87594 -0.14722 0.15423
 N293 N 0.89340 -0.12936 0.13838
 C294 C 0.87658 -0.10957 0.11802
 N295 N 0.84169 -0.10799 0.11432
 N296 N 0.82435 -0.12598 0.13000
 C297 C 0.89582 -0.09207 0.09896
 N298 N 0.87787 -0.07143 0.07954
 N299 N 0.89494 -0.05762 0.06080
 C300 C 0.93067 -0.06404 0.06068
 N301 N 0.94873 -0.08438 0.08026
 N302 N 0.93159 -0.09814 0.09909
 C303 C 0.82444 0.32895 0.66543
 N304 N 0.80123 0.31382 0.65208
 N305 N 0.78436 0.29215 0.66440
 C306 C 0.78945 0.28499 0.69073
 N307 N 0.81244 0.30051 0.70431
 N308 N 0.82989 0.32190 0.69181
 C309 C 0.84307 0.35211 0.65076
 N310 N 0.87602 0.35555 0.65769
 N311 N 0.89364 0.37393 0.64233
 C312 C 0.87873 0.38974 0.61971
 N313 N 0.84563 0.38672 0.61317
 N314 N 0.82828 0.36810 0.62827
 C315 C 0.89816 0.40813 0.60137
 N316 N 0.88051 0.42787 0.58139
 N317 N 0.89772 0.44229 0.56311
 C318 C 0.93333 0.43733 0.56392
 N319 N 0.95114 0.41787 0.58406
 N320 N 0.93383 0.40357 0.60251
 C321 C 0.33808 -0.17079 0.66462
 N322 N 0.32184 -0.15668 0.68734
 N323 N 0.30091 -0.17359 0.70085
 C324 C 0.29524 -0.20495 0.69192
 N325 N 0.31178 -0.21903 0.66940
 N326 N 0.33292 -0.20243 0.65613
 C327 C 0.35915 -0.15179 0.64813
 N328 N 0.37859 -0.16892 0.62780
 N329 N 0.39538 -0.15173 0.61107
 C330 C 0.39323 -0.11662 0.61385
 N331 N 0.37406 -0.09938 0.63436
 N332 N 0.35736 -0.11669 0.65125
 C333 C 0.40976 -0.09782 0.59380
 N334 N 0.40412 -0.06206 0.59352
 N335 N 0.41738 -0.04549 0.57405
 C336 C 0.43674 -0.06411 0.55421
 N337 N 0.44265 -0.09978 0.55471
 N338 N 0.42938 -0.11629 0.57408
 C339 C 0.33214 0.32705 0.16270
 N340 N 0.31728 0.34081 0.18598
 N341 N 0.29636 0.32420 0.19981
 C342 C 0.28932 0.29348 0.19067
 N343 N 0.30448 0.27975 0.16757
 N344 N 0.32558 0.29606 0.15398
 C345 C 0.35351 0.34564 0.14605
 N346 N 0.37169 0.32858 0.12512
 N347 N 0.38902 0.34540 0.10850
 C348 C 0.38869 0.38009 0.11198
 N349 N 0.37074 0.39724 0.13306
 N350 N 0.35351 0.38029 0.14984
 C351 C 0.40607 0.39864 0.09223
 N352 N 0.40195 0.43427 0.09265
 N353 N 0.41605 0.45076 0.07357
 C354 C 0.43482 0.43220 0.05344
 N355 N 0.43922 0.39662 0.05323
 N356 N 0.42508 0.38019 0.07221
 C357 C 0.83934 0.17070 -0.20043
 N358 N 0.82540 0.15111 -0.21812
 N359 N 0.80831 0.16594 -0.23954
 C360 C 0.80408 0.20105 -0.24408
 N361 N 0.81865 0.22059 -0.22658
 N362 N 0.83612 0.20565 -0.20520
 C363 C 0.85552 0.15439 -0.17585
 N364 N 0.87712 0.16992 -0.16093
 N365 N 0.89114 0.15495 -0.13842
 C366 C 0.88360 0.12426 -0.12985
 N367 N 0.86187 0.10889 -0.14470
 N368 N 0.84823 0.12361 -0.16734
 C369 C 0.89890 0.10770 -0.10509
 N370 N 0.88425 0.08341 -0.09255
 N371 N 0.89838 0.06808 -0.07019
 C372 C 0.92791 0.07622 -0.05981
 N373 N 0.94261 0.10039 -0.07242
 N374 N 0.92824 0.11603 -0.09456
 C375 C 0.84087 0.66576 0.30122
 N376 N 0.84109 0.69954 0.29443
 N377 N 0.82402 0.71398 0.27275
 C378 C 0.80656 0.69500 0.25694
 N379 N 0.80702 0.66105 0.26356
 N380 N 0.82374 0.64674 0.28529
 C381 C 0.85700 0.65039 0.32608
 N382 N 0.84781 0.62135 0.33634
 N383 N 0.86146 0.60765 0.35928
 C384 C 0.88504 0.62233 0.37269
 N385 N 0.89443 0.65126 0.36237
 N386 N 0.88046 0.66522 0.33954
 C387 C 0.90035 0.60692 0.39778
 N388 N 0.93031 0.61489 0.40744
 N389 N 0.94471 0.60029 0.42990
 C390 C 0.92944 0.57754 0.44369
 N391 N 0.89930 0.56974 0.43417
 N392 N 0.88510 0.58406 0.41152
 C393 C 0.32524 0.18387 0.30366
 N394 N 0.32043 0.21938 0.30084
 N395 N 0.30165 0.23582 0.28049
 C396 C 0.28703 0.21731 0.26228
 N397 N 0.29225 0.18183 0.26506
 N398 N 0.31097 0.16546 0.28529
 C399 C 0.34417 0.16531 0.32662
 N400 N 0.34692 0.13006 0.32919
 N401 N 0.36274 0.11290 0.35029
 C402 C 0.37645 0.13029 0.36968
 N403 N 0.37392 0.16556 0.36710
 N404 N 0.35801 0.18279 0.34595
 C405 C 0.39303 0.11105 0.39320
 N406 N 0.40772 0.12762 0.41262
 N407 N 0.42228 0.10994 0.43400
 C408 C 0.42254 0.07512 0.43676
 N409 N 0.40790 0.05858 0.41734
 N410 N 0.39342 0.07622 0.39597
 C411 C 0.32762 0.68436 -0.19561
 N412 N 0.32323 0.71987 -0.19815
 N413 N 0.30498 0.73668 -0.21858
 C414 C 0.29049 0.71856 -0.23714
 N415 N 0.29530 0.68308 -0.23463
 N416 N 0.31349 0.66633 -0.21433
 C417 C 0.34590 0.66538 -0.17261
 N418 N 0.34814 0.63018 -0.17033
 N419 N 0.36334 0.61263 -0.14918
 C420 C 0.37690 0.62959 -0.12945
 N421 N 0.37488 0.66482 -0.13173
 N422 N 0.35959 0.68243 -0.15293
 C423 C 0.39281 0.60996 -0.10593
 N424 N 0.40744 0.62608 -0.08623
 N425 N 0.42149 0.60803 -0.06486
 C426 C 0.42126 0.57328 -0.06241
 N427 N 0.40666 0.55718 -0.08211
 N428 N 0.39269 0.57520 -0.10347
 C429 C 1.17461 -0.14964 -0.19762
 N430 N 1.21030 -0.15985 -0.19886
 N431 N 1.22582 -0.17774 -0.21990
 C432 C 1.20620 -0.18599 -0.24042
 N433 N 1.17061 -0.17503 -0.23933
 N434 N 1.15514 -0.15721 -0.21838
 C435 C 1.15681 -0.13345 -0.17347
 N436 N 1.12118 -0.12775 -0.17169
 N437 N 1.10472 -0.11555 -0.14928
 C438 C 1.12324 -0.10854 -0.12777
 N439 N 1.15889 -0.11385 -0.12958
 N440 N 1.17542 -0.12621 -0.15201
 C441 C 1.10482 -0.09648 -0.10283
 N442 N 1.12235 -0.08661 -0.08171
 N443 N 1.10540 -0.07601 -0.05910
 C444 C 1.07041 -0.07520 -0.05674
 N445 N 1.05293 -0.08512 -0.07784
 N446 N 1.06983 -0.09555 -0.10046
 C447 C 1.17121 0.34745 0.30351
 N448 N 1.15119 0.33909 0.28337
 N449 N 1.16613 0.32145 0.26217
 C450 C 1.20174 0.31146 0.26016
 N451 N 1.22188 0.32044 0.28008
 N452 N 1.20688 0.33814 0.30137
 C453 C 1.15411 0.36389 0.32788
 N454 N 1.17329 0.37215 0.34866
 N455 N 1.15744 0.38509 0.37121
 C456 C 1.12190 0.39000 0.37383
 N457 N 1.10280 0.38192 0.35299
 N458 N 1.11859 0.36913 0.33047
 C459 C 1.10418 0.40297 0.39890
 N460 N 1.06926 0.40402 0.40201
 N461 N 1.05299 0.41533 0.42471
 C462 C 1.07102 0.42605 0.44517
 N463 N 1.10594 0.42512 0.44208
 N464 N 1.12227 0.41366 0.41938
 C465 C 0.68240 -0.18755 0.30520
 N466 N 0.71339 -0.18147 0.29591
 N467 N 0.72899 -0.19900 0.27478
 C468 C 0.71392 -0.22290 0.26204
 N469 N 0.68289 -0.22875 0.27133
 N470 N 0.66749 -0.21151 0.29253
 C471 C 0.66502 -0.16878 0.32853
 N472 N 0.63829 -0.18013 0.34063
 N473 N 0.62197 -0.16306 0.36163
 C474 C 0.63160 -0.13382 0.37113
 N475 N 0.65832 -0.12241 0.35902
 N476 N 0.67486 -0.13967 0.33815
 C477 C 0.61311 -0.11463 0.39390
 N478 N 0.61736 -0.08175 0.39990
 N479 N 0.60029 -0.06411 0.42038
 C480 C 0.57858 -0.07880 0.43572
 N481 N 0.57439 -0.11174 0.42982
 N482 N 0.59124 -0.12928 0.40917
 C483 C 0.68403 0.31575 -0.19697
 N484 N 0.66655 0.29693 -0.21275
 N485 N 0.68211 0.27997 -0.23398
 C486 C 0.71592 0.28076 -0.24025
 N487 N 0.73347 0.29978 -0.22449
 N488 N 0.71772 0.31714 -0.20330
 C489 C 0.66650 0.33355 -0.17330
 N490 N 0.67851 0.35990 -0.16111
 N491 N 0.66168 0.37634 -0.14001
 C492 C 0.63254 0.36673 -0.13020
 N493 N 0.62079 0.34019 -0.14227
 N494 N 0.63736 0.32405 -0.16350
 C495 C 0.61359 0.38515 -0.10729
 N496 N 0.59009 0.37075 -0.09353
 N497 N 0.57261 0.38769 -0.07288
 C498 C 0.57772 0.41983 -0.06551
 N499 N 0.60106 0.43427 -0.07935
 N500 N 0.61880 0.41718 -0.09978
 C501 C 1.17441 0.16017 -0.15685
 N502 N 1.16698 0.19589 -0.15746
 N503 N 1.18641 0.21306 -0.17201
 C504 C 1.21406 0.19515 -0.18643
 N505 N 1.22148 0.15937 -0.18580
 N506 N 1.20203 0.14218 -0.17124
 C507 C 1.15335 0.14152 -0.14038
 N508 N 1.16083 0.10579 -0.13918
 N509 N 1.14233 0.08908 -0.12335
 C510 C 1.11571 0.10757 -0.10825
 N511 N 1.10809 0.14325 -0.10965
 N512 N 1.12654 0.15993 -0.12546
 C513 C 1.09679 0.08969 -0.08946
 N514 N 1.07260 0.10890 -0.07281
 N515 N 1.05693 0.09311 -0.05439
 C516 C 1.06483 0.05754 -0.05200
 N517 N 1.08868 0.03819 -0.06888
 N518 N 1.10445 0.05403 -0.08729
 C519 C 1.17643 0.66351 0.34576
 N520 N 1.20314 0.64537 0.33059
 N521 N 1.22194 0.66239 0.31530
 C522 C 1.21476 0.69817 0.31466
 N523 N 1.18806 0.71625 0.32989
 N524 N 1.16928 0.69924 0.34518
 C525 C 1.15579 0.64494 0.36273
 N526 N 1.12973 0.66337 0.37831
 N527 N 1.11143 0.64668 0.39426
 C528 C 1.11845 0.61096 0.39514
 N529 N 1.14437 0.59248 0.37943
 N530 N 1.16272 0.60919 0.36348
 C531 C 1.09941 0.59295 0.41381
 N532 N 1.10640 0.55723 0.41535
 N533 N 1.09037 0.54120 0.43348
 C534 C 1.06687 0.56039 0.45068
 N535 N 1.05965 0.59603 0.44892
 N536 N 1.07559 0.61202 0.43079
 C537 C 0.66700 0.18074 0.33952
 N538 N 0.64962 0.20819 0.32468
 N539 N 0.66741 0.22769 0.31069
 C540 C 0.70323 0.22055 0.31110
 N541 N 0.72052 0.19320 0.32610
 N542 N 0.70275 0.17370 0.34005
 C543 C 0.64767 0.15894 0.35484
 N544 N 0.66552 0.13117 0.36912
 N545 N 0.64826 0.11162 0.38349
 C546 C 0.61250 0.11904 0.38407
 N547 N 0.59458 0.14670 0.36966
 N548 N 0.61188 0.16627 0.35525
 C549 C 0.59394 0.09859 0.40130
 N550 N 0.55825 0.10673 0.40348
 N551 N 0.54195 0.08968 0.42077
 C552 C 0.56082 0.06391 0.43644
 N553 N 0.59639 0.05549 0.43393
 N554 N 0.61264 0.07245 0.41666
 C555 C 0.66339 0.67820 -0.16240
 N556 N 0.69912 0.67140 -0.16191
 N557 N 0.71671 0.69108 -0.17586
 C558 C 0.69930 0.71840 -0.19093
 N559 N 0.66343 0.72520 -0.19126
 N560 N 0.64583 0.70552 -0.17726
 C561 C 0.64427 0.65643 -0.14682
 N562 N 0.60848 0.66377 -0.14611
 N563 N 0.59140 0.64437 -0.13133
 C564 C 0.60953 0.61689 -0.11684
 N565 N 0.64528 0.60947 -0.11773
 N566 N 0.66232 0.62885 -0.13246
 C567 C 0.59124 0.59662 -0.09922
 N568 N 0.61018 0.57059 -0.08390
 N569 N 0.59420 0.55370 -0.06639
 C570 C 0.55866 0.56210 -0.06358
 N571 N 0.53955 0.58779 -0.07919
 N572 N 0.55558 0.60477 -0.09673
 C573 C 0.82681 -0.17166 -0.16331
 N574 N 0.81059 -0.19477 -0.15104
 N575 N 0.78974 -0.21148 -0.16458
 C576 C 0.78445 -0.20634 -0.19114
 N577 N 0.80105 -0.18341 -0.20366
 N578 N 0.82165 -0.16614 -0.18992
 C579 C 0.84922 -0.15344 -0.14721
 N580 N 0.85454 -0.12104 -0.15377
 N581 N 0.87225 -0.10393 -0.13732
 C582 C 0.88549 -0.11878 -0.11391
 N583 N 0.88057 -0.15131 -0.10771
 N584 N 0.86264 -0.16815 -0.12391
 C585 C 0.90339 -0.09995 -0.09456
 N586 N 0.92044 -0.11774 -0.07348
 N587 N 0.93465 -0.10102 -0.05465
 C588 C 0.93217 -0.06573 -0.05598
 N589 N 0.91534 -0.04779 -0.07717
 N590 N 0.90126 -0.06463 -0.09617
 C591 C 0.83560 0.32949 0.33678
 N592 N 0.81967 0.34322 0.31385
 N593 N 0.79910 0.32598 0.30014
 C594 C 0.79348 0.29466 0.30907
 N595 N 0.80970 0.28096 0.33181
 N596 N 0.83048 0.29789 0.34528
 C597 C 0.85641 0.34878 0.35342
 N598 N 0.87559 0.33193 0.37398
 N599 N 0.89227 0.34933 0.39074
 C600 C 0.89026 0.38438 0.38779
 N601 N 0.87133 0.40133 0.36706
 N602 N 0.85474 0.38381 0.35013
 C603 C 0.90683 0.40340 0.40781
 N604 N 0.90142 0.43914 0.40788
 N605 N 0.91482 0.45590 0.42727
 C606 C 0.93408 0.43749 0.44724
 N607 N 0.93973 0.40182 0.44695
 N608 N 0.92633 0.38513 0.42766
 C609 C 0.32456 -0.16825 0.33291
 N610 N 0.33763 -0.18569 0.31037
 N611 N 0.31997 -0.20706 0.29801
 C612 C 0.28888 -0.21198 0.30798
 N613 N 0.27584 -0.19429 0.33034
 N614 N 0.29320 -0.17271 0.34245
 C615 C 0.34438 -0.14645 0.34806
 N616 N 0.32798 -0.12523 0.36778
 N617 N 0.34593 -0.10762 0.38337
 C618 C 0.38111 -0.11071 0.38005
 N619 N 0.39760 -0.13169 0.36014
 N620 N 0.37953 -0.14919 0.34436
 C621 C 0.40076 -0.09328 0.39902
 N622 N 0.43659 -0.10035 0.39936
 N623 N 0.45387 -0.08640 0.41811
 C624 C 0.43591 -0.06488 0.43714
 N625 N 0.40017 -0.05751 0.43652
 N626 N 0.38296 -0.07147 0.41788
 C627 C 0.32392 0.32628 -0.16541
 N628 N 0.32975 0.31876 -0.19170
 N629 N 0.31245 0.29721 -0.20425
 C630 C 0.28922 0.28198 -0.19081
 N631 N 0.28371 0.28961 -0.16457
 N632 N 0.30045 0.31145 -0.15221
 C633 C 0.34253 0.34948 -0.15068
 N634 N 0.32772 0.36560 -0.12824
 N635 N 0.34513 0.38416 -0.11304
 C636 C 0.37829 0.38699 -0.11944
 N637 N 0.39319 0.37107 -0.14203
 N638 N 0.37552 0.35275 -0.15749
 C639 C 0.39787 0.40508 -0.10092
 N640 N 0.43353 0.40046 -0.10214
 N641 N 0.45104 0.41436 -0.08351
 C642 C 0.43345 0.43345 -0.06311
 N643 N 0.39784 0.43849 -0.06222
 N644 N 0.38043 0.42447 -0.08069
 C645 C 1.17930 -0.18579 0.19423
 N646 N 1.16453 -0.20952 0.20722
 N647 N 1.18029 -0.22653 0.22838
 C648 C 1.21155 -0.22070 0.23731
 N649 N 1.22649 -0.19705 0.22426
 N650 N 1.21052 -0.17973 0.20316
 C651 C 1.16149 -0.16724 0.17094
 N652 N 1.17104 -0.13813 0.16116
 N653 N 1.15410 -0.12105 0.14036
 C654 C 1.12727 -0.13266 0.12847
 N655 N 1.11792 -0.16191 0.13813
 N656 N 1.13463 -0.17878 0.15906
 C657 C 1.10838 -0.11368 0.10574
 N658 N 1.08662 -0.12865 0.09049
 N659 N 1.06952 -0.11135 0.06984
 C660 C 1.07332 -0.07831 0.06392
 N661 N 1.09491 -0.06331 0.07927
 N662 N 1.11223 -0.08071 0.09974
 C663 C 1.18343 0.31335 0.69463
 N664 N 1.16838 0.28934 0.70696
 N665 N 1.18349 0.27206 0.72820
 C666 C 1.21437 0.27788 0.73791
 N667 N 1.22965 0.30180 0.72551
 N668 N 1.21431 0.31941 0.70431
 C669 C 1.16609 0.33220 0.67131
 N670 N 1.17549 0.36165 0.66204
 N671 N 1.15862 0.37907 0.64134
 C672 C 1.13202 0.36748 0.62908
 N673 N 1.12288 0.33789 0.63823
 N674 N 1.13950 0.32068 0.65903
 C675 C 1.11298 0.38685 0.60659
 N676 N 1.09097 0.37214 0.59139
 N677 N 1.07347 0.38982 0.57106
 C678 C 1.07709 0.42298 0.56543
 N679 N 1.09895 0.43773 0.58071
 N680 N 1.11667 0.41996 0.60087
 C681 C 0.67315 -0.15539 0.69792
 N682 N 0.70867 -0.16184 0.70145
 N683 N 0.72358 -0.17978 0.72267
 C684 C 0.70352 -0.19202 0.74107
 N685 N 0.66801 -0.18476 0.73768
 N686 N 0.65315 -0.16684 0.71661
 C687 C 0.65624 -0.13860 0.67359
 N688 N 0.67534 -0.12847 0.65357
 N689 N 0.65963 -0.11529 0.63101
 C690 C 0.62433 -0.11195 0.62766
 N691 N 0.60532 -0.12187 0.64776
 N692 N 0.62096 -0.13492 0.67025
 C693 C 0.60671 -0.09879 0.60259
 N694 N 0.57199 -0.09851 0.59909
 N695 N 0.55574 -0.08711 0.57640
 C696 C 0.57359 -0.07554 0.55631
 N697 N 0.60832 -0.07569 0.55977
 N698 N 0.62464 -0.08722 0.58248
 C699 C 0.67424 0.34714 0.19704
 N700 N 0.70993 0.33796 0.19905
 N701 N 0.72516 0.32050 0.22033
 C702 C 0.70526 0.31164 0.24036
 N703 N 0.66963 0.32153 0.23849
 N704 N 0.65444 0.33894 0.21729
 C705 C 0.65690 0.36307 0.17263
 N706 N 0.62140 0.36800 0.17011
 N707 N 0.60543 0.38015 0.14750
 C708 C 0.62434 0.38786 0.12651
 N709 N 0.65987 0.38328 0.12906
 N710 N 0.67589 0.37099 0.15170
 C711 C 0.60646 0.40001 0.10136
 N712 N 0.62429 0.41044 0.08072
 N713 N 0.60778 0.42121 0.05795
 C714 C 0.57293 0.42164 0.05495
 N715 N 0.55515 0.41115 0.07557
 N716 N 0.57161 0.40055 0.09834
 C717 C 0.82661 0.18423 0.19548
 N718 N 0.81313 0.16581 0.21420
 N719 N 0.79525 0.18219 0.23479
 C720 C 0.79012 0.21767 0.23758
 N721 N 0.80399 0.23617 0.21903
 N722 N 0.82193 0.21973 0.19832
 C723 C 0.84441 0.16568 0.17211
 N724 N 0.85764 0.18313 0.15253
 N725 N 0.87249 0.16592 0.13100
 C726 C 0.87450 0.13073 0.12830
 N727 N 0.86139 0.11338 0.14794
 N728 N 0.84665 0.13052 0.16941
 C729 C 0.88997 0.11152 0.10445
 N730 N 0.88967 0.07685 0.10154
 N731 N 0.90336 0.05917 0.07994
 C732 C 0.91787 0.07552 0.06044
 N733 N 0.91827 0.11019 0.06333
 N734 N 0.90449 0.12792 0.08493
 C735 C 0.82437 0.68669 0.69785
 N736 N 0.82114 0.72187 0.70189
 N737 N 0.80227 0.73804 0.72232
 C738 C 0.78586 0.71961 0.73936
 N739 N 0.78961 0.68445 0.73533
 N740 N 0.80845 0.66835 0.71508
 C741 C 0.84335 0.66829 0.67482
 N742 N 0.84513 0.63327 0.67167
 N743 N 0.86082 0.61615 0.65051
 C744 C 0.87539 0.63336 0.63159
 N745 N 0.87385 0.66843 0.63473
 N746 N 0.85808 0.68562 0.65598
 C747 C 0.89174 0.61407 0.60799
 N748 N 0.90683 0.63037 0.58872
 N749 N 0.92114 0.61255 0.56729
 C750 C 0.92075 0.57787 0.56433
 N751 N 0.90572 0.56163 0.58360
 N752 N 0.89148 0.57939 0.60500
 C753 C 0.34038 0.16524 0.69890
 N754 N 0.32269 0.14640 0.71441
 N755 N 0.30575 0.16074 0.73604
 C756 C 0.30561 0.19455 0.74298
 N757 N 0.32361 0.21337 0.72759
 N758 N 0.34089 0.19889 0.70601
 C759 C 0.35683 0.14978 0.67415
 N760 N 0.38074 0.16434 0.66109
 N761 N 0.39506 0.15021 0.63840
 C762 C 0.38561 0.12137 0.62783
 N763 N 0.36160 0.10698 0.64084
 N764 N 0.34759 0.12085 0.66364
 C765 C 0.40129 0.10575 0.60290
 N766 N 0.38614 0.08289 0.58896
 N767 N 0.40062 0.06836 0.56646
 C768 C 0.43097 0.07594 0.55728
 N769 N 0.44615 0.09870 0.57126
 N770 N 0.43147 0.11351 0.59359
 C771 C 0.33862 0.66556 0.19831
 N772 N 0.33936 0.69931 0.20494
 N773 N 0.32211 0.71442 0.22635
 C774 C 0.30393 0.69614 0.24205
 N775 N 0.30379 0.66224 0.23556
 N776 N 0.32069 0.64727 0.21410
 C777 C 0.35525 0.64936 0.17383
 N778 N 0.34589 0.62029 0.16366
 N779 N 0.36011 0.60575 0.14111
 C780 C 0.38448 0.61958 0.12803
 N781 N 0.39404 0.64855 0.13827
 N782 N 0.37950 0.66334 0.16069
 C783 C 0.40034 0.60331 0.10334
 N784 N 0.43073 0.61063 0.09406
 N785 N 0.44546 0.59542 0.07187
 C786 C 0.43013 0.57269 0.05799
 N787 N 0.39959 0.56551 0.06715
 N788 N 0.38506 0.58044 0.08953
   
