data_POSCAR
  _audit_creation_date              2014-09-24
  _audit_creation_method            'ToBaCCo'
  _symmetry_space_group_name_H-M    'P1'
  _symmetry_Int_Tables_number       1
  _symmetry_cell_setting            triclinic
  loop_
  _symmetry_equiv_pos_as_xyz
 x,y,z
_cell_length_a 35.3282
_cell_length_b 35.5877
_cell_length_c 35.5100
_cell_angle_alpha 87.894700
_cell_angle_beta 92.160800
_cell_angle_gamma 92.496000
loop_
  _atom_site_label
  _atom_site_type_symbol
  _atom_site_fract_x
  _atom_site_fract_y
  _atom_site_fract_z
N1 N 0.25211 0.26732 0.24741
 N2 N 0.75881 -0.24593 0.25336
 N3 N 0.74178 0.23013 0.75701
 N4 N 0.24642 -0.25223 0.74428
 N5 N 0.74968 -0.26567 0.75394
 N6 N 0.24095 0.24689 0.74294
 N7 N 0.26059 -0.23421 0.24601
 N8 N 0.74879 0.25355 0.25533
 O9 O 0.21715 0.04093 0.45524
 O10 O 0.21698 -0.03445 0.52883
 O11 O 0.21418 0.03932 0.52791
 O12 O 0.22116 -0.03155 0.45577
 O13 O 0.28354 -0.02652 0.46139
 O14 O 0.27671 0.04391 0.53382
 O15 O 0.27943 -0.02839 0.53496
 O16 O 0.27954 0.04659 0.46050
 Cu17 Cu 0.21109 0.00291 0.49155
 Cu18 Cu 0.28610 0.00935 0.49809
 C19 C 0.24829 0.05670 0.44524
 C20 C 0.24812 -0.04407 0.54456
 C21 C 0.24432 0.05370 0.54303
 C22 C 0.25356 -0.04097 0.44602
 O23 O 0.77822 0.03078 0.54274
 O24 O 0.78362 -0.03831 0.46865
 O25 O 0.77945 0.03449 0.46928
 O26 O 0.78232 -0.04197 0.54193
 O27 O 0.71990 -0.04798 0.53860
 O28 O 0.71702 0.02857 0.46610
 O29 O 0.72120 -0.04435 0.46532
 O30 O 0.71579 0.02485 0.53936
 Cu31 Cu 0.78715 -0.00312 0.50597
 Cu32 Cu 0.71223 -0.01033 0.50199
 C33 C 0.74610 0.03961 0.55380
 C34 C 0.75334 -0.05322 0.45432
 C35 C 0.74773 0.04463 0.45523
 C36 C 0.75161 -0.05808 0.55273
 O37 O 0.45596 0.22238 0.03896
 O38 O 0.52701 0.21304 -0.03299
 O39 O 0.52960 0.21975 0.03987
 O40 O 0.45319 0.21556 -0.03347
 O41 O 0.45931 0.27722 -0.04271
 O42 O 0.53347 0.28161 0.03280
 O43 O 0.53248 0.27486 -0.03996
 O44 O 0.45987 0.28411 0.03041
 Cu45 Cu 0.49102 0.21147 0.00388
 Cu46 Cu 0.49671 0.28566 -0.00560
 C47 C 0.44558 0.25481 0.04686
 C48 C 0.54201 0.24239 -0.04873
 C49 C 0.54446 0.25141 0.04908
 C50 C 0.44349 0.24568 -0.05080
 O51 O 0.54299 0.78342 0.03160
 O52 O 0.46827 0.78007 -0.04346
 O53 O 0.46925 0.78567 0.02986
 O54 O 0.54157 0.77759 -0.04112
 O55 O 0.53569 0.71572 -0.03532
 O56 O 0.46596 0.72390 0.03807
 O57 O 0.46178 0.71839 -0.03452
 O58 O 0.53932 0.72149 0.03777
 Cu59 Cu 0.50592 0.78790 -0.00644
 Cu60 Cu 0.50028 0.71365 0.00212
 C61 C 0.55421 0.75303 0.04733
 C62 C 0.45206 0.74869 -0.05147
 C63 C 0.45545 0.75616 0.04637
 C64 C 0.55086 0.74526 -0.05054
 O65 O 0.04002 0.47530 0.22489
 O66 O -0.03320 0.54591 0.22606
 O67 O 0.04059 0.54844 0.22487
 O68 O -0.03378 0.47248 0.22647
 O69 O -0.03037 0.47072 0.28865
 O70 O 0.04382 0.54638 0.28705
 O71 O -0.02987 0.54379 0.28823
 O72 O 0.04337 0.47350 0.28707
 Cu73 Cu 0.00300 0.51072 0.21932
 Cu74 Cu 0.00704 0.50838 0.29396
 C75 C 0.05439 0.46246 0.25583
 C76 C -0.04406 0.55696 0.25736
 C77 C 0.05505 0.56030 0.25576
 C78 C -0.04482 0.45861 0.25788
 O79 O 0.03535 0.52578 0.77950
 O80 O -0.03941 0.45058 0.78458
 O81 O 0.03419 0.45355 0.78089
 O82 O -0.03839 0.52412 0.78419
 O83 O -0.04469 0.52532 0.72214
 O84 O 0.02756 0.45395 0.71873
 O85 O -0.04564 0.45220 0.72252
 O86 O 0.02868 0.52781 0.71731
 Cu87 Cu -0.00167 0.48842 0.78855
 Cu88 Cu -0.00909 0.49000 0.71392
 C89 C 0.04483 0.53939 0.74751
 C90 C -0.05517 0.43833 0.75441
 C91 C 0.04326 0.44180 0.74930
 C92 C -0.05394 0.53690 0.75380
 C93 C 0.33314 0.26694 0.16083
 C94 C 0.31466 0.23299 0.17360
 C95 C 0.28768 0.23349 0.20154
 C96 C 0.27902 0.26731 0.21771
 C97 C 0.29736 0.30093 0.20511
 C98 C 0.32400 0.30085 0.17701
 C99 C 0.36196 0.26506 0.13101
 C100 C 0.38144 0.29718 0.11575
 C101 C 0.40834 0.29382 0.08835
 C102 C 0.41665 0.25840 0.07550
 C103 C 0.39716 0.22629 0.09027
 C104 C 0.36990 0.22935 0.11762
 C105 C 0.32344 0.19866 0.15875
 C106 C 0.35060 0.19685 0.13152
 H107 H 0.30931 0.17268 0.16857
 H108 H 0.35657 0.16954 0.12116
 H109 H 0.27340 0.20742 0.21090
 H110 H 0.29140 0.32731 0.21744
 H111 H 0.42288 0.31909 0.07739
 H112 H 0.40307 0.19876 0.08037
 H113 H 0.33732 0.32755 0.16871
 H114 H 0.37637 0.32515 0.12452
 C115 C 0.67364 0.75766 0.16461
 C116 C 0.68339 0.72287 0.18220
 C117 C 0.71151 0.72188 0.21120
 C118 C 0.73034 0.75513 0.22307
 C119 C 0.72088 0.78951 0.20544
 C120 C 0.69295 0.79087 0.17662
 C121 C 0.64309 0.75752 0.13406
 C122 C 0.63093 0.79061 0.11513
 C123 C 0.60220 0.78900 0.08707
 C124 C 0.58480 0.75444 0.07702
 C125 C 0.59677 0.72130 0.09565
 C126 C 0.62557 0.72259 0.12400
 C127 C 0.66497 0.68930 0.17088
 C128 C 0.63675 0.68915 0.14237
 H129 H 0.67248 0.66266 0.18429
 H130 H 0.62335 0.66240 0.13468
 H131 H 0.71855 0.69526 0.22495
 H132 H 0.73534 0.81544 0.21399
 H133 H 0.59359 0.81504 0.07320
 H134 H 0.58354 0.69439 0.08822
 H135 H 0.68699 0.81817 0.16422
 H136 H 0.64307 0.81804 0.12156
 C137 C 0.65582 0.23043 -0.16138
 C138 C 0.66902 0.26446 -0.17930
 C139 C 0.69688 0.26401 -0.20637
 C140 C 0.71231 0.23012 -0.21586
 C141 C 0.69919 0.19641 -0.19823
 C142 C 0.67129 0.19645 -0.17137
 C143 C 0.62619 0.23228 -0.13236
 C144 C 0.61093 0.20015 -0.11297
 C145 C 0.58361 0.20347 -0.08598
 C146 C 0.57080 0.23885 -0.07752
 C147 C 0.58568 0.27098 -0.09681
 C148 C 0.61306 0.26797 -0.12405
 C149 C 0.65458 0.29879 -0.16999
 C150 C 0.62728 0.30052 -0.14291
 H151 H 0.66471 0.32482 -0.18373
 H152 H 0.61715 0.32783 -0.13660
 H153 H 0.70673 0.29011 -0.22017
 H154 H 0.71097 0.17000 -0.20499
 H155 H 0.57259 0.17819 -0.07158
 H156 H 0.57593 0.29850 -0.09069
 H157 H 0.66250 0.16967 -0.15865
 H158 H 0.61966 0.17221 -0.11816
 C159 C 0.33129 0.74671 -0.16632
 C160 C 0.33995 0.76238 -0.20232
 C161 C 0.31228 0.76179 -0.23177
 C162 C 0.27512 0.74794 -0.22540
 C163 C 0.26616 0.73446 -0.18901
 C164 C 0.29387 0.73342 -0.15996
 C165 C 0.36213 0.74607 -0.13620
 C166 C 0.35808 0.72634 -0.10132
 C167 C 0.38767 0.72674 -0.07410
 C168 C 0.42150 0.74747 -0.08070
 C169 C 0.42615 0.76671 -0.11545
 C170 C 0.39720 0.76517 -0.14363
 C171 C 0.37583 0.77934 -0.20844
 C172 C 0.40347 0.78166 -0.17941
 H173 H 0.38235 0.79182 -0.23586
 H174 H 0.43049 0.79582 -0.18532
 H175 H 0.31954 0.77251 -0.25965
 H176 H 0.23750 0.72461 -0.18305
 H177 H 0.38389 0.71138 -0.04750
 H178 H 0.45277 0.78193 -0.12088
 H179 H 0.28529 0.72283 -0.13258
 H180 H 0.33258 0.70998 -0.09483
 C181 C 0.17171 0.35290 0.25437
 C182 C 0.17997 0.33876 0.21896
 C183 C 0.20697 0.31115 0.21672
 C184 C 0.22608 0.29734 0.24934
 C185 C 0.21850 0.31202 0.28423
 C186 C 0.19176 0.33941 0.28682
 C187 C 0.14176 0.38140 0.25573
 C188 C 0.13054 0.39619 0.28965
 C189 C 0.10222 0.42233 0.28950
 C190 C 0.08431 0.43457 0.25560
 C191 C 0.09529 0.42004 0.22162
 C192 C 0.12362 0.39352 0.22146
 C193 C 0.16101 0.35198 0.18608
 C194 C 0.13359 0.37889 0.18728
 H195 H 0.16741 0.34128 0.15895
 H196 H 0.11971 0.38814 0.16103
 H197 H 0.21259 0.29973 0.18971
 H198 H 0.23327 0.30197 0.30966
 H199 H 0.09438 0.43304 0.31616
 H200 H 0.08160 0.42916 0.19521
 H201 H 0.18717 0.34942 0.31449
 H202 H 0.14305 0.38788 0.31667
 C203 C 0.16427 0.65577 0.74212
 C204 C 0.15374 0.69240 0.73040
 C205 C 0.18073 0.72257 0.73136
 C206 C 0.21876 0.71654 0.74202
 C207 C 0.22950 0.67967 0.75104
 C208 C 0.20266 0.64974 0.75147
 C209 C 0.13410 0.62490 0.74353
 C210 C 0.14045 0.58906 0.76024
 C211 C 0.11119 0.56145 0.76159
 C212 C 0.07533 0.56863 0.74559
 C213 C 0.06849 0.60411 0.72901
 C214 C 0.09728 0.63265 0.72894
 C215 C 0.11650 0.69855 0.71739
 C216 C 0.08915 0.66909 0.71571
 H217 H 0.10852 0.72647 0.70783
 H218 H 0.06088 0.67519 0.70493
 H219 H 0.17213 0.75084 0.72396
 H220 H 0.25883 0.67410 0.75822
 H221 H 0.11662 0.53423 0.77490
 H222 H 0.04037 0.60985 0.71752
 H223 H 0.21258 0.62207 0.75878
 H224 H 0.16749 0.58213 0.77317
 C225 C -0.15879 0.66922 0.25906
 C226 C -0.16995 0.68620 0.22393
 C227 C -0.19701 0.71403 0.22227
 C228 C -0.21356 0.72519 0.25515
 C229 C -0.20285 0.70798 0.28984
 C230 C -0.17584 0.68044 0.29188
 C231 C -0.12934 0.64003 0.25966
 C232 C -0.11555 0.62218 0.29320
 C233 C -0.08798 0.59534 0.29229
 C234 C -0.07342 0.58540 0.25798
 C235 C -0.08697 0.60300 0.22440
 C236 C -0.11454 0.63024 0.22500
 C237 C -0.15408 0.67534 0.19067
 C238 C -0.12711 0.64786 0.19118
 H239 H -0.16270 0.68826 0.16376
 H240 H -0.11576 0.64043 0.16464
 H241 H -0.20506 0.72735 0.19538
 H242 H -0.21562 0.71583 0.31550
 H243 H -0.07807 0.58226 0.31866
 H244 H -0.07584 0.59573 0.19770
 H245 H -0.16887 0.66828 0.31939
 H246 H -0.12548 0.62860 0.32047
 C247 C -0.17083 0.31706 0.76019
 C248 C -0.18814 0.30631 0.72536
 C249 C -0.21663 0.27757 0.72452
 C250 C -0.22822 0.25906 0.75793
 C251 C -0.21083 0.26943 0.79234
 C252 C -0.18253 0.29802 0.79357
 C253 C -0.14089 0.34830 0.75987
 C254 C -0.12235 0.36159 0.79295
 C255 C -0.09471 0.39081 0.79111
 C256 C -0.08474 0.40757 0.75631
 C257 C -0.10309 0.39458 0.72321
 C258 C -0.13099 0.36531 0.72473
 C259 C -0.17705 0.32434 0.69160
 C260 C -0.14903 0.35313 0.69128
 H261 H -0.19025 0.31607 0.66495
 H262 H -0.14146 0.36616 0.66438
 H263 H -0.23023 0.26982 0.69788
 H264 H -0.21924 0.25524 0.81840
 H265 H -0.08104 0.40024 0.81711
 H266 H -0.09573 0.40731 0.69611
 H267 H -0.17027 0.30470 0.82089
 H268 H -0.12876 0.34992 0.82054
 C269 C 0.24669 0.17701 0.32999
 C270 C 0.28214 0.19386 0.32002
 C271 C 0.28375 0.22345 0.29276
 C272 C 0.25045 0.23664 0.27515
 C273 C 0.21542 0.21987 0.28493
 C274 C 0.21345 0.19046 0.31194
 C275 C 0.24617 0.14569 0.35943
 C276 C 0.21241 0.12719 0.37136
 C277 C 0.21334 0.09839 0.39903
 C278 C 0.24788 0.08713 0.41564
 C279 C 0.28173 0.10526 0.40388
 C280 C 0.28112 0.13434 0.37601
 C281 C 0.31572 0.18123 0.33741
 C282 C 0.31522 0.15213 0.36479
 H283 H 0.34286 0.19411 0.32977
 H284 H 0.34200 0.14345 0.37743
 H285 H 0.31086 0.23657 0.28539
 H286 H 0.18946 0.22954 0.27139
 H287 H 0.18675 0.08493 0.40749
 H288 H 0.30862 0.09683 0.41646
 H289 H 0.18564 0.17879 0.31820
 H290 H 0.18494 0.13448 0.35982
 C291 C 0.73903 0.14845 0.67136
 C292 C 0.77385 0.16031 0.68912
 C293 C 0.77444 0.18673 0.71756
 C294 C 0.74081 0.20210 0.72848
 C295 C 0.70635 0.19041 0.71080
 C296 C 0.70537 0.16392 0.68270
 C297 C 0.73970 0.12021 0.64103
 C298 C 0.70664 0.10607 0.62203
 C299 C 0.70882 0.07995 0.59387
 C300 C 0.74396 0.06725 0.58377
 C301 C 0.77705 0.08105 0.60264
 C302 C 0.77518 0.10716 0.63114
 C303 C 0.80793 0.14600 0.67825
 C304 C 0.80859 0.12013 0.64979
 H305 H 0.83458 0.15513 0.69182
 H306 H 0.83574 0.11007 0.64231
 H307 H 0.80114 0.19549 0.73127
 H308 H 0.68011 0.20224 0.71848
 H309 H 0.68281 0.06976 0.57985
 H310 H 0.80439 0.07132 0.59528
 H311 H 0.67803 0.15626 0.67006
 H312 H 0.67880 0.11469 0.62846
 C313 C 0.24619 -0.16076 0.66243
 C314 C 0.23457 -0.19755 0.65184
 C315 C 0.23529 -0.22754 0.67865
 C316 C 0.24537 -0.22122 0.71664
 C317 C 0.25443 -0.18422 0.72739
 C318 C 0.25529 -0.15445 0.70069
 C319 C 0.24738 -0.12997 0.63253
 C320 C 0.26382 -0.09384 0.63894
 C321 C 0.26443 -0.06614 0.61004
 C322 C 0.24793 -0.07358 0.57452
 C323 C 0.23186 -0.10943 0.56757
 C324 C 0.23255 -0.13799 0.59595
 C325 C 0.22164 -0.20400 0.61475
 C326 C 0.21964 -0.17465 0.58769
 H327 H 0.21219 -0.23206 0.60671
 H328 H 0.20874 -0.18095 0.55958
 H329 H 0.22786 -0.25588 0.67000
 H330 H 0.26112 -0.17835 0.75665
 H331 H 0.27733 -0.03862 0.61556
 H332 H 0.21997 -0.11535 0.53970
 H333 H 0.26252 -0.12667 0.71061
 H334 H 0.27697 -0.08670 0.66580
 C335 C 0.76085 -0.16354 0.33822
 C336 C 0.72604 -0.18054 0.32516
 C337 C 0.72563 -0.20761 0.29736
 C338 C 0.75946 -0.21809 0.28203
 C339 C 0.79389 -0.20115 0.29483
 C340 C 0.79469 -0.17427 0.32254
 C341 C 0.76002 -0.13487 0.36812
 C342 C 0.79303 -0.11660 0.38333
 C343 C 0.79074 -0.09018 0.41119
 C344 C 0.75554 -0.08119 0.42466
 C345 C 0.72248 -0.09922 0.40967
 C346 C 0.72446 -0.12591 0.38172
 C347 C 0.69185 -0.17045 0.33987
 C348 C 0.69107 -0.14368 0.36747
 H349 H 0.66521 -0.18343 0.32984
 H350 H 0.66385 -0.13685 0.37790
 H351 H 0.69896 -0.22083 0.28771
 H352 H 0.82027 -0.20863 0.28307
 H353 H 0.81672 -0.07675 0.42221
 H354 H 0.69509 -0.09261 0.41987
 H355 H 0.82204 -0.16223 0.33114
 H356 H 0.82092 -0.12228 0.37423
 C357 C 0.66463 0.73444 -0.16343
 C358 C 0.68306 0.76855 -0.17587
 C359 C 0.71107 0.76823 -0.20282
 C360 C 0.72098 0.73438 -0.21810
 C361 C 0.70257 0.70065 -0.20597
 C362 C 0.67481 0.70056 -0.17898
 C363 C 0.63505 0.73605 -0.13434
 C364 C 0.61554 0.70375 -0.11948
 C365 C 0.58830 0.70681 -0.09237
 C366 C 0.57966 0.74208 -0.07939
 C367 C 0.59895 0.77440 -0.09400
 C368 C 0.62652 0.77166 -0.12109
 C369 C 0.67341 0.80281 -0.16145
 C370 C 0.64566 0.80434 -0.13477
 H371 H 0.68748 0.82891 -0.17104
 H372 H 0.63918 0.83159 -0.12459
 H373 H 0.72541 0.79437 -0.21189
 H374 H 0.70954 0.67426 -0.21769
 H375 H 0.57390 0.68139 -0.08158
 H376 H 0.59270 0.80184 -0.08410
 H377 H 0.66161 0.67374 -0.17089
 H378 H 0.62092 0.67587 -0.12827
 C379 C 0.32500 0.24229 -0.16807
 C380 C 0.33244 0.26283 -0.20211
 C381 C 0.30506 0.26309 -0.23178
 C382 C 0.26950 0.24503 -0.22718
 C383 C 0.26142 0.22607 -0.19306
 C384 C 0.28896 0.22430 -0.16387
 C385 C 0.35542 0.24176 -0.13752
 C386 C 0.35281 0.21856 -0.10460
 C387 C 0.38177 0.21947 -0.07673
 C388 C 0.41354 0.24404 -0.08070
 C389 C 0.41680 0.26676 -0.11357
 C390 C 0.38853 0.26504 -0.14239
 C391 C 0.36658 0.28391 -0.20585
 C392 C 0.39361 0.28575 -0.17626
 H393 H 0.37208 0.29998 -0.23173
 H394 H 0.41919 0.30315 -0.18022
 H395 H 0.31070 0.27837 -0.25809
 H396 H 0.23375 0.21245 -0.18928
 H397 H 0.37904 0.20142 -0.05166
 H398 H 0.44187 0.28507 -0.11709
 H399 H 0.28125 0.20947 -0.13806
 H400 H 0.32892 0.19920 -0.10010
 C401 C 0.34321 0.76634 0.16092
 C402 C 0.33136 0.73224 0.17961
 C403 C 0.30440 0.73235 0.20762
 C404 C 0.28858 0.76598 0.21734
 C405 C 0.30020 0.79972 0.19875
 C406 C 0.32716 0.80001 0.17094
 C407 C 0.37222 0.76493 0.13122
 C408 C 0.38630 0.79721 0.11122
 C409 C 0.41328 0.79432 0.08380
 C410 C 0.42691 0.75923 0.07551
 C411 C 0.41311 0.72695 0.09533
 C412 C 0.38611 0.72952 0.12301
 C413 C 0.34639 0.69819 0.17025
 C414 C 0.37309 0.69685 0.14251
 H415 H 0.33729 0.67210 0.18454
 H416 H 0.38377 0.66976 0.13625
 H417 H 0.29576 0.70621 0.22211
 H418 H 0.28809 0.82594 0.20560
 H419 H 0.42343 0.81972 0.06899
 H420 H 0.42346 0.69965 0.08932
 H421 H 0.33485 0.82681 0.15761
 H422 H 0.37696 0.82495 0.11630
 C423 C 0.66279 0.25706 0.16731
 C424 C 0.67806 0.22240 0.17969
 C425 C 0.70660 0.22155 0.20826
 C426 C 0.71997 0.25473 0.22535
 C427 C 0.70460 0.28898 0.21329
 C428 C 0.67649 0.29025 0.18463
 C429 C 0.63244 0.25673 0.13659
 C430 C 0.61615 0.28973 0.12149
 C431 C 0.58779 0.28789 0.09307
 C432 C 0.57476 0.25316 0.07901
 C433 C 0.59096 0.22014 0.09368
 C434 C 0.61972 0.22168 0.12205
 C435 C 0.66457 0.18876 0.16375
 C436 C 0.63587 0.18838 0.13573
 H437 H 0.67619 0.16223 0.17329
 H438 H 0.62625 0.16156 0.12450
 H439 H 0.71850 0.19501 0.21736
 H440 H 0.71418 0.31486 0.22643
 H441 H 0.57588 0.31383 0.08223
 H442 H 0.58137 0.19313 0.08284
 H443 H 0.66570 0.31741 0.17678
 H444 H 0.62492 0.31726 0.13108
 C445 C -0.16765 0.64985 0.75841
 C446 C -0.18470 0.66170 0.72349
 C447 C -0.21207 0.68917 0.72232
 C448 C -0.22277 0.70542 0.75548
 C449 C -0.20593 0.69367 0.79005
 C450 C -0.17878 0.66624 0.79161
 C451 C -0.13835 0.62056 0.75836
 C452 C -0.11979 0.60672 0.79153
 C453 C -0.09255 0.57960 0.78994
 C454 C -0.08301 0.56552 0.75531
 C455 C -0.10143 0.57903 0.72212
 C456 C -0.12891 0.60625 0.72339
 C457 C -0.17423 0.64624 0.68991
 C458 C -0.14690 0.61917 0.68986
 H459 H -0.18728 0.65532 0.66319
 H460 H -0.13973 0.60818 0.66309
 H461 H -0.22521 0.69802 0.69556
 H462 H -0.21354 0.70615 0.81592
 H463 H -0.07885 0.56969 0.81601
 H464 H -0.09441 0.56835 0.69516
 H465 H -0.16677 0.65853 0.81901
 H466 H -0.12581 0.61639 0.81900
 C467 C -0.16340 0.34005 0.26064
 C468 C -0.17520 0.32474 0.22565
 C469 C -0.20381 0.29613 0.22417
 C470 C -0.22139 0.28265 0.25707
 C471 C -0.20987 0.29802 0.29165
 C472 C -0.18126 0.32626 0.29352
 C473 C -0.13264 0.37048 0.26099
 C474 C -0.11829 0.38698 0.29437
 C475 C -0.08979 0.41537 0.29319
 C476 C -0.07482 0.42821 0.25878
 C477 C -0.08875 0.41183 0.22538
 C478 C -0.11729 0.38307 0.22625
 C479 C -0.15857 0.33819 0.19232
 C480 C -0.13038 0.36684 0.19259
 H481 H -0.16764 0.32651 0.16553
 H482 H -0.11857 0.37638 0.16600
 H483 H -0.21249 0.28420 0.19739
 H484 H -0.22338 0.28831 0.31731
 H485 H -0.07957 0.42743 0.31943
 H486 H -0.07728 0.42132 0.19861
 H487 H -0.17382 0.33701 0.32093
 H488 H -0.12855 0.37840 0.32169
 C489 C 0.15906 0.33190 0.74719
 C490 C 0.14908 0.29723 0.73045
 C491 C 0.17561 0.26892 0.73023
 C492 C 0.21306 0.27553 0.74404
 C493 C 0.22299 0.31057 0.75948
 C494 C 0.19646 0.33824 0.76125
 C495 C 0.12961 0.36080 0.74834
 C496 C 0.13518 0.39391 0.76880
 C497 C 0.10686 0.41998 0.76908
 C498 C 0.07278 0.41410 0.74838
 C499 C 0.06663 0.38117 0.72818
 C500 C 0.09436 0.35396 0.72897
 C501 C 0.11306 0.29145 0.71321
 C502 C 0.08666 0.31960 0.71159
 H503 H 0.10548 0.26508 0.69995
 H504 H 0.05949 0.31406 0.69722
 H505 H 0.16718 0.24186 0.71886
 H506 H 0.25157 0.31690 0.77007
 H507 H 0.11173 0.44512 0.78521
 H508 H 0.03975 0.37618 0.71303
 H509 H 0.20606 0.36466 0.77299
 H510 H 0.16083 0.39984 0.78534
 C511 C 0.17484 0.67761 0.25397
 C512 C 0.18438 0.69382 0.21836
 C513 C 0.21273 0.72263 0.21591
 C514 C 0.23202 0.73556 0.24849
 C515 C 0.22294 0.71911 0.28363
 C516 C 0.19476 0.69056 0.28645
 C517 C 0.14396 0.64735 0.25544
 C518 C 0.13177 0.63008 0.28948
 C519 C 0.10291 0.60206 0.28939
 C520 C 0.08537 0.59038 0.25545
 C521 C 0.09719 0.60750 0.22136
 C522 C 0.12613 0.63586 0.22112
 C523 C 0.16554 0.68126 0.18547
 C524 C 0.13716 0.65281 0.18680
 H525 H 0.17289 0.69359 0.15821
 H526 H 0.12350 0.64406 0.16052
 H527 H 0.21960 0.73539 0.18869
 H528 H 0.23784 0.72843 0.30905
 H529 H 0.09439 0.58941 0.31613
 H530 H 0.08379 0.59883 0.19492
 H531 H 0.18914 0.67910 0.31429
 H532 H 0.14401 0.63777 0.31652
 C533 C 0.75491 -0.17800 0.66842
 C534 C 0.71961 -0.19529 0.67826
 C535 C 0.71815 -0.22422 0.70619
 C536 C 0.75141 -0.23624 0.72483
 C537 C 0.78633 -0.21913 0.71509
 C538 C 0.78817 -0.19044 0.68727
 C539 C 0.75519 -0.14711 0.63849
 C540 C 0.78875 -0.12820 0.62651
 C541 C 0.78747 -0.09948 0.59869
 C542 C 0.75277 -0.08877 0.58203
 C543 C 0.71918 -0.10753 0.59365
 C544 C 0.72014 -0.13649 0.62158
 C545 C 0.68597 -0.18356 0.66029
 C546 C 0.68622 -0.15477 0.63262
 H547 H 0.65895 -0.19679 0.66783
 H548 H 0.65938 -0.14668 0.61965
 H549 H 0.69111 -0.23757 0.71348
 H550 H 0.81229 -0.22782 0.72940
 H551 H 0.81385 -0.08555 0.59028
 H552 H 0.69216 -0.09960 0.58097
 H553 H 0.81586 -0.17834 0.68116
 H554 H 0.81630 -0.13507 0.63820
 C555 C 0.26261 -0.15006 0.32902
 C556 C 0.22791 -0.16269 0.31153
 C557 C 0.22765 -0.18964 0.28368
 C558 C 0.26147 -0.20479 0.27304
 C559 C 0.29587 -0.19202 0.29003
 C560 C 0.29654 -0.16497 0.31761
 C561 C 0.26149 -0.12173 0.35921
 C562 C 0.29430 -0.10734 0.37847
 C563 C 0.29166 -0.08123 0.40659
 C564 C 0.25629 -0.06881 0.41634
 C565 C 0.22348 -0.08291 0.39727
 C566 C 0.22580 -0.10906 0.36890
 C567 C 0.19361 -0.14872 0.32219
 C568 C 0.19257 -0.12254 0.35029
 H569 H 0.16707 -0.15839 0.30876
 H570 H 0.16526 -0.11276 0.35763
 H571 H 0.20101 -0.19926 0.27039
 H572 H 0.32225 -0.20360 0.28241
 H573 H 0.31747 -0.07079 0.42079
 H574 H 0.19596 -0.07344 0.40439
 H575 H 0.32383 -0.15651 0.32986
 H576 H 0.32227 -0.11581 0.37232
 C577 C 0.74409 0.16532 0.34037
 C578 C 0.77923 0.17793 0.32548
 C579 C 0.78052 0.20676 0.29742
 C580 C 0.74727 0.22375 0.28410
 C581 C 0.71257 0.21156 0.29920
 C582 C 0.71088 0.18272 0.32687
 C583 C 0.74392 0.13415 0.37001
 C584 C 0.71042 0.11880 0.38585
 C585 C 0.71178 0.08980 0.41336
 C586 C 0.74652 0.07536 0.42598
 C587 C 0.78006 0.09037 0.41031
 C588 C 0.77900 0.11935 0.38240
 C589 C 0.81289 0.16185 0.33874
 C590 C 0.81280 0.13335 0.36673
 H591 H 0.83979 0.17157 0.32742
 H592 H 0.83964 0.12196 0.37613
 H593 H 0.80741 0.21600 0.28575
 H594 H 0.68665 0.22464 0.28964
 H595 H 0.68545 0.07873 0.42490
 H596 H 0.80709 0.07930 0.41961
 H597 H 0.68336 0.17470 0.33741
 H598 H 0.68284 0.12860 0.37734
 C599 C 0.24074 0.16754 0.65489
 C600 C 0.25731 0.15886 0.69084
 C601 C 0.25662 0.18472 0.71964
 C602 C 0.24128 0.22030 0.71293
 C603 C 0.22767 0.22984 0.67625
 C604 C 0.22678 0.20368 0.64779
 C605 C 0.24010 0.13825 0.62560
 C606 C 0.21951 0.14175 0.59094
 C607 C 0.22013 0.11369 0.56446
 C608 C 0.24192 0.08213 0.57166
 C609 C 0.26187 0.07794 0.60625
 C610 C 0.26017 0.10515 0.63367
 C611 C 0.27523 0.12480 0.69763
 C612 C 0.27758 0.09899 0.66930
 H613 H 0.28842 0.11835 0.72503
 H614 H 0.29249 0.07342 0.67568
 H615 H 0.26831 0.17704 0.74733
 H616 H 0.21766 0.25767 0.66947
 H617 H 0.20428 0.11703 0.53791
 H618 H 0.27797 0.05298 0.61209
 H619 H 0.21583 0.21249 0.62024
 H620 H 0.20243 0.16563 0.58406
   
