data_POSCAR
  _audit_creation_date              2014-09-24
  _audit_creation_method            'ToBaCCo'
  _symmetry_space_group_name_H-M    'P1'
  _symmetry_Int_Tables_number       1
  _symmetry_cell_setting            triclinic
  loop_
  _symmetry_equiv_pos_as_xyz
 x,y,z
_cell_length_a 33.0849
_cell_length_b 32.7843
_cell_length_c 30.5050
_cell_angle_alpha 90.046900
_cell_angle_beta 89.906200
_cell_angle_gamma 118.093600
loop_
  _atom_site_label
  _atom_site_type_symbol
  _atom_site_fract_x
  _atom_site_fract_y
  _atom_site_fract_z
O1 O 0.00122 0.53076 -0.05520
 O2 O 0.05019 0.47210 0.01340
 O3 O -0.00342 0.44932 -0.05504
 O4 O 0.05740 0.55432 0.01166
 O5 O -0.00275 0.53140 0.05514
 O6 O -0.06312 0.42546 -0.01099
 O7 O -0.00865 0.45004 0.05859
 O8 O -0.05866 0.50565 -0.01106
 Cu9 Cu 0.03229 0.50399 -0.02576
 Cu10 Cu -0.03922 0.47544 0.02746
 C11 C -0.03765 0.52729 -0.04525
 C12 C 0.02964 0.45243 0.04854
 C13 C -0.04420 0.41992 -0.04523
 C14 C 0.03803 0.56066 0.04503
 O15 O 0.57328 0.51145 -0.01269
 O16 O 0.47195 0.47082 0.05816
 O17 O 0.49264 0.43687 -0.01088
 O18 O 0.54958 0.54393 0.05530
 O19 O 0.51607 0.57487 0.01456
 O20 O 0.47452 0.47529 -0.05943
 O21 O 0.43984 0.49742 0.01050
 O22 O 0.54827 0.55134 -0.05217
 Cu23 Cu 0.52478 0.48709 0.02657
 Cu24 Cu 0.49106 0.52761 -0.02592
 C25 C 0.57874 0.53923 -0.04391
 C26 C 0.43872 0.47739 0.04651
 C27 C 0.47628 0.43894 -0.04804
 C28 C 0.54088 0.57703 0.04709
 O29 O 0.53685 0.99649 -0.05481
 O30 O 0.42853 0.93732 0.00673
 O31 O 0.45933 0.99548 -0.06118
 O32 O 0.50788 0.94039 0.01116
 O33 O 0.53431 1.00136 0.05460
 O34 O 0.47588 1.05116 -0.01287
 O35 O 0.45326 0.99528 0.05371
 O36 O 0.55772 1.05782 -0.01258
 Cu37 Cu 0.48027 0.96131 -0.02903
 Cu38 Cu 0.50771 1.03242 0.02521
 C39 C 0.56522 1.03788 -0.04498
 C40 C 0.42319 0.95534 0.04173
 C41 C 0.45969 1.03296 -0.04984
 C42 C 0.52986 0.96169 0.04509
 O43 O 1.05662 0.55561 0.48572
 O44 O 0.99337 0.45127 0.55276
 O45 O 1.04847 0.47234 0.48611
 O46 O 0.99970 0.53307 0.55234
 O47 O 0.93960 0.50642 0.50858
 O48 O 0.99369 0.45582 0.43748
 O49 O 0.93616 0.42626 0.50561
 O50 O 0.99625 0.53488 0.44311
 Cu51 Cu 1.03050 0.50556 0.52372
 Cu52 Cu 0.96043 0.47800 0.46912
 C53 C 1.03735 0.56319 0.45300
 C54 C 0.95371 0.42110 0.54089
 C55 C 1.03052 0.45578 0.44916
 C56 C 0.96050 0.52868 0.54253
 O57 O 0.43777 0.50056 0.49003
 O58 O 0.54293 0.54896 0.55758
 O59 O 0.51460 0.57687 0.49016
 O60 O 0.46565 0.47388 0.56020
 O61 O 0.49071 0.43843 0.51451
 O62 O 0.54780 0.54574 0.44905
 O63 O 0.57021 0.51213 0.51642
 O64 O 0.47001 0.47197 0.44446
 Cu65 Cu 0.48701 0.52816 0.52885
 Cu66 Cu 0.52243 0.48844 0.47684
 C67 C 0.43716 0.47986 0.45458
 C68 C 0.57414 0.53792 0.54895
 C69 C 0.53983 0.57921 0.45786
 C70 C 0.47015 0.43883 0.54963
 O71 O 0.55451 0.05690 0.51384
 O72 O 0.45198 -0.00448 0.44525
 O73 O 0.47317 0.04981 0.51384
 O74 O 0.53333 0.00137 0.44666
 O75 O 0.50563 -0.06046 0.48888
 O76 O 0.45190 -0.00901 0.55955
 O77 O 0.42635 -0.06406 0.49036
 O78 O 0.53176 -0.00468 0.55604
 Cu79 Cu 0.50558 0.03188 0.47540
 Cu80 Cu 0.47622 -0.04060 0.52816
 C81 C 0.56066 0.03675 0.54673
 C82 C 0.42192 -0.04502 0.45571
 C83 C 0.45394 0.02940 0.54919
 C84 C 0.52877 -0.03850 0.45563
 C85 C 0.07644 0.37019 0.27284
 C86 C 0.07603 0.36913 0.22775
 C87 C 0.12121 0.39425 0.21435
 N88 N 0.14909 0.41039 0.24947
 C89 C 0.12183 0.39649 0.28525
 C90 C 0.13615 0.40879 0.17110
 C91 C 0.18245 0.42431 0.15922
 C92 C 0.20449 0.45119 0.12295
 C93 C 0.24832 0.45644 0.12273
 C94 C 0.25187 0.43290 0.15901
 N95 N 0.21168 0.41353 0.18108
 C96 C 0.29075 0.42815 0.17063
 C97 C 0.29696 0.41739 0.21411
 C98 C 0.32836 0.40320 0.22753
 C99 C 0.32866 0.40433 0.27260
 C100 C 0.29755 0.41935 0.28504
 N101 N 0.27781 0.42669 0.24928
 C102 C 0.29195 0.43245 0.32784
 C103 C 0.25384 0.43904 0.33832
 C104 C 0.25171 0.46597 0.37236
 C105 C 0.20810 0.46130 0.37201
 C106 C 0.18463 0.43104 0.33816
 N107 N 0.21304 0.41818 0.31749
 C108 C 0.13768 0.41394 0.32770
 H109 H 0.04665 0.35506 0.29398
 H110 H 0.04594 0.35321 0.20713
 H111 H 0.20385 0.39307 0.29306
 H112 H 0.19083 0.46606 0.09934
 H113 H 0.27468 0.47597 0.09892
 H114 H 0.34978 0.39436 0.20698
 H115 H 0.35033 0.39647 0.29371
 H116 H 0.19552 0.47868 0.39399
 H117 H 0.20345 0.39090 0.20760
 H118 H 0.27888 0.48727 0.39471
 C119 C 0.56422 0.66387 0.27563
 C120 C 0.56394 0.66331 0.23068
 C121 C 0.58461 0.70908 0.21721
 N122 N 0.59771 0.73753 0.25235
 C123 C 0.58510 0.70996 0.28810
 C124 C 0.59191 0.72429 0.17322
 C125 C 0.60272 0.77004 0.16169
 C126 C 0.61924 0.79032 0.12121
 C127 C 0.61767 0.83158 0.12094
 C128 C 0.60014 0.83518 0.16124
 N129 N 0.59182 0.79791 0.18605
 C130 C 0.58614 0.86850 0.17222
 C131 C 0.57711 0.87588 0.21595
 C132 C 0.55268 0.89856 0.22866
 C133 C 0.55262 0.89884 0.27362
 C134 C 0.57723 0.87654 0.28686
 N135 N 0.59221 0.86259 0.25154
 C136 C 0.58669 0.87013 0.33074
 C137 C 0.60134 0.83733 0.34191
 C138 C 0.62011 0.83492 0.38184
 C139 C 0.62174 0.79368 0.38217
 C140 C 0.60419 0.77231 0.34235
 N141 N 0.59252 0.79943 0.31781
 C142 C 0.59311 0.72628 0.33175
 H143 H 0.54978 0.63369 0.29658
 H144 H 0.54925 0.63264 0.21038
 H145 H 0.57271 0.78911 0.28951
 H146 H 0.62957 0.77597 0.09410
 H147 H 0.62654 0.85526 0.09358
 H148 H 0.53577 0.91255 0.20783
 H149 H 0.53552 0.91302 0.29404
 H150 H 0.63282 0.78009 0.40927
 H151 H 0.57281 0.78848 0.21491
 H152 H 0.62973 0.85936 0.40864
 C153 C 0.10967 0.64440 0.27170
 C154 C 0.10965 0.64399 0.22673
 C155 C 0.13470 0.68962 0.21340
 N156 N 0.14992 0.71784 0.24863
 C157 C 0.13476 0.69025 0.28431
 C158 C 0.14172 0.70495 0.16942
 C159 C 0.17501 0.75002 0.15745
 C160 C 0.17751 0.77046 0.11706
 C161 C 0.21768 0.81158 0.11679
 C162 C 0.23855 0.81501 0.15700
 N163 N 0.21212 0.77757 0.18169
 C164 C 0.28306 0.84942 0.16838
 C165 C 0.29873 0.85725 0.21225
 C166 C 0.34399 0.88336 0.22508
 C167 C 0.34409 0.88366 0.27008
 C168 C 0.29890 0.85774 0.28326
 N169 N 0.27123 0.84174 0.24786
 C170 C 0.28341 0.85044 0.32723
 C171 C 0.23882 0.81644 0.33895
 C172 C 0.21809 0.81370 0.37918
 C173 C 0.17787 0.77264 0.37946
 C174 C 0.17521 0.75157 0.33937
 N175 N 0.21225 0.77866 0.31477
 C176 C 0.14187 0.70635 0.32803
 H177 H 0.09344 0.61429 0.29262
 H178 H 0.09342 0.61350 0.20630
 H179 H 0.22207 0.76881 0.28592
 H180 H 0.15348 0.75663 0.09020
 H181 H 0.23064 0.83562 0.08966
 H182 H 0.37393 0.90003 0.20429
 H183 H 0.37413 0.90060 0.29063
 H184 H 0.15393 0.75924 0.40650
 H185 H 0.22203 0.76824 0.21073
 H186 H 0.23119 0.83813 0.40599
 C187 C 0.66251 0.55790 0.77539
 C188 C 0.66163 0.55744 0.73045
 C189 C 0.70687 0.57792 0.71661
 N190 N 0.73533 0.59101 0.75152
 C191 C 0.70826 0.57861 0.78749
 C192 C 0.72156 0.58540 0.67248
 C193 C 0.76685 0.59665 0.66027
 C194 C 0.78633 0.61337 0.61959
 C195 C 0.82786 0.61311 0.61894
 C196 C 0.83243 0.59614 0.65923
 N197 N 0.79541 0.58679 0.68436
 C198 C 0.86675 0.58372 0.66994
 C199 C 0.87511 0.57547 0.71362
 C200 C 0.89963 0.55282 0.72602
 C201 C 0.90031 0.55293 0.77096
 C202 C 0.87622 0.57568 0.78452
 N203 N 0.86097 0.58958 0.74942
 C204 C 0.86913 0.58412 0.82856
 C205 C 0.83556 0.59723 0.84044
 C206 C 0.83241 0.61476 0.88096
 C207 C 0.79105 0.61534 0.88174
 C208 C 0.77024 0.59824 0.84165
 N209 N 0.79784 0.58788 0.81652
 C210 C 0.72463 0.58693 0.83104
 H211 H 0.63278 0.54384 0.79662
 H212 H 0.63108 0.54294 0.71040
 H213 H 0.78822 0.56859 0.78776
 H214 H 0.77144 0.62318 0.59267
 H215 H 0.85119 0.62261 0.59139
 H216 H 0.91465 0.53694 0.70502
 H217 H 0.91595 0.53713 0.79118
 H218 H 0.77709 0.62550 0.90924
 H219 H 0.78687 0.56793 0.71338
 H220 H 0.85656 0.62434 0.90777
 C221 C 0.38650 0.31914 0.72938
 C222 C 0.38855 0.31977 0.77447
 C223 C 0.40947 0.29333 0.78619
 N224 N 0.41880 0.27546 0.75002
 C225 C 0.40541 0.29164 0.71533
 C226 C 0.42631 0.29093 0.82821
 C227 C 0.43675 0.25462 0.83747
 C228 C 0.46730 0.25516 0.86883
 C229 C 0.46439 0.21180 0.86868
 C230 C 0.43215 0.18608 0.83722
 N231 N 0.41610 0.21268 0.81795
 C232 C 0.41619 0.13869 0.82764
 C233 C 0.39793 0.12158 0.78572
 C234 C 0.37288 0.07546 0.77385
 C235 C 0.37073 0.07446 0.72877
 C236 C 0.39386 0.12002 0.71490
 N237 N 0.40983 0.14866 0.74969
 C238 C 0.40711 0.13499 0.67143
 C239 C 0.42000 0.18119 0.65950
 C240 C 0.44616 0.20450 0.62334
 C241 C 0.44898 0.24781 0.62341
 C242 C 0.42452 0.24967 0.65964
 N243 N 0.40718 0.20905 0.68147
 C244 C 0.41709 0.28725 0.67171
 H245 H 0.37390 0.33784 0.70919
 H246 H 0.37755 0.33891 0.79598
 H247 H 0.38470 0.19958 0.70808
 H248 H 0.48976 0.28382 0.88936
 H249 H 0.48418 0.20080 0.88909
 H250 H 0.35932 0.04563 0.79525
 H251 H 0.35545 0.04381 0.70845
 H252 H 0.46760 0.27494 0.59986
 H253 H 0.38915 0.20141 0.79552
 H254 H 0.46225 0.19209 0.59973
 C255 C 0.64435 0.10839 0.72912
 C256 C 0.64527 0.10860 0.77408
 C257 C 0.69090 0.13349 0.78615
 N258 N 0.71785 0.14834 0.75017
 C259 C 0.68945 0.13315 0.71527
 C260 C 0.70742 0.14060 0.82964
 C261 C 0.75261 0.17367 0.84035
 C262 C 0.77419 0.17573 0.87981
 C263 C 0.81519 0.21599 0.87916
 C264 C 0.81726 0.23746 0.83943
 N265 N 0.77924 0.21114 0.81579
 C266 C 0.85082 0.28256 0.82777
 C267 C 0.85717 0.29823 0.78381
 C268 C 0.88219 0.34387 0.77049
 C269 C 0.88147 0.34361 0.72548
 C270 C 0.85586 0.29786 0.71279
 N271 N 0.84114 0.27019 0.74848
 C272 C 0.84784 0.28185 0.66898
 C273 C 0.81354 0.23696 0.65786
 C274 C 0.80970 0.21561 0.61769
 C275 C 0.76877 0.17527 0.61828
 C276 C 0.74887 0.17314 0.65882
 N277 N 0.77656 0.21063 0.68285
 C278 C 0.70418 0.13996 0.67114
 H279 H 0.61388 0.09224 0.70903
 H280 H 0.61566 0.09261 0.79536
 H281 H 0.76765 0.22091 0.71198
 H282 H 0.76121 0.15135 0.90667
 H283 H 0.84000 0.22868 0.90548
 H284 H 0.89884 0.37431 0.79093
 H285 H 0.89750 0.37375 0.70457
 H286 H 0.75469 0.15089 0.59152
 H287 H 0.76901 0.22144 0.78750
 H288 H 0.83334 0.22837 0.59037
 C289 C 0.05264 0.44626 0.12434
 C290 C 0.05210 0.43548 0.07981
 C291 C 0.07656 0.41270 0.06558
 C292 C 0.10171 0.40137 0.09561
 C293 C 0.10444 0.41457 0.13988
 C294 C 0.07916 0.43670 0.15390
 H295 H 0.03457 0.46450 0.13587
 H296 H 0.07657 0.40417 0.03128
 H297 H 0.12047 0.38389 0.08400
 H298 H 0.08115 0.44810 0.18753
 C299 C 0.59212 0.62581 0.10773
 C300 C 0.55799 0.61764 0.07645
 C301 C 0.53809 0.64720 0.07504
 C302 C 0.55039 0.68276 0.10556
 C303 C 0.58336 0.69001 0.13773
 C304 C 0.60500 0.66201 0.13788
 H305 H 0.60821 0.60374 0.10941
 H306 H 0.51159 0.64171 0.05143
 H307 H 0.53299 0.70367 0.10505
 H308 H 0.63068 0.66719 0.16234
 C309 C 0.35902 0.88031 0.06753
 C310 C 0.38305 0.92878 0.07026
 C311 C 0.37129 0.95117 0.10337
 C312 C 0.33737 0.92552 0.13409
 C313 C 0.31519 0.87700 0.13278
 C314 C 0.32564 0.85465 0.09870
 H315 H 0.36755 0.86209 0.04258
 H316 H 0.38912 0.98850 0.10618
 H317 H 0.32950 0.94344 0.15985
 H318 H 0.30903 0.81725 0.09713
 C319 C 0.96264 0.58107 0.60352
 C320 C 0.93771 0.54746 0.57183
 C321 C 0.88985 0.52918 0.57027
 C322 C 0.86712 0.54231 0.60121
 C323 C 0.89181 0.57466 0.63386
 C324 C 0.93988 0.59496 0.63398
 H325 H 0.99957 0.59588 0.60530
 H326 H 0.86969 0.50304 0.54637
 H327 H 0.83003 0.52590 0.60069
 H328 H 0.95957 0.62016 0.65878
 C329 C 0.46713 0.40840 0.62432
 C330 C 0.45401 0.39967 0.58025
 C331 C 0.42728 0.35394 0.56615
 C332 C 0.41352 0.31737 0.59611
 C333 C 0.42793 0.32593 0.64014
 C334 C 0.45499 0.37196 0.65374
 H335 H 0.48826 0.44349 0.63565
 H336 H 0.41680 0.34664 0.53219
 H337 H 0.39238 0.28232 0.58476
 H338 H 0.46755 0.37977 0.68707
 C339 C 0.62582 0.11089 0.57274
 C340 C 0.60073 0.06245 0.57549
 C341 C 0.61234 0.03935 0.60793
 C342 C 0.64733 0.06435 0.63788
 C343 C 0.67080 0.11287 0.63634
 C344 C 0.66032 0.13585 0.60304
 H345 H 0.61759 0.12969 0.54822
 H346 H 0.59377 0.00205 0.61072
 H347 H 0.65515 0.04597 0.66317
 H348 H 0.67790 0.17327 0.60138
 C349 C 0.44597 0.04869 0.87539
 C350 C 0.44442 0.05554 0.92073
 C351 C 0.43085 0.08796 0.93534
 C352 C 0.41874 0.11254 0.90524
 C353 C 0.42356 0.10821 0.85985
 C354 C 0.43771 0.07610 0.84551
 H355 H 0.45713 0.02469 0.86285
 H356 H 0.42881 0.09378 0.97006
 H357 H 0.40697 0.13612 0.91756
 H358 H 0.44360 0.07279 0.81109
 C359 C 0.62987 0.59143 0.89727
 C360 C 0.61991 0.55598 0.92797
 C361 C 0.64778 0.53428 0.92936
 C362 C 0.68318 0.54592 0.89903
 C363 C 0.69168 0.57979 0.86709
 C364 C 0.66568 0.60345 0.86727
 H365 H 0.60920 0.60900 0.89562
 H366 H 0.64096 0.50683 0.95260
 H367 H 0.70272 0.52711 0.89929
 H368 H 0.67190 0.62984 0.84297
 C369 C 0.88322 0.35519 0.93152
 C370 C 0.93092 0.38251 0.92647
 C371 C 0.95244 0.37382 0.89039
 C372 C 0.92678 0.33997 0.85950
 C373 C 0.87889 0.31502 0.86312
 C374 C 0.85749 0.32247 0.89981
 H375 H 0.86527 0.36069 0.95874
 H376 H 0.98912 0.39364 0.88553
 H377 H 0.94416 0.33427 0.83192
 H378 H 0.82058 0.30374 0.90333
 C379 C 0.53507 0.89345 0.43258
 C380 C 0.54774 0.94072 0.42792
 C381 C 0.57747 0.96563 0.39342
 C382 C 0.59264 0.94340 0.36352
 C383 C 0.57701 0.89552 0.36639
 C384 C 0.54880 0.87101 0.40172
 H385 H 0.51235 0.87296 0.45869
 H386 H 0.58858 1.00217 0.38906
 H387 H 0.61500 0.96319 0.33693
 H388 H 0.53598 0.83403 0.40459
 C389 C 0.35365 0.44017 0.43554
 C390 C 0.39953 0.46729 0.42317
 C391 C 0.40998 0.48316 0.37989
 C392 C 0.37510 0.47251 0.34935
 C393 C 0.32904 0.44415 0.36098
 C394 C 0.31867 0.42804 0.40446
 H395 H 0.34504 0.42769 0.46889
 H396 H 0.44524 0.50471 0.36996
 H397 H 0.38413 0.48652 0.31653
 H398 H 0.28348 0.40618 0.41433
 C399 C 0.04129 0.61646 0.39240
 C400 C 0.06360 0.60397 0.42480
 C401 C 0.11165 0.62835 0.42750
 C402 C 0.13696 0.66279 0.39696
 C403 C 0.11469 0.67381 0.36349
 C404 C 0.06662 0.65129 0.36221
 H405 H 0.00431 0.59847 0.38964
 H406 H 0.12983 0.61944 0.45199
 H407 H 0.17403 0.67969 0.39844
 H408 H 0.04882 0.65957 0.33680
 C409 C 0.89219 0.52888 0.92752
 C410 C 0.93993 0.54632 0.92537
 C411 C 0.96493 0.57933 0.89320
 C412 C 0.94232 0.59361 0.86300
 C413 C 0.89431 0.57427 0.86389
 C414 C 0.86961 0.54236 0.89687
 H415 H 0.87195 0.50318 0.95176
 H416 H 1.00176 0.59346 0.89094
 H417 H 0.96204 0.61848 0.83795
 H418 H 0.83257 0.52666 0.89797
 C419 C 0.44627 0.35630 0.93677
 C420 C 0.46183 0.40199 0.92239
 C421 C 0.46479 0.41074 0.87708
 C422 C 0.45499 0.37525 0.84701
 C423 C 0.43750 0.32909 0.86096
 C424 C 0.43228 0.32007 0.90639
 H425 H 0.44324 0.34830 0.97146
 H426 H 0.47775 0.44568 0.86475
 H427 H 0.46174 0.38433 0.81271
 H428 H 0.41810 0.28500 0.91854
 C429 C 0.61781 0.04043 0.89475
 C430 C 0.60600 0.06362 0.92703
 C431 C 0.63102 0.11207 0.92964
 C432 C 0.66531 0.13695 0.89900
 C433 C 0.67546 0.11381 0.86550
 C434 C 0.65243 0.06531 0.86442
 H435 H 0.59935 0.00311 0.89208
 H436 H 0.62267 0.13092 0.95407
 H437 H 0.68268 0.17438 0.90031
 H438 H 0.66006 0.04687 0.83900
 C439 C 0.08413 0.42537 0.43487
 C440 C 0.05277 0.43991 0.41998
 C441 C 0.04688 0.44216 0.37459
 C442 C 0.07460 0.43424 0.34499
 C443 C 0.10607 0.41966 0.35960
 C444 C 0.10891 0.41338 0.40495
 H445 H 0.08907 0.42264 0.46964
 H446 H 0.02359 0.45392 0.36185
 H447 H 0.07221 0.44096 0.31062
 H448 H 0.13176 0.40097 0.41740
 C449 C 0.59256 0.62824 0.39818
 C450 C 0.55823 0.62041 0.42923
 C451 C 0.53907 0.65061 0.43069
 C452 C 0.55198 0.68622 0.40013
 C453 C 0.58480 0.69281 0.36790
 C454 C 0.60606 0.66446 0.36802
 H455 H 0.60815 0.60571 0.39650
 H456 H 0.51248 0.64542 0.45417
 H457 H 0.53493 0.70746 0.40048
 H458 H 0.63166 0.66918 0.34354
 C459 C 0.37202 0.95167 0.39258
 C460 C 0.38279 0.92889 0.42601
 C461 C 0.35843 0.88041 0.42840
 C462 C 0.32552 0.85513 0.39684
 C463 C 0.31579 0.87783 0.36267
 C464 C 0.33852 0.92637 0.36143
 H465 H 0.39014 0.98900 0.39000
 H466 H 0.36619 0.86186 0.45356
 H467 H 0.30851 0.81772 0.39835
 H468 H 0.33121 0.94456 0.33558
 C469 C 0.53162 0.89088 0.07252
 C470 C 0.54856 0.93901 0.07460
 C471 C 0.58107 0.96441 0.10682
 C472 C 0.59522 0.94184 0.13722
 C473 C 0.57642 0.89345 0.13643
 C474 C 0.54512 0.86830 0.10335
 H475 H 0.50637 0.87035 0.04820
 H476 H 0.59487 1.00157 0.10902
 H477 H 0.61958 0.96188 0.16239
 H478 H 0.52986 0.83094 0.10235
 C479 C 0.35492 0.43477 0.06455
 C480 C 0.40023 0.46439 0.07701
 C481 C 0.40943 0.48205 0.11976
 C482 C 0.37386 0.47073 0.14969
 C483 C 0.32842 0.44005 0.13803
 C484 C 0.31928 0.42206 0.09511
 H485 H 0.34732 0.42081 0.03163
 H486 H 0.44422 0.50540 0.12973
 H487 H 0.38187 0.48604 0.18207
 H488 H 0.28457 0.39836 0.08528
 C489 C 0.11192 0.62617 0.07054
 C490 C 0.06390 0.60127 0.07350
 C491 C 0.04138 0.61340 0.10606
 C492 C 0.06650 0.64860 0.13600
 C493 C 0.11459 0.67175 0.13437
 C494 C 0.13702 0.66087 0.10087
 H495 H 0.13027 0.61752 0.04592
 H496 H 0.00441 0.59500 0.10900
 H497 H 0.04856 0.65675 0.16144
 H498 H 0.17409 0.67819 0.09913
 C499 C 0.44815 0.05358 0.62474
 C500 C 0.43695 0.05212 0.58029
 C501 C 0.41326 0.07561 0.56599
 C502 C 0.40120 0.10052 0.59592
 C503 C 0.41448 0.10397 0.64017
 C504 C 0.43783 0.07989 0.65418
 H505 H 0.46711 0.03629 0.63629
 H506 H 0.40440 0.07490 0.53173
 H507 H 0.38283 0.11836 0.58429
 H508 H 0.44941 0.08253 0.68774
 C509 C 0.64291 0.53248 0.57541
 C510 C 0.61472 0.55380 0.57771
 C511 C 0.62441 0.58855 0.60916
 C512 C 0.66064 0.60062 0.63860
 C513 C 0.68729 0.57760 0.63758
 C514 C 0.67863 0.54406 0.60522
 H515 H 0.63630 0.50554 0.55160
 H516 H 0.60348 0.60580 0.61151
 H517 H 0.66694 0.62676 0.66322
 H518 H 0.69856 0.52568 0.60402
 C519 C 0.94897 0.36953 0.60332
 C520 C 0.92701 0.38115 0.56988
 C521 C 0.87896 0.35733 0.56731
 C522 C 0.85333 0.32427 0.59889
 C523 C 0.87528 0.31393 0.63321
 C524 C 0.92335 0.33596 0.63447
 H525 H 0.98596 0.38722 0.60604
 H526 H 0.86110 0.36581 0.54214
 H527 H 0.81628 0.30778 0.59737
 H528 H 0.94096 0.32816 0.66041
   
