data_POSCAR
  _audit_creation_date              2014-09-24
  _audit_creation_method            'ToBaCCo'
  _symmetry_space_group_name_H-M    'P1'
  _symmetry_Int_Tables_number       1
  _symmetry_cell_setting            triclinic
  loop_
  _symmetry_equiv_pos_as_xyz
 x,y,z
_cell_length_a 38.3170
_cell_length_b 38.6146
_cell_length_c 38.5827
_cell_angle_alpha 89.944400
_cell_angle_beta 89.919600
_cell_angle_gamma 89.902900
loop_
  _atom_site_label
  _atom_site_type_symbol
  _atom_site_fract_x
  _atom_site_fract_y
  _atom_site_fract_z
C1 C 0.32637 0.36655 1.36996
 C2 C 0.33904 0.38219 1.33966
 C3 C 0.36819 0.36830 1.32266
 C4 C 0.38476 0.33879 1.33599
 C5 C 0.37217 0.32313 1.36631
 C6 C 0.34298 0.33704 1.38330
 H7 H 0.32608 0.40487 1.32911
 H8 H 0.40716 0.32791 1.32259
 H9 H 0.33301 0.32474 1.40661
 C10 C 1.17657 0.63541 0.87142
 C11 C 1.16287 0.61871 0.84221
 C12 C 1.13337 0.63222 0.82558
 C13 C 1.11747 0.66239 0.83817
 C14 C 1.13113 0.67912 0.86734
 C15 C 1.16067 0.66563 0.88398
 H16 H 1.17527 0.59548 0.83222
 H17 H 1.09478 0.67299 0.82512
 H18 H 1.17137 0.67880 0.90640
 C19 C 0.67604 -0.13370 0.12923
 C20 C 0.66028 -0.16389 0.11656
 C21 C 0.63073 -0.17742 0.13313
 C22 C 0.61691 -0.16078 0.16234
 C23 C 0.63265 -0.13064 0.17504
 C24 C 0.66217 -0.11709 0.15847
 H25 H 0.67111 -0.17699 0.09411
 H26 H 0.59421 -0.17142 0.17534
 H27 H 0.67446 -0.09388 0.16854
 C28 C -0.17789 1.13135 -0.37020
 C29 C -0.16124 1.16074 -0.38368
 C30 C -0.13212 1.17459 -0.36675
 C31 C -0.11962 1.15907 -0.33638
 C32 C -0.13620 1.12969 -0.32289
 C33 C -0.16531 1.11581 -0.33981
 H34 H -0.17105 1.17302 -0.40704
 H35 H -0.09726 1.17000 -0.32311
 H36 H -0.17829 1.09322 -0.32913
 C37 C 0.67629 0.63466 0.62854
 C38 C 0.66256 0.61871 0.65819
 C39 C 0.63277 0.63235 0.67423
 C40 C 0.61663 0.66195 0.66060
 C41 C 0.63032 0.67795 0.63094
 C42 C 0.66017 0.66426 0.61489
 H43 H 0.67520 0.59593 0.66889
 H44 H 0.59368 0.67260 0.67324
 H45 H 0.67101 0.67670 0.59207
 C46 C 0.82571 0.36853 0.13146
 C47 C 0.83856 0.38396 0.16170
 C48 C 0.86763 0.36975 0.17852
 C49 C 0.88389 0.34014 0.16506
 C50 C 0.87107 0.32471 0.13478
 C51 C 0.84198 0.33895 0.11799
 H52 H 0.82577 0.40669 0.17229
 H53 H 0.90622 0.32900 0.17832
 H54 H 0.83176 0.32689 0.09472
 C55 C 0.32330 0.13301 0.86972
 C56 C 0.33971 0.16254 0.88309
 C57 C 0.36900 0.17636 0.86632
 C58 C 0.38193 0.16065 0.83621
 C59 C 0.36558 0.13113 0.82283
 C60 C 0.33630 0.11729 0.83960
 H61 H 0.32956 0.17496 0.90623
 H62 H 0.40441 0.17155 0.82305
 H63 H 0.32350 0.09460 0.82900
 C64 C 0.17561 0.86526 0.36982
 C65 C 0.16017 0.83498 0.38273
 C66 C 0.13066 0.82116 0.36643
 C67 C 0.11657 0.83761 0.33725
 C68 C 0.13199 0.86785 0.32432
 C69 C 0.16147 0.88170 0.34061
 H70 H 0.17122 0.82202 0.40515
 H71 H 0.09391 0.82675 0.32445
 H72 H 0.17352 0.90497 0.33036
 Zn73 Zn 0.00655 1.04408 -0.01940
 Zn74 Zn -0.02812 0.97487 -0.02612
 Zn75 Zn 0.04155 0.98093 0.00857
 Zn76 Zn -0.02206 1.00892 0.04340
 O77 O -0.00056 1.00217 0.00158
 O78 O -0.01531 1.04745 -0.06014
 O79 O -0.00662 0.93563 -0.03935
 O80 O 0.07766 1.00592 -0.00694
 O81 O -0.04116 0.99639 -0.06532
 O82 O 0.05165 1.05264 -0.02816
 O83 O 0.04472 0.94035 -0.01334
 O84 O 0.00285 0.99272 0.07917
 O85 O -0.06784 0.96186 -0.00507
 O86 O 0.05006 0.97182 0.05330
 O87 O -0.06331 0.98757 0.04609
 O88 O -0.03059 1.05364 0.05241
 O89 O -0.00913 1.07974 0.00587
 C90 C -0.03439 1.02645 -0.07671
 C91 C 0.02358 0.92403 -0.03252
 C92 C 0.07891 1.03506 -0.02202
 C93 C 0.03221 0.97762 0.08036
 C94 C -0.07978 0.96874 0.02482
 C95 C -0.02427 1.08081 0.03506
 Zn96 Zn 0.49181 -0.04204 0.47769
 Zn97 Zn 0.51983 -0.00721 0.54077
 Zn98 Zn 0.52691 0.02701 0.47130
 Zn99 Zn 0.45679 0.02122 0.50533
 O100 O 0.49888 -0.00022 0.49874
 O101 O 0.50773 -0.07782 0.50268
 O102 O 0.56120 0.01381 0.54376
 O103 O 0.53938 0.00594 0.43165
 O104 O 0.52829 -0.05198 0.54966
 O105 O 0.51326 -0.04502 0.43668
 O106 O 0.56686 0.03905 0.49242
 O107 O 0.45427 0.06216 0.48386
 O108 O 0.49453 0.00894 0.57640
 O109 O 0.50614 0.06685 0.45878
 O110 O 0.44777 0.03004 0.54997
 O111 O 0.42070 -0.00356 0.48949
 O112 O 0.44673 -0.05065 0.46918
 C113 C 0.52253 -0.07903 0.53201
 C114 C 0.57831 0.03214 0.52247
 C115 C 0.53217 -0.02389 0.41998
 C116 C 0.47599 0.07870 0.46545
 C117 C 0.46518 0.02411 0.57723
 C118 C 0.41948 -0.03291 0.47490
 Zn119 Zn 1.00999 0.45564 0.48177
 Zn120 Zn 1.04471 0.51877 0.50978
 Zn121 Zn 0.97510 0.52485 0.47491
 Zn122 Zn 0.98109 0.49073 0.54447
 O123 O 1.00268 0.49753 0.50270
 O124 O 1.05515 0.44702 0.47324
 O125 O 1.04778 0.55940 0.48786
 O126 O 0.96225 0.50338 0.43567
 O127 O 1.08094 0.49378 0.49436
 O128 O 0.98838 0.45238 0.44092
 O129 O 0.99648 0.56408 0.46171
 O130 O 0.93985 0.51223 0.54709
 O131 O 1.05309 0.52776 0.55455
 O132 O 0.93529 0.53786 0.49584
 O133 O 1.00594 0.50672 0.58032
 O134 O 0.97239 0.44602 0.55334
 O135 O 0.99410 0.41998 0.50688
 C136 C 1.08233 0.46462 0.47938
 C137 C 1.02661 0.57571 0.46861
 C138 C 0.96924 0.47337 0.42429
 C139 C 0.92335 0.53105 0.52575
 C140 C 1.03524 0.52183 0.58158
 C141 C 0.97870 0.41889 0.53594
 Zn142 Zn 0.47887 0.49322 0.95648
 Zn143 Zn 0.47277 0.52690 1.02625
 Zn144 Zn 0.50788 0.45784 1.01893
 Zn145 Zn 0.54238 0.52124 0.99110
 O146 O 0.50043 0.49984 0.99823
 O147 O 0.43756 0.51461 0.95409
 O148 O 0.46003 0.50514 1.06546
 O149 O 0.49220 0.42227 0.99368
 O150 O 0.43290 0.53991 1.00547
 O151 O 0.47034 0.44853 0.94743
 O152 O 0.48626 0.45423 1.05980
 O153 O 0.57868 0.49635 1.00642
 O154 O 0.49405 0.56616 1.03952
 O155 O 0.55305 0.44937 1.02739
 O156 O 0.54530 0.56178 1.01310
 O157 O 0.55080 0.53043 0.94636
 O158 O 0.50368 0.50947 0.92062
 C159 C 0.42099 0.53325 0.97556
 C160 C 0.46711 0.47504 1.07664
 C161 C 0.47682 0.42131 0.96465
 C162 C 0.58016 0.46713 1.02132
 C163 C 0.52413 0.57792 1.03250
 C164 C 0.53298 0.52460 0.91935
 C165 C 1.17660 0.42878 0.44465
 C166 C 1.18734 0.39426 0.45105
 C167 C 1.21909 0.38175 0.43658
 C168 C 1.23988 0.40383 0.41577
 C169 C 1.22951 0.43857 0.40998
 C170 C 1.19779 0.45109 0.42448
 C171 C 1.18791 0.48588 0.41821
 C172 C 1.20876 0.50767 0.39820
 C173 C 1.23976 0.49541 0.38400
 C174 C 1.25014 0.46128 0.38972
 C175 C 1.22921 0.34710 0.44321
 C176 C 1.20856 0.32543 0.46356
 C177 C 1.17751 0.33766 0.47769
 C178 C 1.16689 0.37165 0.47158
 C179 C 1.27145 0.39059 0.39965
 C180 C 1.29738 0.37941 0.38586
 C181 C 1.14334 0.44110 0.45792
 C182 C 1.11554 0.45161 0.46818
 H183 H 1.16405 0.49663 0.42873
 H184 H 1.20081 0.53421 0.39369
 H185 H 1.25586 0.51244 0.36847
 H186 H 1.27449 0.45296 0.37816
 H187 H 1.25316 0.33642 0.43282
 H188 H 1.21671 0.29901 0.46839
 H189 H 1.16157 0.32072 0.49348
 H190 H 1.14256 0.38000 0.48317
 C191 C 0.32674 0.57109 0.94319
 C192 C 0.31501 0.60454 0.95271
 C193 C 0.28326 0.61771 0.93890
 C194 C 0.26345 0.59734 0.91565
 C195 C 0.27484 0.56363 0.90665
 C196 C 0.30657 0.55046 0.92046
 C197 C 0.31749 0.51673 0.91094
 C198 C 0.29764 0.49660 0.88843
 C199 C 0.26663 0.50950 0.87491
 C200 C 0.25523 0.54260 0.88381
 C201 C 0.27214 0.65129 0.94866
 C202 C 0.29183 0.67129 0.97143
 C203 C 0.32287 0.65842 0.98493
 C204 C 0.33447 0.62544 0.97575
 C205 C 0.23181 0.61129 0.90032
 C206 C 0.20576 0.62269 0.88700
 C207 C 0.36000 0.55819 0.95585
 C208 C 0.38779 0.54707 0.96543
 H209 H 0.34140 0.50552 0.92080
 H210 H 0.30638 0.47086 0.88144
 H211 H 0.25130 0.49376 0.85743
 H212 H 0.23091 0.55146 0.87265
 H213 H 0.24815 0.66240 0.93887
 H214 H 0.28293 0.69691 0.97865
 H215 H 0.33806 0.67405 1.00261
 H216 H 0.35875 0.61652 0.98695
 C217 C -0.17382 0.93083 0.05762
 C218 C -0.18569 0.89761 0.04762
 C219 C -0.21741 0.88440 0.06143
 C220 C -0.23706 0.90450 0.08517
 C221 C -0.22552 0.93797 0.09469
 C222 C -0.19382 0.95118 0.08087
 C223 C -0.18274 0.98467 0.09090
 C224 C -0.20242 1.00452 0.11391
 C225 C -0.23341 0.99159 0.12743
 C226 C -0.24495 0.95872 0.11803
 C227 C -0.22867 0.85107 0.05118
 C228 C -0.20915 0.83134 0.02793
 C229 C -0.17813 0.84425 0.01443
 C230 C -0.16640 0.87699 0.02408
 C231 C -0.26870 0.89051 0.10045
 C232 C -0.29476 0.87907 0.11371
 C233 C -0.14063 0.94378 0.04486
 C234 C -0.11291 0.95492 0.03516
 H235 H -0.15884 0.99589 0.08106
 H236 H -0.19357 1.03007 0.12129
 H237 H -0.24861 1.00711 0.14530
 H238 H -0.26925 0.94982 0.12922
 H239 H -0.25265 0.83993 0.06096
 H240 H -0.21815 0.80590 0.02034
 H241 H -0.16307 0.82883 -0.00363
 H242 H -0.14214 0.88595 0.01286
 C243 C 0.67269 0.06822 0.55602
 C244 C 0.69158 0.04783 0.58012
 C245 C 0.72325 0.06053 0.59438
 C246 C 0.73587 0.09353 0.58445
 C247 C 0.71739 0.11359 0.55979
 C248 C 0.68570 0.10090 0.54554
 C249 C 0.66758 0.12149 0.52109
 C250 C 0.68042 0.15370 0.51096
 C251 C 0.71141 0.16610 0.52489
 C252 C 0.72979 0.14640 0.54905
 C253 C 0.74156 0.03977 0.61858
 C254 C 0.72896 0.00738 0.62838
 C255 C 0.69801 -0.00505 0.61443
 C256 C 0.67942 0.01483 0.59058
 C257 C 0.76734 0.10714 0.60029
 C258 C 0.79320 0.11847 0.61394
 C259 C 0.63943 0.05593 0.54292
 C260 C 0.61160 0.04534 0.53299
 H261 H 0.64339 0.11290 0.50950
 H262 H 0.66625 0.16910 0.49221
 H263 H 0.72128 0.19114 0.51694
 H264 H 0.75379 0.15713 0.55912
 H265 H 0.76579 0.04829 0.63012
 H266 H 0.74331 -0.00816 0.64689
 H267 H 0.68833 -0.03024 0.62212
 H268 H 0.65550 0.00400 0.58043
 C269 C 0.44393 0.17287 0.42862
 C270 C 0.45100 0.18335 0.39415
 C271 C 0.43722 0.21513 0.38145
 C272 C 0.41644 0.23622 0.40330
 C273 C 0.40996 0.22608 0.43799
 C274 C 0.42376 0.19433 0.45070
 C275 C 0.41679 0.18468 0.48544
 C276 C 0.39678 0.20579 0.50700
 C277 C 0.38327 0.23682 0.49456
 C278 C 0.38969 0.24698 0.46048
 C279 C 0.44450 0.22498 0.34685
 C280 C 0.46484 0.20405 0.32541
 C281 C 0.47830 0.17298 0.33782
 C282 C 0.47154 0.16261 0.37178
 C283 C 0.40100 0.26788 0.38989
 C284 C 0.38768 0.29394 0.37881
 C285 C 0.45641 0.13960 0.44114
 C286 C 0.46590 0.11184 0.45195
 H287 H 0.42676 0.16081 0.49634
 H288 H 0.39174 0.19802 0.53351
 H289 H 0.36774 0.25313 0.51141
 H290 H 0.37864 0.27137 0.45202
 H291 H 0.43464 0.24894 0.33603
 H292 H 0.47018 0.21199 0.29901
 H293 H 0.49409 0.15682 0.32106
 H294 H 0.48262 0.13826 0.38029
 C295 C 0.94313 0.32567 0.57175
 C296 C 0.92402 0.30419 0.54891
 C297 C 0.90940 0.27267 0.56120
 C298 C 0.91402 0.26280 0.59625
 C299 C 0.93366 0.28397 0.61893
 C300 C 0.94825 0.31551 0.60665
 C301 C 0.96763 0.33632 0.62984
 C302 C 0.97249 0.32625 0.66419
 C303 C 0.95824 0.29540 0.67620
 C304 C 0.93901 0.27441 0.65395
 C305 C 0.89024 0.25173 0.53794
 C306 C 0.88570 0.26161 0.50349
 C307 C 0.90001 0.29241 0.49145
 C308 C 0.91897 0.31356 0.51378
 C309 C 0.89799 0.23126 0.60913
 C310 C 0.88439 0.20530 0.62000
 C311 C 0.95667 0.35860 0.55953
 C312 C 0.96719 0.38609 0.54903
 H313 H 0.97926 0.36051 0.62168
 H314 H 0.98741 0.34246 0.68157
 H315 H 0.96210 0.28769 0.70290
 H316 H 0.92847 0.25064 0.66450
 H317 H 0.87863 0.22751 0.54607
 H318 H 0.87099 0.24527 0.48604
 H319 H 0.89643 0.29997 0.46466
 H320 H 0.92963 0.33725 0.50318
 C321 C 0.05922 0.83266 -0.07282
 C322 C 0.09397 0.83171 -0.08538
 C323 C 0.10826 0.80012 -0.09793
 C324 C 0.08771 0.76967 -0.09789
 C325 C 0.05284 0.77072 -0.08574
 C326 C 0.03855 0.80232 -0.07316
 C327 C 0.00367 0.80272 -0.06105
 C328 C -0.01654 0.77275 -0.06137
 C329 C -0.00259 0.74186 -0.07368
 C330 C 0.03170 0.74070 -0.08575
 C331 C 0.14309 0.79980 -0.11022
 C332 C 0.16322 0.82982 -0.11015
 C333 C 0.14925 0.86071 -0.09790
 C334 C 0.11505 0.86180 -0.08562
 C335 C 0.10261 0.73731 -0.11015
 C336 C 0.11541 0.71065 -0.12035
 C337 C 0.04520 0.86473 -0.05889
 C338 C 0.03462 0.89164 -0.04701
 H339 H -0.00833 0.82614 -0.05127
 H340 H -0.04319 0.77351 -0.05203
 H341 H -0.01840 0.71866 -0.07389
 H342 H 0.04139 0.71608 -0.09509
 H343 H 0.15514 0.77640 -0.12002
 H344 H 0.18981 0.82910 -0.11966
 H345 H 0.16499 0.88397 -0.09792
 H346 H 0.10537 0.88646 -0.07640
 C347 C 0.55937 0.66921 1.07297
 C348 C 0.59403 0.67007 1.08567
 C349 C 0.60822 0.70162 1.09827
 C350 C 0.58766 0.73213 1.09814
 C351 C 0.55287 0.73118 1.08583
 C352 C 0.53869 0.69962 1.07321
 C353 C 0.50390 0.69932 1.06095
 C354 C 0.48367 0.72935 1.06118
 C355 C 0.49753 0.76020 1.07353
 C356 C 0.53172 0.76126 1.08574
 C357 C 0.64297 0.70185 1.11071
 C358 C 0.66311 0.67177 1.11074
 C359 C 0.64924 0.64091 1.09845
 C360 C 0.61513 0.63992 1.08602
 C361 C 0.60246 0.76445 1.11045
 C362 C 0.61515 0.79108 1.12072
 C363 C 0.54546 0.63718 1.05898
 C364 C 0.53500 0.61029 1.04706
 H365 H 0.49197 0.67593 1.05113
 H366 H 0.45710 0.72866 1.05172
 H367 H 0.48170 0.78345 1.07365
 H368 H 0.54135 0.78586 1.09511
 H369 H 0.65493 0.72521 1.12055
 H370 H 0.68962 0.67241 1.12036
 H371 H 0.66498 0.61760 1.09854
 H372 H 0.60552 0.61528 1.07677
 C373 C 0.42775 0.43916 1.16846
 C374 C 0.42596 0.46021 1.19844
 C375 C 0.41353 0.44607 1.23018
 C376 C 0.40298 0.41098 1.23174
 C377 C 0.40447 0.39002 1.20168
 C378 C 0.41686 0.40415 1.16995
 C379 C 0.41814 0.38266 1.14025
 C380 C 0.40748 0.34821 1.14185
 C381 C 0.39538 0.33439 1.17289
 C382 C 0.39384 0.35492 1.20253
 C383 C 0.41203 0.46760 1.25981
 C384 C 0.42251 0.50210 1.25815
 C385 C 0.43468 0.51591 1.22712
 C386 C 0.43644 0.49532 1.19753
 C387 C 0.39073 0.39632 1.26423
 C388 C 0.38052 0.38374 1.29100
 C389 C 0.44136 0.45316 1.13622
 C390 C 0.45295 0.46381 1.10917
 H391 H 0.42732 0.39220 1.11549
 H392 H 0.40861 0.33216 1.11889
 H393 H 0.38714 0.30761 1.17401
 H394 H 0.38423 0.34298 1.22605
 H395 H 0.40274 0.45803 1.28453
 H396 H 0.42118 0.51821 1.28106
 H397 H 0.44278 0.54273 1.22597
 H398 H 0.44605 0.50722 1.17398
 C399 C 0.56876 -0.05721 0.32612
 C400 C 0.60158 -0.04660 0.31303
 C401 C 0.61431 -0.06066 0.28139
 C402 C 0.59413 -0.08524 0.26304
 C403 C 0.56100 -0.09534 0.27578
 C404 C 0.54827 -0.08128 0.30740
 C405 C 0.51513 -0.09190 0.31968
 C406 C 0.49515 -0.11570 0.30125
 C407 C 0.50762 -0.12945 0.27034
 C408 C 0.54014 -0.11949 0.25763
 C409 C 0.64727 -0.04978 0.26890
 C410 C 0.66708 -0.02569 0.28714
 C411 C 0.65464 -0.01196 0.31808
 C412 C 0.62228 -0.02221 0.33101
 C413 C 0.60775 -0.10079 0.23154
 C414 C 0.61906 -0.11418 0.20564
 C415 C 0.55637 -0.04420 0.35924
 C416 C 0.54564 -0.03434 0.38692
 H417 H 0.50427 -0.08191 0.34357
 H418 H 0.46986 -0.12351 0.31102
 H419 H 0.49200 -0.14794 0.25612
 H420 H 0.54869 -0.13089 0.23344
 H421 H 0.65803 -0.05970 0.24493
 H422 H 0.69223 -0.01764 0.27720
 H423 H 0.67013 0.00675 0.33214
 H424 H 0.61368 -0.01078 0.35516
 C425 C -0.07495 1.06109 -0.16844
 C426 C -0.07755 1.03937 -0.19786
 C427 C -0.09055 1.05291 -0.22962
 C428 C -0.10085 1.08809 -0.23175
 C429 C -0.09858 1.10971 -0.20222
 C430 C -0.08562 1.09617 -0.17047
 C431 C -0.08356 1.11832 -0.14131
 C432 C -0.09400 1.15284 -0.14346
 C433 C -0.10665 1.16608 -0.17451
 C434 C -0.10897 1.14489 -0.20363
 C435 C -0.09286 1.03073 -0.25870
 C436 C -0.08261 0.99615 -0.25648
 C437 C -0.06989 0.98293 -0.22544
 C438 C -0.06733 1.00417 -0.19638
 C439 C -0.11347 1.10220 -0.26432
 C440 C -0.12386 1.11444 -0.29115
 C441 C -0.06082 1.04765 -0.13619
 C442 C -0.04886 1.03740 -0.10917
 H443 H -0.07392 1.10924 -0.11657
 H444 H -0.09227 1.16939 -0.12090
 H445 H -0.11473 1.19291 -0.17605
 H446 H -0.11900 1.15640 -0.22719
 H447 H -0.10260 1.03984 -0.28340
 H448 H -0.08456 0.97954 -0.27898
 H449 H -0.06197 0.95605 -0.22386
 H450 H -0.05731 0.99271 -0.17280
 C451 C 1.07079 0.55740 0.67489
 C452 C 1.04941 0.58043 0.69407
 C453 C 1.06187 0.59489 0.72557
 C454 C 1.09563 0.58622 0.73772
 C455 C 1.11675 0.56270 0.71888
 C456 C 1.10430 0.54826 0.68736
 C457 C 1.12594 0.52494 0.66890
 C458 C 1.15895 0.51611 0.68123
 C459 C 1.17112 0.53022 0.71206
 C460 C 1.15038 0.55327 0.73077
 C461 C 1.04010 0.61798 0.74419
 C462 C 1.00695 0.62652 0.73206
 C463 C 0.99475 0.61238 0.70128
 C464 C 1.01562 0.58959 0.68239
 C465 C 1.10887 0.60208 0.76916
 C466 C 1.11995 0.61565 0.79501
 C467 C 1.05858 0.54388 0.64196
 C468 C 1.04815 0.53336 0.61445
 H469 H 1.11760 0.51327 0.64481
 H470 H 1.17516 0.49822 0.66680
 H471 H 1.19678 0.52327 0.72153
 H472 H 1.16098 0.56353 0.75462
 H473 H 1.04841 0.62963 0.76830
 H474 H 0.99064 0.64421 0.74664
 H475 H 0.96897 0.61908 0.69197
 H476 H 1.00494 0.57924 0.65861
 C477 C 0.82915 0.56905 0.55828
 C478 C 0.81064 0.55017 0.58386
 C479 C 0.77876 0.56342 0.59733
 C480 C 0.76556 0.59546 0.58514
 C481 C 0.78377 0.61406 0.55917
 C482 C 0.81567 0.60081 0.54570
 C483 C 0.83348 0.61993 0.51987
 C484 C 0.82015 0.65125 0.50766
 C485 C 0.78897 0.66420 0.52083
 C486 C 0.77087 0.64593 0.54630
 C487 C 0.76082 0.54416 0.62301
 C488 C 0.77398 0.51271 0.63501
 C489 C 0.80514 0.49974 0.62183
 C490 C 0.82337 0.51814 0.59656
 C491 C 0.73367 0.60952 0.59988
 C492 C 0.70739 0.62105 0.61267
 C493 C 0.86241 0.55608 0.54563
 C494 C 0.89018 0.54492 0.53600
 H495 H 0.85781 0.61089 0.50882
 H496 H 0.83410 0.66554 0.48788
 H497 H 0.77872 0.68853 0.51125
 H498 H 0.74671 0.65703 0.55571
 H499 H 0.73646 0.55315 0.63404
 H500 H 0.75991 0.49832 0.65464
 H501 H 0.81525 0.47529 0.63123
 H502 H 0.84747 0.50695 0.58710
 C503 C 0.67445 0.43161 1.05606
 C504 C 0.69539 0.45390 1.07642
 C505 C 0.72709 0.44146 1.09095
 C506 C 0.73769 0.40682 1.08500
 C507 C 0.71715 0.38477 1.06402
 C508 C 0.68542 0.39721 1.04952
 C509 C 0.66521 0.37463 1.02880
 C510 C 0.67607 0.34074 1.02255
 C511 C 0.70710 0.32859 1.03671
 C512 C 0.72750 0.35023 1.05723
 C513 C 0.74747 0.46414 1.11138
 C514 C 0.73686 0.49817 1.11726
 C515 C 0.70587 0.51035 1.10303
 C516 C 0.68526 0.48859 1.08284
 C517 C 0.76924 0.39363 1.10113
 C518 C 0.79515 0.38238 1.11483
 C519 C 0.64119 0.44383 1.04277
 C520 C 0.61339 0.45424 1.03250
 H521 H 0.64090 0.38293 1.01718
 H522 H 0.66031 0.32383 1.00662
 H523 H 0.71542 0.30225 1.03176
 H524 H 0.75145 0.33960 1.06763
 H525 H 0.77181 0.45587 1.12297
 H526 H 0.75278 0.51518 1.13292
 H527 H 0.69775 0.53682 1.10765
 H528 H 0.66140 0.49928 1.07230
 C529 C 0.17309 1.07095 -0.05664
 C530 C 0.19445 1.04865 -0.07669
 C531 C 0.22623 1.06115 -0.09100
 C532 C 0.23649 1.09585 -0.08514
 C533 C 0.21551 1.11794 -0.06449
 C534 C 0.18370 1.10545 -0.05021
 C535 C 0.16307 1.12805 -0.02982
 C536 C 0.17357 1.16203 -0.02367
 C537 C 0.20468 1.17424 -0.03762
 C538 C 0.22551 1.15257 -0.05782
 C539 C 0.24703 1.03844 -0.11113
 C540 C 0.23675 1.00433 -0.11691
 C541 C 0.20569 0.99209 -0.10290
 C542 C 0.18467 1.01388 -0.08301
 C543 C 0.26817 1.10907 -0.10102
 C544 C 0.29419 1.12021 -0.11460
 C545 C 0.13983 1.05861 -0.04348
 C546 C 0.11206 1.04809 -0.03325
 H547 H 0.13868 1.11972 -0.01838
 H548 H 0.15749 1.17896 -0.00799
 H549 H 0.21273 1.20064 -0.03276
 H550 H 0.24950 1.16324 -0.06807
 H551 H 0.27144 1.04675 -0.12254
 H552 H 0.25299 0.98731 -0.13234
 H553 H 0.19782 0.96557 -0.10745
 H554 H 0.16077 1.00314 -0.07264
 C555 C 0.32565 -0.06988 0.44076
 C556 C 0.30654 -0.05014 0.41632
 C557 C 0.27487 -0.06333 0.40251
 C558 C 0.26248 -0.09616 0.41324
 C559 C 0.28128 -0.11565 0.43812
 C560 C 0.31297 -0.10247 0.45192
 C561 C 0.33139 -0.12248 0.47663
 C562 C 0.31886 -0.15459 0.48743
 C563 C 0.28787 -0.16747 0.47394
 C564 C 0.26919 -0.14834 0.44955
 C565 C 0.25631 -0.04320 0.37797
 C566 C 0.26867 -0.01096 0.36739
 C567 C 0.29963 0.00195 0.38091
 C568 C 0.31845 -0.01730 0.40508
 C569 C 0.23085 -0.11016 0.39811
 C570 C 0.20479 -0.12172 0.38505
 C571 C 0.35873 -0.05699 0.45373
 C572 C 0.38639 -0.04612 0.46381
 H573 H 0.35560 -0.11352 0.48789
 H574 H 0.33326 -0.16955 0.50637
 H575 H 0.27824 -0.19242 0.48241
 H576 H 0.24521 -0.15943 0.43983
 H577 H 0.23208 -0.05211 0.36673
 H578 H 0.25414 0.00409 0.34861
 H579 H 0.30912 0.02701 0.37262
 H580 H 0.34237 -0.00613 0.41487
 C581 C 0.55795 -0.17224 0.56825
 C582 C 0.58276 -0.19065 0.54817
 C583 C 0.59705 -0.22219 0.56085
 C584 C 0.58641 -0.23518 0.59352
 C585 C 0.56119 -0.21707 0.61336
 C586 C 0.54692 -0.18549 0.60069
 C587 C 0.52188 -0.16777 0.62105
 C588 C 0.51120 -0.18088 0.65301
 C589 C 0.52514 -0.21175 0.66539
 C590 C 0.54987 -0.22975 0.64591
 C591 C 0.62194 -0.24004 0.54039
 C592 C 0.63240 -0.22710 0.50830
 C593 C 0.61843 -0.19626 0.49588
 C594 C 0.59390 -0.17813 0.51547
 C595 C 0.60190 -0.26678 0.60696
 C596 C 0.61511 -0.29284 0.61816
 C597 C 0.54443 -0.13935 0.55582
 C598 C 0.53395 -0.11187 0.54517
 H599 H 0.51026 -0.14368 0.61248
 H600 H 0.49200 -0.16700 0.66824
 H601 H 0.51675 -0.22183 0.69023
 H602 H 0.55993 -0.25367 0.65662
 H603 H 0.63354 -0.26415 0.54892
 H604 H 0.65145 -0.24108 0.49298
 H605 H 0.62663 -0.18632 0.47093
 H606 H 0.58376 -0.15429 0.50468
 C607 C 1.06137 0.66725 0.42802
 C608 C 1.09633 0.66873 0.41612
 C609 C 1.11009 0.70039 0.40324
 C610 C 1.08880 0.73039 0.40229
 C611 C 1.05374 0.72883 0.41383
 C612 C 1.03999 0.69716 0.42675
 C613 C 1.00491 0.69625 0.43823
 C614 C 0.98399 0.72578 0.43697
 C615 C 0.99743 0.75674 0.42433
 C616 C 1.03189 0.75840 0.41287
 C617 C 1.14514 0.70124 0.39161
 C618 C 1.16599 0.67165 0.39263
 C619 C 1.15253 0.64069 0.40521
 C620 C 1.11813 0.63909 0.41686
 C621 C 1.10313 0.76282 0.38962
 C622 C 1.11546 0.78955 0.37910
 C623 C 1.04779 0.63510 0.44213
 C624 C 1.03748 0.60813 0.45409
 H625 H 0.99328 0.67275 0.44824
 H626 H 0.95720 0.72463 0.44584
 H627 H 0.98107 0.77960 0.42340
 H628 H 1.04117 0.78306 0.40324
 H629 H 1.15680 0.72470 0.38159
 H630 H 1.19273 0.67277 0.38362
 H631 H 1.16882 0.61776 0.40594
 H632 H 1.10888 0.61439 0.42638
 C633 C -0.05803 1.17427 0.07209
 C634 C -0.05191 1.18406 0.10691
 C635 C -0.06565 1.21580 0.11970
 C636 C -0.08544 1.23754 0.09760
 C637 C -0.09106 1.22803 0.06262
 C638 C -0.07730 1.19632 0.04982
 C639 C -0.08336 1.18731 0.01478
 C640 C -0.10247 1.20902 -0.00698
 C641 C -0.11595 1.24001 0.00555
 C642 C -0.11041 1.24954 0.03993
 C643 C -0.05931 1.22498 0.15464
 C644 C -0.03994 1.20342 0.17632
 C645 C -0.02652 1.17238 0.16381
 C646 C -0.03236 1.16267 0.12953
 C647 C -0.10067 1.26927 0.11102
 C648 C -0.11374 1.29542 0.12217
 C649 C -0.04527 1.14122 0.05935
 C650 C -0.03530 1.11366 0.04848
 H651 H -0.07338 1.16349 0.00381
 H652 H -0.10683 1.20174 -0.03372
 H653 H -0.13078 1.25679 -0.01146
 H654 H -0.12139 1.27393 0.04846
 H655 H -0.06918 1.24888 0.16555
 H656 H -0.03532 1.21084 0.20297
 H657 H -0.01148 1.15572 0.18076
 H658 H -0.02136 1.13831 0.12098
 C659 C 0.44224 0.32804 0.92826
 C660 C 0.42346 0.30608 0.95102
 C661 C 0.40931 0.27446 0.93856
 C662 C 0.41406 0.26495 0.90343
 C663 C 0.43336 0.28660 0.88083
 C664 C 0.44749 0.31825 0.89328
 C665 C 0.46654 0.33955 0.87017
 C666 C 0.47153 0.32985 0.83574
 C667 C 0.45773 0.29890 0.82356
 C668 C 0.43884 0.27743 0.84573
 C669 C 0.39047 0.25304 0.96175
 C670 C 0.38579 0.26256 0.99627
 C671 C 0.39965 0.29347 1.00847
 C672 C 0.41828 0.31508 0.98622
 C673 C 0.39849 0.23329 0.89040
 C674 C 0.38521 0.20721 0.87949
 C675 C 0.45537 0.36102 0.94069
 C676 C 0.46559 0.38852 0.95136
 H677 H 0.47781 0.36384 0.87846
 H678 H 0.48618 0.34644 0.81841
 H679 H 0.46168 0.29148 0.79679
 H680 H 0.42865 0.25360 0.83506
 H681 H 0.37922 0.22873 0.95349
 H682 H 0.37133 0.24586 1.01365
 H683 H 0.39595 0.30075 1.03532
 H684 H 0.42858 0.33884 0.99695
 C685 C 0.56902 0.56013 0.82603
 C686 C 0.54953 0.58590 0.80843
 C687 C 0.56227 0.59999 0.77681
 C688 C 0.59440 0.58822 0.76296
 C689 C 0.61363 0.56209 0.78028
 C690 C 0.60090 0.54801 0.81192
 C691 C 0.62064 0.52202 0.82883
 C692 C 0.65206 0.51025 0.81488
 C693 C 0.66450 0.52401 0.78395
 C694 C 0.64562 0.54965 0.76673
 C695 C 0.54241 0.62584 0.75978
 C696 C 0.51085 0.63741 0.77357
 C697 C 0.49838 0.62362 0.80447
 C698 C 0.51739 0.59817 0.82182
 C699 C 0.60792 0.60345 0.73127
 C700 C 0.61920 0.61646 0.70515
 C701 C 0.55656 0.54669 0.85896
 C702 C 0.54597 0.53619 0.88647
 H703 H 0.61201 0.51050 0.85294
 H704 H 0.66682 0.49033 0.82815
 H705 H 0.68891 0.51477 0.77321
 H706 H 0.65635 0.55953 0.74273
 H707 H 0.55100 0.63734 0.73565
 H708 H 0.49599 0.65717 0.76019
 H709 H 0.47385 0.63268 0.81507
 H710 H 0.50658 0.58822 0.84575
 C711 C 0.42675 0.06057 0.66919
 C712 C 0.41392 0.09498 0.67017
 C713 C 0.40126 0.10903 0.70182
 C714 C 0.40146 0.08859 0.73231
 C715 C 0.41406 0.05411 0.73129
 C716 C 0.42676 0.04006 0.69963
 C717 C 0.43929 0.00557 0.69924
 C718 C 0.43926 -0.01450 0.72929
 C719 C 0.42683 -0.00077 0.76023
 C720 C 0.41434 0.03313 0.76138
 C721 C 0.38865 0.14352 0.70216
 C722 C 0.38852 0.16354 0.67209
 C723 C 0.40088 0.14980 0.64113
 C724 C 0.41347 0.11594 0.64003
 C725 C 0.38882 0.10315 0.76468
 C726 C 0.37828 0.11568 0.79133
 C727 C 0.44029 0.04657 0.63693
 C728 C 0.45161 0.03578 0.60984
 H729 H 0.44919 -0.00625 0.67578
 H730 H 0.44892 -0.04085 0.72854
 H731 H 0.42685 -0.01647 0.78349
 H732 H 0.40493 0.04266 0.78605
 H733 H 0.37876 0.15538 0.72560
 H734 H 0.37877 0.18986 0.67282
 H735 H 0.40071 0.16544 0.61784
 H736 H 0.42278 0.10643 0.61532
 C737 C 0.06814 0.94190 0.17357
 C738 C 0.10108 0.95214 0.18656
 C739 C 0.11372 0.93777 0.21808
 C740 C 0.09335 0.91325 0.23641
 C741 C 0.06015 0.90346 0.22373
 C742 C 0.04749 0.91784 0.19222
 C743 C 0.01427 0.90756 0.18000
 C744 C -0.00587 0.88377 0.19838
 C745 C 0.00652 0.86970 0.22917
 C746 C 0.03913 0.87933 0.24182
 C747 C 0.14679 0.94830 0.23050
 C748 C 0.16679 0.97234 0.21229
 C749 C 0.15443 0.98637 0.18147
 C750 C 0.12197 0.97647 0.16862
 C751 C 0.10683 0.89754 0.26786
 C752 C 0.11818 0.88415 0.29374
 C753 C 0.05576 0.95545 0.14067
 C754 C 0.04522 0.96600 0.11319
 H755 H 0.00347 0.91780 0.15620
 H756 H -0.03123 0.87621 0.18867
 H757 H -0.00922 0.85123 0.24336
 H758 H 0.04762 0.86770 0.26592
 H759 H 0.15750 0.93814 0.25438
 H760 H 0.19201 0.98012 0.22217
 H761 H 0.17006 1.00504 0.16742
 H762 H 0.11345 0.98813 0.14455
 C763 C 0.92908 0.43860 0.33256
 C764 C 0.91764 0.40378 0.33096
 C765 C 0.90477 0.39013 0.29927
 C766 C 0.90337 0.41138 0.26936
 C767 C 0.91448 0.44630 0.27106
 C768 C 0.92739 0.45995 0.30275
 C769 C 0.93843 0.49488 0.30380
 C770 C 0.93676 0.51576 0.27436
 C771 C 0.92413 0.50243 0.24338
 C772 C 0.91309 0.46811 0.24159
 C773 C 0.89359 0.35521 0.29828
 C774 C 0.89505 0.33439 0.32777
 C775 C 0.90760 0.34774 0.35876
 C776 C 0.91881 0.38201 0.36049
 C777 C 0.89071 0.39719 0.23690
 C778 C 0.88021 0.38493 0.21015
 C779 C 0.94309 0.45213 0.36477
 C780 C 0.95492 0.46243 0.39179
 H781 H 0.94841 0.50642 0.32732
 H782 H 0.94530 0.54244 0.27562
 H783 H 0.92288 0.51876 0.22059
 H784 H 0.90345 0.45890 0.21691
 H785 H 0.88360 0.34363 0.27478
 H786 H 0.88637 0.30776 0.32655
 H787 H 0.90867 0.33147 0.38160
 H788 H 0.92835 0.39118 0.38521
   
