data_POSCAR
  _audit_creation_date              2014-09-24
  _audit_creation_method            'ToBaCCo'
  _symmetry_space_group_name_H-M    'P1'
  _symmetry_Int_Tables_number       1
  _symmetry_cell_setting            triclinic
  loop_
  _symmetry_equiv_pos_as_xyz
 x,y,z
_cell_length_a 42.7229
_cell_length_b 43.4399
_cell_length_c 14.9540
_cell_angle_alpha 88.649800
_cell_angle_beta 90.022800
_cell_angle_gamma 90.561300
loop_
  _atom_site_label
  _atom_site_type_symbol
  _atom_site_fract_x
  _atom_site_fract_y
  _atom_site_fract_z
C1 C 0.17281 0.25249 0.17042
 C2 C 0.19022 0.22516 0.17015
 C3 C 0.22119 0.22590 0.20172
 C4 C 0.23447 0.25278 0.23774
 C5 C 0.21619 0.27964 0.23830
 C6 C 0.18595 0.27997 0.20176
 C7 C 0.26719 0.25260 0.27454
 C8 C 0.28540 0.27982 0.27659
 C9 C 0.31565 0.27976 0.31295
 C10 C 0.32891 0.25174 0.34134
 C11 C 0.31161 0.22402 0.33873
 C12 C 0.28058 0.22501 0.30763
 H13 H 0.14855 0.25245 0.15038
 H14 H 0.23497 0.20524 0.19722
 H15 H 0.22521 0.30053 0.26713
 H16 H 0.27632 0.30130 0.24995
 H17 H 0.35313 0.25181 0.36165
 H18 H 0.26685 0.20396 0.31000
 C19 C 0.82181 0.24827 0.12784
 C20 C 0.80410 0.27534 0.12698
 C21 C 0.77501 0.27518 0.17038
 C22 C 0.76405 0.24899 0.21880
 C23 C 0.78246 0.22221 0.21919
 C24 C 0.81068 0.22135 0.17143
 C25 C 0.73388 0.24987 0.26988
 C26 C 0.71586 0.22291 0.28566
 C27 C 0.68802 0.22340 0.33589
 C28 C 0.67684 0.25203 0.36403
 C29 C 0.69416 0.27924 0.34822
 C30 C 0.72288 0.27779 0.30354
 H31 H 0.84488 0.24839 0.09842
 H32 H 0.76112 0.29586 0.16647
 H33 H 0.77519 0.20189 0.25728
 H34 H 0.72341 0.20128 0.25880
 H35 H 0.65401 0.25357 0.39405
 H36 H 0.73650 0.29878 0.29511
 C37 C 0.67848 0.74970 0.64428
 C38 C 0.69561 0.72230 0.65179
 C39 C 0.72457 0.72263 0.69608
 C40 C 0.73617 0.74953 0.73596
 C41 C 0.71835 0.77659 0.72811
 C42 C 0.69006 0.77707 0.68060
 C43 C 0.76646 0.74922 0.78662
 C44 C 0.78518 0.77600 0.79191
 C45 C 0.81330 0.77620 0.84087
 C46 C 0.82374 0.74832 0.88021
 C47 C 0.80567 0.72121 0.87502
 C48 C 0.77692 0.72208 0.82991
 H49 H 0.65550 0.74955 0.61410
 H50 H 0.73793 0.70160 0.69933
 H51 H 0.72614 0.79748 0.75959
 H52 H 0.77799 0.79697 0.75752
 H53 H 0.84659 0.74713 0.91051
 H54 H 0.76281 0.70128 0.82876
 C55 C 0.32569 0.74787 0.65006
 C56 C 0.30858 0.77526 0.64569
 C57 C 0.27763 0.77513 0.67647
 C58 C 0.26381 0.74840 0.71530
 C59 C 0.28160 0.72120 0.71951
 C60 C 0.31203 0.72050 0.68433
 C61 C 0.23114 0.74916 0.75183
 C62 C 0.21206 0.72248 0.75521
 C63 C 0.18159 0.72297 0.79107
 C64 C 0.16944 0.75139 0.81792
 C65 C 0.18790 0.77829 0.81427
 C66 C 0.21872 0.77680 0.78329
 H67 H 0.35000 0.74806 0.63009
 H68 H 0.26444 0.79618 0.66949
 H69 H 0.27205 0.70041 0.75052
 H70 H 0.22079 0.70110 0.72969
 H71 H 0.14526 0.75322 0.83746
 H72 H 0.23292 0.79754 0.78421
 O73 O 0.97273 -0.02912 -0.07306
 O74 O 1.03231 0.03257 -0.07533
 O75 O 1.03344 -0.02760 -0.07362
 O76 O 0.97158 0.03084 -0.07131
 O77 O 0.97264 0.02990 0.07639
 O78 O 1.03374 -0.02922 0.07411
 O79 O 1.03350 0.03088 0.07237
 O80 O 0.97299 -0.03020 0.07466
 Cu81 Cu 1.00248 0.00180 -0.08815
 Cu82 Cu 1.00329 0.00025 0.08926
 C83 C 0.96283 -0.04029 0.00101
 C84 C 1.04295 0.04233 -0.00193
 C85 C 1.04381 -0.03866 -0.00007
 C86 C 0.96179 0.04052 0.00297
 O87 O 0.53346 0.46622 0.61561
 O88 O 0.47376 0.52690 0.61243
 O89 O 0.47289 0.46709 0.60008
 O90 O 0.53434 0.52596 0.62779
 O91 O 0.53868 0.53124 0.48104
 O92 O 0.47785 0.47132 0.45328
 O93 O 0.47803 0.53118 0.46548
 O94 O 0.53846 0.47137 0.46901
 Cu95 Cu 0.50313 0.49608 0.62870
 Cu96 Cu 0.50872 0.50176 0.45244
 C97 C 0.54607 0.45842 0.54281
 C98 C 0.46581 0.53942 0.53834
 C99 C 0.46512 0.45894 0.52216
 C100 C 0.54679 0.53881 0.55934
 O101 O -0.03796 0.53133 0.05416
 O102 O 0.02375 0.47269 0.07813
 O103 O 0.02282 0.53254 0.05462
 O104 O -0.03710 0.47191 0.08189
 O105 O -0.03725 0.46503 -0.06399
 O106 O 0.02204 0.52700 -0.09183
 O107 O 0.02367 0.46722 -0.06834
 O108 O -0.03873 0.52442 -0.09170
 Cu109 Cu -0.00702 0.50273 0.08189
 Cu110 Cu -0.00755 0.49525 -0.09362
 C111 C -0.04879 0.53783 -0.02314
 C112 C 0.03407 0.45989 0.00862
 C113 C 0.03230 0.54045 -0.02299
 C114 C -0.04729 0.45804 0.01396
 O115 O 0.47397 1.03217 0.56754
 O116 O 0.53312 0.97145 0.56155
 O117 O 0.53350 1.03113 0.53426
 O118 O 0.47306 0.97242 0.58888
 O119 O 0.46432 0.96663 0.44466
 O120 O 0.52460 1.02506 0.39022
 O121 O 0.52427 0.96547 0.41748
 O122 O 0.46492 1.02659 0.42335
 Cu123 Cu 0.50435 1.00235 0.57748
 Cu124 Cu 0.49358 0.99536 0.40448
 C125 C 0.45960 1.03996 0.49648
 C126 C 0.53861 0.95791 0.48898
 C127 C 0.53910 1.03827 0.45283
 C128 C 0.45861 0.95933 0.52576
 C129 C 1.17740 0.19676 0.14372
 C130 C 1.14831 0.19316 0.10190
 C131 C 1.13308 0.16277 0.09072
 C132 C 1.11099 0.15921 0.02222
 C133 C 1.09433 0.13158 0.01417
 C134 C 1.09924 0.10699 0.07532
 C135 C 1.12127 0.11056 0.14398
 C136 C 1.13817 0.13810 0.15146
 C137 C 1.08004 0.07848 0.07344
 C138 C 1.06575 0.06790 -0.00401
 H139 H 1.13630 0.21292 0.07380
 H140 H 1.10624 0.17808 -0.02434
 H141 H 1.07680 0.13005 -0.03779
 H142 H 1.12508 0.09214 0.19277
 H143 H 1.15429 0.14037 0.20682
 H144 H 1.07693 0.06544 0.13552
 H145 H 1.19099 0.17618 0.15656
 H146 H 1.07081 0.07900 -0.06802
 C147 C 0.68287 0.69245 0.62112
 C148 C 0.65823 0.68985 0.56015
 C149 C 0.64143 0.66049 0.54352
 C150 C 0.64170 0.63567 0.60573
 C151 C 0.62337 0.60940 0.59175
 C152 C 0.60406 0.60749 0.51586
 C153 C 0.60455 0.63182 0.45245
 C154 C 0.62284 0.65815 0.46651
 C155 C 0.58275 0.58092 0.50189
 C156 C 0.57054 0.56299 0.57254
 H157 H 0.65061 0.71011 0.52307
 H158 H 0.65518 0.63669 0.66679
 H159 H 0.62433 0.59076 0.64089
 H160 H 0.59006 0.63084 0.39309
 H161 H 0.62209 0.67695 0.41767
 H162 H 0.57431 0.57701 0.43472
 H163 H 0.69330 0.67170 0.64872
 H164 H 0.57692 0.56796 0.64075
 C165 C -0.18360 0.30485 0.08857
 C166 C -0.15817 0.30699 0.02987
 C167 C -0.14122 0.33619 0.00854
 C168 C -0.14322 0.36201 0.06330
 C169 C -0.12459 0.38808 0.04606
 C170 C -0.10326 0.38880 -0.02556
 C171 C -0.10204 0.36351 -0.08200
 C172 C -0.12063 0.33736 -0.06463
 C173 C -0.08159 0.41516 -0.04157
 C174 C -0.07082 0.43350 0.02763
 H175 H -0.14977 0.28638 -0.00101
 H176 H -0.15829 0.36199 0.12131
 H177 H -0.12687 0.40752 0.08940
 H178 H -0.08594 0.36357 -0.13794
 H179 H -0.11847 0.31774 -0.10750
 H180 H -0.07189 0.41863 -0.10806
 H181 H -0.19475 0.32574 0.10950
 H182 H -0.07858 0.42887 0.09557
 C183 C 0.32300 0.80483 0.61516
 C184 C 0.34902 0.80673 0.55875
 C185 C 0.36598 0.83593 0.53839
 C186 C 0.36599 0.86059 0.59774
 C187 C 0.38398 0.88706 0.57948
 C188 C 0.40245 0.88931 0.50179
 C189 C 0.40185 0.86499 0.44166
 C190 C 0.38407 0.83844 0.46025
 C191 C 0.42274 0.91639 0.48165
 C192 C 0.43549 0.93500 0.54757
 H193 H 0.35704 0.78618 0.52656
 H194 H 0.35284 0.85927 0.65953
 H195 H 0.38328 0.90566 0.62624
 H196 H 0.41577 0.86624 0.38112
 H197 H 0.38458 0.81971 0.41372
 H198 H 0.43010 0.92021 0.41293
 H199 H 0.31240 0.82585 0.63737
 H200 H 0.43034 0.93028 0.61742
 C201 C -0.18274 0.69105 -0.09075
 C202 C -0.15846 0.68788 -0.02852
 C203 C -0.14215 0.65845 -0.00951
 C204 C -0.14358 0.63368 -0.06845
 C205 C -0.12541 0.60751 -0.05319
 C206 C -0.10492 0.60571 0.02037
 C207 C -0.10437 0.62989 0.08095
 C208 C -0.12265 0.65605 0.06593
 C209 C -0.08334 0.57951 0.03447
 C210 C -0.07293 0.56145 -0.03532
 H211 H -0.15045 0.70789 0.00701
 H212 H -0.15779 0.63465 -0.12821
 H213 H -0.12735 0.58894 -0.09985
 H214 H -0.08904 0.62896 0.13870
 H215 H -0.12107 0.67473 0.11254
 H216 H -0.07317 0.57607 0.10026
 H217 H -0.19371 0.67059 -0.11689
 H218 H -0.08109 0.56588 -0.10279
 C219 C 0.32452 1.19516 0.36211
 C220 C 0.35397 1.19093 0.40147
 C221 C 0.36908 1.16049 0.41093
 C222 C 0.39260 1.15646 0.47545
 C223 C 0.40914 1.12893 0.48196
 C224 C 0.40257 1.10479 0.42347
 C225 C 0.37912 1.10884 0.35868
 C226 C 0.36242 1.13635 0.35253
 C227 C 0.42121 1.07622 0.42437
 C228 C 0.43737 1.06551 0.49976
 H229 H 0.36653 1.21022 0.42897
 H230 H 0.39858 1.17491 0.52011
 H231 H 0.42778 1.12716 0.53071
 H232 H 0.37398 1.09080 0.31191
 H233 H 0.34518 1.13898 0.29996
 H234 H 0.42243 1.06334 0.36328
 H235 H 0.31068 1.17474 0.34871
 H236 H 0.43453 1.07671 0.56309
 C237 C 1.17501 -0.19122 -0.16413
 C238 C 1.14923 -0.18736 -0.10827
 C239 C 1.13347 -0.15743 -0.09813
 C240 C 1.11481 -0.15294 -0.02248
 C241 C 1.09772 -0.12588 -0.01392
 C242 C 1.09885 -0.10277 -0.08145
 C243 C 1.11753 -0.10727 -0.15702
 C244 C 1.13476 -0.13423 -0.16534
 C245 C 1.07913 -0.07497 -0.07858
 C246 C 1.06702 -0.06343 0.00035
 H247 H 1.14030 -0.20690 -0.06953
 H248 H 1.11304 -0.17066 0.02950
 H249 H 1.08284 -0.12376 0.04403
 H250 H 1.11844 -0.09002 -0.21049
 H251 H 1.14807 -0.13719 -0.22597
 H252 H 1.07377 -0.06325 -0.14145
 H253 H 1.18658 -0.17105 -0.19297
 H254 H 1.07391 -0.07327 0.06442
 C255 C 0.68177 0.30987 0.37089
 C256 C 0.65817 0.31406 0.43401
 C257 C 0.64140 0.34346 0.44447
 C258 C 0.62342 0.34746 0.52171
 C259 C 0.60514 0.37370 0.53113
 C260 C 0.60446 0.39661 0.46305
 C261 C 0.62259 0.39268 0.38600
 C262 C 0.64084 0.36643 0.37656
 C263 C 0.58374 0.42374 0.46687
 C264 C 0.56924 0.43358 0.54471
 H265 H 0.65142 0.29497 0.47787
 H266 H 0.62305 0.32990 0.57436
 H267 H 0.59092 0.37527 0.59055
 H268 H 0.62215 0.40973 0.33195
 H269 H 0.65347 0.36385 0.31460
 H270 H 0.57948 0.43644 0.40490
 H271 H 0.69160 0.32975 0.33576
 H272 H 0.57437 0.42269 0.60872
 C273 C 0.83024 -0.19588 -0.15329
 C274 C 0.85552 -0.19108 -0.09526
 C275 C 0.87309 -0.16158 -0.09084
 C276 C 0.89007 -0.15530 -0.01294
 C277 C 0.90779 -0.12824 -0.00663
 C278 C 0.90895 -0.10680 -0.07852
 C279 C 0.89227 -0.11324 -0.15691
 C280 C 0.87447 -0.14030 -0.16316
 C281 C 0.92877 -0.07865 -0.07635
 C282 C 0.93993 -0.06578 0.00239
 H283 H 0.86161 -0.20860 -0.04594
 H284 H 0.88982 -0.17152 0.04320
 H285 H 0.92115 -0.12477 0.05375
 H286 H 0.89322 -0.09737 -0.21384
 H287 H 0.86257 -0.14473 -0.22546
 H288 H 0.93499 -0.06768 -0.13981
 H289 H 0.82205 -0.17634 -0.19270
 H290 H 0.93247 -0.07491 0.06693
 C291 C 0.33338 0.30914 0.31897
 C292 C 0.35547 0.31394 0.38637
 C293 C 0.37401 0.34263 0.39649
 C294 C 0.38918 0.34738 0.47828
 C295 C 0.40798 0.37340 0.49057
 C296 C 0.41202 0.39543 0.42099
 C297 C 0.39712 0.39055 0.33875
 C298 C 0.37822 0.36447 0.32648
 C299 C 0.43286 0.42265 0.43049
 C300 C 0.44154 0.43433 0.51321
 H301 H 0.35845 0.29613 0.43748
 H302 H 0.38672 0.33068 0.53283
 H303 H 0.41991 0.37556 0.55388
 H304 H 0.40028 0.40691 0.28363
 H305 H 0.36766 0.36126 0.26164
 H306 H 0.44172 0.43389 0.37005
 H307 H 0.32713 0.32792 0.27388
 H308 H 0.43135 0.42485 0.57420
 C309 C 0.16433 0.69514 -0.20237
 C310 C 0.13624 0.69141 -0.15467
 C311 C 0.11905 0.66174 -0.14525
 C312 C 0.09905 0.65727 -0.07164
 C313 C 0.08189 0.62996 -0.06037
 C314 C 0.08426 0.60643 -0.12295
 C315 C 0.10374 0.61111 -0.19771
 C316 C 0.12112 0.63845 -0.20875
 C317 C 0.06542 0.57771 -0.11408
 C318 C 0.05476 0.56619 -0.03159
 H319 H 0.12749 0.71000 -0.11540
 H320 H 0.09662 0.67504 -0.02258
 H321 H 0.06623 0.62778 -0.00375
 H322 H 0.10551 0.59356 -0.24769
 H323 H 0.13552 0.64147 -0.26782
 H324 H 0.05981 0.56533 -0.17416
 H325 H 0.17445 0.67487 -0.23113
 H326 H 0.06223 0.57696 0.02945
 C327 C 0.67207 1.19539 0.35456
 C328 C 0.64749 1.19197 0.41621
 C329 C 0.63080 1.16247 0.43484
 C330 C 0.62896 1.13894 0.37200
 C331 C 0.61159 1.11208 0.39086
 C332 C 0.59554 1.10835 0.47265
 C333 C 0.59794 1.13161 0.53581
 C334 C 0.61515 1.15847 0.51682
 C335 C 0.57586 1.08093 0.49431
 C336 C 0.56205 1.06261 0.42951
 H337 H 0.64130 1.21090 0.45806
 H338 H 0.64023 1.14139 0.30746
 H339 H 0.61090 1.09439 0.34122
 H340 H 0.58591 1.12931 0.59940
 H341 H 0.61613 1.17626 0.56633
 H342 H 0.56976 1.07659 0.56380
 H343 H 0.68060 1.17486 0.32331
 H344 H 0.56612 1.06757 0.35927
 C345 C 0.16815 0.30913 0.19866
 C346 C 0.14561 0.31515 0.13285
 C347 C 0.12695 0.34368 0.12526
 C348 C 0.11000 0.34907 0.04618
 C349 C 0.09114 0.37496 0.03602
 C350 C 0.08887 0.39631 0.10495
 C351 C 0.10553 0.39080 0.18460
 C352 C 0.12446 0.36479 0.19482
 C353 C 0.06815 0.42347 0.09752
 C354 C 0.05781 0.43569 0.01564
 H355 H 0.14222 0.29847 0.08096
 H356 H 0.11108 0.33296 -0.00792
 H357 H 0.07782 0.37754 -0.02509
 H358 H 0.10377 0.40660 0.23930
 H359 H 0.13646 0.36114 0.25776
 H360 H 0.06069 0.43409 0.15870
 H361 H 0.17469 0.32687 0.24481
 H362 H 0.06650 0.42668 -0.04631
 C363 C 0.67236 0.80617 0.67352
 C364 C 0.65245 0.81298 0.60170
 C365 C 0.63421 0.84173 0.59301
 C366 C 0.62269 0.85061 0.50849
 C367 C 0.60441 0.87695 0.49757
 C368 C 0.59697 0.89493 0.57162
 C369 C 0.60867 0.88607 0.65610
 C370 C 0.62698 0.85976 0.66694
 C371 C 0.57656 0.92239 0.56516
 C372 C 0.56128 0.93263 0.48745
 H373 H 0.65119 0.79717 0.54689
 H374 H 0.62781 0.83704 0.45052
 H375 H 0.59618 0.88273 0.43108
 H376 H 0.60320 0.89931 0.71448
 H377 H 0.63466 0.85331 0.73363
 H378 H 0.57234 0.93457 0.62635
 H379 H 0.67689 0.82341 0.72309
 H380 H 0.56465 0.92141 0.42459
 C381 C 0.82872 0.19238 0.17085
 C382 C 0.84879 0.18526 0.10058
 C383 C 0.86766 0.15687 0.09683
 C384 C 0.88191 0.14973 0.01548
 C385 C 0.90098 0.12396 0.00894
 C386 C 0.90624 0.10459 0.08406
 C387 C 0.89217 0.11182 0.16565
 C388 C 0.87308 0.13765 0.17221
 C389 C 0.92760 0.07791 0.08157
 C390 C 0.93806 0.06481 0.00273
 H391 H 0.85005 0.20085 0.04313
 H392 H 0.87861 0.16439 -0.04336
 H393 H 0.91212 0.12003 -0.05451
 H394 H 0.89633 0.09766 0.22501
 H395 H 0.86345 0.14275 0.23703
 H396 H 0.93563 0.06828 0.14495
 H397 H 0.82426 0.17555 0.22382
 H398 H 0.92930 0.07272 -0.06148
 C399 C 0.32948 0.69115 0.68629
 C400 C 0.35267 0.68495 0.62341
 C401 C 0.37113 0.65625 0.62178
 C402 C 0.38886 0.65049 0.54511
 C403 C 0.40765 0.62447 0.54092
 C404 C 0.40909 0.60338 0.61361
 C405 C 0.39154 0.60921 0.69068
 C406 C 0.37271 0.63534 0.69491
 C407 C 0.42982 0.57617 0.61329
 C408 C 0.44267 0.56424 0.53568
 H409 H 0.35683 0.70159 0.56960
 H410 H 0.38847 0.66644 0.48833
 H411 H 0.42154 0.62159 0.48142
 H412 H 0.39258 0.59360 0.74815
 H413 H 0.36013 0.63928 0.75621
 H414 H 0.43531 0.56516 0.67709
 H415 H 0.32225 0.67345 0.73420
 H416 H 0.43628 0.57354 0.47058
   
