data_POSCAR
  _audit_creation_date              2014-09-24
  _audit_creation_method            'ToBaCCo'
  _symmetry_space_group_name_H-M    'P1'
  _symmetry_Int_Tables_number       1
  _symmetry_cell_setting            triclinic
  loop_
  _symmetry_equiv_pos_as_xyz
 x,y,z
_cell_length_a 23.4648
_cell_length_b 22.7975
_cell_length_c 28.0111
_cell_angle_alpha 89.403900
_cell_angle_beta 87.237700
_cell_angle_gamma 90.136700
loop_
  _atom_site_label
  _atom_site_type_symbol
  _atom_site_fract_x
  _atom_site_fract_y
  _atom_site_fract_z
C1 C 1.20301 0.19872 0.23329
 C2 C 1.25067 0.22260 0.19914
 C3 C 1.29608 0.24542 0.22134
 C4 C 1.28983 0.24166 0.27619
 C5 C 1.23199 0.15426 0.26531
 C6 C 1.27754 0.17621 0.28780
 C7 C 1.18781 0.24978 0.26603
 C8 C 1.23290 0.27297 0.28823
 H9 H 1.24792 0.22239 0.16065
 H10 H 1.32627 0.26091 0.29445
 H11 H 1.21644 0.10982 0.27097
 H12 H 1.14426 0.26421 0.27283
 C13 C 0.70548 -0.33033 0.22216
 C14 C 0.74691 -0.29597 0.18880
 C15 C 0.77674 -0.25343 0.21015
 C16 C 0.76225 -0.24851 0.26418
 C17 C 0.74263 -0.35352 0.26212
 C18 C 0.77235 -0.31051 0.28402
 C19 C 0.66756 -0.28367 0.24677
 C20 C 0.69690 -0.24138 0.26953
 H21 H 0.75461 -0.30715 0.15151
 H22 H 0.78694 -0.21386 0.28163
 H23 H 0.74631 -0.39963 0.27107
 H24 H 0.62149 -0.28727 0.25009
 C25 C 0.74235 0.19779 -0.27240
 C26 C 0.78032 0.23150 -0.30469
 C27 C 0.81351 0.27445 -0.28154
 C28 C 0.80142 0.27617 -0.22991
 C29 C 0.77879 0.17346 -0.23646
 C30 C 0.81158 0.21667 -0.21265
 C31 C 0.70677 0.24117 -0.24657
 C32 C 0.73976 0.28474 -0.22255
 H33 H 0.78083 0.22624 -0.34308
 H34 H 0.82725 0.30978 -0.21201
 H35 H 0.77792 0.12732 -0.22712
 H36 H 0.66093 0.23712 -0.24188
 C37 C 1.18713 -0.26330 -0.28396
 C38 C 1.24147 -0.24988 -0.31416
 C39 C 1.28626 -0.23213 -0.28860
 C40 C 1.27291 -0.23193 -0.23440
 C41 C 1.20424 -0.30963 -0.24745
 C42 C 1.24970 -0.29404 -0.22222
 C43 C 1.17585 -0.20834 -0.25516
 C44 C 1.22003 -0.19247 -0.22819
 H45 H 1.24340 -0.25327 -0.35274
 H46 H 1.30903 -0.21769 -0.21305
 H47 H 1.18221 -0.35119 -0.24211
 H48 H 1.13425 -0.18776 -0.25201
 C49 C 0.19323 0.20837 0.76295
 C50 C 0.22477 0.24977 0.79066
 C51 C 0.25825 0.29117 0.76258
 C52 C 0.25425 0.28296 0.71147
 C53 C 0.15804 0.24578 0.72916
 C54 C 0.19032 0.28480 0.70224
 C55 C 0.23887 0.17946 0.72961
 C56 C 0.27096 0.21859 0.70219
 H57 H 0.22015 0.25108 0.82926
 H58 H 0.28001 0.31489 0.68917
 H59 H 0.11218 0.24221 0.72729
 H60 H 0.24418 0.13244 0.72813
 C61 C 0.73764 0.71084 0.78584
 C62 C 0.76426 0.74506 0.82240
 C63 C 0.79806 0.79318 0.80370
 C64 C 0.79800 0.79828 0.75148
 C65 C 0.70458 0.75268 0.75880
 C66 C 0.73782 0.80145 0.73965
 C67 C 0.78432 0.69326 0.75315
 C68 C 0.81768 0.74145 0.73357
 H69 H 0.76396 0.73117 0.85953
 H70 H 0.82417 0.83570 0.73678
 H71 H 0.65919 0.74774 0.75471
 H72 H 0.78819 0.64896 0.73978
 C73 C 0.69247 0.25287 0.28888
 C74 C 0.72874 0.29711 0.31476
 C75 C 0.76350 0.33053 0.28519
 C76 C 0.75917 0.31661 0.23230
 C77 C 0.66050 0.28971 0.25287
 C78 C 0.69560 0.32300 0.22326
 C79 C 0.73522 0.21699 0.25794
 C80 C 0.77014 0.25055 0.22834
 H81 H 0.72878 0.29929 0.35337
 H82 H 0.78755 0.34386 0.20807
 H83 H 0.61450 0.28953 0.25112
 H84 H 0.73693 0.16953 0.25896
 C85 C 0.25383 0.72120 0.27950
 C86 C 0.29017 0.76818 0.30172
 C87 C 0.30706 0.81219 0.27088
 C88 C 0.28583 0.80510 0.22002
 C89 C 0.20429 0.75452 0.25800
 C90 C 0.22054 0.79816 0.22689
 C91 C 0.28979 0.70013 0.23636
 C92 C 0.30575 0.74358 0.20456
 H93 H 0.30028 0.76745 0.33906
 H94 H 0.30050 0.84076 0.19511
 H95 H 0.16001 0.74186 0.26444
 H96 H 0.30015 0.65433 0.23091
 O97 O 1.09902 0.06862 0.02579
 O98 O 0.91880 -0.01392 0.09039
 O99 O 0.92075 0.08819 0.07052
 O100 O 1.05561 -0.09847 0.06515
 O101 O 0.84717 0.03999 0.04477
 O102 O 1.11587 -0.03830 0.02501
 O103 O 0.94724 -0.10131 0.07503
 O104 O 1.02670 0.09233 0.07342
 C105 C 1.07952 0.08490 0.06613
 C106 C 0.92362 -0.06579 0.10356
 C107 C 0.86652 0.08448 0.06832
 C108 C 1.10496 -0.07642 0.05773
 O109 O 1.07939 -0.04109 -0.06400
 O110 O 0.89755 0.01761 -0.03492
 O111 O 1.03426 0.12711 -0.01688
 O112 O 0.94475 -0.10954 -0.02194
 O113 O 0.87696 -0.06785 0.01776
 O114 O 1.05527 0.05868 -0.06385
 O115 O 1.04891 -0.11668 -0.02394
 O116 O 0.93211 0.10392 -0.02656
 Co117 Co 1.07978 0.01181 -0.01645
 Co118 Co 0.91178 0.00301 0.02645
 Co119 Co 0.97956 0.09281 0.02362
 Co120 Co 0.99776 -0.09669 0.02292
 O121 O 0.99593 -0.00174 0.01241
 C122 C 1.07467 -0.09480 -0.05940
 C123 C 0.90517 0.06799 -0.05084
 C124 C 1.05030 0.11161 -0.05768
 C125 C 0.89262 -0.10161 -0.01496
 O126 O 1.11059 0.55266 0.53198
 O127 O 0.94631 0.43471 0.56282
 O128 O 0.93545 0.61353 0.54897
 O129 O 1.04543 0.38366 0.49050
 O130 O 0.94184 0.53233 0.58305
 O131 O 1.09382 0.44302 0.53392
 O132 O 0.94469 0.38235 0.50131
 O133 O 1.04050 0.61421 0.54691
 C134 C 1.08901 0.59434 0.55466
 C135 C 0.93993 0.38585 0.54571
 C136 C 0.93431 0.58507 0.58691
 C137 C 1.07335 0.39328 0.52746
 O138 O 1.10628 0.44385 0.44209
 O139 O 0.87871 0.55616 0.50146
 O140 O 1.04456 0.62472 0.45447
 O141 O 0.93407 0.45633 0.42444
 O142 O 0.87873 0.45484 0.48664
 O143 O 1.10602 0.55355 0.43995
 O144 O 1.03177 0.45246 0.40593
 O145 O 0.93697 0.60740 0.45487
 Co146 Co 1.09347 0.49916 0.48771
 Co147 Co 0.91848 0.49576 0.53042
 Co148 Co 0.99002 0.60436 0.50016
 Co149 Co 0.99021 0.42608 0.45852
 O150 O 0.99899 0.50764 0.49392
 C151 C 1.08288 0.44192 0.40381
 C152 C 0.88846 0.58602 0.46346
 C153 C 1.08810 0.60474 0.43287
 C154 C 0.88498 0.45414 0.44222
 O155 O 0.61970 0.05944 0.55675
 O156 O 0.41303 -0.08520 0.50697
 O157 O 0.44638 0.09405 0.53386
 O158 O 0.57776 -0.12143 0.54528
 O159 O 0.41164 0.00814 0.54527
 O160 O 0.60433 -0.04323 0.57920
 O161 O 0.47747 -0.11367 0.55098
 O162 O 0.53419 0.08755 0.56945
 C163 C 0.58341 0.08608 0.58254
 C164 C 0.42620 -0.10990 0.54433
 C165 C 0.41414 0.05967 0.55795
 C166 C 0.59540 -0.09679 0.58135
 O167 O 0.64343 -0.07500 0.49034
 O168 O 0.42343 0.05980 0.45917
 O169 O 0.59228 0.10410 0.48316
 O170 O 0.47935 -0.11678 0.45096
 O171 O 0.45133 -0.03409 0.42447
 O172 O 0.63895 0.02612 0.46528
 O173 O 0.57654 -0.10353 0.44836
 O174 O 0.50553 0.09352 0.44413
 Co175 Co 0.61628 -0.00830 0.52103
 Co176 Co 0.43506 -0.01247 0.48586
 Co177 Co 0.51992 0.08507 0.50700
 Co178 Co 0.52726 -0.10403 0.49959
 O179 O 0.52488 -0.00980 0.50352
 C180 C 0.62810 -0.09787 0.45270
 C181 C 0.45609 0.08908 0.43215
 C182 C 0.62846 0.07808 0.45672
 C183 C 0.46294 -0.08631 0.41696
 O184 O 0.57795 0.54905 0.03707
 O185 O 0.37317 0.42903 0.02096
 O186 O 0.40616 0.60512 0.00855
 O187 O 0.54825 0.37533 0.00862
 O188 O 0.37713 0.52482 0.03573
 O189 O 0.57176 0.45012 0.04426
 O190 O 0.44957 0.38823 0.04590
 O191 O 0.49442 0.58780 0.05279
 C192 C 0.54393 0.57743 0.06510
 C193 C 0.39777 0.39976 0.05232
 C194 C 0.37747 0.57801 0.03941
 C195 C 0.56768 0.39675 0.04440
 O196 O 0.58869 0.43282 -0.05642
 O197 O 0.38531 0.55363 -0.06239
 O198 O 0.55275 0.60720 -0.02639
 O199 O 0.41302 0.37576 -0.04053
 O200 O 0.39480 0.45197 -0.07868
 O201 O 0.58476 0.53681 -0.06568
 O202 O 0.50902 0.39265 -0.07529
 O203 O 0.46678 0.59710 -0.07219
 Co204 Co 0.57232 0.49202 -0.01092
 Co205 Co 0.39109 0.49016 -0.02101
 Co206 Co 0.47982 0.58807 -0.00989
 Co207 Co 0.48013 0.39458 -0.01502
 O208 O 0.48082 0.49132 -0.01429
 C209 C 0.56035 0.40257 -0.08506
 C210 C 0.41864 0.58730 -0.08643
 C211 C 0.57989 0.59041 -0.06215
 C212 C 0.39233 0.39796 -0.07596
 C213 C 1.15184 0.17600 0.20854
 C214 C 1.15712 0.13594 0.17442
 C215 C 1.10958 0.12228 0.14388
 C216 C 1.12131 0.09669 0.10211
 H217 H 1.19878 0.11705 0.16608
 H218 H 1.06654 0.13630 0.15377
 H219 H 1.11051 0.19591 0.21616
 H220 H 1.16519 0.08508 0.09254
 C221 C 1.13848 0.71911 0.68663
 C222 C 1.14294 0.66999 0.66194
 C223 C 1.10422 0.65538 0.62469
 C224 C 1.12220 0.61574 0.59321
 H225 H 1.17980 0.64210 0.66654
 H226 H 1.06333 0.67699 0.62227
 H227 H 1.10369 0.74926 0.68107
 H228 H 1.16395 0.59597 0.59645
 C229 C 0.71462 0.15195 0.70215
 C230 C 0.66449 0.15839 0.67756
 C231 C 0.65044 0.11789 0.64254
 C232 C 0.59743 0.11932 0.62208
 H233 H 0.63693 0.19566 0.68462
 H234 H 0.68119 0.08484 0.63110
 H235 H 0.73977 0.11294 0.69430
 H236 H 0.56481 0.14795 0.63765
 C237 C 0.67501 0.62264 0.19479
 C238 C 0.63219 0.63578 0.16642
 C239 C 0.61216 0.59537 0.12948
 C240 C 0.56324 0.60673 0.10841
 H241 H 0.61376 0.67930 0.16800
 H242 H 0.63871 0.55895 0.11770
 H243 H 0.69446 0.57965 0.19217
 H244 H 0.53649 0.64199 0.12232
 C245 C 0.82466 -0.22427 0.18320
 C246 C 0.84343 -0.16981 0.19064
 C247 C 0.88691 -0.14491 0.15612
 C248 C 0.89360 -0.08720 0.14811
 H249 H 0.82382 -0.14296 0.21853
 H250 H 0.90929 -0.17529 0.13233
 H251 H 0.84278 -0.24798 0.15270
 H252 H 0.87019 -0.05613 0.17048
 C253 C 0.85418 0.31094 0.69476
 C254 C 0.87307 0.30293 0.64715
 C255 C 0.90643 0.34492 0.62262
 C256 C 0.92097 0.33856 0.57398
 H257 H 0.86042 0.26449 0.62794
 H258 H 0.91698 0.38515 0.64060
 H259 H 0.87218 0.34658 0.71454
 H260 H 0.91184 0.29759 0.55650
 C261 C 0.33991 -0.20923 0.68837
 C262 C 0.33871 -0.18175 0.64607
 C263 C 0.38936 -0.15954 0.61877
 C264 C 0.38130 -0.13495 0.57620
 H265 H 0.29789 -0.17473 0.63042
 H266 H 0.43156 -0.16333 0.63257
 H267 H 0.37941 -0.21316 0.70659
 H268 H 0.33835 -0.13170 0.56366
 C269 C 0.34393 0.27569 0.19478
 C270 C 0.33368 0.30933 0.15677
 C271 C 0.37840 0.33767 0.12552
 C272 C 0.36166 0.37499 0.09188
 H273 H 0.28971 0.31587 0.14764
 H274 H 0.42288 0.32589 0.12797
 H275 H 0.38677 0.27164 0.20715
 H276 H 0.31671 0.38593 0.09118
 C277 C 0.84659 0.20509 -0.17436
 C278 C 0.85414 0.14897 -0.15548
 C279 C 0.88284 0.13904 -0.11380
 C280 C 0.88243 0.08268 -0.09414
 H281 H 0.83538 0.11153 -0.17210
 H282 H 0.90258 0.17507 -0.09569
 H283 H 0.86686 0.24179 -0.15756
 H284 H 0.86091 0.04793 -0.11254
 C285 C 0.81355 0.67920 0.32137
 C286 C 0.80723 0.63760 0.35528
 C287 C 0.85092 0.63054 0.39108
 C288 C 0.84234 0.59718 0.43043
 H289 H 0.76993 0.60939 0.35689
 H290 H 0.89152 0.65274 0.38458
 H291 H 0.84919 0.70944 0.32230
 H292 H 0.80152 0.57568 0.43751
 C293 C 0.30665 0.14034 0.32350
 C294 C 0.35842 0.15235 0.33899
 C295 C 0.38194 0.11580 0.37712
 C296 C 0.43524 0.12262 0.39119
 H297 H 0.38316 0.18890 0.32414
 H298 H 0.35437 0.08318 0.39484
 H299 H 0.28421 0.10176 0.33758
 H300 H 0.46358 0.15420 0.37311
 C301 C 0.27116 0.66630 -0.18553
 C302 C 0.32569 0.66529 -0.17446
 C303 C 0.34476 0.62411 -0.13780
 C304 C 0.39954 0.62119 -0.12751
 H305 H 0.35637 0.69446 -0.19262
 H306 H 0.31328 0.59779 -0.11759
 H307 H 0.24160 0.63472 -0.16887
 H308 H 0.43070 0.64828 -0.14734
 C309 C 1.21041 -0.15254 -0.18804
 C310 C 1.16400 -0.16111 -0.15954
 C311 C 1.14444 -0.11967 -0.12317
 C312 C 1.09868 -0.13391 -0.09554
 H313 H 1.13765 -0.19957 -0.16473
 H314 H 1.16595 -0.07790 -0.11964
 H315 H 1.23988 -0.11693 -0.18241
 H316 H 1.07932 -0.17697 -0.09807
 C317 C 1.22578 0.32082 0.32308
 C318 C 1.18380 0.36006 0.31945
 C319 C 1.16344 0.39539 0.36025
 C320 C 1.11169 0.41991 0.36003
 H321 H 1.15937 0.36128 0.28757
 H322 H 1.18726 0.39518 0.39248
 H323 H 1.25206 0.32067 0.35383
 H324 H 1.08727 0.41802 0.32818
 C325 C 0.66626 -0.19970 0.30182
 C326 C 0.68854 -0.17601 0.34048
 C327 C 0.65115 -0.14375 0.37518
 C328 C 0.66908 -0.12309 0.41666
 H329 H 0.73256 -0.18394 0.34847
 H330 H 0.60651 -0.13922 0.36741
 H331 H 0.62133 -0.19294 0.29615
 H332 H 0.71363 -0.12643 0.42481
 C333 C 0.71812 0.32695 -0.18984
 C334 C 0.66040 0.33487 -0.17689
 C335 C 0.64234 0.37198 -0.13928
 C336 C 0.58436 0.37517 -0.12581
 H337 H 0.62862 0.31022 -0.19504
 H338 H 0.67328 0.39555 -0.11923
 H339 H 0.74873 0.35362 -0.17193
 H340 H 0.55504 0.35063 -0.14692
 C341 C 1.15857 0.16478 -0.20615
 C342 C 1.12178 0.18143 -0.17061
 C343 C 1.09595 0.13804 -0.13631
 C344 C 1.06888 0.15454 -0.09529
 H345 H 1.11410 0.22772 -0.16473
 H346 H 1.10260 0.09179 -0.14325
 H347 H 1.16644 0.11838 -0.21135
 H348 H 1.06358 0.20078 -0.08775
 C349 C 1.23463 0.67243 0.31333
 C350 C 1.19397 0.68202 0.34712
 C351 C 1.16766 0.63458 0.37647
 C352 C 1.11699 0.64461 0.39827
 H353 H 1.17683 0.72597 0.35109
 H354 H 1.18907 0.59284 0.38033
 H355 H 1.25206 0.62874 0.30870
 H356 H 1.09660 0.68671 0.39285
 C357 C 0.65437 0.21754 0.32321
 C358 C 0.67648 0.18084 0.35483
 C359 C 0.64096 0.15244 0.39314
 C360 C 0.66227 0.10886 0.41886
 H361 H 0.72209 0.17286 0.35315
 H362 H 0.59722 0.16651 0.39992
 H363 H 0.60892 0.22625 0.32516
 H364 H 0.70479 0.09259 0.40982
 C365 C 0.70542 0.66153 -0.19501
 C366 C 0.66276 0.66831 -0.15930
 C367 C 0.63896 0.62069 -0.13366
 C368 C 0.60325 0.63207 -0.09392
 H369 H 0.65090 0.71254 -0.14890
 H370 H 0.65063 0.57605 -0.14275
 H371 H 0.71736 0.61728 -0.20532
 H372 H 0.59390 0.67756 -0.08548
 C373 C 0.83366 -0.17332 -0.16827
 C374 C 0.82587 -0.16983 -0.11850
 C375 C 0.86666 -0.14434 -0.09056
 C376 C 0.85274 -0.12720 -0.04365
 H377 H 0.78629 -0.18527 -0.10112
 H378 H 0.90884 -0.13480 -0.10635
 H379 H 0.86765 -0.14789 -0.18612
 H380 H 0.80828 -0.12732 -0.03111
 C381 C 0.80500 0.37276 0.30243
 C382 C 0.79574 0.40048 0.34374
 C383 C 0.84255 0.42926 0.36712
 C384 C 0.83605 0.44287 0.41322
 H385 H 0.75473 0.39643 0.36306
 H386 H 0.88425 0.43189 0.34876
 H387 H 0.84509 0.37848 0.28203
 H388 H 0.79450 0.43860 0.43164
 C389 C 0.34036 -0.13719 0.28682
 C390 C 0.38532 -0.14628 0.31344
 C391 C 0.40932 -0.10081 0.34387
 C392 C 0.45074 -0.11647 0.37250
 H393 H 0.40072 -0.19088 0.31728
 H394 H 0.38790 -0.05899 0.34824
 H395 H 0.32501 -0.09322 0.28029
 H396 H 0.46985 -0.15951 0.36818
 C397 C 0.29145 0.33581 -0.21813
 C398 C 0.30824 0.33295 -0.17107
 C399 C 0.34012 0.37627 -0.14940
 C400 C 0.36399 0.36137 -0.10636
 H401 H 0.29913 0.29308 -0.15075
 H402 H 0.34707 0.41910 -0.16582
 H403 H 0.30801 0.37088 -0.24129
 H404 H 0.36073 0.31584 -0.09462
 C405 C 1.17726 -0.17136 0.19939
 C406 C 1.18884 -0.14348 0.15795
 C407 C 1.14172 -0.12292 0.12930
 C408 C 1.15156 -0.09409 0.08803
 H409 H 1.23228 -0.13885 0.14362
 H410 H 1.09818 -0.13266 0.14171
 H411 H 1.13302 -0.17644 0.21190
 H412 H 1.19492 -0.08272 0.07627
 C413 C 1.16791 0.32688 0.66790
 C414 C 1.12901 0.31319 0.63645
 C415 C 1.11377 0.35773 0.60093
 C416 C 1.08540 0.34576 0.56176
 H417 H 1.11090 0.26946 0.63568
 H418 H 1.12799 0.40229 0.60675
 H419 H 1.18855 0.36949 0.66559
 H420 H 1.07090 0.30155 0.55518
 C421 C 0.71693 -0.15375 0.71025
 C422 C 0.66566 -0.15834 0.68698
 C423 C 0.64898 -0.11631 0.65363
 C424 C 0.60900 -0.13157 0.62046
 H425 H 0.64085 -0.19832 0.69084
 H426 H 0.67127 -0.07465 0.65015
 H427 H 0.74451 -0.11655 0.70152
 H428 H 0.59314 -0.17636 0.62109
 C429 C 0.67552 0.36117 0.18517
 C430 C 0.63270 0.34518 0.15858
 C431 C 0.61565 0.38239 0.11889
 C432 C 0.58562 0.36018 0.08413
 H433 H 0.61178 0.30312 0.16474
 H434 H 0.62892 0.42802 0.11750
 H435 H 0.69941 0.40091 0.17639
 H436 H 0.57438 0.31401 0.08458
 C437 C 0.81275 0.22658 0.19345
 C438 C 0.80189 0.17882 0.16825
 C439 C 0.84342 0.15567 0.13216
 C440 C 0.82690 0.11535 0.10149
 H441 H 0.76090 0.15703 0.17352
 H442 H 0.88741 0.17043 0.13142
 H443 H 0.85175 0.25117 0.18578
 H444 H 0.78247 0.10199 0.10221
 C445 C 0.85882 0.73507 0.69595
 C446 C 0.88171 0.68026 0.68478
 C447 C 0.90614 0.66653 0.64003
 C448 C 0.92140 0.60838 0.63164
 H449 H 0.87704 0.64528 0.71119
 H450 H 0.90839 0.69893 0.61140
 H451 H 0.87152 0.77303 0.67434
 H452 H 0.91970 0.57760 0.66154
 C453 C 0.31596 0.20290 0.66528
 C454 C 0.32652 0.14789 0.65108
 C455 C 0.36918 0.13423 0.61214
 C456 C 0.37529 0.07878 0.59768
 H457 H 0.30234 0.11179 0.66719
 H458 H 0.39429 0.16906 0.59484
 H459 H 0.33992 0.23852 0.64797
 H460 H 0.34927 0.04485 0.61537
 C461 C 0.33359 0.73099 0.15741
 C462 C 0.32066 0.68171 0.13480
 C463 C 0.35202 0.66128 0.09156
 C464 C 0.34362 0.60616 0.07780
 H465 H 0.28724 0.65338 0.15015
 H466 H 0.38408 0.68889 0.07342
 H467 H 0.36440 0.76179 0.14156
 H468 H 0.31315 0.57853 0.09794
   
