data_POSCAR
  _audit_creation_date              2014-09-24
  _audit_creation_method            'ToBaCCo'
  _symmetry_space_group_name_H-M    'P1'
  _symmetry_Int_Tables_number       1
  _symmetry_cell_setting            triclinic
  loop_
  _symmetry_equiv_pos_as_xyz
 x,y,z
_cell_length_a 33.4568
_cell_length_b 33.2058
_cell_length_c 13.7079
_cell_angle_alpha 90.156300
_cell_angle_beta 89.603300
_cell_angle_gamma 119.681700
loop_
  _atom_site_label
  _atom_site_type_symbol
  _atom_site_fract_x
  _atom_site_fract_y
  _atom_site_fract_z
O1 O 0.19105 0.44526 0.39563
 O2 O 0.26423 0.42233 0.55710
 O3 O 0.18470 0.41971 0.57928
 O4 O 0.26760 0.44414 0.37767
 O5 O 0.30547 0.51775 0.42224
 O6 O 0.22144 0.49374 0.61999
 O7 O 0.30157 0.49583 0.60230
 O8 O 0.22783 0.51899 0.43902
 Cu9 Cu 0.22265 0.42533 0.47403
 Cu10 Cu 0.26756 0.51397 0.52573
 C11 C 0.19713 0.48606 0.38921
 C12 C 0.29657 0.45538 0.60328
 C13 C 0.18825 0.45274 0.63221
 C14 C 0.30153 0.48489 0.36814
 O15 O 0.54745 -0.25964 0.39747
 O16 O 0.54620 -0.17990 0.58433
 O17 O 0.55595 -0.25360 0.59165
 O18 O 0.54877 -0.18164 0.39564
 O19 O 0.47281 -0.22166 0.40450
 O20 O 0.48025 -0.29328 0.60186
 O21 O 0.47010 -0.21874 0.58301
 O22 O 0.47146 -0.29855 0.40121
 Cu23 Cu 0.55723 -0.21549 0.49264
 Cu24 Cu 0.46650 -0.26418 0.50102
 C25 C 0.50927 -0.29083 0.36369
 C26 C 0.50757 -0.18485 0.61208
 C27 C 0.51955 -0.28402 0.63314
 C28 C 0.50962 -0.18867 0.36840
 O29 O 1.16591 0.72754 0.59076
 O30 O 1.23662 0.82143 0.42130
 O31 O 1.16898 0.73573 0.40215
 O32 O 1.22914 0.81326 0.60970
 O33 O 1.28101 0.79058 0.60267
 O34 O 1.22010 0.71199 0.39953
 O35 O 1.28829 0.79849 0.41416
 O36 O 1.21691 0.70362 0.58544
 Cu37 Cu 1.19497 0.77682 0.50565
 Cu38 Cu 1.25695 0.74904 0.49973
 C39 C 1.17914 0.69930 0.61619
 C40 C 1.27473 0.82664 0.39057
 C41 C 1.18334 0.70947 0.36832
 C42 C 1.26586 0.81553 0.64038
 O43 O 0.80947 0.53179 0.40473
 O44 O 0.74538 0.55115 0.60011
 O45 O 0.81095 0.53132 0.59298
 O46 O 0.73764 0.54361 0.40958
 O47 O 0.68933 0.46862 0.42478
 O48 O 0.76442 0.45534 0.59780
 O49 O 0.70136 0.47555 0.61973
 O50 O 0.76384 0.45606 0.41696
 Cu51 Cu 0.78025 0.54702 0.50012
 Cu52 Cu 0.72341 0.45656 0.51237
 C53 C 0.79923 0.49085 0.38095
 C54 C 0.71434 0.51693 0.64673
 C55 C 0.80061 0.49125 0.62472
 C56 C 0.70022 0.50757 0.38761
 O57 O 0.42982 0.18212 0.58261
 O58 O 0.45027 0.26968 0.39345
 O59 O 0.44155 0.18650 0.39260
 O60 O 0.43121 0.26003 0.57928
 O61 O 0.50615 0.29378 0.60462
 O62 O 0.51589 0.21816 0.42234
 O63 O 0.52488 0.30221 0.42066
 O64 O 0.50444 0.21560 0.61095
 Cu65 Cu 0.43082 0.22094 0.48305
 Cu66 Cu 0.52057 0.26067 0.51592
 C67 C 0.46341 0.18524 0.63150
 C68 C 0.49131 0.30185 0.37734
 C69 C 0.48009 0.18895 0.37761
 C70 C 0.46696 0.28948 0.62356
 O71 O 0.82363 0.24957 0.58335
 O72 O 0.73426 0.18372 0.39862
 O73 O 0.81883 0.25585 0.39275
 O74 O 0.74655 0.17329 0.58160
 O75 O 0.71466 0.21646 0.61362
 O76 O 0.78848 0.29996 0.42747
 O77 O 0.70087 0.22480 0.43653
 O78 O 0.78951 0.29006 0.62110
 Cu79 Cu 0.78439 0.21187 0.48435
 Cu80 Cu 0.74637 0.26341 0.52312
 C81 C 0.82041 0.27935 0.63657
 C82 C 0.70104 0.19188 0.38954
 C83 C 0.81711 0.29271 0.38046
 C84 C 0.71848 0.18080 0.62991
 N85 N 0.94747 0.53298 0.10986
 N86 N 0.91254 0.53968 0.12938
 N87 N 1.04853 0.56414 0.16507
 N88 N 1.08053 0.59055 0.22797
 N89 N 1.04328 0.58951 0.09858
 N90 N 1.07082 0.63415 0.11593
 N91 N 0.95143 0.50705 0.17694
 N92 N 0.91857 0.49469 0.24366
 C93 C 0.89434 0.51484 0.21163
 C94 C 1.09443 0.63393 0.19550
 N95 N 1.06155 0.45640 0.09990
 N96 N 1.09461 0.44702 0.12004
 N97 N 0.96310 0.42690 0.17822
 N98 N 0.92940 0.40363 0.24083
 N99 N 0.96583 0.39896 0.11384
 N100 N 0.93415 0.35549 0.13161
 N101 N 1.05930 0.48366 0.16692
 N102 N 1.09133 0.49418 0.23350
 Mn103 Mn 1.00554 0.49539 0.17281
 C104 C 1.11343 0.47174 0.20193
 C105 C 0.91180 0.35938 0.21058
 N106 N 1.03737 0.58420 -0.11188
 N107 N 1.06733 0.62780 -0.13215
 N108 N 0.94222 0.49925 -0.16331
 N109 N 0.90984 0.48896 -0.22862
 N110 N 0.94225 0.52866 -0.09875
 N111 N 0.91035 0.53962 -0.11906
 N112 N 1.03845 0.55628 -0.17870
 N113 N 1.07013 0.58007 -0.24531
 Mn114 Mn 0.99270 0.55922 -0.00061
 C115 C 1.08774 0.62435 -0.21448
 C116 C 0.88999 0.51379 -0.19857
 N117 N 0.95991 0.39395 -0.09472
 N118 N 0.93012 0.34940 -0.10058
 N119 N 1.04903 0.47618 -0.17849
 N120 N 1.08066 0.49021 -0.24744
 N121 N 1.05565 0.45144 -0.11260
 N122 N 1.09158 0.44671 -0.13700
 N123 N 0.95278 0.41721 -0.16331
 N124 N 0.91780 0.38850 -0.21917
 Mn125 Mn 1.01103 0.42493 0.00160
 Mn126 Mn 0.99532 0.48708 -0.17204
 Cl127 Cl 1.00120 0.49162 0.00037
 C128 C 0.90435 0.34641 -0.17813
 C129 C 1.10674 0.47167 -0.22089
 N130 N 0.47061 0.41765 0.09045
 N131 N 0.45842 0.37397 0.10904
 N132 N 0.44354 0.49077 0.15805
 N133 N 0.41777 0.49767 0.22145
 N134 N 0.41828 0.46268 0.08824
 N135 N 0.37426 0.44906 0.10312
 N136 N 0.49541 0.44470 0.16206
 N137 N 0.50168 0.42032 0.23025
 C138 C 0.47898 0.37647 0.19520
 C139 C 0.37489 0.47200 0.18546
 N140 N 0.55586 0.60860 0.10827
 N141 N 0.55584 0.64820 0.11266
 N142 N 0.57790 0.53265 0.17500
 N143 N 0.59865 0.52042 0.23994
 N144 N 0.60771 0.56321 0.11360
 N145 N 0.65009 0.57334 0.13617
 N146 N 0.52667 0.57888 0.17187
 N147 N 0.50636 0.59786 0.22217
 Mn148 Mn 0.51086 0.51180 0.16765
 C149 C 0.52596 0.64141 0.18561
 C150 C 0.64341 0.54591 0.21452
 N151 N 0.42519 0.46812 -0.12176
 N152 N 0.38307 0.44581 -0.15658
 N153 N 0.50784 0.45515 -0.18209
 N154 N 0.52213 0.43613 -0.24766
 N155 N 0.47792 0.42383 -0.12178
 N156 N 0.46990 0.38200 -0.14707
 N157 N 0.45368 0.49783 -0.18679
 N158 N 0.43092 0.49537 -0.26720
 Mn159 Mn 0.44775 0.44270 -0.01624
 C160 C 0.38659 0.46416 -0.24573
 C161 C 0.49863 0.39092 -0.22436
 N162 N 0.61454 0.56784 -0.09626
 N163 N 0.65498 0.57009 -0.09325
 N164 N 0.53754 0.58781 -0.17242
 N165 N 0.52191 0.61011 -0.22623
 N166 N 0.56269 0.61402 -0.10024
 N167 N 0.56434 0.65450 -0.10202
 N168 N 0.59041 0.54245 -0.17031
 N169 N 0.61421 0.52715 -0.22053
 Mn170 Mn 0.58570 0.58882 0.00618
 Mn171 Mn 0.52235 0.52103 -0.17878
 Cl172 Cl 0.51653 0.51606 -0.00533
 C173 C 0.65464 0.54554 -0.17218
 C174 C 0.53983 0.65198 -0.18180
 N175 N 0.39796 -0.05616 0.09953
 N176 N 0.35502 -0.08031 0.13021
 N177 N 0.46921 0.04388 0.17226
 N178 N 0.47962 0.07777 0.23454
 N179 N 0.43829 0.04074 0.10948
 N180 N 0.42642 0.07253 0.12792
 N181 N 0.42633 -0.05294 0.16926
 N182 N 0.40247 -0.07477 0.24828
 C183 C 0.35791 -0.09317 0.22169
 C184 C 0.45288 0.09527 0.20548
 N185 N 0.58837 0.05498 0.10121
 N186 N 0.63096 0.08650 0.12316
 N187 N 0.51616 -0.04554 0.16216
 N188 N 0.50740 -0.07903 0.22445
 N189 N 0.54616 -0.04220 0.09553
 N190 N 0.55945 -0.07310 0.11250
 N191 N 0.55947 0.05235 0.16972
 N192 N 0.58190 0.08274 0.23986
 Mn193 Mn 0.49293 -0.00046 0.16898
 C194 C 0.62631 0.10421 0.20845
 C195 C 0.53422 -0.09608 0.19229
 N196 N 0.43832 0.04488 -0.09833
 N197 N 0.42508 0.07604 -0.10326
 N198 N 0.42950 -0.04636 -0.17898
 N199 N 0.41155 -0.07794 -0.24755
 N200 N 0.39866 -0.05189 -0.11277
 N201 N 0.35783 -0.08713 -0.13669
 N202 N 0.46768 0.05078 -0.16825
 N203 N 0.47489 0.08640 -0.22435
 Mn204 Mn 0.41793 -0.00591 -0.00062
 C205 C 0.44768 0.10136 -0.18197
 C206 C 0.36724 -0.10305 -0.22038
 N207 N 0.54683 -0.03744 -0.11719
 N208 N 0.55971 -0.06818 -0.13881
 N209 N 0.55765 0.05925 -0.17027
 N210 N 0.57707 0.09400 -0.23195
 N211 N 0.58800 0.05926 -0.10980
 N212 N 0.62962 0.09382 -0.13093
 N213 N 0.51826 -0.03773 -0.18286
 N214 N 0.50989 -0.06953 -0.24977
 Mn215 Mn 0.56780 0.00852 -0.00764
 Mn216 Mn 0.49346 0.00673 -0.17593
 Cl217 Cl 0.49297 0.00204 -0.00358
 C218 C 0.53592 -0.08805 -0.22099
 C219 C 0.62150 0.11542 -0.20582
 N220 N 1.16805 0.49465 0.32739
 N221 N 1.14621 0.46671 0.25865
 N222 N 0.50883 0.68849 0.28251
 N223 N 0.50847 0.67207 0.20182
 N224 N 0.30079 -0.13702 0.33749
 N225 N 0.32285 -0.10093 0.29081
 N226 N 0.82963 0.48401 0.31787
 N227 N 0.85958 0.51768 0.26733
 N228 N 0.50005 0.33967 0.31420
 N229 N 0.47137 0.33662 0.25003
 N230 N 0.66243 0.16262 0.32922
 N231 N 0.66505 0.13615 0.26524
 N232 N 0.45489 0.16084 -0.28871
 N233 N 0.44449 0.14118 -0.20897
 N234 N 0.69945 0.52475 -0.27084
 N235 N 0.68996 0.53406 -0.18985
 N236 N 0.84554 0.29442 -0.28490
 N237 N 0.86630 0.30293 -0.20696
 N238 N 0.50566 -0.15091 -0.32728
 N239 N 0.53896 -0.12355 -0.27358
 N240 N 0.32684 0.44778 -0.35387
 N241 N 0.35462 0.43771 -0.31957
 N242 N 1.15014 0.66121 -0.32264
 N243 N 1.12041 0.66349 -0.26841
 N244 N 0.83090 0.48602 -0.31145
 N245 N 0.85687 0.51836 -0.25416
 N246 N 0.46355 0.32005 -0.30841
 N247 N 0.49984 0.35694 -0.28507
 N248 N 0.68869 0.14725 -0.30103
 N249 N 0.65578 0.15102 -0.26443
 N250 N 1.15227 0.44437 -0.29986
 N251 N 1.14468 0.47735 -0.27929
 N252 N 0.52274 0.69825 -0.28418
 N253 N 0.52679 0.68606 -0.20172
 N254 N 0.29271 -0.15074 -0.28771
 N255 N 0.33483 -0.13933 -0.28080
 N256 N 0.50631 -0.15739 0.30209
 N257 N 0.53881 -0.13068 0.24482
 N258 N 0.33812 0.49345 0.30235
 N259 N 0.33470 0.46432 0.23783
 N260 N 1.15599 0.67358 0.30102
 N261 N 1.12514 0.67442 0.24889
 N262 N 0.48294 0.15654 0.31439
 N263 N 0.45043 0.13117 0.25692
 N264 N 0.66838 0.51056 0.32415
 N265 N 0.67921 0.54485 0.26792
 N266 N 0.84981 0.32817 0.31843
 N267 N 0.87570 0.32111 0.26097
   
