data_POSCAR
  _audit_creation_date              2014-09-24
  _audit_creation_method            'ToBaCCo'
  _symmetry_space_group_name_H-M    'P1'
  _symmetry_Int_Tables_number       1
  _symmetry_cell_setting            triclinic
  loop_
  _symmetry_equiv_pos_as_xyz
 x,y,z
_cell_length_a 55.9362
_cell_length_b 55.6876
_cell_length_c 55.7269
_cell_angle_alpha 94.820300
_cell_angle_beta 92.600800
_cell_angle_gamma 93.186100
loop_
  _atom_site_label
  _atom_site_type_symbol
  _atom_site_fract_x
  _atom_site_fract_y
  _atom_site_fract_z
C1 C 0.21488 0.50603 1.03810
 H2 H 0.21534 0.51861 1.02433
 C3 C 0.19856 0.50846 1.05622
 H4 H 0.18669 0.52317 1.05614
 C5 C 0.22954 0.47130 1.05410
 H6 H 0.24131 0.45656 1.05290
 C7 C 0.21342 0.47296 1.07253
 H8 H 0.21329 0.45945 1.08542
 N9 N 0.22998 0.48774 1.03739
 C10 C 0.28715 0.51252 0.99325
 H11 H 0.28677 0.49731 0.97980
 C12 C 0.30397 0.53184 0.99237
 H13 H 0.31645 0.53128 0.97807
 C14 C 0.27155 0.53122 1.02849
 H15 H 0.25916 0.53071 1.04277
 C16 C 0.28815 0.55091 1.02834
 H17 H 0.28816 0.56548 1.04249
 Zn18 Zn 0.24995 0.48499 1.01093
 N19 N 0.27125 0.51262 1.01099
 C20 C 0.23070 0.49839 0.96620
 N21 N 0.22956 0.48168 0.98263
 C22 C 0.21264 0.46303 0.98018
 C23 C 0.19595 0.46063 0.96059
 C24 C 0.21437 0.49668 0.94633
 C25 C 0.28522 0.45869 1.03155
 C26 C 0.30139 0.44060 1.03293
 C27 C 0.28403 0.42160 0.99508
 C28 C 0.26813 0.44005 0.99446
 N29 N 0.26907 0.45815 1.01251
 H30 H 0.24386 0.51343 0.96873
 H31 H 0.21189 0.45023 0.99374
 H32 H 0.18246 0.44580 0.95920
 H33 H 0.21541 0.51039 0.93368
 H34 H 0.28583 0.47352 1.04546
 H35 H 0.31432 0.44166 1.04810
 H36 H 0.28327 0.40760 0.98030
 H37 H 0.25554 0.44023 0.97921
 C38 C 0.30469 0.55138 1.01012
 C39 C 0.19742 0.49164 1.07372
 C40 C 0.30116 0.42187 1.01437
 C41 C 0.19652 0.47775 0.94344
 C42 C 0.78677 0.53447 -0.03815
 H43 H 0.78756 0.54840 -0.02334
 C44 C 0.80298 0.53574 -0.05638
 H45 H 0.81612 0.55085 -0.05545
 C46 C 0.76916 0.49741 -0.05662
 H47 H 0.75636 0.48220 -0.05633
 C48 C 0.78508 0.49793 -0.07521
 H49 H 0.78410 0.48312 -0.08919
 N50 N 0.77034 0.51550 -0.03854
 C51 C 0.71633 0.54129 0.00973
 H52 H 0.71658 0.52749 0.02229
 C53 C 0.70020 0.55945 0.01225
 H54 H 0.68815 0.55948 0.02691
 C55 C 0.73132 0.55731 -0.02506
 H56 H 0.74313 0.55610 -0.03987
 C57 C 0.71537 0.57576 -0.02330
 H58 H 0.71529 0.58873 -0.03673
 Zn59 Zn 0.75111 0.51399 -0.01159
 N60 N 0.73151 0.54056 -0.00864
 C61 C 0.77278 0.53140 0.03448
 N62 N 0.77229 0.51390 0.01586
 C63 C 0.78790 0.49604 0.01562
 C64 C 0.80460 0.49502 0.03481
 C65 C 0.78929 0.53113 0.05404
 C66 C 0.71351 0.48343 -0.03337
 C67 C 0.69665 0.46381 -0.03585
 C68 C 0.71470 0.44927 -0.00003
 C69 C 0.73121 0.46917 0.00174
 N70 N 0.73036 0.48574 -0.01484
 H71 H 0.76063 0.54578 0.03408
 H72 H 0.78737 0.48259 0.00040
 H73 H 0.81685 0.48062 0.03413
 H74 H 0.78947 0.54527 0.06863
 H75 H 0.71298 0.49708 -0.04607
 H76 H 0.68326 0.46250 -0.05061
 H77 H 0.71555 0.43649 0.01354
 H78 H 0.74432 0.47160 0.01670
 C79 C 0.69939 0.57689 -0.00454
 C80 C 0.80248 0.51714 -0.07510
 C81 C 0.69697 0.44649 -0.01891
 C82 C 0.80552 0.51276 0.05436
 C83 C -0.00705 0.28261 0.45032
 H84 H -0.01996 0.28224 0.46419
 C85 C -0.00912 0.29870 0.43258
 H86 H -0.02388 0.31048 0.43304
 C87 C 0.02818 0.26802 0.43379
 H88 H 0.04295 0.25639 0.43466
 C89 C 0.02692 0.28397 0.41574
 H90 H 0.04078 0.28410 0.40279
 N91 N 0.01134 0.26770 0.45064
 C92 C -0.01348 0.21147 0.49498
 H93 H 0.00149 0.21241 0.50809
 C94 C -0.03262 0.19459 0.49637
 H95 H -0.03218 0.18263 0.51070
 C96 C -0.03175 0.22578 0.46017
 H97 H -0.03116 0.23772 0.44588
 C98 C -0.05128 0.20908 0.46082
 H99 H -0.06564 0.20853 0.44706
 Zn100 Zn 0.01374 0.24852 0.47696
 N101 N -0.01348 0.22681 0.47726
 C102 C -0.00069 0.26900 0.52218
 N103 N 0.01613 0.26995 0.50535
 C104 C 0.03440 0.28727 0.50757
 C105 C 0.03638 0.30446 0.52740
 C106 C 0.00059 0.28584 0.54230
 C107 C 0.04106 0.21266 0.45606
 C108 C 0.05925 0.19648 0.45476
 C109 C 0.07671 0.21563 0.49251
 C110 C 0.05818 0.23145 0.49307
 N111 N 0.04077 0.22961 0.47506
 H112 H -0.01543 0.25553 0.51983
 H113 H 0.04731 0.28785 0.49371
 H114 H 0.05097 0.31819 0.52866
 H115 H -0.01313 0.28487 0.55532
 H116 H 0.02676 0.21134 0.44219
 H117 H 0.05882 0.18285 0.43968
 H118 H 0.09010 0.21710 0.50730
 H119 H 0.05736 0.24466 0.50830
 C120 C -0.05189 0.19321 0.47914
 C121 C 0.00822 0.29988 0.41508
 C122 C 0.07722 0.19760 0.47334
 C123 C 0.01922 0.30400 0.54504
 C124 C 0.96441 0.71698 0.55120
 H125 H 0.95066 0.71602 0.53681
 C126 C 0.96293 0.70101 0.56915
 H127 H 0.94782 0.68790 0.56844
 C128 C 1.00133 0.73461 0.56875
 H129 H 1.01657 0.74730 0.56817
 C130 C 1.00060 0.71891 0.58704
 H131 H 1.01528 0.71994 0.60050
 N132 N 0.98345 0.73324 0.55122
 C133 C 0.95932 0.78613 0.50351
 H134 H 0.97341 0.78530 0.49084
 C135 C 0.94135 0.80225 0.50104
 H136 H 0.94178 0.81372 0.48629
 C137 C 0.94231 0.77251 0.53847
 H138 H 0.94302 0.76120 0.55328
 C139 C 0.92402 0.78851 0.53677
 H140 H 0.91067 0.78914 0.55025
 Zn141 Zn 0.98553 0.75159 0.52426
 N142 N 0.95943 0.77158 0.52190
 C143 C 0.96869 0.72861 0.47832
 N144 N 0.98568 0.72928 0.49668
 C145 C 1.00310 0.71322 0.49646
 C146 C 1.00429 0.69593 0.47700
 C147 C 0.96917 0.71154 0.45849
 C148 C 1.01628 0.78985 0.54517
 C149 C 1.03586 0.80671 0.54681
 C150 C 1.05018 0.78677 0.51051
 C151 C 1.03032 0.77032 0.50956
 N152 N 1.01385 0.77214 0.52674
 H153 H 0.95461 0.74111 0.47908
 H154 H 1.01614 0.71392 0.51148
 H155 H 1.01840 0.68339 0.47727
 H156 H 0.95549 0.71130 0.44407
 H157 H 1.00270 0.79113 0.55837
 H158 H 1.03724 0.82085 0.56146
 H159 H 1.06284 0.78517 0.49642
 H160 H 1.02782 0.75654 0.49470
 C161 C 0.92344 0.80373 0.51789
 C162 C 0.98139 0.70155 0.58718
 C163 C 1.05303 0.80545 0.52917
 C164 C 0.98718 0.69491 0.45764
 C165 C 0.46228 0.00320 0.28653
 H166 H 0.47633 -0.00939 0.28574
 C167 C 0.44419 0.00072 0.30272
 H168 H 0.44451 -0.01396 0.31428
 C169 C 0.44544 0.03798 0.27276
 H170 H 0.44625 0.05273 0.26135
 C171 C 0.42703 0.03624 0.28880
 H172 H 0.41371 0.04963 0.28938
 N173 N 0.46252 0.02151 0.27187
 C174 C 0.50624 -0.00389 0.21332
 H175 H 0.51937 0.01120 0.21392
 C176 C 0.50733 -0.02333 0.19599
 H177 H 0.52152 -0.02287 0.18342
 C178 C 0.47172 -0.02215 0.22897
 H179 H 0.45764 -0.02143 0.24159
 C180 C 0.47206 -0.04199 0.21188
 H181 H 0.45821 -0.05637 0.21187
 Zn182 Zn 0.48870 0.02393 0.25171
 N183 N 0.48880 -0.00373 0.22951
 C184 C 0.53339 0.00955 0.27018
 N185 N 0.51698 0.02666 0.27203
 C186 C 0.51942 0.04517 0.28965
 C187 C 0.53894 0.04696 0.30639
 C188 C 0.55318 0.01065 0.28651
 C189 C 0.46769 0.05058 0.21721
 C190 C 0.46617 0.06852 0.20127
 C191 C 0.50385 0.08680 0.21876
 C192 C 0.50460 0.06852 0.23445
 N193 N 0.48673 0.05081 0.23329
 H194 H 0.53088 -0.00538 0.25647
 H195 H 0.50590 0.05832 0.29096
 H196 H 0.54031 0.06167 0.32048
 H197 H 0.56579 -0.00340 0.28489
 H198 H 0.45394 0.03604 0.21641
 H199 H 0.45104 0.06765 0.18833
 H200 H 0.51852 0.10043 0.21963
 H201 H 0.51984 0.06810 0.24699
 C202 C 0.49006 -0.04283 0.19499
 C203 C 0.42630 0.01744 0.30413
 C204 C 0.48461 0.08676 0.20163
 C205 C 0.55603 0.02939 0.30511
 C206 C 0.53787 -0.04356 0.71165
 H207 H 0.52347 -0.05748 0.71030
 C208 C 0.55617 -0.04473 0.69544
 H209 H 0.55573 -0.05975 0.68175
 C210 C 0.55516 -0.00657 0.73059
 H211 H 0.55438 0.00859 0.74389
 C212 C 0.57381 -0.00700 0.71474
 H213 H 0.58731 0.00782 0.71627
 N214 N 0.53762 -0.02465 0.72871
 C215 C 0.48947 -0.04996 0.78181
 H216 H 0.47667 -0.03610 0.78169
 C217 C 0.48727 -0.06789 0.79774
 H218 H 0.47259 -0.06768 0.80975
 C219 C 0.52464 -0.06629 0.76682
 H220 H 0.53946 -0.06527 0.75511
 C221 C 0.52321 -0.08450 0.78260
 H222 H 0.53691 -0.09749 0.78265
 Zn223 Zn 0.51054 -0.02296 0.74778
 N224 N 0.50791 -0.04947 0.76677
 C225 C 0.46502 -0.03983 0.72530
 N226 N 0.48338 -0.02263 0.72631
 C227 C 0.48352 -0.00479 0.71111
 C228 C 0.46445 -0.00341 0.69437
 C229 C 0.44557 -0.03919 0.70873
 C230 C 0.53133 0.00748 0.78651
 C231 C 0.53348 0.02729 0.80373
 C232 C 0.49788 0.04228 0.78551
 C233 C 0.49642 0.02218 0.76863
 N234 N 0.51308 0.00533 0.76936
 H235 H 0.46550 -0.05422 0.73713
 H236 H 0.49854 0.00842 0.71204
 H237 H 0.46502 0.01101 0.68250
 H238 H 0.43116 -0.05306 0.70818
 H239 H 0.54409 -0.00640 0.78692
 H240 H 0.54807 0.02852 0.81730
 H241 H 0.48430 0.05534 0.78470
 H242 H 0.48168 0.01987 0.75529
 C243 C 0.50445 -0.08532 0.79851
 C244 C 0.57430 -0.02609 0.69663
 C245 C 0.51653 0.04498 0.80346
 C246 C 0.44512 -0.02076 0.69299
 C247 C 0.22127 -0.02109 0.50674
 C248 C 0.23511 -0.00087 0.50071
 C249 C 0.22385 0.02005 0.49526
 C250 C 0.19885 0.02102 0.49606
 C251 C 0.18524 0.00052 0.50189
 C252 C 0.19620 -0.02068 0.50712
 C253 C 0.26143 -0.00159 0.50019
 C254 C 0.27306 0.00246 0.47896
 C255 C 0.29807 0.00153 0.47824
 C256 C 0.31128 -0.00306 0.49925
 C257 C 0.29997 -0.00688 0.52073
 C258 C 0.27492 -0.00634 0.52096
 H259 H 0.23011 -0.03721 0.51077
 H260 H 0.23468 0.03562 0.49077
 H261 H 0.26252 0.00601 0.46299
 H262 H 0.26583 -0.00928 0.53731
 H263 H 0.16595 0.00105 0.50233
 H264 H 0.33058 -0.00360 0.49891
 C265 C 0.77292 -0.02061 0.50270
 C266 C 0.76168 0.00068 0.49847
 C267 C 0.77555 0.02139 0.49372
 C268 C 0.80062 0.02105 0.49337
 C269 C 0.81155 -0.00048 0.49738
 C270 C 0.79794 -0.02143 0.50196
 C271 C 0.73535 0.00132 0.49905
 C272 C 0.72367 -0.00411 0.51987
 C273 C 0.69867 -0.00320 0.52072
 C274 C 0.68547 0.00270 0.50018
 C275 C 0.69684 0.00789 0.47908
 C276 C 0.72191 0.00742 0.47879
 H277 H 0.76209 -0.03654 0.50625
 H278 H 0.76676 0.03778 0.49064
 H279 H 0.73420 -0.00867 0.53547
 H280 H 0.73106 0.01143 0.46274
 H281 H 0.83085 -0.00091 0.49698
 H282 H 0.66618 0.00322 0.50061
 C283 C 0.52224 0.27684 0.99238
 C284 C 0.50149 0.26308 0.99715
 C285 C 0.48000 0.27438 1.00083
 C286 C 0.47899 0.29939 0.99947
 C287 C 0.49999 0.31296 0.99488
 C288 C 0.52175 0.30194 0.99149
 C289 C 0.50229 0.23680 0.99837
 C290 C 0.49860 0.22665 1.02020
 C291 C 0.49959 0.20165 1.02161
 C292 C 0.50381 0.18692 1.00065
 C293 C 0.50723 0.19679 0.97856
 C294 C 0.50672 0.22189 0.97768
 H295 H 0.53877 0.26793 0.98973
 H296 H 0.46408 0.26356 1.00444
 H297 H 0.49527 0.23835 1.03608
 H298 H 0.50940 0.22992 0.96088
 H299 H 0.49944 0.33227 0.99406
 H300 H 0.50435 0.16762 1.00152
 C301 C 0.52174 0.72634 0.00126
 C302 C 0.49997 0.73754 0.00307
 C303 C 0.47872 0.72370 0.00588
 C304 C 0.47902 0.69858 0.00674
 C305 C 0.50101 0.68764 0.00515
 C306 C 0.52249 0.70129 0.00246
 C307 C 0.49940 0.76381 0.00194
 C308 C 0.50143 0.77379 -0.02022
 C309 C 0.50062 0.79881 -0.02153
 C310 C 0.49814 0.81369 -0.00023
 C311 C 0.49629 0.80397 0.02214
 C312 C 0.49674 0.77886 0.02301
 H313 H 0.53804 0.73724 -0.00089
 H314 H 0.46201 0.73256 0.00715
 H315 H 0.50339 0.76195 -0.03637
 H316 H 0.49525 0.77092 0.04001
 H317 H 0.50140 0.66830 0.00589
 H318 H 0.49766 0.83300 -0.00107
 C319 C 0.99705 0.52218 0.27871
 C320 C 1.00037 0.50122 0.26374
 C321 C 1.00324 0.47924 0.27381
 C322 C 1.00260 0.47799 0.29885
 C323 C 0.99949 0.49921 0.31364
 C324 C 0.99680 0.52140 0.30383
 C325 C 1.00076 0.50227 0.23744
 C326 C 1.02227 0.49965 0.22574
 C327 C 1.02284 0.50083 0.20069
 C328 C 1.00143 0.50423 0.18752
 C329 C 0.97969 0.50659 0.19895
 C330 C 0.97958 0.50582 0.22407
 H331 H 0.99492 0.53906 0.27071
 H332 H 1.00568 0.46315 0.26205
 H333 H 1.03851 0.49695 0.23628
 H334 H 0.96306 0.50769 0.23329
 H335 H 0.99913 0.49843 0.33296
 H336 H 1.00168 0.50494 0.16818
 C337 C -0.00218 0.52017 0.72655
 C338 C 0.00208 0.49848 0.73669
 C339 C 0.00691 0.47795 0.72174
 C340 C 0.00726 0.47883 0.69664
 C341 C 0.00329 0.50079 0.68680
 C342 C -0.00133 0.52160 0.70154
 C343 C 0.00142 0.49725 0.76299
 C344 C -0.01983 0.50141 0.77472
 C345 C -0.02072 0.50004 0.79972
 C346 C 0.00017 0.49496 0.81288
 C347 C 0.02169 0.49107 0.80145
 C348 C 0.02205 0.49196 0.77635
 H349 H -0.00581 0.53594 0.73826
 H350 H 0.01000 0.46125 0.72974
 H351 H -0.03568 0.50539 0.76422
 H352 H 0.03840 0.48895 0.76714
 H353 H 0.00372 0.50167 0.66749
 H354 H -0.00029 0.49413 0.83219
 N355 N 0.12690 0.16165 0.49333
 C356 C 0.12637 0.14350 0.47549
 N357 N 0.11028 0.14350 0.45655
 N358 N 0.09511 0.16104 0.45556
 C359 C 0.09538 0.17919 0.47350
 N360 N 0.11172 0.17920 0.49233
 C361 C 0.14097 0.12334 0.47773
 C362 C 0.15224 0.10579 0.48009
 C363 C 0.16438 0.08419 0.48345
 N364 N 0.15155 0.06378 0.48768
 N365 N 0.16254 0.04375 0.49147
 C366 C 0.18679 0.04333 0.49118
 N367 N 0.19960 0.06387 0.48684
 N368 N 0.18859 0.08396 0.48306
 N369 N 0.64904 0.61216 0.01619
 C370 C 0.64630 0.62724 -0.00146
 N371 N 0.66134 0.62629 -0.01987
 N372 N 0.67856 0.61065 -0.02062
 C373 C 0.68127 0.59534 -0.00305
 N374 N 0.66621 0.59654 0.01543
 C375 C 0.62646 0.64250 -0.00151
 C376 C 0.60893 0.65415 -0.00132
 C377 C 0.58710 0.66649 -0.00078
 N378 N 0.58715 0.69079 -0.00143
 N379 N 0.56666 0.70193 -0.00054
 C380 C 0.54542 0.68915 0.00106
 N381 N 0.54558 0.66482 0.00165
 N382 N 0.56601 0.65371 0.00075
 N383 N 0.87335 -0.15773 0.53270
 C384 C 0.87275 -0.14379 0.51389
 N385 N 0.88834 -0.14740 0.49623
 N386 N 0.90411 -0.16436 0.49733
 C387 C 0.90496 -0.17832 0.51617
 N388 N 0.88914 -0.17475 0.53378
 C389 C 0.85721 -0.12417 0.51340
 C390 C 0.84537 -0.10681 0.51247
 C391 C 0.83291 -0.08513 0.51074
 N392 N 0.84559 -0.06406 0.50871
 N393 N 0.83441 -0.04389 0.50619
 C394 C 0.81010 -0.04397 0.50558
 N395 N 0.79741 -0.06518 0.50775
 N396 N 0.80862 -0.08543 0.51026
 N397 N 0.35391 0.38911 1.03228
 C398 C 0.35511 0.37244 1.01329
 N399 N 0.33820 0.37143 0.99496
 N400 N 0.32070 0.38674 0.99557
 C401 C 0.31953 0.40366 1.01448
 N402 N 0.33643 0.40441 1.03288
 C403 C 0.37526 0.35763 1.01161
 C404 C 0.39290 0.34624 1.00996
 C405 C 0.41471 0.33402 1.00766
 N406 N 0.41503 0.30980 1.00873
 N407 N 0.43544 0.29873 1.00626
 C408 C 0.45622 0.31150 1.00263
 N409 N 0.45569 0.33576 1.00162
 N410 N 0.43535 0.34681 1.00409
 N411 N 0.89224 0.15525 0.46319
 C412 C 0.89177 0.14058 0.48142
 N413 N 0.90951 0.14336 0.49896
 N414 N 0.92721 0.16026 0.49833
 C415 C 0.92789 0.17498 0.48010
 N416 N 0.90997 0.17219 0.46258
 C417 C 0.87364 0.12134 0.48160
 C418 C 0.85944 0.10436 0.48234
 C419 C 0.84396 0.08319 0.48392
 N420 N 0.85357 0.06149 0.48475
 N421 N 0.83970 0.04180 0.48741
 C422 C 0.81567 0.04302 0.48937
 N423 N 0.80605 0.06485 0.48836
 N424 N 0.81996 0.08461 0.48572
 N425 N 0.35571 0.58972 -0.00790
 C426 C 0.35780 0.60765 0.01020
 N427 N 0.34223 0.60742 0.02814
 N428 N 0.32512 0.58975 0.02797
 C429 C 0.32302 0.57163 0.00991
 N430 N 0.33863 0.57207 -0.00806
 C431 C 0.37727 0.62563 0.01098
 C432 C 0.39443 0.63975 0.01124
 C433 C 0.41580 0.65521 0.01107
 N434 N 0.41473 0.67926 0.00921
 N435 N 0.43479 0.69318 0.00813
 C436 C 0.45659 0.68351 0.00881
 N437 N 0.45745 0.65942 0.01078
 N438 N 0.43746 0.64554 0.01188
 N439 N 0.10613 -0.15904 0.51122
 C440 C 0.10787 -0.14011 0.52827
 N441 N 0.09207 -0.13933 0.54602
 N442 N 0.07499 -0.15689 0.54663
 C443 C 0.07301 -0.17584 0.52946
 N444 N 0.08905 -0.17660 0.51183
 C445 C 0.12489 -0.12019 0.52639
 C446 C 0.13842 -0.10298 0.52418
 C447 C 0.15349 -0.08194 0.52085
 N448 N 0.14351 -0.06075 0.51772
 N449 N 0.15714 -0.04131 0.51364
 C450 C 0.18129 -0.04228 0.51251
 N451 N 0.19125 -0.06358 0.51578
 N452 N 0.17758 -0.08308 0.51985
 N453 N 0.66038 0.39302 0.99638
 C454 C 0.64269 0.39110 0.97877
 N455 N 0.64309 0.40693 0.96158
 N456 N 0.66060 0.42421 0.96204
 C457 C 0.67831 0.42636 0.97975
 N458 N 0.67789 0.41031 0.99683
 C459 C 0.62277 0.37383 0.97941
 C460 C 0.60546 0.36012 0.98043
 C461 C 0.58418 0.34489 0.98222
 N462 N 0.56264 0.35476 0.98332
 N463 N 0.54286 0.34103 0.98596
 C464 C 0.54382 0.31689 0.98761
 N465 N 0.56550 0.30703 0.98637
 N466 N 0.58534 0.32080 0.98375
 N467 N 0.46668 0.11882 1.14882
 C468 C 0.48573 0.13467 1.14742
 N469 N 0.50408 0.13543 1.16427
 N470 N 0.50343 0.12069 1.18191
 C471 C 0.48447 0.10457 1.18327
 N472 N 0.46604 0.10408 1.16644
 C473 C 0.48747 0.14864 1.12701
 C474 C 0.48915 0.15922 1.10910
 C475 C 0.49144 0.17034 1.08694
 N476 N 0.49069 0.19458 1.08624
 N477 N 0.49314 0.20459 1.06549
 C478 C 0.49643 0.19073 1.04475
 N479 N 0.49712 0.16647 1.04566
 N480 N 0.49467 0.15647 1.06634
 N481 N -0.03622 0.64832 0.61921
 C482 C -0.01716 0.64718 0.63488
 N483 N 0.00107 0.66435 0.63555
 N484 N 0.00031 0.68204 0.62089
 C485 C -0.01865 0.68314 0.60494
 N486 N -0.03697 0.66599 0.60455
 C487 C -0.01527 0.62674 0.64876
 C488 C -0.01339 0.60882 0.65927
 C489 C -0.01080 0.58670 0.67034
 N490 N -0.00741 0.56617 0.65643
 N491 N -0.00457 0.54556 0.66639
 C492 C -0.00501 0.54464 0.69066
 N493 N -0.00849 0.56530 0.70456
 N494 N -0.01133 0.58598 0.69458
 N495 N 0.48457 0.88073 -0.15107
 C496 C 0.50281 0.86611 -0.14791
 N497 N 0.52131 0.86682 -0.16279
 N498 N 0.52157 0.88182 -0.18023
 C499 C 0.50342 0.89671 -0.18332
 N500 N 0.48486 0.89572 -0.16846
 C501 C 0.50340 0.85180 -0.12767
 C502 C 0.50362 0.84107 -0.10977
 C503 C 0.50350 0.82995 -0.08747
 N504 N 0.50356 0.80564 -0.08699
 N505 N 0.50285 0.79566 -0.06606
 C506 C 0.50203 0.80964 -0.04492
 N507 N 0.50204 0.83397 -0.04562
 N508 N 0.50276 0.84393 -0.06647
 N509 N 1.02450 0.33680 0.36688
 C510 C 1.00673 0.35239 0.36717
 N511 N 0.98919 0.35006 0.38292
 N512 N 0.98944 0.33279 0.39803
 C513 C 1.00731 0.31719 0.39809
 N514 N 1.02474 0.31948 0.38200
 C515 C 1.00736 0.37243 0.35257
 C516 C 1.00750 0.39021 0.34164
 C517 C 1.00716 0.41241 0.33034
 N518 N 1.00670 0.43351 0.34422
 N519 N 1.00552 0.45426 0.33414
 C520 C 1.00474 0.45476 0.30978
 N521 N 1.00533 0.43351 0.29590
 N522 N 1.00650 0.41269 0.30600
 N523 N 0.47385 0.90087 0.15859
 C524 C 0.49115 0.90064 0.14232
 N525 N 0.50817 0.91904 0.14377
 N526 N 0.50792 0.93715 0.16093
 C527 C 0.49059 0.93764 0.17729
 N528 N 0.47361 0.91900 0.17578
 C529 C 0.49086 0.88194 0.12294
 C530 C 0.49099 0.86710 0.10591
 C531 C 0.49156 0.85063 0.08474
 N532 N 0.49282 0.82656 0.08634
 N533 N 0.49409 0.81163 0.06648
 C534 C 0.49420 0.82026 0.04435
 N535 N 0.49286 0.84439 0.04297
 N536 N 0.49158 0.85929 0.06276
 N537 N 0.00323 0.34056 0.59988
 C538 C 0.02067 0.35860 0.60187
 N539 N 0.03793 0.35851 0.58556
 N540 N 0.03771 0.34093 0.56777
 C541 C 0.02018 0.32285 0.56558
 N542 N 0.00302 0.32299 0.58209
 C543 C 0.01987 0.37850 0.61988
 C544 C 0.01873 0.39573 0.63431
 C545 C 0.01679 0.41689 0.65052
 N546 N 0.01585 0.41537 0.67462
 N547 N 0.01313 0.43506 0.68937
 C548 C 0.01121 0.45695 0.68052
 N549 N 0.01228 0.45828 0.65635
 N550 N 0.01500 0.43864 0.64163
 N551 N 0.50120 0.09995 0.84019
 C552 C 0.51867 0.10190 0.85802
 N553 N 0.53572 0.08553 0.85773
 N554 N 0.53528 0.06770 0.84017
 C555 C 0.51773 0.06554 0.82230
 N556 N 0.50077 0.08212 0.82263
 C557 C 0.51813 0.11995 0.87791
 C558 C 0.51723 0.13441 0.89516
 C559 C 0.51563 0.15065 0.91635
 N560 N 0.51436 0.14178 0.93817
 N561 N 0.51198 0.15651 0.95788
 C562 C 0.51077 0.18068 0.95656
 N563 N 0.51218 0.18950 0.93460
 N564 N 0.51455 0.17475 0.91483
 N565 N 0.97112 0.65704 0.40073
 C566 C 0.98886 0.64140 0.40013
 N567 N 1.00612 0.64347 0.41816
 N568 N 1.00567 0.66061 0.43625
 C569 C 0.98792 0.67631 0.43705
 N570 N 0.97069 0.67422 0.41885
 C571 C 0.98885 0.62203 0.38145
 C572 C 0.98928 0.60501 0.36664
 C573 C 0.99032 0.58385 0.35025
 N574 N 0.99090 0.56192 0.35898
 N575 N 0.99271 0.54216 0.34416
 C576 C 0.99405 0.54354 0.32002
 N577 N 0.99335 0.56561 0.31131
 N578 N 0.99155 0.58543 0.32617
 N579 N 1.14746 0.51173 0.10791
 C580 C 1.14543 0.49478 0.12387
 N581 N 1.16106 0.47702 0.12353
 N582 N 1.17815 0.47622 0.10761
 C583 C 1.18017 0.49306 0.09135
 N584 N 1.16451 0.51091 0.09200
 C585 C 1.12583 0.49480 0.13960
 C586 C 1.10848 0.49515 0.15166
 C587 C 1.08682 0.49598 0.16448
 N588 N 1.08715 0.49571 0.18881
 N589 N 1.06684 0.49705 0.20040
 C590 C 1.04553 0.49875 0.18806
 N591 N 1.04543 0.49894 0.16369
 N592 N 1.06566 0.49758 0.15213
 N593 N 0.62460 -0.00591 0.66087
 C594 C 0.62409 -0.02371 0.64268
 N595 N 0.60780 -0.04266 0.64257
 N596 N 0.59240 -0.04372 0.66006
 C597 C 0.59266 -0.02583 0.67825
 N598 N 0.60920 -0.00698 0.67836
 C599 C 0.63901 -0.02142 0.62261
 C600 C 0.65056 -0.01906 0.60513
 C601 C 0.66307 -0.01571 0.58363
 N602 N 0.65061 -0.01140 0.56320
 N603 N 0.66195 -0.00764 0.54325
 C604 C 0.68620 -0.00804 0.54294
 N605 N 0.69864 -0.01246 0.56349
 N606 N 0.68728 -0.01622 0.58350
 N607 N -0.14447 0.53465 0.89164
 C608 C -0.14368 0.51567 0.87486
 N609 N -0.16094 0.49750 0.87397
 N610 N -0.17840 0.49825 0.88948
 C611 C -0.17917 0.51713 0.90650
 N612 N -0.16191 0.53538 0.90714
 C613 C -0.12362 0.51384 0.85978
 C614 C -0.10608 0.51199 0.84812
 C615 C -0.08444 0.50941 0.83553
 N616 N -0.08425 0.51043 0.81130
 N617 N -0.06401 0.50761 0.79987
 C618 C -0.04327 0.50366 0.81226
 N619 N -0.04366 0.50272 0.83653
 N620 N -0.06384 0.50554 0.84794
 N621 N 0.37567 0.03192 0.34234
 C622 C 0.37491 0.01320 0.35641
 N623 N 0.39060 -0.00429 0.35301
 N624 N 0.40662 -0.00311 0.33613
 C625 C 0.40761 0.01565 0.32204
 N626 N 0.39170 0.03309 0.32541
 C627 C 0.35907 0.01264 0.37591
 C628 C 0.34695 0.01168 0.39319
 C629 C 0.33413 0.00996 0.41476
 N630 N 0.34646 0.00775 0.43584
 N631 N 0.33493 0.00533 0.45594
 C632 C 0.31062 0.00500 0.45577
 N633 N 0.29829 0.00733 0.43456
 N634 N 0.30985 0.00975 0.41438
 N635 N 0.14258 0.45863 0.90416
 C636 C 0.14243 0.47600 0.88852
 N637 N 0.16034 0.49359 0.89046
 N638 N 0.17780 0.49383 0.90757
 C639 C 0.17796 0.47657 0.92344
 N640 N 0.16005 0.45888 0.92126
 C641 C 0.12252 0.47693 0.87152
 C642 C 0.10523 0.47823 0.85809
 C643 C 0.08396 0.48041 0.84323
 N644 N 0.08504 0.48203 0.81915
 N645 N 0.06524 0.48508 0.80575
 C646 C 0.04369 0.48667 0.81597
 N647 N 0.04280 0.48490 0.84009
 N648 N 0.06254 0.48184 0.85346
 N649 N 0.59475 0.04654 0.36015
 C650 C 0.61043 0.02882 0.35940
 N651 N 0.60873 0.01169 0.34054
 N652 N 0.59180 0.01221 0.32302
 C653 C 0.57588 0.02981 0.32375
 N654 N 0.57782 0.04705 0.34262
 C655 C 0.62722 0.02701 0.37932
 C656 C 0.64051 0.02487 0.39655
 C657 C 0.65524 0.02162 0.41766
 N658 N 0.64492 0.01873 0.43881
 N659 N 0.65821 0.01467 0.45831
 C660 C 0.68234 0.01331 0.45742
 N661 N 0.69264 0.01634 0.43614
 N662 N 0.67932 0.02039 0.41659
 N663 N 0.84332 0.53060 0.10997
 C664 C 0.85844 0.51240 0.11014
 N665 N 0.85595 0.49419 0.09233
 N666 N 0.83892 0.49418 0.07485
 C667 C 0.82377 0.51240 0.07446
 N668 N 0.82625 0.53056 0.09247
 C669 C 0.87790 0.51302 0.12789
 C670 C 0.89508 0.51306 0.14176
 C671 C 0.91648 0.51255 0.15686
 N672 N 0.91548 0.51037 0.18086
 N673 N 0.93555 0.50882 0.19439
 C674 C 0.95729 0.50933 0.18436
 N675 N 0.95807 0.51165 0.16033
 N676 N 0.93808 0.51321 0.14684
 N677 N 0.40695 -0.00091 0.64343
 C678 C 0.38923 -0.01865 0.64052
 N679 N 0.38955 -0.03700 0.65503
 N680 N 0.40712 -0.03756 0.67194
 C681 C 0.42503 -0.01985 0.67485
 N682 N 0.42449 -0.00148 0.66029
 C683 C 0.37134 -0.01855 0.62126
 C684 C 0.35738 -0.01787 0.60424
 C685 C 0.34222 -0.01635 0.58303
 N686 N 0.31827 -0.01415 0.58437
 N687 N 0.30469 -0.01152 0.56456
 C688 C 0.31461 -0.01091 0.54275
 N689 N 0.33859 -0.01326 0.54161
 N690 N 0.35213 -0.01592 0.56135
   
