data_POSCAR
  _audit_creation_date              2014-09-24
  _audit_creation_method            'ToBaCCo'
  _symmetry_space_group_name_H-M    'P1'
  _symmetry_Int_Tables_number       1
  _symmetry_cell_setting            triclinic
  loop_
  _symmetry_equiv_pos_as_xyz
 x,y,z
_cell_length_a 27.5938
_cell_length_b 27.3957
_cell_length_c 28.5001
_cell_angle_alpha 89.510000
_cell_angle_beta 89.006000
_cell_angle_gamma 89.102400
loop_
  _atom_site_label
  _atom_site_type_symbol
  _atom_site_fract_x
  _atom_site_fract_y
  _atom_site_fract_z
Si1 Si 0.24487 0.51655 1.00879
 Si2 Si 0.75949 0.48098 -0.01025
 Si3 Si 0.01325 0.25520 0.49639
 Si4 Si 0.98347 0.75294 0.50444
 Si5 Si 0.52127 -0.01818 0.24891
 Si6 Si 0.47534 0.00092 0.75284
 C7 C 0.32959 0.01015 0.42570
 H8 H 0.32727 0.04316 0.44623
 C9 C 0.36724 0.00379 0.39282
 H10 H 0.39352 0.03237 0.38823
 C11 C 0.29932 -0.06819 0.40908
 H12 H 0.27352 -0.09664 0.41638
 C13 C 0.33646 -0.07615 0.37602
 H14 H 0.33834 -0.11050 0.35755
 N15 N 0.29670 -0.02564 0.43325
 C16 C 0.17417 0.04425 0.50626
 H17 H 0.17177 0.02008 0.53641
 C18 C 0.14131 0.08315 0.50177
 H19 H 0.11357 0.08827 0.52860
 C20 C 0.21285 0.06551 0.43426
 H21 H 0.24050 0.05816 0.40784
 C22 C 0.18049 0.10480 0.42821
 H23 H 0.18384 0.12775 0.39726
 Zn24 Zn 0.25162 -0.01764 0.48327
 N25 N 0.20944 0.03655 0.47314
 C26 C 0.28461 0.03520 0.56078
 N27 N 0.28840 -0.00797 0.53775
 C28 C 0.32140 -0.04284 0.55060
 C29 C 0.35183 -0.03515 0.58846
 C30 C 0.31472 0.04464 0.59826
 C31 C 0.17976 -0.08083 0.45525
 C32 C 0.14731 -0.11931 0.45891
 C33 C 0.18318 -0.14230 0.53277
 C34 C 0.21440 -0.10291 0.52810
 N35 N 0.21229 -0.07325 0.48965
 H36 H 0.25935 0.06311 0.54925
 H37 H 0.32469 -0.07627 0.53078
 H38 H 0.37851 -0.06281 0.59769
 H39 H 0.31181 0.07955 0.61570
 H40 H 0.17861 -0.05637 0.42526
 H41 H 0.12144 -0.12464 0.43139
 H42 H 0.18488 -0.16530 0.56380
 H43 H 0.23961 -0.09572 0.55562
 C44 C 0.14438 0.11430 0.46245
 C45 C 0.37130 -0.04010 0.36779
 C46 C 0.14869 -0.15042 0.49823
 C47 C 0.34897 0.00938 0.61236
 C48 C 0.64974 0.03366 0.56321
 H49 H 0.63636 0.03900 0.52812
 C50 C 0.61693 0.03294 0.60112
 H51 H 0.57875 0.03758 0.59427
 C52 C 0.71563 0.02223 0.61439
 H53 H 0.75402 0.01834 0.61980
 C54 C 0.68417 0.02129 0.65325
 H55 H 0.69896 0.01622 0.68791
 N56 N 0.69812 0.02765 0.57026
 C57 C 0.81875 0.08097 0.48474
 H58 H 0.81988 0.05348 0.45769
 C59 C 0.85634 0.11413 0.48774
 H60 H 0.88599 0.11213 0.46249
 C61 C 0.78031 0.11397 0.55269
 H62 H 0.75124 0.11284 0.57857
 C63 C 0.81752 0.14752 0.55731
 H64 H 0.81645 0.17263 0.58644
 Zn65 Zn 0.74153 0.02621 0.51734
 N66 N 0.78224 0.08090 0.51739
 C67 C 0.70878 0.06220 0.42978
 N68 N 0.70571 0.02443 0.46090
 C69 C 0.67581 -0.01363 0.45328
 C70 C 0.64764 -0.01477 0.41298
 C71 C 0.68127 0.06259 0.38914
 C72 C 0.81976 -0.02301 0.55456
 C73 C 0.85598 -0.05833 0.55959
 C74 C 0.82092 -0.10349 0.49654
 C75 C 0.78488 -0.06712 0.49288
 N76 N 0.78470 -0.02805 0.52210
 H77 H 0.73196 0.09261 0.43676
 H78 H 0.67319 -0.04278 0.47900
 H79 H 0.62374 -0.04513 0.40820
 H80 H 0.68406 0.09322 0.36505
 H81 H 0.82082 0.00956 0.57554
 H82 H 0.88363 -0.05315 0.58548
 H83 H 0.82038 -0.13441 0.47325
 H84 H 0.75776 -0.06989 0.46623
 C85 C 0.85662 0.14717 0.52510
 C86 C 0.63401 0.02601 0.64695
 C87 C 0.85713 -0.09912 0.53032
 C88 C 0.65001 0.02389 0.38028
 C89 C 0.45270 0.16764 1.05851
 H90 H 0.42651 0.16946 1.03089
 C91 C 0.44870 0.13122 1.09252
 H92 H 0.41841 0.10660 1.09175
 C93 C 0.52619 0.19444 1.09058
 H94 H 0.55678 0.21853 1.08912
 C95 C 0.52410 0.15749 1.12496
 H96 H 0.55263 0.15408 1.15042
 N97 N 0.49024 0.19922 1.05860
 C98 C 0.44776 0.33929 1.00739
 H99 H 0.48442 0.35114 1.00107
 C100 C 0.41005 0.37400 1.00713
 H101 H 0.41819 0.41202 1.00076
 C102 C 0.39198 0.27559 1.02034
 H103 H 0.38445 0.23738 1.02452
 C104 C 0.35331 0.30888 1.01966
 H105 H 0.31668 0.29574 1.02386
 Zn106 Zn 0.49031 0.24421 1.00741
 N107 N 0.43824 0.29089 1.01333
 C108 C 0.44101 0.20948 0.92771
 N109 N 0.48163 0.20524 0.95389
 C110 C 0.51503 0.16905 0.94600
 C111 C 0.50761 0.13438 0.91136
 C112 C 0.43158 0.17484 0.89358
 C113 C 0.56520 0.30660 1.03650
 C114 C 0.60216 0.34021 1.02845
 C115 C 0.60561 0.31555 0.94728
 C116 C 0.56906 0.28226 0.95690
 N117 N 0.54892 0.27902 1.00068
 H118 H 0.41499 0.23852 0.93439
 H119 H 0.54669 0.16624 0.96779
 H120 H 0.53373 0.10492 0.90634
 H121 H 0.39835 0.17747 0.87400
 H122 H 0.54743 0.30475 1.07058
 H123 H 0.61315 0.36338 1.05678
 H124 H 0.61995 0.31884 0.91181
 H125 H 0.55481 0.26121 0.92855
 C126 C 0.36206 0.35864 1.01236
 C127 C 0.48462 0.12567 1.12619
 C128 C 0.62183 0.34582 0.98296
 C129 C 0.46482 0.13647 0.88562
 C130 C 0.46703 0.81597 -0.06361
 H131 H 0.44594 0.82121 -0.03175
 C132 C 0.45785 0.84576 -0.10267
 H133 H 0.42937 0.87333 -0.10071
 C134 C 0.53092 0.77528 -0.10465
 H135 H 0.56012 0.74864 -0.10523
 C136 C 0.52214 0.80343 -0.14483
 H137 H 0.54467 0.79808 -0.17590
 N138 N 0.50360 0.78197 -0.06490
 C139 C 0.46782 0.65406 0.00444
 H140 H 0.50182 0.63651 -0.00457
 C141 C 0.42767 0.62501 0.01426
 H142 H 0.43125 0.58570 0.01187
 C143 C 0.42175 0.72572 0.02064
 H144 H 0.41969 0.76497 0.02365
 C145 C 0.38098 0.69792 0.03189
 H146 H 0.34753 0.71605 0.04268
 Zn147 Zn 0.51774 0.74446 -0.00969
 N148 N 0.46399 0.70368 0.00635
 C149 C 0.53288 0.76515 0.08474
 N150 N 0.52784 0.78663 0.04186
 C151 C 0.53067 0.83595 0.03642
 C152 C 0.53819 0.86568 0.07523
 C153 C 0.54140 0.79339 0.12423
 C154 C 0.57632 0.66848 -0.05102
 C155 C 0.61673 0.63716 -0.05451
 C156 C 0.65680 0.68628 0.00256
 C157 C 0.61526 0.71590 0.00582
 N158 N 0.57545 0.70585 -0.01975
 H159 H 0.53067 0.72588 0.08810
 H160 H 0.52759 0.85236 0.00199
 H161 H 0.54042 0.90480 0.07034
 H162 H 0.54533 0.77567 0.15808
 H163 H 0.54498 0.66202 -0.07225
 H164 H 0.61623 0.60657 -0.07826
 H165 H 0.68758 0.69400 0.02418
 H166 H 0.61478 0.74653 0.02942
 C167 C 0.38349 0.64698 0.02780
 C168 C 0.48578 0.83973 -0.14386
 C169 C 0.65726 0.64552 -0.02681
 C170 C 0.54376 0.84434 0.11981
 C171 C 1.03592 0.46940 0.18558
 H172 H 1.00944 0.44135 0.19225
 C173 C 1.06932 0.46417 0.14883
 H174 H 1.06874 0.43156 0.12767
 C175 C 1.06686 0.54712 0.20374
 H176 H 1.06449 0.58006 0.22432
 C177 C 1.10134 0.54324 0.16718
 H178 H 1.12552 0.57321 0.16003
 N179 N 1.03473 0.51061 0.21168
 C180 C 0.94453 0.46623 0.33057
 H181 H 0.91619 0.49379 0.32775
 C182 C 0.94120 0.43001 0.36499
 H183 H 0.91015 0.42976 0.38873
 C184 C 1.01936 0.43296 0.30270
 H185 H 1.04971 0.43438 0.27829
 C186 C 1.01790 0.39643 0.33732
 H187 H 1.04687 0.36941 0.33890
 Zn188 Zn 0.98083 0.51585 0.25297
 N189 N 0.98246 0.46633 0.29953
 C190 C 0.89554 0.46995 0.22177
 N191 N 0.92538 0.50861 0.21534
 C192 C 0.91969 0.53995 0.17853
 C193 C 0.88328 0.53260 0.14597
 C194 C 0.85849 0.46146 0.19028
 C195 C 1.01607 0.58341 0.31501
 C196 C 1.01410 0.62297 0.34548
 C197 C 0.93748 0.64746 0.31208
 C198 C 0.94082 0.60721 0.28231
 N199 N 0.97941 0.57585 0.28484
 H200 H 0.90143 0.44442 0.25021
 H201 H 0.94444 0.56990 0.17373
 H202 H 0.87977 0.55775 0.11674
 H203 H 0.83583 0.42989 0.19541
 H204 H 1.04601 0.55751 0.31660
 H205 H 1.04332 0.62775 0.36973
 H206 H 0.90581 0.67122 0.31082
 H207 H 0.91161 0.59994 0.25873
 C208 C 0.97796 0.39435 0.36845
 C209 C 1.10194 0.50170 0.13858
 C210 C 0.97378 0.65491 0.34509
 C211 C 0.85259 0.49238 0.15125
 C212 C -0.04551 0.43935 0.79786
 H213 H -0.03186 0.41001 0.77597
 C214 C -0.08016 0.42967 0.83282
 H215 H -0.09358 0.39296 0.83714
 C216 C -0.04311 0.52231 0.82056
 H217 H -0.02752 0.55808 0.81612
 C218 C -0.07832 0.51441 0.85548
 H219 H -0.08970 0.54428 0.87791
 N220 N -0.02781 0.48511 0.79237
 C221 C 0.07734 0.42212 0.70194
 H222 H 0.10781 0.43325 0.72238
 C223 C 0.08392 0.38647 0.66747
 H224 H 0.11941 0.36982 0.66227
 C225 C -0.00527 0.43200 0.68205
 H226 H -0.03968 0.45079 0.68738
 C227 C -0.00036 0.39667 0.64738
 H228 H -0.03166 0.38842 0.62683
 Zn229 Zn 0.02286 0.49761 0.74870
 N230 N 0.03321 0.44407 0.70841
 C231 C 0.09359 0.47292 0.81223
 N232 N 0.07828 0.51015 0.78415
 C233 C 0.09880 0.55493 0.78573
 C234 C 0.13576 0.56375 0.81742
 C235 C 0.13045 0.48002 0.84411
 C236 C -0.04003 0.56727 0.70688
 C237 C -0.05340 0.60054 0.67190
 C238 C 0.02928 0.59889 0.64247
 C239 C 0.04095 0.56528 0.67766
 N240 N 0.00647 0.55030 0.70898
 H241 H 0.07612 0.43791 0.81064
 H242 H 0.08524 0.58437 0.76391
 H243 H 0.15073 0.59995 0.81937
 H244 H 0.14157 0.44972 0.86615
 H245 H -0.06730 0.55340 0.73092
 H246 H -0.09071 0.61312 0.67008
 H247 H 0.05699 0.60943 0.61723
 H248 H 0.07720 0.54979 0.67915
 C249 C 0.04488 0.37368 0.63925
 C250 C -0.09698 0.46746 0.86211
 C251 C -0.01861 0.61644 0.63897
 C252 C 0.15125 0.52629 0.84791
 N253 N 0.10450 0.17930 0.41712
 N254 N 0.07196 0.21493 0.42307
 C255 C 0.05757 0.21316 0.46844
 C256 C 0.08213 0.17545 0.49010
 N257 N 0.11113 0.15498 0.45696
 H258 H 0.07951 0.16478 0.52667
 N259 N 0.74241 0.62345 -0.01530
 N260 N 0.77002 0.58365 -0.01135
 C261 C 0.74162 0.54535 -0.02015
 C262 C 0.69580 0.56288 -0.02989
 N263 N 0.69768 0.61178 -0.02648
 H264 H 0.66344 0.54193 -0.03520
 N265 N 0.92367 -0.13768 0.57237
 N266 N 0.95600 -0.17347 0.56752
 C267 C 0.94813 -0.19410 0.52573
 C268 C 0.90964 -0.17008 0.50508
 N269 N 0.89530 -0.13502 0.53540
 H270 H 0.89385 -0.17731 0.47146
 N271 N 0.27893 0.37851 0.99230
 N272 N 0.24896 0.41649 0.98997
 C273 C 0.27375 0.45573 1.00355
 C274 C 0.32025 0.44067 1.01426
 N275 N 0.32192 0.39208 1.00683
 H276 H 0.34943 0.46259 1.02707
 N277 N 0.90816 0.19823 0.57253
 N278 N 0.94787 0.22455 0.56807
 C279 C 0.96285 0.22085 0.52300
 C280 C 0.93113 0.19169 0.49988
 N281 N 0.89737 0.17827 0.53193
 H282 H 0.93181 0.18267 0.46299
 N283 N 0.30562 0.62974 0.06639
 N284 N 0.27032 0.59757 0.06430
 C285 C 0.28425 0.56416 0.03215
 C286 C 0.32912 0.57688 0.01450
 N287 N 0.34132 0.61792 0.03676
 H288 H 0.34953 0.55956 -0.01372
 N289 N 0.12113 -0.22780 0.53137
 N290 N 0.08123 -0.25400 0.53391
 C291 C 0.04791 -0.23073 0.50756
 C292 C 0.06865 -0.18959 0.48849
 N293 N 0.11433 -0.18891 0.50425
 H294 H 0.05111 -0.16133 0.46780
 N295 N 0.66157 0.40237 0.92892
 N296 N 0.69452 0.43693 0.92887
 C297 C 0.70965 0.44085 0.97331
 C298 C 0.68491 0.40747 1.00077
 N299 N 0.65529 0.38406 0.97170
 H300 H 0.68902 0.39988 1.03777
 N301 N 0.43805 0.07066 1.17625
 N302 N 0.44483 0.03460 1.20673
 C303 C 0.49308 0.02832 1.21064
 C304 C 0.51584 0.06192 1.18183
 N305 N 0.48016 0.08776 1.16105
 H306 H 0.55437 0.06646 1.17597
 N307 N -0.07724 0.65466 0.58632
 N308 N -0.07860 0.68750 0.55198
 C309 C -0.03288 0.70291 0.54503
 C310 C -0.00344 0.67854 0.57621
 N311 N -0.03240 0.64879 0.60140
 H312 H 0.03485 0.68316 0.58146
 N313 N 0.48987 0.85960 -0.22763
 N314 N 0.48654 0.89841 -0.25557
 C315 C 0.47317 0.93639 -0.22829
 C316 C 0.46830 0.91963 -0.18274
 N317 N 0.47910 0.87157 -0.18370
 H318 H 0.46183 0.94112 -0.15148
 N319 N 0.93103 0.33991 0.41871
 N320 N 0.93759 0.30473 0.45014
 C321 C 0.98580 0.29791 0.45393
 C322 C 1.00878 0.32999 0.42374
 N323 N 0.97325 0.35559 0.40237
 H324 H 1.04736 0.33509 0.41887
 N325 N 0.57170 0.85761 0.19950
 N326 N 0.56854 0.89109 0.23273
 C327 C 0.54532 0.93009 0.21411
 C328 C 0.53421 0.91943 0.16838
 N329 N 0.55119 0.87381 0.16056
 H330 H 0.51248 0.94118 0.14455
 N331 N 0.09326 0.31585 0.59205
 N332 N 0.08820 0.28592 0.55619
 C333 C 0.04167 0.29010 0.54308
 C334 C 0.01841 0.32322 0.57181
 N335 N 0.05166 0.33861 0.60216
 H336 H -0.01931 0.33429 0.57055
 N337 N 0.40923 0.08213 0.84729
 N338 N 0.40998 0.04705 0.81564
 C339 C 0.45651 0.04089 0.80155
 C340 C 0.48443 0.07327 0.82550
 N341 N 0.45353 0.09838 0.85364
 H342 H 0.52298 0.07922 0.82167
 N343 N 0.93708 0.72997 0.37675
 N344 N 0.93754 0.75620 0.41563
 C345 C 0.96995 0.73451 0.44415
 C346 C 0.98950 0.69453 0.42163
 N347 N 0.96819 0.69276 0.37958
 H348 H 1.01516 0.66818 0.43564
 N349 N 1.12256 0.46915 0.06188
 N350 N 1.15635 0.47230 0.02869
 C351 C 1.18892 0.50471 0.04317
 C352 C 1.17394 0.52161 0.08674
 N353 N 1.13231 0.49826 0.09718
 H354 H 1.19223 0.54688 0.10911
 N355 N 0.61517 0.01705 0.73082
 N356 N 0.57723 0.01103 0.75933
 C357 C 0.53770 0.01295 0.73233
 C358 C 0.55250 0.02012 0.68649
 N359 N 0.60120 0.02249 0.68678
 H360 H 0.52982 0.02116 0.65594
 N361 N -0.13716 0.41366 0.91852
 N362 N -0.17187 0.41513 0.95113
 C363 C -0.18873 0.46149 0.95254
 C364 C -0.16325 0.48859 0.91981
 N365 N -0.13136 0.45736 0.89925
 H366 H -0.16850 0.52676 0.91089
 N367 N 0.42190 -0.09253 0.31758
 N368 N 0.45950 -0.08967 0.28823
 C369 C 0.47303 -0.04267 0.28744
 C370 C 0.44258 -0.01672 0.31713
 N371 N 0.41099 -0.04911 0.33533
 H372 H 0.44275 0.02215 0.32347
 N373 N 0.21059 0.57664 0.88759
 N374 N 0.23520 0.57666 0.92719
 C375 C 0.22498 0.53452 0.94968
 C376 C 0.19377 0.50871 0.92275
 N377 N 0.18542 0.53603 0.88420
 H378 H 0.17705 0.47441 0.93183
 N379 N 0.61549 0.06412 0.31147
 N380 N 0.58408 0.05595 0.27794
 C381 C 0.56819 0.01017 0.28452
 C382 C 0.59075 -0.00953 0.32321
 N383 N 0.62004 0.02536 0.33927
 H384 H 0.58542 -0.04542 0.33834
 N385 N 0.78142 0.45011 0.12299
 N386 N 0.75664 0.44530 0.08392
 C387 C 0.77755 0.47454 0.05149
 C388 C 0.81570 0.49759 0.07185
 N389 N 0.81705 0.48149 0.11657
 H390 H 0.84088 0.52231 0.05499
 N391 N 0.39508 0.06582 0.65850
 N392 N 0.42682 0.06561 0.69270
 C393 C 0.43458 0.01862 0.70501
 C394 C 0.40667 -0.01026 0.67714
 N395 N 0.38249 0.02072 0.64853
 H396 H 0.40385 -0.04962 0.67801
   
