data_POSCAR
  _audit_creation_date              2014-09-24
  _audit_creation_method            'ToBaCCo'
  _symmetry_space_group_name_H-M    'P1'
  _symmetry_Int_Tables_number       1
  _symmetry_cell_setting            triclinic
  loop_
  _symmetry_equiv_pos_as_xyz
 x,y,z
_cell_length_a 36.3598
_cell_length_b 35.6264
_cell_length_c 36.3558
_cell_angle_alpha 89.863800
_cell_angle_beta 90.534300
_cell_angle_gamma 89.801800
loop_
  _atom_site_label
  _atom_site_type_symbol
  _atom_site_fract_x
  _atom_site_fract_y
  _atom_site_fract_z
C1 C 0.32534 0.37907 1.37427
 N2 N 0.34081 0.34726 1.38837
 C3 C 0.36904 0.32975 1.37092
 N4 N 0.38190 0.34471 1.33910
 C5 C 0.36737 0.37689 1.32501
 N6 N 0.33907 0.39374 1.34269
 C7 C 1.16872 0.61904 0.87764
 N8 N 1.15395 0.60221 0.84730
 C9 C 1.12180 0.61491 0.83231
 N10 N 1.10471 0.64488 0.84771
 C11 C 1.11903 0.66226 0.87771
 N12 N 1.15099 0.64901 0.89250
 C13 C 0.67591 -0.12729 0.12619
 N14 N 0.65817 -0.15705 0.11076
 C15 C 0.62673 -0.17086 0.12585
 N16 N 0.61317 -0.15438 0.15669
 C17 C 0.63081 -0.12500 0.17257
 N18 N 0.66202 -0.11183 0.15724
 C19 C -0.16909 1.12400 -0.37815
 N20 N -0.15411 1.10676 -0.34825
 C21 C -0.12273 1.12016 -0.33246
 N22 N -0.10628 1.15108 -0.34710
 C23 C -0.12086 1.16833 -0.37739
 N24 N -0.15235 1.15456 -0.39238
 C25 C 0.67473 0.62602 0.62910
 N26 N 0.65811 0.65703 0.61473
 C27 C 0.62632 0.67052 0.62921
 N28 N 0.61154 0.65263 0.65863
 C29 C 0.62823 0.62198 0.67362
 N30 N 0.65978 0.60873 0.65871
 C31 C 0.82491 0.36933 0.12699
 N32 N 0.84203 0.33879 0.11273
 C33 C 0.87280 0.32406 0.12865
 N34 N 0.88661 0.34045 0.15954
 C35 C 0.87011 0.37129 0.17407
 N36 N 0.83927 0.38557 0.15775
 C37 C 0.32483 0.12266 0.86868
 N38 N 0.34060 0.10654 0.83878
 C39 C 0.37101 0.12201 0.82345
 N40 N 0.38545 0.15370 0.83838
 C41 C 0.37022 0.16973 0.86842
 N42 N 0.33983 0.15416 0.88340
 C43 C 0.17365 0.87660 0.37629
 N44 N 0.16054 0.88996 0.34369
 C45 C 0.13086 0.87442 0.32705
 N46 N 0.11415 0.84467 0.34302
 C47 C 0.12673 0.83062 0.37568
 N48 N 0.15643 0.84694 0.39224
 Zn49 Zn 0.04410 0.97289 0.00681
 Zn50 Zn -0.03036 0.96749 -0.02920
 Zn51 Zn -0.02042 1.00693 0.04326
 Zn52 Zn 0.00944 1.04122 -0.02457
 O53 O 0.00053 0.99703 -0.00103
 O54 O 0.04452 0.92749 -0.01297
 O55 O -0.07327 0.95727 -0.00630
 O56 O 0.00536 0.98881 0.08157
 O57 O -0.00997 0.92253 -0.04006
 O58 O 0.05453 0.96556 0.05436
 O59 O -0.06483 0.98668 0.04665
 O60 O -0.00707 1.08130 -0.00015
 O61 O -0.04215 0.98931 -0.07279
 O62 O -0.02700 1.05608 0.05164
 O63 O -0.01227 1.04315 -0.06845
 O64 O 0.05724 1.04913 -0.03331
 O65 O 0.08264 0.99681 -0.01219
 C66 C 0.02134 0.90883 -0.03162
 C67 C -0.08458 0.96685 0.02535
 C68 C 0.03631 0.97234 0.08317
 C69 C -0.02148 1.08448 0.03133
 C70 C -0.03275 1.02080 -0.08632
 C71 C 0.08527 1.02843 -0.02799
 Zn72 Zn 0.51002 0.04529 0.52039
 Zn73 Zn 0.54550 -0.02268 0.49006
 Zn74 Zn 0.47179 -0.02890 0.52621
 Zn75 Zn 0.47982 0.00998 0.45301
 O76 O 0.50165 0.00079 0.49749
 O77 O 0.55773 0.05456 0.52835
 O78 O 0.54725 -0.06768 0.51107
 O79 O 0.46023 -0.00699 0.56948
 O80 O 0.58399 0.00250 0.50830
 O81 O 0.48962 0.04700 0.56441
 O82 O 0.49317 -0.07324 0.53794
 O83 O 0.43574 -0.01101 0.45010
 O84 O 0.55502 -0.03061 0.44255
 O85 O 0.42869 -0.03982 0.50359
 O86 O 0.50526 -0.00801 0.41482
 O87 O 0.47171 0.05896 0.44419
 O88 O 0.49164 0.08473 0.49593
 C89 C 0.58614 0.03454 0.52327
 C90 C 0.52471 -0.08639 0.53014
 C91 C 0.46967 0.02465 0.58258
 C92 C 0.41660 -0.03061 0.47188
 C93 C 0.53636 -0.02420 0.41354
 C94 C 0.47647 0.08749 0.46449
 Zn95 Zn 0.95618 0.47743 0.48935
 Zn96 Zn 1.02989 0.47052 0.52737
 Zn97 Zn 1.02139 0.51228 0.45559
 Zn98 Zn 0.98998 0.54450 0.52347
 O99 O 0.99950 0.50103 0.49906
 O100 O 0.95538 0.43178 0.50880
 O101 O 1.07342 0.46119 0.50527
 O102 O 0.99695 0.49500 0.41614
 O103 O 1.00928 0.42535 0.53701
 O104 O 0.94725 0.47074 0.44124
 O105 O 1.06616 0.49256 0.45304
 O106 O 1.00738 0.58527 0.50086
 O107 O 1.04073 0.49091 0.57175
 O108 O 1.02775 0.56161 0.44862
 O109 O 1.01011 0.54461 0.56804
 O110 O 0.94198 0.55273 0.53070
 O111 O 0.91701 0.50142 0.50742
 C112 C 0.97799 0.41239 0.52773
 C113 C 1.08557 0.47217 0.47435
 C114 C 0.96634 0.47823 0.41315
 C115 C 1.02217 0.58936 0.46967
 C116 C 1.03038 0.52179 0.58585
 C117 C 0.91402 0.53264 0.52385
 Zn118 Zn 0.50853 0.45392 1.02268
 Zn119 Zn 0.47106 0.52897 1.02768
 Zn120 Zn 0.54419 0.52140 0.99067
 Zn121 Zn 0.47728 0.48923 0.95542
 O122 O 0.50021 0.49850 0.99923
 O123 O 0.48723 0.45223 1.06649
 O124 O 0.49308 0.57296 1.03887
 O125 O 0.58271 0.49602 1.00937
 O126 O 0.45915 0.50721 1.07086
 O127 O 0.55630 0.44471 1.03108
 O128 O 0.54649 0.56688 1.01078
 O129 O 0.50225 0.50624 0.91692
 O130 O 0.42795 0.54075 1.00525
 O131 O 0.55308 0.52837 0.94262
 O132 O 0.43319 0.51079 0.95234
 O133 O 0.46932 0.44046 0.94716
 O134 O 0.49095 0.41427 0.99813
 C135 C 0.46734 0.47516 1.08415
 C136 C 0.52442 0.58588 1.03020
 C137 C 0.58471 0.46434 1.02528
 C138 C 0.53342 0.52182 0.91433
 C139 C 0.41495 0.53139 0.97400
 C140 C 0.47527 0.41168 0.96694
 C141 C 1.22855 0.42606 0.42008
 C142 C 1.24540 0.39439 0.43674
 C143 C 1.27813 0.37955 0.42226
 C144 C 1.29442 0.39564 0.39093
 C145 C 1.27816 0.42802 0.37555
 C146 C 1.24590 0.44302 0.38987
 C147 C 1.19251 0.43965 0.43483
 C148 C 1.17277 0.46964 0.41877
 C149 C 1.13854 0.48016 0.43218
 C150 C 1.12291 0.46138 0.46216
 C151 C 1.14269 0.43202 0.47907
 C152 C 1.17714 0.42080 0.46537
 C153 C 1.22912 0.37733 0.46730
 C154 C 1.19584 0.39035 0.48141
 H155 H 1.24210 0.35323 0.48030
 H156 H 1.18424 0.37590 0.50484
 H157 H 1.29026 0.35483 0.43499
 H158 H 1.28995 0.44174 0.35182
 H159 H 1.12412 0.50311 0.41872
 H160 H 1.13085 0.41722 0.50218
 H161 H 1.23488 0.46766 0.37644
 H162 H 1.18286 0.48507 0.39545
 C163 C 0.27102 0.58287 0.92339
 C164 C 0.25644 0.56544 0.89149
 C165 C 0.22231 0.57701 0.87684
 C166 C 0.20233 0.60646 0.89304
 C167 C 0.21708 0.62363 0.92474
 C168 C 0.25074 0.61201 0.93972
 C169 C 0.30773 0.56987 0.93793
 C170 C 0.32438 0.58471 0.96996
 C171 C 0.35896 0.57204 0.98188
 C172 C 0.37791 0.54442 0.96215
 C173 C 0.36130 0.52915 0.93053
 C174 C 0.32652 0.54143 0.91847
 C175 C 0.27621 0.53692 0.87400
 C176 C 0.31057 0.52534 0.88706
 H177 H 0.26513 0.52356 0.84956
 H178 H 0.32491 0.50341 0.87229
 H179 H 0.21174 0.56331 0.85234
 H180 H 0.20270 0.64636 0.93823
 H181 H 0.37104 0.58421 1.00643
 H182 H 0.37542 0.50747 0.91520
 H183 H 0.26049 0.62653 0.96388
 H184 H 0.31123 0.60609 0.98620
 C185 C -0.22491 0.91684 0.08279
 C186 C -0.24256 0.88644 0.06503
 C187 C -0.27558 0.87186 0.07918
 C188 C -0.29146 0.88722 0.11106
 C189 C -0.27377 0.91779 0.12806
 C190 C -0.24123 0.93233 0.11425
 C191 C -0.18936 0.93106 0.06758
 C192 C -0.16947 0.96048 0.08407
 C193 C -0.13599 0.97204 0.06979
 C194 C -0.12123 0.95490 0.03850
 C195 C -0.14114 0.92600 0.02125
 C196 C -0.17492 0.91380 0.03575
 C197 C -0.22701 0.87072 0.03342
 C198 C -0.19401 0.88415 0.01906
 H199 H -0.24047 0.84753 0.01962
 H200 H -0.18309 0.87086 -0.00532
 H201 H -0.28866 0.84842 0.06538
 H202 H -0.28491 0.93077 0.15248
 H203 H -0.12148 0.99456 0.08359
 H204 H -0.12998 0.91244 -0.00288
 H205 H -0.22938 0.95567 0.12888
 H206 H -0.17891 0.97483 0.10828
 C207 C 0.72694 0.08879 0.57650
 C208 C 0.75115 0.06205 0.59257
 C209 C 0.78488 0.07363 0.60793
 C210 C 0.79555 0.11137 0.60602
 C211 C 0.77220 0.13745 0.58861
 C212 C 0.73828 0.12645 0.57423
 C213 C 0.69049 0.07572 0.56205
 C214 C 0.66284 0.10067 0.54963
 C215 C 0.62908 0.08717 0.53694
 C216 C 0.62226 0.04854 0.53571
 C217 C 0.64953 0.02340 0.54803
 C218 C 0.68315 0.03674 0.56201
 C219 C 0.74182 0.02393 0.59261
 C220 C 0.70889 0.01147 0.57694
 H221 H 0.76050 0.00335 0.60448
 H222 H 0.70314 -0.01836 0.57726
 H223 H 0.80316 0.05319 0.62066
 H224 H 0.77994 0.16672 0.58660
 H225 H 0.60824 0.10704 0.52789
 H226 H 0.64402 -0.00650 0.54798
 H227 H 0.72160 0.14780 0.56113
 H228 H 0.66640 0.13070 0.55018
 C229 C 0.41524 0.22913 0.41432
 C230 C 0.42293 0.24045 0.37791
 C231 C 0.40855 0.27438 0.36414
 C232 C 0.38437 0.29636 0.38527
 C233 C 0.37533 0.28380 0.42076
 C234 C 0.39084 0.25098 0.43525
 C235 C 0.43223 0.19349 0.42845
 C236 C 0.43050 0.18249 0.46563
 C237 C 0.44593 0.14852 0.47727
 C238 C 0.46279 0.12441 0.45208
 C239 C 0.46561 0.13547 0.41519
 C240 C 0.45143 0.17031 0.40347
 C241 C 0.44389 0.21722 0.35507
 C242 C 0.45692 0.18241 0.36725
 H243 H 0.44943 0.22560 0.32699
 H244 H 0.47211 0.16502 0.34822
 H245 H 0.41523 0.28282 0.33632
 H246 H 0.35659 0.29961 0.43783
 H247 H 0.44379 0.14057 0.50595
 H248 H 0.47944 0.11726 0.39582
 H249 H 0.38278 0.24277 0.46259
 H250 H 0.41768 0.19988 0.48614
 C251 C 0.92440 0.26749 0.57648
 C252 C 0.94100 0.25107 0.60802
 C253 C 0.92658 0.21772 0.62301
 C254 C 0.89530 0.20062 0.60720
 C255 C 0.87959 0.21701 0.57546
 C256 C 0.89385 0.24966 0.56034
 C257 C 0.93943 0.30372 0.56208
 C258 C 0.92401 0.32237 0.53141
 C259 C 0.93737 0.35702 0.52021
 C260 C 0.96671 0.37416 0.53889
 C261 C 0.98336 0.35526 0.56870
 C262 C 0.96969 0.32031 0.58060
 C263 C 0.97144 0.26843 0.62465
 C264 C 0.98546 0.30227 0.61126
 H265 H 0.98438 0.25590 0.64871
 H266 H 1.00871 0.31476 0.62544
 H267 H 0.93936 0.20564 0.64739
 H268 H 0.85576 0.20482 0.56202
 H269 H 0.92428 0.37066 0.49683
 H270 H 1.00606 0.36825 0.58334
 H271 H 0.88008 0.26052 0.53620
 H272 H 0.90125 0.31114 0.51585
 C273 C 0.06983 0.76225 -0.08203
 C274 C 0.10235 0.74774 -0.06554
 C275 C 0.11781 0.71407 -0.07820
 C276 C 0.10189 0.69449 -0.10786
 C277 C 0.06916 0.70869 -0.12364
 C278 C 0.05334 0.74194 -0.11093
 C279 C 0.05511 0.79914 -0.06860
 C280 C 0.02300 0.81625 -0.08309
 C281 C 0.01150 0.85150 -0.07065
 C282 C 0.03177 0.87058 -0.04361
 C283 C 0.06315 0.85326 -0.02835
 C284 C 0.07486 0.81795 -0.04049
 C285 C 0.11985 0.76732 -0.03704
 C286 C 0.10650 0.80173 -0.02490
 H287 H 0.14467 0.75618 -0.02432
 H288 H 0.12142 0.81606 -0.00317
 H289 H 0.14294 0.70376 -0.06536
 H290 H 0.05577 0.69443 -0.14636
 H291 H -0.01291 0.86415 -0.08274
 H292 H 0.07883 0.86746 -0.00705
 H293 H 0.02854 0.75151 -0.12453
 H294 H 0.00656 0.80310 -0.10423
 C295 C 0.57637 0.73026 1.08387
 C296 C 0.60872 0.74457 1.06769
 C297 C 0.62460 0.77791 1.08088
 C298 C 0.60932 0.79721 1.11087
 C299 C 0.57686 0.78303 1.12646
 C300 C 0.56060 0.75023 1.11317
 C301 C 0.56099 0.69390 1.06967
 C302 C 0.52874 0.67731 1.08357
 C303 C 0.51647 0.64264 1.07033
 C304 C 0.53604 0.62356 1.04303
 C305 C 0.56763 0.64034 1.02842
 C306 C 0.58010 0.67517 1.04135
 C307 C 0.62561 0.72511 1.03897
 C308 C 0.61174 0.69108 1.02624
 H309 H 0.65034 0.73604 1.02650
 H310 H 0.62621 0.67685 1.00435
 H311 H 0.64955 0.78812 1.06825
 H312 H 0.56395 0.79702 1.14943
 H313 H 0.49192 0.63046 1.08198
 H314 H 0.58282 0.62615 1.00698
 H315 H 0.53603 0.74073 1.12665
 H316 H 0.51273 0.69045 1.10480
 C317 C 0.40924 0.42419 1.22419
 C318 C 0.42285 0.38947 1.23776
 C319 C 0.40929 0.37443 1.27066
 C320 C 0.38189 0.39321 1.29048
 C321 C 0.36839 0.42760 1.27695
 C322 C 0.38184 0.44294 1.24434
 C323 C 0.42432 0.43907 1.18871
 C324 C 0.41304 0.47350 1.17289
 C325 C 0.42737 0.48555 1.13929
 C326 C 0.45325 0.46361 1.12060
 C327 C 0.46511 0.42966 1.13653
 C328 C 0.45100 0.41734 1.17020
 C329 C 0.44969 0.36972 1.21830
 C330 C 0.46336 0.38327 1.18520
 H331 H 0.46012 0.34315 1.22868
 H332 H 0.48389 0.36672 1.17106
 H333 H 0.41997 0.34780 1.28062
 H334 H 0.34728 0.44284 1.29158
 H335 H 0.41778 0.51189 1.12771
 H336 H 0.48530 0.41249 1.12257
 H337 H 0.37027 0.46935 1.23534
 H338 H 0.39308 0.49145 1.18585
 C339 C 0.59345 -0.07804 0.27476
 C340 C 0.56781 -0.09344 0.24946
 C341 C 0.58007 -0.10926 0.21632
 C342 C 0.61750 -0.10852 0.20729
 C343 C 0.64255 -0.09172 0.23169
 C344 C 0.63083 -0.07688 0.26505
 C345 C 0.57959 -0.06320 0.31061
 C346 C 0.60324 -0.05145 0.33926
 C347 C 0.58905 -0.03860 0.37247
 C348 C 0.55099 -0.03649 0.37779
 C349 C 0.52713 -0.04798 0.34945
 C350 C 0.54114 -0.06217 0.31634
 C351 C 0.53014 -0.09241 0.25717
 C352 C 0.51705 -0.07640 0.28954
 H353 H 0.51041 -0.10374 0.23766
 H354 H 0.48762 -0.07595 0.29402
 H355 H 0.56042 -0.12148 0.19724
 H356 H 0.67156 -0.09058 0.22526
 H357 H 0.60795 -0.03017 0.39411
 H358 H 0.49766 -0.04724 0.35374
 H359 H 0.65141 -0.06433 0.28261
 H360 H 0.63276 -0.05271 0.33692
 C361 C -0.08346 1.07090 -0.23067
 C362 C -0.06749 1.10425 -0.24448
 C363 C -0.07961 1.11952 -0.27814
 C364 C -0.10800 1.10243 -0.29836
 C365 C -0.12339 1.06906 -0.28488
 C366 C -0.11130 1.05343 -0.25162
 C367 C -0.07049 1.05623 -0.19399
 C368 C -0.08452 1.02334 -0.17760
 C369 C -0.07212 1.01155 -0.14286
 C370 C -0.04554 1.03226 -0.12356
 C371 C -0.03105 1.06468 -0.13996
 C372 C -0.04317 1.07670 -0.17477
 C373 C -0.04001 1.12265 -0.22431
 C374 C -0.02820 1.10924 -0.19018
 H375 H -0.02773 1.14812 -0.23487
 H376 H -0.00713 1.12477 -0.17550
 H377 H -0.06747 1.14533 -0.28809
 H378 H -0.14523 1.05505 -0.29989
 H379 H -0.08367 0.98637 -0.13095
 H380 H -0.01022 1.08084 -0.12557
 H381 H -0.12446 1.02798 -0.24262
 H382 H -0.10516 1.00641 -0.19100
 C383 C 1.07674 0.57023 0.73135
 C384 C 1.11052 0.55615 0.74536
 C385 C 1.12491 0.56998 0.77879
 C386 C 1.10597 0.59779 0.79853
 C387 C 1.07181 0.61046 0.78508
 C388 C 1.05735 0.59691 0.75216
 C389 C 1.06334 0.55667 0.69463
 C390 C 1.03142 0.57108 0.67749
 C391 C 1.02088 0.55908 0.64260
 C392 C 1.04154 0.53210 0.62374
 C393 C 1.07298 0.51673 0.64082
 C394 C 1.08431 0.52925 0.67589
 C395 C 1.12986 0.52876 0.72567
 C396 C 1.11689 0.51539 0.69186
 H397 H 1.15558 0.51766 0.73645
 H398 H 1.13302 0.49441 0.67764
 H399 H 1.15117 0.55963 0.78897
 H400 H 1.05616 0.63142 0.79981
 H401 H 0.99636 0.57123 0.63022
 H402 H 1.08928 0.49606 0.62635
 H403 H 1.03106 0.60804 0.74350
 H404 H 1.01443 0.59219 0.69010
 C405 C 0.77413 0.58261 0.58165
 C406 C 0.76726 0.62175 0.58208
 C407 C 0.73432 0.63567 0.59674
 C408 C 0.70884 0.61127 0.61278
 C409 C 0.71637 0.57268 0.61366
 C410 C 0.74841 0.55841 0.59804
 C411 C 0.80920 0.56881 0.56501
 C412 C 0.81686 0.53041 0.55967
 C413 C 0.85050 0.51891 0.54526
 C414 C 0.87749 0.54529 0.53627
 C415 C 0.86972 0.58365 0.54033
 C416 C 0.83556 0.59557 0.55384
 C417 C 0.79374 0.64676 0.56891
 C418 C 0.82750 0.63399 0.55589
 H419 H 0.78867 0.67675 0.56954
 H420 H 0.84745 0.65451 0.54688
 H421 H 0.72902 0.66565 0.59673
 H422 H 0.69716 0.55338 0.62612
 H423 H 0.85580 0.48915 0.54208
 H424 H 0.89019 0.60423 0.53265
 H425 H 0.75283 0.52850 0.59967
 H426 H 0.79722 0.50887 0.56630
 C427 C 0.72491 0.40834 1.07905
 C428 C 0.74387 0.43070 1.10507
 C429 C 0.77670 0.41752 1.12137
 C430 C 0.79229 0.38307 1.11054
 C431 C 0.77441 0.36233 1.08275
 C432 C 0.74111 0.37452 1.06754
 C433 C 0.68871 0.42208 1.06424
 C434 C 0.66504 0.39937 1.04296
 C435 C 0.63122 0.41322 1.03038
 C436 C 0.62071 0.45021 1.03789
 C437 C 0.64388 0.47306 1.05912
 C438 C 0.67719 0.45885 1.07336
 C439 C 0.73032 0.46637 1.11405
 C440 C 0.69825 0.48056 1.09772
 H441 H 0.74508 0.48386 1.13352
 H442 H 0.68924 0.50855 1.10512
 H443 H 0.79045 0.43462 1.14191
 H444 H 0.78562 0.33594 1.07314
 H445 H 0.61329 0.39509 1.01449
 H446 H 0.63517 0.50135 1.06585
 H447 H 0.72871 0.35728 1.04648
 H448 H 0.67172 0.37060 1.03657
 C449 C 0.22495 1.07823 -0.08611
 C450 C 0.23188 1.11729 -0.08561
 C451 C 0.26494 1.13131 -0.09960
 C452 C 0.29070 1.10720 -0.11577
 C453 C 0.28321 1.06871 -0.11762
 C454 C 0.25091 1.05426 -0.10270
 C455 C 0.18970 1.06435 -0.06999
 C456 C 0.18179 1.02592 -0.06564
 C457 C 0.14820 1.01444 -0.05120
 C458 C 0.12149 1.04092 -0.04122
 C459 C 0.12938 1.07925 -0.04462
 C460 C 0.16348 1.09111 -0.05813
 C461 C 0.20542 1.14222 -0.07207
 C462 C 0.17164 1.12947 -0.05936
 H463 H 0.21060 1.17216 -0.07202
 H464 H 0.15178 1.14995 -0.04989
 H465 H 0.27014 1.16126 -0.09890
 H466 H 0.30260 1.04966 -0.13028
 H467 H 0.14277 0.98468 -0.04859
 H468 H 0.10913 1.09986 -0.03623
 H469 H 0.24650 1.02443 -0.10496
 H470 H 0.20124 1.00433 -0.07298
 C471 C 0.27292 -0.07795 0.41903
 C472 C 0.25548 -0.10777 0.43771
 C473 C 0.22199 -0.12229 0.42419
 C474 C 0.20559 -0.10755 0.39194
 C475 C 0.22259 -0.07693 0.37455
 C476 C 0.25551 -0.06234 0.38784
 C477 C 0.30948 -0.06457 0.43290
 C478 C 0.32970 -0.03658 0.41476
 C479 C 0.36410 -0.02579 0.42783
 C480 C 0.37949 -0.04233 0.45947
 C481 C 0.35945 -0.06997 0.47819
 C482 C 0.32475 -0.08146 0.46489
 C483 C 0.27184 -0.12317 0.46943
 C484 C 0.30560 -0.11013 0.48285
 H485 H 0.25847 -0.14584 0.48399
 H486 H 0.31716 -0.12314 0.50736
 H487 H 0.20928 -0.14559 0.43842
 H488 H 0.21078 -0.06417 0.35006
 H489 H 0.37874 -0.00426 0.41287
 H490 H 0.37114 -0.08310 0.50258
 H491 H 0.26686 -0.03900 0.37293
 H492 H 0.31984 -0.02286 0.39012
 C493 C 0.57673 -0.23001 0.58667
 C494 C 0.60969 -0.24415 0.57146
 C495 C 0.62551 -0.27740 0.58516
 C496 C 0.60944 -0.29699 0.61454
 C497 C 0.57653 -0.28292 0.62935
 C498 C 0.56039 -0.25005 0.61564
 C499 C 0.56128 -0.19385 0.57174
 C500 C 0.52847 -0.17738 0.58462
 C501 C 0.51612 -0.14289 0.57065
 C502 C 0.53617 -0.12395 0.54362
 C503 C 0.56829 -0.14065 0.53000
 C504 C 0.58087 -0.17522 0.54368
 C505 C 0.62713 -0.22473 0.54306
 C506 C 0.61314 -0.19093 0.52960
 H507 H 0.65233 -0.23556 0.53136
 H508 H 0.62798 -0.17673 0.50794
 H509 H 0.65085 -0.28752 0.57315
 H510 H 0.56310 -0.29713 0.65190
 H511 H 0.49116 -0.13071 0.58154
 H512 H 0.58386 -0.12656 0.50878
 H513 H 0.53537 -0.24063 0.62842
 H514 H 0.51211 -0.19045 0.60561
 C515 C 1.07899 0.73244 0.42100
 C516 C 1.07030 0.74384 0.38467
 C517 C 1.08479 0.77731 0.37057
 C518 C 1.11019 0.79865 0.39115
 C519 C 1.11971 0.78639 0.42681
 C520 C 1.10403 0.75406 0.44170
 C521 C 1.06260 0.69672 0.43509
 C522 C 1.06583 0.68517 0.47208
 C523 C 1.05145 0.65080 0.48344
 C524 C 1.03421 0.62692 0.45810
 C525 C 1.02967 0.63864 0.42153
 C526 C 1.04281 0.67377 0.41013
 C527 C 1.04852 0.72097 0.36202
 C528 C 1.03595 0.68619 0.37415
 H529 H 1.04215 0.72950 0.33403
 H530 H 1.02024 0.66897 0.35520
 H531 H 1.07754 0.78559 0.34271
 H532 H 1.13926 0.80185 0.44352
 H533 H 1.05485 0.64229 0.51190
 H534 H 1.01552 0.62056 0.40210
 H535 H 1.11265 0.74590 0.46906
 H536 H 1.07919 0.70234 0.49261
 C537 C -0.07896 1.22623 0.08300
 C538 C -0.06941 1.23766 0.11905
 C539 C -0.08407 1.27107 0.13348
 C540 C -0.11056 1.29193 0.11353
 C541 C -0.12111 1.27925 0.07836
 C542 C -0.10525 1.24727 0.06312
 C543 C -0.06225 1.19096 0.06826
 C544 C -0.06598 1.18007 0.03119
 C545 C -0.05146 1.14601 0.01916
 C546 C -0.03351 1.12176 0.04387
 C547 C -0.02831 1.13292 0.08051
 C548 C -0.04159 1.16786 0.09256
 C549 C -0.04665 1.21478 0.14101
 C550 C -0.03400 1.18008 0.12845
 H551 H -0.03961 1.22319 0.16882
 H552 H -0.01758 1.16280 0.14692
 H553 H -0.07616 1.27965 0.16103
 H554 H -0.14153 1.29427 0.06211
 H555 H -0.05531 1.13801 -0.00935
 H556 H -0.01355 1.11460 0.09944
 H557 H -0.11473 1.23888 0.03617
 H558 H -0.07982 1.19755 0.01108
 C559 C 0.41711 0.27017 0.91434
 C560 C 0.41807 0.26368 0.87596
 C561 C 0.40351 0.23041 0.86133
 C562 C 0.38624 0.20419 0.88417
 C563 C 0.38393 0.21134 0.92196
 C564 C 0.39944 0.24374 0.93699
 C565 C 0.43376 0.30562 0.92894
 C566 C 0.43775 0.31294 0.96685
 C567 C 0.45230 0.34697 0.97904
 C568 C 0.46274 0.37468 0.95382
 C569 C 0.45999 0.36724 0.91604
 C570 C 0.44637 0.33269 0.90348
 C571 C 0.43258 0.29086 0.85233
 C572 C 0.44565 0.32499 0.86572
 H573 H 0.43302 0.28605 0.82291
 H574 H 0.45576 0.34549 0.84624
 H575 H 0.40462 0.22544 0.83194
 H576 H 0.37048 0.19156 0.94003
 H577 H 0.45445 0.35204 1.00835
 H578 H 0.46879 0.38826 0.89640
 H579 H 0.39674 0.24787 0.96622
 H580 H 0.42994 0.29273 0.98747
 C581 C 0.58417 0.57454 0.77268
 C582 C 0.62260 0.57487 0.76684
 C583 C 0.63666 0.58887 0.73370
 C584 C 0.61307 0.60443 0.70695
 C585 C 0.57512 0.60502 0.71318
 C586 C 0.56073 0.58996 0.74543
 C587 C 0.57026 0.55929 0.80836
 C588 C 0.53255 0.55454 0.81548
 C589 C 0.52089 0.54158 0.84964
 C590 C 0.54642 0.53339 0.87769
 C591 C 0.58409 0.53694 0.87059
 C592 C 0.59617 0.54906 0.83595
 C593 C 0.64680 0.56257 0.79459
 C594 C 0.63390 0.55071 0.82869
 H595 H 0.67624 0.56309 0.79025
 H596 H 0.65377 0.54239 0.84960
 H597 H 0.66613 0.58918 0.72941
 H598 H 0.55647 0.61718 0.69298
 H599 H 0.49166 0.53875 0.85440
 H600 H 0.60401 0.52986 0.89191
 H601 H 0.53134 0.59154 0.74887
 H602 H 0.51164 0.56052 0.79504
 C603 C 0.41890 0.07790 0.72424
 C604 C 0.38741 0.06068 0.73930
 C605 C 0.37212 0.07458 0.77204
 C606 C 0.38782 0.10562 0.79005
 C607 C 0.41960 0.12186 0.77539
 C608 C 0.43497 0.10827 0.74311
 C609 C 0.43346 0.06348 0.68850
 C610 C 0.46360 0.07996 0.67071
 C611 C 0.47528 0.06673 0.63679
 C612 C 0.45756 0.03651 0.61956
 C613 C 0.42798 0.01916 0.63738
 C614 C 0.41560 0.03270 0.67151
 C615 C 0.37119 0.03002 0.72138
 C616 C 0.38507 0.01623 0.68833
 H617 H 0.34720 0.01662 0.73295
 H618 H 0.37134 -0.00735 0.67546
 H619 H 0.34770 0.06156 0.78312
 H620 H 0.43266 0.14557 0.78869
 H621 H 0.49835 0.08051 0.62389
 H622 H 0.41398 -0.00412 0.62426
 H623 H 0.45926 0.12224 0.73342
 H624 H 0.47835 0.10346 0.68209
 C625 C 0.09386 0.91849 0.22285
 C626 C 0.06824 0.90337 0.24792
 C627 C 0.08050 0.88809 0.28154
 C628 C 0.11787 0.88923 0.29131
 C629 C 0.14297 0.90555 0.26707
 C630 C 0.13126 0.91978 0.23318
 C631 C 0.07993 0.93317 0.18667
 C632 C 0.10352 0.94477 0.15831
 C633 C 0.08922 0.95770 0.12485
 C634 C 0.05115 0.96002 0.11908
 C635 C 0.02737 0.94860 0.14708
 C636 C 0.04146 0.93435 0.18041
 C637 C 0.03055 0.90437 0.23961
 C638 C 0.01740 0.92024 0.20691
 H639 H 0.01086 0.89321 0.25895
 H640 H -0.01204 0.92077 0.20198
 H641 H 0.06086 0.87626 0.30057
 H642 H 0.17193 0.90698 0.27418
 H643 H 0.10803 0.96603 0.10341
 H644 H -0.00212 0.94947 0.14237
 H645 H 0.15184 0.93210 0.21577
 H646 H 0.13304 0.94335 0.16105
 C647 C 0.91473 0.42075 0.27277
 C648 C 0.87624 0.42017 0.26648
 C649 C 0.86194 0.40513 0.23365
 C650 C 0.88534 0.38874 0.20771
 C651 C 0.92332 0.38812 0.21458
 C652 C 0.93794 0.40421 0.24648
 C653 C 0.92891 0.43754 0.30791
 C654 C 0.96667 0.44295 0.31517
 C655 C 0.97857 0.45730 0.34894
 C656 C 0.95324 0.46614 0.37646
 C657 C 0.91552 0.46208 0.36908
 C658 C 0.90320 0.44865 0.33481
 C659 C 0.85225 0.43344 0.29348
 C660 C 0.86541 0.44655 0.32724
 H661 H 0.82278 0.43271 0.28884
 H662 H 0.84568 0.45555 0.34760
 H663 H 0.83246 0.40492 0.22888
 H664 H 0.94185 0.37538 0.19503
 H665 H 1.00781 0.46048 0.35392
 H666 H 0.89573 0.46963 0.38996
 H667 H 0.96735 0.40270 0.25040
 H668 H 0.98740 0.43638 0.29514
   
