data_POSCAR
  _audit_creation_date              2014-09-24
  _audit_creation_method            'ToBaCCo'
  _symmetry_space_group_name_H-M    'P1'
  _symmetry_Int_Tables_number       1
  _symmetry_cell_setting            triclinic
  loop_
  _symmetry_equiv_pos_as_xyz
 x,y,z
_cell_length_a 27.3080
_cell_length_b 27.2206
_cell_length_c 27.2984
_cell_angle_alpha 89.201400
_cell_angle_beta 97.323300
_cell_angle_gamma 98.867700
loop_
  _atom_site_label
  _atom_site_type_symbol
  _atom_site_fract_x
  _atom_site_fract_y
  _atom_site_fract_z
O1 O 0.56441 0.49537 0.04231
 O2 O 0.42750 0.48926 0.02965
 O3 O 0.48898 0.42631 0.02569
 O4 O 0.50303 0.56064 0.04835
 O5 O 0.50615 0.57479 -0.03116
 O6 O 0.48380 0.43949 -0.05472
 O7 O 0.42714 0.50832 -0.04919
 O8 O 0.56300 0.50804 -0.03798
 Cu9 Cu 0.49620 0.49188 0.04463
 Cu10 Cu 0.49485 0.50888 -0.05136
 C11 C 0.58674 0.50164 0.00410
 C12 C 0.40397 0.49859 -0.01183
 C13 C 0.48363 0.40993 -0.01822
 C14 C 0.50714 0.59062 0.01252
 O15 O -0.02714 0.55994 0.50196
 O16 O -0.02730 0.42447 0.50287
 O17 O -0.02526 0.49149 0.57200
 O18 O -0.02998 0.49115 0.43643
 O19 O 0.05253 0.50707 0.44417
 O20 O 0.05719 0.50344 0.57968
 O21 O 0.05527 0.43695 0.51088
 O22 O 0.05527 0.57206 0.51410
 Cu23 Cu -0.03577 0.49066 0.50316
 Cu24 Cu 0.06332 0.50598 0.51299
 C25 C 0.01423 0.58922 0.50802
 C26 C 0.01389 0.40784 0.50565
 C27 C 0.01678 0.49764 0.59894
 C28 C 0.01050 0.49896 0.41734
 O29 O 0.51774 0.04428 0.55699
 O30 O 0.50198 0.02705 0.42231
 O31 O 0.44245 0.04703 0.48515
 O32 O 0.57289 0.02503 0.49253
 O33 O 0.54887 -0.05395 0.50973
 O34 O 0.41784 -0.03387 0.49049
 O35 O 0.48042 -0.05374 0.43188
 O36 O 0.48291 -0.03360 0.56530
 Cu37 Cu 0.51061 0.04419 0.48834
 Cu38 Cu 0.48044 -0.05212 0.50001
 C39 C 0.50195 0.00848 0.58410
 C40 C 0.49003 -0.01647 0.40423
 C41 C 0.40788 0.01009 0.48616
 C42 C 0.58309 -0.01799 0.50353
 C43 C 0.50408 0.12637 -0.09579
 C44 C 0.50472 0.09140 -0.13128
 C45 C 0.49529 0.04516 -0.10929
 N46 N 0.48720 0.05101 -0.06207
 C47 C 0.49254 0.10054 -0.05368
 C48 C 0.49085 -0.00149 -0.13317
 C49 C 0.49205 -0.04693 -0.10677
 C50 C 0.48229 -0.09413 -0.12799
 C51 C 0.49027 -0.12746 -0.09089
 C52 C 0.50647 -0.10016 -0.04789
 N53 N 0.50736 -0.05111 -0.05780
 C54 C 0.52281 -0.12076 -0.00174
 C55 C 0.52721 -0.09467 0.04329
 C56 C 0.54869 -0.11001 0.08859
 C57 C 0.54212 -0.07607 0.12301
 C58 C 0.51688 -0.04126 0.09749
 N59 N 0.50772 -0.05277 0.04887
 C60 C 0.50053 -0.00083 0.11885
 C61 C 0.48158 0.03704 0.08987
 C62 C 0.45353 0.07040 0.10625
 C63 C 0.44900 0.10541 0.06986
 C64 C 0.47419 0.09224 0.03227
 N65 N 0.49326 0.05012 0.04434
 C66 C 0.48427 0.12189 -0.00914
 H67 H 0.51097 0.16613 -0.10108
 H68 H 0.51165 0.09991 -0.16875
 H69 H 0.51921 0.03585 0.02600
 H70 H 0.47183 -0.10452 -0.16632
 H71 H 0.48538 -0.16738 -0.09560
 H72 H 0.56720 -0.14221 0.09609
 H73 H 0.55465 -0.07694 0.16220
 H74 H 0.43049 0.13767 0.07140
 H75 H 0.52293 -0.02207 -0.03365
 H76 H 0.43914 0.07038 0.14140
 C77 C -0.09478 0.52446 0.87417
 C78 C -0.12642 0.53300 0.90717
 C79 C -0.10323 0.52347 0.95381
 N80 N -0.05913 0.50788 0.94998
 C81 C -0.05388 0.50838 0.90133
 C82 C -0.12418 0.52584 0.99850
 C83 C -0.09675 0.52230 1.04591
 C84 C -0.11741 0.51821 1.08998
 C85 C -0.07865 0.51918 1.12742
 C86 C -0.03497 0.52403 1.10562
 N87 N -0.04636 0.52658 1.05595
 C88 C 0.01384 0.52991 1.13201
 C89 C 0.05744 0.52955 1.10911
 C90 C 0.10601 0.54294 1.13179
 C91 C 0.13691 0.53442 1.09806
 C92 C 0.10639 0.51446 1.05637
 N93 N 0.05785 0.51181 1.06316
 C94 C 0.12313 0.49568 1.01437
 C95 C 0.09064 0.48216 0.97038
 C96 C 0.10123 0.45319 0.93286
 C97 C 0.06253 0.45216 0.89522
 C98 C 0.02916 0.48036 0.91077
 N99 N 0.04642 0.49833 0.95675
 C100 C -0.01404 0.49167 0.88115
 H101 H -0.10167 0.52920 0.83462
 H102 H -0.16243 0.54468 0.89734
 H103 H 0.03209 0.52515 0.97499
 H104 H -0.15623 0.51616 1.09526
 H105 H -0.08251 0.51804 1.16638
 H106 H 0.11840 0.55728 1.16873
 H107 H 0.17729 0.54173 1.10407
 H108 H 0.05944 0.43299 0.86023
 H109 H -0.02100 0.53609 1.03087
 H110 H 0.13365 0.43487 0.93242
 C111 C 0.09812 -0.08529 0.45174
 C112 C 0.05771 -0.12229 0.44968
 C113 C 0.02288 -0.10463 0.47475
 N114 N 0.04047 -0.05806 0.49178
 C115 C 0.08659 -0.04630 0.47801
 C116 C -0.02198 -0.13291 0.48625
 C117 C -0.06111 -0.10976 0.50039
 C118 C -0.10230 -0.13353 0.52088
 C119 C -0.13347 -0.09885 0.52406
 C120 C -0.10968 -0.05433 0.50712
 N121 N -0.06573 -0.06133 0.49268
 C122 C -0.12979 -0.00949 0.50185
 C123 C -0.09956 0.03783 0.50284
 C124 C -0.11760 0.08281 0.50130
 C125 C -0.07690 0.11941 0.50632
 C126 C -0.03498 0.09589 0.51065
 N127 N -0.04897 0.04592 0.50948
 C128 C 0.01498 0.12073 0.51866
 C129 C 0.05714 0.09595 0.52055
 C130 C 0.10590 0.11663 0.53775
 C131 C 0.13560 0.08132 0.53140
 C132 C 0.10445 0.04040 0.50941
 N133 N 0.05679 0.04974 0.50276
 C134 C 0.12039 -0.00319 0.49377
 H135 H 0.13244 -0.08713 0.43639
 H136 H 0.05457 -0.15827 0.43218
 H137 H 0.02669 0.02790 0.48244
 H138 H -0.10965 -0.17191 0.53218
 H139 H -0.16915 -0.10596 0.53802
 H140 H -0.15604 0.08896 0.49866
 H141 H -0.07839 0.15882 0.50784
 H142 H 0.17566 0.08577 0.54142
 H143 H -0.04326 -0.03583 0.47317
 H144 H 0.11920 0.15333 0.55315
 C145 C -0.27866 0.53560 0.99136
 C146 C -0.25933 0.49410 1.01234
 N147 N -0.29018 0.45708 1.03174
 C148 C -0.33966 0.45947 1.03079
 C149 C -0.35944 0.50008 1.00831
 N150 N -0.32840 0.53729 0.98900
 N151 N -0.24727 0.57370 0.97421
 C152 C -0.19746 0.57197 0.97667
 C153 C -0.17828 0.52957 0.99579
 N154 N -0.20993 0.49173 1.01341
 H155 H -0.36361 0.42935 1.04621
 H156 H -0.17307 0.60313 0.96345
 C157 C 0.27699 0.48293 1.02023
 C158 C 0.25161 0.50342 0.97891
 N159 N 0.27661 0.51981 0.94049
 C160 C 0.32612 0.51727 0.94174
 C161 C 0.35240 0.49878 0.98411
 N162 N 0.32676 0.48183 1.02226
 N163 N 0.25146 0.46442 1.05763
 C164 C 0.20182 0.46643 1.05606
 C165 C 0.17675 0.48966 1.01606
 N166 N 0.20243 0.50692 0.97803
 H167 H 0.34494 0.53100 0.91055
 H168 H 0.18226 0.45077 1.08610
 C169 C -0.02761 -0.29008 0.48982
 C170 C 0.01609 -0.25786 0.50726
 N171 N 0.05827 -0.27667 0.52383
 C172 C 0.05885 -0.32646 0.52391
 C173 C 0.01472 -0.35933 0.50787
 N174 N -0.02762 -0.34005 0.49130
 N175 N -0.06881 -0.27076 0.47037
 C176 C -0.06836 -0.22065 0.46803
 C177 C -0.02511 -0.18820 0.48736
 N178 N 0.01605 -0.20811 0.50630
 H179 H 0.09327 -0.34013 0.53733
 H180 H -0.10127 -0.20635 0.45105
 C181 C 0.03002 0.27730 0.53439
 C182 C 0.00960 0.25355 0.48940
 N183 N -0.00874 0.28054 0.45114
 C184 C -0.00770 0.33032 0.45579
 C185 C 0.01327 0.35432 0.50043
 N186 N 0.03190 0.32729 0.53882
 N187 N 0.04610 0.24969 0.57330
 C188 C 0.04260 0.19942 0.56927
 C189 C 0.02289 0.17571 0.52402
 N190 N 0.00687 0.20361 0.48520
 H191 H -0.02278 0.35110 0.42486
 H192 H 0.05446 0.17806 0.60113
 C193 C 0.47517 -0.01007 -0.28958
 C194 C 0.51429 0.02263 -0.26370
 N195 N 0.54666 0.05254 -0.28909
 C196 C 0.54212 0.05055 -0.33929
 C197 C 0.50535 0.01487 -0.36502
 N198 N 0.47264 -0.01448 -0.33926
 N199 N 0.43968 -0.03600 -0.26478
 C200 C 0.44244 -0.03177 -0.21493
 C201 C 0.48429 -0.00292 -0.18821
 N202 N 0.51887 0.02427 -0.21363
 H203 H 0.56860 0.07470 -0.35855
 H204 H 0.41302 -0.05194 -0.19613
 C205 C 0.50759 0.01174 0.27416
 C206 C 0.48522 -0.03274 0.24987
 N207 N 0.46525 -0.07157 0.27651
 C208 C 0.46647 -0.06783 0.32637
 C209 C 0.48820 -0.02299 0.35061
 N210 N 0.50829 0.01563 0.32366
 N211 N 0.52828 0.05039 0.24793
 C212 C 0.52721 0.04682 0.19825
 C213 C 0.50380 0.00281 0.17343
 N214 N 0.48359 -0.03618 0.20005
 H215 H 0.45020 -0.09930 0.34671
 H216 H 0.54413 0.07816 0.17815
 C217 C 0.53723 -0.27344 -0.00481
 C218 C 0.51041 -0.25524 0.02970
 N219 N 0.48625 -0.28739 0.06033
 C220 C 0.48685 -0.33712 0.05734
 C221 C 0.51145 -0.35567 0.02105
 N222 N 0.53640 -0.32320 -0.00899
 N223 N 0.56245 -0.24118 -0.03456
 C224 C 0.56091 -0.19158 -0.03232
 C225 C 0.53126 -0.17354 -0.00018
 N226 N 0.50743 -0.20598 0.03073
 H227 H 0.46649 -0.36207 0.08155
 H228 H 0.58103 -0.16663 -0.05671
 C229 C 0.49534 0.27831 0.00647
 C230 C 0.46951 0.25434 -0.03650
 N231 N 0.44932 0.28184 -0.07351
 C232 C 0.45371 0.33222 -0.06932
 C233 C 0.47863 0.35600 -0.02574
 N234 N 0.49877 0.32821 0.01104
 N235 N 0.51727 0.25150 0.04273
 C236 C 0.51440 0.20155 0.03817
 C237 C 0.48754 0.17683 -0.00424
 N238 N 0.46567 0.20412 -0.04070
 H239 H 0.43725 0.35332 -0.09923
 H240 H 0.53307 0.18126 0.06738
 C241 C -0.28598 -0.00900 0.47952
 C242 C -0.26411 -0.03131 0.52176
 N243 N -0.29332 -0.05163 0.55584
 C244 C -0.34331 -0.04994 0.54988
 C245 C -0.36464 -0.02555 0.50875
 N246 N -0.33538 -0.00581 0.47446
 N247 N -0.25739 0.00975 0.44452
 C248 C -0.20759 0.00803 0.45023
 C249 C -0.18491 -0.01181 0.49366
 N250 N -0.21397 -0.03152 0.52831
 H251 H -0.36579 -0.06573 0.57781
 H252 H -0.18549 0.02334 0.42182
 C253 C 0.27434 -0.01420 0.50263
 C254 C 0.25601 0.02690 0.47961
 N255 N 0.28805 0.06278 0.45995
 C256 C 0.33751 0.05916 0.46203
 C257 C 0.35546 0.01726 0.48393
 N258 N 0.32322 -0.01825 0.50377
 N259 N 0.24310 -0.04942 0.52366
 C260 C 0.19395 -0.04588 0.52217
 C261 C 0.17474 -0.00583 0.49756
 N262 N 0.20652 0.03001 0.47715
 H263 H 0.36228 0.08810 0.44599
 H264 H 0.16987 -0.07437 0.53957
 C265 C 0.02673 0.53611 1.28846
 C266 C 0.00215 0.49344 1.26223
 N267 N -0.01925 0.45398 1.28703
 C268 C -0.01717 0.45517 1.33700
 C269 C 0.00834 0.49728 1.36348
 N270 N 0.02985 0.53690 1.33857
 N271 N 0.04600 0.57639 1.26325
 C272 C 0.04209 0.57579 1.21303
 C273 C 0.01887 0.53255 1.18680
 N274 N -0.00070 0.49246 1.21229
 H275 H -0.03472 0.42334 1.35600
 H276 H 0.05711 0.60856 1.19370
 C277 C -0.01977 0.47937 0.72537
 C278 C 0.02246 0.50490 0.75423
 N279 N 0.06220 0.52622 0.73220
 C280 C 0.06159 0.52351 0.68245
 C281 C 0.01891 0.49908 0.65313
 N282 N -0.02087 0.47748 0.67547
 N283 N -0.05884 0.45678 0.74779
 C284 C -0.05787 0.45916 0.79771
 C285 C -0.01642 0.48644 0.82657
 N286 N 0.02300 0.50814 0.80384
 H287 H 0.09375 0.54116 0.66588
 H288 H -0.08924 0.44032 0.81470
   
