data_POSCAR
  _audit_creation_date              2014-09-24
  _audit_creation_method            'ToBaCCo'
  _symmetry_space_group_name_H-M    'P1'
  _symmetry_Int_Tables_number       1
  _symmetry_cell_setting            triclinic
  loop_
  _symmetry_equiv_pos_as_xyz
 x,y,z
_cell_length_a 23.9460
_cell_length_b 21.2490
_cell_length_c 17.8060
_cell_angle_alpha 89.842500
_cell_angle_beta 90.261000
_cell_angle_gamma 89.645000
loop_
  _atom_site_label
  _atom_site_type_symbol
  _atom_site_fract_x
  _atom_site_fract_y
  _atom_site_fract_z
C1 C 1.25279 0.25084 0.24588
 C2 C 0.74447 -0.25235 0.25733
 C3 C 0.74638 0.25283 -0.25846
 C4 C 1.25494 -0.25219 -0.25331
 C5 C 0.25396 0.25146 0.75024
 C6 C 0.74542 0.74650 0.74420
 C7 C 0.74685 0.25134 0.25957
 C8 C 0.25513 0.74730 0.25108
 O9 O 1.07603 0.10901 0.13743
 O10 O 1.13763 0.04987 0.06822
 C11 C 1.12636 0.09224 0.11887
 O12 O 0.92037 -0.11859 0.13170
 O13 O 0.85850 -0.05825 0.06330
 C14 C 0.86978 -0.10238 0.11219
 O15 O 1.07777 -0.11569 0.13550
 O16 O 1.13857 -0.05747 0.06465
 C17 C 1.12813 -0.10012 0.11528
 O18 O 0.92044 0.11407 0.13241
 O19 O 0.85844 0.05488 0.06440
 C20 C 0.86986 0.09859 0.11340
 Zr21 Zr 0.99821 0.07599 0.09638
 O22 O 0.99768 0.06335 0.21412
 O23 O 0.99768 0.17512 0.10748
 Zr24 Zr 0.99866 -0.08248 0.09470
 O25 O 0.99456 -0.08072 0.21344
 O26 O 1.00411 -0.18196 0.09426
 O27 O 1.04886 -0.00348 0.10979
 O28 O 0.94927 -0.00301 0.10894
 O29 O 0.91917 0.11523 -0.13033
 O30 O 0.85777 0.05538 -0.06247
 C31 C 0.86877 0.09954 -0.11106
 O32 O 1.07652 -0.11273 -0.13800
 O33 O 1.13802 -0.05518 -0.06693
 C34 C 1.12704 -0.09711 -0.11819
 O35 O 0.91953 -0.11683 -0.13218
 O36 O 0.85809 -0.05732 -0.06333
 C37 C 0.86909 -0.10106 -0.11231
 O38 O 1.07601 0.11205 -0.13484
 O39 O 1.13760 0.05269 -0.06487
 C40 C 1.12659 0.09583 -0.11517
 Zr41 Zr 0.99788 0.07821 -0.09423
 O42 O 1.00170 0.07471 -0.21313
 O43 O 1.00052 0.17777 -0.09470
 Zr44 Zr 0.99794 -0.08055 -0.09578
 O45 O 0.99248 -0.07593 -0.21438
 O46 O 1.00375 -0.17996 -0.09841
 Zr47 Zr 1.08180 -0.00240 0.00015
 Zr48 Zr 0.91427 -0.00169 0.00038
 O49 O 0.94864 -0.00081 -0.10824
 O50 O 1.04807 -0.00127 -0.10932
 O51 O 0.94833 0.08966 0.00118
 O52 O 1.04674 -0.09306 -0.00077
 O53 O 1.04650 0.08843 0.00126
 O54 O 0.94842 -0.09352 -0.00060
 H55 H 0.92384 -0.00310 0.15268
 H56 H 1.07170 -0.13040 -0.00140
 H57 H 0.92252 -0.00078 -0.15148
 H58 H 1.07150 0.12535 0.00160
 H59 H 0.97311 -0.19776 0.06279
 H60 H 0.97464 -0.19658 -0.06465
 H61 H 1.02252 -0.04774 -0.23186
 H62 H 0.96472 0.06250 -0.23307
 H63 H 0.97273 0.19286 -0.05781
 H64 H 1.01235 0.19288 0.06027
 H65 H 0.99637 0.10615 0.23599
 H66 H 1.02595 -0.05471 0.23164
 O67 O 1.08325 0.60940 0.63192
 O68 O 1.14437 0.55786 0.55373
 C69 C 1.13246 0.59986 0.60464
 O70 O 0.93281 0.37404 0.61843
 O71 O 0.86555 0.43791 0.56550
 C72 C 0.88147 0.38816 0.60323
 O73 O 1.08408 0.38505 0.62578
 O74 O 1.14493 0.43960 0.55070
 C75 C 1.13328 0.39609 0.60001
 O76 O 0.93133 0.62022 0.62590
 O77 O 0.86487 0.55969 0.56789
 C78 C 0.88023 0.60762 0.60841
 Zr79 Zr 1.00580 0.57464 0.59654
 O80 O 1.00577 0.55811 0.71356
 O81 O 1.00985 0.67249 0.61717
 Zr82 Zr 1.00672 0.42073 0.59160
 O83 O 1.00645 0.43152 0.70948
 O84 O 1.01121 0.32197 0.60594
 O85 O 1.05880 0.49744 0.60504
 O86 O 0.95549 0.49731 0.61082
 O87 O 0.92225 0.62272 0.38183
 O88 O 0.86063 0.56182 0.44821
 C89 C 0.87278 0.60960 0.40518
 O90 O 1.07306 0.39260 0.35372
 O91 O 1.14008 0.44666 0.41938
 C92 C 1.12420 0.40695 0.36769
 O93 O 0.92341 0.38169 0.37618
 O94 O 0.86135 0.43958 0.44606
 C95 C 0.87398 0.39318 0.40123
 O96 O 1.07352 0.61729 0.36447
 O97 O 1.14006 0.56083 0.42981
 C98 C 1.12458 0.60610 0.38455
 Zr99 Zr 0.99885 0.57944 0.40536
 O100 O 0.99202 0.56912 0.28777
 O101 O 1.00119 0.67856 0.39476
 Zr102 Zr 0.99924 0.42500 0.40103
 O103 O 0.98668 0.43585 0.28379
 O104 O 1.00527 0.32624 0.38832
 Zr105 Zr 1.08762 0.50011 0.49300
 Zr106 Zr 0.91795 0.49993 0.50378
 O107 O 0.94762 0.50257 0.39292
 O108 O 1.05005 0.50276 0.38546
 O109 O 0.95412 0.59003 0.50409
 O110 O 1.05106 0.41040 0.49255
 O111 O 1.04947 0.58958 0.49853
 O112 O 0.95489 0.40987 0.49891
 H113 H 0.92988 0.49636 0.65442
 H114 H 1.07469 0.37215 0.48862
 H115 H 0.91922 0.50338 0.35221
 H116 H 1.07105 0.62916 0.49868
 H117 H 1.01643 0.30358 0.55556
 H118 H 0.99045 0.30717 0.43481
 H119 H 1.02116 0.45386 0.26230
 H120 H 0.98999 0.61238 0.26704
 H121 H 0.99055 0.69597 0.44413
 H122 H 1.00753 0.69363 0.56776
 H123 H 1.00301 0.60010 0.73729
 H124 H 1.00388 0.38847 0.73057
 O125 O 0.60015 -0.08630 0.63067
 O126 O 0.54943 -0.15755 0.56228
 C127 C 0.58848 -0.14299 0.61046
 O128 O 0.39781 0.08479 0.63381
 O129 O 0.44660 0.15737 0.56493
 C130 C 0.40834 0.14174 0.61328
 O131 O 0.40257 -0.08629 0.63830
 O132 O 0.44846 -0.15761 0.56366
 C133 C 0.41232 -0.14294 0.61548
 O134 O 0.60501 0.08488 0.62319
 O135 O 0.55131 0.15754 0.55977
 C136 C 0.59254 0.14195 0.60433
 Zr137 Zr 0.56963 -0.00049 0.59055
 O138 O 0.56996 -0.00487 0.70963
 O139 O 0.65783 -0.00223 0.58326
 Zr140 Zr 0.43181 -0.00028 0.59775
 O141 O 0.44265 0.00457 0.71578
 O142 O 0.34404 -0.00522 0.60970
 O143 O 0.50124 -0.05821 0.60808
 O144 O 0.50094 0.05621 0.60817
 O145 O 0.59908 0.08581 0.36808
 O146 O 0.54914 0.15778 0.43696
 C147 C 0.58846 0.14258 0.38958
 O148 O 0.39422 -0.08337 0.36774
 O149 O 0.44608 -0.15603 0.43398
 C150 C 0.40650 -0.14054 0.38662
 O151 O 0.38726 0.08705 0.38198
 O152 O 0.44193 0.15918 0.44284
 C153 C 0.39945 0.14406 0.40053
 O154 O 0.59374 -0.08502 0.35973
 O155 O 0.54739 -0.15689 0.43276
 C156 C 0.58403 -0.14189 0.38189
 Zr157 Zr 0.56359 0.00086 0.40091
 O158 O 0.55333 0.00823 0.28295
 O159 O 0.65142 -0.00355 0.38991
 Zr160 Zr 0.42612 0.00158 0.40761
 O161 O 0.43441 0.00643 0.28966
 O162 O 0.33820 -0.00126 0.39665
 Zr163 Zr 0.49775 -0.09511 0.49852
 Zr164 Zr 0.49732 0.09596 0.50013
 O165 O 0.49421 0.05847 0.39113
 O166 O 0.49448 -0.05668 0.38919
 O167 O 0.57770 0.05563 0.49574
 O168 O 0.41798 -0.05330 0.50260
 O169 O 0.57744 -0.05419 0.49508
 O170 O 0.41714 0.05581 0.50387
 H171 H 0.50194 0.08547 0.65136
 H172 H 0.38384 -0.07933 0.50366
 H173 H 0.49272 0.08879 0.34873
 H174 H 0.61170 -0.08051 0.49408
 H175 H 0.32724 0.02144 0.56986
 H176 H 0.32298 -0.00373 0.44801
 H177 H 0.39593 0.00955 0.26926
 H178 H 0.53716 -0.03176 0.26483
 H179 H 0.66731 0.00937 0.43885
 H180 H 0.67245 -0.00365 0.63547
 H181 H 0.56135 0.03735 0.72993
 H182 H 0.46219 -0.03430 0.73230
 O183 O 0.58107 0.60960 0.13420
 O184 O 0.64182 0.55307 0.06116
 C185 C 0.63103 0.59498 0.11140
 O186 O 0.42830 0.37850 0.12710
 O187 O 0.36537 0.43881 0.06100
 C188 C 0.37823 0.39225 0.10481
 O189 O 0.58333 0.38866 0.13366
 O190 O 0.64322 0.44699 0.06216
 C191 C 0.63301 0.40419 0.11167
 O192 O 0.42320 0.61566 0.12754
 O193 O 0.36207 0.55347 0.06245
 C194 C 0.37304 0.59949 0.10724
 Zr195 Zr 0.50206 0.57730 0.09755
 O196 O 0.50049 0.56623 0.21544
 O197 O 0.50575 0.67613 0.10993
 Zr198 Zr 0.50408 0.42054 0.09718
 O199 O 0.50245 0.43277 0.21485
 O200 O 0.50907 0.32190 0.11153
 O201 O 0.55387 0.49915 0.11091
 O202 O 0.45327 0.49839 0.11148
 O203 O 0.42097 0.61694 -0.12061
 O204 O 0.36066 0.55420 -0.05505
 C205 C 0.37109 0.60043 -0.09999
 O206 O 0.58017 0.38839 -0.13333
 O207 O 0.64128 0.44606 -0.06255
 C208 C 0.63028 0.40382 -0.11220
 O209 O 0.42211 0.38230 -0.12218
 O210 O 0.36145 0.44423 -0.05564
 C211 C 0.37209 0.39850 -0.10091
 O212 O 0.57897 0.61181 -0.13136
 O213 O 0.64071 0.55317 -0.06141
 C214 C 0.62927 0.59618 -0.11023
 Zr215 Zr 0.50040 0.57827 -0.09411
 O216 O 0.49289 0.57087 -0.21231
 O217 O 0.50419 0.67703 -0.10697
 Zr218 Zr 0.50144 0.42072 -0.09480
 O219 O 0.49365 0.42792 -0.21303
 O220 O 0.50699 0.32179 -0.10543
 Zr221 Zr 0.58474 0.49928 0.00013
 Zr222 Zr 0.41940 0.49876 0.00253
 O223 O 0.45144 0.49946 -0.10727
 O224 O 0.55133 0.49970 -0.10974
 O225 O 0.45259 0.59043 0.00233
 O226 O 0.55027 0.40843 0.00050
 O227 O 0.54853 0.59002 0.00123
 O228 O 0.45458 0.40763 0.00179
 H229 H 0.42681 0.49772 0.15415
 H230 H 0.57457 0.37054 0.00038
 H231 H 0.42422 0.49964 -0.14939
 H232 H 0.57177 0.62843 0.00124
 H233 H 0.50410 0.30338 0.06114
 H234 H 0.48579 0.30357 -0.06319
 H235 H 0.52945 0.44415 -0.23249
 H236 H 0.52983 0.55809 -0.23197
 H237 H 0.48838 0.69535 -0.06071
 H238 H 0.48698 0.69455 0.06541
 H239 H 0.49930 0.60939 0.23625
 H240 H 0.50286 0.38984 0.23664
 N241 N 1.22520 0.10676 0.14375
 N242 N 1.25917 0.14676 0.17737
 C243 C 1.22755 0.19074 0.21222
 C244 C 1.17196 0.17588 0.19749
 N245 N 1.17259 0.12325 0.15475
 H246 H 1.13506 0.20268 0.21236
 N247 N 1.17431 0.70039 0.58602
 N248 N 1.20020 0.74389 0.62589
 C249 C 1.21403 0.71751 0.69249
 C250 C 1.19582 0.65546 0.69105
 N251 N 1.17268 0.64639 0.62310
 H252 H 1.19881 0.62011 0.73471
 N253 N 0.63080 0.24813 0.60934
 N254 N 0.67252 0.27760 0.64306
 C255 C 0.69779 0.23580 0.69005
 C256 C 0.66999 0.17963 0.68358
 N257 N 0.62844 0.18942 0.63353
 H258 H 0.67923 0.13551 0.71158
 N259 N 0.72922 0.62481 0.11881
 N260 N 0.76058 0.66604 0.15526
 C261 C 0.72624 0.69773 0.20208
 C262 C 0.67289 0.67507 0.19207
 N263 N 0.67672 0.62949 0.14110
 H264 H 0.63455 0.69025 0.21860
 N265 N 0.77058 -0.12440 0.12650
 N266 N 0.73661 -0.16189 0.16421
 C267 C 0.76808 -0.19724 0.21151
 C268 C 0.82367 -0.18034 0.19954
 N269 N 0.82319 -0.13457 0.14636
 H270 H 0.86070 -0.20090 0.22491
 N271 N 0.84765 0.28243 0.59767
 N272 N 0.81582 0.24384 0.63672
 C273 C 0.79055 0.27881 0.68982
 C274 C 0.80701 0.34095 0.68032
 N275 N 0.84203 0.34096 0.62182
 H276 H 0.79594 0.38179 0.71336
 N277 N 0.37460 -0.24921 0.62203
 N278 N 0.33182 -0.27808 0.65369
 C279 C 0.30547 -0.23575 0.69833
 C280 C 0.33410 -0.17996 0.69292
 N281 N 0.37696 -0.19045 0.64567
 H282 H 0.32413 -0.13534 0.71885
 N283 N 0.29561 0.33146 0.07916
 N284 N 0.26411 0.28945 0.11328
 C285 C 0.28541 0.28113 0.18324
 C286 C 0.33100 0.31998 0.19066
 N287 N 0.33520 0.35060 0.12538
 H288 H 0.35715 0.32808 0.23927
 N289 N 0.76946 0.12360 -0.12728
 N290 N 0.73618 0.16225 -0.16566
 C291 C 0.76856 0.19721 -0.21144
 C292 C 0.82375 0.17878 -0.19800
 N293 N 0.82233 0.13269 -0.14550
 H294 H 0.86124 0.19848 -0.22203
 N295 N 0.83305 0.71264 0.41574
 N296 N 0.80496 0.75302 0.37309
 C297 C 0.78639 0.72076 0.31295
 C298 C 0.80328 0.65849 0.32172
 N299 N 0.83119 0.65525 0.38714
 H300 H 0.79709 0.61942 0.28383
 N301 N 0.35816 0.25069 0.39383
 N302 N 0.31686 0.27916 0.35658
 C303 C 0.29257 0.23584 0.31126
 C304 C 0.32130 0.18022 0.32200
 N305 N 0.36170 0.19125 0.37272
 H306 H 0.31512 0.13582 0.29387
 N307 N 0.27254 0.63122 -0.10633
 N308 N 0.24042 0.67068 -0.14533
 C309 C 0.27417 0.70117 -0.19385
 C310 C 0.32804 0.68003 -0.18170
 N311 N 0.32509 0.63621 -0.12817
 H312 H 0.36602 0.69408 -0.20970
 N313 N 1.22640 -0.11803 -0.13311
 N314 N 1.26091 -0.15725 -0.16766
 C315 C 1.23008 -0.19498 -0.21228
 C316 C 1.17420 -0.17745 -0.20211
 N317 N 1.17397 -0.12904 -0.15258
 H318 H 1.13751 -0.19972 -0.22544
 N319 N 1.15181 0.37673 0.24548
 N320 N 1.17926 0.33066 0.21246
 C321 C 1.20879 0.29997 0.26601
 C322 C 1.19817 0.33001 0.33402
 N323 N 1.16326 0.37843 0.31814
 H324 H 1.21221 0.31647 0.38965
 N325 N 0.62498 -0.24682 0.38140
 N326 N 0.66900 -0.27561 0.35238
 C327 C 0.69396 -0.23457 0.30494
 C328 C 0.66316 -0.17963 0.30577
 N329 N 0.62042 -0.18943 0.35335
 H330 H 0.67156 -0.13603 0.27656
 N331 N 0.72862 0.37481 -0.11982
 N332 N 0.76066 0.33419 -0.15634
 C333 C 0.72692 0.30275 -0.20409
 C334 C 0.67314 0.32490 -0.19469
 N335 N 0.67620 0.36998 -0.14283
 H336 H 0.63513 0.30951 -0.22196
 N337 N 1.22599 0.11716 -0.12869
 N338 N 1.26037 0.15648 -0.16296
 C339 C 1.22939 0.19464 -0.20763
 C340 C 1.17358 0.17715 -0.19788
 N341 N 1.17350 0.12842 -0.14845
 H342 H 1.13680 0.19940 -0.22184
 N343 N 1.15897 0.71119 0.39464
 N344 N 1.18989 0.75159 0.35689
 C345 C 1.21375 0.71957 0.29986
 C346 C 1.19669 0.65695 0.30556
 N347 N 1.16337 0.65407 0.36585
 H348 H 1.20666 0.61759 0.26951
 N349 N 0.62893 0.24782 0.38724
 N350 N 0.67197 0.27643 0.35583
 C351 C 0.69696 0.23473 0.30899
 C352 C 0.66736 0.17951 0.31302
 N353 N 0.62520 0.18976 0.36154
 H354 H 0.67595 0.13554 0.28476
 N355 N 0.72720 0.62559 -0.11566
 N356 N 0.75929 0.66604 -0.15189
 C357 C 0.72576 0.69743 -0.20056
 C358 C 0.67203 0.67549 -0.19194
 N359 N 0.67498 0.63052 -0.13971
 H360 H 0.63418 0.69061 -0.22032
 N361 N 0.76983 -0.12406 -0.12673
 N362 N 0.73620 -0.16248 -0.16391
 C363 C 0.76808 -0.19791 -0.21002
 C364 C 0.82342 -0.17996 -0.19806
 N365 N 0.82250 -0.13367 -0.14604
 H366 H 0.86068 -0.20018 -0.22260
 N367 N 0.83651 0.28970 0.41514
 N368 N 0.80882 0.24824 0.37428
 C369 C 0.78941 0.27909 0.31316
 C370 C 0.80547 0.34165 0.31948
 N371 N 0.83357 0.34646 0.38448
 H372 H 0.79821 0.38002 0.28052
 N373 N 0.36888 -0.24684 0.38083
 N374 N 0.32709 -0.27657 0.34763
 C375 C 0.30122 -0.23518 0.30048
 C376 C 0.32922 -0.17867 0.30669
 N377 N 0.37118 -0.18823 0.35631
 H378 H 0.31982 -0.13441 0.27911
 N379 N 0.27313 0.37138 -0.10813
 N380 N 0.24036 0.33230 -0.14578
 C381 C 0.27380 0.29863 -0.19175
 C382 C 0.32823 0.31749 -0.17927
 N383 N 0.32584 0.36324 -0.12830
 H384 H 0.36616 0.30069 -0.20554
 N385 N 1.22764 -0.12346 0.12734
 N386 N 1.26227 -0.16283 0.16229
 C387 C 1.23175 -0.19924 0.20890
 C388 C 1.17583 -0.18051 0.19920
 N389 N 1.17542 -0.13297 0.14840
 H390 H 1.13906 -0.20107 0.22422
 N391 N 1.17310 0.29396 0.58784
 N392 N 1.19751 0.25135 0.63133
 C393 C 1.21293 0.28074 0.69513
 C394 C 1.19757 0.34364 0.68796
 N395 N 1.17414 0.35016 0.61961
 H396 H 1.20239 0.38117 0.72834
 N397 N 0.62912 -0.24851 0.61312
 N398 N 0.67237 -0.27743 0.64492
 C399 C 0.69654 -0.23617 0.69290
 C400 C 0.66613 -0.18114 0.68959
 N401 N 0.62439 -0.19089 0.64002
 H402 H 0.67397 -0.13758 0.71899
 N403 N 0.73106 0.37218 0.11769
 N404 N 0.76235 0.33051 0.15448
 C405 C 0.72829 0.30056 0.20308
 C406 C 0.67523 0.32474 0.19395
 N407 N 0.67890 0.36947 0.14159
 H408 H 0.63715 0.31115 0.22203
 N409 N 0.77074 0.12173 0.13046
 N410 N 0.73746 0.15991 0.16875
 C411 C 0.76972 0.19517 0.21453
 C412 C 0.82504 0.17744 0.20097
 N413 N 0.82366 0.13136 0.14845
 H414 H 0.86248 0.19779 0.22469
 N415 N 0.84521 0.71315 0.59938
 N416 N 0.81348 0.75275 0.63752
 C417 C 0.78936 0.71920 0.69278
 C418 C 0.80659 0.65689 0.68578
 N419 N 0.84068 0.65533 0.62634
 H420 H 0.79648 0.61692 0.72082
 N421 N 0.37174 0.24852 0.62322
 N422 N 0.33004 0.27778 0.65724
 C423 C 0.30389 0.23493 0.70121
 C424 C 0.33113 0.17841 0.69278
 N425 N 0.37319 0.18900 0.64446
 H426 H 0.32086 0.13345 0.71763
 N427 N 0.27490 0.63107 0.11041
 N428 N 0.24235 0.67115 0.14708
 C429 C 0.27521 0.70188 0.19682
 C430 C 0.32943 0.67993 0.18739
 N431 N 0.32707 0.63555 0.13457
 H432 H 0.36715 0.69406 0.21637
   
