data_POSCAR
  _audit_creation_date              2014-09-24
  _audit_creation_method            'ToBaCCo'
  _symmetry_space_group_name_H-M    'P1'
  _symmetry_Int_Tables_number       1
  _symmetry_cell_setting            triclinic
  loop_
  _symmetry_equiv_pos_as_xyz
 x,y,z
_cell_length_a 26.4628
_cell_length_b 24.7692
_cell_length_c 23.8317
_cell_angle_alpha 87.199900
_cell_angle_beta 90.182200
_cell_angle_gamma 88.117800
loop_
  _atom_site_label
  _atom_site_type_symbol
  _atom_site_fract_x
  _atom_site_fract_y
  _atom_site_fract_z
C1 C 0.32888 0.31551 0.21953
 H2 H 0.33392 0.32140 0.26386
 C3 C 0.35994 0.34156 0.18032
 H4 H 0.38926 0.36656 0.19548
 C5 C 0.28527 0.27373 0.14723
 H6 H 0.25658 0.24681 0.13450
 C7 C 0.31546 0.29903 0.10654
 H8 H 0.30935 0.29158 0.06266
 N9 N 0.29180 0.28324 0.20244
 C10 C 0.17958 0.29297 0.33509
 H11 H 0.17599 0.25071 0.34765
 C12 C 0.15220 0.33256 0.36310
 H13 H 0.12852 0.31973 0.39776
 C14 C 0.21694 0.36004 0.27603
 H15 H 0.24186 0.37076 0.24180
 C16 C 0.19022 0.40092 0.30276
 H17 H 0.19532 0.44273 0.28907
 Zn18 Zn 0.25069 0.25197 0.25917
 N19 N 0.21200 0.30728 0.29324
 C20 C 0.29428 0.22699 0.36742
 N21 N 0.29490 0.21522 0.31229
 C22 C 0.32774 0.17702 0.29307
 C23 C 0.36017 0.14721 0.33018
 C24 C 0.32600 0.19819 0.40597
 C25 C 0.17057 0.22087 0.19008
 C26 C 0.13846 0.18493 0.16531
 C27 C 0.17738 0.11219 0.22304
 C28 C 0.20867 0.14940 0.24652
 N29 N 0.20564 0.20246 0.22890
 H30 H 0.26897 0.25839 0.38183
 H31 H 0.32788 0.16890 0.24887
 H32 H 0.38434 0.11577 0.31377
 H33 H 0.32424 0.20740 0.44990
 H34 H 0.16821 0.26345 0.17753
 H35 H 0.11196 0.20093 0.13370
 H36 H 0.18118 0.06997 0.23703
 H37 H 0.23559 0.13556 0.27861
 C38 C 0.15750 0.38761 0.34706
 C39 C 0.35278 0.33419 0.12272
 C40 C 0.14212 0.12941 0.18130
 C41 C 0.35927 0.15744 0.38773
 C42 C 0.83478 0.79564 0.19259
 H43 H 0.85661 0.77067 0.22282
 C44 C 0.85915 0.83466 0.15919
 H45 H 0.89949 0.83731 0.16439
 C46 C 0.75583 0.82155 0.15107
 H47 H 0.71540 0.81673 0.14875
 C48 C 0.77870 0.86085 0.11640
 H49 H 0.75531 0.88567 0.08724
 N50 N 0.78411 0.78931 0.18770
 C51 C 0.65426 0.76069 0.27357
 H52 H 0.64342 0.73162 0.24385
 C53 C 0.61663 0.78809 0.30278
 H54 H 0.57740 0.77919 0.29553
 C55 C 0.71783 0.80951 0.31692
 H56 H 0.75737 0.81846 0.32117
 C57 C 0.68121 0.83787 0.34736
 H58 H 0.69329 0.86876 0.37449
 Zn59 Zn 0.75242 0.73630 0.23513
 N60 N 0.70384 0.77164 0.28091
 C61 C 0.80501 0.69397 0.33496
 N62 N 0.80242 0.69577 0.27788
 C63 C 0.83395 0.66440 0.24728
 C64 C 0.86983 0.62940 0.27380
 C65 C 0.84067 0.65948 0.36338
 C66 C 0.70871 0.69000 0.13754
 C67 C 0.68116 0.65080 0.11144
 C68 C 0.67700 0.60041 0.20060
 C69 C 0.70377 0.64074 0.22504
 N70 N 0.71859 0.68471 0.19366
 H71 H 0.77874 0.71821 0.35856
 H72 H 0.83049 0.66598 0.20197
 H73 H 0.89412 0.60433 0.24855
 H74 H 0.84099 0.65765 0.40879
 H75 H 0.72162 0.72465 0.11305
 H76 H 0.67356 0.65561 0.06680
 H77 H 0.66516 0.56596 0.22646
 H78 H 0.71233 0.63741 0.26951
 C79 C 0.62964 0.82728 0.34021
 C80 C 0.83113 0.86818 0.12003
 C81 C 0.66448 0.60561 0.14346
 C82 C 0.87365 0.62644 0.33252
 C83 C 0.83540 0.29911 0.70456
 H84 H 0.85042 0.28447 0.74493
 C85 C 0.86527 0.32976 0.66773
 H86 H 0.90375 0.33731 0.67976
 C87 C 0.76703 0.30628 0.63970
 H88 H 0.72841 0.29737 0.62955
 C89 C 0.79561 0.33662 0.60154
 H90 H 0.77895 0.35081 0.56171
 N91 N 0.78713 0.28860 0.69013
 C92 C 0.66342 0.28654 0.80851
 H93 H 0.66004 0.24394 0.81961
 C94 C 0.63287 0.32466 0.83480
 H95 H 0.60501 0.31062 0.86473
 C96 C 0.70416 0.35614 0.75606
 H97 H 0.73262 0.36856 0.72623
 C98 C 0.67433 0.39551 0.78109
 H99 H 0.67981 0.43781 0.76979
 Zn100 Zn 0.74409 0.25142 0.74005
 N101 N 0.69860 0.30281 0.77038
 C102 C 0.77738 0.23192 0.85261
 N103 N 0.78232 0.21534 0.79928
 C104 C 0.81480 0.17384 0.78756
 C105 C 0.84330 0.14670 0.83024
 C106 C 0.80493 0.20590 0.89669
 C107 C 0.65843 0.19854 0.69719
 C108 C 0.63438 0.16538 0.66026
 C109 C 0.71613 0.13939 0.62363
 C110 C 0.73855 0.17259 0.66141
 N111 N 0.70971 0.20138 0.69728
 H112 H 0.75250 0.26586 0.86126
 H113 H 0.81893 0.16172 0.74492
 H114 H 0.86819 0.11402 0.81806
 H115 H 0.80001 0.22020 0.93867
 H116 H 0.63588 0.22310 0.72438
 H117 H 0.59352 0.16508 0.65984
 H118 H 0.73973 0.11764 0.59466
 H119 H 0.77897 0.17731 0.66025
 C120 C 0.63900 0.38010 0.82186
 C121 C 0.84496 0.34960 0.61578
 C122 C 0.66349 0.13544 0.62265
 C123 C 0.83871 0.16250 0.88630
 C124 C 0.32263 0.83406 0.75592
 H125 H 0.31647 0.83356 0.80079
 C126 C 0.36403 0.86054 0.73258
 H127 H 0.38907 0.88130 0.75970
 C128 C 0.29917 0.80506 0.66654
 H129 H 0.27508 0.78166 0.64113
 C130 C 0.34007 0.83085 0.64152
 H131 H 0.34623 0.82667 0.59712
 N132 N 0.29120 0.80700 0.72278
 C133 C 0.15045 0.77499 0.81194
 H134 H 0.14787 0.73316 0.80146
 C135 C 0.11231 0.79912 0.84322
 H136 H 0.08016 0.77575 0.85639
 C137 C 0.19588 0.85597 0.80767
 H138 H 0.22844 0.87791 0.79345
 C139 C 0.15866 0.88165 0.83950
 H140 H 0.16274 0.92366 0.84854
 Zn141 Zn 0.24144 0.76324 0.75708
 N142 N 0.19145 0.80327 0.79540
 C143 C 0.26274 0.71485 0.86470
 N144 N 0.27546 0.71520 0.80944
 C145 C 0.31574 0.68537 0.79152
 C146 C 0.34522 0.65360 0.82989
 C147 C 0.29115 0.68373 0.90447
 C148 C 0.17751 0.75557 0.66529
 C149 C 0.14991 0.73072 0.62444
 C150 C 0.18533 0.64425 0.65911
 C151 C 0.21222 0.67083 0.69946
 N152 N 0.20783 0.72551 0.70176
 H153 H 0.23145 0.73990 0.87844
 H154 H 0.32583 0.68759 0.74752
 H155 H 0.37812 0.63197 0.81459
 H156 H 0.28101 0.68466 0.94843
 H157 H 0.17453 0.79900 0.66835
 H158 H 0.12554 0.75533 0.59614
 H159 H 0.19020 0.60085 0.65789
 H160 H 0.23627 0.64766 0.72909
 C161 C 0.11651 0.85270 0.85834
 C162 C 0.37333 0.85906 0.67471
 C163 C 0.15298 0.67433 0.62138
 C164 C 0.33304 0.65272 0.88739
 C165 C -0.00112 0.01425 0.01291
 C166 C 0.01253 0.50213 0.51880
 C167 C 0.51349 -0.01510 0.50197
 C168 C 0.50096 0.49471 -0.00180
 C169 C 0.07559 -0.12310 -0.10776
 C170 C 0.08199 -0.08182 -0.07462
 C171 C 0.03913 -0.05940 -0.04290
 C172 C 0.04393 -0.01513 -0.01340
 H173 H 0.11865 -0.06412 -0.07095
 H174 H 0.00246 -0.07736 -0.04595
 H175 H 0.03891 -0.14135 -0.10875
 H176 H 0.08065 0.00313 -0.01251
 C177 C 0.13189 0.43212 0.37684
 C178 C 0.09198 0.42519 0.41039
 C179 C 0.07041 0.46975 0.44252
 C180 C 0.03443 0.45977 0.48057
 H181 H 0.07516 0.38606 0.41542
 H182 H 0.08499 0.51002 0.43684
 H183 H 0.14674 0.47229 0.37107
 H184 H 0.02113 0.41881 0.48531
 C185 C 0.58806 -0.14201 0.36751
 C186 C 0.59361 -0.11327 0.41312
 C187 C 0.55039 -0.08175 0.43537
 C188 C 0.55575 -0.05175 0.48013
 H189 H 0.62994 -0.11227 0.43396
 H190 H 0.51424 -0.08135 0.41380
 H191 H 0.55061 -0.14355 0.34911
 H192 H 0.59186 -0.05396 0.50196
 C193 C 0.60953 0.42289 -0.15045
 C194 C 0.58910 0.41575 -0.09958
 C195 C 0.56025 0.45996 -0.07440
 C196 C 0.53422 0.45106 -0.02707
 H197 H 0.59338 0.37732 -0.07615
 H198 H 0.55847 0.49967 -0.09571
 H199 H 0.60619 0.46250 -0.17192
 H200 H 0.53701 0.41123 -0.00596
 C201 C -0.13471 0.13867 -0.06993
 C202 C -0.09862 0.09640 -0.07379
 C203 C -0.07133 0.07603 -0.02680
 C204 C -0.03321 0.03618 -0.03259
 H205 H -0.08992 0.07934 -0.11357
 H206 H -0.07888 0.09186 0.01406
 H207 H -0.14098 0.15384 -0.02843
 H208 H -0.02860 0.02028 -0.07403
 C209 C -0.08965 0.58632 0.35919
 C210 C -0.07277 0.58770 0.41205
 C211 C -0.03740 0.54506 0.43558
 C212 C -0.02071 0.54618 0.48863
 H213 H -0.08474 0.62016 0.43828
 H214 H -0.02645 0.51192 0.40976
 H215 H -0.07520 0.55434 0.33351
 H216 H -0.03395 0.57920 0.51367
 C217 C 0.38967 0.12500 0.43051
 C218 C 0.42892 0.09181 0.41909
 C219 C 0.45353 0.05812 0.46464
 C220 C 0.49187 0.02304 0.45510
 H221 H 0.44249 0.08840 0.37662
 H222 H 0.43876 0.06032 0.50691
 H223 H 0.37862 0.12829 0.47404
 H224 H 0.50670 0.02093 0.41287
 C225 C 0.36478 0.62345 -0.06898
 C226 C 0.39723 0.58280 -0.07956
 C227 C 0.43036 0.55837 -0.03495
 C228 C 0.46391 0.51880 -0.04591
 H229 H 0.40011 0.56759 -0.12126
 H230 H 0.42860 0.57379 0.00683
 H231 H 0.36128 0.63608 -0.02618
 H232 H 0.46466 0.50356 -0.08783
 C233 C -0.14688 -0.09189 0.08437
 C234 C -0.09612 -0.07731 0.08618
 C235 C -0.07709 -0.03860 0.04786
 C236 C -0.02647 -0.02335 0.05114
 H237 H -0.07064 -0.09535 0.11779
 H238 H -0.10201 -0.02101 0.01533
 H239 H -0.17121 -0.07030 0.05349
 H240 H -0.00355 -0.04317 0.08442
 C241 C -0.12592 0.38292 0.57515
 C242 C -0.08873 0.41437 0.59038
 C243 C -0.06054 0.44581 0.54786
 C244 C -0.02055 0.47384 0.56228
 H245 H -0.07868 0.41692 0.63423
 H246 H -0.07095 0.44420 0.50394
 H247 H -0.13671 0.38299 0.53119
 H248 H -0.01075 0.47480 0.60651
 C249 C 0.41893 -0.11482 0.65127
 C250 C 0.42498 -0.10151 0.59661
 C251 C 0.47008 -0.07325 0.57641
 C252 C 0.47112 -0.05031 0.52434
 H253 H 0.39548 -0.10853 0.56657
 H254 H 0.50137 -0.06888 0.60508
 H255 H 0.44801 -0.10432 0.68062
 H256 H 0.43982 -0.05689 0.49619
 C257 C 0.38358 0.36120 0.07842
 C258 C 0.41172 0.40417 0.08636
 C259 C 0.44051 0.42863 0.03956
 C260 C 0.47107 0.46982 0.04678
 H261 H 0.41335 0.42207 0.12678
 H262 H 0.43724 0.41244 -0.00173
 H263 H 0.38189 0.34576 0.03666
 H264 H 0.47398 0.48623 0.08801
 C265 C 0.11193 0.08761 0.15507
 C266 C 0.07688 0.09737 0.11482
 C267 C 0.05264 0.05203 0.08852
 C268 C 0.01971 0.06040 0.04577
 H269 H 0.06682 0.13814 0.09967
 H270 H 0.06385 0.01105 0.10236
 H271 H 0.12021 0.04583 0.16877
 H272 H 0.01092 0.10193 0.03150
 C273 C 0.12099 0.64908 0.57935
 C274 C 0.10932 0.59688 0.58217
 C275 C 0.07160 0.57638 0.54369
 C276 C 0.05613 0.52553 0.55062
 H277 H 0.12453 0.56962 0.61529
 H278 H 0.05494 0.60386 0.51153
 H279 H 0.10326 0.67554 0.54686
 H280 H 0.07513 0.49890 0.58212
 C281 C 0.64068 0.10249 0.57970
 C282 C 0.59500 0.08133 0.58447
 C283 C 0.57582 0.04806 0.54011
 C284 C 0.53405 0.01961 0.54747
 H285 H 0.57243 0.08673 0.62170
 H286 H 0.59670 0.04580 0.50116
 H287 H 0.66344 0.09363 0.54328
 H288 H 0.51257 0.02423 0.58572
 C289 C 0.63452 0.56292 0.11924
 C290 C 0.60223 0.57223 0.07633
 C291 C 0.57043 0.52878 0.05747
 C292 C 0.53442 0.53872 0.01843
 H293 H 0.59753 0.61241 0.05657
 H294 H 0.57591 0.48818 0.07613
 H295 H 0.63637 0.52306 0.14029
 H296 H 0.52950 0.57949 -0.00000
   
