data_POSCAR
  _audit_creation_date              2014-09-24
  _audit_creation_method            'ToBaCCo'
  _symmetry_space_group_name_H-M    'P1'
  _symmetry_Int_Tables_number       1
  _symmetry_cell_setting            triclinic
  loop_
  _symmetry_equiv_pos_as_xyz
 x,y,z
_cell_length_a 33.4492
_cell_length_b 33.4545
_cell_length_c 33.4873
_cell_angle_alpha 90.369100
_cell_angle_beta 89.649400
_cell_angle_gamma 89.585700
loop_
  _atom_site_label
  _atom_site_type_symbol
  _atom_site_fract_x
  _atom_site_fract_y
  _atom_site_fract_z
C1 C 0.57542 0.39680 0.00129
 C2 C 0.60426 0.42563 0.00327
 C3 C 0.58457 0.46229 0.00210
 N4 N 0.54472 0.45658 -0.00045
 C5 C 0.53895 0.41664 -0.00091
 C6 C 0.60373 0.49988 0.00173
 C7 C 0.58364 0.53731 -0.00056
 C8 C 0.60261 0.57342 -0.00759
 C9 C 0.57350 0.60250 -0.00778
 C10 C 0.53727 0.58365 -0.00087
 N11 N 0.54385 0.54395 0.00408
 C12 C 0.49978 0.60374 0.00105
 C13 C 0.46220 0.58455 0.00138
 C14 C 0.42549 0.60421 0.00231
 C15 C 0.39672 0.57530 0.00041
 C16 C 0.41664 0.53882 -0.00152
 N17 N 0.45657 0.54465 -0.00097
 C18 C 0.39758 0.50124 -0.00286
 C19 C 0.41749 0.46369 -0.00278
 C20 C 0.39823 0.42727 0.00084
 C21 C 0.42737 0.39816 0.00096
 C22 C 0.46384 0.41739 -0.00259
 N23 N 0.45744 0.45728 -0.00557
 C24 C 0.50141 0.39751 -0.00241
 H25 H 0.58076 0.36485 0.00162
 H26 H 0.63614 0.42018 0.00503
 H27 H 0.47884 0.47859 -0.01154
 H28 H 0.63421 0.57833 -0.01245
 H29 H 0.57848 0.63401 -0.01282
 H30 H 0.41998 0.63611 0.00387
 H31 H 0.36476 0.58061 0.00061
 H32 H 0.42219 0.36642 0.00400
 H33 H 0.52299 0.52325 0.01351
 H34 H 0.36644 0.42212 0.00377
 C35 C -0.00091 0.57542 0.60402
 C36 C 0.00120 0.60433 0.57529
 C37 C 0.00120 0.58467 0.53864
 N38 N -0.00077 0.54478 0.54426
 C39 C -0.00202 0.53895 0.58413
 C40 C 0.00160 0.60388 0.50109
 C41 C 0.00023 0.58383 0.46365
 C42 C -0.00563 0.60283 0.42736
 C43 C -0.00565 0.57365 0.39838
 C44 C 0.00019 0.53742 0.41749
 N45 N 0.00440 0.54397 0.45721
 C46 C 0.00152 0.49992 0.39760
 C47 C 0.00119 0.46236 0.41666
 C48 C 0.00113 0.42581 0.39685
 C49 C -0.00097 0.39694 0.42563
 C50 C -0.00203 0.41671 0.46216
 N51 N -0.00072 0.45663 0.45650
 C52 C -0.00302 0.39758 0.49966
 C53 C -0.00239 0.41752 0.53711
 C54 C 0.00237 0.39833 0.57341
 C55 C 0.00241 0.42745 0.60246
 C56 C -0.00234 0.46384 0.58331
 N57 N -0.00594 0.45742 0.54353
 C58 C -0.00295 0.50137 0.60317
 H59 H -0.00132 0.58072 0.63595
 H60 H 0.00232 0.63622 0.58079
 H61 H -0.01321 0.47868 0.52243
 H62 H -0.00995 0.63448 0.42226
 H63 H -0.00998 0.57863 0.36678
 H64 H 0.00220 0.42044 0.36494
 H65 H -0.00144 0.36501 0.42022
 H66 H 0.00611 0.42235 0.63411
 H67 H 0.01278 0.52292 0.47814
 H68 H 0.00605 0.36660 0.57850
 C69 C 0.39698 -0.00147 0.57516
 C70 C 0.42579 -0.00334 0.60403
 C71 C 0.46247 -0.00238 0.58442
 N72 N 0.45678 -0.00006 0.54458
 C73 C 0.41684 0.00045 0.53874
 C74 C 0.50007 -0.00207 0.60364
 C75 C 0.53750 0.00000 0.58355
 C76 C 0.57366 0.00689 0.60248
 C77 C 0.60271 0.00697 0.57338
 C78 C 0.58378 0.00012 0.53719
 N79 N 0.54408 -0.00468 0.54378
 C80 C 0.60384 -0.00186 0.49972
 C81 C 0.58464 -0.00219 0.46215
 C82 C 0.60432 -0.00308 0.42551
 C83 C 0.57542 -0.00121 0.39672
 C84 C 0.53892 0.00063 0.41654
 N85 N 0.54473 0.00006 0.45645
 C86 C 0.50134 0.00190 0.39743
 C87 C 0.46381 0.00179 0.41734
 C88 C 0.42737 -0.00201 0.39813
 C89 C 0.39830 -0.00208 0.42724
 C90 C 0.41755 0.00169 0.46367
 N91 N 0.45744 0.00473 0.45725
 C92 C 0.39771 0.00172 0.50120
 H93 H 0.36502 -0.00169 0.58045
 H94 H 0.42033 -0.00489 0.63588
 H95 H 0.47873 0.01090 0.47862
 H96 H 0.57863 0.01176 0.63404
 H97 H 0.63424 0.01189 0.57835
 H98 H 0.63623 -0.00457 0.42005
 H99 H 0.58075 -0.00138 0.36480
 H100 H 0.36655 -0.00519 0.42209
 H101 H 0.52334 -0.01399 0.52292
 H102 H 0.42219 -0.00508 0.36638
 O103 O 0.46763 -0.00066 -0.05547
 O104 O 0.46767 0.00015 0.05463
 O105 O 0.46772 0.05479 -0.00048
 O106 O 0.46759 -0.05531 -0.00036
 O107 O 0.53371 -0.05587 -0.00079
 O108 O 0.53384 0.05423 -0.00091
 O109 O 0.53379 -0.00042 0.05419
 O110 O 0.53375 -0.00122 -0.05590
 Cu111 Cu 0.46099 -0.00020 -0.00038
 Cu112 Cu 0.54043 -0.00088 -0.00090
 C113 C 0.50068 -0.00106 -0.07427
 C114 C 0.50074 -0.00000 0.07300
 C115 C 0.50081 0.07309 -0.00072
 C116 C 0.50062 -0.07417 -0.00054
 O117 O -0.05583 0.53350 1.00114
 O118 O 0.05428 0.53357 1.00010
 O119 O -0.00098 0.53358 0.94569
 O120 O -0.00058 0.53348 1.05557
 O121 O -0.00005 0.46736 1.05507
 O122 O -0.00045 0.46746 0.94520
 O123 O 0.05481 0.46746 0.99960
 O124 O -0.05530 0.46738 1.00065
 Cu125 Cu -0.00083 0.54022 1.00068
 Cu126 Cu -0.00019 0.46073 1.00009
 C127 C -0.07415 0.50043 1.00105
 C128 C 0.07313 0.50053 0.99967
 C129 C -0.00079 0.50054 0.92691
 C130 C -0.00024 0.50040 1.07386
 O131 O 0.00034 -0.05572 0.46747
 O132 O -0.00065 0.05437 0.46738
 O133 O 0.05490 -0.00057 0.46749
 O134 O -0.05521 -0.00078 0.46739
 O135 O -0.05568 -0.00029 0.53343
 O136 O 0.05443 -0.00008 0.53353
 O137 O -0.00112 0.05486 0.53342
 O138 O -0.00013 -0.05524 0.53351
 Cu139 Cu -0.00011 -0.00072 0.46076
 Cu140 Cu -0.00067 -0.00014 0.54014
 C141 C 0.00026 -0.07406 0.50051
 C142 C -0.00105 0.07319 0.50038
 C143 C 0.07325 -0.00028 0.50053
 C144 C -0.07403 -0.00058 0.50039
 C145 C -0.22317 0.53637 1.01350
 C146 C -0.24961 0.52831 0.97653
 C147 C -0.27545 0.50024 1.00183
 C148 C -0.24969 0.50830 1.03880
 C149 C -0.19683 0.50033 1.00166
 C150 C -0.22268 0.47226 1.02697
 C151 C -0.22260 0.49228 0.96469
 C152 C -0.24913 0.46421 0.99000
 C153 C -0.31921 0.50015 1.00186
 C154 C -0.35524 0.50004 1.00182
 C155 C -0.15304 0.50037 1.00152
 C156 C -0.11702 0.50040 1.00134
 H157 H -0.21200 0.56604 1.02316
 H158 H -0.26121 0.55136 0.95580
 H159 H -0.26134 0.51488 1.06927
 H160 H -0.21111 0.44921 1.04771
 H161 H -0.21098 0.48569 0.93422
 H162 H -0.26033 0.43454 0.98035
 C163 C 0.22199 0.48812 1.03396
 C164 C 0.24883 0.46360 1.00481
 C165 C 0.27443 0.50090 0.99795
 C166 C 0.24827 0.52543 1.02710
 C167 C 0.19581 0.50070 0.99859
 C168 C 0.22141 0.53801 0.99174
 C169 C 0.22197 0.47618 0.96945
 C170 C 0.24826 0.51349 0.96259
 C171 C 0.31819 0.50102 0.99763
 C172 C 0.35422 0.50112 0.99739
 C173 C 0.15202 0.50062 0.99896
 C174 C 0.11599 0.50057 0.99928
 H175 H 0.21070 0.47769 1.06331
 H176 H 0.26064 0.43302 1.01017
 H177 H 0.25960 0.54568 1.05079
 H178 H 0.20965 0.56861 0.98637
 H179 H 0.21067 0.45593 0.94574
 H180 H 0.25956 0.52392 0.93324
 C181 C 0.01428 -0.22245 0.53608
 C182 C -0.02293 -0.24905 0.52997
 C183 C 0.00138 -0.27532 0.50076
 C184 C 0.03860 -0.24941 0.50686
 C185 C 0.00103 -0.19672 0.50063
 C186 C 0.02535 -0.22300 0.47141
 C187 C -0.03619 -0.22265 0.49452
 C188 C -0.01187 -0.24961 0.46531
 C189 C 0.00152 -0.31908 0.50085
 C190 C 0.00157 -0.35510 0.50095
 C191 C 0.00080 -0.15293 0.50057
 C192 C 0.00058 -0.11692 0.50054
 H193 H 0.02503 -0.21079 0.56517
 H194 H -0.04277 -0.26028 0.55404
 H195 H 0.06935 -0.26092 0.51194
 H196 H 0.04520 -0.21180 0.44734
 H197 H -0.06694 -0.21115 0.48945
 H198 H -0.02261 -0.26130 0.43622
 C199 C 0.03514 0.22186 0.50675
 C200 C 0.02229 0.24821 0.47111
 C201 C -0.00245 0.27446 0.49999
 C202 C 0.01040 0.24880 0.53563
 C203 C -0.00195 0.19585 0.50019
 C204 C -0.02668 0.22211 0.52908
 C205 C -0.01479 0.22152 0.46456
 C206 C -0.03953 0.24846 0.49344
 C207 C -0.00269 0.31822 0.49988
 C208 C -0.00285 0.35423 0.49978
 C209 C -0.00165 0.15207 0.50028
 C210 C -0.00139 0.11605 0.50034
 H211 H 0.06584 0.21043 0.51223
 H212 H 0.04241 0.25945 0.44728
 H213 H 0.02075 0.26054 0.56485
 H214 H -0.04681 0.21090 0.55291
 H215 H -0.02515 0.20982 0.43533
 H216 H -0.07023 0.25991 0.48796
 C217 C 0.53532 -0.01696 -0.22326
 C218 C 0.50490 -0.03945 -0.24974
 C219 C 0.50046 -0.00189 -0.27555
 C220 C 0.53088 0.02059 -0.24975
 C221 C 0.50058 -0.00163 -0.19696
 C222 C 0.49614 0.03593 -0.22279
 C223 C 0.47017 -0.02411 -0.22278
 C224 C 0.46572 0.01344 -0.24927
 C225 C 0.50036 -0.00199 -0.31932
 C226 C 0.50024 -0.00203 -0.35534
 C227 C 0.50063 -0.00147 -0.15316
 C228 C 0.50066 -0.00130 -0.11715
 H229 H 0.56395 -0.02947 -0.21210
 H230 H 0.50851 -0.07044 -0.26130
 H231 H 0.55584 0.03897 -0.26133
 H232 H 0.49253 0.06693 -0.21124
 H233 H 0.44519 -0.04250 -0.21123
 H234 H 0.43710 0.02593 -0.26046
 C235 C 0.53855 -0.00345 0.22136
 C236 C 0.52329 0.03144 0.24815
 C237 C 0.50100 0.00117 0.27428
 C238 C 0.51627 -0.03371 0.24815
 C239 C 0.50085 0.00074 0.19569
 C240 C 0.47856 -0.02953 0.22182
 C241 C 0.48558 0.03563 0.22182
 C242 C 0.46329 0.00536 0.24862
 C243 C 0.50110 0.00142 0.31805
 C244 C 0.50120 0.00163 0.35406
 C245 C 0.50079 0.00049 0.15189
 C246 C 0.50076 0.00028 0.11587
 H247 H 0.56951 -0.00707 0.20968
 H248 H 0.54169 0.05652 0.25946
 H249 H 0.52889 -0.06222 0.25946
 H250 H 0.46016 -0.05462 0.21053
 H251 H 0.47296 0.06415 0.21053
 H252 H 0.43235 0.00898 0.26033
 C253 C 0.51356 -0.22253 0.03545
 C254 C 0.47613 -0.24888 0.02957
 C255 C 0.50016 -0.27545 0.00039
 C256 C 0.53759 -0.24979 0.00628
 C257 C 0.50039 -0.19684 -0.00006
 C258 C 0.52443 -0.22342 -0.02924
 C259 C 0.46296 -0.22252 -0.00594
 C260 C 0.48699 -0.24977 -0.03512
 C261 C 0.50002 -0.31921 0.00065
 C262 C 0.49990 -0.35523 0.00085
 C263 C 0.50050 -0.15306 -0.00027
 C264 C 0.50056 -0.11704 -0.00042
 H265 H 0.52449 -0.21085 0.06447
 H266 H 0.45627 -0.25986 0.05374
 H267 H 0.56827 -0.26153 0.01130
 H268 H 0.54429 -0.21247 -0.05342
 H269 H 0.43227 -0.21082 -0.01097
 H270 H 0.47606 -0.26148 -0.06413
 C271 C 0.53833 0.22148 0.00518
 C272 C 0.52556 0.24783 -0.03048
 C273 C 0.50116 0.27437 -0.00158
 C274 C 0.51394 0.24870 0.03408
 C275 C 0.50100 0.19577 -0.00115
 C276 C 0.47660 0.22232 0.02775
 C277 C 0.48822 0.22145 -0.03681
 C278 C 0.46383 0.24868 -0.00791
 C279 C 0.50125 0.31813 -0.00185
 C280 C 0.50132 0.35415 -0.00209
 C281 C 0.50092 0.15198 -0.00095
 C282 C 0.50086 0.11596 -0.00083
 H283 H 0.56897 0.20981 0.01056
 H284 H 0.54569 0.25883 -0.05442
 H285 H 0.52452 0.26042 0.06322
 H286 H 0.45647 0.21134 0.05171
 H287 H 0.47764 0.20975 -0.06596
 H288 H 0.43321 0.26038 -0.01328
 C289 C -0.22323 0.03504 0.51158
 C290 C -0.24949 0.02649 0.47458
 C291 C -0.27534 -0.00140 0.50008
 C292 C -0.24977 0.00714 0.53707
 C293 C -0.19672 -0.00103 0.50024
 C294 C -0.22258 -0.02892 0.52573
 C295 C -0.22230 -0.00957 0.46325
 C296 C -0.24884 -0.03746 0.48874
 C297 C -0.31910 -0.00159 0.49997
 C298 C -0.35514 -0.00172 0.49987
 C299 C -0.15293 -0.00084 0.50031
 C300 C -0.11690 -0.00071 0.50035
 H301 H -0.21221 0.06485 0.52097
 H302 H -0.26106 0.04926 0.45355
 H303 H -0.26159 0.01401 0.56742
 H304 H -0.21104 -0.05170 0.54677
 H305 H -0.21052 -0.01644 0.43289
 H306 H -0.25988 -0.06727 0.47934
 C307 C 0.22180 -0.01229 0.53632
 C308 C 0.24903 -0.03664 0.50739
 C309 C 0.27456 0.00078 0.50089
 C310 C 0.24801 0.02513 0.52982
 C311 C 0.19594 0.00028 0.50071
 C312 C 0.22147 0.03770 0.49421
 C313 C 0.22249 -0.02408 0.47178
 C314 C 0.24871 0.01334 0.46528
 C315 C 0.31832 0.00109 0.50099
 C316 C 0.35434 0.00136 0.50108
 C317 C 0.15214 0.00004 0.50063
 C318 C 0.11612 -0.00013 0.50058
 H319 H 0.21025 -0.02283 0.56553
 H320 H 0.26087 -0.06720 0.51281
 H321 H 0.25901 0.04536 0.55368
 H322 H 0.20966 0.06826 0.48879
 H323 H 0.21152 -0.04432 0.44791
 H324 H 0.26029 0.02387 0.43608
 C325 C 0.03813 0.49528 1.22170
 C326 C 0.02357 0.53026 1.24876
 C327 C 0.00085 0.50021 1.27473
 C328 C 0.01541 0.46523 1.24837
 C329 C 0.00039 0.50029 1.19626
 C330 C -0.02233 0.47024 1.22224
 C331 C -0.01417 0.53527 1.22263
 C332 C -0.03689 0.50522 1.24930
 C333 C 0.00112 0.50014 1.31839
 C334 C 0.00131 0.50005 1.35434
 C335 C 0.00014 0.50033 1.15257
 C336 C -0.00005 0.50036 1.11662
 H337 H 0.06896 0.49119 1.20985
 H338 H 0.04244 0.55493 1.26020
 H339 H 0.02756 0.43644 1.25950
 H340 H -0.04121 0.44557 1.21083
 H341 H -0.02633 0.56407 1.21153
 H342 H -0.06771 0.50931 1.26118
 C343 C 0.03315 0.48584 0.77796
 C344 C 0.00275 0.46327 0.75155
 C345 C -0.00215 0.50096 0.72604
 C346 C 0.02825 0.52353 0.75176
 C347 C -0.00155 0.50074 0.80451
 C348 C -0.00645 0.53843 0.77899
 C349 C -0.03195 0.47817 0.77878
 C350 C -0.03685 0.51586 0.75257
 C351 C -0.00247 0.50109 0.68238
 C352 C -0.00270 0.50121 0.64643
 C353 C -0.00124 0.50064 0.84819
 C354 C -0.00102 0.50059 0.88414
 H355 H 0.06193 0.47349 0.78891
 H356 H 0.00652 0.43239 0.73972
 H357 H 0.05298 0.54217 0.74011
 H358 H -0.01022 0.56932 0.79078
 H359 H -0.05670 0.45953 0.79040
 H360 H -0.06562 0.52821 0.74160
   
