data_POSCAR
  _audit_creation_date              2014-09-24
  _audit_creation_method            'ToBaCCo'
  _symmetry_space_group_name_H-M    'P1'
  _symmetry_Int_Tables_number       1
  _symmetry_cell_setting            triclinic
  loop_
  _symmetry_equiv_pos_as_xyz
 x,y,z
_cell_length_a 35.3128
_cell_length_b 35.3799
_cell_length_c 35.2543
_cell_angle_alpha 89.905200
_cell_angle_beta 89.994400
_cell_angle_gamma 90.014200
loop_
  _atom_site_label
  _atom_site_type_symbol
  _atom_site_fract_x
  _atom_site_fract_y
  _atom_site_fract_z
N1 N 0.54121 0.07661 0.01795
 N2 N 0.56893 0.09815 0.03076
 N3 N 0.46142 0.07643 -0.01898
 N4 N 0.43380 0.09778 -0.03236
 N5 N 0.46155 0.07684 0.01828
 N6 N 0.43404 0.09848 0.03131
 N7 N 0.54108 0.07618 -0.01931
 N8 N 0.56869 0.09741 -0.03291
 C9 C 0.58582 0.11065 -0.00131
 C10 C 0.41697 0.11108 -0.00062
 N11 N 0.46094 -0.01894 -0.07555
 N12 N 0.43314 -0.03225 -0.09671
 N13 N 0.54068 0.01794 -0.07639
 N14 N 0.56765 0.03083 -0.09893
 N15 N 0.54063 -0.01916 -0.07568
 N16 N 0.56925 -0.03294 -0.09912
 N17 N 0.46104 0.01819 -0.07601
 N18 N 0.43333 0.03119 -0.09750
 Mn19 Mn 0.50105 0.04748 -0.04797
 C20 C 0.41618 -0.00061 -0.10995
 C21 C 0.58491 -0.00060 -0.11232
 N22 N 0.46156 0.01991 0.07683
 N23 N 0.43401 0.03338 0.09821
 N24 N 0.54109 -0.01743 0.07710
 N25 N 0.56836 -0.03047 0.09919
 N26 N 0.54125 0.01967 0.07641
 N27 N 0.57032 0.03330 0.09938
 N28 N 0.46144 -0.01722 0.07730
 N29 N 0.43381 -0.03006 0.09900
 Mn30 Mn 0.50139 0.04856 0.04768
 C31 C 0.41695 0.00184 0.11159
 C32 C 0.58599 0.00087 0.11233
 N33 N 0.54062 -0.07610 -0.01723
 N34 N 0.56802 -0.09790 -0.03024
 N35 N 0.46107 -0.07547 0.02025
 N36 N 0.43345 -0.09675 0.03379
 N37 N 0.46097 -0.07587 -0.01701
 N38 N 0.43330 -0.09742 -0.02987
 N39 N 0.54073 -0.07568 0.02002
 N40 N 0.56822 -0.09718 0.03342
 Mn41 Mn 0.50079 -0.04782 -0.04668
 Mn42 Mn 0.50108 -0.04675 0.04897
 Cl43 Cl 0.50107 0.00037 0.00050
 C44 C 0.58501 -0.11056 0.00171
 C45 C 0.41638 -0.10996 0.00215
 N46 N 0.07724 0.46025 0.01841
 N47 N 0.09871 0.43262 0.03151
 N48 N 0.07762 0.54013 -0.01809
 N49 N 0.09914 0.56788 -0.03091
 N50 N 0.07738 0.53974 0.01917
 N51 N 0.09873 0.56719 0.03276
 N52 N 0.07745 0.46061 -0.01885
 N53 N 0.09909 0.43324 -0.03216
 C54 C 0.11186 0.41601 -0.00038
 C55 C 0.11185 0.58449 0.00117
 N56 N -0.01691 0.54101 -0.07650
 N57 N -0.02992 0.56841 -0.09842
 N58 N 0.02005 0.46139 -0.07700
 N59 N 0.03326 0.43417 -0.09890
 N60 N -0.01715 0.46152 -0.07722
 N61 N -0.03031 0.43439 -0.09925
 N62 N 0.02026 0.54092 -0.07610
 N63 N 0.03397 0.56994 -0.09909
 Mn64 Mn 0.04915 0.50075 -0.04782
 C65 C 0.00152 0.58587 -0.11174
 C66 C 0.00148 0.41755 -0.11228
 N67 N 0.01935 0.53921 0.07662
 N68 N 0.03245 0.56665 0.09831
 N69 N -0.01797 0.45974 0.07565
 N70 N -0.03130 0.43197 0.09687
 N71 N 0.01922 0.45971 0.07585
 N72 N 0.03227 0.43193 0.09720
 N73 N -0.01785 0.53925 0.07641
 N74 N -0.03112 0.56672 0.09795
 Mn75 Mn 0.04859 0.49973 0.04781
 C76 C 0.00061 0.58354 0.11117
 C77 C 0.00041 0.41487 0.10984
 N78 N -0.07517 0.46097 -0.01975
 N79 N -0.09656 0.43353 -0.03333
 N80 N -0.07519 0.54002 0.01830
 N81 N -0.09676 0.56740 0.03168
 N82 N -0.07497 0.54049 -0.01896
 N83 N -0.09638 0.56821 -0.03199
 N84 N -0.07534 0.46052 0.01751
 N85 N -0.09684 0.43278 0.03034
 Mn86 Mn -0.04635 0.50101 -0.04840
 Mn87 Mn -0.04689 0.49987 0.04727
 Cl88 Cl 0.00113 0.50033 -0.00029
 C89 C -0.10962 0.41620 -0.00172
 C90 C -0.10950 0.58475 -0.00003
 N91 N 0.01837 0.07537 0.46044
 N92 N 0.03174 0.09674 0.43277
 N93 N -0.01937 0.07550 0.53998
 N94 N -0.03271 0.09733 0.56722
 N95 N 0.01783 0.07545 0.54023
 N96 N 0.03085 0.09725 0.56766
 N97 N -0.01883 0.07538 0.46020
 N98 N -0.03182 0.09675 0.43236
 C99 C 0.00007 0.10961 0.41551
 C100 C -0.00102 0.11038 0.58429
 N101 N -0.07726 -0.01916 0.53982
 N102 N -0.09938 -0.03223 0.56704
 N103 N -0.07662 0.01788 0.45995
 N104 N -0.09807 0.03104 0.43224
 N105 N -0.07668 -0.01924 0.46005
 N106 N -0.09816 -0.03241 0.43241
 N107 N -0.07717 0.01797 0.53972
 N108 N -0.09923 0.03121 0.56686
 Mn109 Mn -0.04829 0.04698 0.49996
 C110 C -0.11256 -0.00046 0.58371
 C111 C -0.11101 -0.00069 0.41529
 N112 N 0.07543 0.01776 0.54079
 N113 N 0.09679 0.03089 0.56855
 N114 N 0.07593 -0.01942 0.46108
 N115 N 0.09759 -0.03261 0.43359
 N116 N 0.07598 0.01771 0.46100
 N117 N 0.09767 0.03083 0.43346
 N118 N 0.07536 -0.01937 0.54087
 N119 N 0.09666 -0.03256 0.56867
 Mn120 Mn 0.04720 0.04687 0.50062
 C121 C 0.10956 -0.00086 0.58569
 C122 C 0.11068 -0.00090 0.41660
 N123 N -0.01906 -0.07691 0.46058
 N124 N -0.03207 -0.09840 0.43291
 N125 N 0.01757 -0.07689 0.54062
 N126 N 0.03051 -0.09844 0.56835
 N127 N -0.01963 -0.07683 0.54037
 N128 N -0.03305 -0.09832 0.56792
 N129 N 0.01814 -0.07694 0.46084
 N130 N 0.03149 -0.09845 0.43335
 Mn131 Mn -0.04845 -0.04833 0.50021
 Mn132 Mn 0.04705 -0.04845 0.50086
 Cl133 Cl -0.00062 -0.00074 0.50042
 C134 C -0.00018 -0.11136 0.41617
 C135 C -0.00142 -0.11133 0.58513
 C136 C -0.38295 0.13659 -0.00180
 C137 C -0.35708 0.15882 -0.00225
 C138 C -0.32665 0.18588 -0.00281
 C139 C -0.30224 0.18903 0.02830
 C140 C -0.27350 0.21623 0.02826
 C141 C -0.26882 0.24067 -0.00293
 C142 C -0.29326 0.23698 -0.03424
 C143 C -0.32199 0.20978 -0.03413
 C144 C -0.23917 0.27046 -0.00250
 C145 C -0.21827 0.27887 -0.03545
 C146 C -0.19119 0.30772 -0.03525
 C147 C -0.18464 0.32851 -0.00215
 C148 C -0.20502 0.32014 0.03084
 C149 C -0.23209 0.29130 0.03071
 C150 C -0.15768 0.35903 -0.00221
 C151 C -0.13552 0.38495 -0.00209
 H152 H -0.30558 0.17063 0.05267
 H153 H -0.25485 0.21804 0.05257
 H154 H -0.29073 0.25568 -0.05844
 H155 H -0.34083 0.20769 -0.05829
 H156 H -0.22274 0.26303 -0.06132
 H157 H -0.17553 0.31394 -0.06094
 H158 H -0.20029 0.33617 0.05657
 H159 H -0.24806 0.28589 0.05637
 C160 C 0.38514 0.86409 0.00248
 C161 C 0.35927 0.84187 0.00254
 C162 C 0.32885 0.81480 0.00238
 C163 C 0.32086 0.79434 -0.03059
 C164 C 0.29214 0.76714 -0.03055
 C165 C 0.27103 0.76000 0.00255
 C166 C 0.27905 0.78099 0.03548
 C167 C 0.30778 0.80820 0.03536
 C168 C 0.24139 0.73021 0.00291
 C169 C 0.23762 0.70584 0.03428
 C170 C 0.21056 0.67701 0.03412
 C171 C 0.18687 0.67215 0.00269
 C172 C 0.19011 0.69646 -0.02849
 C173 C 0.21718 0.72531 -0.02841
 C174 C 0.15991 0.64165 0.00211
 C175 C 0.13775 0.61574 0.00165
 H176 H 0.33712 0.79910 -0.05622
 H177 H 0.28703 0.75111 -0.05618
 H178 H 0.26299 0.77647 0.06126
 H179 H 0.31370 0.82392 0.06103
 H180 H 0.25616 0.70854 0.05858
 H181 H 0.20840 0.65823 0.05834
 H182 H 0.17188 0.69297 -0.05296
 H183 H 0.21907 0.74390 -0.05278
 C184 C 0.38578 0.13706 -0.00081
 C185 C 0.35993 0.15929 -0.00087
 C186 C 0.32949 0.18633 -0.00082
 C187 C 0.31806 0.20345 -0.03474
 C188 C 0.28939 0.23070 -0.03453
 C189 C 0.27183 0.24125 -0.00031
 C190 C 0.28327 0.22356 0.03359
 C191 C 0.31192 0.19630 0.03330
 C192 C 0.24234 0.27117 0.00012
 C193 C 0.24185 0.29845 0.02912
 C194 C 0.21470 0.32719 0.02909
 C195 C 0.18767 0.32906 0.00014
 C196 C 0.18771 0.30192 -0.02869
 C197 C 0.21487 0.27315 -0.02874
 C198 C 0.16040 0.35928 -0.00026
 C199 C 0.13800 0.38498 -0.00042
 H200 H 0.33160 0.19605 -0.06129
 H201 H 0.28158 0.24414 -0.06101
 H202 H 0.26996 0.23071 0.06030
 H203 H 0.32053 0.18319 0.05973
 H204 H 0.26293 0.29804 0.05142
 H205 H 0.21502 0.34815 0.05146
 H206 H 0.16687 0.30308 -0.05122
 H207 H 0.21424 0.25232 -0.05119
 C208 C -0.38406 0.86315 0.00197
 C209 C -0.35846 0.84063 0.00228
 C210 C -0.32838 0.81320 0.00276
 C211 C -0.33097 0.78157 0.02649
 C212 C -0.30224 0.75442 0.02654
 C213 C -0.27047 0.75852 0.00278
 C214 C -0.26803 0.79053 -0.02086
 C215 C -0.29681 0.81769 -0.02084
 C216 C -0.24037 0.72920 0.00231
 C217 C -0.22393 0.71765 -0.03214
 C218 C -0.19650 0.68915 -0.03265
 C219 C -0.18510 0.67188 0.00121
 C220 C -0.20096 0.68347 0.03566
 C221 C -0.22840 0.71193 0.03624
 C222 C -0.15791 0.64160 0.00058
 C223 C -0.13557 0.61585 0.00021
 H224 H -0.35536 0.77773 0.04475
 H225 H -0.30523 0.72984 0.04464
 H226 H -0.24374 0.79471 -0.03913
 H227 H -0.29451 0.84210 -0.03929
 H228 H -0.23289 0.73004 -0.05877
 H229 H -0.18453 0.68027 -0.05950
 H230 H -0.19230 0.67032 0.06205
 H231 H -0.24014 0.72054 0.06325
 C232 C 0.00048 -0.38533 0.13720
 C233 C 0.00033 -0.35951 0.15946
 C234 C 0.00010 -0.32908 0.18650
 C235 C -0.03267 -0.32141 0.20743
 C236 C -0.03262 -0.29266 0.23459
 C237 C 0.00028 -0.27122 0.24122
 C238 C 0.03299 -0.27893 0.21976
 C239 C 0.03287 -0.30768 0.19259
 C240 C 0.00069 -0.24153 0.27096
 C241 C 0.03227 -0.23734 0.29493
 C242 C 0.03224 -0.21017 0.32366
 C243 C 0.00071 -0.18678 0.32881
 C244 C -0.03071 -0.19046 0.30491
 C245 C -0.03075 -0.21765 0.27615
 C246 C 0.00031 -0.15967 0.35919
 C247 C 0.00004 -0.13739 0.38501
 H248 H -0.05814 -0.33791 0.20305
 H249 H -0.05808 -0.28778 0.25098
 H250 H 0.05860 -0.26261 0.22386
 H251 H 0.05838 -0.31336 0.17651
 H252 H 0.05668 -0.25563 0.29201
 H253 H 0.05664 -0.20767 0.34211
 H254 H -0.05525 -0.17247 0.30862
 H255 H -0.05529 -0.21986 0.25787
 C256 C 0.00143 0.38695 0.86105
 C257 C 0.00113 0.36164 0.83820
 C258 C 0.00048 0.33193 0.81038
 C259 C 0.01300 0.29556 0.81976
 C260 C 0.01237 0.26683 0.79255
 C261 C -0.00087 0.27414 0.75559
 C262 C -0.01338 0.31081 0.74650
 C263 C -0.01270 0.33947 0.77371
 C264 C -0.00144 0.24380 0.72652
 C265 C -0.03207 0.24063 0.70118
 C266 C -0.03217 0.21275 0.67315
 C267 C -0.00173 0.18763 0.67005
 C268 C 0.02871 0.19029 0.69533
 C269 C 0.02886 0.21815 0.72343
 C270 C -0.00140 0.15981 0.64032
 C271 C -0.00120 0.13698 0.61497
 H272 H 0.02318 0.28941 0.84809
 H273 H 0.02179 0.23880 0.80053
 H274 H -0.02319 0.31748 0.71817
 H275 H -0.02234 0.36755 0.76611
 H276 H -0.05604 0.25960 0.70316
 H277 H -0.05590 0.21091 0.65375
 H278 H 0.05249 0.17108 0.69308
 H279 H 0.05304 0.22015 0.74221
 C280 C 0.00030 0.38348 0.13566
 C281 C 0.00038 0.35748 0.15779
 C282 C 0.00060 0.32689 0.18475
 C283 C -0.03209 0.30531 0.19065
 C284 C -0.03223 0.27647 0.21782
 C285 C 0.00038 0.26888 0.23949
 C286 C 0.03323 0.29048 0.23302
 C287 C 0.03329 0.31930 0.20585
 C288 C -0.00009 0.23921 0.26935
 C289 C 0.03143 0.21548 0.27487
 C290 C 0.03135 0.18839 0.30381
 C291 C -0.00019 0.18466 0.32757
 C292 C -0.03179 0.20788 0.32208
 C293 C -0.03179 0.23496 0.29317
 C294 C 0.00012 0.15766 0.35814
 C295 C 0.00021 0.13549 0.38413
 H296 H -0.05754 0.31093 0.17443
 H297 H -0.05779 0.26003 0.22180
 H298 H 0.05861 0.28568 0.24957
 H299 H 0.05871 0.33595 0.20163
 H300 H 0.05606 0.21775 0.25672
 H301 H 0.05595 0.17052 0.30779
 H302 H -0.05629 0.20534 0.34042
 H303 H -0.05625 0.25313 0.29000
 C304 C 0.00069 -0.38597 0.86440
 C305 C 0.00019 -0.36019 0.84200
 C306 C -0.00006 -0.32981 0.81480
 C307 C -0.03273 -0.30804 0.80953
 C308 C -0.03319 -0.27919 0.78235
 C309 C -0.00094 -0.27177 0.76009
 C310 C 0.03185 -0.29364 0.76586
 C311 C 0.03224 -0.32246 0.79301
 C312 C -0.00164 -0.24188 0.73045
 C313 C 0.03002 -0.21842 0.72456
 C314 C 0.02975 -0.19113 0.69582
 C315 C -0.00213 -0.18690 0.67264
 C316 C -0.03391 -0.20981 0.67851
 C317 C -0.03371 -0.23710 0.70724
 C318 C -0.00192 -0.15974 0.64220
 C319 C -0.00169 -0.13741 0.61634
 H320 H -0.05788 -0.31346 0.82628
 H321 H -0.05870 -0.26256 0.77890
 H322 H 0.05694 -0.28900 0.74882
 H323 H 0.05762 -0.33926 0.79676
 H324 H 0.05494 -0.22107 0.74226
 H325 H 0.05449 -0.17350 0.69154
 H326 H -0.05867 -0.20689 0.66061
 H327 H -0.05832 -0.25504 0.71071
 C328 C 0.38475 -0.00074 0.86425
 C329 C 0.35870 -0.00067 0.84216
 C330 C 0.32804 -0.00040 0.81528
 C331 C 0.32229 0.03120 0.79207
 C332 C 0.29328 0.03115 0.76510
 C333 C 0.26963 -0.00060 0.76094
 C334 C 0.27543 -0.03211 0.78466
 C335 C 0.30446 -0.03199 0.81164
 C336 C 0.23965 -0.00110 0.73139
 C337 C 0.23322 -0.03383 0.70969
 C338 C 0.20594 -0.03390 0.68096
 C339 C 0.18469 -0.00133 0.67356
 C340 C 0.19056 0.03123 0.69525
 C341 C 0.21784 0.03138 0.72399
 C342 C 0.15764 -0.00108 0.64303
 C343 C 0.13544 -0.00093 0.61706
 H344 H 0.34049 0.05573 0.79454
 H345 H 0.28990 0.05562 0.74693
 H346 H 0.25742 -0.05678 0.78246
 H347 H 0.30865 -0.05659 0.82949
 H348 H 0.24988 -0.05910 0.71434
 H349 H 0.20175 -0.05921 0.66422
 H350 H 0.17423 0.05659 0.68977
 H351 H 0.22179 0.05685 0.74051
 C352 C -0.38587 -0.00004 0.13622
 C353 C -0.36009 -0.00076 0.15863
 C354 C -0.32970 -0.00148 0.18582
 C355 C -0.32788 -0.03044 0.21283
 C356 C -0.29903 -0.03062 0.23998
 C357 C -0.27161 -0.00175 0.24050
 C358 C -0.27351 0.02708 0.21301
 C359 C -0.30239 0.02718 0.18586
 C360 C -0.24164 -0.00136 0.27006
 C361 C -0.23101 0.03273 0.28760
 C362 C -0.20366 0.03295 0.31627
 C363 C -0.18653 -0.00085 0.32775
 C364 C -0.19661 -0.03485 0.31022
 C365 C -0.22397 -0.03514 0.28156
 C366 C -0.15937 -0.00075 0.35819
 C367 C -0.13706 -0.00070 0.38406
 H368 H -0.34898 -0.05267 0.21316
 H369 H -0.29866 -0.05291 0.26106
 H370 H -0.25256 0.04942 0.21237
 H371 H -0.30352 0.04972 0.16505
 H372 H -0.24444 0.05912 0.27976
 H373 H -0.19619 0.05941 0.32978
 H374 H -0.18350 -0.06117 0.31888
 H375 H -0.23119 -0.06176 0.26829
 C376 C 0.38570 0.00216 0.13761
 C377 C 0.35978 0.00227 0.15986
 C378 C 0.32925 0.00223 0.18691
 C379 C 0.30676 -0.03002 0.19153
 C380 C 0.27793 -0.03053 0.21871
 C381 C 0.27123 0.00128 0.24168
 C382 C 0.29376 0.03371 0.23653
 C383 C 0.32259 0.03413 0.20935
 C384 C 0.24143 0.00040 0.27142
 C385 C 0.21850 0.03223 0.27810
 C386 C 0.19121 0.03168 0.30684
 C387 C 0.18647 -0.00065 0.32927
 C388 C 0.20890 -0.03256 0.32264
 C389 C 0.23618 -0.03209 0.29391
 C390 C 0.15926 -0.00082 0.35966
 C391 C 0.13687 -0.00090 0.38547
 H392 H 0.31166 -0.05487 0.17428
 H393 H 0.26077 -0.05573 0.22166
 H394 H 0.28966 0.05845 0.25409
 H395 H 0.33995 0.05919 0.20613
 H396 H 0.22154 0.05749 0.26097
 H397 H 0.17397 0.05653 0.31171
 H398 H 0.20559 -0.05768 0.33995
 H399 H 0.25372 -0.05685 0.28983
 C400 C -0.38744 0.00018 0.86321
 C401 C -0.36216 0.00084 0.84023
 C402 C -0.33244 0.00159 0.81232
 C403 C -0.33288 0.02890 0.78358
 C404 C -0.30468 0.02908 0.75576
 C405 C -0.27562 0.00188 0.75631
 C406 C -0.27521 -0.02526 0.78555
 C407 C -0.30348 -0.02540 0.81334
 C408 C -0.24623 0.00149 0.72618
 C409 C -0.20807 -0.00583 0.73509
 C410 C -0.18054 -0.00631 0.70656
 C411 C -0.19079 0.00046 0.66881
 C412 C -0.22865 0.00773 0.65967
 C413 C -0.25620 0.00825 0.68812
 C414 C -0.16263 -0.00004 0.63932
 C415 C -0.13950 -0.00031 0.61417
 H416 H -0.35514 0.04996 0.78256
 H417 H -0.30548 0.05064 0.73395
 H418 H -0.25349 -0.04683 0.78649
 H419 H -0.30296 -0.04676 0.83538
 H420 H -0.19946 -0.01071 0.76416
 H421 H -0.15129 -0.01188 0.71395
 H422 H -0.23692 0.01287 0.63052
 H423 H -0.28538 0.01340 0.68027
   
