data_POSCAR
  _audit_creation_date              2014-09-24
  _audit_creation_method            'ToBaCCo'
  _symmetry_space_group_name_H-M    'P1'
  _symmetry_Int_Tables_number       1
  _symmetry_cell_setting            triclinic
  loop_
  _symmetry_equiv_pos_as_xyz
 x,y,z
_cell_length_a 42.5190
_cell_length_b 21.9059
_cell_length_c 18.9749
_cell_angle_alpha 90.140700
_cell_angle_beta 89.865700
_cell_angle_gamma 89.542900
loop_
  _atom_site_label
  _atom_site_type_symbol
  _atom_site_fract_x
  _atom_site_fract_y
  _atom_site_fract_z
C1 C 0.67506 0.31935 0.49546
 C2 C 0.68975 0.30974 0.56088
 C3 C 0.71938 0.28034 0.56114
 C4 C 0.73347 0.25754 0.49848
 C5 C 0.71676 0.26485 0.43470
 C6 C 0.68849 0.29793 0.43274
 C7 C 0.76612 0.22987 0.49934
 C8 C 0.78463 0.22637 0.43711
 C9 C 0.81609 0.20522 0.43824
 C10 C 0.82933 0.19031 0.50384
 C11 C 0.81169 0.19340 0.56581
 C12 C 0.77995 0.21019 0.56315
 H13 H 0.65210 0.34087 0.49248
 H14 H 0.73210 0.27894 0.61017
 H15 H 0.72568 0.24662 0.38561
 H16 H 0.77556 0.24363 0.38800
 H17 H 0.85320 0.17309 0.50755
 H18 H 0.76678 0.20923 0.61183
 C19 C 0.16651 0.78353 0.50076
 C20 C 0.18081 0.76970 0.56579
 C21 C 0.21252 0.74991 0.56514
 C22 C 0.23037 0.74773 0.50211
 C23 C 0.21545 0.76587 0.43896
 C24 C 0.18347 0.78125 0.43757
 C25 C 0.26430 0.72687 0.50172
 C26 C 0.27897 0.70845 0.43815
 C27 C 0.31111 0.69536 0.43560
 C28 C 0.32868 0.69513 0.49755
 C29 C 0.31467 0.70823 0.56322
 C30 C 0.28262 0.72596 0.56411
 H31 H 0.14255 0.80039 0.49872
 H32 H 0.22266 0.73379 0.61375
 H33 H 0.22822 0.76793 0.38984
 H34 H 0.26598 0.70474 0.38955
 H35 H 0.35298 0.68042 0.49387
 H36 H 0.27263 0.74169 0.61325
 C37 C 0.31882 0.34284 -0.50350
 C38 C 0.30427 0.32889 -0.56732
 C39 C 0.27667 0.29427 -0.56698
 C40 C 0.26412 0.26996 -0.50365
 C41 C 0.28046 0.28287 -0.44029
 C42 C 0.30700 0.32059 -0.43988
 C43 C 0.23428 0.23232 -0.50397
 C44 C 0.21823 0.21723 -0.44059
 C45 C 0.19053 0.18189 -0.44079
 C46 C 0.17754 0.16607 -0.50637
 C47 C 0.19215 0.18191 -0.56954
 C48 C 0.22098 0.21197 -0.56815
 H49 H 0.34029 0.36923 -0.50344
 H50 H 0.26543 0.28782 -0.61716
 H51 H 0.27305 0.26467 -0.39032
 H52 H 0.22753 0.23093 -0.39048
 H53 H 0.15501 0.14350 -0.50918
 H54 H 0.23197 0.22022 -0.61834
 C55 C -0.18277 0.84974 -0.49154
 C56 C -0.19319 0.82783 -0.55718
 C57 C -0.21952 0.78886 -0.55814
 C58 C -0.23673 0.77593 -0.49602
 C59 C -0.22572 0.80044 -0.43170
 C60 C -0.19831 0.83518 -0.42899
 C61 C -0.26611 0.73781 -0.49801
 C62 C -0.27793 0.71071 -0.43589
 C63 C -0.30662 0.67967 -0.43549
 C64 C -0.32276 0.67137 -0.49892
 C65 C -0.31119 0.69560 -0.56202
 C66 C -0.28333 0.72960 -0.56111
 H67 H -0.16097 0.87474 -0.48789
 H68 H -0.22712 0.77025 -0.60778
 H69 H -0.23819 0.79360 -0.38279
 H70 H -0.26517 0.71304 -0.38686
 H71 H -0.34481 0.64690 -0.49900
 H72 H -0.27617 0.75105 -0.60965
 O73 O -0.04431 0.90085 0.13716
 O74 O -0.07844 0.95678 0.06889
 C75 C -0.07222 0.91988 0.12033
 O76 O 0.04940 1.10173 0.12010
 O77 O 0.08198 1.03871 0.05552
 C78 C 0.07691 1.08096 0.10223
 O79 O -0.03815 1.10835 0.13081
 O80 O -0.07545 1.05751 0.06655
 C81 C -0.06701 1.09531 0.11546
 O82 O 0.04271 0.88343 0.12595
 O83 O 0.07873 0.93383 0.05737
 C84 C 0.07124 0.89591 0.10693
 Zr85 Zr -0.00046 0.91998 0.08978
 O86 O 0.00126 0.91107 0.20062
 O87 O -0.00461 0.82446 0.07827
 Zr88 Zr 0.00424 1.07462 0.08654
 O89 O 0.00835 1.08036 0.19749
 O90 O 0.00375 1.17107 0.07875
 O91 O -0.02562 1.00118 0.10400
 O92 O 0.02905 0.99404 0.10002
 O93 O 0.04036 0.87798 -0.12345
 O94 O 0.07778 0.93202 -0.06273
 C95 C 0.06926 0.89120 -0.10838
 O96 O -0.04107 1.09988 -0.13326
 O97 O -0.07685 1.05424 -0.05990
 C98 C -0.06955 1.08819 -0.11309
 O99 O 0.04686 1.09677 -0.13019
 O100 O 0.08077 1.03726 -0.06532
 C101 C 0.07477 1.07738 -0.11369
 O102 O -0.04738 0.89649 -0.12709
 O103 O -0.07987 0.95555 -0.05765
 C104 C -0.07484 0.91727 -0.10856
 Zr105 Zr -0.00230 0.91676 -0.08603
 O106 O -0.00012 0.90813 -0.19702
 O107 O -0.00868 0.82128 -0.07708
 Zr108 Zr 0.00241 1.07146 -0.08963
 O109 O 0.00450 1.07867 -0.20055
 O110 O 0.00146 1.16799 -0.08237
 Zr111 Zr -0.04615 1.00187 0.00290
 Zr112 Zr 0.04808 0.98969 -0.00245
 O113 O 0.02692 0.99033 -0.10276
 O114 O -0.02766 0.99742 -0.10043
 O115 O 0.02678 0.90303 0.00069
 O116 O -0.02421 1.08759 -0.00037
 O117 O -0.02966 0.91108 0.00375
 O118 O 0.03215 1.08119 -0.00340
 H119 H 0.04309 0.99315 0.14156
 H120 H -0.03792 1.12440 -0.00072
 H121 H 0.04008 0.98768 -0.14583
 H122 H -0.04545 0.87805 0.00520
 H123 H 0.02365 1.18347 0.05598
 H124 H 0.02272 1.18149 -0.06849
 H125 H -0.00448 1.04066 -0.21967
 H126 H -0.01349 0.94084 -0.21709
 H127 H 0.01026 0.80409 -0.05399
 H128 H -0.00526 0.80777 0.12671
 H129 H 0.00594 0.95195 0.21976
 H130 H -0.00718 1.05200 0.21791
 O131 O 0.45442 0.40093 0.12919
 O132 O 0.42083 0.45553 0.05816
 C133 C 0.42658 0.41911 0.11031
 O134 O 0.54511 0.60589 0.12628
 O135 O 0.58011 0.54695 0.06282
 C136 C 0.57334 0.58782 0.11024
 O137 O 0.45718 0.60494 0.12956
 O138 O 0.42216 0.55437 0.05880
 C139 C 0.42893 0.59037 0.11070
 O140 O 0.54200 0.38625 0.12420
 O141 O 0.57834 0.44143 0.06172
 C142 C 0.57062 0.40109 0.10835
 Zr143 Zr 0.49892 0.42162 0.08532
 O144 O 0.49891 0.40924 0.19581
 O145 O 0.49602 0.32626 0.07024
 Zr146 Zr 0.50108 0.57654 0.08769
 O147 O 0.50300 0.57997 0.19907
 O148 O 0.49877 0.67307 0.08329
 O149 O 0.47227 0.50091 0.09920
 O150 O 0.52696 0.49720 0.10130
 O151 O 0.54477 0.38901 -0.12684
 O152 O 0.57966 0.44339 -0.05954
 C153 C 0.57301 0.40452 -0.10874
 O154 O 0.46011 0.60772 -0.13357
 O155 O 0.42354 0.55631 -0.06772
 C156 C 0.43144 0.59380 -0.11734
 O157 O 0.54769 0.60588 -0.12489
 O158 O 0.58103 0.54670 -0.05827
 C159 C 0.57546 0.58670 -0.10690
 O160 O 0.45714 0.39948 -0.13617
 O161 O 0.42220 0.45517 -0.06900
 C162 C 0.42897 0.41756 -0.11967
 Zr163 Zr 0.50078 0.42281 -0.09045
 O164 O 0.50471 0.41655 -0.20140
 O165 O 0.49646 0.32673 -0.08387
 Zr166 Zr 0.50293 0.57803 -0.08839
 O167 O 0.50678 0.58682 -0.19899
 O168 O 0.50105 0.67431 -0.07798
 Zr169 Zr 0.45372 0.50303 -0.00387
 Zr170 Zr 0.54807 0.49675 0.00092
 O171 O 0.52884 0.49870 -0.10145
 O172 O 0.47429 0.50243 -0.10517
 O173 O 0.52830 0.40868 -0.00132
 O174 O 0.47426 0.59008 -0.00151
 O175 O 0.47165 0.41321 -0.00386
 O176 O 0.53071 0.58726 0.00112
 H177 H 0.54030 0.49618 0.14400
 H178 H 0.46007 0.62619 -0.00153
 H179 H 0.54247 0.49801 -0.14383
 H180 H 0.45635 0.37931 -0.00452
 H181 H 0.51875 0.68755 0.06266
 H182 H 0.52199 0.68810 -0.06212
 H183 H 0.49519 0.55236 -0.21995
 H184 H 0.49227 0.45064 -0.22135
 H185 H 0.51584 0.31057 -0.06162
 H186 H 0.49432 0.30843 0.11799
 H187 H 0.50311 0.44954 0.21708
 H188 H 0.48831 0.54879 0.21700
 C189 C 0.35673 0.37673 0.24818
 C190 C 0.35048 0.42082 0.30001
 C191 C 0.33191 0.40636 0.35836
 C192 C 0.31933 0.34754 0.36558
 C193 C 0.32425 0.30456 0.31136
 C194 C 0.34301 0.31901 0.25313
 C195 C 0.37987 0.38914 0.19474
 C196 C 0.40063 0.40133 0.15386
 H197 H 0.36102 0.46561 0.29681
 H198 H 0.32824 0.44044 0.39907
 H199 H 0.31507 0.25876 0.31597
 H200 H 0.34787 0.28443 0.21358
 C201 C -0.13981 0.87418 0.26168
 C202 C -0.14265 0.91504 0.31783
 C203 C -0.16089 0.90036 0.37632
 C204 C -0.17682 0.84404 0.38034
 C205 C -0.17501 0.80448 0.32134
 C206 C -0.15637 0.81929 0.26288
 C207 C -0.11773 0.88751 0.20649
 C208 C -0.09765 0.90114 0.16466
 H209 H -0.13017 0.95799 0.31715
 H210 H -0.16274 0.93407 0.41795
 H211 H -0.18613 0.76026 0.32161
 H212 H -0.15412 0.78709 0.21971
 C213 C 0.63584 0.65472 0.25167
 C214 C 0.66865 0.64803 0.25093
 C215 C 0.68623 0.66401 0.31058
 C216 C 0.67106 0.68600 0.37169
 C217 C 0.63828 0.69449 0.37085
 C218 C 0.62085 0.67897 0.31133
 C219 C 0.61667 0.63212 0.19489
 C220 C 0.59818 0.61220 0.15270
 H221 H 0.68049 0.62883 0.20528
 H222 H 0.71146 0.65674 0.31012
 H223 H 0.62605 0.71196 0.41690
 H224 H 0.59548 0.68414 0.31269
 C225 C 0.14174 1.14221 0.24066
 C226 C 0.17319 1.12329 0.24694
 C227 C 0.19026 1.13783 0.30783
 C228 C 0.17574 1.17046 0.36308
 C229 C 0.14455 1.19079 0.35515
 C230 C 0.12774 1.17685 0.29438
 C231 C 0.12215 1.12115 0.18403
 C232 C 0.10287 1.10308 0.14266
 H233 H 0.18416 1.09594 0.20595
 H234 H 0.21428 1.12168 0.31302
 H235 H 0.13302 1.21662 0.39671
 H236 H 0.10339 1.19143 0.29030
 C237 C 0.63905 0.35743 -0.25375
 C238 C 0.66131 0.31017 -0.25170
 C239 C 0.67925 0.29611 -0.31180
 C240 C 0.67467 0.32844 -0.37558
 C241 C 0.65315 0.37795 -0.37504
 C242 C 0.63562 0.39205 -0.31496
 C243 C 0.61795 0.36925 -0.19578
 C244 C 0.59827 0.38286 -0.15255
 H245 H 0.66413 0.28297 -0.20450
 H246 H 0.69501 0.25717 -0.30914
 H247 H 0.64989 0.40674 -0.42074
 H248 H 0.61875 0.42937 -0.31687
 C249 C 0.12930 0.81190 -0.24831
 C250 C 0.16218 0.81299 -0.24722
 C251 C 0.17941 0.79565 -0.30723
 C252 C 0.16392 0.77828 -0.37009
 C253 C 0.13077 0.77421 -0.36834
 C254 C 0.11378 0.79093 -0.30830
 C255 C 0.11080 0.83777 -0.19184
 C256 C 0.09300 0.86138 -0.15018
 H257 H 0.17448 0.82958 -0.20114
 H258 H 0.20469 0.80066 -0.30549
 H259 H 0.11760 0.75796 -0.41327
 H260 H 0.08832 0.78934 -0.30956
 C261 C 0.36896 0.66747 -0.25552
 C262 C 0.38337 0.69048 -0.31590
 C263 C 0.36538 0.70712 -0.37415
 C264 C 0.33232 0.70081 -0.37378
 C265 C 0.31787 0.68175 -0.31032
 C266 C 0.33613 0.66451 -0.25204
 C267 C 0.38858 0.64250 -0.20078
 C268 C 0.40714 0.62051 -0.15990
 H269 H 0.40876 0.69381 -0.31889
 H270 H 0.37771 0.72492 -0.41952
 H271 H 0.29271 0.67530 -0.30700
 H272 H 0.32470 0.64663 -0.20546
 C273 C -0.13610 1.15093 -0.24841
 C274 C -0.16361 1.11846 -0.26329
 C275 C -0.18188 1.13409 -0.32203
 C276 C -0.17237 1.18165 -0.36654
 C277 C -0.14545 1.21533 -0.34960
 C278 C -0.12748 1.20013 -0.29083
 C279 C -0.11446 1.12993 -0.19560
 C280 C -0.09459 1.11170 -0.15559
 H281 H -0.17023 1.07976 -0.23122
 H282 H -0.20243 1.10732 -0.33468
 H283 H -0.13781 1.25221 -0.38333
 H284 H -0.10612 1.22516 -0.28017
 C285 C 0.64356 0.63024 -0.24781
 C286 C 0.64641 0.58841 -0.30345
 C287 C 0.66392 0.60315 -0.36332
 C288 C 0.67888 0.65995 -0.36821
 C289 C 0.67721 0.70048 -0.31059
 C290 C 0.65951 0.68577 -0.25082
 C291 C 0.62152 0.61821 -0.19198
 C292 C 0.60129 0.60578 -0.14991
 H293 H 0.63410 0.54531 -0.30173
 H294 H 0.66504 0.57093 -0.40665
 H295 H 0.68820 0.74485 -0.31333
 H296 H 0.65727 0.71862 -0.20830
 C297 C 0.14079 1.12898 -0.25627
 C298 C 0.14072 1.09212 -0.31633
 C299 C 0.15770 1.10886 -0.37602
 C300 C 0.17534 1.16332 -0.37749
 C301 C 0.17647 1.19864 -0.31495
 C302 C 0.15904 1.18186 -0.25520
 C303 C 0.11983 1.11383 -0.19922
 C304 C 0.10024 1.09842 -0.15686
 H305 H 0.12693 1.05073 -0.31761
 H306 H 0.15726 1.07803 -0.42065
 H307 H 0.18903 1.24135 -0.31298
 H308 H 0.15909 1.21108 -0.20905
 C309 C 0.36073 0.36658 -0.25694
 C310 C 0.35045 0.41228 -0.30300
 C311 C 0.33183 0.39742 -0.36085
 C312 C 0.32321 0.33657 -0.37346
 C313 C 0.33236 0.29118 -0.32525
 C314 C 0.35122 0.30613 -0.26737
 C315 C 0.38350 0.38161 -0.20388
 C316 C 0.40375 0.39673 -0.16327
 H317 H 0.35776 0.45914 -0.29562
 H318 H 0.32483 0.43323 -0.39697
 H319 H 0.32619 0.24393 -0.33420
 H320 H 0.35927 0.27034 -0.23231
 C321 C -0.14612 0.87825 -0.24333
 C322 C -0.15969 0.82057 -0.25053
 C323 C -0.17869 0.80776 -0.30877
 C324 C -0.18396 0.85238 -0.36071
 C325 C -0.17170 0.91118 -0.35089
 C326 C -0.15292 0.92400 -0.29251
 C327 C -0.12242 0.88903 -0.19086
 C328 C -0.10121 0.90022 -0.15098
 H329 H -0.15443 0.78476 -0.21299
 H330 H -0.18763 0.76195 -0.31549
 H331 H -0.17559 0.94642 -0.38993
 H332 H -0.14251 0.96881 -0.28749
 C333 C 0.36253 0.65142 0.24827
 C334 C 0.33640 0.61631 0.26700
 C335 C 0.31852 0.63204 0.32651
 C336 C 0.32706 0.68238 0.36806
 C337 C 0.35268 0.71831 0.34767
 C338 C 0.37024 0.70302 0.28797
 C339 C 0.38392 0.63092 0.19435
 C340 C 0.40368 0.61315 0.15349
 H341 H 0.33058 0.57566 0.23726
 H342 H 0.29901 0.60348 0.34197
 H343 H 0.35954 0.75731 0.37913
 H344 H 0.39059 0.73007 0.27437
 C345 C -0.12900 1.16801 0.25610
 C346 C -0.16183 1.16643 0.25192
 C347 C -0.18022 1.18205 0.31083
 C348 C -0.16592 1.19802 0.37552
 C349 C -0.13278 1.20260 0.37697
 C350 C -0.11466 1.18764 0.31809
 C351 C -0.10938 1.14440 0.20031
 C352 C -0.09095 1.12278 0.15866
 H353 H -0.17318 1.15091 0.20414
 H354 H -0.20544 1.17701 0.30668
 H355 H -0.12052 1.21810 0.42350
 H356 H -0.08925 1.18967 0.32171
 C357 C 0.63709 0.34215 0.24572
 C358 C 0.64653 0.38812 0.29213
 C359 C 0.66426 0.37359 0.35147
 C360 C 0.67292 0.31279 0.36522
 C361 C 0.66473 0.26697 0.31677
 C362 C 0.64662 0.28158 0.25736
 C363 C 0.61498 0.35768 0.19126
 C364 C 0.59523 0.37522 0.15048
 H365 H 0.63918 0.43505 0.28385
 H366 H 0.67058 0.40967 0.38780
 H367 H 0.67109 0.21980 0.32660
 H368 H 0.63920 0.24559 0.22200
 C369 C 0.13392 0.82726 0.24759
 C370 C 0.12123 0.78561 0.29542
 C371 C 0.13777 0.76974 0.35619
 C372 C 0.16733 0.79532 0.37016
 C373 C 0.18050 0.83563 0.32078
 C374 C 0.16375 0.85181 0.25996
 C375 C 0.11441 0.84970 0.19121
 C376 C 0.09583 0.86981 0.14911
 H377 H 0.09804 0.76684 0.28689
 H378 H 0.12725 0.73814 0.39300
 H379 H 0.20311 0.85637 0.33055
 H380 H 0.17360 0.88484 0.22388
   
