data_POSCAR
  _audit_creation_date              2014-09-24
  _audit_creation_method            'ToBaCCo'
  _symmetry_space_group_name_H-M    'P1'
  _symmetry_Int_Tables_number       1
  _symmetry_cell_setting            triclinic
  loop_
  _symmetry_equiv_pos_as_xyz
 x,y,z
_cell_length_a 54.4977
_cell_length_b 54.5408
_cell_length_c 15.5178
_cell_angle_alpha 90.025900
_cell_angle_beta 89.939900
_cell_angle_gamma 119.887400
loop_
  _atom_site_label
  _atom_site_type_symbol
  _atom_site_fract_x
  _atom_site_fract_y
  _atom_site_fract_z
C1 C 0.22075 0.48759 0.45249
 C2 C 0.22298 0.49177 0.54379
 C3 C 0.24691 0.49401 0.58635
 C4 C 0.26814 0.49126 0.54287
 C5 C 0.26560 0.48724 0.45207
 C6 C 0.24178 0.48455 0.40928
 H7 H 0.24107 0.48267 0.33959
 H8 H 0.24751 0.49499 0.65606
 C9 C 0.50609 -0.26958 0.45042
 C10 C 0.50362 -0.27071 0.54178
 C11 C 0.50355 -0.24832 0.58633
 C12 C 0.50653 -0.22416 0.54370
 C13 C 0.50926 -0.22308 0.45227
 C14 C 0.50973 -0.24524 0.40780
 H15 H 0.51072 -0.24437 0.33796
 H16 H 0.50319 -0.24901 0.65613
 C17 C 1.26927 0.77634 0.45293
 C18 C 1.26842 0.77733 0.54468
 C19 C 1.24590 0.75541 0.58995
 C20 C 1.22431 0.73199 0.54737
 C21 C 1.22477 0.73066 0.45642
 C22 C 1.24731 0.75258 0.41084
 H23 H 1.24662 0.75180 0.34106
 H24 H 1.24579 0.75602 0.65983
 C25 C 0.77723 0.50901 0.45330
 C26 C 0.77687 0.50797 0.54505
 C27 C 0.75357 0.50680 0.58865
 C28 C 0.73159 0.50821 0.54505
 C29 C 0.73282 0.51001 0.45347
 C30 C 0.75552 0.51048 0.40961
 H31 H 0.75552 0.51056 0.33968
 H32 H 0.75389 0.50752 0.65841
 C33 C 0.49603 0.27042 0.45719
 C34 C 0.49646 0.27053 0.54895
 C35 C 0.49798 0.24843 0.59154
 C36 C 0.49870 0.22629 0.54654
 C37 C 0.49775 0.22651 0.45491
 C38 C 0.49664 0.24850 0.41217
 H39 H 0.49612 0.24848 0.34226
 H40 H 0.49847 0.24838 0.66125
 C41 C 0.72895 0.22638 0.45296
 C42 C 0.72882 0.22704 0.54401
 C43 C 0.75118 0.24977 0.58745
 C44 C 0.77438 0.27162 0.54284
 C45 C 0.77416 0.27059 0.45091
 C46 C 0.75169 0.24794 0.40785
 H47 H 0.75139 0.24760 0.33794
 H48 H 0.75124 0.24925 0.65726
 O49 O 0.95939 0.43692 0.15286
 O50 O 0.92868 0.44439 0.07075
 C51 C 0.93404 0.43101 0.13017
 O52 O 1.03969 0.56400 0.15071
 O53 O 1.07109 0.55583 0.07483
 C54 C 1.06520 0.57002 0.13003
 O55 O 0.96027 0.52190 0.15889
 O56 O 0.92938 0.48550 0.07221
 C57 C 0.93488 0.50340 0.13427
 O58 O 1.03897 0.47329 0.14740
 O59 O 1.07051 0.51310 0.07362
 C60 C 1.06456 0.49267 0.12739
 Zr61 Zr 0.99965 0.46831 0.10649
 O62 O 1.00201 0.46834 0.24267
 O63 O 0.99791 0.42880 0.09773
 Zr64 Zr 1.00004 0.53041 0.10936
 O65 O 1.00306 0.53138 0.24547
 O66 O 0.99671 0.56747 0.11116
 O67 O 0.97452 0.48681 0.12395
 O68 O 1.02441 0.51144 0.12463
 O69 O 1.03996 0.47434 -0.14814
 O70 O 1.07107 0.51374 -0.07187
 C71 C 1.06538 0.49356 -0.12638
 O72 O 0.96171 0.52481 -0.15636
 O73 O 0.93005 0.48633 -0.07781
 C74 C 0.93613 0.50577 -0.13541
 O75 O 1.04086 0.56539 -0.14650
 O76 O 1.07168 0.55667 -0.06980
 C77 C 1.06625 0.57130 -0.12465
 O78 O 0.96110 0.43773 -0.15948
 O79 O 0.92972 0.44469 -0.07934
 C80 C 0.93558 0.43148 -0.13820
 Zr81 Zr 1.00051 0.46953 -0.11066
 O82 O 1.00420 0.47293 -0.24658
 O83 O 0.99787 0.42951 -0.11475
 Zr84 Zr 1.00089 0.53158 -0.10825
 O85 O 1.00442 0.53297 -0.24430
 O86 O 0.99824 0.56901 -0.10838
 Zr87 Zr 0.95800 0.47913 -0.00231
 Zr88 Zr 1.04251 0.52089 0.00070
 O89 O 1.02545 0.51279 -0.12448
 O90 O 0.97540 0.48812 -0.12742
 O91 O 1.02535 0.47670 -0.00133
 O92 O 0.97589 0.52338 0.00003
 O93 O 0.97535 0.45225 -0.00296
 O94 O 1.02574 0.54836 0.00161
 H95 H 1.03697 0.51744 0.17571
 H96 H 0.96328 0.53161 0.00071
 H97 H 1.03853 0.51932 -0.17442
 H98 H 0.96254 0.43148 -0.00362
 H99 H 1.01256 0.58197 0.07659
 H100 H 1.01332 0.58275 -0.07004
 H101 H 0.98787 0.51575 -0.26725
 H102 H 0.98728 0.47308 -0.26894
 H103 H 1.00860 0.42859 -0.06468
 H104 H 0.99737 0.42240 0.15782
 H105 H 0.98662 0.47114 0.26535
 H106 H 0.98741 0.51329 0.26739
 O107 O 0.43732 0.47640 0.15799
 O108 O 0.44341 0.51391 0.07555
 C109 C 0.43048 0.49512 0.13516
 O110 O 0.56487 0.52550 0.14946
 O111 O 0.55719 0.48638 0.07252
 C112 C 0.57130 0.50634 0.12789
 O113 O 0.52274 0.56287 0.15653
 O114 O 0.48441 0.55537 0.07565
 C115 C 0.50332 0.56883 0.13451
 O116 O 0.47578 0.43547 0.15090
 O117 O 0.51540 0.44420 0.07470
 C118 C 0.49550 0.42977 0.13009
 Zr119 Zr 0.46930 0.46884 0.10952
 O120 O 0.46994 0.46692 0.24570
 O121 O 0.43030 0.43055 0.10218
 Zr122 Zr 0.53080 0.53111 0.10913
 O123 O 0.53181 0.52920 0.24530
 O124 O 0.56773 0.57149 0.10951
 O125 O 0.48712 0.51242 0.12607
 O126 O 0.51258 0.48794 0.12531
 O127 O 0.47508 0.43457 -0.14534
 O128 O 0.51510 0.44364 -0.07071
 C129 C 0.49478 0.42883 -0.12449
 O130 O 0.52301 0.56269 -0.15566
 O131 O 0.48441 0.55523 -0.07579
 C132 C 0.50362 0.56874 -0.13399
 O133 O 0.56505 0.52555 -0.14770
 O134 O 0.55719 0.48625 -0.07151
 C135 C 0.57145 0.50639 -0.12637
 O136 O 0.43669 0.47576 -0.15393
 O137 O 0.44325 0.51400 -0.07397
 C138 C 0.42999 0.49470 -0.13211
 Zr139 Zr 0.46924 0.46865 -0.10775
 O140 O 0.47177 0.46805 -0.24385
 O141 O 0.42960 0.43092 -0.11037
 Zr142 Zr 0.53068 0.53076 -0.10850
 O143 O 0.53104 0.52795 -0.24457
 O144 O 0.56765 0.57106 -0.11219
 Zr145 Zr 0.47840 0.52062 0.00029
 Zr146 Zr 0.52150 0.47917 0.00079
 O147 O 0.51252 0.48756 -0.12396
 O148 O 0.48701 0.51215 -0.12533
 O149 O 0.47743 0.45154 0.00119
 O150 O 0.52261 0.54750 0.00012
 O151 O 0.45224 0.47636 0.00094
 O152 O 0.54843 0.52340 0.00042
 H153 H 0.51908 0.48177 0.17617
 H154 H 0.53059 0.56827 0.00003
 H155 H 0.51905 0.48109 -0.17414
 H156 H 0.43140 0.46799 0.00126
 H157 H 0.58220 0.57017 0.07444
 H158 H 0.58141 0.57060 -0.07171
 H159 H 0.51378 0.52751 -0.26647
 H160 H 0.47143 0.48488 -0.26606
 H161 H 0.42922 0.41939 -0.06062
 H162 H 0.42437 0.42448 0.16246
 H163 H 0.47339 0.48537 0.26792
 H164 H 0.51430 0.52818 0.26753
 O165 O 0.47572 0.03883 0.15510
 O166 O 0.51355 0.07034 0.07378
 C167 C 0.49463 0.06437 0.13314
 O168 O 0.52428 -0.03966 0.15205
 O169 O 0.48577 -0.07070 0.07268
 C170 C 0.50533 -0.06507 0.12937
 O171 O 0.56115 0.03935 0.16135
 O172 O 0.55485 0.07053 0.07828
 C173 C 0.56747 0.06480 0.13923
 O174 O 0.43374 -0.04027 0.14213
 O175 O 0.44296 -0.07122 0.06801
 C176 C 0.42799 -0.06567 0.12130
 Zr177 Zr 0.46780 -0.00050 0.10417
 O178 O 0.46345 -0.00387 0.23984
 O179 O 0.42999 0.00101 0.09065
 Zr180 Zr 0.52993 -0.00017 0.11120
 O181 O 0.52620 -0.00371 0.24711
 O182 O 0.57030 0.00319 0.11680
 O183 O 0.51120 0.02487 0.12521
 O184 O 0.48653 -0.02496 0.12312
 O185 O 0.43663 -0.03963 -0.15407
 O186 O 0.44444 -0.07092 -0.07646
 C187 C 0.43044 -0.06513 -0.13267
 O188 O 0.56427 0.03994 -0.15225
 O189 O 0.55617 0.07082 -0.07346
 C190 C 0.56996 0.06527 -0.13103
 O191 O 0.52682 -0.03931 -0.14605
 O192 O 0.48683 -0.07067 -0.07244
 C193 C 0.50732 -0.06483 -0.12597
 O194 O 0.47890 0.03974 -0.16372
 O195 O 0.51498 0.07074 -0.07618
 C196 C 0.49734 0.06515 -0.13910
 Zr197 Zr 0.47010 0.00008 -0.11269
 O198 O 0.46952 -0.00307 -0.24873
 O199 O 0.43274 0.00287 -0.11565
 Zr200 Zr 0.53213 0.00025 -0.10611
 O201 O 0.53161 -0.00258 -0.24226
 O202 O 0.57249 0.00351 -0.10188
 Zr203 Zr 0.52092 0.04225 0.00006
 Zr204 Zr 0.47913 -0.04223 -0.00170
 O205 O 0.48907 -0.02437 -0.12586
 O206 O 0.51381 0.02546 -0.12584
 O207 O 0.45166 -0.02552 -0.00524
 O208 O 0.54769 0.02472 0.00348
 O209 O 0.47671 0.02454 -0.00410
 O210 O 0.52335 -0.02521 0.00255
 H211 H 0.47968 -0.03783 0.17349
 H212 H 0.56847 0.03751 0.00524
 H213 H 0.48318 -0.03705 -0.17668
 H214 H 0.46867 0.03732 -0.00534
 H215 H 0.56974 -0.01176 0.07938
 H216 H 0.57072 -0.01246 -0.06695
 H217 H 0.53058 0.01378 -0.26543
 H218 H 0.48797 0.01213 -0.27020
 H219 H 0.41951 -0.01084 -0.07298
 H220 H 0.42307 0.00071 0.14993
 H221 H 0.48218 0.00937 0.26463
 H222 H 0.52569 0.01306 0.26907
 C223 C 1.15696 0.49086 0.30432
 C224 C 1.16462 0.47032 0.28717
 C225 C 1.18621 0.46978 0.33422
 C226 C 1.19993 0.48916 0.40180
 C227 C 1.19254 0.51016 0.41716
 C228 C 1.17140 0.51105 0.36869
 C229 C 1.13361 0.49098 0.25623
 C230 C 1.13781 0.51566 0.21503
 C231 C 1.11555 0.51596 0.17127
 C232 C 1.08846 0.49179 0.16980
 C233 C 1.08436 0.46703 0.21082
 C234 C 1.10682 0.46657 0.25290
 H235 H 1.19120 0.45327 0.32040
 H236 H 1.20334 0.52613 0.46617
 H237 H 1.11947 0.53527 0.13979
 H238 H 1.06380 0.44802 0.21040
 H239 H 1.16591 0.52719 0.38259
 H240 H 1.15837 0.53467 0.21639
 H241 H 1.15385 0.45467 0.23726
 H242 H 1.10313 0.44733 0.28458
 C243 C 0.50239 0.66227 0.30730
 C244 C 0.48287 0.65702 0.37355
 C245 C 0.48379 0.67941 0.42000
 C246 C 0.50415 0.70768 0.40083
 C247 C 0.52271 0.71278 0.33110
 C248 C 0.52216 0.69032 0.28597
 C249 C 0.50261 0.63851 0.26201
 C250 C 0.52767 0.63726 0.25677
 C251 C 0.52782 0.61445 0.21615
 C252 C 0.50303 0.59277 0.17841
 C253 C 0.47805 0.59427 0.18270
 C254 C 0.47776 0.61677 0.22505
 H255 H 0.46827 0.67457 0.47040
 H256 H 0.53874 0.73413 0.31423
 H257 H 0.54743 0.61396 0.21342
 H258 H 0.45866 0.57789 0.15422
 H259 H 0.53727 0.69482 0.23452
 H260 H 0.54703 0.65373 0.28539
 H261 H 0.46730 0.63552 0.39062
 H262 H 0.45821 0.61738 0.22821
 C263 C 0.33403 -0.15755 0.30228
 C264 C 0.32344 -0.15132 0.37665
 C265 C 0.30189 -0.17287 0.42512
 C266 C 0.29071 -0.20153 0.40250
 C267 C 0.30096 -0.20762 0.32655
 C268 C 0.32229 -0.18598 0.27740
 C269 C 0.35737 -0.13446 0.25160
 C270 C 0.37840 -0.13851 0.21241
 C271 C 0.40092 -0.11642 0.16798
 C272 C 0.40317 -0.08966 0.16280
 C273 C 0.38196 -0.08571 0.20058
 C274 C 0.35924 -0.10788 0.24380
 H275 H 0.29349 -0.16678 0.47895
 H276 H 0.29330 -0.22923 0.30630
 H277 H 0.41700 -0.12008 0.13987
 H278 H 0.38291 -0.06543 0.19680
 H279 H 0.32951 -0.19161 0.21965
 H280 H 0.37794 -0.15851 0.21799
 H281 H 0.33192 -0.12971 0.39819
 H282 H 0.34313 -0.10412 0.27112
 C283 C 0.84096 0.50258 0.30787
 C284 C 0.83452 0.52385 0.28886
 C285 C 0.81335 0.52555 0.33484
 C286 C 0.79828 0.50590 0.40025
 C287 C 0.80394 0.48381 0.41625
 C288 C 0.82542 0.48241 0.37118
 C289 C 0.86467 0.50217 0.26402
 C290 C 0.89091 0.51321 0.30539
 C291 C 0.91383 0.51374 0.26308
 C292 C 0.91067 0.50283 0.17919
 C293 C 0.88415 0.49141 0.13845
 C294 C 0.86138 0.49132 0.18036
 H295 H 0.80929 0.54268 0.32118
 H296 H 0.79225 0.46814 0.46531
 H297 H 0.93393 0.52248 0.29623
 H298 H 0.88115 0.48298 0.07368
 H299 H 0.83014 0.46580 0.38618
 H300 H 0.89369 0.52167 0.37008
 H301 H 0.84639 0.53955 0.24001
 H302 H 0.84121 0.48280 0.14767
 C303 C 0.49713 0.33767 0.30973
 C304 C 0.47474 0.30977 0.30114
 C305 C 0.47477 0.28789 0.34776
 C306 C 0.49691 0.29362 0.40505
 C307 C 0.51955 0.32140 0.41277
 C308 C 0.51970 0.34326 0.36522
 C309 C 0.49660 0.36094 0.26215
 C310 C 0.52061 0.38107 0.21721
 C311 C 0.52007 0.40311 0.17286
 C312 C 0.49566 0.40572 0.17383
 C313 C 0.47165 0.38552 0.21883
 C314 C 0.47206 0.36325 0.26203
 H315 H 0.45720 0.26654 0.34076
 H316 H 0.53690 0.32615 0.45623
 H317 H 0.53891 0.41833 0.13888
 H318 H 0.45250 0.38689 0.22068
 H319 H 0.53713 0.36463 0.37321
 H320 H 0.53970 0.37961 0.21585
 H321 H 0.45725 0.30490 0.25813
 H322 H 0.45335 0.34810 0.29677
 C323 C 0.65993 0.15901 0.31502
 C324 C 0.65516 0.17698 0.36867
 C325 C 0.67765 0.19915 0.41268
 C326 C 0.70527 0.20383 0.40315
 C327 C 0.71019 0.18640 0.34777
 C328 C 0.68768 0.16401 0.30464
 C329 C 0.63602 0.13486 0.27084
 C330 C 0.63346 0.10794 0.27289
 C331 C 0.61098 0.08510 0.23115
 C332 C 0.59081 0.08881 0.18545
 C333 C 0.59338 0.11578 0.18348
 C334 C 0.61566 0.13853 0.22632
 H335 H 0.67350 0.21250 0.45490
 H336 H 0.73138 0.18972 0.33966
 H337 H 0.60961 0.06461 0.23371
 H338 H 0.57808 0.11926 0.14918
 H339 H 0.69192 0.15063 0.26294
 H340 H 0.64874 0.10452 0.30755
 H341 H 0.63395 0.17347 0.37803
 H342 H 0.61725 0.15911 0.22353
 C343 C 0.50051 0.15970 -0.31605
 C344 C 0.48527 0.17213 -0.28374
 C345 C 0.48496 0.19426 -0.32829
 C346 C 0.50013 0.20467 -0.40618
 C347 C 0.51671 0.19298 -0.43495
 C348 C 0.51640 0.17040 -0.39153
 C349 C 0.49984 0.13555 -0.27108
 C350 C 0.49032 0.10971 -0.31396
 C351 C 0.48917 0.08664 -0.27084
 C352 C 0.49820 0.08931 -0.18483
 C353 C 0.50817 0.11539 -0.14266
 C354 C 0.50863 0.13820 -0.18506
 H355 H 0.47167 0.20219 -0.30347
 H356 H 0.53062 0.20166 -0.48989
 H357 H 0.48158 0.06685 -0.30504
 H358 H 0.51527 0.11804 -0.07651
 H359 H 0.52896 0.16157 -0.41607
 H360 H 0.48341 0.10731 -0.38041
 H361 H 0.47290 0.16413 -0.22527
 H362 H 0.51615 0.15803 -0.15113
 C363 C 0.66588 0.50907 -0.30736
 C364 C 0.67780 0.49257 -0.28167
 C365 C 0.69937 0.49238 -0.32999
 C366 C 0.70979 0.50872 -0.40573
 C367 C 0.69844 0.52604 -0.42914
 C368 C 0.67659 0.52587 -0.38163
 C369 C 0.64229 0.50867 -0.25745
 C370 C 0.63995 0.53315 -0.25060
 C371 C 0.61710 0.53245 -0.20744
 C372 C 0.59626 0.50738 -0.16871
 C373 C 0.59895 0.48310 -0.17315
 C374 C 0.62155 0.48366 -0.21765
 H375 H 0.70716 0.47855 -0.30917
 H376 H 0.70695 0.54054 -0.48279
 H377 H 0.61580 0.55160 -0.20418
 H378 H 0.58318 0.46345 -0.14419
 H379 H 0.66799 0.53886 -0.40379
 H380 H 0.65583 0.55298 -0.27839
 H381 H 0.67054 0.47978 -0.22391
 H382 H 0.62232 0.46426 -0.22257
 C383 C 0.84256 0.33738 -0.31551
 C384 C 0.84774 0.32635 -0.39080
 C385 C 0.82556 0.30429 -0.43578
 C386 C 0.79721 0.29315 -0.40917
 C387 C 0.79220 0.30370 -0.33206
 C388 C 0.81450 0.32542 -0.28604
 C389 C 0.86630 0.36128 -0.26842
 C390 C 0.86223 0.38176 -0.22573
 C391 C 0.88459 0.40434 -0.18259
 C392 C 0.91174 0.40738 -0.18270
 C393 C 0.91589 0.38699 -0.22518
 C394 C 0.89342 0.36409 -0.26672
 H395 H 0.83092 0.29558 -0.49043
 H396 H 0.77088 0.29601 -0.30854
 H397 H 0.88071 0.41963 -0.15018
 H398 H 0.93646 0.38848 -0.22529
 H399 H 0.80965 0.33281 -0.22721
 H400 H 0.84186 0.38069 -0.22669
 H401 H 0.86898 0.33487 -0.41592
 H402 H 0.89733 0.34845 -0.29674
 C403 C 0.50891 -0.15706 -0.30757
 C404 C 0.52596 -0.15124 -0.38126
 C405 C 0.52562 -0.17311 -0.42906
 C406 C 0.50758 -0.20169 -0.40654
 C407 C 0.49102 -0.20735 -0.33126
 C408 C 0.49172 -0.18542 -0.28267
 C409 C 0.50885 -0.13369 -0.25768
 C410 C 0.48385 -0.13749 -0.21872
 C411 C 0.48356 -0.11536 -0.17413
 C412 C 0.50813 -0.08871 -0.16860
 C413 C 0.53319 -0.08490 -0.20666
 C414 C 0.53361 -0.10717 -0.25000
 H415 H 0.54027 -0.16735 -0.48231
 H416 H 0.47661 -0.22885 -0.31108
 H417 H 0.46388 -0.11892 -0.14593
 H418 H 0.55255 -0.06468 -0.20272
 H419 H 0.47871 -0.19079 -0.22535
 H420 H 0.46423 -0.15738 -0.22438
 H421 H 0.53949 -0.12971 -0.40282
 H422 H 0.55343 -0.10356 -0.27725
 C423 C 0.33507 0.49167 -0.31217
 C424 C 0.32391 0.47450 -0.38556
 C425 C 0.30160 0.47383 -0.43152
 C426 C 0.29038 0.49131 -0.40861
 C427 C 0.30137 0.50823 -0.33414
 C428 C 0.32318 0.50825 -0.28655
 C429 C 0.35895 0.49223 -0.26312
 C430 C 0.37884 0.51678 -0.21926
 C431 C 0.40145 0.51735 -0.17487
 C432 C 0.40536 0.49379 -0.17562
 C433 C 0.38545 0.46919 -0.21854
 C434 C 0.36237 0.46828 -0.26063
 H435 H 0.29267 0.45878 -0.48365
 H436 H 0.29381 0.52227 -0.31356
 H437 H 0.41611 0.53643 -0.14110
 H438 H 0.38750 0.45043 -0.21881
 H439 H 0.33058 0.52130 -0.22938
 H440 H 0.37737 0.53583 -0.22026
 H441 H 0.33241 0.46149 -0.40836
 H442 H 0.34714 0.44861 -0.29070
 C443 C 1.15912 0.66478 -0.30248
 C444 C 1.17654 0.65943 -0.35700
 C445 C 1.19784 0.68129 -0.40555
 C446 C 1.20220 0.70886 -0.39987
 C447 C 1.18527 0.71437 -0.34392
 C448 C 1.16376 0.69247 -0.29619
 C449 C 1.13568 0.64140 -0.25410
 C450 C 1.10857 0.63844 -0.25444
 C451 C 1.08613 0.61585 -0.21167
 C452 C 1.09038 0.59590 -0.16667
 C453 C 1.11768 0.59924 -0.16475
 C454 C 1.14005 0.62163 -0.20865
 H455 H 1.21084 0.67669 -0.44795
 H456 H 1.18838 0.73553 -0.33857
 H457 H 1.06540 0.61396 -0.21421
 H458 H 1.12167 0.58427 -0.13060
 H459 H 1.15078 0.69717 -0.25409
 H460 H 1.10460 0.65327 -0.28953
 H461 H 1.17326 0.63823 -0.36345
 H462 H 1.16083 0.62359 -0.20684
 C463 C 0.84421 0.50950 -0.31104
 C464 C 0.84981 0.52601 -0.38575
 C465 C 0.82787 0.52623 -0.43135
 C466 C 0.79942 0.50908 -0.40586
 C467 C 0.79401 0.49329 -0.32918
 C468 C 0.81605 0.49354 -0.28253
 C469 C 0.86762 0.50871 -0.26384
 C470 C 0.86314 0.48380 -0.22278
 C471 C 0.88526 0.48294 -0.17998
 C472 C 0.91251 0.50674 -0.17892
 C473 C 0.91703 0.53166 -0.21955
 C474 C 0.89481 0.53273 -0.26071
 H475 H 0.83341 0.54023 -0.48623
 H476 H 0.77258 0.47969 -0.30666
 H477 H 0.88110 0.46350 -0.14892
 H478 H 0.93771 0.55052 -0.21863
 H479 H 0.81092 0.48109 -0.22414
 H480 H 0.84268 0.46472 -0.22491
 H481 H 0.87115 0.53858 -0.41012
 H482 H 0.89899 0.55251 -0.28947
 C483 C 0.49347 0.33478 -0.30244
 C484 C 0.51026 0.32324 -0.27628
 C485 C 0.51107 0.30204 -0.32472
 C486 C 0.49508 0.29167 -0.40104
 C487 C 0.47736 0.30252 -0.42474
 C488 C 0.47690 0.32400 -0.37706
 C489 C 0.49348 0.35820 -0.25299
 C490 C 0.46875 0.36015 -0.24647
 C491 C 0.46914 0.38293 -0.20409
 C492 C 0.49413 0.40410 -0.16592
 C493 C 0.51864 0.40178 -0.16997
 C494 C 0.51839 0.37924 -0.21364
 H495 H 0.52521 0.29465 -0.30374
 H496 H 0.46314 0.29398 -0.47902
 H497 H 0.44980 0.38394 -0.20109
 H498 H 0.53823 0.41780 -0.14136
 H499 H 0.46369 0.33231 -0.39951
 H500 H 0.44900 0.34403 -0.27400
 H501 H 0.52288 0.33058 -0.21822
 H502 H 0.53796 0.37875 -0.21836
 C503 C 0.66265 0.15878 -0.30983
 C504 C 0.67088 0.18712 -0.29098
 C505 C 0.69239 0.20925 -0.33816
 C506 C 0.70635 0.20357 -0.40460
 C507 C 0.69887 0.17541 -0.42151
 C508 C 0.67700 0.15328 -0.37579
 C509 C 0.63913 0.13504 -0.26169
 C510 C 0.63952 0.10980 -0.24619
 C511 C 0.61697 0.08710 -0.20424
 C512 C 0.59380 0.08932 -0.17492
 C513 C 0.59352 0.11462 -0.18843
 C514 C 0.61580 0.13713 -0.23213
 H515 H 0.69798 0.23082 -0.32333
 H516 H 0.70981 0.17048 -0.47081
 H517 H 0.61783 0.06791 -0.19362
 H518 H 0.57574 0.11674 -0.16705
 H519 H 0.67112 0.13184 -0.39329
 H520 H 0.65736 0.10756 -0.26585
 H521 H 0.66084 0.19228 -0.23945
 H522 H 0.61439 0.15593 -0.24419
 C523 C 1.15706 0.49034 -0.30444
 C524 C 1.18561 0.50829 -0.28275
 C525 C 1.20721 0.50863 -0.33222
 C526 C 1.20094 0.49099 -0.40501
 C527 C 1.17224 0.47211 -0.42394
 C528 C 1.15069 0.47213 -0.37537
 C529 C 1.13402 0.49092 -0.25450
 C530 C 1.10782 0.46609 -0.24262
 C531 C 1.08562 0.46694 -0.20038
 C532 C 1.08927 0.49252 -0.16751
 C533 C 1.11564 0.51719 -0.17671
 C534 C 1.13770 0.51647 -0.22043
 H535 H 1.22889 0.52359 -0.31499
 H536 H 1.16625 0.45697 -0.47593
 H537 H 1.06560 0.44751 -0.19318
 H538 H 1.11896 0.53723 -0.15243
 H539 H 1.12899 0.45807 -0.39448
 H540 H 1.10438 0.44592 -0.26596
 H541 H 1.19135 0.52219 -0.22751
 H542 H 1.15737 0.53611 -0.22948
 C543 C 0.50508 0.66296 -0.31080
 C544 C 0.48516 0.67153 -0.29240
 C545 C 0.48474 0.69306 -0.33999
 C546 C 0.50448 0.70683 -0.40616
 C547 C 0.52516 0.69921 -0.42215
 C548 C 0.52513 0.67719 -0.37630
 C549 C 0.50476 0.63909 -0.26303
 C550 C 0.53000 0.63856 -0.24865
 C551 C 0.52954 0.61559 -0.20736
 C552 C 0.50396 0.59295 -0.17738
 C553 C 0.47886 0.59371 -0.18932
 C554 C 0.47916 0.61630 -0.23271
 H555 H 0.46877 0.69879 -0.32577
 H556 H 0.54105 0.70994 -0.47151
 H557 H 0.54930 0.61574 -0.19771
 H558 H 0.45891 0.57653 -0.16687
 H559 H 0.54055 0.67107 -0.39363
 H560 H 0.55025 0.65596 -0.26865
 H561 H 0.46986 0.66169 -0.24107
 H562 H 0.45919 0.61553 -0.24382
 C563 C 0.33663 -0.15775 -0.30853
 C564 C 0.30904 -0.16217 -0.30045
 C565 C 0.28679 -0.18369 -0.34681
 C566 C 0.29188 -0.20077 -0.40326
 C567 C 0.31931 -0.19678 -0.41023
 C568 C 0.34152 -0.17546 -0.36299
 C569 C 0.36034 -0.13426 -0.26191
 C570 C 0.37995 -0.13876 -0.21613
 C571 C 0.40249 -0.11640 -0.17292
 C572 C 0.40610 -0.08902 -0.17596
 C573 C 0.38641 -0.08460 -0.22185
 C574 C 0.36367 -0.10703 -0.26392
 H575 H 0.26570 -0.18662 -0.34036
 H576 H 0.32352 -0.20996 -0.45295
 H577 H 0.41725 -0.12051 -0.13801
 H578 H 0.38853 -0.06380 -0.22517
 H579 H 0.36264 -0.17236 -0.37052
 H580 H 0.37768 -0.15963 -0.21323
 H581 H 0.30473 -0.14895 -0.25817
 H582 H 0.34893 -0.10302 -0.29941
 C583 C 0.50662 -0.15803 0.30355
 C584 C 0.52980 -0.16251 0.29663
 C585 C 0.53035 -0.18408 0.34354
 C586 C 0.50801 -0.20111 0.39942
 C587 C 0.48458 -0.19704 0.40515
 C588 C 0.48386 -0.17571 0.35741
 C589 C 0.50652 -0.13449 0.25657
 C590 C 0.48247 -0.13890 0.21063
 C591 C 0.48225 -0.11645 0.16798
 C592 C 0.50591 -0.08907 0.17169
 C593 C 0.52999 -0.08475 0.21748
 C594 C 0.53034 -0.10727 0.25902
 H595 H 0.54851 -0.18707 0.33801
 H596 H 0.46704 -0.21019 0.44736
 H597 H 0.46339 -0.12048 0.13318
 H598 H 0.54859 -0.06394 0.22125
 H599 H 0.46584 -0.17256 0.36412
 H600 H 0.46392 -0.15976 0.20737
 H601 H 0.54746 -0.14932 0.25485
 H602 H 0.54905 -0.10332 0.29466
 C603 C 0.33464 0.49233 0.30445
 C604 C 0.33843 0.51542 0.35446
 C605 C 0.31582 0.51398 0.40110
 C606 C 0.28906 0.48952 0.39785
 C607 C 0.28493 0.46693 0.34489
 C608 C 0.30765 0.46818 0.29933
 C609 C 0.35900 0.49303 0.26022
 C610 C 0.36434 0.47055 0.27012
 C611 C 0.38772 0.47138 0.23026
 C612 C 0.40603 0.49457 0.17866
 C613 C 0.40043 0.51693 0.16806
 C614 C 0.37730 0.51630 0.20921
 H615 H 0.31928 0.53171 0.44107
 H616 H 0.26437 0.44797 0.34138
 H617 H 0.39131 0.45373 0.23938
 H618 H 0.41393 0.53495 0.12811
 H619 H 0.30423 0.45025 0.26045
 H620 H 0.35063 0.45250 0.30984
 H621 H 0.35908 0.53420 0.35950
 H622 H 0.37347 0.53380 0.20036
 C623 C 1.15721 0.66334 0.31142
 C624 C 1.18572 0.67215 0.29283
 C625 C 1.20754 0.69376 0.34039
 C626 C 1.20144 0.70739 0.40680
 C627 C 1.17308 0.69923 0.42388
 C628 C 1.15123 0.67717 0.37785
 C629 C 1.13385 0.63978 0.26231
 C630 C 1.10823 0.63948 0.24715
 C631 C 1.08595 0.61684 0.20412
 C632 C 1.08898 0.59430 0.17339
 C633 C 1.11472 0.59484 0.18628
 C634 C 1.13677 0.61712 0.23111
 H635 H 1.22925 0.69982 0.32539
 H636 H 1.16777 0.70990 0.47304
 H637 H 1.06641 0.61710 0.19412
 H638 H 1.11753 0.57763 0.16374
 H639 H 1.12964 0.67083 0.39521
 H640 H 1.10534 0.65681 0.26802
 H641 H 1.19129 0.66255 0.24099
 H642 H 1.15586 0.61619 0.24279
 C643 C 0.49389 0.15783 0.30839
 C644 C 0.51695 0.18548 0.29946
 C645 C 0.51759 0.20795 0.34450
 C646 C 0.49560 0.20312 0.40118
 C647 C 0.47222 0.17582 0.40888
 C648 C 0.47127 0.15341 0.36254
 C649 C 0.49375 0.13370 0.26290
 C650 C 0.48125 0.10672 0.30114
 C651 C 0.48134 0.08416 0.25876
 C652 C 0.49441 0.08816 0.17797
 C653 C 0.50721 0.11511 0.14013
 C654 C 0.50658 0.13752 0.18153
 H655 H 0.53582 0.22893 0.33809
 H656 H 0.45491 0.17186 0.45170
 H657 H 0.47157 0.06367 0.28996
 H658 H 0.51740 0.11882 0.07787
 H659 H 0.45284 0.13262 0.36941
 H660 H 0.47178 0.10306 0.36456
 H661 H 0.53497 0.18973 0.25972
 H662 H 0.51595 0.15776 0.14912
 C663 C 0.66520 0.50731 0.30404
 C664 C 0.66010 0.48459 0.35815
 C665 C 0.68212 0.48524 0.40603
 C666 C 0.70960 0.50855 0.40013
 C667 C 0.71492 0.53082 0.34394
 C668 C 0.69284 0.53034 0.29693
 C669 C 0.64164 0.50731 0.25671
 C670 C 0.63834 0.53125 0.25841
 C671 C 0.61559 0.53102 0.21619
 C672 C 0.59589 0.50695 0.17046
 C673 C 0.59955 0.48319 0.16750
 C674 C 0.62207 0.48330 0.21080
 H675 H 0.67772 0.46777 0.44856
 H676 H 0.73603 0.54890 0.33832
 H677 H 0.61342 0.54969 0.21950
 H678 H 0.58477 0.46433 0.13278
 H679 H 0.69733 0.54796 0.25495
 H680 H 0.65305 0.54996 0.29396
 H681 H 0.63894 0.46667 0.36497
 H682 H 0.62431 0.46466 0.20804
 C683 C 0.83921 0.33849 0.30335
 C684 C 0.82185 0.34362 0.35873
 C685 C 0.80021 0.32145 0.40534
 C686 C 0.79557 0.29383 0.39693
 C687 C 0.81210 0.28849 0.33886
 C688 C 0.83392 0.31068 0.29306
 C689 C 0.86337 0.36216 0.25852
 C690 C 0.89014 0.36433 0.25983
 C691 C 0.91314 0.38682 0.21872
 C692 C 0.90974 0.40739 0.17447
 C693 C 0.88289 0.40515 0.17286
 C694 C 0.85996 0.38284 0.21507
 H695 H 0.78748 0.32588 0.44940
 H696 H 0.80870 0.26727 0.33132
 H697 H 0.93354 0.38795 0.22094
 H698 H 0.87965 0.42078 0.13966
 H699 H 0.84682 0.30617 0.24993
 H700 H 0.89335 0.34880 0.29374
 H701 H 0.82558 0.36490 0.36790
 H702 H 0.83948 0.38155 0.21295
   
