data_POSCAR
  _audit_creation_date              2014-09-24
  _audit_creation_method            'ToBaCCo'
  _symmetry_space_group_name_H-M    'P1'
  _symmetry_Int_Tables_number       1
  _symmetry_cell_setting            triclinic
  loop_
  _symmetry_equiv_pos_as_xyz
 x,y,z
_cell_length_a 43.0978
_cell_length_b 43.0839
_cell_length_c 43.1230
_cell_angle_alpha 90.043700
_cell_angle_beta 90.024000
_cell_angle_gamma 90.027200
loop_
  _atom_site_label
  _atom_site_type_symbol
  _atom_site_fract_x
  _atom_site_fract_y
  _atom_site_fract_z
C1 C 0.18861 0.14797 0.19153
 C2 C 0.17414 0.13442 0.21743
 C3 C 0.14665 0.14713 0.23021
 C4 C 0.13340 0.17304 0.21503
 C5 C 0.14798 0.18710 0.18964
 C6 C 0.17580 0.17471 0.17797
 C7 C 0.21609 0.13537 0.17942
 C8 C 0.23166 0.14936 0.15409
 C9 C 0.21863 0.17671 0.14135
 C10 C 0.19095 0.18927 0.15296
 C11 C 0.17855 0.21667 0.14035
 C12 C 0.15077 0.22932 0.15198
 C13 C 0.13534 0.21385 0.17620
 H14 H 0.18570 0.11507 0.22843
 H15 H 0.11135 0.18243 0.22248
 H16 H 0.22441 0.11388 0.18933
 H17 H 0.23042 0.18929 0.12314
 H18 H 0.19093 0.22847 0.12194
 H19 H 0.11357 0.22288 0.18496
 C20 C -0.18895 0.85330 0.18501
 C21 C -0.17739 0.86563 0.21285
 C22 C -0.15231 0.85151 0.22875
 C23 C -0.13924 0.82436 0.21565
 C24 C -0.15029 0.81207 0.18761
 C25 C -0.17507 0.82673 0.17216
 C26 C -0.21468 0.86688 0.17025
 C27 C -0.22698 0.85436 0.14245
 C28 C -0.21144 0.82866 0.12916
 C29 C -0.18622 0.81457 0.14402
 C30 C -0.17250 0.78794 0.13138
 C31 C -0.14854 0.77236 0.14714
 C32 C -0.13741 0.78480 0.17521
 H33 H -0.18754 0.88698 0.22125
 H34 H -0.12122 0.81168 0.22764
 H35 H -0.22597 0.88605 0.18183
 H36 H -0.21853 0.81943 0.10692
 H37 H -0.18088 0.77905 0.10940
 H38 H -0.11924 0.77289 0.18784
 C39 C -0.18803 0.14932 -0.18690
 C40 C -0.17559 0.13660 -0.21420
 C41 C -0.14703 0.14717 -0.22601
 C42 C -0.13078 0.17042 -0.20978
 C43 C -0.14330 0.18390 -0.18298
 C44 C -0.17205 0.17334 -0.17152
 C45 C -0.21656 0.13883 -0.17522
 C46 C -0.22968 0.15181 -0.14803
 C47 C -0.21333 0.17622 -0.13328
 C48 C -0.18499 0.18712 -0.14493
 C49 C -0.16963 0.21196 -0.13050
 C50 C -0.14114 0.22305 -0.14202
 C51 C -0.12782 0.20828 -0.16792
 H52 H -0.18858 0.11901 -0.22663
 H53 H -0.10846 0.17836 -0.21820
 H54 H -0.22889 0.12131 -0.18832
 H55 H -0.22172 0.18624 -0.11187
 H56 H -0.18048 0.22330 -0.11087
 H57 H -0.10556 0.21598 -0.17669
 C58 C 0.18871 0.85007 -0.19120
 C59 C 0.17658 0.86068 -0.21946
 C60 C 0.15017 0.84664 -0.23309
 C61 C 0.13688 0.82082 -0.21769
 C62 C 0.14910 0.80972 -0.18965
 C63 C 0.17474 0.82474 -0.17608
 C64 C 0.21503 0.86415 -0.17814
 C65 C 0.22718 0.85380 -0.14965
 C66 C 0.21237 0.82908 -0.13427
 C67 C 0.18665 0.81418 -0.14753
 C68 C 0.17309 0.78845 -0.13297
 C69 C 0.14832 0.77237 -0.14698
 C70 C 0.13620 0.78354 -0.17517
 H71 H 0.18874 0.87926 -0.23113
 H72 H 0.11614 0.80979 -0.22652
 H73 H 0.22640 0.88282 -0.19055
 H74 H 0.22096 0.82120 -0.11201
 H75 H 0.18219 0.78070 -0.11087
 H76 H 0.11738 0.77129 -0.18648
 C77 C 0.14200 1.18386 0.81594
 C78 C 0.12771 1.17009 0.79013
 C79 C 0.14143 1.14469 0.77439
 C80 C 0.16923 1.13231 0.78679
 C81 C 0.18344 1.14554 0.81297
 C82 C 0.17004 1.17171 0.82724
 C83 C 0.12865 1.20987 0.83035
 C84 C 0.14336 1.22487 0.85562
 C85 C 0.17171 1.21228 0.86642
 C86 C 0.18487 1.18591 0.85265
 C87 C 0.21306 1.17393 0.86361
 C88 C 0.22643 1.14745 0.84998
 C89 C 0.21130 1.13337 0.82464
 H90 H 0.10550 1.17920 0.78283
 H91 H 0.18121 1.11349 0.77532
 H92 H 0.10631 1.21770 0.82203
 H93 H 0.18464 1.22358 0.88473
 H94 H 0.22480 1.18559 0.88255
 H95 H 0.22108 1.11277 0.81405
 C96 C 0.85237 0.81016 0.81308
 C97 C 0.86518 0.82267 0.78581
 C98 C 0.85218 0.84924 0.77148
 C99 C 0.82533 0.86233 0.78509
 C100 C 0.81265 0.85036 0.81247
 C101 C 0.82633 0.82437 0.82667
 C102 C 0.86516 0.78346 0.82675
 C103 C 0.85254 0.77060 0.85425
 C104 C 0.82716 0.78623 0.86811
 C105 C 0.81382 0.81250 0.85437
 C106 C 0.78792 0.82695 0.86789
 C107 C 0.77362 0.85256 0.85350
 C108 C 0.78620 0.86396 0.82565
 H109 H 0.88612 0.81218 0.77683
 H110 H 0.81330 0.88138 0.77405
 H111 H 0.88397 0.77209 0.81468
 H112 H 0.81782 0.77859 0.89009
 H113 H 0.77889 0.81815 0.88962
 H114 H 0.77518 0.88325 0.81389
 C115 C 0.15007 0.81254 1.18857
 C116 C 0.13731 0.82577 1.21547
 C117 C 0.14808 0.85450 1.22676
 C118 C 0.17175 0.87005 1.21045
 C119 C 0.18530 0.85672 1.18406
 C120 C 0.17442 0.82787 1.17309
 C121 C 0.13925 0.78389 1.17738
 C122 C 0.15228 0.77001 1.15060
 C123 C 0.17695 0.78575 1.13571
 C124 C 0.18816 0.81418 1.14687
 C125 C 0.21325 0.82889 1.13228
 C126 C 0.22469 0.85746 1.14329
 C127 C 0.21003 0.87151 1.16888
 H128 H 0.11947 0.81325 1.22798
 H129 H 0.17990 0.89247 1.21844
 H130 H 0.12144 0.77210 1.19053
 H131 H 0.18697 0.77680 1.11452
 H132 H 0.22451 0.81749 1.11292
 H133 H 0.21805 0.89383 1.17726
 C134 C 0.85286 1.18608 1.18779
 C135 C 0.86590 1.17194 1.21403
 C136 C 0.85147 1.14623 1.22852
 C137 C 0.82373 1.13475 1.21514
 C138 C 0.81091 1.14826 1.18847
 C139 C 0.82535 1.17416 1.17486
 C140 C 0.86687 1.21225 1.17449
 C141 C 0.85322 1.22745 1.14901
 C142 C 0.82600 1.21496 1.13588
 C143 C 0.81216 1.18827 1.14845
 C144 C 0.78515 1.17567 1.13524
 C145 C 0.77070 1.14949 1.14848
 C146 C 0.78357 1.13637 1.17546
 H147 H 0.88786 1.18079 1.22238
 H148 H 0.81101 1.11601 1.22594
 H149 H 0.88831 1.22099 1.18429
 H150 H 0.81499 1.22645 1.11644
 H151 H 0.77572 1.18600 1.11437
 H152 H 0.77221 1.11687 1.18654
 N153 N 0.46753 0.94722 0.96269
 N154 N 0.44312 0.92909 0.95897
 N155 N 0.53323 0.96984 0.94274
 N156 N 0.55815 0.96772 0.92506
 N157 N 0.53269 0.94730 0.96320
 N158 N 0.55706 0.92908 0.95982
 N159 N 0.46765 0.96947 0.94192
 N160 N 0.44310 0.96731 0.92374
 C161 C 0.42813 0.94187 0.93451
 C162 C 0.57269 0.94204 0.93588
 N163 N 0.53161 1.05791 0.96650
 N164 N 0.55539 1.07704 0.96384
 N165 N 0.46737 1.03603 0.94371
 N166 N 0.44381 1.03962 0.92455
 N167 N 0.46618 1.05656 0.96619
 N168 N 0.44153 1.07452 0.96307
 N169 N 0.53251 1.03662 0.94472
 N170 N 0.55696 1.04059 0.92675
 Mn171 Mn 0.50027 1.00298 0.94289
 C172 C 0.57096 1.06597 0.93889
 C173 C 0.42790 1.06371 0.93686
 N174 N 0.53241 0.94539 1.02979
 N175 N 0.55690 0.92717 1.03204
 N176 N 0.46744 0.96600 1.05202
 N177 N 0.44281 0.96283 1.06992
 N178 N 0.46700 0.94547 1.02950
 N179 N 0.44193 0.92794 1.03135
 N180 N 0.53283 0.96662 1.05163
 N181 N 0.55771 0.96351 1.06924
 Mn182 Mn 0.49984 0.94595 0.99631
 C183 C 0.57243 0.93867 1.05681
 C184 C 0.42719 0.93890 1.05684
 N185 N 0.46604 1.05462 1.03300
 N186 N 0.44168 1.07273 1.03716
 N187 N 0.53216 1.03336 1.05365
 N188 N 0.55690 1.03579 1.07152
 N189 N 0.53140 1.05596 1.03325
 N190 N 0.55553 1.07454 1.03688
 N191 N 0.46687 1.03272 1.05414
 N192 N 0.44322 1.03543 1.07335
 Mn193 Mn 0.49873 1.05669 0.99975
 Mn194 Mn 0.49989 0.99965 1.05326
 Cl195 Cl 0.49968 1.00134 0.99805
 C196 C 0.42770 1.06049 1.06249
 C197 C 0.57116 1.06169 1.06092
 N198 N -0.03170 0.46668 -0.05313
 N199 N -0.03404 0.44168 -0.07072
 N200 N -0.05369 0.53155 -0.03169
 N201 N -0.07248 0.55551 -0.03474
 N202 N -0.03200 0.53217 -0.05304
 N203 N -0.03538 0.55669 -0.07111
 N204 N -0.05271 0.46619 -0.03110
 N205 N -0.06972 0.44079 -0.03295
 C206 C -0.05797 0.42583 -0.05792
 C207 C -0.06086 0.57097 -0.05947
 N208 N -0.03153 0.53324 0.05606
 N209 N -0.03490 0.55793 0.07390
 N210 N -0.05249 0.46683 0.03556
 N211 N -0.07022 0.44206 0.03880
 N212 N -0.03132 0.46788 0.05743
 N213 N -0.03423 0.44396 0.07631
 N214 N -0.05347 0.53215 0.03496
 N215 N -0.07250 0.55592 0.03801
 Mn216 Mn -0.05347 0.49912 0.00192
 C217 C -0.06066 0.57178 0.06241
 C218 C -0.05864 0.42809 0.06443
 N219 N 0.03488 0.53245 -0.05316
 N220 N 0.03788 0.55710 -0.07112
 N221 N 0.05627 0.46665 -0.03144
 N222 N 0.07373 0.44161 -0.03367
 N223 N 0.03504 0.46692 -0.05329
 N224 N 0.03760 0.44207 -0.07104
 N225 N 0.05680 0.53192 -0.03201
 N226 N 0.07543 0.55599 -0.03515
 Mn227 Mn 0.00156 0.49963 -0.05360
 C228 C 0.06341 0.57146 -0.05968
 C229 C 0.06195 0.42657 -0.05861
 N230 N 0.03541 0.46814 0.05723
 N231 N 0.03882 0.44451 0.07636
 N232 N 0.05701 0.53259 0.03466
 N233 N 0.07619 0.55623 0.03798
 N234 N 0.03525 0.53342 0.05593
 N235 N 0.03894 0.55772 0.07422
 N236 N 0.05648 0.46724 0.03527
 N237 N 0.07465 0.44282 0.03872
 Mn238 Mn 0.00194 0.50075 0.05706
 Mn239 Mn 0.05703 0.49954 0.00160
 Cl240 Cl 0.00177 0.49977 0.00174
 C241 C 0.06341 0.42894 0.06455
 C242 C 0.06465 0.57171 0.06276
 N243 N 0.94214 -0.03482 0.46759
 N244 N 0.92312 -0.03782 0.44381
 N245 N 0.96420 -0.05736 0.53199
 N246 N 0.96148 -0.07578 0.55632
 N247 N 0.94300 -0.03548 0.53276
 N248 N 0.92544 -0.03832 0.55761
 N249 N 0.96398 -0.05602 0.46657
 N250 N 0.96050 -0.07393 0.44195
 C251 C 0.93481 -0.06234 0.42803
 C252 C 0.93708 -0.06366 0.57202
 N253 N 1.05209 -0.03517 0.53262
 N254 N 1.07054 -0.03895 0.55677
 N255 N 1.03085 -0.05568 0.46633
 N256 N 1.03417 -0.07328 0.44145
 N257 N 1.05263 -0.03438 0.46740
 N258 N 1.07145 -0.03703 0.44345
 N259 N 1.03100 -0.05715 0.53165
 N260 N 1.03461 -0.07655 0.55503
 Mn261 Mn 0.99751 -0.05698 0.49906
 C262 C 1.05938 -0.06493 0.57049
 C263 C 1.05972 -0.06141 0.42748
 N264 N 0.94277 0.03132 0.53363
 N265 N 0.92467 0.03448 0.55817
 N266 N 0.96360 0.05338 0.46793
 N267 N 0.96043 0.07145 0.44342
 N268 N 0.94214 0.03175 0.46814
 N269 N 0.92398 0.03433 0.44365
 N270 N 0.96389 0.05326 0.53304
 N271 N 0.96063 0.07207 0.55694
 Mn272 Mn 0.94212 -0.00181 0.50060
 C273 C 0.93607 0.06013 0.57240
 C274 C 0.93552 0.05933 0.42854
 N275 N 1.05222 0.03228 0.46791
 N276 N 1.07042 0.03551 0.44347
 N277 N 1.03046 0.05347 0.53306
 N278 N 1.03316 0.07177 0.55742
 N279 N 1.05181 0.03175 0.53352
 N280 N 1.06952 0.03463 0.55839
 N281 N 1.03054 0.05368 0.46797
 N282 N 1.03359 0.07222 0.44385
 Mn283 Mn 1.05261 -0.00137 0.50044
 Mn284 Mn 0.99713 0.05381 0.50043
 Cl285 Cl 0.99735 -0.00161 0.50014
 C286 C 1.05859 0.06066 0.42878
 C287 C 1.05767 0.05986 0.57299
 C288 C 1.10699 0.11223 0.31430
 C289 C 1.12632 0.09308 0.29603
 C290 C 1.13881 0.10431 0.26805
 C291 C 1.13321 0.13506 0.25797
 C292 C 1.11442 0.15397 0.27705
 C293 C 1.10151 0.14281 0.30446
 C294 C 1.09377 0.09935 0.34376
 C295 C 1.07262 0.11593 0.36239
 C296 C 1.06127 0.10315 0.38982
 C297 C 1.07081 0.07366 0.39957
 C298 C 1.09149 0.05667 0.38103
 C299 C 1.10265 0.06912 0.35303
 C300 C 1.13345 0.06294 0.30601
 C301 C 1.12226 0.05140 0.33410
 H302 H 1.14836 0.04820 0.29214
 H303 H 1.12884 0.02812 0.34097
 H304 H 1.15223 0.08845 0.25399
 H305 H 1.11058 0.17822 0.27196
 H306 H 1.04509 0.11657 0.40359
 H307 H 1.09851 0.03359 0.38815
 H308 H 1.08792 0.15888 0.31797
 H309 H 1.06429 0.13867 0.35613
 C310 C 0.88202 -0.11038 0.31382
 C311 C 0.90112 -0.12955 0.29535
 C312 C 0.88988 -0.14172 0.26726
 C313 C 0.85920 -0.13591 0.25714
 C314 C 0.84025 -0.11733 0.27635
 C315 C 0.85142 -0.10477 0.30401
 C316 C 0.89509 -0.09731 0.34331
 C317 C 0.87863 -0.07634 0.36224
 C318 C 0.89171 -0.06500 0.38959
 C319 C 0.92139 -0.07441 0.39892
 C320 C 0.93821 -0.09495 0.38011
 C321 C 0.92547 -0.10610 0.35224
 C322 C 0.93132 -0.13671 0.30509
 C323 C 0.94306 -0.12560 0.33312
 H324 H 0.94600 -0.15150 0.29102
 H325 H 0.96640 -0.13216 0.33979
 H326 H 0.90580 -0.15485 0.25299
 H327 H 0.81609 -0.11326 0.27103
 H328 H 0.87841 -0.04893 0.40361
 H329 H 0.96141 -0.10190 0.38691
 H330 H 0.83542 -0.09121 0.31764
 H331 H 0.85576 -0.06815 0.35628
 C332 C 0.88904 0.11250 0.68704
 C333 C 0.87278 0.09241 0.70727
 C334 C 0.86149 0.10360 0.73576
 C335 C 0.86533 0.13492 0.74413
 C336 C 0.88054 0.15491 0.72341
 C337 C 0.89234 0.14392 0.69540
 C338 C 0.90153 0.09955 0.65730
 C339 C 0.92029 0.11699 0.63702
 C340 C 0.93138 0.10397 0.60959
 C341 C 0.92384 0.07341 0.60146
 C342 C 0.90542 0.05565 0.62155
 C343 C 0.89471 0.06831 0.64964
 C344 C 0.86752 0.06145 0.69874
 C345 C 0.87781 0.04980 0.67033
 H346 H 0.85488 0.04607 0.71410
 H347 H 0.87283 0.02579 0.66467
 H348 H 0.84983 0.08780 0.75145
 H349 H 0.88296 0.17938 0.72859
 H350 H 0.94580 0.11802 0.59455
 H351 H 0.90005 0.03176 0.61567
 H352 H 0.90350 0.16058 0.68045
 H353 H 0.92705 0.14056 0.64202
 C354 C 1.11072 -0.11885 0.68259
 C355 C 1.12929 -0.09944 0.70139
 C356 C 1.14199 -0.11080 0.72916
 C357 C 1.13736 -0.14189 0.73863
 C358 C 1.11952 -0.16116 0.71901
 C359 C 1.10641 -0.14989 0.69166
 C360 C 1.09686 -0.10557 0.65359
 C361 C 1.07619 -0.12230 0.63452
 C362 C 1.06399 -0.10894 0.60770
 C363 C 1.07225 -0.07872 0.59903
 C364 C 1.09250 -0.06167 0.61798
 C365 C 1.10445 -0.07468 0.64535
 C366 C 1.13527 -0.06877 0.69233
 C367 C 1.12351 -0.05681 0.66469
 H368 H 1.14962 -0.05386 0.70664
 H369 H 1.12914 -0.03309 0.65854
 H370 H 1.15453 -0.09465 0.74374
 H371 H 1.11640 -0.18558 0.72380
 H372 H 1.04818 -0.12244 0.59354
 H373 H 1.09855 -0.03806 0.61170
 H374 H 1.09344 -0.16610 0.67769
 H375 H 1.06888 -0.14560 0.64001
 C376 C 0.31533 1.10995 1.11781
 C377 C 0.29681 1.12956 1.09922
 C378 C 0.26919 1.14219 1.11111
 C379 C 0.25963 1.13642 1.14195
 C380 C 0.27893 1.11743 1.16039
 C381 C 0.30611 1.10442 1.14858
 C382 C 0.34428 1.09640 1.10405
 C383 C 0.36313 1.07493 1.11995
 C384 C 0.39002 1.06322 1.10625
 C385 C 0.39896 1.07274 1.07651
 C386 C 0.38017 1.09372 1.06024
 C387 C 0.35275 1.10524 1.07358
 C388 C 0.30604 1.13670 1.06888
 C389 C 0.33362 1.12518 1.05650
 H390 H 0.29193 1.15183 1.05458
 H391 H 0.33991 1.13175 1.03308
 H392 H 0.25483 1.15565 1.09555
 H393 H 0.27408 1.11336 1.18463
 H394 H 0.40403 1.04682 1.11915
 H395 H 0.38664 1.10076 1.03698
 H396 H 0.31985 1.09056 1.16422
 H397 H 0.35746 1.06668 1.14285
 C398 C 0.31125 0.89513 0.88662
 C399 C 0.30482 0.86332 0.89158
 C400 C 0.27759 0.85005 0.87959
 C401 C 0.25577 0.86819 0.86353
 C402 C 0.26165 0.90005 0.85986
 C403 C 0.28901 0.91334 0.87106
 C404 C 0.34132 0.90803 0.89852
 C405 C 0.35136 0.93853 0.89218
 C406 C 0.37970 0.94934 0.90365
 C407 C 0.39849 0.93020 0.92199
 C408 C 0.38885 0.89978 0.92830
 C409 C 0.36081 0.88840 0.91623
 C410 C 0.32546 0.84495 0.90868
 C411 C 0.35255 0.85737 0.92124
 H412 H 0.32040 0.82065 0.91274
 H413 H 0.36757 0.84227 0.93460
 H414 H 0.27369 0.82537 0.88248
 H415 H 0.24494 0.91492 0.84845
 H416 H 0.38677 0.97289 0.89840
 H417 H 0.40352 0.88471 0.94210
 H418 H 0.29213 0.93793 0.86760
 H419 H 0.33791 0.95425 0.87812
 C420 C 0.68866 0.88870 1.10279
 C421 C 0.70676 0.90792 1.12226
 C422 C 0.73489 0.89691 1.13464
 C423 C 0.74529 0.86631 1.12881
 C424 C 0.72651 0.84738 1.10972
 C425 C 0.69894 0.85834 1.09690
 C426 C 0.65886 0.90124 1.08997
 C427 C 0.64018 0.88452 1.06894
 C428 C 0.61231 0.89690 1.05816
 C429 C 0.60218 0.92611 1.06817
 C430 C 0.62081 0.94328 1.08864
 C431 C 0.64921 0.93125 1.09925
 C432 C 0.69643 0.93788 1.12969
 C433 C 0.66809 0.94912 1.11879
 H434 H 0.71021 0.95269 1.14465
 H435 H 0.66094 0.97225 1.12563
 H436 H 0.74878 0.91281 1.14822
 H437 H 0.73191 0.82324 1.10560
 H438 H 0.59847 0.88337 1.04210
 H439 H 0.61340 0.96617 1.09603
 H440 H 0.68564 0.84224 1.08310
 H441 H 0.64669 0.86195 1.06033
 C442 C 0.68487 1.11844 0.88991
 C443 C 0.70296 1.09926 0.87043
 C444 C 0.73105 1.11027 0.85808
 C445 C 0.74162 1.14074 0.86416
 C446 C 0.72270 1.15985 0.88289
 C447 C 0.69500 1.14894 0.89555
 C448 C 0.65546 1.10553 0.90330
 C449 C 0.63691 1.12201 0.92463
 C450 C 0.60963 1.10901 0.93628
 C451 C 0.60002 1.07943 0.92681
 C452 C 0.61847 1.06262 0.90594
 C453 C 0.64623 1.07523 0.89449
 C454 C 0.69288 1.06916 0.86323
 C455 C 0.66494 1.05757 0.87466
 H456 H 0.70665 1.05443 0.84821
 H457 H 0.65803 1.03426 0.86813
 H458 H 0.74503 1.09428 0.84472
 H459 H 0.72836 1.18393 0.88708
 H460 H 0.59587 1.12230 0.95258
 H461 H 0.61145 1.03948 0.89893
 H462 H 0.68163 1.16501 0.90928
 H463 H 0.64314 1.14483 0.93282
 C464 C 0.11326 0.31566 0.11726
 C465 C 0.12875 0.29506 0.09693
 C466 C 0.14066 0.26683 0.10816
 C467 C 0.13826 0.25914 0.13976
 C468 C 0.12406 0.28039 0.15998
 C469 C 0.11161 0.30811 0.14896
 C470 C 0.09985 0.34497 0.10425
 C471 C 0.08141 0.36538 0.12194
 C472 C 0.06952 0.39246 0.10885
 C473 C 0.07597 0.40009 0.07796
 C474 C 0.09392 0.37978 0.05993
 C475 C 0.10535 0.35203 0.07267
 C476 C 0.13260 0.30294 0.06564
 C477 C 0.12166 0.33108 0.05390
 H478 H 0.14467 0.28733 0.05006
 H479 H 0.12561 0.33628 0.02963
 H480 H 0.15158 0.25078 0.09219
 H481 H 0.12285 0.27581 0.18463
 H482 H 0.05545 0.40767 0.12307
 H483 H 0.09840 0.38524 0.03580
 H484 H 0.10124 0.32348 0.16576
 H485 H 0.07555 0.36071 0.14579
 C486 C -0.10213 0.30640 -0.10181
 C487 C -0.09809 0.29989 -0.13370
 C488 C -0.11053 0.27264 -0.14655
 C489 C -0.12622 0.25094 -0.12791
 C490 C -0.12849 0.25668 -0.09591
 C491 C -0.11679 0.28403 -0.08303
 C492 C -0.09058 0.33684 -0.08950
 C493 C -0.09670 0.34715 -0.05908
 C494 C -0.08619 0.37610 -0.04901
 C495 C -0.06894 0.39528 -0.06880
 C496 C -0.06259 0.38526 -0.09906
 C497 C -0.07386 0.35660 -0.10975
 C498 C -0.08172 0.32063 -0.15263
 C499 C -0.06932 0.34806 -0.14076
 H500 H -0.07826 0.31547 -0.17699
 H501 H -0.05667 0.36323 -0.15631
 H502 H -0.10861 0.26882 -0.17130
 H503 H -0.13945 0.24000 -0.08068
 H504 H -0.09143 0.38343 -0.02557
 H505 H -0.04965 0.40022 -0.11460
 H506 H -0.11933 0.28713 -0.05834
 H507 H -0.11004 0.33350 -0.04291
 C508 C 0.11432 0.68654 -0.10745
 C509 C 0.09378 0.70674 -0.12317
 C510 C 0.10469 0.73504 -0.13521
 C511 C 0.13623 0.74315 -0.13291
 C512 C 0.15660 0.72252 -0.11805
 C513 C 0.14586 0.69477 -0.10535
 C514 C 0.10172 0.65684 -0.09446
 C515 C 0.11966 0.63653 -0.07618
 C516 C 0.10700 0.60898 -0.06489
 C517 C 0.07632 0.60075 -0.07178
 C518 C 0.05804 0.62094 -0.08958
 C519 C 0.07034 0.64914 -0.10045
 C520 C 0.06265 0.69828 -0.12737
 C521 C 0.05134 0.66986 -0.11674
 H522 H 0.04691 0.71361 -0.13958
 H523 H 0.02723 0.66418 -0.12104
 H524 H 0.08854 0.75066 -0.14647
 H525 H 0.18120 0.72743 -0.11677
 H526 H 0.12142 0.59388 -0.05091
 H527 H 0.03406 0.61502 -0.09441
 H528 H 0.16280 0.67983 -0.09462
 H529 H 0.14337 0.64161 -0.07001
 C530 C -0.11352 0.68580 0.11042
 C531 C -0.09335 0.70638 0.12620
 C532 C -0.10466 0.73472 0.13776
 C533 C -0.13619 0.74254 0.13474
 C534 C -0.15626 0.72137 0.12018
 C535 C -0.14515 0.69354 0.10806
 C536 C -0.10043 0.65631 0.09747
 C537 C -0.11793 0.63586 0.07888
 C538 C -0.10480 0.60859 0.06747
 C539 C -0.07406 0.60082 0.07454
 C540 C -0.05621 0.62116 0.09266
 C541 C -0.06899 0.64909 0.10365
 C542 C -0.06217 0.69832 0.13072
 C543 C -0.05040 0.67004 0.12019
 H544 H -0.04672 0.71392 0.14301
 H545 H -0.02623 0.66471 0.12465
 H546 H -0.08882 0.75072 0.14897
 H547 H -0.18088 0.72608 0.11849
 H548 H -0.11889 0.59336 0.05325
 H549 H -0.03219 0.61557 0.09764
 H550 H -0.16185 0.67822 0.09742
 H551 H -0.14165 0.64063 0.07252
 C552 C 1.10308 0.11034 0.68937
 C553 C 1.12248 0.09124 0.70760
 C554 C 1.13443 0.10227 0.73592
 C555 C 1.12819 0.13276 0.74644
 C556 C 1.10907 0.15155 0.72760
 C557 C 1.09672 0.14058 0.69980
 C558 C 1.09069 0.09774 0.65938
 C559 C 1.06987 0.11439 0.64047
 C560 C 1.05928 0.10188 0.61258
 C561 C 1.06925 0.07257 0.60264
 C562 C 1.08966 0.05553 0.62141
 C563 C 1.10012 0.06773 0.64983
 C564 C 1.13023 0.06136 0.69727
 C565 C 1.11962 0.05002 0.66885
 H566 H 1.14516 0.04665 0.71115
 H567 H 1.12666 0.02695 0.66173
 H568 H 1.14798 0.08643 0.74988
 H569 H 1.10457 0.17558 0.73317
 H570 H 1.04332 0.11537 0.59863
 H571 H 1.09706 0.03260 0.61412
 H572 H 1.08284 0.15656 0.68648
 H573 H 1.06125 0.13700 0.64680
 C574 C 0.88972 -0.11048 0.68893
 C575 C 0.89622 -0.14173 0.69643
 C576 C 0.88394 -0.15498 0.72361
 C577 C 0.86545 -0.13741 0.74426
 C578 C 0.86058 -0.10581 0.73702
 C579 C 0.87232 -0.09268 0.70995
 C580 C 0.90189 -0.09763 0.65902
 C581 C 0.89436 -0.06766 0.64829
 C582 C 0.90583 -0.05689 0.62006
 C583 C 0.92531 -0.07551 0.60188
 C584 C 0.93302 -0.10538 0.61226
 C585 C 0.92103 -0.11674 0.64037
 C586 C 0.91495 -0.15961 0.67673
 C587 C 0.92747 -0.14724 0.64958
 H588 H 0.92021 -0.18351 0.68251
 H589 H 0.94198 -0.16198 0.63527
 H590 H 0.88796 -0.17942 0.72761
 H591 H 0.84854 -0.09039 0.75271
 H592 H 0.89952 -0.03377 0.61251
 H593 H 0.94777 -0.12005 0.59811
 H594 H 0.86784 -0.06835 0.70622
 H595 H 0.87930 -0.05230 0.66106
 C596 C 1.11257 -0.10759 0.31267
 C597 C 1.09275 -0.12437 0.29256
 C598 C 1.10417 -0.13604 0.26433
 C599 C 1.13554 -0.13225 0.25615
 C600 C 1.15526 -0.11640 0.27671
 C601 C 1.14399 -0.10410 0.30442
 C602 C 1.09941 -0.09497 0.34226
 C603 C 1.11653 -0.07577 0.36246
 C604 C 1.10341 -0.06488 0.38994
 C605 C 1.07306 -0.07305 0.39819
 C606 C 1.05555 -0.09173 0.37807
 C607 C 1.06831 -0.10226 0.34996
 C608 C 1.06184 -0.12990 0.30103
 C609 C 1.05005 -0.11955 0.32934
 H610 H 1.04666 -0.14291 0.28576
 H611 H 1.02614 -0.12487 0.33502
 H612 H 1.08853 -0.14809 0.24875
 H613 H 1.17975 -0.11394 0.27171
 H614 H 1.11724 -0.05019 0.40496
 H615 H 1.03180 -0.09757 0.38400
 H616 H 1.16044 -0.09252 0.31930
 H617 H 1.13994 -0.06859 0.35737
 C618 C 0.88749 0.10572 0.31168
 C619 C 0.89556 0.13637 0.30334
 C620 C 0.88369 0.14960 0.27604
 C621 C 0.86412 0.13258 0.25589
 C622 C 0.85738 0.10155 0.26403
 C623 C 0.86871 0.08844 0.29135
 C624 C 0.89954 0.09295 0.34171
 C625 C 0.89082 0.06362 0.35327
 C626 C 0.90244 0.05292 0.38151
 C627 C 0.92321 0.07100 0.39882
 C628 C 0.93200 0.10026 0.38764
 C629 C 0.91997 0.11153 0.35954
 C630 C 0.91549 0.15376 0.32231
 C631 C 0.92780 0.14143 0.34954
 H632 H 0.92191 0.17721 0.31586
 H633 H 0.94330 0.15575 0.36325
 H634 H 0.88891 0.17373 0.27156
 H635 H 0.84415 0.08654 0.24890
 H636 H 0.89527 0.03027 0.38973
 H637 H 0.94779 0.11452 0.40109
 H638 H 0.86281 0.06454 0.29584
 H639 H 0.87480 0.04873 0.34111
 C640 C 0.10746 0.30810 -0.10381
 C641 C 0.09875 0.29936 -0.13418
 C642 C 0.11040 0.27189 -0.14734
 C643 C 0.13052 0.25211 -0.13062
 C644 C 0.13781 0.26059 -0.09982
 C645 C 0.12661 0.28800 -0.08673
 C646 C 0.09583 0.33840 -0.09122
 C647 C 0.10509 0.35031 -0.06219
 C648 C 0.09409 0.37894 -0.05178
 C649 C 0.07341 0.39632 -0.06986
 C650 C 0.06393 0.38470 -0.09873
 C651 C 0.07530 0.35619 -0.10970
 C652 C 0.07856 0.31816 -0.15138
 C653 C 0.06676 0.34574 -0.13925
 H654 H 0.07164 0.31139 -0.17459
 H655 H 0.05113 0.35936 -0.15346
 H656 H 0.10467 0.26708 -0.17129
 H657 H 0.15148 0.24569 -0.08500
 H658 H 0.10173 0.38743 -0.02939
 H659 H 0.04814 0.39815 -0.11296
 H660 H 0.13303 0.29280 -0.06303
 H661 H 0.12110 0.33814 -0.04732
 C662 C -0.10737 0.31347 0.11530
 C663 C -0.12207 0.29274 0.09449
 C664 C -0.13426 0.26449 0.10536
 C665 C -0.13314 0.25695 0.13707
 C666 C -0.11956 0.27825 0.15771
 C667 C -0.10669 0.30594 0.14705
 C668 C -0.09394 0.34298 0.10275
 C669 C -0.07625 0.36361 0.12099
 C670 C -0.06460 0.39104 0.10834
 C671 C -0.07061 0.39879 0.07739
 C672 C -0.08768 0.37820 0.05882
 C673 C -0.09881 0.35012 0.07108
 C674 C -0.12507 0.30062 0.06310
 C675 C -0.11424 0.32896 0.05178
 H676 H -0.13652 0.28490 0.04715
 H677 H -0.11762 0.33421 0.02743
 H678 H -0.14460 0.24840 0.08903
 H679 H -0.11931 0.27383 0.18241
 H680 H -0.05115 0.40646 0.12296
 H681 H -0.09179 0.38376 0.03465
 H682 H -0.09693 0.32140 0.16415
 H683 H -0.07083 0.35887 0.14493
 C684 C -0.11285 0.68577 -0.10715
 C685 C -0.09390 0.70393 -0.12677
 C686 C -0.10507 0.73209 -0.13894
 C687 C -0.13559 0.74251 -0.13275
 C688 C -0.15435 0.72356 -0.11369
 C689 C -0.14322 0.69594 -0.10107
 C690 C -0.09995 0.65614 -0.09421
 C691 C -0.11629 0.63753 -0.07287
 C692 C -0.10342 0.61003 -0.06169
 C693 C -0.07405 0.60020 -0.07157
 C694 C -0.05736 0.61868 -0.09252
 C695 C -0.06991 0.64671 -0.10356
 C696 C -0.06400 0.69369 -0.13447
 C697 C -0.05246 0.66550 -0.12351
 H698 H -0.04943 0.70746 -0.14964
 H699 H -0.02942 0.65841 -0.13059
 H700 H -0.08927 0.74605 -0.15252
 H701 H -0.17843 0.72896 -0.10933
 H702 H -0.11664 0.59629 -0.04533
 H703 H -0.03439 0.61151 -0.09987
 H704 H -0.15914 0.68255 -0.08718
 H705 H -0.13890 0.64386 -0.06427
 C706 C 0.11822 0.68448 0.11333
 C707 C 0.09908 0.70296 0.13248
 C708 C 0.11034 0.73104 0.14475
 C709 C 0.14099 0.74118 0.13886
 C710 C 0.16009 0.72171 0.12071
 C711 C 0.14895 0.69405 0.10815
 C712 C 0.10501 0.65529 0.09973
 C713 C 0.12143 0.63662 0.07849
 C714 C 0.10815 0.60964 0.06649
 C715 C 0.07831 0.60043 0.07547
 C716 C 0.06155 0.61899 0.09631
 C717 C 0.07449 0.64651 0.10812
 C718 C 0.06878 0.69331 0.13934
 C719 C 0.05692 0.66547 0.12780
 H720 H 0.05408 0.70734 0.15415
 H721 H 0.03348 0.65890 0.13408
 H722 H 0.09442 0.74537 0.15783
 H723 H 0.18431 0.72696 0.11685
 H724 H 0.12141 0.59580 0.05023
 H725 H 0.03822 0.61229 0.10295
 H726 H 0.16504 0.68028 0.09483
 H727 H 0.14440 0.64253 0.07057
 C728 C 0.31350 1.11105 0.88423
 C729 C 0.29205 1.12485 0.90486
 C730 C 0.26354 1.13602 0.89371
 C731 C 0.25636 1.13484 0.86190
 C732 C 0.27824 1.12207 0.84143
 C733 C 0.30630 1.11020 0.85237
 C734 C 0.34324 1.09852 0.89717
 C735 C 0.36467 1.08170 0.87911
 C736 C 0.39203 1.07046 0.89220
 C737 C 0.39896 1.07603 0.92345
 C738 C 0.37774 1.09249 0.94180
 C739 C 0.34969 1.10318 0.92905
 C740 C 0.29938 1.12789 0.93639
 C741 C 0.32782 1.11783 0.94811
 H742 H 0.28307 1.13869 0.95218
 H743 H 0.33255 1.12111 0.97258
 H744 H 0.24691 1.14558 0.90995
 H745 H 0.27396 1.12167 0.81669
 H746 H 0.40796 1.05752 0.87771
 H747 H 0.38269 1.09625 0.96617
 H748 H 0.32222 1.10100 0.83542
 H749 H 0.36057 1.07656 0.85498
 C750 C 0.30847 0.89451 1.10229
 C751 C 0.30219 0.89905 1.13418
 C752 C 0.27480 0.88726 1.14728
 C753 C 0.25276 0.87169 1.12891
 C754 C 0.25834 0.86882 1.09694
 C755 C 0.28581 0.87990 1.08380
 C756 C 0.33892 0.90565 1.08967
 C757 C 0.34890 0.89929 1.05917
 C758 C 0.37770 0.90983 1.04868
 C759 C 0.39705 0.92728 1.06816
 C760 C 0.38746 0.93362 1.09856
 C761 C 0.35894 0.92243 1.10962
 C762 C 0.32327 0.91533 1.15283
 C763 C 0.35074 0.92729 1.14067
 H764 H 0.31833 0.91913 1.17718
 H765 H 0.36614 0.93996 1.15601
 H766 H 0.27108 0.88962 1.17201
 H767 H 0.24142 0.85789 1.08191
 H768 H 0.38471 0.90459 1.02513
 H769 H 0.40254 0.94670 1.11389
 H770 H 0.28876 0.87694 1.05914
 H771 H 0.33504 0.88587 1.04322
 C772 C 0.68749 1.10884 1.10959
 C773 C 0.69274 1.14118 1.10728
 C774 C 0.71972 1.15436 1.12006
 C775 C 0.74232 1.13564 1.13430
 C776 C 0.73765 1.10337 1.13503
 C777 C 0.71063 1.09014 1.12306
 C778 C 0.65767 1.09588 1.09721
 C779 C 0.64876 1.06469 1.10148
 C780 C 0.62057 1.05381 1.08982
 C781 C 0.60078 1.07357 1.07328
 C782 C 0.60929 1.10468 1.06896
 C783 C 0.63720 1.11611 1.08139
 C784 C 0.67118 1.16010 1.09200
 C785 C 0.64432 1.14773 1.07878
 H786 H 0.67531 1.18482 1.08988
 H787 H 0.62856 1.16330 1.06690
 H788 H 0.72283 1.17930 1.11922
 H789 H 0.75507 1.08809 1.14471
 H790 H 0.61437 1.02973 1.09353
 H791 H 0.59379 1.12019 1.05664
 H792 H 0.70852 1.06523 1.12425
 H793 H 0.66294 1.04844 1.11416
 C794 C 0.68993 0.89446 0.88987
 C795 C 0.69555 0.86236 0.89390
 C796 C 0.72275 0.84888 0.88207
 C797 C 0.74526 0.86707 0.86703
 C798 C 0.74023 0.89920 0.86451
 C799 C 0.71295 0.91271 0.87557
 C800 C 0.65983 0.90762 0.90135
 C801 C 0.65055 0.93848 0.89564
 C802 C 0.62211 0.94950 0.90660
 C803 C 0.60246 0.93020 0.92384
 C804 C 0.61133 0.89943 0.92952
 C805 C 0.63947 0.88785 0.91789
 C806 C 0.67409 0.84391 0.90987
 C807 C 0.64695 0.85651 0.92213
 H808 H 0.67851 0.81938 0.91326
 H809 H 0.63126 0.84132 0.93459
 H810 H 0.72606 0.82404 0.88417
 H811 H 0.75752 0.91410 0.85403
 H812 H 0.61564 0.97333 0.90186
 H813 H 0.59598 0.88424 0.94242
 H814 H 0.71050 0.93748 0.87297
 H815 H 0.66469 0.95434 0.88242
   
