data_POSCAR
  _audit_creation_date              2014-09-24
  _audit_creation_method            'ToBaCCo'
  _symmetry_space_group_name_H-M    'P1'
  _symmetry_Int_Tables_number       1
  _symmetry_cell_setting            triclinic
  loop_
  _symmetry_equiv_pos_as_xyz
 x,y,z
_cell_length_a 28.9396
_cell_length_b 28.9584
_cell_length_c 28.8785
_cell_angle_alpha 90.106100
_cell_angle_beta 89.972800
_cell_angle_gamma 90.025400
loop_
  _atom_site_label
  _atom_site_type_symbol
  _atom_site_fract_x
  _atom_site_fract_y
  _atom_site_fract_z
C1 C 0.17142 0.17004 0.22932
 N2 N 0.20985 0.15118 0.20982
 C3 C 0.22943 0.17004 0.17139
 N4 N 0.20994 0.20835 0.15250
 C5 C 0.17155 0.22769 0.17143
 N6 N 0.15259 0.20833 0.20978
 C7 C -0.17139 0.83039 0.22853
 N8 N -0.15255 0.79203 0.20900
 C9 C -0.17146 0.77252 0.17064
 N10 N -0.20983 0.79180 0.15169
 C11 C -0.22933 0.83019 0.17059
 N12 N -0.20979 0.84917 0.20902
 C13 C -0.17157 0.16964 -0.22903
 N14 N -0.15264 0.20789 -0.20935
 C15 C -0.17152 0.22726 -0.17091
 N16 N -0.20994 0.20799 -0.15203
 C17 C -0.22954 0.16971 -0.17106
 N18 N -0.21004 0.15083 -0.20958
 C19 C 0.17134 0.82955 -0.22799
 N20 N 0.15249 0.79122 -0.20863
 C21 C 0.17150 0.77182 -0.17034
 N22 N 0.20990 0.79119 -0.15144
 C23 C 0.22936 0.82957 -0.17029
 N24 N 0.20975 0.84846 -0.20863
 C25 C 0.16979 1.17092 0.77100
 N26 N 0.15099 1.20934 0.79059
 C27 C 0.16988 1.22883 0.82908
 N28 N 0.20818 1.20927 0.84797
 C29 C 0.22748 1.17091 0.82898
 N30 N 0.20809 1.15202 0.79054
 C31 C 0.83014 0.82938 0.77031
 N32 N 0.84905 0.79103 0.78977
 C33 C 0.83015 0.77169 0.82824
 N34 N 0.79185 0.79109 0.84727
 C35 C 0.77247 0.82936 0.82838
 N36 N 0.79181 0.84822 0.78996
 C37 C 0.16985 0.82877 1.22882
 N38 N 0.20821 0.84759 1.20927
 C39 C 0.22769 0.82857 1.17095
 N40 N 0.20843 0.79012 1.15206
 C41 C 0.17005 0.77063 1.17097
 N42 N 0.15107 0.79028 1.20936
 C43 C 0.83009 1.17169 1.22921
 N44 N 0.84895 1.21010 1.20978
 C45 C 0.83007 1.22960 1.17135
 N46 N 0.79173 1.21006 1.15240
 C47 C 0.77238 1.17171 1.17125
 N48 N 0.79176 1.15282 1.20961
 N49 N 0.54884 0.91842 1.04976
 N50 N 0.58449 0.89051 1.05501
 N51 N 0.45151 0.95030 1.08206
 N52 N 0.41584 0.94499 1.11004
 N53 N 0.45158 0.91823 1.04988
 N54 N 0.41597 0.89023 1.05508
 N55 N 0.54882 0.95050 1.08193
 N56 N 0.58446 0.94528 1.10995
 C57 C 0.60640 0.90764 1.09277
 C58 C 0.39401 0.90729 1.09283
 N59 N 0.45128 1.08177 1.05007
 N60 N 0.41562 1.10967 1.05547
 N61 N 0.54864 1.04992 1.08201
 N62 N 0.58431 1.05527 1.10996
 N63 N 0.54857 1.08192 1.04988
 N64 N 0.58419 1.10992 1.05510
 N65 N 0.45135 1.04973 1.08217
 N66 N 0.41574 1.05497 1.11027
 Mn67 Mn 0.50008 1.00011 1.08263
 C68 C 0.39377 1.09258 1.09325
 C69 C 0.60616 1.09292 1.09280
 N70 N 0.45138 0.91816 0.95024
 N71 N 0.41575 0.89017 0.94500
 N72 N 0.54855 0.95035 0.91796
 N73 N 0.58419 0.94515 0.88992
 N74 N 0.54864 0.91835 0.95010
 N75 N 0.58433 0.89050 0.94479
 N76 N 0.45129 0.95020 0.91815
 N77 N 0.41560 0.94488 0.89020
 Mn78 Mn 0.50012 0.91771 0.99999
 C79 C 0.39376 0.90721 0.90732
 C80 C 0.60618 0.90759 0.90704
 N81 N 0.54852 1.08180 0.95017
 N82 N 0.58419 1.10973 0.94482
 N83 N 0.45119 1.04959 0.91822
 N84 N 0.41553 1.05480 0.89025
 N85 N 0.45122 1.08168 0.95038
 N86 N 0.41557 1.10959 0.94518
 N87 N 0.54846 1.04971 0.91801
 N88 N 0.58406 1.05493 0.88992
 Mn89 Mn 0.49990 1.08238 1.00013
 Mn90 Mn 0.49987 0.99996 0.91751
 Cl91 Cl 0.49999 1.00005 1.00007
 C92 C 0.60603 1.09259 0.90701
 C93 C 0.39363 1.09245 0.90745
 N94 N 0.04992 0.45123 0.08240
 N95 N 0.05518 0.41564 0.11041
 N96 N 0.08207 0.54836 0.05019
 N97 N 0.11002 0.58402 0.05547
 N98 N 0.04993 0.54846 0.08229
 N99 N 0.05515 0.58417 0.11027
 N100 N 0.08199 0.45115 0.05024
 N101 N 0.10993 0.41555 0.05549
 C102 C 0.09285 0.39373 0.09323
 C103 C 0.09285 0.60604 0.09318
 N104 N 0.05015 0.54793 -0.08165
 N105 N 0.05544 0.58355 -0.10960
 N106 N 0.08206 0.45075 -0.04944
 N107 N 0.10997 0.41508 -0.05478
 N108 N 0.04999 0.45073 -0.08157
 N109 N 0.05520 0.41508 -0.10962
 N110 N 0.08218 0.54798 -0.04948
 N111 N 0.11012 0.58362 -0.05466
 Mn112 Mn 0.08266 0.49956 0.00038
 C113 C 0.09308 0.60547 -0.09238
 C114 C 0.09282 0.39316 -0.09254
 N115 N -0.04956 0.54850 0.08222
 N116 N -0.05490 0.58426 0.11012
 N117 N -0.08162 0.45114 0.05024
 N118 N -0.10957 0.41551 0.05558
 N119 N -0.04956 0.45126 0.08238
 N120 N -0.05484 0.41573 0.11046
 N121 N -0.08157 0.54835 0.05003
 N122 N -0.10954 0.58397 0.05515
 Mn123 Mn 0.00018 0.49986 0.08292
 C124 C -0.09254 0.60605 0.09284
 C125 C -0.09249 0.39375 0.09337
 N126 N -0.04944 0.45078 -0.08159
 N127 N -0.05477 0.41508 -0.10956
 N128 N -0.08142 0.54811 -0.04963
 N129 N -0.10928 0.58378 -0.05500
 N130 N -0.04929 0.54797 -0.08173
 N131 N -0.05440 0.58351 -0.10980
 N132 N -0.08152 0.45090 -0.04944
 N133 N -0.10955 0.41532 -0.05466
 Mn134 Mn 0.00035 0.49935 -0.08221
 Mn135 Mn -0.08211 0.49962 0.00030
 Cl136 Cl 0.00027 0.49960 0.00035
 C137 C -0.09248 0.39330 -0.09238
 C138 C -0.09205 0.60553 -0.09276
 N139 N 0.91787 0.04996 0.54843
 N140 N 0.88980 0.05511 0.58409
 N141 N 0.95015 0.08220 0.45112
 N142 N 0.94497 0.11027 0.41555
 N143 N 0.91801 0.05019 0.45095
 N144 N 0.89010 0.05563 0.41524
 N145 N 0.94994 0.08203 0.54862
 N146 N 0.94455 0.10988 0.58445
 C147 C 0.90681 0.09270 0.60624
 C148 C 0.90730 0.09333 0.39348
 N149 N 1.08163 0.04999 0.45109
 N150 N 1.10971 0.05521 0.41547
 N151 N 1.04944 0.08201 0.54863
 N152 N 1.05469 0.10998 0.58438
 N153 N 1.08151 0.04997 0.54857
 N154 N 1.10946 0.05528 0.58430
 N155 N 1.04963 0.08211 0.45112
 N156 N 1.05509 0.11006 0.41548
 Mn157 Mn 0.99979 0.08268 0.49988
 C158 C 1.09279 0.09289 0.39357
 C159 C 1.09234 0.09293 0.60632
 N160 N 0.91788 -0.04922 0.45069
 N161 N 0.88986 -0.05442 0.41503
 N162 N 0.94991 -0.08146 0.54805
 N163 N 0.94471 -0.10947 0.58366
 N164 N 0.91782 -0.04944 0.54819
 N165 N 0.88990 -0.05481 0.58394
 N166 N 0.94989 -0.08132 0.45059
 N167 N 0.94451 -0.10924 0.41482
 Mn168 Mn 0.91731 0.00038 0.49956
 C169 C 0.90685 -0.09208 0.39296
 C170 C 0.90706 -0.09248 0.60574
 N171 N 1.08142 -0.04942 0.54819
 N172 N 1.10939 -0.05467 0.58386
 N173 N 1.04932 -0.08141 0.45067
 N174 N 1.05457 -0.10946 0.41500
 N175 N 1.08147 -0.04941 0.45071
 N176 N 1.10947 -0.05484 0.41502
 N177 N 1.04935 -0.08148 0.54813
 N178 N 1.05464 -0.10943 0.58380
 Mn179 Mn 1.08209 0.00028 0.49964
 Mn180 Mn 0.99962 -0.08199 0.49936
 Cl181 Cl 0.99970 0.00034 0.49961
 C182 C 1.09232 -0.09231 0.60575
 C183 C 1.09230 -0.09251 0.39307
 C184 C 1.11210 0.17038 0.28996
 C185 C 1.15169 0.15060 0.26942
 C186 C 1.17118 0.11115 0.29023
 C187 C 1.15193 0.09238 0.33041
 C188 C 1.11277 0.11250 0.35083
 C189 C 1.09295 0.15153 0.33014
 H190 H 1.09579 0.20063 0.27524
 H191 H 1.20150 0.09464 0.27572
 H192 H 1.16784 0.06214 0.34558
 H193 H 1.06264 0.16766 0.34508
 C194 C 0.82871 -0.11054 0.28949
 C195 C 0.84826 -0.15004 0.26866
 C196 C 0.88781 -0.16975 0.28921
 C197 C 0.90686 -0.15080 0.32943
 C198 C 0.88697 -0.11174 0.35015
 C199 C 0.84786 -0.09167 0.32972
 H200 H 0.79841 -0.09409 0.27496
 H201 H 0.90417 -0.20003 0.27447
 H202 H 0.93715 -0.16689 0.34438
 H203 H 0.83190 -0.06140 0.34492
 C204 C 0.82851 0.11082 0.70974
 C205 C 0.84809 0.15022 0.73076
 C206 C 0.88771 0.16998 0.71030
 C207 C 0.90680 0.15119 0.67001
 C208 C 0.88688 0.11223 0.64911
 C209 C 0.84770 0.09211 0.66944
 H210 H 0.79816 0.09434 0.72419
 H211 H 0.90411 0.20018 0.72518
 H212 H 0.93714 0.16731 0.65515
 H213 H 0.83171 0.06191 0.65411
 C214 C 1.17032 -0.11060 0.70923
 C215 C 1.15065 -0.14996 0.72981
 C216 C 1.11123 -0.16983 0.70936
 C217 C 1.09218 -0.15100 0.66915
 C218 C 1.11213 -0.11193 0.64852
 C219 C 1.15125 -0.09179 0.66902
 H220 H 1.20062 -0.09433 0.72404
 H221 H 1.09510 -0.20010 0.72428
 H222 H 1.06191 -0.16714 0.65415
 H223 H 1.16725 -0.06155 0.65391
 C224 C 0.29029 1.11109 1.17141
 C225 C 0.26957 1.15054 1.15178
 C226 C 0.29023 1.17022 1.11220
 C227 C 0.33041 1.15128 1.09318
 C228 C 0.35101 1.11226 1.11314
 C229 C 0.33049 1.09224 1.15230
 H230 H 0.27569 1.09465 1.20174
 H231 H 0.27559 1.20045 1.09578
 H232 H 0.34543 1.16734 1.06285
 H233 H 0.34557 1.06201 1.16832
 C234 C 0.29026 0.82940 0.88872
 C235 C 0.26949 0.84909 0.84924
 C236 C 0.29012 0.88860 0.82958
 C237 C 0.33034 0.90749 0.84856
 C238 C 0.35098 0.88746 0.88761
 C239 C 0.33048 0.84838 0.90761
 H240 H 0.27568 0.79912 0.90515
 H241 H 0.27544 0.90506 0.79932
 H242 H 0.34535 0.93777 0.83251
 H243 H 0.34560 0.83232 0.93787
 C244 C 0.70989 0.88920 1.17072
 C245 C 0.73057 0.84967 1.15102
 C246 C 0.70987 0.82992 1.11144
 C247 C 0.66970 0.84886 1.09250
 C248 C 0.64915 0.88796 1.11254
 C249 C 0.66972 0.90805 1.15169
 H250 H 0.72452 0.90570 1.20105
 H251 H 0.72448 0.79963 1.09497
 H252 H 0.65465 0.83274 1.06218
 H253 H 0.65468 0.93833 1.16778
 C254 C 0.70946 1.11087 0.82880
 C255 C 0.73030 1.15030 0.84853
 C256 C 0.70972 1.17005 0.88818
 C257 C 0.66951 1.15121 0.90719
 C258 C 0.64880 1.11220 0.88714
 C259 C 0.66924 1.09211 0.84790
 H260 H 0.72399 1.09438 0.79842
 H261 H 0.72446 1.20028 0.90468
 H262 H 0.65456 1.16732 0.93757
 H263 H 0.65407 1.06189 0.83181
 C264 C 0.11156 0.29027 0.17086
 C265 C 0.15096 0.26984 0.15093
 C266 C 0.17070 0.29039 0.11151
 C267 C 0.15171 0.33055 0.09269
 C268 C 0.11259 0.35103 0.11288
 C269 C 0.09259 0.33043 0.15201
 H270 H 0.09538 0.27538 0.20117
 H271 H 0.20099 0.27560 0.09520
 H272 H 0.16776 0.34563 0.06239
 H273 H 0.06233 0.34542 0.16820
 C274 C -0.17056 0.29004 -0.11084
 C275 C -0.15083 0.26939 -0.15029
 C276 C -0.11136 0.28971 -0.17014
 C277 C -0.09232 0.32987 -0.15121
 C278 C -0.11231 0.35058 -0.11206
 C279 C -0.15148 0.33020 -0.09193
 H280 H -0.20089 0.27532 -0.09459
 H281 H -0.09519 0.27474 -0.20047
 H282 H -0.06201 0.34477 -0.16734
 H283 H -0.16752 0.34537 -0.06162
 C284 C 0.17078 0.70901 -0.11054
 C285 C 0.15099 0.72958 -0.14990
 C286 C 0.11162 0.70910 -0.16982
 C287 C 0.09273 0.66886 -0.15103
 C288 C 0.11278 0.64824 -0.11196
 C289 C 0.15186 0.66877 -0.09178
 H290 H 0.20105 0.72385 -0.09424
 H291 H 0.09540 0.72400 -0.20008
 H292 H 0.06248 0.65384 -0.16720
 H293 H 0.16794 0.65367 -0.06152
 C294 C -0.17050 0.70948 0.11082
 C295 C -0.15082 0.73027 0.15021
 C296 C -0.11144 0.70997 0.17019
 C297 C -0.09242 0.66971 0.15145
 C298 C -0.11235 0.64887 0.11236
 C299 C -0.15144 0.66922 0.09210
 H300 H -0.20076 0.72417 0.09447
 H301 H -0.09531 0.72504 0.20049
 H302 H -0.06218 0.65484 0.16769
 H303 H -0.16743 0.65394 0.06182
 C304 C 1.11083 0.17095 0.71002
 C305 C 1.15028 0.15133 0.73080
 C306 C 1.16996 0.11178 0.71012
 C307 C 1.15103 0.09279 0.66984
 C308 C 1.11202 0.11275 0.64918
 C309 C 1.09199 0.15186 0.66974
 H310 H 1.09439 0.20125 0.72463
 H311 H 1.20019 0.09537 0.72481
 H312 H 1.16710 0.06250 0.65480
 H313 H 1.06176 0.16788 0.65460
 C314 C 0.88898 -0.17054 0.70917
 C315 C 0.84953 -0.15101 0.73012
 C316 C 0.82970 -0.11152 0.70964
 C317 C 0.84848 -0.09249 0.66938
 C318 C 0.88751 -0.11235 0.64855
 C319 C 0.90768 -0.15141 0.66890
 H320 H 0.90552 -0.20080 0.72364
 H321 H 0.79944 -0.09518 0.72447
 H322 H 0.83232 -0.06224 0.65450
 H323 H 0.93793 -0.16735 0.65363
 C324 C 1.11077 -0.17095 0.28971
 C325 C 1.15029 -0.15145 0.26889
 C326 C 1.17001 -0.11183 0.28942
 C327 C 1.15107 -0.09265 0.32959
 C328 C 1.11199 -0.11249 0.35030
 C329 C 1.09190 -0.15167 0.32989
 H330 H 1.09430 -0.20129 0.27521
 H331 H 1.20031 -0.09551 0.27468
 H332 H 1.16717 -0.06232 0.34452
 H333 H 1.06162 -0.16760 0.34507
 C334 C 0.82979 0.11248 0.28978
 C335 C 0.84955 0.15204 0.26932
 C336 C 0.88903 0.17158 0.29022
 C337 C 0.90782 0.15240 0.33041
 C338 C 0.88770 0.11327 0.35073
 C339 C 0.84865 0.09339 0.32995
 H340 H 0.79952 0.09612 0.27499
 H341 H 0.90553 0.20189 0.27577
 H342 H 0.93808 0.16835 0.34564
 H343 H 0.83252 0.06309 0.34482
 C344 C 0.11103 0.28974 -0.17082
 C345 C 0.15048 0.26894 -0.15122
 C346 C 0.17026 0.28952 -0.11158
 C347 C 0.15143 0.32972 -0.09250
 C348 C 0.11241 0.35039 -0.11244
 C349 C 0.09229 0.32994 -0.15164
 H350 H 0.09452 0.27521 -0.20119
 H351 H 0.20049 0.27481 -0.09518
 H352 H 0.16756 0.34468 -0.06214
 H353 H 0.06206 0.34508 -0.16765
 C354 C -0.11096 0.29048 0.17147
 C355 C -0.15045 0.26969 0.15179
 C356 C -0.17016 0.29025 0.11220
 C357 C -0.15124 0.33040 0.09322
 C358 C -0.11218 0.35105 0.11322
 C359 C -0.09213 0.33063 0.15239
 H360 H -0.09450 0.27596 0.20180
 H361 H -0.20043 0.27556 0.09575
 H362 H -0.16733 0.34533 0.06289
 H363 H -0.06187 0.34576 0.16844
 C364 C -0.11010 0.70879 -0.17091
 C365 C -0.14941 0.72950 -0.15114
 C366 C -0.16932 0.70919 -0.11164
 C367 C -0.15058 0.66902 -0.09261
 C368 C -0.11155 0.64826 -0.11263
 C369 C -0.09138 0.66861 -0.15184
 H370 H -0.09382 0.72349 -0.20126
 H371 H -0.19955 0.72419 -0.09543
 H372 H -0.16676 0.65415 -0.06227
 H373 H -0.06117 0.65340 -0.16790
 C374 C 0.11111 0.70974 0.17108
 C375 C 0.15063 0.73044 0.15142
 C376 C 0.17044 0.70968 0.11189
 C377 C 0.15157 0.66942 0.09295
 C378 C 0.11248 0.64886 0.11295
 C379 C 0.09233 0.66948 0.15205
 H380 H 0.09457 0.72442 0.20137
 H381 H 0.20073 0.72430 0.09545
 H382 H 0.16773 0.65433 0.06267
 H383 H 0.06205 0.65443 0.16810
 C384 C 0.29017 1.17013 0.88902
 C385 C 0.26964 1.15034 0.84955
 C386 C 0.29011 1.11095 0.82966
 C387 C 0.33029 1.09205 0.84859
 C388 C 0.35088 1.11211 0.88777
 C389 C 0.33036 1.15120 0.90792
 H390 H 0.27535 1.20040 0.90531
 H391 H 0.27523 1.09474 0.79931
 H392 H 0.34532 1.06180 0.83243
 H393 H 0.34543 1.16729 0.93824
 C394 C 0.29028 0.88859 1.17038
 C395 C 0.26992 0.84915 1.15046
 C396 C 0.29060 0.82937 1.11106
 C397 C 0.33083 0.84837 1.09226
 C398 C 0.35125 0.88752 1.11244
 C399 C 0.33051 0.90755 1.15155
 H400 H 0.27529 0.90479 1.20068
 H401 H 0.27585 0.79906 1.09476
 H402 H 0.34602 0.83230 1.06197
 H403 H 0.34544 0.93785 1.16773
 C404 C 0.70976 1.11171 1.17048
 C405 C 0.73019 1.15110 1.15067
 C406 C 0.70959 1.17082 1.11128
 C407 C 0.66939 1.15181 1.09239
 C408 C 0.64891 1.11271 1.11247
 C409 C 0.66956 1.09274 1.15157
 H410 H 0.72468 1.09555 1.20077
 H411 H 0.72439 1.20110 1.09506
 H412 H 0.65427 1.16784 1.06212
 H413 H 0.65458 1.06248 1.16768
 C414 C 0.70973 0.88917 0.82917
 C415 C 0.73028 0.84988 0.84900
 C416 C 0.70979 0.83013 0.88846
 C417 C 0.66956 0.84900 0.90740
 C418 C 0.64895 0.88799 0.88730
 C419 C 0.66950 0.90801 0.84814
 H420 H 0.72458 0.90534 0.79883
 H421 H 0.72468 0.79993 0.90469
 H422 H 0.65452 0.83295 0.93771
 H423 H 0.65441 0.93819 0.83203
   
