data_POSCAR
  _audit_creation_date              2014-09-24
  _audit_creation_method            'ToBaCCo'
  _symmetry_space_group_name_H-M    'P1'
  _symmetry_Int_Tables_number       1
  _symmetry_cell_setting            triclinic
  loop_
  _symmetry_equiv_pos_as_xyz
 x,y,z
_cell_length_a 46.3695
_cell_length_b 46.3717
_cell_length_c 46.3053
_cell_angle_alpha 90.202600
_cell_angle_beta 90.286200
_cell_angle_gamma 90.281300
loop_
  _atom_site_label
  _atom_site_type_symbol
  _atom_site_fract_x
  _atom_site_fract_y
  _atom_site_fract_z
C1 C 0.72260 0.67208 0.96485
 H2 H 0.74346 0.67223 0.95449
 C3 C 0.69954 0.68701 0.95245
 H4 H 0.70267 0.69888 0.93260
 C5 C 0.69241 0.65493 1.00232
 H6 H 0.68936 0.64166 1.02116
 C7 C 0.66885 0.66956 0.99069
 H8 H 0.64792 0.66771 1.00083
 N9 N 0.71861 0.65625 0.98922
 C10 C 0.80272 0.63801 1.02750
 H11 H 0.79999 0.61498 1.03008
 C12 C 0.82802 0.65140 1.03699
 H13 H 0.84484 0.63868 1.04701
 C14 C 0.78407 0.68272 1.01129
 H15 H 0.76680 0.69477 1.00137
 C16 C 0.80916 0.69702 1.02053
 H17 H 0.81122 0.72011 1.01769
 Zn18 Zn 0.74890 0.63222 1.00223
 N19 N 0.78153 0.65365 1.01463
 C20 C 0.78674 0.60923 0.96063
 N21 N 0.75928 0.60819 0.97083
 C22 C 0.73854 0.59211 0.95732
 C23 C 0.74517 0.57624 0.93247
 C24 C 0.79425 0.59370 0.93599
 C25 C 0.73141 0.62565 1.05894
 C26 C 0.72140 0.61174 1.08360
 C27 C 0.72246 0.56651 1.05742
 C28 C 0.73253 0.58135 1.03318
 N29 N 0.73632 0.61046 1.03429
 H30 H 0.80275 0.62271 0.97104
 H31 H 0.71673 0.59215 0.96550
 H32 H 0.72851 0.56384 0.92156
 H33 H 0.81608 0.59504 0.92783
 H34 H 0.73491 0.64874 1.05924
 H35 H 0.71711 0.62425 1.10293
 H36 H 0.71903 0.54340 1.05621
 H37 H 0.73702 0.56965 1.01351
 C38 C 0.83137 0.68112 1.03336
 C39 C 0.67234 0.68541 0.96533
 C40 C 0.71664 0.58193 1.08281
 C41 C 0.77328 0.57725 0.92166
 C42 C 0.72730 0.33383 0.52525
 H43 H 0.74814 0.33268 0.53579
 C44 C 0.70388 0.31840 0.53634
 H45 H 0.70669 0.30518 0.55538
 C46 C 0.69762 0.35374 0.48860
 H47 H 0.69495 0.36821 0.47060
 C48 C 0.67371 0.33868 0.49896
 H49 H 0.65286 0.34141 0.48868
 N50 N 0.72375 0.35120 0.50188
 C51 C 0.80883 0.36907 0.46597
 H52 H 0.80746 0.39233 0.46517
 C53 C 0.83323 0.35520 0.45542
 H54 H 0.85074 0.36781 0.44644
 C55 C 0.78749 0.32419 0.47833
 H56 H 0.76947 0.31225 0.48701
 C57 C 0.81160 0.30942 0.46794
 H58 H 0.81216 0.28609 0.46873
 Zn59 Zn 0.75485 0.37519 0.49048
 N60 N 0.78671 0.35353 0.47737
 C61 C 0.79307 0.39570 0.53378
 N62 N 0.76575 0.39753 0.52310
 C63 C 0.74530 0.41350 0.53673
 C64 C 0.75213 0.42859 0.56209
 C65 C 0.80078 0.41043 0.55899
 C66 C 0.73756 0.38490 0.43400
 C67 C 0.72773 0.40020 0.41008
 C68 C 0.73034 0.44404 0.43840
 C69 C 0.74020 0.42787 0.46189
 N70 N 0.74307 0.39876 0.45939
 H71 H 0.80882 0.38231 0.52321
 H72 H 0.72358 0.41410 0.52812
 H73 H 0.73570 0.44102 0.57299
 H74 H 0.82251 0.40858 0.56748
 H75 H 0.74031 0.36178 0.43259
 H76 H 0.72280 0.38886 0.39015
 H77 H 0.72749 0.46711 0.44063
 H78 H 0.74517 0.43853 0.48209
 C79 C 0.83468 0.32514 0.45645
 C80 C 0.67678 0.32112 0.52322
 C81 C 0.72382 0.42998 0.41237
 C82 C 0.78012 0.42690 0.57334
 C83 C 0.22716 -0.16569 0.02494
 H84 H 0.24801 -0.16680 0.03545
 C85 C 0.20376 -0.18112 0.03608
 H86 H 0.20660 -0.19431 0.05514
 C87 C 0.19742 -0.14589 -0.01173
 H88 H 0.19472 -0.13146 -0.02976
 C89 C 0.17354 -0.16095 -0.00132
 H90 H 0.15268 -0.15827 -0.01159
 N91 N 0.22357 -0.14837 0.00153
 C92 C 0.30852 -0.13060 -0.03470
 H93 H 0.30711 -0.10734 -0.03561
 C94 C 0.33292 -0.14448 -0.04524
 H95 H 0.35039 -0.13189 -0.05433
 C96 C 0.28729 -0.17544 -0.02204
 H97 H 0.26932 -0.18737 -0.01324
 C98 C 0.31140 -0.19023 -0.03241
 H99 H 0.31201 -0.21355 -0.03149
 Zn100 Zn 0.25464 -0.12442 -0.01002
 N101 N 0.28646 -0.14611 -0.02316
 C102 C 0.29302 -0.10382 0.03309
 N103 N 0.26565 -0.10198 0.02251
 C104 C 0.24528 -0.08597 0.03619
 C105 C 0.25222 -0.07084 0.06150
 C106 C 0.30084 -0.08905 0.05823
 C107 C 0.23726 -0.11492 -0.06648
 C108 C 0.22731 -0.09976 -0.09044
 C109 C 0.22979 -0.05578 -0.06224
 C110 C 0.23977 -0.07186 -0.03873
 N111 N 0.24275 -0.10096 -0.04115
 H112 H 0.30871 -0.11725 0.02247
 H113 H 0.22352 -0.08537 0.02768
 H114 H 0.23585 -0.05838 0.07245
 H115 H 0.32260 -0.09092 0.06664
 H116 H 0.24011 -0.13803 -0.06781
 H117 H 0.22243 -0.11132 -0.11029
 H118 H 0.22688 -0.03271 -0.05994
 H119 H 0.24474 -0.06113 -0.01856
 C120 C 0.33442 -0.17453 -0.04405
 C121 C 0.17664 -0.17846 0.02298
 C122 C 0.22324 -0.06995 -0.08826
 C123 C 0.28025 -0.07254 0.07265
 C124 C 0.22304 0.17208 0.46416
 H125 H 0.24391 0.17236 0.45382
 C126 C 0.19993 0.18698 0.45182
 H127 H 0.20303 0.19897 0.43204
 C128 C 0.19288 0.15462 0.50152
 H129 H 0.18986 0.14124 0.52029
 C130 C 0.16928 0.16922 0.48994
 H131 H 0.14834 0.16724 0.50005
 N132 N 0.21908 0.15611 0.48845
 C133 C 0.30322 0.13792 0.52670
 H134 H 0.30054 0.11487 0.52914
 C135 C 0.32847 0.15131 0.53632
 H136 H 0.34530 0.13857 0.54630
 C137 C 0.28449 0.18268 0.51073
 H138 H 0.26720 0.19475 0.50085
 C139 C 0.30953 0.19699 0.52011
 H140 H 0.31153 0.22010 0.51742
 Zn141 Zn 0.24945 0.13212 0.50139
 N142 N 0.28202 0.15359 0.51389
 C143 C 0.28737 0.10942 0.45971
 N144 N 0.25992 0.10822 0.46991
 C145 C 0.23926 0.09206 0.45638
 C146 C 0.24596 0.07626 0.43152
 C147 C 0.29496 0.09395 0.43505
 C148 C 0.23196 0.12533 0.55807
 C149 C 0.22206 0.11129 0.58270
 C150 C 0.22335 0.06616 0.55645
 C151 C 0.23330 0.08108 0.53221
 N152 N 0.23693 0.11022 0.53337
 H153 H 0.30332 0.12295 0.47014
 H154 H 0.21745 0.09198 0.46457
 H155 H 0.22936 0.06378 0.42059
 H156 H 0.31678 0.09540 0.42690
 H157 H 0.23533 0.14843 0.55842
 H158 H 0.21769 0.12360 0.60211
 H159 H 0.22001 0.04305 0.55533
 H160 H 0.23783 0.06944 0.51252
 C161 C 0.33175 0.18106 0.53288
 C162 C 0.17272 0.18521 0.46467
 C163 C 0.21751 0.08150 0.58183
 C164 C 0.27407 0.07741 0.42071
 C165 C 0.17302 0.46407 0.22300
 H166 H 0.17323 0.45381 0.24395
 C167 C 0.18791 0.45163 0.19994
 H168 H 0.19982 0.43185 0.20317
 C169 C 0.15573 0.50129 0.19257
 H170 H 0.14240 0.52004 0.18943
 C171 C 0.17032 0.48961 0.16902
 H172 H 0.16838 0.49962 0.14799
 N173 N 0.15712 0.48832 0.21888
 C174 C 0.13865 0.52660 0.30295
 H175 H 0.11560 0.52897 0.30019
 C176 C 0.15195 0.53629 0.32824
 H177 H 0.13914 0.54625 0.34502
 C178 C 0.18348 0.51074 0.28438
 H179 H 0.19562 0.50090 0.26713
 C180 C 0.19771 0.52020 0.30946
 H181 H 0.22083 0.51760 0.31155
 Zn182 Zn 0.13305 0.50129 0.24915
 N183 N 0.15440 0.51382 0.28181
 C184 C 0.11013 0.45967 0.28711
 N185 N 0.10908 0.46986 0.25960
 C186 C 0.09300 0.45636 0.23885
 C187 C 0.07714 0.43152 0.24551
 C188 C 0.09460 0.43505 0.29466
 C189 C 0.12633 0.55785 0.23140
 C190 C 0.11230 0.58243 0.22147
 C191 C 0.06715 0.55620 0.22288
 C192 C 0.08206 0.53202 0.23286
 N193 N 0.11121 0.53319 0.23646
 H194 H 0.12361 0.47010 0.30313
 H195 H 0.09303 0.46454 0.21700
 H196 H 0.06473 0.42062 0.22884
 H197 H 0.09594 0.42690 0.31653
 H198 H 0.14944 0.55822 0.23476
 H199 H 0.12462 0.60182 0.21704
 H200 H 0.04402 0.55507 0.21959
 H201 H 0.07041 0.51235 0.23748
 C202 C 0.18170 0.53296 0.33162
 C203 C 0.18621 0.46434 0.17263
 C204 C 0.08249 0.58155 0.21697
 C205 C 0.07814 0.42073 0.27367
 C206 C -0.16702 0.02586 0.22625
 H207 H -0.16824 0.03634 0.24711
 C208 C -0.18233 0.03700 0.20273
 H209 H -0.19553 0.05601 0.20558
 C210 C -0.14702 -0.01067 0.19660
 H211 H -0.13255 -0.02863 0.19397
 C212 C -0.16195 -0.00028 0.17258
 H213 H -0.15909 -0.01057 0.15174
 N214 N -0.14965 0.00254 0.22276
 C215 C -0.13184 -0.03347 0.30794
 H216 H -0.10858 -0.03427 0.30651
 C217 C -0.14566 -0.04405 0.33241
 H218 H -0.13302 -0.05305 0.34990
 C219 C -0.17675 -0.02105 0.28670
 H220 H -0.18872 -0.01232 0.26869
 C221 C -0.19148 -0.03146 0.31087
 H222 H -0.21481 -0.03065 0.31151
 Zn223 Zn -0.12574 -0.00887 0.25395
 N224 N -0.14742 -0.02203 0.28584
 C225 C -0.10523 0.03428 0.29228
 N226 N -0.10336 0.02368 0.26491
 C227 C -0.08728 0.03729 0.24450
 C228 C -0.07208 0.06254 0.25141
 C229 C -0.09039 0.05937 0.30007
 C230 C -0.11606 -0.06524 0.23667
 C231 C -0.10075 -0.08913 0.22692
 C232 C -0.05687 -0.06085 0.22968
 C233 C -0.07305 -0.03740 0.23945
 N234 N -0.10218 -0.03989 0.24221
 H235 H -0.11871 0.02371 0.30800
 H236 H -0.08665 0.02876 0.22274
 H237 H -0.05954 0.07343 0.23502
 H238 H -0.09225 0.06779 0.32184
 H239 H -0.13918 -0.06665 0.23934
 H240 H -0.11210 -0.10904 0.22196
 H241 H -0.03379 -0.05863 0.22692
 H242 H -0.06238 -0.01723 0.24446
 C243 C -0.17572 -0.04300 0.33394
 C244 C -0.17950 0.02397 0.17557
 C245 C -0.07095 -0.08685 0.22313
 C246 C -0.07378 0.07370 0.27946
 C247 C 0.33336 0.52554 0.72753
 H248 H 0.33222 0.53597 0.74843
 C249 C 0.31796 0.53673 0.70410
 H250 H 0.30476 0.55573 0.70697
 C251 C 0.35326 0.48909 0.69771
 H252 H 0.36771 0.47113 0.69498
 C253 C 0.33822 0.49955 0.67378
 H254 H 0.34096 0.48938 0.65288
 N255 N 0.35072 0.50223 0.72391
 C256 C 0.36860 0.46607 0.80901
 H257 H 0.39187 0.46536 0.80764
 C258 C 0.35474 0.45534 0.83339
 H259 H 0.36735 0.44631 0.85089
 C260 C 0.32371 0.47836 0.78766
 H261 H 0.31175 0.48707 0.76963
 C262 C 0.30894 0.46779 0.81174
 H263 H 0.28560 0.46848 0.81228
 Zn264 Zn 0.37470 0.49073 0.75502
 N265 N 0.35304 0.47751 0.78690
 C266 C 0.39533 0.53385 0.79335
 N267 N 0.39710 0.52326 0.76597
 C268 C 0.41308 0.53691 0.74550
 C269 C 0.42824 0.56219 0.75235
 C270 C 0.41014 0.55898 0.80108
 C271 C 0.38431 0.43441 0.73756
 C272 C 0.39959 0.41054 0.72770
 C273 C 0.44348 0.43880 0.73043
 C274 C 0.42734 0.46222 0.74032
 N275 N 0.39822 0.45974 0.74315
 H276 H 0.38193 0.52326 0.80912
 H277 H 0.41363 0.52838 0.72373
 H278 H 0.44068 0.57311 0.73590
 H279 H 0.40834 0.56740 0.82286
 H280 H 0.36119 0.43300 0.74029
 H281 H 0.38821 0.39066 0.72271
 H282 H 0.46656 0.44102 0.72761
 H283 H 0.43803 0.48238 0.74536
 C284 C 0.32467 0.45623 0.83481
 C285 C 0.32069 0.52376 0.67692
 C286 C 0.42937 0.41283 0.72383
 C287 C 0.42662 0.57335 0.78039
 C288 C 0.67364 0.96468 0.72362
 H289 H 0.67394 0.95431 0.74450
 C290 C 0.68847 0.95240 0.70043
 H291 H 0.70042 0.93262 0.70351
 C292 C 0.65617 1.00203 0.69345
 H293 H 0.64278 1.02077 0.69046
 C294 C 0.67069 0.99051 0.66979
 H295 H 0.66866 1.00063 0.64883
 N296 N 0.65767 0.98893 0.71969
 C297 C 0.63921 1.02672 0.80401
 H298 H 0.61615 1.02903 0.80129
 C299 C 0.65251 1.03636 0.82933
 H300 H 0.63963 1.04620 0.84613
 C301 C 0.68407 1.01110 0.78529
 H302 H 0.69621 1.00137 0.76798
 C303 C 0.69832 1.02050 0.81039
 H304 H 0.72146 1.01794 0.81235
 Zn305 Zn 0.63361 1.00167 0.75008
 N306 N 0.65497 1.01410 0.78278
 C307 C 0.61080 0.95980 0.78785
 N308 N 0.60974 0.97012 0.76039
 C309 C 0.59368 0.95668 0.73958
 C310 C 0.57783 0.93181 0.74613
 C311 C 0.59529 0.93513 0.79529
 C312 C 0.62670 1.05830 0.73262
 C313 C 0.61260 1.08284 0.72267
 C314 C 0.56755 1.05642 0.72388
 C315 C 0.58253 1.03228 0.73387
 N316 N 0.61166 1.03356 0.73756
 H317 H 0.62426 0.97017 0.80392
 H318 H 0.59370 0.96496 0.71776
 H319 H 0.56542 0.92097 0.72941
 H320 H 0.59662 0.92689 0.81713
 H321 H 0.64979 1.05876 0.73604
 H322 H 0.62485 1.10229 0.71831
 H323 H 0.54444 1.05519 0.72048
 H324 H 0.57094 1.01255 0.73839
 C325 C 0.68230 1.03313 0.83266
 C326 C 0.68664 0.96526 0.67319
 C327 C 0.58281 1.08184 0.71804
 C328 C 0.57883 0.92089 0.77425
 C329 C 0.02493 0.22657 -0.16567
 H330 H 0.03540 0.24744 -0.16672
 C331 C 0.03617 0.20323 -0.18108
 H332 H 0.05525 0.20614 -0.19419
 C333 C -0.01166 0.19671 -0.14602
 H334 H -0.02970 0.19393 -0.13164
 C335 C -0.00116 0.17288 -0.16106
 H336 H -0.01137 0.15199 -0.15842
 N337 N 0.00152 0.22289 -0.14843
 C338 C -0.03470 0.30776 -0.13043
 H339 H -0.03559 0.30624 -0.10714
 C340 C -0.04526 0.33221 -0.14426
 H341 H -0.05434 0.34961 -0.13161
 C342 C -0.02207 0.28674 -0.17538
 H343 H -0.01328 0.26882 -0.18738
 C344 C -0.03246 0.31090 -0.19013
 H345 H -0.03156 0.31161 -0.21349
 Zn346 Zn -0.01005 0.25385 -0.12437
 N347 N -0.02317 0.28578 -0.14602
 C348 C 0.03301 0.29211 -0.10355
 N349 N 0.02242 0.26475 -0.10181
 C350 C 0.03607 0.24428 -0.08584
 C351 C 0.06138 0.25111 -0.07068
 C352 C 0.05816 0.29982 -0.08873
 C353 C -0.06643 0.23639 -0.11503
 C354 C -0.09039 0.22643 -0.09991
 C355 C -0.06226 0.22882 -0.05580
 C356 C -0.03877 0.23881 -0.07183
 N357 N -0.04115 0.24186 -0.10098
 H358 H 0.02242 0.30789 -0.11694
 H359 H 0.02755 0.22253 -0.08533
 H360 H 0.07232 0.23465 -0.05827
 H361 H 0.06659 0.32157 -0.09053
 H362 H -0.06774 0.23929 -0.13817
 H363 H -0.11019 0.22158 -0.11154
 H364 H -0.06000 0.22588 -0.03268
 H365 H -0.01864 0.24376 -0.06104
 C366 C -0.04409 0.33384 -0.17435
 C367 C 0.02316 0.17607 -0.17848
 C368 C -0.08824 0.22231 -0.07006
 C369 C 0.07256 0.27913 -0.07229
 C370 C 0.46505 0.22292 0.17262
 H371 H 0.45468 0.24377 0.17281
 C372 C 0.45275 0.19981 0.18757
 H373 H 0.43296 0.20289 0.19949
 C374 C 0.50243 0.19280 0.15532
 H375 H 0.52119 0.18980 0.14196
 C376 C 0.49089 0.16920 0.16996
 H377 H 0.50102 0.14828 0.16805
 N378 N 0.48932 0.21898 0.15669
 C379 C 0.52717 0.30318 0.13796
 H380 H 0.52958 0.30040 0.11489
 C381 C 0.53671 0.32853 0.15120
 H382 H 0.54658 0.34533 0.13833
 C383 C 0.51139 0.28460 0.18290
 H384 H 0.50162 0.26734 0.19510
 C385 C 0.52069 0.30974 0.19707
 H386 H 0.51804 0.31185 0.22021
 Zn387 Zn 0.50209 0.24929 0.13249
 N388 N 0.51450 0.28201 0.15378
 C389 C 0.46025 0.28694 0.10955
 N390 N 0.47055 0.25952 0.10854
 C391 C 0.45706 0.23870 0.09255
 C392 C 0.43212 0.24520 0.07675
 C393 C 0.43552 0.29432 0.09408
 C394 C 0.55874 0.23193 0.12568
 C395 C 0.58331 0.22205 0.11161
 C396 C 0.55692 0.22311 0.06647
 C397 C 0.53275 0.23304 0.08142
 N398 N 0.53400 0.23679 0.11058
 H399 H 0.47066 0.30301 0.12295
 H400 H 0.46532 0.21693 0.09262
 H401 H 0.42123 0.22846 0.06442
 H402 H 0.42729 0.31611 0.09538
 H403 H 0.55917 0.23539 0.14880
 H404 H 0.60275 0.21777 0.12392
 H405 H 0.55572 0.21968 0.04334
 H406 H 0.51303 0.23748 0.06978
 C407 C 0.53333 0.33194 0.18098
 C408 C 0.46562 0.17262 0.18589
 C409 C 0.58234 0.21738 0.08180
 C410 C 0.42121 0.27326 0.07772
 C411 C 0.96382 0.72276 0.67340
 H412 H 0.95351 0.74363 0.67372
 C413 C 0.95152 0.69962 0.68832
 H414 H 0.93180 0.70271 0.70035
 C415 C 1.00106 0.69260 0.65584
 H416 H 1.01976 0.68960 0.64241
 C417 C 0.98952 0.66898 0.67045
 H418 H 0.99959 0.64804 0.66843
 N419 N 0.98803 0.71881 0.65737
 C420 C 1.02613 0.80299 0.63910
 H421 H 1.02846 0.80036 0.61601
 C422 C 1.03582 0.82821 0.65249
 H423 H 1.04573 0.84505 0.63971
 C424 C 1.01039 0.78418 0.68396
 H425 H 1.00059 0.76687 0.69607
 C426 C 1.01985 0.80918 0.69828
 H427 H 1.01728 0.81114 0.72144
 Zn428 Zn 1.00088 0.74922 0.63334
 N429 N 1.01341 0.78176 0.65482
 C430 C 0.95918 0.78715 0.61061
 N431 N 0.96940 0.75970 0.60942
 C432 C 0.95591 0.73906 0.59321
 C433 C 0.93110 0.74577 0.57732
 C434 C 0.93457 0.79474 0.59506
 C435 C 1.05747 0.73172 0.62646
 C436 C 1.08204 0.72190 0.61235
 C437 C 1.05573 0.72340 0.56718
 C438 C 1.03156 0.73326 0.58218
 N439 N 1.03277 0.73676 0.61137
 H440 H 0.96959 0.80308 0.62418
 H441 H 0.96411 0.71726 0.59314
 H442 H 0.92022 0.72918 0.56478
 H443 H 0.92642 0.81656 0.59648
 H444 H 1.05787 0.73498 0.64961
 H445 H 1.10145 0.71748 0.62465
 H446 H 1.05456 0.72018 0.54402
 H447 H 1.01187 0.73786 0.57055
 C448 C 1.03254 0.83142 0.68230
 C449 C 0.96432 0.67241 0.68650
 C450 C 1.08111 0.71749 0.58250
 C451 C 0.92029 0.77387 0.57844
 C452 C 0.52535 0.72808 0.33250
 H453 H 0.53584 0.74893 0.33131
 C454 C 0.53644 0.70467 0.31708
 H455 H 0.55543 0.70750 0.30384
 C456 C 0.48883 0.69835 0.35250
 H457 H 0.47089 0.69565 0.36700
 C458 C 0.49919 0.67445 0.33745
 H459 H 0.48896 0.65359 0.34023
 N460 N 0.50205 0.72450 0.34991
 C461 C 0.46612 0.80950 0.36792
 H462 H 0.46538 0.80802 0.39122
 C463 C 0.45549 0.83394 0.35413
 H464 H 0.44653 0.85134 0.36688
 C465 C 0.47841 0.78837 0.32292
 H466 H 0.48709 0.77041 0.31091
 C467 C 0.46795 0.81251 0.30819
 H468 H 0.46871 0.81311 0.28481
 Zn469 Zn 0.49066 0.75556 0.37394
 N470 N 0.47751 0.78747 0.35229
 C471 C 0.53387 0.79378 0.39458
 N472 N 0.52323 0.76643 0.39636
 C473 C 0.53682 0.74598 0.41241
 C474 C 0.56207 0.75282 0.42766
 C475 C 0.55896 0.80150 0.40948
 C476 C 0.43429 0.73819 0.38363
 C477 C 0.41040 0.72838 0.39896
 C478 C 0.43871 0.73106 0.44288
 C479 C 0.46215 0.74089 0.42668
 N480 N 0.45964 0.74372 0.39752
 H481 H 0.52332 0.80953 0.38113
 H482 H 0.52825 0.72425 0.41297
 H483 H 0.57293 0.73640 0.44017
 H484 H 0.56740 0.82325 0.40769
 H485 H 0.43286 0.74092 0.36047
 H486 H 0.39049 0.72343 0.38760
 H487 H 0.44094 0.72824 0.46600
 H488 H 0.48233 0.74590 0.43737
 C489 C 0.45644 0.83553 0.32400
 C490 C 0.52339 0.67754 0.31986
 C491 C 0.41270 0.72451 0.42879
 C492 C 0.57326 0.78084 0.42605
 Si493 Si 0.36201 0.00284 0.24901
 Si494 Si 0.12198 1.00706 0.75084
 Si495 Si 0.62171 0.50828 0.24909
 Si496 Si 0.86102 0.50258 0.74995
 Si497 Si 0.24907 0.36015 0.00313
 Si498 Si 0.75074 0.12162 1.00707
 Si499 Si 0.24983 0.62252 0.50753
 Si500 Si 0.74909 0.86194 0.50300
 Si501 Si 0.00301 0.24913 0.36138
 Si502 Si 1.00754 0.75017 0.12141
 Si503 Si 0.50764 0.24994 0.62173
 Si504 Si 0.50303 0.74935 0.86145
 C505 C 0.44563 -0.14080 0.31045
 C506 C 0.43551 -0.11956 0.29947
 C507 C 0.42289 -0.09452 0.28774
 C508 C 0.41138 -0.07317 0.27852
 C509 C 0.39696 -0.04836 0.26850
 C510 C 0.38375 -0.02755 0.26044
 C511 C 0.94458 0.35890 0.81134
 C512 C 0.93449 0.38018 0.80043
 C513 C 0.92190 0.40526 0.78875
 C514 C 0.91041 0.42663 0.77955
 C515 C 0.89600 0.45143 0.76952
 C516 C 0.88279 0.47224 0.76144
 C517 C 0.03586 1.15108 0.80825
 C518 C 0.04677 1.12978 0.79817
 C519 C 0.06002 1.10463 0.78737
 C520 C 0.07188 1.08317 0.77884
 C521 C 0.08657 1.05826 0.76948
 C522 C 0.09996 1.03738 0.76186
 C523 C 0.53595 0.65249 0.30657
 C524 C 0.54675 0.63113 0.29648
 C525 C 0.55988 0.60592 0.28566
 C526 C 0.57166 0.58442 0.27712
 C527 C 0.58628 0.55947 0.26774
 C528 C 0.59965 0.53858 0.26012
 C529 C 0.54318 0.35820 0.19456
 C530 C 0.55209 0.38056 0.20463
 C531 C 0.56341 0.40692 0.21515
 C532 C 0.57397 0.42935 0.22327
 C533 C 0.58750 0.45531 0.23200
 C534 C 0.60020 0.47699 0.23901
 C535 C 0.04258 0.85753 0.69603
 C536 C 0.05166 0.87978 0.70621
 C537 C 0.06317 0.90601 0.71683
 C538 C 0.07387 0.92835 0.72501
 C539 C 0.08756 0.95422 0.73378
 C540 C 0.10037 0.97583 0.74080
 C541 C 0.95054 0.64754 0.69897
 C542 C 0.93880 0.62628 0.70828
 C543 C 0.92471 0.60110 0.71806
 C544 C 0.91225 0.57957 0.72565
 C545 C 0.89701 0.55449 0.73386
 C546 C 0.88328 0.53340 0.74046
 C547 C 0.45179 0.14775 0.19832
 C548 C 0.44002 0.12649 0.20758
 C549 C 0.42588 0.10131 0.21730
 C550 C 0.41337 0.07979 0.22484
 C551 C 0.39808 0.05472 0.23299
 C552 C 0.38432 0.03364 0.23955
 C553 C 0.31033 0.44466 -0.14025
 C554 C 0.29940 0.43437 -0.11905
 C555 C 0.28771 0.42155 -0.09407
 C556 C 0.27851 0.40988 -0.07278
 C557 C 0.26850 0.39530 -0.04803
 C558 C 0.26046 0.38198 -0.02725
 C559 C 0.81001 0.94565 0.35902
 C560 C 0.79916 0.93554 0.38034
 C561 C 0.78758 0.92292 0.40548
 C562 C 0.77847 0.91141 0.42690
 C563 C 0.76854 0.89697 0.45176
 C564 C 0.76053 0.88374 0.47262
 C565 C 0.80803 0.03591 1.15176
 C566 C 0.79794 0.04673 1.13035
 C567 C 0.78716 0.05987 1.10506
 C568 C 0.77865 0.07164 1.08350
 C569 C 0.76932 0.08626 1.05846
 C570 C 0.76173 0.09960 1.03750
 C571 C 0.30741 0.53642 0.65185
 C572 C 0.29732 0.54732 0.63050
 C573 C 0.28651 0.56055 0.60528
 C574 C 0.27796 0.57240 0.58378
 C575 C 0.26857 0.58710 0.55882
 C576 C 0.26092 0.60049 0.53790
 C577 C 0.19533 0.54301 0.35780
 C578 C 0.20544 0.55210 0.38010
 C579 C 0.21597 0.56363 0.40639
 C580 C 0.22409 0.57436 0.42876
 C581 C 0.23280 0.58807 0.45466
 C582 C 0.23979 0.60090 0.47628
 C583 C 0.69527 0.04259 0.85743
 C584 C 0.70555 0.05159 0.87970
 C585 C 0.71628 0.06301 0.90596
 C586 C 0.72456 0.07365 0.92832
 C587 C 0.73344 0.08728 0.95421
 C588 C 0.74056 0.10004 0.97583
 C589 C 0.69894 0.95145 0.64826
 C590 C 0.70809 0.93970 0.62694
 C591 C 0.71767 0.92560 0.60169
 C592 C 0.72511 0.91313 0.58011
 C593 C 0.73316 0.89789 0.55498
 C594 C 0.73966 0.88417 0.53385
 C595 C 0.19860 0.45038 0.14783
 C596 C 0.20783 0.43849 0.12662
 C597 C 0.21751 0.42423 0.10151
 C598 C 0.22502 0.41163 0.08003
 C599 C 0.23313 0.39625 0.05500
 C600 C 0.23966 0.38245 0.03395
 C601 C -0.14033 0.31079 0.44511
 C602 C -0.11910 0.29984 0.43501
 C603 C -0.09408 0.28810 0.42241
 C604 C -0.07276 0.27884 0.41091
 C605 C -0.04801 0.26876 0.39647
 C606 C -0.02725 0.26064 0.38322
 C607 C 0.35943 0.81111 0.94468
 C608 C 0.38069 0.80015 0.93463
 C609 C 0.40574 0.78841 0.92210
 C610 C 0.42709 0.77915 0.91067
 C611 C 0.45189 0.76906 0.89631
 C612 C 0.47269 0.76092 0.88315
 C613 C 1.15161 0.80818 0.03555
 C614 C 1.13027 0.79801 0.04636
 C615 C 1.10508 0.78710 0.05949
 C616 C 1.08360 0.77848 0.07127
 C617 C 1.05867 0.76901 0.08591
 C618 C 1.03780 0.76130 0.09930
 C619 C 0.65172 0.30779 0.53577
 C620 C 0.63037 0.29764 0.54658
 C621 C 0.60518 0.28676 0.55974
 C622 C 0.58370 0.27816 0.57154
 C623 C 0.55878 0.26872 0.58621
 C624 C 0.53791 0.26104 0.59961
 C625 C 0.35791 0.19478 0.54282
 C626 C 0.38019 0.20497 0.55180
 C627 C 0.40647 0.21562 0.56321
 C628 C 0.42884 0.22384 0.57383
 C629 C 0.45475 0.23268 0.58743
 C630 C 0.47638 0.23977 0.60018
 C631 C 0.85759 0.69484 0.04312
 C632 C 0.87991 0.70505 0.05197
 C633 C 0.90624 0.71574 0.06322
 C634 C 0.92866 0.72400 0.07372
 C635 C 0.95460 0.73288 0.08721
 C636 C 0.97626 0.74000 0.09989
 C637 C 0.64753 0.69791 0.95147
 C638 C 0.62633 0.70726 0.93967
 C639 C 0.60121 0.71709 0.92551
 C640 C 0.57974 0.72475 0.91298
 C641 C 0.55474 0.73303 0.89765
 C642 C 0.53372 0.73972 0.88384
 C643 C 0.14788 0.19770 0.45086
 C644 C 0.12663 0.20702 0.43912
 C645 C 0.10147 0.21684 0.42503
 C646 C 0.07995 0.22449 0.41257
 C647 C 0.05488 0.23277 0.39734
 C648 C 0.03381 0.23947 0.38363
 C649 C 0.56843 0.10664 0.70634
 C650 C 0.55744 0.12768 0.69587
 C651 C 0.54567 0.15247 0.68285
 C652 C 0.53646 0.17365 0.67105
 C653 C 0.52651 0.19833 0.65639
 C654 C 0.51861 0.21917 0.64313
 C655 C 1.06817 0.60644 0.20537
 C656 C 1.05722 0.62755 0.19502
 C657 C 1.04550 0.65244 0.18214
 C658 C 1.03632 0.67370 0.17045
 C659 C 1.02641 0.69846 0.15592
 C660 C 1.01852 0.71937 0.14274
 C661 C 0.94460 0.88915 0.21125
 C662 C 0.95650 0.86877 0.20045
 C663 C 0.96915 0.84474 0.18682
 C664 C 0.97893 0.82420 0.17432
 C665 C 0.98925 0.80025 0.15868
 C666 C 0.99717 0.78001 0.14446
 C667 C 0.44488 0.38886 0.71184
 C668 C 0.45674 0.36850 0.70095
 C669 C 0.46935 0.34449 0.68723
 C670 C 0.47909 0.32397 0.67468
 C671 C 0.48937 0.30004 0.65899
 C672 C 0.49728 0.27980 0.64475
 C673 C 0.44079 0.60001 0.78800
 C674 C 0.45183 0.62241 0.79551
 C675 C 0.46383 0.64860 0.80564
 C676 C 0.47335 0.67080 0.81547
 C677 C 0.48368 0.69647 0.82840
 C678 C 0.49186 0.71798 0.84065
 C679 C -0.05954 0.10029 0.28716
 C680 C -0.04844 0.12262 0.29479
 C681 C -0.03638 0.14872 0.30508
 C682 C -0.02681 0.17083 0.31506
 C683 C -0.01643 0.19640 0.32814
 C684 C -0.00822 0.21784 0.34050
 C685 C 0.06360 0.39435 0.28120
 C686 C 0.05247 0.37219 0.28901
 C687 C 0.04059 0.34638 0.29990
 C688 C 0.03133 0.32463 0.31065
 C689 C 0.02142 0.29967 0.32491
 C690 C 0.01363 0.27894 0.33846
 C691 C 0.56424 0.89451 0.78167
 C692 C 0.55305 0.87235 0.78939
 C693 C 0.54108 0.84653 0.80017
 C694 C 0.53171 0.82478 0.81083
 C695 C 0.52167 0.79982 0.82501
 C696 C 0.51378 0.77911 0.83852
 C697 C 0.70595 0.56898 0.10542
 C698 C 0.69553 0.55796 0.12650
 C699 C 0.68257 0.54619 0.15135
 C700 C 0.67082 0.53699 0.17258
 C701 C 0.65623 0.52707 0.19733
 C702 C 0.64303 0.51921 0.21824
 C703 C 0.20590 1.06718 0.60675
 C704 C 0.19554 1.05627 0.62791
 C705 C 0.18264 1.04463 0.65284
 C706 C 0.17094 1.03552 0.67415
 C707 C 0.15641 1.02570 0.69897
 C708 C 0.14326 1.01791 0.71993
 C709 C 0.21221 0.94409 0.88992
 C710 C 0.20132 0.95604 0.86956
 C711 C 0.18759 0.96872 0.84553
 C712 C 0.17502 0.97851 0.82498
 C713 C 0.15931 0.98881 0.80102
 C714 C 0.14505 0.99672 0.78075
 C715 C 0.71183 0.44551 0.38834
 C716 C 0.70095 0.45739 0.36794
 C717 C 0.68724 0.47002 0.34387
 C718 C 0.67469 0.47977 0.32330
 C719 C 0.65900 0.49007 0.29931
 C720 C 0.64476 0.49796 0.27903
 C721 C 0.78770 0.44098 0.60008
 C722 C 0.79519 0.45192 0.62256
 C723 C 0.80532 0.46381 0.64883
 C724 C 0.81515 0.47322 0.67110
 C725 C 0.82806 0.48344 0.69686
 C726 C 0.84029 0.49153 0.71845
 C727 C 0.28796 -0.05846 0.09935
 C728 C 0.29559 -0.04753 0.12179
 C729 C 0.30587 -0.03568 0.14802
 C730 C 0.31583 -0.02631 0.17025
 C731 C 0.32887 -0.01616 0.19597
 C732 C 0.34120 -0.00813 0.21753
 C733 C 0.28163 0.06292 0.39430
 C734 C 0.28949 0.05185 0.37213
 C735 C 0.30043 0.04005 0.34630
 C736 C 0.31123 0.03086 0.32454
 C737 C 0.32551 0.02104 0.29957
 C738 C 0.33908 0.01333 0.27883
 C739 C 0.78077 0.56273 0.89525
 C740 C 0.78857 0.55164 0.87307
 C741 C 0.79946 0.53982 0.84723
 C742 C 0.81022 0.53062 0.82545
 C743 C 0.82448 0.52078 0.80047
 C744 C 0.83805 0.51307 0.77974
 C745 C 0.10598 0.70599 0.56810
 C746 C 0.12709 0.69572 0.55710
 C747 C 0.15197 0.68292 0.54535
 C748 C 0.17324 0.67129 0.53616
 C749 C 0.19802 0.65684 0.52626
 C750 C 0.21895 0.64374 0.51841
 C751 C 0.60720 0.20578 1.06746
 C752 C 0.62829 0.19541 1.05651
 C753 C 0.65314 0.18250 1.04480
 C754 C 0.67437 0.17078 1.03564
 C755 C 0.69909 0.15621 1.02577
 C756 C 0.71997 0.14301 1.01794
 C757 C 0.88993 0.21133 0.94396
 C758 C 0.86956 0.20049 0.95589
 C759 C 0.84551 0.18684 0.96857
 C760 C 0.82495 0.17436 0.97837
 C761 C 0.80096 0.15875 0.98871
 C762 C 0.78068 0.14458 0.99665
 C763 C 0.38871 0.71258 0.44437
 C764 C 0.36835 0.70173 0.45629
 C765 C 0.34433 0.68806 0.46898
 C766 C 0.32380 0.67553 0.47880
 C767 C 0.29987 0.65986 0.48917
 C768 C 0.27965 0.64561 0.49713
 C769 C 0.59986 0.78846 0.44036
 C770 C 0.62221 0.79599 0.45151
 C771 C 0.64834 0.80616 0.46364
 C772 C 0.67049 0.81602 0.47324
 C773 C 0.69614 0.82896 0.48365
 C774 C 0.71765 0.84121 0.49186
 C775 C 0.09929 0.28671 -0.05821
 C776 C 0.12176 0.29421 -0.04728
 C777 C 0.14803 0.30435 -0.03543
 C778 C 0.17029 0.31420 -0.02606
 C779 C 0.19604 0.32713 -0.01591
 C780 C 0.21761 0.33938 -0.00787
 C781 C 0.39472 0.28060 0.06326
 C782 C 0.37248 0.28828 0.05221
 C783 C 0.34657 0.29901 0.04041
 C784 C 0.32473 0.30965 0.03122
 C785 C 0.29969 0.32379 0.02138
 C786 C 0.27891 0.33727 0.01366
 C787 C 0.89396 0.78145 0.56381
 C788 C 0.87186 0.78932 0.55262
 C789 C 0.84611 0.80026 0.54066
 C790 C 0.82441 0.81106 0.53134
 C791 C 0.79951 0.82537 0.52137
 C792 C 0.77883 0.83895 0.51357
   
