data_POSCAR
  _audit_creation_date              2014-09-24
  _audit_creation_method            'ToBaCCo'
  _symmetry_space_group_name_H-M    'P1'
  _symmetry_Int_Tables_number       1
  _symmetry_cell_setting            triclinic
  loop_
  _symmetry_equiv_pos_as_xyz
 x,y,z
_cell_length_a 24.8492
_cell_length_b 24.7904
_cell_length_c 24.8000
_cell_angle_alpha 90.013900
_cell_angle_beta 89.998200
_cell_angle_gamma 90.021900
loop_
  _atom_site_label
  _atom_site_type_symbol
  _atom_site_fract_x
  _atom_site_fract_y
  _atom_site_fract_z
C1 C 0.53105 1.04311 -0.65645
 C2 C 0.47593 1.04547 -0.65745
 C3 C 0.45777 1.01773 -0.61230
 N4 N 0.50015 0.99971 -0.58319
 C5 C 0.54483 1.01480 -0.61041
 C6 C 0.40327 1.00686 -0.59908
 C7 C 0.38914 0.99201 -0.54551
 C8 C 0.34257 0.96508 -0.53020
 C9 C 0.34216 0.96347 -0.47488
 C10 C 0.38931 0.98785 -0.45754
 N11 N 0.41793 1.00470 -0.50087
 C12 C 0.40264 0.99956 -0.40334
 C13 C 0.45607 1.01092 -0.38748
 C14 C 0.47155 1.03281 -0.33847
 C15 C 0.52662 1.03275 -0.33782
 C16 C 0.54340 1.00894 -0.38564
 N17 N 0.50004 0.99632 -0.41621
 C18 C 0.59736 0.99639 -0.40001
 C19 C 0.61044 0.98392 -0.45437
 C20 C 0.65467 0.95410 -0.47134
 C21 C 0.65459 0.95504 -0.52675
 C22 C 0.61006 0.98481 -0.54223
 N23 N 0.58283 1.00151 -0.49802
 C24 C 0.59747 0.99965 -0.59570
 H25 H 0.55785 1.06101 -0.68583
 H26 H 0.45236 1.06633 -0.68757
 H27 H 0.55062 1.02847 -0.49772
 H28 H 0.31181 0.94790 -0.55581
 H29 H 0.31024 0.94624 -0.45089
 H30 H 0.44647 1.04769 -0.30618
 H31 H 0.55092 1.04929 -0.30569
 H32 H 0.68388 0.93569 -0.55260
 H33 H 0.45204 1.02918 -0.49971
 H34 H 0.68380 0.93316 -0.44662
 C35 C -0.47317 1.34212 -0.04267
 C36 C -0.52836 1.34198 -0.04250
 C37 C -0.54449 1.38773 -0.01447
 N38 N -0.50087 1.41633 0.00131
 C39 C -0.45737 1.38819 -0.01542
 C40 C -0.59816 1.40202 -0.00117
 C41 C -0.61064 1.45634 0.01215
 C42 C -0.65501 1.47375 0.04153
 C43 C -0.65411 1.52921 0.04096
 C44 C -0.60886 1.54423 0.01205
 N45 N -0.58208 1.49975 -0.00458
 C46 C -0.59505 1.59756 -0.00213
 C47 C -0.54154 1.61158 -0.01470
 C48 C -0.52559 1.65783 -0.04154
 C49 C -0.47040 1.65797 -0.04104
 C50 C -0.45444 1.61204 -0.01324
 N51 N -0.49814 1.58334 0.00208
 C52 C -0.40084 1.59765 0.00025
 C53 C -0.38842 1.54322 0.01315
 C54 C -0.34418 1.52556 0.04257
 C55 C -0.34506 1.47011 0.04148
 C56 C -0.39018 1.45534 0.01225
 N57 N -0.41689 1.49995 -0.00410
 C58 C -0.40394 1.40212 -0.00244
 H59 H -0.44771 1.31211 -0.06145
 H60 H -0.55336 1.31203 -0.06193
 H61 H -0.44946 1.50065 -0.03064
 H62 H -0.68479 1.44941 0.06200
 H63 H -0.68326 1.55540 0.06005
 H64 H -0.55093 1.68795 -0.06028
 H65 H -0.44529 1.68804 -0.06013
 H66 H -0.31599 1.44375 0.06045
 H67 H -0.54940 1.49928 -0.03098
 H68 H -0.31449 1.54972 0.06340
 C69 C -0.04519 0.34352 0.52581
 C70 C -0.04347 0.34372 0.47059
 C71 C -0.01256 0.38786 0.45566
 N72 N 0.00383 0.41517 0.49999
 C73 C -0.01524 0.38751 0.54298
 C74 C 0.00212 0.40200 0.40228
 C75 C 0.01552 0.45629 0.39012
 C76 C 0.04528 0.47406 0.34611
 C77 C 0.04363 0.52952 0.34680
 C78 C 0.01367 0.54410 0.39157
 N79 N -0.00244 0.49940 0.41829
 C80 C -0.00195 0.59709 0.40500
 C81 C -0.01617 0.61065 0.45828
 C82 C -0.04407 0.65638 0.47383
 C83 C -0.04476 0.65628 0.52913
 C84 C -0.01661 0.61074 0.54551
 N85 N 0.00002 0.58247 0.50200
 C86 C -0.00313 0.59670 0.59921
 C87 C 0.01074 0.54255 0.61160
 C88 C 0.04230 0.52584 0.65466
 C89 C 0.04242 0.47041 0.65402
 C90 C 0.01104 0.45458 0.61053
 N91 N -0.00693 0.49879 0.58407
 C92 C -0.00301 0.40078 0.59715
 H93 H -0.06738 0.31499 0.55019
 H94 H -0.06415 0.31544 0.44463
 H95 H -0.03429 0.49892 0.55212
 H96 H 0.06645 0.44998 0.31660
 H97 H 0.06257 0.55600 0.31776
 H98 H -0.06254 0.68639 0.44813
 H99 H -0.06460 0.68604 0.55406
 H100 H 0.06417 0.44492 0.68190
 H101 H -0.02941 0.49839 0.45054
 H102 H 0.06413 0.55070 0.68306
 O103 O -0.13823 0.99950 -0.07215
 O104 O 0.13886 1.00009 -0.07304
 O105 O -0.00189 1.07163 -0.13908
 O106 O 0.00215 0.92563 -0.13782
 O107 O 0.00269 0.86032 -0.07151
 O108 O -0.00271 1.13794 -0.07371
 O109 O 0.07295 0.99605 -0.13856
 O110 O -0.07274 0.99990 -0.13820
 Zr111 Zr 0.00020 0.99898 -0.09455
 O112 O 0.04960 0.95085 -0.04839
 O113 O -0.04892 1.04791 -0.04881
 C114 C -0.12243 1.00008 -0.12207
 C115 C 0.12270 0.99734 -0.12271
 C116 C -0.00328 1.12160 -0.12342
 C117 C 0.00319 0.87591 -0.12146
 H118 H 0.07122 1.07156 -0.07219
 O119 O 0.04853 1.04851 -0.04893
 H120 H -0.07080 0.92696 -0.07046
 O121 O -0.04790 0.95036 -0.04775
 O122 O 0.13936 1.00341 0.07268
 O123 O -0.13755 0.99688 0.07407
 O124 O 0.07214 1.13935 0.00063
 O125 O 0.07432 0.86162 -0.00125
 O126 O -0.07126 0.86037 0.00322
 O127 O -0.07343 1.13794 -0.00273
 O128 O 0.00263 1.07393 0.13842
 O129 O 0.00027 0.92788 0.13969
 O130 O 0.00141 1.13929 0.07215
 O131 O -0.00043 0.86161 0.07428
 O132 O 0.13828 1.07402 0.00163
 O133 O -0.13866 1.07163 -0.00089
 O134 O -0.13739 0.92573 0.00347
 O135 O 0.13957 0.92795 -0.00129
 O136 O 0.07398 1.00383 0.13878
 O137 O -0.07158 0.99894 0.13958
 Zr138 Zr 0.09521 1.00063 0.00001
 Zr139 Zr -0.09420 0.99903 0.00079
 Zr140 Zr -0.00027 1.09471 -0.00044
 Zr141 Zr 0.00120 0.90491 0.00103
 Zr142 Zr 0.00098 1.00057 0.09524
 O143 O -0.04772 0.95087 0.04988
 O144 O 0.04914 1.04958 0.04867
 C145 C 0.12364 1.00491 0.12256
 C146 C -0.12137 0.99706 0.12385
 C147 C 0.12198 1.12375 0.00183
 C148 C 0.12394 0.87797 -0.00209
 C149 C -0.12110 0.87601 0.00431
 C150 C -0.12306 1.12158 -0.00268
 C151 C 0.00288 1.12366 0.12208
 C152 C -0.00080 0.87792 0.12400
 H153 H -0.07129 1.07153 0.07182
 O154 O -0.04825 1.04851 0.04888
 H155 H 0.07297 0.92920 0.07231
 O156 O 0.04971 0.95184 0.04922
 C157 C 0.28538 1.01105 0.28265
 N158 N 0.27241 1.01833 0.33525
 N159 N 0.31039 1.01755 0.37313
 C160 C 0.36297 1.00921 0.36026
 N161 N 0.37561 1.00230 0.30732
 N162 N 0.33773 1.00323 0.26934
 C163 C 0.24338 1.01051 0.24098
 N164 N 0.25662 1.00573 0.18808
 N165 N 0.21847 1.00425 0.15036
 C166 C 0.16567 1.00729 0.16414
 N167 N 0.15244 1.01214 0.21705
 N168 N 0.19060 1.01377 0.25476
 C169 C -0.28189 0.99609 0.28536
 N170 N -0.27026 1.01210 0.33640
 N171 N -0.30847 1.01325 0.37409
 C172 C -0.35972 0.99816 0.36230
 N173 N -0.37114 0.98186 0.31125
 N174 N -0.33304 0.98101 0.27348
 C175 C -0.24003 0.99562 0.24352
 N176 N -0.25315 0.98696 0.19108
 N177 N -0.21534 0.98730 0.15298
 C178 C -0.16297 0.99599 0.16595
 N179 N -0.14981 1.00438 0.21844
 N180 N -0.18767 1.00435 0.25651
 C181 C -0.28335 0.99567 -0.28307
 N182 N -0.27076 1.00345 -0.33573
 N183 N -0.30909 1.00329 -0.37331
 C184 C -0.36164 0.99531 -0.36000
 N185 N -0.37368 0.98685 -0.30717
 N186 N -0.33550 0.98715 -0.26952
 C187 C -0.24145 0.99695 -0.24131
 N188 N -0.25486 0.99335 -0.18835
 N189 N -0.21699 0.99473 -0.15035
 C190 C -0.16429 0.99969 -0.16391
 N191 N -0.15087 1.00328 -0.21688
 N192 N -0.18877 1.00207 -0.25488
 C193 C 0.28206 0.99818 -0.28462
 N194 N 0.29086 0.95402 -0.31572
 N195 N 0.32924 0.95438 -0.35324
 C196 C 0.35954 0.99919 -0.36177
 N197 N 0.35015 1.04351 -0.33100
 N198 N 0.31248 1.04288 -0.29280
 C199 C 0.24072 0.99754 -0.24250
 N200 N 0.24769 1.02626 -0.19644
 N201 N 0.21032 1.02556 -0.15793
 C202 C 0.16426 0.99689 -0.16457
 N203 N 0.15707 0.96851 -0.21083
 N204 N 0.19490 0.96841 -0.24893
 C205 C 0.28278 1.28491 0.00180
 N206 N 0.26984 1.33767 -0.00452
 N207 N 0.30813 1.37530 -0.00551
 C208 C 0.36097 1.36193 -0.00016
 N209 N 0.37348 1.30891 0.00630
 N210 N 0.33531 1.27121 0.00718
 C211 C 0.24082 1.24321 0.00241
 N212 N 0.25432 1.19027 0.00586
 N213 N 0.21642 1.15228 0.00586
 C214 C 0.16359 1.16581 0.00256
 N215 N 0.15005 1.21878 -0.00071
 N216 N 0.18799 1.25679 -0.00084
 C217 C 0.28512 0.71729 -0.00314
 N218 N 0.27364 0.66616 -0.01900
 N219 N 0.31164 0.62827 -0.01881
 C220 C 0.36252 0.63993 -0.00244
 N221 N 0.37380 0.69109 0.01369
 N222 N 0.33591 0.72908 0.01317
 C223 C 0.24330 0.75911 -0.00341
 N224 N 0.25629 0.81163 0.00511
 N225 N 0.21832 0.84957 0.00510
 C226 C 0.16593 0.83633 -0.00310
 N227 N 0.15295 0.78379 -0.01154
 N228 N 0.19096 0.74590 -0.01188
 C229 C -0.28182 0.71478 0.00462
 N230 N -0.33438 0.72843 0.00984
 N231 N -0.37253 0.69073 0.00855
 C232 C -0.35998 0.63774 0.00181
 N233 N -0.30711 0.62443 -0.00335
 N234 N -0.26884 0.66206 -0.00195
 C235 C -0.23989 0.75650 0.00546
 N236 N -0.18705 0.74294 0.00235
 N237 N -0.14913 0.78097 0.00241
 C238 C -0.16270 0.83394 0.00550
 N239 N -0.21554 0.84746 0.00872
 N240 N -0.25342 0.80944 0.00877
 C241 C -0.28420 1.28232 -0.00371
 N242 N -0.27266 1.33348 -0.01939
 N243 N -0.31063 1.37140 -0.01911
 C244 C -0.36154 1.35973 -0.00284
 N245 N -0.37287 1.30854 0.01312
 N246 N -0.33501 1.27053 0.01253
 C247 C -0.24240 1.24047 -0.00404
 N248 N -0.25536 1.18800 0.00483
 N249 N -0.21740 1.15005 0.00483
 C250 C -0.16506 1.16323 -0.00376
 N251 N -0.15210 1.21571 -0.01258
 N252 N -0.19010 1.25361 -0.01289
 C253 C 0.00480 1.28484 0.28310
 N254 N 0.00865 1.27103 0.33584
 N255 N 0.00797 1.30877 0.37405
 C256 C 0.00329 1.36194 0.36134
 N257 N -0.00047 1.37541 0.30829
 N258 N 0.00029 1.33774 0.26997
 C259 C 0.00497 1.24311 0.24110
 N260 N 0.00227 1.25673 0.18814
 N261 N 0.00186 1.21871 0.15015
 C262 C 0.00407 1.16570 0.16376
 N263 N 0.00685 1.15213 0.21672
 N264 N 0.00734 1.19013 0.25468
 C265 C -0.00482 1.28258 -0.28467
 N266 N -0.00051 1.26907 -0.33747
 N267 N 0.00008 1.30709 -0.37538
 C268 C -0.00368 1.36027 -0.36233
 N269 N -0.00798 1.37343 -0.30923
 N270 N -0.00850 1.33548 -0.27122
 C271 C -0.00511 1.24069 -0.24282
 N272 N -0.00734 1.25432 -0.18986
 N273 N -0.00701 1.21634 -0.15187
 C274 C -0.00455 1.16333 -0.16543
 N275 N -0.00248 1.14968 -0.21842
 N276 N -0.00273 1.18768 -0.25642
 C277 C 0.00168 0.71421 -0.28198
 N278 N -0.00361 0.66141 -0.26868
 N279 N -0.00522 0.62364 -0.30689
 C280 C -0.00159 0.63693 -0.36001
 N281 N 0.00386 0.68999 -0.37286
 N282 N 0.00538 0.72781 -0.33478
 C283 C 0.00291 0.75607 -0.24012
 N284 N 0.00552 0.80899 -0.25391
 N285 N 0.00592 0.84714 -0.21609
 C286 C 0.00386 0.83376 -0.16305
 N287 N 0.00145 0.78081 -0.14923
 N288 N 0.00095 0.74265 -0.18708
 C289 C -0.00218 0.71702 0.28522
 N290 N -0.01704 0.66570 0.27328
 N291 N -0.01710 0.62773 0.31128
 C292 C -0.00200 0.63952 0.36261
 N293 N 0.01312 0.69088 0.37435
 N294 N 0.01287 0.72893 0.33645
 C295 C -0.00220 0.75890 0.24340
 N296 N 0.00594 0.81144 0.25656
 N297 N 0.00606 0.84944 0.21857
 C298 C -0.00167 0.83623 0.16601
 N299 N -0.00974 0.78367 0.15285
 N300 N -0.01017 0.74572 0.19087
   
