data_POSCAR
  _audit_creation_date              2014-09-24
  _audit_creation_method            'ToBaCCo'
  _symmetry_space_group_name_H-M    'P1'
  _symmetry_Int_Tables_number       1
  _symmetry_cell_setting            triclinic
  loop_
  _symmetry_equiv_pos_as_xyz
 x,y,z
_cell_length_a 29.8330
_cell_length_b 21.5866
_cell_length_c 20.5783
_cell_angle_alpha 89.894100
_cell_angle_beta 90.072400
_cell_angle_gamma 90.219700
loop_
  _atom_site_label
  _atom_site_type_symbol
  _atom_site_fract_x
  _atom_site_fract_y
  _atom_site_fract_z
C1 C 0.21633 0.21436 0.21622
 C2 C 0.21639 0.27972 0.21633
 C3 C 0.25004 0.31189 0.24990
 C4 C 0.28365 0.27980 0.28339
 C5 C 0.28364 0.21444 0.28331
 C6 C 0.24997 0.18219 0.24972
 H7 H 0.24994 0.13187 0.24965
 H8 H 0.25006 0.36215 0.24997
 C9 C 0.78425 0.28449 0.21582
 C10 C 0.78404 0.21912 0.21583
 C11 C 0.75030 0.18693 0.24923
 C12 C 0.71680 0.21908 0.28263
 C13 C 0.71701 0.28433 0.28270
 C14 C 0.75070 0.31662 0.24930
 H15 H 0.75073 0.36690 0.24945
 H16 H 0.75012 0.13667 0.24923
 C17 C 0.71689 0.71956 0.71706
 C18 C 0.71688 0.78481 0.71711
 C19 C 0.75046 0.81714 0.75069
 C20 C 0.78411 0.78505 0.78427
 C21 C 0.78408 0.71968 0.78420
 C22 C 0.75047 0.68745 0.75059
 H23 H 0.75044 0.63719 0.75051
 H24 H 0.75035 0.86742 0.75061
 C25 C 0.28298 0.78103 0.71704
 C26 C 0.28299 0.71578 0.71721
 C27 C 0.24947 0.68340 0.75086
 C28 C 0.21590 0.71542 0.78441
 C29 C 0.21593 0.78079 0.78423
 C30 C 0.24948 0.81308 0.75053
 H31 H 0.24950 0.86334 0.75038
 H32 H 0.24958 0.63311 0.75087
 O33 O 1.04318 -0.07945 -0.00434
 O34 O 0.95636 0.00836 0.08264
 O35 O 0.95589 -0.07875 -0.00477
 O36 O 1.04368 0.00762 0.08310
 O37 O 1.04429 0.07851 0.00538
 O38 O 0.95650 -0.00785 -0.08249
 O39 O 0.95698 0.07925 0.00491
 O40 O 1.04380 -0.00856 -0.08206
 Cu41 Cu 0.99971 -0.04271 0.04700
 Cu42 Cu 1.00045 0.04250 -0.04640
 C43 C 1.05814 -0.05882 -0.05788
 C44 C 0.94200 0.05861 0.05844
 C45 C 0.94138 -0.05788 -0.05846
 C46 C 1.05881 0.05764 0.05906
 O47 O 0.54352 0.57964 0.50484
 O48 O 0.45636 0.49149 0.41760
 O49 O 0.45621 0.57865 0.50497
 O50 O 0.54365 0.49255 0.41741
 O51 O 0.54402 0.42168 0.49516
 O52 O 0.45657 0.50778 0.58271
 O53 O 0.45673 0.42063 0.49535
 O54 O 0.54388 0.50877 0.58258
 Cu55 Cu 0.49989 0.54274 0.45337
 Cu56 Cu 0.50033 0.45756 0.54680
 C57 C 0.55841 0.55907 0.55844
 C58 C 0.44184 0.44117 0.44174
 C59 C 0.44163 0.55775 0.55861
 C60 C 0.55859 0.44258 0.44150
 O61 O -0.04284 0.57916 -0.00429
 O62 O 0.04407 0.49097 0.08271
 O63 O 0.04445 0.57845 -0.00463
 O64 O -0.04323 0.49171 0.08307
 O65 O -0.04394 0.42115 0.00529
 O66 O 0.04375 0.50789 -0.08241
 O67 O 0.04336 0.42041 0.00493
 O68 O -0.04355 0.50860 -0.08207
 Cu69 Cu 0.00069 0.54219 0.04706
 Cu70 Cu -0.00017 0.45739 -0.04641
 C71 C -0.05787 0.55876 -0.05787
 C72 C 0.05839 0.44081 0.05851
 C73 C 0.05890 0.55782 -0.05832
 C74 C -0.05839 0.44179 0.05897
 O75 O 0.54303 1.00891 0.41667
 O76 O 0.45591 0.92101 0.50429
 O77 O 0.45570 1.00806 0.41647
 O78 O 0.54321 0.92189 0.50447
 O79 O 0.54304 0.99283 0.58188
 O80 O 0.45552 1.07900 0.49388
 O81 O 0.45574 0.99195 0.58170
 O82 O 0.54285 1.07984 0.49407
 Cu83 Cu 0.49948 0.95782 0.45266
 Cu84 Cu 0.49926 1.04307 0.54568
 C85 C 0.55767 1.05918 0.44061
 C86 C 0.44113 0.94163 0.55779
 C87 C 0.44083 1.05807 0.44034
 C88 C 0.55790 0.94282 0.55802
 C89 C 1.18398 0.18154 0.18397
 C90 C 1.15535 0.15288 0.15543
 C91 C 1.12175 0.11958 0.12192
 C92 C 1.09302 0.09127 0.09325
 C93 C 0.68281 0.68476 0.68295
 C94 C 0.65431 0.65587 0.65441
 C95 C 0.62091 0.62215 0.62095
 C96 C 0.59237 0.59336 0.59240
 C97 C -0.18340 0.31736 0.18366
 C98 C -0.15478 0.34611 0.15518
 C99 C -0.12122 0.37954 0.12173
 C100 C -0.09253 0.40800 0.09310
 C101 C 0.31699 0.81589 0.68282
 C102 C 0.34542 0.84483 0.65419
 C103 C 0.37875 0.87859 0.62062
 C104 C 0.40722 0.90738 0.59192
 C105 C -0.18191 0.68474 -0.18184
 C106 C -0.15349 0.65576 -0.15345
 C107 C -0.12018 0.62195 -0.12018
 C108 C -0.09172 0.59310 -0.09174
 C109 C 0.31594 1.18170 0.31549
 C110 C 0.34452 1.15310 0.34398
 C111 C 0.37805 1.11987 0.37746
 C112 C 0.40672 1.09162 0.40613
 C113 C 1.18199 -0.18434 -0.18183
 C114 C 1.15362 -0.15545 -0.15346
 C115 C 1.12036 -0.12176 -0.12019
 C116 C 1.09195 -0.09301 -0.09175
 C117 C 0.68302 0.31891 0.31672
 C118 C 0.65456 0.34750 0.34525
 C119 C 0.62116 0.38073 0.37874
 C120 C 0.59261 0.40901 0.40739
 C121 C 0.81640 -0.18206 -0.18346
 C122 C 0.84498 -0.15332 -0.15490
 C123 C 0.87852 -0.11994 -0.12136
 C124 C 0.90721 -0.09156 -0.09267
 C125 C 0.31768 0.31488 0.31741
 C126 C 0.34612 0.34396 0.34586
 C127 C 0.37945 0.37789 0.37923
 C128 C 0.40793 0.40681 0.40776
 C129 C 0.18367 0.68246 -0.18328
 C130 C 0.15514 0.65364 -0.15469
 C131 C 0.12165 0.62014 -0.12115
 C132 C 0.09302 0.59164 -0.09248
 C133 C 0.68256 1.18433 0.31649
 C134 C 0.65392 1.15554 0.34484
 C135 C 0.62036 1.12196 0.37813
 C136 C 0.59171 1.09330 0.40662
 C137 C 0.18239 0.31471 0.18241
 C138 C 0.15398 0.34373 0.15406
 C139 C 0.12068 0.37758 0.12080
 C140 C 0.09224 0.40646 0.09237
 C141 C 0.68276 0.81935 0.68304
 C142 C 0.65419 0.84788 0.65448
 C143 C 0.62066 0.88105 0.62095
 C144 C 0.59201 0.90928 0.59224
 C145 C 0.81799 0.18416 0.18202
 C146 C 0.84639 0.15523 0.15376
 C147 C 0.87970 0.12151 0.12061
 C148 C 0.90815 0.09278 0.09225
 C149 C 0.31703 0.68129 0.68320
 C150 C 0.34554 0.65276 0.65471
 C151 C 0.37899 0.61956 0.62129
 C152 C 0.40758 0.59130 0.59269
   
