data_POSCAR
  _audit_creation_date              2014-09-24
  _audit_creation_method            'ToBaCCo'
  _symmetry_space_group_name_H-M    'P1'
  _symmetry_Int_Tables_number       1
  _symmetry_cell_setting            triclinic
  loop_
  _symmetry_equiv_pos_as_xyz
 x,y,z
_cell_length_a 50.7659
_cell_length_b 50.7620
_cell_length_c 50.8238
_cell_angle_alpha 88.926400
_cell_angle_beta 88.764100
_cell_angle_gamma 89.030500
loop_
  _atom_site_label
  _atom_site_type_symbol
  _atom_site_fract_x
  _atom_site_fract_y
  _atom_site_fract_z
C1 C 0.75459 0.61945 0.99685
 C2 C 0.75279 0.38047 0.49774
 C3 C 0.24858 -0.11748 0.00230
 C4 C 0.25712 0.11802 0.49945
 C5 C 0.12077 0.49775 0.25660
 C6 C -0.12080 -0.00153 0.24803
 C7 C 0.38259 0.50173 0.75032
 C8 C 0.61717 1.00075 0.75416
 C9 C 0.00093 0.25448 -0.11743
 C10 C 0.49904 0.25382 0.11866
 C11 C 0.99793 0.75923 0.62116
 C12 C 0.50140 0.74814 0.38220
 C13 C 0.41964 -0.02773 0.27761
 H14 H 0.42089 -0.00895 0.28720
 C15 C 0.43292 -0.04985 0.28791
 H16 H 0.44436 -0.04789 0.30548
 C17 C 0.40157 -0.05344 0.24424
 H18 H 0.38875 -0.05507 0.22772
 C19 C 0.41454 -0.07596 0.25379
 H20 H 0.41202 -0.09447 0.24398
 N21 N 0.40408 -0.02996 0.25634
 C22 C 0.38781 0.04831 0.22325
 H23 H 0.36663 0.04666 0.22242
 C24 C 0.39988 0.07130 0.21432
 H25 H 0.38784 0.08717 0.20625
 C26 C 0.42910 0.02924 0.23455
 H27 H 0.44030 0.01277 0.24252
 C28 C 0.44207 0.05198 0.22566
 H29 H 0.46329 0.05294 0.22702
 Zn30 Zn 0.38252 -0.00090 0.24602
 N31 N 0.40239 0.02806 0.23351
 C32 C 0.36649 0.03380 0.28589
 N33 N 0.36244 0.00948 0.27609
 C34 C 0.34637 -0.00796 0.28888
 C35 C 0.33361 -0.00111 0.31255
 C36 C 0.35430 0.04136 0.30941
 C37 C 0.37434 -0.01512 0.19487
 C38 C 0.36101 -0.02349 0.17298
 C39 C 0.32034 -0.02170 0.19852
 C40 C 0.33453 -0.01331 0.22006
 N41 N 0.36113 -0.01074 0.21796
 H42 H 0.37983 0.04720 0.27599
 H43 H 0.34398 -0.02743 0.28104
 H44 H 0.32127 -0.01534 0.32280
 H45 H 0.35791 0.06079 0.31687
 H46 H 0.39544 -0.01249 0.19367
 H47 H 0.37200 -0.02701 0.15485
 H48 H 0.29929 -0.02443 0.20066
 H49 H 0.32435 -0.00926 0.23846
 C50 C 0.42731 0.07350 0.21572
 C51 C 0.43001 -0.07451 0.27626
 C52 C 0.33372 -0.02732 0.17472
 C53 C 0.33790 0.02373 0.32325
 C54 C 0.08229 1.02987 0.78333
 H55 H 0.08013 1.01100 0.79331
 C56 C 0.06944 1.05225 0.79335
 H57 H 0.05742 1.05040 0.81112
 C58 C 0.10213 1.05549 0.74911
 H59 H 0.11544 1.05695 0.73233
 C60 C 0.08963 1.07826 0.75838
 H61 H 0.09302 1.09682 0.74811
 N62 N 0.09847 1.03192 0.76173
 C63 C 0.11219 0.95333 0.73049
 H64 H 0.13350 0.95376 0.72972
 C65 C 0.09920 0.93140 0.72155
 H66 H 0.11069 0.91509 0.71365
 C67 C 0.07152 0.97461 0.74110
 H68 H 0.06090 0.99160 0.74861
 C69 C 0.05764 0.95301 0.73216
 H70 H 0.03631 0.95342 0.73310
 Zn71 Zn 0.11914 1.00227 0.75143
 N72 N 0.09833 0.97420 0.74030
 C73 C 0.13458 0.96673 0.79166
 N74 N 0.13891 0.99106 0.78094
 C75 C 0.15546 1.00810 0.79231
 C76 C 0.16858 1.00074 0.81532
 C77 C 0.14714 0.95865 0.81460
 C78 C 0.12801 1.01703 0.69964
 C79 C 0.14172 1.02538 0.67708
 C80 C 0.18224 1.02161 0.70107
 C81 C 0.16766 1.01328 0.72331
 N82 N 0.14097 1.01173 0.72230
 H83 H 0.12085 0.95368 0.78286
 H84 H 0.15807 1.02759 0.78378
 H85 H 0.18137 1.01465 0.82438
 H86 H 0.14342 0.93917 0.82274
 H87 H 0.10681 1.01521 0.69932
 H88 H 0.13093 1.02969 0.65932
 H89 H 0.20337 1.02354 0.70234
 H90 H 0.17764 1.00849 0.74138
 C91 C 0.07157 0.93096 0.72242
 C92 C 0.07345 1.07696 0.78109
 C93 C 0.16914 1.02822 0.67770
 C94 C 0.16421 0.97581 0.82688
 C95 C 0.58332 0.52448 0.28073
 H96 H 0.58175 0.50552 0.29067
 C97 C 0.57039 0.54659 0.29122
 H98 H 0.55889 0.54445 0.30930
 C99 C 0.60181 0.55060 0.24614
 H100 H 0.61464 0.55237 0.22902
 C101 C 0.58920 0.57312 0.25587
 H102 H 0.59201 0.59179 0.24563
 N103 N 0.59889 0.52691 0.25873
 C104 C 0.61318 0.44876 0.22672
 H105 H 0.63446 0.44953 0.22547
 C106 C 0.60032 0.42669 0.21794
 H107 H 0.61187 0.41062 0.20966
 C108 C 0.57243 0.46933 0.23840
 H109 H 0.56173 0.48611 0.24627
 C110 C 0.55868 0.44759 0.22964
 H111 H 0.53736 0.44765 0.23107
 Zn112 Zn 0.61982 0.49768 0.24783
 N113 N 0.59922 0.46935 0.23699
 C114 C 0.63675 0.46217 0.28746
 N115 N 0.64036 0.48667 0.27685
 C116 C 0.65671 0.50401 0.28807
 C117 C 0.67032 0.49682 0.31084
 C118 C 0.64982 0.45425 0.31016
 C119 C 0.62746 0.51276 0.19593
 C120 C 0.64064 0.52141 0.17316
 C121 C 0.68162 0.51838 0.19645
 C122 C 0.66758 0.50972 0.21890
 N123 N 0.64091 0.50766 0.21834
 H124 H 0.62318 0.44887 0.27880
 H125 H 0.65875 0.52361 0.27963
 H126 H 0.68290 0.51097 0.31981
 H127 H 0.64663 0.43464 0.31825
 H128 H 0.60631 0.51054 0.19597
 H129 H 0.62947 0.52554 0.15560
 H130 H 0.70273 0.52073 0.19738
 H131 H 0.67795 0.50508 0.23678
 C132 C 0.57272 0.42582 0.21943
 C133 C 0.57368 0.57143 0.27901
 C134 C 0.66801 0.52477 0.17333
 C135 C 0.66664 0.47173 0.32232
 C136 C 0.91468 0.47739 0.77770
 H137 H 0.91449 0.49614 0.78749
 C138 C 0.92804 0.45569 0.78879
 H139 H 0.93810 0.45794 0.80715
 C140 C 0.90017 0.45126 0.74288
 H141 H 0.88875 0.44928 0.72539
 C142 C 0.91328 0.42917 0.75319
 H143 H 0.91225 0.41066 0.74305
 N144 N 0.90086 0.47474 0.75529
 C145 C 0.88480 0.55169 0.71899
 H146 H 0.86397 0.54915 0.71599
 C147 C 0.89683 0.57487 0.71054
 H148 H 0.88517 0.58996 0.70066
 C149 C 0.92520 0.53475 0.73531
 H150 H 0.93607 0.51904 0.74506
 C151 C 0.93813 0.55771 0.72703
 H152 H 0.95894 0.55961 0.73063
 Zn153 Zn 0.87914 0.50307 0.74331
 N154 N 0.89889 0.53242 0.73153
 C155 C 0.85688 0.53873 0.77971
 N156 N 0.85674 0.51329 0.77179
 C157 C 0.84236 0.49481 0.78517
 C158 C 0.82737 0.50172 0.80751
 C159 C 0.84205 0.54651 0.80167
 C160 C 0.87372 0.48826 0.69163
 C161 C 0.86145 0.47935 0.66932
 C162 C 0.82004 0.47936 0.69369
 C163 C 0.83317 0.48833 0.71564
 N164 N 0.85964 0.49211 0.71431
 H165 H 0.86898 0.55303 0.76947
 H166 H 0.84296 0.47460 0.77876
 H167 H 0.81617 0.48680 0.81809
 H168 H 0.84293 0.56675 0.80791
 H169 H 0.89469 0.49180 0.69106
 H170 H 0.87310 0.47633 0.65150
 H171 H 0.79911 0.47571 0.69524
 H172 H 0.82230 0.49187 0.73377
 C173 C 0.92376 0.57829 0.71481
 C174 C 0.92700 0.43103 0.77674
 C175 C 0.83432 0.47440 0.67024
 C176 C 0.82716 0.52791 0.81598
 C177 C 0.28024 0.41771 -0.02355
 H178 H 0.28933 0.41847 -0.00452
 C179 C 0.29133 0.43132 -0.04513
 H180 H 0.30871 0.44295 -0.04242
 C181 C 0.24706 0.40087 -0.05033
 H182 H 0.23035 0.38830 -0.05257
 C183 C 0.25745 0.41415 -0.07237
 H184 H 0.24848 0.41162 -0.09128
 N185 N 0.25859 0.40272 -0.02654
 C186 C 0.22276 0.38690 0.05078
 H187 H 0.22053 0.36589 0.04874
 C188 C 0.21410 0.39905 0.07379
 H189 H 0.20483 0.38726 0.08925
 C190 C 0.23733 0.42767 0.03277
 H191 H 0.24645 0.43867 0.01671
 C192 C 0.22878 0.44071 0.05553
 H193 H 0.23158 0.46174 0.05692
 Zn194 Zn 0.24677 0.38119 0.00205
 N195 N 0.23458 0.40114 0.03107
 C196 C 0.28389 0.36057 0.03780
 N197 N 0.27559 0.35952 0.01258
 C198 C 0.28867 0.34453 -0.00555
 C199 C 0.31096 0.32966 0.00154
 C200 C 0.30584 0.34591 0.04575
 C201 C 0.19535 0.37436 -0.01329
 C202 C 0.17301 0.36113 -0.02088
 C203 C 0.19765 0.32008 -0.01780
 C204 C 0.21959 0.33414 -0.01016
 N205 N 0.21810 0.36083 -0.00837
 H206 H 0.27390 0.37320 0.05178
 H207 H 0.28196 0.34441 -0.02561
 H208 H 0.32121 0.31784 -0.01308
 H209 H 0.31234 0.34743 0.06581
 H210 H 0.19470 0.39557 -0.01148
 H211 H 0.15529 0.37239 -0.02528
 H212 H 0.19910 0.29884 -0.01913
 H213 H 0.23772 0.32373 -0.00567
 C214 C 0.21736 0.42624 0.07656
 C215 C 0.28011 0.42934 -0.07005
 C216 C 0.17398 0.33363 -0.02331
 C217 C 0.31974 0.33025 0.02754
 C218 C 0.78343 0.08204 1.02186
 H219 H 0.79292 0.08095 1.00263
 C220 C 0.79400 0.06799 1.04320
 H221 H 0.81142 0.05574 1.04014
 C222 C 0.74968 0.10002 1.04935
 H223 H 0.73295 0.11318 1.05197
 C224 C 0.75953 0.08632 1.07115
 H225 H 0.75013 0.08915 1.09024
 N226 N 0.76173 0.09777 1.02531
 C227 C 0.72809 0.11414 0.94832
 H228 H 0.72660 0.13536 0.94969
 C229 C 0.71882 0.10176 0.92621
 H230 H 0.70997 0.11361 0.91072
 C231 C 0.74069 0.07302 0.96746
 H232 H 0.74904 0.06196 0.98372
 C233 C 0.73149 0.05975 0.94565
 H234 H 0.73313 0.03847 0.94515
 Zn235 Zn 0.75028 0.11956 0.99695
 N236 N 0.73904 0.09978 0.96822
 C237 C 0.78828 0.14005 0.96098
 N238 N 0.77887 0.14101 0.98620
 C239 C 0.79058 0.15604 1.00436
 C240 C 0.81247 0.17117 0.99726
 C241 C 0.80994 0.15494 0.95303
 C242 C 0.69850 0.12666 1.01355
 C243 C 0.67583 0.13982 1.02245
 C244 C 0.69926 0.18083 1.01895
 C245 C 0.72159 0.16681 1.01009
 N246 N 0.72090 0.14015 1.00803
 H247 H 0.77934 0.12739 0.94700
 H248 H 0.78301 0.15608 1.02442
 H249 H 0.82150 0.18313 1.01189
 H250 H 0.81734 0.15357 0.93294
 H251 H 0.69842 0.10551 1.01130
 H252 H 0.65823 0.12865 1.02680
 H253 H 0.70029 0.20196 1.02116
 H254 H 0.73946 0.17722 1.00513
 C255 C 0.72053 0.07422 0.92459
 C256 C 0.78218 0.07029 1.06834
 C257 C 0.67610 0.16723 1.02559
 C258 C 0.82235 0.17077 0.97124
 C259 C 0.28163 0.58361 0.52593
 H260 H 0.29066 0.58223 0.50652
 C261 C 0.29261 0.56973 0.54718
 H262 H 0.30986 0.55731 0.54385
 C263 C 0.24871 0.60220 0.55399
 H264 H 0.23216 0.61554 0.55685
 C265 C 0.25897 0.58868 0.57570
 H266 H 0.25006 0.59182 0.59496
 N267 N 0.26015 0.59957 0.52971
 C268 C 0.22384 0.61557 0.45396
 H269 H 0.22252 0.63680 0.45529
 C270 C 0.21322 0.60311 0.43255
 H271 H 0.20403 0.61497 0.41726
 C272 C 0.23770 0.57451 0.47238
 H273 H 0.24695 0.56349 0.48816
 C274 C 0.22736 0.56119 0.45114
 H275 H 0.22870 0.53989 0.45076
 Zn276 Zn 0.24823 0.62118 0.50141
 N277 N 0.23587 0.60126 0.47326
 C278 C 0.28543 0.64080 0.46413
 N279 N 0.27684 0.64207 0.48961
 C280 C 0.28948 0.65686 0.50731
 C281 C 0.31165 0.67127 0.49953
 C282 C 0.30735 0.65498 0.45550
 C283 C 0.19697 0.62922 0.51926
 C284 C 0.17463 0.64284 0.52831
 C285 C 0.19852 0.68349 0.52353
 C286 C 0.22052 0.66902 0.51455
 N287 N 0.21943 0.64233 0.51301
 H288 H 0.27567 0.62839 0.45050
 H289 H 0.28250 0.65718 0.52757
 H290 H 0.32147 0.68297 0.51384
 H291 H 0.31414 0.65328 0.43525
 H292 H 0.19656 0.60804 0.51740
 H293 H 0.15696 0.63197 0.53319
 H294 H 0.19984 0.70465 0.52524
 H295 H 0.23844 0.67910 0.50902
 C296 C 0.21479 0.57556 0.43095
 C297 C 0.28143 0.57244 0.57255
 C298 C 0.17529 0.67031 0.53083
 C299 C 0.32083 0.67040 0.47329
 C300 C 0.77662 0.91779 0.47490
 H301 H 0.78557 0.91910 0.49395
 C302 C 0.78736 0.93152 0.45321
 H303 H 0.80431 0.94377 0.45585
 C304 C 0.74419 0.89950 0.44818
 H305 H 0.72793 0.88634 0.44602
 C306 C 0.75425 0.91286 0.42603
 H307 H 0.74548 0.90978 0.40712
 N308 N 0.75552 0.90203 0.47200
 C309 C 0.71966 0.88621 0.54930
 H310 H 0.71809 0.86509 0.54753
 C311 C 0.71043 0.89843 0.57206
 H312 H 0.70139 0.88659 0.58762
 C313 C 0.73313 0.92716 0.53082
 H314 H 0.74204 0.93820 0.51467
 C315 C 0.72401 0.94028 0.55333
 H316 H 0.72617 0.96141 0.55444
 Zn317 Zn 0.74420 0.88053 0.50081
 N318 N 0.73120 0.90052 0.52948
 C319 C 0.78167 0.86165 0.53705
 N320 N 0.77357 0.85988 0.51182
 C321 C 0.78720 0.84494 0.49403
 C322 C 0.80986 0.83086 0.50150
 C323 C 0.80397 0.84778 0.54537
 C324 C 0.69313 0.87202 0.48541
 C325 C 0.67117 0.85808 0.47797
 C326 C 0.69690 0.81773 0.48154
 C327 C 0.71843 0.83250 0.48902
 N328 N 0.71621 0.85917 0.49051
 H329 H 0.77123 0.87424 0.55075
 H330 H 0.78064 0.84426 0.47394
 H331 H 0.82053 0.81906 0.48715
 H332 H 0.81028 0.84985 0.56544
 H333 H 0.69189 0.89323 0.48697
 H334 H 0.65317 0.86881 0.47344
 H335 H 0.69892 0.79651 0.48045
 H336 H 0.73682 0.82263 0.49365
 C337 C 0.71284 0.92576 0.57448
 C338 C 0.77636 0.92884 0.42826
 C339 C 0.67288 0.83057 0.47588
 C340 C 0.81843 0.83217 0.52753
 C341 C -0.02147 0.27619 0.41434
 H342 H -0.00223 0.28499 0.41479
 C343 C -0.04273 0.28768 0.42812
 H344 H -0.03957 0.30509 0.43956
 C345 C -0.04915 0.24336 0.39812
 H346 H -0.05189 0.22665 0.38572
 C347 C -0.07087 0.25415 0.41159
 H348 H -0.09000 0.24545 0.40936
 N349 N -0.02506 0.25452 0.39958
 C350 C 0.05122 0.21675 0.38317
 H351 H 0.04894 0.21439 0.36223
 C352 C 0.07407 0.20755 0.39518
 H353 H 0.08917 0.19777 0.38338
 C354 C 0.03394 0.23215 0.42387
 H355 H 0.01823 0.24180 0.43489
 C356 C 0.05656 0.22312 0.43677
 H357 H 0.05819 0.22611 0.45770
 Zn358 Zn 0.00307 0.24203 0.37778
 N359 N 0.03196 0.22920 0.39743
 C360 C 0.03968 0.27830 0.35664
 N361 N 0.01418 0.27059 0.35593
 C362 C -0.00385 0.28430 0.34146
 C363 C 0.00357 0.30679 0.32697
 C364 C 0.04796 0.30044 0.34234
 C365 C -0.01377 0.19105 0.37164
 C366 C -0.02302 0.16906 0.35897
 C367 C -0.02052 0.19343 0.31772
 C368 C -0.01128 0.21507 0.33125
 N369 N -0.00853 0.21358 0.35780
 H370 H 0.05361 0.26778 0.36884
 H371 H -0.02412 0.27804 0.34161
 H372 H -0.01101 0.31762 0.31568
 H373 H 0.06822 0.30654 0.34372
 H374 H -0.01101 0.19033 0.39270
 H375 H -0.02711 0.15133 0.37042
 H376 H -0.02326 0.19510 0.29668
 H377 H -0.00661 0.23306 0.32058
 C378 C 0.07715 0.21098 0.42226
 C379 C -0.06793 0.27683 0.42656
 C380 C -0.02684 0.17015 0.33170
 C381 C 0.02981 0.31512 0.32739
 C382 C 1.02609 0.77881 0.08480
 H383 H 1.00712 0.78866 0.08312
 C384 C 1.04824 0.78925 0.07179
 H385 H 1.04611 0.80719 0.06012
 C386 C 1.05220 0.74452 0.10359
 H387 H 1.05392 0.72752 0.11654
 C388 C 1.07476 0.75421 0.09091
 H389 H 1.09343 0.74406 0.09381
 N390 N 1.02849 0.75698 0.10055
 C391 C 0.95140 0.72245 0.11498
 H392 H 0.95220 0.72128 0.13623
 C393 C 0.93013 0.71192 0.10219
 H394 H 0.91443 0.70295 0.11380
 C395 C 0.97102 0.73579 0.07424
 H396 H 0.98722 0.74482 0.06350
 C397 C 0.94994 0.72555 0.06057
 H398 H 0.95008 0.72671 0.03927
 Zn399 Zn 0.99917 0.74604 0.12147
 N400 N 0.97125 0.73413 0.10099
 C401 C 0.96220 0.78403 0.13987
 N402 N 0.98752 0.77511 0.14171
 C403 C 1.00510 0.78757 0.15679
 C404 C 0.99732 0.80977 0.17107
 C405 C 0.95357 0.80599 0.15389
 C406 C 1.01460 0.69423 0.13089
 C407 C 1.02199 0.67174 0.14521
 C408 C 1.01765 0.69673 0.18512
 C409 C 1.01022 0.71881 0.16999
 N410 N 1.00919 0.71722 0.14334
 H411 H 0.94868 0.77441 0.12723
 H412 H 1.02524 0.78033 0.15756
 H413 H 1.01150 0.81938 0.18310
 H414 H 0.93343 0.81298 0.15183
 H415 H 1.01337 0.69350 0.10969
 H416 H 1.02683 0.65382 0.13480
 H417 H 1.01843 0.69826 0.20631
 H418 H 1.00530 0.73713 0.17954
 C419 C 0.92925 0.71323 0.07462
 C420 C 1.07309 0.77717 0.07517
 C421 C 1.02371 0.67282 0.17269
 C422 C 0.97120 0.81919 0.16974
 C423 C 0.52762 0.28290 0.58021
 H424 H 0.50892 0.29320 0.57827
 C425 C 0.55012 0.29257 0.56718
 H426 H 0.54853 0.31039 0.55524
 C427 C 0.55273 0.24824 0.59967
 H428 H 0.55397 0.23142 0.61291
 C429 C 0.57561 0.25714 0.58699
 H430 H 0.59401 0.24657 0.59016
 N431 N 0.52937 0.26126 0.59631
 C432 C 0.45027 0.23129 0.61098
 H433 H 0.45080 0.23071 0.63225
 C434 C 0.42818 0.22240 0.59828
 H435 H 0.41185 0.21473 0.60997
 C436 C 0.47149 0.24125 0.57008
 H437 H 0.48855 0.24845 0.55927
 C438 C 0.44974 0.23233 0.55650
 H439 H 0.45008 0.23299 0.53519
 Zn440 Zn 0.49967 0.25146 0.61729
 N441 N 0.47122 0.24072 0.59686
 C442 C 0.46499 0.29227 0.63334
 N443 N 0.48919 0.28115 0.63726
 C444 C 0.50656 0.29217 0.65367
 C445 C 0.49968 0.31517 0.66714
 C446 C 0.45739 0.31523 0.64624
 C447 C 0.51351 0.19937 0.62592
 C448 C 0.52163 0.17669 0.63949
 C449 C 0.51880 0.20088 0.67999
 C450 C 0.51066 0.22321 0.66557
 N451 N 0.50879 0.22216 0.63894
 H452 H 0.45168 0.28375 0.61972
 H453 H 0.52594 0.28333 0.65595
 H454 H 0.51383 0.32392 0.67985
 H455 H 0.43800 0.32368 0.64287
 H456 H 0.51143 0.19902 0.60479
 H457 H 0.52550 0.15883 0.62865
 H458 H 0.52105 0.20219 0.70105
 H459 H 0.50631 0.24139 0.67560
 C460 C 0.42765 0.22289 0.57069
 C461 C 0.57464 0.27991 0.57091
 C462 C 0.52486 0.17736 0.66682
 C463 C 0.47488 0.32711 0.66324
 C464 C 0.47560 0.78128 0.91850
 H465 H 0.49472 0.79034 0.91897
 C466 C 0.45420 0.79247 0.93231
 H467 H 0.45713 0.80990 0.94379
 C468 C 0.44836 0.74814 0.90219
 H469 H 0.44584 0.73142 0.88974
 C470 C 0.42651 0.75861 0.91569
 H471 H 0.40749 0.74968 0.91343
 N472 N 0.47230 0.75961 0.90367
 C473 C 0.54912 0.72318 0.88672
 H474 H 0.54675 0.72093 0.86578
 C475 C 0.57218 0.71427 0.89852
 H476 H 0.58736 0.70481 0.88655
 C477 C 0.53185 0.73799 0.92765
 H478 H 0.51604 0.74730 0.93884
 C479 C 0.55468 0.72922 0.94034
 H480 H 0.55638 0.73203 0.96130
 Zn481 Zn 0.50053 0.74758 0.88174
 N482 N 0.52974 0.73520 0.90120
 C483 C 0.53644 0.78446 0.86042
 N484 N 0.51108 0.77632 0.85983
 C485 C 0.49281 0.78960 0.84528
 C486 C 0.49988 0.81202 0.83047
 C487 C 0.54437 0.80651 0.84580
 C488 C 0.48440 0.69633 0.87557
 C489 C 0.47562 0.67417 0.86283
 C490 C 0.47797 0.69859 0.82159
 C491 C 0.48674 0.72039 0.83519
 N492 N 0.48936 0.71895 0.86176
 H493 H 0.55055 0.77429 0.87269
 H494 H 0.47264 0.78302 0.84553
 H495 H 0.48513 0.82246 0.81905
 H496 H 0.56455 0.81291 0.84700
 H497 H 0.48707 0.69565 0.89664
 H498 H 0.47178 0.65637 0.87425
 H499 H 0.47536 0.70021 0.80054
 H500 H 0.49120 0.73845 0.82454
 C501 C 0.57537 0.71752 0.92561
 C502 C 0.42914 0.78130 0.93071
 C503 C 0.47199 0.67519 0.83553
 C504 C 0.52600 0.82068 0.83066
 C505 C 0.47696 -0.12175 0.31152
 C506 C 0.46217 -0.14481 0.31272
 C507 C 0.43723 -0.14498 0.30159
 C508 C 0.42698 -0.12222 0.28951
 C509 C 0.49390 -0.22928 0.36539
 C510 C 0.46673 -0.09890 0.29941
 C511 C 0.47194 -0.16804 0.32623
 C512 C 0.47939 -0.18754 0.33799
 C513 C 0.48744 -0.21021 0.35239
 C514 C 0.44155 -0.09886 0.28834
 H515 H 0.49628 -0.12138 0.32015
 H516 H 0.42551 -0.16263 0.30259
 H517 H 0.40734 -0.12275 0.28166
 H518 H 0.47851 -0.08131 0.29865
 C519 C 0.97368 0.38530 0.81423
 C520 C 0.96000 0.36157 0.81406
 C521 C 0.93584 0.36051 0.80147
 C522 C 0.92529 0.38303 0.78920
 C523 C 0.99310 0.27716 0.86605
 C524 C 0.96314 0.40792 0.80194
 C525 C 0.97013 0.33844 0.82752
 C526 C 0.97790 0.31899 0.83913
 C527 C 0.98633 0.29629 0.85329
 C528 C 0.93878 0.40704 0.78931
 H529 H 0.99238 0.38635 0.82399
 H530 H 0.92497 0.34232 0.80140
 H531 H 0.90626 0.38178 0.78012
 H532 H 0.97409 0.42603 0.80219
 C533 C 0.02650 1.12507 0.81540
 C534 C 0.04185 1.14773 0.81584
 C535 C 0.06723 1.14735 0.80459
 C536 C 0.07733 1.12443 0.79311
 C537 C 0.00924 1.23221 0.86621
 C538 C 0.03659 1.10206 0.80390
 C539 C 0.03211 1.17111 0.82867
 C540 C 0.02454 1.19065 0.83986
 C541 C 0.01617 1.21328 0.85366
 C542 C 0.06218 1.10147 0.79267
 H543 H 0.00684 1.12513 0.82412
 H544 H 0.07937 1.16468 0.80501
 H545 H 0.09727 1.12451 0.78511
 H546 H 0.02437 1.08480 0.80368
 C547 C 0.52702 0.61861 0.31495
 C548 C 0.54206 0.64148 0.31511
 C549 C 0.56713 0.64155 0.30317
 C550 C 0.57723 0.61886 0.29125
 C551 C 0.50961 0.72567 0.36607
 C552 C 0.53711 0.59583 0.30301
 C553 C 0.53233 0.66467 0.32828
 C554 C 0.52478 0.68410 0.33967
 C555 C 0.51647 0.70669 0.35356
 C556 C 0.56238 0.59569 0.29107
 H557 H 0.50760 0.61833 0.32420
 H558 H 0.57903 0.65906 0.30336
 H559 H 0.59694 0.61929 0.28270
 H560 H 0.52512 0.57839 0.30301
 C561 C 0.52545 0.38327 0.18283
 C562 C 0.53630 0.35810 0.18746
 C563 C 0.55793 0.35497 0.20388
 C564 C 0.56919 0.37695 0.21499
 C565 C 0.50581 0.27611 0.13501
 C566 C 0.53667 0.40533 0.19401
 C567 C 0.52654 0.33565 0.17404
 C568 C 0.51932 0.31678 0.16226
 C569 C 0.51175 0.29475 0.14787
 C570 C 0.55900 0.40242 0.20978
 H571 H 0.50878 0.38592 0.17004
 H572 H 0.56649 0.33559 0.20759
 H573 H 0.58614 0.37407 0.22736
 H574 H 0.52855 0.42471 0.18948
 C575 C 0.05608 0.86023 0.70702
 C576 C 0.03489 0.86355 0.69009
 C577 C 0.02452 0.88884 0.68504
 C578 C 0.03581 0.91081 0.69632
 C579 C 0.00454 0.78156 0.63752
 C580 C 0.06741 0.88211 0.71824
 C581 C 0.02512 0.84115 0.67659
 C582 C 0.01791 0.82229 0.66479
 C583 C 0.01039 0.80024 0.65038
 C584 C 0.05773 0.90769 0.71262
 H585 H 0.06427 0.84075 0.71107
 H586 H 0.00819 0.89165 0.67184
 H587 H 0.02808 0.93028 0.69146
 H588 H 0.08403 0.87908 0.73102
 C589 C 0.93396 0.65097 0.70055
 C590 C 0.95824 0.65060 0.68705
 C591 C 0.97204 0.62670 0.68385
 C592 C 0.96127 0.60316 0.69359
 C593 C 0.99000 0.73667 0.63776
 C594 C 0.92314 0.62751 0.71022
 C595 C 0.96798 0.67449 0.67497
 C596 C 0.97537 0.69442 0.66409
 C597 C 0.98341 0.71745 0.65039
 C598 C 0.93645 0.60329 0.70644
 H599 H 0.92309 0.66934 0.70312
 H600 H 0.99080 0.62618 0.67328
 H601 H 0.97186 0.58479 0.69023
 H602 H 0.90420 0.62827 0.72042
 C603 C 0.43895 0.14605 0.20215
 C604 C 0.46150 0.14516 0.18588
 C605 C 0.47386 0.12089 0.18060
 C606 C 0.46330 0.09752 0.19101
 C607 C 0.49150 0.23117 0.13530
 C608 C 0.42834 0.12278 0.21250
 C609 C 0.47076 0.16897 0.17326
 C610 C 0.47774 0.18887 0.16204
 C611 C 0.48529 0.21190 0.14807
 C612 C 0.44012 0.09821 0.20665
 H613 H 0.42921 0.16471 0.20636
 H614 H 0.49126 0.11997 0.16790
 H615 H 0.47266 0.07890 0.18602
 H616 H 0.41071 0.12394 0.22482
 C617 C 0.28930 0.46266 -0.13714
 C618 C 0.31672 0.46134 -0.14049
 C619 C 0.33221 0.45061 -0.12038
 C620 C 0.32035 0.44082 -0.09721
 C621 C 0.36617 0.49298 -0.22718
 C622 C 0.27738 0.45287 -0.11397
 C623 C 0.32908 0.47038 -0.16472
 C624 C 0.34001 0.47763 -0.18481
 C625 C 0.35365 0.48591 -0.20794
 C626 C 0.29276 0.44159 -0.09382
 H627 H 0.27712 0.47100 -0.15254
 H628 H 0.35345 0.44943 -0.12278
 H629 H 0.33273 0.43191 -0.08229
 H630 H 0.25613 0.45401 -0.11185
 C631 C 0.78489 0.96140 0.36071
 C632 C 0.81234 0.96091 0.35753
 C633 C 0.82802 0.95108 0.37792
 C634 C 0.81634 0.94130 0.40118
 C635 C 0.86219 0.99080 0.27049
 C636 C 0.77315 0.95162 0.38399
 C637 C 0.82458 0.96973 0.33316
 C638 C 0.83554 0.97665 0.31297
 C639 C 0.84937 0.98438 0.28976
 C640 C 0.78874 0.94119 0.40440
 H641 H 0.77255 0.96903 0.34509
 H642 H 0.84929 0.95053 0.37565
 H643 H 0.82890 0.93306 0.41630
 H644 H 0.75187 0.95208 0.38597
 C645 C 0.78944 0.03670 1.13528
 C646 C 0.81676 0.03718 1.13829
 C647 C 0.83284 0.04727 1.11792
 C648 C 0.82166 0.05734 1.09485
 C649 C 0.86341 0.00650 1.22532
 C650 C 0.77820 0.04677 1.11222
 C651 C 0.82835 0.02818 1.16253
 C652 C 0.83862 0.02108 1.18269
 C653 C 0.85150 0.01314 1.20594
 C654 C 0.79417 0.05751 1.09186
 H655 H 0.77680 0.02887 1.15089
 H656 H 0.85402 0.04782 1.12006
 H657 H 0.83448 0.06581 1.07975
 H658 H 0.75700 0.04634 1.11039
 C659 C 0.29007 0.53966 0.63971
 C660 C 0.31748 0.53998 0.64203
 C661 C 0.33315 0.54968 0.62114
 C662 C 0.32147 0.55953 0.59824
 C663 C 0.36619 0.50978 0.72807
 C664 C 0.27834 0.54952 0.61681
 C665 C 0.32961 0.53117 0.66607
 C666 C 0.34035 0.52421 0.68602
 C667 C 0.35379 0.51638 0.70898
 C668 C 0.29390 0.55987 0.59592
 H669 H 0.27775 0.53213 0.65571
 H670 H 0.35439 0.55009 0.62275
 H671 H 0.33398 0.56770 0.58272
 H672 H 0.25709 0.54922 0.61551
 C673 C 0.16805 0.55950 0.37662
 C674 C 0.18168 0.53908 0.36384
 C675 C 0.20579 0.52982 0.37357
 C676 C 0.21641 0.54125 0.39578
 C677 C 0.13634 0.50507 0.27923
 C678 C 0.17861 0.57095 0.39871
 C679 C 0.17086 0.52827 0.34050
 C680 C 0.16090 0.52018 0.32097
 C681 C 0.14816 0.51167 0.29830
 C682 C 0.20305 0.56218 0.40838
 H683 H 0.14931 0.56674 0.36935
 H684 H 0.21652 0.51402 0.36381
 H685 H 0.23535 0.53423 0.40267
 H686 H 0.16765 0.58672 0.40823
 C687 C 0.70306 0.06084 0.85401
 C688 C 0.68725 0.03865 0.85714
 C689 C 0.68356 0.02710 0.88216
 C690 C 0.69509 0.03812 0.90409
 C691 C 0.63381 0.00770 0.77612
 C692 C 0.71454 0.07190 0.87586
 C693 C 0.67357 0.02889 0.83490
 C694 C 0.66157 0.02157 0.81625
 C695 C 0.64690 0.01381 0.79450
 C696 C 0.71032 0.06094 0.90121
 H697 H 0.70605 0.06994 0.83475
 H698 H 0.67124 0.00999 0.88482
 H699 H 0.69130 0.02940 0.92337
 H700 H 0.72647 0.08924 0.87299
 C701 C 0.67901 0.97360 0.62136
 C702 C 0.68320 0.96092 0.64567
 C703 C 0.69818 0.93757 0.64677
 C704 C 0.70839 0.92656 0.62365
 C705 C 0.63356 0.99295 0.73141
 C706 C 0.68928 0.96262 0.59816
 C707 C 0.67082 0.97080 0.66933
 C708 C 0.65981 0.97829 0.68914
 C709 C 0.64610 0.98639 0.71213
 C710 C 0.70369 0.93872 0.59904
 H711 H 0.66731 0.99162 0.62028
 H712 H 0.70154 0.92758 0.66545
 H713 H 0.71977 0.90837 0.62499
 H714 H 0.68518 0.97232 0.57950
 C715 C 0.18487 0.47408 0.12430
 C716 C 0.18884 0.46090 0.14840
 C717 C 0.20339 0.43727 0.14909
 C718 C 0.21331 0.42645 0.12577
 C719 C 0.13802 0.49094 0.23416
 C720 C 0.19486 0.46329 0.10090
 C721 C 0.17642 0.47044 0.17218
 C722 C 0.16522 0.47753 0.19204
 C723 C 0.15110 0.48502 0.21500
 C724 C 0.20875 0.43908 0.10137
 H725 H 0.17348 0.49231 0.12353
 H726 H 0.20655 0.42689 0.16760
 H727 H 0.22429 0.40799 0.12678
 H728 H 0.19088 0.47335 0.08240
 C729 C -0.11735 0.32963 0.44776
 C730 C -0.13770 0.31443 0.45874
 C731 C -0.13473 0.28699 0.46038
 C732 C -0.11173 0.27477 0.45059
 C733 C -0.22449 0.36418 0.48941
 C734 C -0.09435 0.31746 0.43798
 C735 C -0.16184 0.32704 0.46760
 C736 C -0.18193 0.33808 0.47464
 C737 C -0.20513 0.35173 0.48263
 C738 C -0.09139 0.28985 0.43899
 H739 H -0.11947 0.35088 0.44634
 H740 H -0.15030 0.27503 0.46891
 H741 H -0.10993 0.25350 0.45194
 H742 H -0.07927 0.32961 0.42883
 C743 C 0.37904 0.83348 0.95194
 C744 C 0.35887 0.81801 0.96286
 C745 C 0.36219 0.79061 0.96445
 C746 C 0.38534 0.77868 0.95468
 C747 C 0.27148 0.86659 0.99376
 C748 C 0.40221 0.82160 0.94216
 C749 C 0.33457 0.83031 0.97173
 C750 C 0.31435 0.84109 0.97881
 C751 C 0.29098 0.85442 0.98687
 C752 C 0.40551 0.79402 0.94314
 H753 H 0.37668 0.85471 0.95054
 H754 H 0.34675 0.77844 0.97295
 H755 H 0.38741 0.75743 0.95599
 H756 H 0.41715 0.83395 0.93306
 C757 C 1.12032 0.81279 0.02812
 C758 C 1.14316 0.81323 0.04307
 C759 C 1.14320 0.80153 0.06820
 C760 C 1.12052 0.78960 0.07845
 C761 C 1.22662 0.86556 0.01039
 C762 C 1.09754 0.80084 0.03836
 C763 C 1.16627 0.82657 0.03323
 C764 C 1.18558 0.83821 0.02561
 C765 C 1.20793 0.85254 0.01723
 C766 C 1.09737 0.78917 0.06370
 H767 H 1.12004 0.82186 0.00866
 H768 H 1.16068 0.80195 0.08004
 H769 H 1.12093 0.78127 0.09820
 H770 H 1.08013 0.80064 0.02644
 C771 C 0.62314 0.31367 0.52377
 C772 C 0.64588 0.31374 0.53890
 C773 C 0.64543 0.30238 0.56418
 C774 C 0.62236 0.29117 0.57441
 C775 C 0.73063 0.36388 0.50607
 C776 C 0.59998 0.30245 0.53398
 C777 C 0.66939 0.32639 0.52909
 C778 C 0.68901 0.33749 0.52146
 C779 C 0.71170 0.35126 0.51303
 C780 C 0.59931 0.29113 0.55947
 H781 H 0.62324 0.32250 0.50420
 H782 H 0.66282 0.30252 0.57616
 H783 H 0.62240 0.28310 0.59427
 H784 H 0.58265 0.30254 0.52193
 C785 C 0.38539 0.18461 0.52456
 C786 C 0.36013 0.18969 0.53509
 C787 C 0.35685 0.20699 0.55605
 C788 C 0.37876 0.21853 0.56699
 C789 C 0.27890 0.13519 0.50596
 C790 C 0.40738 0.19620 0.53546
 C791 C 0.33776 0.17580 0.52577
 C792 C 0.31902 0.16360 0.51888
 C793 C 0.29724 0.14862 0.51165
 C794 C 0.40432 0.21286 0.55716
 H795 H 0.38816 0.17113 0.50842
 H796 H 0.33741 0.21106 0.56437
 H797 H 0.37577 0.23157 0.58345
 H798 H 0.42681 0.19129 0.52763
 C799 C 0.87489 0.66649 0.05813
 C800 C 0.86248 0.68006 0.03752
 C801 C 0.87256 0.70408 0.02817
 C802 C 0.89472 0.71469 0.03977
 C803 C 0.77744 0.63493 0.00391
 C804 C 0.89691 0.67705 0.06974
 C805 C 0.83908 0.66931 0.02668
 C806 C 0.81947 0.65939 0.01866
 C807 C 0.79665 0.64670 0.01032
 C808 C 0.90689 0.70143 0.06094
 H809 H 0.86735 0.64783 0.06544
 H810 H 0.86309 0.71475 0.01222
 H811 H 0.90186 0.73358 0.03271
 H812 H 0.90612 0.66617 0.08571
 C813 C 0.62316 0.68461 0.97292
 C814 C 0.64721 0.68819 0.95939
 C815 C 0.64789 0.70256 0.93566
 C816 C 0.62459 0.71273 0.92510
 C817 C 0.73244 0.63683 0.98959
 C818 C 0.59978 0.69484 0.96240
 C819 C 0.67093 0.67560 0.96877
 C820 C 0.69069 0.66428 0.97584
 C821 C 0.71348 0.65001 0.98345
 C822 C 0.60021 0.70859 0.93811
 H823 H 0.62239 0.67336 0.99124
 H824 H 0.66637 0.70543 0.92501
 H825 H 0.62559 0.72359 0.90657
 H826 H 0.58129 0.69117 0.97274
 C827 C 0.14949 0.19566 0.43303
 C828 C 0.14858 0.18189 0.45711
 C829 C 0.12440 0.17864 0.47049
 C830 C 0.10114 0.18868 0.45954
 C831 C 0.23436 0.13382 0.49079
 C832 C 0.12632 0.20564 0.42206
 C833 C 0.17227 0.16988 0.46722
 C834 C 0.19209 0.15921 0.47503
 C835 C 0.21507 0.14594 0.48364
 C836 C 0.10183 0.20193 0.43498
 H837 H 0.16808 0.19830 0.42251
 H838 H 0.12345 0.16788 0.48909
 H839 H 0.08257 0.18534 0.46984
 H840 H 0.12753 0.21613 0.40333
 C841 C 0.56585 0.11635 0.68262
 C842 C 0.55535 0.10862 0.70716
 C843 C 0.53500 0.12356 0.71888
 C844 C 0.52507 0.14611 0.70593
 C845 C 0.60100 0.02369 0.74651
 C846 C 0.55599 0.13876 0.66969
 C847 C 0.56589 0.08537 0.71998
 C848 C 0.57585 0.06579 0.72947
 C849 C 0.58882 0.04297 0.73922
 C850 C 0.53539 0.15383 0.68109
 H851 H 0.58172 0.10503 0.67345
 H852 H 0.52676 0.11775 0.73791
 H853 H 0.50910 0.15723 0.71511
 H854 H 0.56470 0.14445 0.65083
 C855 C 1.06088 0.62906 0.22100
 C856 C 1.05290 0.60402 0.21370
 C857 C 1.03417 0.60156 0.19416
 C858 C 1.02401 0.62400 0.18140
 C859 C 1.10388 0.52015 0.24893
 C860 C 1.05071 0.65156 0.20828
 C861 C 1.06542 0.58084 0.22474
 C862 C 1.07671 0.56148 0.23311
 C863 C 1.09089 0.53903 0.24201
 C864 C 1.03253 0.64923 0.18799
 H865 H 1.07553 0.63117 0.23598
 H866 H 1.02790 0.58226 0.18832
 H867 H 1.00975 0.62161 0.16612
 H868 H 1.05785 0.67069 0.21359
 C869 C 0.92791 0.86696 0.20823
 C870 C 0.94339 0.88950 0.20778
 C871 C 0.96864 0.88867 0.19615
 C872 C 0.97810 0.86552 0.18445
 C873 C 0.89599 0.97591 0.24064
 C874 C 0.93728 0.84388 0.19652
 C875 C 0.93248 0.91377 0.21780
 C876 C 0.92213 0.93378 0.22557
 C877 C 0.90865 0.95675 0.23400
 C878 C 0.96231 0.84302 0.18412
 H879 H 0.90833 0.86738 0.21717
 H880 H 0.98073 0.90607 0.19555
 H881 H 0.99735 0.86552 0.17484
 H882 H 0.92482 0.82676 0.19689
 C883 C 0.44499 0.39490 0.67446
 C884 C 0.44936 0.39824 0.70126
 C885 C 0.46324 0.37882 0.71549
 C886 C 0.47224 0.35589 0.70302
 C887 C 0.39999 0.47997 0.74198
 C888 C 0.45386 0.37204 0.66203
 C889 C 0.43802 0.42090 0.71412
 C890 C 0.42723 0.43977 0.72389
 C891 C 0.41317 0.46162 0.73416
 C892 C 0.46721 0.35209 0.67625
 H893 H 0.43428 0.40978 0.66326
 H894 H 0.46660 0.38115 0.73629
 H895 H 0.48234 0.34078 0.71447
 H896 H 0.45009 0.36986 0.64130
 C897 C 0.46199 0.62224 0.78492
 C898 C 0.44192 0.60755 0.79715
 C899 C 0.43154 0.61517 0.82160
 C900 C 0.44122 0.63724 0.83392
 C901 C 0.39806 0.52421 0.75836
 C902 C 0.47173 0.64441 0.79723
 C903 C 0.43163 0.58469 0.78488
 C904 C 0.42205 0.56549 0.77560
 C905 C 0.40968 0.54311 0.76583
 C906 C 0.46152 0.65205 0.82196
 H907 H 0.47015 0.61651 0.76596
 H908 H 0.41589 0.60405 0.83117
 H909 H 0.43264 0.64287 0.85272
 H910 H 0.48751 0.65530 0.78765
 C911 C -0.06868 0.11101 0.31821
 C912 C -0.05865 0.10313 0.29370
 C913 C -0.03838 0.11737 0.28128
 C914 C -0.02807 0.13936 0.29346
 C915 C -0.10471 0.02062 0.25577
 C916 C -0.05843 0.13288 0.33039
 C917 C -0.06952 0.08046 0.28160
 C918 C -0.07961 0.06143 0.27250
 C919 C -0.09258 0.03928 0.26299
 C920 C -0.03791 0.14724 0.31825
 H921 H -0.08448 0.10023 0.32793
 H922 H -0.03049 0.11144 0.26228
 H923 H -0.01214 0.14990 0.28374
 H924 H -0.06675 0.13871 0.34924
 C925 C 0.07230 0.36418 0.28980
 C926 C 0.05726 0.38739 0.29226
 C927 C 0.03232 0.38662 0.30454
 C928 C 0.02281 0.36283 0.31504
 C929 C 0.10467 0.47492 0.26383
 C930 C 0.06288 0.34046 0.30032
 C931 C 0.06840 0.41208 0.28375
 C932 C 0.07885 0.43236 0.27714
 C933 C 0.09228 0.45558 0.26985
 C934 C 0.03827 0.33962 0.31352
 H935 H 0.09162 0.36455 0.28033
 H936 H 0.02057 0.40449 0.30666
 H937 H 0.00390 0.36282 0.32533
 H938 H 0.07507 0.32283 0.29859
 C939 C 0.52782 0.89168 0.80610
 C940 C 0.55264 0.89230 0.79355
 C941 C 0.56780 0.86914 0.79152
 C942 C 0.55865 0.84562 0.80272
 C943 C 0.60044 0.97864 0.76221
 C944 C 0.51856 0.86808 0.81728
 C945 C 0.56359 0.91683 0.78429
 C946 C 0.57406 0.93690 0.77702
 C947 C 0.58770 0.95974 0.76893
 C948 C 0.53416 0.84494 0.81618
 H949 H 0.51598 0.90954 0.80789
 H950 H 0.58703 0.86939 0.78185
 H951 H 0.57093 0.82802 0.80130
 H952 H 0.49975 0.86818 0.82773
 C953 C 0.68283 0.56670 0.11259
 C954 C 0.70727 0.55642 0.10428
 C955 C 0.71923 0.53591 0.11873
 C956 C 0.70664 0.52562 0.14137
 C957 C 0.74643 0.60314 0.01957
 C958 C 0.67025 0.55648 0.13510
 C959 C 0.71978 0.56735 0.08098
 C960 C 0.72914 0.57758 0.06143
 C961 C 0.73893 0.59078 0.03870
 C962 C 0.68191 0.53572 0.14968
 H963 H 0.67348 0.58270 0.10166
 H964 H 0.73819 0.52784 0.11246
 H965 H 0.71600 0.50952 0.15210
 H966 H 0.65147 0.56502 0.14126
 C967 C 0.18562 1.06957 0.61700
 C968 C 0.20984 1.05859 0.60892
 C969 C 0.22119 1.03789 0.62360
 C970 C 0.20817 1.02807 0.64622
 C971 C 0.24927 1.10260 0.52290
 C972 C 0.17261 1.05980 0.63947
 C973 C 0.22261 1.06885 0.58545
 C974 C 0.23210 1.07847 0.56565
 C975 C 0.24190 1.09093 0.54251
 C976 C 0.18361 1.03881 0.65425
 H977 H 0.17673 1.08569 0.60587
 H978 H 0.23995 1.02927 0.61751
 H979 H 0.21702 1.01179 0.65712
 H980 H 0.15399 1.06882 0.64541
 C981 C 0.17391 0.94498 0.89447
 C982 C 0.20069 0.94920 0.89830
 C983 C 0.21543 0.96322 0.87927
 C984 C 0.20348 0.97253 0.85623
 C985 C 0.24011 0.89967 0.98044
 C986 C 0.16199 0.95417 0.87150
 C987 C 0.21302 0.93766 0.92110
 C988 C 0.22242 0.92679 0.94007
 C989 C 0.23239 0.91274 0.96201
 C990 C 0.17671 0.96770 0.85194
 H991 H 0.16231 0.93417 0.90905
 H992 H 0.23622 0.96647 0.88198
 H993 H 0.21531 0.98276 0.84143
 H994 H 0.14125 0.95054 0.86895
 C995 C 0.71857 0.46020 0.37421
 C996 C 0.70428 0.44587 0.39336
 C997 C 0.67758 0.44106 0.38974
 C998 C 0.66529 0.44997 0.36688
 C999 C 0.74445 0.39739 0.47567
 C1000 C 0.70624 0.46925 0.35128
 C1001 C 0.71698 0.43467 0.41610
 C1002 C 0.72660 0.42405 0.43509
 C1003 C 0.73671 0.41026 0.45712
 C1004 C 0.67956 0.46383 0.34722
 H1005 H 0.73930 0.46392 0.37677
 H1006 H 0.66633 0.43001 0.40442
 H1007 H 0.64461 0.44590 0.36451
 H1008 H 0.71772 0.47975 0.33639
 C1009 C 0.78437 0.46204 0.61734
 C1010 C 0.79761 0.44271 0.60256
 C1011 C 0.82255 0.43365 0.61005
 C1012 C 0.83435 0.44390 0.63210
 C1013 C 0.76052 0.39647 0.51992
 C1014 C 0.79617 0.47235 0.63949
 C1015 C 0.78581 0.43173 0.57982
 C1016 C 0.77694 0.42158 0.56076
 C1017 C 0.76764 0.40858 0.53859
 C1018 C 0.82137 0.46345 0.64702
 H1019 H 0.76502 0.46916 0.61171
 H1020 H 0.83289 0.41857 0.59887
 H1021 H 0.85353 0.43629 0.63764
 H1022 H 0.78579 0.48752 0.65047
 C1023 C 0.31891 -0.06776 0.11513
 C1024 C 0.29433 -0.05751 0.10789
 C1025 C 0.28221 -0.03759 0.12280
 C1026 C 0.29480 -0.02784 0.14478
 C1027 C 0.25615 -0.10175 0.02472
 C1028 C 0.33150 -0.05807 0.13697
 C1029 C 0.28193 -0.06776 0.08514
 C1030 C 0.27274 -0.07740 0.06596
 C1031 C 0.26327 -0.08994 0.04360
 C1032 C 0.31970 -0.03787 0.15196
 H1033 H 0.32840 -0.08330 0.10384
 H1034 H 0.26314 -0.02954 0.11738
 H1035 H 0.28534 -0.01217 0.15584
 H1036 H 0.35041 -0.06655 0.14227
 C1037 C 0.33019 0.05348 0.39072
 C1038 C 0.30345 0.04958 0.39638
 C1039 C 0.28815 0.03585 0.37877
 C1040 C 0.29947 0.02660 0.35523
 C1041 C 0.26574 0.10054 0.47820
 C1042 C 0.34147 0.04439 0.36726
 C1043 C 0.29172 0.06141 0.41942
 C1044 C 0.28281 0.07263 0.43840
 C1045 C 0.27328 0.08711 0.46013
 C1046 C 0.32614 0.03128 0.34903
 H1047 H 0.34222 0.06408 0.40419
 H1048 H 0.26738 0.03285 0.38291
 H1049 H 0.28721 0.01667 0.34148
 H1050 H 0.36216 0.04787 0.36320
 C1051 C 0.80341 0.52990 0.88718
 C1052 C 0.79056 0.55453 0.88775
 C1053 C 0.78790 0.56937 0.86447
 C1054 C 0.79885 0.56015 0.84088
 C1055 C 0.76173 0.60283 0.97444
 C1056 C 0.81432 0.52057 0.86352
 C1057 C 0.78184 0.56570 0.91231
 C1058 C 0.77511 0.57632 0.93244
 C1059 C 0.76774 0.59007 0.95539
 C1060 C 0.81267 0.53592 0.84026
 H1061 H 0.80570 0.51831 0.90513
 H1062 H 0.77801 0.58846 0.86467
 H1063 H 0.79702 0.57223 0.82320
 H1064 H 0.82508 0.50197 0.86366
 C1065 C 0.12130 0.72231 0.54022
 C1066 C 0.10672 0.71123 0.56122
 C1067 C 0.11482 0.68718 0.57250
 C1068 C 0.13723 0.67408 0.56274
 C1069 C 0.02116 0.75137 0.60539
 C1070 C 0.14384 0.70920 0.53041
 C1071 C 0.08334 0.72415 0.57146
 C1072 C 0.06365 0.73382 0.58108
 C1073 C 0.04063 0.74385 0.59359
 C1074 C 0.15191 0.68483 0.54147
 H1075 H 0.11518 0.74093 0.53136
 H1076 H 0.10376 0.67850 0.58885
 H1077 H 0.14320 0.65559 0.57197
 H1078 H 0.15463 0.71785 0.51389
 C1079 C 0.62172 0.21862 1.03603
 C1080 C 0.60710 0.20690 1.05665
 C1081 C 0.61520 0.18254 1.06722
 C1082 C 0.63770 0.16980 1.05719
 C1083 C 0.52203 0.24616 1.10248
 C1084 C 0.64433 0.20587 1.02594
 C1085 C 0.58378 0.21956 1.06732
 C1086 C 0.56418 0.22903 1.07732
 C1087 C 0.54133 0.23883 1.09029
 C1088 C 0.65246 0.18123 1.03634
 H1089 H 0.61560 0.23750 1.02772
 H1090 H 0.60412 0.17337 1.08328
 H1091 H 0.64370 0.15109 1.06593
 H1092 H 0.65520 0.21505 1.00975
 C1093 C 0.86974 0.21156 0.92959
 C1094 C 0.89208 0.21120 0.94525
 C1095 C 0.89117 0.19893 0.97014
 C1096 C 0.86816 0.18648 0.97907
 C1097 C 0.97835 0.24645 0.89912
 C1098 C 0.84681 0.19909 0.93842
 C1099 C 0.91627 0.22190 0.93477
 C1100 C 0.93625 0.23023 0.92473
 C1101 C 0.95920 0.23928 0.91156
 C1102 C 0.84590 0.18603 0.96306
 H1103 H 0.87023 0.22098 0.91028
 H1104 H 0.90840 0.19840 0.98235
 H1105 H 0.86811 0.17637 0.99802
 H1106 H 0.82987 0.19937 0.92583
 C1107 C 0.36903 0.70898 0.43035
 C1108 C 0.39164 0.70794 0.44562
 C1109 C 0.39072 0.69591 0.47063
 C1110 C 0.36742 0.68440 0.48007
 C1111 C 0.47864 0.74053 0.39869
 C1112 C 0.34578 0.69745 0.43970
 C1113 C 0.41604 0.71778 0.43472
 C1114 C 0.43618 0.72546 0.42447
 C1115 C 0.45933 0.73384 0.41116
 C1116 C 0.34483 0.68466 0.46448
 H1117 H 0.36952 0.71822 0.41096
 H1118 H 0.40816 0.69487 0.48255
 H1119 H 0.36735 0.67447 0.49911
 H1120 H 0.32861 0.69826 0.42741
 C1121 C 0.60229 0.81006 0.46634
 C1122 C 0.60560 0.79047 0.44751
 C1123 C 0.63100 0.78290 0.43906
 C1124 C 0.65300 0.79535 0.44890
 C1125 C 0.52337 0.75568 0.39855
 C1126 C 0.62423 0.82255 0.47617
 C1127 C 0.58291 0.77958 0.43548
 C1128 C 0.56394 0.77130 0.42465
 C1129 C 0.54190 0.76251 0.41105
 C1130 C 0.64981 0.81565 0.46723
 H1131 H 0.58272 0.81611 0.47298
 H1132 H 0.63377 0.76788 0.42434
 H1133 H 0.67240 0.78980 0.44144
 H1134 H 0.62118 0.83784 0.49055
 C1135 C 0.13093 0.28743 -0.06063
 C1136 C 0.10571 0.29553 -0.05214
 C1137 C 0.10286 0.31505 -0.03319
 C1138 C 0.12510 0.32692 -0.02323
 C1139 C 0.02293 0.26201 -0.10111
 C1140 C 0.15322 0.29925 -0.05068
 C1141 C 0.08278 0.28516 -0.06419
 C1142 C 0.06366 0.27723 -0.07502
 C1143 C 0.04152 0.26871 -0.08862
 C1144 C 0.15052 0.31945 -0.03218
 H1145 H 0.13335 0.27245 -0.07544
 H1146 H 0.08343 0.32150 -0.02650
 H1147 H 0.12241 0.34214 -0.00873
 H1148 H 0.17250 0.29328 -0.05816
 C1149 C 0.39035 0.30472 0.02928
 C1150 C 0.39081 0.29257 0.05423
 C1151 C 0.36763 0.29110 0.06953
 C1152 C 0.34428 0.30250 0.06037
 C1153 C 0.47688 0.26146 0.10199
 C1154 C 0.36691 0.31608 0.02001
 C1155 C 0.41522 0.28321 0.06518
 C1156 C 0.43521 0.27595 0.07565
 C1157 C 0.45799 0.26797 0.08928
 C1158 C 0.34378 0.31557 0.03575
 H1159 H 0.40822 0.30607 0.01733
 H1160 H 0.36776 0.28175 0.08887
 H1161 H 0.32668 0.30153 0.07276
 H1162 H 0.36715 0.32623 0.00108
 C1163 C 0.88959 0.80834 0.53014
 C1164 C 0.89015 0.79662 0.55529
 C1165 C 0.86692 0.79493 0.57049
 C1166 C 0.84339 0.80565 0.56101
 C1167 C 0.97607 0.76685 0.60409
 C1168 C 0.86599 0.81904 0.52056
 C1169 C 0.91464 0.78780 0.56649
 C1170 C 0.93463 0.78089 0.57717
 C1171 C 0.95733 0.77321 0.59110
 C1172 C 0.84276 0.81827 0.53616
 H1173 H 0.90750 0.80986 0.51827
 H1174 H 0.86711 0.78589 0.58997
 H1175 H 0.82575 0.80448 0.57331
 H1176 H 0.86612 0.82885 0.50145
   
