data_POSCAR
  _audit_creation_date              2014-09-24
  _audit_creation_method            'ToBaCCo'
  _symmetry_space_group_name_H-M    'P1'
  _symmetry_Int_Tables_number       1
  _symmetry_cell_setting            triclinic
  loop_
  _symmetry_equiv_pos_as_xyz
 x,y,z
_cell_length_a 25.0436
_cell_length_b 24.8476
_cell_length_c 24.0926
_cell_angle_alpha 90.046600
_cell_angle_beta 90.059300
_cell_angle_gamma 89.949900
loop_
  _atom_site_label
  _atom_site_type_symbol
  _atom_site_fract_x
  _atom_site_fract_y
  _atom_site_fract_z
C1 C 1.25155 0.25034 0.24918
 C2 C 0.74942 -0.25019 0.25005
 C3 C 0.74959 0.24982 -0.24965
 C4 C 1.25059 -0.24944 -0.25065
 C5 C 0.25027 0.24984 0.75064
 C6 C 0.74916 0.75023 0.74987
 C7 C 0.74926 0.24996 0.24971
 C8 C 0.25041 0.74956 0.25072
 N9 N 0.94680 0.09591 0.06110
 N10 N 0.91368 0.13545 0.07358
 N11 N 1.05731 0.05664 0.10003
 N12 N 1.09132 0.06900 0.14003
 N13 N 1.05881 0.09299 0.06049
 N14 N 1.09421 0.13060 0.07221
 N15 N 0.94511 0.05812 0.09922
 N16 N 0.91034 0.07086 0.13835
 C17 C 0.89065 0.11891 0.12135
 C18 C 1.11459 0.11475 0.12153
 N19 N 1.05603 -0.09728 0.06103
 N20 N 1.08886 -0.13692 0.07414
 N21 N 0.94387 -0.05863 0.09916
 N22 N 0.90943 -0.07097 0.13869
 N23 N 0.94444 -0.09625 0.06080
 N24 N 0.91099 -0.13528 0.07345
 N25 N 1.05652 -0.05991 0.09971
 N26 N 1.09046 -0.07292 0.13963
 Mn27 Mn 1.00060 -0.00095 0.10003
 C28 C 1.11075 -0.12077 0.12273
 C29 C 0.88884 -0.11855 0.12155
 N30 N 1.05833 0.09310 -0.05908
 N31 N 1.09343 0.13084 -0.07126
 N32 N 0.94407 0.05815 -0.09695
 N33 N 0.90934 0.07097 -0.13613
 N34 N 0.94617 0.09609 -0.05896
 N35 N 0.91336 0.13587 -0.07165
 N36 N 1.05620 0.05687 -0.09876
 N37 N 1.08933 0.06952 -0.13937
 Mn38 Mn 1.00262 0.09483 0.00091
 C39 C 1.11288 0.11524 -0.12107
 C40 C 0.89005 0.11924 -0.11936
 N41 N 0.94387 -0.09623 -0.05880
 N42 N 0.91062 -0.13544 -0.07174
 N43 N 1.05541 -0.05945 -0.09805
 N44 N 1.08964 -0.07182 -0.13777
 N45 N 1.05538 -0.09682 -0.05944
 N46 N 1.08885 -0.13588 -0.07233
 N47 N 0.94289 -0.05845 -0.09693
 N48 N 0.90841 -0.07083 -0.13649
 Mn49 Mn 1.00003 -0.09688 0.00088
 Mn50 Mn 0.99954 -0.00076 -0.09812
 Cl51 Cl 1.00069 -0.00093 0.00095
 C52 C 0.88816 -0.11862 -0.11971
 C53 C 1.11053 -0.11928 -0.12072
 N54 N 0.94456 0.55811 0.40091
 N55 N 0.91021 0.57049 0.36120
 N56 N 1.05649 0.59615 0.43990
 N57 N 1.08933 0.63573 0.42687
 N58 N 1.05725 0.55862 0.40142
 N59 N 1.09133 0.57150 0.36165
 N60 N 0.94490 0.59569 0.43933
 N61 N 0.91142 0.63473 0.42655
 C62 C 0.88948 0.61807 0.37830
 C63 C 1.11148 0.61941 0.37852
 N64 N 1.05537 0.55874 0.59880
 N65 N 1.08964 0.57126 0.63854
 N66 N 0.94387 0.59604 0.55901
 N67 N 0.91067 0.63543 0.57169
 N68 N 0.94281 0.55844 0.59732
 N69 N 0.90828 0.57106 0.63669
 N70 N 1.05538 0.59595 0.56003
 N71 N 1.08894 0.63493 0.57270
 Mn72 Mn 1.00021 0.59617 0.49958
 C73 C 1.11061 0.61858 0.62120
 C74 C 0.88814 0.61885 0.61967
 N75 N 1.05763 0.44204 0.40184
 N76 N 1.09173 0.42923 0.36213
 N77 N 0.94569 0.40388 0.43964
 N78 N 0.91236 0.36464 0.42693
 N79 N 0.94501 0.44136 0.40115
 N80 N 0.91058 0.42874 0.36158
 N81 N 1.05721 0.40470 0.44045
 N82 N 1.09033 0.36530 0.42764
 Mn83 Mn 1.00107 0.50002 0.40082
 C84 C 1.11222 0.38160 0.37928
 C85 C 0.89014 0.38108 0.37867
 N86 N 0.94317 0.44196 0.59775
 N87 N 0.90869 0.42926 0.63714
 N88 N 1.05695 0.40566 0.56025
 N89 N 1.09194 0.36775 0.57255
 N90 N 1.05529 0.44219 0.59968
 N91 N 1.08858 0.42959 0.64024
 N92 N 0.94481 0.40407 0.55970
 N93 N 0.91198 0.36445 0.57254
 Mn94 Mn 0.99911 0.50038 0.59885
 Mn95 Mn 1.00121 0.40432 0.50004
 Cl96 Cl 1.00041 0.50020 0.49978
 C97 C 0.88910 0.38112 0.62038
 C98 C 1.11175 0.38357 0.62219
 N99 N 0.59366 0.05699 0.55880
 N100 N 0.63179 0.09177 0.57074
 N101 N 0.55775 -0.05596 0.59820
 N102 N 0.57035 -0.09020 0.63797
 N103 N 0.59419 -0.05633 0.55904
 N104 N 0.63217 -0.09137 0.57074
 N105 N 0.55724 0.05658 0.59799
 N106 N 0.57011 0.09052 0.63804
 C107 C 0.61619 0.11281 0.61990
 C108 C 0.61636 -0.11255 0.61971
 N109 N 0.40614 -0.05783 0.55857
 N110 N 0.36848 -0.09310 0.57021
 N111 N 0.44170 0.05582 0.59763
 N112 N 0.42824 0.08908 0.63803
 N113 N 0.40462 0.05499 0.55899
 N114 N 0.36503 0.08762 0.57215
 N115 N 0.44237 -0.05674 0.59802
 N116 N 0.42986 -0.09078 0.63797
 Mn117 Mn 0.49976 -0.00004 0.59839
 C118 C 0.38422 -0.11373 0.61944
 C119 C 0.38073 0.10909 0.62106
 N120 N 0.59401 -0.05669 0.43973
 N121 N 0.63193 -0.09190 0.42846
 N122 N 0.55705 0.05587 0.40013
 N123 N 0.56970 0.09003 0.36027
 N124 N 0.59341 0.05656 0.43947
 N125 N 0.63123 0.09171 0.42786
 N126 N 0.55757 -0.05663 0.40047
 N127 N 0.57014 -0.09126 0.36104
 Mn128 Mn 0.59422 0.00012 0.49924
 C129 C 0.61609 -0.11349 0.37965
 C130 C 0.61555 0.11268 0.37873
 N131 N 0.40500 0.05527 0.43941
 N132 N 0.36720 0.09062 0.42805
 N133 N 0.44199 -0.05753 0.39996
 N134 N 0.42914 -0.09163 0.35999
 N135 N 0.40575 -0.05817 0.43932
 N136 N 0.36785 -0.09331 0.42764
 N137 N 0.44141 0.05499 0.40019
 N138 N 0.42889 0.08948 0.36066
 Mn139 Mn 0.40500 -0.00143 0.49904
 Mn140 Mn 0.49952 -0.00081 0.39972
 Cl141 Cl 0.49962 -0.00049 0.49910
 C142 C 0.38305 0.11197 0.37917
 C143 C 0.38331 -0.11430 0.37841
 N144 N 0.59447 0.55640 0.05984
 N145 N 0.63241 0.59151 0.07124
 N146 N 0.55674 0.44382 0.09867
 N147 N 0.56934 0.40958 0.13852
 N148 N 0.59319 0.44318 0.05951
 N149 N 0.63098 0.40794 0.07118
 N150 N 0.55811 0.55629 0.09911
 N151 N 0.57069 0.59081 0.13862
 C152 C 0.61662 0.61299 0.12011
 C153 C 0.61521 0.38687 0.12019
 N154 N 0.40386 0.44755 0.05972
 N155 N 0.36473 0.41407 0.07173
 N156 N 0.44262 0.55854 0.09954
 N157 N 0.42972 0.59193 0.14013
 N158 N 0.40668 0.56043 0.05984
 N159 N 0.36893 0.59559 0.07198
 N160 N 0.44119 0.44571 0.09804
 N161 N 0.42858 0.41066 0.13698
 Mn162 Mn 0.49967 0.50101 0.09932
 C163 C 0.38114 0.39088 0.11952
 C164 C 0.38419 0.61542 0.12178
 N165 N 0.59326 0.44316 -0.05957
 N166 N 0.63111 0.40800 -0.07132
 N167 N 0.55827 0.55631 -0.09894
 N168 N 0.57093 0.59061 -0.13857
 N169 N 0.59464 0.55647 -0.05964
 N170 N 0.63274 0.59137 -0.07117
 N171 N 0.55677 0.44377 -0.09876
 N172 N 0.56940 0.40961 -0.13872
 Mn173 Mn 0.59430 0.49987 0.00005
 C174 C 0.61535 0.38696 -0.12042
 C175 C 0.61699 0.61272 -0.12016
 N176 N 0.40707 0.56032 -0.05943
 N177 N 0.36979 0.59602 -0.07115
 N178 N 0.44104 0.44600 -0.09844
 N179 N 0.42755 0.41228 -0.13841
 N180 N 0.40392 0.44750 -0.05993
 N181 N 0.36431 0.41478 -0.07270
 N182 N 0.44309 0.55851 -0.09897
 N183 N 0.43081 0.59252 -0.13907
 Mn184 Mn 0.40504 0.50399 0.00004
 Mn185 Mn 0.49978 0.50105 -0.09923
 Cl186 Cl 0.49970 0.50142 0.00006
 C187 C 0.38555 0.61619 -0.12051
 C188 C 0.37998 0.39265 -0.12130
 N189 N 1.18943 0.17207 0.23893
 C190 C 1.21677 0.21292 0.21432
 N191 N 1.21126 0.21973 0.15863
 N192 N 1.17938 0.18786 0.12904
 C193 C 1.15221 0.14731 0.15379
 N194 N 1.15793 0.13978 0.20924
 N195 N 1.21037 0.66084 0.72464
 C196 C 1.21463 0.71455 0.71429
 N197 N 1.18365 0.73614 0.67364
 N198 N 1.15119 0.70527 0.64362
 C199 C 1.14749 0.65172 0.65375
 N200 N 1.17733 0.63004 0.69508
 N201 N 0.72065 0.20963 0.65879
 C202 C 0.71344 0.21441 0.71452
 N203 N 0.67304 0.18620 0.73851
 N204 N 0.64130 0.15478 0.70818
 C205 C 0.64898 0.14989 0.65270
 N206 N 0.68931 0.17771 0.62856
 N207 N 0.72045 0.71022 0.15845
 C208 C 0.71320 0.71492 0.21416
 N209 N 0.67293 0.68665 0.23822
 N210 N 0.64129 0.65518 0.20794
 C211 C 0.64905 0.65031 0.15251
 N212 N 0.68922 0.67821 0.12825
 N213 N 0.81667 -0.23612 0.17475
 C214 C 0.78543 -0.21433 0.21504
 N215 N 0.78920 -0.16047 0.22485
 N216 N 0.82204 -0.12974 0.19513
 C217 C 0.85213 -0.15163 0.15416
 N218 N 0.84894 -0.20531 0.14457
 N219 N 0.81720 0.26343 0.67491
 C220 C 0.78571 0.28549 0.71489
 N221 N 0.78914 0.33950 0.72391
 N222 N 0.82190 0.37006 0.69384
 C223 C 0.85230 0.34792 0.65321
 N224 N 0.84942 0.29407 0.64437
 N225 N 0.32649 -0.18546 0.73794
 C226 C 0.28668 -0.21434 0.71364
 N227 N 0.28033 -0.21077 0.65773
 N228 N 0.31191 -0.17920 0.62757
 C229 C 0.35162 -0.15068 0.65204
 N230 N 0.35849 -0.15441 0.70770
 N231 N 0.26598 0.31378 0.16934
 C232 C 0.28691 0.28631 0.21306
 N233 N 0.33921 0.29444 0.22604
 N234 N 0.36942 0.32738 0.19597
 C235 C 0.34854 0.35354 0.15166
 N236 N 0.29629 0.34638 0.13896
 N237 N 0.78960 0.16036 -0.22286
 C238 C 0.78581 0.21436 -0.21391
 N239 N 0.81714 0.23660 -0.17384
 N240 N 0.84960 0.20616 -0.14321
 C241 C 0.85287 0.15232 -0.15204
 N242 N 0.82258 0.13001 -0.19269
 N243 N 0.81664 0.73563 0.32553
 C244 C 0.78553 0.71392 0.28506
 N245 N 0.78964 0.66013 0.27494
 N246 N 0.82268 0.62937 0.30454
 C247 C 0.85265 0.65117 0.34568
 N248 N 0.84911 0.70479 0.35559
 N249 N 0.32480 0.18320 0.26049
 C250 C 0.28737 0.21494 0.28505
 N251 N 0.28247 0.21312 0.34124
 N252 N 0.31328 0.18064 0.37142
 C253 C 0.35077 0.14943 0.34664
 N254 N 0.35613 0.15137 0.29072
 N255 N 0.28151 0.71303 -0.15897
 C256 C 0.28726 0.71597 -0.21497
 N257 N 0.32696 0.68697 -0.23930
 N258 N 0.35933 0.65626 -0.20900
 C259 C 0.35299 0.65310 -0.15325
 N260 N 0.31347 0.68183 -0.12875
 N261 N 1.21000 -0.16014 -0.22482
 C262 C 1.21432 -0.21399 -0.21535
 N263 N 1.18353 -0.23618 -0.17496
 N264 N 1.15114 -0.20575 -0.14437
 C265 C 1.14740 -0.15206 -0.15362
 N266 N 1.17704 -0.12980 -0.19469
 N267 N 1.18369 0.26377 0.32455
 C268 C 1.21483 0.28574 0.28430
 N269 N 1.21150 0.33979 0.27554
 N270 N 1.17889 0.37043 0.30571
 C271 C 1.14870 0.34834 0.34638
 N272 N 1.15163 0.29450 0.35525
 N273 N 0.67270 -0.18713 0.26168
 C274 C 0.71309 -0.21530 0.28585
 N275 N 0.72030 -0.21058 0.34158
 N276 N 0.68892 -0.17864 0.37168
 C277 C 0.64863 -0.15083 0.34732
 N278 N 0.64092 -0.15573 0.29187
 N279 N 0.71989 0.28985 -0.15837
 C280 C 0.71301 0.28504 -0.21415
 N281 N 0.67264 0.31317 -0.23849
 N282 N 0.64066 0.34462 -0.20846
 C283 C 0.64806 0.34958 -0.15293
 N284 N 0.68831 0.32178 -0.12844
 N285 N 1.18322 0.17579 -0.23961
 C286 C 1.21468 0.21322 -0.21442
 N287 N 1.21331 0.21657 -0.15811
 N288 N 1.18134 0.18496 -0.12844
 C289 C 1.15009 0.14782 -0.15378
 N290 N 1.15173 0.14359 -0.20990
 N291 N 1.21186 0.66121 0.27525
 C292 C 1.21582 0.71530 0.28449
 N293 N 1.18387 0.73720 0.32435
 N294 N 1.15137 0.70654 0.35460
 C295 C 1.14832 0.65272 0.34561
 N296 N 1.17880 0.63066 0.30502
 N297 N 0.71968 0.21009 0.34103
 C298 C 0.71289 0.21471 0.28524
 N299 N 0.67277 0.18633 0.26082
 N300 N 0.64090 0.15484 0.29079
 C301 C 0.64819 0.15007 0.34633
 N302 N 0.68822 0.17810 0.37091
 N303 N 0.72081 0.70996 -0.15868
 C304 C 0.71303 0.71514 -0.21430
 N305 N 0.67247 0.68709 -0.23826
 N306 N 0.64110 0.65541 -0.20798
 C307 C 0.64939 0.65008 -0.15264
 N308 N 0.68984 0.67778 -0.12850
 N309 N 0.81681 -0.23617 -0.17484
 C310 C 0.78525 -0.21410 -0.21475
 N311 N 0.78849 -0.16006 -0.22359
 N312 N 0.82115 -0.12948 -0.19335
 C313 C 0.85156 -0.15166 -0.15275
 N314 N 0.84889 -0.20552 -0.14412
 N315 N 0.81637 0.26380 0.32571
 C316 C 0.78541 0.28569 0.28518
 N317 N 0.78984 0.33946 0.27521
 N318 N 0.82303 0.36999 0.30493
 C319 C 0.85293 0.34803 0.34609
 N320 N 0.84902 0.29442 0.35589
 N321 N 0.28010 -0.21322 0.34099
 C322 C 0.28538 -0.21677 0.28481
 N323 N 0.32453 -0.18701 0.26024
 N324 N 0.35653 -0.15546 0.29015
 C325 C 0.35051 -0.15180 0.34593
 N326 N 0.31165 -0.18111 0.37080
 N327 N 0.26731 0.30866 -0.16587
 C328 C 0.28536 0.28739 -0.21439
 N329 N 0.33399 0.30355 -0.23324
 N330 N 0.36431 0.33685 -0.20351
 C331 C 0.34689 0.35598 -0.15404
 N332 N 0.29759 0.34190 -0.13607
 N333 N 1.18351 -0.23840 0.17720
 C334 C 1.21543 -0.21636 0.21704
 N335 N 1.21128 -0.16227 0.22618
 N336 N 1.17807 -0.13185 0.19634
 C337 C 1.14765 -0.15403 0.15574
 N338 N 1.15086 -0.20786 0.14686
 N339 N 1.18283 0.32366 0.74080
 C340 C 1.21433 0.28621 0.71568
 N341 N 1.21266 0.28258 0.65939
 N342 N 1.18039 0.31395 0.62967
 C343 C 1.14913 0.35111 0.65494
 N344 N 1.15105 0.35564 0.71103
 N345 N 0.67238 -0.18653 0.73802
 C346 C 0.71286 -0.21470 0.71405
 N347 N 0.72034 -0.20979 0.65838
 N348 N 0.68917 -0.17772 0.62817
 C349 C 0.64881 -0.14990 0.65231
 N350 N 0.64081 -0.15497 0.70770
 N351 N 0.71960 0.28966 0.15828
 C352 C 0.71283 0.28514 0.21407
 N353 N 0.67261 0.31349 0.23835
 N354 N 0.64063 0.34487 0.20825
 C355 C 0.64791 0.34954 0.15271
 N356 N 0.68803 0.32155 0.12827
 N357 N 0.78980 0.16047 0.22405
 C358 C 0.78554 0.21430 0.21434
 N359 N 0.81673 0.23626 0.17412
 N360 N 0.84949 0.20567 0.14405
 C361 C 0.85324 0.15200 0.15362
 N362 N 0.82308 0.12997 0.19443
 N363 N 0.81665 0.73656 0.67451
 C364 C 0.78522 0.71454 0.71446
 N365 N 0.78854 0.66052 0.72335
 N366 N 0.82117 0.62989 0.69314
 C367 C 0.85147 0.65201 0.65251
 N368 N 0.84873 0.70586 0.64381
 N369 N 0.26709 0.19079 0.66737
 C370 C 0.28549 0.21256 0.71553
 N371 N 0.33478 0.19744 0.73362
 N372 N 0.36530 0.16466 0.70350
 C373 C 0.34747 0.14512 0.65433
 N374 N 0.29758 0.15814 0.63714
 N375 N 0.28059 0.71359 0.16017
 C376 C 0.28545 0.71614 0.21645
 N377 N 0.32457 0.68606 0.24084
 N378 N 0.35686 0.65506 0.21065
 C379 C 0.35122 0.65237 0.15475
 N380 N 0.31244 0.68205 0.13007
   
