data_POSCAR
  _audit_creation_date              2014-09-24
  _audit_creation_method            'ToBaCCo'
  _symmetry_space_group_name_H-M    'P1'
  _symmetry_Int_Tables_number       1
  _symmetry_cell_setting            triclinic
  loop_
  _symmetry_equiv_pos_as_xyz
 x,y,z
_cell_length_a 33.5839
_cell_length_b 33.6526
_cell_length_c 33.5617
_cell_angle_alpha 89.768600
_cell_angle_beta 90.161000
_cell_angle_gamma 89.761400
loop_
  _atom_site_label
  _atom_site_type_symbol
  _atom_site_fract_x
  _atom_site_fract_y
  _atom_site_fract_z
C1 C 0.14793 0.17339 0.20473
 C2 C 0.14628 0.20189 0.17410
 C3 C 0.17439 0.20123 0.14412
 C4 C 0.20453 0.17234 0.14436
 C5 C 0.20618 0.14440 0.17443
 C6 C 0.17765 0.14494 0.20485
 C7 C 0.12563 0.16759 0.23856
 N8 N 0.14108 0.13631 0.25958
 C9 C 0.17304 0.12243 0.23872
 C10 C 0.23958 0.12151 0.16809
 N11 N 0.25871 0.13501 0.13491
 C12 C 0.23694 0.16618 0.12029
 C13 C 0.16669 0.23294 0.11939
 N14 N 0.13465 0.25316 0.13358
 C15 C 0.12194 0.23424 0.16711
 H16 H 0.10055 0.18570 0.24717
 H17 H 0.19224 0.09796 0.24715
 H18 H 0.24935 0.09753 0.18722
 H19 H 0.24397 0.18405 0.09447
 H20 H 0.18344 0.24079 0.09303
 H21 H 0.09753 0.24375 0.18579
 C22 C -0.15480 0.81072 0.21808
 C23 C -0.15248 0.78472 0.18564
 C24 C -0.17953 0.78800 0.15471
 C25 C -0.20933 0.81724 0.15585
 C26 C -0.21176 0.84269 0.18788
 C27 C -0.18426 0.83935 0.21930
 C28 C -0.13156 0.81534 0.25148
 N29 N -0.14601 0.84631 0.27331
 C30 C -0.17857 0.86084 0.25359
 C31 C -0.24295 0.86835 0.18055
 N32 N -0.25976 0.85918 0.14467
 C33 C -0.23897 0.82781 0.12955
 C34 C -0.17001 0.75932 0.12725
 N35 N -0.13786 0.73855 0.14079
 C36 C -0.12693 0.75406 0.17653
 H37 H -0.10585 0.79727 0.25863
 H38 H -0.19657 0.88587 0.26248
 H39 H -0.25242 0.89172 0.20042
 H40 H -0.24400 0.81406 0.10094
 H41 H -0.18524 0.75418 0.09930
 H42 H -0.10261 0.74354 0.19502
 C43 C -0.14620 0.17724 -0.20676
 C44 C -0.14521 0.20618 -0.17672
 C45 C -0.17506 0.20742 -0.14853
 C46 C -0.20626 0.17990 -0.14978
 C47 C -0.20718 0.15151 -0.17922
 C48 C -0.17697 0.15021 -0.20794
 C49 C -0.12250 0.17000 -0.23936
 N50 N -0.13807 0.13919 -0.26057
 C51 C -0.17151 0.12706 -0.24108
 C52 C -0.24175 0.13030 -0.17442
 N53 N -0.26218 0.14504 -0.14263
 C54 C -0.24025 0.17552 -0.12745
 C55 C -0.16789 0.23956 -0.12455
 N56 N -0.13425 0.25815 -0.13722
 C57 C -0.12023 0.23767 -0.16922
 H58 H -0.09632 0.18682 -0.24702
 H59 H -0.19138 0.10360 -0.25015
 H60 H -0.25180 0.10689 -0.19394
 H61 H -0.24809 0.19380 -0.10224
 H62 H -0.18681 0.24905 -0.10037
 H63 H -0.09418 0.24522 -0.18641
 C64 C 0.14939 0.82832 -0.20034
 C65 C 0.14968 0.79870 -0.17082
 C66 C 0.17953 0.79800 -0.14248
 C67 C 0.20966 0.82668 -0.14330
 C68 C 0.20953 0.85570 -0.17243
 C69 C 0.17910 0.85655 -0.20119
 C70 C 0.12492 0.83539 -0.23254
 N71 N 0.13891 0.86737 -0.25323
 C72 C 0.17221 0.88031 -0.23394
 C73 C 0.24386 0.87740 -0.16771
 N74 N 0.26516 0.86219 -0.13643
 C75 C 0.24392 0.83114 -0.12134
 C76 C 0.17389 0.76478 -0.11930
 N77 N 0.14137 0.74492 -0.13290
 C78 C 0.12634 0.76578 -0.16441
 H79 H 0.09945 0.81752 -0.24045
 H80 H 0.19014 0.90551 -0.24256
 H81 H 0.25334 0.90119 -0.18717
 H82 H 0.25261 0.81219 -0.09673
 H83 H 0.19284 0.75566 -0.09482
 H84 H 0.10125 0.75709 -0.18253
 C85 C 0.17597 1.14772 0.79734
 C86 C 0.20488 1.14637 0.82751
 C87 C 0.20677 1.17637 0.85549
 C88 C 0.17951 1.20810 0.85373
 C89 C 0.15104 1.20925 0.82403
 C90 C 0.14934 1.17892 0.79560
 C91 C 0.16894 1.12416 0.76473
 N92 N 0.13873 1.14039 0.74272
 C93 C 0.12659 1.17398 0.76192
 C94 C 0.13008 1.24410 0.82815
 N95 N 0.14503 1.26466 0.85974
 C96 C 0.17538 1.24246 0.87549
 C97 C 0.23894 1.16826 0.87976
 N98 N 0.25658 1.13406 0.86718
 C99 C 0.23578 1.12056 0.83522
 H100 H 0.18587 1.09792 0.75731
 H101 H 0.10350 1.19429 0.75221
 H102 H 0.10590 1.25340 0.80892
 H103 H 0.19435 1.25112 0.90001
 H104 H 0.24928 1.18663 0.90403
 H105 H 0.24271 1.09397 0.81854
 C106 C 0.83099 0.85625 0.79706
 C107 C 0.80095 0.85582 0.82598
 C108 C 0.79924 0.82517 0.85347
 C109 C 0.82769 0.79450 0.85241
 C110 C 0.85737 0.79512 0.82406
 C111 C 0.85904 0.82625 0.79620
 C112 C 0.83894 0.88145 0.76575
 N113 N 0.87134 0.86759 0.74555
 C114 C 0.88377 0.83378 0.76452
 C115 C 0.87959 0.76104 0.82889
 N116 N 0.86417 0.73926 0.85952
 C117 C 0.83239 0.75998 0.87407
 C118 C 0.76668 0.83218 0.87732
 N119 N 0.74868 0.86645 0.86508
 C120 C 0.76956 0.88097 0.83360
 H121 H 0.82141 0.90741 0.75819
 H122 H 0.90911 0.81573 0.75635
 H123 H 0.90488 0.75303 0.81074
 H124 H 0.81281 0.75014 0.89761
 H125 H 0.75670 0.81333 0.90146
 H126 H 0.76269 0.90812 0.81757
 C127 C 0.18286 0.85231 1.20861
 C128 C 0.21318 0.85081 1.17999
 C129 C 0.21358 0.82087 1.15196
 C130 C 0.18342 0.79212 1.15196
 C131 C 0.15344 0.79378 1.18003
 C132 C 0.15325 0.82407 1.20866
 C133 C 0.17686 0.87616 1.24123
 N134 N 0.14423 0.86315 1.26157
 C135 C 0.12965 0.83125 1.24132
 C136 C 0.12964 0.76112 1.17429
 N137 N 0.14440 0.73948 1.14345
 C138 C 0.17737 0.75843 1.12969
 C139 C 0.24784 0.82525 1.12996
 N140 N 0.26829 0.85718 1.14388
 C141 C 0.24703 0.87299 1.17448
 H142 H 0.19603 0.90044 1.24963
 H143 H 0.10445 0.81342 1.24989
 H144 H 0.10368 0.75374 1.19175
 H145 H 0.19648 0.74802 1.10606
 H146 H 0.25780 0.80562 1.10653
 H147 H 0.25559 0.89838 1.19212
 C148 C 0.81792 1.15819 1.21556
 C149 C 0.78779 1.15902 1.18658
 C150 C 0.79032 1.18492 1.15466
 C151 C 0.82303 1.21052 1.15137
 C152 C 0.85286 1.20942 1.17978
 C153 C 0.85025 1.18307 1.21215
 C154 C 0.82219 1.13753 1.25072
 N155 N 0.85646 1.14916 1.26912
 C156 C 0.87373 1.17715 1.24531
 C157 C 0.87983 1.23843 1.17000
 N158 N 0.86699 1.25763 1.13656
 C159 C 0.83221 1.24047 1.12496
 C160 C 0.75655 1.17988 1.13192
 N161 N 0.73351 1.15153 1.14929
 C162 C 0.75251 1.13881 1.18287
 H163 H 0.80079 1.11671 1.26251
 H164 H 0.90121 1.19266 1.25127
 H165 H 0.90665 1.24521 1.18648
 H166 H 0.81397 1.24972 1.09997
 H167 H 0.74960 1.19573 1.10466
 H168 H 0.74124 1.11692 1.20362
 N169 N 0.54423 1.07251 0.95702
 N170 N 0.57384 1.09767 0.95179
 N171 N 0.46092 1.04346 0.92921
 N172 N 0.42806 1.04506 0.90754
 N173 N 0.46031 1.07089 0.95692
 N174 N 0.42695 1.09166 0.95500
 N175 N 0.54475 1.04493 0.92947
 N176 N 0.57473 1.05052 0.90478
 C177 C 0.59264 1.08351 0.91910
 C178 C 0.40734 1.07553 0.92379
 N179 N 0.46346 0.93035 0.95740
 N180 N 0.43305 0.90601 0.95313
 N181 N 0.54674 0.95939 0.92994
 N182 N 0.57921 0.95728 0.90796
 N183 N 0.54741 0.93202 0.95795
 N184 N 0.58044 0.91074 0.95588
 N185 N 0.46286 0.95793 0.92963
 N186 N 0.43200 0.95313 0.90573
 Mn187 Mn 0.50382 1.00142 0.92904
 C188 C 0.41371 0.92058 0.92073
 C189 C 0.59980 0.92657 0.92431
 N190 N 0.46035 1.07104 1.04241
 N191 N 0.42811 1.09332 1.04517
 N192 N 0.54441 1.04512 1.07074
 N193 N 0.57336 1.05161 1.09653
 N194 N 0.54401 1.07268 1.04294
 N195 N 0.57258 1.09878 1.04915
 N196 N 0.46056 1.04340 1.07012
 N197 N 0.42837 1.04612 1.09247
 Mn198 Mn 0.50229 1.07227 0.99979
 C199 C 0.40854 1.07758 1.07662
 C200 C 0.59076 1.08510 1.08261
 N201 N 0.54707 0.93204 1.04360
 N202 N 0.57944 0.90992 1.04701
 N203 N 0.46273 0.95789 1.07079
 N204 N 0.43283 0.95214 1.09555
 N205 N 0.46318 0.93046 1.04309
 N206 N 0.43345 0.90541 1.04812
 N207 N 0.54649 0.95966 1.07111
 N208 N 0.57846 0.95706 1.09398
 Mn209 Mn 0.50527 0.93070 1.00050
 Mn210 Mn 0.50354 1.00152 1.07120
 Cl211 Cl 0.50376 1.00148 1.00014
 C212 C 0.59859 0.92568 1.07874
 C213 C 0.41478 0.91935 1.08098
 N214 N 0.04544 0.45778 0.07203
 N215 N 0.04705 0.42462 0.09314
 N216 N 0.07326 0.54189 0.04505
 N217 N 0.09665 0.57300 0.04943
 N218 N 0.04554 0.54153 0.07254
 N219 N 0.04949 0.57223 0.09656
 N220 N 0.07352 0.45811 0.04487
 N221 N 0.09509 0.42531 0.04697
 C222 C 0.07846 0.40489 0.07745
 C223 C 0.08154 0.59156 0.08179
 N224 N 0.04658 0.54297 -0.06839
 N225 N 0.05009 0.57505 -0.09088
 N226 N 0.07441 0.45878 -0.04091
 N227 N 0.09919 0.42867 -0.04589
 N228 N 0.04718 0.45926 -0.06904
 N229 N 0.05272 0.42954 -0.09398
 N230 N 0.07416 0.54233 -0.04057
 N231 N 0.09732 0.57375 -0.04355
 Mn232 Mn 0.07434 0.50027 0.00214
 C233 C 0.08205 0.59378 -0.07513
 C234 C 0.08524 0.41068 -0.07911
 N235 N -0.04012 0.54195 0.07112
 N236 N -0.04275 0.57444 0.09288
 N237 N -0.06725 0.45809 0.04285
 N238 N -0.08825 0.42502 0.04426
 N239 N -0.04007 0.45815 0.07104
 N240 N -0.04199 0.42523 0.09242
 N241 N -0.06771 0.54187 0.04332
 N242 N -0.09000 0.57415 0.04559
 Mn243 Mn 0.00267 0.49989 0.07221
 C244 C -0.07427 0.59401 0.07684
 C245 C -0.07239 0.40501 0.07560
 N246 N -0.03855 0.45892 -0.07005
 N247 N -0.04127 0.42685 -0.09248
 N248 N -0.06687 0.54265 -0.04241
 N249 N -0.09125 0.57315 -0.04746
 N250 N -0.03904 0.54271 -0.06979
 N251 N -0.04373 0.57320 -0.09423
 N252 N -0.06645 0.45897 -0.04271
 N253 N -0.08883 0.42703 -0.04579
 Mn254 Mn 0.00405 0.50097 -0.06985
 Mn255 Mn -0.06759 0.50042 0.00029
 Cl256 Cl 0.00338 0.50039 0.00118
 C257 C -0.07298 0.40739 -0.07707
 C258 C -0.07640 0.59195 -0.07991
 N259 N 0.93414 -0.04410 0.45931
 N260 N 0.90837 -0.05138 0.43048
 N261 N 0.96160 -0.07045 0.54377
 N262 N 0.95990 -0.09141 0.57703
 N263 N 0.93368 -0.04298 0.54324
 N264 N 0.91243 -0.04449 0.57626
 N265 N 0.96227 -0.07132 0.46002
 N266 N 0.95653 -0.09773 0.43165
 C267 C 0.92283 -0.08489 0.41343
 C268 C 0.92887 -0.07514 0.59684
 N269 N 1.07459 -0.04211 0.54493
 N270 N 1.09646 -0.04431 0.57760
 N271 N 1.04806 -0.07032 0.46071
 N272 N 1.05196 -0.09299 0.42891
 N273 N 1.07544 -0.04258 0.46106
 N274 N 1.09871 -0.04567 0.42960
 N275 N 1.04720 -0.06982 0.54493
 N276 N 1.04960 -0.09148 0.57774
 Mn277 Mn 1.00482 -0.07098 0.50231
 C278 C 1.08072 -0.07546 0.59764
 C279 C 1.08387 -0.07737 0.40992
 N280 N 0.93246 0.04246 0.54192
 N281 N 0.90877 0.04612 0.57299
 N282 N 0.96076 0.06970 0.45844
 N283 N 0.95460 0.09575 0.42961
 N284 N 0.93327 0.04206 0.45807
 N285 N 0.90750 0.04875 0.42895
 N286 N 0.95995 0.07008 0.54228
 N287 N 0.95575 0.09321 0.57370
 Mn288 Mn 0.93287 -0.00067 0.50053
 C289 C 0.92356 0.07797 0.59246
 C290 C 0.92141 0.08226 0.41131
 N291 N 1.07438 0.04281 0.46026
 N292 N 1.09789 0.04627 0.42903
 N293 N 1.04551 0.07080 0.54318
 N294 N 1.04871 0.09466 0.57410
 N295 N 1.07336 0.04333 0.54416
 N296 N 1.09619 0.04765 0.57592
 N297 N 1.04631 0.07007 0.45935
 N298 N 1.04992 0.09277 0.42739
 Mn299 Mn 1.07494 0.00036 0.50262
 Mn300 Mn 1.00315 0.07063 0.50080
 Cl301 Cl 1.00390 -0.00018 0.50149
 C302 C 1.08237 0.07765 0.40890
 C303 C 1.08051 0.07992 0.59419
 C304 C 1.09357 0.13717 0.31425
 C305 C 1.12759 0.12199 0.29541
 C306 C 1.14724 0.09054 0.31639
 C307 C 1.13274 0.07615 0.35337
 C308 C 1.09817 0.09251 0.37084
 C309 C 1.07984 0.12311 0.34975
 C310 C 1.04447 0.14970 0.35038
 C311 C 1.05969 0.16593 0.31036
 H312 H 1.17384 0.07667 0.30494
 H313 H 1.14863 0.05217 0.36812
 H314 H 1.04581 0.17161 0.37503
 H315 H 1.01614 0.13294 0.34779
 H316 H 1.06959 0.19737 0.31203
 H317 H 1.03980 0.15881 0.28485
 C318 C 0.85209 -0.10822 0.32946
 C319 C 0.87006 -0.13899 0.30787
 C320 C 0.90670 -0.15339 0.32417
 C321 C 0.92359 -0.13645 0.35898
 C322 C 0.90463 -0.10467 0.37885
 C323 C 0.86833 -0.09250 0.36310
 C324 C 0.83552 -0.06363 0.36933
 C325 C 0.81694 -0.08086 0.33129
 H326 H 0.92319 -0.17708 0.31016
 H327 H 0.95167 -0.14801 0.36996
 H328 H 0.84577 -0.03262 0.36596
 H329 H 0.81827 -0.07012 0.39679
 H330 H 0.81624 -0.05922 0.30617
 H331 H 0.78866 -0.09703 0.33674
 C332 C 0.91089 0.13846 0.68600
 C333 C 0.87643 0.12392 0.70443
 C334 C 0.85735 0.09217 0.68387
 C335 C 0.87257 0.07716 0.64748
 C336 C 0.90729 0.09319 0.63015
 C337 C 0.92523 0.12389 0.65099
 C338 C 0.96017 0.15073 0.65008
 C339 C 0.94424 0.16756 0.68949
 H340 H 0.83069 0.07847 0.69521
 H341 H 0.85703 0.05303 0.63302
 H342 H 0.95880 0.17218 0.62485
 H343 H 0.98867 0.13416 0.65344
 H344 H 0.93381 0.19886 0.68689
 H345 H 0.96397 0.16109 0.71539
 C346 C 1.14261 -0.08655 0.69121
 C347 C 1.12265 -0.11626 0.71289
 C348 C 1.08489 -0.12807 0.69807
 C349 C 1.07061 -0.11401 0.66108
 C350 C 1.09350 -0.08779 0.63788
 C351 C 1.12840 -0.07287 0.65470
 C352 C 1.16905 -0.07038 0.63719
 C353 C 1.18480 -0.08519 0.67699
 H354 H 1.06647 -0.14887 0.71413
 H355 H 1.04230 -0.12479 0.65010
 H356 H 1.17785 -0.03932 0.63036
 H357 H 1.17367 -0.09185 0.61250
 H358 H 1.20263 -0.06244 0.69292
 H359 H 1.19880 -0.11515 0.67540
 C360 C 0.31447 1.08849 1.13668
 C361 C 0.29400 1.12094 1.11988
 C362 C 0.31299 1.13871 1.08631
 C363 C 0.35015 1.12458 1.07210
 C364 C 0.36970 1.09214 1.09062
 C365 C 0.35007 1.07498 1.12267
 C366 C 0.35384 1.04277 1.15281
 C367 C 0.31373 1.05774 1.16899
 H368 H 0.30002 1.16376 1.07082
 H369 H 0.36353 1.13928 1.04672
 H370 H 0.37922 1.04765 1.17352
 H371 H 0.35229 1.01275 1.13921
 H372 H 0.31617 1.07095 1.19920
 H373 H 0.28910 1.03613 1.16500
 C374 C 0.32058 0.90789 0.85870
 C375 C 0.30225 0.87433 0.87566
 C376 C 0.32473 0.85301 0.90465
 C377 C 0.36164 0.86727 0.91841
 C378 C 0.37728 0.90314 0.90372
 C379 C 0.35703 0.92176 0.87236
 C380 C 0.34505 0.96420 0.86767
 C381 C 0.30506 0.94930 0.85296
 H382 H 0.31395 0.82580 0.91777
 H383 H 0.37714 0.85092 0.94162
 H384 H 0.36261 0.97932 0.84413
 H385 H 0.34332 0.98020 0.89655
 H386 H 0.29957 0.95658 0.82107
 H387 H 0.28004 0.95649 0.87337
 C388 C 0.69174 0.86361 1.09114
 C389 C 0.70879 0.87821 1.12652
 C390 C 0.69194 0.91364 1.14207
 C391 C 0.65690 0.93012 1.12562
 C392 C 0.63775 0.91185 1.09321
 C393 C 0.65724 0.88001 1.07505
 C394 C 0.64141 0.84066 1.06261
 C395 C 0.67896 0.82246 1.08026
 H396 H 0.70458 0.92826 1.16770
 H397 H 0.64380 0.95597 1.13958
 H398 H 0.63967 0.83785 1.02966
 H399 H 0.61390 0.83224 1.07892
 H400 H 0.69850 0.80892 1.05729
 H401 H 0.67328 0.80345 1.10680
 C402 C 0.68271 1.09888 0.85375
 C403 C 0.70117 1.13252 0.87024
 C404 C 0.67942 1.15324 0.89990
 C405 C 0.64334 1.13814 0.91491
 C406 C 0.62788 1.10203 0.90079
 C407 C 0.64712 1.08419 0.86862
 C408 C 0.65951 1.04202 0.86310
 C409 C 0.69861 1.05780 0.84708
 H410 H 0.69027 1.18055 0.91261
 H411 H 0.62848 1.15396 0.93868
 H412 H 0.64120 1.02703 0.84007
 H413 H 0.66271 1.02554 0.89173
 H414 H 0.70286 1.05113 0.81496
 H415 H 0.72458 1.05068 0.86650
 C416 C 0.13998 0.31161 0.08901
 C417 C 0.11805 0.28888 0.11626
 C418 C 0.07950 0.30260 0.12611
 C419 C 0.06593 0.34004 0.11272
 C420 C 0.09052 0.36438 0.08908
 C421 C 0.12654 0.34842 0.07579
 C422 C 0.16727 0.36594 0.07742
 C423 C 0.18207 0.32559 0.09157
 H424 H 0.06035 0.28527 0.14526
 H425 H 0.03686 0.35046 0.12205
 H426 H 0.16999 0.38951 0.10038
 H427 H 0.17857 0.37426 0.04749
 H428 H 0.19365 0.32576 0.12265
 H429 H 0.20160 0.31061 0.06951
 C430 C -0.08616 0.31454 -0.13836
 C431 C -0.11773 0.29412 -0.12061
 C432 C -0.13333 0.31178 -0.08550
 C433 C -0.11855 0.34844 -0.07106
 C434 C -0.08751 0.36861 -0.09097
 C435 C -0.07193 0.34967 -0.12423
 C436 C -0.04316 0.35500 -0.15735
 C437 C -0.05907 0.31537 -0.17356
 H438 H -0.15714 0.29793 -0.06905
 H439 H -0.13176 0.36103 -0.04454
 H440 H -0.01175 0.35340 -0.14694
 H441 H -0.05074 0.38099 -0.17650
 H442 H -0.03666 0.29098 -0.17271
 H443 H -0.07564 0.31868 -0.20211
 C444 C 0.09073 0.69104 -0.13031
 C445 C 0.12704 0.70722 -0.11813
 C446 C 0.14930 0.68378 -0.09056
 C447 C 0.13479 0.64678 -0.07649
 C448 C 0.09774 0.63186 -0.08966
 C449 C 0.07703 0.65543 -0.11682
 C450 C 0.03871 0.65840 -0.13889
 C451 C 0.05403 0.69860 -0.15447
 H452 H 0.17799 0.69343 -0.07980
 H453 H 0.15269 0.62991 -0.05548
 H454 H 0.01278 0.66117 -0.11856
 H455 H 0.03599 0.63537 -0.16237
 H456 H 0.03666 0.72445 -0.14334
 H457 H 0.05997 0.69857 -0.18703
 C458 C -0.13939 0.68433 0.09125
 C459 C -0.11912 0.70563 0.12078
 C460 C -0.08018 0.69290 0.13069
 C461 C -0.06477 0.65714 0.11534
 C462 C -0.08786 0.63356 0.08959
 C463 C -0.12412 0.64914 0.07606
 C464 C -0.16419 0.63013 0.07485
 C465 C -0.18094 0.66871 0.09121
 H466 H -0.06223 0.70947 0.15158
 H467 H -0.03558 0.64716 0.12499
 H468 H -0.16673 0.60472 0.09596
 H469 H -0.17422 0.62383 0.04398
 H470 H -0.19343 0.66569 0.12172
 H471 H -0.20035 0.68472 0.06953
 C472 C 1.13811 0.09109 0.68989
 C473 C 1.12440 0.12649 0.70710
 C474 C 1.09475 0.14721 0.68455
 C475 C 1.08060 0.13236 0.64764
 C476 C 1.09534 0.09633 0.63193
 C477 C 1.12431 0.07709 0.65446
 C478 C 1.14837 0.04006 0.65603
 C479 C 1.16439 0.05556 0.69596
 H480 H 1.08219 0.17493 0.69467
 H481 H 1.05819 0.14919 0.63151
 H482 H 1.17112 0.03890 0.63207
 H483 H 1.12941 0.01326 0.65911
 H484 H 1.19656 0.06316 0.69494
 H485 H 1.15510 0.03719 0.72190
 C486 C 0.91991 -0.13448 0.69209
 C487 C 0.88827 -0.11577 0.71225
 C488 C 0.87500 -0.07886 0.69629
 C489 C 0.88915 -0.06477 0.65937
 C490 C 0.91714 -0.08688 0.63748
 C491 C 0.93395 -0.12025 0.65588
 C492 C 0.94080 -0.16085 0.63972
 C493 C 0.92526 -0.17669 0.67909
 H494 H 0.85263 -0.06119 0.71107
 H495 H 0.87687 -0.03745 0.64727
 H496 H 0.97296 -0.16717 0.63503
 H497 H 0.92112 -0.16771 0.61397
 H498 H 0.94858 -0.19250 0.69667
 H499 H 0.89653 -0.19275 0.67622
 C500 C 1.09662 -0.13767 0.31621
 C501 C 1.12985 -0.12172 0.29669
 C502 C 1.14791 -0.08889 0.31643
 C503 C 1.13307 -0.07436 0.35322
 C504 C 1.09968 -0.09192 0.37171
 C505 C 1.08260 -0.12351 0.35152
 C506 C 1.04937 -0.15232 0.35391
 C507 C 1.06495 -0.16872 0.31419
 H508 H 1.17353 -0.07403 0.30416
 H509 H 1.14786 -0.04942 0.36707
 H510 H 1.01991 -0.13742 0.35131
 H511 H 1.05280 -0.17333 0.37933
 H512 H 1.04406 -0.16376 0.28889
 H513 H 1.07728 -0.19933 0.31684
 C514 C 0.85097 0.10488 0.32600
 C515 C 0.86994 0.13607 0.30555
 C516 C 0.90308 0.15358 0.32496
 C517 C 0.91879 0.13715 0.36037
 C518 C 0.90208 0.10275 0.37739
 C519 C 0.86664 0.08882 0.36088
 C520 C 0.85491 0.04767 0.35013
 C521 C 0.83797 0.06487 0.31179
 H522 H 0.91800 0.17915 0.31264
 H523 H 0.94519 0.15033 0.37326
 H524 H 0.83165 0.03604 0.37051
 H525 H 0.88101 0.02782 0.34536
 H526 H 0.80502 0.06227 0.31004
 H527 H 0.85425 0.05505 0.28472
 C528 C 0.14876 0.31879 -0.09289
 C529 C 0.13308 0.30159 -0.12769
 C530 C 0.10506 0.32481 -0.14948
 C531 C 0.09054 0.36103 -0.13441
 C532 C 0.10357 0.37530 -0.09729
 C533 C 0.13440 0.35465 -0.07823
 C534 C 0.13773 0.34133 -0.03597
 C535 C 0.15318 0.30198 -0.05173
 H536 H 0.09316 0.31504 -0.17767
 H537 H 0.06791 0.37699 -0.15114
 H538 H 0.10836 0.33897 -0.02094
 H539 H 0.16063 0.35841 -0.01948
 H540 H 0.13270 0.27671 -0.04603
 H541 H 0.18482 0.29638 -0.04359
 C542 C -0.08265 0.31144 0.13687
 C543 C -0.11381 0.29122 0.11788
 C544 C -0.12600 0.30576 0.08012
 C545 C -0.11145 0.34218 0.06534
 C546 C -0.08414 0.36463 0.08778
 C547 C -0.06813 0.34708 0.12208
 C548 C -0.06236 0.36398 0.16268
 C549 C -0.07840 0.32507 0.17902
 H550 H -0.14810 0.29027 0.06271
 H551 H -0.12303 0.35358 0.03739
 H552 H -0.08217 0.38986 0.16853
 H553 H -0.03037 0.36870 0.16974
 H554 H -0.10755 0.32832 0.19432
 H555 H -0.05557 0.30768 0.19572
 C556 C -0.14013 0.68381 -0.09431
 C557 C -0.12329 0.70239 -0.12789
 C558 C -0.09380 0.68042 -0.14868
 C559 C -0.07946 0.64385 -0.13384
 C560 C -0.09402 0.62803 -0.09788
 C561 C -0.12588 0.64769 -0.07984
 C562 C -0.13110 0.65962 -0.03747
 C563 C -0.14645 0.69925 -0.05301
 H564 H -0.08077 0.69139 -0.17592
 H565 H -0.05588 0.62878 -0.14981
 H566 H -0.10240 0.66188 -0.02104
 H567 H -0.15439 0.64173 -0.02244
 H568 H -0.12658 0.72459 -0.04578
 H569 H -0.17846 0.70418 -0.04622
 C570 C 0.14044 0.68596 0.09260
 C571 C 0.12887 0.70221 0.12905
 C572 C 0.10081 0.67954 0.15108
 C573 C 0.08531 0.64338 0.13594
 C574 C 0.09759 0.62858 0.09851
 C575 C 0.12562 0.65121 0.07831
 C576 C 0.14644 0.65465 0.03943
 C577 C 0.16347 0.69389 0.05544
 H578 H 0.09069 0.68934 0.17996
 H579 H 0.06378 0.62716 0.15353
 H580 H 0.12530 0.65885 0.01421
 H581 H 0.16922 0.63099 0.03533
 H582 H 0.15233 0.72055 0.03914
 H583 H 0.19618 0.69272 0.06040
 C584 C 0.31414 1.08817 0.86187
 C585 C 0.29170 1.11558 0.88390
 C586 C 0.30524 1.12467 0.92268
 C587 C 0.34244 1.11062 0.93634
 C588 C 0.36673 1.08702 0.91164
 C589 C 0.35076 1.07427 0.87543
 C590 C 0.36853 1.07587 0.83474
 C591 C 0.32842 1.09079 0.81985
 H592 H 0.28804 1.14386 0.94190
 H593 H 0.35280 1.11955 0.96554
 H594 H 0.37640 1.04596 0.82328
 H595 H 0.39257 1.09837 0.83222
 H596 H 0.31311 1.06920 0.80012
 H597 H 0.32918 1.12185 0.80844
 C598 C 0.32323 0.85588 1.09459
 C599 C 0.30692 0.87012 1.13026
 C600 C 0.33040 0.89678 1.15268
 C601 C 0.36621 0.91198 1.13723
 C602 C 0.37969 0.90057 1.09924
 C603 C 0.35874 0.87064 1.07955
 C604 C 0.34406 0.86918 1.03758
 C605 C 0.30514 0.85314 1.05397
 H606 H 0.32075 0.90713 1.18152
 H607 H 0.38248 0.93376 1.15440
 H608 H 0.36072 0.84710 1.01950
 H609 H 0.34109 0.89917 1.02379
 H610 H 0.29943 0.82189 1.04507
 H611 H 0.27955 0.87383 1.04981
 C612 C 0.67842 1.10283 1.15071
 C613 C 0.69529 1.13773 1.13540
 C614 C 0.67312 1.15872 1.10619
 C615 C 0.63818 1.14236 1.08977
 C616 C 0.62448 1.10486 1.10239
 C617 C 0.64390 1.08691 1.13469
 C618 C 0.65860 1.04528 1.13959
 C619 C 0.69650 1.06264 1.15703
 H620 H 0.68333 1.18698 1.09481
 H621 H 0.62296 1.15828 1.06608
 H622 H 0.66328 1.03000 1.11064
 H623 H 0.64079 1.02841 1.16176
 H624 H 0.72320 1.05755 1.13817
 H625 H 0.70050 1.05543 1.18914
 C626 C 0.69174 0.91332 0.86119
 C627 C 0.71383 0.88470 0.88233
 C628 C 0.70054 0.87465 0.92098
 C629 C 0.66390 0.88920 0.93534
 C630 C 0.63989 0.91424 0.91148
 C631 C 0.65568 0.92770 0.87541
 C632 C 0.63731 0.92792 0.83486
 C633 C 0.67681 0.91244 0.81925
 H634 H 0.71754 0.85449 0.93963
 H635 H 0.65374 0.87963 0.96441
 H636 H 0.63012 0.95840 0.82426
 H637 H 0.61264 0.90616 0.83200
 H638 H 0.69241 0.93425 0.79991
 H639 H 0.67507 0.88180 0.80711
   
