data_POSCAR
  _audit_creation_date              2014-09-24
  _audit_creation_method            'ToBaCCo'
  _symmetry_space_group_name_H-M    'P1'
  _symmetry_Int_Tables_number       1
  _symmetry_cell_setting            triclinic
  loop_
  _symmetry_equiv_pos_as_xyz
 x,y,z
_cell_length_a 28.7267
_cell_length_b 28.5856
_cell_length_c 28.4650
_cell_angle_alpha 90.641300
_cell_angle_beta 88.478600
_cell_angle_gamma 89.931200
loop_
  _atom_site_label
  _atom_site_type_symbol
  _atom_site_fract_x
  _atom_site_fract_y
  _atom_site_fract_z
Si1 Si 0.75595 0.62795 1.00419
 Si2 Si 0.75626 0.37498 0.49490
 Si3 Si 0.25307 -0.13208 -0.01089
 Si4 Si 0.26250 0.12559 0.50225
 Si5 Si 0.12287 0.50671 0.24957
 Si6 Si -0.12667 0.00699 0.26251
 Si7 Si 0.38381 0.48417 0.73660
 Si8 Si 0.62825 0.98330 0.77742
 Si9 Si -0.00263 0.25944 -0.13087
 Si10 Si 0.49412 0.25955 0.11510
 Si11 Si 0.98679 0.76298 0.61666
 Si12 Si 0.48664 0.75458 0.36517
 C13 C 0.43672 -0.03249 0.28684
 H14 H 0.44168 0.00272 0.30002
 C15 C 0.45942 -0.06984 0.30804
 H16 H 0.48271 -0.06294 0.33660
 C17 C 0.39708 -0.08505 0.23696
 H18 H 0.37144 -0.09144 0.21065
 C19 C 0.41885 -0.12315 0.25706
 H20 H 0.41024 -0.15805 0.24490
 N21 N 0.40513 -0.04081 0.25290
 C22 C 0.36349 0.08491 0.17960
 H23 H 0.32806 0.07369 0.17449
 C24 C 0.37984 0.12450 0.15665
 H25 H 0.35674 0.14360 0.13424
 C26 C 0.43683 0.07280 0.21372
 H27 H 0.45908 0.05208 0.23532
 C28 C 0.45455 0.11293 0.19176
 H29 H 0.49060 0.12241 0.19642
 Zn30 Zn 0.36283 0.00643 0.23420
 N31 N 0.39182 0.05983 0.20748
 C32 C 0.29809 0.06354 0.28363
 N33 N 0.32663 0.02589 0.28740
 C34 C 0.33280 0.00508 0.32958
 C35 C 0.31278 0.02431 0.37061
 C36 C 0.27710 0.08367 0.32369
 C37 C 0.34815 -0.02607 0.14503
 C38 C 0.32532 -0.04639 0.10757
 C39 C 0.25559 -0.05130 0.15676
 C40 C 0.27985 -0.03036 0.19345
 N41 N 0.32546 -0.01888 0.18695
 H42 H 0.29293 0.07912 0.24981
 H43 H 0.35418 -0.02582 0.33183
 H44 H 0.31883 0.00758 0.40380
 H45 H 0.25575 0.11466 0.32028
 H46 H 0.38458 -0.01695 0.14119
 H47 H 0.34512 -0.05362 0.07547
 H48 H 0.21968 -0.06174 0.16254
 H49 H 0.26274 -0.02440 0.22730
 C50 C 0.42563 0.13922 0.16281
 C51 C 0.44929 -0.11590 0.29438
 C52 C 0.27840 -0.05952 0.11319
 C53 C 0.28584 0.06513 0.36798
 C54 C 0.05245 1.04468 0.80648
 H55 H 0.05000 1.01011 0.82145
 C56 C 0.02662 1.08168 0.82654
 H57 H 0.00398 1.07521 0.85680
 C58 C 0.08700 1.09574 0.75071
 H59 H 0.11145 1.10166 0.72198
 C60 C 0.06168 1.13353 0.76937
 H61 H 0.06624 1.16732 0.75328
 N62 N 0.08258 1.05249 0.76978
 C63 C 0.12452 0.92332 0.69814
 H64 H 0.16162 0.92958 0.69898
 C65 C 0.10775 0.88509 0.67320
 H66 H 0.13212 0.86190 0.65485
 C67 C 0.04776 0.94678 0.72036
 H68 H 0.02471 0.97152 0.73819
 C69 C 0.02938 0.90828 0.69625
 H70 H -0.00799 0.90391 0.69537
 Zn71 Zn 0.12441 1.00452 0.74978
 N72 N 0.09465 0.95331 0.72090
 C73 C 0.15079 0.93778 0.81528
 N74 N 0.15601 0.98329 0.80290
 C75 C 0.18052 1.01370 0.82975
 C76 C 0.20195 0.99821 0.87034
 C77 C 0.17136 0.92094 0.85544
 C78 C 0.14592 1.03678 0.66167
 C79 C 0.17214 1.05507 0.62453
 C80 C 0.23954 1.05487 0.67362
 C81 C 0.21187 1.03624 0.71001
 N82 N 0.16578 1.02835 0.70351
 H83 H 0.12971 0.91451 0.79465
 H84 H 0.18302 1.05006 0.81986
 H85 H 0.22140 1.02272 0.89144
 H86 H 0.16516 0.88493 0.86496
 H87 H 0.10917 1.03009 0.65760
 H88 H 0.15468 1.06334 0.59245
 H89 H 0.27597 1.06208 0.67934
 H90 H 0.22707 1.02868 0.74339
 C91 C 0.05978 0.87702 0.67219
 C92 C 0.03213 1.12710 0.80890
 C93 C 0.21969 1.06433 0.63021
 C94 C 0.19795 0.95115 0.88331
 C95 C 0.54816 0.54032 0.30569
 H96 H 0.54586 0.50574 0.32061
 C97 C 0.52061 0.57661 0.32461
 H98 H 0.49662 0.56954 0.35366
 C99 C 0.58448 0.59247 0.25205
 H100 H 0.61022 0.59913 0.22467
 C101 C 0.55752 0.62953 0.26964
 H102 H 0.56200 0.66358 0.25401
 N103 N 0.58023 0.54909 0.27086
 C104 C 0.62804 0.42158 0.20071
 H105 H 0.66444 0.43094 0.19785
 C106 C 0.61219 0.38275 0.17613
 H107 H 0.63685 0.36193 0.15535
 C108 C 0.55153 0.43924 0.22863
 H109 H 0.52792 0.46212 0.24810
 C110 C 0.53406 0.40027 0.20455
 H111 H 0.49696 0.39387 0.20585
 Zn112 Zn 0.62517 0.50304 0.25302
 N113 N 0.59792 0.44891 0.22643
 C114 C 0.68619 0.44744 0.30538
 N115 N 0.65919 0.48655 0.30673
 C116 C 0.65311 0.51192 0.34719
 C117 C 0.67226 0.49665 0.38891
 C118 C 0.70600 0.43092 0.34624
 C119 C 0.64431 0.53317 0.16333
 C120 C 0.66917 0.55271 0.12588
 C121 C 0.73571 0.56021 0.17570
 C122 C 0.70942 0.54025 0.21239
 N123 N 0.66445 0.52777 0.20556
 H124 H 0.69095 0.42781 0.27306
 H125 H 0.63242 0.54348 0.34757
 H126 H 0.66571 0.51643 0.42110
 H127 H 0.72504 0.39831 0.34420
 H128 H 0.60832 0.52321 0.15918
 H129 H 0.65135 0.55841 0.09345
 H130 H 0.77119 0.57108 0.18166
 H131 H 0.72452 0.53562 0.24644
 C132 C 0.56478 0.37160 0.17770
 C133 C 0.52637 0.62221 0.30771
 C134 C 0.71559 0.56656 0.13178
 C135 C 0.69840 0.45525 0.38903
 C136 C 0.95599 0.45272 0.75043
 H137 H 0.97381 0.47971 0.73084
 C138 C 0.98126 0.41435 0.76626
 H139 H 1.01832 0.41213 0.75855
 C140 C 0.88686 0.42342 0.78637
 H141 H 0.85053 0.42801 0.79592
 C142 C 0.91053 0.38452 0.80249
 H143 H 0.89154 0.35924 0.82355
 N144 N 0.90946 0.45627 0.76025
 C145 C 0.90578 0.60003 0.73652
 H146 H 0.88325 0.60547 0.76705
 C147 C 0.92897 0.63824 0.71685
 H148 H 0.92468 0.67211 0.73365
 C149 C 0.93827 0.54932 0.67798
 H150 H 0.94081 0.51473 0.66231
 C151 C 0.96197 0.58662 0.65703
 H152 H 0.98307 0.58033 0.62548
 Zn153 Zn 0.87258 0.50731 0.74072
 N154 N 0.91013 0.55672 0.71655
 C155 C 0.79252 0.53920 0.79264
 N156 N 0.83879 0.52961 0.79409
 C157 C 0.86325 0.53744 0.83363
 C158 C 0.84139 0.55656 0.87375
 C159 C 0.76923 0.55847 0.83201
 C160 C 0.80284 0.44914 0.70315
 C161 C 0.77762 0.42805 0.66748
 C162 C 0.80850 0.48526 0.61336
 C163 C 0.83304 0.50537 0.65016
 N164 N 0.83145 0.48593 0.69362
 H165 H 0.77395 0.53302 0.76062
 H166 H 0.90016 0.52986 0.83351
 H167 H 0.86227 0.56408 0.90394
 H168 H 0.73255 0.56689 0.83011
 H169 H 0.80042 0.43516 0.73812
 H170 H 0.75660 0.39755 0.67536
 H171 H 0.81115 0.50089 0.57897
 H172 H 0.85420 0.53583 0.64343
 C173 C 0.95649 0.63199 0.67569
 C174 C 0.95848 0.37957 0.79251
 C175 C 0.78182 0.44484 0.62153
 C176 C 0.79367 0.56751 0.87320
 C177 C 0.27886 0.46521 -0.05651
 H178 H 0.27000 0.48448 -0.02460
 C179 C 0.29997 0.48815 -0.09483
 H180 H 0.30763 0.52515 -0.09216
 C181 C 0.28172 0.39319 -0.09856
 H182 H 0.27545 0.35589 -0.09936
 C183 C 0.30204 0.41464 -0.13759
 H184 H 0.31197 0.39313 -0.16773
 N185 N 0.27079 0.41837 -0.05900
 C186 C 0.16786 0.40992 0.04609
 H187 H 0.14881 0.38745 0.02288
 C188 C 0.14435 0.42977 0.08473
 H189 H 0.10747 0.42301 0.08984
 C190 C 0.23886 0.44401 0.06929
 H191 H 0.27593 0.44855 0.06345
 C192 C 0.21662 0.46416 0.10912
 H193 H 0.23674 0.48523 0.13295
 Zn194 Zn 0.24526 0.38169 -0.00971
 N195 N 0.21434 0.41707 0.03893
 C196 C 0.28405 0.32145 0.05653
 N197 N 0.29367 0.34734 0.01770
 C198 C 0.33817 0.35284 0.00113
 C199 C 0.37519 0.33232 0.02407
 C200 C 0.32012 0.30045 0.08074
 C201 C 0.16991 0.36535 -0.06439
 C202 C 0.13335 0.34140 -0.08458
 C203 C 0.16309 0.26951 -0.05284
 C204 C 0.19911 0.29514 -0.03260
 N205 N 0.20106 0.34235 -0.03792
 H206 H 0.24846 0.31841 0.06954
 H207 H 0.34534 0.37453 -0.02901
 H208 H 0.41022 0.33896 0.01105
 H209 H 0.31203 0.28081 0.11223
 H210 H 0.17288 0.40280 -0.06864
 H211 H 0.10874 0.36056 -0.10520
 H212 H 0.16111 0.23205 -0.04790
 H213 H 0.22484 0.27753 -0.01212
 C214 C 0.16872 0.45638 0.11741
 C215 C 0.31162 0.46277 -0.13609
 C216 C 0.12899 0.29305 -0.07792
 C217 C 0.36640 0.30595 0.06472
 C218 C 0.78352 0.04671 1.05693
 H219 H 0.76813 0.02814 1.02796
 C220 C 0.80274 0.02179 1.09383
 H221 H 0.80202 -0.01610 1.09313
 C222 C 0.80417 0.11854 1.09319
 H223 H 0.80475 0.15637 1.09245
 C224 C 0.82336 0.09521 1.13067
 H225 H 0.83960 0.11549 1.15805
 N226 N 0.78391 0.09428 1.05784
 C227 C 0.75358 0.11455 0.91501
 H228 H 0.77889 0.14232 0.91231
 C229 C 0.73569 0.09565 0.87392
 H230 H 0.74797 0.10853 0.84016
 C231 C 0.70440 0.06637 0.96181
 H232 H 0.69119 0.05644 0.99621
 C233 C 0.68583 0.04611 0.92145
 H234 H 0.65822 0.02065 0.92543
 Zn235 Zn 0.75784 0.13288 1.01189
 N236 N 0.73773 0.09991 0.95792
 C237 C 0.84608 0.15033 0.97998
 N238 N 0.80603 0.17317 0.99232
 C239 C 0.80145 0.22006 0.98654
 C240 C 0.83773 0.24541 0.96523
 C241 C 0.88305 0.17416 0.95890
 C242 C 0.69294 0.15454 1.08433
 C243 C 0.65311 0.17430 1.10510
 C244 C 0.63899 0.21440 1.03262
 C245 C 0.67966 0.19407 1.01321
 N246 N 0.70572 0.16478 1.03925
 H247 H 0.84834 0.11287 0.98448
 H248 H 0.76917 0.23737 0.99654
 H249 H 0.83318 0.28241 0.95891
 H250 H 0.91322 0.15424 0.94702
 H251 H 0.71286 0.13008 1.10421
 H252 H 0.64355 0.16542 1.14098
 H253 H 0.61898 0.23783 1.01144
 H254 H 0.69003 0.20100 0.97715
 C255 C 0.70144 0.06104 0.87673
 C256 C 0.82202 0.04617 1.13175
 C257 C 0.62521 0.20410 1.07918
 C258 C 0.87888 0.22228 0.95053
 C259 C 0.31009 0.59898 0.57004
 H260 H 0.33148 0.62455 0.55215
 C261 C 0.32754 0.57649 0.60908
 H262 H 0.36218 0.58536 0.62015
 C263 C 0.23769 0.56037 0.57989
 H264 H 0.20225 0.55525 0.56899
 C265 C 0.25381 0.53702 0.61934
 H266 H 0.23080 0.51339 0.63823
 N267 N 0.26605 0.59033 0.55579
 C268 C 0.21022 0.61274 0.41616
 H269 H 0.21577 0.65016 0.41557
 C270 C 0.19084 0.59036 0.37763
 H271 H 0.18112 0.61132 0.34805
 C272 C 0.21366 0.54133 0.45738
 H273 H 0.22236 0.52250 0.48866
 C274 C 0.19400 0.51744 0.41950
 H275 H 0.18757 0.48020 0.42195
 Zn276 Zn 0.24244 0.62588 0.50540
 N277 N 0.22058 0.58834 0.45526
 C278 C 0.32746 0.64029 0.45947
 N279 N 0.29048 0.66366 0.47920
 C280 C 0.28738 0.71110 0.47719
 C281 C 0.32274 0.73687 0.45471
 C282 C 0.36383 0.66462 0.43753
 C283 C 0.14893 0.65699 0.51245
 C284 C 0.11068 0.68000 0.53331
 C285 C 0.16193 0.71380 0.59036
 C286 C 0.19934 0.69041 0.56813
 N287 N 0.19220 0.66242 0.53008
 H288 H 0.32842 0.60248 0.46055
 H289 H 0.25711 0.72887 0.49210
 H290 H 0.31964 0.77455 0.45257
 H291 H 0.39242 0.64509 0.42132
 H292 H 0.14352 0.63352 0.48314
 H293 H 0.07650 0.67360 0.51957
 H294 H 0.16796 0.73517 0.62127
 H295 H 0.23391 0.69343 0.58201
 C296 C 0.18228 0.54200 0.37899
 C297 C 0.29944 0.54461 0.63414
 C298 C 0.11692 0.70866 0.57304
 C299 C 0.36176 0.71361 0.43501
 C300 C 0.78701 0.95352 0.47107
 H301 H 0.79291 0.95998 0.50787
 C302 C 0.81158 0.97944 0.43710
 H303 H 0.83590 1.00604 0.44819
 C304 C 0.75134 0.90871 0.41159
 H305 H 0.72997 0.87945 0.40147
 C306 C 0.77491 0.93375 0.37668
 H307 H 0.77064 0.92294 0.34055
 N308 N 0.75793 0.91849 0.45782
 C309 C 0.66116 0.89626 0.56774
 H310 H 0.63950 0.87776 0.54351
 C311 C 0.64171 0.91048 0.61079
 H312 H 0.60516 0.90364 0.61813
 C313 C 0.73501 0.92477 0.58921
 H314 H 0.77184 0.92841 0.58136
 C315 C 0.71685 0.93955 0.63319
 H316 H 0.73998 0.95534 0.65812
 Zn317 Zn 0.73294 0.87478 0.50180
 N318 N 0.70708 0.90346 0.55748
 C319 C 0.77460 0.80746 0.55826
 N320 N 0.78181 0.83545 0.52048
 C321 C 0.82458 0.83904 0.49915
 C322 C 0.86274 0.81567 0.51718
 C323 C 0.81182 0.78341 0.57743
 C324 C 0.65009 0.86487 0.45368
 C325 C 0.61332 0.84218 0.43209
 C326 C 0.65076 0.76823 0.44673
 C327 C 0.68679 0.79241 0.46850
 N328 N 0.68555 0.83990 0.47193
 H329 H 0.74026 0.80539 0.57466
 H330 H 0.82948 0.86106 0.46882
 H331 H 0.89641 0.81947 0.49975
 H332 H 0.80584 0.76255 0.60855
 H333 H 0.65038 0.90266 0.45619
 H334 H 0.58603 0.86304 0.41726
 H335 H 0.65210 0.73041 0.44412
 H336 H 0.71561 0.77328 0.48265
 C337 C 0.66950 0.93187 0.64448
 C338 C 0.80611 0.96933 0.38918
 C339 C 0.61308 0.79312 0.42890
 C340 C 0.85683 0.78864 0.55785
 C341 C -0.02877 0.31331 0.44515
 H342 H 0.00606 0.32700 0.44887
 C343 C -0.06661 0.33600 0.46731
 H344 H -0.06058 0.36716 0.48828
 C345 C -0.07919 0.25769 0.41113
 H346 H -0.08427 0.22806 0.38800
 C347 C -0.11796 0.27918 0.43271
 H348 H -0.15208 0.26551 0.42534
 N349 N -0.03570 0.27516 0.41732
 C350 C 0.09614 0.20179 0.39800
 H351 H 0.09596 0.19881 0.36007
 C352 C 0.13360 0.18449 0.42236
 H353 H 0.16180 0.16734 0.40290
 C354 C 0.05899 0.22764 0.46905
 H355 H 0.02981 0.24469 0.48686
 C356 C 0.09544 0.20957 0.49511
 H357 H 0.09410 0.21243 0.53310
 Zn358 Zn 0.01539 0.24971 0.38209
 N359 N 0.06054 0.22407 0.42131
 C360 C 0.08929 0.30929 0.35451
 N361 N 0.04380 0.29908 0.34677
 C362 C 0.01826 0.32601 0.31782
 C363 C 0.03851 0.36480 0.29546
 C364 C 0.11097 0.34689 0.33233
 C365 C -0.01816 0.16025 0.36802
 C366 C -0.03826 0.12235 0.34493
 C367 C -0.03222 0.16539 0.27249
 C368 C -0.01190 0.20254 0.29704
 N369 N -0.00625 0.19963 0.34419
 H370 H 0.10896 0.28924 0.37889
 H371 H -0.01808 0.31796 0.31286
 H372 H 0.01772 0.38577 0.27252
 H373 H 0.14715 0.35432 0.33923
 H374 H -0.01352 0.15901 0.40558
 H375 H -0.04943 0.09269 0.36555
 H376 H -0.03812 0.16879 0.23525
 H377 H -0.00211 0.23411 0.27875
 C378 C 0.13378 0.18874 0.47155
 C379 C -0.11199 0.31934 0.46086
 C380 C -0.04616 0.12480 0.29650
 C381 C 0.08554 0.37563 0.30300
 C382 C 1.04399 0.81312 0.05983
 H383 H 1.00961 0.82849 0.05857
 C384 C 1.08046 0.83130 0.03238
 H385 H 1.07384 0.86076 0.00989
 C386 C 1.09457 0.75709 0.09201
 H387 H 1.10017 0.72871 0.11593
 C388 C 1.13209 0.77417 0.06514
 H389 H 1.16570 0.75766 0.06826
 N390 N 1.05164 0.77683 0.08904
 C391 C 0.91398 0.71767 0.11679
 H392 H 0.91255 0.72011 0.15476
 C393 C 0.87691 0.69792 0.09289
 H394 H 0.84741 0.68457 0.11299
 C395 C 0.95582 0.72967 0.04507
 H396 H 0.98702 0.74126 0.02667
 C397 C 0.91976 0.70952 0.01978
 H398 H 0.92338 0.70592 -0.01807
 Zn399 Zn 1.00163 0.75752 0.12862
 N400 N 0.95222 0.73349 0.09271
 C401 C 0.93815 0.82827 0.15630
 N402 N 0.98138 0.81096 0.16379
 C403 C 1.01144 0.83405 0.19204
 C404 C 0.99782 0.87566 0.21501
 C405 C 0.92326 0.86963 0.17825
 C406 C 1.03142 0.66758 0.14362
 C407 C 1.04997 0.62960 0.16700
 C408 C 1.04742 0.67548 0.23884
 C409 C 1.02855 0.71268 0.21399
 N410 N 1.02193 0.70832 0.16699
 H411 H 0.91554 0.81099 0.13194
 H412 H 1.04629 0.82058 0.19607
 H413 H 1.02211 0.89372 0.23730
 H414 H 0.88931 0.88311 0.16995
 H415 H 1.02597 0.66519 0.10621
 H416 H 1.05929 0.59860 0.14675
 H417 H 1.05391 0.67976 0.27595
 H418 H 1.02035 0.74522 0.23203
 C419 C 0.87956 0.69372 0.04365
 C420 C 1.12539 0.81241 0.03539
 C421 C 1.05858 0.63336 0.21529
 C422 C 0.95302 0.89373 0.20862
 C423 C 0.56928 0.28403 0.56229
 H424 H 0.53542 0.29949 0.55720
 C425 C 0.60870 0.30267 0.53951
 H426 H 0.60439 0.33180 0.51610
 C427 C 0.61559 0.22734 0.59928
 H428 H 0.61850 0.19886 0.62363
 C429 C 0.65580 0.24471 0.57707
 H430 H 0.68917 0.22895 0.58415
 N431 N 0.57339 0.24728 0.59182
 C432 C 0.43299 0.19227 0.61236
 H433 H 0.43222 0.19338 0.65038
 C434 C 0.39443 0.17604 0.58855
 H435 H 0.36449 0.16384 0.60875
 C436 C 0.47440 0.20499 0.54049
 H437 H 0.50589 0.21594 0.52213
 C438 C 0.43655 0.18839 0.51510
 H439 H 0.43902 0.18666 0.47709
 Zn440 Zn 0.52007 0.22763 0.62718
 N441 N 0.47168 0.20684 0.58827
 C442 C 0.46035 0.30249 0.64373
 N443 N 0.49760 0.28060 0.66224
 C444 C 0.52038 0.30003 0.69898
 C445 C 0.50482 0.34255 0.71917
 C446 C 0.44405 0.34477 0.66237
 C447 C 0.54600 0.13723 0.63434
 C448 C 0.56122 0.09531 0.65273
 C449 C 0.55334 0.12908 0.73071
 C450 C 0.53813 0.17100 0.71054
 N451 N 0.53593 0.17444 0.66293
 H452 H 0.44426 0.28840 0.61283
 H453 H 0.55119 0.28321 0.71191
 H454 H 0.52328 0.35774 0.74829
 H455 H 0.41564 0.36171 0.64508
 H456 H 0.54361 0.14077 0.59668
 H457 H 0.57071 0.06684 0.62889
 H458 H 0.55715 0.12741 0.76837
 H459 H 0.52941 0.20084 0.73273
 C460 C 0.39571 0.17437 0.53921
 C461 C 0.65291 0.28351 0.54766
 C462 C 0.56589 0.09089 0.70128
 C463 C 0.46590 0.36534 0.70103
 C464 C 0.44429 0.77737 0.94727
 H465 H 0.47678 0.79569 0.95209
 C466 C 0.40327 0.79457 0.96841
 H467 H 0.40459 0.82574 0.99031
 C468 C 0.40277 0.71574 0.91101
 H469 H 0.40229 0.68610 0.88720
 C470 C 0.36101 0.73139 0.93202
 H471 H 0.32884 0.71339 0.92454
 N472 N 0.44315 0.73936 0.91823
 C473 C 0.58669 0.69310 0.89451
 H474 H 0.58812 0.69572 0.85661
 C475 C 0.62578 0.67835 0.91825
 H476 H 0.65682 0.66858 0.89808
 C477 C 0.54337 0.70109 0.96622
 H478 H 0.51106 0.70991 0.98457
 C479 C 0.58161 0.68575 0.99141
 H480 H 0.57849 0.68253 1.02924
 Zn481 Zn 0.49748 0.72596 0.88159
 N482 N 0.54681 0.70476 0.91865
 C483 C 0.55530 0.80339 0.86806
 N484 N 0.51575 0.78305 0.85252
 C485 C 0.48806 0.80557 0.82184
 C486 C 0.50115 0.84939 0.80403
 C487 C 0.56933 0.84691 0.85166
 C488 C 0.47715 0.63454 0.85763
 C489 C 0.46225 0.59698 0.83024
 C490 C 0.46533 0.64715 0.76250
 C491 C 0.48040 0.68382 0.79129
 N492 N 0.48456 0.67722 0.83822
 H493 H 0.57550 0.78676 0.89457
 H494 H 0.45557 0.78987 0.81165
 H495 H 0.47916 0.86676 0.77928
 H496 H 0.60025 0.86248 0.86603
 H497 H 0.48080 0.63029 0.89508
 H498 H 0.45397 0.56444 0.84751
 H499 H 0.46012 0.65343 0.72555
 H500 H 0.48714 0.71778 0.77636
 C501 C 0.62365 0.67493 0.96744
 C502 C 0.36074 0.77231 0.95948
 C503 C 0.45521 0.60327 0.78203
 C504 C 0.54276 0.87019 0.81835
 C505 C 0.45854 -0.20187 0.32157
 C506 C 0.46849 -0.15504 0.32166
 H507 H 0.47440 -0.22607 0.34709
 H508 H 0.45050 -0.18417 0.30631
 C509 C 0.96433 0.30655 0.83585
 C510 C 0.98550 0.34039 0.81173
 H511 H 0.98334 0.28168 0.85279
 H512 H 1.02320 0.34094 0.80859
 C513 C 0.02185 1.21136 0.82977
 C514 C 0.00849 1.16669 0.83396
 H515 H 0.04987 1.22151 0.80602
 H516 H -0.01871 1.15820 0.85947
 C517 C 0.51633 0.70548 0.33070
 C518 C 0.50105 0.66129 0.33162
 H519 H 0.54758 0.71501 0.31117
 H520 H 0.47051 0.65286 0.35291
 C521 C 0.50868 0.30963 0.15388
 C522 C 0.54944 0.33160 0.14858
 H523 H 0.48333 0.32003 0.18072
 H524 H 0.57381 0.31931 0.12153
 C525 C 0.00405 0.81374 0.65325
 C526 C 0.04335 0.83705 0.64383
 H527 H -0.01879 0.82384 0.68244
 H528 H 0.06578 0.82545 0.61484
 C529 C 0.96433 0.71602 0.65535
 C530 C 0.97841 0.67157 0.65022
 H531 H 0.93664 0.72587 0.67990
 H532 H 1.00460 0.66307 0.62342
 C533 C 0.47552 0.20905 0.15104
 C534 C 0.44199 0.18057 0.13654
 H535 H 0.49348 0.20272 0.18328
 H536 H 0.42432 0.18864 0.10446
 C537 C 0.33769 0.46950 -0.21931
 C538 C 0.33846 0.48528 -0.17484
 H539 H 0.31298 0.44304 -0.22967
 H540 H 0.36187 0.51338 -0.16565
 C541 C 0.82851 0.99224 0.30774
 C542 C 0.83721 0.99203 0.35369
 H543 H 0.79601 0.97920 0.29458
 H544 H 0.86968 1.00651 0.36566
 C545 C 0.84396 0.03769 1.21461
 C546 C 0.84219 0.02006 1.17091
 H547 H 0.82851 0.07126 1.22349
 H548 H 0.85545 -0.01476 1.16339
 C549 C 0.36138 0.51296 0.68373
 C550 C 0.31618 0.52063 0.67661
 H551 H 0.38756 0.52256 0.65763
 H552 H 0.29058 0.50797 0.70203
 C553 C 0.15879 0.53290 0.29617
 C554 C 0.15823 0.51740 0.34038
 H555 H 0.17967 0.56272 0.28597
 H556 H 0.13886 0.48605 0.34899
 C557 C 0.66123 0.00179 0.82912
 C558 C 0.68026 0.04406 0.83286
 H559 H 0.66324 -0.02296 0.85747
 H560 H 0.67992 0.06723 0.80297
 C561 C 0.66621 0.96782 0.72567
 C562 C 0.64704 0.94372 0.69056
 H563 H 0.70123 0.98146 0.72326
 H564 H 0.61102 0.93293 0.69530
 C565 C 0.16117 0.48754 0.19956
 C566 C 0.14229 0.47493 0.15896
 H567 H 0.19819 0.48474 0.20490
 H568 H 0.10469 0.47597 0.15666
 C569 C -0.19596 0.33254 0.48282
 C570 C -0.15181 0.34750 0.47978
 H571 H -0.20540 0.29726 0.47312
 H572 H -0.14440 0.38332 0.48986
 C573 C 0.30898 0.83916 0.97403
 C574 C 0.31578 0.79303 0.97540
 H575 H 0.33667 0.86216 0.96211
 H576 H 0.28690 0.77008 0.98404
 C577 C 1.20914 0.82868 0.01646
 C578 C 1.16388 0.83501 0.00845
 H579 H 1.22100 0.80511 0.04300
 H580 H 1.15415 0.86119 -0.01674
 C581 C 0.70059 0.34839 0.51543
 C582 C 0.69656 0.30346 0.52727
 H583 H 0.67149 0.37219 0.51974
 H584 H 0.72717 0.28132 0.52527
 C585 C 0.31212 0.15866 0.52920
 C586 C 0.35610 0.15520 0.51292
 H587 H 0.30367 0.17908 0.56051
 H588 H 0.36354 0.13702 0.48001
 C589 C 0.79852 0.66776 0.03162
 C590 C 0.84312 0.66920 0.01708
 H591 H 0.78645 0.68786 0.06199
 H592 H 0.85385 0.65088 -0.01491
 C593 C 0.70770 0.66182 0.97898
 C594 C 0.66339 0.65645 0.99362
 H595 H 0.71642 0.68364 0.94921
 H596 H 0.65554 0.63664 1.02503
 C597 C 0.21460 0.16490 0.47831
 C598 C 0.17222 0.16863 0.49809
 H599 H 0.23965 0.14532 0.49417
 H600 H 0.16472 0.15373 0.53232
 C601 C 0.58763 0.03136 0.76140
 C602 C 0.58962 0.04834 0.71777
 H603 H 0.56558 0.04723 0.78855
 H604 H 0.61129 0.03066 0.69155
 C605 C 1.08302 0.55114 0.22606
 C606 C 1.08302 0.59584 0.24045
 H607 H 1.06138 0.53974 0.19765
 H608 H 1.10313 0.60589 0.27057
 C609 C 0.89419 0.94975 0.23969
 C610 C 0.93889 0.93861 0.23175
 H611 H 0.86682 0.92524 0.23174
 H612 H 0.96569 0.96296 0.24214
 C613 C 0.40645 0.42686 0.71567
 C614 C 0.44992 0.41120 0.72102
 H615 H 0.38076 0.40546 0.69867
 H616 H 0.47412 0.43215 0.74079
 C617 C 0.42752 0.52239 0.76466
 C618 C 0.43183 0.56744 0.75286
 H619 H 0.44538 0.50817 0.79423
 H620 H 0.41430 0.57985 0.72218
 C621 C -0.08100 0.04527 0.28751
 C622 C -0.07347 0.08862 0.27148
 H623 H -0.06325 0.03240 0.31776
 H624 H -0.09019 0.09934 0.23970
 C625 C 0.08840 0.45602 0.27083
 C626 C 0.10965 0.41609 0.28137
 H627 H 0.05140 0.46072 0.27726
 H628 H 0.14724 0.41416 0.27715
 C629 C 0.60309 0.92688 0.79599
 C630 C 0.55790 0.91619 0.79948
 H631 H 0.62918 0.90124 0.80446
 H632 H 0.53211 0.94089 0.78791
 C633 C 0.73155 0.58789 0.04892
 C634 C 0.74193 0.59143 0.09434
 H635 H 0.70596 0.56312 0.03688
 H636 H 0.76945 0.61477 0.10500
 C637 C 0.23715 1.08460 0.54766
 C638 C 0.24774 1.08756 0.59300
 H639 H 0.21011 1.06137 0.53577
 H640 H 0.27628 1.10959 0.60367
 C641 C 0.23037 0.89004 0.93361
 C642 C 0.21978 0.93493 0.92683
 H643 H 0.22533 0.86386 0.90656
 H644 H 0.22734 0.96059 0.95385
 C645 C 0.74555 0.40323 0.43837
 C646 C 0.71344 0.43665 0.43463
 H647 H 0.76492 0.38978 0.40811
 H648 H 0.69621 0.44997 0.46640
 C649 C 0.77592 0.41848 0.53868
 C650 C 0.76005 0.41784 0.58324
 H651 H 0.80418 0.44115 0.52782
 H652 H 0.73354 0.39263 0.59314
 C653 C 0.26829 -0.08525 0.03098
 C654 C 0.25488 -0.08674 0.07628
 H655 H 0.29334 -0.05977 0.01847
 H656 H 0.22841 -0.11143 0.08754
 C657 C 0.28553 0.08745 0.45262
 C658 C 0.26696 0.08991 0.41009
 H659 H 0.31508 0.06526 0.45920
 H660 H 0.23841 0.11382 0.40481
 C661 C 0.78476 0.59226 0.95707
 C662 C 0.76922 0.59145 0.91317
 H663 H 0.81523 0.57269 0.96659
 H664 H 0.73714 0.60946 0.90570
 C665 C 0.03648 0.74077 0.57988
 C666 C 0.07712 0.73040 0.59923
 H667 H 0.03069 0.73455 0.54297
 H668 H 0.08156 0.73837 0.63617
 C669 C 0.54602 0.24001 1.08025
 C670 C 0.58268 0.22332 1.10262
 H671 H 0.54507 0.24102 1.04235
 H672 H 0.58062 0.22170 1.14068
 C673 C 0.95793 0.23260 0.91509
 C674 C 0.91415 0.24761 0.92191
 H675 H 0.97156 0.20338 0.93421
 H676 H 0.90280 0.27866 0.90398
 C677 C 0.44261 0.72691 0.40686
 C678 C 0.39799 0.74024 0.40882
 H679 H 0.45447 0.69788 0.42750
 H680 H 0.38746 0.77104 0.38996
 C681 C 0.53219 0.78414 0.40217
 C682 C 0.57559 0.76754 0.40486
 H683 H 0.52187 0.81629 0.41994
 H684 H 0.58414 0.73389 0.38907
 C685 C 0.04708 0.28651 -0.09845
 C686 C 0.08945 0.26730 -0.09770
 H687 H 0.04023 0.32019 -0.08191
 H688 H 0.09525 0.23231 -0.11160
 C689 C 0.44756 0.27860 0.07598
 C690 C 0.40446 0.28689 0.09302
 H691 H 0.45706 0.28445 0.03954
 H692 H 0.39655 0.27917 0.12957
 C693 C 0.94001 0.78398 0.57872
 C694 C 0.89656 0.76723 0.58194
 H695 H 0.94868 0.81325 0.55647
 H696 H 0.88880 0.73942 0.60643
   
