data_POSCAR
  _audit_creation_date              2014-09-24
  _audit_creation_method            'ToBaCCo'
  _symmetry_space_group_name_H-M    'P1'
  _symmetry_Int_Tables_number       1
  _symmetry_cell_setting            triclinic
  loop_
  _symmetry_equiv_pos_as_xyz
 x,y,z
_cell_length_a 32.8657
_cell_length_b 32.8355
_cell_length_c 47.2957
_cell_angle_alpha 89.962000
_cell_angle_beta 90.036900
_cell_angle_gamma 120.127800
loop_
  _atom_site_label
  _atom_site_type_symbol
  _atom_site_fract_x
  _atom_site_fract_y
  _atom_site_fract_z
C1 C -0.02536 0.48715 1.22467
 C2 C 0.02424 0.51221 1.22470
 C3 C 0.04865 0.52458 1.25045
 C4 C 0.02430 0.51232 1.27623
 C5 C -0.02540 0.48721 1.27621
 C6 C -0.04977 0.47485 1.25042
 H7 H -0.08799 0.45554 1.25039
 H8 H 0.08684 0.54389 1.25036
 C9 C 0.48856 0.51279 1.27616
 C10 C 0.51304 0.48773 1.27620
 C11 C 0.52522 0.47551 1.25045
 C12 C 0.51328 0.48795 1.22471
 C13 C 0.48886 0.51298 1.22468
 C14 C 0.47669 0.52522 1.25039
 H15 H 0.45783 0.54448 1.25034
 H16 H 0.54405 0.45620 1.25039
 C17 C 0.48757 0.97682 1.27573
 C18 C 0.51246 1.02647 1.27578
 C19 C 0.52486 1.05101 1.25005
 C20 C 0.51276 1.02664 1.22428
 C21 C 0.48785 0.97699 1.22426
 C22 C 0.47546 0.95250 1.24997
 H23 H 0.45632 0.91429 1.24994
 H24 H 0.54406 1.08926 1.25008
 C25 C 1.02534 0.51243 0.77525
 C26 C 0.97581 0.48790 0.77525
 C27 C 0.95138 0.47589 0.74953
 C28 C 0.97577 0.48806 0.72379
 C29 C 1.02538 0.51262 0.72377
 C30 C 1.04979 0.52463 0.74954
 H31 H 1.08798 0.54353 0.74964
 H32 H 0.91321 0.45698 0.74954
 C33 C 0.51238 0.48734 0.72425
 C34 C 0.48724 0.51167 0.72434
 C35 C 0.47506 0.52371 0.75011
 C36 C 0.48769 0.51179 0.77580
 C37 C 0.51283 0.48747 0.77572
 C38 C 0.52499 0.47541 0.74994
 H39 H 0.54437 0.45667 0.74987
 H40 H 0.45571 0.54246 0.75018
 C41 C 0.48681 -0.02635 0.77574
 C42 C 0.51209 0.02331 0.77567
 C43 C 0.52433 0.04762 0.74988
 C44 C 0.51172 0.02314 0.72417
 C45 C 0.48642 -0.02651 0.72421
 C46 C 0.47417 -0.05087 0.75001
 H47 H 0.45468 -0.08912 0.75006
 H48 H 0.54378 0.08583 0.74983
 O49 O 0.40263 0.66921 0.96759
 O50 O 0.40465 0.74862 0.97569
 C51 C 0.37495 0.75455 0.96179
 O52 O 0.33147 0.73365 0.96741
 O53 O 0.25221 0.65614 0.97611
 C54 C 0.24602 0.62028 0.96235
 O55 O 0.26686 0.59769 0.96796
 O56 O 0.34432 0.59605 0.97633
 C57 C 0.37994 0.62558 0.96228
 O58 O 0.40512 0.65721 1.02399
 O59 O 0.40303 0.73455 1.03211
 C60 C 0.38027 0.75525 1.03758
 O61 O 0.34442 0.74884 1.02372
 O62 O 0.26717 0.66934 1.03243
 C63 C 0.24643 0.62584 1.03811
 O64 O 0.25260 0.59618 1.02434
 O65 O 0.33212 0.59865 1.03269
 C66 C 0.37569 0.62153 1.03805
 Cr67 Cr 0.40124 0.70109 0.99985
 Cr68 Cr 0.30013 0.70069 0.99992
 Cr69 Cr 0.30028 0.59976 1.00032
 O70 O 0.33388 0.66718 1.00003
 O71 O 0.59741 0.34393 0.97615
 O72 O 0.59931 0.26654 0.96780
 C73 C 0.62202 0.24579 0.96232
 O74 O 0.65767 0.25195 0.97632
 O75 O 0.73517 0.33149 0.96823
 C76 C 0.75598 0.37506 0.96273
 O77 O 0.74981 0.40459 0.97664
 O78 O 0.67060 0.40266 0.96811
 C79 C 0.62714 0.37989 0.96241
 O80 O 0.59890 0.33111 1.03254
 O81 O 0.59681 0.25171 1.02420
 C82 C 0.62623 0.24548 1.03818
 O83 O 0.66977 0.26624 1.03275
 O84 O 0.74934 0.34371 1.02467
 C85 C 0.75552 0.37943 1.03860
 O86 O 0.73489 0.40223 1.03301
 O87 O 0.65768 0.40430 1.02447
 C88 C 0.62171 0.37462 1.03819
 Cr89 Cr 0.60073 0.29963 1.00018
 Cr90 Cr 0.70168 0.29966 1.00049
 Cr91 Cr 0.70193 0.40082 1.00055
 O92 O 0.66811 0.33337 1.00041
 O93 O 0.65588 0.40422 0.52329
 O94 O 0.73327 0.40240 0.53155
 C95 C 0.75405 0.37972 0.53708
 O96 O 0.74777 0.34388 0.52326
 O97 O 0.66843 0.26640 0.53187
 C98 C 0.62495 0.24553 0.53748
 O99 O 0.59530 0.25161 0.52363
 O100 O 0.59748 0.33106 0.53192
 C101 C 0.62025 0.37466 0.53732
 O102 O 0.66806 0.40187 0.46691
 O103 O 0.74750 0.40414 0.47516
 C104 C 0.75361 0.37451 0.46132
 O105 O 0.73281 0.33098 0.46693
 O106 O 0.65547 0.25152 0.47553
 C107 C 0.61965 0.24524 0.46170
 O108 O 0.59695 0.26597 0.46725
 O109 O 0.59501 0.34335 0.47555
 C110 C 0.62449 0.37907 0.46153
 Cr111 Cr 0.69987 0.40054 0.49923
 Cr112 Cr 0.69981 0.29950 0.49940
 Cr113 Cr 0.59880 0.29930 0.49958
 O114 O 0.66616 0.33312 0.49940
 O115 O 0.34209 0.59539 0.52398
 O116 O 0.26466 0.59715 0.53214
 C117 C 0.24396 0.61987 0.53775
 O118 O 0.25027 0.65579 0.52397
 O119 O 0.32959 0.73327 0.53259
 C120 C 0.37304 0.75404 0.53830
 O121 O 0.40271 0.74797 0.52450
 O122 O 0.40057 0.66849 0.53264
 C123 C 0.37777 0.62487 0.53801
 O124 O 0.33010 0.59796 0.46757
 O125 O 0.25062 0.59565 0.47571
 C126 C 0.24447 0.62531 0.46190
 O127 O 0.26516 0.66880 0.46761
 O128 O 0.34250 0.74826 0.47623
 C129 C 0.37842 0.75468 0.46247
 O130 O 0.40118 0.73401 0.46807
 O131 O 0.40310 0.65657 0.47623
 C132 C 0.37367 0.62084 0.46221
 Cr133 Cr 0.29818 0.59917 0.49986
 Cr134 Cr 0.29819 0.70022 0.50010
 Cr135 Cr 0.39926 0.70044 0.50035
 O136 O 0.33188 0.66661 0.50010
 C137 C 0.44934 0.55130 0.34873
 N138 N 0.41025 0.51984 0.36298
 N139 N 0.39617 0.53310 0.38584
 C140 C 0.42076 0.57822 0.39514
 N141 N 0.45989 0.60965 0.38092
 N142 N 0.47397 0.59639 0.35806
 C143 C 0.46355 0.53746 0.32353
 C144 C 0.47511 0.52611 0.30211
 C145 C 0.40466 0.59292 0.41914
 C146 C 0.39072 0.60553 0.43898
 C147 C 0.44890 0.89927 0.34848
 N148 N 0.40497 0.88206 0.35913
 N149 N 0.39163 0.85495 0.38213
 C150 C 0.42184 0.84425 0.39519
 N151 N 0.46580 0.86152 0.38457
 N152 N 0.47914 0.88864 0.36156
 C153 C 0.46272 0.92714 0.32318
 C154 C 0.47412 0.94999 0.30169
 C155 C 0.40690 0.81359 0.41930
 C156 C 0.39406 0.78710 0.43922
 C157 C 0.10036 0.55100 0.34765
 N158 N 0.11118 0.59207 0.36061
 N159 N 0.13829 0.60597 0.38361
 C160 C 0.15539 0.57923 0.39435
 N161 N 0.14450 0.53812 0.38142
 N162 N 0.11739 0.52422 0.35842
 C163 C 0.07248 0.53680 0.32234
 C164 C 0.04965 0.52519 0.30084
 C165 C 0.18596 0.59501 0.41852
 C166 C 0.21230 0.60864 0.43851
 C167 C 0.55002 0.44920 0.34769
 N168 N 0.52751 0.40330 0.35561
 N169 N 0.54121 0.38986 0.37857
 C170 C 0.57782 0.42191 0.39433
 N171 N 0.60028 0.46783 0.38644
 N172 N 0.58658 0.48128 0.36347
 C173 C 0.53637 0.46334 0.32239
 C174 C 0.52528 0.47491 0.30085
 C175 C 0.59371 0.40713 0.41840
 C176 C 0.60751 0.39445 0.43829
 C177 C 0.54992 0.10152 0.34745
 N178 N 0.59485 0.12160 0.35694
 N179 N 0.60803 0.14849 0.38003
 C180 C 0.57668 0.15608 0.39431
 N181 N 0.53173 0.13592 0.38484
 N182 N 0.51854 0.10903 0.36176
 C183 C 0.53619 0.07399 0.32204
 C184 C 0.52495 0.05147 0.30045
 C185 C 0.59138 0.18655 0.41848
 C186 C 0.60409 0.21293 0.43842
 C187 C 0.89842 0.44889 0.34751
 N188 N 0.88024 0.47503 0.35765
 N189 N 0.85298 0.46116 0.38057
 C190 C 0.84308 0.42073 0.39404
 N191 N 0.86132 0.39463 0.38392
 N192 N 0.88858 0.40850 0.36100
 C193 C 0.92639 0.46297 0.32226
 C194 C 0.94926 0.47447 0.30079
 C195 C 0.81236 0.40494 0.41811
 C196 C 0.78589 0.39127 0.43802
 C197 C 0.55128 0.44888 1.15192
 N198 N 0.59474 0.47635 1.14076
 N199 N 0.60803 0.46245 1.11783
 C200 C 0.57825 0.42068 1.10536
 N201 N 0.53476 0.39326 1.11649
 N202 N 0.52147 0.40715 1.13942
 C203 C 0.53760 0.46304 1.17720
 C204 C 0.52640 0.47456 1.19870
 C205 C 0.59319 0.40492 1.08131
 C206 C 0.60604 0.39129 1.06143
 C207 C 0.89914 0.44907 1.15307
 N208 N 0.87672 0.40345 1.14462
 N209 N 0.84974 0.39015 1.12157
 C210 C 0.84435 0.42208 1.10626
 N211 N 0.86682 0.46773 1.11469
 N212 N 0.89381 0.48102 1.13775
 C213 C 0.92687 0.46303 1.17844
 C214 C 0.94954 0.47447 1.20000
 C215 C 0.81391 0.40741 1.08204
 C216 C 0.78764 0.39480 1.06202
 C217 C 0.55124 0.10195 1.15264
 N218 N 0.59131 0.11105 1.13910
 N219 N 0.60522 0.13791 1.11599
 C220 C 0.57947 0.15645 1.10571
 N221 N 0.53936 0.14729 1.11923
 N222 N 0.52545 0.12043 1.14234
 C223 C 0.53711 0.07439 1.17806
 C224 C 0.52556 0.05178 1.19964
 C225 C 0.59540 0.18688 1.08150
 C226 C 0.60924 0.21321 1.06151
 C227 C 0.45078 0.55199 1.15187
 N228 N 0.41438 0.51978 1.13605
 N229 N 0.40051 0.53312 1.11310
 C230 C 0.42265 0.57906 1.10529
 N231 N 0.45910 0.61125 1.12108
 N232 N 0.47296 0.59791 1.14403
 C233 C 0.46460 0.53794 1.17714
 C234 C 0.47583 0.52643 1.19865
 C235 C 0.40663 0.59371 1.08122
 C236 C 0.39273 0.60628 1.06132
 C237 C 0.10181 0.55149 1.15201
 N238 N 0.11284 0.59264 1.13906
 N239 N 0.14005 0.60654 1.11612
 C240 C 0.15705 0.57971 1.10543
 N241 N 0.14597 0.53852 1.11835
 N242 N 0.11876 0.52462 1.14129
 C243 C 0.07387 0.53731 1.17726
 C244 C 0.05100 0.52573 1.19872
 C245 C 0.18774 0.59549 1.08135
 C246 C 0.21418 0.60913 1.06143
 C247 C 0.44979 0.89979 1.15146
 N248 N 0.48102 0.89157 1.13752
 N249 N 0.46787 0.86448 1.11452
 C250 C 0.42312 0.84483 1.10477
 N251 N 0.39192 0.85311 1.11867
 N252 N 0.40506 0.88020 1.14167
 C253 C 0.46345 0.92756 1.17677
 C254 C 0.47467 0.95031 1.19827
 C255 C 0.40846 0.81418 1.08068
 C256 C 0.39579 0.78768 1.06079
 C257 C 0.55078 0.44919 0.65130
 N258 N 0.59610 0.47328 0.64240
 N259 N 0.60934 0.45950 0.61940
 C260 C 0.57766 0.42122 0.60461
 N261 N 0.53232 0.39718 0.61349
 N262 N 0.51907 0.41096 0.63649
 C263 C 0.53695 0.46301 0.67664
 C264 C 0.52561 0.47426 0.69818
 C265 C 0.59232 0.40534 0.58051
 C266 C 0.60492 0.39157 0.56059
 C267 C 0.55080 0.10068 0.65140
 N268 N 0.52395 0.11766 0.64068
 N269 N 0.53780 0.14490 0.61773
 C270 C 0.57891 0.15598 0.60480
 N271 N 0.60573 0.13894 0.61549
 N272 N 0.59188 0.11169 0.63844
 C273 C 0.53669 0.07273 0.67667
 C274 C 0.52517 0.04987 0.69816
 C275 C 0.59465 0.18671 0.58071
 C276 C 0.60827 0.21321 0.56079
 C277 C 0.89850 0.44993 0.65101
 N278 N 0.88076 0.40578 0.64053
 N279 N 0.85368 0.39253 0.61753
 C280 C 0.84355 0.42304 0.60431
 N281 N 0.86136 0.46722 0.61476
 N282 N 0.88844 0.48047 0.63776
 C283 C 0.92628 0.46364 0.67632
 C284 C 0.94904 0.47488 0.69781
 C285 C 0.81292 0.40818 0.58021
 C286 C 0.78644 0.39537 0.56032
 C287 C 0.44776 0.54978 0.65168
 N288 N 0.47999 0.58554 0.63547
 N289 N 0.46654 0.59940 0.61257
 C290 C 0.42047 0.57792 0.60518
 N291 N 0.38826 0.54212 0.62137
 N292 N 0.40170 0.52826 0.64427
 C293 C 0.46196 0.53595 0.67691
 C294 C 0.47361 0.52471 0.69836
 C295 C 0.40575 0.59396 0.58113
 C296 C 0.39312 0.60785 0.56125
 C297 C 0.44734 0.89782 0.65269
 N298 N 0.47549 0.88341 0.64074
 N299 N 0.46153 0.85639 0.61771
 C300 C 0.41900 0.84296 0.60592
 N301 N 0.39088 0.85744 0.61784
 N302 N 0.40484 0.88446 0.64088
 C303 C 0.46168 0.92558 0.67805
 C304 C 0.47342 0.94830 0.69958
 C305 C 0.40326 0.81247 0.58172
 C306 C 0.38966 0.78617 0.56171
 C307 C 0.10049 0.54975 0.65212
 N308 N 0.11310 0.52032 0.63995
 N309 N 0.13993 0.53350 0.61685
 C310 C 0.15494 0.57649 0.60521
 N311 N 0.14227 0.60589 0.61735
 N312 N 0.11543 0.59271 0.64045
 C313 C 0.07299 0.53620 0.67754
 C314 C 0.05044 0.52505 0.69913
 C315 C 0.18536 0.59138 0.58101
 C316 C 0.21169 0.60421 0.56104
 C317 C 0.44943 0.55029 0.84866
 N318 N 0.48117 0.58856 0.86343
 N319 N 0.46795 0.60251 0.88636
 C320 C 0.42259 0.57861 0.89521
 N321 N 0.39086 0.54030 0.88047
 N322 N 0.40409 0.52635 0.85754
 C323 C 0.46323 0.53632 0.82338
 C324 C 0.47452 0.52496 0.80186
 C325 C 0.40794 0.59468 0.91924
 C326 C 0.39532 0.60858 0.93908
 C327 C 0.10201 0.55005 0.84822
 N328 N 0.11365 0.52015 0.86078
 N329 N 0.14062 0.53333 0.88383
 C330 C 0.15672 0.57680 0.89502
 N331 N 0.14501 0.60666 0.88249
 N332 N 0.11805 0.59348 0.85944
 C333 C 0.07441 0.53650 0.82284
 C334 C 0.05181 0.52541 0.80128
 C335 C 0.18727 0.59166 0.91916
 C336 C 0.21369 0.60453 0.93909
 C337 C 0.44880 0.89833 0.84739
 N338 N 0.40847 0.88861 0.86084
 N339 N 0.39470 0.86160 0.88390
 C340 C 0.42086 0.84352 0.89420
 N341 N 0.46122 0.85331 0.88077
 N342 N 0.47499 0.88031 0.85772
 C343 C 0.46277 0.92600 0.82200
 C344 C 0.47418 0.94862 0.80042
 C345 C 0.40515 0.81302 0.91839
 C346 C 0.39157 0.78670 0.93840
 C347 C 0.55282 0.45010 0.84847
 N348 N 0.52385 0.40820 0.86108
 N349 N 0.53786 0.39503 0.88403
 C350 C 0.58125 0.42336 0.89507
 N351 N 0.61019 0.46529 0.88248
 N352 N 0.59618 0.47846 0.85953
 C353 C 0.53838 0.46355 0.82319
 C354 C 0.52659 0.47457 0.80170
 C355 C 0.59699 0.40843 0.91917
 C356 C 0.61056 0.39557 0.93910
 C357 C 0.89925 0.44942 0.84828
 N358 N 0.87850 0.47376 0.85746
 N359 N 0.85170 0.46002 0.88057
 C360 C 0.84486 0.42155 0.89521
 N361 N 0.86567 0.39726 0.88606
 N362 N 0.89247 0.41100 0.86294
 C363 C 0.92677 0.46329 0.82286
 C364 C 0.94934 0.47463 0.80129
 C365 C 0.81451 0.40571 0.91943
 C366 C 0.78822 0.39195 0.93942
 C367 C 0.55184 0.10122 0.84829
 N368 N 0.51965 0.10457 0.86454
 N369 N 0.53312 0.13180 0.88749
 C370 C 0.57919 0.15650 0.89489
 N371 N 0.61137 0.15309 0.87867
 N372 N 0.59790 0.12586 0.85572
 C373 C 0.53758 0.07316 0.82306
 C374 C 0.52586 0.05019 0.80162
 C375 C 0.59395 0.18712 0.91903
 C376 C 0.60662 0.21353 0.93898
   
