data_POSCAR
  _audit_creation_date              2014-09-24
  _audit_creation_method            'ToBaCCo'
  _symmetry_space_group_name_H-M    'P1'
  _symmetry_Int_Tables_number       1
  _symmetry_cell_setting            triclinic
  loop_
  _symmetry_equiv_pos_as_xyz
 x,y,z
_cell_length_a 25.0517
_cell_length_b 24.9462
_cell_length_c 29.2909
_cell_angle_alpha 89.987900
_cell_angle_beta 89.946100
_cell_angle_gamma 90.125100
loop_
  _atom_site_label
  _atom_site_type_symbol
  _atom_site_fract_x
  _atom_site_fract_y
  _atom_site_fract_z
B1 B 0.27625 0.22919 0.29570
 B2 B 0.21215 0.21254 0.27986
 B3 B 0.22786 0.27730 0.29650
 B4 B 0.28907 0.29133 0.27586
 B5 B 0.31155 0.23710 0.24697
 B6 B 0.26387 0.18814 0.25005
 B7 B 0.22167 0.27250 0.20255
 B8 B 0.28583 0.28907 0.21842
 B9 B 0.27002 0.22440 0.20173
 B10 B 0.20881 0.21026 0.22237
 B11 B 0.18641 0.26440 0.25134
 B12 B 0.23408 0.31343 0.24813
 B13 B 0.72833 0.78365 0.20572
 B14 B 0.71260 0.71764 0.21672
 B15 B 0.77707 0.73532 0.20397
 B16 B 0.78901 0.79504 0.22876
 B17 B 0.73314 0.81392 0.25692
 B18 B 0.68527 0.76627 0.24794
 B19 B 0.76641 0.72027 0.29669
 B20 B 0.78287 0.78584 0.28596
 B21 B 0.71804 0.76882 0.29836
 B22 B 0.70598 0.70891 0.27353
 B23 B 0.76278 0.69015 0.24593
 B24 B 0.80974 0.73743 0.25394
 B25 B 0.73033 0.21702 -0.20638
 B26 B 0.71397 0.28279 -0.21665
 B27 B 0.77861 0.26597 -0.20378
 B28 B 0.79091 0.20600 -0.22899
 B29 B 0.73511 0.18690 -0.25761
 B30 B 0.68753 0.23434 -0.24930
 B31 B 0.76911 0.28098 -0.29651
 B32 B 0.78546 0.21516 -0.28631
 B33 B 0.72103 0.23241 -0.29913
 B34 B 0.70849 0.29208 -0.27383
 B35 B 0.76427 0.31116 -0.24536
 B36 B 0.81185 0.26352 -0.25367
 B37 B 0.28058 0.76888 -0.29333
 B38 B 0.21557 0.78545 -0.28040
 B39 B 0.23150 0.72103 -0.29500
 B40 B 0.29203 0.70734 -0.27259
 B41 B 0.31304 0.76237 -0.24357
 B42 B 0.26570 0.81078 -0.24898
 B43 B 0.22120 0.72803 -0.20157
 B44 B 0.28610 0.71087 -0.21524
 B45 B 0.26997 0.77549 -0.20010
 B46 B 0.20952 0.78951 -0.22290
 B47 B 0.18833 0.73435 -0.25133
 B48 B 0.23586 0.68572 -0.24604
 B49 B 1.22067 1.26844 0.79676
 B50 B 1.28570 1.28556 0.78460
 B51 B 1.26918 1.21994 0.79536
 B52 B 1.20833 1.20906 0.77182
 B53 B 1.18809 1.26696 0.74637
 B54 B 1.23614 1.31372 0.75541
 B55 B 1.27985 1.23554 0.70271
 B56 B 1.21497 1.21820 0.71495
 B57 B 1.23137 1.28403 0.70433
 B58 B 1.29238 1.29476 0.72775
 B59 B 1.31263 1.23674 0.75308
 B60 B 1.26477 1.19005 0.74424
 B61 B 0.77638 0.72780 0.79677
 B62 B 0.71215 0.71086 0.78128
 B63 B 0.72804 0.77577 0.79764
 B64 B 0.78933 0.78966 0.77628
 B65 B 0.81137 0.73514 0.74770
 B66 B 0.76370 0.68623 0.75139
 B67 B 0.72033 0.76985 0.70408
 B68 B 0.78503 0.78672 0.71861
 B69 B 0.76957 0.72245 0.70286
 B70 B 0.70843 0.70798 0.72389
 B71 B 0.68628 0.76255 0.75304
 B72 B 0.73393 0.81122 0.74918
 B73 B 1.23249 0.71716 0.29466
 B74 B 1.21439 0.78178 0.28265
 B75 B 1.27972 0.76758 0.29629
 B76 B 1.29350 0.70738 0.27300
 B77 B 1.23867 0.68556 0.24420
 B78 B 1.18971 0.73157 0.25100
 B79 B 1.27038 0.77877 0.20305
 B80 B 1.28851 0.71375 0.21576
 B81 B 1.22337 0.72947 0.20148
 B82 B 1.20925 0.78944 0.22557
 B83 B 1.26444 0.81113 0.25367
 B84 B 1.31326 0.76414 0.24641
 B85 B 0.77520 1.27564 0.29834
 B86 B 0.79030 1.21065 0.28299
 B87 B 0.72585 1.22855 0.29765
 B88 B 0.71473 1.29042 0.27614
 B89 B 0.77077 1.31079 0.24907
 B90 B 0.81746 1.26148 0.25400
 B91 B 0.73427 1.22046 0.20423
 B92 B 0.71967 1.28602 0.21854
 B93 B 0.78353 1.26835 0.20453
 B94 B 0.79485 1.20667 0.22561
 B95 B 0.73899 1.18608 0.25332
 B96 B 0.69219 1.23532 0.24837
 O97 O 0.56885 1.10711 0.07040
 O98 O 0.63272 1.05122 0.04177
 C99 C 0.61768 1.09119 0.06801
 O100 O 0.42684 0.90484 0.08011
 O101 O 0.36248 0.95400 0.04341
 C102 C 0.37748 0.91748 0.07260
 O103 O 0.57140 0.91964 0.09067
 O104 O 0.63466 0.95638 0.04299
 C105 C 0.62037 0.92658 0.07773
 O106 O 0.42483 1.11238 0.06247
 O107 O 0.36267 1.05022 0.03994
 C108 C 0.37669 1.09346 0.06242
 Zr109 Zr 0.49709 1.07341 0.04978
 O110 O 0.49280 1.07383 0.12204
 O111 O 0.49854 1.15814 0.05164
 Zr112 Zr 0.49847 0.94222 0.06273
 O113 O 0.49366 0.96076 0.13304
 O114 O 0.50249 0.86015 0.08050
 O115 O 0.54676 1.00949 0.06538
 O116 O 0.44962 1.00819 0.06526
 O117 O 0.42484 1.08549 -0.08759
 O118 O 0.36147 1.04500 -0.04249
 C119 C 0.37583 1.07712 -0.07563
 O120 O 0.57048 0.89639 -0.07349
 O121 O 0.63350 0.95218 -0.04168
 C122 C 0.61922 0.91269 -0.06872
 O123 O 0.42614 0.89106 -0.06791
 O124 O 0.36258 0.94733 -0.03793
 C125 C 0.37720 0.90650 -0.06303
 O126 O 0.56967 1.07147 -0.09615
 O127 O 0.63285 1.04823 -0.04362
 C128 C 0.61799 1.07299 -0.08094
 Zr129 Zr 0.49761 1.05815 -0.06265
 O130 O 0.49214 1.04920 -0.13440
 O131 O 0.50422 1.14245 -0.06918
 Zr132 Zr 0.49843 0.92627 -0.04926
 O133 O 0.49462 0.91621 -0.12089
 O134 O 0.50383 0.84223 -0.03968
 Zr135 Zr 0.58119 1.00116 -0.00012
 Zr136 Zr 0.41488 0.99945 0.00009
 O137 O 0.45045 0.99084 -0.06468
 O138 O 0.54647 0.99149 -0.06518
 O139 O 0.44884 1.07645 -0.00758
 O140 O 0.54634 0.92464 0.00745
 O141 O 0.54498 1.07688 -0.00752
 O142 O 0.45010 0.92302 0.00764
 H143 H 0.42561 1.01050 0.09211
 H144 H 0.56971 0.89277 0.00972
 H145 H 0.42752 0.98751 -0.09209
 H146 H 0.56803 1.10898 -0.01085
 H147 H 0.51076 0.84020 0.05226
 H148 H 0.47487 0.83120 -0.01863
 H149 H 0.51148 0.94814 -0.13483
 H150 H 0.49322 1.08571 -0.14784
 H151 H 0.47500 1.15862 -0.05115
 H152 H 0.50770 1.17055 0.02056
 H153 H 0.52758 1.06182 0.13436
 H154 H 0.49251 0.92595 0.14927
 O155 O 1.07329 0.60977 0.57092
 O156 O 1.13649 0.55358 0.54013
 C157 C 1.12203 0.59340 0.56658
 O158 O 0.93080 0.42348 0.59319
 O159 O 0.86681 0.45494 0.54443
 C160 C 0.88204 0.42573 0.57935
 O161 O 1.07514 0.42600 0.59340
 O162 O 1.13815 0.45993 0.54412
 C163 C 1.12398 0.43161 0.57977
 O164 O 0.92844 0.61311 0.56668
 O165 O 0.86563 0.55424 0.53886
 C166 C 0.87974 0.59622 0.56311
 Zr167 Zr 1.00122 0.57988 0.54615
 O168 O 0.99894 0.60138 0.61589
 O169 O 1.00648 0.66230 0.52875
 Zr170 Zr 1.00228 0.44836 0.56511
 O171 O 0.99878 0.46197 0.63648
 O172 O 1.00752 0.36467 0.57633
 O173 O 1.04994 0.51597 0.56498
 O174 O 0.95450 0.51508 0.56455
 O175 O 0.92915 0.57771 0.40591
 O176 O 0.86613 0.54877 0.45687
 C177 C 0.88071 0.57656 0.42092
 O178 O 1.07286 0.39479 0.43029
 O179 O 1.13602 0.45268 0.45889
 C180 C 1.12146 0.41208 0.43319
 O181 O 0.92858 0.39110 0.43497
 O182 O 0.86560 0.44996 0.46199
 C183 C 0.87988 0.40786 0.43803
 O184 O 1.07389 0.56481 0.40072
 O185 O 1.13609 0.54796 0.45574
 C186 C 1.12143 0.56992 0.41731
 Zr187 Zr 1.00154 0.55759 0.43569
 O188 O 0.99873 0.56111 0.36361
 O189 O 1.00807 0.64220 0.43297
 Zr190 Zr 1.00109 0.42572 0.45431
 O191 O 0.99743 0.40823 0.38383
 O192 O 1.00690 0.34288 0.46998
 Zr193 Zr 1.08445 0.50304 0.50002
 Zr194 Zr 0.91821 0.50224 0.50044
 O195 O 0.95426 0.49004 0.43611
 O196 O 1.04920 0.48995 0.43541
 O197 O 0.95201 0.57907 0.48952
 O198 O 1.04947 0.42721 0.51053
 O199 O 1.04964 0.57906 0.48958
 O200 O 0.95269 0.42602 0.51139
 H201 H 0.93206 0.51912 0.59220
 H202 H 1.07280 0.39540 0.51377
 H203 H 0.93214 0.48493 0.40842
 H204 H 1.07371 0.61039 0.48598
 H205 H 0.97777 0.34730 0.55980
 H206 H 0.97297 0.33107 0.48412
 H207 H 1.01274 0.43948 0.36773
 H208 H 0.99107 0.52438 0.35274
 H209 H 0.97217 0.65726 0.43854
 H210 H 0.97147 0.67401 0.51676
 H211 H 0.99876 0.56770 0.63355
 H212 H 1.02993 0.48424 0.64514
 O213 O 0.90170 0.42706 -0.07977
 O214 O 0.95266 0.36410 -0.04271
 C215 C 0.91565 0.37795 -0.07212
 O216 O 1.10203 0.57558 -0.06824
 O217 O 1.04301 0.63833 -0.04224
 C218 C 1.08403 0.62401 -0.06707
 O219 O 1.09190 0.43181 -0.08288
 O220 O 1.04928 0.36600 -0.04260
 C221 C 1.08396 0.38203 -0.07322
 O222 O 0.89129 0.57178 -0.06978
 O223 O 0.94646 0.63666 -0.04025
 C224 C 0.90680 0.62113 -0.06606
 Zr225 Zr 0.93115 0.50023 -0.05606
 O226 O 0.93732 0.50735 -0.12791
 O227 O 0.84747 0.49507 -0.06440
 Zr228 Zr 1.06209 0.50350 -0.05819
 O229 O 1.05042 0.51163 -0.12953
 O230 O 1.14465 0.50303 -0.07304
 O231 O 0.99767 0.45226 -0.06671
 O232 O 0.99548 0.55055 -0.06579
 O233 O 0.90221 0.57049 0.08063
 O234 O 0.94608 0.63633 0.04133
 C235 C 0.91051 0.62030 0.07126
 O236 O 1.09768 0.43075 0.07807
 O237 O 1.04935 0.36590 0.04066
 C238 C 1.08548 0.38122 0.07023
 O239 O 1.10282 0.57514 0.06933
 O240 O 1.04476 0.63808 0.04147
 C241 C 1.08576 0.62390 0.06654
 O242 O 0.90651 0.42649 0.08189
 O243 O 0.95450 0.36368 0.04183
 C244 C 0.91938 0.37752 0.07279
 Zr245 Zr 0.93371 0.49927 0.05698
 O246 O 0.93610 0.50393 0.12915
 O247 O 0.84933 0.49322 0.05847
 Zr248 Zr 1.06528 0.50252 0.05500
 O249 O 1.05961 0.50915 0.12689
 O250 O 1.14927 0.49961 0.06148
 Zr251 Zr 1.00019 0.41758 -0.00079
 Zr252 Zr 0.99626 0.58498 0.00006
 O253 O 0.99876 0.54901 0.06515
 O254 O 1.00082 0.45158 0.06532
 O255 O 0.92025 0.54807 0.00110
 O256 O 1.07533 0.45572 -0.00207
 O257 O 0.92331 0.45176 0.00042
 O258 O 1.07360 0.55146 -0.00141
 H259 H 0.99454 0.57535 -0.09223
 H260 H 1.10849 0.43415 -0.00254
 H261 H 0.99918 0.57278 0.09227
 H262 H 0.89149 0.42810 0.00101
 H263 H 1.16332 0.49330 -0.04451
 H264 H 1.16418 0.50891 0.03122
 H265 H 1.04793 0.47407 0.13895
 H266 H 0.95761 0.47352 0.14038
 H267 H 0.83473 0.52155 0.03841
 H268 H 0.83210 0.48820 -0.03387
 H269 H 0.95071 0.47290 -0.13998
 H270 H 1.04561 0.47542 -0.14271
 O271 O 0.39427 1.07212 0.42673
 O272 O 0.44903 1.13729 0.45653
 C273 C 0.40936 1.12155 0.43074
 O274 O 0.41121 0.93304 0.58649
 O275 O 0.45207 0.86723 0.54541
 C276 C 0.41912 0.88332 0.57750
 O277 O 0.40495 1.07508 0.57891
 O278 O 0.44872 1.13942 0.53801
 C279 C 0.41306 1.12438 0.56835
 O280 O 0.40435 0.92759 0.41966
 O281 O 0.45051 0.86464 0.46104
 C282 C 0.41541 0.87846 0.42999
 Zr283 Zr 0.43236 1.00070 0.44385
 O284 O 0.34835 0.99725 0.43694
 O285 O 0.44031 1.00255 0.37203
 Zr286 Zr 0.43575 1.00347 0.55693
 O287 O 0.35141 0.99820 0.56026
 O288 O 0.44365 1.00787 0.62879
 O289 O 0.42244 1.05048 0.49988
 O290 O 0.42357 0.95427 0.50163
 O291 O 0.59284 0.92785 0.41912
 O292 O 0.54595 0.86459 0.45987
 C293 C 0.58086 0.87865 0.42888
 O294 O 0.60269 1.07725 0.57060
 O295 O 0.54815 1.14016 0.53759
 C296 C 0.58759 1.12623 0.56451
 O297 O 0.59501 0.93378 0.58029
 O298 O 0.54851 0.86762 0.54396
 C299 C 0.58394 0.88398 0.57388
 O300 O 0.60253 1.07332 0.42686
 O301 O 0.54637 1.13793 0.45495
 C302 C 0.58655 1.12254 0.42965
 Zr303 Zr 0.56340 1.00145 0.44134
 O304 O 0.64618 0.99821 0.42735
 O305 O 0.55293 1.00644 0.36971
 Zr306 Zr 0.56664 1.00475 0.55411
 O307 O 0.65098 1.00001 0.55570
 O308 O 0.56469 1.01225 0.62617
 Zr309 Zr 0.49879 1.08633 0.49769
 Zr310 Zr 0.49955 0.91860 0.50112
 O311 O 0.57555 0.95527 0.49863
 O312 O 0.57572 1.05166 0.49666
 O313 O 0.49783 0.95128 0.43439
 O314 O 0.50109 1.05267 0.56349
 O315 O 0.49746 1.04953 0.43278
 O316 O 0.50166 0.95512 0.56599
 H317 H 0.39155 0.93096 0.50305
 H318 H 0.50193 1.07694 0.59028
 H319 H 0.60805 0.93270 0.49894
 H320 H 0.49687 1.07330 0.40565
 H321 H 0.40705 1.00894 0.64168
 H322 H 0.54355 0.98198 0.63855
 H323 H 0.66458 1.01928 0.52854
 H324 H 0.66426 0.98917 0.45631
 H325 H 0.53928 0.97136 0.35907
 H326 H 0.40354 1.00281 0.35962
 H327 H 0.33350 0.98869 0.46733
 H328 H 0.33665 1.02455 0.53840
 O329 O 1.09087 0.90125 0.56506
 O330 O 1.04997 0.95698 0.61658
 C331 C 1.08245 0.91833 0.60614
 O332 O 1.09789 1.08761 0.43227
 O333 O 1.04679 1.03921 0.38193
 C334 C 1.08296 1.07489 0.39139
 O335 O 1.10415 1.08845 0.55677
 O336 O 1.05326 1.04855 0.61218
 C337 C 1.09114 1.08067 0.59879
 O338 O 1.08012 0.88779 0.44121
 O339 O 1.04512 0.94267 0.38648
 C340 C 1.07406 0.90217 0.39927
 Zr341 Zr 1.06567 0.92859 0.50148
 O342 O 1.14977 0.93134 0.49437
 O343 O 1.07326 0.84455 0.50788
 Zr344 Zr 1.07205 1.06135 0.49618
 O345 O 1.15622 1.05702 0.49015
 O346 O 1.07677 1.14610 0.49783
 O347 O 1.08040 0.99652 0.54018
 O348 O 1.07866 0.99228 0.45823
 O349 O 0.90330 0.90552 0.44164
 O350 O 0.95444 0.94654 0.38677
 C351 C 0.91744 0.91356 0.39978
 O352 O 0.90241 1.08728 0.55917
 O353 O 0.95843 1.05201 0.61313
 C354 C 0.91874 1.08211 0.60077
 O355 O 0.91389 1.09398 0.43374
 O356 O 0.95660 1.03919 0.38239
 C357 C 0.92430 1.07793 0.39267
 O358 O 0.90566 0.91009 0.56629
 O359 O 0.95485 0.95911 0.61746
 C360 C 0.91794 0.92424 0.60742
 Zr361 Zr 0.93291 0.93467 0.50280
 O362 O 0.84851 0.93918 0.50145
 O363 O 0.92815 0.85011 0.50801
 Zr364 Zr 0.93951 1.06797 0.49784
 O365 O 0.85678 1.08352 0.49322
 O366 O 0.95008 1.15217 0.50221
 Zr367 Zr 1.00333 1.00144 0.56933
 Zr368 Zr 1.00144 0.99460 0.43024
 O369 O 0.92528 0.99979 0.46044
 O370 O 0.92580 1.00352 0.54135
 O371 O 0.99801 0.91854 0.46164
 O372 O 1.00662 1.07699 0.53717
 O373 O 0.99938 0.92322 0.54253
 O374 O 1.00552 1.07372 0.45545
 H375 H 1.10945 0.98959 0.43707
 H376 H 1.00758 1.10944 0.55669
 H377 H 0.89282 1.00029 0.44112
 H378 H 0.99808 0.89177 0.56319
 H379 H 1.05251 1.16005 0.47403
 H380 H 0.95951 1.16552 0.47142
 H381 H 0.83860 1.04831 0.49359
 H382 H 0.83730 0.96363 0.52627
 H383 H 0.95071 0.83474 0.48356
 H384 H 1.03666 0.82997 0.51038
 H385 H 1.16464 0.94412 0.52366
 H386 H 1.16980 1.03581 0.51619
 O387 O 0.60626 0.41721 0.06356
 O388 O 0.55187 0.45626 0.11675
 C389 C 0.59126 0.42522 0.10530
 O390 O 0.59431 0.59056 -0.06708
 O391 O 0.54471 0.54001 -0.11701
 C392 C 0.58009 0.57650 -0.10781
 O393 O 0.60364 0.58931 0.05780
 O394 O 0.55327 0.54924 0.11345
 C395 C 0.59085 0.58128 0.09986
 O396 O 0.59432 0.40236 -0.06004
 O397 O 0.54342 0.44606 -0.11326
 C398 C 0.57938 0.41123 -0.10151
 Zr399 Zr 0.56659 0.43080 0.00193
 O400 O 0.64924 0.41426 -0.00070
 O401 O 0.55382 0.34692 0.00292
 Zr402 Zr 0.56982 0.56438 -0.00283
 O403 O 0.65399 0.56472 -0.00935
 O404 O 0.57078 0.64928 0.00007
 O405 O 0.58060 0.49929 0.04004
 O406 O 0.57728 0.49574 -0.04066
 O407 O 0.40472 0.40387 -0.05534
 O408 O 0.45082 0.44881 -0.11097
 C409 C 0.41518 0.41450 -0.09749
 O410 O 0.41113 0.59678 0.06359
 O411 O 0.45924 0.54891 0.11642
 C412 C 0.42366 0.58404 0.10503
 O413 O 0.41273 0.59727 -0.06240
 O414 O 0.45339 0.54184 -0.11440
 C415 C 0.42154 0.58075 -0.10362
 O416 O 0.40002 0.41859 0.06875
 O417 O 0.45787 0.45838 0.11913
 C418 C 0.41728 0.42782 0.10959
 Zr419 Zr 0.43466 0.43363 0.00545
 O420 O 0.35072 0.42508 0.00435
 O421 O 0.43920 0.34936 0.01382
 Zr422 Zr 0.43736 0.56767 0.00080
 O423 O 0.35287 0.56878 -0.00190
 O424 O 0.43744 0.65249 0.00355
 Zr425 Zr 0.50444 0.50193 0.07078
 Zr426 Zr 0.49965 0.49625 -0.06815
 O427 O 0.42410 0.49923 -0.03653
 O428 O 0.42625 0.50275 0.04406
 O429 O 0.49892 0.41957 -0.03759
 O430 O 0.50530 0.57781 0.03899
 O431 O 0.50191 0.42341 0.04484
 O432 O 0.50244 0.57529 -0.04256
 H433 H 0.60894 0.49518 -0.06098
 H434 H 0.50677 0.61064 0.05802
 H435 H 0.39142 0.49976 -0.05558
 H436 H 0.50181 0.39353 0.06712
 H437 H 0.55236 0.66304 -0.02738
 H438 H 0.46242 0.66556 -0.02014
 H439 H 0.33939 0.54932 0.02522
 H440 H 0.33575 0.46164 0.00301
 H441 H 0.45233 0.33385 -0.01519
 H442 H 0.55684 0.33460 0.03481
 H443 H 0.66714 0.44828 -0.00901
 H444 H 0.66800 0.53705 0.01165
 C445 C 0.29375 1.18576 0.15800
 C446 C 0.34784 1.16110 0.17185
 C447 C 0.37060 1.12937 0.14051
 C448 C 0.34016 1.12393 0.09541
 C449 C 0.28505 1.10313 0.11079
 C450 C 0.26089 1.13523 0.14345
 C451 C 0.30459 1.21276 0.11158
 C452 C 0.32943 1.18153 0.07988
 H453 H 0.36632 1.16429 0.20511
 H454 H 0.40590 1.10650 0.14896
 H455 H 0.26656 1.06709 0.09733
 H456 H 0.22172 1.12579 0.15708
 H457 H 0.29242 1.25240 0.10288
 H458 H 0.33771 1.19575 0.04555
 C459 C 0.79516 0.68623 0.65884
 C460 C 0.75869 0.64333 0.63577
 C461 C 0.78343 0.61230 0.60277
 C462 C 0.84262 0.62666 0.59546
 C463 C 0.84201 0.68709 0.58534
 C464 C 0.81739 0.71753 0.61771
 C465 C 0.84324 0.65260 0.67534
 C466 C 0.86654 0.62193 0.64335
 H467 H 0.71679 0.63831 0.64414
 H468 H 0.76272 0.58133 0.58371
 H469 H 0.85665 0.70421 0.55361
 H470 H 0.81073 0.75941 0.61172
 H471 H 0.85765 0.65051 0.71007
 H472 H 0.89865 0.59463 0.65212
 C473 C 0.70342 0.82674 0.16587
 C474 C 0.67514 0.87651 0.18688
 C475 C 0.65233 0.91015 0.15649
 C476 C 0.65791 0.89296 0.10659
 C477 C 0.71851 0.88754 0.09968
 C478 C 0.74231 0.85327 0.13086
 C479 C 0.65946 0.80215 0.13627
 C480 C 0.63768 0.83501 0.10509
 H481 H 0.67427 0.88720 0.22262
 H482 H 0.63338 0.94726 0.16711
 H483 H 0.74101 0.91027 0.07459
 H484 H 0.78527 0.84849 0.13246
 H485 H 0.63968 0.76529 0.14285
 H486 H 0.60492 0.82163 0.08363
 C487 C 1.20612 0.32797 0.66534
 C488 C 1.16403 0.30407 0.63337
 C489 C 1.14220 0.33865 0.60338
 C490 C 1.16115 0.39689 0.60802
 C491 C 1.15334 0.41068 0.65846
 C492 C 1.17529 0.37537 0.68781
 C493 C 1.24553 0.35766 0.63268
 C494 C 1.22203 0.39326 0.60249
 H495 H 1.14533 0.26609 0.63752
 H496 H 1.11021 0.32618 0.58069
 H497 H 1.13158 0.44563 0.67036
 H498 H 1.16937 0.38155 0.72406
 H499 H 1.28851 0.35308 0.63467
 H500 H 1.24481 0.41769 0.57879
 C501 C 0.70516 1.17424 -0.16704
 C502 C 0.72470 1.17712 -0.11681
 C503 C 0.69788 1.14365 -0.08698
 C504 C 0.65461 1.10891 -0.10992
 C505 C 0.61934 1.15041 -0.13455
 C506 C 0.64444 1.18175 -0.16445
 C507 C 0.71080 1.11336 -0.17777
 C508 C 0.68416 1.07986 -0.14850
 H509 H 0.75705 1.20296 -0.10575
 H510 H 0.70757 1.14125 -0.05095
 H511 H 0.57704 1.15641 -0.12878
 H512 H 0.62150 1.21116 -0.18326
 H513 H 0.73583 1.09731 -0.20471
 H514 H 0.68629 1.03651 -0.15123
 C515 C 1.20745 0.67481 0.33454
 C516 C 1.21252 0.61415 0.32218
 C517 C 1.18586 0.57977 0.35027
 C518 C 1.15711 0.60733 0.38970
 C519 C 1.20076 0.64075 0.41356
 C520 C 1.22720 0.67570 0.38476
 C521 C 1.14698 0.68330 0.33863
 C522 C 1.12170 0.65001 0.36709
 H523 H 1.23840 0.59847 0.29569
 H524 H 1.18840 0.53653 0.34660
 H525 H 1.21002 0.63744 0.44963
 H526 H 1.25833 0.70198 0.39709
 H527 H 1.12418 0.71326 0.32075
 H528 H 1.07922 0.65464 0.37279
 C529 C 0.29427 0.81311 -0.15650
 C530 C 0.31904 0.78332 -0.11567
 C531 C 0.34276 0.81506 -0.08398
 C532 C 0.34017 0.87520 -0.09431
 C533 C 0.36260 0.88133 -0.14261
 C534 C 0.34021 0.84939 -0.17403
 C535 C 0.25619 0.85398 -0.13282
 C536 C 0.28018 0.88644 -0.10033
 H537 H 0.31781 0.74081 -0.11037
 H538 H 0.36043 0.79870 -0.05313
 H539 H 0.39287 0.91057 -0.15205
 H540 H 0.35358 0.85257 -0.20913
 H541 H 0.21389 0.85658 -0.14038
 H542 H 0.25848 0.91628 -0.08085
 C543 C 0.79890 0.31359 0.34261
 C544 C 0.81954 0.28460 0.38555
 C545 C 0.84255 0.31666 0.41757
 C546 C 0.84337 0.37651 0.40563
 C547 C 0.86905 0.37941 0.35817
 C548 C 0.84745 0.34688 0.32662
 C549 C 0.76133 0.35723 0.36337
 C550 C 0.78449 0.38994 0.39617
 H551 H 0.81811 0.24230 0.39115
 H552 H 0.85845 0.30066 0.44924
 H553 H 0.90124 0.40672 0.34933
 H554 H 0.86394 0.34676 0.29260
 H555 H 0.71976 0.36149 0.35373
 H556 H 0.76284 0.42146 0.41365
 C557 C 1.18293 0.29747 0.16000
 C558 C 1.14680 0.34237 0.17921
 C559 C 1.11310 0.36457 0.14926
 C560 C 1.11796 0.34379 0.10035
 C561 C 1.17753 0.34809 0.08861
 C562 C 1.21072 0.32393 0.11892
 C563 C 1.14202 0.25897 0.13652
 C564 C 1.10820 0.28317 0.10531
 H565 H 1.14547 0.35567 0.21429
 H566 H 1.08369 0.39364 0.16030
 H567 H 1.19241 0.36709 0.05774
 H568 H 1.25280 0.32370 0.11252
 H569 H 1.14050 0.21621 0.14311
 H570 H 1.07829 0.26123 0.08610
 C571 C 0.67951 0.79504 0.66344
 C572 C 0.68075 0.85634 0.66733
 C573 C 0.65014 0.88240 0.63808
 C574 C 0.61700 0.84705 0.60519
 C575 C 0.65849 0.81050 0.58221
 C576 C 0.68992 0.78244 0.61237
 C577 C 0.61878 0.78206 0.66757
 C578 C 0.58662 0.80920 0.63739
 H579 H 0.70541 0.87979 0.69023
 H580 H 0.65028 0.92587 0.63991
 H581 H 0.66031 0.80411 0.54559
 H582 H 0.71727 0.75184 0.60085
 H583 H 0.60262 0.75147 0.69002
 H584 H 0.54447 0.80112 0.63439
 C585 C 1.17987 0.70581 -0.15977
 C586 C 1.15818 0.65017 -0.17311
 C587 C 1.12469 0.62804 -0.14311
 C588 C 1.11496 0.66050 -0.09940
 C589 C 1.17046 0.67411 -0.08093
 C590 C 1.20317 0.69871 -0.11157
 C591 C 1.12756 0.73785 -0.14952
 C592 C 1.09375 0.71417 -0.11784
 H593 H 1.16437 0.62997 -0.20535
 H594 H 1.10374 0.59140 -0.15176
 H595 H 1.18143 0.66946 -0.04529
 H596 H 1.24021 0.71524 -0.10052
 H597 H 1.11818 0.77605 -0.16523
 H598 H 1.05632 0.73201 -0.10714
 C599 C 0.68466 1.20516 0.33936
 C600 C 0.63657 1.24070 0.35468
 C601 C 0.60221 1.21672 0.38574
 C602 C 0.61874 1.15924 0.39863
 C603 C 0.62268 1.13102 0.35239
 C604 C 0.65656 1.15343 0.32266
 C605 C 0.70967 1.18964 0.38541
 C606 C 0.67625 1.16509 0.41542
 H607 H 0.63044 1.28138 0.34275
 H608 H 0.56743 1.23678 0.39964
 H609 H 0.59774 1.09739 0.34233
 H610 H 0.65852 1.13691 0.28852
 H611 H 0.74974 1.19805 0.39520
 H612 H 0.68906 1.15359 0.44945
 C613 C 0.81616 0.71029 0.16127
 C614 C 0.87725 0.71170 0.17079
 C615 C 0.90810 0.68429 0.14015
 C616 C 0.87665 0.65789 0.10127
 C617 C 0.83335 0.62426 0.12554
 C618 C 0.80440 0.65027 0.15634
 C619 C 0.81330 0.73162 0.11135
 C620 C 0.84448 0.70416 0.08018
 H621 H 0.89559 0.73500 0.19783
 H622 H 0.95138 0.68399 0.14208
 H623 H 0.82397 0.58246 0.11890
 H624 H 0.77563 0.62770 0.17555
 H625 H 0.78828 0.76450 0.10078
 H626 H 0.84584 0.71442 0.04419
 C627 C 0.31870 1.21204 0.65969
 C628 C 0.30638 1.15254 0.65318
 C629 C 0.33480 1.12783 0.62134
 C630 C 0.37898 1.16189 0.59831
 C631 C 0.34733 1.20925 0.57846
 C632 C 0.31606 1.23551 0.61040
 C633 C 0.37970 1.21262 0.66943
 C634 C 0.41041 1.18633 0.63809
 H635 H 0.27698 1.12964 0.67154
 H636 H 0.32399 1.08694 0.61257
 H637 H 0.34877 1.22083 0.54277
 H638 H 0.29086 1.26871 0.60084
 H639 H 0.39816 1.23466 0.69716
 H640 H 0.45368 1.18571 0.64010
 C641 C 0.81893 0.29101 -0.16161
 C642 C 0.79105 0.31837 -0.12113
 C643 C 0.82399 0.34330 -0.09098
 C644 C 0.88371 0.33922 -0.10215
 C645 C 0.89335 0.27834 -0.10633
 C646 C 0.85965 0.25325 -0.13744
 C647 C 0.85577 0.33577 -0.18117
 C648 C 0.88897 0.35903 -0.15123
 H649 H 0.74987 0.31410 -0.11281
 H650 H 0.80899 0.36070 -0.05950
 H651 H 0.92333 0.25692 -0.08688
 H652 H 0.86136 0.21045 -0.14383
 H653 H 0.85860 0.34771 -0.21666
 H654 H 0.91860 0.38803 -0.16237
 C655 C 0.32001 0.79326 0.33855
 C656 C 0.34835 0.75417 0.37233
 C657 C 0.38103 0.77846 0.40460
 C658 C 0.38307 0.83994 0.40027
 C659 C 0.39994 0.84912 0.35071
 C660 C 0.36805 0.82585 0.31928
 C661 C 0.29287 0.83415 0.36994
 C662 C 0.32425 0.85656 0.40214
 H663 H 0.34517 0.71093 0.36963
 H664 H 0.40419 0.75598 0.42929
 H665 H 0.43587 0.87080 0.34096
 H666 H 0.37924 0.82912 0.28384
 H667 H 0.25499 0.85176 0.36434
 H668 H 0.30909 0.88761 0.42469
 C669 C 1.17112 1.16955 0.30520
 C670 C 1.12933 1.13631 0.27751
 C671 C 1.09799 1.10274 0.30409
 C672 C 1.11171 1.10621 0.35538
 C673 C 1.17123 1.09362 0.35736
 C674 C 1.20150 1.12512 0.33033
 C675 C 1.13548 1.19816 0.33974
 C676 C 1.10590 1.16579 0.36632
 H677 H 1.12453 1.13881 0.24078
 H678 H 1.06704 1.07710 0.29010
 H679 H 1.18743 1.05823 0.37392
 H680 H 1.24244 1.11424 0.32290
 H681 H 1.12390 1.23963 0.33633
 H682 H 1.07392 1.18171 0.38739
 C683 C 0.67055 0.66840 -0.19374
 C684 C 0.70036 0.62667 -0.16526
 C685 C 0.66924 0.59593 -0.13846
 C686 C 0.60958 0.60657 -0.14386
 C687 C 0.60123 0.66645 -0.13594
 C688 C 0.63160 0.69802 -0.16253
 C689 C 0.63172 0.63213 -0.22193
 C690 C 0.59948 0.59936 -0.19544
 H691 H 0.74150 0.61546 -0.17128
 H692 H 0.68520 0.56154 -0.12029
 H693 H 0.56776 0.68259 -0.11677
 H694 H 0.62005 0.73934 -0.16772
 H695 H 0.62949 0.63198 -0.25890
 H696 H 0.57034 0.57184 -0.20969
 C697 C 0.82522 1.17590 0.68328
 C698 C 0.80023 1.12153 0.66972
 C699 C 0.83243 1.08992 0.64390
 C700 C 0.88745 1.11446 0.63418
 C701 C 0.87621 1.16953 0.61320
 C702 C 0.84342 1.20026 0.63797
 C703 C 0.87865 1.15957 0.70679
 C704 C 0.91096 1.12719 0.68111
 H705 H 0.76050 1.10848 0.67950
 H706 H 0.82027 1.05039 0.63232
 H707 H 0.88985 1.18239 0.57971
 H708 H 0.82704 1.23507 0.62235
 H709 H 0.89074 1.17293 0.74048
 H710 H 0.94953 1.11309 0.69284
 C711 C 0.33055 0.67348 0.18957
 C712 C 0.30144 0.63735 0.15561
 C713 C 0.33331 0.60746 0.12909
 C714 C 0.39265 0.61379 0.13969
 C715 C 0.40537 0.67352 0.13679
 C716 C 0.37437 0.70409 0.16382
 C717 C 0.36399 0.63182 0.21732
 C718 C 0.39690 0.60041 0.19083
 H719 H 0.26016 0.62558 0.15950
 H720 H 0.31726 0.57496 0.10852
 H721 H 0.44062 0.68956 0.11997
 H722 H 0.38568 0.74512 0.17133
 H723 H 0.36213 0.62682 0.25405
 H724 H 0.42250 0.56946 0.20481
 C725 C 1.17523 0.82580 0.69052
 C726 C 1.12238 0.79966 0.67513
 C727 C 1.09100 0.83180 0.64906
 C728 C 1.11395 0.88819 0.64114
 C729 C 1.12398 0.91055 0.68910
 C730 C 1.15637 0.87807 0.71498
 C731 C 1.20021 0.84641 0.64639
 C732 C 1.16997 0.87949 0.62186
 H733 H 1.10981 0.75949 0.68443
 H734 H 1.05229 0.81886 0.63653
 H735 H 1.10784 0.94817 0.70148
 H736 H 1.16764 0.88892 0.74951
 H737 H 1.23444 0.83048 0.63020
 H738 H 1.18391 0.89431 0.58912
 C739 C 0.68144 0.32880 0.18966
 C740 C 0.70846 0.38243 0.17647
 C741 C 0.67779 0.41532 0.15013
 C742 C 0.62197 0.39286 0.13984
 C743 C 0.63186 0.33742 0.11929
 C744 C 0.66278 0.30566 0.14437
 C745 C 0.62854 0.34703 0.21287
 C746 C 0.59759 0.38068 0.18683
 H747 H 0.74828 0.39408 0.18713
 H748 H 0.69153 0.45437 0.13870
 H749 H 0.62108 0.32525 0.08508
 H750 H 0.67932 0.27189 0.12794
 H751 H 0.61618 0.33446 0.24673
 H752 H 0.55965 0.39653 0.19851
 C753 C 0.82263 0.82412 0.31616
 C754 C 0.83662 0.79978 0.36233
 C755 C 0.87016 0.82856 0.38767
 C756 C 0.88584 0.88242 0.36634
 C757 C 0.91087 0.86761 0.32050
 C758 C 0.87802 0.83666 0.29419
 C759 C 0.80036 0.88015 0.32773
 C760 C 0.83313 0.91023 0.35436
 H761 H 0.81631 0.76716 0.37814
 H762 H 0.88096 0.81525 0.42173
 H763 H 0.94999 0.88085 0.30930
 H764 H 0.89035 0.82310 0.26062
 H765 H 0.76214 0.89528 0.31613
 H766 H 0.82306 0.95070 0.36493
 C767 C 0.32392 0.32489 -0.18481
 C768 C 0.30810 0.32233 -0.13460
 C769 C 0.33792 0.35215 -0.10686
 C770 C 0.38256 0.38382 -0.13109
 C771 C 0.41464 0.34207 -0.15768
 C772 C 0.38434 0.31189 -0.18637
 C773 C 0.32307 0.38578 -0.19616
 C774 C 0.35350 0.41662 -0.16766
 H775 H 0.27911 0.29520 -0.12049
 H776 H 0.33047 0.35110 -0.07035
 H777 H 0.45765 0.33766 -0.15523
 H778 H 0.40217 0.28174 -0.20824
 H779 H 0.30128 0.40319 -0.22449
 H780 H 0.35736 0.45974 -0.17147
 C781 C 1.18094 0.29291 -0.16119
 C782 C 1.18195 0.27045 -0.11162
 C783 C 1.14976 0.29759 -0.08093
 C784 C 1.11879 0.34462 -0.10233
 C785 C 1.16345 0.37824 -0.12482
 C786 C 1.19340 0.35258 -0.15513
 C787 C 1.12013 0.29220 -0.17226
 C788 C 1.08853 0.31937 -0.14224
 H789 H 1.20641 0.23706 -0.10109
 H790 H 1.14692 0.28666 -0.04515
 H791 H 1.17381 0.41926 -0.11641
 H792 H 1.22457 0.37462 -0.17217
 H793 H 1.10228 0.26901 -0.19960
 H794 H 1.04531 0.31977 -0.14511
 C795 C 0.67768 0.79288 0.34035
 C796 C 0.63932 0.75404 0.36629
 C797 C 0.60544 0.77871 0.39743
 C798 C 0.61277 0.84008 0.39957
 C799 C 0.67235 0.84735 0.40951
 C800 C 0.70541 0.82289 0.37946
 C801 C 0.63849 0.83499 0.32031
 C802 C 0.60515 0.85771 0.35021
 H803 H 0.63931 0.71099 0.36105
 H804 H 0.57689 0.75676 0.41814
 H805 H 0.68736 0.86609 0.44044
 H806 H 0.74664 0.82024 0.38763
 H807 H 0.63367 0.84500 0.28466
 H808 H 0.57377 0.88461 0.33894
 C809 C 0.81442 0.70387 -0.16000
 C810 C 0.85931 0.74058 -0.14015
 C811 C 0.89151 0.71651 -0.10767
 C812 C 0.87616 0.65782 -0.09798
 C813 C 0.81708 0.66029 -0.08506
 C814 C 0.78564 0.68458 -0.11655
 C815 C 0.84579 0.65431 -0.17651
 C816 C 0.87770 0.63177 -0.14529
 H817 H 0.86483 0.78210 -0.15012
 H818 H 0.92395 0.73731 -0.09067
 H819 H 0.80132 0.64545 -0.05288
 H820 H 0.74401 0.68861 -0.11006
 H821 H 0.84617 0.63876 -0.21096
 H822 H 0.90436 0.59933 -0.15458
 C823 C 0.31463 1.20443 0.33850
 C824 C 0.35803 1.24190 0.35970
 C825 C 0.39095 1.21774 0.39156
 C826 C 0.37777 1.15820 0.39946
 C827 C 0.31847 1.15798 0.41209
 C828 C 0.28625 1.18213 0.38109
 C829 C 0.34795 1.15660 0.32076
 C830 C 0.38050 1.13395 0.35153
 H831 H 0.36202 1.28401 0.35107
 H832 H 0.42246 1.23906 0.40935
 H833 H 0.30302 1.14099 0.44361
 H834 H 0.24430 1.18371 0.38732
 H835 H 0.34877 1.14217 0.28591
 H836 H 0.40800 1.10237 0.34174
 C837 C 1.18282 0.70661 0.15864
 C838 C 1.15515 0.65425 0.17432
 C839 C 1.12152 0.63223 0.14418
 C840 C 1.11750 0.66108 0.09815
 C841 C 1.10043 0.71815 0.11191
 C842 C 1.13438 0.74185 0.14353
 C843 C 1.20831 0.69224 0.11238
 C844 C 1.17525 0.66794 0.08184
 H845 H 1.15729 0.63691 0.20817
 H846 H 1.09658 0.59853 0.15396
 H847 H 1.06556 0.73818 0.09819
 H848 H 1.12774 0.78223 0.15600
 H849 H 1.24843 0.70142 0.10280
 H850 H 1.18844 0.65731 0.04770
 C851 C 0.68191 1.20937 0.65762
 C852 C 0.64095 1.24796 0.63468
 C853 C 0.60807 1.22423 0.60225
 C854 C 0.61888 1.16390 0.59569
 C855 C 0.67873 1.16132 0.58485
 C856 C 0.71083 1.18494 0.61635
 C857 C 0.64572 1.16324 0.67516
 C858 C 0.61326 1.14131 0.64399
 H859 H 0.63854 1.29032 0.64277
 H860 H 0.57807 1.24626 0.58334
 H861 H 0.69431 1.14641 0.55265
 H862 H 0.75197 1.19103 0.60852
 H863 H 0.64249 1.14977 0.71023
 H864 H 0.58368 1.11153 0.65374
 C865 C 0.82307 0.29261 0.16237
 C866 C 0.79515 0.31963 0.12190
 C867 C 0.82822 0.34388 0.09156
 C868 C 0.88788 0.33919 0.10274
 C869 C 0.89366 0.35923 0.15173
 C870 C 0.86000 0.33695 0.18167
 C871 C 0.86329 0.25402 0.13831
 C872 C 0.89710 0.27841 0.10696
 H873 H 0.75398 0.31504 0.11352
 H874 H 0.81341 0.36069 0.05979
 H875 H 0.92350 0.38811 0.16268
 H876 H 0.86207 0.34976 0.21677
 H877 H 0.86443 0.21122 0.14472
 H878 H 0.92669 0.25658 0.08737
 C879 C 0.32200 0.79435 0.66651
 C880 C 0.31484 0.77834 0.61568
 C881 C 0.34680 0.80608 0.58544
 C882 C 0.38496 0.84638 0.60827
 C883 C 0.34744 0.88161 0.63766
 C884 C 0.31739 0.85561 0.66765
 C885 C 0.38294 0.78539 0.67350
 C886 C 0.41523 0.81276 0.64361
 H887 H 0.28879 0.74627 0.60456
 H888 H 0.34696 0.79784 0.54906
 H889 H 0.34239 0.92471 0.63526
 H890 H 0.29008 0.87865 0.68856
 H891 H 0.39964 0.75837 0.69872
 H892 H 0.45812 0.80947 0.64440
 C893 C 0.29380 1.17697 -0.16448
 C894 C 0.32586 1.12977 -0.18557
 C895 C 0.34778 1.09563 -0.15509
 C896 C 0.33824 1.11029 -0.10490
 C897 C 0.35569 1.16883 -0.10066
 C898 C 0.33462 1.20201 -0.13195
 C899 C 0.25391 1.14737 -0.13212
 C900 C 0.27711 1.11279 -0.10084
 H901 H 0.33210 1.12279 -0.22168
 H902 H 0.37030 1.06069 -0.16595
 H903 H 0.38722 1.18237 -0.07797
 H904 H 0.35514 1.23851 -0.13736
 H905 H 0.21095 1.15152 -0.13488
 H906 H 0.25409 1.08871 -0.07705
 C907 C 0.79167 0.67754 0.33614
 C908 C 0.78631 0.61662 0.32533
 C909 C 0.81348 0.58325 0.35422
 C910 C 0.84330 0.61238 0.39263
 C911 C 0.87794 0.65450 0.36778
 C912 C 0.85236 0.68569 0.33835
 C913 C 0.77263 0.67991 0.38660
 C914 C 0.80003 0.64657 0.41608
 H915 H 0.76095 0.60040 0.29871
 H916 H 0.81148 0.53991 0.35140
 H917 H 0.92028 0.66115 0.37294
 H918 H 0.87511 0.71544 0.31963
 H919 H 0.74033 0.70545 0.39807
 H920 H 0.79082 0.64395 0.45222
 C921 C 0.70794 1.18089 0.16238
 C922 C 0.71414 1.11897 0.16759
 C923 C 0.68643 1.08877 0.13609
 C924 C 0.65493 1.12218 0.10115
 C925 C 0.62057 1.15927 0.13158
 C926 C 0.64707 1.18784 0.16251
 C927 C 0.72540 1.18939 0.11207
 C928 C 0.69720 1.15990 0.08039
 H929 H 0.73971 1.10018 0.19279
 H930 H 0.68832 1.04532 0.13526
 H931 H 0.57743 1.16294 0.13079
 H932 H 0.62463 1.21419 0.18477
 H933 H 0.75819 1.21530 0.10223
 H934 H 0.70610 1.16136 0.04415
 C935 C 1.20659 0.68367 0.66151
 C936 C 1.15830 0.65010 0.67833
 C937 C 1.13504 0.61903 0.64666
 C938 C 1.15924 0.62329 0.59885
 C939 C 1.16020 0.68341 0.58802
 C940 C 1.18487 0.71421 0.61994
 C941 C 1.24309 0.64046 0.63910
 C942 C 1.21836 0.60896 0.60633
 H943 H 1.14403 0.64785 0.71318
 H944 H 1.10289 0.59163 0.65560
 H945 H 1.14658 0.69995 0.55577
 H946 H 1.19295 0.75537 0.61259
 H947 H 1.28488 0.63554 0.64775
 H948 H 1.23897 0.57763 0.58770
 C949 C 0.70350 0.81595 -0.15976
 C950 C 0.65376 0.84649 -0.17730
 C951 C 0.63108 0.88013 -0.14735
 C952 C 0.65679 0.88132 -0.09996
 C953 C 0.65985 0.82260 -0.08499
 C954 C 0.68441 0.78945 -0.11517
 C955 C 0.73953 0.86252 -0.14148
 C956 C 0.71520 0.89649 -0.11024
 H957 H 0.63847 0.84556 -0.21187
 H958 H 0.59864 0.90628 -0.15765
 H959 H 0.64557 0.80843 -0.05209
 H960 H 0.68943 0.74833 -0.10647
 H961 H 0.78084 0.86790 -0.15163
 H962 H 0.73563 0.93016 -0.09457
 C963 C 1.20407 0.31684 0.33977
 C964 C 1.18982 0.29055 0.38575
 C965 C 1.16553 0.32313 0.41665
 C966 C 1.15829 0.38121 0.40086
 C967 C 1.21490 0.39921 0.38726
 C968 C 1.23873 0.36583 0.35536
 C969 C 1.15166 0.34394 0.32444
 C970 C 1.12950 0.37729 0.35484
 H971 H 1.19820 0.25010 0.39475
 H972 H 1.15457 0.30921 0.45053
 H973 H 1.23453 0.43435 0.40125
 H974 H 1.27889 0.37326 0.34299
 H975 H 1.13329 0.34010 0.29126
 H976 H 1.09516 0.40132 0.34560
 C977 C 0.29344 0.81961 0.16134
 C978 C 0.31715 0.79250 0.11887
 C979 C 0.34179 0.82590 0.08901
 C980 C 0.33986 0.88518 0.10233
 C981 C 0.27988 0.89665 0.10886
 C982 C 0.25556 0.86234 0.13992
 C983 C 0.33944 0.85444 0.18046
 C984 C 0.36204 0.88818 0.15077
 H985 H 0.31343 0.75088 0.11083
 H986 H 0.35836 0.81161 0.05697
 H987 H 0.25854 0.92803 0.09093
 H988 H 0.21333 0.86484 0.14783
 H989 H 0.35096 0.85743 0.21583
 H990 H 0.39124 0.91767 0.16195
 C991 C 0.79408 0.32360 0.66417
 C992 C 0.85490 0.31721 0.66311
 C993 C 0.88030 0.34866 0.63372
 C994 C 0.84513 0.38933 0.60774
 C995 C 0.80344 0.35338 0.58403
 C996 C 0.77635 0.31964 0.61348
 C997 C 0.78677 0.38445 0.67419
 C998 C 0.81362 0.41818 0.64526
 H999 H 0.87777 0.28752 0.68166
 H1000 H 0.92263 0.34211 0.62851
 H1001 H 0.79476 0.35536 0.54778
 H1002 H 0.74464 0.29340 0.60188
 H1003 H 0.76051 0.40022 0.70039
 H1004 H 0.81048 0.46150 0.64755
 C1005 C 1.17729 1.17786 0.68458
 C1006 C 1.18069 1.11719 0.69687
 C1007 C 1.15207 1.08427 0.66893
 C1008 C 1.12165 1.11452 0.63192
 C1009 C 1.08752 1.15559 0.65779
 C1010 C 1.11645 1.18837 0.68574
 C1011 C 1.19246 1.18066 0.63431
 C1012 C 1.16451 1.14831 0.60714
 H1013 H 1.20258 1.10126 0.72578
 H1014 H 1.15004 1.04116 0.67372
 H1015 H 1.04436 1.15794 0.65513
 H1016 H 1.09753 1.21869 0.70676
 H1017 H 1.21903 1.20989 0.61970
 H1018 H 1.17114 1.14995 0.57053
 C1019 C 0.67547 0.67721 0.18659
 C1020 C 0.61447 0.68657 0.18837
 C1021 C 0.58606 0.65425 0.15978
 C1022 C 0.62092 0.61454 0.13311
 C1023 C 0.66296 0.64944 0.10871
 C1024 C 0.69042 0.68144 0.13633
 C1025 C 0.67985 0.61644 0.19803
 C1026 C 0.65180 0.58376 0.16954
 H1027 H 0.59510 0.71567 0.21032
 H1028 H 0.54283 0.65575 0.15742
 H1029 H 0.66902 0.65242 0.07208
 H1030 H 0.71595 0.71173 0.12206
 H1031 H 0.70142 0.60034 0.22702
 H1032 H 0.64987 0.54060 0.17394
 C1033 C 1.17181 0.81731 0.31271
 C1034 C 1.17277 0.80020 0.36267
 C1035 C 1.14002 0.82750 0.38998
 C1036 C 1.10721 0.87122 0.36568
 C1037 C 1.14869 0.90632 0.34120
 C1038 C 1.18183 0.87847 0.31305
 C1039 C 1.11185 0.81352 0.29927
 C1040 C 1.07813 0.84143 0.32732
 H1041 H 1.20104 0.77278 0.37719
 H1042 H 1.14018 0.81938 0.42639
 H1043 H 1.15084 0.94961 0.34467
 H1044 H 1.21214 0.89852 0.29278
 H1045 H 1.09705 0.79148 0.26995
 H1046 H 1.03532 0.84249 0.32229
 C1047 C 0.67376 0.32108 -0.18615
 C1048 C 0.69638 0.37688 -0.17411
 C1049 C 0.66360 0.40709 -0.14759
 C1050 C 0.61040 0.37971 -0.13575
 C1051 C 0.58555 0.36502 -0.18172
 C1052 C 0.61851 0.33407 -0.20814
 C1053 C 0.65915 0.29662 -0.14010
 C1054 C 0.62559 0.32551 -0.11473
 H1055 H 0.73491 0.39181 -0.18534
 H1056 H 0.67410 0.44741 -0.13681
 H1057 H 0.54595 0.37719 -0.19245
 H1058 H 0.60605 0.31997 -0.24151
 H1059 H 0.67860 0.26342 -0.12455
 H1060 H 0.61394 0.31181 -0.08094
 C1061 C 0.83144 1.16866 0.30850
 C1062 C 0.87603 1.19837 0.33405
 C1063 C 0.90707 1.16715 0.36036
 C1064 C 0.89337 1.10762 0.35763
 C1065 C 0.83398 1.10240 0.36885
 C1066 C 0.80218 1.13288 0.34264
 C1067 C 0.86384 1.12660 0.28029
 C1068 C 0.89663 1.09441 0.30637
 H1069 H 0.88728 1.23963 0.32753
 H1070 H 0.94254 1.18272 0.37711
 H1071 H 0.81771 1.07027 0.38976
 H1072 H 0.76065 1.12189 0.33910
 H1073 H 0.86123 1.12191 0.24356
 H1074 H 0.92155 1.06312 0.29203
 C1075 C 0.32722 0.66963 -0.18856
 C1076 C 0.37568 0.69898 -0.16787
 C1077 C 0.40698 0.66854 -0.14094
 C1078 C 0.38975 0.60998 -0.13855
 C1079 C 0.33126 0.60978 -0.12360
 C1080 C 0.29912 0.63958 -0.15000
 C1081 C 0.35455 0.62294 -0.21518
 C1082 C 0.38770 0.59158 -0.18874
 H1083 H 0.38738 0.73962 -0.17648
 H1084 H 0.44387 0.68372 -0.12631
 H1085 H 0.31486 0.58043 -0.09998
 H1086 H 0.25743 0.62940 -0.15088
 H1087 H 0.34817 0.61464 -0.25110
 H1088 H 0.40931 0.55734 -0.20207
 C1089 C 0.82589 0.82847 0.69090
 C1090 C 0.84558 0.87965 0.71680
 C1091 C 0.87776 0.91338 0.69150
 C1092 C 0.88679 0.89327 0.64267
 C1093 C 0.90940 0.83638 0.64852
 C1094 C 0.87830 0.80309 0.67403
 C1095 C 0.80042 0.85121 0.64792
 C1096 C 0.83018 0.88561 0.62423
 H1097 H 0.83501 0.88884 0.75185
 H1098 H 0.89424 0.95046 0.70482
 H1099 H 0.94796 0.82403 0.63530
 H1100 H 0.89091 0.76267 0.68228
 H1101 H 0.76622 0.83604 0.63155
 H1102 H 0.81526 0.90255 0.59254
 C1103 C 0.32711 0.33226 0.19353
 C1104 C 0.36075 0.30456 0.15716
 C1105 C 0.39079 0.33739 0.13149
 C1106 C 0.38743 0.39650 0.14494
 C1107 C 0.32829 0.41118 0.14451
 C1108 C 0.29751 0.37897 0.17064
 C1109 C 0.37071 0.36256 0.22169
 C1110 C 0.40252 0.39650 0.19596
 H1111 H 0.37187 0.26294 0.15909
 H1112 H 0.42194 0.32152 0.10948
 H1113 H 0.31286 0.44767 0.12922
 H1114 H 0.25660 0.38987 0.17837
 H1115 H 0.37646 0.35780 0.25816
 H1116 H 0.43463 0.42030 0.21040
   
