data_POSCAR
  _audit_creation_date              2014-09-24
  _audit_creation_method            'ToBaCCo'
  _symmetry_space_group_name_H-M    'P1'
  _symmetry_Int_Tables_number       1
  _symmetry_cell_setting            triclinic
  loop_
  _symmetry_equiv_pos_as_xyz
 x,y,z
_cell_length_a 23.7553
_cell_length_b 21.9215
_cell_length_c 9.0947
_cell_angle_alpha 90.054300
_cell_angle_beta 90.381500
_cell_angle_gamma 90.751800
loop_
  _atom_site_label
  _atom_site_type_symbol
  _atom_site_fract_x
  _atom_site_fract_y
  _atom_site_fract_z
C1 C 0.22335 0.21807 0.19806
 C2 C 0.20192 0.27633 0.23288
 C3 C 0.22954 0.31173 0.33990
 C4 C 0.27639 0.28980 0.41652
 C5 C 0.29560 0.22970 0.39010
 C6 C 0.26851 0.19482 0.27961
 H7 H 0.28290 0.14914 0.25529
 H8 H 0.21494 0.35744 0.36268
 C9 C 0.78407 0.30238 0.18965
 C10 C 0.80825 0.24376 0.20725
 C11 C 0.78322 0.20233 0.30662
 C12 C 0.73490 0.21758 0.38612
 C13 C 0.71177 0.27601 0.37021
 C14 C 0.73540 0.31659 0.26874
 H15 H 0.71805 0.36198 0.26017
 H16 H 0.79924 0.15638 0.31547
 C17 C 0.73660 0.71811 0.60434
 C18 C 0.71345 0.77647 0.62065
 C19 C 0.73753 0.81713 0.72218
 C20 C 0.78645 0.80293 0.80181
 C21 C 0.81050 0.74426 0.78438
 C22 C 0.78521 0.70288 0.68421
 H23 H 0.80112 0.65690 0.67541
 H24 H 0.72015 0.86250 0.73091
 C25 C 0.27698 0.78906 0.59844
 C26 C 0.29141 0.72712 0.61447
 C27 C 0.26300 0.69127 0.71873
 C28 C 0.22120 0.71628 0.80772
 C29 C 0.20348 0.77703 0.78245
 C30 C 0.23290 0.81308 0.68074
 H31 H 0.22104 0.86018 0.66382
 H32 H 0.27493 0.64408 0.73421
 O33 O 1.06926 0.06986 -0.13914
 O34 O 0.94396 -0.03038 -0.14961
 O35 O 0.96127 0.08779 -0.12212
 O36 O 1.05090 -0.04588 -0.17000
 O37 O 1.05029 -0.06031 0.07066
 O38 O 0.96654 0.07898 0.11940
 O39 O 0.94460 -0.03648 0.09307
 O40 O 1.07506 0.05610 0.10100
 Cu41 Cu 1.00579 0.02180 -0.16905
 Cu42 Cu 1.01012 0.00880 0.12038
 C43 C 1.09389 0.07934 -0.01697
 C44 C 0.92291 -0.05017 -0.03057
 C45 C 0.94860 0.10637 0.00566
 C46 C 1.06428 -0.07675 -0.05774
 O47 O 0.44307 0.44615 0.41324
 O48 O 0.56791 0.54595 0.36875
 O49 O 0.55041 0.43052 0.40126
 O50 O 0.45832 0.56273 0.36833
 O51 O 0.46009 0.57479 0.60950
 O52 O 0.55335 0.44176 0.64270
 O53 O 0.56989 0.56017 0.60919
 O54 O 0.44559 0.46018 0.65396
 Cu55 Cu 0.50444 0.49543 0.36390
 Cu56 Cu 0.50818 0.51092 0.65285
 C57 C 0.42311 0.43635 0.54048
 C58 C 0.59049 0.56952 0.48265
 C59 C 0.56735 0.41338 0.52673
 C60 C 0.44235 0.59034 0.48314
 O61 O -0.03913 0.58659 0.12075
 O62 O 0.04861 0.45197 0.17539
 O63 O 0.06844 0.56716 0.14052
 O64 O -0.05804 0.46874 0.14737
 O65 O -0.05700 0.46148 -0.09514
 O66 O 0.07432 0.55247 -0.09916
 O67 O 0.04833 0.43641 -0.06496
 O68 O -0.03382 0.57670 -0.12039
 Cu69 Cu 0.00438 0.52012 0.16983
 Cu70 Cu 0.00898 0.50582 -0.11921
 C71 C -0.05136 0.60490 -0.00783
 C72 C 0.06191 0.42044 0.06456
 C73 C 0.09318 0.57608 0.01910
 C74 C -0.07907 0.44868 0.02771
 O75 O 0.46009 1.06333 0.62574
 O76 O 0.55062 0.92974 0.59279
 O77 O 0.56892 1.04497 0.62506
 O78 O 0.44309 0.94601 0.58804
 O79 O 0.44403 0.95714 0.34657
 O80 O 0.56805 1.05878 0.38452
 O81 O 0.55198 0.94045 0.35125
 O82 O 0.45828 1.07267 0.38392
 Cu83 Cu 0.50530 0.99513 0.63191
 Cu84 Cu 0.50611 1.00879 0.34252
 C85 C 0.44295 1.09006 0.51041
 C86 C 0.56682 0.91241 0.46721
 C87 C 0.59011 1.06840 0.51016
 C88 C 0.42248 0.93437 0.46171
 C89 C 1.20000 0.18236 0.08570
 C90 C 1.19354 0.20177 -0.05781
 C91 C 1.15692 0.16102 -0.12093
 C92 C 1.14270 0.12085 -0.01007
 O93 O 1.16936 0.13316 0.11467
 H94 H 1.21053 0.24294 -0.10712
 H95 H 1.13865 0.16376 -0.23001
 C96 C 0.70557 0.66993 0.52389
 C97 C 0.72228 0.64403 0.39344
 C98 C 0.68007 0.60370 0.35685
 C99 C 0.64159 0.60749 0.46949
 O100 O 0.65696 0.64769 0.57074
 H101 H 0.76009 0.65411 0.33183
 H102 H 0.67809 0.57417 0.26147
 C103 C -0.19096 0.34909 0.10588
 C104 C -0.22061 0.39232 0.02716
 C105 C -0.18127 0.43273 -0.02295
 C106 C -0.13089 0.41225 0.03196
 O107 O -0.13628 0.36145 0.10940
 H108 H -0.26567 0.39451 0.00987
 H109 H -0.18871 0.47422 -0.08407
 C110 C 0.31044 0.83128 0.50817
 C111 C 0.29660 0.84918 0.36747
 C112 C 0.33803 0.88964 0.32837
 C113 C 0.37299 0.89408 0.44984
 O114 O 0.35624 0.85886 0.55915
 H115 H 0.26077 0.83439 0.30186
 H116 H 0.34171 0.91394 0.22529
 C117 C -0.14531 0.72019 -0.11474
 C118 C -0.13960 0.73597 0.03204
 C119 C -0.10169 0.69643 0.08958
 C120 C -0.08722 0.65878 -0.02501
 O121 O -0.11372 0.67275 -0.14882
 H122 H -0.16297 0.76936 0.09333
 H123 H -0.08820 0.69353 0.20324
 C124 C 0.34032 1.20289 0.46915
 C125 C 0.35749 1.21747 0.61115
 C126 C 0.39864 1.17709 0.64571
 C127 C 0.40411 1.14117 0.52277
 O128 O 0.36867 1.15607 0.41658
 H129 H 0.34002 1.25031 0.68598
 H130 H 0.42127 1.17355 0.74896
 C131 C 1.15161 -0.19754 -0.15168
 C132 C 1.10313 -0.23077 -0.12065
 C133 C 1.06554 -0.18970 -0.07025
 C134 C 1.09295 -0.13431 -0.07870
 O135 O 1.14460 -0.13838 -0.13051
 H136 H 1.09474 -0.27870 -0.13932
 H137 H 1.02213 -0.19842 -0.04034
 C138 C 0.66585 0.29925 0.46354
 C139 C 0.66122 0.29045 0.61358
 C140 C 0.62164 0.33096 0.65923
 C141 C 0.60526 0.36127 0.53370
 O142 O 0.63190 0.34223 0.41585
 H143 H 0.68662 0.26167 0.68325
 H144 H 0.60830 0.33932 0.77090
 C145 C 0.81146 -0.15043 -0.11314
 C146 C 0.78177 -0.10776 -0.03354
 C147 C 0.82100 -0.06730 0.01836
 C148 C 0.87136 -0.08711 -0.03652
 O149 O 0.86606 -0.13763 -0.11560
 H150 H 0.73675 -0.10602 -0.01676
 H151 H 0.81347 -0.02613 0.08062
 C152 C 0.30942 0.33469 0.50182
 C153 C 0.29285 0.36033 0.63278
 C154 C 0.33495 0.40072 0.66905
 C155 C 0.37290 0.39750 0.55516
 O156 O 0.35748 0.35759 0.45354
 H157 H 0.25486 0.35056 0.69389
 H158 H 0.33691 0.43035 0.76425
 C159 C 0.19795 0.68028 -0.08112
 C160 C 0.19220 0.69899 0.06307
 C161 C 0.15631 0.65763 0.12514
 C162 C 0.14190 0.61769 0.01330
 O163 O 0.16788 0.63064 -0.11113
 H164 H 0.20926 0.74002 0.11369
 H165 H 0.13861 0.65980 0.23433
 C166 C 0.70444 1.16946 0.46687
 C167 C 0.72229 1.14360 0.59677
 C168 C 0.68061 1.10297 0.63367
 C169 C 0.64126 1.10653 0.52170
 O170 O 0.65561 1.14690 0.42052
 H171 H 0.76053 1.15385 0.65779
 H172 H 0.67950 1.07344 0.72893
 C173 C 0.14959 0.30079 0.16612
 C174 C 0.10178 0.26678 0.13163
 C175 C 0.06394 0.30731 0.07835
 C176 C 0.09069 0.36309 0.08849
 O177 O 0.14205 0.35977 0.14407
 H178 H 0.09408 0.21871 0.14933
 H179 H 0.02085 0.29795 0.04494
 C180 C 0.66670 0.79935 0.52832
 C181 C 0.66092 0.79039 0.37840
 C182 C 0.62056 0.83039 0.33379
 C183 C 0.60494 0.86057 0.45974
 O184 O 0.63275 0.84196 0.57694
 H185 H 0.68600 0.76185 0.30812
 H186 H 0.60623 0.83855 0.22242
 C187 C 0.85256 0.21996 0.10777
 C188 C 0.85790 0.23539 -0.03903
 C189 C 0.89647 0.19645 -0.09489
 C190 C 0.91170 0.15949 0.02069
 O191 O 0.88500 0.17330 0.14349
 H192 H 0.83397 0.26823 -0.10127
 H193 H 0.90999 0.19350 -0.20806
 C194 C 0.33618 0.69845 0.52677
 C195 C 0.34171 0.70359 0.37622
 C196 C 0.38404 0.66513 0.33968
 C197 C 0.40105 0.63929 0.47046
 O198 O 0.37184 0.65897 0.58383
 H199 H 0.31598 0.72942 0.30088
 H200 H 0.39924 0.65535 0.23036
   
