data_POSCAR
  _audit_creation_date              2014-09-24
  _audit_creation_method            'ToBaCCo'
  _symmetry_space_group_name_H-M    'P1'
  _symmetry_Int_Tables_number       1
  _symmetry_cell_setting            triclinic
  loop_
  _symmetry_equiv_pos_as_xyz
 x,y,z
_cell_length_a 49.1244
_cell_length_b 48.5955
_cell_length_c 49.1231
_cell_angle_alpha 89.908500
_cell_angle_beta 89.998900
_cell_angle_gamma 90.015300
loop_
  _atom_site_label
  _atom_site_type_symbol
  _atom_site_fract_x
  _atom_site_fract_y
  _atom_site_fract_z
N1 N 0.59360 0.66854 0.61317
 N2 N 0.58297 0.65731 0.63512
 C3 C 0.56086 0.67188 0.64261
 C4 C 0.55767 0.69320 0.62436
 C5 C 0.57866 0.69060 0.60594
 H6 H 0.54805 0.66740 0.65996
 H7 H 0.58273 0.70375 0.58863
 Cu8 Cu 0.59911 0.62479 0.65167
 Cu9 Cu 0.62599 0.65376 0.59561
 Cu10 Cu 0.65509 0.59577 0.62483
 N11 N 0.61559 0.59226 0.66789
 N12 N 0.63752 0.58101 0.65726
 C13 C 0.64471 0.55894 0.67223
 C14 C 0.62627 0.55638 0.69321
 C15 C 0.60806 0.57770 0.69003
 H16 H 0.66198 0.54577 0.66815
 H17 H 0.59071 0.58219 0.70282
 N18 N 0.66986 0.61371 0.59199
 N19 N 0.65877 0.63580 0.58086
 C20 C 0.67344 0.64309 0.55881
 C21 C 0.69460 0.62473 0.55610
 C22 C 0.69187 0.60638 0.57731
 H23 H 0.66912 0.66042 0.54567
 H24 H 0.70496 0.58904 0.58166
 H25 H 0.62061 0.61357 0.60834
 H26 H 0.64245 0.63597 0.63012
 N27 N 0.90746 0.33148 0.11245
 N28 N 0.91843 0.34300 0.13405
 C29 C 0.94050 0.32839 0.14160
 C30 C 0.94330 0.30675 0.12373
 C31 C 0.92214 0.30917 0.10548
 H32 H 0.95353 0.33307 0.15874
 H33 H 0.91776 0.29576 0.08847
 Cu34 Cu 0.90277 0.37593 0.15020
 Cu35 Cu 0.87499 0.34620 0.09499
 Cu36 Cu 0.84603 0.40424 0.12397
 N37 N 0.88592 0.40813 0.16658
 N38 N 0.86373 0.41910 0.15621
 C39 C 0.85638 0.44098 0.17131
 C40 C 0.87496 0.44372 0.19214
 C41 C 0.89343 0.42268 0.18868
 H42 H 0.83887 0.45390 0.16746
 H43 H 0.91094 0.41836 0.20132
 N44 N 0.83110 0.38621 0.09131
 N45 N 0.84214 0.36409 0.08027
 C46 C 0.82738 0.35674 0.05832
 C47 C 0.80622 0.37510 0.05559
 C48 C 0.80904 0.39350 0.07668
 H49 H 0.83166 0.33937 0.04527
 H50 H 0.79598 0.41088 0.08097
 H51 H 0.88036 0.38654 0.10711
 H52 H 0.85912 0.36420 0.12964
 N53 N 0.40662 0.16871 -0.11276
 N54 N 0.41762 0.15712 -0.13430
 C55 C 0.43974 0.17168 -0.14182
 C56 C 0.44258 0.19337 -0.12400
 C57 C 0.42135 0.19100 -0.10582
 H58 H 0.45281 0.16695 -0.15890
 H59 H 0.41697 0.20445 -0.08886
 Cu60 Cu 0.40194 0.12418 -0.15042
 Cu61 Cu 0.37410 0.15408 -0.09533
 Cu62 Cu 0.34508 0.09602 -0.12426
 N63 N 0.38505 0.09197 -0.16677
 N64 N 0.36281 0.08107 -0.15643
 C65 C 0.35545 0.05918 -0.17151
 C66 C 0.37407 0.05636 -0.19229
 C67 C 0.39258 0.07738 -0.18883
 H68 H 0.33790 0.04629 -0.16768
 H69 H 0.41013 0.08164 -0.20144
 N70 N 0.33013 0.11412 -0.09166
 N71 N 0.34118 0.13625 -0.08064
 C72 C 0.32641 0.14365 -0.05872
 C73 C 0.30521 0.12531 -0.05599
 C74 C 0.30804 0.10687 -0.07705
 H75 H 0.33070 0.16102 -0.04568
 H76 H 0.29497 0.08950 -0.08132
 H77 H 0.37941 0.11370 -0.10736
 H78 H 0.35828 0.13603 -0.12998
 N79 N 0.09270 0.83065 0.38720
 N80 N 0.08203 0.84192 0.36528
 C81 C 0.05993 0.82733 0.35775
 C82 C 0.05682 0.80597 0.37597
 C83 C 0.07780 0.80853 0.39440
 H84 H 0.04711 0.83185 0.34042
 H85 H 0.08192 0.79535 0.41168
 Cu86 Cu 0.09812 0.87453 0.34881
 Cu87 Cu 0.12507 0.84545 0.40478
 Cu88 Cu 0.15406 0.90360 0.37571
 N89 N 0.11454 0.90714 0.33268
 N90 N 0.13644 0.91840 0.34333
 C91 C 0.14358 0.94053 0.32841
 C92 C 0.12516 0.94313 0.30742
 C93 C 0.10700 0.92174 0.31059
 H94 H 0.16083 0.95372 0.33251
 H95 H 0.08967 0.91725 0.29777
 N96 N 0.16888 0.88559 0.40850
 N97 N 0.15783 0.86344 0.41957
 C98 C 0.17253 0.85611 0.44158
 C99 C 0.19367 0.87451 0.44433
 C100 C 0.19089 0.89292 0.42318
 H101 H 0.16825 0.83872 0.45465
 H102 H 0.20395 0.91030 0.41887
 H103 H 0.11962 0.88567 0.39216
 H104 H 0.14149 0.86339 0.37031
 C105 C 0.11221 0.14871 0.11345
 C106 C 0.13553 0.13696 0.10183
 C107 C 0.14711 0.11373 0.11344
 C108 C 0.13549 0.10198 0.13680
 C109 C 0.11244 0.11359 0.14828
 C110 C 0.10073 0.13709 0.13654
 C111 C 0.09664 0.17123 0.10655
 N112 N 0.07617 0.17338 0.12489
 C113 C 0.07836 0.15274 0.14331
 C114 C 0.10568 0.09796 0.17070
 N115 N 0.12407 0.07733 0.17291
 C116 C 0.14239 0.07947 0.15241
 C117 C 0.16945 0.10686 0.09794
 N118 N 0.17153 0.12535 0.07739
 C119 C 0.15102 0.14384 0.07946
 H120 H 0.09990 0.18501 0.08951
 H121 H 0.06471 0.14940 0.16030
 H122 H 0.08872 0.10130 0.18437
 H123 H 0.15940 0.06570 0.14916
 H124 H 0.18316 0.08975 0.10131
 H125 H 0.14767 0.16095 0.06572
 C126 C 0.38676 0.85144 0.61374
 C127 C 0.36337 0.86312 0.60216
 C128 C 0.35172 0.88628 0.61376
 C129 C 0.36334 0.89803 0.63709
 C130 C 0.38647 0.88649 0.64853
 C131 C 0.39825 0.86306 0.63679
 C132 C 0.40241 0.82901 0.60682
 N133 N 0.42293 0.82691 0.62512
 C134 C 0.42069 0.84750 0.64352
 C135 C 0.39323 0.90210 0.67090
 N136 N 0.37476 0.92266 0.67313
 C137 C 0.35640 0.92048 0.65269
 C138 C 0.32932 0.89310 0.59830
 N139 N 0.32728 0.87464 0.57778
 C140 C 0.34786 0.85623 0.57983
 H141 H 0.39917 0.81525 0.58981
 H142 H 0.43438 0.85086 0.66048
 H143 H 0.41024 0.89880 0.68454
 H144 H 0.33933 0.93420 0.64946
 H145 H 0.31555 0.91015 0.60168
 H146 H 0.35126 0.83916 0.56610
 C147 C 0.88744 0.64829 0.38649
 C148 C 0.86409 0.63651 0.39809
 C149 C 0.85250 0.61333 0.38646
 C150 C 0.86412 0.60166 0.36310
 C151 C 0.88719 0.61331 0.35164
 C152 C 0.89892 0.63676 0.36340
 C153 C 0.90303 0.67077 0.39342
 N154 N 0.92351 0.67298 0.37509
 C155 C 0.92131 0.65241 0.35666
 C156 C 0.89395 0.59776 0.32922
 N157 N 0.87555 0.57714 0.32698
 C158 C 0.85722 0.57921 0.34747
 C159 C 0.83014 0.60641 0.40194
 N160 N 0.82806 0.62482 0.42249
 C161 C 0.84859 0.64331 0.42045
 H162 H 0.89977 0.68449 0.41046
 H163 H 0.93497 0.64913 0.33967
 H164 H 0.91093 0.60115 0.31556
 H165 H 0.84019 0.56544 0.35069
 H166 H 0.81641 0.58932 0.39855
 H167 H 0.85195 0.66037 0.43420
 C168 C 0.61306 0.35211 -0.11376
 C169 C 0.63644 0.36379 -0.10216
 C170 C 0.64809 0.38698 -0.11378
 C171 C 0.63650 0.39876 -0.13713
 C172 C 0.61339 0.38721 -0.14860
 C173 C 0.60161 0.36375 -0.13684
 C174 C 0.59743 0.32963 -0.10685
 N175 N 0.57694 0.32753 -0.12517
 C176 C 0.57919 0.34817 -0.14360
 C177 C 0.60667 0.40286 -0.17101
 N178 N 0.62513 0.42344 -0.17324
 C179 C 0.64345 0.42125 -0.15275
 C180 C 0.67047 0.39378 -0.09831
 N181 N 0.67251 0.37528 -0.07776
 C182 C 0.65193 0.35686 -0.07981
 H183 H 0.60066 0.31584 -0.08981
 H184 H 0.56554 0.35154 -0.16058
 H185 H 0.58969 0.39956 -0.18467
 H186 H 0.66052 0.43497 -0.14952
 H187 H 0.68424 0.41085 -0.10169
 H188 H 0.64853 0.33975 -0.06607
 C189 C -0.03705 0.28706 0.12400
 C190 C -0.01964 0.26959 0.12421
 C191 C 0.00075 0.24913 0.12442
 C192 C 0.01816 0.23165 0.12456
 C193 C 0.03854 0.21119 0.12470
 C194 C 0.05594 0.19370 0.12480
 C195 C 0.53678 0.71387 0.62450
 C196 C 0.51925 0.73123 0.62461
 C197 C 0.49874 0.75156 0.62472
 C198 C 0.48123 0.76893 0.62481
 C199 C 0.46074 0.78928 0.62491
 C200 C 0.44325 0.80667 0.62501
 C201 C 1.03707 0.78637 0.37580
 C202 C 1.01958 0.76897 0.37567
 C203 C 0.99911 0.74858 0.37553
 C204 C 0.98165 0.73116 0.37542
 C205 C 0.96121 0.71074 0.37530
 C206 C 0.94377 0.69328 0.37520
 C207 C 0.46339 0.21414 -0.12428
 C208 C 0.48085 0.23156 -0.12448
 C209 C 0.50129 0.25198 -0.12469
 C210 C 0.51875 0.26941 -0.12483
 C211 C 0.53919 0.28982 -0.12497
 C212 C 0.55665 0.30726 -0.12507
 C213 C 0.12493 -0.03613 0.28656
 C214 C 0.12475 -0.01871 0.26906
 C215 C 0.12457 0.00170 0.24859
 C216 C 0.12443 0.01913 0.23112
 C217 C 0.12428 0.03957 0.21066
 C218 C 0.12418 0.05702 0.19320
 C219 C 0.62607 0.53678 -0.28701
 C220 C 0.62590 0.51939 -0.26948
 C221 C 0.62572 0.49901 -0.24898
 C222 C 0.62557 0.48159 -0.23149
 C223 C 0.62541 0.46118 -0.21101
 C224 C 0.62528 0.44373 -0.19354
 C225 C 0.37418 1.03574 0.78679
 C226 C 0.37427 1.01841 0.76927
 C227 C 0.37437 0.99809 0.74877
 C228 C 0.37446 0.98072 0.73129
 C229 C 0.37456 0.96035 0.71084
 C230 C 0.37465 0.94293 0.69340
 C231 C 0.87507 0.46430 0.21309
 C232 C 0.87515 0.48159 0.23065
 C233 C 0.87524 0.50187 0.25119
 C234 C 0.87531 0.51921 0.26870
 C235 C 0.87539 0.53954 0.28919
 C236 C 0.87546 0.55692 0.30667
 C237 C 0.28449 0.12535 -0.03536
 C238 C 0.26710 0.12537 -0.01805
 C239 C 0.24675 0.12538 0.00223
 C240 C 0.22938 0.12538 0.01956
 C241 C 0.20905 0.12537 0.03986
 C242 C 0.19170 0.12535 0.05721
 C243 C 0.71525 0.62469 0.53540
 C244 C 0.73258 0.62468 0.51803
 C245 C 0.75288 0.62468 0.49770
 C246 C 0.77022 0.62469 0.48034
 C247 C 0.79053 0.62472 0.46002
 C248 C 0.80788 0.62476 0.44266
 C249 C 0.78550 0.37508 0.03496
 C250 C 0.76812 0.37508 0.01764
 C251 C 0.74777 0.37509 -0.00265
 C252 C 0.73041 0.37511 -0.01998
 C253 C 0.71007 0.37515 -0.04027
 C254 C 0.69270 0.37521 -0.05761
 C255 C 0.21435 0.87449 0.46500
 C256 C 0.23170 0.87449 0.48234
 C257 C 0.25202 0.87450 0.50266
 C258 C 0.26937 0.87453 0.52000
 C259 C 0.28970 0.87456 0.54031
 C260 C 0.30707 0.87459 0.55764
   
