data_POSCAR
  _audit_creation_date              2014-09-24
  _audit_creation_method            'ToBaCCo'
  _symmetry_space_group_name_H-M    'P1'
  _symmetry_Int_Tables_number       1
  _symmetry_cell_setting            triclinic
  loop_
  _symmetry_equiv_pos_as_xyz
 x,y,z
_cell_length_a 36.0890
_cell_length_b 34.3617
_cell_length_c 35.5719
_cell_angle_alpha 90.001000
_cell_angle_beta 91.973900
_cell_angle_gamma 90.208200
loop_
  _atom_site_label
  _atom_site_type_symbol
  _atom_site_fract_x
  _atom_site_fract_y
  _atom_site_fract_z
C1 C 0.38489 0.31599 0.32689
 N2 N 0.37138 0.35120 0.31579
 C3 C 0.34431 0.36839 0.33571
 N4 N 0.33065 0.35002 0.36608
 C5 C 0.34427 0.31493 0.37711
 N6 N 0.37115 0.29809 0.35743
 C7 C 0.36436 0.86442 -0.17174
 N8 N 0.33852 0.89242 -0.18028
 C9 C 0.30482 0.89092 -0.16441
 N10 N 0.29776 0.86272 -0.13961
 C11 C 0.32313 0.83544 -0.13004
 N12 N 0.35684 0.83604 -0.14613
 C13 C 0.85509 0.32574 -0.15830
 N14 N 0.83989 0.36155 -0.16455
 C15 C 0.80862 0.37168 -0.14634
 N16 N 0.79358 0.34641 -0.12140
 C17 C 0.80908 0.31083 -0.11542
 N18 N 0.83952 0.30094 -0.13398
 C19 C 0.88740 0.78922 0.35821
 N20 N 0.86353 0.77365 0.38236
 C21 C 0.83370 0.79350 0.39338
 N22 N 0.82730 0.83011 0.37996
 C23 C 0.85126 0.84632 0.35532
 N24 N 0.88148 0.82574 0.34455
 C25 C 0.61158 0.69208 0.31348
 N26 N 0.62772 0.69548 0.34846
 C27 C 0.65301 0.66867 0.36087
 N28 N 0.66228 0.63893 0.33793
 C29 C 0.64586 0.63527 0.30309
 N30 N 0.62063 0.66186 0.29104
 C31 C 0.63859 0.14259 -0.18707
 N32 N 0.66298 0.13353 -0.21385
 C33 C 0.69964 0.13132 -0.20485
 N34 N 0.71196 0.13781 -0.16909
 C35 C 0.68784 0.14682 -0.14212
 N36 N 0.65092 0.14937 -0.15105
 C37 C 0.13594 0.64446 -0.17905
 N38 N 0.15245 0.61008 -0.18699
 C39 C 0.18288 0.59869 -0.16663
 N40 N 0.19653 0.62112 -0.13837
 C41 C 0.18022 0.65501 -0.12982
 N42 N 0.14970 0.66708 -0.15015
 C43 C 0.12756 0.20219 0.32071
 N44 N 0.12347 0.16545 0.30736
 C45 C 0.13939 0.13530 0.32652
 N46 N 0.15972 0.14188 0.35870
 C47 C 0.16360 0.17861 0.37223
 N48 N 0.14753 0.20871 0.35312
 C49 C 0.64394 0.31202 0.67630
 N50 N 0.65673 0.29728 0.64388
 C51 C 0.68483 0.31501 0.62622
 N52 N 0.70064 0.34784 0.64138
 C53 C 0.68774 0.36297 0.67385
 N54 N 0.65935 0.34490 0.69114
 C55 C 0.62911 0.85707 1.16932
 N56 N 0.64962 0.84724 1.13936
 C57 C 0.68705 0.85314 1.14067
 N58 N 0.70372 0.86855 1.17204
 C59 C 0.68326 0.87835 1.20180
 N60 N 0.64604 0.87252 1.20047
 C61 C 0.13448 0.34366 1.14944
 N62 N 0.15513 0.32620 1.12307
 C63 C 0.19168 0.33556 1.12021
 N64 N 0.20720 0.36286 1.14352
 C65 C 0.18653 0.38027 1.16999
 N66 N 0.15029 0.37059 1.17282
 C67 C 0.12079 0.81274 0.66286
 N68 N 0.14625 0.80807 0.63632
 C69 C 0.17303 0.83510 0.63109
 N70 N 0.17432 0.86769 0.65292
 C71 C 0.14874 0.87261 0.67988
 N72 N 0.12174 0.84524 0.68451
 C73 C 0.37746 0.69363 0.69436
 N74 N 0.36720 0.71176 0.66176
 C75 C 0.34046 0.69629 0.63874
 N76 N 0.32355 0.66256 0.64852
 C77 C 0.33368 0.64424 0.68106
 N78 N 0.36065 0.65988 0.70409
 C79 C 0.36607 0.14638 1.18909
 N80 N 0.36421 0.16070 1.15326
 C81 C 0.33062 0.16339 1.13477
 N82 N 0.29962 0.15229 1.15221
 C83 C 0.30125 0.13856 1.18758
 N84 N 0.33450 0.13535 1.20622
 C85 C 0.86701 0.65391 1.18265
 N86 N 0.86230 0.68410 1.15794
 C87 C 0.83115 0.68527 1.13515
 N88 N 0.80564 0.65640 1.13717
 C89 C 0.81030 0.62654 1.16137
 N90 N 0.84123 0.62495 1.18383
 C91 C 0.88920 0.16839 0.66734
 N92 N 0.88000 0.13015 0.67006
 C93 C 0.85710 0.11377 0.64333
 N94 N 0.84313 0.13560 0.61453
 C95 C 0.85263 0.17368 0.61182
 N96 N 0.87563 0.18988 0.63809
 C97 C 0.36386 0.37757 0.66520
 N98 N 0.34313 0.36298 0.63606
 C99 C 0.35243 0.32903 0.61968
 N100 N 0.38277 0.30903 0.63281
 C101 C 0.40394 0.32395 0.66193
 N102 N 0.39404 0.35787 0.67819
 C103 C 0.31186 0.90892 0.16614
 N104 N 0.29259 0.89347 0.13607
 C105 C 0.30646 0.86296 0.11703
 N106 N 0.33963 0.84782 0.12809
 C107 C 0.35908 0.86285 0.15786
 N108 N 0.34504 0.89323 0.17736
 C109 C 0.81434 0.37238 0.16189
 N110 N 0.79617 0.35064 0.13547
 C111 C 0.81231 0.31857 0.12124
 N112 N 0.84700 0.30783 0.13365
 C113 C 0.86527 0.32981 0.16025
 N114 N 0.84872 0.36181 0.17428
 C115 C 0.82814 0.85268 0.67582
 N116 N 0.80764 0.83616 0.64754
 C117 C 0.81865 0.80260 0.63150
 N118 N 0.85077 0.78511 0.64389
 C119 C 0.87141 0.80213 0.67236
 N120 N 0.85992 0.83571 0.68799
 C121 C 0.64765 0.63434 0.69525
 N122 N 0.66033 0.64342 0.66049
 C123 C 0.64622 0.67488 0.64155
 N124 N 0.62040 0.69723 0.65767
 C125 C 0.60772 0.68874 0.69202
 N126 N 0.62137 0.65719 0.71095
 C127 C 0.67685 0.09593 0.19247
 N128 N 0.64394 0.10980 0.20387
 C129 C 0.62401 0.13500 0.18212
 N130 N 0.63720 0.14666 0.14899
 C131 C 0.66994 0.13333 0.13690
 N132 N 0.69041 0.10796 0.15880
 C133 C 0.18232 0.62453 0.16668
 N134 N 0.18905 0.64603 0.13581
 C135 C 0.16445 0.67354 0.12354
 N136 N 0.13292 0.67969 0.14261
 C137 C 0.12595 0.65772 0.17348
 N138 N 0.15078 0.63053 0.18544
 C139 C 0.14678 0.14520 0.67186
 N140 N 0.16560 0.15802 0.64168
 C141 C 0.15543 0.19214 0.62474
 N142 N 0.12718 0.21329 0.63830
 C143 C 0.10872 0.20061 0.66839
 N144 N 0.11870 0.16667 0.68512
 C145 C 0.35111 0.64693 0.32585
 N146 N 0.37740 0.67085 0.31218
 C147 C 0.38675 0.70461 0.33021
 N148 N 0.36920 0.71459 0.36205
 C149 C 0.34259 0.69072 0.37578
 N150 N 0.33358 0.65715 0.35750
 C151 C 0.33259 0.12438 0.81660
 N152 N 0.36488 0.13664 0.80220
 C153 C 0.38531 0.16485 0.81997
 N154 N 0.37347 0.18074 0.85229
 C155 C 0.34142 0.16847 0.86717
 N156 N 0.32076 0.14046 0.84909
 C157 C 0.83057 0.63590 0.83653
 N158 N 0.81324 0.65382 0.86501
 C159 C 0.82846 0.68589 0.88186
 N160 N 0.86107 0.70062 0.86966
 C161 C 0.87862 0.68266 0.84119
 N162 N 0.86318 0.65038 0.82483
 C163 C 0.86588 0.13436 0.32721
 N164 N 0.84786 0.15218 0.35556
 C165 C 0.85868 0.18808 0.36773
 N166 N 0.88728 0.20625 0.35138
 C167 C 0.90525 0.18910 0.32303
 N168 N 0.89442 0.15309 0.31070
 C169 C 0.66314 0.37166 0.32112
 N170 N 0.63272 0.35461 0.30406
 C171 C 0.61775 0.32200 0.31914
 N172 N 0.63339 0.30661 0.35100
 C173 C 0.66361 0.32337 0.36781
 N174 N 0.67868 0.35568 0.35265
 C175 C 0.68502 0.91732 0.83639
 N176 N 0.65141 0.90703 0.82100
 C177 C 0.63075 0.87905 0.83714
 N178 N 0.64407 0.86072 0.86852
 C179 C 0.67758 0.87065 0.88413
 N180 N 0.69829 0.89878 0.86783
 C181 C 0.19151 0.36608 0.82275
 N182 N 0.15649 0.36284 0.80785
 C183 C 0.13145 0.33959 0.82449
 N184 N 0.14166 0.31894 0.85569
 C185 C 0.17652 0.32228 0.87068
 N186 N 0.20138 0.34601 0.85424
 C187 C 0.16160 0.87542 0.32735
 N188 N 0.13214 0.85765 0.30972
 C189 C 0.11866 0.82396 0.32351
 N190 N 0.13480 0.80795 0.35491
 C191 C 0.16390 0.82584 0.37281
 N192 N 0.17740 0.85960 0.35891
 O193 O 0.20190 1.06768 0.20638
 O194 O 0.16768 0.97159 0.23514
 O195 O 0.14711 1.03889 0.24515
 O196 O 0.21324 0.99182 0.18509
 O197 O 0.25518 0.98970 0.23165
 O198 O 0.19060 1.04537 0.29012
 O199 O 0.20718 0.97447 0.28408
 O200 O 0.24621 1.06551 0.25074
 Cu201 Cu 0.17961 1.01877 0.21222
 Cu202 Cu 0.22973 1.01859 0.26753
 C203 C 0.22924 1.08327 0.22429
 C204 C 0.18078 0.95771 0.26595
 C205 C 0.15723 1.04985 0.27785
 C206 C 0.24419 0.98028 0.19847
 O207 O 0.26739 0.50732 0.80555
 O208 O 0.31827 0.45711 0.73454
 O209 O 0.31703 0.53330 0.75561
 O210 O 0.26573 0.44362 0.77789
 O211 O 0.22236 0.45954 0.73515
 O212 O 0.27494 0.54686 0.71120
 O213 O 0.27580 0.47253 0.69089
 O214 O 0.22588 0.52742 0.76268
 Cu215 Cu 0.29784 0.48572 0.77164
 Cu216 Cu 0.24610 0.50407 0.72024
 C217 C 0.23680 0.52330 0.79690
 C218 C 0.30484 0.45408 0.70131
 C219 C 0.30466 0.55525 0.72940
 C220 C 0.23420 0.43772 0.76160
 O221 O 0.77880 -0.04111 0.33943
 O222 O 0.73274 0.02598 0.27071
 O223 O 0.72190 -0.04427 0.29688
 O224 O 0.77837 0.03624 0.33065
 O225 O 0.82071 0.02577 0.28847
 O226 O 0.76270 -0.05824 0.25384
 O227 O 0.77616 0.01414 0.23019
 O228 O 0.82188 -0.05205 0.29829
 Cu229 Cu 0.74995 -0.00366 0.31286
 Cu230 Cu 0.79946 -0.01895 0.26374
 C231 C 0.80683 -0.06023 0.32901
 C232 C 0.74643 0.03096 0.23837
 C233 C 0.73287 -0.06595 0.27091
 C234 C 0.80818 0.04583 0.31554
 O235 O 0.73280 0.47543 0.82759
 O236 O 0.68855 0.54197 0.75927
 O237 O 0.69100 0.46270 0.76387
 O238 O 0.73329 0.54672 0.81466
 O239 O 0.78261 0.54093 0.77997
 O240 O 0.73911 0.45867 0.72756
 O241 O 0.73610 0.53589 0.72232
 O242 O 0.77987 0.46556 0.79073
 Cu243 Cu 0.70588 0.50544 0.79360
 Cu244 Cu 0.76399 0.49944 0.75136
 C245 C 0.76401 0.46014 0.82180
 C246 C 0.70541 0.55186 0.73001
 C247 C 0.70770 0.44635 0.73726
 C248 C 0.76550 0.55793 0.80596
 O249 O 0.28562 0.46206 0.29693
 O250 O 0.22151 0.53362 0.25588
 O251 O 0.23463 0.46104 0.24380
 O252 O 0.27530 0.53732 0.30586
 O253 O 0.31572 0.55129 0.26260
 O254 O 0.27623 0.47416 0.20138
 O255 O 0.26138 0.54709 0.21187
 O256 O 0.32685 0.47530 0.25426
 Cu257 Cu 0.25052 0.49711 0.28018
 Cu258 Cu 0.29942 0.51366 0.22853
 C259 C 0.31640 0.45537 0.28208
 C260 C 0.23010 0.55209 0.22665
 C261 C 0.24860 0.45470 0.21201
 C262 C 0.30181 0.55800 0.29425
 O263 O 0.77653 1.05635 0.75353
 O264 O 0.79727 0.95724 0.72190
 O265 O 0.82172 1.02519 0.70732
 O266 O 0.75528 0.98526 0.77324
 O267 O 0.71032 0.99017 0.72981
 O268 O 0.77757 1.02680 0.66265
 O269 O 0.75113 0.96051 0.67944
 O270 O 0.73262 1.06046 0.70887
 Cu271 Cu 0.79184 1.00582 0.74394
 Cu272 Cu 0.73804 1.01054 0.69116
 C273 C 0.75174 1.07561 0.73558
 C274 C 0.77813 0.94242 0.69478
 C275 C 0.81122 1.03135 0.67350
 C276 C 0.72187 0.97954 0.76232
 O277 O 0.71453 0.53629 0.17101
 O278 O 0.66698 0.46804 0.22999
 O279 O 0.67905 0.54286 0.23403
 O280 O 0.71664 0.46087 0.17866
 O281 O 0.76666 0.46218 0.21626
 O282 O 0.72816 0.53857 0.27257
 O283 O 0.71700 0.46293 0.26723
 O284 O 0.76415 0.53721 0.20914
 Cu285 Cu 0.68964 0.50236 0.19971
 Cu286 Cu 0.74846 0.50036 0.24520
 C287 C 0.74701 0.54800 0.17894
 C288 C 0.68393 0.45255 0.25767
 C289 C 0.69759 0.55403 0.26336
 C290 C 0.74861 0.44785 0.18846
 O291 O 0.17843 0.05566 0.74000
 O292 O 0.21252 -0.01372 0.81061
 O293 O 0.22119 0.05800 0.79859
 O294 O 0.15932 -0.01554 0.75764
 O295 O 0.20190 -0.03692 0.71971
 O296 O 0.26560 0.03948 0.76125
 O297 O 0.25536 -0.03446 0.77257
 O298 O 0.22075 0.03570 0.70109
 Cu299 Cu 0.18806 0.02225 0.77998
 Cu300 Cu 0.24004 -0.00101 0.73451
 C301 C 0.19462 0.05853 0.70894
 C302 C 0.24071 -0.03445 0.80444
 C303 C 0.25396 0.06115 0.78758
 C304 C 0.16921 -0.03866 0.73228
 O305 O 0.26307 0.28839 0.96429
 O306 O 0.30296 0.22435 1.03680
 O307 O 0.30083 0.22461 0.96208
 O308 O 0.25321 0.28006 1.03646
 O309 O 0.20471 0.24120 1.02803
 O310 O 0.25244 0.18514 0.95745
 O311 O 0.25352 0.18643 1.03134
 O312 O 0.21450 0.24947 0.95657
 Cu313 Cu 0.28491 0.25791 1.00069
 Cu314 Cu 0.22675 0.21158 0.99261
 C315 C 0.23253 0.27988 0.94780
 C316 C 0.28444 0.19528 1.04739
 C317 C 0.28387 0.19578 0.94661
 C318 C 0.22032 0.26980 1.04444
 O319 O 0.25274 0.81777 0.47225
 O320 O 0.30065 0.75908 0.54620
 O321 O 0.31204 0.77441 0.47457
 O322 O 0.24726 0.80921 0.54536
 O323 O 0.21076 0.75896 0.53201
 O324 O 0.27503 0.72464 0.46110
 O325 O 0.26403 0.70921 0.53173
 O326 O 0.21611 0.76748 0.45958
 Cu327 Cu 0.28205 0.79504 0.51080
 Cu328 Cu 0.23785 0.73522 0.49471
 C329 C 0.22622 0.80212 0.45316
 C330 C 0.28964 0.72439 0.55201
 C331 C 0.30437 0.74412 0.45543
 C332 C 0.21826 0.78942 0.55113
 O333 O 0.24298 0.80540 0.03463
 O334 O 0.18722 0.75364 -0.03783
 O335 O 0.19898 0.74489 0.03508
 O336 O 0.24107 0.80390 -0.03882
 O337 O 0.28681 0.76178 -0.04386
 O338 O 0.24476 0.70306 0.02905
 O339 O 0.23320 0.71206 -0.04372
 O340 O 0.28881 0.76354 0.02906
 Cu341 Cu 0.21313 0.78123 -0.00120
 Cu342 Cu 0.26761 0.73063 -0.00759
 C343 C 0.27524 0.79365 0.04403
 C344 C 0.20115 0.72455 -0.05381
 C345 C 0.21553 0.71361 0.04477
 C346 C 0.27070 0.79285 -0.05399
 O347 O 0.29495 0.25162 0.46102
 O348 O 0.24705 0.19471 0.53325
 O349 O 0.23761 0.20559 0.46036
 O350 O 0.30831 0.23577 0.53189
 O351 O 0.27466 0.28766 0.54365
 O352 O 0.20479 0.25825 0.47153
 O353 O 0.21333 0.24673 0.54416
 O354 O 0.26135 0.30333 0.47385
 Cu355 Cu 0.27527 0.21660 0.49544
 Cu356 Cu 0.23496 0.27886 0.51001
 C357 C 0.28605 0.28702 0.45512
 C358 C 0.22174 0.21157 0.55102
 C359 C 0.20989 0.22730 0.45298
 C360 C 0.30368 0.26729 0.54955
 O361 O 0.76583 0.83788 0.97940
 O362 O 0.80370 0.76896 1.05078
 O363 O 0.81175 0.77868 0.97801
 O364 O 0.75174 0.82110 1.05030
 O365 O 0.70693 0.78028 1.03285
 O366 O 0.76671 0.73734 0.96284
 O367 O 0.75835 0.72818 1.03489
 O368 O 0.72129 0.79610 0.96374
 Cu369 Cu 0.78765 0.80600 1.01600
 Cu370 Cu 0.73410 0.75632 0.99688
 C371 C 0.73728 0.82874 0.95947
 C372 C 0.78673 0.73701 1.05529
 C373 C 0.79911 0.75048 0.95815
 C374 C 0.71921 0.80728 1.05405
 O375 O 0.76186 0.30433 0.45499
 O376 O 0.80801 0.24099 0.52556
 O377 O 0.80901 0.24726 0.45274
 O378 O 0.76824 0.30356 0.52862
 O379 O 0.72107 0.26243 0.52892
 O380 O 0.76103 0.20713 0.45054
 O381 O 0.76035 0.20035 0.52244
 O382 O 0.71373 0.26443 0.45485
 Cu383 Cu 0.79155 0.27809 0.49056
 Cu384 Cu 0.73394 0.23004 0.48878
 C385 C 0.72975 0.29452 0.44265
 C386 C 0.79195 0.20986 0.53577
 C387 C 0.79245 0.21764 0.43888
 C388 C 0.73838 0.29193 0.54258
 O389 O 0.68759 0.20740 -0.02480
 O390 O 0.74741 0.25563 0.04705
 O391 O 0.72877 0.26863 -0.02207
 O392 O 0.70222 0.19629 0.04811
 O393 O 0.74937 0.15839 0.03533
 O394 O 0.77647 0.23164 -0.03570
 O395 O 0.79438 0.21741 0.03403
 O396 O 0.73504 0.17017 -0.03839
 Cu397 Cu 0.71150 0.23509 0.01395
 Cu398 Cu 0.76817 0.19010 -0.00271
 C399 C 0.70228 0.18210 -0.04549
 C400 C 0.78105 0.24534 0.05231
 C401 C 0.75739 0.26253 -0.04079
 C402 C 0.72147 0.16603 0.05486
 O403 O 0.77122 0.73191 0.46620
 O404 O 0.72234 0.67214 0.53560
 O405 O 0.71412 0.68508 0.46090
 O406 O 0.78215 0.71340 0.53610
 O407 O 0.74768 0.76476 0.54764
 O408 O 0.67959 0.73612 0.47313
 O409 O 0.68759 0.72323 0.54699
 O410 O 0.73587 0.78261 0.47763
 Cu411 Cu 0.75033 0.69517 0.49803
 Cu412 Cu 0.70877 0.75629 0.51280
 C413 C 0.76230 0.76735 0.46043
 C414 C 0.69776 0.68868 0.55467
 C415 C 0.68641 0.70666 0.45302
 C416 C 0.77649 0.74427 0.55450
 O417 O 1.03147 0.32287 0.20451
 O418 O 0.98006 0.25751 0.26692
 O419 O 1.04665 0.29071 0.27064
 O420 O 0.96255 0.30495 0.21410
 O421 O 0.97585 0.25561 0.17710
 O422 O 1.06127 0.23891 0.23759
 O423 O 0.99323 0.20766 0.23065
 O424 O 1.04663 0.27204 0.17046
 Cu425 Cu 1.00466 0.29830 0.24226
 Cu426 Cu 1.02138 0.23875 0.20102
 C427 C 1.04747 0.30835 0.17647
 C428 C 0.97648 0.22161 0.25819
 C429 C 1.06844 0.26306 0.26422
 C430 C 0.95430 0.28330 0.18623
 O431 O 0.48222 0.21548 0.67586
 O432 O 0.54141 0.15451 0.73745
 O433 O 0.47406 0.16735 0.72726
 O434 O 0.55675 0.21172 0.68627
 O435 O 0.55756 0.25777 0.72947
 O436 O 0.47700 0.21232 0.77179
 O437 O 0.54742 0.20186 0.77931
 O438 O 0.48540 0.26206 0.71871
 Cu439 Cu 0.51550 0.18361 0.70168
 Cu440 Cu 0.51755 0.23833 0.75393
 C441 C 0.47223 0.24848 0.68769
 C442 C 0.55300 0.16690 0.76934
 C443 C 0.46161 0.18256 0.75680
 C444 C 0.57064 0.24270 0.70032
 O445 O 0.02031 0.27283 0.81346
 O446 O -0.04723 0.22585 0.74927
 O447 O 0.02221 0.22348 0.75959
 O448 O -0.05225 0.27991 0.80022
 O449 O -0.04324 0.32860 0.76110
 O450 O 0.02854 0.26939 0.71663
 O451 O -0.04181 0.27445 0.70906
 O452 O 0.03020 0.31814 0.77086
 Cu453 Cu -0.01551 0.24646 0.78556
 Cu454 Cu -0.00620 0.30312 0.73572
 C455 C 0.03881 0.30146 0.80180
 C456 C -0.05521 0.24164 0.71785
 C457 C 0.03745 0.23649 0.73053
 C458 C -0.06113 0.31324 0.78735
 O459 O 0.46159 0.25161 0.26700
 O460 O 0.53371 0.19239 0.22392
 O461 O 0.46039 0.19003 0.22289
 O462 O 0.53326 0.25511 0.26489
 O463 O 0.53566 0.21773 0.31547
 O464 O 0.46740 0.15085 0.27182
 O465 O 0.53860 0.15595 0.27505
 O466 O 0.46399 0.21185 0.31584
 Cu467 Cu 0.49663 0.22589 0.23936
 Cu468 Cu 0.50137 0.18042 0.29964
 C469 C 0.45088 0.24161 0.29922
 C470 C 0.54908 0.16487 0.24259
 C471 C 0.45224 0.15888 0.24010
 C472 C 0.54664 0.24730 0.29755
 O473 O 0.96476 0.70752 0.69330
 O474 O 1.04508 0.67768 0.75414
 O475 O 0.97251 0.67267 0.75665
 O476 O 1.03586 0.71238 0.68849
 O477 O 1.03941 0.76845 0.71874
 O478 O 0.97066 0.72952 0.78552
 O479 O 1.04379 0.73359 0.78464
 O480 O 0.96696 0.76463 0.72185
 Cu481 Cu 1.00522 0.68672 0.72049
 Cu482 Cu 1.00557 0.75471 0.75573
 C483 C 0.95187 0.74144 0.69798
 C484 C 1.05781 0.70035 0.77982
 C485 C 0.95916 0.69463 0.78131
 C486 C 1.04824 0.74680 0.69144
 O487 O 0.45115 0.80095 0.19033
 O488 O 0.52855 0.73808 0.22108
 O489 O 0.45803 0.73781 0.22911
 O490 O 0.52076 0.79677 0.17377
 O491 O 0.53358 0.83429 0.22295
 O492 O 0.46625 0.77662 0.27825
 O493 O 0.53793 0.77537 0.27110
 O494 O 0.46292 0.84043 0.23829
 Cu495 Cu 0.48889 0.76486 0.19857
 Cu496 Cu 0.50157 0.81057 0.25747
 C497 C 0.44354 0.83111 0.20932
 C498 C 0.54537 0.74525 0.25226
 C499 C 0.45093 0.74699 0.26255
 C500 C 0.53769 0.82557 0.18846
 O501 O 0.04951 0.71225 0.30384
 O502 O -0.02439 0.65382 0.26137
 O503 O 0.04165 0.67661 0.24465
 O504 O -0.01815 0.70500 0.32058
 O505 O -0.04179 0.75336 0.28689
 O506 O 0.01948 0.72509 0.21000
 O507 O -0.04786 0.70357 0.22941
 O508 O 0.02835 0.76394 0.27277
 Cu509 Cu 0.01195 0.68171 0.28590
 Cu510 Cu -0.01292 0.74147 0.24627
 C511 C 0.05180 0.74794 0.29565
 C512 C -0.04812 0.66757 0.23812
 C513 C 0.04218 0.69730 0.21503
 C514 C -0.03834 0.73506 0.31776
 O515 O 0.52659 0.79756 0.82478
 O516 O 0.45463 0.74864 0.76571
 O517 O 0.52407 0.73546 0.78187
 O518 O 0.45487 0.81038 0.80855
 O519 O 0.47318 0.84717 0.76177
 O520 O 0.53776 0.77125 0.73266
 O521 O 0.46875 0.78663 0.71811
 O522 O 0.54288 0.83230 0.77576
 Cu523 Cu 0.48849 0.76966 0.80039
 Cu524 Cu 0.50717 0.81306 0.74240
 C525 C 0.54758 0.82256 0.80999
 C526 C 0.44962 0.75944 0.73178
 C527 C 0.54202 0.74039 0.75205
 C528 C 0.45243 0.84159 0.78932
 N529 N 0.41226 0.29664 0.30591
 N530 N 0.42386 0.26380 0.31772
 N531 N 0.39709 0.86667 0.81350
 N532 N 0.42704 0.87185 0.79848
 N533 N -0.11220 0.31293 0.82426
 N534 N -0.09268 0.33244 0.80192
 N535 N -0.08236 0.76987 0.35199
 N536 N -0.05480 0.74892 0.35104
 N537 N 0.58581 0.72062 0.29991
 N538 N 0.57202 0.71810 0.26659
 N539 N 0.60319 0.14229 0.80424
 N540 N 0.57003 0.14024 0.79526
 N541 N 1.10457 0.65640 0.79837
 N542 N 1.08868 0.68882 0.80335
 N543 N 1.11383 0.23170 0.30187
 N544 N 1.10237 0.26131 0.28594
 N545 N 0.61443 0.29306 0.69484
 N546 N 0.60082 0.26114 0.68242
 N547 N 0.59302 0.85293 0.16769
 N548 N 0.55900 0.84993 0.16469
 N549 N 1.09874 0.33749 0.15012
 N550 N 1.06480 0.33355 0.15046
 N551 N 1.09421 0.78692 0.66487
 N552 N 1.07102 0.76056 0.66217
 N553 N 0.40515 0.71061 0.71871
 N554 N 0.42218 0.74099 0.70832
 N555 N 0.39811 0.13997 0.20620
 N556 N 0.42701 0.13113 0.22356
 N557 N -0.10219 0.64973 0.20254
 N558 N -0.07439 0.64093 0.22165
 N559 N -0.08745 0.18642 0.69526
 N560 N -0.07877 0.22204 0.69132
 N561 N 0.32685 0.40331 0.32286
 N562 N 0.33822 0.42330 0.29543
 N563 N 0.28084 -0.08086 0.83251
 N564 N 0.25621 -0.05638 0.83496
 N565 N 0.79539 0.40711 0.85103
 N566 N 0.78245 0.44025 0.85246
 N567 N 0.84319 -0.11679 0.33798
 N568 N 0.81842 -0.09402 0.35000
 N569 N 0.31496 0.60935 0.69116
 N570 N 0.32462 0.58968 0.72014
 N571 N 0.27035 1.12944 0.20331
 N572 N 0.23969 1.12202 0.21556
 N573 N 0.78725 0.59734 0.15870
 N574 N 0.76428 0.57162 0.15169
 N575 N 0.84754 1.07732 0.64566
 N576 N 0.83768 1.04311 0.64709
 N577 N 0.65652 0.60498 0.27827
 N578 N 0.68467 0.58437 0.28678
 N579 N 0.72315 1.12300 0.76943
 N580 N 0.74550 1.11507 0.74533
 N581 N 0.19784 0.56494 0.82815
 N582 N 0.21328 0.53330 0.82651
 N583 N 0.13516 1.09999 0.31378
 N584 N 0.13042 1.06708 0.30098
 N585 N 0.70468 0.39704 0.69036
 N586 N 0.69090 0.41325 0.71893
 N587 N 0.69952 -0.11035 0.23316
 N588 N 0.71316 -0.10132 0.26406
 N589 N 0.20217 0.40957 0.19421
 N590 N 0.23315 0.42543 0.18764
 N591 N 0.14742 -0.09501 0.69916
 N592 N 0.14183 -0.06562 0.71799
 N593 N 0.32863 0.29406 0.40730
 N594 N 0.30309 0.30875 0.42634
 N595 N 0.31447 0.80894 -0.10066
 N596 N 0.28487 0.81593 -0.08335
 N597 N 0.79559 0.28403 -0.08835
 N598 N 0.76823 0.29083 -0.06785
 N599 N 0.81022 0.77471 0.41927
 N600 N 0.78262 0.79021 0.43451
 N601 N 0.69805 0.29768 0.59269
 N602 N 0.72512 0.31147 0.57499
 N603 N 0.70950 0.84126 1.11041
 N604 N 0.69631 0.82088 1.08327
 N605 N 0.21379 0.31702 1.09274
 N606 N 0.20003 0.28993 1.07224
 N607 N 0.19893 0.82905 0.60205
 N608 N 0.19388 0.80000 0.58016
 N609 N 0.32844 0.71714 0.60595
 N610 N 0.30440 0.70264 0.58308
 N611 N 0.32651 0.18040 1.09829
 N612 N 0.29586 0.17453 1.08031
 N613 N 0.82538 0.71503 1.10738
 N614 N 0.79809 0.71034 1.08409
 N615 N 0.83667 0.19752 0.58310
 N616 N 0.80893 0.18559 0.56351
 N617 N 0.67252 0.67334 0.39633
 N618 N 0.66414 0.69979 0.41957
 N619 N 0.70249 0.15608 -0.10551
 N620 N 0.68336 0.17011 -0.07945
 N621 N 0.19619 0.67682 -0.09938
 N622 N 0.18114 0.70579 -0.08405
 N623 N 0.18640 0.18573 0.40511
 N624 N 0.18500 0.21816 0.42221
 N625 N 0.35030 0.40912 0.68655
 N626 N 0.32093 0.42713 0.67633
 N627 N 0.29528 0.93857 0.18819
 N628 N 0.26501 0.95397 0.17652
 N629 N 0.79687 0.40484 0.17862
 N630 N 0.76443 0.41619 0.16870
 N631 N 0.81727 0.88857 0.69184
 N632 N 0.78792 0.90556 0.68014
 N633 N 0.66298 0.60242 0.71666
 N634 N 0.69054 0.58236 0.70634
 N635 N 0.69706 0.07059 0.21767
 N636 N 0.72831 0.05566 0.21095
 N637 N 0.20938 0.59747 0.18064
 N638 N 0.20389 0.57890 0.21083
 N639 N 0.15812 0.11165 0.69270
 N640 N 0.18418 0.08914 0.68359
 N641 N 0.33991 0.61302 0.30502
 N642 N 0.31478 0.59026 0.31650
 N643 N 0.31057 0.09596 0.79660
 N644 N 0.27753 0.08921 0.80601
 N645 N 0.81407 0.60308 0.81749
 N646 N 0.78218 0.59025 0.82561
 N647 N 0.85290 0.09746 0.31299
 N648 N 0.82589 0.08086 0.32862
 N649 N 0.68085 0.40430 0.30457
 N650 N 0.66579 0.42176 0.27664
 N651 N 0.70865 0.94290 0.81638
 N652 N 0.69746 0.95815 0.78543
 N653 N 0.21754 0.39175 0.80653
 N654 N 0.21002 0.40874 0.77551
 N655 N 0.17699 0.90981 0.31208
 N656 N 0.16513 0.92317 0.28064
 N657 N 0.43376 0.30244 0.67904
 N658 N 0.44435 0.26967 0.66691
 N659 N 0.39238 0.84375 0.16986
 N660 N 0.41197 0.85395 0.19854
 N661 N 0.90074 0.31908 0.17590
 N662 N 0.92003 0.29018 0.16578
 N663 N 0.90481 0.78560 0.68752
 N664 N 0.91892 0.75349 0.67780
 N665 N 0.58770 0.30192 0.30015
 N666 N 0.57513 0.27092 0.31472
 N667 N 0.59792 0.86530 0.81795
 N668 N 0.57795 0.83858 0.83162
 N669 N 0.09590 0.33374 0.80683
 N670 N 0.07207 0.31198 0.82189
 N671 N 0.08875 0.80451 0.30412
 N672 N 0.08117 0.76973 0.31311
 N673 N 0.58172 0.71497 0.70792
 N674 N 0.56715 0.71101 0.73981
 N675 N 0.59155 0.15290 0.19564
 N676 N 0.57964 0.14457 0.22782
 N677 N 0.09475 0.66493 0.19599
 N678 N 0.07030 0.69058 0.18846
 N679 N 0.08061 0.22415 0.68385
 N680 N 0.06509 0.21351 0.71370
 N681 N 0.41311 0.73061 0.31422
 N682 N 0.42517 0.72313 0.28182
 N683 N 0.41798 0.17969 0.80376
 N684 N 0.42966 0.16617 0.77312
 N685 N 0.91142 0.69928 0.82608
 N686 N 0.92889 0.67987 0.80196
 N687 N 0.93288 0.21105 0.30445
 N688 N 0.95161 0.19720 0.27801
 N689 N 0.32766 0.31349 0.59143
 N690 N 0.33128 0.28020 0.57651
 N691 N 0.28480 0.84456 0.08777
 N692 N 0.29664 0.81389 0.07222
 N693 N 0.79161 0.29613 0.09427
 N694 N 0.80417 0.26583 0.07889
 N695 N 0.79564 0.78695 0.60179
 N696 N 0.80248 0.75620 0.58353
 N697 N 0.32138 0.70202 0.40715
 N698 N 0.32824 0.73276 0.42611
 N699 N 0.32854 0.18709 0.90022
 N700 N 0.29889 0.17598 0.91528
 N701 N 0.80887 0.70434 0.91121
 N702 N 0.82131 0.73351 0.92986
 N703 N 0.83981 0.20787 0.39672
 N704 N 0.80943 0.19593 0.40981
 N705 N 0.68136 0.30446 0.39899
 N706 N 0.71203 0.31646 0.41334
 N707 N 0.69232 0.84779 0.91457
 N708 N 0.72335 0.85494 0.93122
 N709 N 0.18764 0.29901 0.90214
 N710 N 0.21929 0.30424 0.91804
 N711 N 0.18150 0.80748 0.40455
 N712 N 0.20833 0.82316 0.42316
 N713 N 0.66056 0.68807 0.60677
 N714 N 0.68325 0.66956 0.58690
 N715 N 0.68334 0.15086 0.10355
 N716 N 0.71217 0.14174 0.08603
 N717 N 0.17331 0.69760 0.09232
 N718 N 0.20252 0.69024 0.07467
 N719 N 0.17570 0.20816 0.59474
 N720 N 0.20265 0.19124 0.57957
   
