data_POSCAR
  _audit_creation_date              2014-09-24
  _audit_creation_method            'ToBaCCo'
  _symmetry_space_group_name_H-M    'P1'
  _symmetry_Int_Tables_number       1
  _symmetry_cell_setting            triclinic
  loop_
  _symmetry_equiv_pos_as_xyz
 x,y,z
_cell_length_a 39.4301
_cell_length_b 38.7126
_cell_length_c 39.0288
_cell_angle_alpha 90.045000
_cell_angle_beta 90.374500
_cell_angle_gamma 90.148600
loop_
  _atom_site_label
  _atom_site_type_symbol
  _atom_site_fract_x
  _atom_site_fract_y
  _atom_site_fract_z
C1 C 0.19446 1.23935 0.18532
 C2 C 0.18010 1.22107 0.21305
 C3 C 0.19523 1.19100 0.22689
 C4 C 0.22487 1.17850 0.21103
 C5 C 0.23941 1.19564 0.18305
 C6 C 0.22484 1.22649 0.17139
 H7 H 0.15530 1.22841 0.22191
 H8 H 0.23721 1.15549 0.22040
 H9 H 0.23807 1.24063 0.15171
 C10 C 0.81378 0.77357 0.18948
 C11 C 0.82843 0.78746 0.21968
 C12 C 0.81486 0.81665 0.23572
 C13 C 0.78541 0.83180 0.22257
 C14 C 0.77026 0.81912 0.19244
 C15 C 0.78463 0.79026 0.17611
 H16 H 0.85002 0.77547 0.23196
 H17 H 0.77493 0.85418 0.23536
 H18 H 0.77406 0.78248 0.15169
 C19 C 0.81029 1.22112 -0.18763
 C20 C 0.78125 1.20407 -0.17515
 C21 C 0.76566 1.17719 -0.19352
 C22 C 0.77933 1.16695 -0.22499
 C23 C 0.80923 1.18205 -0.23796
 C24 C 0.82393 1.20957 -0.21906
 H25 H 0.77166 1.21010 -0.14996
 H26 H 0.76563 1.14771 -0.23964
 H27 H 0.84632 1.22199 -0.22869
 C28 C 0.17792 0.76827 -0.18245
 C29 C 0.20837 0.77936 -0.16756
 C30 C 0.22571 0.80818 -0.18056
 C31 C 0.21295 0.82470 -0.21010
 C32 C 0.18265 0.81344 -0.22638
 C33 C 0.16525 0.78528 -0.21147
 H34 H 0.21796 0.76607 -0.14510
 H35 H 0.22714 0.84618 -0.22027
 H36 H 0.14088 0.77691 -0.22131
 C37 C 0.54823 1.04501 -0.01661
 H38 H 0.54652 1.05063 0.01048
 C39 C 0.57150 1.06283 -0.03680
 H40 H 0.58774 1.08216 -0.02507
 C41 C 0.53014 1.01179 -0.06442
 H42 H 0.51458 0.99130 -0.07489
 C43 C 0.55338 1.02872 -0.08549
 H44 H 0.55502 1.02158 -0.11227
 N45 N 0.52790 1.02030 -0.03068
 C46 C 0.45179 1.01306 0.04955
 H47 H 0.45351 0.98578 0.05531
 C48 C 0.42941 1.03391 0.06778
 H49 H 0.41382 1.02251 0.08754
 C50 C 0.46903 1.06071 0.01571
 H51 H 0.48395 1.07088 -0.00511
 C52 C 0.44662 1.08241 0.03300
 H53 H 0.44491 1.10935 0.02573
 Zn54 Zn 0.49910 0.99594 -0.00050
 N55 N 0.47127 1.02674 0.02431
 C56 C 0.53166 0.98034 0.06284
 N57 N 0.52786 0.97093 0.02943
 C58 C 0.54690 0.94531 0.01556
 C59 C 0.57065 0.92769 0.03559
 C60 C 0.55545 0.96368 0.08369
 C61 C 0.45018 0.98031 -0.05010
 C62 C 0.42646 0.96029 -0.06793
 C63 C 0.44206 0.91144 -0.03274
 C64 C 0.46593 0.93228 -0.01594
 N65 N 0.46958 0.96604 -0.02491
 H66 H 0.51709 1.00150 0.07310
 H67 H 0.54398 0.93897 -0.01130
 H68 H 0.58600 0.90775 0.02399
 H69 H 0.55849 0.97170 0.11012
 H70 H 0.45298 1.00745 -0.05609
 H71 H 0.41099 0.97214 -0.08768
 H72 H 0.43913 0.88471 -0.02512
 H73 H 0.48082 0.92170 0.00486
 C74 C 0.42645 1.06900 0.05937
 C75 C 0.57442 1.05459 -0.07167
 C76 C 0.42200 0.92548 -0.05907
 C77 C 0.57540 0.93711 0.07001
 C78 C -0.01952 0.55449 1.04242
 H79 H 0.00738 0.55733 1.03785
 C80 C -0.03671 0.57964 1.06101
 H81 H -0.02269 0.60191 1.07014
 C82 C -0.07042 0.52301 1.03369
 H83 H -0.08364 0.50135 1.02236
 C84 C -0.08855 0.54726 1.05275
 H85 H -0.11544 0.54326 1.05656
 N86 N -0.03645 0.52692 1.02911
 C87 C 0.03540 0.44394 1.01266
 H88 H 0.03096 0.43961 0.98561
 C89 C 0.05648 0.42170 1.03101
 H90 H 0.06765 0.40000 1.01777
 C91 C 0.02423 0.47645 1.06277
 H92 H 0.01124 0.49759 1.07507
 C93 C 0.04563 0.45513 1.08206
 H94 H 0.04932 0.46061 1.10902
 Zn95 Zn -0.01041 0.49688 1.00154
 N96 N 0.01961 0.47049 1.02871
 C97 C 0.04877 0.52767 0.97406
 N98 N 0.01443 0.52538 0.97142
 C99 C -0.00336 0.54622 0.94988
 C100 C 0.01337 0.57078 0.93001
 C101 C 0.06649 0.55233 0.95508
 C102 C -0.05732 0.44255 0.99485
 C103 C -0.07620 0.41714 0.97785
 C104 C -0.05423 0.43818 0.92410
 C105 C -0.03613 0.46346 0.94207
 N106 N -0.03805 0.46528 0.97683
 H107 H 0.06232 0.51143 0.99199
 H108 H -0.03071 0.54420 0.94872
 H109 H -0.00139 0.58693 0.91294
 H110 H 0.09361 0.55475 0.95882
 H111 H -0.05751 0.44379 1.02254
 H112 H -0.09111 0.39899 0.99258
 H113 H -0.05226 0.43691 0.89646
 H114 H -0.01984 0.48095 0.92824
 C115 C 0.06191 0.42705 1.06627
 C116 C -0.07178 0.57629 1.06652
 C117 C -0.07449 0.41458 0.94205
 C118 C 0.04873 0.57470 0.93300
 C119 C 1.05406 -0.00248 0.55463
 H120 H 1.05121 0.02519 0.55715
 C121 C 1.07203 -0.02094 0.57952
 H122 H 1.08245 -0.00709 0.60126
 C123 C 1.04147 -0.05403 0.52441
 H124 H 1.02888 -0.06707 0.50346
 C125 C 1.05989 -0.07340 0.54822
 H126 H 1.06192 -0.10100 0.54443
 N127 N 1.03888 -0.01920 0.52799
 C128 C 1.02267 0.05557 0.44590
 H129 H 0.99525 0.05620 0.44484
 C130 C 1.04153 0.07423 0.42207
 H131 H 1.02850 0.08941 0.40279
 C132 C 1.07295 0.03336 0.47110
 H133 H 1.08501 0.01686 0.48986
 C134 C 1.09278 0.05115 0.44735
 H135 H 1.12012 0.04862 0.44826
 Zn136 Zn 1.01135 0.00773 0.49830
 N137 N 1.03854 0.03574 0.46983
 C138 C 0.97886 0.06921 0.52272
 N139 N 0.98260 0.03450 0.52643
 C140 C 0.96650 0.01705 0.55179
 C141 C 0.94581 0.03450 0.57484
 C142 C 0.95777 0.08763 0.54481
 C143 C 1.00118 -0.04113 0.44620
 C144 C 0.98280 -0.06134 0.42298
 C145 C 0.93104 -0.03785 0.44602
 C146 C 0.95043 -0.01863 0.46931
 N147 N 0.98485 -0.02064 0.46903
 H148 H 0.99220 0.08275 0.50272
 H149 H 0.97028 -0.01049 0.55444
 H150 H 0.93436 0.02003 0.59548
 H151 H 0.95463 0.11510 0.54089
 H152 H 1.02861 -0.04167 0.44599
 H153 H 0.99649 -0.07807 0.40572
 H154 H 0.90376 -0.03492 0.44605
 H155 H 0.93794 -0.00146 0.48702
 C156 C 1.07701 0.07173 0.42235
 C157 C 1.07495 -0.05705 0.57673
 C158 C 0.94716 -0.05961 0.42232
 C159 C 0.94100 0.07033 0.57154
 C160 C 0.14155 0.32491 1.14082
 C161 C 0.16625 0.30690 1.12187
 C162 C 0.18373 0.27905 1.13666
 C163 C 0.17795 0.26883 1.17093
 C164 C 0.15462 0.28851 1.19008
 C165 C 0.13667 0.31583 1.17531
 C166 C 0.12158 0.35271 1.12315
 C167 C 0.09396 0.36963 1.13851
 C168 C 0.07509 0.39408 1.12030
 C169 C 0.08343 0.40272 1.08643
 C170 C 0.11149 0.38657 1.07130
 C171 C 0.12996 0.36122 1.08898
 C172 C 0.17326 0.31654 1.08804
 C173 C 0.15594 0.34353 1.07218
 H174 H 0.19251 0.30304 1.07358
 H175 H 0.16233 0.34995 1.04597
 H176 H 0.20054 0.26451 1.12034
 H177 H 0.15049 0.28367 1.21701
 H178 H 0.05323 0.40543 1.13255
 H179 H 0.11870 0.39324 1.04539
 H180 H 0.11930 0.32971 1.19149
 H181 H 0.08585 0.36361 1.16416
 C182 C -0.14234 0.68685 1.13798
 C183 C -0.12300 0.70646 1.16159
 C184 C -0.13737 0.73511 1.17803
 C185 C -0.17166 0.74441 1.17264
 C186 C -0.19097 0.72360 1.14997
 C187 C -0.17659 0.69557 1.13286
 C188 C -0.12543 0.65750 1.11969
 C189 C -0.14136 0.63847 1.09331
 C190 C -0.12412 0.61204 1.07641
 C191 C -0.09067 0.60346 1.08559
 C192 C -0.07484 0.62205 1.11223
 C193 C -0.09156 0.64932 1.12865
 C194 C -0.08935 0.69734 1.16888
 C195 C -0.07420 0.66900 1.15326
 H196 H -0.07456 0.71215 1.18725
 H197 H -0.04818 0.66289 1.15999
 H198 H -0.12084 0.75065 1.19400
 H199 H -0.21778 0.72786 1.14596
 H200 H -0.13686 0.59891 1.05546
 H201 H -0.04924 0.61558 1.12009
 H202 H -0.19294 0.68069 1.11618
 H203 H -0.16679 0.64416 1.08472
 C204 C -0.14425 0.30408 0.86913
 C205 C -0.12470 0.28425 0.84617
 C206 C -0.13958 0.25675 0.82798
 C207 C -0.17439 0.24868 0.83128
 C208 C -0.19364 0.26916 0.85391
 C209 C -0.17890 0.29620 0.87249
 C210 C -0.12716 0.33281 0.88855
 C211 C -0.14386 0.35287 0.91344
 C212 C -0.12672 0.37931 0.93081
 C213 C -0.09269 0.38662 0.92360
 C214 C -0.07577 0.36671 0.89906
 C215 C -0.09255 0.33973 0.88187
 C216 C -0.09034 0.29201 0.84130
 C217 C -0.07473 0.31939 0.85845
 H218 H -0.07532 0.27690 0.82363
 H219 H -0.04817 0.32453 0.85350
 H220 H -0.12320 0.24102 0.81228
 H221 H -0.22070 0.26551 0.85653
 H222 H -0.14022 0.39436 0.94972
 H223 H -0.04924 0.37180 0.89389
 H224 H -0.19531 0.31098 0.88889
 H225 H -0.17001 0.34845 0.92010
 C226 C 0.11977 0.68722 0.86495
 C227 C 0.15412 0.68161 0.85619
 C228 C 0.17312 0.70822 0.84102
 C229 C 0.15808 0.74014 0.83352
 C230 C 0.12385 0.74532 0.84137
 C231 C 0.10491 0.71931 0.85694
 C232 C 0.10066 0.65860 0.88212
 C233 C 0.06730 0.66252 0.89415
 C234 C 0.05068 0.63529 0.91034
 C235 C 0.06658 0.60317 0.91478
 C236 C 0.09991 0.59904 0.90288
 C237 C 0.11714 0.62655 0.88713
 C238 C 0.16913 0.64942 0.86227
 C239 C 0.15090 0.62234 0.87697
 H240 H 0.19533 0.64499 0.85531
 H241 H 0.16363 0.59788 0.88093
 H242 H 0.19948 0.70399 0.83451
 H243 H 0.11182 0.76983 0.83582
 H244 H 0.02544 0.63979 0.92013
 H245 H 0.11256 0.57441 0.90591
 H246 H 0.07869 0.72487 0.86227
 H247 H 0.05375 0.68657 0.89195
 C248 C 1.14976 0.13811 0.31143
 C249 C 1.14336 0.17354 0.30578
 C250 C 1.15898 0.19089 0.27848
 C251 C 1.18030 0.17339 0.25523
 C252 C 1.18592 0.13783 0.26099
 C253 C 1.17111 0.12061 0.28854
 C254 C 1.13269 0.12059 0.34098
 C255 C 1.13898 0.08595 0.35009
 C256 C 1.12150 0.07050 0.37706
 C257 C 1.09719 0.08906 0.39548
 C258 C 1.09140 0.12382 0.38731
 C259 C 1.10924 0.13979 0.36060
 C260 C 1.12091 0.19143 0.32706
 C261 C 1.10381 0.17480 0.35351
 H262 H 1.11589 0.21860 0.32273
 H263 H 1.08616 0.18963 0.36875
 H264 H 1.15488 0.21843 0.27622
 H265 H 1.20052 0.12229 0.24347
 H266 H 1.12635 0.04362 0.38299
 H267 H 1.07304 0.13845 0.40190
 H268 H 1.17606 0.09333 0.29090
 H269 H 1.15722 0.07031 0.33672
 C270 C 1.13931 -0.13599 0.68627
 C271 C 1.16348 -0.11865 0.70691
 C272 C 1.17786 -0.13528 0.73554
 C273 C 1.16936 -0.16982 0.74382
 C274 C 1.14686 -0.18732 0.72140
 C275 C 1.13201 -0.17075 0.69341
 C276 C 1.12276 -0.11664 0.65745
 C277 C 1.09552 -0.13026 0.63821
 C278 C 1.08034 -0.11097 0.61217
 C279 C 1.09210 -0.07769 0.60407
 C280 C 1.11933 -0.06392 0.62322
 C281 C 1.13410 -0.08275 0.65022
 C282 C 1.17321 -0.08477 0.69882
 C283 C 1.15938 -0.06750 0.67065
 H284 H 1.19206 -0.07149 0.71432
 H285 H 1.16797 -0.04144 0.66535
 H286 H 1.19448 -0.12025 0.75191
 H287 H 1.14113 -0.21445 0.72447
 H288 H 1.05868 -0.12203 0.59894
 H289 H 1.12896 -0.03838 0.61739
 H290 H 1.11526 -0.18587 0.67736
 H291 H 1.08489 -0.15538 0.64348
 C292 C 0.86837 -0.13372 0.31880
 C293 C 0.88467 -0.14040 0.28727
 C294 C 0.86721 -0.15756 0.26086
 C295 C 0.83316 -0.16711 0.26474
 C296 C 0.81664 -0.15971 0.29552
 C297 C 0.83405 -0.14346 0.32241
 C298 C 0.88816 -0.11558 0.34645
 C299 C 0.87538 -0.10995 0.37961
 C300 C 0.89465 -0.09231 0.40423
 C301 C 0.92706 -0.07947 0.39644
 C302 C 0.94011 -0.08548 0.36355
 C303 C 0.92131 -0.10385 0.33891
 C304 C 0.91796 -0.12912 0.28187
 C305 C 0.93567 -0.11071 0.30691
 H306 H 0.93032 -0.13403 0.25763
 H307 H 0.96117 -0.10200 0.30124
 H308 H 0.87978 -0.16256 0.23673
 H309 H 0.79022 -0.16665 0.29877
 H310 H 0.88415 -0.08903 0.42957
 H311 H 0.96486 -0.07548 0.35677
 H312 H 0.82008 -0.13823 0.34550
 H313 H 0.85074 -0.11928 0.38717
 C314 C 0.86083 0.14109 0.67486
 C315 C 0.83645 0.12101 0.69223
 C316 C 0.81917 0.13477 0.72045
 C317 C 0.82482 0.16910 0.73165
 C318 C 0.84741 0.18953 0.71223
 C319 C 0.86520 0.17577 0.68460
 C320 C 0.88098 0.12438 0.64693
 C321 C 0.90876 0.14067 0.63109
 C322 C 0.92782 0.12334 0.60643
 C323 C 0.91948 0.08946 0.59645
 C324 C 0.89133 0.07339 0.61166
 C325 C 0.87275 0.09013 0.63731
 C326 C 0.82962 0.08711 0.68157
 C327 C 0.84687 0.07227 0.65423
 H328 H 0.81057 0.07179 0.69453
 H329 H 0.84060 0.04597 0.64697
 H330 H 0.80276 0.11754 0.73454
 H331 H 0.85116 0.21668 0.71748
 H332 H 0.94978 0.13628 0.59596
 H333 H 0.88409 0.04747 0.60403
 H334 H 0.88206 0.19285 0.67100
 H335 H 0.91687 0.16634 0.63817
 C336 C 0.32194 1.14810 0.12792
 C337 C 0.32075 1.14612 0.16412
 C338 C 0.29465 1.16270 0.18212
 C339 C 0.26877 1.18039 0.16454
 C340 C 0.27000 1.18200 0.12862
 C341 C 0.29620 1.16634 0.11057
 C342 C 0.34983 1.12956 0.10960
 C343 C 0.35407 1.13118 0.07379
 C344 C 0.37945 1.11215 0.05776
 C345 C 0.40119 1.09095 0.07691
 C346 C 0.39792 1.08997 0.11268
 C347 C 0.37270 1.10933 0.12914
 C348 C 0.34507 1.12682 0.18205
 C349 C 0.37020 1.10846 0.16491
 H350 H 0.34419 1.12522 0.20975
 H351 H 0.38793 1.09328 0.17993
 H352 H 0.29433 1.16144 0.20986
 H353 H 0.25005 1.19466 0.11419
 H354 H 0.38150 1.11329 0.03012
 H355 H 0.41508 1.07411 0.12769
 H356 H 0.29528 1.16811 0.08302
 H357 H 0.33800 1.14680 0.05763
 C358 C 0.68148 1.12239 -0.14813
 C359 C 0.68427 1.15870 -0.14472
 C360 C 0.71104 1.17651 -0.16048
 C361 C 0.73592 1.15863 -0.17895
 C362 C 0.73308 1.12262 -0.18221
 C363 C 0.70623 1.10474 -0.16721
 C364 C 0.65294 1.10426 -0.13028
 C365 C 0.64731 1.06836 -0.13286
 C366 C 0.62132 1.05250 -0.11447
 C367 C 0.60035 1.07193 -0.09299
 C368 C 0.60504 1.10781 -0.09102
 C369 C 0.63092 1.12409 -0.10962
 C370 C 0.66083 1.17695 -0.12493
 C371 C 0.63495 1.15998 -0.10747
 H372 H 0.66294 1.20474 -0.12230
 H373 H 0.61789 1.17521 -0.09193
 H374 H 0.71268 1.20436 -0.15802
 H375 H 0.75220 1.10799 -0.19569
 H376 H 0.61821 1.02476 -0.11633
 H377 H 0.58850 1.12307 -0.07492
 H378 H 0.70581 1.07706 -0.17024
 H379 H 0.66278 1.05200 -0.14871
 C380 C 0.31158 0.85180 -0.12593
 C381 C 0.31063 0.85218 -0.16219
 C382 C 0.28333 0.83683 -0.17991
 C383 C 0.25599 0.82218 -0.16206
 C384 C 0.25689 0.82239 -0.12607
 C385 C 0.28429 0.83672 -0.10825
 C386 C 0.34095 0.86877 -0.10795
 C387 C 0.34527 0.86804 -0.07207
 C388 C 0.37214 0.88568 -0.05643
 C389 C 0.39526 0.90460 -0.07609
 C390 C 0.39192 0.90454 -0.11189
 C391 C 0.36528 0.88644 -0.12794
 C392 C 0.33641 0.86874 -0.18053
 C393 C 0.36283 0.88598 -0.16377
 H394 H 0.33568 0.86915 -0.20829
 H395 H 0.38168 0.89914 -0.17911
 H396 H 0.28327 0.83667 -0.20768
 H397 H 0.23587 0.81225 -0.11144
 H398 H 0.37431 0.88534 -0.02875
 H399 H 0.41015 0.91862 -0.12724
 H400 H 0.28311 0.83652 -0.08066
 H401 H 0.32816 0.85415 -0.05558
 C402 C 0.68574 0.87236 0.14523
 C403 C 0.68762 0.83587 0.14415
 C404 C 0.71467 0.81865 0.16031
 C405 C 0.74069 0.83727 0.17684
 C406 C 0.73891 0.87348 0.17740
 C407 C 0.71183 0.89080 0.16202
 C408 C 0.65658 0.88977 0.12749
 C409 C 0.65152 0.92580 0.12843
 C410 C 0.62473 0.94090 0.11039
 C411 C 0.60235 0.92057 0.09088
 C412 C 0.60655 0.88460 0.09051
 C413 C 0.63320 0.86908 0.10889
 C414 C 0.66293 0.81680 0.12633
 C415 C 0.63657 0.83307 0.10872
 H416 H 0.66439 0.78886 0.12541
 H417 H 0.61849 0.81718 0.09477
 H418 H 0.71553 0.79067 0.15983
 H419 H 0.75897 0.88867 0.18910
 H420 H 0.62201 0.96873 0.11099
 H421 H 0.58896 0.86869 0.07594
 H422 H 0.71224 0.91863 0.16300
 H423 H 0.66798 0.94282 0.14279
   
