data_POSCAR
  _audit_creation_date              2014-09-24
  _audit_creation_method            'ToBaCCo'
  _symmetry_space_group_name_H-M    'P1'
  _symmetry_Int_Tables_number       1
  _symmetry_cell_setting            triclinic
  loop_
  _symmetry_equiv_pos_as_xyz
 x,y,z
_cell_length_a 15.3271
_cell_length_b 38.7446
_cell_length_c 36.5038
_cell_angle_alpha 89.879400
_cell_angle_beta 89.748500
_cell_angle_gamma 87.351700
loop_
  _atom_site_label
  _atom_site_type_symbol
  _atom_site_fract_x
  _atom_site_fract_y
  _atom_site_fract_z
O1 O 0.34932 0.20637 0.25089
 O2 O 0.23880 0.27851 0.20148
 O3 O 0.34373 0.27441 0.25686
 O4 O 0.23874 0.21211 0.19645
 O5 O 0.13135 0.20878 0.23647
 O6 O 0.23092 0.27370 0.29448
 O7 O 0.12572 0.27693 0.23898
 O8 O 0.23962 0.20631 0.29015
 Cu9 Cu 0.30410 0.24286 0.22274
 Cu10 Cu 0.17078 0.24132 0.26883
 C11 C 0.31289 0.19372 0.27887
 C12 C 0.16387 0.29016 0.21168
 C13 C 0.30401 0.28543 0.28554
 C14 C 0.16772 0.19920 0.20657
 O15 O 0.83783 0.27140 0.21122
 O16 O 0.75905 0.21399 0.28367
 O17 O 0.78623 0.20878 0.21336
 O18 O 0.81322 0.27686 0.28188
 O19 O 0.67566 0.29494 0.27345
 O20 O 0.65311 0.23010 0.20151
 O21 O 0.62377 0.23325 0.27344
 O22 O 0.70318 0.29307 0.20390
 Cu23 Cu 0.81256 0.24066 0.24856
 Cu24 Cu 0.65016 0.26441 0.23689
 C25 C 0.78364 0.29224 0.19544
 C26 C 0.67808 0.21424 0.29151
 C27 C 0.71644 0.20876 0.19486
 C28 C 0.74822 0.29706 0.28965
 O29 O 0.74872 0.77967 0.78326
 O30 O 0.66563 0.72907 0.70732
 O31 O 0.69266 0.71666 0.77626
 O32 O 0.72126 0.79032 0.71430
 O33 O 0.85388 0.77010 0.69985
 O34 O 0.83518 0.70616 0.77354
 O35 O 0.79800 0.70497 0.70064
 O36 O 0.88521 0.76533 0.76807
 Cu37 Cu 0.69390 0.75584 0.74665
 Cu38 Cu 0.85545 0.73352 0.73299
 C39 C 0.83027 0.78199 0.78826
 C40 C 0.71797 0.70761 0.69149
 C41 C 0.76128 0.70053 0.78767
 C42 C 0.79144 0.79254 0.69606
 O43 O 0.40554 0.77248 0.73566
 O44 O 0.29214 0.71702 0.80127
 O45 O 0.37556 0.70743 0.74114
 O46 O 0.33241 0.78165 0.80065
 O47 O 0.20700 0.79379 0.77324
 O48 O 0.25278 0.71886 0.71114
 O49 O 0.16815 0.72814 0.77221
 O50 O 0.27950 0.78523 0.70877
 Cu51 Cu 0.36364 0.74387 0.77265
 Cu52 Cu 0.21447 0.75791 0.73853
 C53 C 0.36133 0.78824 0.71081
 C54 C 0.21136 0.71213 0.79705
 C55 C 0.32160 0.69982 0.71659
 C56 C 0.26261 0.80033 0.79787
 C57 C 0.98751 0.02849 0.01012
 C58 C 0.90346 0.01756 0.02062
 C59 C 0.86637 -0.00975 0.00230
 C60 C 0.90829 -0.02543 -0.02782
 C61 C 0.98824 -0.01272 -0.04067
 C62 C 1.02841 0.01315 -0.02087
 H63 H 1.09159 0.02141 -0.02988
 H64 H 0.80357 -0.01853 0.01126
 C65 C 0.53699 0.50890 0.52740
 C66 C 0.44470 0.51366 0.52351
 C67 C 0.40017 0.49207 0.49981
 C68 C 0.44441 0.46454 0.48163
 C69 C 0.53481 0.45808 0.48823
 C70 C 0.58044 0.48089 0.50974
 H71 H 0.65021 0.47633 0.51328
 H72 H 0.33037 0.49630 0.49607
 C73 C -0.07221 0.49589 0.03481
 C74 C 0.02027 0.48977 0.03376
 C75 C 0.07095 0.51099 0.01191
 C76 C 0.03300 0.53912 -0.00720
 C77 C -0.05733 0.54792 -0.00219
 C78 C -0.10932 0.52559 0.01768
 H79 H -0.17904 0.53135 0.01973
 H80 H 0.14071 0.50545 0.00955
 C81 C 0.51005 0.97576 0.52385
 C82 C 0.59346 0.98743 0.53312
 C83 C 0.63178 1.01259 0.51155
 C84 C 0.58680 1.02810 0.48187
 C85 C 0.50223 1.01691 0.47286
 C86 C 0.46615 0.99055 0.49367
 H87 H 0.40185 0.98202 0.48679
 H88 H 0.69556 1.02128 0.51898
 C89 C 1.15567 0.16814 0.14840
 C90 C 1.12153 0.14115 0.12798
 C91 C 1.06688 0.11766 0.14544
 C92 C 1.04063 0.12336 0.18179
 C93 C 1.07029 0.15149 0.20120
 C94 C 1.13080 0.17344 0.18533
 C95 C 1.03868 0.08901 0.12619
 C96 C 1.05852 0.08502 0.08888
 C97 C 1.10571 0.11023 0.07040
 C98 C 1.13995 0.13748 0.09035
 C99 C 1.11652 0.10788 0.03226
 C100 C 1.07829 0.08147 0.01262
 C101 C 1.03285 0.05575 0.03096
 C102 C 1.02874 0.05679 0.06947
 H103 H 1.20005 0.18539 0.13530
 H104 H 0.99698 0.10607 0.19524
 H105 H 1.04918 0.15488 0.22938
 H106 H 0.99892 0.07043 0.13993
 H107 H 1.17894 0.15622 0.07649
 H108 H 1.15166 0.12719 0.01746
 H109 H 1.08323 0.08151 -0.01696
 H110 H 1.00028 0.03605 0.08450
 C111 C 0.71572 0.65140 0.65808
 C112 C 0.68146 0.63050 0.63075
 C113 C 0.61842 0.64478 0.60613
 C114 C 0.58843 0.67929 0.61008
 C115 C 0.62053 0.69952 0.63814
 C116 C 0.68494 0.68588 0.66204
 C117 C 0.58523 0.62420 0.57838
 C118 C 0.61085 0.58907 0.57606
 C119 C 0.67078 0.57439 0.60167
 C120 C 0.70751 0.59538 0.62824
 C121 C 0.69099 0.53874 0.60092
 C122 C 0.64913 0.51763 0.57618
 C123 C 0.58890 0.53192 0.55076
 C124 C 0.57413 0.56802 0.54960
 H125 H 0.76426 0.64063 0.67693
 H126 H 0.53941 0.69053 0.59176
 H127 H 0.59591 0.72606 0.64089
 H128 H 0.53731 0.63524 0.55939
 H129 H 0.75430 0.58419 0.64761
 H130 H 0.73638 0.52699 0.62047
 H131 H 0.66179 0.48994 0.57775
 H132 H 0.52979 0.57948 0.52947
 C133 C -0.22553 0.34869 0.16262
 C134 C -0.20036 0.37035 0.13402
 C135 C -0.13807 0.35792 0.10794
 C136 C -0.09868 0.32474 0.11207
 C137 C -0.12185 0.30381 0.14143
 C138 C -0.18658 0.31537 0.16641
 C139 C -0.11462 0.37915 0.07873
 C140 C -0.14737 0.41352 0.07690
 C141 C -0.20596 0.42654 0.10408
 C142 C -0.23482 0.40447 0.13164
 C143 C -0.23066 0.46187 0.10440
 C144 C -0.19119 0.48452 0.08022
 C145 C -0.13021 0.47187 0.05411
 C146 C -0.11575 0.43593 0.05033
 H147 H -0.27444 0.35788 0.18229
 H148 H -0.04962 0.31508 0.09273
 H149 H -0.09116 0.27818 0.14401
 H150 H -0.06704 0.36958 0.05866
 H151 H -0.28067 0.41431 0.15225
 H152 H -0.27545 0.47231 0.12504
 H153 H -0.20438 0.51205 0.08340
 H154 H -0.07085 0.42589 0.02949
 C155 C 0.35667 0.83821 0.66768
 C156 C 0.39446 0.85851 0.64060
 C157 C 0.48080 0.85038 0.62860
 C158 C 0.52882 0.82274 0.64497
 C159 C 0.49107 0.80302 0.67253
 C160 C 0.40434 0.81029 0.68370
 C161 C 0.51750 0.87008 0.60060
 C162 C 0.47001 0.89858 0.58554
 C163 C 0.38502 0.90741 0.59867
 C164 C 0.34716 0.88693 0.62555
 C165 C 0.33980 0.93702 0.58519
 C166 C 0.37978 0.95856 0.56010
 C167 C 0.46453 0.95031 0.54704
 C168 C 0.50725 0.91918 0.55848
 H169 H 0.29003 0.84425 0.67647
 H170 H 0.59533 0.81628 0.63636
 H171 H 0.52878 0.78149 0.68434
 H172 H 0.58350 0.86375 0.59115
 H173 H 0.28147 0.89348 0.63524
 H174 H 0.27471 0.94420 0.59506
 H175 H 0.34539 0.98230 0.55170
 H176 H 0.57090 0.91172 0.54740
 C177 C -0.17820 0.67768 -0.15588
 C178 C -0.18238 0.65580 -0.12545
 C179 C -0.24607 0.63060 -0.12406
 C180 C -0.31188 0.63100 -0.15073
 C181 C -0.31259 0.65547 -0.17907
 C182 C -0.24315 0.67768 -0.18291
 C183 C -0.24188 0.60538 -0.09631
 C184 C -0.17816 0.60666 -0.06883
 C185 C -0.12366 0.63513 -0.06744
 C186 C -0.12422 0.65893 -0.09632
 C187 C -0.06608 0.63830 -0.03813
 C188 C -0.05452 0.61140 -0.01299
 C189 C -0.09679 0.58033 -0.01808
 C190 C -0.16396 0.57911 -0.04410
 H191 H -0.12669 0.69593 -0.15762
 H192 H -0.36288 0.61257 -0.14955
 H193 H -0.36425 0.65552 -0.19924
 H194 H -0.28673 0.58454 -0.09652
 H195 H -0.07819 0.67938 -0.09652
 H196 H -0.02608 0.66054 -0.03595
 H197 H -0.00470 0.61316 0.00780
 H198 H -0.19869 0.55559 -0.04746
 C199 C 0.31386 1.14994 0.32920
 C200 C 0.35180 1.12140 0.34777
 C201 C 0.43165 1.10591 0.33518
 C202 C 0.47190 1.11932 0.30397
 C203 C 0.43380 1.14800 0.28569
 C204 C 0.35462 1.16367 0.29823
 C205 C 0.47095 1.07800 0.35462
 C206 C 0.43294 1.06643 0.38726
 C207 C 0.35282 1.08202 0.39958
 C208 C 0.31191 1.10881 0.37934
 C209 C 0.31708 1.07191 0.43305
 C210 C 0.36386 1.04885 0.45573
 C211 C 0.44588 1.03465 0.44484
 C212 C 0.47691 1.04147 0.40931
 H213 H 0.25275 1.16167 0.33919
 H214 H 0.53344 1.10798 0.29402
 H215 H 0.46658 1.15799 0.26185
 H216 H 0.53305 1.06651 0.34540
 H217 H 0.25089 1.12089 0.38907
 H218 H 0.25555 1.08347 0.44275
 H219 H 0.33829 1.04374 0.48281
 H220 H 0.53948 1.03011 0.40052
 C221 C 1.17664 -0.14795 -0.18149
 C222 C 1.16243 -0.12103 -0.15593
 C223 C 1.21816 -0.11890 -0.12530
 C224 C 1.28933 -0.14250 -0.12161
 C225 C 1.30453 -0.16848 -0.14749
 C226 C 1.24772 -0.17211 -0.17742
 C227 C 1.20115 -0.09365 -0.09842
 C228 C 1.12922 -0.07025 -0.10173
 C229 C 1.07619 -0.07102 -0.13334
 C230 C 1.09293 -0.09646 -0.16019
 C231 C 1.00477 -0.04731 -0.13669
 C232 C 0.98169 -0.02520 -0.10768
 C233 C 1.02930 -0.02663 -0.07483
 C234 C 1.10619 -0.04762 -0.07286
 H235 H 1.13260 -0.14992 -0.20448
 H236 H 1.33311 -0.14104 -0.09848
 H237 H 1.36012 -0.18633 -0.14334
 H238 H 1.24246 -0.09286 -0.07440
 H239 H 1.05053 -0.09770 -0.18381
 H240 H 0.96390 -0.04720 -0.16083
 H241 H 0.92232 -0.00903 -0.10962
 H242 H 1.14288 -0.04882 -0.04752
 C243 C 0.70698 0.31812 0.35106
 C244 C 0.69970 0.34463 0.37699
 C245 C 0.73992 0.37618 0.37024
 C246 C 0.79101 0.37981 0.33854
 C247 C 0.79824 0.35306 0.31287
 C248 C 0.75444 0.32259 0.31873
 C249 C 0.72505 0.40399 0.39437
 C250 C 0.66943 0.40069 0.42470
 C251 C 0.63334 0.36845 0.43239
 C252 C 0.64933 0.34057 0.40864
 C253 C 0.57763 0.36514 0.46258
 C254 C 0.55174 0.39415 0.48308
 C255 C 0.58132 0.42676 0.47367
 C256 C 0.64423 0.42963 0.44594
 H257 H 0.67298 0.29447 0.35528
 H258 H 0.82272 0.40370 0.33301
 H259 H 0.83456 0.35671 0.28774
 H260 H 0.75326 0.42859 0.38859
 H261 H 0.61919 0.31624 0.41387
 H262 H 0.55020 0.34057 0.46905
 H263 H 0.50367 0.39166 0.50465
 H264 H 0.66690 0.45488 0.43875
 C265 C 0.80260 -0.17115 -0.16606
 C266 C 0.82952 -0.15046 -0.13724
 C267 C 0.91510 -0.15532 -0.12324
 C268 C 0.97283 -0.18032 -0.13892
 C269 C 0.94595 -0.20038 -0.16821
 C270 C 0.86048 -0.19612 -0.18180
 C271 C 0.94203 -0.13456 -0.09441
 C272 C 0.88609 -0.10783 -0.08089
 C273 C 0.80132 -0.10244 -0.09556
 C274 C 0.77269 -0.12444 -0.12292
 C275 C 0.74812 -0.07413 -0.08382
 C276 C 0.78121 -0.04986 -0.05997
 C277 C 0.86656 -0.05437 -0.04646
 C278 C 0.91593 -0.08481 -0.05481
 H279 H 0.73682 -0.16742 -0.17662
 H280 H 1.03891 -0.18416 -0.12875
 H281 H 0.99161 -0.21955 -0.17988
 H282 H 1.00781 -0.13812 -0.08373
 H283 H 0.70755 -0.12041 -0.13411
 H284 H 0.68297 -0.06966 -0.09476
 H285 H 0.74187 -0.02670 -0.05358
 H286 H 0.98078 -0.08891 -0.04345
 C287 C 0.29980 0.32404 0.34089
 C288 C 0.33195 0.35145 0.36123
 C289 C 0.40691 0.36799 0.34877
 C290 C 0.44923 0.35646 0.31665
 C291 C 0.41668 0.32925 0.29656
 C292 C 0.34145 0.31286 0.30822
 C293 C 0.43828 0.39580 0.36855
 C294 C 0.39677 0.40686 0.40109
 C295 C 0.32302 0.38989 0.41407
 C296 C 0.29034 0.36258 0.39380
 C297 C 0.28446 0.40010 0.44754
 C298 C 0.32132 0.42564 0.46883
 C299 C 0.39591 0.44199 0.45653
 C300 C 0.43012 0.43375 0.42163
 H301 H 0.24181 0.31167 0.35034
 H302 H 0.50706 0.36871 0.30683
 H303 H 0.44958 0.32155 0.27146
 H304 H 0.49587 0.40844 0.35898
 H305 H 0.23338 0.34970 0.40361
 H306 H 0.22789 0.38739 0.45793
 H307 H 0.29380 0.43159 0.49557
 H308 H 0.48619 0.44694 0.41149
 C309 C 0.20983 0.67290 -0.14829
 C310 C 0.17283 0.64625 -0.12824
 C311 C 0.09429 0.63238 -0.14040
 C312 C 0.05233 0.64629 -0.17148
 C313 C 0.08875 0.67322 -0.19088
 C314 C 0.16852 0.68635 -0.17992
 C315 C 0.05849 0.60507 -0.12113
 C316 C 0.09773 0.59262 -0.08879
 C317 C 0.17444 0.60728 -0.07580
 C318 C 0.21279 0.63342 -0.09612
 C319 C 0.20962 0.59636 -0.04205
 C320 C 0.16595 0.57284 -0.02030
 C321 C 0.08825 0.55899 -0.03259
 C322 C 0.05815 0.56721 -0.06801
 H323 H 0.27098 0.68304 -0.13938
 H324 H -0.00843 0.63623 -0.18091
 H325 H 0.05566 0.68305 -0.21516
 H326 H -0.00164 0.59438 -0.13055
 H327 H 0.27219 0.64444 -0.08640
 H328 H 0.26837 0.60731 -0.03165
 H329 H 0.19065 0.56669 0.00680
 H330 H -0.00055 0.55592 -0.07804
 C331 C 0.70520 1.16889 0.33732
 C332 C 0.67685 1.14928 0.36710
 C333 C 0.59260 1.15612 0.38204
 C334 C 0.53682 1.18145 0.36594
 C335 C 0.56400 1.19978 0.33524
 C336 C 0.64898 1.19417 0.32087
 C337 C 0.56455 1.13682 0.41208
 C338 C 0.61721 1.10910 0.42563
 C339 C 0.70000 1.10137 0.40966
 C340 C 0.73058 1.12227 0.38141
 C341 C 0.74904 1.07185 0.42103
 C342 C 0.71345 1.04878 0.44581
 C343 C 0.62995 1.05563 0.46086
 C344 C 0.58552 1.08735 0.45293
 H345 H 0.77044 1.16375 0.32642
 H346 H 0.47149 1.18664 0.37666
 H347 H 0.51888 1.21901 0.32340
 H348 H 0.49985 1.14208 0.42352
 H349 H 0.79447 1.11649 0.36941
 H350 H 0.81265 1.06554 0.40912
 H351 H 0.74954 1.02480 0.45198
 H352 H 0.52232 1.09338 0.46536
 C353 C 0.15524 0.32941 0.15755
 C354 C 0.12566 0.36018 0.14057
 C355 C 0.06340 0.38234 0.15850
 C356 C 0.02837 0.37233 0.19227
 C357 C 0.05782 0.34140 0.20891
 C358 C 0.12327 0.32021 0.19217
 C359 C 0.03780 0.41415 0.14246
 C360 C 0.07133 0.42337 0.10812
 C361 C 0.13012 0.40031 0.08944
 C362 C 0.15825 0.36919 0.10609
 C363 C 0.15824 0.40836 0.05399
 C364 C 0.12485 0.43811 0.03640
 C365 C 0.06543 0.46101 0.05448
 C366 C 0.04352 0.45451 0.09127
 H367 H 0.20467 0.31295 0.14408
 H368 H -0.02056 0.38870 0.20611
 H369 H 0.03183 0.33474 0.23551
 H370 H -0.00940 0.43135 0.15631
 H371 H 0.20464 0.35180 0.09203
 H372 H 0.20303 0.39089 0.03925
 H373 H 0.14287 0.44251 0.00811
 H374 H -0.00084 0.47239 0.10571
 C375 C 0.74908 0.85231 0.67607
 C376 C 0.74711 0.87866 0.64977
 C377 C 0.79532 0.87414 0.61689
 C378 C 0.84862 0.84406 0.61191
 C379 C 0.85059 0.81793 0.63845
 C380 C 0.79880 0.82147 0.67015
 C381 C 0.78624 0.89897 0.58895
 C382 C 0.72781 0.92767 0.59323
 C383 C 0.68332 0.93300 0.62697
 C384 C 0.69429 0.90870 0.65520
 C385 C 0.62346 0.96119 0.63100
 C386 C 0.60077 0.98171 0.60079
 C387 C 0.63868 0.97457 0.56642
 C388 C 0.70690 0.94931 0.56332
 H389 H 0.70979 0.85537 0.70074
 H390 H 0.88659 0.84026 0.58702
 H391 H 0.88965 0.79438 0.63350
 H392 H 0.82066 0.89492 0.56318
 H393 H 0.65776 0.91218 0.68055
 H394 H 0.58945 0.96579 0.65674
 H395 H 0.54826 1.00125 0.60343
 H396 H 0.73569 0.94380 0.53666
 C397 C 0.73149 0.14998 0.16772
 C398 C 0.74427 0.12890 0.13679
 C399 C 0.74097 0.14392 0.10140
 C400 C 0.71764 0.17913 0.09743
 C401 C 0.70279 0.19972 0.12833
 C402 C 0.71266 0.18550 0.16348
 C403 C 0.76450 0.12389 0.07074
 C404 C 0.78985 0.08893 0.07495
 C405 C 0.78557 0.07316 0.10988
 C406 C 0.76359 0.09335 0.14068
 C407 C 0.80674 0.03771 0.11352
 C408 C 0.83807 0.01867 0.08337
 C409 C 0.85132 0.03521 0.04970
 C410 C 0.82331 0.06986 0.04510
 H411 H 0.73899 0.13912 0.19499
 H412 H 0.71382 0.19095 0.07052
 H413 H 0.68903 0.22722 0.12483
 H414 H 0.76584 0.13576 0.04380
 H415 H 0.76412 0.08163 0.16770
 H416 H 0.80226 0.02505 0.13991
 H417 H 0.85866 -0.00823 0.08701
 H418 H 0.83206 0.08232 0.01879
 C419 C 0.30799 0.66319 0.65995
 C420 C 0.32887 0.63237 0.64072
 C421 C 0.37902 0.60550 0.65812
 C422 C 0.40857 0.60988 0.69389
 C423 C 0.38959 0.64069 0.71234
 C424 C 0.33926 0.66760 0.69574
 C425 C 0.40079 0.57487 0.63933
 C426 C 0.37661 0.57113 0.60273
 C427 C 0.32790 0.59800 0.58482
 C428 C 0.30261 0.62822 0.60419
 C429 C 0.30849 0.59463 0.54746
 C430 C 0.34217 0.56605 0.52764
 C431 C 0.39375 0.54010 0.54515
 C432 C 0.40557 0.54174 0.58317
 H433 H 0.26976 0.68394 0.64687
 H434 H 0.44738 0.58961 0.70748
 H435 H 0.41384 0.64335 0.73997
 H436 H 0.43962 0.55446 0.65277
 H437 H 0.26527 0.64888 0.59051
 H438 H 0.27110 0.61487 0.53320
 H439 H 0.33185 0.56508 0.49834
 H440 H 0.44423 0.52145 0.59685
   
