data_POSCAR
  _audit_creation_date              2014-09-24
  _audit_creation_method            'ToBaCCo'
  _symmetry_space_group_name_H-M    'P1'
  _symmetry_Int_Tables_number       1
  _symmetry_cell_setting            triclinic
  loop_
  _symmetry_equiv_pos_as_xyz
 x,y,z
_cell_length_a 38.0594
_cell_length_b 40.3631
_cell_length_c 39.2977
_cell_angle_alpha 88.439700
_cell_angle_beta 92.963400
_cell_angle_gamma 90.010900
loop_
  _atom_site_label
  _atom_site_type_symbol
  _atom_site_fract_x
  _atom_site_fract_y
  _atom_site_fract_z
C1 C 0.18661 1.23396 0.19533
 C2 C 0.16868 1.22323 0.22422
 C3 C 0.17859 1.19403 0.24269
 C4 C 0.20698 1.17536 0.23168
 C5 C 0.22538 1.18571 0.20333
 C6 C 0.21509 1.21494 0.18536
 H7 H 0.14658 1.23704 0.23259
 H8 H 0.21481 1.15222 0.24425
 H9 H 0.22846 1.22234 0.16270
 C10 C 0.83923 0.75852 0.17930
 C11 C 0.85550 0.77269 0.20836
 C12 C 0.84253 0.80182 0.22180
 C13 C 0.81276 0.81727 0.20573
 C14 C 0.79561 0.80334 0.17697
 C15 C 0.80898 0.77410 0.16400
 H16 H 0.87883 0.76118 0.22055
 H17 H 0.80399 0.84074 0.21471
 H18 H 0.79544 0.76408 0.14178
 C19 C 0.78955 1.23480 -0.20372
 C20 C 0.76231 1.21574 -0.19042
 C21 C 0.74826 1.18846 -0.20783
 C22 C 0.76256 1.17946 -0.23841
 C23 C 0.79055 1.19754 -0.25208
 C24 C 0.80315 1.22569 -0.23487
 H25 H 0.75261 1.22186 -0.16595
 H26 H 0.75144 1.15814 -0.25094
 H27 H 0.82496 1.23917 -0.24508
 C28 C 0.20764 0.75745 -0.18233
 C29 C 0.23763 0.77450 -0.17021
 C30 C 0.24835 0.80391 -0.18648
 C31 C 0.22905 0.81590 -0.21559
 C32 C 0.19830 0.79963 -0.22797
 C33 C 0.18809 0.77021 -0.21112
 H34 H 0.25268 0.76443 -0.14820
 H35 H 0.23824 0.83833 -0.22772
 H36 H 0.16411 0.75795 -0.21982
 C37 C 0.55093 1.02509 -0.03136
 H38 H 0.55745 0.99915 -0.02816
 C39 C 0.56982 1.04499 -0.05356
 H40 H 0.59109 1.03389 -0.06644
 C41 C 0.51612 1.07087 -0.01739
 H42 H 0.49493 1.08088 -0.00357
 C43 C 0.53436 1.09170 -0.03929
 H44 H 0.52729 1.11768 -0.04174
 N45 N 0.52501 1.03830 -0.01337
 C46 C 0.43815 1.03043 0.04593
 H47 H 0.42678 1.01047 0.03134
 C48 C 0.41637 1.04996 0.06469
 H49 H 0.38846 1.04476 0.06393
 C50 C 0.48779 1.06256 0.06291
 H51 H 0.51561 1.06763 0.06164
 C52 C 0.46685 1.08297 0.08172
 H53 H 0.47874 1.10357 0.09514
 Zn54 Zn 0.50181 1.01058 0.01834
 N55 N 0.47322 1.03685 0.04546
 C56 C 0.54427 0.99432 0.07887
 N57 N 0.53586 0.98644 0.04603
 C58 C 0.55121 0.96023 0.03167
 C59 C 0.57691 0.94143 0.04993
 C60 C 0.56993 0.97621 0.09813
 C61 C 0.46669 0.98298 -0.03963
 C62 C 0.44508 0.96027 -0.05692
 C63 C 0.43806 0.93066 -0.00342
 C64 C 0.45980 0.95390 0.01275
 N65 N 0.47334 0.97955 -0.00541
 H66 H 0.53134 1.01472 0.09025
 H67 H 0.54327 0.95366 0.00592
 H68 H 0.58821 0.92102 0.03710
 H69 H 0.57644 0.98325 0.12412
 H70 H 0.47779 1.00361 -0.05352
 H71 H 0.44027 0.96426 -0.08401
 H72 H 0.42733 0.91062 0.01174
 H73 H 0.46567 0.95171 0.03995
 C74 C 0.43074 1.07658 0.08299
 C75 C 0.56169 1.07889 -0.05761
 C76 C 0.43013 0.93360 -0.03872
 C77 C 0.58703 0.94948 0.08374
 C78 C -0.01560 0.53885 1.02957
 H79 H 0.01116 0.53323 1.03831
 C80 C -0.03475 0.56205 1.04672
 H81 H -0.02167 0.57469 1.06767
 C82 C -0.06453 0.52887 0.99158
 H83 H -0.07622 0.51583 0.97026
 C84 C -0.08467 0.55191 1.00801
 H85 H -0.11165 0.55646 0.99894
 N86 N -0.03044 0.52312 1.00224
 C87 C 0.05702 0.45911 1.01204
 H88 H 0.07122 0.46904 0.99094
 C89 C 0.07432 0.43861 1.03679
 H90 H 0.10201 0.43361 1.03465
 C91 C 0.00374 0.45422 1.04045
 H92 H -0.02385 0.46031 1.04150
 C93 C 0.01999 0.43375 1.06574
 H94 H 0.00471 0.42413 1.08631
 Zn95 Zn -0.00193 0.49257 0.98006
 N96 N 0.02228 0.46618 1.01415
 C97 C 0.03286 0.51214 0.91999
 N98 N 0.03104 0.51652 0.95406
 C99 C 0.05196 0.53900 0.97036
 C100 C 0.07449 0.55934 0.95223
 C101 C 0.05481 0.53213 0.90075
 C102 C -0.03203 0.43184 0.95977
 C103 C -0.05259 0.41055 0.93971
 C104 C -0.06865 0.45700 0.90210
 C105 C -0.04834 0.47754 0.92337
 N106 N -0.03039 0.46473 0.95156
 H107 H 0.01704 0.49345 0.90746
 H108 H 0.05088 0.54160 0.99753
 H109 H 0.08970 0.57738 0.96640
 H110 H 0.05507 0.52869 0.87351
 H111 H -0.01721 0.42187 0.98187
 H112 H -0.05239 0.38454 0.94694
 H113 H -0.08244 0.46776 0.87964
 H114 H -0.04658 0.50375 0.91718
 C115 C 0.05555 0.42525 1.06386
 C116 C -0.06987 0.56886 1.03595
 C117 C -0.07147 0.42303 0.91031
 C118 C 0.07566 0.55661 0.91660
 C119 C 1.03703 -0.00398 0.56508
 H120 H 1.03486 0.02276 0.56479
 C121 C 1.05914 -0.02014 0.58956
 H122 H 1.07401 -0.00567 0.60811
 C123 C 1.02040 -0.05519 0.54097
 H124 H 1.00518 -0.06872 0.52201
 C125 C 1.04211 -0.07245 0.56523
 H126 H 1.04378 -0.09914 0.56406
 N127 N 1.01873 -0.02151 0.54105
 C128 C 1.00492 0.05172 0.45781
 H129 H 0.97654 0.05268 0.45439
 C130 C 1.02570 0.07033 0.43605
 H131 H 1.01278 0.08532 0.41592
 C132 C 1.05574 0.02896 0.48695
 H133 H 1.06747 0.01205 0.50603
 C134 C 1.07745 0.04706 0.46581
 H135 H 1.10573 0.04421 0.46928
 Zn136 Zn 0.99090 0.00377 0.50856
 N137 N 1.02016 0.03156 0.48266
 C138 C 0.95966 0.06238 0.53313
 N139 N 0.95930 0.02869 0.53327
 C140 C 0.93725 0.01104 0.55289
 C141 C 0.91384 0.02719 0.57295
 C142 C 0.93693 0.07967 0.55321
 C143 C 0.98505 -0.04331 0.45761
 C144 C 0.96831 -0.06278 0.43279
 C145 C 0.91248 -0.04126 0.44883
 C146 C 0.93033 -0.02230 0.47335
 N147 N 0.96598 -0.02378 0.47742
 H148 H 0.97790 0.07593 0.51782
 H149 H 0.93794 -0.01576 0.55294
 H150 H 0.89650 0.01242 0.58827
 H151 H 0.93794 0.10640 0.55223
 H152 H 1.01346 -0.04345 0.46088
 H153 H 0.98469 -0.07766 0.41762
 H154 H 0.88406 -0.03943 0.44598
 H155 H 0.91563 -0.00588 0.48856
 C156 C 1.06259 0.06795 0.43985
 C157 C 1.06197 -0.05477 0.58984
 C158 C 0.93131 -0.06186 0.42794
 C159 C 0.91355 0.06198 0.57371
 C160 C 0.17664 0.26222 1.17517
 C161 C 0.14879 0.28360 1.18122
 C162 C 0.13783 0.31060 1.15700
 N163 N 0.10985 0.32984 1.16345
 N164 N 0.09866 0.35353 1.14122
 C165 C 0.11505 0.35887 1.11167
 N166 N 0.14319 0.33978 1.10532
 N167 N 0.15437 0.31608 1.12755
 C168 C 0.10212 0.38398 1.08617
 C169 C 0.07171 0.40245 1.09041
 H170 H 0.13360 0.28063 1.20352
 H171 H 0.11590 0.38638 1.06286
 H172 H 0.19129 0.26755 1.15272
 H173 H 0.05758 0.39828 1.11338
 C174 C -0.14557 0.72982 1.16651
 C175 C -0.15741 0.71368 1.13696
 C176 C -0.13846 0.68526 1.12393
 N177 N -0.14939 0.67212 1.09377
 N178 N -0.13194 0.64705 1.08109
 C179 C -0.10293 0.63414 1.09815
 N180 N -0.09213 0.64713 1.12840
 N181 N -0.10955 0.67223 1.14106
 C182 C -0.08259 0.60721 1.08405
 C183 C -0.09133 0.59407 1.05220
 H184 H -0.18028 0.72215 1.12183
 H185 H -0.06005 0.59799 1.09928
 H186 H -0.12226 0.71986 1.18017
 H187 H -0.11516 0.60260 1.03840
 C188 C -0.19653 0.26092 0.81582
 C189 C -0.17218 0.28439 0.80493
 C190 C -0.15532 0.30766 0.82891
 N191 N -0.13849 0.33497 0.81712
 N192 N -0.12208 0.35546 0.83873
 C193 C -0.12167 0.34917 0.87290
 N194 N -0.13830 0.32177 0.88463
 N195 N -0.15493 0.30147 0.86307
 C196 C -0.10224 0.37041 0.89713
 C197 C -0.09211 0.40277 0.88859
 H198 H -0.16547 0.28647 0.77858
 H199 H -0.09743 0.36035 0.92271
 H200 H -0.20543 0.26321 0.84144
 H201 H -0.10183 0.41319 0.86417
 C202 C 0.19636 0.72775 0.83724
 C203 C 0.17351 0.70363 0.82414
 C204 C 0.16052 0.67642 0.84582
 N205 N 0.13864 0.65317 0.83218
 N206 N 0.12553 0.62926 0.85186
 C207 C 0.13383 0.62774 0.88592
 N208 N 0.15583 0.65089 0.89949
 N209 N 0.16895 0.67475 0.87983
 C210 C 0.11805 0.60283 0.90851
 C211 C 0.09553 0.57798 0.89613
 H212 H 0.16455 0.70465 0.79756
 H213 H 0.12409 0.60518 0.93547
 H214 H 0.20678 0.72471 0.86333
 H215 H 0.09258 0.57554 0.86872
 C216 C 1.15885 0.18410 0.27064
 C217 C 1.16712 0.15727 0.29295
 C218 C 1.14373 0.14623 0.31970
 N219 N 1.15405 0.12105 0.34151
 N220 N 1.13285 0.10983 0.36513
 C221 C 1.10045 0.12331 0.36783
 N222 N 1.09012 0.14856 0.34606
 N223 N 1.11137 0.15984 0.32244
 C224 C 1.07627 0.11016 0.39297
 C225 C 1.08642 0.08472 0.41621
 H226 H 1.19131 0.14357 0.29149
 H227 H 1.05011 0.12062 0.39271
 H228 H 1.13554 0.19835 0.27539
 H229 H 1.11348 0.07627 0.41702
 C230 C 1.17675 -0.18799 0.74420
 C231 C 1.18186 -0.15776 0.72679
 C232 C 1.15692 -0.14472 0.69983
 N233 N 1.16160 -0.11369 0.68678
 N234 N 1.13899 -0.10089 0.66300
 C235 C 1.11081 -0.11866 0.65127
 N236 N 1.10625 -0.14986 0.66410
 N237 N 1.12885 -0.16265 0.68800
 C238 C 1.08540 -0.10440 0.62535
 C239 C 1.08682 -0.07100 0.61529
 H240 H 1.20370 -0.14181 0.73352
 H241 H 1.06467 -0.12019 0.61519
 H242 H 1.15379 -0.20235 0.73638
 H243 H 1.10648 -0.05539 0.62773
 C244 C 0.86204 -0.18367 0.25142
 C245 C 0.84726 -0.16152 0.27333
 C246 C 0.86805 -0.14656 0.30157
 N247 N 0.85237 -0.12574 0.32270
 N248 N 0.87100 -0.11149 0.34793
 C249 C 0.90603 -0.11751 0.35297
 N250 N 0.92168 -0.13837 0.33187
 N251 N 0.90306 -0.15264 0.30665
 C252 C 0.92728 -0.10134 0.38015
 C253 C 0.91240 -0.07980 0.40276
 H254 H 0.81969 -0.15503 0.27013
 H255 H 0.95511 -0.10666 0.38158
 H256 H 0.88908 -0.19146 0.25665
 H257 H 0.88411 -0.07642 0.40045
 C258 C 0.80754 0.18789 0.71863
 C259 C 0.80060 0.15869 0.70103
 C260 C 0.82269 0.14744 0.67392
 N261 N 0.81812 0.11647 0.66192
 N262 N 0.83890 0.10501 0.63868
 C263 C 0.86503 0.12412 0.62643
 N264 N 0.86930 0.15531 0.63805
 N265 N 0.84858 0.16674 0.66145
 C266 C 0.88910 0.11108 0.60180
 C267 C 0.89021 0.07720 0.59513
 H268 H 0.78015 0.14183 0.70829
 H269 H 0.90727 0.12835 0.59076
 H270 H 0.82888 0.20330 0.71009
 H271 H 0.87245 0.06116 0.60863
 C272 C 0.25350 1.16407 0.19164
 C273 C 0.28128 1.17560 0.17275
 C274 C 0.30698 1.15283 0.15917
 N275 N 0.33543 1.16504 0.14360
 N276 N 0.35821 1.14466 0.13018
 C277 C 0.35327 1.11133 0.13175
 N278 N 0.32483 1.09915 0.14731
 N279 N 0.30215 1.11950 0.16083
 C280 C 0.37709 1.08848 0.11569
 C281 C 0.40845 1.09889 0.10196
 H282 H 0.28448 1.20190 0.16777
 H283 H 0.36955 1.06265 0.11474
 H284 H 0.25258 1.13798 0.19880
 H285 H 0.41737 1.12407 0.10580
 C286 C 0.72029 1.16742 -0.19367
 C287 C 0.69711 1.17830 -0.16992
 C288 C 0.67185 1.15585 -0.15403
 N289 N 0.65035 1.16748 -0.13058
 N290 N 0.62831 1.14720 -0.11497
 C291 C 0.62695 1.11450 -0.12227
 N292 N 0.64831 1.10291 -0.14585
 N293 N 0.67035 1.12319 -0.16145
 C294 C 0.60398 1.09142 -0.10417
 C295 C 0.58212 1.10183 -0.07906
 H296 H 0.69747 1.20386 -0.16233
 H297 H 0.60497 1.06558 -0.11063
 H298 H 0.71769 1.14234 -0.20261
 H299 H 0.57995 1.12813 -0.07470
 C300 C 0.27929 0.82311 -0.17366
 C301 C 0.29223 0.82175 -0.13975
 C302 C 0.32036 0.84388 -0.12693
 N303 N 0.33056 0.84281 -0.09333
 N304 N 0.35509 0.86345 -0.08104
 C305 C 0.37037 0.88597 -0.10191
 N306 N 0.36031 0.88692 -0.13556
 N307 N 0.33577 0.86627 -0.14785
 C308 C 0.39661 0.90979 -0.08854
 C309 C 0.40720 0.91022 -0.05390
 H310 H 0.28026 0.80549 -0.12135
 H311 H 0.40678 0.92741 -0.10668
 H312 H 0.29059 0.84095 -0.19106
 H313 H 0.39646 0.89126 -0.03734
 C314 C 0.76483 0.81932 0.15847
 C315 C 0.74424 0.84410 0.17162
 C316 C 0.71489 0.85975 0.15121
 N317 N 0.69595 0.88438 0.16439
 N318 N 0.66973 0.89907 0.14589
 C319 C 0.66148 0.88962 0.11353
 N320 N 0.68034 0.86493 0.10044
 N321 N 0.70654 0.85029 0.11890
 C322 C 0.63309 0.90575 0.09228
 C323 C 0.61342 0.93225 0.10357
 H324 H 0.74930 0.85235 0.19735
 H325 H 0.62866 0.89638 0.06698
 H326 H 0.75776 0.81070 0.13315
 H327 H 0.61933 0.94040 0.12930
   
