data_POSCAR
  _audit_creation_date              2014-09-24
  _audit_creation_method            'ToBaCCo'
  _symmetry_space_group_name_H-M    'P1'
  _symmetry_Int_Tables_number       1
  _symmetry_cell_setting            triclinic
  loop_
  _symmetry_equiv_pos_as_xyz
 x,y,z
_cell_length_a 58.2036
_cell_length_b 34.1842
_cell_length_c 20.1353
_cell_angle_alpha 89.975300
_cell_angle_beta 89.852800
_cell_angle_gamma 90.170200
loop_
  _atom_site_label
  _atom_site_type_symbol
  _atom_site_fract_x
  _atom_site_fract_y
  _atom_site_fract_z
C1 C 0.74870 0.24597 0.47008
 C2 C 0.74877 0.24668 0.53781
 C3 C 0.72933 0.26319 0.57663
 C4 C 0.76839 0.23100 0.57648
 C5 C 0.76702 0.22576 0.43175
 C6 C 0.73046 0.26567 0.43106
 C7 C 0.73355 0.29214 0.62455
 C8 C 0.71542 0.30835 0.66076
 C9 C 0.69283 0.29558 0.64983
 C10 C 0.68855 0.26615 0.60291
 C11 C 0.70671 0.24990 0.56676
 C12 C 0.79086 0.24471 0.56539
 C13 C 0.80927 0.22871 0.60047
 C14 C 0.80536 0.19919 0.64742
 C15 C 0.78294 0.18612 0.65986
 C16 C 0.76453 0.20206 0.62477
 C17 C 0.77209 0.18616 0.44335
 C18 C 0.79002 0.16798 0.40895
 C19 C 0.80288 0.18905 0.36213
 C20 C 0.79751 0.22821 0.34911
 C21 C 0.77961 0.24643 0.38353
 C22 C 0.71802 0.24445 0.38342
 C23 C 0.70043 0.26242 0.34758
 C24 C 0.69524 0.30186 0.35861
 C25 C 0.70791 0.32341 0.40502
 C26 C 0.72552 0.30549 0.44084
 H27 H 0.75088 0.30259 0.63317
 H28 H 0.71907 0.33102 0.69694
 H29 H 0.67120 0.25578 0.59401
 H30 H 0.70315 0.22705 0.53098
 H31 H 0.79413 0.26753 0.52922
 H32 H 0.82655 0.23914 0.59067
 H33 H 0.74730 0.19131 0.63428
 H34 H 0.76230 0.16951 0.47947
 H35 H 0.79395 0.13762 0.41920
 H36 H 0.80732 0.24477 0.31289
 H37 H 0.77589 0.27690 0.37362
 H38 H 0.72167 0.21381 0.37490
 H39 H 0.69077 0.24551 0.31167
 H40 H 0.70410 0.35399 0.41370
 H41 H 0.73522 0.32256 0.47642
 H42 H 0.77973 0.16334 0.69617
 C43 C 0.24938 0.74627 0.46527
 C44 C 0.24938 0.74573 0.53301
 C45 C 0.23126 0.76573 0.57228
 C46 C 0.26768 0.72543 0.57107
 C47 C 0.26890 0.73033 0.42625
 C48 C 0.22995 0.76289 0.42678
 C49 C 0.22647 0.80558 0.56224
 C50 C 0.20891 0.82377 0.59814
 C51 C 0.19616 0.80245 0.64488
 C52 C 0.20122 0.76300 0.65622
 C53 C 0.21875 0.74477 0.62031
 C54 C 0.28039 0.74609 0.61882
 C55 C 0.29829 0.72779 0.65289
 C56 C 0.30354 0.68857 0.63999
 C57 C 0.29055 0.66751 0.59365
 C58 C 0.27262 0.68577 0.55960
 C59 C 0.26488 0.70137 0.37820
 C60 C 0.28320 0.68526 0.34265
 C61 C 0.30567 0.69817 0.35440
 C62 C 0.30974 0.72768 0.40115
 C63 C 0.29143 0.74386 0.43668
 C64 C 0.20730 0.74984 0.43724
 C65 C 0.18917 0.76616 0.40125
 C66 C 0.19354 0.79535 0.35400
 C67 C 0.21611 0.80792 0.34250
 C68 C 0.23423 0.79168 0.37848
 H69 H 0.23622 0.82245 0.52635
 H70 H 0.20520 0.85436 0.58919
 H71 H 0.19149 0.74627 0.69239
 H72 H 0.22230 0.71411 0.62905
 H73 H 0.27677 0.77661 0.62860
 H74 H 0.30819 0.74433 0.68874
 H75 H 0.26275 0.66913 0.52383
 H76 H 0.24762 0.69074 0.36922
 H77 H 0.27987 0.66249 0.30649
 H78 H 0.32706 0.73799 0.41041
 H79 H 0.29482 0.76669 0.47265
 H80 H 0.20368 0.72713 0.47332
 H81 H 0.17178 0.75609 0.41035
 H82 H 0.21969 0.83044 0.30600
 H83 H 0.25158 0.80195 0.36938
 H84 H 0.29439 0.63710 0.58348
 C85 C 0.24871 0.25448 -0.46747
 C86 C 0.24861 0.25504 -0.53521
 C87 C 0.26686 0.27548 -0.57376
 C88 C 0.23043 0.23485 -0.57399
 C89 C 0.22935 0.23764 -0.42844
 C90 C 0.26829 0.27059 -0.42897
 C91 C 0.27187 0.31517 -0.56240
 C92 C 0.28978 0.33356 -0.59686
 C93 C 0.30271 0.31259 -0.64355
 C94 C 0.29737 0.27331 -0.65635
 C95 C 0.27948 0.25492 -0.62184
 C96 C 0.21786 0.25568 -0.62169
 C97 C 0.20030 0.23726 -0.65724
 C98 C 0.19527 0.19771 -0.64585
 C99 C 0.20809 0.17654 -0.59937
 C100 C 0.22567 0.19495 -0.56387
 C101 C 0.23373 0.20892 -0.38024
 C102 C 0.21568 0.19249 -0.34366
 C103 C 0.19307 0.20481 -0.35449
 C104 C 0.18862 0.23395 -0.40170
 C105 C 0.20668 0.25043 -0.43825
 C106 C 0.29080 0.25724 -0.43999
 C107 C 0.30916 0.27346 -0.40476
 C108 C 0.30516 0.30284 -0.35773
 C109 C 0.28272 0.31562 -0.34547
 C110 C 0.26436 0.29946 -0.38072
 H111 H 0.26205 0.33173 -0.52638
 H112 H 0.29363 0.36401 -0.58664
 H113 H 0.30717 0.25673 -0.69243
 H114 H 0.27581 0.22437 -0.63154
 H115 H 0.22138 0.28638 -0.63048
 H116 H 0.19056 0.25398 -0.69316
 H117 H 0.23548 0.17818 -0.52824
 H118 H 0.25109 0.19884 -0.37165
 H119 H 0.21940 0.17004 -0.30724
 H120 H 0.17122 0.24391 -0.41042
 H121 H 0.20300 0.27309 -0.47424
 H122 H 0.29413 0.23448 -0.47613
 H123 H 0.32645 0.26326 -0.41441
 H124 H 0.27945 0.33828 -0.30910
 H125 H 0.24711 0.30994 -0.37128
 H126 H 0.20446 0.14588 -0.59025
 C127 C -0.25108 0.75411 -0.46856
 C128 C -0.25101 0.75360 -0.53630
 C129 C -0.23146 0.76982 -0.57513
 C130 C -0.27036 0.73668 -0.57497
 C131 C -0.26924 0.73391 -0.42943
 C132 C -0.23282 0.77452 -0.43031
 C133 C -0.23543 0.79882 -0.62308
 C134 C -0.21709 0.81518 -0.65847
 C135 C -0.19461 0.80246 -0.64664
 C136 C -0.19059 0.77288 -0.59993
 C137 C -0.20894 0.75648 -0.56460
 C138 C -0.29305 0.74934 -0.56471
 C139 C -0.31111 0.73266 -0.60071
 C140 C -0.30665 0.70345 -0.64781
 C141 C -0.28401 0.69130 -0.65914
 C142 C -0.26596 0.70793 -0.62311
 C143 C -0.27400 0.69400 -0.43938
 C144 C -0.29154 0.67558 -0.40346
 C145 C -0.30433 0.69675 -0.35673
 C146 C -0.29930 0.73631 -0.34554
 C147 C -0.28178 0.75474 -0.38150
 C148 C -0.22018 0.75392 -0.38246
 C149 C -0.20234 0.77233 -0.34809
 C150 C -0.19706 0.81162 -0.36080
 C151 C -0.20996 0.83263 -0.40727
 C152 C -0.22784 0.81425 -0.44162
 H153 H -0.25269 0.80930 -0.63212
 H154 H -0.22045 0.83798 -0.69456
 H155 H -0.17330 0.76263 -0.59048
 H156 H -0.20559 0.73362 -0.52867
 H157 H -0.29676 0.77201 -0.52873
 H158 H -0.32853 0.74248 -0.59161
 H159 H -0.24858 0.69795 -0.63203
 H160 H -0.26421 0.67724 -0.47520
 H161 H -0.29517 0.64492 -0.41244
 H162 H -0.30902 0.75303 -0.30944
 H163 H -0.27826 0.78544 -0.37284
 H164 H -0.22383 0.72335 -0.37279
 H165 H -0.19250 0.75583 -0.31214
 H166 H -0.20610 0.86309 -0.41729
 H167 H -0.23766 0.83085 -0.47746
 H168 H -0.28027 0.66880 -0.69548
 O169 O -0.03201 0.93057 0.11837
 O170 O -0.05725 0.96702 0.05635
 C171 C -0.05258 0.94111 0.10126
 O172 O 0.03297 1.06973 0.11977
 O173 O 0.05818 1.03330 0.05750
 C174 C 0.05353 1.05960 0.10177
 O175 O -0.03144 1.06632 0.12636
 O176 O -0.05676 1.03238 0.06060
 C177 C -0.05203 1.05650 0.10823
 O178 O 0.03258 0.92690 0.11236
 O179 O 0.05802 0.96557 0.05434
 C180 C 0.05320 0.93767 0.09574
 Zr181 Zr 0.00040 0.94955 0.08189
 O182 O 0.00288 0.94765 0.18673
 O183 O -0.00231 0.88782 0.07830
 Zr184 Zr 0.00067 1.04838 0.08702
 O185 O 0.00321 1.04659 0.19184
 O186 O -0.00179 1.11016 0.08911
 O187 O -0.01998 0.99875 0.09750
 O188 O 0.02047 0.99871 0.09660
 O189 O 0.03286 0.93112 -0.11849
 O190 O 0.05813 0.96754 -0.05635
 C191 C 0.05343 0.94121 -0.10053
 O192 O -0.03123 1.07088 -0.11784
 O193 O -0.05666 1.03456 -0.05575
 C194 C -0.05183 1.06041 -0.10073
 O195 O 0.03310 1.07393 -0.11134
 O196 O 0.05827 1.03526 -0.05326
 C197 C 0.05365 1.06312 -0.09473
 O198 O -0.03154 0.93467 -0.12496
 O199 O -0.05681 0.96866 -0.05913
 C200 C -0.05211 0.94453 -0.10677
 Zr201 Zr 0.00059 0.95261 -0.08581
 O202 O 0.00333 0.95455 -0.19063
 O203 O -0.00212 0.89084 -0.08818
 Zr204 Zr 0.00076 1.05148 -0.08066
 O205 O 0.00343 1.05350 -0.18549
 O206 O -0.00167 1.11322 -0.07620
 Zr207 Zr -0.03374 1.00051 0.00068
 Zr208 Zr 0.03478 1.00045 0.00057
 O209 O 0.02062 1.00224 -0.09543
 O210 O -0.01984 1.00229 -0.09617
 O211 O 0.02099 0.94338 -0.00235
 O212 O -0.01930 1.05703 0.00360
 O213 O -0.01952 0.94397 -0.00233
 O214 O 0.02125 1.05757 0.00353
 H215 H 0.03081 0.99799 0.13558
 H216 H -0.02964 1.07999 0.00486
 H217 H 0.03104 1.00291 -0.13442
 H218 H -0.02995 0.92103 -0.00353
 H219 H 0.01140 1.12080 0.06376
 H220 H 0.01149 1.12288 -0.04985
 H221 H -0.00921 1.03743 -0.20376
 H222 H -0.00938 0.97096 -0.20728
 H223 H 0.01088 0.88015 -0.06245
 H224 H 0.01060 0.87807 0.05096
 H225 H -0.01001 0.96312 0.20499
 H226 H -0.00939 1.02971 0.20844
 O227 O 0.46806 0.43392 0.12406
 O228 O 0.44313 0.46842 0.05819
 C229 C 0.44758 0.44410 0.10572
 O230 O 0.53335 0.57244 0.11143
 O231 O 0.55860 0.53375 0.05329
 C232 C 0.55392 0.56155 0.09485
 O233 O 0.46876 0.56946 0.11713
 O234 O 0.44343 0.53331 0.05465
 C235 C 0.44817 0.55908 0.09975
 O236 O 0.53246 0.42944 0.11903
 O237 O 0.55800 0.46579 0.05739
 C238 C 0.55310 0.43944 0.10145
 Zr239 Zr 0.50050 0.45137 0.08560
 O240 O 0.50289 0.45324 0.19045
 O241 O 0.49759 0.38963 0.08795
 Zr242 Zr 0.50102 0.55031 0.08052
 O243 O 0.50340 0.55251 0.18534
 O244 O 0.49870 0.61206 0.07609
 O245 O 0.48028 0.50124 0.09598
 O246 O 0.52069 0.50089 0.09530
 O247 O 0.53312 0.42575 -0.11250
 O248 O 0.55850 0.46412 -0.05410
 C249 C 0.55372 0.43635 -0.09565
 O250 O 0.46903 0.56524 -0.12607
 O251 O 0.44359 0.53108 -0.06054
 C252 C 0.44840 0.55534 -0.10800
 O253 O 0.53343 0.56884 -0.12013
 O254 O 0.55847 0.53211 -0.05823
 C255 C 0.55393 0.55856 -0.10229
 O256 O 0.46857 0.42972 -0.11918
 O257 O 0.44333 0.46622 -0.05701
 C258 C 0.44801 0.44039 -0.10207
 Zr259 Zr 0.50086 0.44838 -0.08211
 O260 O 0.50360 0.44613 -0.18690
 O261 O 0.49799 0.38667 -0.07775
 Zr262 Zr 0.50119 0.54731 -0.08720
 O263 O 0.50393 0.54533 -0.19202
 O264 O 0.49880 0.60908 -0.08973
 Zr265 Zr 0.46676 0.49959 -0.00102
 Zr266 Zr 0.53518 0.49910 -0.00058
 O267 O 0.52100 0.49752 -0.09664
 O268 O 0.48059 0.49774 -0.09784
 O269 O 0.52119 0.44211 0.00231
 O270 O 0.48116 0.55609 -0.00381
 O271 O 0.48067 0.44288 0.00194
 O272 O 0.52168 0.55629 -0.00363
 H273 H 0.53096 0.50148 0.13444
 H274 H 0.47080 0.57903 -0.00509
 H275 H 0.53141 0.49678 -0.13563
 H276 H 0.47012 0.42010 0.00308
 H277 H 0.51206 0.62170 0.05036
 H278 H 0.51165 0.61968 -0.06313
 H279 H 0.49105 0.52918 -0.20869
 H280 H 0.49119 0.46257 -0.20530
 H281 H 0.51115 0.37683 -0.05166
 H282 H 0.51052 0.37886 0.06184
 H283 H 0.49015 0.46968 0.20694
 H284 H 0.49078 0.53629 0.20357
 C285 C 0.35611 0.36253 0.26324
 N286 N 0.37013 0.34041 0.22475
 N287 N 0.38819 0.35649 0.19426
 C288 C 0.39279 0.39517 0.20140
 N289 N 0.37877 0.41731 0.23988
 N290 N 0.36071 0.40123 0.27038
 C291 C 0.33678 0.34506 0.29644
 C292 C 0.32069 0.33001 0.32448
 C293 C 0.41218 0.41247 0.16826
 C294 C 0.42841 0.42691 0.14000
 C295 C -0.14203 0.85298 0.25762
 N296 N -0.12260 0.83267 0.24401
 N297 N -0.10504 0.84997 0.21303
 C298 C -0.10639 0.88809 0.19478
 N299 N -0.12582 0.90839 0.20837
 N300 N -0.14338 0.89109 0.23934
 C301 C -0.16085 0.83452 0.29151
 C302 C -0.17669 0.81929 0.32035
 C303 C -0.08745 0.90677 0.16179
 C304 C -0.07153 0.92247 0.13414
 C305 C 0.64198 0.65222 0.25260
 N306 N 0.64023 0.61265 0.25233
 N307 N 0.62313 0.59505 0.22001
 C308 C 0.60728 0.61648 0.18691
 N309 N 0.60903 0.65606 0.18713
 N310 N 0.62614 0.67366 0.21946
 C311 C 0.66030 0.67108 0.28800
 C312 C 0.67576 0.68651 0.31804
 C313 C 0.58861 0.59746 0.15333
 C314 C 0.57283 0.58121 0.12605
 C315 C 0.14330 1.14621 0.25780
 N316 N 0.13430 1.16272 0.20243
 N317 N 0.11668 1.14585 0.17132
 C318 C 0.10754 1.11198 0.19468
 N319 N 0.11655 1.09547 0.25001
 N320 N 0.13416 1.11234 0.28112
 C321 C 0.16208 1.16458 0.29180
 C322 C 0.17773 1.18008 0.32085
 C323 C 0.08851 1.09386 0.16148
 C324 C 0.07251 1.07839 0.13400
 C325 C 0.64180 0.34471 -0.25145
 N326 N 0.64590 0.37634 -0.21253
 N327 N 0.62871 0.39385 -0.18050
 C328 C 0.60690 0.38026 -0.18639
 N329 N 0.60280 0.34861 -0.22527
 N330 N 0.61999 0.33110 -0.25730
 C331 C 0.66026 0.32640 -0.28703
 C332 C 0.67585 0.31141 -0.31723
 C333 C 0.58829 0.39973 -0.15333
 C334 C 0.57257 0.41633 -0.12644
 C335 C 0.14323 0.85441 -0.25602
 N336 N 0.13950 0.89337 -0.26240
 N337 N 0.12188 0.91023 -0.23129
 C338 C 0.10746 0.88863 -0.19290
 N339 N 0.11120 0.84967 -0.18648
 N340 N 0.12882 0.83281 -0.21760
 C341 C 0.16199 0.83620 -0.29030
 C342 C 0.17765 0.82087 -0.31958
 C343 C 0.08839 0.90678 -0.15997
 C344 C 0.07239 0.92231 -0.13265
 C345 C 0.35782 0.63770 -0.26591
 N346 N 0.37264 0.66011 -0.23045
 N347 N 0.39056 0.64393 -0.20004
 C348 C 0.39424 0.60485 -0.20422
 N349 N 0.37943 0.58243 -0.23969
 N350 N 0.36150 0.59861 -0.27011
 C351 C 0.33857 0.65522 -0.29882
 C352 C 0.32251 0.67023 -0.32657
 C353 C 0.41345 0.58740 -0.17094
 C354 C 0.42949 0.57279 -0.14253
 C355 C -0.14099 1.14831 -0.25606
 N356 N -0.12168 1.16889 -0.24169
 N357 N -0.10415 1.15166 -0.21101
 C358 C -0.10540 1.11335 -0.19384
 N359 N -0.12472 1.09278 -0.20819
 N360 N -0.14225 1.11000 -0.23886
 C361 C -0.15979 1.16668 -0.28959
 C362 C -0.17565 1.18174 -0.31810
 C363 C -0.08652 1.09475 -0.16107
 C364 C -0.07067 1.07906 -0.13355
 C365 C 0.64384 0.64535 -0.25880
 N366 N 0.64020 0.60629 -0.26429
 N367 N 0.62261 0.58938 -0.23287
 C368 C 0.60812 0.61103 -0.19505
 N369 N 0.61177 0.65009 -0.18951
 N370 N 0.62937 0.66700 -0.22093
 C371 C 0.66257 0.66364 -0.29343
 C372 C 0.67819 0.67911 -0.32295
 C373 C 0.58904 0.59285 -0.16190
 C374 C 0.57299 0.57735 -0.13447
 C375 C 0.14162 1.15466 -0.25286
 N376 N 0.14574 1.12277 -0.21462
 N377 N 0.12862 1.10521 -0.18202
 C378 C 0.10686 1.11903 -0.18663
 N379 N 0.10275 1.15093 -0.22483
 N380 N 0.11986 1.16849 -0.25743
 C381 C 0.15999 1.17306 -0.28899
 C382 C 0.17547 1.18817 -0.31966
 C383 C 0.08831 1.09953 -0.15301
 C384 C 0.07258 1.08298 -0.12577
 C385 C 0.35870 0.35356 -0.25971
 N386 N 0.37757 0.33255 -0.24316
 N387 N 0.39509 0.34960 -0.21190
 C388 C 0.39427 0.38816 -0.19629
 N389 N 0.37540 0.40917 -0.21283
 N390 N 0.35788 0.39212 -0.24408
 C391 C 0.33992 0.33536 -0.29383
 C392 C 0.32410 0.32034 -0.32279
 C393 C 0.41317 0.40656 -0.16301
 C394 C 0.42907 0.42202 -0.13515
 C395 C -0.14288 0.86257 -0.26558
 N396 N -0.12853 0.84024 -0.22866
 N397 N -0.11059 0.85635 -0.19796
 C398 C -0.10644 0.89529 -0.20331
 N399 N -0.12079 0.91763 -0.24023
 N400 N -0.13873 0.90152 -0.27094
 C401 C -0.16212 0.84510 -0.29891
 C402 C -0.17815 0.83006 -0.32700
 C403 C -0.08719 0.91264 -0.16985
 C404 C -0.07110 0.92718 -0.14133
 C405 C 0.35907 0.64706 0.25635
 N406 N 0.37805 0.66794 0.23944
 N407 N 0.39553 0.65070 0.20834
 C408 C 0.39456 0.61206 0.19328
 N409 N 0.37557 0.59119 0.21017
 N410 N 0.35809 0.60844 0.24126
 C411 C 0.34033 0.66546 0.29040
 C412 C 0.32456 0.68060 0.31937
 C413 C 0.41342 0.59343 0.16022
 C414 C 0.42929 0.57774 0.13256
 C415 C -0.14280 1.13844 0.26705
 N416 N -0.12764 1.16108 0.23301
 N417 N -0.10969 1.14499 0.20235
 C418 C -0.10633 1.10577 0.20485
 N419 N -0.12149 1.08312 0.23889
 N420 N -0.13945 1.09922 0.26956
 C421 C -0.16207 1.15587 0.30028
 C422 C -0.17814 1.17081 0.32832
 C423 C -0.08708 1.08843 0.17138
 C424 C -0.07100 1.07389 0.14284
 C425 C 0.64239 0.35314 0.25888
 N426 N 0.63985 0.39256 0.25964
 N427 N 0.62231 0.40924 0.22816
 C428 C 0.60678 0.38702 0.19500
 N429 N 0.60933 0.34759 0.19420
 N430 N 0.62687 0.33091 0.22569
 C431 C 0.66111 0.33516 0.29348
 C432 C 0.67674 0.32003 0.32295
 C433 C 0.58781 0.40503 0.16164
 C434 C 0.57191 0.42051 0.13397
 C435 C 0.14099 0.84616 0.25198
 N436 N 0.14515 0.87801 0.21354
 N437 N 0.12802 0.89552 0.18141
 C438 C 0.10623 0.88169 0.18672
 N439 N 0.10208 0.84982 0.22512
 N440 N 0.11921 0.83230 0.25725
 C441 C 0.15938 0.82781 0.28760
 C442 C 0.17489 0.81278 0.31779
 C443 C 0.08769 0.90115 0.15356
 C444 C 0.07201 0.91772 0.12659
   
