data_POSCAR
  _audit_creation_date              2014-09-24
  _audit_creation_method            'ToBaCCo'
  _symmetry_space_group_name_H-M    'P1'
  _symmetry_Int_Tables_number       1
  _symmetry_cell_setting            triclinic
  loop_
  _symmetry_equiv_pos_as_xyz
 x,y,z
_cell_length_a 29.1886
_cell_length_b 30.2586
_cell_length_c 29.2988
_cell_angle_alpha 93.779600
_cell_angle_beta 86.404500
_cell_angle_gamma 89.033800
loop_
  _atom_site_label
  _atom_site_type_symbol
  _atom_site_fract_x
  _atom_site_fract_y
  _atom_site_fract_z
C1 C 0.19779 1.26610 0.17406
 C2 C 0.21444 1.22225 0.16704
 C3 C 0.21350 1.19483 0.20315
 C4 C 0.19467 1.21063 0.24656
 C5 C 0.17881 1.25404 0.25360
 C6 C 0.18078 1.28196 0.21727
 C7 C 0.18982 1.29861 0.14444
 N8 N 0.16841 1.33365 0.16887
 C9 C 0.16319 1.32382 0.21344
 C10 C 0.15711 1.25881 0.29675
 N11 N 0.15837 1.21910 0.31572
 C12 C 0.18188 1.18955 0.28551
 C13 C 0.22987 1.15370 0.18581
 N14 N 0.24026 1.15565 0.14021
 C15 C 0.23053 1.19719 0.12832
 H16 H 0.19716 1.29602 0.10767
 H17 H 0.14535 1.34454 0.24071
 H18 H 0.13853 1.28809 0.31168
 H19 H 0.18674 1.15461 0.29006
 H20 H 0.23296 1.12431 0.20465
 H21 H 0.23484 1.20828 0.09395
 C22 C 0.81694 0.78651 0.17222
 C23 C 0.77144 0.80260 0.17473
 C24 C 0.75749 0.83725 0.20614
 C25 C 0.78878 0.85547 0.23635
 C26 C 0.83337 0.83890 0.23430
 C27 C 0.84756 0.80461 0.20192
 C28 C 0.84057 0.75428 0.14419
 N29 N 0.88472 0.75263 0.15645
 C30 C 0.88915 0.78319 0.19186
 C31 C 0.85603 0.86169 0.26777
 N32 N 0.82638 0.89191 0.29031
 C33 C 0.78515 0.88853 0.27123
 C34 C 0.71188 0.84635 0.20005
 N35 N 0.69802 0.81762 0.16633
 C36 C 0.73407 0.79074 0.15076
 H37 H 0.82664 0.73382 0.11691
 H38 H 0.92048 0.78967 0.20886
 H39 H 0.89151 0.85641 0.27510
 H40 H 0.75466 0.90824 0.28224
 H41 H 0.69029 0.87159 0.21897
 H42 H 0.73324 0.76480 0.12355
 C43 C 0.77539 1.22623 -0.10257
 C44 C 0.74500 1.19198 -0.09439
 C45 C 0.75250 1.15092 -0.11716
 C46 C 0.79015 1.14379 -0.14892
 C47 C 0.82029 1.17762 -0.15756
 C48 C 0.81322 1.21928 -0.13341
 C49 C 0.77624 1.26906 -0.08446
 N50 N 0.81420 1.28846 -0.10244
 C51 C 0.83710 1.25841 -0.13267
 C52 C 0.85150 1.16138 -0.19245
 N53 N 0.84058 1.11881 -0.20471
 C54 C 0.80356 1.10786 -0.17776
 C55 C 0.71735 1.12424 -0.10298
 N56 N 0.68882 1.14835 -0.07210
 C57 C 0.70542 1.18983 -0.06663
 H58 H 0.75165 1.28459 -0.05885
 H59 H 0.86880 1.26432 -0.15231
 H60 H 0.87896 1.17962 -0.20856
 H61 H 0.78621 1.07650 -0.18032
 H62 H 0.71264 1.09004 -0.11469
 H63 H 0.68966 1.21653 -0.04429
 C64 C 0.23256 0.73343 -0.25594
 C65 C 0.27485 0.75488 -0.25514
 C66 C 0.28664 0.78405 -0.28817
 C67 C 0.25577 0.79377 -0.32094
 C68 C 0.21340 0.77407 -0.32077
 C69 C 0.20222 0.74281 -0.28874
 C70 C 0.21203 0.70297 -0.22873
 N71 N 0.17044 0.69310 -0.24481
 C72 C 0.16402 0.71769 -0.28114
 C73 C 0.18823 0.79463 -0.35200
 N74 N 0.21464 0.82614 -0.37093
 C75 C 0.25622 0.82518 -0.35267
 C76 C 0.32758 0.80249 -0.27752
 N77 N 0.34061 0.78595 -0.23839
 C78 C 0.30873 0.75675 -0.22427
 H79 H 0.22673 0.68857 -0.19997
 H80 H 0.13386 0.71711 -0.30090
 H81 H 0.15275 0.78854 -0.35866
 H82 H 0.28366 0.84798 -0.35942
 H83 H 0.34502 0.82838 -0.29513
 H84 H 0.30915 0.73979 -0.19289
 C85 C 0.48487 1.03190 0.00540
 H86 H 0.44936 1.03939 0.01608
 C87 C 0.51443 1.06647 -0.00344
 H88 H 0.50131 1.10028 0.00049
 C89 C 0.54526 0.97906 -0.01259
 H90 H 0.55702 0.94483 -0.01545
 C91 C 0.57594 1.01267 -0.02227
 H92 H 0.61139 1.00399 -0.03237
 N93 N 0.50064 0.98918 0.00080
 C94 C 0.40198 0.98991 0.08480
 H95 H 0.42971 0.98566 0.10697
 C96 C 0.36529 1.01900 0.09917
 H97 H 0.36523 1.03653 0.13254
 C98 C 0.37082 0.97566 0.01268
 H99 H 0.37413 0.96060 -0.02186
 C100 C 0.33376 1.00435 0.02558
 H101 H 0.30840 1.01011 0.00109
 Zn102 Zn 0.46039 0.94307 0.01568
 N103 N 0.40461 0.96977 0.04176
 C104 C 0.51377 0.92877 0.09021
 N105 N 0.49043 0.90792 0.05655
 C106 C 0.49497 0.86341 0.04706
 C107 C 0.52531 0.83844 0.07038
 C108 C 0.54482 0.90504 0.11425
 C109 C 0.47056 0.91632 -0.07907
 C110 C 0.46094 0.89187 -0.11924
 C111 C 0.40523 0.85102 -0.07546
 C112 C 0.41607 0.87620 -0.03602
 N113 N 0.44823 0.90816 -0.03846
 H114 H 0.51057 0.96435 0.09639
 H115 H 0.47704 0.84733 0.01972
 H116 H 0.52963 0.80337 0.06088
 H117 H 0.56419 0.92272 0.13959
 H118 H 0.49550 0.94220 -0.08063
 H119 H 0.47876 0.89931 -0.15125
 H120 H 0.37952 0.82588 -0.07261
 H121 H 0.39846 0.87062 -0.00337
 C122 C 0.33140 1.02767 0.06867
 C123 C 0.56055 1.05709 -0.01755
 C124 C 0.42756 0.85902 -0.11793
 C125 C 0.55205 0.85940 0.10328
 C126 C 0.02263 0.57304 1.04615
 H127 H 0.05028 0.55173 1.05501
 C128 C 0.00904 0.60940 1.07576
 H129 H 0.02572 0.61511 1.10754
 C130 C -0.03115 0.59290 0.99337
 H131 H -0.04598 0.58665 0.96069
 C132 C -0.04650 0.62936 1.02254
 H133 H -0.07319 0.65111 1.01218
 N134 N 0.00180 0.56477 1.00630
 C135 C 0.10314 0.46880 0.99733
 H136 H 0.12277 0.48021 0.96801
 C137 C 0.12523 0.44613 1.03039
 H138 H 0.16196 0.44001 1.02660
 C139 C 0.03160 0.46404 1.03969
 H140 H -0.00480 0.47184 1.04348
 C141 C 0.05225 0.44247 1.07363
 H142 H 0.03166 0.43324 1.10341
 Zn143 Zn 0.02226 0.51434 0.96789
 N144 N 0.05725 0.47812 1.00336
 C145 C 0.09204 0.56208 0.92442
 N146 N 0.05546 0.53592 0.91686
 C147 C 0.03779 0.53161 0.87500
 C148 C 0.05580 0.55555 0.83919
 C149 C 0.11125 0.58657 0.88942
 C150 C -0.07115 0.48929 0.96671
 C151 C -0.10674 0.46071 0.95700
 C152 C -0.05245 0.41230 0.91155
 C153 C -0.01780 0.44195 0.92210
 N154 N -0.02762 0.47950 0.94936
 H155 H 0.10461 0.56585 0.95838
 H156 H 0.00790 0.51175 0.86999
 H157 H 0.04013 0.55296 0.80662
 H158 H 0.13891 0.60870 0.89685
 H159 H -0.07822 0.51822 0.98973
 H160 H -0.14092 0.46876 0.97205
 H161 H -0.04346 0.38227 0.89067
 H162 H 0.01730 0.43446 0.90954
 C163 C 0.09958 0.43405 1.06963
 C164 C -0.02642 0.63762 1.06451
 C165 C -0.09761 0.42121 0.92975
 C166 C 0.09219 0.58440 0.84645
 C167 C 1.09919 -0.00114 0.51993
 H168 H 1.10784 0.03030 0.50667
 C169 C 1.13432 -0.02931 0.53124
 H170 H 1.16953 -0.01921 0.52585
 C171 C 1.04307 -0.05116 0.54533
 H172 H 1.00726 -0.05906 0.55122
 C173 C 1.07730 -0.08042 0.55736
 H174 H 1.06729 -0.11080 0.57227
 N175 N 1.05453 -0.01240 0.52693
 C176 C 1.03207 0.11973 0.50220
 H177 H 1.01317 0.12868 0.53445
 C178 C 1.05345 0.15264 0.47755
 H179 H 1.05115 0.18674 0.49134
 C180 C 1.05690 0.06496 0.44400
 H181 H 1.05771 0.03062 0.43100
 C182 C 1.07883 0.09653 0.41849
 H183 H 1.09583 0.08597 0.38567
 Zn184 Zn 1.00780 0.02857 0.51431
 N185 N 1.03475 0.07673 0.48531
 C186 C 0.99115 0.07181 0.60434
 N187 N 0.97378 0.04538 0.57039
 C188 C 0.93238 0.02605 0.57688
 C189 C 0.90652 0.03324 0.61826
 C190 C 0.96576 0.08064 0.64635
 C191 C 0.97298 -0.03842 0.45249
 C192 C 0.94177 -0.05495 0.42162
 C193 C 0.89977 0.01487 0.43208
 C194 C 0.93199 0.03020 0.46221
 N195 N 0.96730 0.00339 0.47231
 H196 H 1.02495 0.08542 0.59917
 H197 H 0.91984 0.00370 0.55047
 H198 H 0.87389 0.01708 0.62279
 H199 H 0.97995 0.10135 0.67327
 H200 H 1.00168 -0.05892 0.46046
 H201 H 0.94647 -0.08846 0.40660
 H202 H 0.87168 0.03655 0.42473
 H203 H 0.92865 0.06348 0.47813
 C204 C 1.07755 0.14111 0.43524
 C205 C 1.12377 -0.06935 0.55073
 C206 C 0.90446 -0.02815 0.41127
 C207 C 0.92305 0.06073 0.65363
 N208 N 0.11001 0.42994 1.15051
 N209 N 0.12787 0.40294 1.17867
 C210 C 0.15068 0.37067 1.15211
 C211 C 0.14691 0.37894 1.10653
 N212 N 0.12099 0.41626 1.10727
 H213 H 0.15812 0.35824 1.07621
 N214 N -0.01493 0.69309 1.12660
 N215 N -0.03815 0.72450 1.15237
 C216 C -0.08080 0.72544 1.13728
 C217 C -0.08315 0.69395 1.10121
 N218 N -0.04115 0.67446 1.09570
 H219 H -0.11249 0.68511 1.08198
 N220 N -0.17438 0.39402 0.94658
 N221 N -0.19916 0.35840 0.93901
 C222 C -0.17311 0.33028 0.91030
 C223 C -0.13150 0.34971 0.90022
 N224 N -0.13359 0.38961 0.92398
 H225 H -0.10225 0.33536 0.87967
 N226 N 0.08115 0.62270 0.77718
 N227 N 0.10095 0.65274 0.75208
 C228 C 0.14035 0.66317 0.77144
 C229 C 0.14432 0.63858 0.80917
 N230 N 0.10643 0.61368 0.81161
 H231 H 0.17164 0.63899 0.83247
 N232 N 1.08890 0.21762 0.41540
 N233 N 1.11043 0.23993 0.38331
 C234 C 1.13507 0.20980 0.35551
 C235 C 1.12822 0.16844 0.37148
 N236 N 1.09875 0.17464 0.40879
 H237 H 1.14195 0.13703 0.35644
 N238 N 1.20415 -0.08573 0.56162
 N239 N 1.22994 -0.11331 0.58270
 C240 C 1.20135 -0.14305 0.60057
 C241 C 1.15710 -0.13306 0.58971
 N242 N 1.16032 -0.09659 0.56556
 H243 H 1.12580 -0.14887 0.60088
 N244 N 0.82903 -0.02765 0.37928
 N245 N 0.80665 -0.04878 0.34670
 C246 C 0.83622 -0.07965 0.32606
 C247 C 0.87729 -0.07704 0.34693
 N248 N 0.87134 -0.04416 0.38011
 H249 H 0.90845 -0.09650 0.33852
 N250 N 0.86823 0.03577 0.71155
 N251 N 0.84528 0.05043 0.75003
 C252 C 0.85995 0.09169 0.76021
 C253 C 0.89315 0.10195 0.72690
 N254 N 0.89695 0.06599 0.69695
 H255 H 0.91053 0.13294 0.72318
 N256 N 0.27707 1.08285 0.04615
 N257 N 0.25259 1.11781 0.06377
 C258 C 0.25795 1.12005 0.10913
 C259 C 0.28655 1.08568 0.11900
 N260 N 0.29793 1.06313 0.07850
 H261 H 0.29921 1.07912 0.15186
 N262 N 0.58353 1.13429 -0.00981
 N263 N 0.61739 1.15988 -0.02353
 C264 C 0.64752 1.13332 -0.04960
 C265 C 0.63142 1.09073 -0.05151
 N266 N 0.59127 1.09272 -0.02608
 H267 H 0.64690 1.06158 -0.07004
 N268 N 0.43778 0.83997 -0.20019
 N269 N 0.41568 0.82013 -0.23365
 C270 C 0.37831 0.80212 -0.21364
 C271 C 0.37770 0.81187 -0.16700
 N272 N 0.41555 0.83574 -0.15988
 H273 H 0.35031 0.80577 -0.14175
 N274 N 0.59765 0.79227 0.11064
 N275 N 0.63692 0.77971 0.12660
 C276 C 0.65325 0.81577 0.14899
 C277 C 0.62308 0.85091 0.14629
 N278 N 0.58861 0.83487 0.12180
 H279 H 0.62776 0.88507 0.15800
   
