data_POSCAR
  _audit_creation_date              2014-09-24
  _audit_creation_method            'ToBaCCo'
  _symmetry_space_group_name_H-M    'P1'
  _symmetry_Int_Tables_number       1
  _symmetry_cell_setting            triclinic
  loop_
  _symmetry_equiv_pos_as_xyz
 x,y,z
_cell_length_a 30.3429
_cell_length_b 30.3383
_cell_length_c 30.4469
_cell_angle_alpha 97.766000
_cell_angle_beta 86.762700
_cell_angle_gamma 100.772400
loop_
  _atom_site_label
  _atom_site_type_symbol
  _atom_site_fract_x
  _atom_site_fract_y
  _atom_site_fract_z
O1 O 0.57066 0.52526 0.04174
 O2 O 0.44829 0.51327 0.03779
 O3 O 0.50412 0.45770 0.04272
 O4 O 0.51571 0.57961 0.03346
 O5 O 0.51905 0.56408 -0.03945
 O6 O 0.50851 0.44333 -0.03021
 O7 O 0.45231 0.49764 -0.03498
 O8 O 0.57519 0.51077 -0.03119
 Cu9 Cu 0.50916 0.52033 0.04627
 Cu10 Cu 0.51417 0.50240 -0.04124
 C11 C 0.59390 0.52007 0.00607
 C12 C 0.42922 0.50392 0.00074
 C13 C 0.50487 0.42973 0.00767
 C14 C 0.51905 0.59252 -0.00482
 O15 O -0.04619 0.54863 0.51336
 O16 O -0.03805 0.42870 0.50811
 O17 O -0.03863 0.49438 0.57154
 O18 O -0.04300 0.48262 0.44955
 O19 O 0.03072 0.50224 0.44528
 O20 O 0.03529 0.51087 0.56609
 O21 O 0.03574 0.44652 0.50173
 O22 O 0.02757 0.56732 0.51065
 Cu23 Cu -0.04890 0.48702 0.51106
 Cu24 Cu 0.03971 0.50882 0.50536
 C25 C -0.01089 0.57868 0.51313
 C26 C 0.00019 0.41705 0.50427
 C27 C -0.00061 0.50331 0.58947
 C28 C -0.00673 0.49035 0.42658
 O29 O 0.50523 0.03231 0.55973
 O30 O 0.50739 0.03971 0.44038
 O31 O 0.44747 0.04245 0.50328
 O32 O 0.56549 0.02610 0.49521
 O33 O 0.54221 -0.04760 0.48185
 O34 O 0.42469 -0.03145 0.49094
 O35 O 0.48432 -0.03406 0.42660
 O36 O 0.48283 -0.04151 0.54726
 Cu37 Cu 0.50892 0.04243 0.50111
 Cu38 Cu 0.48147 -0.04606 0.48548
 C39 C 0.49346 -0.00561 0.57426
 C40 C 0.49519 0.00456 0.41313
 C41 C 0.41594 0.00828 0.49778
 C42 C 0.57399 -0.01374 0.48694
 C43 C 0.50417 -0.08086 -0.09588
 C44 C 0.49506 -0.03922 -0.10425
 C45 C 0.49021 -0.00593 -0.06833
 C46 C 0.49666 -0.01281 -0.02429
 C47 C 0.50655 -0.05489 -0.01717
 C48 C 0.50901 -0.08944 -0.05245
 C49 C 0.49330 0.02364 0.01394
 C50 C 0.48397 0.01313 0.05776
 C51 C 0.48297 0.04728 0.09375
 C52 C 0.48840 0.09240 0.08546
 C53 C 0.49608 0.10381 0.04224
 C54 C 0.49996 0.06954 0.00706
 H55 H 0.50853 -0.10642 -0.12345
 H56 H 0.48068 0.02496 -0.07521
 H57 H 0.51203 -0.06138 0.01587
 H58 H 0.47672 -0.02160 0.06445
 H59 H 0.48670 0.11885 0.11282
 H60 H 0.50907 0.07932 -0.02553
 C61 C -0.07795 0.49778 1.09156
 C62 C -0.08567 0.50714 1.04916
 C63 C -0.05109 0.50750 1.01664
 C64 C -0.01003 0.49505 1.02458
 C65 C -0.00353 0.48466 1.06726
 C66 C -0.03667 0.48742 1.10119
 C67 C 0.02557 0.49348 0.98842
 C68 C 0.07132 0.49830 0.99806
 C69 C 0.10442 0.49742 0.96389
 C70 C 0.09194 0.49493 0.91985
 C71 C 0.04683 0.49023 0.90930
 C72 C 0.01393 0.48763 0.94353
 H73 H -0.10408 0.49876 1.11721
 H74 H -0.05658 0.51819 0.98526
 H75 H 0.02695 0.47389 1.07455
 H76 H 0.08160 0.50251 1.03196
 H77 H 0.11774 0.49767 0.89380
 H78 H -0.02088 0.48066 0.93462
 C79 C -0.09766 -0.09866 0.49668
 C80 C -0.05399 -0.10530 0.50286
 C81 C -0.01832 -0.06824 0.50280
 C82 C -0.02520 -0.02547 0.49410
 C83 C -0.06938 -0.02077 0.48579
 C84 C -0.10575 -0.05666 0.48818
 C85 C 0.01333 0.01399 0.49404
 C86 C 0.00552 0.05896 0.50070
 C87 C 0.04102 0.09598 0.50010
 C88 C 0.08518 0.08818 0.49593
 C89 C 0.09434 0.04414 0.48983
 C90 C 0.05832 0.00734 0.48768
 H91 H -0.12576 -0.12612 0.49932
 H92 H 0.01483 -0.07326 0.50929
 H93 H -0.07609 0.01042 0.47658
 H94 H -0.02814 0.06577 0.50606
 H95 H 0.11267 0.11677 0.49837
 H96 H 0.06597 -0.02628 0.48023
 C97 C -0.26516 0.52542 1.01439
 C98 C -0.28442 0.51812 0.97250
 C99 C -0.33032 0.51721 0.96962
 C100 C -0.35699 0.52392 1.00823
 C101 C -0.33611 0.53292 1.04926
 N102 N -0.29148 0.53322 1.05126
 C103 C -0.21755 0.52343 1.02021
 N104 N -0.19829 0.54278 1.05917
 C105 C -0.15589 0.53945 1.06861
 C106 C -0.13043 0.51474 1.03812
 C107 C -0.14940 0.49499 0.99751
 C108 C -0.19281 0.49918 0.98844
 H109 H -0.34498 0.51071 0.93724
 H110 H -0.35528 0.53877 1.07987
 H111 H -0.14238 0.55569 1.10009
 H112 H -0.13130 0.47482 0.97342
 H113 H -0.26458 0.51313 0.94223
 H114 H -0.20717 0.48189 0.95771
 C115 C 0.29056 0.50027 0.99411
 C116 C 0.31080 0.51058 1.03545
 C117 C 0.35669 0.51101 1.03786
 C118 C 0.38265 0.50140 0.99916
 C119 C 0.36070 0.49038 0.95860
 N120 N 0.31599 0.49001 0.95723
 C121 C 0.24229 0.49956 0.98908
 N122 N 0.22169 0.47336 0.95360
 C123 C 0.17791 0.47188 0.94545
 C124 C 0.15206 0.49844 0.97360
 C125 C 0.17256 0.52574 1.01053
 C126 C 0.21763 0.52640 1.01840
 H127 H 0.37180 0.51937 1.07002
 H128 H 0.37894 0.48234 0.92786
 H129 H 0.16335 0.44974 0.91701
 H130 H 0.15416 0.54736 1.03268
 H131 H 0.29151 0.51771 1.06570
 H132 H 0.23311 0.54867 1.04629
 C133 C -0.02366 -0.28512 0.51642
 C134 C 0.01909 -0.29577 0.51909
 C135 C 0.02353 -0.34094 0.51808
 C136 C -0.01461 -0.37556 0.51513
 C137 C -0.05683 -0.36306 0.51334
 N138 N -0.06009 -0.31901 0.51343
 C139 C -0.03016 -0.23841 0.51436
 N140 N -0.06337 -0.23191 0.48910
 C141 C -0.07148 -0.19011 0.48519
 C142 C -0.04572 -0.15130 0.50808
 C143 C -0.01164 -0.15739 0.53495
 C144 C -0.00359 -0.20077 0.53792
 H145 H 0.05683 -0.34865 0.51948
 H146 H -0.08728 -0.38826 0.51088
 H147 H -0.09756 -0.18738 0.46344
 H148 H 0.00847 -0.12881 0.55413
 H149 H 0.04887 -0.26970 0.52059
 H150 H 0.02249 -0.20484 0.55909
 C151 C 0.01095 0.27866 0.50507
 C152 C -0.03073 0.29205 0.51496
 C153 C -0.03438 0.33711 0.51413
 C154 C 0.00333 0.36890 0.50362
 C155 C 0.04424 0.35401 0.49348
 N156 N 0.04690 0.30990 0.49424
 C157 C 0.01691 0.23136 0.50484
 N158 N 0.05025 0.21646 0.47858
 C159 C 0.05835 0.17372 0.47667
 C160 C 0.03229 0.14292 0.50262
 C161 C -0.00209 0.15767 0.53030
 C162 C -0.00989 0.20178 0.53151
 H163 H -0.06665 0.34710 0.52203
 H164 H 0.07409 0.37730 0.48495
 H165 H 0.08479 0.16372 0.45436
 H166 H -0.02243 0.13544 0.55156
 H167 H -0.06038 0.26805 0.52254
 H168 H -0.03590 0.21271 0.55381
 C169 C 0.49142 -0.01175 -0.28800
 C170 C 0.50218 0.03032 -0.30418
 C171 C 0.50290 0.03223 -0.34974
 C172 C 0.49240 -0.00752 -0.37973
 C173 C 0.48084 -0.04884 -0.36207
 N174 N 0.48076 -0.04982 -0.31750
 C175 C 0.49124 -0.01629 -0.23992
 N176 N 0.47089 -0.05615 -0.22592
 C177 C 0.47060 -0.06381 -0.18289
 C178 C 0.49204 -0.03023 -0.15074
 C179 C 0.51286 0.01128 -0.16423
 C180 C 0.51275 0.01834 -0.20861
 H181 H 0.51152 0.06508 -0.36134
 H182 H 0.47218 -0.08044 -0.38356
 H183 H 0.45379 -0.09622 -0.17390
 H184 H 0.53056 0.03776 -0.14073
 H185 H 0.50953 0.06171 -0.28231
 H186 H 0.53062 0.05012 -0.21797
 C187 C 0.48262 0.01896 0.27680
 C188 C 0.48624 0.05698 0.30908
 C189 C 0.49120 0.05216 0.35326
 C190 C 0.49220 0.00950 0.36572
 C191 C 0.48884 -0.02774 0.33240
 N192 N 0.48460 -0.02210 0.28926
 C193 C 0.47828 0.02343 0.22953
 N194 N 0.49981 -0.00147 0.19766
 C195 C 0.49997 0.00398 0.15398
 C196 C 0.47791 0.03643 0.14027
 C197 C 0.45369 0.06074 0.17248
 C198 C 0.45388 0.05444 0.21697
 H199 H 0.49364 0.08184 0.37778
 H200 H 0.48970 -0.06118 0.34060
 H201 H 0.51905 -0.01558 0.13035
 H202 H 0.43505 0.08511 0.16340
 H203 H 0.48599 0.09032 0.30023
 H204 H 0.43537 0.07390 0.24131
 C205 C 0.52430 -0.26861 -0.02000
 C206 C 0.53125 -0.28014 0.02192
 C207 C 0.52993 -0.32547 0.02705
 C208 C 0.52212 -0.35913 -0.00951
 C209 C 0.51595 -0.34601 -0.05087
 N210 N 0.51672 -0.30186 -0.05488
 C211 C 0.52227 -0.22188 -0.02720
 N212 N 0.49636 -0.21575 -0.06010
 C213 C 0.49213 -0.17409 -0.06887
 C214 C 0.51512 -0.13505 -0.04394
 C215 C 0.54273 -0.14058 -0.01027
 C216 C 0.54629 -0.18387 -0.00172
 H217 H 0.53468 -0.33420 0.05957
 H218 H 0.50956 -0.37085 -0.07990
 H219 H 0.46999 -0.17165 -0.09473
 H220 H 0.56190 -0.11154 0.00918
 H221 H 0.53625 -0.25478 0.05068
 H222 H 0.56815 -0.18740 0.02396
 C223 C 0.50012 0.28929 0.01622
 C224 C 0.49779 0.30385 -0.02531
 C225 C 0.49883 0.34956 -0.02793
 C226 C 0.50221 0.38099 0.01060
 C227 C 0.50455 0.36511 0.05147
 N228 N 0.50371 0.32037 0.05318
 C229 C 0.49975 0.24127 0.02086
 N230 N 0.51944 0.23120 0.05642
 C231 C 0.51971 0.18792 0.06339
 C232 C 0.49879 0.15142 0.03374
 C233 C 0.47835 0.16108 -0.00318
 C234 C 0.47870 0.20578 -0.00972
 H235 H 0.49733 0.36031 -0.06023
 H236 H 0.50759 0.38820 0.08197
 H237 H 0.53631 0.18215 0.09206
 H238 H 0.46089 0.13407 -0.02633
 H239 H 0.49621 0.28057 -0.05563
 H240 H 0.46146 0.21218 -0.03770
 C241 C -0.28979 -0.03497 0.47852
 C242 C -0.32517 -0.07210 0.47140
 C243 C -0.36941 -0.06502 0.47379
 C244 C -0.37889 -0.02114 0.48350
 C245 C -0.34266 0.01508 0.49054
 N246 N -0.29975 0.00734 0.48813
 C247 C -0.24218 -0.04073 0.47797
 N248 N -0.21168 -0.00772 0.50016
 C249 C -0.16790 -0.01139 0.50272
 C250 C -0.15250 -0.05039 0.48253
 C251 C -0.18300 -0.08420 0.45835
 C252 C -0.22761 -0.07945 0.45577
 H253 H -0.39622 -0.09406 0.46848
 H254 H -0.34837 0.04948 0.49831
 H255 H -0.14553 0.01551 0.52174
 H256 H -0.17231 -0.11434 0.44137
 H257 H -0.31920 -0.10645 0.46518
 H258 H -0.25008 -0.10583 0.43635
 C259 C 0.27966 0.02537 0.49234
 C260 C 0.31441 0.06320 0.49301
 C261 C 0.35878 0.05781 0.49587
 C262 C 0.36877 0.01483 0.49793
 C263 C 0.33297 -0.02199 0.49813
 N264 N 0.28995 -0.01586 0.49555
 C265 C 0.23213 0.02944 0.48899
 N266 N 0.19932 0.00070 0.50857
 C267 C 0.15514 0.00364 0.50796
 C268 C 0.14178 0.03720 0.48681
 C269 C 0.17501 0.06593 0.46493
 C270 C 0.22003 0.06223 0.46598
 H271 H 0.38529 0.08717 0.49576
 H272 H 0.33914 -0.05568 0.50000
 H273 H 0.13074 -0.01920 0.52533
 H274 H 0.16623 0.09147 0.44711
 H275 H 0.30749 0.09674 0.49181
 H276 H 0.24495 0.08465 0.44869
 C277 C -0.01062 0.48016 1.28539
 C278 C 0.03097 0.48839 1.30589
 C279 C 0.03216 0.49143 1.35192
 C280 C -0.00785 0.48583 1.37768
 C281 C -0.04870 0.47624 1.35586
 N282 N -0.04902 0.47384 1.31097
 C283 C -0.01427 0.47909 1.23696
 N284 N -0.05372 0.45888 1.21790
 C285 C -0.06098 0.45927 1.17434
 C286 C -0.02757 0.48173 1.14726
 C287 C 0.01367 0.50204 1.16595
 C288 C 0.02044 0.50092 1.21067
 H289 H 0.06446 0.49822 1.36730
 H290 H -0.08036 0.47128 1.37438
 H291 H -0.09310 0.44269 1.16113
 H292 H 0.04001 0.52052 1.14649
 H293 H 0.06235 0.49221 1.28692
 H294 H 0.05182 0.51873 1.22452
 C295 C 0.00968 0.49796 0.72775
 C296 C -0.03208 0.50028 0.71137
 C297 C -0.03562 0.50270 0.66622
 C298 C 0.00240 0.50331 0.63768
 C299 C 0.04352 0.50142 0.65560
 N300 N 0.04597 0.49844 0.69940
 C301 C 0.01566 0.49398 0.77468
 N302 N 0.04855 0.47241 0.78474
 C303 C 0.05798 0.46937 0.82716
 C304 C 0.03425 0.48975 0.86274
 C305 C -0.00019 0.51181 0.85304
 C306 C -0.00970 0.51384 0.80913
 H307 H -0.06803 0.50373 0.65361
 H308 H 0.07358 0.50130 0.63472
 H309 H 0.08425 0.45133 0.83292
 H310 H -0.01876 0.52885 0.87933
 H311 H -0.06185 0.49905 0.73282
 H312 H -0.03534 0.53226 0.80240
   
