data_POSCAR
  _audit_creation_date              2014-09-24
  _audit_creation_method            'ToBaCCo'
  _symmetry_space_group_name_H-M    'P1'
  _symmetry_Int_Tables_number       1
  _symmetry_cell_setting            triclinic
  loop_
  _symmetry_equiv_pos_as_xyz
 x,y,z
_cell_length_a 28.2446
_cell_length_b 28.2523
_cell_length_c 27.9161
_cell_angle_alpha 90.118600
_cell_angle_beta 89.980200
_cell_angle_gamma 90.392800
loop_
  _atom_site_label
  _atom_site_type_symbol
  _atom_site_fract_x
  _atom_site_fract_y
  _atom_site_fract_z
C1 C 0.37745 0.00020 0.25018
 C2 C 0.12399 -0.00019 0.75016
 C3 C 0.62399 0.49981 0.25016
 C4 C 0.87745 0.50020 0.75018
 C5 C 0.25124 0.37258 1.00120
 C6 C 0.75150 0.12745 0.99893
 C7 C 0.25150 0.62745 0.49893
 C8 C 0.75124 0.87258 0.50120
 C9 C -0.00041 0.25122 0.37378
 C10 C -0.00045 0.74867 0.12518
 C11 C 0.49956 0.24868 0.62518
 C12 C 0.49960 0.75122 0.87378
 C13 C -0.24742 0.62676 1.00057
 C14 C -0.25062 0.37323 0.50013
 C15 C 0.24938 -0.12677 0.00013
 C16 C 0.25258 1.12676 0.50057
 C17 C 0.12315 0.49811 0.25074
 C18 C -0.12222 1.00188 0.25078
 C19 C 0.37778 0.50188 -0.24922
 C20 C 0.62315 -0.00189 -0.24926
 C21 C -0.00094 0.24832 0.87560
 C22 C 0.49926 0.25161 0.12396
 C23 C -0.00074 0.75161 0.62396
 C24 C 0.49905 0.74833 0.37560
 Zr25 Zr 0.03866 -0.02681 1.06924
 O26 O 0.08324 0.00779 1.11926
 O27 O 0.03264 -0.09376 1.09849
 O28 O 0.00361 -0.02536 1.13715
 O29 O 0.12683 -0.05174 0.98565
 O30 O -0.06788 0.00704 1.11912
 O31 O 0.10812 -0.05680 1.06499
 O32 O -0.01702 -0.13134 1.04600
 O33 O -0.03236 -0.04427 1.05523
 O34 O 0.03712 -0.06742 1.00638
 O35 O 0.00273 0.03792 1.06328
 O36 O 0.07114 0.01574 1.01645
 Zr37 Zr -0.03987 0.02229 0.92945
 Zr38 Zr -0.06714 0.01985 1.04556
 Zr39 Zr 0.06585 -0.02454 0.95338
 Zr40 Zr -0.03329 -0.08253 0.99147
 O41 O 0.12616 0.01549 0.93290
 O42 O -0.09856 -0.10686 1.02015
 O43 O -0.00401 -0.04291 0.93493
 O44 O -0.07164 -0.02006 0.98244
 O45 O -0.03915 0.06340 0.99210
 O46 O 0.03103 0.03932 0.94437
 C47 C 0.00860 -0.12948 1.08421
 C48 C 0.13634 -0.06375 1.02894
 C49 C -0.03840 -0.01120 1.14873
 O50 O -0.12913 -0.01903 1.06296
 O51 O -0.12616 0.05168 1.01435
 O52 O -0.10773 0.05571 0.93491
 C53 C -0.13539 0.06398 0.97115
 O54 O 0.07968 0.09871 1.06239
 Zr55 Zr 0.03161 0.07807 1.00748
 O56 O -0.03390 0.08955 0.90044
 O57 O -0.08175 0.08394 1.08195
 O58 O -0.00026 0.13437 1.04580
 O59 O 0.09442 0.10685 0.97730
 O60 O 0.01078 0.12861 0.95625
 C61 C -0.01311 0.12642 0.91693
 O62 O -0.08708 -0.01073 0.88082
 O63 O 0.08197 -0.09001 0.92036
 O64 O -0.00674 0.01557 0.86080
 O65 O 0.06459 -0.01727 0.87900
 O66 O -0.00300 -0.14221 0.95727
 O67 O -0.07581 -0.10472 0.93264
 C68 C 0.03480 0.00004 0.84909
 H69 H 0.05485 -0.09741 1.00876
 H70 H -0.10491 -0.02760 0.97406
 H71 H 0.04675 0.05791 0.91885
 H72 H 0.00440 0.05599 1.09367
 H73 H -0.09805 -0.14193 1.01947
 H74 H -0.14854 0.00135 1.08409
 H75 H -0.11276 0.07975 1.09810
 H76 H 0.01519 0.16414 1.03517
 H77 H -0.02038 -0.17061 0.96873
 H78 H 0.11327 -0.08616 0.90474
 H79 H 0.14551 -0.00503 0.91184
 H80 H 0.09229 0.14179 0.97964
 H81 H -0.08833 -0.13698 0.93874
 H82 H -0.09550 0.01362 0.85682
 H83 H 0.09189 -0.01630 1.14344
 H84 H 0.08480 0.13340 1.06121
 Zr85 Zr 0.53867 0.47319 0.56924
 O86 O 0.58324 0.50780 0.61926
 O87 O 0.53264 0.40624 0.59849
 O88 O 0.50362 0.47464 0.63715
 O89 O 0.62683 0.44827 0.48565
 O90 O 0.43212 0.50704 0.61912
 O91 O 0.60812 0.44321 0.56499
 O92 O 0.48298 0.36867 0.54600
 O93 O 0.46764 0.45574 0.55523
 O94 O 0.53712 0.43258 0.50638
 O95 O 0.50273 0.53792 0.56328
 O96 O 0.57115 0.51574 0.51645
 Zr97 Zr 0.46014 0.52229 0.42945
 Zr98 Zr 0.43286 0.51986 0.54556
 Zr99 Zr 0.56585 0.47546 0.45338
 Zr100 Zr 0.46672 0.41747 0.49147
 O101 O 0.62616 0.51549 0.43290
 O102 O 0.40144 0.39314 0.52015
 O103 O 0.49599 0.45709 0.43493
 O104 O 0.42836 0.47994 0.48244
 O105 O 0.46085 0.56340 0.49210
 O106 O 0.53103 0.53932 0.44437
 C107 C 0.50861 0.37052 0.58421
 C108 C 0.63634 0.43625 0.52894
 C109 C 0.46160 0.48880 0.64873
 O110 O 0.37087 0.48097 0.56296
 O111 O 0.37384 0.55169 0.51435
 O112 O 0.39227 0.55571 0.43491
 C113 C 0.36461 0.56399 0.47115
 O114 O 0.57968 0.59871 0.56239
 Zr115 Zr 0.53161 0.57808 0.50748
 O116 O 0.46610 0.58955 0.40044
 O117 O 0.41825 0.58394 0.58195
 O118 O 0.49974 0.63437 0.54580
 O119 O 0.59442 0.60685 0.47730
 O120 O 0.51078 0.62861 0.45625
 C121 C 0.48689 0.62642 0.41693
 O122 O 0.41292 0.48927 0.38082
 O123 O 0.58197 0.40999 0.42036
 O124 O 0.49326 0.51557 0.36080
 O125 O 0.56459 0.48273 0.37900
 O126 O 0.49700 0.35779 0.45728
 O127 O 0.42419 0.39529 0.43264
 C128 C 0.53480 0.50005 0.34909
 H129 H 0.55485 0.40259 0.50876
 H130 H 0.39509 0.47240 0.47407
 H131 H 0.54675 0.55791 0.41885
 H132 H 0.50440 0.55599 0.59367
 H133 H 0.40196 0.35808 0.51947
 H134 H 0.35146 0.50135 0.58409
 H135 H 0.38724 0.57976 0.59810
 H136 H 0.51520 0.66414 0.53517
 H137 H 0.47962 0.32940 0.46873
 H138 H 0.61328 0.41385 0.40474
 H139 H 0.64551 0.49497 0.41184
 H140 H 0.59229 0.64179 0.47964
 H141 H 0.41167 0.36303 0.43875
 H142 H 0.40450 0.51363 0.35682
 H143 H 0.59189 0.48370 0.64344
 H144 H 0.58481 0.63340 0.56121
 Zr145 Zr 0.46186 1.02400 0.56951
 O146 O 0.41691 0.98970 0.61929
 O147 O 0.46824 1.09084 0.59907
 O148 O 0.49680 1.02281 0.63739
 O149 O 0.37438 1.05015 0.48574
 O150 O 0.56799 0.98956 0.61954
 O151 O 0.39277 1.05476 0.56519
 O152 O 0.51840 1.12798 0.54687
 O153 O 0.53315 1.04054 0.55582
 O154 O 0.46418 1.06462 0.50686
 O155 O 0.49705 0.95884 0.56351
 O156 O 0.42906 0.98188 0.51644
 Zr157 Zr 0.54047 0.97392 0.42981
 Zr158 Zr 0.56720 0.97598 0.54604
 Zr159 Zr 0.43518 1.02211 0.45359
 Zr160 Zr 0.53483 1.07887 0.49233
 O161 O 0.37455 0.98273 0.43268
 O162 O 0.60007 1.10237 0.52183
 O163 O 0.50537 1.03957 0.43550
 O164 O 0.57246 1.01590 0.48314
 O165 O 0.53892 0.93281 0.49230
 O166 O 0.46928 0.95782 0.44444
 C167 C 0.49248 1.12639 0.58492
 C168 C 0.36481 1.06218 0.52908
 C169 C 0.53872 1.00852 0.64900
 O170 O 0.62993 1.01370 0.56347
 O171 O 0.62570 0.94289 0.51487
 O172 O 0.60822 0.93995 0.43517
 C173 C 0.63548 0.93109 0.47157
 O174 O 0.41925 0.89914 0.56202
 Zr175 Zr 0.46790 0.91909 0.50742
 O176 O 0.53382 0.90668 0.40067
 O177 O 0.58055 0.91191 0.58267
 O178 O 0.49881 0.86243 0.54574
 O179 O 0.40496 0.89100 0.47681
 O180 O 0.48839 0.86828 0.45621
 C181 C 0.51249 0.87012 0.41701
 O182 O 0.58813 1.00641 0.38137
 O183 O 0.41996 1.08778 0.42080
 O184 O 0.50753 0.98105 0.36108
 O185 O 0.43670 1.01507 0.37922
 O186 O 0.50558 1.13881 0.45794
 O187 O 0.57820 1.10066 0.43405
 C188 C 0.46630 0.99731 0.34931
 H189 H 0.44676 1.09480 0.50924
 H190 H 0.60586 1.02303 0.47495
 H191 H 0.45345 0.93942 0.41878
 H192 H 0.49504 0.94087 0.59387
 H193 H 0.59994 1.13744 0.52143
 H194 H 0.64888 0.99306 0.58467
 H195 H 0.61158 0.91569 0.59887
 H196 H 0.48303 0.83284 0.53495
 H197 H 0.52306 1.16705 0.46972
 H198 H 0.38866 1.08434 0.40507
 H199 H 0.35550 1.00350 0.41170
 H200 H 0.40663 0.85604 0.47912
 H201 H 0.59112 1.13272 0.44053
 H202 H 0.59627 0.98199 0.35723
 H203 H 0.40838 1.01387 0.64354
 H204 H 0.41370 0.86451 0.56072
 Zr205 Zr -0.03814 0.52400 1.06951
 O206 O -0.08309 0.48970 1.11929
 O207 O -0.03176 0.59083 1.09907
 O208 O -0.00321 0.52280 1.13739
 O209 O -0.12562 0.55015 0.98574
 O210 O 0.06799 0.48956 1.11954
 O211 O -0.10724 0.55476 1.06519
 O212 O 0.01840 0.62798 1.04687
 O213 O 0.03315 0.54054 1.05583
 O214 O -0.03582 0.56462 1.00686
 O215 O -0.00295 0.45884 1.06351
 O216 O -0.07094 0.48188 1.01644
 Zr217 Zr 0.04047 0.47391 0.92981
 Zr218 Zr 0.06720 0.47598 1.04604
 Zr219 Zr -0.06482 0.52211 0.95359
 Zr220 Zr 0.03483 0.57887 0.99234
 O221 O -0.12545 0.48273 0.93268
 O222 O 0.10006 0.60236 1.02184
 O223 O 0.00537 0.53957 0.93550
 O224 O 0.07246 0.51590 0.98314
 O225 O 0.03892 0.43281 0.99230
 O226 O -0.03072 0.45781 0.94444
 C227 C -0.00752 0.62639 1.08492
 C228 C -0.13519 0.56218 1.02908
 C229 C 0.03872 0.50852 1.14901
 O230 O 0.12993 0.51370 1.06347
 O231 O 0.12569 0.44289 1.01487
 O232 O 0.10822 0.43995 0.93517
 C233 C 0.13548 0.43108 0.97157
 O234 O -0.08075 0.39914 1.06202
 Zr235 Zr -0.03210 0.41909 1.00742
 O236 O 0.03382 0.40667 0.90067
 O237 O 0.08055 0.41191 1.08267
 O238 O -0.00119 0.36243 1.04574
 O239 O -0.09504 0.39099 0.97680
 O240 O -0.01161 0.36828 0.95621
 C241 C 0.01249 0.37012 0.91701
 O242 O 0.08813 0.50641 0.88137
 O243 O -0.08004 0.58778 0.92080
 O244 O 0.00753 0.48105 0.86108
 O245 O -0.06330 0.51507 0.87922
 O246 O 0.00558 0.63881 0.95794
 O247 O 0.07820 0.60066 0.93405
 C248 C -0.03370 0.49731 0.84931
 H249 H -0.05324 0.59480 1.00924
 H250 H 0.10586 0.52302 0.97495
 H251 H -0.04656 0.43942 0.91878
 H252 H -0.00496 0.44087 1.09387
 H253 H 0.09994 0.63743 1.02143
 H254 H 0.14887 0.49305 1.08468
 H255 H 0.11158 0.41568 1.09887
 H256 H -0.01697 0.33284 1.03495
 H257 H 0.02306 0.66705 0.96973
 H258 H -0.11134 0.58433 0.90507
 H259 H -0.14450 0.50350 0.91170
 H260 H -0.09338 0.35604 0.97912
 H261 H 0.09112 0.63271 0.94053
 H262 H 0.09627 0.48199 0.85723
 H263 H -0.09163 0.51386 1.14354
 H264 H -0.08631 0.36451 1.06072
 Zr265 Zr -0.03999 0.47571 0.43066
 O266 O -0.08587 0.50917 0.38160
 O267 O -0.03324 0.40892 0.40071
 O268 O -0.00655 0.48000 0.36214
 O269 O -0.12732 0.44913 0.51497
 O270 O 0.06598 0.51097 0.38040
 O271 O -0.10925 0.44449 0.43544
 O272 O 0.01645 0.37195 0.45295
 O273 O 0.03129 0.45957 0.44392
 O274 O -0.03764 0.43497 0.49322
 O275 O -0.00425 0.54107 0.43680
 O276 O -0.07221 0.51748 0.48404
 Zr277 Zr 0.03961 0.52614 0.57010
 Zr278 Zr 0.06587 0.52432 0.45387
 Zr279 Zr -0.06606 0.47721 0.54682
 Zr280 Zr 0.03298 0.42119 0.50744
 O281 O -0.12632 0.51602 0.56837
 O282 O 0.09809 0.39828 0.47785
 O283 O 0.00407 0.46022 0.56449
 O284 O 0.07108 0.48437 0.51663
 O285 O 0.03807 0.56731 0.50770
 O286 O -0.03154 0.54176 0.55588
 C287 C -0.00922 0.37343 0.41478
 C288 C -0.13718 0.43711 0.47167
 C289 C 0.03571 0.49387 0.35058
 O290 O 0.12814 0.48696 0.43586
 O291 O 0.12491 0.55739 0.48499
 O292 O 0.10757 0.56034 0.56471
 C293 C 0.13488 0.56920 0.52830
 O294 O -0.08177 0.59998 0.43860
 Zr295 Zr -0.03296 0.58051 0.49294
 O296 O 0.03355 0.59349 0.59914
 O297 O 0.07979 0.58858 0.41747
 O298 O -0.00203 0.63747 0.45443
 O299 O -0.09557 0.60804 0.52404
 O300 O -0.01189 0.63152 0.54383
 C301 C 0.01240 0.62990 0.58285
 O302 O 0.08717 0.49385 0.61832
 O303 O -0.08158 0.41132 0.57942
 O304 O 0.00720 0.51881 0.63897
 O305 O -0.06391 0.48424 0.62122
 O306 O 0.00327 0.36102 0.54175
 O307 O 0.07622 0.39960 0.56564
 C308 C -0.03403 0.50227 0.65094
 H309 H -0.05527 0.40467 0.49078
 H310 H 0.10446 0.47742 0.52466
 H311 H -0.04711 0.56003 0.58165
 H312 H -0.00626 0.55927 0.40660
 H313 H 0.09786 0.36321 0.47833
 H314 H 0.14714 0.50777 0.41460
 H315 H 0.11068 0.58490 0.40107
 H316 H -0.01774 0.66690 0.46518
 H317 H 0.02061 0.33290 0.53002
 H318 H -0.11270 0.41459 0.59549
 H319 H -0.14529 0.49507 0.58951
 H320 H -0.09378 0.64301 0.52166
 H321 H 0.08887 0.36762 0.55912
 H322 H 0.09568 0.51828 0.64243
 H323 H -0.09462 0.48494 0.35736
 H324 H -0.08733 0.63453 0.44005
 Zr325 Zr 0.46001 -0.02429 -0.06934
 O326 O 0.41413 0.00916 -0.11840
 O327 O 0.46676 -0.09109 -0.09929
 O328 O 0.49345 -0.02000 -0.13786
 O329 O 0.37269 -0.05088 0.01497
 O330 O 0.56599 0.01097 -0.11960
 O331 O 0.39076 -0.05551 -0.06456
 O332 O 0.51645 -0.12805 -0.04705
 O333 O 0.53129 -0.04043 -0.05608
 O334 O 0.46236 -0.06503 -0.00678
 O335 O 0.49575 0.04106 -0.06320
 O336 O 0.42779 0.01748 -0.01596
 Zr337 Zr 0.53961 0.02614 0.07010
 Zr338 Zr 0.56587 0.02432 -0.04613
 Zr339 Zr 0.43394 -0.02279 0.04682
 Zr340 Zr 0.53298 -0.07881 0.00744
 O341 O 0.37368 0.01602 0.06837
 O342 O 0.59809 -0.10172 -0.02215
 O343 O 0.50407 -0.03978 0.06449
 O344 O 0.57108 -0.01563 0.01663
 O345 O 0.53807 0.06731 0.00770
 O346 O 0.46846 0.04175 0.05588
 C347 C 0.49078 -0.12657 -0.08522
 C348 C 0.36282 -0.06289 -0.02833
 C349 C 0.53571 -0.00614 -0.14942
 O350 O 0.62814 -0.01304 -0.06414
 O351 O 0.62491 0.05739 -0.01501
 O352 O 0.60757 0.06034 0.06471
 C353 C 0.63488 0.06920 0.02830
 O354 O 0.41823 0.09998 -0.06140
 Zr355 Zr 0.46704 0.08050 -0.00706
 O356 O 0.53355 0.09349 0.09914
 O357 O 0.57980 0.08858 -0.08253
 O358 O 0.49797 0.13747 -0.04557
 O359 O 0.40443 0.10804 0.02403
 O360 O 0.48811 0.13151 0.04383
 C361 C 0.51240 0.12990 0.08285
 O362 O 0.58717 -0.00615 0.11832
 O363 O 0.41842 -0.08868 0.07943
 O364 O 0.50720 0.01881 0.13897
 O365 O 0.43609 -0.01576 0.12122
 O366 O 0.50327 -0.13898 0.04175
 O367 O 0.57622 -0.10040 0.06564
 C368 C 0.46597 0.00226 0.15094
 H369 H 0.44473 -0.09533 -0.00922
 H370 H 0.60446 -0.02258 0.02466
 H371 H 0.45289 0.06003 0.08165
 H372 H 0.49374 0.05927 -0.09340
 H373 H 0.59786 -0.13680 -0.02167
 H374 H 0.64714 0.00777 -0.08540
 H375 H 0.61068 0.08489 -0.09893
 H376 H 0.48227 0.16690 -0.03482
 H377 H 0.52061 -0.16710 0.03002
 H378 H 0.38730 -0.08541 0.09549
 H379 H 0.35471 -0.00494 0.08951
 H380 H 0.40622 0.14301 0.02166
 H381 H 0.58887 -0.13238 0.05912
 H382 H 0.59568 0.01828 0.14243
 H383 H 0.40538 -0.01506 -0.14264
 H384 H 0.41267 0.13453 -0.05995
 Zr385 Zr 0.54065 0.52703 -0.06904
 O386 O 0.58615 0.49328 -0.11843
 O387 O 0.53426 0.59394 -0.09866
 O388 O 0.50707 0.52259 -0.13754
 O389 O 0.62863 0.55235 0.01500
 O390 O 0.43424 0.49253 -0.11906
 O391 O 0.61026 0.55750 -0.06439
 O392 O 0.48503 0.63131 -0.04608
 O393 O 0.46964 0.54411 -0.05535
 O394 O 0.53907 0.56774 -0.00624
 O395 O 0.50412 0.46212 -0.06296
 O396 O 0.57252 0.48478 -0.01600
 Zr397 Zr 0.46108 0.47752 0.07054
 Zr398 Zr 0.43430 0.47982 -0.04554
 Zr399 Zr 0.56719 0.52507 0.04702
 Zr400 Zr 0.46871 0.58239 0.00846
 O401 O 0.62712 0.48557 0.06802
 O402 O 0.40355 0.60619 -0.02014
 O403 O 0.49740 0.54298 0.06516
 O404 O 0.42985 0.51972 0.01748
 O405 O 0.46177 0.43639 0.00794
 O406 O 0.53192 0.46096 0.05593
 C407 C 0.51041 0.62957 -0.08444
 C408 C 0.63844 0.56439 -0.02825
 C409 C 0.46471 0.50891 -0.14903
 O410 O 0.37279 0.51839 -0.06340
 O411 O 0.37472 0.44802 -0.01435
 O412 O 0.39294 0.44397 0.06510
 C413 C 0.36524 0.43574 0.02886
 O414 O 0.58074 0.40207 -0.06192
 Zr415 Zr 0.53253 0.42222 -0.00717
 O416 O 0.46639 0.41011 0.09936
 O417 O 0.41908 0.41560 -0.08178
 O418 O 0.50059 0.36566 -0.04567
 O419 O 0.59501 0.39395 0.02335
 O420 O 0.51115 0.37146 0.04374
 C421 C 0.48705 0.37340 0.08291
 O422 O 0.41401 0.51031 0.11908
 O423 O 0.58359 0.59074 0.07990
 O424 O 0.49371 0.48435 0.13930
 O425 O 0.56531 0.51776 0.12143
 O426 O 0.49949 0.64230 0.04252
 O427 O 0.42637 0.60437 0.06731
 C428 C 0.53524 0.50015 0.15117
 H429 H 0.55701 0.59784 -0.00868
 H430 H 0.39661 0.52710 0.02575
 H431 H 0.54738 0.44247 0.08151
 H432 H 0.50579 0.44383 -0.09320
 H433 H 0.40419 0.64126 -0.01937
 H434 H 0.35332 0.49788 -0.08460
 H435 H 0.38823 0.41973 -0.09810
 H436 H 0.51596 0.33602 -0.03513
 H437 H 0.48227 0.67058 0.03113
 H438 H 0.61473 0.58705 0.09578
 H439 H 0.64639 0.50627 0.08922
 H440 H 0.59275 0.35900 0.02090
 H441 H 0.41415 0.63657 0.06123
 H442 H 0.40521 0.48592 0.14303
 H443 H 0.59501 0.51745 -0.14260
 H444 H 0.58582 0.36745 -0.06065
 Zr445 Zr 0.04064 1.02704 0.43096
 O446 O 0.08615 0.99329 0.38157
 O447 O 0.03425 1.09394 0.40134
 O448 O 0.00706 1.02259 0.36246
 O449 O 0.12862 1.05235 0.51500
 O450 O -0.06576 0.99253 0.38094
 O451 O 0.11025 1.05750 0.43561
 O452 O -0.01497 1.13131 0.45392
 O453 O -0.03036 1.04411 0.44465
 O454 O 0.03907 1.06774 0.49376
 O455 O 0.00412 0.96212 0.43704
 O456 O 0.07252 0.98479 0.48400
 Zr457 Zr -0.03893 0.97752 0.57054
 Zr458 Zr -0.06570 0.97982 0.45446
 Zr459 Zr 0.06719 1.02507 0.54702
 Zr460 Zr -0.03129 1.08239 0.50846
 O461 O 0.12712 0.98558 0.56802
 O462 O -0.09646 1.10619 0.47986
 O463 O -0.00260 1.04298 0.56516
 O464 O -0.07015 1.01972 0.51748
 O465 O -0.03823 0.93639 0.50794
 O466 O 0.03192 0.96096 0.55593
 C467 C 0.01041 1.12957 0.41556
 C468 C 0.13844 1.06440 0.47175
 C469 C -0.03529 1.00891 0.35097
 O470 O -0.12721 1.01839 0.43660
 O471 O -0.12528 0.94802 0.48565
 O472 O -0.10706 0.94397 0.56510
 C473 C -0.13476 0.93574 0.52886
 O474 O 0.08074 0.90208 0.43808
 Zr475 Zr 0.03253 0.92222 0.49283
 O476 O -0.03361 0.91011 0.59936
 O477 O -0.08092 0.91560 0.41822
 O478 O 0.00059 0.86566 0.45433
 O479 O 0.09501 0.89395 0.52335
 O480 O 0.01115 0.87146 0.54374
 C481 C -0.01295 0.87340 0.58290
 O482 O -0.08599 1.01031 0.61908
 O483 O 0.08359 1.09074 0.57990
 O484 O -0.00629 0.98435 0.63930
 O485 O 0.06531 1.01776 0.62143
 O486 O -0.00051 1.14230 0.54252
 O487 O -0.07363 1.10437 0.56731
 C488 C 0.03524 1.00015 0.65117
 H489 H 0.05701 1.09785 0.49132
 H490 H -0.10339 1.02710 0.52575
 H491 H 0.04738 0.94247 0.58151
 H492 H 0.00579 0.94383 0.40680
 H493 H -0.09582 1.14126 0.48063
 H494 H -0.14668 0.99788 0.41540
 H495 H -0.11177 0.91973 0.40190
 H496 H 0.01596 0.83602 0.46487
 H497 H -0.01773 1.17058 0.53114
 H498 H 0.11473 1.08706 0.59578
 H499 H 0.14639 1.00627 0.58922
 H500 H 0.09275 0.85900 0.52090
 H501 H -0.08585 1.13658 0.56123
 H502 H -0.09479 0.98592 0.64304
 H503 H 0.09500 1.01745 0.35740
 H504 H 0.08582 0.86745 0.43935
 Zr505 Zr 0.72405 0.28931 0.18019
 O506 O 0.75859 0.33377 0.13018
 O507 O 0.65705 0.28358 0.15091
 O508 O 0.72526 0.25401 0.11228
 O509 O 0.69938 0.37744 0.26417
 O510 O 0.75783 0.18261 0.13023
 O511 O 0.69416 0.35884 0.18476
 O512 O 0.61937 0.23408 0.20331
 O513 O 0.70659 0.21830 0.19405
 O514 O 0.68354 0.28778 0.24306
 O515 O 0.78878 0.25334 0.18610
 O516 O 0.76666 0.32176 0.23309
 Zr517 Zr 0.77340 0.21075 0.31982
 Zr518 Zr 0.77074 0.18348 0.20375
 Zr519 Zr 0.72652 0.31640 0.29620
 Zr520 Zr 0.66835 0.21741 0.25774
 O521 O 0.76664 0.37659 0.31699
 O522 O 0.64398 0.15230 0.22861
 O523 O 0.70814 0.24656 0.31439
 O524 O 0.73086 0.17904 0.26680
 O525 O 0.81442 0.21149 0.25720
 O526 O 0.79043 0.28163 0.30510
 C527 C 0.62123 0.25975 0.16517
 C528 C 0.68728 0.38700 0.22092
 C529 C 0.73941 0.21197 0.10068
 O530 O 0.73187 0.12147 0.18625
 O531 O 0.80260 0.12449 0.23501
 O532 O 0.80671 0.14294 0.31446
 C533 C 0.81489 0.11527 0.27823
 O534 O 0.84939 0.33035 0.18706
 Zr535 Zr 0.82902 0.28226 0.24192
 O536 O 0.84090 0.21680 0.34868
 O537 O 0.83480 0.16889 0.16737
 O538 O 0.88528 0.25051 0.20347
 O539 O 0.85780 0.34506 0.27224
 O540 O 0.87979 0.26152 0.29292
 C541 C 0.87774 0.23765 0.33219
 O542 O 0.74049 0.16348 0.36834
 O543 O 0.66107 0.33261 0.32915
 O544 O 0.76662 0.24352 0.38858
 O545 O 0.73369 0.31482 0.37061
 O546 O 0.60884 0.24766 0.29223
 O547 O 0.64608 0.17465 0.31624
 C548 C 0.75093 0.28492 0.40044
 H549 H 0.65357 0.30556 0.24076
 H550 H 0.72332 0.14578 0.27511
 H551 H 0.80903 0.29731 0.33071
 H552 H 0.80679 0.25499 0.15570
 H553 H 0.60890 0.15288 0.22915
 H554 H 0.75228 0.10202 0.16519
 H555 H 0.83065 0.13781 0.15129
 H556 H 0.91506 0.26608 0.21399
 H557 H 0.58035 0.23048 0.28062
 H558 H 0.66502 0.36383 0.34499
 H559 H 0.74619 0.39583 0.33820
 H560 H 0.89274 0.34304 0.26976
 H561 H 0.61381 0.16220 0.30998
 H562 H 0.76486 0.15504 0.39235
 H563 H 0.73442 0.34242 0.10605
 H564 H 0.88408 0.33559 0.18824
 Zr565 Zr 0.77497 0.70949 0.68088
 O566 O 0.74084 0.66346 0.63185
 O567 O 0.84165 0.71652 0.65071
 O568 O 0.77051 0.74307 0.61241
 O569 O 0.80109 0.62222 0.76495
 O570 O 0.74053 0.81550 0.63106
 O571 O 0.80569 0.64037 0.68548
 O572 O 0.87928 0.76628 0.70307
 O573 O 0.79225 0.78071 0.69442
 O574 O 0.81597 0.71181 0.74341
 O575 O 0.71014 0.74525 0.68738
 O576 O 0.73294 0.67724 0.73427
 Zr577 Zr 0.72623 0.78890 0.82082
 Zr578 Zr 0.72808 0.81529 0.70462
 Zr579 Zr 0.77357 0.68328 0.79698
 Zr580 Zr 0.83079 0.78235 0.75796
 O581 O 0.73388 0.62302 0.81816
 O582 O 0.85461 0.84764 0.72902
 O583 O 0.79161 0.75334 0.81495
 O584 O 0.76824 0.82044 0.76739
 O585 O 0.68485 0.78751 0.75847
 O586 O 0.70951 0.71782 0.80638
 C587 C 0.87736 0.74074 0.66478
 C588 C 0.81304 0.61249 0.72164
 C589 C 0.75693 0.78529 0.60101
 O590 O 0.76674 0.87716 0.68634
 O591 O 0.69682 0.87471 0.73577
 O592 O 0.69302 0.85686 0.81531
 C593 C 0.68485 0.88436 0.77901
 O594 O 0.65015 0.66765 0.68920
 Zr595 Zr 0.67048 0.71654 0.74354
 O596 O 0.65888 0.78298 0.85000
 O597 O 0.66361 0.82954 0.66897
 O598 O 0.61382 0.74735 0.70506
 O599 O 0.64205 0.65410 0.77471
 O600 O 0.61986 0.73800 0.79442
 C601 C 0.62197 0.76222 0.83354
 O602 O 0.75921 0.83638 0.86925
 O603 O 0.83934 0.66767 0.82948
 O604 O 0.73337 0.75630 0.88955
 O605 O 0.76701 0.68530 0.87140
 O606 O 0.89082 0.75245 0.79168
 O607 O 0.85320 0.82518 0.81652
 C608 C 0.74953 0.71509 0.90131
 H609 H 0.84609 0.69430 0.74083
 H610 H 0.77576 0.85377 0.77555
 H611 H 0.69108 0.70228 0.83215
 H612 H 0.69174 0.74328 0.65725
 H613 H 0.88969 0.84735 0.72943
 H614 H 0.74618 0.89635 0.66526
 H615 H 0.66768 0.86033 0.65246
 H616 H 0.58420 0.73166 0.71582
 H617 H 0.91909 0.76987 0.77993
 H618 H 0.83570 0.63657 0.84549
 H619 H 0.75459 0.60400 0.83924
 H620 H 0.60710 0.65600 0.77244
 H621 H 0.88540 0.83776 0.81014
 H622 H 0.73486 0.84492 0.89329
 H623 H 0.76486 0.65487 0.60749
 H624 H 0.61555 0.66199 0.69079
 Zr625 Zr 0.22385 0.21174 0.81941
 O626 O 0.25788 0.16746 0.86952
 O627 O 0.15671 0.21729 0.84843
 O628 O 0.22491 0.24668 0.88731
 O629 O 0.19875 0.12351 0.73562
 O630 O 0.25810 0.31834 0.86963
 O631 O 0.19351 0.14212 0.81499
 O632 O 0.11974 0.26680 0.79604
 O633 O 0.20733 0.28274 0.80558
 O634 O 0.18355 0.21319 0.75648
 O635 O 0.28904 0.24786 0.81383
 O636 O 0.26633 0.17943 0.76670
 Zr637 Zr 0.27463 0.29056 0.68009
 Zr638 Zr 0.27196 0.31771 0.79619
 Zr639 Zr 0.22646 0.18471 0.70352
 Zr640 Zr 0.16928 0.28358 0.74183
 O641 O 0.26585 0.12454 0.68279
 O642 O 0.14560 0.34861 0.77101
 O643 O 0.20895 0.25454 0.68529
 O644 O 0.23230 0.32214 0.73305
 O645 O 0.31545 0.28983 0.74283
 O646 O 0.29077 0.21970 0.69489
 C647 C 0.12118 0.24108 0.83416
 C648 C 0.18661 0.11385 0.77889
 C649 C 0.23924 0.28876 0.89901
 O650 O 0.23413 0.37996 0.81321
 O651 O 0.30551 0.37639 0.76499
 O652 O 0.30878 0.35854 0.68537
 C653 C 0.31766 0.38600 0.72172
 O654 O 0.34902 0.17122 0.81311
 Zr655 Zr 0.32917 0.21910 0.75812
 O656 O 0.34206 0.28489 0.65146
 O657 O 0.33574 0.33223 0.83340
 O658 O 0.38566 0.25124 0.79650
 O659 O 0.35730 0.15624 0.72811
 O660 O 0.38013 0.23967 0.70692
 C661 C 0.37847 0.26376 0.66778
 O662 O 0.24216 0.33762 0.63154
 O663 O 0.16095 0.16851 0.67032
 O664 O 0.26809 0.25752 0.61134
 O665 O 0.23431 0.18611 0.62918
 O666 O 0.10953 0.25329 0.70710
 O667 O 0.14781 0.32635 0.68327
 C668 C 0.25224 0.21596 0.59947
 H669 H 0.15340 0.19528 0.75872
 H670 H 0.22524 0.35541 0.72475
 H671 H 0.30932 0.20401 0.66940
 H672 H 0.30688 0.24621 0.84431
 H673 H 0.11052 0.34804 0.77026
 H674 H 0.25469 0.39925 0.83451
 H675 H 0.33183 0.36331 0.84940
 H676 H 0.41532 0.23586 0.78593
 H677 H 0.08121 0.27048 0.71855
 H678 H 0.16453 0.13721 0.65469
 H679 H 0.24516 0.10519 0.66165
 H680 H 0.39226 0.15836 0.73059
 H681 H 0.11570 0.33883 0.68946
 H682 H 0.26661 0.34610 0.60750
 H683 H 0.23357 0.15861 0.89358
 H684 H 0.38369 0.16629 0.81209
 Zr685 Zr 0.27488 0.78954 0.31878
 O686 O 0.24125 0.83557 0.36778
 O687 O 0.34158 0.78255 0.34882
 O688 O 0.27018 0.75643 0.38729
 O689 O 0.30188 0.87678 0.23486
 O690 O 0.23952 0.68379 0.36894
 O691 O 0.30624 0.85868 0.31432
 O692 O 0.37854 0.73268 0.29655
 O693 O 0.29108 0.71828 0.30539
 O694 O 0.31585 0.78715 0.25627
 O695 O 0.20952 0.75381 0.31253
 O696 O 0.23323 0.82172 0.26546
 Zr697 Zr 0.22493 0.70986 0.17915
 Zr698 Zr 0.22636 0.68371 0.29542
 Zr699 Zr 0.27377 0.81560 0.20276
 Zr700 Zr 0.32961 0.71652 0.24185
 O701 O 0.23505 0.87592 0.18149
 O702 O 0.35246 0.65129 0.27099
 O703 O 0.29080 0.74547 0.18486
 O704 O 0.26648 0.67841 0.23263
 O705 O 0.18354 0.71141 0.24154
 O706 O 0.20926 0.78100 0.19356
 C707 C 0.37700 0.75832 0.33477
 C708 C 0.31375 0.88662 0.27821
 C709 C 0.25635 0.71421 0.39882
 O710 O 0.26377 0.62154 0.31340
 O711 O 0.19345 0.62459 0.26432
 O712 O 0.19067 0.64183 0.18460
 C713 C 0.18173 0.61455 0.22102
 O714 O 0.15038 0.83119 0.31077
 Zr715 Zr 0.17023 0.78241 0.25638
 O716 O 0.15780 0.71577 0.14993
 O717 O 0.16198 0.66976 0.33174
 O718 O 0.11314 0.75137 0.29469
 O719 O 0.14271 0.84498 0.22542
 O720 O 0.11951 0.76125 0.20521
 C721 C 0.12132 0.73690 0.16616
 O722 O 0.25744 0.66240 0.13082
 O723 O 0.33975 0.83097 0.17013
 O724 O 0.23225 0.74258 0.11039
 O725 O 0.26672 0.81370 0.12838
 O726 O 0.39004 0.74625 0.20793
 O727 O 0.35127 0.67353 0.18334
 C728 C 0.24864 0.78393 0.09858
 H729 H 0.34617 0.80472 0.25881
 H730 H 0.27345 0.64504 0.22454
 H731 H 0.19101 0.79659 0.16786
 H732 H 0.19119 0.75586 0.34270
 H733 H 0.38754 0.65149 0.27043
 H734 H 0.24296 0.60260 0.33471
 H735 H 0.16570 0.63898 0.34824
 H736 H 0.08371 0.76694 0.28382
 H737 H 0.41806 0.72876 0.21957
 H738 H 0.33660 0.86215 0.15427
 H739 H 0.25611 0.89497 0.16051
 H740 H 0.10772 0.84308 0.22765
 H741 H 0.38325 0.66084 0.18973
 H742 H 0.23305 0.65388 0.10671
 H743 H 0.26535 0.84433 0.39211
 H744 H 0.11581 0.83660 0.30930
 Zr745 Zr 0.22405 0.78931 0.68019
 O746 O 0.25859 0.83378 0.63018
 O747 O 0.15705 0.78359 0.65091
 O748 O 0.22526 0.75402 0.61228
 O749 O 0.19938 0.87744 0.76417
 O750 O 0.25784 0.68261 0.63023
 O751 O 0.19417 0.85884 0.68476
 O752 O 0.11937 0.73409 0.70331
 O753 O 0.20659 0.71831 0.69405
 O754 O 0.18354 0.78778 0.74306
 O755 O 0.28878 0.75334 0.68610
 O756 O 0.26667 0.82176 0.73309
 Zr757 Zr 0.27340 0.71075 0.81982
 Zr758 Zr 0.27074 0.68348 0.70375
 Zr759 Zr 0.22652 0.81640 0.79620
 Zr760 Zr 0.16836 0.71741 0.75774
 O761 O 0.26665 0.87659 0.81699
 O762 O 0.14398 0.65230 0.72861
 O763 O 0.20814 0.74656 0.81439
 O764 O 0.23087 0.67904 0.76680
 O765 O 0.31442 0.71149 0.75720
 O766 O 0.29043 0.78163 0.80510
 C767 C 0.12123 0.75975 0.66516
 C768 C 0.18728 0.88701 0.72092
 C769 C 0.23941 0.71198 0.60067
 O770 O 0.23187 0.62147 0.68625
 O771 O 0.30260 0.62449 0.73501
 O772 O 0.30671 0.64294 0.81446
 C773 C 0.31490 0.61527 0.77823
 O774 O 0.34940 0.83035 0.68706
 Zr775 Zr 0.32902 0.78226 0.74192
 O776 O 0.34090 0.71680 0.84868
 O777 O 0.33480 0.66889 0.66737
 O778 O 0.38528 0.75051 0.70347
 O779 O 0.35781 0.84506 0.77224
 O780 O 0.37979 0.76152 0.79292
 C781 C 0.37774 0.73765 0.83219
 O782 O 0.24049 0.66348 0.86834
 O783 O 0.16108 0.83261 0.82915
 O784 O 0.26662 0.74352 0.88858
 O785 O 0.23370 0.81482 0.87061
 O786 O 0.10884 0.74767 0.79223
 O787 O 0.14609 0.67466 0.81624
 C788 C 0.25093 0.78492 0.90044
 H789 H 0.15357 0.80556 0.74076
 H790 H 0.22332 0.64578 0.77511
 H791 H 0.30903 0.79731 0.83071
 H792 H 0.30679 0.75499 0.65570
 H793 H 0.10890 0.65288 0.72915
 H794 H 0.25228 0.60202 0.66519
 H795 H 0.33065 0.63782 0.65129
 H796 H 0.41506 0.76608 0.71399
 H797 H 0.08035 0.73049 0.78062
 H798 H 0.16503 0.86383 0.84499
 H799 H 0.24619 0.89583 0.83820
 H800 H 0.39274 0.84304 0.76976
 H801 H 0.11381 0.66221 0.80998
 H802 H 0.26486 0.65504 0.89235
 H803 H 0.23442 0.84243 0.60605
 H804 H 0.38408 0.83560 0.68824
 Zr805 Zr 0.27497 0.20949 0.18088
 O806 O 0.24083 0.16346 0.13185
 O807 O 0.34164 0.21652 0.15071
 O808 O 0.27051 0.24306 0.11241
 O809 O 0.30108 0.12221 0.26495
 O810 O 0.24052 0.31550 0.13106
 O811 O 0.30569 0.14037 0.18548
 O812 O 0.37928 0.26627 0.20307
 O813 O 0.29225 0.28071 0.19442
 O814 O 0.31597 0.21181 0.24341
 O815 O 0.21014 0.24525 0.18738
 O816 O 0.23293 0.17724 0.23427
 Zr817 Zr 0.22622 0.28890 0.32082
 Zr818 Zr 0.22808 0.31529 0.20462
 Zr819 Zr 0.27356 0.18328 0.29698
 Zr820 Zr 0.33078 0.28235 0.25796
 O821 O 0.23388 0.12302 0.31816
 O822 O 0.35460 0.34764 0.22902
 O823 O 0.29160 0.25334 0.31495
 O824 O 0.26824 0.32044 0.26739
 O825 O 0.18484 0.28751 0.25847
 O826 O 0.20951 0.21782 0.30638
 C827 C 0.37735 0.24074 0.16478
 C828 C 0.31304 0.11249 0.22164
 C829 C 0.25693 0.28528 0.10101
 O830 O 0.26673 0.37715 0.18634
 O831 O 0.19682 0.37471 0.23577
 O832 O 0.19301 0.35686 0.31531
 C833 C 0.18485 0.38435 0.27901
 O834 O 0.15015 0.16765 0.18920
 Zr835 Zr 0.17048 0.21654 0.24354
 O836 O 0.15887 0.28298 0.35000
 O837 O 0.16360 0.32954 0.16897
 O838 O 0.11382 0.24735 0.20506
 O839 O 0.14205 0.15410 0.27471
 O840 O 0.11986 0.23800 0.29442
 C841 C 0.12197 0.26222 0.33354
 O842 O 0.25921 0.33637 0.36925
 O843 O 0.33934 0.16767 0.32948
 O844 O 0.23337 0.25630 0.38955
 O845 O 0.26700 0.18530 0.37140
 O846 O 0.39082 0.25245 0.29168
 O847 O 0.35320 0.32518 0.31652
 C848 C 0.24953 0.21509 0.40131
 H849 H 0.34609 0.19430 0.24083
 H850 H 0.27576 0.35377 0.27555
 H851 H 0.19108 0.20228 0.33215
 H852 H 0.19174 0.24328 0.15725
 H853 H 0.38969 0.34735 0.22943
 H854 H 0.24618 0.39635 0.16526
 H855 H 0.16767 0.36033 0.15246
 H856 H 0.08420 0.23166 0.21582
 H857 H 0.41909 0.26986 0.27992
 H858 H 0.33569 0.13657 0.34549
 H859 H 0.25458 0.10400 0.33924
 H860 H 0.10709 0.15600 0.27244
 H861 H 0.38540 0.33776 0.31013
 H862 H 0.23486 0.34491 0.39329
 H863 H 0.26486 0.15486 0.10749
 H864 H 0.11554 0.16198 0.19079
 Zr865 Zr 0.72384 0.71175 0.31941
 O866 O 0.75787 0.66747 0.36952
 O867 O 0.65671 0.71729 0.34843
 O868 O 0.72490 0.74669 0.38731
 O869 O 0.69875 0.62351 0.23562
 O870 O 0.75810 0.81834 0.36963
 O871 O 0.69350 0.64212 0.31499
 O872 O 0.61974 0.76680 0.29604
 O873 O 0.70733 0.78274 0.30558
 O874 O 0.68355 0.71319 0.25648
 O875 O 0.78903 0.74786 0.31383
 O876 O 0.76633 0.67943 0.26670
 Zr877 Zr 0.77462 0.79056 0.18009
 Zr878 Zr 0.77196 0.81771 0.29619
 Zr879 Zr 0.72646 0.68471 0.20352
 Zr880 Zr 0.66927 0.78359 0.24183
 O881 O 0.76585 0.62454 0.18279
 O882 O 0.64560 0.84861 0.27100
 O883 O 0.70895 0.75454 0.18529
 O884 O 0.73230 0.82214 0.23305
 O885 O 0.81545 0.78983 0.24283
 O886 O 0.79076 0.71970 0.19489
 C887 C 0.62118 0.74108 0.33416
 C888 C 0.68661 0.61385 0.27889
 C889 C 0.73923 0.78876 0.39901
 O890 O 0.73412 0.87996 0.31321
 O891 O 0.80551 0.87639 0.26499
 O892 O 0.80877 0.85854 0.18537
 C893 C 0.81766 0.88600 0.22171
 O894 O 0.84902 0.67122 0.31311
 Zr895 Zr 0.82916 0.71910 0.25812
 O896 O 0.84206 0.78489 0.15146
 O897 O 0.83574 0.83223 0.33340
 O898 O 0.88565 0.75125 0.29650
 O899 O 0.85730 0.65624 0.22811
 O900 O 0.88013 0.73967 0.20693
 C901 C 0.87847 0.76376 0.16778
 O902 O 0.74215 0.83762 0.13154
 O903 O 0.66094 0.66851 0.17032
 O904 O 0.76809 0.75752 0.11134
 O905 O 0.73431 0.68611 0.12918
 O906 O 0.60953 0.75329 0.20710
 O907 O 0.64781 0.82635 0.18327
 C908 C 0.75224 0.71596 0.09947
 H909 H 0.65340 0.69528 0.25872
 H910 H 0.72523 0.85541 0.22475
 H911 H 0.80931 0.70401 0.16940
 H912 H 0.80687 0.74621 0.34431
 H913 H 0.61052 0.84804 0.27026
 H914 H 0.75469 0.89926 0.33451
 H915 H 0.83182 0.86331 0.34940
 H916 H 0.91531 0.73586 0.28593
 H917 H 0.58121 0.77048 0.21855
 H918 H 0.66453 0.63721 0.15469
 H919 H 0.74515 0.60519 0.16166
 H920 H 0.89226 0.65836 0.23059
 H921 H 0.61570 0.83883 0.18946
 H922 H 0.76661 0.84610 0.10750
 H923 H 0.73357 0.65861 0.39358
 H924 H 0.88368 0.66629 0.31209
 Zr925 Zr 0.77488 0.28954 0.81878
 O926 O 0.74125 0.33557 0.86778
 O927 O 0.84158 0.28255 0.84881
 O928 O 0.77019 0.25643 0.88729
 O929 O 0.80188 0.37678 0.73486
 O930 O 0.73952 0.18379 0.86894
 O931 O 0.80625 0.35868 0.81432
 O932 O 0.87854 0.23267 0.79655
 O933 O 0.79108 0.21828 0.80539
 O934 O 0.81585 0.28714 0.75627
 O935 O 0.70952 0.25381 0.81253
 O936 O 0.73323 0.32172 0.76546
 Zr937 Zr 0.72493 0.20986 0.67915
 Zr938 Zr 0.72636 0.18371 0.79542
 Zr939 Zr 0.77377 0.31560 0.70275
 Zr940 Zr 0.82961 0.21652 0.74185
 O941 O 0.73506 0.37592 0.68149
 O942 O 0.85246 0.15129 0.77098
 O943 O 0.79080 0.24547 0.68485
 O944 O 0.76648 0.17841 0.73263
 O945 O 0.68354 0.21141 0.74154
 O946 O 0.70926 0.28100 0.69356
 C947 C 0.87701 0.25831 0.83477
 C948 C 0.81376 0.38662 0.77821
 C949 C 0.75635 0.21421 0.89882
 O950 O 0.76378 0.12154 0.81340
 O951 O 0.69346 0.12459 0.76432
 O952 O 0.69068 0.14183 0.68460
 C953 C 0.68173 0.11455 0.72102
 O954 O 0.65039 0.33118 0.81077
 Zr955 Zr 0.67023 0.28241 0.75638
 O956 O 0.65781 0.21577 0.64993
 O957 O 0.66198 0.16976 0.83174
 O958 O 0.61314 0.25137 0.79469
 O959 O 0.64271 0.34497 0.72543
 O960 O 0.61951 0.26125 0.70521
 C961 C 0.62132 0.23690 0.66616
 O962 O 0.75744 0.16240 0.63082
 O963 O 0.83975 0.33097 0.67013
 O964 O 0.73226 0.24258 0.61039
 O965 O 0.76673 0.31370 0.62838
 O966 O 0.89005 0.24625 0.70793
 O967 O 0.85128 0.17353 0.68334
 C968 C 0.74865 0.28393 0.59858
 H969 H 0.84618 0.30472 0.75881
 H970 H 0.77346 0.14504 0.72454
 H971 H 0.69102 0.29659 0.66786
 H972 H 0.69120 0.25586 0.84270
 H973 H 0.88755 0.15149 0.77042
 H974 H 0.74296 0.10259 0.83471
 H975 H 0.66570 0.13898 0.84823
 H976 H 0.58371 0.26694 0.78382
 H977 H 0.91806 0.22876 0.71957
 H978 H 0.83660 0.36215 0.65427
 H979 H 0.75611 0.39497 0.66051
 H980 H 0.60773 0.34308 0.72765
 H981 H 0.88325 0.16084 0.68973
 H982 H 0.73305 0.15388 0.60671
 H983 H 0.76535 0.34433 0.89211
 H984 H 0.61581 0.33660 0.80930
 N985 N 0.40570 1.00153 0.29431
 N986 N 0.44970 0.99343 0.30069
 N987 N -0.09429 0.50153 0.79431
 N988 N -0.05030 0.49343 0.80069
 N989 N 0.09577 -0.00182 0.79432
 N990 N 0.05142 0.00429 0.80054
 N991 N 0.59576 0.49818 0.29432
 N992 N 0.55142 0.50429 0.30054
 N993 N 0.59601 0.50122 0.20595
 N994 N 0.55153 0.49585 0.19974
 N995 N 0.09601 1.00122 0.70595
 N996 N 0.05153 0.99586 0.69974
 N997 N -0.09453 0.49917 0.70596
 N998 N -0.05027 0.50616 0.69961
 N999 N 0.40546 -0.00083 0.20596
 N1000 N 0.44973 0.00616 0.19961
 N1001 N 0.29236 0.40490 0.00157
 N1002 N 0.32222 0.40892 0.03590
 N1003 N -0.20764 0.90490 0.50157
 N1004 N -0.17778 0.90892 0.53590
 N1005 N -0.20758 0.09538 0.99875
 N1006 N -0.17808 0.09082 0.96416
 N1007 N 0.29242 0.59538 0.49875
 N1008 N 0.32192 0.59082 0.46417
 N1009 N 0.20754 0.59903 0.50013
 N1010 N 0.17869 0.59500 0.53533
 N1011 N 0.70754 0.09903 0.00013
 N1012 N 0.67869 0.09499 0.03533
 N1013 N 0.70744 0.90072 0.50004
 N1014 N 0.67902 0.90533 0.46459
 N1015 N 0.20744 0.40072 1.00004
 N1016 N 0.17902 0.40533 0.96459
 N1017 N -0.00203 0.29274 0.40384
 N1018 N -0.01115 0.33266 0.38574
 N1019 N 0.49797 -0.20726 -0.09616
 N1020 N 0.48885 -0.16735 -0.11426
 N1021 N 0.00105 -0.21009 1.09498
 N1022 N 0.01047 -0.17009 1.11310
 N1023 N 0.50106 0.28992 0.59498
 N1024 N 0.51047 0.32991 0.61310
 N1025 N 0.49806 1.20722 0.59516
 N1026 N 0.49036 1.16716 0.61372
 N1027 N -0.00194 0.70722 1.09516
 N1028 N -0.00964 0.66716 1.11373
 N1029 N 0.50114 0.70992 -0.09599
 N1030 N 0.51205 0.67016 -0.11358
 N1031 N 0.00113 1.20992 0.40401
 N1032 N 0.01205 1.17016 0.38642
 N1033 N 0.75429 0.65490 0.95648
 N1034 N 0.74571 0.69873 0.94995
 N1035 N 0.25429 0.15490 0.45648
 N1036 N 0.24570 0.19873 0.44995
 N1037 N 0.74797 0.34535 0.45575
 N1038 N 0.75485 0.30120 0.44914
 N1039 N 0.24797 0.84535 0.95575
 N1040 N 0.25485 0.80120 0.94914
 N1041 N 0.25065 0.84490 0.04411
 N1042 N 0.24443 0.80048 0.05007
 N1043 N 0.75065 0.34490 0.54411
 N1044 N 0.74444 0.30048 0.55007
 N1045 N 0.25144 0.15487 0.54481
 N1046 N 0.25671 0.19940 0.55092
 N1047 N 0.75144 0.65487 0.04481
 N1048 N 0.75671 0.69940 0.05092
 N1049 N 0.15178 0.54196 0.24931
 N1050 N 0.15586 0.57072 0.21407
 N1051 N 0.65178 0.04196 0.74931
 N1052 N 0.65586 0.07072 0.71407
 N1053 N 0.84591 0.04290 0.25083
 N1054 N 0.84159 0.07257 0.28530
 N1055 N 0.34591 0.54290 0.75083
 N1056 N 0.34159 0.57257 0.78530
 N1057 N 0.34907 0.45809 0.74994
 N1058 N 0.34396 0.42950 0.71462
 N1059 N 0.84907 0.95809 0.24994
 N1060 N 0.84395 0.92950 0.21462
 N1061 N 0.65497 0.95702 0.75143
 N1062 N 0.65855 0.92740 0.78594
 N1063 N 0.15497 0.45702 0.25143
 N1064 N 0.15855 0.42740 0.28594
 N1065 N 0.04026 0.24704 0.84511
 N1066 N 0.08043 0.23884 0.86312
 N1067 N 0.54026 0.74704 0.34511
 N1068 N 0.58043 0.73884 0.36312
 N1069 N 0.54042 0.25343 0.15436
 N1070 N 0.58059 0.26181 0.13621
 N1071 N 0.04043 0.75344 0.65436
 N1072 N 0.08060 0.76181 0.63620
 N1073 N 0.95772 0.74969 0.65380
 N1074 N 0.91797 0.73923 0.63571
 N1075 N 0.45772 0.24969 0.15379
 N1076 N 0.41797 0.23923 0.13570
 N1077 N 0.45743 0.74969 0.34580
 N1078 N 0.41771 0.76003 0.36380
 N1079 N 0.95743 0.24969 0.84580
 N1080 N 0.91772 0.26003 0.86380
 N1081 N 0.59398 0.99336 0.70762
 N1082 N 0.55599 1.01517 0.69702
 N1083 N 0.09398 0.49336 1.20762
 N1084 N 0.05599 0.51517 1.19702
 N1085 N -0.09296 0.00580 1.20761
 N1086 N -0.05551 -0.01694 1.19693
 N1087 N 0.40704 0.50580 0.70761
 N1088 N 0.44449 0.48306 0.69693
 N1089 N 0.40520 0.50169 -0.20474
 N1090 N 0.44866 0.51229 -0.19780
 N1091 N -0.09480 1.00169 0.29526
 N1092 N -0.05134 1.01229 0.30220
 N1093 N 0.09565 0.49909 0.29516
 N1094 N 0.05192 0.48961 0.30194
 N1095 N 0.59565 -0.00091 -0.20484
 N1096 N 0.55192 -0.01039 -0.19806
 N1097 N 0.70992 0.59660 0.00042
 N1098 N 0.68208 0.59018 -0.03523
 N1099 N 0.20992 1.09660 0.50042
 N1100 N 0.18208 1.09018 0.46477
 N1101 N 0.20716 -0.09655 1.00031
 N1102 N 0.17957 -0.08966 1.03603
 N1103 N 0.70716 0.40345 0.50031
 N1104 N 0.67958 0.41034 0.53603
 N1105 N -0.20821 0.40377 0.50032
 N1106 N -0.18057 0.41086 0.46464
 N1107 N 0.29179 -0.09623 0.00032
 N1108 N 0.31943 -0.08914 -0.03536
 N1109 N 0.29455 1.09616 0.50048
 N1110 N 0.32185 1.08859 0.53623
 N1111 N -0.20545 0.59616 1.00048
 N1112 N -0.17815 0.58859 1.03623
 N1113 N 0.00105 0.71013 0.59387
 N1114 N 0.01437 0.67109 0.61122
 N1115 N 0.50104 0.21013 0.09387
 N1116 N 0.51437 0.17109 0.11122
 N1117 N -0.00230 0.20689 0.90568
 N1118 N -0.01516 0.16742 0.88842
 N1119 N 0.49769 0.70689 0.40568
 N1120 N 0.48484 0.66742 0.38842
 N1121 N 0.50087 0.78978 0.40577
 N1122 N 0.51415 0.82904 0.38850
 N1123 N 0.00087 0.28978 0.90577
 N1124 N 0.01415 0.32904 0.88850
 N1125 N 0.49789 0.29308 0.09397
 N1126 N 0.48474 0.33229 0.11126
 N1127 N -0.00211 0.79308 0.59397
 N1128 N -0.01526 0.83229 0.61126
 N1129 N 0.25064 0.34503 0.04560
 N1130 N 0.26061 0.30154 0.05232
 N1131 N 0.75064 0.84503 0.54560
 N1132 N 0.76061 0.80154 0.55232
 N1133 N 0.25586 0.65700 0.54193
 N1134 N 0.23335 0.69463 0.55255
 N1135 N 0.75586 0.15700 0.04193
 N1136 N 0.73335 0.19463 0.05255
 N1137 N 0.75107 0.15454 0.95434
 N1138 N 0.76021 0.19829 0.94751
 N1139 N 0.25107 0.65454 0.45434
 N1140 N 0.26021 0.69829 0.44752
 N1141 N 0.75561 0.84348 0.45804
 N1142 N 0.73289 0.80580 0.44711
 N1143 N 0.25561 0.34348 0.95804
 N1144 N 0.23290 0.30580 0.94711
 N1145 N 0.84700 0.45775 0.74992
 N1146 N 0.83997 0.43000 0.78545
 N1147 N 0.34700 0.95775 0.24992
 N1148 N 0.33997 0.93000 0.28545
 N1149 N 0.15429 0.95764 0.74991
 N1150 N 0.16132 0.93023 0.71404
 N1151 N 0.65429 0.45764 0.24991
 N1152 N 0.66132 0.43023 0.21404
 N1153 N 0.65443 0.54227 0.25040
 N1154 N 0.66065 0.57033 0.28594
 N1155 N 0.15443 0.04227 0.75040
 N1156 N 0.16065 0.07033 0.78594
 N1157 N 0.34709 0.04235 0.25044
 N1158 N 0.33926 0.06940 0.21458
 N1159 N 0.84710 0.54235 0.75043
 N1160 N 0.83926 0.56941 0.71458
 N1161 N 0.95816 0.74992 0.15541
 N1162 N 0.91949 0.76553 0.13920
 N1163 N 0.45816 0.24992 0.65541
 N1164 N 0.41949 0.26553 0.63920
 N1165 N 0.45819 0.74926 0.84356
 N1166 N 0.41884 0.73588 0.86070
 N1167 N 0.95818 0.24926 0.34356
 N1168 N 0.91884 0.23588 0.36070
 N1169 N 0.04120 0.25296 0.34386
 N1170 N 0.08074 0.26463 0.36178
 N1171 N 0.54120 0.75296 0.84386
 N1172 N 0.58074 0.76463 0.86178
 N1173 N 0.54107 0.24760 0.65515
 N1174 N 0.58025 0.23463 0.63777
 N1175 N 0.04106 0.74760 0.15515
 N1176 N 0.08025 0.73463 0.13777
   
