data_POSCAR
  _audit_creation_date              2014-09-24
  _audit_creation_method            'ToBaCCo'
  _symmetry_space_group_name_H-M    'P1'
  _symmetry_Int_Tables_number       1
  _symmetry_cell_setting            triclinic
  loop_
  _symmetry_equiv_pos_as_xyz
 x,y,z
_cell_length_a 33.6194
_cell_length_b 32.9308
_cell_length_c 35.0293
_cell_angle_alpha 87.548100
_cell_angle_beta 91.026300
_cell_angle_gamma 88.995700
loop_
  _atom_site_label
  _atom_site_type_symbol
  _atom_site_fract_x
  _atom_site_fract_y
  _atom_site_fract_z
C1 C 0.58742 0.64439 0.62259
 N2 N 0.61720 0.64475 0.59685
 C3 C 0.64665 0.61589 0.59947
 N4 N 0.64618 0.58664 0.62796
 C5 C 0.61664 0.58608 0.65390
 N6 N 0.58736 0.61514 0.65107
 C7 C 0.91121 0.35380 0.13715
 N8 N 0.88407 0.35393 0.10788
 C9 C 0.85508 0.38311 0.10448
 N10 N 0.85310 0.41231 0.13068
 C11 C 0.88013 0.41259 0.15991
 N12 N 0.90904 0.38318 0.16312
 C13 C 0.40728 0.14919 -0.12621
 N14 N 0.40493 0.12709 -0.15804
 C15 C 0.37547 0.09990 -0.16223
 N16 N 0.34816 0.09484 -0.13436
 C17 C 0.35063 0.11632 -0.10219
 N18 N 0.38031 0.14342 -0.09823
 C19 C 0.10016 0.83540 0.35626
 N20 N 0.12772 0.83085 0.38510
 C21 C 0.15699 0.85838 0.38875
 N22 N 0.15871 0.89067 0.36335
 C23 C 0.13138 0.89555 0.33443
 N24 N 0.10229 0.86767 0.33097
 N25 N 0.07304 0.17003 0.08454
 N26 N 0.06576 0.16525 0.12119
 C27 C 0.03574 0.19051 0.13006
 C28 C 0.02337 0.21195 0.09698
 C29 C 0.04734 0.19788 0.06859
 H30 H 0.02348 0.19261 0.15825
 H31 H 0.04673 0.20780 0.03873
 Cu32 Cu 0.09510 0.12514 0.15320
 Cu33 Cu 0.11612 0.14034 0.06088
 Cu34 Cu 0.18500 0.09516 0.12516
 N35 N 0.12247 0.07835 0.17781
 N36 N 0.15852 0.06751 0.16785
 C37 C 0.17082 0.03500 0.18986
 C38 C 0.14047 0.02446 0.21427
 C39 C 0.11024 0.05275 0.20598
 H40 H 0.19915 0.01933 0.18735
 H41 H 0.08154 0.05462 0.21931
 N42 N 0.19751 0.10959 0.07172
 N43 N 0.17057 0.12442 0.04674
 C44 C 0.18764 0.12975 0.01246
 C45 C 0.22721 0.11811 0.01617
 C46 C 0.23251 0.10534 0.05413
 H47 H 0.17274 0.14249 -0.01305
 H48 H 0.25960 0.09353 0.06791
 H49 H 0.13033 0.09387 0.10132
 H50 H 0.14794 0.14610 0.11011
 N51 N 0.42371 0.82441 0.59983
 N52 N 0.43778 0.83695 0.63246
 C53 C 0.46929 0.81335 0.64378
 C54 C 0.47556 0.78490 0.61664
 C55 C 0.44608 0.79269 0.58906
 H56 H 0.48660 0.81655 0.66975
 H57 H 0.44086 0.77617 0.56349
 Cu58 Cu 0.41374 0.88303 0.65684
 Cu59 Cu 0.37693 0.84965 0.57432
 Cu60 Cu 0.33421 0.93261 0.61712
 N61 N 0.38990 0.92976 0.68034
 N62 N 0.35816 0.94846 0.66517
 C63 C 0.34703 0.97868 0.68764
 C64 C 0.37346 0.97900 0.71836
 C65 C 0.40035 0.94781 0.71272
 H66 H 0.32195 0.99914 0.68180
 H67 H 0.42538 0.93878 0.73117
 N68 N 0.31427 0.91188 0.56854
 N69 N 0.32957 0.87942 0.55298
 C70 C 0.30861 0.87219 0.52090
 C71 C 0.27910 0.90180 0.51593
 C72 C 0.28369 0.92656 0.54639
 H73 H 0.31488 0.84783 0.50204
 H74 H 0.26574 0.95311 0.55205
 H75 H 0.38503 0.90667 0.59530
 H76 H 0.35138 0.87200 0.62253
 N77 N 0.92010 0.67411 0.40835
 N78 N 0.93252 0.66393 0.37463
 C79 C 0.96662 0.68323 0.36691
 C80 C 0.97616 0.70641 0.39768
 C81 C 0.94622 0.69972 0.42354
 H82 H 0.98354 0.68009 0.34120
 H83 H 0.94331 0.71316 0.45101
 Cu84 Cu 0.90389 0.62544 0.34445
 Cu85 Cu 0.86990 0.65522 0.42887
 Cu86 Cu 0.82423 0.57823 0.38141
 N87 N 0.88285 0.57670 0.32284
 N88 N 0.85113 0.55900 0.33669
 C89 C 0.84252 0.52682 0.31581
 C90 C 0.87064 0.52387 0.28778
 C91 C 0.89585 0.55605 0.29299
 H92 H 0.81796 0.50662 0.32091
 H93 H 0.92142 0.56410 0.27617
 N94 N 0.80188 0.60206 0.42718
 N95 N 0.81885 0.63207 0.44482
 C96 C 0.79598 0.64255 0.47414
 C97 C 0.76329 0.61765 0.47510
 C98 C 0.76809 0.59223 0.44518
 H99 H 0.80286 0.66610 0.49367
 H100 H 0.74812 0.56860 0.43698
 H101 H 0.87663 0.59960 0.40421
 H102 H 0.84269 0.63796 0.37874
 N103 N 0.58419 0.30846 -0.09602
 N104 N 0.56611 0.32733 -0.12546
 C105 C 0.53688 0.30384 -0.13842
 C106 C 0.53651 0.26845 -0.11564
 C107 C 0.56673 0.27250 -0.08893
 H108 H 0.51696 0.31226 -0.16213
 H109 H 0.57540 0.25078 -0.06613
 Cu110 Cu 0.58125 0.38134 -0.14344
 Cu111 Cu 0.62913 0.33190 -0.06953
 Cu112 Cu 0.66564 0.42129 -0.10963
 N113 N 0.60581 0.42754 -0.16919
 N114 N 0.63939 0.44237 -0.15658
 C115 C 0.65015 0.47332 -0.18033
 C116 C 0.62155 0.47839 -0.20901
 C117 C 0.59381 0.44878 -0.20114
 H118 H 0.67656 0.49117 -0.17682
 H119 H 0.56730 0.44268 -0.21771
 N120 N 0.68779 0.39507 -0.06210
 N121 N 0.67431 0.36059 -0.04719
 C122 C 0.69575 0.35009 -0.01534
 C123 C 0.72362 0.37958 -0.00969
 C124 C 0.71785 0.40768 -0.03986
 H125 H 0.69125 0.32319 0.00276
 H126 H 0.73456 0.43498 -0.04542
 H127 H 0.61791 0.39264 -0.08425
 H128 H 0.64727 0.36278 -0.11868
 C129 C -0.05897 0.32377 0.14123
 C130 C -0.05291 0.29565 0.11532
 C131 C -0.02130 0.26441 0.12118
 C132 C -0.00851 0.24303 0.09211
 H133 H -0.07075 0.29593 0.08920
 H134 H -0.00768 0.25966 0.14933
 H135 H -0.03957 0.32383 0.16631
 H136 H -0.02058 0.24959 0.06356
 C137 C 0.55571 0.67584 0.62078
 C138 C 0.54887 0.70048 0.58984
 C139 C 0.51713 0.73213 0.58805
 C140 C 0.50661 0.75277 0.61852
 H141 H 0.56565 0.69623 0.56417
 H142 H 0.50392 0.74018 0.56028
 H143 H 0.53679 0.67787 0.64536
 H144 H 0.52225 0.74719 0.64559
 C145 C 1.06955 0.80771 0.35214
 C146 C 1.06182 0.77836 0.37846
 C147 C 1.02845 0.75078 0.37280
 C148 C 1.01060 0.73276 0.40259
 H149 H 1.07890 0.77559 0.40503
 H150 H 1.01719 0.74673 0.34404
 H151 H 1.05031 0.81131 0.32697
 H152 H 1.02000 0.73932 0.43141
 C153 C 0.43811 0.17997 -0.12200
 C154 C 0.45864 0.19461 -0.15184
 C155 C 0.48709 0.22801 -0.14910
 C156 C 0.50906 0.23422 -0.11770
 H157 H 0.45218 0.18419 -0.18016
 H158 H 0.49103 0.24706 -0.17465
 H159 H 0.44204 0.19264 -0.09419
 H160 H 0.50781 0.21323 -0.09311
 C161 C 0.13350 -0.07079 0.30890
 C162 C 0.10552 -0.06203 0.28183
 C163 C 0.10675 -0.02596 0.25544
 C164 C 0.14057 -0.01044 0.24203
 H165 H 0.07916 -0.08036 0.28008
 H166 H 0.07841 -0.01367 0.24477
 H167 H 0.15824 -0.05049 0.31219
 H168 H 0.16892 -0.02485 0.24985
 C169 C 0.61723 0.55605 -0.31668
 C170 C 0.58758 0.55153 -0.29179
 C171 C 0.58836 0.51992 -0.26065
 C172 C 0.62161 0.50886 -0.24101
 H173 H 0.56065 0.56998 -0.29523
 H174 H 0.56007 0.50769 -0.25200
 H175 H 0.64255 0.53518 -0.31462
 H176 H 0.64933 0.52382 -0.24726
 C177 C 0.37458 1.07526 0.80371
 C178 C 0.34263 1.05425 0.79350
 C179 C 0.34227 1.02826 0.76021
 C180 C 0.37419 1.00643 0.75043
 H181 H 0.31522 1.05723 0.80901
 H182 H 0.31414 1.02482 0.74529
 H183 H 0.40090 1.07490 0.78632
 H184 H 0.40131 1.00699 0.76756
 C185 C 0.87723 0.44431 0.18815
 C186 C 0.90770 0.45286 0.21144
 C187 C 0.90538 0.48480 0.23966
 C188 C 0.87221 0.49291 0.25872
 H189 H 0.93621 0.43759 0.20851
 H190 H 0.93268 0.50001 0.24665
 H191 H 0.84976 0.46194 0.18878
 H192 H 0.84584 0.47515 0.25429
 C193 C 0.32059 0.11061 -0.07246
 C194 C 0.32588 0.12378 -0.03709
 C195 C 0.29597 0.11904 -0.00696
 C196 C 0.25674 0.12024 -0.01435
 H197 H 0.35387 0.13713 -0.02909
 H198 H 0.30685 0.11765 0.02234
 H199 H 0.29399 0.09430 -0.07971
 H200 H 0.24570 0.12521 -0.04344
 C201 C 0.67895 0.61561 0.57167
 C202 C 0.68798 0.64856 0.55003
 C203 C 0.72111 0.64886 0.52296
 C204 C 0.73050 0.61684 0.50239
 H205 H 0.67240 0.67712 0.55390
 H206 H 0.73652 0.67719 0.51832
 H207 H 0.69683 0.58804 0.57025
 H208 H 0.71272 0.58974 0.50436
 C209 C 0.82576 0.38205 0.07284
 C210 C 0.80177 0.41380 0.06286
 C211 C 0.77257 0.41320 0.03092
 C212 C 0.75326 0.37965 0.02176
 H213 H 0.80491 0.44215 0.07709
 H214 H 0.76520 0.44196 0.01615
 H215 H 0.82491 0.35479 0.05662
 H216 H 0.75801 0.35161 0.03865
 C217 C 0.18681 0.85254 0.41986
 C218 C 0.20784 0.88331 0.43280
 C219 C 0.23747 0.87659 0.46396
 C220 C 0.24962 0.90743 0.48452
 H221 H 0.20250 0.91395 0.42101
 H222 H 0.24859 0.84599 0.47078
 H223 H 0.19057 0.82243 0.43333
 H224 H 0.23644 0.93746 0.47920
   
