data_POSCAR
  _audit_creation_date              2014-09-24
  _audit_creation_method            'ToBaCCo'
  _symmetry_space_group_name_H-M    'P1'
  _symmetry_Int_Tables_number       1
  _symmetry_cell_setting            triclinic
  loop_
  _symmetry_equiv_pos_as_xyz
 x,y,z
_cell_length_a 54.0149
_cell_length_b 54.1024
_cell_length_c 54.2677
_cell_angle_alpha 89.905000
_cell_angle_beta 89.927600
_cell_angle_gamma 90.127100
loop_
  _atom_site_label
  _atom_site_type_symbol
  _atom_site_fract_x
  _atom_site_fract_y
  _atom_site_fract_z
N1 N 0.28878 0.23915 0.21734
 N2 N 0.27856 0.25869 0.20711
 C3 C 0.29197 0.26537 0.18721
 C4 C 0.31148 0.24916 0.18503
 C5 C 0.30902 0.23276 0.20434
 H6 H 0.28795 0.28084 0.17525
 H7 H 0.32106 0.21739 0.20860
 Cu8 Cu 0.24881 0.27349 0.22088
 Cu9 Cu 0.27506 0.22346 0.24668
 Cu10 Cu 0.22134 0.24884 0.27085
 N11 N 0.21860 0.28745 0.23451
 N12 N 0.20787 0.27764 0.25400
 C13 C 0.18755 0.29085 0.25969
 C14 C 0.18556 0.30983 0.24285
 C15 C 0.20544 0.30727 0.22714
 H16 H 0.17528 0.28708 0.27501
 H17 H 0.21001 0.31906 0.21168
 N18 N 0.23781 0.21976 0.28531
 N19 N 0.25836 0.21020 0.27621
 C20 C 0.26517 0.19082 0.29026
 C21 C 0.24808 0.18819 0.30893
 C22 C 0.23100 0.20669 0.30538
 H23 H 0.28136 0.17949 0.28724
 H24 H 0.21491 0.21038 0.31665
 H25 H 0.23891 0.23409 0.24039
 H26 H 0.25783 0.25456 0.26069
 N27 N 0.71105 -0.23919 0.21722
 N28 N 0.72179 -0.25796 0.20615
 C29 C 0.70803 -0.26472 0.18657
 C30 C 0.68777 -0.24931 0.18548
 C31 C 0.69012 -0.23332 0.20508
 H32 H 0.71232 -0.27969 0.17411
 H33 H 0.67759 -0.21862 0.21015
 Cu34 Cu 0.75257 -0.27194 0.21853
 Cu35 Cu 0.72489 -0.22390 0.24658
 Cu36 Cu 0.77912 -0.24898 0.26973
 N37 N 0.78259 -0.28624 0.23221
 N38 N 0.79291 -0.27715 0.25220
 C39 C 0.81301 -0.29068 0.25792
 C40 C 0.81523 -0.30911 0.24058
 C41 C 0.79575 -0.30592 0.22453
 H42 H 0.82488 -0.28756 0.27366
 H43 H 0.79136 -0.31725 0.20872
 N44 N 0.76236 -0.22045 0.28491
 N45 N 0.74166 -0.21094 0.27611
 C46 C 0.73483 -0.19176 0.29039
 C47 C 0.75204 -0.18921 0.30892
 C48 C 0.76923 -0.20756 0.30502
 H49 H 0.71861 -0.18043 0.28756
 H50 H 0.78551 -0.21116 0.31602
 H51 H 0.76139 -0.23322 0.23992
 H52 H 0.74290 -0.25520 0.25913
 N53 N 0.71253 0.23885 0.77773
 N54 N 0.72253 0.25907 0.78682
 C55 C 0.70987 0.26580 0.80714
 C56 C 0.69110 0.24890 0.81079
 C57 C 0.69319 0.23206 0.79190
 H58 H 0.71395 0.28173 0.81846
 H59 H 0.68154 0.21609 0.78873
 Cu60 Cu 0.75117 0.27451 0.77132
 Cu61 Cu 0.72536 0.22281 0.74832
 Cu62 Cu 0.77705 0.24920 0.72092
 N63 N 0.78057 0.28872 0.75605
 N64 N 0.79062 0.27872 0.73635
 C65 C 0.81062 0.29206 0.72963
 C66 C 0.81307 0.31132 0.74603
 C67 C 0.79386 0.30878 0.76257
 H68 H 0.82245 0.28803 0.71406
 H69 H 0.78992 0.32062 0.77813
 N70 N 0.76070 0.21930 0.70801
 N71 N 0.74098 0.20927 0.71845
 C72 C 0.73416 0.18919 0.70542
 C73 C 0.75037 0.18661 0.68600
 C74 C 0.76695 0.20586 0.68807
 H75 H 0.71861 0.17730 0.70968
 H76 H 0.78240 0.20971 0.67595
 H77 H 0.76146 0.23486 0.75271
 H78 H 0.74095 0.25398 0.73265
 N79 N 0.28842 -0.23877 0.77929
 N80 N 0.27791 -0.25850 0.78898
 C81 C 0.29088 -0.26550 0.80901
 C82 C 0.31038 -0.24928 0.81185
 C83 C 0.30838 -0.23256 0.79280
 H84 H 0.28652 -0.28115 0.82067
 H85 H 0.32050 -0.21706 0.78906
 Cu86 Cu 0.24832 -0.27293 0.77442
 Cu87 Cu 0.27541 -0.22255 0.74999
 Cu88 Cu 0.22306 -0.24837 0.72338
 N89 N 0.21920 -0.28752 0.75907
 N90 N 0.20941 -0.27779 0.73909
 C91 C 0.18953 -0.29125 0.73235
 C92 C 0.18689 -0.31032 0.74902
 C93 C 0.20587 -0.30755 0.76573
 H94 H 0.17790 -0.28744 0.71659
 H95 H 0.20961 -0.31918 0.78151
 N96 N 0.23956 -0.21861 0.71021
 N97 N 0.25952 -0.20879 0.72034
 C98 C 0.26629 -0.18868 0.70726
 C99 C 0.24983 -0.18587 0.68812
 C100 C 0.23313 -0.20500 0.69041
 H101 H 0.28196 -0.17691 0.71132
 H102 H 0.21747 -0.20864 0.67856
 H103 H 0.23904 -0.23356 0.75464
 H104 H 0.25903 -0.25376 0.73515
 N105 N 0.70899 -0.24188 0.78137
 N106 N 0.71939 -0.26131 0.79161
 C107 C 0.70612 -0.26800 0.81161
 C108 C 0.68656 -0.25185 0.81385
 C109 C 0.68881 -0.23552 0.79448
 H110 H 0.71026 -0.28344 0.82357
 H111 H 0.67664 -0.22026 0.79021
 Cu112 Cu 0.74906 -0.27613 0.77769
 Cu113 Cu 0.72222 -0.22638 0.75176
 Cu114 Cu 0.77442 -0.25299 0.72589
 N115 N 0.77797 -0.29122 0.76254
 N116 N 0.78778 -0.28205 0.74227
 C117 C 0.80743 -0.29583 0.73571
 C118 C 0.80992 -0.31451 0.75278
 C119 C 0.79106 -0.31121 0.76957
 H120 H 0.81900 -0.29253 0.71975
 H121 H 0.78720 -0.32248 0.78561
 N122 N 0.75824 -0.22352 0.71197
 N123 N 0.73833 -0.21338 0.72182
 C124 C 0.73172 -0.19364 0.70816
 C125 C 0.74826 -0.19142 0.68895
 C126 C 0.76481 -0.21052 0.69179
 H127 H 0.71609 -0.18175 0.71186
 H128 H 0.78044 -0.21457 0.68002
 H129 H 0.73841 -0.25803 0.73795
 H130 H 0.75849 -0.23724 0.75680
 N131 N 0.29021 0.23992 0.78261
 N132 N 0.28006 0.25954 0.79270
 C133 C 0.29349 0.26626 0.81251
 C134 C 0.31292 0.24995 0.81479
 C135 C 0.31039 0.23347 0.79564
 H136 H 0.28957 0.28184 0.82434
 H137 H 0.32238 0.21804 0.79145
 Cu138 Cu 0.25042 0.27447 0.77882
 Cu139 Cu 0.27674 0.22433 0.75324
 Cu140 Cu 0.22474 0.25122 0.72729
 N141 N 0.22156 0.28966 0.76364
 N142 N 0.21165 0.28046 0.74350
 C143 C 0.19213 0.29438 0.73687
 C144 C 0.18980 0.31323 0.75374
 C145 C 0.20864 0.30982 0.77050
 H146 H 0.18050 0.29107 0.72100
 H147 H 0.21260 0.32118 0.78640
 N148 N 0.24066 0.22153 0.71362
 N149 N 0.26046 0.21125 0.72354
 C150 C 0.26689 0.19136 0.71006
 C151 C 0.25035 0.18917 0.69091
 C152 C 0.23397 0.20844 0.69359
 H153 H 0.28243 0.17938 0.71382
 H154 H 0.21840 0.21259 0.68179
 H155 H 0.26079 0.25612 0.73909
 H156 H 0.24052 0.23564 0.75819
 N157 N 0.29176 -0.24237 0.22687
 N158 N 0.28252 -0.26329 0.21862
 C159 C 0.29544 -0.27043 0.19862
 C160 C 0.31363 -0.25306 0.19430
 C161 C 0.31089 -0.23550 0.21245
 H162 H 0.29183 -0.28686 0.18788
 H163 H 0.32189 -0.21896 0.21487
 Cu164 Cu 0.25413 -0.27902 0.23423
 Cu165 Cu 0.27812 -0.22557 0.25545
 Cu166 Cu 0.22659 -0.25206 0.28303
 N167 N 0.22443 -0.29276 0.24927
 N168 N 0.21376 -0.28223 0.26834
 C169 C 0.19339 -0.29522 0.27458
 C170 C 0.19131 -0.31481 0.25852
 C171 C 0.21117 -0.31281 0.24268
 H172 H 0.18084 -0.29059 0.28941
 H173 H 0.21537 -0.32483 0.22734
 N174 N 0.24224 -0.22152 0.29519
 N175 N 0.26179 -0.21133 0.28458
 C176 C 0.26794 -0.19064 0.29697
 C177 C 0.25146 -0.18783 0.31612
 C178 C 0.23543 -0.20758 0.31460
 H179 H 0.28324 -0.17852 0.29246
 H180 H 0.21999 -0.21142 0.32671
 H181 H 0.26299 -0.25649 0.27220
 H182 H 0.24236 -0.23888 0.25088
 N183 N 0.70796 0.24315 0.22662
 N184 N 0.71503 0.26542 0.21981
 C185 C 0.70206 0.27234 0.19979
 C186 C 0.68607 0.25337 0.19392
 C187 C 0.69016 0.23514 0.21121
 H188 H 0.70414 0.28976 0.19019
 H189 H 0.68084 0.21747 0.21253
 Cu190 Cu 0.74074 0.28298 0.23748
 Cu191 Cu 0.72207 0.22652 0.25518
 Cu192 Cu 0.76857 0.25784 0.28658
 N193 N 0.77243 0.29513 0.24903
 N194 N 0.78329 0.28544 0.26845
 C195 C 0.80466 0.29761 0.27267
 C196 C 0.80722 0.31560 0.25478
 C197 C 0.78655 0.31361 0.24007
 H198 H 0.81732 0.29368 0.28759
 H199 H 0.78206 0.32479 0.22415
 N200 N 0.75592 0.22515 0.29688
 N201 N 0.73858 0.21304 0.28464
 C202 C 0.73391 0.19149 0.29624
 C203 C 0.74904 0.19008 0.31658
 C204 C 0.76277 0.21158 0.31657
 H205 H 0.72026 0.17801 0.29060
 H206 H 0.77654 0.21699 0.32998
 H207 H 0.73213 0.25766 0.27419
 H208 H 0.75633 0.24426 0.25372
 C209 C 0.26158 0.07931 0.51313
 C210 C 0.26147 0.07929 0.48785
 C211 C 0.25422 0.05580 0.48065
 N212 N 0.24983 0.04151 0.50064
 C213 C 0.25440 0.05582 0.52051
 C214 C 0.25038 0.04831 0.45602
 C215 C 0.24618 0.02345 0.44919
 C216 C 0.23718 0.01594 0.42647
 C217 C 0.23730 -0.00947 0.42653
 C218 C 0.24638 -0.01680 0.44929
 N219 N 0.25179 0.00338 0.46297
 C220 C 0.25082 -0.04159 0.45626
 C221 C 0.25483 -0.04895 0.48091
 C222 C 0.26234 -0.07231 0.48823
 C223 C 0.26236 -0.07231 0.51351
 C224 C 0.25488 -0.04893 0.52076
 N225 N 0.25022 -0.03471 0.50082
 C226 C 0.25098 -0.04153 0.54540
 C227 C 0.24662 -0.01672 0.55226
 C228 C 0.23761 -0.00934 0.57502
 C229 C 0.23757 0.01607 0.57497
 C230 C 0.24654 0.02351 0.55217
 N231 N 0.25206 0.00341 0.53845
 C232 C 0.25078 0.04835 0.54520
 H233 H 0.26632 0.09486 0.52474
 H234 H 0.26613 0.09482 0.47612
 H235 H 0.26167 0.00346 0.52185
 H236 H 0.23128 0.02757 0.41133
 H237 H 0.23152 -0.02121 0.41146
 H238 H 0.26720 -0.08779 0.47659
 H239 H 0.26720 -0.08778 0.52520
 H240 H 0.23173 0.02774 0.59007
 H241 H 0.26143 0.00346 0.47953
 H242 H 0.23180 -0.02103 0.59017
 C243 C 0.74964 -0.01677 0.57727
 C244 C 0.74839 0.00852 0.57738
 C245 C 0.74870 0.01605 0.55295
 N246 N 0.74991 -0.00384 0.53799
 C247 C 0.75044 -0.02395 0.55276
 C248 C 0.74858 0.04100 0.54509
 C249 C 0.74940 0.04877 0.52013
 C250 C 0.75338 0.07303 0.51279
 C251 C 0.75352 0.07319 0.48752
 C252 C 0.74967 0.04902 0.47992
 N253 N 0.74675 0.03429 0.49995
 C254 C 0.74925 0.04155 0.45489
 C255 C 0.74981 0.01671 0.44680
 C256 C 0.75020 0.00951 0.42229
 C257 C 0.75173 -0.01576 0.42218
 C258 C 0.75193 -0.02327 0.44662
 N259 N 0.75082 -0.00337 0.46159
 C260 C 0.75240 -0.04822 0.45447
 C261 C 0.75171 -0.05604 0.47942
 C262 C 0.74819 -0.08038 0.48673
 C263 C 0.74778 -0.08054 0.51200
 C264 C 0.75107 -0.05629 0.51963
 N265 N 0.75387 -0.04152 0.49963
 C266 C 0.75102 -0.04880 0.54466
 H267 H 0.74980 -0.02849 0.59345
 H268 H 0.74749 0.02002 0.59366
 H269 H 0.75866 -0.02298 0.49978
 H270 H 0.75634 0.08899 0.52443
 H271 H 0.75661 0.08930 0.47606
 H272 H 0.74958 0.02122 0.40611
 H273 H 0.75247 -0.02725 0.40589
 H274 H 0.74489 -0.09670 0.52344
 H275 H 0.74141 0.01588 0.49981
 H276 H 0.74568 -0.09640 0.47507
 C277 C 0.51610 0.26258 0.07594
 C278 C 0.49070 0.26260 0.07587
 C279 C 0.48346 0.25530 0.05249
 N280 N 0.50354 0.25073 0.03834
 C281 C 0.52352 0.25524 0.05261
 C282 C 0.45871 0.25157 0.04498
 C283 C 0.45191 0.24721 0.02021
 C284 C 0.42908 0.23818 0.01275
 C285 C 0.42923 0.23811 -0.01257
 C286 C 0.45215 0.24710 -0.01990
 N287 N 0.46586 0.25264 0.00019
 C288 C 0.45922 0.25135 -0.04464
 C289 C 0.48405 0.25509 -0.05198
 C290 C 0.49152 0.26226 -0.07537
 C291 C 0.51692 0.26221 -0.07526
 C292 C 0.52410 0.25500 -0.05182
 N293 N 0.50398 0.25059 -0.03764
 C294 C 0.54882 0.25111 -0.04432
 C295 C 0.55567 0.24694 -0.01951
 C296 C 0.57851 0.23804 -0.01198
 C297 C 0.57837 0.23811 0.01336
 C298 C 0.55545 0.24705 0.02062
 N299 N 0.54175 0.25243 0.00047
 C300 C 0.54833 0.25136 0.04532
 H301 H 0.52776 0.26733 0.09144
 H302 H 0.47892 0.26736 0.09129
 H303 H 0.52505 0.26193 0.00037
 H304 H 0.41381 0.23237 0.02434
 H305 H 0.41410 0.23224 -0.02425
 H306 H 0.47991 0.26692 -0.09092
 H307 H 0.52875 0.26682 -0.09072
 H308 H 0.59350 0.23238 0.02510
 H309 H 0.48254 0.26226 0.00022
 H310 H 0.59377 0.23222 -0.02353
 C311 C 0.57333 0.73654 -0.01120
 C312 C 0.57331 0.73659 0.01408
 C313 C 0.54981 0.74379 0.02135
 N314 N 0.53551 0.74819 0.00141
 C315 C 0.54983 0.74370 -0.01850
 C316 C 0.54235 0.74769 0.04598
 C317 C 0.51745 0.75172 0.05290
 C318 C 0.50993 0.76062 0.07565
 C319 C 0.48449 0.76035 0.07567
 C320 C 0.47715 0.75129 0.05292
 N321 N 0.49735 0.74604 0.03916
 C322 C 0.45233 0.74668 0.04605
 C323 C 0.44488 0.74295 0.02140
 C324 C 0.42144 0.73552 0.01412
 C325 C 0.42143 0.73568 -0.01117
 C326 C 0.44488 0.74318 -0.01847
 N327 N 0.45915 0.74769 0.00147
 C328 C 0.45232 0.74717 -0.04311
 C329 C 0.47720 0.75153 -0.05004
 C330 C 0.48465 0.76059 -0.07280
 C331 C 0.51010 0.76067 -0.07282
 C332 C 0.51752 0.75166 -0.05006
 N333 N 0.49736 0.74608 -0.03630
 C334 C 0.54239 0.74748 -0.04315
 H335 H 0.58891 0.73189 -0.02285
 H336 H 0.58886 0.73196 0.02575
 H337 H 0.49736 0.73646 -0.01971
 H338 H 0.52157 0.76653 0.09077
 H339 H 0.47273 0.76602 0.09079
 H340 H 0.40592 0.73060 0.02579
 H341 H 0.40592 0.73089 -0.02284
 H342 H 0.52181 0.76656 -0.08793
 H343 H 0.49742 0.73646 0.02258
 H344 H 0.47297 0.76641 -0.08791
 C345 C 0.07574 0.51183 0.25469
 C346 C 0.07538 0.48650 0.25381
 C347 C 0.05162 0.47970 0.24693
 N348 N 0.03752 0.50001 0.24347
 C349 C 0.05217 0.51967 0.24841
 C350 C 0.04370 0.45514 0.24284
 C351 C 0.01871 0.44849 0.23870
 C352 C 0.01097 0.42557 0.23021
 C353 C -0.01447 0.42588 0.23010
 C354 C -0.02161 0.44900 0.23845
 N355 N -0.00129 0.46264 0.24372
 C356 C -0.04643 0.45633 0.24227
 C357 C -0.05374 0.48122 0.24518
 C358 C -0.07755 0.48891 0.25081
 C359 C -0.07717 0.51426 0.25051
 C360 C -0.05310 0.52121 0.24498
 N361 N -0.03886 0.50100 0.24150
 C362 C -0.04498 0.54585 0.24208
 C363 C -0.01985 0.55278 0.23965
 C364 C -0.01174 0.57624 0.23313
 C365 C 0.01368 0.57593 0.23442
 C366 C 0.02040 0.55228 0.24162
 N367 N -0.00015 0.53835 0.24495
 C368 C 0.04497 0.54464 0.24617
 H369 H 0.09159 0.52318 0.25931
 H370 H 0.09087 0.47448 0.25777
 H371 H -0.00077 0.52101 0.25312
 H372 H 0.02245 0.41010 0.22487
 H373 H -0.02635 0.41074 0.22459
 H374 H -0.09359 0.47750 0.25456
 H375 H -0.09284 0.52621 0.25393
 H376 H 0.02583 0.59140 0.23061
 H377 H -0.00115 0.47944 0.25293
 H378 H -0.02296 0.59203 0.22821
 C379 C -0.01395 0.57802 0.74981
 C380 C 0.01139 0.57849 0.75103
 C381 C 0.01916 0.55407 0.75129
 N382 N -0.00064 0.53880 0.75043
 C383 C -0.02092 0.55334 0.74956
 C384 C 0.04424 0.54652 0.75168
 C385 C 0.05228 0.52157 0.75136
 C386 C 0.07673 0.51449 0.74806
 C387 C 0.07712 0.48914 0.74822
 C388 C 0.05290 0.48124 0.75158
 N389 N 0.03791 0.50116 0.75387
 C390 C 0.04561 0.45605 0.75206
 C391 C 0.02081 0.44761 0.75111
 C392 C 0.01385 0.42293 0.75048
 C393 C -0.01143 0.42248 0.74856
 C394 C -0.01920 0.44689 0.74840
 N395 N 0.00056 0.46217 0.74990
 C396 C -0.04425 0.45442 0.74768
 C397 C -0.05232 0.47933 0.74855
 C398 C -0.07674 0.48629 0.75225
 C399 C -0.07715 0.51163 0.75276
 C400 C -0.05297 0.51965 0.74931
 N401 N -0.03799 0.49981 0.74635
 C402 C -0.04573 0.54487 0.74922
 H403 H -0.02584 0.59408 0.74926
 H404 H 0.02275 0.59498 0.75155
 H405 H -0.01948 0.50023 0.74135
 H406 H 0.09268 0.52634 0.74535
 H407 H 0.09342 0.47782 0.74564
 H408 H 0.02572 0.40685 0.75115
 H409 H -0.02275 0.40599 0.74757
 H410 H -0.09344 0.52285 0.75577
 H411 H 0.01933 0.50081 0.75856
 H412 H -0.09265 0.47435 0.75482
 C413 C 0.41998 0.23305 0.10036
 C414 C 0.40120 0.25085 0.09970
 C415 C 0.40128 0.26894 0.08121
 C416 C 0.42005 0.26923 0.06344
 C417 C 0.33062 0.24949 0.16662
 C418 C 0.43874 0.23331 0.08259
 C419 C 0.38184 0.25051 0.11795
 C420 C 0.36564 0.25020 0.13326
 C421 C 0.34672 0.24982 0.15123
 C422 C 0.43893 0.25143 0.06404
 H423 H 0.42008 0.21895 0.11456
 H424 H 0.38681 0.28276 0.08051
 H425 H 0.41988 0.28329 0.04921
 H426 H 0.45307 0.21934 0.08319
 C427 C 0.58025 0.73078 0.10225
 C428 C 0.59864 0.74907 0.10176
 C429 C 0.59845 0.76707 0.08318
 C430 C 0.58003 0.76673 0.06511
 C431 C 0.66930 0.75026 0.16847
 C432 C 0.56182 0.73041 0.08418
 C433 C 0.61781 0.74930 0.12018
 C434 C 0.63396 0.74955 0.13550
 C435 C 0.65298 0.74991 0.15333
 C436 C 0.56167 0.74832 0.06542
 H437 H 0.58022 0.71676 0.11653
 H438 H 0.61258 0.78131 0.08261
 H439 H 0.58008 0.78075 0.05084
 H440 H 0.54777 0.71610 0.08467
 C441 C 0.58669 0.23183 -0.09987
 C442 C 0.60539 0.24980 -0.09995
 C443 C 0.60567 0.26814 -0.08177
 C444 C 0.58729 0.26854 -0.06360
 C445 C 0.67296 0.24897 -0.16984
 C446 C 0.56832 0.23220 -0.08172
 C447 C 0.62411 0.24953 -0.11885
 C448 C 0.63964 0.24931 -0.13481
 C449 C 0.65767 0.24909 -0.15365
 C450 C 0.56846 0.25060 -0.06349
 H451 H 0.58628 0.21759 -0.11388
 H452 H 0.62002 0.28217 -0.08170
 H453 H 0.58761 0.28289 -0.04971
 H454 H 0.55396 0.21820 -0.08186
 C455 C 0.41526 0.73021 -0.09992
 C456 C 0.39684 0.74840 -0.09972
 C457 C 0.39650 0.76613 -0.08095
 C458 C 0.41453 0.76572 -0.06248
 C459 C 0.32896 0.75027 -0.16922
 C460 C 0.43329 0.72978 -0.08146
 C461 C 0.37831 0.74890 -0.11877
 C462 C 0.36278 0.74934 -0.13471
 C463 C 0.34455 0.74986 -0.15334
 C464 C 0.43304 0.74753 -0.06261
 H465 H 0.41568 0.71639 -0.11434
 H466 H 0.38234 0.78027 -0.08061
 H467 H 0.41412 0.77959 -0.04811
 H468 H 0.44743 0.71561 -0.08180
 C469 C 0.08029 0.39785 0.25966
 C470 C 0.09868 0.39796 0.24144
 C471 C 0.09897 0.41665 0.22354
 C472 C 0.08100 0.43521 0.22393
 C473 C 0.16693 0.32873 0.24218
 C474 C 0.06237 0.41645 0.26011
 C475 C 0.11735 0.37902 0.24128
 C476 C 0.13300 0.36317 0.24138
 C477 C 0.15131 0.34460 0.24173
 C478 C 0.06267 0.43531 0.24230
 H479 H 0.07985 0.38343 0.27353
 H480 H 0.11307 0.41688 0.20933
 H481 H 0.08136 0.44952 0.20995
 H482 H 0.04828 0.41619 0.27433
 C483 C 0.08702 0.59722 0.72883
 C484 C 0.10040 0.60272 0.75023
 C485 C 0.09539 0.58984 0.77210
 C486 C 0.07704 0.57157 0.77258
 C487 C 0.16912 0.67183 0.74907
 C488 C 0.06868 0.57894 0.72929
 C489 C 0.11923 0.62160 0.74978
 C490 C 0.13497 0.63744 0.74948
 C491 C 0.15338 0.65599 0.74921
 C492 C 0.06355 0.56608 0.75120
 H493 H 0.09077 0.60703 0.71181
 H494 H 0.10567 0.59391 0.78874
 H495 H 0.07335 0.56169 0.78957
 H496 H 0.05849 0.57477 0.71263
 C497 C -0.09390 0.58995 0.21864
 C498 C -0.09979 0.60294 0.24018
 C499 C -0.08767 0.59728 0.26228
 C500 C -0.06975 0.57870 0.26288
 C501 C -0.16741 0.67275 0.23998
 C502 C -0.07604 0.57128 0.21925
 C503 C -0.11835 0.62198 0.23969
 C504 C -0.13387 0.63795 0.23954
 C505 C -0.15199 0.65669 0.23965
 C506 C -0.06390 0.56560 0.24138
 H507 H -0.10311 0.59423 0.20144
 H508 H -0.09211 0.60721 0.27904
 H509 H -0.06052 0.57443 0.28007
 H510 H -0.07161 0.56132 0.20252
 C511 C -0.09491 0.41155 0.72529
 C512 C -0.10026 0.39808 0.74673
 C513 C -0.08723 0.40302 0.76848
 C514 C -0.06895 0.42135 0.76882
 C515 C -0.16913 0.32914 0.74599
 C516 C -0.07662 0.42987 0.72560
 C517 C -0.11912 0.37924 0.74642
 C518 C -0.13490 0.36346 0.74621
 C519 C -0.15337 0.34495 0.74605
 C520 C -0.06353 0.43484 0.74736
 H521 H -0.10487 0.40788 0.70837
 H522 H -0.09121 0.39272 0.78517
 H523 H -0.05901 0.42506 0.78574
 H524 H -0.07263 0.44019 0.70894
 C525 C 0.26771 0.08515 0.39909
 C526 C 0.24940 0.10344 0.39903
 C527 C 0.23145 0.10378 0.41768
 C528 C 0.23178 0.08588 0.43629
 C529 C 0.24824 0.17006 0.32830
 C530 C 0.26805 0.06724 0.41768
 C531 C 0.24900 0.12176 0.37978
 C532 C 0.24871 0.13703 0.36358
 C533 C 0.24843 0.15486 0.34456
 C534 C 0.25010 0.06750 0.43641
 H535 H 0.28167 0.08471 0.38475
 H536 H 0.21719 0.11783 0.41780
 H537 H 0.21774 0.08626 0.45055
 H538 H 0.28229 0.05318 0.41752
 C539 C 0.77072 0.08414 0.59543
 C540 C 0.74920 0.09770 0.60026
 C541 C 0.72746 0.09261 0.58713
 C542 C 0.72726 0.07406 0.56922
 C543 C 0.75010 0.16763 0.66752
 C544 C 0.77054 0.06559 0.57751
 C545 C 0.74941 0.11686 0.61863
 C546 C 0.74961 0.13290 0.63402
 C547 C 0.74987 0.15166 0.65207
 C548 C 0.74879 0.06046 0.56434
 H549 H 0.78763 0.08793 0.60547
 H550 H 0.71071 0.10298 0.59073
 H551 H 0.71038 0.07030 0.55914
 H552 H 0.78730 0.05527 0.57386
 C553 C 0.23234 -0.09758 0.58313
 C554 C 0.25030 -0.09733 0.60172
 C555 C 0.26839 -0.07874 0.60198
 C556 C 0.26858 -0.06053 0.58367
 C557 C 0.24998 -0.16683 0.66964
 C558 C 0.23250 -0.07938 0.56483
 C559 C 0.25025 -0.11625 0.62039
 C560 C 0.25018 -0.13217 0.63596
 C561 C 0.25009 -0.15086 0.65413
 C562 C 0.25069 -0.06079 0.56493
 H563 H 0.21824 -0.11185 0.58278
 H564 H 0.28236 -0.07837 0.61628
 H565 H 0.28270 -0.04629 0.58402
 H566 H 0.21849 -0.07974 0.55057
 C567 C 0.77400 -0.09883 0.41146
 C568 C 0.75221 -0.10412 0.39849
 C569 C 0.73042 -0.09126 0.40401
 C570 C 0.73043 -0.07311 0.42231
 C571 C 0.75211 -0.17106 0.32823
 C572 C 0.77404 -0.08066 0.42976
 C573 C 0.75224 -0.12255 0.37939
 C574 C 0.75222 -0.13790 0.36330
 C575 C 0.75217 -0.15581 0.34440
 C576 C 0.75228 -0.06764 0.43519
 H577 H 0.79095 -0.10868 0.40737
 H578 H 0.71346 -0.09523 0.39413
 H579 H 0.71350 -0.06324 0.42641
 H580 H 0.79099 -0.07665 0.43963
 C581 C 0.59851 0.76611 -0.08091
 C582 C 0.59837 0.74803 -0.09935
 C583 C 0.57982 0.72991 -0.09953
 C584 C 0.56154 0.72978 -0.08128
 C585 C 0.66767 0.74800 -0.16751
 C586 C 0.58023 0.76601 -0.06266
 C587 C 0.61731 0.74801 -0.11801
 C588 C 0.63320 0.74798 -0.13362
 C589 C 0.65180 0.74796 -0.15189
 C590 C 0.56168 0.74778 -0.06267
 H591 H 0.61275 0.78024 -0.08063
 H592 H 0.57954 0.71585 -0.11372
 H593 H 0.54734 0.71561 -0.08154
 H594 H 0.58051 0.78010 -0.04850
 C595 C 0.42087 0.23283 -0.10013
 C596 C 0.40226 0.25081 -0.09975
 C597 C 0.40230 0.26896 -0.08137
 C598 C 0.42090 0.26917 -0.06349
 C599 C 0.33206 0.25019 -0.16686
 C600 C 0.43947 0.23300 -0.08223
 C601 C 0.38310 0.25064 -0.11815
 C602 C 0.36702 0.25051 -0.13353
 C603 C 0.34816 0.25035 -0.15150
 C604 C 0.43963 0.25122 -0.06383
 H605 H 0.42097 0.21866 -0.11422
 H606 H 0.38796 0.28292 -0.08087
 H607 H 0.42074 0.28330 -0.04938
 H608 H 0.45368 0.21892 -0.08264
 C609 C 0.39686 0.76459 0.08492
 C610 C 0.39759 0.74655 0.10344
 C611 C 0.41614 0.72851 0.10313
 C612 C 0.43386 0.72846 0.08434
 C613 C 0.33153 0.74687 0.17472
 C614 C 0.41458 0.76456 0.06612
 C615 C 0.37942 0.74663 0.12284
 C616 C 0.36425 0.74669 0.13915
 C617 C 0.34658 0.74679 0.15831
 C618 C 0.43317 0.74648 0.06570
 H619 H 0.38265 0.77869 0.08506
 H620 H 0.41694 0.71454 0.11743
 H621 H 0.44815 0.71445 0.08432
 H622 H 0.41393 0.77870 0.05198
 C623 C 0.60448 0.26915 0.08322
 C624 C 0.60387 0.25114 0.10178
 C625 C 0.58538 0.23297 0.10164
 C626 C 0.56743 0.23290 0.08312
 C627 C 0.66868 0.25277 0.17396
 C628 C 0.58652 0.26911 0.06468
 C629 C 0.62191 0.25154 0.12125
 C630 C 0.63681 0.25189 0.13775
 C631 C 0.65405 0.25234 0.15723
 C632 C 0.56778 0.25108 0.06463
 H633 H 0.61872 0.28329 0.08317
 H634 H 0.58476 0.21895 0.11591
 H635 H 0.55318 0.21878 0.08324
 H636 H 0.58707 0.28322 0.05051
 C637 C -0.08965 0.59400 0.77269
 C638 C -0.10330 0.59931 0.75141
 C639 C -0.09819 0.58673 0.72945
 C640 C -0.07944 0.56896 0.72874
 C641 C -0.17252 0.66753 0.75296
 C642 C -0.07091 0.57623 0.77200
 C643 C -0.12241 0.61778 0.75207
 C644 C -0.13832 0.63336 0.75253
 C645 C -0.15683 0.65173 0.75288
 C646 C -0.06564 0.56371 0.74999
 H647 H -0.09347 0.60361 0.78977
 H648 H -0.10865 0.59068 0.71289
 H649 H -0.07563 0.55934 0.71167
 H650 H -0.06047 0.57225 0.78856
 C651 C -0.10270 0.41765 0.22595
 C652 C -0.10267 0.40024 0.24509
 C653 C -0.08418 0.40109 0.26313
 C654 C -0.06580 0.41927 0.26208
 C655 C -0.17306 0.33328 0.25228
 C656 C -0.08427 0.43582 0.22484
 C657 C -0.12179 0.38173 0.24652
 C658 C -0.13782 0.36628 0.24806
 C659 C -0.15673 0.34837 0.25023
 C660 C -0.06578 0.43681 0.24298
 H661 H -0.11700 0.41724 0.21197
 H662 H -0.08406 0.38779 0.27807
 H663 H -0.05170 0.41984 0.27624
 H664 H -0.08448 0.44921 0.20998
 C665 C 0.09693 0.41415 0.77447
 C666 C 0.10291 0.40131 0.75287
 C667 C 0.09019 0.40645 0.73098
 C668 C 0.07156 0.42433 0.73067
 C669 C 0.17147 0.33241 0.75377
 C670 C 0.07828 0.43202 0.77418
 C671 C 0.12189 0.38269 0.75321
 C672 C 0.13766 0.36697 0.75344
 C673 C 0.15597 0.34840 0.75366
 C674 C 0.06547 0.43716 0.75230
 H675 H 0.10661 0.41028 0.79151
 H676 H 0.09463 0.39658 0.71419
 H677 H 0.06180 0.42814 0.71367
 H678 H 0.07373 0.44179 0.79099
 C679 C 0.09876 0.58661 0.23019
 C680 C 0.10141 0.60007 0.25206
 C681 C 0.08543 0.59553 0.27193
 C682 C 0.06691 0.57756 0.26994
 C683 C 0.17193 0.66700 0.25773
 C684 C 0.08031 0.56857 0.22822
 C685 C 0.12058 0.61847 0.25405
 C686 C 0.13672 0.63381 0.25546
 C687 C 0.15569 0.65172 0.25681
 C688 C 0.06435 0.56393 0.24811
 H689 H 0.11097 0.59003 0.21469
 H690 H 0.08732 0.60583 0.28894
 H691 H 0.05467 0.57413 0.28541
 H692 H 0.07843 0.55824 0.21124
 C693 C 0.72778 -0.09227 0.59437
 C694 C 0.74945 -0.10512 0.60033
 C695 C 0.77153 -0.09978 0.58783
 C696 C 0.77200 -0.08152 0.56957
 C697 C 0.74835 -0.17292 0.66994
 C698 C 0.72822 -0.07402 0.57611
 C699 C 0.74906 -0.12371 0.61933
 C700 C 0.74878 -0.13923 0.63528
 C701 C 0.74851 -0.15740 0.65398
 C702 C 0.75038 -0.06845 0.56374
 H703 H 0.71059 -0.09629 0.60388
 H704 H 0.78839 -0.10965 0.59225
 H705 H 0.78918 -0.07747 0.56006
 H706 H 0.71138 -0.06414 0.57166
 C707 C 0.26835 -0.07914 0.40003
 C708 C 0.25028 -0.09774 0.40051
 C709 C 0.23226 -0.09786 0.41907
 C710 C 0.23234 -0.07950 0.43716
 C711 C 0.25110 -0.16835 0.33404
 C712 C 0.26846 -0.06077 0.41812
 C713 C 0.25041 -0.11688 0.38214
 C714 C 0.25057 -0.13303 0.36688
 C715 C 0.25083 -0.15204 0.34913
 C716 C 0.25051 -0.06089 0.43686
 H717 H 0.28240 -0.07891 0.38576
 H718 H 0.21821 -0.11218 0.41961
 H719 H 0.21832 -0.07980 0.45145
 H720 H 0.28261 -0.04656 0.41766
 C721 C 0.72798 0.09356 0.41337
 C722 C 0.74977 0.09911 0.40045
 C723 C 0.77140 0.08569 0.40523
 C724 C 0.77125 0.06684 0.42288
 C725 C 0.74959 0.17058 0.33458
 C726 C 0.72780 0.07470 0.43100
 C727 C 0.74991 0.11861 0.38238
 C728 C 0.74993 0.13499 0.36729
 C729 C 0.74983 0.15418 0.34964
 C730 C 0.74943 0.06126 0.43585
 H731 H 0.71115 0.10384 0.40984
 H732 H 0.78836 0.08985 0.39536
 H733 H 0.78808 0.05661 0.42649
 H734 H 0.71087 0.07057 0.44091
 C735 C 0.26882 0.08510 0.60180
 C736 C 0.25062 0.10350 0.60198
 C737 C 0.23246 0.10387 0.58358
 C738 C 0.23250 0.08594 0.56506
 C739 C 0.25036 0.17076 0.67187
 C740 C 0.26888 0.06717 0.58329
 C741 C 0.25053 0.12191 0.62108
 C742 C 0.25046 0.13732 0.63710
 C743 C 0.25040 0.15535 0.65586
 C744 C 0.25077 0.06752 0.56476
 H745 H 0.28292 0.08461 0.61597
 H746 H 0.21825 0.11798 0.58359
 H747 H 0.21828 0.08633 0.55102
 H748 H 0.28303 0.05301 0.58336
   
