data_POSCAR
  _audit_creation_date              2014-09-24
  _audit_creation_method            'ToBaCCo'
  _symmetry_space_group_name_H-M    'P1'
  _symmetry_Int_Tables_number       1
  _symmetry_cell_setting            triclinic
  loop_
  _symmetry_equiv_pos_as_xyz
 x,y,z
_cell_length_a 54.0700
_cell_length_b 54.3982
_cell_length_c 22.3557
_cell_angle_alpha 89.959200
_cell_angle_beta 90.345900
_cell_angle_gamma 120.418800
loop_
  _atom_site_label
  _atom_site_type_symbol
  _atom_site_fract_x
  _atom_site_fract_y
  _atom_site_fract_z
C1 C 0.17774 0.47749 0.48525
 C2 C 0.19179 0.47724 0.43277
 C3 C 0.21309 0.46975 0.43763
 C4 C 0.21912 0.46086 0.49257
 C5 C 0.20300 0.45948 0.54334
 C6 C 0.18332 0.46920 0.54096
 C7 C 0.24328 0.45475 0.49733
 C8 C 0.25778 0.45804 0.55231
 C9 C 0.28187 0.45472 0.55570
 C10 C 0.29193 0.44847 0.50362
 C11 C 0.27854 0.44593 0.44848
 C12 C 0.25374 0.44796 0.44589
 H13 H 0.16022 0.48164 0.48214
 H14 H 0.22601 0.47250 0.39884
 H15 H 0.20677 0.45223 0.58552
 H16 H 0.25170 0.46485 0.59219
 H17 H 0.31122 0.44707 0.50547
 H18 H 0.24330 0.44482 0.40291
 C19 C 0.55347 -0.28653 0.51180
 C20 C 0.55564 -0.27444 0.45495
 C21 C 0.55245 -0.25032 0.45119
 C22 C 0.54480 -0.23994 0.50149
 C23 C 0.54040 -0.25430 0.55647
 C24 C 0.54597 -0.27677 0.56291
 C25 C 0.54178 -0.21401 0.49684
 C26 C 0.54578 -0.19679 0.54762
 C27 C 0.54265 -0.17270 0.54384
 C28 C 0.53715 -0.16481 0.48780
 C29 C 0.53399 -0.18095 0.43678
 C30 C 0.53532 -0.20590 0.44151
 H31 H 0.55436 -0.30587 0.51578
 H32 H 0.55698 -0.23906 0.40924
 H33 H 0.53367 -0.24733 0.59510
 H34 H 0.55189 -0.20154 0.59026
 H35 H 0.53469 -0.14632 0.48356
 H36 H 0.53139 -0.21863 0.40164
 C37 C 1.28145 0.83846 0.51978
 C38 C 1.27482 0.82585 0.46252
 C39 C 1.24982 0.79883 0.45628
 C40 C 1.23124 0.78498 0.50488
 C41 C 1.23889 0.79840 0.56141
 C42 C 1.26421 0.82459 0.56914
 C43 C 1.20486 0.75609 0.49677
 C44 C 1.19229 0.73723 0.54558
 C45 C 1.16854 0.70952 0.53750
 C46 C 1.15765 0.70075 0.47922
 C47 C 1.16949 0.71907 0.43054
 C48 C 1.19254 0.74668 0.43943
 H49 H 1.30019 0.85924 0.52704
 H50 H 1.24594 0.78770 0.41427
 H51 H 1.22553 0.78882 0.60009
 H52 H 1.20196 0.74319 0.58950
 H53 H 1.13927 0.67974 0.47119
 H54 H 1.20048 0.76058 0.40102
 C55 C 0.83833 0.54052 0.51378
 C56 C 0.82553 0.53732 0.45774
 C57 C 0.79952 0.53701 0.45288
 C58 C 0.78686 0.54174 0.50357
 C59 C 0.80023 0.54475 0.55982
 C60 C 0.82529 0.54326 0.56515
 C61 C 0.76012 0.54365 0.49776
 C62 C 0.74223 0.53917 0.54754
 C63 C 0.71732 0.54134 0.54275
 C64 C 0.71014 0.54729 0.48599
 C65 C 0.72687 0.55076 0.43579
 C66 C 0.75203 0.54971 0.44205
 H67 H 0.85783 0.53956 0.51764
 H68 H 0.78956 0.53305 0.40920
 H69 H 0.79170 0.54852 0.60010
 H70 H 0.74662 0.53223 0.58942
 H71 H 0.69152 0.54953 0.47993
 H72 H 0.76509 0.55387 0.40277
 C73 C 0.47345 0.30273 0.50289
 C74 C 0.46214 0.28624 0.45113
 C75 C 0.45383 0.25734 0.45279
 C76 C 0.45778 0.24489 0.50489
 C77 C 0.46742 0.26163 0.55760
 C78 C 0.47519 0.29056 0.55709
 C79 C 0.45331 0.21525 0.50247
 C80 C 0.44908 0.19875 0.55470
 C81 C 0.44757 0.17198 0.55173
 C82 C 0.44625 0.16045 0.49454
 C83 C 0.45084 0.17647 0.44284
 C84 C 0.45541 0.20401 0.44712
 H85 H 0.47960 0.32501 0.50141
 H86 H 0.44416 0.24475 0.41296
 H87 H 0.47079 0.25308 0.59843
 H88 H 0.44860 0.20740 0.59767
 H89 H 0.44241 0.13901 0.48945
 H90 H 0.46093 0.21650 0.40662
 C91 C 0.70161 0.16103 0.49196
 C92 C 0.71869 0.17197 0.44116
 C93 C 0.74595 0.19636 0.44625
 C94 C 0.75599 0.21080 0.50158
 C95 C 0.73760 0.20007 0.55148
 C96 C 0.71069 0.17499 0.54732
 C97 C 0.78543 0.23673 0.50726
 C98 C 0.79982 0.24505 0.56315
 C99 C 0.82774 0.26895 0.56870
 C100 C 0.84190 0.28340 0.51616
 C101 C 0.82790 0.27595 0.46067
 C102 C 0.79960 0.25329 0.45669
 H103 H 0.68087 0.14174 0.48784
 H104 H 0.75917 0.20347 0.40674
 H105 H 0.74365 0.21141 0.59361
 H106 H 0.78991 0.23234 0.60243
 H107 H 0.86308 0.30218 0.51831
 H108 H 0.78895 0.24882 0.41366
 N109 N 0.97304 0.52311 0.07383
 N110 N 0.95309 0.52876 0.09086
 N111 N 1.03645 0.54024 0.09374
 N112 N 1.05791 0.55730 0.12926
 N113 N 1.03220 0.55497 0.05266
 N114 N 1.05031 0.58255 0.05999
 N115 N 0.97694 0.50799 0.11458
 N116 N 0.95964 0.50277 0.16025
 C117 C 0.94475 0.51571 0.14472
 C118 C 1.06662 0.58358 0.10723
 N119 N 1.03758 0.47045 0.05698
 N120 N 1.05964 0.46639 0.06280
 N121 N 0.98017 0.45674 0.11683
 N122 N 0.96240 0.44416 0.16161
 N123 N 0.97829 0.43780 0.07788
 N124 N 0.95931 0.41176 0.09537
 N125 N 1.03960 0.48950 0.09578
 N126 N 1.06324 0.49941 0.12786
 Mn127 Mn 1.00825 0.49856 0.10579
 C128 C 1.07568 0.48504 0.10669
 C129 C 0.94949 0.41612 0.14761
 N130 N 1.02144 0.54770 -0.07496
 N131 N 1.04008 0.57355 -0.09440
 N132 N 0.95867 0.49659 -0.09145
 N133 N 0.93738 0.49089 -0.12871
 N134 N 0.96217 0.51639 -0.05304
 N135 N 0.94349 0.52472 -0.06354
 N136 N 1.01768 0.52838 -0.11486
 N137 N 1.03337 0.54046 -0.16255
 Mn138 Mn 0.99729 0.53582 -0.00043
 C139 C 1.04739 0.56857 -0.14912
 C140 C 0.92777 0.50821 -0.11007
 N141 N 0.96733 0.43048 -0.04956
 N142 N 0.95028 0.40279 -0.05850
 N143 N 1.02076 0.47722 -0.11227
 N144 N 1.03671 0.48164 -0.15981
 N145 N 1.02643 0.46351 -0.07107
 N146 N 1.04649 0.45825 -0.08969
 N147 N 0.96170 0.44506 -0.08873
 N148 N 0.94049 0.42773 -0.12447
 Mn149 Mn 1.00252 0.45031 0.00362
 Mn150 Mn 0.98956 0.48671 -0.10216
 Cl151 Cl 0.99938 0.49283 0.00166
 C152 C 0.93322 0.40145 -0.10457
 C153 C 1.05278 0.46990 -0.14517
 N154 N 0.47925 0.44477 0.05967
 N155 N 0.47145 0.41815 0.07372
 N156 N 0.46489 0.48943 0.10988
 N157 N 0.45085 0.49263 0.15446
 N158 N 0.44683 0.47153 0.06991
 N159 N 0.42009 0.46191 0.08652
 N160 N 0.49743 0.46248 0.09967
 N161 N 0.50270 0.44852 0.14110
 C162 C 0.48678 0.42095 0.12417
 C163 C 0.42294 0.47554 0.13897
 N164 N 0.53359 0.56287 0.06838
 N165 N 0.54169 0.58912 0.08572
 N166 N 0.54934 0.51680 0.09819
 N167 N 0.56527 0.51205 0.13591
 N168 N 0.56538 0.53537 0.05740
 N169 N 0.59276 0.54417 0.06708
 N170 N 0.51747 0.54439 0.10925
 N171 N 0.51437 0.55761 0.15547
 Mn172 Mn 0.50725 0.50331 0.10468
 C173 C 0.52919 0.58545 0.13990
 C174 C 0.59226 0.52902 0.11566
 N175 N 0.44295 0.47360 -0.05892
 N176 N 0.41561 0.46551 -0.06763
 N177 N 0.49100 0.46589 -0.11111
 N178 N 0.49746 0.45399 -0.15481
 N179 N 0.47601 0.44704 -0.06991
 N180 N 0.47194 0.42166 -0.08461
 N181 N 0.45908 0.49318 -0.09794
 N182 N 0.44344 0.49925 -0.13346
 Mn183 Mn 0.46100 0.45887 0.00010
 C184 C 0.41643 0.48211 -0.11388
 C185 C 0.48563 0.42649 -0.13782
 N186 N 0.56147 0.53699 -0.07193
 N187 N 0.58758 0.54262 -0.08614
 N188 N 0.51088 0.54759 -0.09921
 N189 N 0.50363 0.56186 -0.13609
 N190 N 0.52982 0.56482 -0.05983
 N191 N 0.53616 0.59136 -0.06920
 N192 N 0.54271 0.51992 -0.11182
 N193 N 0.55528 0.51313 -0.15351
 Mn194 Mn 0.54788 0.55027 -0.00156
 Mn195 Mn 0.50085 0.50669 -0.10542
 Cl196 Cl 0.50423 0.50477 -0.00041
 C197 C 0.58321 0.52734 -0.13717
 C198 C 0.51930 0.58909 -0.11641
 N199 N 0.43521 -0.02956 0.07403
 N200 N 0.40897 -0.04914 0.09013
 N201 N 0.48500 0.03133 0.10606
 N202 N 0.49201 0.05198 0.14524
 N203 N 0.46597 0.03018 0.06767
 N204 N 0.45938 0.04990 0.07993
 N205 N 0.45417 -0.02858 0.11237
 N206 N 0.44153 -0.04759 0.15492
 C207 C 0.41338 -0.06043 0.14044
 C208 C 0.47608 0.06358 0.12800
 N209 N 0.55378 0.02870 0.05860
 N210 N 0.58122 0.04695 0.06947
 N211 N 0.50652 -0.02947 0.10639
 N212 N 0.50011 -0.04945 0.14669
 N213 N 0.52225 -0.03108 0.06378
 N214 N 0.52727 -0.05209 0.07446
 N215 N 0.53775 0.03051 0.10026
 N216 N 0.55374 0.05028 0.13986
 Mn217 Mn 0.49592 0.00103 0.10676
 C218 C 0.58076 0.06062 0.11979
 C219 C 0.51307 -0.06349 0.12624
 N220 N 0.46149 0.02729 -0.06089
 N221 N 0.45523 0.04739 -0.07250
 N222 N 0.44676 -0.03365 -0.09780
 N223 N 0.43077 -0.05360 -0.13711
 N224 N 0.43076 -0.03239 -0.05531
 N225 N 0.40341 -0.05115 -0.06516
 N226 N 0.47792 0.02643 -0.10280
 N227 N 0.48365 0.04609 -0.14348
 Mn228 Mn 0.44805 -0.00117 0.00644
 C229 C 0.46955 0.05915 -0.12395
 C230 C 0.40383 -0.06455 -0.11585
 N231 N 0.51824 -0.03380 -0.06585
 N232 N 0.52709 -0.05131 -0.08325
 N233 N 0.53054 0.02572 -0.10873
 N234 N 0.54339 0.04574 -0.14939
 N235 N 0.54930 0.02604 -0.07071
 N236 N 0.57558 0.04613 -0.08507
 N237 N 0.49971 -0.03412 -0.10462
 N238 N 0.49554 -0.05175 -0.14901
 Mn239 Mn 0.53616 -0.00259 -0.00356
 Mn240 Mn 0.48870 -0.00392 -0.10392
 Cl241 Cl 0.49221 -0.00170 0.00139
 C242 C 0.51232 -0.06274 -0.13478
 C243 C 0.57143 0.05840 -0.13400
 C244 C 1.15971 0.48964 0.26819
 C245 C 1.17295 0.47311 0.26988
 C246 C 1.18512 0.47031 0.32318
 C247 C 1.18374 0.48346 0.37661
 C248 C 1.17204 0.50147 0.37315
 C249 C 1.16017 0.50438 0.32009
 C250 C 1.14307 0.48979 0.21507
 C251 C 1.14243 0.51460 0.20044
 C252 C 1.12163 0.51330 0.16133
 C253 C 1.10148 0.48736 0.13483
 C254 C 1.10391 0.46316 0.14413
 C255 C 1.12449 0.46432 0.18434
 H256 H 1.19362 0.45608 0.32304
 H257 H 1.17188 0.51348 0.41155
 H258 H 1.12033 0.53232 0.15421
 H259 H 1.08846 0.44289 0.12433
 H260 H 1.15014 0.51727 0.32070
 H261 H 1.15694 0.53471 0.22203
 H262 H 1.17316 0.46169 0.23042
 H263 H 1.12433 0.44480 0.19474
 C264 C 0.55430 0.67615 0.30701
 C265 C 0.54461 0.69550 0.29988
 C266 C 0.54685 0.71342 0.34723
 C267 C 0.55871 0.71219 0.40303
 C268 C 0.57110 0.69475 0.40688
 C269 C 0.56861 0.67681 0.35989
 C270 C 0.54712 0.65332 0.26261
 C271 C 0.53359 0.62489 0.28192
 C272 C 0.52708 0.60292 0.24151
 C273 C 0.53434 0.60888 0.18095
 C274 C 0.54753 0.63730 0.16121
 C275 C 0.55362 0.65937 0.20173
 H276 H 0.53687 0.72619 0.34122
 H277 H 0.58246 0.69444 0.44662
 H278 H 0.51691 0.58126 0.25807
 H279 H 0.55330 0.64244 0.11468
 H280 H 0.57710 0.66269 0.36557
 H281 H 0.52802 0.61969 0.32853
 H282 H 0.53358 0.69540 0.25919
 H283 H 0.56399 0.68116 0.18593
 C284 C 0.33040 -0.13238 0.31527
 C285 C 0.30113 -0.15164 0.30543
 C286 C 0.28285 -0.16560 0.35356
 C287 C 0.29329 -0.16044 0.41317
 C288 C 0.32284 -0.14102 0.42215
 C289 C 0.34096 -0.12726 0.37415
 C290 C 0.35016 -0.11713 0.26506
 C291 C 0.37808 -0.11277 0.26591
 C292 C 0.39813 -0.09530 0.22362
 C293 C 0.39070 -0.08196 0.17906
 C294 C 0.36233 -0.08767 0.17557
 C295 C 0.34219 -0.10509 0.21840
 H296 H 0.26031 -0.17954 0.34364
 H297 H 0.33265 -0.13696 0.46604
 H298 H 0.41975 -0.09161 0.22681
 H299 H 0.35609 -0.07762 0.14159
 H300 H 0.36339 -0.11232 0.38336
 H301 H 0.38465 -0.12234 0.30033
 H302 H 0.29237 -0.15600 0.26045
 H303 H 0.32085 -0.10801 0.21668
 C304 C 0.86943 0.52657 0.31029
 C305 C 0.88016 0.55340 0.33734
 C306 C 0.86544 0.55698 0.38453
 C307 C 0.83949 0.53395 0.40453
 C308 C 0.82817 0.50735 0.37632
 C309 C 0.84318 0.50361 0.32982
 C310 C 0.88662 0.52230 0.26460
 C311 C 0.89289 0.50037 0.27136
 C312 C 0.91144 0.49795 0.23169
 C313 C 0.92362 0.51711 0.18393
 C314 C 0.91649 0.53839 0.17580
 C315 C 0.89838 0.54115 0.21620
 H316 H 0.87452 0.57760 0.40620
 H317 H 0.80824 0.48933 0.39162
 H318 H 0.91653 0.48130 0.23881
 H319 H 0.92564 0.55346 0.13938
 H320 H 0.83451 0.48274 0.30952
 H321 H 0.88428 0.48574 0.30864
 H322 H 0.90049 0.57132 0.32348
 H323 H 0.89376 0.55819 0.21007
 C324 C 0.46427 0.33281 0.29427
 C325 C 0.47129 0.31134 0.28987
 C326 C 0.46913 0.29495 0.34015
 C327 C 0.45987 0.29984 0.39527
 C328 C 0.45093 0.31999 0.39794
 C329 C 0.45333 0.33645 0.34810
 C330 C 0.47183 0.35410 0.24648
 C331 C 0.49277 0.38244 0.25846
 C332 C 0.49847 0.40374 0.21704
 C333 C 0.48306 0.39726 0.16291
 C334 C 0.46284 0.36864 0.14964
 C335 C 0.45736 0.34710 0.19120
 H336 H 0.47626 0.27964 0.33683
 H337 H 0.44309 0.32379 0.43934
 H338 H 0.51430 0.42552 0.22853
 H339 H 0.45068 0.36308 0.10823
 H340 H 0.44772 0.35288 0.35215
 H341 H 0.50427 0.38816 0.30074
 H342 H 0.47998 0.30843 0.24872
 H343 H 0.44110 0.32527 0.18135
 C344 C 0.67363 0.13132 0.27970
 C345 C 0.68567 0.16084 0.28739
 C346 C 0.70235 0.17452 0.33802
 C347 C 0.70668 0.15875 0.38232
 C348 C 0.69576 0.12949 0.37332
 C349 C 0.67963 0.11593 0.32204
 C350 C 0.65191 0.11595 0.23236
 C351 C 0.65388 0.09653 0.19413
 C352 C 0.63140 0.07963 0.15447
 C353 C 0.60634 0.08136 0.15390
 C354 C 0.60477 0.10132 0.19096
 C355 C 0.62749 0.11870 0.22929
 H356 H 0.71031 0.19705 0.34449
 H357 H 0.69872 0.11694 0.40721
 H358 H 0.63297 0.06420 0.12662
 H359 H 0.58564 0.10299 0.19130
 H360 H 0.67030 0.09310 0.31732
 H361 H 0.67250 0.09401 0.19600
 H362 H 0.68122 0.17307 0.25534
 H363 H 0.62537 0.13331 0.25881
 C364 C 0.45750 0.13123 -0.29405
 C365 C 0.46498 0.12672 -0.35111
 C366 C 0.46133 0.13980 -0.40100
 C367 C 0.44965 0.15783 -0.39635
 C368 C 0.44180 0.16208 -0.33858
 C369 C 0.44548 0.14872 -0.28818
 C370 C 0.46247 0.11722 -0.24204
 C371 C 0.44107 0.10235 -0.19910
 C372 C 0.44404 0.08469 -0.15735
 C373 C 0.46829 0.08158 -0.15857
 C374 C 0.49050 0.09808 -0.19847
 C375 C 0.48775 0.11590 -0.23929
 H376 H 0.46934 0.13663 -0.44274
 H377 H 0.43212 0.17503 -0.33188
 H378 H 0.42663 0.07213 -0.12686
 H379 H 0.50962 0.09640 -0.19962
 H380 H 0.43931 0.15238 -0.24458
 H381 H 0.42137 0.10297 -0.20021
 H382 H 0.47394 0.11305 -0.35737
 H383 H 0.50493 0.12770 -0.27076
 C384 C 0.66416 0.53097 -0.30774
 C385 C 0.65276 0.52425 -0.36589
 C386 C 0.67005 0.52722 -0.41446
 C387 C 0.69961 0.53723 -0.40692
 C388 C 0.71087 0.54344 -0.34796
 C389 C 0.69340 0.54060 -0.29918
 C390 C 0.64520 0.52825 -0.25719
 C391 C 0.65396 0.54981 -0.21358
 C392 C 0.63427 0.54896 -0.17175
 C393 C 0.60560 0.52665 -0.17337
 C394 C 0.59745 0.50430 -0.21443
 C395 C 0.61703 0.50499 -0.25554
 H396 H 0.65963 0.52067 -0.45769
 H397 H 0.73345 0.55182 -0.33927
 H398 H 0.64105 0.56643 -0.14044
 H399 H 0.57558 0.48658 -0.21600
 H400 H 0.70277 0.54592 -0.25475
 H401 H 0.67554 0.56802 -0.21384
 H402 H 0.63032 0.51695 -0.37416
 H403 H 0.60984 0.48770 -0.28748
 C404 C 0.86656 0.30963 -0.26711
 C405 C 0.83662 0.29320 -0.27219
 C406 C 0.82374 0.27790 -0.32471
 C407 C 0.84059 0.27966 -0.37444
 C408 C 0.87072 0.29486 -0.36720
 C409 C 0.88347 0.30942 -0.31409
 C410 C 0.88030 0.32996 -0.21706
 C411 C 0.90264 0.33051 -0.18359
 C412 C 0.91864 0.35278 -0.14317
 C413 C 0.91304 0.37520 -0.13715
 C414 C 0.88997 0.37400 -0.16885
 C415 C 0.87350 0.35139 -0.20789
 H416 H 0.80058 0.26688 -0.32778
 H417 H 0.88467 0.29581 -0.40276
 H418 H 0.93652 0.35342 -0.11960
 H419 H 0.88533 0.39112 -0.16500
 H420 H 0.90664 0.32190 -0.31103
 H421 H 0.90831 0.31426 -0.19034
 H422 H 0.82319 0.29317 -0.23637
 H423 H 0.85659 0.35155 -0.23377
 C424 C 0.53782 -0.12628 -0.30537
 C425 C 0.52802 -0.15549 -0.30015
 C426 C 0.53085 -0.17045 -0.34812
 C427 C 0.54380 -0.15631 -0.40179
 C428 C 0.55543 -0.12663 -0.40486
 C429 C 0.55220 -0.11186 -0.35743
 C430 C 0.53052 -0.11131 -0.25992
 C431 C 0.51501 -0.09822 -0.27750
 C432 C 0.50838 -0.08332 -0.23611
 C433 C 0.51757 -0.08071 -0.17635
 C434 C 0.53281 -0.09412 -0.15836
 C435 C 0.53896 -0.10964 -0.19982
 H436 H 0.52149 -0.19330 -0.34434
 H437 H 0.56623 -0.11492 -0.44477
 H438 H 0.49665 -0.07320 -0.25141
 H439 H 0.54011 -0.09244 -0.11253
 H440 H 0.56018 -0.08924 -0.36201
 H441 H 0.50806 -0.09951 -0.32353
 H442 H 0.51674 -0.16701 -0.26040
 H443 H 0.55090 -0.11968 -0.18545
 C444 C 0.33148 0.47001 -0.28286
 C445 C 0.30145 0.45253 -0.28145
 C446 C 0.28504 0.44802 -0.33353
 C447 C 0.29849 0.46054 -0.38787
 C448 C 0.32840 0.47831 -0.38883
 C449 C 0.34466 0.48295 -0.33712
 C450 C 0.34968 0.47403 -0.22954
 C451 C 0.37407 0.50080 -0.21851
 C452 C 0.39480 0.50365 -0.17733
 C453 C 0.39140 0.47992 -0.14549
 C454 C 0.36581 0.45368 -0.15196
 C455 C 0.34508 0.45071 -0.19400
 H456 H 0.26198 0.43421 -0.33176
 H457 H 0.33929 0.48853 -0.42991
 H458 H 0.41424 0.52419 -0.17254
 H459 H 0.36282 0.43507 -0.12800
 H460 H 0.36776 0.49613 -0.34007
 H461 H 0.37787 0.51929 -0.24410
 H462 H 0.29073 0.44236 -0.24023
 H463 H 0.32651 0.42981 -0.20163
 C464 C 1.12365 0.65206 -0.32084
 C465 C 1.12803 0.64218 -0.37557
 C466 C 1.14327 0.66107 -0.42146
 C467 C 1.15562 0.69072 -0.41370
 C468 C 1.15341 0.70080 -0.35698
 C469 C 1.13720 0.68170 -0.31154
 C470 C 1.10396 0.63129 -0.27547
 C471 C 1.10813 0.63707 -0.21357
 C472 C 1.08938 0.61705 -0.17198
 C473 C 1.06657 0.59072 -0.19155
 C474 C 1.06223 0.58506 -0.25300
 C475 C 1.08035 0.60520 -0.29437
 H476 H 1.14579 0.65226 -0.46285
 H477 H 1.16230 0.72336 -0.34884
 H478 H 1.09314 0.62179 -0.12463
 H479 H 1.04450 0.56508 -0.26925
 H480 H 1.13432 0.69023 -0.27017
 H481 H 1.12613 0.65676 -0.19710
 H482 H 1.11936 0.61965 -0.38358
 H483 H 1.07556 0.60024 -0.34138
 C484 C 0.86059 0.53267 -0.27206
 C485 C 0.87759 0.55570 -0.30990
 C486 C 0.86580 0.56014 -0.36166
 C487 C 0.83670 0.54199 -0.37556
 C488 C 0.81930 0.52007 -0.33575
 C489 C 0.83123 0.51524 -0.28466
 C490 C 0.87429 0.52507 -0.22393
 C491 C 0.87150 0.49797 -0.22370
 C492 C 0.88805 0.49202 -0.18469
 C493 C 0.90720 0.51289 -0.14450
 C494 C 0.90865 0.53940 -0.14216
 C495 C 0.89258 0.54558 -0.18216
 H496 H 0.87956 0.57706 -0.39202
 H497 H 0.79686 0.50566 -0.34610
 H498 H 0.88658 0.47143 -0.18725
 H499 H 0.92338 0.55591 -0.11175
 H500 H 0.81781 0.49734 -0.25604
 H501 H 0.85770 0.48194 -0.25599
 H502 H 0.90035 0.56921 -0.30126
 H503 H 0.89502 0.56661 -0.18175
 C504 C 0.49038 0.34422 -0.29448
 C505 C 0.47137 0.31467 -0.28938
 C506 C 0.46837 0.29621 -0.33633
 C507 C 0.48340 0.30721 -0.39022
 C508 C 0.50447 0.33630 -0.39232
 C509 C 0.50833 0.35436 -0.34467
 C510 C 0.48945 0.36493 -0.25216
 C511 C 0.49382 0.39104 -0.27432
 C512 C 0.49267 0.41072 -0.23666
 C513 C 0.48640 0.40474 -0.17585
 C514 C 0.48134 0.37850 -0.15318
 C515 C 0.48303 0.35878 -0.19101
 H516 H 0.45205 0.27391 -0.33271
 H517 H 0.51769 0.34532 -0.43159
 H518 H 0.49625 0.43058 -0.25566
 H519 H 0.47652 0.37347 -0.10628
 H520 H 0.52447 0.37668 -0.34871
 H521 H 0.49762 0.39623 -0.32135
 H522 H 0.45735 0.30599 -0.25121
 H523 H 0.47956 0.33893 -0.17232
 C524 C 0.65514 0.13590 -0.30150
 C525 C 0.64390 0.13698 -0.35771
 C526 C 0.66199 0.15062 -0.40585
 C527 C 0.69184 0.16316 -0.39958
 C528 C 0.70325 0.16291 -0.34303
 C529 C 0.68510 0.14949 -0.29447
 C530 C 0.63540 0.11914 -0.25205
 C531 C 0.64205 0.10294 -0.21296
 C532 C 0.62180 0.08426 -0.17186
 C533 C 0.59441 0.08108 -0.16991
 C534 C 0.58822 0.09821 -0.20663
 C535 C 0.60859 0.11728 -0.24670
 H536 H 0.65249 0.15092 -0.44842
 H537 H 0.72616 0.17228 -0.33675
 H538 H 0.62700 0.07117 -0.14402
 H539 H 0.56734 0.09641 -0.20525
 H540 H 0.69455 0.14946 -0.25167
 H541 H 0.66233 0.10356 -0.21608
 H542 H 0.62098 0.12643 -0.36536
 H543 H 0.60300 0.13002 -0.27465
 C544 C 1.13460 0.47106 -0.31246
 C545 C 1.14513 0.49246 -0.35612
 C546 C 1.16173 0.49214 -0.40298
 C547 C 1.16895 0.47067 -0.40747
 C548 C 1.16060 0.45067 -0.36052
 C549 C 1.14328 0.45067 -0.31392
 C550 C 1.11327 0.46944 -0.26857
 C551 C 1.11339 0.46175 -0.20847
 C552 C 1.09350 0.46143 -0.16787
 C553 C 1.07338 0.46895 -0.18683
 C554 C 1.07295 0.47599 -0.24700
 C555 C 1.09242 0.47600 -0.28735
 H556 H 1.16914 0.50912 -0.43561
 H557 H 1.16547 0.43369 -0.36178
 H558 H 1.09419 0.45584 -0.12164
 H559 H 1.05742 0.48145 -0.26321
 H560 H 1.13558 0.43392 -0.28076
 H561 H 1.12918 0.45660 -0.19262
 H562 H 1.14004 0.50931 -0.35480
 H563 H 1.09104 0.48112 -0.33362
 C564 C 0.53513 0.67780 -0.27589
 C565 C 0.51757 0.68931 -0.28814
 C566 C 0.52199 0.70568 -0.33969
 C567 C 0.54330 0.70974 -0.38131
 C568 C 0.56135 0.69879 -0.36713
 C569 C 0.55747 0.68331 -0.31492
 C570 C 0.52876 0.65756 -0.22643
 C571 C 0.50284 0.63143 -0.22673
 C572 C 0.49917 0.60948 -0.18863
 C573 C 0.52116 0.61355 -0.14892
 C574 C 0.54623 0.64042 -0.14549
 C575 C 0.55015 0.66216 -0.18458
 H576 H 0.50728 0.71323 -0.34878
 H577 H 0.57879 0.70233 -0.39625
 H578 H 0.47962 0.58895 -0.19188
 H579 H 0.56352 0.64405 -0.11536
 H580 H 0.57123 0.67456 -0.30625
 H581 H 0.48624 0.62739 -0.25921
 H582 H 0.50006 0.68504 -0.25856
 H583 H 0.57037 0.68215 -0.18405
 C584 C 0.30845 -0.13706 -0.26815
 C585 C 0.30000 -0.12204 -0.30620
 C586 C 0.28361 -0.13516 -0.35740
 C587 C 0.27496 -0.16364 -0.37053
 C588 C 0.28139 -0.17932 -0.32986
 C589 C 0.29827 -0.16604 -0.27931
 C590 C 0.33109 -0.12143 -0.22279
 C591 C 0.35659 -0.12228 -0.22547
 C592 C 0.37997 -0.10435 -0.18918
 C593 C 0.37805 -0.08573 -0.14866
 C594 C 0.35206 -0.08594 -0.14361
 C595 C 0.32885 -0.10339 -0.18108
 H596 H 0.27902 -0.12269 -0.38850
 H597 H 0.27522 -0.20121 -0.33960
 H598 H 0.39980 -0.10456 -0.19378
 H599 H 0.35016 -0.07161 -0.11287
 H600 H 0.30460 -0.17796 -0.25051
 H601 H 0.35891 -0.13577 -0.25784
 H602 H 0.30785 -0.09959 -0.29872
 H603 H 0.30939 -0.10236 -0.17856
 C604 C 0.52185 -0.14401 0.27880
 C605 C 0.54955 -0.13432 0.30171
 C606 C 0.55359 -0.14749 0.35141
 C607 C 0.53008 -0.17077 0.37849
 C608 C 0.50260 -0.18159 0.35384
 C609 C 0.49849 -0.16826 0.30435
 C610 C 0.51718 -0.12670 0.23376
 C611 C 0.49559 -0.12000 0.24290
 C612 C 0.49371 -0.10020 0.20637
 C613 C 0.51319 -0.08687 0.15952
 C614 C 0.53382 -0.09467 0.14811
 C615 C 0.53593 -0.11429 0.18524
 H616 H 0.57489 -0.13874 0.37046
 H617 H 0.48423 -0.19942 0.37466
 H618 H 0.47748 -0.09470 0.21595
 H619 H 0.54907 -0.08471 0.11221
 H620 H 0.47693 -0.17623 0.28737
 H621 H 0.48106 -0.12892 0.28031
 H622 H 0.56788 -0.11547 0.28357
 H623 H 0.55268 -0.11921 0.17704
 C624 C 0.33075 0.45298 0.29911
 C625 C 0.32147 0.42992 0.33860
 C626 C 0.30312 0.42656 0.38577
 C627 C 0.29331 0.44583 0.39312
 C628 C 0.30125 0.46785 0.35136
 C629 C 0.32008 0.47158 0.30510
 C630 C 0.35355 0.45919 0.25551
 C631 C 0.37958 0.48520 0.25874
 C632 C 0.40211 0.49060 0.22048
 C633 C 0.39871 0.47035 0.17743
 C634 C 0.37236 0.44465 0.17305
 C635 C 0.35006 0.43894 0.21241
 H636 H 0.29741 0.40958 0.41776
 H637 H 0.29427 0.48319 0.35670
 H638 H 0.42221 0.51057 0.22464
 H639 H 0.36931 0.42864 0.14038
 H640 H 0.32705 0.48950 0.27506
 H641 H 0.38272 0.50099 0.29207
 H642 H 0.32965 0.41547 0.33484
 H643 H 0.33013 0.41874 0.20939
 C644 C 1.13492 0.67737 0.26352
 C645 C 1.16441 0.68992 0.27545
 C646 C 1.17616 0.70553 0.32808
 C647 C 1.15846 0.70826 0.36992
 C648 C 1.12930 0.69700 0.35658
 C649 C 1.11766 0.68192 0.30344
 C650 C 1.12127 0.65617 0.21497
 C651 C 1.10121 0.65699 0.17607
 C652 C 1.08474 0.63414 0.13735
 C653 C 1.08763 0.60990 0.13829
 C654 C 1.10864 0.60972 0.17509
 C655 C 1.12553 0.63279 0.21266
 H656 H 1.19867 0.71387 0.33797
 H657 H 1.11532 0.69880 0.38858
 H658 H 1.06853 0.63465 0.10957
 H659 H 1.11123 0.59124 0.17647
 H660 H 1.09481 0.67213 0.29551
 H661 H 1.09756 0.67481 0.17732
 H662 H 1.17805 0.68658 0.24530
 H663 H 1.14065 0.63156 0.24274
 C664 C 0.46150 0.13863 0.28492
 C665 C 0.43521 0.12530 0.31521
 C666 C 0.43124 0.13824 0.36518
 C667 C 0.45332 0.16491 0.38499
 C668 C 0.47900 0.17902 0.35271
 C669 C 0.48316 0.16586 0.30327
 C670 C 0.46719 0.12270 0.23886
 C671 C 0.49165 0.12007 0.24378
 C672 C 0.49507 0.10156 0.20615
 C673 C 0.47429 0.08568 0.16244
 C674 C 0.45063 0.08951 0.15526
 C675 C 0.44697 0.10769 0.19359
 H676 H 0.41132 0.12705 0.38967
 H677 H 0.49635 0.19952 0.36769
 H678 H 0.51355 0.09903 0.21239
 H679 H 0.43430 0.07750 0.12186
 H680 H 0.50357 0.17651 0.28045
 H681 H 0.50738 0.13121 0.27878
 H682 H 0.41832 0.10417 0.30224
 H683 H 0.42798 0.10947 0.18897
 C684 C 0.68508 0.54873 0.27156
 C685 C 0.69203 0.57069 0.31308
 C686 C 0.70727 0.57255 0.36523
 C687 C 0.71625 0.55283 0.37599
 C688 C 0.71125 0.53228 0.33226
 C689 C 0.69553 0.53007 0.28067
 C690 C 0.66354 0.54282 0.22432
 C691 C 0.63861 0.51584 0.22167
 C692 C 0.61584 0.51110 0.18435
 C693 C 0.61784 0.53307 0.14805
 C694 C 0.64341 0.55957 0.14788
 C695 C 0.66600 0.56455 0.18644
 H696 H 0.71091 0.58854 0.39848
 H697 H 0.71777 0.51670 0.33996
 H698 H 0.59631 0.49049 0.18514
 H699 H 0.64532 0.57687 0.12046
 H700 H 0.69037 0.51298 0.24918
 H701 H 0.63611 0.49888 0.25100
 H702 H 0.68392 0.58512 0.30722
 H703 H 0.68503 0.58553 0.18801
 C704 C 0.87350 0.32949 0.31216
 C705 C 0.88501 0.31540 0.34438
 C706 C 0.86987 0.29751 0.39195
 C707 C 0.84275 0.29299 0.40732
 C708 C 0.83073 0.30619 0.37369
 C709 C 0.84612 0.32454 0.32680
 C710 C 0.89098 0.35083 0.26643
 C711 C 0.89528 0.37849 0.26978
 C712 C 0.91399 0.39959 0.23042
 C713 C 0.92833 0.39327 0.18631
 C714 C 0.92321 0.36533 0.18144
 C715 C 0.90491 0.34434 0.22167
 H716 H 0.87948 0.28748 0.41740
 H717 H 0.80991 0.30311 0.38514
 H718 H 0.91750 0.42096 0.23491
 H719 H 0.93406 0.35997 0.14784
 H720 H 0.83685 0.33519 0.30245
 H721 H 0.88495 0.38403 0.30428
 H722 H 0.90619 0.31911 0.33422
 H723 H 0.90183 0.32310 0.21827
   
