data_POSCAR
  _audit_creation_date              2014-09-24
  _audit_creation_method            'ToBaCCo'
  _symmetry_space_group_name_H-M    'P1'
  _symmetry_Int_Tables_number       1
  _symmetry_cell_setting            triclinic
  loop_
  _symmetry_equiv_pos_as_xyz
 x,y,z
_cell_length_a 43.8057
_cell_length_b 40.1068
_cell_length_c 25.2686
_cell_angle_alpha 90.222100
_cell_angle_beta 90.095800
_cell_angle_gamma 110.157200
loop_
  _atom_site_label
  _atom_site_type_symbol
  _atom_site_fract_x
  _atom_site_fract_y
  _atom_site_fract_z
C1 C 0.43052 0.91787 0.50205
 C2 C 0.44140 0.93538 0.55050
 C3 C 0.46407 0.97026 0.54896
 C4 C 0.47841 0.98645 0.50116
 C5 C 0.46756 0.96729 0.45362
 C6 C 0.44320 0.93364 0.45380
 C7 C 0.50485 1.02264 0.50152
 C8 C 0.51411 1.04313 0.45492
 C9 C 0.54010 1.07607 0.45475
 C10 C 0.55498 1.08975 0.50346
 C11 C 0.54510 1.07095 0.55046
 C12 C 0.52142 1.03705 0.54885
 H13 H 0.41314 0.89109 0.50126
 H14 H 0.46937 0.98507 0.58551
 H15 H 0.47829 0.97746 0.41600
 H16 H 0.50203 1.03298 0.41816
 H17 H 0.57284 1.11627 0.50583
 H18 H 0.51646 1.02244 0.58545
 C19 C 0.08392 0.56708 0.49413
 C20 C 0.06871 0.56176 0.54406
 C21 C 0.03578 0.53930 0.54646
 C22 C 0.01958 0.51975 0.50172
 C23 C 0.03681 0.52383 0.45365
 C24 C 0.06832 0.54839 0.44923
 C25 C -0.01503 0.49494 0.50499
 C26 C -0.03526 0.48747 0.45978
 C27 C -0.06712 0.46243 0.46098
 C28 C -0.07945 0.44685 0.50986
 C29 C -0.06065 0.45580 0.55618
 C30 C -0.02820 0.47859 0.55303
 H31 H 0.10811 0.58631 0.48929
 H32 H 0.02303 0.53586 0.58358
 H33 H 0.02583 0.50844 0.41901
 H34 H -0.02572 0.50025 0.42290
 H35 H -0.10464 0.42973 0.51286
 H36 H -0.01347 0.48320 0.58849
 C37 C 0.43663 0.53327 0.49078
 C38 C 0.44304 0.52129 0.54047
 C39 C 0.46534 0.50288 0.54254
 C40 C 0.48345 0.49992 0.49749
 C41 C 0.47775 0.51464 0.44939
 C42 C 0.45352 0.52981 0.44545
 C43 C 0.50841 0.48195 0.50044
 C44 C 0.51743 0.46740 0.45458
 C45 C 0.54214 0.45265 0.45615
 C46 C 0.55659 0.44998 0.50458
 C47 C 0.54680 0.46223 0.55136
 C48 C 0.52363 0.47921 0.54877
 H49 H 0.41781 0.54487 0.48651
 H50 H 0.46959 0.49216 0.57971
 H51 H 0.49163 0.51407 0.41431
 H52 H 0.50562 0.46756 0.41705
 H53 H 0.57456 0.43700 0.50600
 H54 H 0.51808 0.49051 0.58480
 O55 O 0.35422 0.67018 -0.06877
 O56 O 0.35628 0.73380 -0.04450
 C57 C 0.33507 0.74180 -0.07108
 O58 O 0.30521 0.73026 -0.05956
 O59 O 0.25102 0.67849 -0.04501
 C60 C 0.24953 0.65289 -0.07617
 O61 O 0.26407 0.63115 -0.06719
 O62 O 0.31704 0.61726 -0.05221
 C63 C 0.33943 0.63800 -0.08084
 O64 O 0.35746 0.65386 0.03500
 O65 O 0.35553 0.71607 0.05905
 C66 C 0.34019 0.73623 0.07294
 O67 O 0.31620 0.73889 0.04667
 O68 O 0.26314 0.68463 0.06057
 C69 C 0.24771 0.65194 0.06772
 O70 O 0.25156 0.62783 0.03823
 O71 O 0.30695 0.61841 0.05326
 C72 C 0.33727 0.62931 0.06216
 Cr73 Cr 0.35433 0.69286 -0.00472
 Cr74 Cr 0.28475 0.70703 0.00063
 Cr75 Cr 0.28559 0.62535 -0.00678
 O76 O 0.30820 0.67511 -0.00321
 O77 O 0.65029 0.34118 -0.04590
 O78 O 0.65207 0.27728 -0.05869
 C79 C 0.66806 0.25692 -0.06771
 O80 O 0.69267 0.25741 -0.04045
 O81 O 0.74624 0.31054 -0.05355
 C82 C 0.76058 0.34286 -0.06515
 O83 O 0.75561 0.36822 -0.04049
 O84 O 0.70094 0.37783 -0.05973
 C85 C 0.67103 0.36591 -0.07166
 O86 O 0.64995 0.33166 0.05969
 O87 O 0.64881 0.26692 0.04682
 C88 C 0.66880 0.25814 0.07521
 O89 O 0.69899 0.26851 0.06570
 O90 O 0.75387 0.31964 0.05284
 C91 C 0.75795 0.34864 0.07736
 O92 O 0.74401 0.37021 0.06404
 O93 O 0.69063 0.38262 0.04547
 C94 C 0.66541 0.36393 0.07061
 Cr95 Cr 0.65214 0.30497 0.00052
 Cr96 Cr 0.72203 0.29026 0.00600
 Cr97 Cr 0.72186 0.37275 0.00231
 O98 O 0.69870 0.32266 0.00292
 C99 C 0.44289 0.90591 -0.30935
 C100 C 0.41297 0.87751 -0.30519
 C101 C 0.39132 0.87114 -0.34881
 C102 C 0.40042 0.89076 -0.39565
 C103 C 0.43097 0.91777 -0.40054
 C104 C 0.45156 0.92563 -0.35585
 C105 C 0.36071 0.84490 -0.34589
 C106 C 0.35095 0.82465 -0.30060
 C107 C 0.37184 0.82929 -0.25642
 C108 C 0.40375 0.85536 -0.25938
 C109 C 0.42565 0.85760 -0.21726
 C110 C 0.41663 0.83542 -0.17354
 C111 C 0.38522 0.81084 -0.16914
 C112 C 0.36213 0.80803 -0.20994
 C113 C 0.33010 0.78417 -0.20230
 C114 C 0.32177 0.76331 -0.15711
 C115 C 0.34490 0.76519 -0.11778
 C116 C 0.37668 0.78905 -0.12403
 H117 H 0.46021 0.91366 -0.27732
 H118 H 0.38302 0.88532 -0.42787
 H119 H 0.47551 0.94578 -0.35724
 H120 H 0.34402 0.83986 -0.37914
 H121 H 0.32713 0.80462 -0.30233
 H122 H 0.45045 0.87556 -0.21764
 H123 H 0.43444 0.83775 -0.14261
 H124 H 0.31063 0.78136 -0.22994
 H125 H 0.29697 0.74519 -0.15331
 H126 H 0.39464 0.79104 -0.09346
 C127 C 0.08977 0.59849 -0.31791
 C128 C 0.12382 0.60618 -0.31603
 C129 C 0.13889 0.59947 -0.36239
 C130 C 0.12065 0.58558 -0.40794
 C131 C 0.08671 0.57756 -0.40969
 C132 C 0.07167 0.58440 -0.36363
 C133 C 0.17223 0.60603 -0.36323
 C134 C 0.19098 0.61765 -0.31828
 C135 C 0.17706 0.62319 -0.27021
 C136 C 0.14331 0.61922 -0.26965
 C137 C 0.13036 0.62824 -0.22276
 C138 C 0.14932 0.63925 -0.17736
 C139 C 0.18162 0.64073 -0.17626
 C140 C 0.19586 0.63245 -0.22267
 C141 C 0.22803 0.63228 -0.21906
 C142 C 0.24506 0.63968 -0.17155
 C143 C 0.23106 0.64802 -0.12601
 C144 C 0.19956 0.64932 -0.12862
 H145 H 0.07623 0.60253 -0.28442
 H146 H 0.13322 0.57901 -0.44103
 H147 H 0.04589 0.57990 -0.36267
 H148 H 0.18401 0.60168 -0.39902
 H149 H 0.21657 0.62246 -0.32285
 H150 H 0.10555 0.62735 -0.22001
 H151 H 0.13828 0.64574 -0.14225
 H152 H 0.24042 0.62510 -0.25154
 H153 H 0.26941 0.63851 -0.17023
 H154 H 0.18852 0.65531 -0.09312
 C155 C 0.40809 0.51553 -0.32256
 C156 C 0.39956 0.54649 -0.32000
 C157 C 0.40606 0.56867 -0.36506
 C158 C 0.41974 0.55972 -0.41059
 C159 C 0.42814 0.52887 -0.41317
 C160 C 0.42228 0.50710 -0.36802
 C161 C 0.39931 0.60016 -0.36461
 C162 C 0.38726 0.61098 -0.31965
 C163 C 0.38105 0.59040 -0.27314
 C164 C 0.38565 0.55676 -0.27410
 C165 C 0.37595 0.53459 -0.22941
 C166 C 0.36323 0.54539 -0.18470
 C167 C 0.36069 0.57910 -0.18194
 C168 C 0.37009 0.60231 -0.22587
 C169 C 0.36915 0.63704 -0.22012
 C170 C 0.35898 0.64796 -0.17314
 C171 C 0.34901 0.62477 -0.13035
 C172 C 0.34946 0.59012 -0.13508
 H173 H 0.40467 0.49755 -0.28973
 H174 H 0.42553 0.57840 -0.44307
 H175 H 0.42755 0.48266 -0.36784
 H176 H 0.40377 0.61696 -0.39933
 H177 H 0.38235 0.63540 -0.32313
 H178 H 0.37730 0.50828 -0.22817
 H179 H 0.35598 0.52741 -0.15143
 H180 H 0.37720 0.65694 -0.25043
 H181 H 0.35892 0.67492 -0.17026
 H182 H 0.34223 0.57224 -0.10168
 C183 C 0.54557 0.10777 -0.31180
 C184 C 0.57893 0.12705 -0.30279
 C185 C 0.60149 0.12436 -0.34133
 C186 C 0.59056 0.10557 -0.38882
 C187 C 0.55728 0.08816 -0.39799
 C188 C 0.53507 0.08874 -0.35859
 C189 C 0.63477 0.14082 -0.33257
 C190 C 0.64628 0.16013 -0.28646
 C191 C 0.62479 0.16485 -0.24792
 C192 C 0.59054 0.14895 -0.25711
 C193 C 0.56901 0.15669 -0.22160
 C194 C 0.58042 0.17911 -0.17858
 C195 C 0.61361 0.19389 -0.16813
 C196 C 0.63632 0.18613 -0.20151
 C197 C 0.66961 0.20014 -0.18689
 C198 C 0.67979 0.22224 -0.14256
 C199 C 0.65728 0.23138 -0.11190
 C200 C 0.62421 0.21678 -0.12459
 H201 H 0.52695 0.10661 -0.28336
 H202 H 0.60790 0.10459 -0.41884
 H203 H 0.50924 0.07520 -0.36468
 H204 H 0.65218 0.13877 -0.36173
 H205 H 0.67230 0.17235 -0.28320
 H206 H 0.54304 0.14701 -0.22718
 H207 H 0.56297 0.18495 -0.15314
 H208 H 0.68833 0.19423 -0.20850
 H209 H 0.70549 0.23297 -0.13306
 H210 H 0.60659 0.22319 -0.10023
 C211 C 0.91195 0.45858 -0.30254
 C212 C 0.88869 0.42417 -0.29560
 C213 C 0.88511 0.39910 -0.33701
 C214 C 0.90256 0.40904 -0.38443
 C215 C 0.92410 0.44380 -0.39160
 C216 C 0.92917 0.46812 -0.34976
 C217 C 0.86359 0.36443 -0.33146
 C218 C 0.84492 0.35404 -0.28613
 C219 C 0.84653 0.37826 -0.24456
 C220 C 0.86858 0.41401 -0.24959
 C221 C 0.86894 0.43873 -0.20940
 C222 C 0.84829 0.42914 -0.16621
 C223 C 0.82681 0.39446 -0.16057
 C224 C 0.82611 0.36824 -0.19886
 C225 C 0.80467 0.33313 -0.18987
 C226 C 0.78407 0.32499 -0.14607
 C227 C 0.78396 0.35137 -0.10965
 C228 C 0.80574 0.38601 -0.11692
 H229 H 0.91732 0.47894 -0.27255
 H230 H 0.89898 0.38984 -0.41625
 H231 H 0.94571 0.49516 -0.35421
 H232 H 0.86089 0.34509 -0.36284
 H233 H 0.82863 0.32691 -0.28574
 H234 H 0.88430 0.46621 -0.21077
 H235 H 0.84903 0.44926 -0.13695
 H236 H 0.80319 0.31124 -0.21573
 H237 H 0.76768 0.29790 -0.14132
 H238 H 0.80624 0.40658 -0.08859
 C239 C 0.54863 0.43014 -0.30851
 C240 C 0.58149 0.43261 -0.30220
 C241 C 0.60342 0.44871 -0.34354
 C242 C 0.59227 0.45957 -0.39030
 C243 C 0.55934 0.45508 -0.39691
 C244 C 0.53786 0.44112 -0.35512
 C245 C 0.63628 0.45325 -0.33862
 C246 C 0.64802 0.44169 -0.29385
 C247 C 0.62712 0.42438 -0.25225
 C248 C 0.59321 0.41933 -0.25682
 C249 C 0.57201 0.40015 -0.21676
 C250 C 0.58337 0.38623 -0.17390
 C251 C 0.61633 0.39133 -0.16848
 C252 C 0.63884 0.41108 -0.20689
 C253 C 0.67218 0.41656 -0.19820
 C254 C 0.68238 0.40216 -0.15427
 C255 C 0.65989 0.38171 -0.11743
 C256 C 0.62686 0.37657 -0.12473
 H257 H 0.53051 0.41966 -0.27843
 H258 H 0.60919 0.47106 -0.42209
 H259 H 0.51228 0.43746 -0.35919
 H260 H 0.65317 0.46567 -0.37001
 H261 H 0.67364 0.44587 -0.29393
 H262 H 0.54615 0.39448 -0.21798
 H263 H 0.56606 0.37122 -0.14462
 H264 H 0.69114 0.43210 -0.22421
 H265 H 0.70811 0.40682 -0.14951
 H266 H 0.60925 0.36124 -0.09607
 C267 C 0.89795 0.46896 0.32774
 C268 C 0.87544 0.43427 0.31989
 C269 C 0.87317 0.40882 0.35977
 C270 C 0.89135 0.41857 0.40674
 C271 C 0.91363 0.45324 0.41434
 C272 C 0.91678 0.47807 0.37368
 C273 C 0.85308 0.37360 0.35235
 C274 C 0.83553 0.36283 0.30572
 C275 C 0.83647 0.38728 0.26519
 C276 C 0.85557 0.42387 0.27351
 C277 C 0.85348 0.44898 0.23598
 C278 C 0.83387 0.43872 0.19142
 C279 C 0.81640 0.40300 0.18147
 C280 C 0.81813 0.37659 0.21730
 C281 C 0.80156 0.34057 0.20336
 C282 C 0.78291 0.33151 0.15709
 C283 C 0.77988 0.35793 0.12368
 C284 C 0.79694 0.39360 0.13588
 H285 H 0.90221 0.48957 0.29857
 H286 H 0.88933 0.39832 0.43615
 H287 H 0.93293 0.50530 0.37781
 H288 H 0.85118 0.35396 0.38271
 H289 H 0.82046 0.33522 0.30337
 H290 H 0.86583 0.47713 0.24090
 H291 H 0.83254 0.45902 0.16422
 H292 H 0.80290 0.31879 0.22695
 H293 H 0.77012 0.30372 0.14814
 H294 H 0.79518 0.41417 0.10955
 C295 C 0.54122 0.11229 0.31771
 C296 C 0.57407 0.13455 0.31217
 C297 C 0.59545 0.13585 0.35483
 C298 C 0.58397 0.11688 0.40149
 C299 C 0.55114 0.09521 0.40715
 C300 C 0.53012 0.09295 0.36401
 C301 C 0.62838 0.15599 0.35089
 C302 C 0.64083 0.17479 0.30527
 C303 C 0.62062 0.17478 0.26169
 C304 C 0.58651 0.15525 0.26581
 C305 C 0.56595 0.15771 0.22401
 C306 C 0.57822 0.17827 0.17962
 C307 C 0.61150 0.19650 0.17430
 C308 C 0.63329 0.19440 0.21465
 C309 C 0.66696 0.21196 0.20602
 C310 C 0.67820 0.23188 0.16047
 C311 C 0.65648 0.23511 0.12178
 C312 C 0.62309 0.21704 0.12880
 H313 H 0.52343 0.10889 0.28680
 H314 H 0.60134 0.11792 0.43260
 H315 H 0.50450 0.07743 0.36628
 H316 H 0.64485 0.15716 0.38350
 H317 H 0.66644 0.18995 0.30610
 H318 H 0.53996 0.14478 0.22498
 H319 H 0.56142 0.17977 0.14894
 H320 H 0.68538 0.21059 0.23333
 H321 H 0.70416 0.24528 0.15602
 H322 H 0.60604 0.21890 0.09879
 C323 C 0.54090 0.40426 0.32690
 C324 C 0.57427 0.41580 0.31301
 C325 C 0.59664 0.44088 0.34678
 C326 C 0.58600 0.45227 0.39363
 C327 C 0.55301 0.44005 0.40703
 C328 C 0.53056 0.41637 0.37305
 C329 C 0.62950 0.45457 0.33369
 C330 C 0.64085 0.44418 0.28745
 C331 C 0.61979 0.41880 0.25290
 C332 C 0.58613 0.40354 0.26678
 C333 C 0.56565 0.37584 0.23486
 C334 C 0.57749 0.36351 0.19087
 C335 C 0.60995 0.37878 0.17598
 C336 C 0.63144 0.40728 0.20579
 C337 C 0.66371 0.42296 0.18703
 C338 C 0.67440 0.40961 0.14229
 C339 C 0.65343 0.38020 0.11492
 C340 C 0.62109 0.36528 0.13161
 H341 H 0.52205 0.38640 0.30258
 H342 H 0.60337 0.47121 0.41942
 H343 H 0.50489 0.40690 0.38256
 H344 H 0.64670 0.47374 0.35939
 H345 H 0.66663 0.45581 0.28076
 H346 H 0.54040 0.36217 0.24381
 H347 H 0.56097 0.34171 0.16818
 H348 H 0.68127 0.44573 0.20573
 H349 H 0.69944 0.42183 0.12989
 H350 H 0.60447 0.34291 0.11005
 C351 C 0.10624 0.53503 0.31954
 C352 C 0.12269 0.57050 0.30303
 C353 C 0.11875 0.59812 0.33444
 C354 C 0.10028 0.59045 0.38090
 C355 C 0.08529 0.55542 0.39760
 C356 C 0.08784 0.52775 0.36608
 C357 C 0.13362 0.63345 0.32001
 C358 C 0.15319 0.64239 0.27565
 C359 C 0.15899 0.61620 0.24376
 C360 C 0.14319 0.57960 0.25722
 C361 C 0.14889 0.55350 0.22496
 C362 C 0.16969 0.56271 0.18172
 C363 C 0.18571 0.59822 0.16868
 C364 C 0.18041 0.62548 0.19925
 C365 C 0.19723 0.66106 0.18434
 C366 C 0.21855 0.66908 0.14175
 C367 C 0.22407 0.64218 0.11194
 C368 C 0.20729 0.60666 0.12544
 H369 H 0.10736 0.51231 0.29789
 H370 H 0.09783 0.61196 0.40470
 H371 H 0.07634 0.50041 0.37827
 H372 H 0.13037 0.65459 0.34367
 H373 H 0.16365 0.67039 0.26795
 H374 H 0.13783 0.52548 0.23232
 H375 H 0.17349 0.54171 0.15847
 H376 H 0.19484 0.68360 0.20478
 H377 H 0.23094 0.69680 0.13238
 H378 H 0.21128 0.58555 0.10273
 C379 C 0.40841 0.91116 0.31530
 C380 C 0.40436 0.87463 0.31058
 C381 C 0.41549 0.85881 0.35314
 C382 C 0.42862 0.87838 0.39894
 C383 C 0.43142 0.91408 0.40360
 C384 C 0.42177 0.93046 0.36109
 C385 C 0.41323 0.82339 0.35024
 C386 C 0.40053 0.80311 0.30568
 C387 C 0.38907 0.81738 0.26207
 C388 C 0.38994 0.85334 0.26525
 C389 C 0.37582 0.86648 0.22356
 C390 C 0.36199 0.84556 0.17973
 C391 C 0.36238 0.81104 0.17487
 C392 C 0.37636 0.79665 0.21566
 C393 C 0.37769 0.76225 0.20779
 C394 C 0.36552 0.74308 0.16182
 C395 C 0.35130 0.75710 0.12201
 C396 C 0.34937 0.79099 0.12899
 H397 H 0.40171 0.92567 0.28427
 H398 H 0.43671 0.86575 0.43129
 H399 H 0.42389 0.95813 0.36377
 H400 H 0.42146 0.81113 0.38287
 H401 H 0.39931 0.77588 0.30740
 H402 H 0.37444 0.89278 0.22409
 H403 H 0.35130 0.85676 0.14889
 H404 H 0.38882 0.74962 0.23555
 H405 H 0.36735 0.71695 0.15737
 H406 H 0.33881 0.80220 0.09797
 C407 C 0.45909 0.57723 0.31431
 C408 C 0.42595 0.56691 0.29876
 C409 C 0.40268 0.54212 0.33124
 C410 C 0.41213 0.52978 0.37807
 C411 C 0.44473 0.54134 0.39380
 C412 C 0.46822 0.56453 0.36110
 C413 C 0.36990 0.53003 0.31749
 C414 C 0.35930 0.54230 0.27242
 C415 C 0.38115 0.56771 0.23922
 C416 C 0.41502 0.58044 0.25274
 C417 C 0.43660 0.60689 0.22061
 C418 C 0.42553 0.62080 0.17731
 C419 C 0.39265 0.60866 0.16362
 C420 C 0.37007 0.58145 0.19372
 C421 C 0.33717 0.56934 0.17718
 C422 C 0.32706 0.58459 0.13428
 C423 C 0.34920 0.61232 0.10574
 C424 C 0.38215 0.62391 0.12024
 H425 H 0.47855 0.59514 0.29144
 H426 H 0.39394 0.51120 0.40283
 H427 H 0.49363 0.57359 0.37247
 H428 H 0.35208 0.51098 0.34217
 H429 H 0.33349 0.53178 0.26559
 H430 H 0.46229 0.61810 0.22855
 H431 H 0.44296 0.64149 0.15438
 H432 H 0.31842 0.54806 0.19628
 H433 H 0.30150 0.57463 0.12380
 H434 H 0.39962 0.64515 0.09826
   
