data_POSCAR
  _audit_creation_date              2014-09-24
  _audit_creation_method            'ToBaCCo'
  _symmetry_space_group_name_H-M    'P1'
  _symmetry_Int_Tables_number       1
  _symmetry_cell_setting            triclinic
  loop_
  _symmetry_equiv_pos_as_xyz
 x,y,z
_cell_length_a 53.1862
_cell_length_b 51.3661
_cell_length_c 49.5608
_cell_angle_alpha 87.411800
_cell_angle_beta 87.092100
_cell_angle_gamma 89.715700
loop_
  _atom_site_label
  _atom_site_type_symbol
  _atom_site_fract_x
  _atom_site_fract_y
  _atom_site_fract_z
C1 C 0.61125 0.66448 0.61824
 C2 C 0.63412 0.65406 0.60826
 C3 C 0.64149 0.62935 0.61698
 C4 C 0.62629 0.61490 0.63608
 C5 C 0.60362 0.62505 0.64572
 C6 C 0.59597 0.64995 0.63662
 C7 C 0.59944 0.68805 0.61363
 N8 N 0.57730 0.68799 0.62846
 C9 C 0.57500 0.66482 0.64268
 C10 C 0.59315 0.60705 0.66435
 N11 N 0.60905 0.58638 0.66656
 C12 C 0.62934 0.59096 0.64911
 C13 C 0.66411 0.62406 0.60359
 N14 N 0.67056 0.64495 0.58690
 C15 C 0.65248 0.66347 0.58983
 H16 H 0.60636 0.70406 0.60038
 H17 H 0.55950 0.65935 0.65676
 H18 H 0.57558 0.60920 0.67609
 H19 H 0.64535 0.57819 0.64605
 H20 H 0.67497 0.60630 0.60589
 H21 H 0.65248 0.68221 0.57889
 C22 C 0.88308 0.35559 0.10638
 C23 C 0.86190 0.36778 0.09571
 C24 C 0.85044 0.38826 0.10877
 C25 C 0.85987 0.39668 0.13278
 C26 C 0.88077 0.38466 0.14335
 C27 C 0.89239 0.36385 0.13010
 C28 C 0.89824 0.33552 0.09775
 N29 N 0.91641 0.33121 0.11572
 C30 C 0.91294 0.34850 0.13565
 C31 C 0.88574 0.39700 0.16661
 N32 N 0.86826 0.41608 0.17032
 C33 C 0.85232 0.41591 0.14984
 C34 C 0.83064 0.39657 0.09374
 N35 N 0.82964 0.38144 0.07211
 C36 C 0.84873 0.36379 0.07305
 H37 H 0.89616 0.32476 0.07969
 H38 H 0.92457 0.35030 0.15274
 H39 H 0.90069 0.39213 0.17999
 H40 H 0.83643 0.42893 0.14752
 H41 H 0.81779 0.41240 0.09824
 H42 H 0.85303 0.34939 0.05821
 C43 C 0.38554 0.15125 -0.12590
 C44 C 0.36392 0.13844 -0.11486
 C45 C 0.35734 0.11457 -0.12417
 C46 C 0.37205 0.10337 -0.14488
 C47 C 0.39347 0.11587 -0.15569
 C48 C 0.40036 0.13994 -0.14600
 C49 C 0.39654 0.17456 -0.12070
 N50 N 0.41776 0.17749 -0.13687
 C51 C 0.42027 0.15647 -0.15248
 C52 C 0.40375 0.10058 -0.17559
 N53 N 0.38888 0.07934 -0.17736
 C54 C 0.36953 0.08084 -0.15840
 C55 C 0.33622 0.10616 -0.10916
 N56 N 0.32974 0.12440 -0.09110
 C57 C 0.34655 0.14428 -0.09442
 H58 H 0.38980 0.18828 -0.10600
 H59 H 0.43529 0.15351 -0.16762
 H60 H 0.42048 0.10492 -0.18836
 H61 H 0.35453 0.06684 -0.15453
 H62 H 0.32650 0.08788 -0.11088
 H63 H 0.34677 0.16126 -0.08229
 C64 C 0.10444 0.84682 0.39135
 C65 C 0.12851 0.85438 0.39831
 C66 C 0.13869 0.87764 0.38772
 C67 C 0.12512 0.89348 0.36980
 C68 C 0.10126 0.88623 0.36334
 C69 C 0.09082 0.86284 0.37426
 C70 C 0.08993 0.82511 0.39806
 N71 N 0.06781 0.82774 0.38547
 C72 C 0.06820 0.85085 0.37108
 C73 C 0.09264 0.90499 0.34539
 N74 N 0.11081 0.92330 0.34044
 C75 C 0.13077 0.91648 0.35545
 C76 C 0.16178 0.88041 0.39855
 N77 N 0.16578 0.85945 0.41554
 C78 C 0.14571 0.84328 0.41525
 H79 H 0.09524 0.80885 0.41122
 H80 H 0.05326 0.85819 0.35873
 H81 H 0.07467 0.90495 0.33603
 H82 H 0.14821 0.92712 0.35598
 H83 H 0.17455 0.89660 0.39448
 H84 H 0.14350 0.82516 0.42716
 N85 N 0.09330 0.17789 0.12177
 N86 N 0.08613 0.16654 0.14519
 C87 C 0.06561 0.17894 0.15532
 C88 C 0.05951 0.19886 0.13718
 C89 C 0.07744 0.19767 0.11605
 H90 H 0.05575 0.17391 0.17445
 H91 H 0.07920 0.21057 0.09821
 Cu92 Cu 0.10422 0.13661 0.16007
 Cu93 Cu 0.12337 0.16703 0.10114
 Cu94 Cu 0.15603 0.11375 0.12722
 N95 N 0.12207 0.10601 0.17376
 N96 N 0.14269 0.09761 0.16118
 C97 C 0.15163 0.07682 0.17522
 C98 C 0.13560 0.07175 0.19759
 C99 C 0.11700 0.09061 0.19608
 H100 H 0.16840 0.06598 0.16948
 H101 H 0.10118 0.09309 0.21030
 N102 N 0.16648 0.13268 0.09310
 N103 N 0.15424 0.15314 0.08330
 C104 C 0.16648 0.16217 0.06032
 C105 C 0.18718 0.14651 0.05534
 C106 C 0.18668 0.12803 0.07651
 H107 H 0.16087 0.17896 0.04809
 H108 H 0.20030 0.11270 0.07989
 H109 H 0.12199 0.12842 0.11494
 H110 H 0.14197 0.15070 0.13348
 N111 N 0.39147 0.83413 0.60942
 N112 N 0.40297 0.84587 0.62836
 C113 C 0.42308 0.83154 0.63541
 C114 C 0.42404 0.80961 0.62017
 C115 C 0.40369 0.81180 0.60403
 H116 H 0.43567 0.83629 0.65091
 H117 H 0.39817 0.79811 0.58948
 Cu118 Cu 0.38952 0.87795 0.64280
 Cu119 Cu 0.36159 0.84860 0.59295
 Cu120 Cu 0.33527 0.90303 0.62240
 N121 N 0.37605 0.91007 0.65725
 N122 N 0.35440 0.91939 0.64940
 C123 C 0.34789 0.94009 0.66388
 C124 C 0.36651 0.94415 0.68157
 C125 C 0.38420 0.92479 0.67689
 H126 H 0.33052 0.95096 0.66226
 H127 H 0.40097 0.92097 0.68790
 N128 N 0.32166 0.88747 0.59063
 N129 N 0.33139 0.86651 0.57961
 C130 C 0.31803 0.86090 0.55822
 C131 C 0.29923 0.87941 0.55561
 C132 C 0.30215 0.89597 0.57634
 H133 H 0.32209 0.84500 0.54510
 H134 H 0.29099 0.91313 0.58045
 H135 H 0.36655 0.88702 0.60236
 H136 H 0.34883 0.86487 0.62738
 N137 N 0.91516 0.65021 0.39420
 N138 N 0.92995 0.63492 0.37984
 C139 C 0.95240 0.64657 0.37478
 C140 C 0.95154 0.67052 0.38633
 C141 C 0.92762 0.67228 0.39848
 H142 H 0.96821 0.63827 0.36352
 H143 H 0.92015 0.68802 0.41028
 Cu144 Cu 0.91873 0.60136 0.36861
 Cu145 Cu 0.88190 0.63917 0.40846
 Cu146 Cu 0.85831 0.58385 0.38195
 N147 N 0.90301 0.57447 0.34895
 N148 N 0.87927 0.56804 0.35379
 C149 C 0.87319 0.54952 0.33691
 C150 C 0.89435 0.54403 0.32069
 C151 C 0.91292 0.56016 0.32891
 H152 H 0.85481 0.54068 0.33662
 H153 H 0.93212 0.56159 0.32069
 N154 N 0.84016 0.60276 0.41063
 N155 N 0.84886 0.62427 0.42036
 C156 C 0.83279 0.63197 0.44038
 C157 C 0.81319 0.61431 0.44341
 C158 C 0.81846 0.59610 0.42429
 H159 H 0.83573 0.64848 0.45262
 H160 H 0.80756 0.57887 0.42113
 H161 H 0.88605 0.59945 0.40487
 H162 H 0.87663 0.61919 0.37419
 N163 N 0.60237 0.32245 -0.12106
 N164 N 0.59016 0.33682 -0.13875
 C165 C 0.56956 0.32376 -0.14533
 C166 C 0.56911 0.29993 -0.13110
 C167 C 0.59020 0.29972 -0.11604
 H168 H 0.55637 0.33062 -0.15998
 H169 H 0.59622 0.28412 -0.10244
 Cu170 Cu 0.60388 0.37002 -0.15320
 Cu171 Cu 0.63289 0.33426 -0.10540
 Cu172 Cu 0.65691 0.39385 -0.12933
 N173 N 0.61817 0.40312 -0.16715
 N174 N 0.63926 0.41184 -0.15814
 C175 C 0.64641 0.43347 -0.17276
 C176 C 0.62886 0.43873 -0.19180
 C177 C 0.61110 0.41916 -0.18773
 H178 H 0.66351 0.44422 -0.17028
 H179 H 0.59503 0.41613 -0.19972
 N180 N 0.67208 0.37266 -0.10028
 N181 N 0.66341 0.34953 -0.09179
 C182 C 0.67816 0.33959 -0.07252
 C183 C 0.69677 0.35742 -0.06853
 C184 C 0.69241 0.37817 -0.08644
 H185 H 0.67543 0.32092 -0.06183
 H186 H 0.70339 0.39581 -0.08940
 H187 H 0.62629 0.37386 -0.11191
 H188 H 0.64552 0.35732 -0.13875
 C189 C -0.06522 0.31281 0.11302
 C190 C -0.04800 0.30707 0.13285
 C191 C -0.02798 0.28751 0.12916
 N192 N -0.01558 0.27810 0.15080
 N193 N 0.00274 0.26053 0.14777
 C194 C 0.00949 0.25190 0.12292
 N195 N -0.00275 0.26148 0.10124
 N196 N -0.02122 0.27889 0.10431
 C197 C 0.02995 0.23284 0.11919
 C198 C 0.03888 0.21777 0.14076
 H199 H -0.04953 0.31631 0.15203
 H200 H 0.03754 0.23000 0.09885
 H201 H -0.06423 0.30170 0.09490
 H202 H 0.02998 0.21919 0.16079
 C203 C 0.56000 0.70945 0.62925
 C204 C 0.53427 0.70572 0.63459
 C205 C 0.51640 0.72764 0.63442
 N206 N 0.49161 0.72327 0.63124
 N207 N 0.47529 0.74302 0.63059
 C208 C 0.48313 0.76784 0.63335
 N209 N 0.50785 0.77217 0.63694
 N210 N 0.52422 0.75245 0.63733
 C211 C 0.46532 0.78981 0.63256
 C212 C 0.44200 0.78779 0.62124
 H213 H 0.52686 0.68614 0.63734
 H214 H 0.47118 0.80826 0.63989
 H215 H 0.56700 0.72885 0.62380
 H216 H 0.43709 0.77000 0.61186
 C217 C 1.04823 0.81073 0.38613
 C218 C 1.04947 0.78541 0.39747
 C219 C 1.02832 0.76723 0.39649
 N220 N 1.03247 0.74116 0.39875
 N221 N 1.01354 0.72446 0.39741
 C222 C 0.98973 0.73324 0.39399
 N223 N 0.98552 0.75931 0.39209
 N224 N 1.00450 0.77601 0.39316
 C225 C 0.96864 0.71504 0.39279
 C226 C 0.97246 0.68906 0.38675
 H227 H 1.06674 0.77794 0.40548
 H228 H 0.94967 0.72250 0.39580
 H229 H 1.03129 0.81666 0.37618
 H230 H 0.99128 0.68221 0.38143
 C231 C 0.43422 0.19954 -0.13724
 C232 C 0.45974 0.19742 -0.14458
 C233 C 0.47706 0.21954 -0.14393
 N234 N 0.50220 0.21516 -0.14342
 N235 N 0.51817 0.23496 -0.14257
 C236 C 0.50960 0.25990 -0.14248
 N237 N 0.48447 0.26433 -0.14335
 N238 N 0.46847 0.24450 -0.14392
 C239 C 0.52711 0.28187 -0.14156
 C240 C 0.55125 0.27834 -0.13236
 H241 H 0.46758 0.17859 -0.14937
 H242 H 0.52050 0.30129 -0.14699
 H243 H 0.42688 0.21776 -0.12985
 H244 H 0.55697 0.25925 -0.12469
 C245 C 0.10860 -0.05581 0.32280
 C246 C 0.12857 -0.03905 0.31511
 C247 C 0.12586 -0.01746 0.29495
 N248 N 0.14664 -0.00617 0.28255
 N249 N 0.14447 0.01309 0.26388
 C250 C 0.12141 0.02189 0.25707
 N251 N 0.10063 0.01083 0.26971
 N252 N 0.10280 -0.00857 0.28822
 C253 C 0.11867 0.04308 0.23648
 C254 C 0.13845 0.05083 0.21847
 H255 H 0.14709 -0.04256 0.32256
 H256 H 0.10029 0.05198 0.23476
 H257 H 0.09081 -0.05269 0.31338
 H258 H 0.15632 0.04064 0.21894
 C259 C 0.60499 0.56561 -0.31571
 C260 C 0.62318 0.54645 -0.31101
 C261 C 0.61948 0.52558 -0.28994
 N262 N 0.63974 0.51233 -0.28092
 N263 N 0.63695 0.49376 -0.26140
 C264 C 0.61377 0.48758 -0.25030
 N265 N 0.59342 0.50057 -0.25956
 N266 N 0.59623 0.51934 -0.27894
 C267 C 0.61069 0.46720 -0.22859
 C268 C 0.63087 0.45935 -0.21331
 H269 H 0.64150 0.54763 -0.32143
 H270 H 0.59218 0.45900 -0.22391
 H271 H 0.58739 0.56462 -0.30366
 H272 H 0.64883 0.46913 -0.21673
 C273 C 0.39290 1.06072 0.80417
 C274 C 0.37539 1.04116 0.80040
 C275 C 0.37874 1.02254 0.77886
 N276 N 0.35849 1.00938 0.77111
 N277 N 0.36088 0.99278 0.75129
 C278 C 0.38366 0.98854 0.73861
 N279 N 0.40403 1.00142 0.74661
 N280 N 0.40160 1.01825 0.76630
 C281 C 0.38624 0.97024 0.71665
 C282 C 0.36540 0.96330 0.70270
 H283 H 0.35768 1.04038 0.81206
 H284 H 0.40474 0.96281 0.71090
 H285 H 0.40973 1.06188 0.79088
 H286 H 0.34743 0.97262 0.70706
 C287 C 0.86588 0.43346 0.19216
 C288 C 0.88602 0.43915 0.20784
 C289 C 0.88352 0.45797 0.22934
 N290 N 0.90432 0.46675 0.24081
 N291 N 0.90227 0.48408 0.26003
 C292 C 0.87932 0.49317 0.26856
 N293 N 0.85853 0.48423 0.25726
 N294 N 0.86059 0.46701 0.23795
 C295 C 0.87661 0.51223 0.28979
 C296 C 0.89717 0.52506 0.29934
 H297 H 0.90433 0.43060 0.20348
 H298 H 0.85778 0.51666 0.29758
 H299 H 0.84815 0.44359 0.19547
 H300 H 0.91589 0.52155 0.29058
 C301 C 0.30958 0.12148 -0.07082
 C302 C 0.29912 0.14265 -0.05756
 C303 C 0.27913 0.13931 -0.03605
 N304 N 0.26603 0.16031 -0.02728
 N305 N 0.24806 0.15755 -0.00763
 C306 C 0.24266 0.13369 0.00411
 N307 N 0.25589 0.11273 -0.00451
 N308 N 0.27373 0.11546 -0.02427
 C309 C 0.22327 0.13029 0.02619
 C310 C 0.20603 0.14983 0.03268
 H311 H 0.30525 0.16222 -0.06350
 H312 H 0.22225 0.11162 0.03722
 H313 H 0.30186 0.10220 -0.06629
 H314 H 0.20589 0.16786 0.02048
 C315 C 0.69235 0.64751 0.56868
 C316 C 0.70541 0.62583 0.55931
 C317 C 0.72661 0.62811 0.53912
 N318 N 0.73554 0.60651 0.52709
 N319 N 0.75441 0.60821 0.50839
 C320 C 0.76515 0.63158 0.50111
 N321 N 0.75642 0.65317 0.51336
 N322 N 0.73743 0.65149 0.53197
 C323 C 0.78594 0.63366 0.48038
 C324 C 0.79215 0.61311 0.46385
 H325 H 0.69908 0.60644 0.56573
 H326 H 0.79606 0.65189 0.47766
 H327 H 0.69766 0.66678 0.56064
 H328 H 0.78100 0.59546 0.46565
 C329 C 0.81152 0.38456 0.05173
 C330 C 0.80550 0.36430 0.03544
 C331 C 0.78625 0.36728 0.01525
 N332 N 0.77691 0.34592 0.00414
 N333 N 0.75928 0.34833 -0.01397
 C334 C 0.75047 0.37222 -0.02178
 N335 N 0.75998 0.39359 -0.01087
 N336 N 0.77748 0.39117 0.00738
 C337 C 0.73099 0.37526 -0.04172
 C338 C 0.71677 0.35430 -0.04918
 H339 H 0.81420 0.34537 0.03841
 H340 H 0.72708 0.39471 -0.04982
 H341 H 0.80125 0.40279 0.05012
 H342 H 0.71961 0.33515 -0.03974
 C343 C 0.18682 0.85514 0.43220
 C344 C 0.20129 0.87573 0.44017
 C345 C 0.22101 0.87205 0.45972
 N346 N 0.23030 0.89302 0.47152
 N347 N 0.24759 0.89004 0.48993
 C348 C 0.25636 0.86597 0.49711
 N349 N 0.24732 0.84500 0.48504
 N350 N 0.22988 0.84796 0.46675
 C351 C 0.27520 0.86247 0.51771
 C352 C 0.28061 0.88234 0.53474
 H353 H 0.19684 0.89549 0.43350
 H354 H 0.28420 0.84362 0.52020
 H355 H 0.19009 0.83565 0.44063
 H356 H 0.27027 0.90053 0.53337
   
