data_POSCAR
  _audit_creation_date              2014-09-24
  _audit_creation_method            'ToBaCCo'
  _symmetry_space_group_name_H-M    'P1'
  _symmetry_Int_Tables_number       1
  _symmetry_cell_setting            triclinic
  loop_
  _symmetry_equiv_pos_as_xyz
 x,y,z
_cell_length_a 23.7048
_cell_length_b 23.6575
_cell_length_c 23.6960
_cell_angle_alpha 84.130200
_cell_angle_beta 95.126500
_cell_angle_gamma 94.651900
loop_
  _atom_site_label
  _atom_site_type_symbol
  _atom_site_fract_x
  _atom_site_fract_y
  _atom_site_fract_z
C1 C 0.60560 0.61882 0.00112
 C2 C 0.61767 0.56172 0.00542
 C3 C 0.57341 0.51882 0.00684
 C4 C 0.51593 0.53223 0.00002
 C5 C 0.50471 0.59051 -0.00541
 C6 C 0.54930 0.63330 -0.00332
 C7 C 0.46858 0.48571 -0.00174
 C8 C 0.41249 0.49546 0.00901
 C9 C 0.36892 0.45170 0.00674
 C10 C 0.38106 0.39705 -0.00332
 C11 C 0.43611 0.38623 -0.01302
 C12 C 0.47903 0.43040 -0.01409
 H13 H 0.64005 0.65203 0.00116
 H14 H 0.58473 0.47517 0.01349
 H15 H 0.46170 0.60338 -0.01178
 H16 H 0.40194 0.53650 0.01952
 H17 H 0.34762 0.36290 -0.00359
 H18 H 0.52026 0.42060 -0.02477
 C19 C -0.00059 0.60479 0.39497
 C20 C 0.00358 0.61763 0.45141
 C21 C 0.00523 0.57369 0.49584
 C22 C -0.00070 0.51579 0.48446
 C23 C -0.00656 0.50397 0.42670
 C24 C -0.00480 0.54816 0.38253
 C25 C -0.00072 0.46837 0.53221
 C26 C 0.01001 0.41222 0.52277
 C27 C 0.00839 0.36794 0.56675
 C28 C -0.00065 0.37939 0.62176
 C29 C -0.00972 0.43470 0.63265
 C30 C -0.01142 0.47843 0.58807
 H31 H -0.00055 0.63895 0.36065
 H32 H 0.01153 0.58555 0.53890
 H33 H -0.01288 0.46078 0.41514
 H34 H 0.01997 0.40194 0.48159
 H35 H -0.00062 0.34530 0.65604
 H36 H -0.02140 0.51988 0.59788
 C37 C 0.62152 0.00380 0.60329
 C38 C 0.56636 0.01319 0.61398
 C39 C 0.52310 0.01387 0.56987
 C40 C 0.53329 0.00139 0.51470
 C41 C 0.58949 -0.00906 0.50498
 C42 C 0.63345 -0.00636 0.54871
 C43 C 0.48556 -0.00080 0.46829
 C44 C 0.49620 0.00434 0.41007
 C45 C 0.45128 0.00193 0.36743
 C46 C 0.39518 -0.00258 0.38186
 C47 C 0.38366 -0.00662 0.43885
 C48 C 0.42823 -0.00768 0.48169
 H49 H 0.65512 0.00437 0.63755
 H50 H 0.48176 0.02431 0.57961
 H51 H 0.59973 -0.01968 0.46398
 H52 H 0.53895 0.01074 0.39701
 H53 H 0.36050 -0.00284 0.34873
 H54 H 0.41715 -0.01404 0.52522
 O55 O 0.46504 0.00814 -0.09798
 O56 O 0.44625 -0.00212 0.05573
 O57 O 0.44408 0.07898 -0.02684
 O58 O 0.46178 -0.07462 -0.01693
 O59 O 0.55444 -0.05800 0.00127
 O60 O 0.53663 0.09633 -0.00831
 O61 O 0.53892 0.01461 0.07380
 O62 O 0.55758 0.02520 -0.07915
 Cu63 Cu 0.44495 0.00077 -0.02325
 Cu64 Cu 0.55623 0.02112 -0.00114
 C65 C 0.51470 0.01842 -0.11437
 C66 C 0.48949 0.00512 0.09064
 C67 C 0.48712 0.11358 -0.01919
 C68 C 0.51106 -0.09229 -0.00678
 O69 O -0.07895 0.55199 0.99389
 O70 O 0.07451 0.53582 1.00273
 O71 O -0.00734 0.53250 0.92156
 O72 O 0.00150 0.55050 1.07513
 O73 O -0.01439 0.45737 1.09425
 O74 O -0.02358 0.43953 0.94121
 O75 O 0.05877 0.44273 1.02205
 O76 O -0.09545 0.45902 1.01358
 Cu77 Cu -0.00089 0.55203 0.99623
 Cu78 Cu -0.02020 0.44025 1.01947
 C79 C -0.11303 0.50860 1.00317
 C80 C 0.09265 0.48665 1.01393
 C81 C -0.01684 0.48276 0.90553
 C82 C -0.00559 0.50695 1.11051
 O83 O -0.00295 -0.07437 0.44970
 O84 O 0.00574 0.07905 0.46886
 O85 O 0.07732 0.00641 0.44894
 O86 O -0.07594 -0.00168 0.46495
 O87 O -0.05943 -0.02174 0.55788
 O88 O 0.09456 -0.01401 0.54177
 O89 O 0.02273 0.05868 0.56167
 O90 O 0.01371 -0.09423 0.54268
 Cu91 Cu -0.00072 0.00454 0.44880
 Cu92 Cu 0.01950 -0.01960 0.56041
 C93 C 0.00453 -0.11010 0.49299
 C94 C 0.01559 0.09470 0.51870
 C95 C 0.11174 -0.00337 0.49229
 C96 C -0.09366 -0.01316 0.51401
 C97 C -0.32750 0.54800 1.00634
 C98 C -0.27889 0.53669 1.00585
 C99 C -0.22167 0.52488 1.00446
 C100 C -0.17236 0.51639 1.00341
 C101 C 0.31093 0.46245 1.01282
 C102 C 0.26147 0.46934 1.01573
 C103 C 0.20289 0.47576 1.01693
 C104 C 0.15260 0.48066 1.01633
 C105 C 0.00479 -0.32693 0.46263
 C106 C 0.00477 -0.27752 0.47094
 C107 C 0.00413 -0.21938 0.47917
 C108 C 0.00382 -0.16954 0.48555
 C109 C 0.01391 0.31012 0.55503
 C110 C 0.01661 0.26131 0.54555
 C111 C 0.01784 0.20369 0.53510
 C112 C 0.01749 0.15413 0.52701
 C113 C 0.55351 0.01910 -0.32885
 C114 C 0.54305 0.02168 -0.28042
 C115 C 0.53164 0.02232 -0.22316
 C116 C 0.52306 0.02125 -0.17373
 C117 C 0.46216 0.00338 0.30848
 C118 C 0.46947 0.00362 0.25877
 C119 C 0.47668 0.00349 0.20031
 C120 C 0.48241 0.00372 0.15026
 C121 C 0.53850 -0.31080 -0.00486
 C122 C 0.53083 -0.26099 -0.00528
 C123 C 0.52349 -0.20236 -0.00525
 C124 C 0.51783 -0.15215 -0.00548
 C125 C 0.44914 0.32892 -0.01899
 C126 C 0.45957 0.28033 -0.02169
 C127 C 0.47078 0.22282 -0.02254
 C128 C 0.47912 0.17319 -0.02170
 C129 C -0.31166 -0.01187 0.53851
 C130 C -0.26226 -0.01476 0.53145
 C131 C -0.20376 -0.01597 0.52491
 C132 C -0.15353 -0.01543 0.51996
 C133 C 0.32587 -0.00752 0.45329
 C134 C 0.27735 -0.00682 0.46448
 C135 C 0.22022 -0.00518 0.47616
 C136 C 0.17098 -0.00389 0.48456
 C137 C -0.00596 0.53659 1.32725
 C138 C -0.00590 0.52821 1.27792
 C139 C -0.00521 0.52010 1.21982
 C140 C -0.00488 0.51397 1.16998
 C141 C -0.01522 0.44690 0.69024
 C142 C -0.01790 0.45653 0.73893
 C143 C -0.01911 0.46694 0.79650
 C144 C -0.01875 0.47483 0.84605
   
