data_POSCAR
  _audit_creation_date              2014-09-24
  _audit_creation_method            'ToBaCCo'
  _symmetry_space_group_name_H-M    'P1'
  _symmetry_Int_Tables_number       1
  _symmetry_cell_setting            triclinic
  loop_
  _symmetry_equiv_pos_as_xyz
 x,y,z
_cell_length_a 22.5781
_cell_length_b 22.4096
_cell_length_c 21.6238
_cell_angle_alpha 88.540700
_cell_angle_beta 91.126300
_cell_angle_gamma 91.232100
loop_
  _atom_site_label
  _atom_site_type_symbol
  _atom_site_fract_x
  _atom_site_fract_y
  _atom_site_fract_z
C1 C 0.24339 0.26276 0.26460
 C2 C 0.75260 0.73579 0.24177
 C3 C 0.73491 0.22958 0.75621
 C4 C 0.25225 0.77081 0.74386
 C5 C 0.07588 0.09566 0.05150
 H6 H 0.07422 0.11031 0.00344
 C7 C 0.10565 0.13054 0.09516
 H8 H 0.12662 0.17202 0.07987
 C9 C 0.04855 0.02445 0.12918
 H10 H 0.02585 -0.01677 0.14222
 C11 C 0.07795 0.05795 0.17447
 H12 H 0.07818 0.04127 0.22183
 N13 N 0.04847 0.04353 0.06898
 C14 C 0.03950 -0.07950 -0.08391
 H15 H -0.00711 -0.09176 -0.08437
 C16 C 0.07822 -0.10815 -0.12260
 H17 H 0.06117 -0.14206 -0.15340
 C18 C 0.11856 -0.02031 -0.04314
 H19 H 0.13444 0.01322 -0.01158
 C20 C 0.15846 -0.04696 -0.08166
 H21 H 0.20476 -0.03346 -0.07921
 Zn22 Zn 0.00671 0.00054 0.00722
 N23 N 0.06016 -0.03622 -0.04551
 C24 C -0.04241 0.05635 -0.10107
 N25 N -0.04028 0.05555 -0.03815
 C26 C -0.06975 0.09613 -0.00544
 C27 C -0.10357 0.13950 -0.03598
 C28 C -0.07641 0.09854 -0.13352
 C29 C -0.10072 -0.05310 0.04932
 C30 C -0.13541 -0.09839 0.07681
 C31 C -0.04751 -0.15723 0.09126
 C32 C -0.01439 -0.11049 0.06447
 N33 N -0.04130 -0.05977 0.04418
 H34 H -0.01795 0.02423 -0.12618
 H35 H -0.06684 0.09474 0.04457
 H36 H -0.12755 0.17060 -0.00892
 H37 H -0.07810 0.09832 -0.18358
 H38 H -0.12127 -0.01261 0.03245
 H39 H -0.18262 -0.09237 0.08095
 H40 H -0.02513 -0.19694 0.10781
 H41 H 0.03296 -0.11454 0.05976
 C42 C 0.13837 -0.09123 -0.12215
 C43 C 0.10710 0.11183 0.15769
 C44 C -0.10876 -0.15128 0.09793
 C45 C -0.10745 0.14082 -0.10083
 C46 C 0.09184 0.57257 0.55832
 H47 H 0.10135 0.57185 0.50954
 C48 C 0.12686 0.60774 0.59751
 H49 H 0.16373 0.63284 0.57804
 C50 C 0.03141 0.54088 0.64171
 H51 H -0.00670 0.51570 0.65833
 C52 C 0.06522 0.57579 0.68266
 H53 H 0.05247 0.57673 0.73054
 N54 N 0.04489 0.54047 0.58070
 C55 C 0.06415 0.40272 0.47892
 H56 H 0.05273 0.37963 0.52151
 C57 C 0.09880 0.37415 0.43598
 H58 H 0.11315 0.32909 0.44602
 C59 C 0.05949 0.48891 0.41357
 H60 H 0.04527 0.53419 0.40532
 C61 C 0.09331 0.46189 0.36930
 H62 H 0.10441 0.48684 0.32746
 Zn63 Zn -0.00402 0.50045 0.52221
 N64 N 0.04454 0.45894 0.46675
 C65 C -0.07717 0.53995 0.42386
 N66 N -0.04627 0.55853 0.47470
 C67 C -0.04657 0.61652 0.49176
 C68 C -0.07918 0.65837 0.45718
 C69 C -0.11031 0.58020 0.38806
 C70 C -0.04398 0.40267 0.60092
 C71 C -0.08680 0.36526 0.62898
 C72 C -0.16292 0.42487 0.58005
 C73 C -0.11897 0.46075 0.55299
 N74 N -0.06064 0.44875 0.56258
 H75 H -0.07626 0.49353 0.41142
 H76 H -0.02221 0.63025 0.53270
 H77 H -0.07951 0.70400 0.47227
 H78 H -0.13403 0.56418 0.34763
 H79 H 0.00247 0.39517 0.61033
 H80 H -0.07250 0.32841 0.65850
 H81 H -0.20862 0.43649 0.57164
 H82 H -0.13205 0.49872 0.52475
 C83 C 0.11305 0.40360 0.37992
 C84 C 0.11332 0.61054 0.66055
 C85 C -0.14735 0.37579 0.61803
 C86 C -0.11176 0.64037 0.40459
 C87 C 0.59895 0.06347 0.51922
 H88 H 0.60164 0.07671 0.47087
 C89 C 0.63754 0.08937 0.56263
 H90 H 0.67011 0.12238 0.54730
 C91 C 0.55239 0.00499 0.59786
 H92 H 0.51816 -0.02649 0.61191
 C93 C 0.59029 0.02940 0.64268
 H94 H 0.58431 0.01609 0.69062
 N95 N 0.55772 0.02175 0.53732
 C96 C 0.52035 -0.08034 0.37095
 H97 H 0.47274 -0.07725 0.36629
 C98 C 0.55156 -0.11264 0.32832
 H99 H 0.52772 -0.13374 0.29055
 C100 C 0.60889 -0.05947 0.42770
 H101 H 0.63112 -0.03951 0.46692
 C102 C 0.64156 -0.09246 0.38701
 H103 H 0.68883 -0.09671 0.39479
 Zn104 Zn 0.50580 -0.00950 0.47550
 N105 N 0.54948 -0.05323 0.41858
 C106 C 0.45106 0.05846 0.37603
 N107 N 0.46667 0.05649 0.43716
 C108 C 0.44927 0.09944 0.47591
 C109 C 0.41393 0.14605 0.45394
 C110 C 0.41449 0.10351 0.35247
 C111 C 0.46261 -0.10990 0.54614
 C112 C 0.41905 -0.14424 0.57662
 C113 C 0.34469 -0.08170 0.52845
 C114 C 0.38960 -0.04791 0.50039
 N115 N 0.44735 -0.06127 0.51094
 H116 H 0.46530 0.02439 0.34569
 H117 H 0.46146 0.09650 0.52449
 H118 H 0.39952 0.17911 0.48573
 H119 H 0.40139 0.10380 0.30402
 H120 H 0.50884 -0.12074 0.55238
 H121 H 0.43290 -0.18147 0.60581
 H122 H 0.29980 -0.06762 0.51995
 H123 H 0.37799 -0.01014 0.47096
 C124 C 0.61294 -0.11887 0.33622
 C125 C 0.63354 0.07221 0.62529
 C126 C 0.35881 -0.12959 0.56922
 C127 C 0.39507 0.14759 0.39185
 C128 C 0.58940 0.57020 0.02499
 H129 H 0.59327 0.58194 -0.02363
 C130 C 0.62643 0.59817 0.06854
 H131 H 0.65853 0.63118 0.05241
 C132 C 0.54122 0.51444 0.10441
 H133 H 0.50764 0.48225 0.11868
 C134 C 0.57751 0.54083 0.14931
 H135 H 0.57120 0.52738 0.19707
 N136 N 0.54715 0.52979 0.04356
 C137 C 0.49956 0.40868 -0.10409
 H138 H 0.45197 0.40812 -0.09998
 C139 C 0.52585 0.36603 -0.13972
 H140 H 0.49784 0.33449 -0.16441
 C141 C 0.59369 0.44746 -0.07320
 H142 H 0.62010 0.47779 -0.04558
 C143 C 0.62190 0.40569 -0.10880
 H144 H 0.66982 0.40460 -0.10824
 Zn145 Zn 0.49295 0.49513 -0.01453
 N146 N 0.53347 0.44780 -0.07096
 C147 C 0.41168 0.54088 -0.10512
 N148 N 0.45004 0.55575 -0.05835
 C149 C 0.45987 0.61384 -0.04368
 C150 C 0.43305 0.65955 -0.07829
 C151 C 0.38359 0.58528 -0.14081
 C152 C 0.46331 0.38853 0.04522
 C153 C 0.43033 0.34768 0.08055
 C154 C 0.35255 0.41981 0.08490
 C155 C 0.38692 0.45930 0.04848
 N156 N 0.44123 0.44292 0.02959
 H157 H 0.40325 0.49462 -0.11546
 H158 H 0.48870 0.62512 -0.00517
 H159 H 0.44174 0.70530 -0.06546
 H160 H 0.35425 0.57244 -0.17858
 H161 H 0.50723 0.37723 0.03095
 H162 H 0.44935 0.30501 0.09300
 H163 H 0.30944 0.43321 0.09986
 H164 H 0.37080 0.50321 0.03619
 C165 C 0.58774 0.36334 -0.14128
 C166 C 0.62017 0.58429 0.13195
 C167 C 0.37430 0.36310 0.10101
 C168 C 0.39504 0.64561 -0.12824
 N169 N 0.22715 -0.08790 -0.18813
 N170 N 0.25635 -0.12393 -0.22316
 C171 C 0.22986 -0.17889 -0.22222
 C172 C 0.17954 -0.17581 -0.18564
 C173 C 0.18040 -0.11785 -0.16441
 H174 H 0.14658 -0.20996 -0.17509
 H175 H 0.23859 -0.04298 -0.18213
 H176 H 0.29279 -0.10971 -0.24905
 N177 N 0.14277 0.38672 0.27097
 N178 N 0.17729 0.35087 0.24108
 C179 C 0.20646 0.31554 0.28236
 C180 C 0.18707 0.32809 0.34130
 C181 C 0.14748 0.37410 0.33211
 H182 H 0.19878 0.30560 0.38454
 H183 H 0.11458 0.41741 0.24919
 H184 H 0.17880 0.34919 0.19292
 N185 N 0.63316 -0.15847 0.23186
 N186 N 0.67060 -0.19519 0.20729
 C187 C 0.70891 -0.21477 0.25162
 C188 C 0.69497 -0.18886 0.30705
 C189 C 0.64674 -0.15366 0.29245
 H190 H 0.71454 -0.19717 0.35243
 H191 H 0.59866 -0.13769 0.20738
 H192 H 0.66873 -0.20805 0.16119
 N193 N 0.59052 0.25903 -0.17841
 N194 N 0.62867 0.22359 -0.20363
 C195 C 0.67988 0.25441 -0.21396
 C196 C 0.67283 0.31265 -0.19483
 C197 C 0.61593 0.31347 -0.17212
 H198 H 0.70453 0.34947 -0.19770
 H199 H 0.54836 0.24515 -0.16430
 H200 H 0.61883 0.17901 -0.21293
 N201 N -0.16310 0.23610 -0.11072
 N202 N -0.20429 0.25924 -0.14772
 C203 C -0.21565 0.22189 -0.19481
 C204 C -0.17732 0.17421 -0.18835
 C205 C -0.14626 0.18398 -0.13368
 H206 H -0.17505 0.13560 -0.21717
 H207 H -0.14777 0.25561 -0.06992
 H208 H -0.22462 0.29942 -0.13930
 N209 N -0.13807 0.74356 0.36690
 N210 N -0.17406 0.76822 0.32513
 C211 C -0.20747 0.72508 0.29831
 C212 C -0.19086 0.67030 0.32374
 C213 C -0.14685 0.68385 0.36710
 H214 H -0.20679 0.62656 0.31040
 H215 H -0.10642 0.76752 0.39254
 H216 H -0.17404 0.81376 0.31359
 N217 N 0.35549 0.25107 0.38710
 N218 N 0.31525 0.28111 0.35468
 C219 C 0.28601 0.24349 0.31633
 C220 C 0.31064 0.18739 0.32351
 C221 C 0.35422 0.19406 0.36881
 H222 H 0.29966 0.14774 0.29777
 H223 H 0.38499 0.27015 0.41913
 H224 H 0.30989 0.32715 0.35714
 N225 N 0.38834 0.75048 -0.16989
 N226 N 0.35126 0.78296 -0.20375
 C227 C 0.30471 0.74835 -0.22271
 C228 C 0.31484 0.69017 -0.20026
 C229 C 0.36733 0.69393 -0.16613
 H230 H 0.28709 0.65068 -0.20571
 H231 H 0.42750 0.76740 -0.14998
 H232 H 0.35871 0.82825 -0.21314
 N233 N -0.13008 -0.25745 0.13003
 N234 N -0.16716 -0.28688 0.16677
 C235 C -0.20595 -0.24831 0.18920
 C236 C -0.19269 -0.19158 0.16532
 C237 C -0.14416 -0.19932 0.12839
 H238 H -0.21222 -0.14983 0.17728
 H239 H -0.09492 -0.27697 0.10792
 H240 H -0.16419 -0.33225 0.17843
 N241 N -0.25181 0.33649 0.62765
 N242 N -0.28201 0.29875 0.66340
 C243 C -0.24484 0.27339 0.70542
 C244 C -0.18798 0.29668 0.69571
 C245 C -0.19434 0.33682 0.64607
 H246 H -0.14803 0.28690 0.72212
 H247 H -0.27101 0.36119 0.59126
 H248 H -0.32776 0.29134 0.65951
 N249 N 0.25560 -0.14958 0.59658
 N250 N 0.22637 -0.17802 0.64542
 C251 C 0.26689 -0.20535 0.68249
 C252 C 0.32276 -0.19597 0.65656
 C253 C 0.31417 -0.15917 0.60412
 H254 H 0.36477 -0.20932 0.67661
 H255 H 0.23396 -0.12410 0.56242
 H256 H 0.18124 -0.17401 0.65388
 N257 N 0.34504 0.26012 0.13662
 N258 N 0.31096 0.23441 0.17880
 C259 C 0.28217 0.27678 0.20890
 C260 C 0.29998 0.33245 0.18492
 C261 C 0.33960 0.31973 0.13903
 H262 H 0.28836 0.37605 0.20062
 H263 H 0.37170 0.23675 0.10709
 H264 H 0.30827 0.18836 0.18730
 N265 N 0.13288 0.14222 0.26641
 N266 N 0.16857 0.18130 0.29393
 C267 C 0.19915 0.21253 0.25055
 C268 C 0.18085 0.19308 0.19271
 C269 C 0.13930 0.14804 0.20462
 H270 H 0.19593 0.20952 0.14817
 H271 H 0.10417 0.11299 0.29008
 H272 H 0.17167 0.18654 0.34175
 N273 N 0.14655 0.64973 0.76423
 N274 N 0.18242 0.69221 0.78562
 C275 C 0.20742 0.72279 0.73767
 C276 C 0.18647 0.69664 0.68327
 C277 C 0.14787 0.65109 0.70192
 H278 H 0.19819 0.70872 0.63632
 H279 H 0.12294 0.61963 0.79250
 H280 H 0.19105 0.69859 0.83266
 N281 N 0.68204 0.07789 0.73002
 N282 N 0.70920 0.11882 0.76371
 C283 C 0.71806 0.16903 0.72878
 C284 C 0.69488 0.15874 0.66977
 C285 C 0.67187 0.10089 0.67279
 H286 H 0.68995 0.19038 0.63161
 H287 H 0.66855 0.03597 0.74733
 H288 H 0.71736 0.11364 0.81123
 N289 N 0.64525 0.61341 0.24107
 N290 N 0.68030 0.65234 0.26942
 C291 C 0.71484 0.68073 0.22743
 C292 C 0.70024 0.65910 0.16933
 C293 C 0.65578 0.61643 0.17979
 H294 H 0.71704 0.67533 0.12542
 H295 H 0.61291 0.58774 0.26380
 H296 H 0.67849 0.66125 0.31652
   
