data_POSCAR
  _audit_creation_date              2014-09-24
  _audit_creation_method            'ToBaCCo'
  _symmetry_space_group_name_H-M    'P1'
  _symmetry_Int_Tables_number       1
  _symmetry_cell_setting            triclinic
  loop_
  _symmetry_equiv_pos_as_xyz
 x,y,z
_cell_length_a 38.6991
_cell_length_b 38.5320
_cell_length_c 38.8043
_cell_angle_alpha 75.479900
_cell_angle_beta 98.785700
_cell_angle_gamma 107.274800
loop_
  _atom_site_label
  _atom_site_type_symbol
  _atom_site_fract_x
  _atom_site_fract_y
  _atom_site_fract_z
C1 C 0.59004 0.58398 0.00619
 C2 C 0.59261 0.55200 -0.00355
 C3 C 0.56050 0.52331 -0.00643
 C4 C 0.52724 0.52450 0.00299
 C5 C 0.52593 0.55663 0.01326
 C6 C 0.55672 0.58754 0.01345
 C7 C 0.49403 0.49227 0.00151
 C8 C 0.45871 0.49714 -0.00357
 C9 C 0.42782 0.46670 -0.00406
 C10 C 0.43233 0.43146 -0.00212
 C11 C 0.46702 0.42581 0.00245
 C12 C 0.49751 0.45600 0.00547
 H13 H 0.61464 0.60514 0.01086
 H14 H 0.56108 0.50046 -0.01752
 H15 H 0.50041 0.55792 0.01985
 H16 H 0.45481 0.52440 -0.00676
 H17 H 0.40861 0.40845 -0.00476
 H18 H 0.52396 0.45076 0.01146
 C19 C -0.00628 0.56417 0.41472
 C20 C -0.01397 0.56746 0.44795
 C21 C -0.01284 0.53762 0.47748
 C22 C -0.00134 0.50692 0.47504
 C23 C 0.00793 0.50576 0.44166
 C24 C 0.00480 0.53372 0.41089
 C25 C 0.00149 0.47641 0.50740
 C26 C -0.00209 0.43993 0.50376
 C27 C 0.00085 0.41127 0.53374
 C28 C 0.00553 0.41878 0.56796
 C29 C 0.00755 0.45429 0.57257
 C30 C 0.00699 0.48318 0.54226
 H31 H -0.01173 0.58415 0.39103
 H32 H -0.01976 0.53870 0.50291
 H33 H 0.01922 0.48381 0.43998
 H34 H -0.00806 0.43329 0.47765
 H35 H 0.00804 0.39699 0.59125
 H36 H 0.01025 0.51075 0.54625
 C37 C 0.56139 0.00343 0.57974
 C38 C 0.53026 0.01339 0.58309
 C39 C 0.50384 0.01521 0.55422
 C40 C 0.50755 0.00591 0.52244
 C41 C 0.53907 -0.00427 0.51977
 C42 C 0.56714 -0.00440 0.54777
 C43 C 0.47874 0.00710 0.49195
 C44 C 0.48774 0.01491 0.45648
 C45 C 0.46083 0.01376 0.42782
 C46 C 0.42462 0.00746 0.43454
 C47 C 0.41494 0.00112 0.46945
 C48 C 0.44201 0.00002 0.49803
 H49 H 0.58025 0.00015 0.60314
 H50 H 0.48069 0.02448 0.55659
 H51 H 0.54197 -0.01099 0.49525
 H52 H 0.51582 0.02225 0.45078
 H53 H 0.40382 0.00734 0.41247
 H54 H 0.43410 -0.00715 0.52503
 O55 O 0.47754 -0.00288 -0.04075
 O56 O 0.47402 -0.01408 0.05544
 O57 O 0.47095 0.03861 0.00026
 O58 O 0.48219 -0.05602 0.01534
 O59 O 0.54165 -0.03284 0.02099
 O60 O 0.53051 0.06131 0.00617
 O61 O 0.53355 0.00852 0.06185
 O62 O 0.53700 0.02024 -0.03492
 Cu63 Cu 0.47023 -0.01110 0.00691
 Cu64 Cu 0.54167 0.01638 0.01414
 C65 C 0.50777 0.01088 -0.05442
 C66 C 0.50294 -0.00383 0.07496
 C67 C 0.49888 0.06608 0.00115
 C68 C 0.51396 -0.06054 0.02055
 O69 O -0.02854 0.54442 0.97524
 O70 O 0.06486 0.53626 0.98423
 O71 O 0.01373 0.53630 0.93282
 O72 O 0.02263 0.54249 1.02747
 O73 O 0.00225 0.48138 1.04319
 O74 O -0.00716 0.47526 0.94904
 O75 O 0.04447 0.47514 1.00018
 O76 O -0.04911 0.48337 0.99142
 Cu77 Cu 0.02010 0.54601 0.97839
 Cu78 Cu -0.00451 0.47270 0.99756
 C79 C -0.05482 0.51538 0.98193
 C80 C 0.07065 0.50431 0.99334
 C81 C 0.00218 0.50452 0.92485
 C82 C 0.01402 0.51291 1.05155
 O83 O -0.03137 -0.05821 0.46678
 O84 O -0.01289 0.03829 0.47587
 O85 O 0.02669 -0.00366 0.46876
 O86 O -0.07077 -0.01749 0.47616
 O87 O -0.06197 -0.03619 0.53458
 O88 O 0.03513 -0.02086 0.52738
 O89 O -0.00536 0.02016 0.53447
 O90 O -0.02237 -0.07677 0.52519
 Cu91 Cu -0.02290 -0.00838 0.46604
 Cu92 Cu -0.01273 -0.03024 0.53625
 C93 C -0.02965 -0.08397 0.49422
 C94 C -0.00659 0.04574 0.50667
 C95 C 0.04750 -0.01021 0.49688
 C96 C -0.08294 -0.02905 0.50683
 C97 C -0.30426 0.54097 0.98189
 C98 C -0.31032 0.57629 0.97546
 C99 C -0.34420 0.58000 0.97966
 C100 C -0.37331 0.54841 0.99044
 C101 C -0.36708 0.51298 0.99600
 C102 C -0.33316 0.50939 0.99185
 C103 C -0.26781 0.53708 0.97920
 N104 N -0.26170 0.50292 0.98649
 N105 N -0.22871 0.49943 0.98527
 C106 C -0.20037 0.52994 0.97670
 N107 N -0.20653 0.56409 0.96918
 N108 N -0.23952 0.56759 0.97041
 C109 C -0.16336 0.52610 0.97658
 C110 C -0.13398 0.55777 0.96825
 C111 C -0.09887 0.55425 0.96951
 C112 C -0.09227 0.51896 0.97915
 C113 C -0.12169 0.48724 0.98694
 C114 C -0.15682 0.49076 0.98566
 H115 H -0.28878 0.60127 0.96731
 H116 H -0.34750 0.60787 0.97336
 H117 H -0.38765 0.48765 1.00546
 H118 H -0.32946 0.48171 0.99718
 H119 H -0.13799 0.58542 0.96108
 H120 H -0.07682 0.57925 0.96331
 H121 H -0.11755 0.45965 0.99440
 H122 H -0.17878 0.46575 0.99219
 C123 C 0.32049 0.47932 0.99459
 C124 C 0.34626 0.50673 0.97334
 C125 C 0.38102 0.50264 0.97337
 C126 C 0.39076 0.47114 0.99478
 C127 C 0.36496 0.44384 1.01603
 C128 C 0.33026 0.44780 1.01584
 C129 C 0.28365 0.48341 0.99486
 N130 N 0.25754 0.45480 1.01176
 N131 N 0.22441 0.45831 1.01218
 C132 C 0.21599 0.49065 0.99582
 N133 N 0.24211 0.51932 0.97894
 N134 N 0.27524 0.51577 0.97844
 C135 C 0.17901 0.49437 0.99612
 C136 C 0.17146 0.52907 0.98319
 C137 C 0.13643 0.53239 0.98289
 C138 C 0.10808 0.50105 0.99528
 C139 C 0.11567 0.46642 1.00850
 C140 C 0.15076 0.46314 1.00903
 H141 H 0.33955 0.53127 0.95652
 H142 H 0.40012 0.52396 0.95639
 H143 H 0.37179 0.41960 1.03337
 H144 H 0.31122 0.42627 1.03272
 H145 H 0.19260 0.55371 0.97319
 H146 H 0.13145 0.55946 0.97246
 H147 H 0.09444 0.44176 1.01827
 H148 H 0.15561 0.43599 1.01918
 C149 C -0.03294 -0.33259 0.46001
 C150 C -0.01479 -0.33255 0.43141
 C151 C -0.00902 -0.36528 0.42731
 C152 C -0.02170 -0.39962 0.45147
 C153 C -0.04085 -0.39942 0.47973
 C154 C -0.04609 -0.36638 0.48402
 C155 C -0.03703 -0.29721 0.46504
 N156 N -0.04412 -0.29405 0.49720
 N157 N -0.04581 -0.26152 0.50197
 C158 C -0.04069 -0.23092 0.47473
 N159 N -0.03405 -0.23428 0.44253
 N160 N -0.03217 -0.26668 0.43781
 C161 C -0.04071 -0.19418 0.48009
 C162 C -0.04149 -0.16459 0.45048
 C163 C -0.03889 -0.12917 0.45520
 C164 C -0.03520 -0.12232 0.48966
 C165 C -0.03535 -0.15207 0.51934
 C166 C -0.03824 -0.18771 0.51459
 H167 H -0.00385 -0.30685 0.41265
 H168 H 0.00725 -0.36267 0.40603
 H169 H -0.05290 -0.42470 0.49830
 H170 H -0.06072 -0.36738 0.50608
 H171 H -0.04362 -0.16863 0.42353
 H172 H -0.03895 -0.10692 0.43174
 H173 H -0.03265 -0.14770 0.54623
 H174 H -0.03754 -0.20992 0.53796
 C175 C -0.00070 0.30165 0.52388
 C176 C 0.01604 0.33347 0.49907
 C177 C 0.01609 0.36896 0.50193
 C178 C -0.00084 0.37343 0.52951
 C179 C -0.01833 0.34149 0.55377
 C180 C -0.01810 0.30608 0.55110
 C181 C 0.00025 0.26408 0.52167
 N182 N -0.00929 0.23445 0.54929
 N183 N -0.00841 0.20068 0.54743
 C184 C 0.00197 0.19506 0.51782
 N185 N 0.01152 0.22470 0.49020
 N186 N 0.01080 0.25852 0.49213
 C187 C 0.00195 0.15726 0.51540
 C188 C 0.00468 0.14983 0.48240
 C189 C 0.00264 0.11376 0.47973
 C190 C -0.00176 0.08436 0.51006
 C191 C -0.00341 0.09195 0.54325
 C192 C -0.00176 0.12797 0.54586
 H193 H 0.02976 0.33106 0.47781
 H194 H 0.03019 0.39297 0.48306
 H195 H -0.03230 0.34382 0.57488
 H196 H -0.03163 0.28214 0.57040
 H197 H 0.00756 0.17172 0.45841
 H198 H 0.00410 0.10883 0.45378
 H199 H -0.00690 0.06988 0.56709
 H200 H -0.00372 0.13277 0.57173
 C201 C 0.51820 0.02855 -0.31369
 C202 C 0.55125 0.04517 -0.32944
 C203 C 0.55473 0.04137 -0.36348
 C204 C 0.52528 0.02086 -0.38256
 C205 C 0.49177 0.00561 -0.36755
 C206 C 0.48826 0.00940 -0.33345
 C207 C 0.51566 0.02944 -0.27622
 N208 N 0.48398 0.01311 -0.26059
 N209 N 0.48234 0.01196 -0.22627
 C210 C 0.51232 0.02701 -0.20610
 N211 N 0.54390 0.04366 -0.22183
 N212 N 0.54554 0.04484 -0.25614
 C213 C 0.51096 0.02410 -0.16750
 C214 C 0.54276 0.03665 -0.14603
 C215 C 0.54173 0.03252 -0.10936
 C216 C 0.50886 0.01585 -0.09334
 C217 C 0.47698 0.00374 -0.11486
 C218 C 0.47802 0.00777 -0.15150
 H219 H 0.57477 0.06043 -0.31517
 H220 H 0.58071 0.05397 -0.37467
 H221 H 0.46867 -0.01053 -0.38158
 H222 H 0.46237 -0.00366 -0.32218
 H223 H 0.56861 0.04933 -0.15745
 H224 H 0.56674 0.04225 -0.09353
 H225 H 0.45119 -0.00916 -0.10335
 H226 H 0.45301 -0.00217 -0.16721
 C227 C 0.48304 0.01712 0.32143
 C228 C 0.45807 0.03499 0.32665
 C229 C 0.45191 0.03528 0.36109
 C230 C 0.47022 0.01724 0.39112
 C231 C 0.49606 0.00040 0.38578
 C232 C 0.50257 0.00055 0.35131
 C233 C 0.48725 0.01415 0.28513
 N234 N 0.51662 0.00536 0.27819
 N235 N 0.51954 0.00137 0.24571
 C236 C 0.49300 0.00561 0.21900
 N237 N 0.46371 0.01446 0.22597
 N238 N 0.46092 0.01870 0.25833
 C239 C 0.49569 0.00080 0.18299
 C240 C 0.46435 -0.00599 0.15937
 C241 C 0.46670 -0.00894 0.12477
 C242 C 0.50050 -0.00466 0.11280
 C243 C 0.53182 0.00135 0.13662
 C244 C 0.52939 0.00375 0.17153
 H245 H 0.44297 0.04845 0.30410
 H246 H 0.43246 0.04926 0.36419
 H247 H 0.51028 -0.01420 0.40827
 H248 H 0.52188 -0.01357 0.34814
 H249 H 0.43795 -0.00877 0.16752
 H250 H 0.44207 -0.01345 0.10705
 H251 H 0.55824 0.00475 0.12812
 H252 H 0.55400 0.00897 0.18918
 C253 C 0.54744 -0.30942 0.02830
 C254 C 0.57604 -0.31042 0.01068
 C255 C 0.57935 -0.34415 0.00638
 C256 C 0.55431 -0.37838 0.01992
 C257 C 0.52620 -0.37703 0.03862
 C258 C 0.52275 -0.34310 0.04250
 C259 C 0.54295 -0.27325 0.03077
 N260 N 0.51109 -0.27078 0.03926
 N261 N 0.50665 -0.23791 0.03979
 C262 C 0.53395 -0.20618 0.03201
 N263 N 0.56588 -0.20875 0.02389
 N264 N 0.57026 -0.24155 0.02320
 C265 C 0.52879 -0.16933 0.03113
 C266 C 0.55868 -0.13763 0.02860
 C267 C 0.55386 -0.10252 0.02593
 C268 C 0.51898 -0.09817 0.02543
 C269 C 0.48910 -0.12991 0.02855
 C270 C 0.49397 -0.16515 0.03154
 H271 H 0.59538 -0.28492 -0.00094
 H272 H 0.60066 -0.34261 -0.00946
 H273 H 0.50709 -0.40201 0.05131
 H274 H 0.50071 -0.34331 0.05679
 H275 H 0.58590 -0.13984 0.02840
 H276 H 0.57747 -0.07866 0.02358
 H277 H 0.46189 -0.12749 0.02835
 H278 H 0.47036 -0.18899 0.03340
 C279 C 0.47752 0.31765 0.00160
 C280 C 0.50254 0.35025 -0.01452
 C281 C 0.49941 0.38526 -0.01379
 C282 C 0.47136 0.38851 0.00332
 C283 C 0.44680 0.35586 0.02008
 C284 C 0.44974 0.32086 0.01909
 C285 C 0.48017 0.28057 -0.00012
 N286 N 0.45256 0.24956 0.00930
 N287 N 0.45489 0.21622 0.00764
 C288 C 0.48498 0.21248 -0.00343
 N289 N 0.51259 0.24349 -0.01284
 N290 N 0.51019 0.27684 -0.01133
 C291 C 0.48801 0.17529 -0.00434
 C292 C 0.52165 0.17042 -0.00833
 C293 C 0.52499 0.13505 -0.00727
 C294 C 0.49469 0.10380 -0.00259
 C295 C 0.46082 0.10878 0.00036
 C296 C 0.45755 0.14413 -0.00033
 H297 H 0.52419 0.34879 -0.02832
 H298 H 0.51846 0.40982 -0.02742
 H299 H 0.42528 0.35734 0.03405
 H300 H 0.43024 0.29630 0.03211
 H301 H 0.54565 0.19381 -0.01148
 H302 H 0.55144 0.13213 -0.00972
 H303 H 0.43700 0.08522 0.00410
 H304 H 0.43120 0.14695 0.00260
 C305 C -0.33218 -0.02300 0.53580
 C306 C -0.33466 -0.00418 0.56147
 C307 C -0.36752 0.00182 0.56530
 C308 C -0.39955 -0.01142 0.54397
 C309 C -0.39672 -0.03078 0.51837
 C310 C -0.36349 -0.03618 0.51422
 C311 C -0.29677 -0.02813 0.53154
 N312 N -0.26983 -0.02545 0.55839
 N313 N -0.23742 -0.02857 0.55443
 C314 C -0.23044 -0.03430 0.52337
 N315 N -0.25743 -0.03717 0.49649
 N316 N -0.29001 -0.03429 0.50054
 C317 C -0.19367 -0.03587 0.51882
 C318 C -0.18232 -0.03041 0.48466
 C319 C -0.14650 -0.02888 0.48062
 C320 C -0.12153 -0.03321 0.51069
 C321 C -0.13334 -0.03996 0.54484
 C322 C -0.16889 -0.04110 0.54884
 H323 H -0.31084 0.00695 0.57812
 H324 H -0.36680 0.01856 0.58409
 H325 H -0.42010 -0.04308 0.50205
 H326 H -0.36245 -0.05122 0.49444
 H327 H -0.20077 -0.02624 0.46100
 H328 H -0.13823 -0.02374 0.45396
 H329 H -0.11484 -0.04346 0.56858
 H330 H -0.17682 -0.04565 0.57554
 C331 C 0.30407 -0.00676 0.48308
 C332 C 0.33287 0.01107 0.50485
 C333 C 0.36876 0.01277 0.50110
 C334 C 0.37663 -0.00362 0.47573
 C335 C 0.34764 -0.02272 0.45499
 C336 C 0.31185 -0.02405 0.45846
 C337 C 0.26625 -0.00648 0.48525
 N338 N 0.24020 -0.01472 0.45856
 N339 N 0.20633 -0.01381 0.46004
 C340 C 0.19703 -0.00475 0.48833
 N341 N 0.22305 0.00339 0.51508
 N342 N 0.25699 0.00269 0.51351
 C343 C 0.15919 -0.00431 0.49015
 C344 C 0.14711 -0.00484 0.52269
 C345 C 0.11098 -0.00616 0.52474
 C346 C 0.08624 -0.00645 0.49419
 C347 C 0.09852 -0.00491 0.46145
 C348 C 0.13454 -0.00410 0.45950
 H349 H 0.32780 0.02471 0.52406
 H350 H 0.39043 0.02804 0.51723
 H351 H 0.35261 -0.03644 0.43581
 H352 H 0.29025 -0.03850 0.44166
 H353 H 0.16538 -0.00505 0.54680
 H354 H 0.10234 -0.00724 0.55034
 H355 H 0.08006 -0.00523 0.43748
 H356 H 0.14304 -0.00346 0.43397
 C357 C 0.02057 0.52663 1.30657
 C358 C 0.02722 0.56132 1.31538
 C359 C 0.02297 0.56364 1.34975
 C360 C 0.01186 0.53127 1.37671
 C361 C 0.00684 0.49649 1.36803
 C362 C 0.01092 0.49426 1.33346
 C363 C 0.02247 0.52442 1.26925
 N364 N 0.01364 0.49100 1.25981
 N365 N 0.01384 0.48919 1.22599
 C366 C 0.02285 0.52070 1.20012
 N367 N 0.03195 0.55409 1.20962
 N368 N 0.03173 0.55590 1.24342
 C369 C 0.02180 0.51874 1.16220
 C370 C 0.03104 0.55141 1.13546
 C371 C 0.02887 0.54957 1.09960
 C372 C 0.01736 0.51502 1.08961
 C373 C 0.00851 0.48235 1.11638
 C374 C 0.01073 0.48418 1.15221
 H375 H 0.03533 0.58692 1.29556
 H376 H 0.02928 0.59119 1.35509
 H377 H -0.00238 0.47060 1.38712
 H378 H 0.00566 0.46701 1.32765
 H379 H 0.03972 0.57852 1.14215
 H380 H 0.03592 0.57526 1.07966
 H381 H -0.00039 0.45525 1.10964
 H382 H 0.00341 0.45844 1.17202
 C383 C 0.00640 0.47219 0.67792
 C384 C 0.02860 0.49937 0.65302
 C385 C 0.02950 0.49355 0.61898
 C386 C 0.00816 0.46046 0.60907
 C387 C -0.01391 0.43334 0.63405
 C388 C -0.01471 0.43907 0.66800
 C389 C 0.00496 0.47806 0.71401
 N390 N -0.01431 0.45034 0.73866
 N391 N -0.01575 0.45525 0.77110
 C392 C 0.00192 0.48816 0.78037
 N393 N 0.02115 0.51599 0.75571
 N394 N 0.02265 0.51104 0.72321
 C395 C 0.00071 0.49310 0.81687
 C396 C 0.01647 0.52783 0.82608
 C397 C 0.01620 0.53186 0.86092
 C398 C 0.00037 0.50120 0.88734
 C399 C -0.01587 0.46667 0.87796
 C400 C -0.01581 0.46270 0.84317
 H401 H 0.04535 0.52513 0.65982
 H402 H 0.04708 0.51484 0.60051
 H403 H -0.03125 0.40786 0.62711
 H404 H -0.03227 0.41757 0.68634
 H405 H 0.02930 0.55187 0.80647
 H406 H 0.02902 0.55882 0.86732
 H407 H -0.02837 0.44249 0.89763
 H408 H -0.02827 0.43554 0.83710
   
