data_POSCAR
  _audit_creation_date              2014-09-24
  _audit_creation_method            'ToBaCCo'
  _symmetry_space_group_name_H-M    'P1'
  _symmetry_Int_Tables_number       1
  _symmetry_cell_setting            triclinic
  loop_
  _symmetry_equiv_pos_as_xyz
 x,y,z
_cell_length_a 24.7888
_cell_length_b 24.4124
_cell_length_c 28.7667
_cell_angle_alpha 89.822400
_cell_angle_beta 90.178500
_cell_angle_gamma 118.604400
loop_
  _atom_site_label
  _atom_site_type_symbol
  _atom_site_fract_x
  _atom_site_fract_y
  _atom_site_fract_z
O1 O 0.05109 0.65834 1.29958
 O2 O -0.05437 0.60937 1.20190
 O3 O -0.06566 0.59592 1.29101
 O4 O 0.06476 0.66799 1.21045
 O5 O 0.06637 0.57857 1.20523
 O6 O -0.06207 0.50726 1.29010
 O7 O -0.05443 0.51898 1.19911
 O8 O 0.05688 0.57086 1.29722
 Cu9 Cu -0.00130 0.64165 1.25074
 Cu10 Cu 0.00230 0.53498 1.24724
 C11 C 0.07125 0.62336 1.31575
 C12 C -0.07350 0.55584 1.18419
 C13 C -0.08532 0.54024 1.30516
 C14 C 0.08772 0.63560 1.19389
 O15 O 0.34795 0.41080 1.29361
 O16 O 0.41946 0.34475 1.21739
 O17 O 0.41434 0.36418 1.30970
 O18 O 0.34619 0.39750 1.20860
 O19 O 0.42936 0.48913 1.20126
 O20 O 0.50201 0.45112 1.30031
 O21 O 0.50105 0.43670 1.20805
 O22 O 0.43238 0.50211 1.29241
 Cu23 Cu 0.37577 0.36895 1.25624
 Cu24 Cu 0.47503 0.47889 1.24916
 C25 C 0.37824 0.46677 1.30754
 C26 C 0.47119 0.37879 1.19875
 C27 C 0.46767 0.40281 1.32393
 C28 C 0.37486 0.45032 1.18904
 O29 O 0.55565 0.93359 1.30154
 O30 O 0.65201 1.05370 1.21545
 O31 O 0.60770 1.05685 1.29729
 O32 O 0.58598 0.93087 1.21423
 O33 O 0.50986 0.94005 1.18149
 O34 O 0.52634 1.05645 1.26547
 O35 O 0.56940 1.05497 1.18766
 O36 O 0.47438 0.93055 1.26766
 Cu37 Cu 0.60867 0.99359 1.26029
 Cu38 Cu 0.51079 0.99411 1.22457
 C39 C 0.49784 0.90980 1.29758
 C40 C 0.62701 1.07522 1.18748
 C41 C 0.57052 1.07898 1.29411
 C42 C 0.54397 0.91481 1.18337
 O43 O 0.94181 0.56309 0.69623
 O44 O 1.04518 0.65010 0.79601
 O45 O 1.05575 0.65171 0.70709
 O46 O 0.92488 0.58314 0.78285
 O47 O 0.94322 0.50535 0.79998
 O48 O 1.07230 0.57102 0.71529
 O49 O 1.06302 0.57059 0.80654
 O50 O 0.95869 0.48435 0.71335
 Cu51 Cu 0.98991 0.61928 0.74459
 Cu52 Cu 1.01102 0.52537 0.76022
 C53 C 0.93369 0.50817 0.68800
 C54 C 1.07294 0.62475 0.81732
 C55 C 1.08626 0.62414 0.69752
 C56 C 0.91157 0.53359 0.80483
 O57 O 0.41614 0.33879 0.71281
 O58 O 0.33699 0.39574 0.79001
 O59 O 0.35394 0.39854 0.70055
 O60 O 0.39873 0.33556 0.79968
 O61 O 0.48559 0.42415 0.80576
 O62 O 0.43768 0.48975 0.70657
 O63 O 0.42282 0.48489 0.79776
 O64 O 0.50096 0.42972 0.71617
 Cu65 Cu 0.36757 0.35859 0.74985
 Cu66 Cu 0.47024 0.46656 0.75726
 C67 C 0.47193 0.37372 0.70205
 C68 C 0.36675 0.44952 0.80787
 C69 C 0.38718 0.45403 0.68643
 C70 C 0.45057 0.36819 0.81875
 O71 O 0.62928 0.05674 0.69415
 O72 O 0.59161 -0.06300 0.78689
 O73 O 0.56640 -0.06475 0.69833
 O74 O 0.65779 0.06054 0.78383
 O75 O 0.57446 0.06543 0.80435
 O76 O 0.48579 -0.05550 0.71990
 O77 O 0.50980 -0.05464 0.80659
 O78 O 0.54739 0.06331 0.71633
 Cu79 Cu 0.62026 -0.00283 0.73937
 Cu80 Cu 0.52163 0.00591 0.76382
 C81 C 0.59216 0.07842 0.68873
 C82 C 0.54367 -0.07991 0.81164
 C83 C 0.50966 -0.08063 0.69454
 C84 C 0.63133 0.08359 0.80878
 O85 O 0.37512 0.60419 0.94527
 O86 O 0.44611 0.72322 0.95791
 C87 C 0.43441 0.76222 0.93713
 O88 O 0.38881 0.77018 0.94716
 O89 O 0.27045 0.72485 0.96260
 C90 C 0.23095 0.67554 0.94252
 O91 O 0.22488 0.62203 0.95130
 O92 O 0.27413 0.54907 0.95845
 C93 C 0.32219 0.55998 0.93583
 O94 O 0.37114 0.58514 1.03798
 O95 O 0.43787 0.70433 1.05018
 C96 C 0.44173 0.75653 1.05994
 O97 O 0.41032 0.77820 1.03959
 O98 O 0.29205 0.72881 1.05480
 C99 C 0.24272 0.68066 1.06640
 O100 O 0.22151 0.62894 1.04506
 O101 O 0.27317 0.55851 1.05175
 C102 C 0.32141 0.55482 1.06022
 Cr103 Cr 0.40435 0.65454 0.99785
 Cr104 Cr 0.34010 0.74707 1.00097
 Cr105 Cr 0.25183 0.59271 1.00153
 O106 O 0.33197 0.66475 1.00015
 O107 O 0.56984 0.27331 0.95223
 O108 O 0.63697 0.21863 0.96067
 C109 C 0.68759 0.23697 0.93922
 O110 O 0.73625 0.28639 0.94940
 O111 O 0.78687 0.40679 0.95841
 C112 C 0.76296 0.43395 0.93500
 O113 O 0.71318 0.43331 0.94586
 O114 O 0.59668 0.37293 0.96435
 C115 C 0.56542 0.32171 0.94344
 O116 O 0.56500 0.28223 1.04589
 O117 O 0.63374 0.22917 1.05400
 C118 C 0.68615 0.23512 1.06343
 O119 O 0.73481 0.27234 1.04222
 O120 O 0.78218 0.39258 1.05210
 C121 C 0.77707 0.44105 1.05878
 O122 O 0.73976 0.45291 1.03650
 O123 O 0.62295 0.38527 1.05598
 C124 C 0.57876 0.33272 1.06762
 Cr125 Cr 0.60428 0.25400 1.00318
 Cr126 Cr 0.75672 0.33940 1.00063
 Cr127 Cr 0.66857 0.40810 1.00078
 O128 O 0.67639 0.33351 1.00163
 O129 O 0.62329 0.38590 0.55918
 O130 O 0.74133 0.41772 0.55872
 C131 C 0.78221 0.40053 0.55686
 O132 O 0.78274 0.36350 0.52605
 O133 O 0.69743 0.24742 0.53447
 C134 C 0.64114 0.20886 0.54072
 O135 O 0.60242 0.20504 0.51094
 O136 O 0.57702 0.28110 0.56025
 C137 C 0.58861 0.33296 0.57836
 O138 O 0.63231 0.41302 0.46515
 O139 O 0.74835 0.44458 0.46714
 C140 C 0.76750 0.42170 0.43543
 O141 O 0.75745 0.36524 0.43535
 O142 O 0.67354 0.24557 0.43853
 C143 C 0.62456 0.23806 0.41768
 O144 O 0.58849 0.25591 0.43479
 O145 O 0.55231 0.32305 0.48335
 C146 C 0.57592 0.37390 0.46139
 Cr147 Cr 0.68565 0.41279 0.51221
 Cr148 Cr 0.72591 0.30571 0.48387
 Cr149 Cr 0.58238 0.26792 0.49749
 O150 O 0.66551 0.32994 0.49771
 O151 O 0.29192 0.57054 0.55596
 O152 O 0.22103 0.62180 0.55117
 C153 C 0.24059 0.67286 0.57394
 O154 O 0.28655 0.72361 0.56157
 O155 O 0.39682 0.79334 0.52476
 C156 C 0.42289 0.77923 0.55642
 O157 O 0.43399 0.73414 0.55062
 O158 O 0.39211 0.61357 0.53872
 C159 C 0.34456 0.57498 0.56124
 O160 O 0.28958 0.55710 0.46369
 O161 O 0.22039 0.60908 0.45557
 C162 C 0.21138 0.65556 0.45194
 O163 O 0.23765 0.70193 0.47843
 O164 O 0.34722 0.75931 0.44251
 C165 C 0.39780 0.76451 0.42831
 O166 O 0.43183 0.74893 0.45297
 O167 O 0.38650 0.62719 0.44538
 C168 C 0.33730 0.57612 0.43841
 Cr169 Cr 0.25791 0.59215 0.50653
 Cr170 Cr 0.31763 0.74267 0.50205
 Cr171 Cr 0.40915 0.68132 0.49713
 O172 O 0.32805 0.67090 0.50184
 N173 N 0.28114 0.48088 0.39150
 N174 N 0.29240 0.45080 0.35494
 C175 C 0.35080 0.48686 0.34091
 C176 C 0.37805 0.54105 0.36788
 C177 C 0.33284 0.53475 0.39962
 H178 H 0.42508 0.57821 0.36632
 H179 H 0.23985 0.46278 0.40988
 H180 H 0.26082 0.40684 0.34237
 N181 N 0.37070 0.78288 0.35042
 N182 N 0.39780 0.82642 0.31522
 C183 C 0.45816 0.85948 0.32482
 C184 C 0.47136 0.83739 0.36587
 C185 C 0.41469 0.79047 0.38131
 H186 H 0.51464 0.85736 0.38444
 H187 H 0.32335 0.75420 0.35403
 H188 H 0.37399 0.83276 0.28750
 N189 N 0.15723 0.70631 0.41501
 N190 N 0.12175 0.69862 0.37885
 C191 C 0.11027 0.64533 0.35720
 C192 C 0.13966 0.61727 0.38082
 C193 C 0.16912 0.65803 0.41733
 H194 H 0.14050 0.57456 0.37224
 H195 H 0.17358 0.74469 0.43730
 H196 H 0.10593 0.72977 0.36927
 N197 N 0.47282 0.35599 0.44039
 N198 N 0.44409 0.36054 0.40327
 C199 C 0.48587 0.39278 0.37040
 C200 C 0.54452 0.41080 0.38763
 C201 C 0.53373 0.38532 0.43218
 H202 H 0.58766 0.43342 0.36903
 H203 H 0.45058 0.33013 0.46995
 H204 H 0.39635 0.34034 0.40025
 N205 N 0.55892 0.20315 0.34819
 N206 N 0.54194 0.15665 0.31497
 C207 C 0.57751 0.12930 0.32095
 C208 C 0.61853 0.15806 0.35745
 C209 C 0.60444 0.20332 0.37394
 H210 H 0.65088 0.14483 0.37216
 H211 H 0.53665 0.22966 0.35359
 H212 H 0.50654 0.14498 0.29083
 N213 N 0.80125 0.51876 0.39002
 N214 N 0.83898 0.54936 0.35577
 C215 C 0.86536 0.51586 0.34026
 C216 C 0.84268 0.46053 0.36574
 C217 C 0.80231 0.46474 0.39733
 H218 H 0.85583 0.42429 0.36324
 H219 H 0.77585 0.53536 0.40851
 H220 H 0.84750 0.59334 0.34410
 N221 N 0.49483 0.27493 1.12425
 N222 N 0.46725 0.28706 1.15876
 C223 C 0.49462 0.34923 1.16552
 C224 C 0.54233 0.37817 1.13373
 C225 C 0.54044 0.32903 1.10794
 H226 H 0.57221 0.42766 1.12879
 H227 H 0.48170 0.23018 1.11169
 H228 H 0.42938 0.25309 1.17674
 N229 N 0.81839 0.54302 1.09807
 N230 N 0.86079 0.57530 1.13283
 C231 C 0.88372 0.53847 1.14836
 C232 C 0.85715 0.48246 1.12403
 C233 C 0.81658 0.48738 1.09298
 H234 H 0.86585 0.44332 1.12844
 H235 H 0.79324 0.56007 1.07955
 H236 H 0.87151 0.61986 1.14448
 N237 N 0.74071 0.19494 1.11571
 N238 N 0.72497 0.15193 1.14863
 C239 C 0.66363 0.12479 1.15442
 C240 C 0.63944 0.15145 1.12439
 C241 C 0.68948 0.19555 1.10049
 H242 H 0.59175 0.14007 1.12032
 H243 H 0.78555 0.22296 1.10395
 H244 H 0.75568 0.14155 1.16654
 N245 N 0.26725 0.46466 1.11369
 N246 N 0.28161 0.43656 1.14699
 C247 C 0.34305 0.46665 1.15291
 C248 C 0.36919 0.51576 1.12167
 C249 C 0.31936 0.51269 1.09744
 H250 H 0.41727 0.54943 1.11768
 H251 H 0.22251 0.45096 1.10237
 H252 H 0.24958 0.39816 1.16588
 N253 N 0.21681 0.73970 1.12475
 N254 N 0.17571 0.72778 1.15779
 C255 C 0.13981 0.66553 1.16135
 C256 C 0.15872 0.63640 1.12881
 C257 C 0.20760 0.68535 1.10610
 H258 H 0.13889 0.58695 1.12188
 H259 H 0.24974 0.78448 1.11465
 H260 H 0.17231 0.76193 1.17740
 N261 N 0.52416 0.78062 1.11962
 N262 N 0.55266 0.82361 1.15191
 C263 C 0.53165 0.86523 1.14971
 C264 C 0.48854 0.84838 1.11456
 C265 C 0.48471 0.79447 1.09657
 H266 H 0.46125 0.87052 1.10503
 H267 H 0.53062 0.74184 1.11438
 H268 H 0.58390 0.82285 1.17601
 N269 N 0.51796 0.27546 0.64253
 N270 N 0.48580 0.28593 0.67424
 C271 C 0.50276 0.34713 0.67413
 C272 C 0.54826 0.37748 0.64119
 C273 C 0.55576 0.32982 0.62139
 H274 H 0.56872 0.42583 0.63044
 H275 H 0.51166 0.23121 0.63412
 H276 H 0.45156 0.25127 0.69460
 N277 N 0.55687 0.15110 0.59505
 N278 N 0.54478 0.11968 0.63418
 C279 C 0.59517 0.11697 0.64828
 C280 C 0.64274 0.14963 0.61647
 C281 C 0.61580 0.17073 0.58308
 H282 H 0.68896 0.15581 0.61700
 H283 H 0.52454 0.15868 0.57681
 H284 H 0.50164 0.09866 0.65006
 N285 N 0.86913 0.39723 0.59619
 N286 N 0.90840 0.42542 0.63013
 C287 C 0.89812 0.47056 0.64793
 C288 C 0.84927 0.47099 0.62410
 C289 C 0.83211 0.42306 0.59157
 H290 H 0.82861 0.50061 0.63009
 H291 H 0.86745 0.36020 0.57697
 H292 H 0.94174 0.41354 0.64096
 N293 N 0.29778 0.47016 0.59544
 N294 N 0.30867 0.43851 0.62778
 C295 C 0.36419 0.47520 0.64670
 C296 C 0.39067 0.53333 0.62460
 C297 C 0.34620 0.52782 0.59237
 H298 H 0.43407 0.57406 0.63229
 H299 H 0.25714 0.45248 0.57611
 H300 H 0.27757 0.39279 0.63736
 N301 N 0.39004 0.82733 0.61676
 N302 N 0.41350 0.86509 0.65540
 C303 C 0.47152 0.87588 0.66179
 C304 C 0.48564 0.84288 0.62836
 C305 C 0.43280 0.81310 0.60075
 H306 H 0.52938 0.84414 0.62282
 H307 H 0.34853 0.81784 0.60119
 H308 H 0.39060 0.88504 0.67327
 N309 N 0.20456 0.72966 0.62388
 N310 N 0.15944 0.71538 0.65722
 C311 C 0.13529 0.65421 0.66731
 C312 C 0.16362 0.62780 0.64076
 C313 C 0.20574 0.67659 0.61344
 H314 H 0.15215 0.57913 0.63907
 H315 H 0.22870 0.77294 0.60744
 H316 H 0.14671 0.74717 0.67079
 N317 N 0.26350 0.46769 0.88497
 N318 N 0.27534 0.43853 0.85116
 C319 C 0.33577 0.47028 0.84126
 C320 C 0.36370 0.52195 0.86983
 C321 C 0.31626 0.51831 0.89723
 H322 H 0.41198 0.55588 0.87169
 H323 H 0.22025 0.45224 0.89991
 H324 H 0.24267 0.39703 0.83586
 N325 N 0.18458 0.73176 0.89807
 N326 N 0.14176 0.71815 0.86577
 C327 C 0.11832 0.65751 0.85436
 C328 C 0.14743 0.63154 0.88055
 C329 C 0.18916 0.68002 0.90777
 H330 H 0.13989 0.58406 0.87944
 H331 H 0.21013 0.77578 0.91304
 H332 H 0.12973 0.75016 0.85141
 N333 N 0.52727 0.79614 0.88729
 N334 N 0.55669 0.83815 0.85463
 C335 C 0.52602 0.87015 0.84637
 C336 C 0.47472 0.84744 0.87490
 C337 C 0.47723 0.80051 0.90033
 H338 H 0.44061 0.86302 0.87696
 H339 H 0.54157 0.76523 0.90043
 H340 H 0.59692 0.84451 0.83840
 N341 N 0.47320 0.26385 0.89380
 N342 N 0.44234 0.27644 0.86189
 C343 C 0.47016 0.33860 0.85481
 C344 C 0.52085 0.36711 0.88388
 C345 C 0.52098 0.31779 0.90801
 H346 H 0.55359 0.41627 0.88638
 H347 H 0.46155 0.21901 0.90551
 H348 H 0.40362 0.24265 0.84457
 N349 N 0.77765 0.50467 0.86881
 N350 N 0.81662 0.53028 0.83425
 C351 C 0.85876 0.51036 0.83602
 C352 C 0.84645 0.47041 0.87336
 C353 C 0.79479 0.46858 0.89338
 H354 H 0.87226 0.44760 0.88508
 H355 H 0.74067 0.51271 0.87565
 H356 H 0.81460 0.56146 0.81025
 N357 N 0.74218 0.20549 0.88083
 N358 N 0.72756 0.16462 0.84664
 C359 C 0.66589 0.13179 0.84367
 C360 C 0.64015 0.15216 0.87766
 C361 C 0.69006 0.19892 0.90047
 H362 H 0.59190 0.13592 0.88436
 H363 H 0.78714 0.23732 0.89035
 H364 H 0.75934 0.16017 0.82541
   
