data_POSCAR
  _audit_creation_date              2014-09-24
  _audit_creation_method            'ToBaCCo'
  _symmetry_space_group_name_H-M    'P1'
  _symmetry_Int_Tables_number       1
  _symmetry_cell_setting            triclinic
  loop_
  _symmetry_equiv_pos_as_xyz
 x,y,z
_cell_length_a 49.4001
_cell_length_b 49.4386
_cell_length_c 49.3592
_cell_angle_alpha 89.991200
_cell_angle_beta 89.997200
_cell_angle_gamma 89.959700
loop_
  _atom_site_label
  _atom_site_type_symbol
  _atom_site_fract_x
  _atom_site_fract_y
  _atom_site_fract_z
C1 C 0.18787 0.15260 0.18791
 C2 C 0.17620 0.14113 0.21116
 C3 C 0.15284 0.15248 0.22328
 C4 C 0.14144 0.17578 0.21114
 C5 C 0.15295 0.18744 0.18794
 C6 C 0.17629 0.17586 0.17633
 C7 C 0.21109 0.14110 0.17623
 C8 C 0.22335 0.15258 0.15300
 C9 C 0.21133 0.17600 0.14172
 C10 C 0.18810 0.18762 0.15319
 C11 C 0.17647 0.21087 0.14176
 C12 C 0.15326 0.22267 0.15327
 C13 C 0.14161 0.21078 0.17637
 H14 H 0.18496 0.12266 0.21901
 H15 H 0.12424 0.18584 0.22024
 H16 H 0.22016 0.12386 0.18624
 H17 H 0.21925 0.18487 0.12331
 H18 H 0.18538 0.21971 0.12374
 H19 H 0.12394 0.21995 0.18559
 C20 C -0.18771 0.84717 0.18770
 C21 C -0.17610 0.85861 0.21100
 C22 C -0.15285 0.84715 0.22324
 C23 C -0.14151 0.82379 0.21118
 C24 C -0.15295 0.81217 0.18793
 C25 C -0.17618 0.82385 0.17620
 C26 C -0.21101 0.85858 0.17607
 C27 C -0.22323 0.84709 0.15283
 C28 C -0.21114 0.82373 0.14152
 C29 C -0.18792 0.81212 0.15301
 C30 C -0.17622 0.78891 0.14155
 C31 C -0.15301 0.77714 0.15308
 C32 C -0.14147 0.78896 0.17626
 H33 H -0.18614 0.87582 0.22008
 H34 H -0.12307 0.81496 0.21908
 H35 H -0.22011 0.87579 0.18609
 H36 H -0.21902 0.81488 0.12309
 H37 H -0.18507 0.78012 0.12349
 H38 H -0.12381 0.77978 0.18552
 C39 C -0.18824 0.15330 -0.18730
 C40 C -0.17663 0.14197 -0.21065
 C41 C -0.15351 0.15358 -0.22253
 C42 C -0.14199 0.17674 -0.21070
 C43 C -0.15339 0.18831 -0.18741
 C44 C -0.17666 0.17660 -0.17571
 C45 C -0.21147 0.14184 -0.17566
 C46 C -0.22365 0.15325 -0.15236
 C47 C -0.21159 0.17660 -0.14099
 C48 C -0.18839 0.18826 -0.15247
 C49 C -0.17671 0.21144 -0.14098
 C50 C -0.15353 0.22327 -0.15251
 C51 C -0.14197 0.21151 -0.17573
 H52 H -0.18584 0.12432 -0.21984
 H53 H -0.12396 0.18562 -0.21950
 H54 H -0.22054 0.12466 -0.18574
 H55 H -0.21946 0.18539 -0.12253
 H56 H -0.18556 0.22020 -0.12289
 H57 H -0.12434 0.22070 -0.18500
 C58 C 0.18774 0.84717 -0.18826
 C59 C 0.17596 0.85865 -0.21143
 C60 C 0.15271 0.84714 -0.22358
 C61 C 0.14153 0.82370 -0.21152
 C62 C 0.15313 0.81205 -0.18835
 C63 C 0.17630 0.82380 -0.17665
 C64 C 0.21102 0.85860 -0.17667
 C65 C 0.22299 0.84703 -0.15356
 C66 C 0.21132 0.82380 -0.14200
 C67 C 0.18809 0.81213 -0.15338
 C68 C 0.17661 0.78881 -0.14199
 C69 C 0.15347 0.77694 -0.15354
 C70 C 0.14182 0.78877 -0.17668
 H71 H 0.18590 0.87591 -0.22052
 H72 H 0.12312 0.81483 -0.21937
 H73 H 0.21968 0.87672 -0.18549
 H74 H 0.22061 0.81453 -0.12440
 H75 H 0.18596 0.77962 -0.12437
 H76 H 0.12377 0.77995 -0.18550
 C77 C 0.15279 1.18783 0.81191
 C78 C 0.14127 1.17613 0.78871
 C79 C 0.15272 1.15288 0.77651
 C80 C 0.17614 1.14159 0.78856
 C81 C 0.18778 1.15308 0.81177
 C82 C 0.17605 1.17625 0.82353
 C83 C 0.14135 1.21110 0.82353
 C84 C 0.15272 1.22324 0.84686
 C85 C 0.17601 1.21110 0.85831
 C86 C 0.18765 1.18787 0.84685
 C87 C 0.21098 1.17629 0.85822
 C88 C 0.22285 1.15317 0.84663
 C89 C 0.21103 1.14165 0.82344
 H90 H 0.12405 1.18615 0.77961
 H91 H 0.18499 1.12318 0.78068
 H92 H 0.12288 1.21895 0.81474
 H93 H 0.18609 1.22021 0.87549
 H94 H 0.22016 1.18553 0.87589
 H95 H 0.21984 1.12361 0.81457
 C96 C 0.84743 0.81198 0.81224
 C97 C 0.85885 0.82363 0.78896
 C98 C 0.84747 0.84698 0.77687
 C99 C 0.82420 0.85839 0.78906
 C100 C 0.81258 0.84689 0.81230
 C101 C 0.82418 0.82356 0.82388
 C102 C 0.85895 0.78877 0.82390
 C103 C 0.84752 0.77654 0.84716
 C104 C 0.82411 0.78855 0.85850
 C105 C 0.81246 0.81177 0.84706
 C106 C 0.78923 0.82342 0.85854
 C107 C 0.77741 0.84662 0.84705
 C108 C 0.78926 0.85824 0.82392
 H109 H 0.87731 0.81486 0.78107
 H110 H 0.81411 0.87558 0.77998
 H111 H 0.87617 0.77970 0.81384
 H112 H 0.81528 0.78064 0.87693
 H113 H 0.78043 0.81452 0.87658
 H114 H 0.78008 0.87591 0.81471
 C115 C 0.15290 0.81171 1.18784
 C116 C 0.14132 0.82339 1.21103
 C117 C 0.15274 0.84660 1.22287
 C118 C 0.17593 0.85819 1.21112
 C119 C 0.18769 0.84677 1.18793
 C120 C 0.17610 0.82347 1.17620
 C121 C 0.14154 0.78848 1.17617
 C122 C 0.15299 0.77641 1.15283
 C123 C 0.17626 0.78862 1.14143
 C124 C 0.18778 0.81188 1.15290
 C125 C 0.21109 0.82353 1.14159
 C126 C 0.22286 0.84668 1.15321
 C127 C 0.21095 0.85820 1.17637
 H128 H 0.12326 0.81452 1.21977
 H129 H 0.18511 0.87585 1.22033
 H130 H 0.12309 0.78058 1.18495
 H131 H 0.18639 0.77955 1.12425
 H132 H 0.22035 0.81431 1.12394
 H133 H 0.21966 0.87626 1.18527
 C134 C 0.84699 1.18830 1.18773
 C135 C 0.85847 1.17668 1.21098
 C136 C 0.84718 1.15331 1.22307
 C137 C 0.82393 1.14184 1.21089
 C138 C 0.81227 1.15328 1.18764
 C139 C 0.82378 1.17661 1.17604
 C140 C 0.85840 1.21152 1.17602
 C141 C 0.84680 1.22334 1.15284
 C142 C 0.82361 1.21155 1.14132
 C143 C 0.81201 1.18832 1.15277
 C144 C 0.78880 1.17667 1.14135
 C145 C 0.77707 1.15347 1.15290
 C146 C 0.78898 1.14189 1.17604
 H147 H 0.87690 1.18552 1.21885
 H148 H 0.81391 1.12464 1.21999
 H149 H 0.87605 1.22071 1.18526
 H150 H 0.81471 1.22033 1.12327
 H151 H 0.77997 1.18553 1.12331
 H152 H 0.77985 1.12422 1.18528
 N153 N 0.52844 1.04781 0.97103
 N154 N 0.54946 1.06402 0.96814
 N155 N 0.47148 1.02901 0.95219
 N156 N 0.45045 1.03196 0.93595
 N157 N 0.47145 1.04776 0.97102
 N158 N 0.45040 1.06396 0.96811
 N159 N 0.52848 1.02906 0.95220
 N160 N 0.54953 1.03201 0.93600
 C161 C 0.56241 1.05396 0.94615
 C162 C 0.43751 1.05390 0.94609
 N163 N 0.47160 0.95199 0.97089
 N164 N 0.45058 0.93579 0.96795
 N165 N 0.52858 0.97084 0.95212
 N166 N 0.54963 0.96795 0.93590
 N167 N 0.52859 0.95204 0.97090
 N168 N 0.54965 0.93585 0.96797
 N169 N 0.47158 0.97079 0.95211
 N170 N 0.45055 0.96789 0.93588
 Mn171 Mn 0.50003 0.99993 0.95181
 C172 C 0.43766 0.94591 0.94596
 C173 C 0.56256 0.94598 0.94599
 N174 N 0.47143 1.04766 1.02933
 N175 N 0.45036 1.06382 1.03227
 N176 N 0.52846 1.02892 1.04812
 N177 N 0.54951 1.03183 1.06433
 N178 N 0.52843 1.04772 1.02934
 N179 N 0.54944 1.06393 1.03226
 N180 N 0.47147 1.02886 1.04812
 N181 N 0.45041 1.03172 1.06433
 Mn182 Mn 0.49994 1.04808 1.00018
 C183 C 0.43745 1.05368 1.05424
 C184 C 0.56239 1.05382 1.05424
 N185 N 0.52859 0.95195 1.02922
 N186 N 0.54966 0.93578 1.03212
 N187 N 0.47156 0.97065 1.04804
 N188 N 0.45052 0.96770 1.06425
 N189 N 0.47159 0.95190 1.02921
 N190 N 0.45057 0.93569 1.03210
 N191 N 0.52856 0.97070 1.04805
 N192 N 0.54960 0.96780 1.06426
 Mn193 Mn 0.50009 0.95163 1.00006
 Mn194 Mn 0.50001 0.99978 1.04843
 Cl195 Cl 0.50002 0.99985 1.00012
 C196 C 0.56256 0.94587 1.05412
 C197 C 0.43763 0.94575 1.05410
 N198 N 0.02963 0.47152 0.04792
 N199 N 0.03248 0.45051 0.06417
 N200 N 0.04860 0.52838 0.02904
 N201 N 0.06484 0.54938 0.03191
 N202 N 0.02981 0.52847 0.04785
 N203 N 0.03276 0.54953 0.06401
 N204 N 0.04842 0.47143 0.02912
 N205 N 0.06456 0.45035 0.03207
 C206 C 0.05441 0.43750 0.05408
 C207 C 0.05475 0.56236 0.05387
 N208 N 0.02982 0.52837 -0.04808
 N209 N 0.03277 0.54938 -0.06429
 N210 N 0.04843 0.47136 -0.02920
 N211 N 0.06458 0.45028 -0.03210
 N212 N 0.02964 0.47141 -0.04801
 N213 N 0.03250 0.45037 -0.06421
 N214 N 0.04861 0.52831 -0.02927
 N215 N 0.06485 0.54930 -0.03219
 Mn216 Mn 0.04886 0.49987 -0.00008
 C217 C 0.05477 0.56223 -0.05418
 C218 C 0.05444 0.43739 -0.05408
 N219 N -0.02846 0.52870 0.04785
 N220 N -0.03134 0.54973 0.06407
 N221 N -0.04742 0.47179 0.02911
 N222 N -0.06366 0.45082 0.03203
 N223 N -0.02863 0.47174 0.04792
 N224 N -0.03159 0.45072 0.06414
 N225 N -0.04724 0.52874 0.02904
 N226 N -0.06341 0.54980 0.03196
 Mn227 Mn 0.00059 0.50011 0.04823
 C228 C -0.05329 0.56269 0.05395
 C229 C -0.05359 0.43788 0.05403
 N230 N -0.02863 0.47163 -0.04800
 N231 N -0.03160 0.45059 -0.06418
 N232 N -0.04724 0.52868 -0.02927
 N233 N -0.06339 0.54975 -0.03221
 N234 N -0.02845 0.52859 -0.04808
 N235 N -0.03132 0.54961 -0.06432
 N236 N -0.04741 0.47173 -0.02919
 N237 N -0.06368 0.45076 -0.03206
 Mn238 Mn 0.00059 0.50000 -0.04839
 Mn239 Mn -0.04767 0.50024 -0.00008
 Cl240 Cl 0.00059 0.50006 -0.00008
 C241 C -0.05361 0.43777 -0.05403
 C242 C -0.05326 0.56261 -0.05422
 N243 N 0.95154 -0.02884 0.47148
 N244 N 0.93535 -0.03175 0.45041
 N245 N 0.97034 -0.04761 0.52852
 N246 N 0.96746 -0.06380 0.54958
 N247 N 0.95154 -0.02884 0.52853
 N248 N 0.93535 -0.03175 0.54960
 N249 N 0.97035 -0.04761 0.47148
 N250 N 0.96745 -0.06381 0.45043
 C251 C 0.94547 -0.05371 0.43749
 C252 C 0.94549 -0.05371 0.56253
 N253 N 1.04738 -0.02884 0.52853
 N254 N 1.06359 -0.03176 0.54958
 N255 N 1.02861 -0.04762 0.47149
 N256 N 1.03153 -0.06382 0.45045
 N257 N 1.04739 -0.02885 0.47148
 N258 N 1.06360 -0.03178 0.45043
 N259 N 1.02861 -0.04762 0.52853
 N260 N 1.03153 -0.06381 0.54959
 Mn261 Mn 0.99948 -0.04796 0.50001
 C262 C 1.05350 -0.05371 0.56252
 C263 C 1.05350 -0.05374 0.43751
 N264 N 0.95151 0.02939 0.52851
 N265 N 0.93530 0.03231 0.54956
 N266 N 0.97030 0.04815 0.47146
 N267 N 0.96740 0.06434 0.45039
 N268 N 0.95151 0.02939 0.47146
 N269 N 0.93533 0.03229 0.45038
 N270 N 0.97029 0.04816 0.52850
 N271 N 0.96736 0.06436 0.54955
 Mn272 Mn 0.95118 0.00027 0.49999
 C273 C 0.94539 0.05427 0.56249
 C274 C 0.94544 0.05424 0.43745
 N275 N 1.04736 0.02936 0.47147
 N276 N 1.06357 0.03226 0.45042
 N277 N 1.02855 0.04815 0.52851
 N278 N 1.03146 0.06435 0.54956
 N279 N 1.04735 0.02937 0.52851
 N280 N 1.06355 0.03229 0.54957
 N281 N 1.02857 0.04814 0.47146
 N282 N 1.03148 0.06432 0.45039
 Mn283 Mn 1.04772 0.00026 0.50000
 Mn284 Mn 0.99943 0.04850 0.49998
 Cl285 Cl 0.99945 0.00027 0.50000
 C286 C 1.05347 0.05421 0.43747
 C287 C 1.05343 0.05424 0.56250
 C288 C 1.11844 0.11836 0.29460
 C289 C 1.10228 0.13313 0.27671
 C290 C 1.11349 0.14430 0.25323
 C291 C 1.14128 0.14092 0.24705
 C292 C 1.15721 0.12576 0.26546
 C293 C 1.14588 0.11468 0.28892
 C294 C 1.10693 0.10715 0.31892
 C295 C 1.09742 0.09781 0.33937
 C296 C 1.08620 0.08672 0.36387
 C297 C 1.06346 0.09869 0.37582
 C298 C 1.05275 0.08809 0.39980
 C299 C 1.06470 0.06538 0.41210
 C300 C 1.08747 0.05341 0.39991
 C301 C 1.09816 0.06404 0.37594
 H302 H 1.08091 0.13591 0.28081
 H303 H 1.09986 0.15465 0.23958
 H304 H 1.17877 0.12326 0.26266
 H305 H 1.15865 0.10346 0.30279
 H306 H 1.05405 0.11624 0.36664
 H307 H 1.03515 0.09768 0.40870
 H308 H 1.09705 0.03586 0.40891
 H309 H 1.11576 0.05461 0.36686
 C310 C 0.88119 -0.11853 0.29463
 C311 C 0.88480 -0.14596 0.28897
 C312 C 0.87374 -0.15726 0.26551
 C313 C 0.85866 -0.14132 0.24705
 C314 C 0.85534 -0.11353 0.25320
 C315 C 0.86650 -0.10235 0.27669
 C316 C 0.89242 -0.10705 0.31895
 C317 C 0.90178 -0.09756 0.33940
 C318 C 0.91290 -0.08638 0.36390
 C319 C 0.93560 -0.09834 0.37595
 C320 C 0.94625 -0.08768 0.39992
 C321 C 0.93428 -0.06493 0.41212
 C322 C 0.91155 -0.05297 0.39984
 C323 C 0.90093 -0.06366 0.37587
 H324 H 0.89596 -0.15875 0.30288
 H325 H 0.87618 -0.17882 0.26273
 H326 H 0.84505 -0.09989 0.23952
 H327 H 0.86377 -0.08098 0.28078
 H328 H 0.94502 -0.11592 0.36685
 H329 H 0.96382 -0.09725 0.40890
 H330 H 0.90196 -0.03540 0.40876
 H331 H 0.88335 -0.05425 0.36671
 C332 C 0.88086 0.11912 0.70525
 C333 C 0.87865 0.14721 0.70792
 C334 C 0.86754 0.15842 0.73142
 C335 C 0.85846 0.14165 0.75259
 C336 C 0.86080 0.11343 0.74972
 C337 C 0.87193 0.10225 0.72620
 C338 C 0.89214 0.10764 0.68096
 C339 C 0.90155 0.09814 0.66052
 C340 C 0.91271 0.08696 0.63603
 C341 C 0.93540 0.09891 0.62400
 C342 C 0.94609 0.08825 0.60004
 C343 C 0.93416 0.06549 0.58784
 C344 C 0.91144 0.05353 0.60011
 C345 C 0.90078 0.06423 0.62407
 H346 H 0.88542 0.16044 0.69179
 H347 H 0.86569 0.18020 0.73287
 H348 H 0.85429 0.10001 0.76579
 H349 H 0.87360 0.08048 0.72436
 H350 H 0.94479 0.11650 0.63310
 H351 H 0.96364 0.09782 0.59107
 H352 H 0.90189 0.03595 0.59119
 H353 H 0.88322 0.05482 0.63322
 C354 C 1.11822 -0.11853 0.70523
 C355 C 1.13290 -0.10233 0.72313
 C356 C 1.14420 -0.11351 0.74656
 C357 C 1.14104 -0.14132 0.75268
 C358 C 1.12597 -0.15729 0.73426
 C359 C 1.11477 -0.14598 0.71085
 C360 C 1.10687 -0.10705 0.68096
 C361 C 1.09743 -0.09756 0.66053
 C362 C 1.08623 -0.08638 0.63606
 C363 C 1.09814 -0.06365 0.62408
 C364 C 1.08747 -0.05296 0.60012
 C365 C 1.06474 -0.06493 0.58787
 C366 C 1.05282 -0.08768 0.60010
 C367 C 1.06353 -0.09834 0.62405
 H368 H 1.13551 -0.08095 0.71907
 H369 H 1.15448 -0.09987 0.76023
 H370 H 1.12365 -0.17885 0.73701
 H371 H 1.10362 -0.15878 0.69696
 H372 H 1.11572 -0.05424 0.63321
 H373 H 1.09701 -0.03538 0.59118
 H374 H 1.03526 -0.09726 0.59115
 H375 H 1.05416 -0.11593 0.63317
 C376 C 0.29465 1.11825 1.11883
 C377 C 0.28903 1.14570 1.11531
 C378 C 0.26559 1.15701 1.12642
 C379 C 0.24713 1.14105 1.14145
 C380 C 0.25326 1.11324 1.14468
 C381 C 0.27672 1.10206 1.13348
 C382 C 0.31894 1.10678 1.10754
 C383 C 0.33938 1.09731 1.09813
 C384 C 0.36387 1.08618 1.08695
 C385 C 0.37587 1.09819 1.06425
 C386 C 0.39983 1.08758 1.05355
 C387 C 0.41208 1.06483 1.06547
 C388 C 0.39985 1.05282 1.08820
 C389 C 0.37588 1.06346 1.09887
 H390 H 0.30294 1.15850 1.10419
 H391 H 0.26284 1.17858 1.12406
 H392 H 0.23957 1.09960 1.15494
 H393 H 0.28079 1.08068 1.13613
 H394 H 0.36673 1.11578 1.05487
 H395 H 0.40878 1.09720 1.03599
 H396 H 0.40881 1.03524 1.09775
 H397 H 0.36675 1.05400 1.11644
 C398 C 0.29507 0.88151 0.88093
 C399 C 0.29231 0.87949 0.85279
 C400 C 0.26885 0.86836 0.84156
 C401 C 0.24781 0.85908 0.85837
 C402 C 0.25075 0.86124 0.88665
 C403 C 0.27424 0.87240 0.89783
 C404 C 0.31933 0.89278 0.89242
 C405 C 0.33975 0.90217 0.90194
 C406 C 0.36420 0.91330 0.91316
 C407 C 0.37621 0.93599 0.90121
 C408 C 0.40014 0.94666 0.91191
 C409 C 0.41234 0.93470 0.93470
 C410 C 0.40009 0.91198 0.94665
 C411 C 0.37616 0.90134 0.93591
 H412 H 0.30836 0.88641 0.83952
 H413 H 0.26735 0.86664 0.81974
 H414 H 0.23478 0.85458 0.90010
 H415 H 0.27614 0.87392 0.91964
 H416 H 0.36712 0.94541 0.88360
 H417 H 0.40909 0.96422 0.90234
 H418 H 0.40901 0.90240 0.96425
 H419 H 0.36703 0.88377 0.94532
 C420 C 0.70540 0.88130 1.11866
 C421 C 0.71110 0.85386 1.11512
 C422 C 0.73455 0.84260 1.12623
 C423 C 0.75297 0.85859 1.14129
 C424 C 0.74676 0.88637 1.14455
 C425 C 0.72328 0.89751 1.13334
 C426 C 0.68109 0.89273 1.10736
 C427 C 0.66065 0.90218 1.09795
 C428 C 0.63615 0.91332 1.08679
 C429 C 0.62416 0.90135 1.06407
 C430 C 0.60019 0.91197 1.05338
 C431 C 0.58793 0.93469 1.06534
 C432 C 0.60015 0.94666 1.08809
 C433 C 0.62412 0.93601 1.09875
 H434 H 0.69723 0.84105 1.10397
 H435 H 0.73736 0.82104 1.12385
 H436 H 0.76041 0.90003 1.15482
 H437 H 0.71916 0.91888 1.13601
 H438 H 0.63331 0.88378 1.05465
 H439 H 0.59126 0.90238 1.03580
 H440 H 0.59119 0.96422 1.09767
 H441 H 0.63324 0.94543 1.11634
 C442 C 0.70509 1.11889 0.88180
 C443 C 0.72299 1.10273 0.86705
 C444 C 0.74644 1.11393 0.85585
 C445 C 0.75259 1.14170 0.85920
 C446 C 0.73416 1.15763 0.87434
 C447 C 0.71074 1.14631 0.88544
 C448 C 0.68081 1.10740 0.89306
 C449 C 0.66038 1.09790 0.90244
 C450 C 0.63591 1.08670 0.91357
 C451 C 0.62398 1.06399 0.90157
 C452 C 0.60004 1.05328 0.91220
 C453 C 0.58775 1.06520 0.93495
 C454 C 0.59992 1.08794 0.94695
 C455 C 0.62386 1.09862 0.93629
 H456 H 0.71891 1.08138 0.86430
 H457 H 0.76010 1.10031 0.84551
 H458 H 0.73694 1.17918 0.87680
 H459 H 0.69686 1.15908 0.89665
 H460 H 0.63315 1.05460 0.88399
 H461 H 0.59114 1.03571 0.90260
 H462 H 0.59094 1.09749 0.96453
 H463 H 0.63293 1.11620 0.94573
 C464 C 0.11886 0.29484 0.11889
 C465 C 0.14697 0.29215 0.12116
 C466 C 0.15816 0.26868 0.13228
 C467 C 0.14136 0.24755 0.14131
 C468 C 0.11311 0.25043 0.13893
 C469 C 0.10196 0.27393 0.12777
 C470 C 0.10742 0.31910 0.10756
 C471 C 0.09797 0.33952 0.09811
 C472 C 0.08685 0.36398 0.08689
 C473 C 0.09887 0.37592 0.06416
 C474 C 0.08829 0.39986 0.05342
 C475 C 0.06555 0.41216 0.06534
 C476 C 0.05352 0.39999 0.08810
 C477 C 0.06414 0.37604 0.09881
 H478 H 0.16023 0.30825 0.11442
 H479 H 0.17995 0.26721 0.13419
 H480 H 0.09967 0.23439 0.14540
 H481 H 0.08017 0.27579 0.12605
 H482 H 0.11646 0.36675 0.05478
 H483 H 0.09791 0.40876 0.03584
 H484 H 0.03595 0.40898 0.09764
 H485 H 0.05468 0.36696 0.11640
 C486 C -0.11888 0.29525 -0.11810
 C487 C -0.14701 0.29262 -0.12018
 C488 C -0.15829 0.26918 -0.13128
 C489 C -0.14155 0.24805 -0.14047
 C490 C -0.11329 0.25087 -0.13823
 C491 C -0.10205 0.27432 -0.12711
 C492 C -0.10734 0.31950 -0.10688
 C493 C -0.09778 0.33990 -0.09755
 C494 C -0.08652 0.36435 -0.08647
 C495 C -0.09843 0.37646 -0.06378
 C496 C -0.08770 0.40038 -0.05317
 C497 C -0.06491 0.41246 -0.06518
 C498 C -0.05298 0.40011 -0.08790
 C499 C -0.06375 0.37619 -0.09848
 H500 H -0.16022 0.30873 -0.11335
 H501 H -0.18009 0.26777 -0.13306
 H502 H -0.09989 0.23482 -0.14483
 H503 H -0.08025 0.27613 -0.12554
 H504 H -0.11605 0.36745 -0.05433
 H505 H -0.09725 0.40941 -0.03561
 H506 H -0.03537 0.40894 -0.09751
 H507 H -0.05437 0.36698 -0.11604
 C508 C 0.11933 0.70477 -0.11900
 C509 C 0.12831 0.72565 -0.10211
 C510 C 0.13938 0.74916 -0.11330
 C511 C 0.14159 0.75207 -0.14158
 C512 C 0.13247 0.73096 -0.15838
 C513 C 0.12142 0.70748 -0.14714
 C514 C 0.10807 0.68051 -0.10750
 C515 C 0.09867 0.66010 -0.09801
 C516 C 0.08751 0.63565 -0.08684
 C517 C 0.09943 0.62366 -0.06408
 C518 C 0.08876 0.59974 -0.05340
 C519 C 0.06603 0.58754 -0.06540
 C520 C 0.05410 0.59977 -0.08818
 C521 C 0.06481 0.62368 -0.09884
 H522 H 0.12672 0.72378 -0.08029
 H523 H 0.14593 0.76518 -0.09987
 H524 H 0.13424 0.73244 -0.18019
 H525 H 0.11462 0.69139 -0.16039
 H526 H 0.11700 0.63276 -0.05464
 H527 H 0.09830 0.59080 -0.03579
 H528 H 0.03654 0.59085 -0.09779
 H529 H 0.05542 0.63280 -0.11645
 C530 C -0.11828 0.70516 0.11863
 C531 C -0.14641 0.70777 0.12078
 C532 C -0.15771 0.73119 0.13191
 C533 C -0.14099 0.75234 0.14107
 C534 C -0.11273 0.74953 0.13878
 C535 C -0.10147 0.72609 0.12762
 C536 C -0.10672 0.68094 0.10731
 C537 C -0.09718 0.66056 0.09788
 C538 C -0.08597 0.63613 0.08668
 C539 C -0.09792 0.62416 0.06395
 C540 C -0.08726 0.60024 0.05324
 C541 C -0.06449 0.58802 0.06519
 C542 C -0.05252 0.60023 0.08794
 C543 C -0.06323 0.62415 0.09863
 H544 H -0.15960 0.69165 0.11396
 H545 H -0.17951 0.73259 0.13374
 H546 H -0.09936 0.76559 0.14535
 H547 H -0.07967 0.72430 0.12599
 H548 H -0.11553 0.63327 0.05455
 H549 H -0.09684 0.59132 0.03565
 H550 H -0.03493 0.59129 0.09751
 H551 H -0.05381 0.63326 0.11623
 C552 C 1.11830 0.11869 0.70525
 C553 C 1.10212 0.13339 0.72318
 C554 C 1.11334 0.14460 0.74663
 C555 C 1.14116 0.14131 0.75275
 C556 C 1.15710 0.12622 0.73430
 C557 C 1.14577 0.11511 0.71088
 C558 C 1.10680 0.10742 0.68097
 C559 C 1.09729 0.09802 0.66054
 C560 C 1.08610 0.08687 0.63606
 C561 C 1.06336 0.09881 0.62408
 C562 C 1.05267 0.08817 0.60012
 C563 C 1.06465 0.06545 0.58786
 C564 C 1.08742 0.05351 0.60008
 C565 C 1.09808 0.06419 0.62403
 H566 H 1.08074 0.13609 0.71911
 H567 H 1.09971 0.15490 0.76031
 H568 H 1.17868 0.12381 0.73705
 H569 H 1.15855 0.10394 0.69697
 H570 H 1.05393 0.11637 0.63322
 H571 H 1.03507 0.09773 0.59118
 H572 H 1.09702 0.03596 0.59111
 H573 H 1.11569 0.05479 0.63314
 C574 C 0.88146 -0.11864 0.70548
 C575 C 0.86674 -0.10249 0.72341
 C576 C 0.85561 -0.11369 0.74691
 C577 C 0.85899 -0.14147 0.75307
 C578 C 0.87412 -0.15738 0.73462
 C579 C 0.88515 -0.14606 0.71115
 C580 C 0.89264 -0.10714 0.68114
 C581 C 0.90195 -0.09762 0.66068
 C582 C 0.91302 -0.08642 0.63616
 C583 C 0.90101 -0.06371 0.62420
 C584 C 0.91159 -0.05301 0.60022
 C585 C 0.93432 -0.06494 0.58791
 C586 C 0.94633 -0.08767 0.60010
 C587 C 0.93572 -0.09835 0.62408
 H588 H 0.86396 -0.08113 0.71931
 H589 H 0.84530 -0.10007 0.76059
 H590 H 0.87661 -0.17893 0.73742
 H591 H 0.89634 -0.15882 0.69724
 H592 H 0.88344 -0.05432 0.63339
 H593 H 0.90198 -0.03544 0.59130
 H594 H 0.96390 -0.09723 0.59110
 H595 H 0.94517 -0.11593 0.63317
 C596 C 1.11807 -0.11879 0.29487
 C597 C 1.12707 -0.10197 0.27391
 C598 C 1.13828 -0.11320 0.25045
 C599 C 1.14062 -0.14143 0.24765
 C600 C 1.13145 -0.15816 0.26882
 C601 C 1.12027 -0.14689 0.29226
 C602 C 1.10676 -0.10726 0.31912
 C603 C 1.09734 -0.09773 0.33953
 C604 C 1.08617 -0.08650 0.36399
 C605 C 1.09811 -0.06376 0.37594
 C606 C 1.08745 -0.05304 0.39988
 C607 C 1.06472 -0.06498 0.41216
 C608 C 1.05279 -0.08774 0.39998
 C609 C 1.06348 -0.09843 0.37603
 H610 H 1.12541 -0.08019 0.27571
 H611 H 1.14485 -0.09981 0.23438
 H612 H 1.13331 -0.17994 0.26742
 H613 H 1.11345 -0.16009 0.30839
 H614 H 1.11568 -0.05437 0.36678
 H615 H 1.09701 -0.03545 0.40879
 H616 H 1.03523 -0.09730 0.40896
 H617 H 1.05408 -0.11603 0.36695
 C618 C 0.88131 0.11903 0.29446
 C619 C 0.88490 0.14645 0.28878
 C620 C 0.87382 0.15775 0.26530
 C621 C 0.85875 0.14179 0.24687
 C622 C 0.85548 0.11401 0.25304
 C623 C 0.86665 0.10284 0.27654
 C624 C 0.89253 0.10756 0.31880
 C625 C 0.90186 0.09808 0.33927
 C626 C 0.91295 0.08690 0.36380
 C627 C 0.93562 0.09884 0.37587
 C628 C 0.94625 0.08818 0.39986
 C629 C 0.93427 0.06545 0.41206
 C630 C 0.91156 0.05351 0.39976
 C631 C 0.90097 0.06420 0.37577
 H632 H 0.89604 0.15925 0.30268
 H633 H 0.87623 0.17930 0.26250
 H634 H 0.84520 0.10036 0.23937
 H635 H 0.86395 0.08148 0.28064
 H636 H 0.94506 0.11641 0.36676
 H637 H 0.96380 0.09775 0.40885
 H638 H 0.90197 0.03595 0.40869
 H639 H 0.88341 0.05480 0.36659
 C640 C 0.11860 0.29457 -0.11888
 C641 C 0.13336 0.27674 -0.10267
 C642 C 0.14454 0.25326 -0.11383
 C643 C 0.14117 0.24702 -0.14163
 C644 C 0.12602 0.26538 -0.15761
 C645 C 0.11493 0.28883 -0.14633
 C646 C 0.10736 0.31888 -0.10743
 C647 C 0.09801 0.33932 -0.09795
 C648 C 0.08691 0.36382 -0.08677
 C649 C 0.09888 0.37575 -0.06401
 C650 C 0.08829 0.39971 -0.05332
 C651 C 0.06559 0.41203 -0.06530
 C652 C 0.05362 0.39986 -0.08808
 C653 C 0.06424 0.37590 -0.09875
 H654 H 0.13613 0.28089 -0.08129
 H655 H 0.15489 0.23966 -0.10016
 H656 H 0.12353 0.26254 -0.17918
 H657 H 0.10371 0.30267 -0.15915
 H658 H 0.11643 0.36656 -0.05458
 H659 H 0.09788 0.40860 -0.03572
 H660 H 0.03608 0.40886 -0.09768
 H661 H 0.05482 0.36683 -0.11636
 C662 C -0.11864 0.29538 0.11843
 C663 C -0.10178 0.27445 0.12739
 C664 C -0.11299 0.25098 0.13853
 C665 C -0.14124 0.24815 0.14083
 C666 C -0.15801 0.26929 0.13170
 C667 C -0.14676 0.29274 0.12059
 C668 C -0.10713 0.31962 0.10716
 C669 C -0.09761 0.34002 0.09778
 C670 C -0.08639 0.36447 0.08664
 C671 C -0.06363 0.37636 0.09861
 C672 C -0.05290 0.40028 0.08797
 C673 C -0.06485 0.41257 0.06524
 C674 C -0.08764 0.40044 0.05327
 C675 C -0.09834 0.37653 0.06394
 H676 H -0.07999 0.27626 0.12576
 H677 H -0.09958 0.23492 0.14508
 H678 H -0.17980 0.26787 0.13353
 H679 H -0.15999 0.30886 0.11379
 H680 H -0.05422 0.36719 0.11618
 H681 H -0.03530 0.40915 0.09755
 H682 H -0.09721 0.40943 0.03570
 H683 H -0.11595 0.36748 0.05452
 C684 C -0.11802 0.70528 -0.11876
 C685 C -0.10186 0.72320 -0.13346
 C686 C -0.11309 0.74665 -0.14463
 C687 C -0.14090 0.75278 -0.14131
 C688 C -0.15683 0.73433 -0.12623
 C689 C -0.14548 0.71090 -0.11516
 C690 C -0.10650 0.68100 -0.10751
 C691 C -0.09700 0.66058 -0.09812
 C692 C -0.08583 0.63611 -0.08695
 C693 C -0.06312 0.62409 -0.09891
 C694 C -0.05246 0.60014 -0.08824
 C695 C -0.06443 0.58795 -0.06547
 C696 C -0.08717 0.60021 -0.05351
 C697 C -0.09780 0.62415 -0.06421
 H698 H -0.08047 0.71913 -0.13618
 H699 H -0.09946 0.76032 -0.15492
 H700 H -0.17840 0.73709 -0.12379
 H701 H -0.15825 0.69701 -0.10399
 H702 H -0.05370 0.63319 -0.11651
 H703 H -0.03489 0.59117 -0.09781
 H704 H -0.09676 0.59130 -0.03591
 H705 H -0.11538 0.63329 -0.05480
 C706 C 0.11913 0.70506 0.11846
 C707 C 0.11544 0.71075 0.14592
 C708 C 0.12645 0.73420 0.15723
 C709 C 0.14155 0.75261 0.14128
 C710 C 0.14497 0.74641 0.11348
 C711 C 0.13386 0.72294 0.10228
 C712 C 0.10793 0.68077 0.10697
 C713 C 0.09857 0.66034 0.09750
 C714 C 0.08743 0.63586 0.08637
 C715 C 0.06473 0.62391 0.09838
 C716 C 0.05404 0.59997 0.08778
 C717 C 0.06599 0.58769 0.06503
 C718 C 0.08873 0.59988 0.05302
 C719 C 0.09938 0.62383 0.06365
 H720 H 0.10425 0.69689 0.15871
 H721 H 0.12394 0.73701 0.17881
 H722 H 0.15529 0.76005 0.09983
 H723 H 0.13666 0.71882 0.08090
 H724 H 0.05532 0.63306 0.11597
 H725 H 0.03647 0.59106 0.09739
 H726 H 0.09829 0.59091 0.03544
 H727 H 0.11695 0.63292 0.05420
 C728 C 0.29496 1.11871 0.88117
 C729 C 0.27405 1.12771 0.89805
 C730 C 0.25057 1.13889 0.88686
 C731 C 0.24770 1.14119 0.85858
 C732 C 0.26884 1.13206 0.84179
 C733 C 0.29230 1.12090 0.85303
 C734 C 0.31921 1.10736 0.89266
 C735 C 0.33961 1.09790 0.90216
 C736 C 0.36405 1.08669 0.91337
 C737 C 0.37599 1.09854 0.93617
 C738 C 0.39992 1.08784 0.94688
 C739 C 0.41218 1.06515 0.93486
 C740 C 0.40000 1.05329 0.91202
 C741 C 0.37608 1.06403 0.90135
 H742 H 0.27589 1.12605 0.91986
 H743 H 0.23452 1.14544 0.90029
 H744 H 0.26739 1.13389 0.81998
 H745 H 0.30840 1.11409 0.83977
 H746 H 0.36685 1.11608 0.94564
 H747 H 0.40882 1.09734 0.96453
 H748 H 0.40897 1.03576 0.90240
 H749 H 0.36700 1.05469 0.88369
 C750 C 0.29500 0.88112 1.11882
 C751 C 0.29227 0.87897 1.14696
 C752 C 0.26879 0.86783 1.15815
 C753 C 0.24772 0.85868 1.14131
 C754 C 0.25064 0.86097 1.11304
 C755 C 0.27414 0.87213 1.10189
 C756 C 0.31927 0.89243 1.10737
 C757 C 0.33969 0.90185 1.09790
 C758 C 0.36415 0.91303 1.08673
 C759 C 0.37614 0.93569 1.09875
 C760 C 0.40007 0.94639 1.08811
 C761 C 0.41230 0.93451 1.06531
 C762 C 0.40008 0.91182 1.05328
 C763 C 0.37614 0.90114 1.06396
 H764 H 0.30833 0.88579 1.16024
 H765 H 0.26729 0.86601 1.17996
 H766 H 0.23464 0.85441 1.09958
 H767 H 0.27603 0.87376 1.08009
 H768 H 0.36702 0.94505 1.11638
 H769 H 0.40901 0.96393 1.09774
 H770 H 0.40902 0.90230 1.03566
 H771 H 0.36702 0.88360 1.05449
 C772 C 0.70498 1.11882 1.11863
 C773 C 0.70756 1.14692 1.12079
 C774 C 0.73102 1.15820 1.13186
 C775 C 0.75223 1.14148 1.14094
 C776 C 0.74946 1.11324 1.13863
 C777 C 0.72597 1.10201 1.12754
 C778 C 0.68072 1.10728 1.10739
 C779 C 0.66031 1.09775 1.09801
 C780 C 0.63586 1.08654 1.08687
 C781 C 0.62379 1.09850 1.06418
 C782 C 0.59986 1.08782 1.05350
 C783 C 0.58771 1.06505 1.06545
 C784 C 0.60001 1.05308 1.08818
 C785 C 0.62395 1.06379 1.09882
 H786 H 0.69139 1.16011 1.11404
 H787 H 0.73241 1.17998 1.13370
 H788 H 0.76556 1.09987 1.14513
 H789 H 0.72420 1.08023 1.12589
 H790 H 0.63284 1.11611 1.05477
 H791 H 0.59086 1.09741 1.03595
 H792 H 0.59114 1.03547 1.09774
 H793 H 0.63313 1.05437 1.11639
 C794 C 0.70527 0.88114 0.88147
 C795 C 0.70793 0.85305 0.87926
 C796 C 0.73141 0.84181 0.86815
 C797 C 0.75257 0.85856 0.85906
 C798 C 0.74971 0.88679 0.86141
 C799 C 0.72621 0.89798 0.87255
 C800 C 0.68099 0.89264 0.89274
 C801 C 0.66057 0.90214 0.90214
 C802 C 0.63609 0.91333 0.91330
 C803 C 0.62407 0.90136 0.93600
 C804 C 0.60012 0.91201 0.94670
 C805 C 0.58791 0.93478 0.93476
 C806 C 0.60017 0.94676 0.91203
 C807 C 0.62413 0.93607 0.90137
 H808 H 0.69180 0.83982 0.88602
 H809 H 0.73284 0.82003 0.86628
 H810 H 0.76578 0.90019 0.85490
 H811 H 0.72439 0.91976 0.87422
 H812 H 0.63317 0.88375 0.94540
 H813 H 0.59116 0.90242 0.96426
 H814 H 0.59125 0.96436 0.90247
 H815 H 0.63327 0.94550 0.88379
   
