data_POSCAR
  _audit_creation_date              2014-09-24
  _audit_creation_method            'ToBaCCo'
  _symmetry_space_group_name_H-M    'P1'
  _symmetry_Int_Tables_number       1
  _symmetry_cell_setting            triclinic
  loop_
  _symmetry_equiv_pos_as_xyz
 x,y,z
_cell_length_a 19.2757
_cell_length_b 20.4305
_cell_length_c 18.1520
_cell_angle_alpha 85.026400
_cell_angle_beta 97.701400
_cell_angle_gamma 90.296400
loop_
  _atom_site_label
  _atom_site_type_symbol
  _atom_site_fract_x
  _atom_site_fract_y
  _atom_site_fract_z
C1 C 0.59948 0.66621 -0.00136
 C2 C 0.63963 0.60812 0.00023
 C3 C 0.60417 0.54747 0.00606
 C4 C 0.52950 0.54480 0.00088
 C5 C 0.49215 0.60434 -0.00851
 C6 C 0.52610 0.66498 -0.00584
 C7 C 0.48929 0.48101 0.00303
 C8 C 0.41885 0.47692 0.01983
 C9 C 0.38240 0.41687 0.02067
 C10 C 0.41786 0.35998 0.00774
 C11 C 0.48753 0.36251 -0.00655
 C12 C 0.52141 0.42303 -0.01198
 H13 H 0.62491 0.71338 0.00015
 H14 H 0.63528 0.50302 0.01321
 H15 H 0.43595 0.60345 -0.01734
 H16 H 0.39229 0.51909 0.03511
 H17 H 0.39154 0.31302 0.01023
 H18 H 0.57307 0.42421 -0.02860
 C19 C 0.03503 0.66017 0.41911
 C20 C 0.01658 0.65494 0.49145
 C21 C -0.00177 0.59271 0.52292
 C22 C 0.00091 0.53545 0.48453
 C23 C 0.02033 0.54307 0.41183
 C24 C 0.03588 0.60513 0.37803
 C25 C -0.01660 0.46849 0.52006
 C26 C -0.03346 0.41455 0.47680
 C27 C -0.04607 0.35159 0.51052
 C28 C -0.04728 0.34366 0.58774
 C29 C -0.03385 0.39643 0.63198
 C30 C -0.01584 0.45750 0.59826
 H31 H 0.04694 0.70818 0.39425
 H32 H -0.02085 0.58973 0.57616
 H33 H 0.02507 0.50078 0.38108
 H34 H -0.03644 0.42073 0.41697
 H35 H -0.05800 0.29558 0.61329
 H36 H -0.00082 0.49595 0.63424
 C37 C 0.65168 -0.06181 0.59571
 C38 C 0.60436 -0.03167 0.63433
 C39 C 0.54172 -0.00618 0.59452
 C40 C 0.52333 -0.01568 0.51823
 C41 C 0.56884 -0.05173 0.48290
 C42 C 0.63588 -0.06817 0.51876
 C43 C 0.45884 0.01455 0.47454
 C44 C 0.45276 0.02849 0.39625
 C45 C 0.38950 0.05144 0.35495
 C46 C 0.33394 0.06630 0.39351
 C47 C 0.34072 0.05580 0.47143
 C48 C 0.40189 0.02828 0.51101
 H49 H 0.70226 -0.07798 0.62460
 H50 H 0.50885 0.02274 0.62322
 H51 H 0.55458 -0.06173 0.42552
 H52 H 0.49656 0.02074 0.36653
 H53 H 0.28450 0.08425 0.36358
 H54 H 0.40296 0.01408 0.56989
 O55 O 0.50264 0.01367 -0.12295
 O56 O 0.40741 0.03401 0.03574
 O57 O 0.47511 0.11113 -0.04774
 O58 O 0.43494 -0.06482 -0.03843
 O59 O 0.53415 -0.08586 0.03608
 O60 O 0.57368 0.09019 0.02805
 O61 O 0.50448 0.01268 0.11358
 O62 O 0.60070 -0.00623 -0.04604
 Cu63 Cu 0.44510 0.02533 -0.05107
 Cu64 Cu 0.56277 0.00032 0.04154
 C65 C 0.56761 0.00018 -0.11164
 C66 C 0.43997 0.02839 0.10152
 C67 C 0.53104 0.13047 -0.01118
 C68 C 0.47879 -0.10533 -0.00141
 O69 O -0.06310 0.57990 0.96459
 O70 O 0.11746 0.51110 0.98877
 O71 O 0.00622 0.50263 0.88929
 O72 O 0.04765 0.58534 1.06227
 O73 O 0.00831 0.49980 1.12708
 O74 O -0.03201 0.41700 0.95464
 O75 O 0.07921 0.42559 1.05419
 O76 O -0.10287 0.49420 1.02827
 Cu77 Cu 0.03016 0.55323 0.96918
 Cu78 Cu -0.01552 0.45027 1.04694
 C79 C -0.11304 0.55073 0.99323
 C80 C 0.12919 0.45641 1.02725
 C81 C -0.01920 0.44519 0.89286
 C82 C 0.03493 0.55670 1.12393
 O83 O 0.00960 -0.09104 0.46174
 O84 O -0.03436 0.08514 0.41202
 O85 O 0.08013 0.01879 0.45398
 O86 O -0.10200 -0.02694 0.40879
 O87 O -0.11457 -0.01681 0.52665
 O88 O 0.06767 0.02966 0.57169
 O89 O -0.04660 0.09548 0.52976
 O90 O -0.00291 -0.07927 0.57921
 Cu91 Cu -0.00974 -0.00421 0.42231
 Cu92 Cu -0.02594 0.00889 0.56353
 C93 C 0.00835 -0.11540 0.52854
 C94 C -0.04630 0.12055 0.46338
 C95 C 0.10478 0.03239 0.51902
 C96 C -0.13843 -0.03222 0.46186
 C97 C -0.28720 0.61173 0.99358
 C98 C -0.25376 0.66939 0.97259
 C99 C -0.18651 0.65268 0.96865
 C100 C -0.18144 0.58614 0.98784
 O101 O -0.24261 0.56056 1.00285
 H102 H -0.27523 0.71833 0.95879
 H103 H -0.14542 0.68563 0.95391
 C104 C 0.30905 0.41122 1.03940
 C105 C 0.28568 0.35715 1.08002
 C106 C 0.21624 0.36778 1.08126
 C107 C 0.20108 0.42755 1.04118
 O108 O 0.25754 0.45453 1.01585
 H109 H 0.31576 0.31457 1.10557
 H110 H 0.18053 0.33532 1.10765
 C111 C 0.01493 -0.28755 0.52915
 C112 C 0.00537 -0.28460 0.60312
 C113 C 0.00556 -0.21930 0.61397
 C114 C 0.01499 -0.18698 0.54622
 O115 O 0.02099 -0.22804 0.49506
 H116 H -0.00126 -0.32454 0.64466
 H117 H -0.00278 -0.19775 0.66451
 C118 C -0.05466 0.29227 0.46775
 C119 C -0.05914 0.29123 0.39111
 C120 C -0.05961 0.22619 0.37828
 C121 C -0.05572 0.19224 0.44773
 O122 O -0.05283 0.23206 0.50171
 H123 H -0.06005 0.33241 0.34935
 H124 H -0.06038 0.20600 0.32500
 C125 C 0.62031 -0.02419 -0.28473
 C126 C 0.68524 -0.03303 -0.24210
 C127 C 0.67456 -0.02372 -0.17100
 C128 C 0.60420 -0.00982 -0.17552
 O129 O 0.57128 -0.00989 -0.24414
 H130 H 0.73460 -0.04496 -0.25997
 H131 H 0.71316 -0.02745 -0.12167
 C132 C 0.38112 0.05509 0.27208
 C133 C 0.32079 0.07436 0.22507
 C134 C 0.33480 0.06602 0.15496
 C135 C 0.40245 0.04235 0.16385
 O136 O 0.43081 0.03578 0.23460
 H137 H 0.27189 0.09186 0.23930
 H138 H 0.29994 0.07630 0.10336
 C139 C 0.48788 -0.27595 -0.00808
 C140 C 0.41550 -0.26897 -0.02244
 C141 C 0.40234 -0.20374 -0.02100
 C142 C 0.46691 -0.17577 -0.00454
 O143 O 0.51872 -0.21892 0.00302
 H144 H 0.37616 -0.30574 -0.03478
 H145 H 0.35183 -0.17935 -0.03130
 C146 C 0.52604 0.30104 -0.01104
 C147 C 0.59793 0.29329 0.00501
 C148 C 0.61001 0.22770 0.00491
 C149 C 0.54486 0.20068 -0.01189
 O150 O 0.49395 0.24471 -0.02140
 H151 H 0.63670 0.33017 0.01938
 H152 H 0.65988 0.20233 0.01783
 C153 C -0.30921 -0.07636 0.47750
 C154 C -0.31402 -0.08005 0.40088
 C155 C -0.24814 -0.06743 0.38365
 C156 C -0.20915 -0.05687 0.45071
 O157 O -0.24512 -0.06397 0.50708
 H158 H -0.36006 -0.08663 0.36120
 H159 H -0.23175 -0.06235 0.32872
 C160 C 0.27989 0.06328 0.51012
 C161 C 0.28139 0.07434 0.58444
 C162 C 0.21399 0.06635 0.59853
 C163 C 0.17760 0.05092 0.53176
 O164 O 0.21702 0.04960 0.47832
 H165 H 0.32642 0.08454 0.62406
 H166 H 0.19431 0.06911 0.65129
 C167 C 0.04926 0.61179 1.30323
 C168 C 0.07340 0.66800 1.26632
 C169 C 0.07353 0.65383 1.19447
 C170 C 0.04940 0.59047 1.19228
 O171 O 0.03527 0.56459 1.25788
 H172 H 0.08906 0.71425 1.28793
 H173 H 0.08781 0.68637 1.14871
 C174 C -0.03839 0.38844 0.71350
 C175 C -0.06392 0.33360 0.75125
 C176 C -0.06034 0.34790 0.82349
 C177 C -0.03323 0.41030 0.82496
 O178 O -0.01993 0.43515 0.75855
 H179 H -0.08379 0.28859 0.72944
 H180 H -0.07578 0.31659 0.86964
   
