data_POSCAR
  _audit_creation_date              2014-09-24
  _audit_creation_method            'ToBaCCo'
  _symmetry_space_group_name_H-M    'P1'
  _symmetry_Int_Tables_number       1
  _symmetry_cell_setting            triclinic
  loop_
  _symmetry_equiv_pos_as_xyz
 x,y,z
_cell_length_a 57.4566
_cell_length_b 56.7383
_cell_length_c 57.1513
_cell_angle_alpha 94.931400
_cell_angle_beta 90.506600
_cell_angle_gamma 94.101000
loop_
  _atom_site_label
  _atom_site_type_symbol
  _atom_site_fract_x
  _atom_site_fract_y
  _atom_site_fract_z
N1 N 0.60324 0.65879 0.62123
 N2 N 0.59519 0.64987 0.64030
 C3 C 0.57662 0.66148 0.64775
 C4 C 0.57272 0.67849 0.63246
 C5 C 0.58997 0.67622 0.61581
 H6 H 0.56653 0.65771 0.66304
 H7 H 0.59291 0.68673 0.60107
 Cu8 Cu 0.60985 0.62400 0.65350
 Cu9 Cu 0.63053 0.64749 0.60503
 Cu10 Cu 0.65734 0.60194 0.62872
 N11 N 0.62486 0.59812 0.66635
 N12 N 0.64392 0.59023 0.65702
 C13 C 0.65119 0.57303 0.66950
 C14 C 0.63570 0.56961 0.68763
 C15 C 0.61914 0.58594 0.68495
 H16 H 0.66634 0.56339 0.66518
 H17 H 0.60426 0.58908 0.69590
 N18 N 0.66831 0.61604 0.60013
 N19 N 0.65833 0.63360 0.59124
 C20 C 0.66976 0.63913 0.57172
 C21 C 0.68761 0.62416 0.56804
 C22 C 0.68615 0.60979 0.58639
 H23 H 0.66508 0.65261 0.56063
 H24 H 0.69732 0.59581 0.58950
 H25 H 0.62691 0.61348 0.61546
 H26 H 0.64598 0.63574 0.63415
 N27 N 0.90530 0.32958 0.09983
 N28 N 0.91415 0.33889 0.12009
 C29 C 0.93145 0.32590 0.12655
 C30 C 0.93381 0.30745 0.10928
 C31 C 0.91684 0.31054 0.09254
 H32 H 0.94175 0.32990 0.14248
 H33 H 0.91272 0.29954 0.07646
 Cu34 Cu 0.90252 0.36742 0.13578
 Cu35 Cu 0.87889 0.34227 0.08482
 Cu36 Cu 0.85697 0.39230 0.11321
 N37 N 0.89007 0.39547 0.15154
 N38 N 0.87206 0.40491 0.14274
 C39 C 0.86683 0.42383 0.15704
 C40 C 0.88248 0.42653 0.17579
 C41 C 0.89702 0.40821 0.17169
 H42 H 0.85291 0.43504 0.15381
 H43 H 0.91141 0.40434 0.18269
 N44 N 0.84409 0.37693 0.08318
 N45 N 0.85223 0.35772 0.07251
 C46 C 0.83936 0.35112 0.05292
 C47 C 0.82240 0.36702 0.05107
 C48 C 0.82598 0.38316 0.07054
 H49 H 0.84214 0.33591 0.04081
 H50 H 0.81576 0.39804 0.07541
 H51 H 0.88566 0.37693 0.09873
 H52 H 0.86524 0.35765 0.11531
 N53 N 0.39478 0.16131 -0.10381
 N54 N 0.40328 0.15121 -0.12313
 C55 C 0.42254 0.16422 -0.12904
 C56 C 0.42638 0.18337 -0.11241
 C57 C 0.40843 0.18090 -0.09663
 H58 H 0.43317 0.15997 -0.14412
 H59 H 0.40527 0.19274 -0.08132
 Cu60 Cu 0.38855 0.12187 -0.13845
 Cu61 Cu 0.36623 0.14882 -0.08983
 Cu62 Cu 0.33982 0.09631 -0.11629
 N63 N 0.37404 0.09185 -0.15247
 N64 N 0.35480 0.08218 -0.14398
 C65 C 0.34823 0.06198 -0.15720
 C66 C 0.36432 0.05868 -0.17486
 C67 C 0.38049 0.07797 -0.17126
 H68 H 0.33301 0.05041 -0.15404
 H69 H 0.39559 0.08179 -0.18182
 N70 N 0.32734 0.11332 -0.08815
 N71 N 0.33725 0.13348 -0.07829
 C72 C 0.32434 0.14106 -0.05997
 C73 C 0.30547 0.12482 -0.05808
 C74 C 0.30797 0.10742 -0.07620
 H75 H 0.32844 0.15713 -0.04869
 H76 H 0.29626 0.09188 -0.08062
 H77 H 0.36991 0.11375 -0.10155
 H78 H 0.35166 0.13097 -0.12016
 N79 N 0.10207 0.85258 0.38647
 N80 N 0.08968 0.86696 0.37556
 C81 C 0.06817 0.85654 0.37092
 C82 C 0.06698 0.83413 0.37915
 C83 C 0.08899 0.83231 0.38885
 H84 H 0.05471 0.86456 0.36171
 H85 H 0.09491 0.81775 0.39776
 Cu86 Cu 0.10288 0.89758 0.36741
 Cu87 Cu 0.13342 0.86217 0.39866
 Cu88 Cu 0.15981 0.91316 0.37886
 N89 N 0.11989 0.92210 0.35134
 N90 N 0.14214 0.92796 0.35565
 C91 C 0.14965 0.94450 0.34141
 C92 C 0.13110 0.94932 0.32735
 C93 C 0.11245 0.93475 0.33423
 H94 H 0.16737 0.95229 0.34123
 H95 H 0.09495 0.93288 0.32686
 N96 N 0.17458 0.89518 0.40214
 N97 N 0.16484 0.87529 0.40919
 C98 C 0.17879 0.86759 0.42555
 C99 C 0.19817 0.88350 0.42909
 C100 C 0.19490 0.90075 0.41390
 H101 H 0.17462 0.85219 0.43504
 H102 H 0.20630 0.91640 0.41183
 H103 H 0.13258 0.89851 0.39811
 H104 H 0.14052 0.88132 0.37011
 C105 C 0.10212 0.13603 0.11795
 C106 C 0.12064 0.12444 0.10748
 C107 C 0.12933 0.10552 0.11760
 C108 C 0.11973 0.09806 0.13845
 C109 C 0.10154 0.10957 0.14883
 C110 C 0.09274 0.12874 0.13857
 C111 C 0.09023 0.15494 0.11205
 N112 N 0.07401 0.15938 0.12869
 C113 C 0.07546 0.14348 0.14501
 C114 C 0.09585 0.09873 0.16884
 N115 N 0.11019 0.08096 0.17092
 C116 C 0.12489 0.08047 0.15240
 C117 C 0.14744 0.09804 0.10392
 N118 N 0.15006 0.11209 0.08589
 C119 C 0.13371 0.12827 0.08794
 H120 H 0.09337 0.16496 0.09696
 H121 H 0.06458 0.14257 0.16033
 H122 H 0.08249 0.10369 0.18117
 H123 H 0.13820 0.06807 0.14914
 H124 H 0.15833 0.08384 0.10722
 H125 H 0.13151 0.14188 0.07611
 C126 C 0.39385 0.84103 0.61135
 C127 C 0.37434 0.85034 0.60164
 C128 C 0.36501 0.86996 0.61293
 C129 C 0.37489 0.88042 0.63418
 C130 C 0.39414 0.87128 0.64376
 C131 C 0.40363 0.85139 0.63231
 C132 C 0.40687 0.82242 0.60403
 N133 N 0.42424 0.82114 0.62008
 C134 C 0.42235 0.83879 0.63745
 C135 C 0.40023 0.88524 0.66410
 N136 N 0.38502 0.90250 0.66714
 C137 C 0.36946 0.89965 0.64891
 C138 C 0.34661 0.87544 0.59935
 N139 N 0.34446 0.85956 0.58013
 C140 C 0.36132 0.84408 0.58142
 H141 H 0.40381 0.81056 0.58826
 H142 H 0.43399 0.84249 0.65252
 H143 H 0.41454 0.88288 0.67593
 H144 H 0.35545 0.91099 0.64633
 H145 H 0.33550 0.88986 0.60325
 H146 H 0.36419 0.82961 0.56839
 C147 C 0.88168 0.65405 0.38116
 C148 C 0.86006 0.64572 0.38964
 C149 C 0.84919 0.62458 0.37986
 C150 C 0.85962 0.61162 0.36130
 C151 C 0.88105 0.61968 0.35309
 C152 C 0.89222 0.64097 0.36318
 C153 C 0.89640 0.67385 0.38743
 N154 N 0.91564 0.67290 0.37387
 C155 C 0.91329 0.65286 0.35902
 C156 C 0.88684 0.60367 0.33498
 N157 N 0.86934 0.58621 0.33189
 C158 C 0.85268 0.59090 0.34802
 C159 C 0.82913 0.62026 0.39220
 N160 N 0.82756 0.63823 0.40930
 C161 C 0.84633 0.65399 0.40775
 H162 H 0.89354 0.68775 0.40109
 H163 H 0.92595 0.64744 0.34609
 H164 H 0.90231 0.60503 0.32437
 H165 H 0.83660 0.58011 0.34988
 H166 H 0.81679 0.60494 0.38921
 H167 H 0.85021 0.66978 0.41955
 C168 C 0.61179 0.36407 -0.12019
 C169 C 0.63293 0.37484 -0.11074
 C170 C 0.64263 0.39531 -0.11936
 C171 C 0.63140 0.40521 -0.13765
 C172 C 0.61049 0.39463 -0.14693
 C173 C 0.60070 0.37383 -0.13824
 C174 C 0.59839 0.34407 -0.11529
 N175 N 0.57955 0.34134 -0.13006
 C176 C 0.58084 0.35946 -0.14418
 C177 C 0.60352 0.40811 -0.16427
 N178 N 0.61980 0.42645 -0.16586
 C179 C 0.63694 0.42480 -0.14968
 C180 C 0.66295 0.40190 -0.10680
 N181 N 0.66587 0.38584 -0.09089
 C182 C 0.64759 0.36920 -0.09323
 H183 H 0.60227 0.33214 -0.10221
 H184 H 0.56816 0.36210 -0.15766
 H185 H 0.58795 0.40464 -0.17518
 H186 H 0.65221 0.43706 -0.14677
 H187 H 0.67486 0.41713 -0.10923
 H188 H 0.64494 0.35429 -0.08269
 C189 C -0.03200 0.25649 0.08811
 C190 C -0.01761 0.25383 0.10779
 C191 C -0.02046 0.26908 0.12836
 C192 C -0.03621 0.28693 0.12862
 C193 C -0.05021 0.28962 0.10885
 C194 C -0.04800 0.27392 0.08873
 C195 C -0.00767 0.26641 0.14869
 C196 C 0.00760 0.24858 0.14928
 C197 C 0.01119 0.23299 0.12925
 C198 C -0.00085 0.23634 0.10788
 C199 C 0.00463 0.22244 0.08724
 C200 C 0.02083 0.20544 0.08753
 C201 C 0.03176 0.20112 0.10844
 C202 C 0.02681 0.21448 0.12971
 C203 C 0.03744 0.20843 0.15063
 C204 C 0.05270 0.19033 0.15021
 C205 C 0.05809 0.17783 0.12903
 C206 C 0.04757 0.18333 0.10819
 H207 H -0.03172 0.24505 0.07209
 H208 H -0.03780 0.29830 0.14464
 H209 H -0.05839 0.27510 0.07307
 H210 H -0.00966 0.27810 0.16446
 H211 H 0.01687 0.24792 0.16565
 H212 H -0.00285 0.22474 0.07031
 H213 H 0.02464 0.19537 0.07120
 H214 H 0.03396 0.21695 0.16769
 H215 H 0.06058 0.18626 0.16653
 H216 H 0.05132 0.17332 0.09181
 C217 C 0.52638 0.71789 0.65646
 C218 C 0.51939 0.72881 0.63640
 C219 C 0.53004 0.72215 0.61477
 C220 C 0.54744 0.70592 0.61366
 C221 C 0.55433 0.69556 0.63375
 C222 C 0.54349 0.70156 0.65506
 C223 C 0.52328 0.73165 0.59430
 C224 C 0.50595 0.74749 0.59462
 C225 C 0.49484 0.75485 0.61567
 C226 C 0.50214 0.74587 0.63702
 C227 C 0.49222 0.75454 0.65830
 C228 C 0.47552 0.77106 0.65875
 C229 C 0.46768 0.77938 0.63806
 C230 C 0.47692 0.77120 0.61616
 C231 C 0.46764 0.77964 0.59565
 C232 C 0.45038 0.79579 0.59702
 C233 C 0.44180 0.80421 0.61876
 C234 C 0.45052 0.79587 0.63922
 H235 H 0.51881 0.72129 0.67347
 H236 H 0.55536 0.70109 0.59695
 H237 H 0.54842 0.69384 0.67089
 H238 H 0.53142 0.72668 0.57772
 H239 H 0.50201 0.75403 0.57802
 H240 H 0.49735 0.74927 0.67514
 H241 H 0.46857 0.77732 0.67555
 H242 H 0.47307 0.77392 0.57822
 H243 H 0.44394 0.80200 0.58096
 H244 H 0.44362 0.80194 0.65609
 C245 C 1.00609 0.80681 0.37144
 C246 C 1.00844 0.78330 0.37704
 C247 C 1.03114 0.77682 0.38227
 C248 C 1.05029 0.79375 0.38338
 C249 C 1.04768 0.81721 0.37816
 C250 C 1.02535 0.82330 0.37180
 C251 C 1.03470 0.75342 0.38622
 C252 C 1.01629 0.73609 0.38455
 C253 C 0.99329 0.74170 0.37970
 C254 C 0.98915 0.76591 0.37714
 C255 C 0.96584 0.77205 0.37540
 C256 C 0.94724 0.75503 0.37548
 C257 C 0.95109 0.73114 0.37642
 C258 C 0.97419 0.72401 0.37794
 C259 C 0.97718 0.69939 0.37714
 C260 C 0.95799 0.68276 0.37557
 C261 C 0.93529 0.69008 0.37517
 C262 C 0.93192 0.71428 0.37566
 H263 H 0.98967 0.81288 0.36609
 H264 H 1.06736 0.78824 0.38764
 H265 H 1.02239 0.84104 0.36748
 H266 H 1.05201 0.74834 0.39033
 H267 H 1.02051 0.71850 0.38799
 H268 H 0.96136 0.79011 0.37478
 H269 H 0.92963 0.76060 0.37444
 H270 H 0.99413 0.69238 0.37702
 H271 H 0.96083 0.66405 0.37494
 H272 H 0.91430 0.71986 0.37481
 C273 C 0.47056 0.23284 -0.08954
 C274 C 0.48165 0.23943 -0.11028
 C275 C 0.47363 0.22734 -0.13193
 C276 C 0.45596 0.20885 -0.13245
 C277 C 0.44535 0.20249 -0.11172
 C278 C 0.45268 0.21477 -0.09035
 C279 C 0.48312 0.23386 -0.15299
 C280 C 0.50014 0.25249 -0.15320
 C281 C 0.50882 0.26506 -0.13216
 C282 C 0.50010 0.25779 -0.11032
 C283 C 0.51039 0.26879 -0.08925
 C284 C 0.52816 0.28668 -0.08944
 C285 C 0.53606 0.29474 -0.11052
 C286 C 0.52627 0.28439 -0.13221
 C287 C 0.53418 0.29410 -0.15300
 C288 C 0.55142 0.31281 -0.15218
 C289 C 0.56149 0.32236 -0.13076
 C290 C 0.55370 0.31325 -0.10999
 H291 H 0.47489 0.24161 -0.07243
 H292 H 0.45008 0.19977 -0.14915
 H293 H 0.44472 0.21027 -0.07406
 H294 H 0.47714 0.22462 -0.16958
 H295 H 0.50659 0.25621 -0.17022
 H296 H 0.50552 0.26356 -0.07220
 H297 H 0.53567 0.29444 -0.07283
 H298 H 0.52713 0.28798 -0.17015
 H299 H 0.55715 0.31964 -0.16845
 H300 H 0.56110 0.32094 -0.09331
 C301 C 0.15289 -0.01134 0.28060
 C302 C 0.13199 -0.00373 0.27139
 C303 C 0.11071 -0.01157 0.28159
 C304 C 0.11055 -0.02677 0.29975
 C305 C 0.13139 -0.03435 0.30841
 C306 C 0.15251 -0.02633 0.29874
 C307 C 0.08963 -0.00423 0.27365
 C308 C 0.08907 0.01087 0.25584
 C309 C 0.10969 0.01915 0.24495
 C310 C 0.13148 0.01139 0.25258
 C311 C 0.15198 0.01879 0.24097
 C312 C 0.15136 0.03344 0.22278
 C313 C 0.13039 0.04155 0.21549
 C314 C 0.10924 0.03474 0.22653
 C315 C 0.08857 0.04401 0.21869
 C316 C 0.08899 0.05907 0.20059
 C317 C 0.10990 0.06542 0.18960
 C318 C 0.13054 0.05656 0.19717
 H319 H 0.16991 -0.00597 0.27436
 H320 H 0.09408 -0.03250 0.30728
 H321 H 0.16893 -0.03187 0.30497
 H322 H 0.07331 -0.01019 0.28136
 H323 H 0.07199 0.01547 0.25081
 H324 H 0.16894 0.01332 0.24528
 H325 H 0.16756 0.03854 0.21436
 H326 H 0.07176 0.04020 0.22621
 H327 H 0.07276 0.06555 0.19498
 H328 H 0.14689 0.06172 0.18906
 C329 C 0.65727 0.52382 -0.27612
 C330 C 0.63847 0.51963 -0.26087
 C331 C 0.61830 0.53215 -0.26369
 C332 C 0.61767 0.54899 -0.28031
 C333 C 0.63656 0.55311 -0.29529
 C334 C 0.65623 0.54008 -0.29301
 C335 C 0.59872 0.52766 -0.25006
 C336 C 0.59843 0.51053 -0.23409
 C337 C 0.61810 0.49763 -0.23055
 C338 C 0.63881 0.50311 -0.24333
 C339 C 0.65929 0.49224 -0.23783
 C340 C 0.65938 0.47598 -0.22102
 C341 C 0.63899 0.46939 -0.20947
 C342 C 0.61792 0.47976 -0.21433
 C343 C 0.59746 0.47139 -0.20306
 C344 C 0.59814 0.45390 -0.18735
 C345 C 0.61917 0.44438 -0.18211
 C346 C 0.63955 0.45226 -0.19318
 H347 H 0.67287 0.51436 -0.27590
 H348 H 0.60201 0.55829 -0.28190
 H349 H 0.67124 0.54249 -0.30406
 H350 H 0.58327 0.53726 -0.25201
 H351 H 0.58265 0.50827 -0.22424
 H352 H 0.67583 0.49644 -0.24578
 H353 H 0.67557 0.46824 -0.21726
 H354 H 0.58055 0.47756 -0.20643
 H355 H 0.58218 0.44792 -0.17904
 H356 H 0.65577 0.44453 -0.18953
 C357 C 0.34275 1.00790 0.78119
 C358 C 0.36345 1.00172 0.76964
 C359 C 0.38468 1.01432 0.77749
 C360 C 0.38482 1.03292 0.79540
 C361 C 0.36409 1.03901 0.80633
 C362 C 0.34316 1.02616 0.79922
 C363 C 0.40573 1.00831 0.76750
 C364 C 0.40632 0.98985 0.74997
 C365 C 0.38569 0.97687 0.74131
 C366 C 0.36384 0.98340 0.75079
 C367 C 0.34309 0.97176 0.74079
 C368 C 0.34360 0.95413 0.72245
 C369 C 0.36474 0.94698 0.71359
 C370 C 0.38613 0.95789 0.72312
 C371 C 0.40705 0.94915 0.71409
 C372 C 0.40660 0.93091 0.69601
 C373 C 0.38540 0.92083 0.68621
 C374 C 0.36453 0.92891 0.69519
 H375 H 0.32595 0.99877 0.77701
 H376 H 0.40120 1.04242 0.80109
 H377 H 0.32688 1.03042 0.80740
 H378 H 0.42201 1.01792 0.77339
 H379 H 0.42331 0.98659 0.74315
 H380 H 0.32600 0.97629 0.74634
 H381 H 0.32720 0.94590 0.71518
 H382 H 0.42408 0.95576 0.72078
 H383 H 0.42295 0.92491 0.68939
 H384 H 0.34805 0.92080 0.68802
 C385 C 0.90563 0.46901 0.22685
 C386 C 0.88590 0.48162 0.23325
 C387 C 0.86473 0.47495 0.22069
 C388 C 0.86379 0.45711 0.20202
 C389 C 0.88358 0.44514 0.19568
 C390 C 0.90439 0.45110 0.20843
 C391 C 0.84453 0.48609 0.22675
 C392 C 0.84471 0.50370 0.24517
 C393 C 0.86534 0.51125 0.25814
 C394 C 0.88642 0.50045 0.25169
 C395 C 0.90735 0.50915 0.26357
 C396 C 0.90774 0.52758 0.28123
 C397 C 0.88729 0.53783 0.28813
 C398 C 0.86570 0.52958 0.27703
 C399 C 0.84536 0.54004 0.28543
 C400 C 0.84664 0.55828 0.30350
 C401 C 0.86811 0.56682 0.31383
 C402 C 0.88836 0.55640 0.30613
 H403 H 0.92224 0.47232 0.23583
 H404 H 0.84744 0.45233 0.19261
 H405 H 0.91996 0.44212 0.20397
 H406 H 0.82831 0.48109 0.21717
 H407 H 0.82836 0.51145 0.24842
 H408 H 0.92400 0.50247 0.25927
 H409 H 0.92429 0.53383 0.28964
 H410 H 0.82814 0.53444 0.27863
 H411 H 0.83073 0.56606 0.30911
 H412 H 0.90499 0.56260 0.31438
 C413 C 0.26334 0.14927 -0.01323
 C414 C 0.25015 0.12863 -0.00732
 C415 C 0.25608 0.10649 -0.01821
 C416 C 0.27386 0.10539 -0.03491
 C417 C 0.28655 0.12604 -0.04068
 C418 C 0.28122 0.14791 -0.02955
 C419 C 0.24435 0.08552 -0.01230
 C420 C 0.22708 0.08587 0.00454
 C421 C 0.22044 0.10741 0.01589
 C422 C 0.23158 0.12918 0.00923
 C423 C 0.22354 0.15075 0.01905
 C424 C 0.20572 0.15115 0.03527
 C425 C 0.19544 0.13016 0.04274
 C426 C 0.20279 0.10796 0.03344
 C427 C 0.19235 0.08727 0.04243
 C428 C 0.17519 0.08871 0.05955
 C429 C 0.16769 0.11067 0.06819
 C430 C 0.17790 0.13133 0.05965
 H431 H 0.26064 0.16674 -0.00528
 H432 H 0.27812 0.08832 -0.04308
 H433 H 0.29075 0.16416 -0.03364
 H434 H 0.24872 0.06855 -0.02065
 H435 H 0.21888 0.06886 0.00790
 H436 H 0.23032 0.16780 0.01418
 H437 H 0.20007 0.16816 0.04222
 H438 H 0.19731 0.06972 0.03696
 H439 H 0.16756 0.07251 0.06593
 H440 H 0.17254 0.14843 0.06665
 C441 C 0.73016 0.60080 0.52314
 C442 C 0.73616 0.62082 0.51065
 C443 C 0.72611 0.64230 0.51797
 C444 C 0.71006 0.64321 0.53640
 C445 C 0.70423 0.62314 0.54839
 C446 C 0.71455 0.60205 0.54167
 C447 C 0.73225 0.66282 0.50701
 C448 C 0.74856 0.66273 0.48921
 C449 C 0.75906 0.64181 0.48121
 C450 C 0.75205 0.62032 0.49148
 C451 C 0.76087 0.59899 0.48204
 C452 C 0.77657 0.59870 0.46374
 C453 C 0.78448 0.61962 0.45437
 C454 C 0.77611 0.64156 0.46306
 C455 C 0.78554 0.66235 0.45346
 C456 C 0.80228 0.66119 0.43589
 C457 C 0.81003 0.63938 0.42712
 C458 C 0.80098 0.61867 0.43641
 H459 H 0.73756 0.58400 0.51940
 H460 H 0.70249 0.65976 0.54174
 H461 H 0.71039 0.58626 0.55062
 H462 H 0.72455 0.67928 0.51244
 H463 H 0.75219 0.67933 0.48168
 H464 H 0.75558 0.58198 0.48805
 H465 H 0.78278 0.58186 0.45703
 H466 H 0.78076 0.67984 0.45947
 H467 H 0.80912 0.67743 0.42899
 H468 H 0.80731 0.60177 0.43009
 C469 C 0.77879 0.34467 0.00270
 C470 C 0.76769 0.36540 -0.00170
 C471 C 0.77584 0.38696 0.01114
 C472 C 0.79358 0.38733 0.02827
 C473 C 0.80399 0.36655 0.03270
 C474 C 0.79662 0.34533 0.01956
 C475 C 0.76628 0.40809 0.00687
 C476 C 0.74884 0.40847 -0.01001
 C477 C 0.73986 0.38750 -0.02311
 C478 C 0.74898 0.36551 -0.01841
 C479 C 0.73877 0.34434 -0.03020
 C480 C 0.72051 0.34458 -0.04622
 C481 C 0.71193 0.36588 -0.05154
 C482 C 0.72170 0.38771 -0.04042
 C483 C 0.71292 0.40884 -0.04728
 C484 C 0.69487 0.40814 -0.06390
 C485 C 0.68486 0.38647 -0.07419
 C486 C 0.69356 0.36541 -0.06798
 H487 H 0.77434 0.32767 -0.00674
 H488 H 0.79948 0.40397 0.03797
 H489 H 0.80439 0.32900 0.02254
 H490 H 0.77241 0.42462 0.01667
 H491 H 0.74235 0.42554 -0.01194
 H492 H 0.74410 0.32708 -0.02703
 H493 H 0.71307 0.32784 -0.05462
 H494 H 0.71976 0.42625 -0.04040
 H495 H 0.68844 0.42465 -0.06846
 H496 H 0.68622 0.34858 -0.07627
 C497 C 0.24725 0.90428 0.47227
 C498 C 0.25253 0.88306 0.48189
 C499 C 0.24018 0.86168 0.47273
 C500 C 0.22257 0.86192 0.45554
 C501 C 0.21721 0.88319 0.44669
 C502 C 0.22993 0.90425 0.45499
 C503 C 0.24539 0.84013 0.48078
 C504 C 0.26272 0.83920 0.49769
 C505 C 0.27529 0.85998 0.50770
 C506 C 0.26964 0.88234 0.50014
 C507 C 0.28088 0.90326 0.51144
 C508 C 0.29726 0.90245 0.52928
 C509 C 0.30349 0.88083 0.53632
 C510 C 0.29297 0.85923 0.52541
 C511 C 0.30077 0.83781 0.53265
 C512 C 0.31773 0.83800 0.55034
 C513 C 0.32741 0.85941 0.56152
 C514 C 0.32027 0.88076 0.55432
 H515 H 0.25631 0.92121 0.47748
 H516 H 0.21316 0.84543 0.44889
 H517 H 0.22626 0.92096 0.44845
 H518 H 0.23600 0.82372 0.47385
 H519 H 0.26540 0.82184 0.50301
 H520 H 0.27697 0.92074 0.50736
 H521 H 0.30521 0.91901 0.53761
 H522 H 0.29437 0.82060 0.52483
 H523 H 0.32306 0.82128 0.55558
 H524 H 0.32809 0.89741 0.56254
   
