data_POSCAR
  _audit_creation_date              2014-09-24
  _audit_creation_method            'ToBaCCo'
  _symmetry_space_group_name_H-M    'P1'
  _symmetry_Int_Tables_number       1
  _symmetry_cell_setting            triclinic
  loop_
  _symmetry_equiv_pos_as_xyz
 x,y,z
_cell_length_a 45.7680
_cell_length_b 45.9324
_cell_length_c 31.4260
_cell_angle_alpha 89.950600
_cell_angle_beta 89.631700
_cell_angle_gamma 119.534100
loop_
  _atom_site_label
  _atom_site_type_symbol
  _atom_site_fract_x
  _atom_site_fract_y
  _atom_site_fract_z
O1 O -0.01606 0.51331 -0.04709
 O2 O 0.04107 0.48321 -0.01182
 O3 O -0.01651 0.45678 -0.05200
 O4 O 0.04189 0.54025 -0.00967
 O5 O 0.01506 0.52591 0.05207
 O6 O -0.04273 0.44193 0.01007
 O7 O 0.01481 0.46917 0.05029
 O8 O -0.04284 0.49831 0.01467
 Cu9 Cu 0.01527 0.49972 -0.03636
 Cu10 Cu -0.01652 0.48224 0.03802
 C11 C -0.03924 0.51081 -0.02228
 C12 C 0.03800 0.47160 0.02563
 C13 C -0.03995 0.43529 -0.02850
 C14 C 0.03830 0.54739 0.02830
 O15 O 0.50686 0.54614 -0.02535
 O16 O 0.47989 0.46158 -0.06586
 O17 O 0.45135 0.48911 -0.02224
 O18 O 0.53533 0.51870 -0.06960
 O19 O 0.55211 0.50636 -0.00993
 O20 O 0.46808 0.47624 0.03711
 O21 O 0.49693 0.44895 -0.00660
 O22 O 0.52341 0.53338 0.03423
 Cu23 Cu 0.49169 0.50514 -0.05176
 Cu24 Cu 0.51180 0.48995 0.01967
 C25 C 0.51953 0.55408 0.01149
 C26 C 0.48396 0.44093 -0.04327
 C27 C 0.44547 0.47778 0.01556
 C28 C 0.55805 0.51752 -0.04783
 O29 O 0.52480 1.02389 -0.03463
 O30 O 0.43784 0.96735 -0.00047
 O31 O 0.46757 1.02113 -0.04864
 O32 O 0.49577 0.97191 0.01526
 O33 O 0.50371 1.00493 0.07017
 O34 O 0.47404 1.05254 0.00752
 O35 O 0.44532 0.99909 0.05567
 O36 O 0.53218 1.05688 0.02010
 Cu37 Cu 0.48065 0.99280 -0.02270
 Cu38 Cu 0.48944 1.03160 0.04387
 C39 C 0.54328 1.05005 -0.01338
 C40 C 0.42693 0.97321 0.03379
 C41 C 0.46634 1.04552 -0.03127
 C42 C 0.50468 0.98026 0.05361
 O43 O 1.06474 0.54816 0.53066
 O44 O 1.01579 0.46986 0.58960
 O45 O 1.06513 0.49191 0.53416
 O46 O 1.01185 0.52439 0.57966
 O47 O 0.97792 0.50360 0.52472
 O48 O 1.02985 0.47064 0.48069
 O49 O 0.98045 0.44885 0.53605
 O50 O 1.03075 0.52750 0.47573
 Cu51 Cu 1.04275 0.51054 0.56402
 Cu52 Cu 1.00128 0.48545 0.49894
 C53 C 1.05644 0.55123 0.49328
 C54 C 0.98965 0.44618 0.57331
 C55 C 1.05663 0.47605 0.49914
 C56 C 0.98584 0.51959 0.55940
 O57 O 0.46220 0.50525 0.49305
 O58 O 0.53521 0.53686 0.56330
 O59 O 0.51236 0.56379 0.50869
 O60 O 0.48507 0.47782 0.54562
 O61 O 0.51452 0.47181 0.49387
 O62 O 0.54171 0.55758 0.45700
 O63 O 0.56477 0.53083 0.51173
 O64 O 0.49138 0.49909 0.44105
 Cu65 Cu 0.49591 0.52159 0.53301
 Cu66 Cu 0.53122 0.51428 0.47087
 C67 C 0.46434 0.49705 0.45506
 C68 C 0.56236 0.53906 0.54966
 C69 C 0.53106 0.57501 0.47590
 C70 C 0.49494 0.46009 0.52577
 O71 O 0.50434 -0.05762 0.50481
 O72 O 0.46981 -0.01418 0.56791
 O73 O 0.44464 -0.06466 0.51520
 O74 O 0.52927 -0.00609 0.55546
 O75 O 0.53769 0.02726 0.50053
 O76 O 0.45293 -0.03026 0.46164
 O77 O 0.47881 0.02034 0.51415
 O78 O 0.51196 -0.02437 0.45004
 Cu79 Cu 0.48609 -0.03915 0.54120
 Cu80 Cu 0.49609 0.00156 0.47608
 C81 C 0.51384 -0.04861 0.46672
 C82 C 0.46913 0.01092 0.55221
 C83 C 0.43440 -0.05746 0.48140
 C84 C 0.54773 0.02076 0.53492
 C85 C 0.19567 0.42941 0.22954
 C86 C 0.19598 0.43091 0.27455
 C87 C 0.22427 0.43446 0.29626
 C88 C 0.25227 0.43700 0.27439
 C89 C 0.25195 0.43532 0.22947
 C90 C 0.22348 0.43130 0.20761
 H91 H 0.22313 0.43033 0.17323
 H92 H 0.22502 0.43609 0.33057
 C93 C 0.55378 0.75047 0.20972
 C94 C 0.56025 0.75740 0.25354
 C95 C 0.55916 0.78498 0.27108
 C96 C 0.55123 0.80553 0.24605
 C97 C 0.54465 0.79840 0.20221
 C98 C 0.54578 0.77092 0.18478
 H99 H 0.53949 0.76501 0.15155
 H100 H 0.56373 0.78994 0.30473
 C101 C 0.23658 0.80338 0.23118
 C102 C 0.23460 0.80358 0.27613
 C103 C 0.20795 0.77653 0.29719
 C104 C 0.18439 0.74834 0.27487
 C105 C 0.18665 0.74767 0.23002
 C106 C 0.21244 0.77547 0.20858
 H107 H 0.21517 0.77440 0.17448
 H108 H 0.20536 0.77752 0.33136
 C109 C 0.82571 0.57354 0.73348
 C110 C 0.82096 0.57667 0.77729
 C111 C 0.79083 0.57426 0.79188
 C112 C 0.76508 0.56907 0.76343
 C113 C 0.77029 0.56690 0.71927
 C114 C 0.80026 0.56877 0.70497
 H115 H 0.80314 0.56533 0.67141
 H116 H 0.78719 0.57531 0.82579
 C117 C 0.42450 0.24362 0.70400
 C118 C 0.42125 0.23997 0.74874
 C119 C 0.41886 0.21135 0.76805
 C120 C 0.42023 0.18630 0.74395
 C121 C 0.42228 0.18934 0.69902
 C122 C 0.42407 0.21775 0.67964
 H123 H 0.42711 0.22035 0.64542
 H124 H 0.41527 0.20826 0.80220
 C125 C 0.74233 0.18477 0.73459
 C126 C 0.74199 0.18899 0.77917
 C127 C 0.76759 0.21835 0.79776
 C128 C 0.79289 0.24396 0.77280
 C129 C 0.79240 0.23996 0.72808
 C130 C 0.76765 0.21026 0.70988
 H131 H 0.76842 0.20706 0.67581
 H132 H 0.76659 0.22249 0.83147
 C133 C 0.06242 0.46195 0.04074
 C134 C 0.06227 0.45221 0.08292
 C135 C 0.08914 0.44757 0.10250
 C136 C 0.08434 0.43532 0.14439
 C137 C 0.10973 0.43278 0.16561
 C138 C 0.14065 0.44233 0.14523
 C139 C 0.14535 0.45425 0.10320
 C140 C 0.11996 0.45686 0.08197
 C141 C 0.16920 0.44231 0.16732
 C142 C 0.16611 0.42538 0.20551
 H143 H 0.04178 0.44902 0.10348
 H144 H 0.06104 0.42834 0.16119
 H145 H 0.10518 0.42438 0.19833
 H146 H 0.16901 0.46210 0.08687
 H147 H 0.12519 0.46698 0.05007
 H148 H 0.19396 0.45730 0.15344
 H149 H 0.08160 0.46430 0.01856
 H150 H 0.14162 0.41000 0.21969
 C151 C 0.52915 0.58755 0.02789
 C152 C 0.54224 0.59752 0.06864
 C153 C 0.54886 0.62949 0.08826
 C154 C 0.55167 0.63248 0.13267
 C155 C 0.55642 0.66158 0.15284
 C156 C 0.55844 0.68839 0.12885
 C157 C 0.55711 0.68599 0.08433
 C158 C 0.55235 0.65688 0.06415
 C159 C 0.56200 0.71913 0.14890
 C160 C 0.55224 0.72017 0.19082
 H161 H 0.54566 0.58003 0.08829
 H162 H 0.54972 0.61202 0.15196
 H163 H 0.55873 0.66288 0.18708
 H164 H 0.55926 0.70655 0.06508
 H165 H 0.55162 0.65617 0.02979
 H166 H 0.57132 0.74139 0.12927
 H167 H 0.52404 0.60372 0.00803
 H168 H 0.54261 0.69804 0.21061
 C169 C 0.39290 0.94889 0.04852
 C170 C 0.38072 0.95145 0.08835
 C171 C 0.34949 0.92435 0.10768
 C172 C 0.34606 0.92326 0.15211
 C173 C 0.31810 0.89706 0.17205
 C174 C 0.29284 0.87130 0.14784
 C175 C 0.29536 0.87325 0.10332
 C176 C 0.32347 0.89945 0.08332
 C177 C 0.26360 0.84254 0.16827
 C178 C 0.26564 0.83084 0.20853
 H179 H 0.39647 0.97281 0.10805
 H180 H 0.36542 0.94244 0.17159
 H181 H 0.31633 0.89723 0.20639
 H182 H 0.27586 0.85410 0.08398
 H183 H 0.32456 0.90004 0.04894
 H184 H 0.24030 0.82998 0.15082
 H185 H 0.37858 0.92707 0.02900
 H186 H 0.28951 0.84267 0.22471
 C187 C 0.96396 0.53223 0.57536
 C188 C 0.96928 0.54946 0.61358
 C189 C 0.94555 0.56016 0.62974
 C190 C 0.94267 0.56332 0.67373
 C191 C 0.91881 0.57104 0.69008
 C192 C 0.89733 0.57582 0.66256
 C193 C 0.90162 0.57462 0.61851
 C194 C 0.92544 0.56688 0.60220
 C195 C 0.87003 0.58163 0.67839
 C196 C 0.85531 0.57111 0.71856
 H197 H 0.98992 0.55297 0.63364
 H198 H 0.95838 0.55902 0.69558
 H199 H 0.91740 0.57322 0.72419
 H200 H 0.88594 0.57893 0.59659
 H201 H 0.92793 0.56619 0.56802
 H202 H 0.85992 0.59271 0.65673
 H203 H 0.94206 0.52651 0.55658
 H204 H 0.86509 0.55963 0.73999
 C205 C 0.48383 0.42553 0.53952
 C206 C 0.46259 0.41107 0.57458
 C207 C 0.45206 0.37689 0.59047
 C208 C 0.44153 0.36914 0.63300
 C209 C 0.43227 0.33757 0.64975
 C210 C 0.43322 0.31292 0.62417
 C211 C 0.44229 0.32011 0.58114
 C212 C 0.45178 0.35183 0.56440
 C213 C 0.42484 0.27972 0.64168
 C214 C 0.43167 0.27586 0.68391
 H215 H 0.45485 0.42618 0.59277
 H216 H 0.44087 0.38775 0.65354
 H217 H 0.42412 0.33249 0.68265
 H218 H 0.44260 0.30132 0.56062
 H219 H 0.45854 0.35643 0.53106
 H220 H 0.41436 0.25850 0.62043
 H221 H 0.49345 0.41169 0.52215
 H222 H 0.44381 0.29804 0.70341
 C223 C 0.58078 0.04554 0.55120
 C224 C 0.59218 0.04254 0.59119
 C225 C 0.62248 0.06996 0.61134
 C226 C 0.62548 0.06999 0.65578
 C227 C 0.65235 0.09665 0.67635
 C228 C 0.67698 0.12376 0.65267
 C229 C 0.67451 0.12327 0.60820
 C230 C 0.64780 0.09655 0.58765
 C231 C 0.70427 0.15380 0.67309
 C232 C 0.71651 0.15371 0.71368
 H233 H 0.57657 0.02045 0.61017
 H234 H 0.60638 0.04981 0.67480
 H235 H 0.65296 0.09644 0.71074
 H236 H 0.69327 0.14378 0.58926
 H237 H 0.64721 0.09707 0.55330
 H238 H 0.71477 0.17700 0.65527
 H239 H 0.59488 0.06801 0.53243
 H240 H 0.70640 0.13044 0.73124
 C241 C 0.45742 0.06581 0.94557
 C242 C 0.45053 0.06215 0.90200
 C243 C 0.44638 0.08734 0.87709
 C244 C 0.42836 0.07806 0.83885
 C245 C 0.42470 0.10166 0.81450
 C246 C 0.43936 0.13518 0.82792
 C247 C 0.45778 0.14440 0.86580
 C248 C 0.46141 0.12094 0.88997
 C249 C 0.43708 0.16175 0.80376
 C250 C 0.41894 0.15720 0.76637
 H251 H 0.44830 0.04043 0.88554
 H252 H 0.41698 0.05244 0.82787
 H253 H 0.41065 0.09344 0.78531
 H254 H 0.46974 0.17008 0.87669
 H255 H 0.47670 0.12955 0.91820
 H256 H 0.45148 0.18701 0.81585
 H257 H 0.45694 0.08607 0.96254
 H258 H 0.40552 0.13286 0.75174
 C259 C 0.58991 0.52830 0.93484
 C260 C 0.59835 0.53953 0.89278
 C261 C 0.63181 0.54981 0.87384
 C262 C 0.63466 0.54747 0.82964
 C263 C 0.66569 0.55617 0.81078
 C264 C 0.69462 0.56763 0.83591
 C265 C 0.69199 0.57125 0.87987
 C266 C 0.66095 0.56236 0.89873
 C267 C 0.72786 0.57641 0.81754
 C268 C 0.73183 0.56221 0.78016
 H269 H 0.57915 0.53882 0.87208
 H270 H 0.61270 0.53849 0.80966
 H271 H 0.66692 0.55426 0.77659
 H272 H 0.71401 0.58061 0.89980
 H273 H 0.66002 0.56575 0.93267
 H274 H 0.74988 0.59353 0.83527
 H275 H 0.60829 0.52676 0.95480
 H276 H 0.70981 0.54483 0.76270
 C277 C 0.93651 0.40431 0.95503
 C278 C 0.93623 0.39624 0.91202
 C279 C 0.90949 0.36517 0.89244
 C280 C 0.90493 0.36457 0.84824
 C281 C 0.87980 0.33602 0.82838
 C282 C 0.85864 0.30729 0.85242
 C283 C 0.86378 0.30756 0.89644
 C284 C 0.88885 0.33617 0.91634
 C285 C 0.83209 0.27628 0.83257
 C286 C 0.81763 0.27565 0.79330
 H287 H 0.95515 0.41462 0.89086
 H288 H 0.92081 0.38637 0.82896
 H289 H 0.87759 0.33648 0.79418
 H290 H 0.84825 0.28554 0.91557
 H291 H 0.89220 0.33515 0.95022
 H292 H 0.82362 0.25298 0.84973
 H293 H 0.91684 0.38702 0.97619
 H294 H 0.82521 0.29879 0.77633
 C295 C 0.52678 0.93293 0.44212
 C296 C 0.53346 0.93786 0.39854
 C297 C 0.54355 0.91706 0.37320
 C298 C 0.53520 0.91175 0.32995
 C299 C 0.54263 0.89062 0.30579
 C300 C 0.55879 0.87457 0.32455
 C301 C 0.56869 0.88131 0.36719
 C302 C 0.56111 0.90226 0.39136
 C303 C 0.56563 0.85067 0.30099
 C304 C 0.54633 0.83185 0.26671
 H305 H 0.52842 0.95555 0.38187
 H306 H 0.52226 0.92342 0.31503
 H307 H 0.53581 0.88711 0.27255
 H308 H 0.58175 0.86977 0.38212
 H309 H 0.56912 0.90682 0.42416
 H310 H 0.58536 0.84634 0.31276
 H311 H 0.52909 0.91346 0.45858
 H312 H 0.52650 0.83591 0.25481
 C313 C 0.43547 0.48576 0.42648
 C314 C 0.40578 0.48456 0.44007
 C315 C 0.37709 0.47725 0.41206
 C316 C 0.35291 0.48526 0.42675
 C317 C 0.32579 0.47969 0.40132
 C318 C 0.32192 0.46562 0.36076
 C319 C 0.34597 0.45728 0.34601
 C320 C 0.37319 0.46289 0.37150
 C321 C 0.29303 0.46098 0.33488
 C322 C 0.28145 0.44066 0.29894
 H323 H 0.40420 0.49136 0.47268
 H324 H 0.35522 0.49628 0.45788
 H325 H 0.30771 0.48642 0.41346
 H326 H 0.34438 0.44696 0.31468
 H327 H 0.39086 0.45579 0.35917
 H328 H 0.28004 0.47416 0.34498
 H329 H 0.43865 0.48022 0.39393
 H330 H 0.29410 0.42752 0.28769
 C331 C 0.07770 0.58270 0.47056
 C332 C 0.07144 0.58883 0.42912
 C333 C 0.09499 0.61964 0.40576
 C334 C 0.08283 0.63205 0.37374
 C335 C 0.10468 0.66119 0.35131
 C336 C 0.13932 0.67813 0.36012
 C337 C 0.15139 0.66548 0.39195
 C338 C 0.12959 0.63650 0.41435
 C339 C 0.16384 0.70882 0.33722
 C340 C 0.15744 0.71969 0.29872
 H341 H 0.04833 0.57102 0.41378
 H342 H 0.05628 0.61940 0.36648
 H343 H 0.09414 0.67035 0.32764
 H344 H 0.17793 0.67786 0.39921
 H345 H 0.14011 0.62708 0.43778
 H346 H 0.18911 0.72213 0.34969
 H347 H 0.09934 0.60161 0.48731
 H348 H 0.13333 0.70537 0.28365
 C349 C 0.93722 0.52186 0.96359
 C350 C 0.93951 0.53519 0.92301
 C351 C 0.91472 0.54357 0.90497
 C352 C 0.92249 0.56088 0.86608
 C353 C 0.89918 0.56733 0.84597
 C354 C 0.86741 0.55675 0.86453
 C355 C 0.85971 0.53973 0.90364
 C356 C 0.88305 0.53320 0.92377
 C357 C 0.84085 0.56018 0.84219
 C358 C 0.84743 0.58180 0.80783
 H359 H 0.96051 0.53926 0.90284
 H360 H 0.94649 0.56879 0.85060
 H361 H 0.90590 0.57940 0.81515
 H362 H 0.83525 0.53084 0.91827
 H363 H 0.87558 0.51914 0.95319
 H364 H 0.81494 0.54316 0.85096
 H365 H 0.91765 0.51880 0.98556
 H366 H 0.87303 0.59964 0.79910
 C367 C 0.47418 0.40743 0.94023
 C368 C 0.45963 0.39721 0.90022
 C369 C 0.45241 0.36536 0.87958
 C370 C 0.44481 0.36163 0.83607
 C371 C 0.43909 0.33278 0.81449
 C372 C 0.44046 0.30668 0.83617
 C373 C 0.44775 0.31019 0.87976
 C374 C 0.45343 0.33909 0.90142
 C375 C 0.43652 0.27665 0.81373
 C376 C 0.41957 0.26577 0.77523
 H377 H 0.45487 0.41440 0.88182
 H378 H 0.44400 0.38149 0.81839
 H379 H 0.43470 0.33165 0.78061
 H380 H 0.44909 0.29049 0.89710
 H381 H 0.45855 0.34049 0.93508
 H382 H 0.44843 0.26347 0.82730
 H383 H 0.48000 0.39148 0.95947
 H384 H 0.40658 0.27805 0.76233
 C385 C 0.57778 0.07311 0.97196
 C386 C 0.59110 0.06597 0.93591
 C387 C 0.62367 0.08952 0.91563
 C388 C 0.62961 0.08282 0.87389
 C389 C 0.65903 0.10492 0.85227
 C390 C 0.68329 0.13436 0.87198
 C391 C 0.67825 0.14035 0.91443
 C392 C 0.64863 0.11824 0.93611
 C393 C 0.71371 0.15906 0.84867
 C394 C 0.71290 0.16441 0.80503
 H395 H 0.57568 0.04249 0.91974
 H396 H 0.61113 0.06061 0.85759
 H397 H 0.66270 0.09881 0.82013
 H398 H 0.69690 0.16258 0.93049
 H399 H 0.64555 0.12384 0.96867
 H400 H 0.73641 0.17391 0.86655
 H401 H 0.59191 0.09646 0.98874
 H402 H 0.68919 0.15030 0.78888
 C403 C 0.07736 0.46524 0.48040
 C404 C 0.06996 0.44949 0.44063
 C405 C 0.09289 0.44146 0.41626
 C406 C 0.08823 0.43660 0.37218
 C407 C 0.10975 0.43001 0.34743
 C408 C 0.13643 0.42799 0.36638
 C409 C 0.14033 0.43154 0.41068
 C410 C 0.11890 0.43835 0.43545
 C411 C 0.16049 0.42219 0.34108
 C412 C 0.16851 0.43227 0.29856
 H413 H 0.04718 0.44507 0.42474
 H414 H 0.06805 0.43831 0.35667
 H415 H 0.10514 0.42620 0.31363
 H416 H 0.16039 0.42957 0.42611
 H417 H 0.12271 0.44088 0.46946
 H418 H 0.17360 0.41136 0.35746
 H419 H 0.10047 0.47099 0.49631
 H420 H 0.15537 0.44324 0.28262
 C421 C 0.53911 0.60804 0.45886
 C422 C 0.55595 0.61979 0.41999
 C423 C 0.55810 0.64880 0.39642
 C424 C 0.56517 0.65139 0.35263
 C425 C 0.56518 0.67684 0.32823
 C426 C 0.55855 0.70072 0.34731
 C427 C 0.55231 0.69864 0.39132
 C428 C 0.55226 0.67312 0.41574
 C429 C 0.55572 0.72657 0.32214
 C430 C 0.56835 0.73594 0.28076
 H431 H 0.56510 0.60496 0.40387
 H432 H 0.56969 0.63299 0.33687
 H433 H 0.56921 0.67677 0.29433
 H434 H 0.54714 0.71669 0.40684
 H435 H 0.54753 0.67261 0.44954
 H436 H 0.54186 0.73762 0.33631
 H437 H 0.52856 0.62143 0.47526
 H438 H 0.58282 0.72565 0.26652
 C439 C 0.40277 0.91986 0.46570
 C440 C 0.39041 0.92582 0.42796
 C441 C 0.35896 0.90099 0.40698
 C442 C 0.35397 0.90648 0.36434
 C443 C 0.32564 0.88311 0.34232
 C444 C 0.30136 0.85373 0.36273
 C445 C 0.30597 0.84853 0.40561
 C446 C 0.33430 0.87194 0.42767
 C447 C 0.27228 0.82704 0.33984
 C448 C 0.26024 0.83196 0.30127
 H449 H 0.40570 0.94921 0.41115
 H450 H 0.37253 0.92860 0.34757
 H451 H 0.32363 0.88778 0.30905
 H452 H 0.28765 0.82610 0.42207
 H453 H 0.33656 0.86698 0.46073
 H454 H 0.26066 0.80210 0.35340
 H455 H 0.38842 0.89654 0.48279
 H456 H 0.27113 0.85681 0.28772
 C457 C 0.51616 0.96144 0.07998
 C458 C 0.51690 0.93313 0.06538
 C459 C 0.52699 0.91316 0.09246
 C460 C 0.51620 0.87979 0.08151
 C461 C 0.52450 0.85988 0.10676
 C462 C 0.54393 0.87304 0.14362
 C463 C 0.55565 0.90672 0.15376
 C464 C 0.54734 0.92662 0.12854
 C465 C 0.55296 0.85284 0.17181
 C466 C 0.53517 0.81793 0.17352
 H467 H 0.50794 0.92415 0.03361
 H468 H 0.50101 0.86898 0.05349
 H469 H 0.51594 0.83443 0.09683
 H470 H 0.57112 0.91764 0.18155
 H471 H 0.55729 0.95254 0.13726
 H472 H 0.57384 0.86609 0.19327
 H473 H 0.52298 0.96969 0.11243
 H474 H 0.51480 0.80398 0.15174
 C475 C 0.41210 0.46685 0.03446
 C476 C 0.40462 0.45589 0.07665
 C477 C 0.37260 0.44761 0.09847
 C478 C 0.37175 0.44715 0.14311
 C479 C 0.34250 0.44042 0.16525
 C480 C 0.31330 0.43395 0.14311
 C481 C 0.31369 0.43310 0.09849
 C482 C 0.34304 0.43995 0.07629
 C483 C 0.28211 0.42755 0.16565
 C484 C 0.28252 0.44083 0.20578
 H485 H 0.42408 0.45537 0.09558
 H486 H 0.39394 0.45235 0.16101
 H487 H 0.34285 0.43993 0.19965
 H488 H 0.29134 0.42754 0.08073
 H489 H 0.34224 0.43891 0.04193
 H490 H 0.25847 0.41281 0.14953
 H491 H 0.39389 0.46921 0.01518
 H492 H 0.30649 0.45645 0.22067
 C493 C 0.06172 0.58097 0.04461
 C494 C 0.05892 0.59056 0.08590
 C495 C 0.08282 0.62326 0.10497
 C496 C 0.08235 0.62652 0.14931
 C497 C 0.10468 0.65646 0.16912
 C498 C 0.12821 0.68398 0.14496
 C499 C 0.12794 0.68124 0.10049
 C500 C 0.10556 0.65116 0.08060
 C501 C 0.15264 0.71580 0.16541
 C502 C 0.16420 0.71656 0.20661
 H503 H 0.03896 0.57248 0.10619
 H504 H 0.06471 0.60570 0.16883
 H505 H 0.10307 0.65801 0.20333
 H506 H 0.14537 0.70229 0.08114
 H507 H 0.10610 0.65017 0.04627
 H508 H 0.16186 0.73884 0.14746
 H509 H 0.08194 0.59781 0.02381
 H510 H 0.15606 0.69309 0.22309
 C511 C 0.45819 0.02974 0.57951
 C512 C 0.45928 0.05918 0.56596
 C513 C 0.45418 0.08156 0.59519
 C514 C 0.44400 0.10345 0.57851
 C515 C 0.44042 0.12596 0.60498
 C516 C 0.44729 0.12718 0.64872
 C517 C 0.45800 0.10568 0.66526
 C518 C 0.46132 0.08300 0.63888
 C519 C 0.44499 0.15139 0.67756
 C520 C 0.42331 0.16411 0.67075
 H521 H 0.46440 0.06634 0.53272
 H522 H 0.43899 0.10325 0.54484
 H523 H 0.43320 0.14292 0.59081
 H524 H 0.46392 0.10651 0.69873
 H525 H 0.47041 0.06740 0.65266
 H526 H 0.46051 0.15891 0.70570
 H527 H 0.45073 0.02096 0.61185
 H528 H 0.40834 0.15753 0.64220
 C529 C 0.59086 0.55080 0.57892
 C530 C 0.62106 0.55236 0.56720
 C531 C 0.64891 0.56071 0.59726
 C532 C 0.67296 0.55130 0.58689
 C533 C 0.69891 0.55745 0.61497
 C534 C 0.70135 0.57321 0.65420
 C535 C 0.67809 0.58378 0.66386
 C536 C 0.65213 0.57765 0.63576
 C537 C 0.72775 0.57929 0.68558
 C538 C 0.74460 0.56093 0.68692
 H539 H 0.62354 0.54488 0.53527
 H540 H 0.67143 0.53876 0.55713
 H541 H 0.71703 0.55004 0.60546
 H542 H 0.67974 0.59648 0.69354
 H543 H 0.63494 0.58647 0.64437
 H544 H 0.73307 0.59794 0.70988
 H545 H 0.58693 0.55649 0.61110
 H546 H 0.74042 0.54271 0.66257
 C547 C 0.96985 0.41581 0.59889
 C548 C 0.93729 0.39183 0.58805
 C549 C 0.91533 0.36416 0.61712
 C550 C 0.88061 0.35185 0.61583
 C551 C 0.85910 0.32673 0.64395
 C552 C 0.87185 0.31273 0.67339
 C553 C 0.90661 0.32490 0.67441
 C554 C 0.92819 0.35028 0.64647
 C555 C 0.84979 0.28615 0.70390
 C556 C 0.81524 0.26647 0.69812
 H557 H 0.92635 0.39549 0.55947
 H558 H 0.87016 0.36231 0.59371
 H559 H 0.83268 0.31905 0.64292
 H560 H 0.91711 0.31464 0.69678
 H561 H 0.95480 0.35870 0.64770
 H562 H 0.86125 0.28110 0.73089
 H563 H 0.98017 0.41404 0.62905
 H564 H 0.80445 0.26800 0.66826
   
