data_POSCAR
  _audit_creation_date              2014-09-24
  _audit_creation_method            'ToBaCCo'
  _symmetry_space_group_name_H-M    'P1'
  _symmetry_Int_Tables_number       1
  _symmetry_cell_setting            triclinic
  loop_
  _symmetry_equiv_pos_as_xyz
 x,y,z
_cell_length_a 34.4046
_cell_length_b 34.4709
_cell_length_c 34.5002
_cell_angle_alpha 79.928700
_cell_angle_beta 100.655400
_cell_angle_gamma 76.978200
loop_
  _atom_site_label
  _atom_site_type_symbol
  _atom_site_fract_x
  _atom_site_fract_y
  _atom_site_fract_z
O1 O 0.56640 0.48893 0.03555
 O2 O 0.45651 0.50273 0.03233
 O3 O 0.51719 0.44109 0.03453
 O4 O 0.50554 0.55035 0.03252
 O5 O 0.49006 0.56438 -0.03425
 O6 O 0.50530 0.45498 -0.03216
 O7 O 0.44280 0.51464 -0.03428
 O8 O 0.55234 0.50440 -0.03120
 Cu9 Cu 0.51279 0.49434 0.04043
 Cu10 Cu 0.49617 0.51100 -0.03966
 C11 C 0.57813 0.49497 0.00271
 C12 C 0.43078 0.51049 -0.00145
 C13 C 0.51334 0.42938 0.00143
 C14 C 0.49592 0.57605 -0.00123
 O15 O -0.02757 0.55360 0.49700
 O16 O -0.02695 0.44541 0.50754
 O17 O -0.02601 0.49489 0.55640
 O18 O -0.02721 0.50370 0.44820
 O19 O 0.04046 0.48664 0.46328
 O20 O 0.04168 0.47684 0.57133
 O21 O 0.04073 0.42767 0.52154
 O22 O 0.04003 0.53611 0.51292
 Cu23 Cu -0.03370 0.50117 0.50075
 Cu24 Cu 0.04751 0.48007 0.51872
 C25 C 0.00606 0.56350 0.50374
 C26 C 0.00688 0.41806 0.51595
 C27 C 0.00807 0.48460 0.58236
 C28 C 0.00651 0.49639 0.43727
 O29 O 0.48415 0.04014 0.53774
 O30 O 0.47699 0.04311 0.42935
 O31 O 0.42591 0.04318 0.47699
 O32 O 0.53549 0.03951 0.49041
 O33 O 0.55131 -0.02784 0.50338
 O34 O 0.44186 -0.02422 0.49006
 O35 O 0.49223 -0.02426 0.44254
 O36 O 0.50053 -0.02717 0.55109
 Cu37 Cu 0.47909 0.04823 0.48230
 Cu38 Cu 0.49811 -0.03262 0.49813
 C39 C 0.49323 0.00604 0.56305
 C40 C 0.48347 0.00989 0.41742
 C41 C 0.41520 0.01004 0.48152
 C42 C 0.56214 0.00523 0.49884
 C43 C 0.49525 -0.00804 0.00580
 C44 C 0.49795 0.02121 -0.02467
 C45 C 0.49749 0.01450 -0.06598
 C46 C 0.50093 0.06189 -0.01840
 C47 C 0.49480 -0.00071 0.04674
 C48 C 0.49275 -0.04909 0.00017
 C49 C 0.53143 0.01681 -0.08249
 C50 C 0.53090 0.01229 -0.12201
 C51 C 0.49609 0.00614 -0.14598
 C52 C 0.46207 0.00381 -0.12938
 C53 C 0.46285 0.00777 -0.08958
 C54 C 0.53578 0.06639 0.00685
 C55 C 0.53899 0.10531 0.01081
 C56 C 0.50728 0.14032 -0.01032
 C57 C 0.47210 0.13535 -0.03497
 C58 C 0.46916 0.09655 -0.03923
 C59 C 0.46069 0.02561 0.05385
 C60 C 0.45907 0.02918 0.09335
 C61 C 0.49172 0.00668 0.12635
 C62 C 0.52639 -0.01859 0.11865
 C63 C 0.52768 -0.02255 0.07931
 C64 C 0.45941 -0.06328 0.00853
 C65 C 0.45768 -0.10279 0.00588
 C66 C 0.48955 -0.12911 -0.00474
 C67 C 0.52275 -0.11460 -0.01361
 C68 C 0.52436 -0.07492 -0.01109
 H69 H 0.55829 0.02224 -0.06473
 H70 H 0.55730 0.01469 -0.13423
 H71 H 0.43494 -0.00104 -0.14723
 H72 H 0.43623 0.00633 -0.07740
 H73 H 0.56077 0.03985 0.02278
 H74 H 0.56672 0.10803 0.02959
 H75 H 0.44201 0.09348 -0.05874
 H76 H 0.43485 0.04233 0.02897
 H77 H 0.43167 0.04849 0.09810
 H78 H 0.55252 -0.03559 0.14307
 H79 H 0.55426 -0.04295 0.07422
 H80 H 0.43474 -0.04372 0.01727
 H81 H 0.43139 -0.11278 0.01224
 H82 H 0.54806 -0.13431 -0.02129
 H83 H 0.55070 -0.06471 -0.01695
 H84 H 0.44672 0.16147 -0.05097
 C85 C -0.00545 0.49522 0.99441
 C86 C 0.02364 0.50111 1.02338
 C87 C 0.06355 0.50491 1.01542
 C88 C 0.01829 0.50107 1.06499
 C89 C -0.04615 0.49217 1.00094
 C90 C 0.00115 0.49401 0.95352
 C91 C 0.09554 0.46968 1.02088
 C92 C 0.13381 0.47295 1.01477
 C93 C 0.14078 0.51156 1.00369
 C94 C 0.10847 0.54681 0.99782
 C95 C 0.06999 0.54348 1.00333
 C96 C 0.01310 0.46622 1.08910
 C97 C 0.00940 0.46582 1.12882
 C98 C 0.01073 0.50031 1.14504
 C99 C 0.01559 0.53526 1.12066
 C100 C 0.01957 0.53553 1.08107
 C101 C -0.07235 0.52424 1.01127
 C102 C -0.11190 0.52238 1.01433
 C103 C -0.12599 0.48848 1.00693
 C104 C -0.09929 0.45610 0.99736
 C105 C -0.05988 0.45804 0.99421
 C106 C -0.01347 0.52960 0.92268
 C107 C -0.01013 0.52822 0.88320
 C108 C 0.00747 0.49103 0.87383
 C109 C 0.02294 0.45556 0.90523
 C110 C 0.01990 0.45710 0.94480
 H111 H 0.09091 0.43971 1.03021
 H112 H 0.15831 0.44535 1.01979
 H113 H 0.11302 0.57689 0.98892
 H114 H 0.04537 0.57094 0.99854
 H115 H 0.01235 0.43923 1.07725
 H116 H 0.00539 0.43859 1.14686
 H117 H 0.02351 0.56273 1.06298
 H118 H -0.06257 0.55117 1.01589
 H119 H -0.13188 0.54807 1.02119
 H120 H -0.10894 0.42927 0.99216
 H121 H -0.04012 0.43291 0.98633
 H122 H -0.02789 0.55833 0.92915
 H123 H -0.02158 0.55624 0.85996
 H124 H 0.03623 0.42637 0.89903
 H125 H 0.03119 0.42936 0.96843
 H126 H 0.01719 0.56208 1.13253
 C127 C 0.01108 -0.02165 0.49962
 C128 C -0.01951 0.00869 0.50394
 C129 C -0.06057 0.00314 0.50624
 C130 C -0.01365 0.04970 0.50556
 C131 C 0.05093 -0.01443 0.49521
 C132 C 0.00677 -0.06344 0.49958
 C133 C -0.08448 -0.00824 0.47483
 C134 C -0.12431 -0.01050 0.47610
 C135 C -0.14100 -0.00127 0.50874
 C136 C -0.11661 0.00948 0.54042
 C137 C -0.07692 0.01190 0.53903
 C138 C -0.03519 0.08321 0.47372
 C139 C -0.03102 0.12229 0.47542
 C140 C -0.00577 0.12877 0.50943
 C141 C 0.01599 0.09486 0.54124
 C142 C 0.01217 0.05566 0.53924
 C143 C 0.08553 -0.03104 0.52743
 C144 C 0.12335 -0.02446 0.52358
 C145 C 0.12723 -0.00184 0.48713
 C146 C 0.09255 0.01450 0.45474
 C147 C 0.05452 0.00852 0.45888
 C148 C -0.00002 -0.08749 0.53362
 C149 C -0.00174 -0.12772 0.53398
 C150 C 0.00293 -0.14434 0.50016
 C151 C 0.00921 -0.11996 0.46598
 C152 C 0.01149 -0.08000 0.46586
 H153 H -0.07268 -0.01432 0.44887
 H154 H -0.14249 -0.01824 0.45092
 H155 H -0.12826 0.01613 0.56629
 H156 H -0.05893 0.02078 0.56352
 H157 H -0.05514 0.07901 0.44745
 H158 H -0.04754 0.14740 0.44997
 H159 H 0.02868 0.03006 0.56427
 H160 H 0.08311 -0.04888 0.55560
 H161 H 0.14978 -0.03765 0.54880
 H162 H 0.09486 0.03215 0.42643
 H163 H 0.02798 0.02141 0.43374
 H164 H -0.00329 -0.07531 0.56009
 H165 H -0.00679 -0.14586 0.56062
 H166 H 0.01333 -0.13218 0.43971
 H167 H 0.01699 -0.06194 0.43943
 H168 H 0.03519 0.09869 0.56815
 C169 C -0.29468 0.48836 1.00617
 C170 C -0.32382 0.49910 0.96902
 C171 C -0.36496 0.50071 0.96790
 C172 C -0.37798 0.49171 1.00392
 C173 C -0.34882 0.48067 1.04109
 C174 C -0.30763 0.47901 1.04219
 C175 C -0.25109 0.48738 1.00721
 C176 C -0.22837 0.50228 1.03668
 C177 C -0.18770 0.50235 1.03687
 C178 C -0.16882 0.48749 1.00762
 C179 C -0.19146 0.47228 0.97839
 C180 C -0.23205 0.47217 0.97823
 H181 H -0.38666 0.50952 0.93878
 H182 H -0.35783 0.47347 1.06938
 H183 H -0.17097 0.51392 1.06001
 H184 H -0.17804 0.46110 0.95511
 H185 H -0.28584 0.47010 1.07126
 H186 H -0.24228 0.51459 1.05918
 H187 H -0.31498 0.50707 0.94076
 H188 H -0.24852 0.46003 0.95542
 C189 C 0.30581 0.51772 0.99641
 C190 C 0.33389 0.51361 1.03296
 C191 C 0.37506 0.51145 1.03365
 C192 C 0.38907 0.51393 0.99763
 C193 C 0.36051 0.51899 0.96088
 C194 C 0.31945 0.52048 0.96038
 C195 C 0.26267 0.51795 0.99624
 C196 C 0.24396 0.49250 0.97602
 C197 C 0.20415 0.49075 0.97802
 C198 C 0.18211 0.51491 0.99973
 C199 C 0.20042 0.54117 1.01903
 C200 C 0.24045 0.54245 1.01756
 H201 H 0.39588 0.50764 1.06257
 H202 H 0.36993 0.52108 0.93247
 H203 H 0.19058 0.47042 0.96272
 H204 H 0.18416 0.55986 1.03621
 H205 H 0.29826 0.52393 0.93178
 H206 H 0.26057 0.47312 0.95962
 H207 H 0.32416 0.51107 1.06120
 H208 H 0.25416 0.56247 1.03321
 C209 C 0.00423 -0.31260 0.50052
 C210 C 0.04159 -0.34310 0.51196
 C211 C 0.04233 -0.38388 0.51225
 C212 C 0.00559 -0.39525 0.50169
 C213 C -0.03179 -0.36442 0.49003
 C214 C -0.03239 -0.32360 0.48921
 C215 C 0.00343 -0.26943 0.50065
 C216 C -0.02026 -0.23783 0.46759
 C217 C -0.02057 -0.19718 0.46750
 C218 C 0.00232 -0.18730 0.50073
 C219 C 0.02553 -0.21884 0.53405
 C220 C 0.02631 -0.25955 0.53389
 H221 H 0.07176 -0.40653 0.52136
 H222 H -0.06078 -0.37172 0.48163
 H223 H -0.03886 -0.17339 0.44154
 H224 H 0.04369 -0.21205 0.55989
 H225 H -0.06162 -0.30067 0.48050
 H226 H -0.03800 -0.24467 0.44152
 H227 H 0.07029 -0.33530 0.52041
 H228 H 0.04453 -0.28332 0.55989
 C229 C 0.00405 0.29331 0.51863
 C230 C -0.02994 0.32208 0.52333
 C231 C -0.02878 0.36239 0.52293
 C232 C 0.00661 0.37483 0.51848
 C233 C 0.04107 0.34594 0.51503
 C234 C 0.03973 0.30569 0.51484
 C235 C 0.00177 0.25099 0.51665
 C236 C 0.03632 0.21733 0.53306
 C237 C 0.03403 0.17777 0.53060
 C238 C -0.00296 0.17081 0.51196
 C239 C -0.03752 0.20447 0.49582
 C240 C -0.03511 0.24398 0.49786
 H241 H -0.05567 0.38387 0.52608
 H242 H 0.06870 0.35473 0.51131
 H243 H 0.06141 0.15270 0.54295
 H244 H -0.06673 0.20033 0.48186
 H245 H 0.06629 0.28463 0.51060
 H246 H 0.06513 0.22143 0.54817
 H247 H -0.05757 0.31350 0.52734
 H248 H -0.06219 0.26911 0.48424
 C249 C 0.49478 0.00345 -0.31338
 C250 C 0.48339 0.04079 -0.34198
 C251 C 0.48357 0.04168 -0.38260
 C252 C 0.49460 0.00513 -0.39577
 C253 C 0.50615 -0.03230 -0.36688
 C254 C 0.50649 -0.03306 -0.32614
 C255 C 0.49445 0.00274 -0.27036
 C256 C 0.52806 -0.02135 -0.23930
 C257 C 0.52841 -0.02064 -0.19883
 C258 C 0.49490 0.00371 -0.18864
 C259 C 0.46088 0.02705 -0.21964
 C260 C 0.46078 0.02678 -0.26013
 H261 H 0.47453 0.07114 -0.40370
 H262 H 0.51488 -0.06112 -0.37564
 H263 H 0.55491 -0.03906 -0.17545
 H264 H 0.43482 0.04632 -0.21260
 H265 H 0.51523 -0.06226 -0.30466
 H266 H 0.55446 -0.03999 -0.24641
 H267 H 0.47469 0.06939 -0.33281
 H268 H 0.43435 0.04536 -0.28350
 C269 C 0.48187 0.01100 0.29208
 C270 C 0.48488 0.04568 0.30749
 C271 C 0.48443 0.04568 0.34796
 C272 C 0.48152 0.01083 0.37407
 C273 C 0.47795 -0.02361 0.35864
 C274 C 0.47778 -0.02342 0.31808
 C275 C 0.48407 0.01020 0.24947
 C276 C 0.50386 -0.02603 0.23990
 C277 C 0.50608 -0.02709 0.20010
 C278 C 0.48916 0.00821 0.16873
 C279 C 0.46952 0.04456 0.17825
 C280 C 0.46686 0.04550 0.21810
 H281 H 0.48748 0.07261 0.35908
 H282 H 0.47522 -0.05077 0.37793
 H283 H 0.52077 -0.05585 0.19393
 H284 H 0.45649 0.07244 0.15500
 H285 H 0.47439 -0.05032 0.30713
 H286 H 0.51811 -0.05366 0.26325
 H287 H 0.48866 0.07251 0.28862
 H288 H 0.45096 0.07384 0.22419
 C289 C 0.48914 -0.29727 -0.00389
 C290 C 0.47832 -0.31006 -0.03995
 C291 C 0.47997 -0.35108 -0.03907
 C292 C 0.49237 -0.38021 -0.00208
 C293 C 0.50267 -0.36735 0.03401
 C294 C 0.50115 -0.32637 0.03311
 C295 C 0.48839 -0.25389 -0.00478
 C296 C 0.47462 -0.23503 0.02496
 C297 C 0.47487 -0.19457 0.02480
 C298 C 0.48873 -0.17190 -0.00520
 C299 C 0.50221 -0.19063 -0.03514
 C300 C 0.50206 -0.23118 -0.03493
 H301 H 0.47171 -0.36000 -0.06740
 H302 H 0.51257 -0.38906 0.06298
 H303 H 0.46480 -0.18124 0.04863
 H304 H 0.51270 -0.17386 -0.05887
 H305 H 0.51024 -0.31763 0.06138
 H306 H 0.46347 -0.25152 0.04832
 H307 H 0.46836 -0.28828 -0.06888
 H308 H 0.51329 -0.24497 -0.05800
 C309 C 0.51910 0.30379 -0.00037
 C310 C 0.52475 0.33028 -0.03355
 C311 C 0.52355 0.37085 -0.03264
 C312 C 0.51732 0.38575 0.00170
 C313 C 0.51321 0.35902 0.03549
 C314 C 0.51384 0.31852 0.03439
 C315 C 0.51706 0.26159 -0.00275
 C316 C 0.53304 0.22890 0.03142
 C317 C 0.52996 0.18955 0.02908
 C318 C 0.51105 0.18194 -0.00755
 C319 C 0.49557 0.21456 -0.04177
 C320 C 0.49827 0.25386 -0.03934
 H321 H 0.52729 0.39064 -0.05897
 H322 H 0.50817 0.36975 0.06230
 H323 H 0.54188 0.16522 0.05613
 H324 H 0.48147 0.20974 -0.07067
 H325 H 0.50889 0.29918 0.06030
 H326 H 0.54812 0.23364 0.05997
 H327 H 0.52989 0.31975 -0.06042
 H328 H 0.48500 0.27833 -0.06613
 C329 C -0.31047 0.00110 0.50694
 C330 C -0.32249 -0.03510 0.51648
 C331 C -0.36377 -0.03376 0.51430
 C332 C -0.39396 0.00383 0.50265
 C333 C -0.38190 0.04005 0.49355
 C334 C -0.34067 0.03870 0.49559
 C335 C -0.26673 -0.00025 0.50834
 C336 C -0.24971 0.02943 0.52271
 C337 C -0.20895 0.02890 0.52302
 C338 C -0.18409 -0.00144 0.50916
 C339 C -0.20096 -0.03137 0.49514
 C340 C -0.24181 -0.03077 0.49472
 H341 H -0.37204 -0.06222 0.52164
 H342 H -0.40441 0.06949 0.48424
 H343 H -0.19712 0.05274 0.53351
 H344 H -0.18252 -0.05539 0.48464
 H345 H -0.33255 0.06711 0.48744
 H346 H -0.26789 0.05306 0.53387
 H347 H -0.29993 -0.06451 0.52591
 H348 H -0.25409 -0.05382 0.48304
 C349 C 0.28907 0.01147 0.47558
 C350 C 0.30282 0.04583 0.48155
 C351 C 0.34357 0.04586 0.48225
 C352 C 0.37146 0.01121 0.47775
 C353 C 0.35751 -0.02296 0.47128
 C354 C 0.31660 -0.02269 0.46986
 C355 C 0.24664 0.01042 0.47710
 C356 C 0.22257 -0.00260 0.44710
 C357 C 0.18322 -0.00549 0.44976
 C358 C 0.16766 0.00386 0.48285
 C359 C 0.19157 0.01728 0.51263
 C360 C 0.23060 0.02086 0.50960
 H361 H 0.35351 0.07256 0.48742
 H362 H 0.37832 -0.05003 0.46761
 H363 H 0.16537 -0.01612 0.42658
 H364 H 0.18006 0.02483 0.53831
 H365 H 0.30674 -0.04965 0.46551
 H366 H 0.23430 -0.01066 0.42170
 H367 H 0.28203 0.07258 0.48585
 H368 H 0.24874 0.03068 0.53325
 C369 C 0.00621 0.49946 1.31198
 C370 C -0.03061 0.51355 1.32349
 C371 C -0.03055 0.51290 1.36414
 C372 C 0.00638 0.49847 1.39403
 C373 C 0.04324 0.48497 1.38236
 C374 C 0.04313 0.48533 1.34180
 C375 C 0.00624 0.49927 1.26905
 C376 C 0.02998 0.46536 1.25891
 C377 C 0.03086 0.46545 1.21859
 C378 C 0.00825 0.49957 1.18758
 C379 C -0.01582 0.53334 1.19766
 C380 C -0.01695 0.53312 1.23799
 H381 H -0.05946 0.52348 1.37217
 H382 H 0.07222 0.47367 1.40463
 H383 H 0.04994 0.43916 1.21172
 H384 H -0.03381 0.55990 1.17430
 H385 H 0.07201 0.47481 1.33370
 H386 H 0.04781 0.43869 1.28222
 H387 H -0.05954 0.52433 1.30113
 H388 H -0.03532 0.55975 1.24498
 C389 C 0.00899 0.48268 0.70759
 C390 C -0.02740 0.48474 0.67991
 C391 C -0.02762 0.48484 0.63937
 C392 C 0.00863 0.48248 0.62564
 C393 C 0.04522 0.47946 0.65345
 C394 C 0.04537 0.47972 0.69392
 C395 C 0.00878 0.48459 0.75027
 C396 C 0.04203 0.46124 0.78218
 C397 C 0.04184 0.46352 0.82221
 C398 C 0.00830 0.48905 0.83129
 C399 C -0.02496 0.51230 0.79937
 C400 C -0.02464 0.51024 0.75939
 H401 H -0.05623 0.48689 0.61873
 H402 H 0.07362 0.47784 0.64374
 H403 H 0.06813 0.44551 0.84602
 H404 H -0.05159 0.53178 0.80528
 H405 H 0.07381 0.47867 0.71425
 H406 H 0.06808 0.44085 0.77628
 H407 H -0.05579 0.48622 0.68959
 H408 H -0.05049 0.52911 0.73555
   
