data_POSCAR
  _audit_creation_date              2014-09-24
  _audit_creation_method            'ToBaCCo'
  _symmetry_space_group_name_H-M    'P1'
  _symmetry_Int_Tables_number       1
  _symmetry_cell_setting            triclinic
  loop_
  _symmetry_equiv_pos_as_xyz
 x,y,z
_cell_length_a 51.2340
_cell_length_b 51.2597
_cell_length_c 41.8674
_cell_angle_alpha 89.968800
_cell_angle_beta 89.961600
_cell_angle_gamma 89.941600
loop_
  _atom_site_label
  _atom_site_type_symbol
  _atom_site_fract_x
  _atom_site_fract_y
  _atom_site_fract_z
O1 O 0.02482 0.30793 -0.03041
 O2 O -0.02627 0.30772 0.03184
 O3 O 0.02480 0.30790 0.03180
 O4 O -0.02626 0.30780 -0.03035
 O5 O -0.02596 0.26466 -0.03025
 O6 O 0.02486 0.26476 0.03163
 O7 O -0.02596 0.26458 0.03168
 O8 O 0.02487 0.26479 -0.03030
 Cu9 Cu -0.00074 0.31221 0.00072
 Cu10 Cu -0.00053 0.26036 0.00068
 C11 C 0.03356 0.28634 -0.04070
 C12 C -0.03483 0.28605 0.04211
 C13 C 0.03353 0.28629 0.04204
 C14 C -0.03482 0.28615 -0.04062
 O15 O 0.47454 0.80687 0.53098
 O16 O 0.52552 0.80687 0.46868
 O17 O 0.47445 0.80691 0.46875
 O18 O 0.52558 0.80666 0.53087
 O19 O 0.52540 0.76352 0.53064
 O20 O 0.47453 0.76376 0.46879
 O21 O 0.52536 0.76373 0.46871
 O22 O 0.47459 0.76373 0.53075
 Cu23 Cu 0.50002 0.81121 0.49982
 Cu24 Cu 0.49996 0.75935 0.49970
 C25 C 0.46589 0.78525 0.54124
 C26 C 0.53415 0.78525 0.45835
 C27 C 0.46578 0.78531 0.45844
 C28 C 0.53420 0.78499 0.54109
 O29 O 1.02665 0.69357 0.03090
 O30 O 0.97562 0.69358 -0.03134
 O31 O 1.02667 0.69364 -0.03132
 O32 O 0.97559 0.69333 0.03086
 O33 O 0.97553 0.73648 0.03087
 O34 O 1.02638 0.73678 -0.03105
 O35 O 0.97559 0.73672 -0.03107
 O36 O 1.02635 0.73671 0.03090
 Cu37 Cu 1.00115 0.68915 -0.00023
 Cu38 Cu 1.00095 0.74100 -0.00006
 C39 C 1.03520 0.71520 0.04126
 C40 C 0.96692 0.71522 -0.04156
 C41 C 1.03522 0.71531 -0.04155
 C42 C 0.96684 0.71491 0.04119
 O43 O 0.52538 0.19165 0.53108
 O44 O 0.47433 0.19166 0.46893
 O45 O 0.52539 0.19173 0.46889
 O46 O 0.47431 0.19167 0.53114
 O47 O 0.47437 0.23481 0.53101
 O48 O 0.52520 0.23487 0.46903
 O49 O 0.47438 0.23480 0.46906
 O50 O 0.52520 0.23480 0.53096
 Cu51 Cu 0.49986 0.18730 0.50001
 Cu52 Cu 0.49978 0.23915 0.50002
 C53 C 0.53400 0.21328 0.54134
 C54 C 0.46566 0.21329 0.45866
 C55 C 0.53401 0.21337 0.45861
 C56 C 0.46563 0.21329 0.54142
 O57 O 0.69311 -0.02536 0.03052
 O58 O 0.69318 0.02574 -0.03168
 O59 O 0.69293 -0.02531 -0.03169
 O60 O 0.69321 0.02565 0.03053
 O61 O 0.73638 0.02535 0.03025
 O62 O 0.73610 -0.02538 -0.03171
 O63 O 0.73634 0.02542 -0.03169
 O64 O 0.73628 -0.02541 0.03022
 Cu65 Cu 0.68873 0.00020 -0.00058
 Cu66 Cu 0.74061 -0.00002 -0.00076
 C67 C 0.71475 -0.03409 0.04072
 C68 C 0.71483 0.03429 -0.04203
 C69 C 0.71452 -0.03405 -0.04203
 C70 C 0.71490 0.03417 0.04075
 O71 O 0.19325 0.52568 0.46909
 O72 O 0.19357 0.47473 0.53140
 O73 O 0.19333 0.52575 0.53130
 O74 O 0.19356 0.47464 0.46919
 O75 O 0.23672 0.47496 0.46923
 O76 O 0.23649 0.52582 0.53108
 O77 O 0.23673 0.47504 0.53119
 O78 O 0.23641 0.52576 0.46913
 Cu79 Cu 0.18905 0.50018 0.50025
 Cu80 Cu 0.24092 0.50041 0.50014
 C81 C 0.21483 0.53442 0.45876
 C82 C 0.21526 0.46621 0.54167
 C83 C 0.21493 0.53450 0.54152
 C84 C 0.21524 0.46609 0.45888
 O85 O 0.30571 1.02668 0.03122
 O86 O 0.30600 0.97565 -0.03099
 O87 O 0.30574 1.02668 -0.03101
 O88 O 0.30601 0.97563 0.03120
 O89 O 0.26285 0.97555 0.03111
 O90 O 0.26258 1.02636 -0.03084
 O91 O 0.26284 0.97557 -0.03082
 O92 O 0.26255 1.02635 0.03113
 Cu93 Cu 0.31024 1.00119 0.00011
 Cu94 Cu 0.25837 1.00095 0.00015
 C95 C 0.28402 1.03521 0.04153
 C96 C 0.28441 0.96690 -0.04124
 C97 C 0.28405 1.03521 -0.04129
 C98 C 0.28442 0.96687 0.04147
 O99 O 0.80741 0.47400 0.46886
 O100 O 0.80786 0.52499 0.53104
 O101 O 0.80743 0.47394 0.53107
 O102 O 0.80765 0.52502 0.46884
 O103 O 0.76449 0.52520 0.46914
 O104 O 0.76426 0.47440 0.53109
 O105 O 0.76470 0.52520 0.53107
 O106 O 0.76424 0.47443 0.46915
 Cu107 Cu 0.81197 0.49945 0.49994
 Cu108 Cu 0.76009 0.49984 0.50014
 C109 C 0.78569 0.46554 0.45864
 C110 C 0.78630 0.53380 0.54138
 C111 C 0.78574 0.46546 0.54142
 C112 C 0.78604 0.53380 0.45863
 C113 C 0.27575 0.29396 0.33010
 C114 C 0.29377 0.27422 0.33096
 C115 C 0.28801 0.25766 0.30572
 N116 N 0.26702 0.26671 0.28962
 C117 C 0.25943 0.28889 0.30442
 C118 C 0.30270 0.23523 0.29763
 C119 C 0.29755 0.21867 0.27131
 C120 C 0.31419 0.19903 0.26097
 C121 C 0.30275 0.18780 0.23469
 C122 C 0.27937 0.20083 0.22954
 N123 N 0.27615 0.21930 0.25234
 C124 C 0.26200 0.19529 0.20413
 C125 C 0.24010 0.21067 0.19574
 C126 C 0.22368 0.20551 0.17018
 C127 C 0.20563 0.22523 0.16935
 C128 C 0.21149 0.24187 0.19448
 N129 N 0.23256 0.23289 0.21049
 C130 C 0.19684 0.26434 0.20252
 C131 C 0.20206 0.28098 0.22875
 C132 C 0.18550 0.30073 0.23897
 C133 C 0.19696 0.31198 0.26522
 C134 C 0.22027 0.29885 0.27047
 N135 N 0.22342 0.28030 0.24776
 C136 C 0.23760 0.30434 0.29594
 H137 H 0.27473 0.31013 0.34668
 H138 H 0.30944 0.27239 0.34815
 H139 H 0.23998 0.26913 0.24409
 H140 H 0.33286 0.19354 0.27104
 H141 H 0.31094 0.17204 0.22069
 H142 H 0.22464 0.18930 0.15367
 H143 H 0.18989 0.22699 0.15225
 H144 H 0.18882 0.32781 0.27914
 H145 H 0.25952 0.23035 0.25613
 H146 H 0.16687 0.30627 0.22884
 C147 C 0.70659 0.72500 0.33062
 C148 C 0.72479 0.70542 0.32976
 C149 C 0.74108 0.71066 0.30406
 N150 N 0.73330 0.73277 0.28925
 C151 C 0.71221 0.74161 0.30537
 C152 C 0.76306 0.69542 0.29557
 C153 C 0.78036 0.70108 0.27010
 C154 C 0.80379 0.68818 0.26485
 C155 C 0.81516 0.69953 0.23857
 C156 C 0.79841 0.71912 0.22833
 N157 N 0.77704 0.71960 0.24737
 C158 C 0.80348 0.73579 0.20207
 C159 C 0.78865 0.75815 0.19404
 C160 C 0.79438 0.77486 0.16891
 C161 C 0.77618 0.79444 0.16978
 C162 C 0.75980 0.78912 0.19537
 N163 N 0.76751 0.76695 0.21009
 C164 C 0.73778 0.80431 0.20380
 C165 C 0.72042 0.79857 0.22919
 C166 C 0.69690 0.81137 0.23431
 C167 C 0.68553 0.80001 0.26058
 C168 C 0.70235 0.78053 0.27093
 N169 N 0.72378 0.78011 0.25198
 C170 C 0.69733 0.76392 0.29727
 H171 H 0.69089 0.72667 0.34782
 H172 H 0.72595 0.68925 0.34635
 H173 H 0.74051 0.76923 0.25579
 H174 H 0.81208 0.67242 0.27878
 H175 H 0.83385 0.69417 0.22843
 H176 H 0.81013 0.77324 0.15179
 H177 H 0.77508 0.81067 0.15328
 H178 H 0.66679 0.80530 0.27064
 H179 H 0.76037 0.73061 0.24368
 H180 H 0.68858 0.82706 0.22031
 C181 C 0.72439 0.29429 0.32974
 C182 C 0.70625 0.27469 0.33069
 C183 C 0.71193 0.25804 0.30551
 N184 N 0.73299 0.26688 0.28935
 C185 C 0.74070 0.28902 0.30406
 C186 C 0.69714 0.23568 0.29753
 C187 C 0.70222 0.21906 0.27123
 C188 C 0.68550 0.19951 0.26097
 C189 C 0.69689 0.18818 0.23468
 C190 C 0.72032 0.20107 0.22946
 N191 N 0.72361 0.21955 0.25220
 C192 C 0.73765 0.19540 0.20402
 C193 C 0.75960 0.21063 0.19549
 C194 C 0.77590 0.20536 0.16980
 C195 C 0.79405 0.22495 0.16886
 C196 C 0.78837 0.24161 0.19404
 N197 N 0.76732 0.23277 0.21020
 C198 C 0.80317 0.26396 0.20203
 C199 C 0.79808 0.28057 0.22833
 C200 C 0.81481 0.30012 0.23860
 C201 C 0.80342 0.31145 0.26488
 C202 C 0.77998 0.29857 0.27009
 N203 N 0.77669 0.28009 0.24735
 C204 C 0.76265 0.30425 0.29553
 H205 H 0.72550 0.31049 0.34626
 H206 H 0.69056 0.27303 0.34789
 H207 H 0.76001 0.26914 0.24364
 H208 H 0.66681 0.19415 0.27109
 H209 H 0.68863 0.17246 0.22073
 H210 H 0.77479 0.18917 0.15327
 H211 H 0.80974 0.22662 0.15165
 H212 H 0.81168 0.32718 0.27883
 H213 H 0.74029 0.23051 0.25590
 H214 H 0.83350 0.30548 0.22848
 C215 C 0.22488 0.79415 0.16867
 C216 C 0.20532 0.77596 0.16949
 C217 C 0.21052 0.75969 0.19521
 N218 N 0.23259 0.76747 0.21006
 C219 C 0.24145 0.78853 0.19396
 C220 C 0.19528 0.73774 0.20369
 C221 C 0.20089 0.72046 0.22919
 C222 C 0.18794 0.69709 0.23449
 C223 C 0.19926 0.68572 0.26079
 C224 C 0.21888 0.70239 0.27098
 N225 N 0.21941 0.72373 0.25191
 C226 C 0.23556 0.69729 0.29723
 C227 C 0.25794 0.71206 0.30522
 C228 C 0.27467 0.70628 0.33031
 C229 C 0.29425 0.72444 0.32944
 C230 C 0.28891 0.74086 0.30391
 N231 N 0.26673 0.73320 0.28921
 C232 C 0.30408 0.76287 0.29552
 C233 C 0.29833 0.78026 0.27018
 C234 C 0.31107 0.80379 0.26513
 C235 C 0.29971 0.81519 0.23888
 C236 C 0.28029 0.79838 0.22846
 N237 N 0.27991 0.77693 0.24736
 C238 C 0.26371 0.80342 0.20211
 H239 H 0.22656 0.80984 0.15147
 H240 H 0.18919 0.77481 0.15287
 H241 H 0.26909 0.76019 0.24349
 H242 H 0.17217 0.68885 0.22058
 H243 H 0.19386 0.66707 0.27096
 H244 H 0.27306 0.69052 0.34741
 H245 H 0.31048 0.72549 0.34592
 H246 H 0.30497 0.83394 0.22887
 H247 H 0.23046 0.74035 0.25554
 H248 H 0.32672 0.81210 0.27917
 C249 C 0.72419 0.29360 0.66996
 C250 C 0.70611 0.27395 0.66903
 C251 C 0.71174 0.25737 0.69434
 N252 N 0.73270 0.26632 0.71054
 C253 C 0.74040 0.28846 0.69575
 C254 C 0.69696 0.23501 0.70238
 C255 C 0.70197 0.21843 0.72876
 C256 C 0.68525 0.19885 0.73901
 C257 C 0.69657 0.18757 0.76536
 C258 C 0.71995 0.20052 0.77064
 N259 N 0.72328 0.21899 0.74786
 C260 C 0.73720 0.19491 0.79617
 C261 C 0.75904 0.21025 0.80475
 C262 C 0.77528 0.20507 0.83049
 C263 C 0.79333 0.22475 0.83146
 C264 C 0.78765 0.24137 0.80622
 N265 N 0.76669 0.23243 0.79002
 C266 C 0.80239 0.26378 0.79823
 C267 C 0.79737 0.28037 0.77187
 C268 C 0.81407 0.29999 0.76167
 C269 C 0.80278 0.31123 0.73527
 C270 C 0.77944 0.29824 0.72992
 N271 N 0.77610 0.27976 0.75270
 C272 C 0.76224 0.30379 0.70433
 H273 H 0.72533 0.30976 0.65336
 H274 H 0.69050 0.27219 0.65176
 H275 H 0.75947 0.26872 0.75633
 H276 H 0.66662 0.19344 0.72883
 H277 H 0.68829 0.17183 0.77932
 H278 H 0.77419 0.18888 0.84704
 H279 H 0.80896 0.22649 0.84871
 H280 H 0.81105 0.32699 0.72134
 H281 H 0.73994 0.22998 0.74418
 H282 H 0.83267 0.30544 0.77190
 C283 C 0.27480 0.70688 0.66930
 C284 C 0.29437 0.72505 0.67023
 C285 C 0.28916 0.74120 0.69605
 N286 N 0.26708 0.73336 0.71087
 C287 C 0.25822 0.71239 0.69463
 C288 C 0.30444 0.76308 0.70467
 C289 C 0.29878 0.78034 0.73018
 C290 C 0.31186 0.80361 0.73562
 C291 C 0.30042 0.81503 0.76182
 C292 C 0.28060 0.79848 0.77180
 N293 N 0.28008 0.77717 0.75271
 C294 C 0.26372 0.80370 0.79785
 C295 C 0.24125 0.78898 0.80568
 C296 C 0.22431 0.79487 0.83052
 C297 C 0.20477 0.77666 0.82962
 C298 C 0.21035 0.76012 0.80429
 N299 N 0.23263 0.76774 0.78976
 C300 C 0.19532 0.73800 0.79598
 C301 C 0.20123 0.72055 0.77076
 C302 C 0.18861 0.69695 0.76583
 C303 C 0.20003 0.68556 0.73961
 C304 C 0.21937 0.70245 0.72910
 N305 N 0.21964 0.72394 0.74792
 C306 C 0.23596 0.69747 0.70273
 H307 H 0.27312 0.69128 0.65202
 H308 H 0.31052 0.72627 0.65362
 H309 H 0.23033 0.74075 0.74394
 H310 H 0.32778 0.81177 0.72187
 H311 H 0.30586 0.83364 0.77204
 H312 H 0.22576 0.81072 0.84750
 H313 H 0.18841 0.77567 0.84594
 H314 H 0.19486 0.66677 0.72968
 H315 H 0.26885 0.76064 0.75616
 H316 H 0.17299 0.68860 0.77992
 C317 C 0.20554 0.22529 0.83128
 C318 C 0.22360 0.20558 0.83039
 C319 C 0.24005 0.21083 0.80485
 N320 N 0.23251 0.23307 0.79017
 C321 C 0.21141 0.24199 0.80620
 C322 C 0.26199 0.19551 0.79644
 C323 C 0.27942 0.20113 0.77108
 C324 C 0.30286 0.18817 0.76600
 C325 C 0.31433 0.19943 0.73972
 C326 C 0.29765 0.21902 0.72934
 N327 N 0.27621 0.21959 0.74827
 C328 C 0.30280 0.23558 0.70299
 C329 C 0.28809 0.25801 0.69494
 C330 C 0.29382 0.27458 0.66968
 C331 C 0.27579 0.29432 0.67060
 C332 C 0.25950 0.28921 0.69634
 N333 N 0.26711 0.26704 0.71112
 C334 C 0.23766 0.30464 0.70488
 C335 C 0.22030 0.29911 0.73034
 C336 C 0.19699 0.31225 0.73561
 C337 C 0.18549 0.30096 0.76185
 C338 C 0.20203 0.28118 0.77203
 N339 N 0.22341 0.28052 0.75301
 C340 C 0.19677 0.26449 0.79824
 H341 H 0.18978 0.22699 0.84838
 H342 H 0.22456 0.18932 0.84686
 H343 H 0.23997 0.26933 0.75664
 H344 H 0.31106 0.17243 0.78002
 H345 H 0.33304 0.19401 0.72969
 H346 H 0.30948 0.27278 0.65244
 H347 H 0.27474 0.31050 0.65402
 H348 H 0.16685 0.30649 0.77199
 H349 H 0.25954 0.23057 0.74443
 H350 H 0.18887 0.32811 0.72172
 C351 C 0.70618 0.72392 0.66983
 C352 C 0.72589 0.70585 0.66895
 C353 C 0.74256 0.71167 0.69406
 N354 N 0.73363 0.73274 0.71009
 C355 C 0.71141 0.74032 0.69539
 C356 C 0.76502 0.69697 0.70208
 C357 C 0.78166 0.70213 0.72832
 C358 C 0.80134 0.68550 0.73858
 C359 C 0.81263 0.69693 0.76482
 C360 C 0.79961 0.72030 0.77001
 N361 N 0.78108 0.72351 0.74729
 C362 C 0.80521 0.73765 0.79542
 C363 C 0.78984 0.75953 0.80389
 C364 C 0.79500 0.77587 0.82953
 C365 C 0.77530 0.79394 0.83040
 C366 C 0.75868 0.78819 0.80521
 N367 N 0.76765 0.76716 0.78913
 C368 C 0.73626 0.80292 0.79714
 C369 C 0.71966 0.79778 0.77086
 C370 C 0.70005 0.81446 0.76053
 C371 C 0.68875 0.80302 0.73430
 C372 C 0.70170 0.77961 0.72917
 N373 N 0.72021 0.77638 0.75192
 C374 C 0.69607 0.76223 0.70382
 H375 H 0.68994 0.72492 0.65335
 H376 H 0.72760 0.69012 0.65184
 H377 H 0.73122 0.75973 0.75572
 H378 H 0.80679 0.66683 0.72849
 H379 H 0.82843 0.68873 0.77875
 H380 H 0.81120 0.77483 0.84606
 H381 H 0.77354 0.80963 0.84756
 H382 H 0.67298 0.81124 0.72032
 H383 H 0.77000 0.74012 0.74357
 H384 H 0.69463 0.83315 0.77058
 C385 C 0.27992 0.09379 0.10543
 C386 C 0.27689 0.08526 0.14040
 C387 C 0.27415 0.10559 0.16114
 C388 C 0.27472 0.13243 0.14485
 C389 C 0.25328 0.13124 0.11932
 C390 C 0.25601 0.11096 0.09863
 C391 C 0.30320 0.11263 0.10532
 C392 C 0.30047 0.13296 0.12607
 C393 C 0.28243 0.07206 0.08282
 C394 C 0.28360 0.05454 0.06366
 C395 C 0.27133 0.15444 0.16683
 C396 C 0.26758 0.17285 0.18416
 H397 H 0.27694 0.06506 0.14818
 H398 H 0.27187 0.10281 0.18670
 H399 H 0.23733 0.14514 0.11764
 H400 H 0.24239 0.10750 0.07923
 H401 H 0.32034 0.11020 0.09034
 H402 H 0.31525 0.14794 0.12887
 C403 C 0.78268 0.59404 0.60569
 C404 C 0.78586 0.58667 0.64103
 C405 C 0.78320 0.60731 0.66134
 C406 C 0.77764 0.63324 0.64426
 C407 C 0.75332 0.62807 0.62387
 C408 C 0.75597 0.60749 0.60362
 C409 C 0.80267 0.61583 0.59988
 C410 C 0.80001 0.63646 0.62017
 C411 C 0.78509 0.57202 0.58352
 C412 C 0.78613 0.55432 0.56462
 C413 C 0.77431 0.65557 0.66573
 C414 C 0.77059 0.67424 0.68263
 H415 H 0.78989 0.56702 0.64936
 H416 H 0.78496 0.60535 0.68707
 H417 H 0.73555 0.63958 0.62521
 H418 H 0.74046 0.60137 0.58763
 H419 H 0.81761 0.61511 0.58151
 H420 H 0.81268 0.65340 0.61919
 C421 C 0.71904 0.90609 0.10567
 C422 C 0.73023 0.91401 0.13826
 C423 C 0.73315 0.89361 0.15887
 C424 C 0.72458 0.86731 0.14486
 C425 C 0.74034 0.86435 0.11390
 C426 C 0.73743 0.88470 0.09333
 C427 C 0.69336 0.89197 0.11333
 C428 C 0.69628 0.87156 0.13397
 C429 C 0.71636 0.92789 0.08319
 C430 C 0.71511 0.94546 0.06410
 C431 C 0.72816 0.84523 0.16669
 C432 C 0.73206 0.82678 0.18392
 H433 H 0.73536 0.93388 0.14461
 H434 H 0.74076 0.89602 0.18288
 H435 H 0.75272 0.84770 0.10859
 H436 H 0.74732 0.88547 0.07039
 H437 H 0.67457 0.89754 0.10349
 H438 H 0.67998 0.85964 0.14180
 C439 C 0.21960 0.40648 0.60672
 C440 C 0.23072 0.41439 0.63935
 C441 C 0.23353 0.39400 0.65999
 C442 C 0.22494 0.36772 0.64596
 C443 C 0.24077 0.36470 0.61506
 C444 C 0.23797 0.38505 0.59447
 C445 C 0.19386 0.39243 0.61429
 C446 C 0.19667 0.37202 0.63495
 C447 C 0.21699 0.42826 0.58421
 C448 C 0.21573 0.44580 0.56509
 C449 C 0.22839 0.34564 0.66781
 C450 C 0.23214 0.32716 0.68503
 H451 H 0.23588 0.43426 0.64570
 H452 H 0.24109 0.39640 0.68402
 H453 H 0.25312 0.34801 0.60981
 H454 H 0.24792 0.38578 0.57157
 H455 H 0.17511 0.39803 0.60437
 H456 H 0.18033 0.36015 0.64274
 C457 C 0.90606 0.28190 0.10535
 C458 C 0.88483 0.30275 0.10093
 C459 C 0.86422 0.29997 0.12128
 C460 C 0.86689 0.27661 0.14402
 C461 C 0.89307 0.28069 0.16111
 C462 C 0.91370 0.28347 0.14076
 C463 C 0.89180 0.25574 0.10189
 C464 C 0.87124 0.25297 0.12219
 C465 C 0.92806 0.28445 0.08311
 C466 C 0.94573 0.28564 0.06413
 C467 C 0.84456 0.27318 0.16554
 C468 C 0.82591 0.26945 0.18250
 H469 H 0.88591 0.31835 0.08344
 H470 H 0.84766 0.31319 0.12122
 H471 H 0.89522 0.28139 0.18689
 H472 H 0.93351 0.28654 0.14910
 H473 H 0.89738 0.24068 0.08497
 H474 H 0.85921 0.23554 0.12265
 C475 C 0.40620 0.78123 0.60641
 C476 C 0.39088 0.80659 0.61199
 C477 C 0.37049 0.80383 0.63270
 C478 C 0.36748 0.77599 0.64573
 C479 C 0.39407 0.76931 0.66053
 C480 C 0.41444 0.77207 0.63984
 C481 C 0.38574 0.76134 0.59539
 C482 C 0.36542 0.75859 0.61604
 C483 C 0.42796 0.78375 0.58384
 C484 C 0.44549 0.78491 0.56469
 C485 C 0.34541 0.77255 0.66763
 C486 C 0.32695 0.76875 0.68486
 H487 H 0.39564 0.82507 0.60074
 H488 H 0.35779 0.81994 0.63920
 H489 H 0.39667 0.76305 0.68510
 H490 H 0.43450 0.76817 0.64668
 H491 H 0.38710 0.75037 0.57327
 H492 H 0.34936 0.74526 0.61159
 C493 C 0.09380 0.71929 0.10512
 C494 C 0.08525 0.72340 0.13991
 C495 C 0.10558 0.72624 0.16062
 C496 C 0.13245 0.72468 0.14448
 C497 C 0.13174 0.74546 0.11811
 C498 C 0.11146 0.74263 0.09745
 C499 C 0.11220 0.69563 0.10603
 C500 C 0.13254 0.69847 0.12674
 C501 C 0.07207 0.71670 0.08254
 C502 C 0.05454 0.71554 0.06339
 C503 C 0.15447 0.72819 0.16642
 C504 C 0.17286 0.73204 0.18373
 H505 H 0.06501 0.72398 0.14761
 H506 H 0.10278 0.72925 0.18606
 H507 H 0.14595 0.76106 0.11584
 H508 H 0.10830 0.75580 0.07750
 H509 H 0.10947 0.67819 0.09172
 H510 H 0.14724 0.68346 0.13019
 C511 C 0.59423 0.21726 0.60568
 C512 C 0.58684 0.21397 0.64100
 C513 C 0.60745 0.21667 0.66135
 C514 C 0.63337 0.22241 0.64432
 C515 C 0.62805 0.24674 0.62398
 C516 C 0.60750 0.24404 0.60369
 C517 C 0.61618 0.19742 0.59986
 C518 C 0.63678 0.20012 0.62019
 C519 C 0.57223 0.21478 0.58348
 C520 C 0.55454 0.21362 0.56457
 C521 C 0.65566 0.22576 0.66585
 C522 C 0.67428 0.22948 0.68282
 H523 H 0.56719 0.20983 0.64929
 H524 H 0.60547 0.21485 0.68707
 H525 H 0.63944 0.26455 0.62539
 H526 H 0.60129 0.25955 0.58772
 H527 H 0.61559 0.18252 0.58145
 H528 H 0.65382 0.18755 0.61920
 C529 C 0.71895 0.09307 0.89431
 C530 C 0.69334 0.10765 0.88753
 C531 C 0.69615 0.12807 0.86689
 C532 C 0.72428 0.13186 0.85511
 C533 C 0.73216 0.10546 0.84073
 C534 C 0.72935 0.08506 0.86135
 C535 C 0.73791 0.11410 0.90615
 C536 C 0.74071 0.13446 0.88557
 C537 C 0.71637 0.07127 0.91681
 C538 C 0.71520 0.05369 0.93590
 C539 C 0.72775 0.15395 0.83326
 C540 C 0.73156 0.17242 0.81603
 H541 H 0.67467 0.10239 0.89796
 H542 H 0.67989 0.14029 0.85962
 H543 H 0.73926 0.10299 0.81648
 H544 H 0.73405 0.06511 0.85476
 H545 H 0.74824 0.11310 0.92875
 H546 H 0.75344 0.15089 0.89055
 C547 C 0.21840 0.59452 0.39415
 C548 C 0.21959 0.58650 0.35884
 C549 C 0.22216 0.60708 0.33841
 C550 C 0.22327 0.63362 0.35533
 C551 C 0.24574 0.63118 0.37936
 C552 C 0.24318 0.61066 0.39974
 C553 C 0.19586 0.61421 0.39622
 C554 C 0.19842 0.63479 0.37579
 C555 C 0.21607 0.57256 0.41644
 C556 C 0.21504 0.55491 0.43543
 C557 C 0.22649 0.65590 0.33373
 C558 C 0.23011 0.67455 0.31674
 H559 H 0.21847 0.56645 0.35062
 H560 H 0.22323 0.60467 0.31268
 H561 H 0.26225 0.64443 0.38029
 H562 H 0.25749 0.60634 0.41812
 H563 H 0.17932 0.61215 0.41225
 H564 H 0.18409 0.65035 0.37432
 C565 C 0.28077 0.90669 0.89435
 C566 C 0.29343 0.88149 0.90673
 C567 C 0.29086 0.86088 0.88643
 C568 C 0.27587 0.86749 0.85574
 C569 C 0.29055 0.89070 0.84107
 C570 C 0.29312 0.91135 0.86140
 C571 C 0.25230 0.89936 0.88740
 C572 C 0.24973 0.87878 0.86714
 C573 C 0.28312 0.92870 0.91655
 C574 C 0.28418 0.94638 0.93548
 C575 C 0.27266 0.84515 0.83424
 C576 C 0.26908 0.82647 0.81732
 H577 H 0.30358 0.87998 0.92941
 H578 H 0.29880 0.84172 0.89173
 H579 H 0.29824 0.89089 0.81690
 H580 H 0.30303 0.92923 0.85465
 H581 H 0.23560 0.90947 0.89752
 H582 H 0.23083 0.87125 0.85990
 C583 C 0.78121 0.40587 0.39365
 C584 C 0.76989 0.41384 0.36113
 C585 C 0.76701 0.39348 0.34049
 C586 C 0.77573 0.36717 0.35443
 C587 C 0.76006 0.36411 0.38545
 C588 C 0.76294 0.38442 0.40604
 C589 C 0.80693 0.39183 0.38586
 C590 C 0.80404 0.37146 0.36521
 C591 C 0.78388 0.42761 0.41615
 C592 C 0.78518 0.44514 0.43525
 C593 C 0.77218 0.34513 0.33259
 C594 C 0.76832 0.32670 0.31537
 H595 H 0.76467 0.43371 0.35483
 H596 H 0.75932 0.39592 0.31652
 H597 H 0.74778 0.34741 0.39078
 H598 H 0.75312 0.38512 0.42901
 H599 H 0.82573 0.39742 0.39564
 H600 H 0.82036 0.35959 0.35728
 C601 C 0.09382 0.28243 0.89485
 C602 C 0.08589 0.28146 0.85950
 C603 C 0.10651 0.27873 0.83915
 C604 C 0.13301 0.27724 0.85617
 C605 C 0.13028 0.25473 0.88010
 C606 C 0.10971 0.25745 0.90040
 C607 C 0.11373 0.30472 0.89709
 C608 C 0.13435 0.30199 0.87674
 C609 C 0.07180 0.28492 0.91708
 C610 C 0.05410 0.28606 0.93602
 C611 C 0.15534 0.27384 0.83464
 C612 C 0.17402 0.27008 0.81771
 H613 H 0.06587 0.28285 0.85120
 H614 H 0.10417 0.27779 0.81341
 H615 H 0.14338 0.23807 0.88103
 H616 H 0.10520 0.24313 0.91870
 H617 H 0.11178 0.32121 0.91317
 H618 H 0.15006 0.31614 0.87539
 C619 C 0.59437 0.78136 0.39390
 C620 C 0.58647 0.78092 0.35853
 C621 C 0.60710 0.77827 0.33817
 C622 C 0.63356 0.77632 0.35522
 C623 C 0.63059 0.75353 0.37870
 C624 C 0.61002 0.75617 0.39901
 C625 C 0.61447 0.80344 0.39662
 C626 C 0.63509 0.80079 0.37627
 C627 C 0.57236 0.78379 0.41613
 C628 C 0.55467 0.78492 0.43507
 C629 C 0.65589 0.77303 0.33369
 C630 C 0.67456 0.76936 0.31676
 H631 H 0.56648 0.78261 0.35021
 H632 H 0.60479 0.77769 0.31240
 H633 H 0.64354 0.73675 0.37933
 H634 H 0.60536 0.74166 0.41702
 H635 H 0.61265 0.81974 0.41302
 H636 H 0.65093 0.81482 0.37522
 C637 C 0.90709 0.71943 0.89350
 C638 C 0.91536 0.72783 0.85977
 C639 C 0.89495 0.73065 0.83916
 C640 C 0.86830 0.72480 0.85432
 C641 C 0.86670 0.74276 0.88356
 C642 C 0.88706 0.73994 0.90413
 C643 C 0.89127 0.69432 0.88869
 C644 C 0.87085 0.69714 0.86807
 C645 C 0.92890 0.71683 0.91597
 C646 C 0.94647 0.71560 0.93506
 C647 C 0.84620 0.72828 0.83249
 C648 C 0.82772 0.73207 0.81528
 H649 H 0.93546 0.73120 0.85267
 H650 H 0.89757 0.73643 0.81441
 H651 H 0.85092 0.75650 0.88777
 H652 H 0.88872 0.75128 0.92593
 H653 H 0.89573 0.67594 0.90039
 H654 H 0.85782 0.68119 0.86209
 C655 C 0.40552 0.21729 0.39420
 C656 C 0.41313 0.21518 0.35880
 C657 C 0.39252 0.21790 0.33844
 C658 C 0.36638 0.22245 0.35552
 C659 C 0.37092 0.24633 0.37688
 C660 C 0.39147 0.24362 0.39718
 C661 C 0.38413 0.19671 0.39906
 C662 C 0.36354 0.19942 0.37871
 C663 C 0.42750 0.21479 0.41642
 C664 C 0.44516 0.21363 0.43537
 C665 C 0.34408 0.22583 0.33400
 C666 C 0.32543 0.22960 0.31708
 H667 H 0.43292 0.21181 0.35048
 H668 H 0.39464 0.21685 0.31268
 H669 H 0.35903 0.26387 0.37611
 H670 H 0.39717 0.25884 0.41379
 H671 H 0.38510 0.18132 0.41686
 H672 H 0.34687 0.18637 0.37907
 C673 C 0.71835 0.90576 0.89362
 C674 C 0.73992 0.88660 0.90346
 C675 C 0.74264 0.86604 0.88318
 C676 C 0.72353 0.86660 0.85500
 C677 C 0.72788 0.89318 0.83895
 C678 C 0.72516 0.91379 0.85927
 C679 C 0.69362 0.88905 0.89062
 C680 C 0.69634 0.86844 0.87029
 C681 C 0.71587 0.92776 0.91580
 C682 C 0.71477 0.94544 0.93472
 C683 C 0.72692 0.84429 0.83351
 C684 C 0.73068 0.82564 0.81660
 H685 H 0.75202 0.88896 0.92454
 H686 H 0.75707 0.85081 0.88690
 H687 H 0.73262 0.89561 0.81384
 H688 H 0.72757 0.93387 0.85158
 H689 H 0.67556 0.89308 0.90328
 H690 H 0.68062 0.85480 0.86553
 C691 C 0.21952 0.40618 0.39408
 C692 C 0.22437 0.41459 0.35937
 C693 C 0.22717 0.39417 0.33877
 C694 C 0.22484 0.36738 0.35492
 C695 C 0.19833 0.36786 0.37204
 C696 C 0.19553 0.38828 0.39264
 C697 C 0.24241 0.38807 0.40233
 C698 C 0.24520 0.36770 0.38178
 C699 C 0.21693 0.42800 0.41653
 C700 C 0.21568 0.44560 0.43557
 C701 C 0.22830 0.34528 0.33309
 C702 C 0.23206 0.32682 0.31584
 H703 H 0.22545 0.43478 0.35165
 H704 H 0.23065 0.39687 0.31340
 H705 H 0.18310 0.35348 0.36826
 H706 H 0.17790 0.39139 0.40653
 H707 H 0.25530 0.39098 0.42258
 H708 H 0.26049 0.35318 0.38443
 C709 C 0.27994 0.09382 0.89486
 C710 C 0.25712 0.11202 0.90309
 C711 C 0.25438 0.13234 0.88244
 C712 C 0.27471 0.13253 0.85553
 C713 C 0.27227 0.10570 0.83952
 C714 C 0.27502 0.08533 0.86021
 C715 C 0.30399 0.11163 0.89326
 C716 C 0.30124 0.13200 0.87256
 C717 C 0.28246 0.07207 0.91742
 C718 C 0.28364 0.05454 0.93657
 C719 C 0.27131 0.15458 0.83361
 C720 C 0.26756 0.17302 0.81634
 H721 H 0.24423 0.10921 0.92339
 H722 H 0.23913 0.14692 0.88507
 H723 H 0.26876 0.10295 0.81417
 H724 H 0.27386 0.06512 0.85260
 H725 H 0.32162 0.10849 0.90711
 H726 H 0.31651 0.14631 0.86866
 C727 C 0.78182 0.59363 0.39368
 C728 C 0.77774 0.58522 0.35884
 C729 C 0.77483 0.60564 0.33824
 C730 C 0.77628 0.63243 0.35452
 C731 C 0.80250 0.63248 0.37225
 C732 C 0.80542 0.61207 0.39286
 C733 C 0.75840 0.61120 0.40144
 C734 C 0.75549 0.63156 0.38089
 C735 C 0.78450 0.57182 0.41615
 C736 C 0.78573 0.55425 0.43524
 C737 C 0.77269 0.65452 0.33270
 C738 C 0.76879 0.67296 0.31547
 H739 H 0.77724 0.56504 0.35104
 H740 H 0.77183 0.60294 0.31279
 H741 H 0.81747 0.64721 0.36887
 H742 H 0.82289 0.60930 0.40715
 H743 H 0.74523 0.60793 0.42137
 H744 H 0.73983 0.64573 0.38323
 C745 C 0.09377 0.71953 0.89449
 C746 C 0.08521 0.72388 0.85975
 C747 C 0.10555 0.72671 0.83901
 C748 C 0.13241 0.72490 0.85508
 C749 C 0.13236 0.69859 0.87263
 C750 C 0.11202 0.69576 0.89337
 C751 C 0.11156 0.74272 0.90228
 C752 C 0.13185 0.74554 0.88160
 C753 C 0.07205 0.71694 0.91710
 C754 C 0.05454 0.71574 0.93629
 C755 C 0.15443 0.72840 0.83313
 C756 C 0.17286 0.73227 0.81586
 H757 H 0.06497 0.72462 0.85211
 H758 H 0.10274 0.72985 0.81360
 H759 H 0.14695 0.68350 0.86902
 H760 H 0.10918 0.67826 0.90756
 H761 H 0.10850 0.75580 0.92234
 H762 H 0.14616 0.76103 0.88393
 C763 C 0.59424 0.21760 0.39416
 C764 C 0.58684 0.21474 0.35880
 C765 C 0.60747 0.21756 0.33846
 C766 C 0.63343 0.22296 0.35553
 C767 C 0.63669 0.20038 0.37931
 C768 C 0.61608 0.19756 0.39963
 C769 C 0.60766 0.24427 0.39654
 C770 C 0.62823 0.24708 0.37626
 C771 C 0.57223 0.21499 0.41638
 C772 C 0.55454 0.21376 0.43532
 C773 C 0.65575 0.22642 0.33402
 C774 C 0.67441 0.23018 0.31707
 H775 H 0.56717 0.21080 0.35047
 H776 H 0.60548 0.21604 0.31272
 H777 H 0.65366 0.18770 0.38007
 H778 H 0.61539 0.18246 0.41780
 H779 H 0.60153 0.25964 0.41274
 H780 H 0.63971 0.26486 0.37511
 C781 C 0.90498 0.28194 0.89504
 C782 C 0.91252 0.28442 0.85966
 C783 C 0.89193 0.28161 0.83931
 C784 C 0.86588 0.27660 0.85638
 C785 C 0.86273 0.29941 0.87982
 C786 C 0.88331 0.30222 0.90016
 C787 C 0.89131 0.25541 0.89777
 C788 C 0.87078 0.25261 0.87747
 C789 C 0.92696 0.28453 0.91724
 C790 C 0.94464 0.28575 0.93615
 C791 C 0.84361 0.27314 0.83484
 C792 C 0.82502 0.26936 0.81784
 H793 H 0.93225 0.28810 0.85134
 H794 H 0.89401 0.28289 0.81355
 H795 H 0.84587 0.31225 0.88035
 H796 H 0.88407 0.31747 0.91812
 H797 H 0.89724 0.24014 0.91422
 H798 H 0.85913 0.23494 0.87655
 C799 C 0.40588 0.78124 0.39361
 C800 C 0.41426 0.77437 0.35941
 C801 C 0.39386 0.77154 0.33882
 C802 C 0.36709 0.77586 0.35446
 C803 C 0.36865 0.80308 0.36964
 C804 C 0.38907 0.80591 0.39025
 C805 C 0.38671 0.75965 0.40329
 C806 C 0.36635 0.75683 0.38273
 C807 C 0.42770 0.78384 0.41607
 C808 C 0.44529 0.78502 0.43512
 C809 C 0.34500 0.77236 0.33263
 C810 C 0.32655 0.76853 0.31540
 H811 H 0.43444 0.77200 0.35201
 H812 H 0.39655 0.76675 0.31378
 H813 H 0.35497 0.81874 0.36460
 H814 H 0.39288 0.82400 0.40288
 H815 H 0.38893 0.74762 0.42447
 H816 H 0.35115 0.74238 0.38632
 C817 C 0.28081 0.90655 0.10576
 C818 C 0.28445 0.91379 0.14107
 C819 C 0.28188 0.89311 0.16136
 C820 C 0.27594 0.86728 0.14432
 C821 C 0.29800 0.86393 0.11984
 C822 C 0.30057 0.88458 0.09956
 C823 C 0.25398 0.89334 0.10412
 C824 C 0.25142 0.87273 0.12436
 C825 C 0.28315 0.92860 0.08360
 C826 C 0.28420 0.94632 0.06471
 C827 C 0.27273 0.84491 0.16578
 C828 C 0.26912 0.82621 0.18268
 H829 H 0.28870 0.93338 0.14938
 H830 H 0.28394 0.89499 0.18707
 H831 H 0.31054 0.84687 0.11859
 H832 H 0.31530 0.88522 0.08092
 H833 H 0.23833 0.89965 0.08842
 H834 H 0.23359 0.86138 0.12599
 C835 C 0.78116 0.40557 0.60625
 C836 C 0.77642 0.41398 0.64097
 C837 C 0.77344 0.39357 0.66155
 C838 C 0.77549 0.36677 0.64537
 C839 C 0.80199 0.36697 0.62822
 C840 C 0.80498 0.38739 0.60763
 C841 C 0.75809 0.38774 0.59801
 C842 C 0.75512 0.36738 0.61855
 C843 C 0.78393 0.42739 0.58381
 C844 C 0.78527 0.44498 0.56476
 C845 C 0.77185 0.34468 0.66718
 C846 C 0.76794 0.32624 0.68442
 H847 H 0.77555 0.43417 0.64872
 H848 H 0.77001 0.39627 0.68693
 H849 H 0.81709 0.35241 0.63196
 H850 H 0.82262 0.39032 0.59372
 H851 H 0.74520 0.39084 0.57779
 H852 H 0.73968 0.35304 0.61590
 C853 C 0.71922 0.09381 0.10582
 C854 C 0.73112 0.08594 0.13807
 C855 C 0.73396 0.10629 0.15873
 C856 C 0.72463 0.13249 0.14509
 C857 C 0.69624 0.12778 0.13488
 C858 C 0.69339 0.10741 0.11420
 C859 C 0.73697 0.11558 0.09315
 C860 C 0.73981 0.13588 0.11376
 C861 C 0.71660 0.07207 0.08329
 C862 C 0.71535 0.05456 0.06417
 C863 C 0.72814 0.15452 0.16695
 C864 C 0.73198 0.17294 0.18417
 H865 H 0.73675 0.06613 0.14418
 H866 H 0.74201 0.10391 0.18253
 H867 H 0.67984 0.13936 0.14320
 H868 H 0.67455 0.10155 0.10479
 H869 H 0.74648 0.11510 0.06997
 H870 H 0.75175 0.15279 0.10824
 C871 C 0.21868 0.59463 0.60602
 C872 C 0.22135 0.58654 0.64120
 C873 C 0.22398 0.60713 0.66157
 C874 C 0.22367 0.63376 0.64474
 C875 C 0.19811 0.63419 0.62563
 C876 C 0.19548 0.61361 0.60526
 C877 C 0.24273 0.61157 0.59920
 C878 C 0.24535 0.63210 0.61952
 C879 C 0.21628 0.57266 0.58377
 C880 C 0.21519 0.55501 0.56480
 C881 C 0.22694 0.65606 0.66629
 C882 C 0.23056 0.67471 0.68324
 H883 H 0.22115 0.56645 0.64938
 H884 H 0.22601 0.60468 0.68720
 H885 H 0.18335 0.64929 0.62796
 H886 H 0.17848 0.61107 0.59013
 H887 H 0.25652 0.60775 0.58006
 H888 H 0.26138 0.64586 0.61777
 C889 C 0.90654 0.71853 0.10554
 C890 C 0.89300 0.74519 0.10344
 C891 C 0.87240 0.74778 0.12372
 C892 C 0.86730 0.72347 0.14417
 C893 C 0.89326 0.71799 0.16122
 C894 C 0.91392 0.71539 0.14088
 C895 C 0.88479 0.69849 0.09982
 C896 C 0.86415 0.70109 0.12014
 C897 C 0.92857 0.71617 0.08335
 C898 C 0.94628 0.71513 0.06444
 C899 C 0.84495 0.72672 0.16567
 C900 C 0.82626 0.73036 0.18259
 H901 H 0.89907 0.76070 0.08741
 H902 H 0.86083 0.76551 0.12505
 H903 H 0.89523 0.71626 0.18695
 H904 H 0.93360 0.71143 0.14919
 H905 H 0.88556 0.68354 0.08147
 H906 H 0.84723 0.68837 0.11921
 C907 C 0.40549 0.21739 0.60604
 C908 C 0.39205 0.24409 0.60381
 C909 C 0.37153 0.24687 0.62418
 C910 C 0.36641 0.22269 0.64486
 C911 C 0.39242 0.21719 0.66180
 C912 C 0.41299 0.21441 0.64136
 C913 C 0.38364 0.19741 0.60059
 C914 C 0.36309 0.20019 0.62101
 C915 C 0.42745 0.21483 0.58373
 C916 C 0.44511 0.21364 0.56474
 C917 C 0.34414 0.22614 0.66647
 C918 C 0.32551 0.22994 0.68346
 H919 H 0.39812 0.25949 0.58763
 H920 H 0.36005 0.26465 0.62544
 H921 H 0.39448 0.21558 0.68753
 H922 H 0.43268 0.21041 0.64959
 H923 H 0.38429 0.18236 0.58237
 H924 H 0.34612 0.18753 0.62028
 C925 C 0.09380 0.28231 0.10631
 C926 C 0.10696 0.25545 0.10447
 C927 C 0.12756 0.25272 0.12469
 C928 C 0.13304 0.27711 0.14482
 C929 C 0.10719 0.28306 0.16192
 C930 C 0.08653 0.28580 0.14165
 C931 C 0.11581 0.30201 0.10025
 C932 C 0.13645 0.29927 0.12051
 C933 C 0.07177 0.28482 0.08417
 C934 C 0.05407 0.28598 0.06528
 C935 C 0.15539 0.27371 0.16625
 C936 C 0.17408 0.26994 0.18312
 H937 H 0.10064 0.23991 0.08867
 H938 H 0.13888 0.23484 0.12619
 H939 H 0.10529 0.28500 0.18764
 H940 H 0.06692 0.29008 0.14999
 H941 H 0.11521 0.31683 0.08173
 H942 H 0.15353 0.31175 0.11935
 C943 C 0.59410 0.78057 0.60590
 C944 C 0.58611 0.77006 0.63883
 C945 C 0.60654 0.76719 0.65940
 C946 C 0.63293 0.77512 0.64500
 C947 C 0.62907 0.80327 0.63338
 C948 C 0.60863 0.80614 0.61280
 C949 C 0.61518 0.76166 0.59393
 C950 C 0.63556 0.75880 0.61445
 C951 C 0.57227 0.78323 0.58347
 C952 C 0.55467 0.78452 0.56442
 C953 C 0.65506 0.77160 0.66679
 C954 C 0.67354 0.76780 0.68398
 H955 H 0.56617 0.76533 0.64544
 H956 H 0.60410 0.76001 0.68362
 H957 H 0.64126 0.81951 0.64071
 H958 H 0.60331 0.82484 0.60248
 H959 H 0.61419 0.75141 0.57128
 H960 H 0.65202 0.74610 0.60938
   
