data_POSCAR
  _audit_creation_date              2014-09-24
  _audit_creation_method            'ToBaCCo'
  _symmetry_space_group_name_H-M    'P1'
  _symmetry_Int_Tables_number       1
  _symmetry_cell_setting            triclinic
  loop_
  _symmetry_equiv_pos_as_xyz
 x,y,z
_cell_length_a 48.6666
_cell_length_b 49.3203
_cell_length_c 47.5785
_cell_angle_alpha 91.121400
_cell_angle_beta 89.647700
_cell_angle_gamma 89.275600
loop_
  _atom_site_label
  _atom_site_type_symbol
  _atom_site_fract_x
  _atom_site_fract_y
  _atom_site_fract_z
C1 C 0.76358 0.60938 1.00216
 C2 C 0.73352 0.36511 0.51467
 C3 C 0.26193 -0.11851 -0.01147
 C4 C 0.24195 0.12371 0.49927
 C5 C 0.10818 0.50396 0.26619
 C6 C -0.10554 0.00507 0.22403
 C7 C 0.38460 0.50859 0.75382
 C8 C 0.62606 0.98916 0.73933
 C9 C 0.00496 0.25532 -0.10391
 C10 C 0.48899 0.24285 0.12405
 C11 C 0.98391 0.75635 0.61825
 C12 C 0.50059 0.73792 0.37701
 C13 C 0.43516 -0.03469 0.27404
 H14 H 0.44617 -0.01848 0.26419
 C15 C 0.44966 -0.05492 0.28814
 H16 H 0.47188 -0.05432 0.28897
 C17 C 0.39282 -0.05518 0.28547
 H18 H 0.37061 -0.05491 0.28454
 C19 C 0.40645 -0.07595 0.29933
 H20 H 0.39455 -0.09151 0.30930
 N21 N 0.40727 -0.03550 0.27259
 C22 C 0.40678 0.04398 0.25098
 H23 H 0.39303 0.04818 0.26845
 C24 C 0.42192 0.06506 0.23980
 H25 H 0.41992 0.08492 0.24961
 C26 C 0.42613 0.01278 0.21771
 H27 H 0.42740 -0.00767 0.20911
 C28 C 0.44150 0.03337 0.20566
 H29 H 0.45464 0.02863 0.18773
 Zn30 Zn 0.38631 -0.00916 0.25367
 N31 N 0.40897 0.01848 0.23976
 C32 C 0.37202 0.01240 0.30583
 N33 N 0.36120 0.00588 0.28038
 C34 C 0.33410 0.01008 0.27499
 C35 C 0.31689 0.02195 0.29556
 C36 C 0.35559 0.02393 0.32706
 C37 C 0.37166 -0.05278 0.21781
 C38 C 0.35897 -0.06550 0.19506
 C39 C 0.33943 -0.02227 0.18220
 C40 C 0.35250 -0.01038 0.20540
 N41 N 0.36798 -0.02575 0.22284
 H42 H 0.39369 0.00890 0.30950
 H43 H 0.32578 0.00450 0.25474
 H44 H 0.29542 0.02542 0.29073
 H45 H 0.36547 0.02941 0.34657
 H46 H 0.38477 -0.06464 0.23116
 H47 H 0.36229 -0.08709 0.19167
 H48 H 0.32724 -0.00931 0.16901
 H49 H 0.35043 0.01122 0.20943
 C50 C 0.43908 0.06004 0.21633
 C51 C 0.43525 -0.07616 0.30037
 C52 C 0.34257 -0.05037 0.17675
 C53 C 0.32746 0.02897 0.32215
 C54 C 0.05732 1.03481 0.76626
 H55 H 0.04649 1.02032 0.75326
 C56 C 0.04333 1.05759 0.77737
 H57 H 0.02168 1.06040 0.77298
 C58 C 0.09882 1.04948 0.78706
 H59 H 0.12063 1.04651 0.79021
 C60 C 0.08567 1.07235 0.79864
 H61 H 0.09750 1.08612 0.81155
 N62 N 0.08475 1.03157 0.77068
 C63 C 0.06851 0.98399 0.71149
 H64 H 0.06921 1.00433 0.70344
 C65 C 0.05368 0.96399 0.69722
 H66 H 0.04281 0.96914 0.67821
 C67 C 0.08282 0.95230 0.74539
 H68 H 0.09459 0.94775 0.76393
 C69 C 0.06827 0.93171 0.73182
 H70 H 0.06952 0.91149 0.74010
 Zn71 Zn 0.10579 1.00418 0.75152
 N72 N 0.08290 0.97776 0.73495
 C73 C 0.15103 0.97110 0.76766
 N74 N 0.12983 0.98701 0.77729
 C75 C 0.12458 0.98985 0.80529
 C76 C 0.14151 0.97736 0.82487
 C77 C 0.16831 0.95787 0.78649
 C78 C 0.12567 1.04843 0.72105
 C79 C 0.13845 1.06144 0.69894
 C80 C 0.15141 1.01770 0.67905
 C81 C 0.13839 1.00548 0.70178
 N82 N 0.12591 1.02091 0.72229
 H83 H 0.15449 0.96847 0.74534
 H84 H 0.10685 1.00141 0.81260
 H85 H 0.13609 0.97989 0.84680
 H86 H 0.18507 0.94533 0.77828
 H87 H 0.11511 1.06060 0.73682
 H88 H 0.13768 1.08341 0.69856
 H89 H 0.16078 1.00469 0.66308
 H90 H 0.13751 0.98362 0.70256
 C91 C 0.05357 0.93741 0.70722
 C92 C 0.05774 1.07714 0.79300
 C93 C 0.15139 1.04622 0.67733
 C94 C 0.16401 0.96118 0.81561
 C95 C 0.59007 0.50913 0.28749
 H96 H 0.58974 0.48873 0.29543
 C97 C 0.57470 0.52965 0.30093
 H98 H 0.56241 0.52489 0.31920
 C99 C 0.60745 0.54023 0.25467
 H100 H 0.62082 0.54433 0.23708
 C101 C 0.59234 0.56143 0.26747
 H102 H 0.59454 0.58166 0.25951
 N103 N 0.60609 0.51474 0.26491
 C104 C 0.61938 0.43580 0.22426
 H105 H 0.64154 0.43403 0.22512
 C106 C 0.60408 0.41506 0.21185
 H107 H 0.61473 0.39749 0.20295
 C108 C 0.57885 0.46163 0.23367
 H109 H 0.56913 0.48001 0.24175
 C110 C 0.56280 0.44156 0.22113
 H111 H 0.54075 0.44452 0.21992
 Zn112 Zn 0.62855 0.48612 0.25077
 N113 N 0.60658 0.45833 0.23520
 C114 C 0.64499 0.44775 0.29111
 N115 N 0.64875 0.47333 0.28186
 C116 C 0.66465 0.49118 0.29633
 C117 C 0.67769 0.48347 0.32105
 C118 C 0.65728 0.43928 0.31592
 C119 C 0.63959 0.50401 0.19689
 C120 C 0.65508 0.51314 0.17426
 C121 C 0.69551 0.51107 0.20339
 C122 C 0.67930 0.50136 0.22524
 N123 N 0.65179 0.49845 0.22178
 H124 H 0.63176 0.43402 0.27977
 H125 H 0.66668 0.51169 0.28900
 H126 H 0.69004 0.49817 0.33232
 H127 H 0.65385 0.41869 0.32221
 H128 H 0.61765 0.50145 0.19471
 H129 H 0.64439 0.51793 0.15512
 H130 H 0.71733 0.51368 0.20679
 H131 H 0.68878 0.49637 0.24495
 C132 C 0.57536 0.41781 0.21034
 C133 C 0.57580 0.55622 0.29108
 C134 C 0.68356 0.51700 0.17736
 C135 C 0.67360 0.45743 0.33166
 C136 C 0.93864 0.47358 0.78019
 H137 H 0.93906 0.49415 0.78850
 C138 C 0.95430 0.45328 0.79285
 H139 H 0.96706 0.45837 0.81072
 C140 C 0.92048 0.44158 0.74771
 H141 H 0.90681 0.43691 0.73054
 C142 C 0.93540 0.42065 0.76002
 H143 H 0.93358 0.40019 0.75164
 N144 N 0.92216 0.46744 0.75802
 C145 C 0.90125 0.54386 0.71780
 H146 H 0.87948 0.54047 0.71523
 C147 C 0.91296 0.56734 0.70745
 H148 H 0.89991 0.58151 0.69655
 C149 C 0.94454 0.52832 0.73384
 H150 H 0.95684 0.51287 0.74370
 C151 C 0.95714 0.55161 0.72379
 H152 H 0.97910 0.55400 0.72627
 Zn153 Zn 0.89800 0.49440 0.74404
 N154 N 0.91694 0.52516 0.73113
 C155 C 0.87019 0.53100 0.78176
 N156 N 0.87375 0.50454 0.77388
 C157 C 0.86195 0.48441 0.78866
 C158 C 0.84623 0.49053 0.81269
 C159 C 0.85421 0.53810 0.80530
 C160 C 0.89368 0.47402 0.68952
 C161 C 0.88104 0.46410 0.66527
 C162 C 0.83722 0.46758 0.68935
 C163 C 0.85082 0.47740 0.71323
 N164 N 0.87855 0.48025 0.71289
 H165 H 0.88031 0.54672 0.77029
 H166 H 0.86542 0.46349 0.78221
 H167 H 0.83753 0.47408 0.82446
 H168 H 0.85271 0.55933 0.81116
 H169 H 0.91570 0.47679 0.68978
 H170 H 0.89366 0.45919 0.64699
 H171 H 0.81520 0.46555 0.69063
 H172 H 0.83918 0.48286 0.73197
 C173 C 0.94124 0.57169 0.71083
 C174 C 0.95221 0.42636 0.78320
 C175 C 0.85241 0.46069 0.66477
 C176 C 0.84213 0.51768 0.82145
 C177 C 0.29219 0.43018 -0.01190
 H178 H 0.30026 0.42804 0.00909
 C179 C 0.30695 0.44444 -0.03191
 H180 H 0.32636 0.45343 -0.02614
 C181 C 0.25765 0.41999 -0.04522
 H182 H 0.23888 0.40970 -0.05057
 C183 C 0.27173 0.43407 -0.06590
 H184 H 0.26341 0.43419 -0.08689
 N185 N 0.26802 0.41834 -0.01883
 C186 C 0.22556 0.40489 0.06011
 H187 H 0.22203 0.38337 0.05756
 C188 C 0.21524 0.41884 0.08368
 H189 H 0.20439 0.40757 0.09946
 C190 C 0.24470 0.44520 0.04261
 H191 H 0.25583 0.45543 0.02631
 C192 C 0.23467 0.46002 0.06595
 H193 H 0.23833 0.48161 0.06758
 Zn194 Zn 0.25100 0.39687 0.00855
 N195 N 0.24000 0.41812 0.04020
 C196 C 0.28543 0.36868 0.04619
 N197 N 0.27709 0.37016 0.01906
 C198 C 0.28895 0.35434 -0.00147
 C199 C 0.31029 0.33630 0.00495
 C200 C 0.30648 0.35078 0.05361
 C201 C 0.19783 0.39829 -0.01234
 C202 C 0.17247 0.38833 -0.02088
 C203 C 0.19017 0.34277 -0.01536
 C204 C 0.21531 0.35368 -0.00704
 N205 N 0.21863 0.38100 -0.00571
 H206 H 0.27640 0.38195 0.06211
 H207 H 0.28227 0.35627 -0.02299
 H208 H 0.31972 0.32424 -0.01187
 H209 H 0.31274 0.35103 0.07532
 H210 H 0.20090 0.41995 -0.01059
 H211 H 0.15623 0.40263 -0.02594
 H212 H 0.18849 0.32097 -0.01606
 H213 H 0.23198 0.34031 -0.00114
 C214 C 0.21933 0.44691 0.08658
 C215 C 0.29681 0.44651 -0.05932
 C216 C 0.16810 0.36022 -0.02228
 C217 C 0.31955 0.33433 0.03279
 C218 C 0.77392 0.09326 1.01678
 H219 H 0.78488 0.09245 0.99692
 C220 C 0.78348 0.07813 1.03937
 H221 H 0.80155 0.06553 1.03612
 C222 C 0.73767 0.11181 1.04477
 H223 H 0.72037 0.12560 1.04716
 C224 C 0.74649 0.09706 1.06787
 H225 H 0.73553 0.09943 1.08766
 N226 N 0.75155 0.10987 1.01990
 C227 C 0.72685 0.13074 0.93472
 H228 H 0.72686 0.15256 0.93751
 C229 C 0.71999 0.11927 0.90875
 H230 H 0.71468 0.13240 0.89157
 C231 C 0.73378 0.08722 0.95390
 H232 H 0.73916 0.07488 0.97161
 C233 C 0.72676 0.07482 0.92822
 H234 H 0.72731 0.05293 0.92640
 Zn235 Zn 0.74273 0.13361 0.99029
 N236 N 0.73384 0.11474 0.95656
 C237 C 0.78885 0.15105 0.95997
 N238 N 0.77423 0.15509 0.98414
 C239 C 0.78309 0.17251 1.00457
 C240 C 0.80720 0.18719 1.00074
 C241 C 0.81329 0.16480 0.95550
 C242 C 0.68754 0.14125 1.00331
 C243 C 0.66328 0.15493 1.01098
 C244 C 0.68828 0.19692 1.01123
 C245 C 0.71204 0.18239 1.00336
 N246 N 0.71136 0.15497 1.00015
 H247 H 0.78196 0.13665 0.94424
 H248 H 0.77154 0.17482 1.02399
 H249 H 0.81382 0.20101 1.01727
 H250 H 0.82379 0.16126 0.93569
 H251 H 0.68753 0.11945 1.00023
 H252 H 0.64512 0.14294 1.01388
 H253 H 0.68944 0.21873 1.01415
 H254 H 0.73093 0.19310 0.99993
 C255 C 0.71969 0.09101 0.90525
 C256 C 0.76997 0.08033 1.06561
 C257 C 0.66341 0.18328 1.01541
 C258 C 0.82308 0.18305 0.97620
 C259 C 0.27489 0.59779 0.54098
 H260 H 0.28444 0.59332 0.52079
 C261 C 0.28402 0.58450 0.56492
 H262 H 0.30087 0.57015 0.56268
 C263 C 0.24166 0.62252 0.56791
 H264 H 0.22485 0.63697 0.56903
 C265 C 0.25005 0.60969 0.59230
 H266 H 0.23984 0.61482 0.61203
 N267 N 0.25455 0.61691 0.54299
 C268 C 0.24145 0.60597 0.45771
 H269 H 0.25867 0.61804 0.45137
 C270 C 0.22941 0.58835 0.43817
 H271 H 0.23741 0.58777 0.41694
 C272 C 0.20989 0.59292 0.49288
 H273 H 0.20217 0.59517 0.51419
 C274 C 0.19722 0.57509 0.47406
 H275 H 0.17971 0.56361 0.48105
 Zn276 Zn 0.24387 0.63512 0.51004
 N277 N 0.23094 0.60861 0.48419
 C278 C 0.26915 0.66831 0.47081
 N279 N 0.27378 0.65406 0.49450
 C280 C 0.29904 0.65333 0.50653
 C281 C 0.32127 0.66600 0.49380
 C282 C 0.29077 0.68113 0.45726
 C283 C 0.19037 0.65803 0.50632
 C284 C 0.16845 0.67487 0.51466
 C285 C 0.19889 0.69821 0.54661
 C286 C 0.22026 0.68092 0.53753
 N287 N 0.21539 0.66062 0.51856
 H288 H 0.24873 0.66904 0.46199
 H289 H 0.30217 0.64265 0.52585
 H290 H 0.34105 0.66419 0.50375
 H291 H 0.28666 0.69169 0.43794
 H292 H 0.18711 0.64253 0.49041
 H293 H 0.14890 0.67140 0.50476
 H294 H 0.20304 0.71353 0.56261
 H295 H 0.24052 0.68295 0.54649
 C296 C 0.20654 0.57305 0.44614
 C297 C 0.27167 0.59064 0.59114
 C298 C 0.17226 0.69485 0.53586
 C299 C 0.31744 0.67976 0.46838
 C300 C 0.76791 0.93113 0.43670
 H301 H 0.76201 0.94472 0.45386
 C302 C 0.77842 0.94155 0.41168
 H303 H 0.78037 0.96327 0.40982
 C304 C 0.77118 0.88637 0.41780
 H305 H 0.76790 0.86489 0.42025
 C306 C 0.78141 0.89588 0.39249
 H307 H 0.78622 0.88154 0.37558
 N308 N 0.76453 0.90395 0.43921
 C309 C 0.70517 0.91909 0.49647
 H310 H 0.69264 0.91040 0.48005
 C311 C 0.69262 0.93362 0.51858
 H312 H 0.67047 0.93614 0.51872
 C313 C 0.74894 0.92510 0.51703
 H314 H 0.77083 0.92104 0.51660
 C315 C 0.73715 0.93957 0.53977
 H316 H 0.75039 0.94707 0.55625
 Zn317 Zn 0.74772 0.88823 0.47089
 N318 N 0.73278 0.91455 0.49640
 C319 C 0.76653 0.85758 0.51621
 N320 N 0.77373 0.86707 0.49060
 C321 C 0.79956 0.86320 0.48015
 C322 C 0.81929 0.84911 0.49546
 C323 C 0.78566 0.84358 0.53238
 C324 C 0.70519 0.87575 0.43437
 C325 C 0.68394 0.86090 0.42245
 C326 C 0.69058 0.82702 0.45786
 C327 C 0.71212 0.84239 0.46882
 N328 N 0.71887 0.86634 0.45707
 H329 H 0.74603 0.86146 0.52438
 H330 H 0.80517 0.87146 0.46011
 H331 H 0.83962 0.84708 0.48642
 H332 H 0.77947 0.83652 0.55288
 H333 H 0.71082 0.89493 0.42547
 H334 H 0.67347 0.86890 0.40429
 H335 H 0.68603 0.80799 0.46761
 H336 H 0.72338 0.83511 0.48670
 C337 C 0.70844 0.94318 0.54114
 C338 C 0.78516 0.92373 0.38913
 C339 C 0.67608 0.83629 0.43425
 C340 C 0.81254 0.83912 0.52219
 C341 C -0.04214 0.25399 0.43222
 H342 H -0.02501 0.24237 0.44018
 C343 C -0.06393 0.26142 0.45024
 H344 H -0.06343 0.25541 0.47201
 C345 C -0.06377 0.27610 0.39438
 H346 H -0.06346 0.28196 0.37258
 C347 C -0.08586 0.28391 0.41157
 H348 H -0.10207 0.29624 0.40277
 N349 N -0.04267 0.26104 0.40470
 C350 C 0.01049 0.20718 0.40847
 H351 H -0.00949 0.19804 0.40628
 C352 C 0.03205 0.19269 0.42064
 H353 H 0.02843 0.17238 0.42798
 C354 C 0.03964 0.24444 0.40071
 H355 H 0.04257 0.26454 0.39264
 C356 C 0.06177 0.23067 0.41268
 H357 H 0.08146 0.24051 0.41318
 Zn358 Zn -0.01416 0.25000 0.37924
 N359 N 0.01469 0.23248 0.39860
 C360 C 0.01821 0.27690 0.33937
 N361 N 0.00000 0.28085 0.36088
 C362 C -0.00712 0.30632 0.37001
 C363 C 0.00384 0.32903 0.35714
 C364 C 0.02999 0.29899 0.32617
 C365 C -0.05568 0.22172 0.34912
 C366 C -0.06594 0.20221 0.33053
 C367 C -0.01940 0.18859 0.31880
 C368 C -0.01002 0.20869 0.33744
 N369 N -0.02813 0.22475 0.35223
 H370 H 0.02401 0.25656 0.33273
 H371 H -0.02081 0.30918 0.38778
 H372 H -0.00200 0.34880 0.36549
 H373 H 0.04469 0.29523 0.30930
 H374 H -0.06995 0.23406 0.36128
 H375 H -0.08802 0.20021 0.32869
 H376 H -0.00426 0.17623 0.30767
 H377 H 0.01181 0.21096 0.34066
 C378 C 0.05816 0.20429 0.42273
 C379 C -0.08642 0.27606 0.43980
 C380 C -0.04787 0.18494 0.31530
 C381 C 0.02285 0.32558 0.33486
 C382 C 1.03623 0.78457 0.07325
 H383 H 1.01551 0.79279 0.07347
 C384 C 1.05690 0.79782 0.05867
 H385 H 1.05179 0.81607 0.04741
 C386 C 1.06817 0.75160 0.08882
 H387 H 1.07260 0.73391 0.10113
 C388 C 1.08954 0.76426 0.07454
 H389 H 1.11004 0.75586 0.07621
 N390 N 1.04213 0.76192 0.08800
 C391 C 0.96744 0.71586 0.09887
 H392 H 0.97053 0.71037 0.12053
 C393 C 0.94571 0.70466 0.08391
 H394 H 0.93185 0.69139 0.09474
 C395 C 0.98177 0.74016 0.05905
 H396 H 0.99599 0.75376 0.04931
 C397 C 0.96014 0.72944 0.04324
 H398 H 0.95779 0.73508 0.02149
 Zn399 Zn 1.01355 0.74662 0.10977
 N400 N 0.98482 0.73346 0.08650
 C401 C 0.97356 0.77109 0.14602
 N402 N 0.99917 0.77381 0.13495
 C403 C 1.01385 0.79670 0.13986
 C404 C 1.00231 0.81854 0.15518
 C405 C 0.96119 0.79239 0.16136
 C406 C 1.03372 0.69403 0.11387
 C407 C 1.04085 0.66984 0.12676
 C408 C 1.03462 0.69224 0.17203
 C409 C 1.02740 0.71606 0.15815
 N410 N 1.02694 0.71641 0.12960
 H411 H 0.96222 0.75276 0.14223
 H412 H 1.03435 0.79837 0.13126
 H413 H 1.01446 0.83656 0.15773
 H414 H 0.94041 0.78995 0.16915
 H415 H 1.03283 0.69483 0.09119
 H416 H 1.04571 0.65218 0.11365
 H417 H 1.03420 0.69267 0.19472
 H418 H 1.02156 0.73407 0.17019
 C419 C 0.94194 0.71126 0.05560
 C420 C 1.08403 0.78788 0.05931
 C421 C 1.04116 0.66846 0.15624
 C422 C 0.97521 0.81687 0.16561
 C423 C 0.50928 0.28112 0.61541
 H424 H 0.48877 0.28985 0.61556
 C425 C 0.53080 0.29475 0.60260
 H426 H 0.52667 0.31396 0.59270
 C427 C 0.53975 0.24602 0.62918
 H428 H 0.54328 0.22736 0.64018
 C429 C 0.56187 0.25895 0.61657
 H430 H 0.58214 0.24996 0.61829
 N431 N 0.51409 0.25724 0.62839
 C432 C 0.43686 0.21374 0.63333
 H433 H 0.43652 0.20922 0.65549
 C434 C 0.41614 0.20403 0.61583
 H435 H 0.40013 0.19179 0.62477
 C436 C 0.45913 0.23401 0.59478
 H437 H 0.47608 0.24543 0.58659
 C438 C 0.43893 0.22449 0.57646
 H439 H 0.44040 0.22884 0.55428
 Zn440 Zn 0.48464 0.24152 0.64813
 N441 N 0.45750 0.22891 0.62274
 C442 C 0.44192 0.27233 0.67480
 N443 N 0.46959 0.26876 0.67260
 C444 C 0.48709 0.28641 0.68527
 C445 C 0.47694 0.30940 0.69980
 C446 C 0.43088 0.29464 0.68956
 C447 C 0.50355 0.18870 0.65256
 C448 C 0.51409 0.16558 0.66518
 C449 C 0.51273 0.18967 0.70990
 C450 C 0.50194 0.21233 0.69635
 N451 N 0.49784 0.21145 0.66812
 H452 H 0.42823 0.25840 0.66442
 H453 H 0.50904 0.28318 0.68315
 H454 H 0.49156 0.32313 0.70914
 H455 H 0.40874 0.29722 0.69046
 H456 H 0.50021 0.18869 0.63010
 H457 H 0.51885 0.14837 0.65162
 H458 H 0.51619 0.19089 0.73237
 H459 H 0.49724 0.23072 0.70827
 C460 C 0.41684 0.20973 0.58701
 C461 C 0.55751 0.28375 0.60312
 C462 C 0.51901 0.16575 0.69439
 C463 C 0.44834 0.31413 0.70153
 C464 C 0.48253 0.78460 0.89992
 H465 H 0.49621 0.79871 0.89005
 C466 C 0.45706 0.79376 0.91020
 H467 H 0.45151 0.81485 0.90764
 C468 C 0.47284 0.73974 0.91347
 H469 H 0.47900 0.71861 0.91415
 C470 C 0.44713 0.74803 0.92400
 H471 H 0.43363 0.73317 0.93303
 N472 N 0.48988 0.75800 0.90162
 C473 C 0.57523 0.72989 0.90226
 H474 H 0.58016 0.73280 0.88033
 C475 C 0.59540 0.72040 0.92037
 H476 H 0.61571 0.71583 0.91202
 C477 C 0.54216 0.73082 0.93906
 H478 H 0.52132 0.73471 0.94615
 C479 C 0.56166 0.72078 0.95784
 H480 H 0.55570 0.71688 0.97934
 Zn481 Zn 0.52306 0.74565 0.88447
 N482 N 0.54917 0.73480 0.91173
 C483 C 0.55914 0.78848 0.87501
 N484 N 0.53831 0.77419 0.86321
 C485 C 0.52826 0.78076 0.83756
 C486 C 0.53957 0.80213 0.82256
 C487 C 0.57138 0.80950 0.86061
 C488 C 0.52902 0.69139 0.86464
 C489 C 0.52118 0.66778 0.85040
 C490 C 0.48415 0.69300 0.82919
 C491 C 0.49278 0.71620 0.84387
 N492 N 0.51477 0.71500 0.86132
 H493 H 0.56621 0.78377 0.89585
 H494 H 0.51147 0.76945 0.82864
 H495 H 0.53131 0.80644 0.80208
 H496 H 0.58811 0.82032 0.87052
 H497 H 0.54602 0.69043 0.87900
 H498 H 0.53265 0.64919 0.85392
 H499 H 0.46620 0.69486 0.81614
 H500 H 0.48116 0.73493 0.84225
 C501 C 0.58864 0.71552 0.94851
 C502 C 0.43892 0.77534 0.92245
 C503 C 0.49820 0.66808 0.83271
 C504 C 0.56164 0.81680 0.83407
 C505 C 0.49024 -0.23811 0.36030
 C506 C 0.49069 -0.21141 0.37064
 C507 C 0.47834 -0.18893 0.35512
 N508 N 0.48426 -0.16290 0.36231
 N509 N 0.47284 -0.14236 0.34861
 C510 C 0.45493 -0.14717 0.32736
 N511 N 0.44889 -0.17318 0.32031
 N512 N 0.46047 -0.19369 0.33384
 C513 C 0.44122 -0.12490 0.31276
 C514 C 0.45032 -0.09824 0.31431
 H515 H 0.50063 -0.20681 0.39043
 H516 H 0.42368 -0.12984 0.29980
 H517 H 0.47987 -0.24222 0.34059
 H518 H 0.46956 -0.09372 0.32461
 C519 C 0.99144 0.27792 0.87953
 C520 C 1.00656 0.29583 0.86331
 C521 C 0.99327 0.31739 0.84712
 N522 N 1.00821 0.33856 0.83793
 N523 N 0.99632 0.35836 0.82349
 C524 C 0.96908 0.35756 0.81751
 N525 N 0.95423 0.33625 0.82643
 N526 N 0.96606 0.31659 0.84108
 C527 C 0.95552 0.37906 0.80148
 C528 C 0.96705 0.40454 0.79791
 H529 H 1.02880 0.29467 0.86351
 H530 H 0.93504 0.37520 0.79371
 H531 H 0.96921 0.27944 0.87922
 H532 H 0.98618 0.40935 0.80829
 C533 C 0.01958 1.23621 0.87530
 C534 C 0.00528 1.21933 0.85669
 C535 C 0.01881 1.19612 0.84228
 N536 N 0.00352 1.17541 0.83195
 N537 N 0.01559 1.15317 0.82101
 C538 C 0.04342 1.15092 0.81994
 N539 N 0.05869 1.17182 0.82981
 N540 N 0.04663 1.19395 0.84091
 C541 C 0.05731 1.12622 0.80910
 C542 C 0.04338 1.10227 0.80285
 H543 H -0.01691 1.22102 0.85567
 H544 H 0.07936 1.12708 0.80645
 H545 H 0.04179 1.23439 0.87604
 H546 H 0.02115 1.10219 0.80421
 C547 C 0.50691 0.71418 0.35719
 C548 C 0.51358 0.68850 0.36711
 C549 C 0.52340 0.66630 0.34845
 N550 N 0.52924 0.64168 0.35928
 N551 N 0.53908 0.62160 0.34288
 C552 C 0.54350 0.62540 0.31502
 N553 N 0.53759 0.65001 0.30416
 N554 N 0.52769 0.67009 0.32057
 C555 C 0.55551 0.60373 0.29694
 C556 C 0.56104 0.57793 0.30718
 H557 H 0.51235 0.68484 0.38946
 H558 H 0.56023 0.60846 0.27536
 H559 H 0.50895 0.71786 0.33489
 H560 H 0.55433 0.57332 0.32829
 C561 C 0.50368 0.26402 0.14192
 C562 C 0.50108 0.29194 0.13781
 C563 C 0.51758 0.31189 0.15336
 N564 N 0.51208 0.33874 0.15068
 N565 N 0.52711 0.35717 0.16418
 C566 C 0.54832 0.34942 0.18075
 N567 N 0.55390 0.32256 0.18334
 N568 N 0.53877 0.30412 0.16995
 C569 C 0.56545 0.36957 0.19527
 C570 C 0.55818 0.39701 0.19657
 H571 H 0.48683 0.29956 0.12239
 H572 H 0.58380 0.36245 0.20570
 H573 H 0.51871 0.25687 0.15689
 H574 H 0.53854 0.40342 0.18820
 C575 C -0.00873 0.77923 0.63859
 C576 C -0.00237 0.80508 0.62916
 C577 C 0.00623 0.82726 0.64807
 N578 N 0.01173 0.85191 0.63737
 N579 N 0.02009 0.87216 0.65402
 C580 C 0.02325 0.86851 0.68204
 N581 N 0.01767 0.84387 0.69277
 N582 N 0.00927 0.82361 0.67611
 C583 C 0.03362 0.89033 0.70051
 C584 C 0.03967 0.91602 0.69044
 H585 H -0.00344 0.80909 0.60688
 H586 H 0.03691 0.88567 0.72235
 H587 H -0.00687 0.77496 0.66077
 H588 H 0.03438 0.92063 0.66895
 C589 C 0.97234 0.73282 0.63457
 C590 C 0.98845 0.71177 0.64530
 C591 C 0.97613 0.68841 0.65923
 N592 N 0.99194 0.66655 0.66567
 N593 N 0.98080 0.64488 0.67735
 C594 C 0.95343 0.64435 0.68309
 N595 N 0.93770 0.66629 0.67686
 N596 N 0.94880 0.68789 0.66511
 C597 C 0.94042 0.62044 0.69518
 C598 C 0.95476 0.59635 0.70032
 H599 H 1.01052 0.71171 0.64231
 H600 H 0.91870 0.62209 0.69994
 H601 H 0.95044 0.73273 0.63883
 H602 H 0.97681 0.59564 0.69706
 C603 C 0.48232 0.21966 0.14344
 C604 C 0.49251 0.19304 0.14101
 C605 C 0.48178 0.17140 0.15877
 N606 N 0.49082 0.14540 0.15502
 N607 N 0.48022 0.12553 0.17012
 C608 C 0.46017 0.13097 0.18951
 N609 N 0.45131 0.15695 0.19336
 N610 N 0.46189 0.17677 0.17830
 C611 C 0.44716 0.10942 0.20561
 C612 C 0.45414 0.08199 0.20219
 H613 H 0.50786 0.18750 0.12533
 H614 H 0.43050 0.11566 0.21948
 H615 H 0.46789 0.22435 0.16038
 H616 H 0.47007 0.07623 0.18714
 C617 C 0.36517 0.50523 -0.22137
 C618 C 0.37455 0.50098 -0.19412
 C619 C 0.35590 0.49388 -0.17105
 N620 N 0.36631 0.48768 -0.14555
 N621 N 0.34981 0.47994 -0.12483
 C622 C 0.32227 0.47816 -0.12884
 N623 N 0.31184 0.48459 -0.15427
 N624 N 0.32834 0.49231 -0.17499
 C625 C 0.30394 0.46820 -0.10673
 C626 C 0.31382 0.46002 -0.08072
 H627 H 0.39636 0.50120 -0.18993
 H628 H 0.28233 0.46673 -0.11157
 H629 H 0.34331 0.50391 -0.22527
 H630 H 0.33526 0.46331 -0.07585
 C631 C 0.87727 1.00118 0.25047
 C632 C 0.85535 0.98331 0.25236
 C633 C 0.84228 0.97745 0.27956
 N634 N 0.82458 0.95654 0.28156
 N635 N 0.81354 0.95033 0.30628
 C636 C 0.81969 0.96487 0.32993
 N637 N 0.83709 0.98601 0.32786
 N638 N 0.84822 0.99214 0.30317
 C639 C 0.80843 0.95761 0.35759
 C640 C 0.79504 0.93313 0.36153
 H641 H 0.84824 0.97264 0.23376
 H642 H 0.81237 0.97101 0.37534
 H643 H 0.88448 1.01062 0.26979
 H644 H 0.79319 0.91924 0.34372
 C645 C 0.87793 0.00883 1.19728
 C646 C 0.85191 0.02109 1.19622
 C647 C 0.83896 0.02792 1.16927
 N648 N 0.81443 0.04133 1.16902
 N649 N 0.80315 0.04867 1.14481
 C650 C 0.81599 0.04286 1.11991
 N651 N 0.84040 0.02928 1.12018
 N652 N 0.85165 0.02194 1.14436
 C653 C 0.80472 0.05210 1.09298
 C654 C 0.78018 0.06701 1.09140
 H655 H 0.84132 0.02698 1.21550
 H656 H 0.81698 0.04790 1.07439
 H657 H 0.88845 0.00416 1.17759
 H658 H 0.76843 0.07043 1.11059
 C659 C 0.36834 0.51127 0.72681
 C660 C 0.34702 0.53027 0.72416
 C661 C 0.33416 0.53623 0.69710
 N662 N 0.31442 0.55581 0.69591
 N663 N 0.30340 0.56247 0.67141
 C664 C 0.31172 0.54981 0.64717
 N665 N 0.33133 0.53006 0.64837
 N666 N 0.34236 0.52338 0.67290
 C667 C 0.30073 0.55802 0.61983
 C668 C 0.28124 0.57890 0.61784
 H669 H 0.34051 0.54225 0.74239
 H670 H 0.30882 0.54780 0.60122
 H671 H 0.37530 0.50010 0.70817
 H672 H 0.27286 0.58775 0.63714
 C673 C 0.13000 0.50906 0.28831
 C674 C 0.12283 0.51607 0.31600
 C675 C 0.14308 0.52364 0.33742
 N676 N 0.13452 0.52909 0.36413
 N677 N 0.15227 0.53714 0.38366
 C678 C 0.17927 0.54008 0.37721
 N679 N 0.18789 0.53449 0.35051
 N680 N 0.17012 0.52635 0.33096
 C681 C 0.19864 0.55088 0.39813
 C682 C 0.19039 0.55679 0.42576
 H683 H 0.10134 0.51658 0.32208
 H684 H 0.21924 0.55522 0.39108
 H685 H 0.15150 0.50883 0.28224
 H686 H 0.17022 0.55038 0.43250
 C687 C 0.64102 -0.00295 0.76627
 C688 C 0.65964 0.01832 0.76816
 C689 C 0.67144 0.02693 0.79533
 N690 N 0.68586 0.05025 0.79736
 N691 N 0.69572 0.05871 0.82205
 C692 C 0.69162 0.04412 0.84563
 N693 N 0.67748 0.02065 0.84352
 N694 N 0.66755 0.01224 0.81886
 C695 C 0.70146 0.05366 0.87330
 C696 C 0.71225 0.07951 0.87736
 H697 H 0.66443 0.02977 0.74961
 H698 H 0.69841 0.04063 0.89105
 H699 H 0.63541 -0.01307 0.78547
 H700 H 0.71340 0.09279 0.85952
 C701 C 0.64642 0.98361 0.71537
 C702 C 0.63750 0.97470 0.68890
 C703 C 0.65561 0.97106 0.66422
 N704 N 0.64421 0.96658 0.63865
 N705 N 0.65994 0.96287 0.61589
 C706 C 0.68775 0.96342 0.61779
 N707 N 0.69922 0.96787 0.64342
 N708 N 0.68344 0.97175 0.66623
 C709 C 0.70521 0.95773 0.59284
 C710 C 0.69385 0.95510 0.56600
 H711 H 0.61584 0.97095 0.68582
 H712 H 0.72684 0.95387 0.59618
 H713 H 0.66807 0.98744 0.71845
 H714 H 0.67210 0.95939 0.56369
 C715 C 0.12120 0.49212 0.23946
 C716 C 0.14206 0.50466 0.22439
 C717 C 0.15297 0.49223 0.19815
 N718 N 0.17512 0.50281 0.18500
 N719 N 0.18526 0.49111 0.16155
 C720 C 0.17350 0.46849 0.15043
 N721 N 0.15129 0.45811 0.16349
 N722 N 0.14124 0.46973 0.18687
 C723 C 0.18447 0.45453 0.12518
 C724 C 0.20796 0.46268 0.11087
 H725 H 0.15059 0.52353 0.23213
 H726 H 0.17341 0.43692 0.11776
 H727 H 0.11272 0.47358 0.23076
 H728 H 0.21773 0.48148 0.11701
 C729 C -0.24410 0.34866 0.49947
 C730 C -0.22366 0.33380 0.51303
 C731 C -0.20138 0.32030 0.49674
 N732 N -0.17766 0.31266 0.50943
 N733 N -0.15684 0.30202 0.49431
 C734 C -0.15911 0.29853 0.46601
 N735 N -0.18296 0.30575 0.45349
 N736 N -0.20365 0.31647 0.46853
 C737 C -0.13617 0.28828 0.44843
 C738 C -0.10979 0.28343 0.45867
 H739 H -0.22290 0.33391 0.53578
 H740 H -0.14027 0.28526 0.42627
 H741 H -0.24407 0.34837 0.47666
 H742 H -0.10624 0.28463 0.48111
 C743 C 0.28962 0.87050 0.97816
 C744 C 0.29545 0.84373 0.96966
 C745 C 0.32356 0.83499 0.96154
 N746 N 0.32897 0.80868 0.95432
 N747 N 0.35439 0.80062 0.94723
 C748 C 0.37534 0.81858 0.94715
 N749 N 0.36990 0.84486 0.95433
 N750 N 0.34453 0.85290 0.96143
 C751 C 0.40352 0.81038 0.93897
 C752 C 0.41103 0.78357 0.93242
 H753 H 0.27941 0.82878 0.96887
 H754 H 0.41873 0.82615 0.93846
 H755 H 0.30608 0.88508 0.97730
 H756 H 0.39595 0.76782 0.93506
 C757 C 1.24106 0.85982 -0.00432
 C758 C 1.21313 0.86625 -0.00100
 C759 C 1.19265 0.84724 0.00959
 N760 N 1.16602 0.85544 0.01190
 N761 N 1.14708 0.83897 0.02205
 C762 C 1.15403 0.81361 0.03032
 N763 N 1.18069 0.80534 0.02794
 N764 N 1.19967 0.82184 0.01774
 C765 C 1.13330 0.79559 0.04245
 C766 C 1.10572 0.80359 0.04509
 H767 H 1.20590 0.88649 -0.00575
 H768 H 1.14025 0.77605 0.04964
 H769 H 1.24829 0.84023 0.00263
 H770 H 1.09959 0.82297 0.03662
 C771 C 0.71437 0.34587 0.52959
 C772 C 0.68996 0.35540 0.54215
 C773 C 0.66888 0.33771 0.55373
 N774 N 0.64475 0.34886 0.56285
 N775 N 0.62484 0.33335 0.57265
 C776 C 0.62828 0.30603 0.57370
 N777 N 0.65252 0.29484 0.56476
 N778 N 0.67246 0.31039 0.55486
 C779 C 0.60626 0.28880 0.58445
 C780 C 0.58021 0.29950 0.59095
 H781 H 0.68529 0.37694 0.54196
 H782 H 0.61065 0.26741 0.58669
 H783 H 0.71901 0.32431 0.52952
 H784 H 0.57602 0.32063 0.58660
 C785 C 0.26257 0.14173 0.51442
 C786 C 0.28942 0.14644 0.50519
 C787 C 0.30955 0.16037 0.52316
 N788 N 0.33550 0.16429 0.51356
 N789 N 0.35433 0.17555 0.53016
 C790 C 0.34792 0.18323 0.55701
 N791 N 0.32196 0.17942 0.56655
 N792 N 0.30313 0.16821 0.54995
 C793 C 0.36867 0.19454 0.57612
 C794 C 0.39550 0.19979 0.56746
 H795 H 0.29640 0.13883 0.48485
 H796 H 0.36244 0.19888 0.59763
 H797 H 0.25597 0.15122 0.53410
 H798 H 0.40086 0.19742 0.54541
 C799 C 0.79165 0.61878 0.01191
 C800 C 0.80596 0.63996 -0.00036
 C801 C 0.83276 0.64871 0.01056
 N802 N 0.84464 0.67154 0.00093
 N803 N 0.86834 0.68013 0.01164
 C804 C 0.88103 0.66611 0.03228
 N805 N 0.86928 0.64318 0.04165
 N806 N 0.84561 0.63466 0.03103
 C807 C 0.90635 0.67574 0.04564
 C808 C 0.91877 0.70019 0.03907
 H809 H 0.79695 0.65084 -0.01764
 H810 H 0.91495 0.66325 0.06192
 H811 H 0.80175 0.60758 0.02837
 H812 H 0.91139 0.71154 0.02131
 C813 C 0.74309 0.63297 1.00180
 C814 C 0.71473 0.62878 1.00069
 C815 C 0.69477 0.65026 0.99399
 N816 N 0.66750 0.64531 0.99628
 N817 N 0.64897 0.66350 0.98796
 C818 C 0.65705 0.68731 0.97690
 N819 N 0.68433 0.69238 0.97483
 N820 N 0.70288 0.67423 0.98332
 C821 C 0.63697 0.70600 0.96445
 C822 C 0.60868 0.70256 0.96738
 H823 H 0.70678 0.60860 1.00347
 H824 H 0.64467 0.72166 0.95096
 H825 H 0.75056 0.65329 0.99870
 H826 H 0.60100 0.68890 0.98308
 C827 C 0.21942 0.14167 0.48733
 C828 C 0.19414 0.13139 0.47869
 C829 C 0.17166 0.14886 0.46867
 N830 N 0.14726 0.13776 0.46151
 N831 N 0.12652 0.15332 0.45285
 C832 C 0.12940 0.18059 0.45108
 N833 N 0.15383 0.19168 0.45820
 N834 N 0.17457 0.17612 0.46688
 C835 C 0.10678 0.19809 0.44134
 C836 C 0.08107 0.18780 0.43421
 H837 H 0.19052 0.10982 0.47998
 H838 H 0.11078 0.21953 0.44003
 H839 H 0.22331 0.16311 0.48503
 H840 H 0.07745 0.16641 0.43716
 C841 C 0.60588 0.01116 0.73021
 C842 C 0.59886 0.03481 0.74549
 C843 C 0.58129 0.05603 0.73325
 N844 N 0.57649 0.07977 0.74748
 N845 N 0.56166 0.09953 0.73592
 C846 C 0.55108 0.09619 0.70973
 N847 N 0.55572 0.07239 0.69566
 N848 N 0.57053 0.05270 0.70717
 C849 C 0.53587 0.11801 0.69574
 C850 C 0.53064 0.14345 0.70837
 H851 H 0.60688 0.03844 0.76635
 H852 H 0.52912 0.11340 0.67465
 H853 H 0.59612 0.00804 0.71003
 H854 H 0.53604 0.14616 0.73031
 C855 C 1.09389 0.53067 0.25980
 C856 C 1.07748 0.53412 0.23614
 C857 C 1.06876 0.56117 0.22683
 N858 N 1.05947 0.56430 0.20026
 N859 N 1.05324 0.58885 0.19081
 C860 C 1.05600 0.61124 0.20761
 N861 N 1.06486 0.60807 0.23435
 N862 N 1.07126 0.58352 0.24374
 C863 C 1.04992 0.63859 0.19712
 C864 C 1.04731 0.64327 0.16833
 H865 H 1.07343 0.51683 0.22246
 H866 H 1.04878 0.65502 0.21243
 H867 H 1.09770 0.54814 0.27334
 H868 H 1.05058 0.62605 0.15413
 C869 C 0.91340 0.98047 0.22005
 C870 C 0.90373 0.95531 0.21071
 C871 C 0.92175 0.93157 0.20544
 N872 N 0.91047 0.90736 0.19851
 N873 N 0.92634 0.88585 0.19234
 C874 C 0.95415 0.88773 0.19279
 N875 N 0.96547 0.91195 0.19979
 N876 N 0.94957 0.93347 0.20608
 C877 C 0.97186 0.86453 0.18414
 C878 C 0.96098 0.83882 0.17864
 H879 H 0.88213 0.95305 0.20615
 H880 H 0.99348 0.86842 0.18136
 H881 H 0.93494 0.98207 0.22539
 H882 H 0.93953 0.83591 0.18393
 C883 C 0.40309 0.48360 0.75059
 C884 C 0.39182 0.45766 0.74991
 C885 C 0.40773 0.43271 0.74381
 N886 N 0.39432 0.40887 0.74135
 N887 N 0.40794 0.38601 0.73489
 C888 C 0.43556 0.38606 0.73073
 N889 N 0.44908 0.40989 0.73353
 N890 N 0.43541 0.43283 0.73993
 C891 C 0.45050 0.36104 0.72205
 C892 C 0.43632 0.33771 0.71366
 H893 H 0.36988 0.45563 0.75302
 H894 H 0.47259 0.36210 0.72022
 H895 H 0.42473 0.48593 0.74588
 H896 H 0.41407 0.33860 0.71485
 C897 C 0.40074 0.53455 0.75786
 C898 C 0.42428 0.53700 0.77432
 C899 C 0.43622 0.56373 0.78072
 N900 N 0.45851 0.56573 0.79759
 N901 N 0.46870 0.58994 0.80439
 C902 C 0.45699 0.61303 0.79457
 N903 N 0.43482 0.61099 0.77758
 N904 N 0.42466 0.58682 0.77077
 C905 C 0.46695 0.64004 0.80307
 C906 C 0.48970 0.64331 0.82058
 H907 H 0.43358 0.51923 0.78351
 H908 H 0.45529 0.65729 0.79585
 H909 H 0.39171 0.55302 0.74982
 H910 H 0.50118 0.62515 0.82590
 C911 C -0.08834 0.03031 0.22860
 C912 C -0.10061 0.05562 0.23425
 C913 C -0.08535 0.07912 0.24501
 N914 N -0.09942 0.10172 0.25357
 N915 N -0.08640 0.12256 0.26537
 C916 C -0.05876 0.12163 0.26904
 N917 N -0.04458 0.09917 0.26006
 N918 N -0.05763 0.07825 0.24831
 C919 C -0.04447 0.14387 0.28381
 C920 C -0.05924 0.16455 0.29801
 H921 H -0.12275 0.05763 0.23331
 H922 H -0.02235 0.14249 0.28492
 H923 H -0.06618 0.02845 0.23006
 H924 H -0.08146 0.16408 0.29661
 C925 C 0.08775 0.48364 0.27737
 C926 C 0.09639 0.45725 0.28339
 C927 C 0.07822 0.43618 0.29397
 N928 N 0.08748 0.41014 0.29420
 N929 N 0.07177 0.39057 0.30409
 C930 C 0.04621 0.39630 0.31430
 N931 N 0.03695 0.42241 0.31422
 N932 N 0.05262 0.44201 0.30412
 C933 C 0.02922 0.37483 0.32626
 C934 C 0.03586 0.34736 0.32178
 H935 H 0.11763 0.45150 0.27934
 H936 H 0.01130 0.38109 0.33834
 H937 H 0.06654 0.48971 0.28110
 H938 H 0.05231 0.34250 0.30697
 C939 C 0.61003 0.96354 0.74477
 C940 C 0.62313 0.93983 0.75351
 C941 C 0.60798 0.91616 0.76323
 N942 N 0.62110 0.89747 0.77897
 N943 N 0.60755 0.87652 0.78920
 C944 C 0.58038 0.87336 0.78389
 N945 N 0.56733 0.89178 0.76768
 N946 N 0.58085 0.91291 0.75764
 C947 C 0.56513 0.85076 0.79607
 C948 C 0.57460 0.83821 0.82035
 H949 H 0.64528 0.93960 0.75567
 H950 H 0.54553 0.84567 0.78697
 H951 H 0.58778 0.96411 0.74365
 H952 H 0.59293 0.84643 0.83000
 C953 C 0.75298 0.58792 0.02196
 C954 C 0.75225 0.59249 0.05104
 C955 C 0.73781 0.57484 0.07057
 N956 N 0.74252 0.57740 0.09855
 N957 N 0.72851 0.56278 0.11684
 C958 C 0.70906 0.54520 0.10783
 N959 N 0.70428 0.54266 0.07982
 N960 N 0.71849 0.55713 0.06149
 C961 C 0.69218 0.53040 0.12802
 C962 C 0.70022 0.52747 0.15599
 H963 H 0.76214 0.61024 0.05989
 H964 H 0.67341 0.52153 0.12030
 H965 H 0.74273 0.57032 0.01321
 H966 H 0.72092 0.53344 0.16146
 C967 C 0.23000 1.10489 0.52098
 C968 C 0.21399 1.11464 0.54352
 C969 C 0.20407 1.09714 0.56594
 N970 N 0.19004 1.10837 0.58801
 N971 N 0.18115 1.09302 0.60879
 C972 C 0.18594 1.06582 0.60831
 N973 N 0.19990 1.05453 0.58615
 N974 N 0.20886 1.06992 0.56535
 C975 C 0.17601 1.04876 0.63125
 C976 C 0.16293 1.06040 0.65488
 H977 H 0.20907 1.13610 0.54511
 H978 H 0.17910 1.02711 0.62903
 H979 H 0.23519 1.08344 0.51987
 H980 H 0.16117 1.08234 0.65581
 C981 C 0.25039 0.89988 0.96613
 C982 C 0.24572 0.89084 0.93859
 C983 C 0.23015 0.90740 0.91864
 N984 N 0.22781 0.89917 0.89137
 N985 N 0.21290 0.91361 0.87345
 C986 C 0.19969 0.93673 0.88222
 N987 N 0.20202 0.94490 0.90946
 N988 N 0.21701 0.93056 0.92731
 C989 C 0.18213 0.95241 0.86327
 C990 C 0.18176 0.94773 0.83418
 H991 H 0.25282 0.87083 0.93189
 H992 H 0.16994 0.96854 0.87292
 H993 H 0.24277 0.91986 0.97239
 H994 H 0.19661 0.93331 0.82535
 C995 C 0.71710 0.37988 0.49254
 C996 C 0.72818 0.40011 0.47593
 C997 C 0.71464 0.40844 0.44981
 N998 N 0.72527 0.42856 0.43416
 N999 N 0.71386 0.43512 0.40975
 C1000 C 0.69152 0.42164 0.40006
 N1001 N 0.68095 0.40158 0.41571
 N1002 N 0.69226 0.39513 0.44011
 C1003 C 0.67897 0.42776 0.37284
 C1004 C 0.68556 0.45076 0.35756
 H1005 H 0.74804 0.40847 0.48107
 H1006 H 0.66310 0.41417 0.36580
 H1007 H 0.69739 0.37161 0.48654
 H1008 H 0.69974 0.46500 0.36700
 C1009 C 0.74452 0.38538 0.53629
 C1010 C 0.77174 0.39394 0.53784
 C1011 C 0.78197 0.40905 0.56259
 N1012 N 0.80912 0.41458 0.56477
 N1013 N 0.81890 0.42667 0.58786
 C1014 C 0.80189 0.43366 0.60965
 N1015 N 0.77472 0.42836 0.60734
 N1016 N 0.76495 0.41625 0.58429
 C1017 C 0.81246 0.44600 0.63583
 C1018 C 0.84052 0.45043 0.63988
 H1019 H 0.78635 0.38814 0.52151
 H1020 H 0.79755 0.45090 0.65208
 H1021 H 0.73023 0.39316 0.55211
 H1022 H 0.85424 0.44532 0.62247
 C1023 C 0.26728 -0.10191 0.01508
 C1024 C 0.27808 -0.11372 0.03912
 C1025 C 0.28651 -0.09759 0.06383
 N1026 N 0.29922 -0.11002 0.08543
 N1027 N 0.30796 -0.09567 0.10753
 C1028 C 0.30429 -0.06832 0.10891
 N1029 N 0.29135 -0.05590 0.08741
 N1030 N 0.28265 -0.07026 0.06525
 C1031 C 0.31470 -0.05216 0.13287
 C1032 C 0.33055 -0.06411 0.15383
 H1033 H 0.28166 -0.13544 0.03923
 H1034 H 0.31038 -0.03063 0.13305
 H1035 H 0.26442 -0.08008 0.01498
 H1036 H 0.33432 -0.08579 0.15195
 C1037 C 0.25625 0.10611 0.47682
 C1038 C 0.25137 0.10691 0.44790
 C1039 C 0.26788 0.09039 0.42783
 N1040 N 0.26123 0.08956 0.40015
 N1041 N 0.27650 0.07513 0.38177
 C1042 C 0.29902 0.06109 0.39042
 N1043 N 0.30565 0.06199 0.41805
 N1044 N 0.29035 0.07630 0.43641
 C1045 C 0.31692 0.04599 0.37050
 C1046 C 0.30985 0.04129 0.34238
 H1047 H 0.23561 0.12008 0.43956
 H1048 H 0.33587 0.03805 0.37891
 H1049 H 0.27210 0.09237 0.48419
 H1050 H 0.28933 0.04718 0.33592
 C1051 C 0.76665 0.59812 0.97243
 C1052 C 0.78137 0.57429 0.96594
 C1053 C 0.78950 0.56705 0.93686
 N1054 N 0.80133 0.54253 0.93084
 N1055 N 0.81016 0.53642 0.90486
 C1056 C 0.80761 0.55469 0.88399
 N1057 N 0.79578 0.57917 0.89003
 N1058 N 0.78681 0.58521 0.91592
 C1059 C 0.81906 0.54922 0.85572
 C1060 C 0.82747 0.52327 0.84658
 H1061 H 0.78819 0.56135 0.98272
 H1062 H 0.82052 0.56634 0.84199
 H1063 H 0.76022 0.61088 0.95530
 H1064 H 0.82224 0.50636 0.85974
 C1065 C 0.00847 0.74652 0.60064
 C1066 C 0.03586 0.75315 0.60587
 C1067 C 0.05848 0.74225 0.58819
 N1068 N 0.08494 0.74741 0.59513
 N1069 N 0.10560 0.73704 0.57967
 C1070 C 0.10052 0.72123 0.55662
 N1071 N 0.07407 0.71629 0.54957
 N1072 N 0.05344 0.72661 0.56504
 C1073 C 0.12289 0.70820 0.54016
 C1074 C 0.15055 0.71058 0.54763
 H1075 H 0.04113 0.76595 0.62371
 H1076 H 0.11668 0.69534 0.52280
 H1077 H 0.00417 0.73252 0.58341
 H1078 H 0.15539 0.72456 0.56471
 C1079 C 0.50687 0.23321 1.09916
 C1080 C 0.53228 0.24437 1.09219
 C1081 C 0.55224 0.23052 1.07336
 N1082 N 0.57693 0.24207 1.06857
 N1083 N 0.59638 0.22884 1.05379
 C1084 C 0.59189 0.20350 1.04330
 N1085 N 0.56706 0.19205 1.04782
 N1086 N 0.54758 0.20529 1.06259
 C1087 C 0.61395 0.18772 1.02901
 C1088 C 0.64019 0.19835 1.02475
 H1089 H 0.53900 0.26289 1.10239
 H1090 H 0.60923 0.16712 1.02290
 H1091 H 0.49990 0.21580 1.08705
 H1092 H 0.64297 0.21970 1.02962
 C1093 C 0.98356 0.23929 0.91182
 C1094 C 0.96235 0.25101 0.92801
 C1095 C 0.93867 0.23470 0.93666
 N1096 N 0.91822 0.24577 0.95291
 N1097 N 0.89586 0.23152 0.95890
 C1098 C 0.89311 0.20577 0.94867
 N1099 N 0.91357 0.19476 0.93254
 N1100 N 0.93590 0.20890 0.92671
 C1101 C 0.86800 0.19013 0.95305
 C1102 C 0.84788 0.19718 0.97310
 H1103 H 0.96195 0.27268 0.93214
 H1104 H 0.86628 0.17173 0.94052
 H1105 H 0.98454 0.21733 0.91009
 H1106 H 0.85227 0.21360 0.98782
 C1107 C 0.47823 0.73022 0.39765
 C1108 C 0.45160 0.72456 0.38869
 C1109 C 0.42961 0.71664 0.40802
 N1110 N 0.40361 0.71401 0.39832
 N1111 N 0.38342 0.70653 0.41539
 C1112 C 0.38847 0.70135 0.44282
 N1113 N 0.41450 0.70394 0.45252
 N1114 N 0.43469 0.71152 0.43546
 C1115 C 0.36655 0.69205 0.46162
 C1116 C 0.33908 0.69132 0.45312
 H1117 H 0.44664 0.72629 0.36663
 H1118 H 0.37270 0.68554 0.48221
 H1119 H 0.48313 0.72823 0.41970
 H1120 H 0.33418 0.69989 0.43291
 C1121 C 0.52687 0.74515 0.39233
 C1122 C 0.54970 0.75461 0.37781
 C1123 C 0.57411 0.76502 0.39217
 N1124 N 0.59223 0.78018 0.37776
 N1125 N 0.61383 0.79094 0.39064
 C1126 C 0.61820 0.78680 0.41839
 N1127 N 0.60034 0.77121 0.43272
 N1128 N 0.57859 0.76060 0.41987
 C1129 C 0.64143 0.79953 0.43297
 C1130 C 0.65431 0.82212 0.42175
 H1131 H 0.54868 0.75642 0.35517
 H1132 H 0.64673 0.79212 0.45348
 H1133 H 0.52765 0.74400 0.41503
 H1134 H 0.64607 0.82999 0.40236
 C1135 C 0.02610 0.26509 -0.08270
 C1136 C 0.03112 0.29218 -0.07551
 C1137 C 0.05696 0.30034 -0.06197
 N1138 N 0.06302 0.32703 -0.05905
 N1139 N 0.08731 0.33467 -0.04905
 C1140 C 0.10649 0.31590 -0.04165
 N1141 N 0.10030 0.28923 -0.04425
 N1142 N 0.07604 0.28160 -0.05429
 C1143 C 0.13394 0.32389 -0.03179
 C1144 C 0.14195 0.35104 -0.03042
 H1145 H 0.01718 0.30804 -0.08211
 H1146 H 0.14782 0.30770 -0.02611
 H1147 H 0.03951 0.24966 -0.07407
 H1148 H 0.12674 0.36623 -0.03599
 C1149 C 0.46131 0.25411 0.11481
 C1150 C 0.45285 0.25799 0.08712
 C1151 C 0.42615 0.27109 0.08117
 N1152 N 0.41829 0.27548 0.05427
 N1153 N 0.39453 0.28810 0.04895
 C1154 C 0.37776 0.29676 0.07036
 N1155 N 0.38559 0.29224 0.09717
 N1156 N 0.40926 0.27964 0.10246
 C1157 C 0.35212 0.31198 0.06536
 C1158 C 0.34208 0.31705 0.03844
 H1159 H 0.46606 0.25217 0.06960
 H1160 H 0.34132 0.31938 0.08390
 H1161 H 0.44743 0.26058 0.13164
 H1162 H 0.35254 0.30716 0.02077
 C1163 C 0.96203 0.76623 0.59806
 C1164 C 0.93678 0.77706 0.60716
 C1165 C 0.91623 0.78730 0.58734
 N1166 N 0.89124 0.79598 0.59687
 N1167 N 0.87261 0.80567 0.57914
 C1168 C 0.87834 0.80706 0.55122
 N1169 N 0.90334 0.79841 0.54172
 N1170 N 0.92191 0.78866 0.55942
 C1171 C 0.85849 0.81857 0.53140
 C1172 C 0.83164 0.82581 0.53944
 H1173 H 0.93208 0.77820 0.62944
 H1174 H 0.86567 0.82106 0.51011
 H1175 H 0.96629 0.76522 0.57565
 H1176 H 0.82512 0.82082 0.56053
   
