data_POSCAR
  _audit_creation_date              2014-09-24
  _audit_creation_method            'ToBaCCo'
  _symmetry_space_group_name_H-M    'P1'
  _symmetry_Int_Tables_number       1
  _symmetry_cell_setting            triclinic
  loop_
  _symmetry_equiv_pos_as_xyz
 x,y,z
_cell_length_a 26.3454
_cell_length_b 26.2987
_cell_length_c 36.4947
_cell_angle_alpha 90.207700
_cell_angle_beta 88.903900
_cell_angle_gamma 89.912000
loop_
  _atom_site_label
  _atom_site_type_symbol
  _atom_site_fract_x
  _atom_site_fract_y
  _atom_site_fract_z
C1 C -0.00100 0.50228 0.98257
 C2 C 0.00050 0.50242 1.01989
 C3 C 0.00274 0.55047 1.04130
 C4 C 0.00004 0.45450 1.04131
 C5 C -0.00074 0.45422 0.96107
 C6 C -0.00301 0.55016 0.96119
 C7 C 0.04169 0.58603 1.03505
 C8 C 0.04269 0.63145 1.05509
 C9 C 0.00501 0.64152 1.08183
 C10 C -0.03336 0.60570 1.08859
 C11 C -0.03435 0.56039 1.06853
 C12 C 0.03934 0.44469 1.06576
 C13 C 0.04010 0.39939 1.08561
 C14 C 0.00138 0.36357 1.08144
 C15 C -0.03846 0.37349 1.05760
 C16 C -0.03929 0.41886 1.03774
 C17 C -0.04003 0.44459 0.93655
 C18 C -0.04081 0.39931 0.91645
 C19 C -0.00213 0.36333 0.92044
 C20 C 0.03765 0.37302 0.94440
 C21 C 0.03851 0.41838 0.96451
 C22 C -0.04182 0.58609 0.96742
 C23 C -0.04269 0.63119 0.94724
 C24 C -0.00510 0.64054 0.92045
 C25 C 0.03313 0.60449 0.91374
 C26 C 0.03408 0.55947 0.93391
 H27 H 0.07117 0.57863 1.01463
 H28 H 0.07284 0.65857 1.04966
 H29 H -0.06269 0.61273 1.10925
 H30 H -0.06448 0.53328 1.07387
 H31 H 0.06982 0.47183 1.06904
 H32 H 0.07099 0.39219 1.10408
 H33 H -0.07042 0.42615 1.01952
 H34 H -0.07044 0.47189 0.93337
 H35 H -0.07166 0.39228 0.89789
 H36 H 0.06794 0.34556 0.94753
 H37 H 0.06963 0.42553 0.98278
 H38 H -0.07130 0.57917 0.98787
 H39 H -0.07262 0.65869 0.95249
 H40 H 0.06228 0.61125 0.89299
 H41 H 0.06410 0.53210 0.92856
 H42 H -0.06878 0.34616 1.05433
 C43 C 0.50063 -0.00416 0.48092
 C44 C 0.49956 -0.00412 0.51828
 C45 C 0.45106 -0.00263 0.53968
 C46 C 0.54685 -0.00518 0.53978
 C47 C 0.54913 -0.00270 0.45953
 C48 C 0.45335 -0.00525 0.45941
 C49 C 0.41569 0.03675 0.53486
 C50 C 0.36999 0.03717 0.55499
 C51 C 0.35945 -0.00144 0.58035
 C52 C 0.39494 -0.04025 0.58569
 C53 C 0.44058 -0.04075 0.56556
 C54 C 0.55556 0.03318 0.56576
 C55 C 0.60021 0.03338 0.58578
 C56 C 0.63648 -0.00496 0.58026
 C57 C 0.62767 -0.04387 0.55486
 C58 C 0.58294 -0.04415 0.53482
 C59 C 0.55974 -0.04086 0.43348
 C60 C 0.60538 -0.04040 0.41336
 C61 C 0.64073 -0.00157 0.41886
 C62 C 0.63008 0.03708 0.44439
 C63 C 0.58437 0.03669 0.46452
 C64 C 0.41738 -0.04421 0.46420
 C65 C 0.37264 -0.04397 0.44416
 C66 C 0.36371 -0.00511 0.41893
 C67 C 0.39986 0.03323 0.41358
 C68 C 0.44451 0.03307 0.43360
 H69 H 0.42351 0.06701 0.51552
 H70 H 0.34293 0.06757 0.55082
 H71 H 0.38727 -0.07018 0.60534
 H72 H 0.46752 -0.07121 0.56983
 H73 H 0.52807 0.06338 0.57012
 H74 H 0.60656 0.06356 0.60545
 H75 H 0.57649 -0.07458 0.51539
 H76 H 0.53289 -0.07133 0.42908
 H77 H 0.61314 -0.07036 0.39357
 H78 H 0.65704 0.06748 0.44869
 H79 H 0.57645 0.06699 0.48398
 H80 H 0.42393 -0.07461 0.48350
 H81 H 0.34505 -0.07399 0.44837
 H82 H 0.39342 0.06337 0.39404
 H83 H 0.47191 0.06325 0.42937
 H84 H 0.65537 -0.07390 0.55053
 C85 C 0.11088 0.00597 0.26250
 H86 H 0.11341 0.00828 0.23293
 C87 C 0.15505 0.00572 0.28304
 H88 H 0.19180 0.00783 0.26930
 C89 C 0.05993 0.00029 0.31663
 H90 H 0.02284 -0.00135 0.32966
 C91 C 0.10318 -0.00004 0.33820
 H92 H 0.09926 -0.00235 0.36775
 N93 N 0.06455 0.00236 0.27944
 C94 C -0.03238 -0.06811 0.19802
 H95 H -0.06312 -0.04085 0.19700
 C96 C -0.03375 -0.11213 0.17648
 H97 H -0.06553 -0.11880 0.15870
 C98 C 0.04626 -0.09334 0.22284
 H99 H 0.07697 -0.08647 0.24137
 C100 C 0.04636 -0.13778 0.20181
 H101 H 0.07739 -0.16463 0.20395
 Zn102 Zn 0.00692 0.00082 0.24918
 N103 N 0.00756 -0.05924 0.22027
 C104 C 0.00798 0.05598 0.18196
 N105 N 0.00936 0.05944 0.21916
 C106 C 0.01270 0.10531 0.23633
 C107 C 0.01278 0.15021 0.21604
 C108 C 0.00799 0.10000 0.16062
 C109 C -0.06338 -0.03970 0.30008
 C110 C -0.10781 -0.04139 0.32159
 C111 C -0.13250 0.03958 0.29635
 C112 C -0.08767 0.03979 0.27534
 N113 N -0.05382 0.00083 0.27791
 H114 H 0.00651 0.01924 0.16874
 H115 H 0.01442 0.10691 0.26591
 H116 H 0.01457 0.18659 0.22998
 H117 H 0.00615 0.09702 0.13106
 H118 H -0.03630 -0.07061 0.30110
 H119 H -0.11499 -0.07359 0.33936
 H120 H -0.15910 0.07085 0.29424
 H121 H -0.08025 0.07097 0.25687
 C122 C 0.00612 -0.14716 0.17833
 C123 C 0.15115 0.00226 0.32121
 C124 C -0.14254 -0.00124 0.31979
 C125 C 0.00994 0.14752 0.17787
 C126 C -0.01270 0.10583 0.76348
 H127 H -0.01429 0.10752 0.73390
 C128 C -0.01292 0.15069 0.78407
 H129 H -0.01468 0.18711 0.77037
 C130 C -0.00820 0.05636 0.81754
 H131 H -0.00679 0.01959 0.83053
 C132 C -0.00836 0.10032 0.83917
 H133 H -0.00667 0.09725 0.86872
 N134 N -0.00939 0.05992 0.78035
 C135 C 0.06369 -0.03932 0.69897
 H136 H 0.03669 -0.07022 0.69780
 C137 C 0.10812 -0.04105 0.67745
 H138 H 0.11539 -0.07328 0.65953
 C139 C 0.08775 0.04018 0.72408
 H140 H 0.08024 0.07139 0.74270
 C141 C 0.13258 0.03993 0.70308
 H142 H 0.15909 0.07119 0.70533
 Zn143 Zn -0.00674 0.00129 0.75004
 N144 N 0.05401 0.00124 0.72133
 C145 C -0.05975 0.00061 0.68259
 N146 N -0.06438 0.00276 0.71979
 C147 C -0.11072 0.00643 0.73674
 C148 C -0.15489 0.00614 0.71620
 C149 C -0.10300 0.00024 0.66101
 C150 C 0.03279 -0.06741 0.80094
 C151 C 0.03416 -0.11114 0.82255
 C152 C -0.04600 -0.13685 0.79731
 C153 C -0.04590 -0.09269 0.77620
 N154 N -0.00720 -0.05866 0.77874
 H155 H -0.02266 -0.00106 0.66955
 H156 H -0.11326 0.00880 0.76632
 H157 H -0.19165 0.00828 0.72995
 H158 H -0.09908 -0.00213 0.63145
 H159 H 0.06351 -0.04021 0.80194
 H160 H 0.06593 -0.11766 0.84036
 H161 H -0.07706 -0.16360 0.79526
 H162 H -0.07665 -0.08592 0.75772
 C163 C 0.14274 -0.00092 0.67945
 C164 C -0.01026 0.14788 0.82223
 C165 C -0.00575 -0.14603 0.82081
 C166 C -0.15098 0.00258 0.67802
 C167 C 0.00557 -0.31596 0.10051
 C168 C 0.00569 -0.27692 0.11794
 C169 C 0.00561 -0.23149 0.13865
 C170 C 0.00564 -0.19292 0.15659
 C171 C 0.00274 0.31671 0.10165
 C172 C 0.00436 0.27764 0.11876
 C173 C 0.00651 0.23212 0.13903
 C174 C 0.00826 0.19343 0.15659
 C175 C 0.31243 -0.00126 0.60108
 C176 C 0.27324 -0.00141 0.61867
 C177 C 0.22758 -0.00165 0.63953
 C178 C 0.18880 -0.00159 0.65759
 C179 C -0.31735 -0.00412 0.60070
 C180 C -0.27889 -0.00280 0.61805
 C181 C -0.23413 -0.00087 0.63863
 C182 C -0.19611 0.00082 0.65645
 C183 C -0.00565 -0.31307 0.89967
 C184 C -0.00567 -0.27446 0.88198
 C185 C -0.00546 -0.22952 0.86097
 C186 C -0.00539 -0.19135 0.84278
 C187 C -0.00343 0.31659 0.89985
 C188 C -0.00498 0.27765 0.88240
 C189 C -0.00704 0.23227 0.86172
 C190 C -0.00870 0.19371 0.84384
 C191 C -0.31224 -0.00143 0.39814
 C192 C -0.27304 -0.00162 0.38056
 C193 C -0.22738 -0.00189 0.35969
 C194 C -0.18860 -0.00187 0.34163
 C195 C 0.31754 -0.00430 0.39850
 C196 C 0.27908 -0.00302 0.38115
 C197 C 0.23431 -0.00112 0.36058
 C198 C 0.19629 0.00054 0.34277
   
