data_POSCAR
  _audit_creation_date              2014-09-24
  _audit_creation_method            'ToBaCCo'
  _symmetry_space_group_name_H-M    'P1'
  _symmetry_Int_Tables_number       1
  _symmetry_cell_setting            triclinic
  loop_
  _symmetry_equiv_pos_as_xyz
 x,y,z
_cell_length_a 30.2500
_cell_length_b 30.3125
_cell_length_c 30.3202
_cell_angle_alpha 79.752800
_cell_angle_beta 102.570600
_cell_angle_gamma 100.600400
loop_
  _atom_site_label
  _atom_site_type_symbol
  _atom_site_fract_x
  _atom_site_fract_y
  _atom_site_fract_z
C1 C 0.58499 0.59568 0.00065
 C2 C 0.59464 0.55104 0.00642
 C3 C 0.55813 0.51530 0.01052
 C4 C 0.51267 0.52326 0.00480
 C5 C 0.50452 0.56845 -0.00072
 C6 C 0.54081 0.60516 -0.00044
 C7 C 0.47419 0.48408 0.00457
 C8 C 0.43264 0.48718 0.01685
 C9 C 0.39589 0.45117 0.01423
 C10 C 0.40230 0.41011 0.00298
 C11 C 0.44394 0.40543 -0.00756
 C12 C 0.47868 0.44307 -0.00866
 H13 H 0.61129 0.62376 -0.00650
 H14 H 0.56522 0.48090 0.01980
 H15 H 0.47003 0.57476 -0.00370
 H16 H 0.42845 0.51741 0.02878
 H17 H 0.37473 0.38175 0.00218
 H18 H 0.50911 0.44007 -0.02046
 C19 C 0.00033 0.58389 0.41497
 C20 C 0.00613 0.59395 0.45970
 C21 C 0.00926 0.55759 0.49586
 C22 C 0.00374 0.51228 0.48782
 C23 C -0.00179 0.50396 0.44245
 C24 C -0.00097 0.53972 0.40575
 C25 C 0.00430 0.47390 0.52687
 C26 C 0.01652 0.43211 0.52342
 C27 C 0.01406 0.39516 0.55856
 C28 C 0.00352 0.40146 0.59965
 C29 C -0.00670 0.44334 0.60502
 C30 C -0.00814 0.47850 0.56786
 H31 H -0.00657 0.61011 0.38636
 H32 H 0.01791 0.56464 0.53061
 H33 H -0.00510 0.46962 0.43599
 H34 H 0.02834 0.42776 0.49354
 H35 H 0.00312 0.37364 0.62746
 H36 H -0.01965 0.50928 0.57110
 C37 C 0.59876 0.00724 0.58615
 C38 C 0.55689 0.01835 0.58967
 C39 C 0.52287 0.02312 0.55051
 C40 C 0.52805 0.01250 0.50876
 C41 C 0.57120 0.00262 0.50578
 C42 C 0.60810 0.00200 0.54384
 C43 C 0.48787 0.01023 0.46937
 C44 C 0.49394 0.01461 0.42381
 C45 C 0.45617 0.00911 0.38765
 C46 C 0.41174 0.00185 0.39708
 C47 C 0.40453 0.00053 0.44139
 C48 C 0.44255 0.00278 0.47735
 H49 H 0.62321 0.00075 0.61742
 H50 H 0.49212 0.03485 0.55332
 H51 H 0.57594 -0.00372 0.47351
 H52 H 0.52788 0.02300 0.41590
 H53 H 0.38233 -0.00339 0.36990
 H54 H 0.43624 -0.00094 0.51157
 O55 O 0.46593 0.00593 -0.08464
 O56 O 0.45196 -0.00422 0.03469
 O57 O 0.45241 0.06054 -0.03340
 O58 O 0.46211 -0.06072 -0.01792
 O59 O 0.53712 -0.04420 0.00261
 O60 O 0.52698 0.07671 -0.00925
 O61 O 0.52710 0.00938 0.05683
 O62 O 0.54060 0.02411 -0.06270
 Cu63 Cu 0.45058 -0.00148 -0.02742
 Cu64 Cu 0.54046 0.01804 -0.00098
 C65 C 0.50579 0.01712 -0.09407
 C66 C 0.48718 0.00131 0.06603
 C67 C 0.48786 0.08929 -0.02328
 C68 C 0.50136 -0.07316 -0.00580
 O69 O -0.06008 0.53552 0.99089
 O70 O 0.05987 0.52214 1.00341
 O71 O -0.00907 0.52283 0.93581
 O72 O 0.00827 0.53201 1.05801
 O73 O -0.01191 0.45803 1.07347
 O74 O -0.02725 0.44863 0.95143
 O75 O 0.04203 0.44803 1.02031
 O76 O -0.07977 0.46131 1.00499
 Cu77 Cu 0.00155 0.53551 0.99526
 Cu78 Cu -0.02105 0.44648 1.01389
 C79 C -0.09026 0.50109 0.99684
 C80 C 0.07171 0.48303 1.01410
 C81 C -0.02043 0.48403 0.92278
 C82 C 0.00027 0.49675 1.08654
 O83 O -0.00633 -0.05747 0.46467
 O84 O 0.00419 0.06268 0.47713
 O85 O 0.05807 0.01096 0.46280
 O86 O -0.06228 -0.00571 0.47589
 O87 O -0.04018 -0.01876 0.55075
 O88 O 0.07946 -0.00984 0.53684
 O89 O 0.02920 0.04610 0.55117
 O90 O 0.01127 -0.07527 0.53956
 Cu91 Cu -0.00394 0.00436 0.46269
 Cu92 Cu 0.02199 -0.01612 0.55209
 C93 C 0.00114 -0.08682 0.49990
 C94 C 0.01888 0.07507 0.51629
 C95 C 0.08914 0.00203 0.49724
 C96 C -0.07166 -0.01387 0.51564
 C97 C -0.27164 0.52817 1.00369
 C98 C -0.30905 0.49440 0.99323
 C99 C -0.35316 0.50176 0.99465
 C100 C -0.36036 0.54254 1.00708
 C101 C -0.32143 0.57523 1.01894
 C102 C -0.27749 0.56857 1.01656
 C103 C -0.22538 0.52118 1.00102
 C104 C -0.18816 0.55550 1.01065
 C105 C -0.14436 0.54895 1.00780
 C106 C -0.13734 0.50801 0.99649
 C107 C -0.17491 0.47367 0.98728
 C108 C -0.21922 0.48034 0.98901
 C109 C -0.23926 0.60183 1.02662
 C110 C -0.19537 0.59553 1.02343
 C111 C -0.30168 0.45410 0.98093
 C112 C -0.25750 0.44708 0.97914
 H113 H -0.24335 0.63320 1.03663
 H114 H -0.16683 0.62214 1.03118
 H115 H -0.33030 0.42769 0.97275
 H116 H -0.25332 0.41545 0.96974
 H117 H -0.38171 0.47630 0.98385
 H118 H -0.32455 0.60570 1.03121
 H119 H -0.11550 0.57526 1.01562
 H120 H -0.16966 0.44207 0.97862
 C121 C 0.26017 0.46680 1.02315
 C122 C 0.28881 0.50366 1.00393
 C123 C 0.33358 0.49869 1.00258
 C124 C 0.35004 0.45728 1.02048
 C125 C 0.32122 0.42111 1.04105
 C126 C 0.27606 0.42553 1.04197
 C127 C 0.21225 0.47114 1.02241
 C128 C 0.18301 0.43380 1.04012
 C129 C 0.13696 0.43770 1.03778
 C130 C 0.12042 0.47874 1.01823
 C131 C 0.15059 0.51600 1.00141
 C132 C 0.19636 0.51229 1.00307
 C133 C 0.24611 0.38921 1.06031
 C134 C 0.20034 0.39323 1.05926
 C135 C 0.27175 0.54443 0.98531
 C136 C 0.22632 0.54873 0.98504
 H137 H 0.25796 0.35718 1.07498
 H138 H 0.17824 0.36421 1.07321
 H139 H 0.29357 0.57314 0.97046
 H140 H 0.21439 0.58066 0.97005
 H141 H 0.35495 0.52653 0.98594
 H142 H 0.33361 0.38932 1.05566
 H143 H 0.11407 0.40891 1.05096
 H144 H 0.13824 0.54768 0.98607
 C145 C 0.00610 -0.27060 0.47908
 C146 C -0.00500 -0.30632 0.51302
 C147 C -0.00424 -0.35110 0.50707
 C148 C 0.00803 -0.36060 0.46749
 C149 C 0.02101 -0.32332 0.43494
 C150 C 0.01919 -0.27878 0.44008
 C151 C 0.00390 -0.22364 0.48435
 C152 C 0.01406 -0.18813 0.44974
 C153 C 0.01155 -0.14366 0.45462
 C154 C 0.00020 -0.13435 0.49428
 C155 C -0.00948 -0.17024 0.52897
 C156 C -0.00822 -0.21515 0.52388
 C157 C 0.02992 -0.24224 0.40657
 C158 C 0.02707 -0.19771 0.41116
 C159 C -0.01738 -0.29657 0.55197
 C160 C -0.01866 -0.25175 0.55744
 H161 H 0.04011 -0.24818 0.37626
 H162 H 0.03527 -0.17054 0.38437
 H163 H -0.02604 -0.32380 0.57852
 H164 H -0.02814 -0.24575 0.58808
 H165 H -0.01547 -0.37823 0.53247
 H166 H 0.03361 -0.32828 0.40569
 H167 H 0.01976 -0.11611 0.42813
 H168 H -0.01818 -0.16321 0.55961
 C169 C 0.02441 0.26096 0.53846
 C170 C 0.00344 0.29039 0.50207
 C171 C 0.00130 0.33449 0.50866
 C172 C 0.02008 0.34946 0.55125
 C173 C 0.04198 0.31971 0.58709
 C174 C 0.04390 0.27530 0.58097
 C175 C 0.02491 0.21387 0.53226
 C176 C 0.04459 0.18396 0.56906
 C177 C 0.04339 0.13873 0.56346
 C178 C 0.02278 0.12344 0.52138
 C179 C 0.00408 0.15428 0.48459
 C180 C 0.00476 0.19941 0.48994
 C181 C 0.06411 0.24463 0.61672
 C182 C 0.06436 0.19971 0.61090
 C183 C -0.01589 0.27483 0.46006
 C184 C -0.01514 0.23014 0.45407
 H185 H 0.07935 0.25524 0.64968
 H186 H 0.07979 0.17703 0.63954
 H187 H -0.03209 0.29728 0.43169
 H188 H -0.03077 0.21941 0.42124
 H189 H -0.01637 0.35662 0.48103
 H190 H 0.05713 0.33091 0.61981
 H191 H 0.05799 0.11537 0.59198
 H192 H -0.01202 0.14294 0.45211
 C193 C 0.53259 0.02510 -0.27764
 C194 C 0.57546 0.04398 -0.28874
 C195 C 0.58282 0.04303 -0.33262
 C196 C 0.54791 0.02269 -0.36508
 C197 C 0.50489 0.00446 -0.35343
 C198 C 0.49703 0.00565 -0.30980
 C199 C 0.52511 0.02472 -0.23110
 C200 C 0.48241 0.00532 -0.21984
 C201 C 0.47587 0.00397 -0.17520
 C202 C 0.51191 0.02121 -0.14180
 C203 C 0.55437 0.04099 -0.15388
 C204 C 0.56112 0.04291 -0.19852
 C205 C 0.45462 -0.01303 -0.29741
 C206 C 0.44740 -0.01309 -0.25321
 C207 C 0.61037 0.06268 -0.25546
 C208 C 0.60336 0.06205 -0.21107
 H209 H 0.42689 -0.02805 -0.32198
 H210 H 0.41429 -0.02814 -0.24495
 H211 H 0.64359 0.07741 -0.26363
 H212 H 0.63136 0.07634 -0.18627
 H213 H 0.61582 0.05771 -0.34138
 H214 H 0.47797 -0.01189 -0.37780
 H215 H 0.44314 -0.01149 -0.16623
 H216 H 0.58225 0.05454 -0.12850
 C217 C 0.47074 0.00683 0.25018
 C218 C 0.50369 -0.00935 0.28681
 C219 C 0.49926 -0.00796 0.33167
 C220 C 0.46265 0.01029 0.34003
 C221 C 0.43090 0.02779 0.30253
 C222 C 0.43429 0.02538 0.25771
 C223 C 0.47437 0.00414 0.20303
 C224 C 0.44068 0.01923 0.16651
 C225 C 0.44418 0.01648 0.12176
 C226 C 0.48176 0.00013 0.11340
 C227 C 0.51540 -0.01463 0.15034
 C228 C 0.51154 -0.01324 0.19535
 C229 C 0.40160 0.04069 0.22027
 C230 C 0.40456 0.03738 0.17545
 C231 C 0.54011 -0.02704 0.27780
 C232 C 0.54416 -0.02863 0.23284
 H233 H 0.37325 0.05501 0.22567
 H234 H 0.37851 0.04935 0.14757
 H235 H 0.56581 -0.03958 0.30573
 H236 H 0.57295 -0.04221 0.22740
 H237 H 0.52366 -0.02209 0.35995
 H238 H 0.40327 0.04306 0.30811
 H239 H 0.41858 0.02850 0.09336
 H240 H 0.54439 -0.02725 0.14398
 C241 C 0.52205 -0.25932 -0.00016
 C242 C 0.56472 -0.27305 0.01882
 C243 C 0.57036 -0.31780 0.01870
 C244 C 0.53392 -0.34945 -0.00082
 C245 C 0.49100 -0.33460 -0.01947
 C246 C 0.48500 -0.28974 -0.01920
 C247 C 0.51618 -0.21202 -0.00031
 C248 C 0.47352 -0.19805 -0.01952
 C249 C 0.46841 -0.15278 -0.02027
 C250 C 0.50580 -0.12155 -0.00241
 C251 C 0.54818 -0.13641 0.01713
 C252 C 0.55352 -0.18157 0.01833
 C253 C 0.44274 -0.27453 -0.03800
 C254 C 0.43708 -0.22951 -0.03810
 C255 C 0.60113 -0.24176 0.03774
 C256 C 0.59566 -0.19676 0.03739
 H257 H 0.41379 -0.29760 -0.05286
 H258 H 0.40397 -0.21920 -0.05308
 H259 H 0.63426 -0.25206 0.05266
 H260 H 0.62471 -0.17362 0.05198
 H261 H 0.60305 -0.32804 0.03558
 H262 H 0.46250 -0.35690 -0.03601
 H263 H 0.43569 -0.14169 -0.03558
 H264 H 0.57713 -0.11278 0.03110
 C265 C 0.46570 0.27381 -0.02378
 C266 C 0.42311 0.28794 -0.04311
 C267 C 0.41654 0.33163 -0.03929
 C268 C 0.45197 0.36081 -0.01561
 C269 C 0.49473 0.34620 0.00284
 C270 C 0.50178 0.30281 -0.00119
 C271 C 0.47222 0.22730 -0.02605
 C272 C 0.51453 0.21290 -0.00588
 C273 C 0.51999 0.16811 -0.00654
 C274 C 0.48326 0.13758 -0.02649
 C275 C 0.44131 0.15288 -0.04730
 C276 C 0.43562 0.19773 -0.04718
 C277 C 0.54386 0.28744 0.01794
 C278 C 0.55016 0.24327 0.01554
 C279 C 0.38764 0.25773 -0.06498
 C280 C 0.39375 0.21334 -0.06687
 H281 H 0.57200 0.30958 0.03536
 H282 H 0.58298 0.23259 0.03118
 H283 H 0.35465 0.26824 -0.08012
 H284 H 0.36529 0.19089 -0.08343
 H285 H 0.38375 0.34268 -0.05427
 H286 H 0.52204 0.36798 0.02174
 H287 H 0.55235 0.15667 0.00973
 H288 H 0.41286 0.12973 -0.06289
 C289 C -0.25642 -0.01046 0.53357
 C290 C -0.29329 -0.02446 0.49964
 C291 C -0.33817 -0.02149 0.50342
 C292 C -0.34670 -0.00330 0.54034
 C293 C -0.30818 0.01115 0.57356
 C294 C -0.26360 0.00695 0.57075
 C295 C -0.20922 -0.01324 0.52970
 C296 C -0.17244 0.00055 0.56399
 C297 C -0.12763 -0.00154 0.55993
 C298 C -0.11932 -0.01587 0.52121
 C299 C -0.15654 -0.02956 0.48704
 C300 C -0.20170 -0.02880 0.49141
 C301 C -0.22590 0.02059 0.60430
 C302 C -0.18114 0.01711 0.60116
 C303 C -0.28449 -0.04092 0.46233
 C304 C -0.23949 -0.04272 0.45812
 H305 H -0.23104 0.03407 0.63329
 H306 H -0.15306 0.02802 0.62775
 H307 H -0.31259 -0.05193 0.43581
 H308 H -0.23426 -0.05501 0.42848
 H309 H -0.36587 -0.03453 0.47781
 H310 H -0.31179 0.02780 0.60099
 H311 H -0.09910 0.00960 0.58603
 H312 H -0.15031 -0.04070 0.45719
 C313 C 0.27004 0.00123 0.46616
 C314 C 0.28291 0.02535 0.42580
 C315 C 0.32663 0.02442 0.41786
 C316 C 0.35740 -0.00089 0.44960
 C317 C 0.34353 -0.02548 0.48968
 C318 C 0.30003 -0.02421 0.49828
 C319 C 0.22426 0.00267 0.47494
 C320 C 0.21146 -0.02106 0.51553
 C321 C 0.16768 -0.01991 0.52346
 C322 C 0.13657 0.00405 0.49070
 C323 C 0.15017 0.02787 0.45032
 C324 C 0.19404 0.02750 0.44239
 C325 C 0.28595 -0.04764 0.53845
 C326 C 0.24249 -0.04598 0.54699
 C327 C 0.25192 0.05022 0.39427
 C328 C 0.20816 0.05111 0.40233
 H329 H 0.30876 -0.06734 0.56358
 H330 H 0.23302 -0.06455 0.57839
 H331 H 0.26149 0.06900 0.36300
 H332 H 0.18518 0.07044 0.37699
 H333 H 0.33702 0.04426 0.38736
 H334 H 0.36643 -0.04564 0.51412
 H335 H 0.15737 -0.03870 0.55443
 H336 H 0.12653 0.04648 0.42498
 C337 C 0.00263 0.51916 1.27161
 C338 C 0.02139 0.56110 1.28620
 C339 C 0.02001 0.56739 1.33044
 C340 C -0.00053 0.53234 1.36069
 C341 C -0.01903 0.49015 1.34498
 C342 C -0.01749 0.48349 1.30065
 C343 C 0.00381 0.51262 1.22483
 C344 C -0.01526 0.47072 1.20996
 C345 C -0.01499 0.46509 1.16504
 C346 C 0.00366 0.50126 1.13501
 C347 C 0.02322 0.54280 1.15084
 C348 C 0.02342 0.54864 1.19568
 C349 C -0.03605 0.44193 1.28460
 C350 C -0.03490 0.43564 1.24007
 C351 C 0.04138 0.59613 1.25629
 C352 C 0.04226 0.59005 1.21174
 H353 H -0.05171 0.41405 1.30661
 H354 H -0.04978 0.40314 1.22904
 H355 H 0.05614 0.62868 1.26728
 H356 H 0.05758 0.61807 1.18961
 H357 H 0.03680 0.59939 1.34153
 H358 H -0.03637 0.46279 1.36608
 H359 H -0.03038 0.43306 1.15315
 H360 H 0.03775 0.57081 1.12811
 C361 C -0.02200 0.46372 0.73723
 C362 C -0.00034 0.49943 0.70937
 C363 C 0.00349 0.49283 0.66583
 C364 C -0.01435 0.45093 0.64985
 C365 C -0.03714 0.41591 0.67792
 C366 C -0.04063 0.42198 0.72181
 C367 C -0.02406 0.46975 0.78395
 C368 C -0.04414 0.43346 0.81247
 C369 C -0.04400 0.43866 0.85759
 C370 C -0.02412 0.47986 0.87412
 C371 C -0.00529 0.51630 0.84456
 C372 C -0.00476 0.51128 0.79958
 C373 C -0.06149 0.38683 0.75097
 C374 C -0.06308 0.39242 0.79557
 C375 C 0.01802 0.54069 0.72601
 C376 C 0.01572 0.54656 0.77030
 H377 H -0.07608 0.35447 0.73947
 H378 H -0.07884 0.36421 0.81717
 H379 H 0.03472 0.56855 0.70477
 H380 H 0.03072 0.57878 0.78195
 H381 H 0.02174 0.51984 0.64503
 H382 H -0.05176 0.38380 0.66588
 H383 H -0.05871 0.41046 0.87999
 H384 H 0.01035 0.54805 0.85696
   
