data_POSCAR
  _audit_creation_date              2014-09-24
  _audit_creation_method            'ToBaCCo'
  _symmetry_space_group_name_H-M    'P1'
  _symmetry_Int_Tables_number       1
  _symmetry_cell_setting            triclinic
  loop_
  _symmetry_equiv_pos_as_xyz
 x,y,z
_cell_length_a 61.8715
_cell_length_b 61.8442
_cell_length_c 61.9594
_cell_angle_alpha 90.008900
_cell_angle_beta 89.992600
_cell_angle_gamma 90.044600
loop_
  _atom_site_label
  _atom_site_type_symbol
  _atom_site_fract_x
  _atom_site_fract_y
  _atom_site_fract_z
N1 N 0.16269 0.21616 0.21743
 N2 N 0.16750 0.19927 0.22942
 C3 C 0.15264 0.19731 0.24520
 C4 C 0.13790 0.21386 0.24287
 C5 C 0.14466 0.22555 0.22516
 H6 H 0.15265 0.18503 0.25762
 H7 H 0.13726 0.23998 0.21865
 Cu8 Cu 0.19298 0.18194 0.22307
 Cu9 Cu 0.18111 0.22550 0.19366
 Cu10 Cu 0.22431 0.19233 0.18017
 N11 N 0.21804 0.16405 0.21663
 N12 N 0.23011 0.16819 0.19962
 C13 C 0.24605 0.15344 0.19840
 C14 C 0.24376 0.13939 0.21550
 C15 C 0.22588 0.14644 0.22678
 H16 H 0.25832 0.15291 0.18599
 H17 H 0.21908 0.13919 0.24114
 N18 N 0.21565 0.21766 0.16277
 N19 N 0.19910 0.23020 0.16783
 C20 C 0.19750 0.24612 0.15309
 C21 C 0.21383 0.24346 0.13824
 C22 C 0.22506 0.22537 0.14472
 H23 H 0.18554 0.25886 0.15323
 H24 H 0.23916 0.21853 0.13699
 H25 H 0.19144 0.19472 0.18603
 H26 H 0.21002 0.21130 0.20296
 N27 N 0.66336 0.71672 0.71770
 N28 N 0.66827 0.69992 0.72976
 C29 C 0.65387 0.69841 0.74601
 C30 C 0.63930 0.71512 0.74389
 C31 C 0.64568 0.72645 0.72583
 H32 H 0.65390 0.68613 0.75844
 H33 H 0.63805 0.74069 0.71915
 Cu34 Cu 0.69298 0.68172 0.72288
 Cu35 Cu 0.68031 0.72482 0.69247
 Cu36 Cu 0.72469 0.69276 0.68028
 N37 N 0.71799 0.66391 0.71604
 N38 N 0.73027 0.66833 0.69927
 C39 C 0.74630 0.65369 0.69807
 C40 C 0.74389 0.63944 0.71497
 C41 C 0.72584 0.64625 0.72611
 H42 H 0.75879 0.65342 0.68585
 H43 H 0.71901 0.63889 0.74040
 N44 N 0.71636 0.71819 0.66304
 N45 N 0.69945 0.73037 0.66767
 C46 C 0.69809 0.74645 0.65308
 C47 C 0.71492 0.74419 0.63874
 C48 C 0.72622 0.72622 0.64537
 H49 H 0.68586 0.75893 0.65289
 H50 H 0.74055 0.71957 0.63790
 H51 H 0.69178 0.69419 0.68555
 H52 H 0.70916 0.71163 0.70296
 N53 N 0.33634 0.78379 0.71772
 N54 N 0.33146 0.80060 0.72980
 C55 C 0.34601 0.80219 0.74592
 C56 C 0.36060 0.78550 0.74371
 C57 C 0.35410 0.77411 0.72573
 H58 H 0.34600 0.81446 0.75835
 H59 H 0.36167 0.75985 0.71903
 Cu60 Cu 0.30643 0.81855 0.72331
 Cu61 Cu 0.31924 0.77562 0.69262
 Cu62 Cu 0.27492 0.80769 0.68046
 N63 N 0.28170 0.83668 0.71614
 N64 N 0.26943 0.83225 0.69935
 C65 C 0.25346 0.84699 0.69806
 C66 C 0.25596 0.86130 0.71492
 C67 C 0.27395 0.85444 0.72612
 H68 H 0.24097 0.84722 0.68585
 H69 H 0.28080 0.86178 0.74042
 N70 N 0.28312 0.78215 0.66327
 N71 N 0.30002 0.76996 0.66791
 C72 C 0.30134 0.75384 0.65333
 C73 C 0.28452 0.75608 0.63899
 C74 C 0.27325 0.77410 0.64561
 H75 H 0.31358 0.74137 0.65313
 H76 H 0.25895 0.78077 0.63812
 H77 H 0.30783 0.80634 0.68592
 H78 H 0.29037 0.78874 0.70311
 N79 N 0.83741 0.28329 0.21800
 N80 N 0.83259 0.30019 0.22997
 C81 C 0.84705 0.30177 0.24617
 C82 C 0.86152 0.28498 0.24409
 C83 C 0.85507 0.27352 0.22614
 H84 H 0.84703 0.31409 0.25857
 H85 H 0.86258 0.25917 0.21954
 Cu86 Cu 0.80765 0.31816 0.22333
 Cu87 Cu 0.82037 0.27509 0.19286
 Cu88 Cu 0.77612 0.30725 0.18058
 N89 N 0.78291 0.33623 0.21624
 N90 N 0.77061 0.33178 0.19949
 C91 C 0.75457 0.34642 0.19829
 C92 C 0.75700 0.36070 0.21517
 C93 C 0.77506 0.35390 0.22629
 H94 H 0.74203 0.34662 0.18613
 H95 H 0.78185 0.36121 0.24063
 N96 N 0.78434 0.28173 0.16340
 N97 N 0.80118 0.26947 0.16811
 C98 C 0.80253 0.25338 0.15351
 C99 C 0.78578 0.25572 0.13908
 C100 C 0.77454 0.27375 0.14568
 H101 H 0.81474 0.24089 0.15333
 H102 H 0.76031 0.28049 0.13812
 H103 H 0.80898 0.30571 0.18606
 H104 H 0.79148 0.28826 0.20335
 N105 N 0.83671 0.71678 0.28222
 N106 N 0.83176 0.69999 0.27015
 C107 C 0.84622 0.69838 0.25397
 C108 C 0.86086 0.71505 0.25611
 C109 C 0.85447 0.72644 0.27413
 H110 H 0.84617 0.68608 0.24157
 H111 H 0.86214 0.74066 0.28083
 Cu112 Cu 0.80694 0.68189 0.27695
 Cu113 Cu 0.81975 0.72489 0.30744
 Cu114 Cu 0.77549 0.69262 0.31978
 N115 N 0.78208 0.66389 0.28390
 N116 N 0.76992 0.66816 0.30079
 C117 C 0.75399 0.65338 0.30207
 C118 C 0.75638 0.63919 0.28511
 C119 C 0.77429 0.64619 0.27385
 H120 H 0.74160 0.65298 0.31438
 H121 H 0.78106 0.63893 0.25949
 N122 N 0.78377 0.71811 0.33698
 N123 N 0.80060 0.73041 0.33225
 C124 C 0.80188 0.74657 0.34677
 C125 C 0.78512 0.74423 0.36118
 C126 C 0.77392 0.72613 0.35465
 H127 H 0.81402 0.75915 0.34688
 H128 H 0.75965 0.71940 0.36218
 H129 H 0.80842 0.69419 0.31435
 H130 H 0.79089 0.71165 0.29718
 N131 N 0.33691 0.21672 -0.21814
 N132 N 0.33198 0.19991 -0.23022
 C133 C 0.34651 0.19829 -0.24637
 C134 C 0.36116 0.21497 -0.24417
 C135 C 0.35470 0.22638 -0.22617
 H136 H 0.34649 0.18596 -0.25875
 H137 H 0.36235 0.24060 -0.21942
 Cu138 Cu 0.30706 0.18187 -0.22337
 Cu139 Cu 0.31984 0.22484 -0.19291
 Cu140 Cu 0.27549 0.19261 -0.18066
 N141 N 0.28216 0.16380 -0.21652
 N142 N 0.26994 0.16813 -0.19968
 C143 C 0.25398 0.15337 -0.19842
 C144 C 0.25638 0.13913 -0.21534
 C145 C 0.27436 0.14609 -0.22656
 H146 H 0.24155 0.15303 -0.18615
 H147 H 0.28116 0.13878 -0.24088
 N148 N 0.28376 0.21812 -0.16342
 N149 N 0.30062 0.23040 -0.16809
 C150 C 0.30189 0.24652 -0.15351
 C151 C 0.28508 0.24418 -0.13913
 C152 C 0.27388 0.22611 -0.14574
 H153 H 0.31406 0.25907 -0.15333
 H154 H 0.25960 0.21938 -0.13825
 H155 H 0.30840 0.19415 -0.18596
 H156 H 0.29094 0.21162 -0.20319
 N157 N 0.66310 0.28315 -0.21800
 N158 N 0.66803 0.29995 -0.23010
 C159 C 0.65352 0.30153 -0.24626
 C160 C 0.63888 0.28485 -0.24405
 C161 C 0.64532 0.27347 -0.22603
 H162 H 0.65354 0.31385 -0.25866
 H163 H 0.63768 0.25926 -0.21929
 Cu164 Cu 0.69290 0.31804 -0.22329
 Cu165 Cu 0.68015 0.27509 -0.19276
 Cu166 Cu 0.72450 0.30733 -0.18055
 N167 N 0.71779 0.33609 -0.21642
 N168 N 0.73002 0.33177 -0.19958
 C169 C 0.74597 0.34655 -0.19834
 C170 C 0.74353 0.36077 -0.21526
 C171 C 0.72557 0.35380 -0.22646
 H172 H 0.75840 0.34691 -0.18608
 H173 H 0.71875 0.36111 -0.24078
 N174 N 0.71623 0.28186 -0.16329
 N175 N 0.69936 0.26958 -0.16794
 C176 C 0.69808 0.25349 -0.15333
 C177 C 0.71489 0.25584 -0.13897
 C178 C 0.72611 0.27389 -0.14561
 H179 H 0.68591 0.24094 -0.15313
 H180 H 0.74040 0.28063 -0.13814
 H181 H 0.69161 0.30580 -0.18585
 H182 H 0.70906 0.28832 -0.20306
 N183 N 0.16333 0.78377 0.28232
 N184 N 0.16831 0.80054 0.27022
 C185 C 0.15391 0.80204 0.25396
 C186 C 0.13929 0.78535 0.25611
 C187 C 0.14562 0.77405 0.27420
 H188 H 0.15400 0.81428 0.24150
 H189 H 0.13797 0.75983 0.28090
 Cu190 Cu 0.19315 0.81864 0.27702
 Cu191 Cu 0.18030 0.77565 0.30753
 Cu192 Cu 0.22488 0.80757 0.31957
 N193 N 0.21804 0.83665 0.28398
 N194 N 0.23043 0.83212 0.30064
 C195 C 0.24644 0.84683 0.30189
 C196 C 0.24385 0.86124 0.28514
 C197 C 0.22576 0.85445 0.27403
 H198 H 0.25899 0.84703 0.31404
 H199 H 0.21881 0.86190 0.25984
 N200 N 0.21656 0.78207 0.33680
 N201 N 0.19948 0.77004 0.33230
 C202 C 0.19804 0.75399 0.34694
 C203 C 0.21499 0.75610 0.36117
 C204 C 0.22644 0.77396 0.35441
 H205 H 0.18567 0.74164 0.34724
 H206 H 0.24088 0.78049 0.36178
 H207 H 0.19192 0.80624 0.31441
 H208 H 0.20915 0.78869 0.29702
 N209 N 0.46653 0.41296 0.46785
 N210 N 0.44976 0.41787 0.47995
 C211 C 0.44820 0.40339 0.49613
 C212 C 0.46487 0.38878 0.49397
 C213 C 0.47623 0.39522 0.47593
 H214 H 0.43590 0.40340 0.50854
 H215 H 0.49048 0.38763 0.46924
 Cu216 Cu 0.43162 0.44264 0.47310
 Cu217 Cu 0.47460 0.43000 0.44261
 Cu218 Cu 0.44251 0.47440 0.43049
 N219 N 0.41365 0.46752 0.46626
 N220 N 0.41805 0.47984 0.44951
 C221 C 0.40330 0.49578 0.44826
 C222 C 0.38898 0.49321 0.46509
 C223 C 0.39588 0.47521 0.47623
 H224 H 0.40302 0.50830 0.43609
 H225 H 0.38847 0.46827 0.49046
 N226 N 0.46798 0.46617 0.41324
 N227 N 0.48014 0.44922 0.41781
 C228 C 0.49617 0.44788 0.40314
 C229 C 0.49390 0.46474 0.38882
 C230 C 0.47596 0.47604 0.39555
 H231 H 0.50861 0.43561 0.40287
 H232 H 0.46928 0.49038 0.38812
 H233 H 0.46143 0.45893 0.45306
 H234 H 0.44394 0.44155 0.43573
 N235 N -0.03354 -0.08668 0.96766
 N236 N -0.05035 -0.08181 0.97974
 C237 C -0.05189 -0.09628 0.99592
 C238 C -0.03517 -0.11083 0.99377
 C239 C -0.02382 -0.10439 0.97575
 H240 H -0.06417 -0.09627 1.00834
 H241 H -0.00957 -0.11198 0.96905
 Cu242 Cu -0.06853 -0.05704 0.97313
 Cu243 Cu -0.02550 -0.06963 0.94249
 Cu244 Cu -0.05761 -0.02536 0.93035
 N245 N -0.08640 -0.03216 0.96611
 N246 N -0.08202 -0.01987 0.94933
 C247 C -0.09671 -0.00388 0.94813
 C248 C -0.11094 -0.00636 0.96503
 C249 C -0.10408 -0.02438 0.97616
 H250 H -0.09701 0.00862 0.93593
 H251 H -0.11140 -0.03123 0.99046
 N252 N -0.03219 -0.03356 0.91308
 N253 N -0.01996 -0.05045 0.91770
 C254 C -0.00393 -0.05178 0.90303
 C255 C -0.00628 -0.03498 0.88866
 C256 C -0.02426 -0.02372 0.89535
 H257 H 0.00855 -0.06401 0.90279
 H258 H -0.03100 -0.00944 0.88787
 H259 H -0.03876 -0.04077 0.95309
 H260 H -0.05625 -0.05824 0.93577
 N261 N 1.03364 0.58677 0.96768
 N262 N 1.05034 0.58179 0.97984
 C263 C 1.05190 0.59625 0.99605
 C264 C 1.03529 0.61091 0.99381
 C265 C 1.02399 0.60454 0.97573
 H266 H 1.06412 0.59617 1.00852
 H267 H 1.00983 0.61224 0.96896
 Cu268 Cu 1.06836 0.55696 0.97303
 Cu269 Cu 1.02558 0.56978 0.94243
 Cu270 Cu 1.05770 0.52538 0.93030
 N271 N 1.08638 0.53215 0.96621
 N272 N 1.08209 0.51991 0.94937
 C273 C 1.09685 0.50398 0.94814
 C274 C 1.11102 0.50645 0.96508
 C275 C 1.10407 0.52440 0.97628
 H276 H 1.09723 0.49154 0.93588
 H277 H 1.11134 0.53123 0.99062
 N278 N 1.03228 0.53366 0.91302
 N279 N 1.02008 0.55058 0.91762
 C280 C 1.00401 0.55187 0.90300
 C281 C 1.00631 0.53501 0.88868
 C282 C 1.02429 0.52375 0.89536
 H283 H 0.99152 0.56409 0.90277
 H284 H 1.03095 0.50941 0.88793
 H285 H 1.03868 0.54085 0.95277
 H286 H 1.05627 0.55829 0.93560
 N287 N 0.53380 0.08687 0.46777
 N288 N 0.55049 0.08185 0.47994
 C289 C 0.55204 0.09628 0.49618
 C290 C 0.53545 0.11097 0.49397
 C291 C 0.52415 0.10464 0.47585
 H292 H 0.56425 0.09615 0.50866
 H293 H 0.51000 0.11234 0.46909
 Cu294 Cu 0.56849 0.05702 0.47309
 Cu295 Cu 0.52575 0.06986 0.44248
 Cu296 Cu 0.55787 0.02545 0.43032
 N297 N 0.58654 0.03225 0.46624
 N298 N 0.58225 0.02001 0.44939
 C299 C 0.59703 0.00412 0.44813
 C300 C 0.61122 0.00661 0.46506
 C301 C 0.60425 0.02453 0.47628
 H302 H 0.59743 -0.00832 0.43587
 H303 H 0.61153 0.03136 0.49061
 N304 N 0.53244 0.03372 0.41305
 N305 N 0.52025 0.05066 0.41763
 C306 C 0.50418 0.05194 0.40301
 C307 C 0.50645 0.03506 0.38871
 C308 C 0.52442 0.02380 0.39540
 H309 H 0.49169 0.06415 0.40279
 H310 H 0.53108 0.00943 0.38800
 H311 H 0.53886 0.04088 0.45279
 H312 H 0.55646 0.05831 0.43563
 N313 N -0.03369 0.08693 0.53209
 N314 N -0.05055 0.08205 0.52008
 C315 C -0.05221 0.09658 0.50396
 C316 C -0.03551 0.11117 0.50609
 C317 C -0.02404 0.10470 0.52402
 H318 H -0.06457 0.09660 0.49163
 H319 H -0.00978 0.11233 0.53068
 Cu320 Cu -0.06856 0.05724 0.52690
 Cu321 Cu -0.02559 0.06991 0.55731
 Cu322 Cu -0.05794 0.02571 0.56968
 N323 N -0.08658 0.03243 0.53373
 N324 N -0.08234 0.02024 0.55061
 C325 C -0.09711 0.00431 0.55185
 C326 C -0.11123 0.00673 0.53487
 C327 C -0.10425 0.02465 0.52364
 H328 H -0.09753 -0.00811 0.56413
 H329 H -0.11149 0.03143 0.50928
 N330 N -0.03248 0.03398 0.58691
 N331 N -0.02010 0.05074 0.58214
 C332 C -0.00398 0.05200 0.59671
 C333 C -0.00643 0.03531 0.61119
 C334 C -0.02456 0.02417 0.60465
 H335 H 0.00864 0.06410 0.59680
 H336 H -0.03138 0.00996 0.61222
 H337 H -0.03894 0.04099 0.54710
 H338 H -0.05634 0.05859 0.56429
 N339 N 0.46670 0.58682 0.03237
 N340 N 0.44987 0.58196 0.02032
 C341 C 0.44835 0.59642 0.00414
 C342 C 0.46509 0.61097 0.00626
 C343 C 0.47646 0.60452 0.02427
 H344 H 0.43606 0.59642 -0.00826
 H345 H 0.49072 0.61212 0.03095
 Cu346 Cu 0.43162 0.55721 0.02698
 Cu347 Cu 0.47472 0.56979 0.05756
 Cu348 Cu 0.44246 0.52560 0.06980
 N349 N 0.41367 0.53235 0.03404
 N350 N 0.41801 0.52010 0.05085
 C351 C 0.40326 0.50413 0.05209
 C352 C 0.38904 0.50659 0.03518
 C353 C 0.39597 0.52457 0.02401
 H354 H 0.40292 0.49167 0.06433
 H355 H 0.38868 0.53138 0.00968
 N356 N 0.46792 0.53379 0.08704
 N357 N 0.48021 0.55063 0.08236
 C358 C 0.49631 0.55192 0.09696
 C359 C 0.49394 0.53514 0.11135
 C360 C 0.47588 0.52393 0.10473
 H361 H 0.50887 0.56409 0.09712
 H362 H 0.46912 0.50965 0.11223
 H363 H 0.46136 0.54097 0.04703
 H364 H 0.44393 0.55851 0.06433
 N365 N 0.53355 -0.08690 0.03245
 N366 N 0.55041 -0.08205 0.02044
 C367 C 0.55197 -0.09651 0.00424
 C368 C 0.53522 -0.11105 0.00632
 C369 C 0.52381 -0.10460 0.02432
 H370 H 0.56427 -0.09649 -0.00816
 H371 H 0.50953 -0.11220 0.03096
 Cu372 Cu 0.56848 -0.05722 0.02720
 Cu373 Cu 0.52544 -0.06984 0.05764
 Cu374 Cu 0.55768 -0.02551 0.06985
 N375 N 0.58660 -0.03248 0.03418
 N376 N 0.58220 -0.02013 0.05090
 C377 C 0.59697 -0.00418 0.05212
 C378 C 0.61126 -0.00675 0.03528
 C379 C 0.60436 -0.02478 0.02417
 H380 H 0.59728 0.00835 0.06429
 H381 H 0.61168 -0.03167 0.00988
 N382 N 0.53214 -0.03371 0.08706
 N383 N 0.51990 -0.05061 0.08243
 C384 C 0.50382 -0.05191 0.09704
 C385 C 0.50613 -0.03508 0.11139
 C386 C 0.52415 -0.02382 0.10473
 H387 H 0.49132 -0.06414 0.09725
 H388 H 0.53086 -0.00951 0.11220
 H389 H 0.53874 -0.04098 0.04728
 H390 H 0.55614 -0.05842 0.06461
 N391 N 1.03334 0.41327 0.53198
 N392 N 1.05015 0.41818 0.51991
 C393 C 1.05173 0.40369 0.50374
 C394 C 1.03503 0.38910 0.50590
 C395 C 1.02364 0.39553 0.52390
 H396 H 1.06404 0.40369 0.49136
 H397 H 1.00941 0.38789 0.53060
 Cu398 Cu 1.06826 0.44292 0.52677
 Cu399 Cu 1.02531 0.43023 0.55726
 Cu400 Cu 1.05770 0.47442 0.56960
 N401 N 1.08630 0.46773 0.53362
 N402 N 1.08209 0.47991 0.55052
 C403 C 1.09687 0.49582 0.55176
 C404 C 1.11100 0.49341 0.53477
 C405 C 1.10398 0.47550 0.52353
 H406 H 1.09730 0.50824 0.56405
 H407 H 1.11121 0.46872 0.50915
 N408 N 1.03224 0.46616 0.58685
 N409 N 1.01988 0.44937 0.58212
 C410 C 1.00378 0.44810 0.59671
 C411 C 1.00622 0.46483 0.61115
 C412 C 1.02432 0.47599 0.60458
 H413 H 0.99117 0.43599 0.59683
 H414 H 1.03112 0.49022 0.61212
 H415 H 1.03863 0.45913 0.54703
 H416 H 1.05605 0.44152 0.56418
 C417 C 0.35123 -0.01939 0.25501
 C418 C 0.36262 -0.00032 0.25026
 C419 C 0.35123 0.01873 0.24550
 C420 C 0.32858 0.01870 0.24550
 C421 C 0.31732 -0.00035 0.25023
 C422 C 0.32857 -0.01939 0.25498
 C423 C 0.38641 -0.00028 0.25024
 C424 C 0.39779 -0.00495 0.23119
 C425 C 0.42045 -0.00485 0.23118
 C426 C 0.43171 -0.00009 0.25017
 C427 C 0.42047 0.00456 0.26920
 C428 C 0.39782 0.00448 0.26926
 H429 H 0.35998 -0.03411 0.25869
 H430 H 0.35999 0.03348 0.24184
 H431 H 0.38904 -0.00862 0.21648
 H432 H 0.38908 0.00811 0.28399
 H433 H 0.29978 -0.00036 0.25021
 H434 H 0.44925 -0.00002 0.25014
 C435 C 0.14848 -0.01953 0.74500
 C436 C 0.13709 -0.00046 0.74968
 C437 C 0.14848 0.01861 0.75443
 C438 C 0.17113 0.01860 0.75448
 C439 C 0.18239 -0.00046 0.74981
 C440 C 0.17114 -0.01952 0.74507
 C441 C 0.11330 -0.00044 0.74968
 C442 C 0.10190 -0.00508 0.76872
 C443 C 0.07925 -0.00489 0.76874
 C444 C 0.06800 -0.00008 0.74976
 C445 C 0.07926 0.00454 0.73074
 C446 C 0.10192 0.00437 0.73067
 H447 H 0.13972 -0.03428 0.74133
 H448 H 0.13972 0.03335 0.75805
 H449 H 0.11064 -0.00879 0.78343
 H450 H 0.11067 0.00798 0.71594
 H451 H 0.19992 -0.00045 0.74986
 H452 H 0.05046 0.00007 0.74980
 C453 C 0.64872 0.48061 0.24531
 C454 C 0.63732 0.49966 0.25001
 C455 C 0.64867 0.51874 0.25475
 C456 C 0.67132 0.51875 0.25478
 C457 C 0.68260 0.49972 0.25010
 C458 C 0.67137 0.48066 0.24538
 C459 C 0.61354 0.49964 0.24999
 C460 C 0.60214 0.49491 0.26901
 C461 C 0.57949 0.49498 0.26898
 C462 C 0.56825 0.49975 0.24998
 C463 C 0.57953 0.50446 0.23099
 C464 C 0.60218 0.50442 0.23096
 H465 H 0.63998 0.46586 0.24163
 H466 H 0.63990 0.53347 0.25839
 H467 H 0.61088 0.49123 0.28372
 H468 H 0.61095 0.50809 0.21626
 H469 H 0.70014 0.49975 0.25015
 H470 H 0.55072 0.49981 0.24998
 C471 C 0.85162 0.48104 0.75465
 C472 C 0.86300 0.50010 0.74989
 C473 C 0.85164 0.51915 0.74513
 C474 C 0.82900 0.51912 0.74513
 C475 C 0.81772 0.50009 0.74988
 C476 C 0.82897 0.48106 0.75463
 C477 C 0.88678 0.50010 0.74989
 C478 C 0.89815 0.49539 0.73086
 C479 C 0.92080 0.49536 0.73091
 C480 C 0.93206 0.50002 0.74992
 C481 C 0.92080 0.50473 0.76892
 C482 C 0.89815 0.50479 0.76893
 H483 H 0.86036 0.46631 0.75832
 H484 H 0.86041 0.53389 0.74146
 H485 H 0.88941 0.49177 0.71614
 H486 H 0.88940 0.50844 0.78365
 H487 H 0.80019 0.50009 0.74989
 H488 H 0.94960 0.49998 0.74994
 C489 C 0.25458 0.35200 -0.01906
 C490 C 0.24992 0.36338 -0.00001
 C491 C 0.24509 0.35200 0.01899
 C492 C 0.24495 0.32935 0.01893
 C493 C 0.24961 0.31808 -0.00009
 C494 C 0.25442 0.32934 -0.01907
 C495 C 0.24996 0.38715 0.00001
 C496 C 0.23091 0.39852 -0.00470
 C497 C 0.23095 0.42117 -0.00464
 C498 C 0.24996 0.43245 0.00009
 C499 C 0.26898 0.42119 0.00478
 C500 C 0.26901 0.39853 0.00476
 H501 H 0.25828 0.36076 -0.03376
 H502 H 0.24146 0.36076 0.03371
 H503 H 0.21617 0.38977 -0.00837
 H504 H 0.28375 0.38979 0.00841
 H505 H 0.24948 0.30054 -0.00011
 H506 H 0.24995 0.44999 0.00012
 C507 C 0.74550 0.14808 -0.01900
 C508 C 0.75020 0.13668 0.00002
 C509 C 0.75506 0.14803 0.01903
 C510 C 0.75522 0.17068 0.01900
 C511 C 0.75055 0.18198 0.00001
 C512 C 0.74569 0.17074 -0.01898
 C513 C 0.75013 0.11291 0.00000
 C514 C 0.76916 0.10152 -0.00471
 C515 C 0.76910 0.07887 -0.00466
 C516 C 0.75007 0.06762 0.00006
 C517 C 0.73107 0.07890 0.00477
 C518 C 0.73106 0.10155 0.00476
 H519 H 0.74174 0.13934 -0.03370
 H520 H 0.75869 0.13925 0.03373
 H521 H 0.78391 0.11026 -0.00837
 H522 H 0.71634 0.11032 0.00843
 H523 H 0.75070 0.19952 0.00001
 H524 H 0.75005 0.05008 0.00008
 C525 C 0.24514 0.64792 0.48096
 C526 C 0.25000 0.63654 0.49995
 C527 C 0.25467 0.64791 0.51900
 C528 C 0.25447 0.67057 0.51904
 C529 C 0.24962 0.68184 0.50008
 C530 C 0.24497 0.67058 0.48105
 C531 C 0.25004 0.61277 0.49992
 C532 C 0.26911 0.60141 0.49520
 C533 C 0.26907 0.57875 0.49520
 C534 C 0.25003 0.56748 0.49988
 C535 C 0.23101 0.57874 0.50456
 C536 C 0.23099 0.60138 0.50460
 H537 H 0.24151 0.63917 0.46624
 H538 H 0.25841 0.63915 0.53369
 H539 H 0.28385 0.61017 0.49156
 H540 H 0.21624 0.61012 0.50824
 H541 H 0.24946 0.69938 0.50013
 H542 H 0.25002 0.54993 0.49988
 C543 C 0.75475 0.85214 0.48094
 C544 C 0.75000 0.86350 0.49995
 C545 C 0.74528 0.85216 0.51899
 C546 C 0.74532 0.82951 0.51897
 C547 C 0.75004 0.81823 0.49999
 C548 C 0.75476 0.82949 0.48099
 C549 C 0.74999 0.88725 0.49994
 C550 C 0.73094 0.89859 0.49522
 C551 C 0.73097 0.92123 0.49524
 C552 C 0.74998 0.93252 0.49995
 C553 C 0.76899 0.92126 0.50464
 C554 C 0.76904 0.89862 0.50466
 H555 H 0.75842 0.86090 0.46623
 H556 H 0.74160 0.86093 0.53369
 H557 H 0.71620 0.88982 0.49156
 H558 H 0.78377 0.88989 0.50831
 H559 H 0.75006 0.80069 0.50000
 H560 H 0.74997 0.95006 0.49996
 C561 C -0.01951 0.25489 0.35140
 C562 C -0.00047 0.25012 0.36277
 C563 C 0.01858 0.24536 0.35142
 C564 C 0.01857 0.24537 0.32880
 C565 C -0.00043 0.25017 0.31755
 C566 C -0.01946 0.25492 0.32879
 C567 C -0.00049 0.25012 0.38652
 C568 C -0.00539 0.23110 0.39788
 C569 C -0.00539 0.23113 0.42050
 C570 C -0.00048 0.25012 0.43174
 C571 C 0.00441 0.26912 0.42050
 C572 C 0.00440 0.26914 0.39788
 H573 H -0.03424 0.25856 0.36014
 H574 H 0.03330 0.24166 0.36017
 H575 H -0.00918 0.21638 0.38915
 H576 H 0.00817 0.28386 0.38915
 H577 H -0.00042 0.25018 0.30004
 H578 H -0.00045 0.25012 0.44926
 C579 C -0.01896 0.74530 0.14820
 C580 C 0.00008 0.75008 0.13684
 C581 C 0.01914 0.75485 0.14820
 C582 C 0.01912 0.75484 0.17082
 C583 C 0.00009 0.75007 0.18207
 C584 C -0.01894 0.74529 0.17082
 C585 C 0.00008 0.75007 0.11309
 C586 C -0.00484 0.76908 0.10172
 C587 C -0.00487 0.76905 0.07910
 C588 C 0.00000 0.75004 0.06786
 C589 C 0.00491 0.73105 0.07911
 C590 C 0.00495 0.73105 0.10173
 H591 H -0.03369 0.74160 0.13946
 H592 H 0.03386 0.75854 0.13946
 H593 H -0.00860 0.78380 0.11046
 H594 H 0.00874 0.71635 0.11047
 H595 H 0.00008 0.75006 0.19958
 H596 H -0.00002 0.75003 0.05035
 C597 C 0.48105 0.24509 0.64907
 C598 C 0.50010 0.24989 0.63769
 C599 C 0.51915 0.25466 0.64908
 C600 C 0.51914 0.25465 0.67172
 C601 C 0.50009 0.24985 0.68295
 C602 C 0.48104 0.24507 0.67170
 C603 C 0.50013 0.24988 0.61389
 C604 C 0.49525 0.26889 0.60248
 C605 C 0.49529 0.26886 0.57985
 C606 C 0.50019 0.24985 0.56863
 C607 C 0.50507 0.23085 0.57988
 C608 C 0.50504 0.23085 0.60252
 H609 H 0.46633 0.24140 0.64031
 H610 H 0.53388 0.25836 0.64035
 H611 H 0.49145 0.28361 0.61120
 H612 H 0.50882 0.21615 0.61126
 H613 H 0.50008 0.24983 0.70046
 H614 H 0.50022 0.24983 0.55112
 C615 C 0.48080 0.75484 0.85149
 C616 C 0.49984 0.75005 0.86285
 C617 C 0.51887 0.74526 0.85147
 C618 C 0.51885 0.74527 0.82885
 C619 C 0.49982 0.75004 0.81761
 C620 C 0.48080 0.75483 0.82887
 C621 C 0.49987 0.75004 0.88661
 C622 C 0.49505 0.73099 0.89798
 C623 C 0.49512 0.73100 0.92060
 C624 C 0.49998 0.75001 0.93184
 C625 C 0.50479 0.76904 0.92060
 C626 C 0.50474 0.76907 0.89798
 H627 H 0.46609 0.75855 0.86024
 H628 H 0.53360 0.74156 0.86020
 H629 H 0.49130 0.71627 0.88924
 H630 H 0.50847 0.78380 0.88925
 H631 H 0.49981 0.75004 0.80010
 H632 H 0.50003 0.75000 0.94935
 C633 C 0.11987 0.21859 0.25668
 C634 C 0.10478 0.22263 0.26831
 C635 C 0.08707 0.22739 0.28187
 C636 C 0.07182 0.23146 0.29327
 C637 C 0.05371 0.23627 0.30627
 C638 C 0.03791 0.24039 0.31689
 C639 C 0.62116 0.71972 0.75762
 C640 C 0.60589 0.72357 0.76909
 C641 C 0.58792 0.72806 0.78241
 C642 C 0.57247 0.73192 0.79361
 C643 C 0.55415 0.73647 0.80642
 C644 C 0.53824 0.74043 0.81695
 C645 C 0.37874 0.78083 0.75744
 C646 C 0.39397 0.77690 0.76893
 C647 C 0.41187 0.77230 0.78230
 C648 C 0.42728 0.76836 0.79355
 C649 C 0.44554 0.76372 0.80641
 C650 C 0.46141 0.75971 0.81697
 C651 C -0.12139 0.28057 0.25715
 C652 C -0.10621 0.27669 0.26872
 C653 C -0.08834 0.27218 0.28215
 C654 C -0.07296 0.26833 0.29344
 C655 C -0.05470 0.26376 0.30631
 C656 C -0.03883 0.25979 0.31688
 C657 C -0.12100 0.71961 0.24237
 C658 C -0.10576 0.72343 0.23084
 C659 C -0.08786 0.72792 0.21744
 C660 C -0.07246 0.73180 0.20616
 C661 C -0.05420 0.73640 0.19328
 C662 C -0.03832 0.74040 0.18273
 C663 C 0.37845 0.21928 0.74290
 C664 C 0.39379 0.22311 0.73147
 C665 C 0.41183 0.22763 0.71817
 C666 C 0.42732 0.23153 0.70698
 C667 C 0.44568 0.23615 0.69416
 C668 C 0.46161 0.24017 0.68362
 C669 C 0.62162 0.28051 0.74300
 C670 C 0.60631 0.27664 0.73155
 C671 C 0.58830 0.27210 0.71822
 C672 C 0.57282 0.26819 0.70702
 C673 C 0.55448 0.26355 0.69419
 C674 C 0.53856 0.25954 0.68365
 C675 C 0.12120 0.78068 0.24232
 C676 C 0.10599 0.77677 0.23079
 C677 C 0.08809 0.77219 0.21739
 C678 C 0.07269 0.76828 0.20613
 C679 C 0.05441 0.76368 0.19327
 C680 C 0.03852 0.75969 0.18272
 C681 C 0.25718 0.12106 0.22034
 C682 C 0.26855 0.10572 0.22423
 C683 C 0.28188 0.08773 0.22866
 C684 C 0.29315 0.07229 0.23242
 C685 C 0.30605 0.05399 0.23686
 C686 C 0.31664 0.03810 0.24073
 C687 C 0.75743 0.62123 0.71985
 C688 C 0.76889 0.60597 0.72375
 C689 C 0.78229 0.58806 0.72820
 C690 C 0.79359 0.57266 0.73197
 C691 C 0.80651 0.55440 0.73643
 C692 C 0.81709 0.53852 0.74033
 C693 C 0.75707 0.37902 0.77986
 C694 C 0.76855 0.39428 0.77595
 C695 C 0.78202 0.41218 0.77151
 C696 C 0.79338 0.42756 0.76774
 C697 C 0.80637 0.44579 0.76329
 C698 C 0.81701 0.46166 0.75941
 C699 C 0.25665 -0.12146 0.28052
 C700 C 0.26811 -0.10617 0.27658
 C701 C 0.28155 -0.08825 0.27206
 C702 C 0.29291 -0.07287 0.26822
 C703 C 0.30593 -0.05464 0.26371
 C704 C 0.31660 -0.03879 0.25979
 C705 C 0.24309 -0.12148 0.71958
 C706 C 0.23159 -0.10625 0.72357
 C707 C 0.21812 -0.08838 0.72811
 C708 C 0.20675 -0.07302 0.73194
 C709 C 0.19375 -0.05479 0.73643
 C710 C 0.18310 -0.03893 0.74032
 C711 C 0.74337 0.37881 0.22015
 C712 C 0.73185 0.39400 0.22414
 C713 C 0.71837 0.41185 0.22865
 C714 C 0.70700 0.42721 0.23243
 C715 C 0.69400 0.44542 0.23684
 C716 C 0.68334 0.46128 0.24067
 C717 C 0.74288 0.62094 0.28022
 C718 C 0.73145 0.60565 0.27627
 C719 C 0.71806 0.58772 0.27177
 C720 C 0.70676 0.57231 0.26796
 C721 C 0.69383 0.55405 0.26347
 C722 C 0.68323 0.53816 0.25956
 C723 C 0.24284 0.12087 0.77978
 C724 C 0.23138 0.10558 0.77587
 C725 C 0.21795 0.08763 0.77141
 C726 C 0.20663 0.07221 0.76763
 C727 C 0.19368 0.05392 0.76316
 C728 C 0.18307 0.03802 0.75927
 C729 C 0.21862 0.25722 0.12021
 C730 C 0.22262 0.26885 0.10512
 C731 C 0.22727 0.28242 0.08741
 C732 C 0.23124 0.29382 0.07216
 C733 C 0.23593 0.30681 0.05404
 C734 C 0.24000 0.31743 0.03825
 C735 C 0.71974 0.75790 0.62070
 C736 C 0.72369 0.76945 0.60555
 C737 C 0.72823 0.78290 0.58775
 C738 C 0.73209 0.79420 0.57241
 C739 C 0.73662 0.80708 0.55419
 C740 C 0.74054 0.81763 0.53833
 C741 C 0.78030 0.75793 0.37922
 C742 C 0.77636 0.76946 0.39438
 C743 C 0.77183 0.78288 0.41221
 C744 C 0.76799 0.79417 0.42757
 C745 C 0.76347 0.80704 0.44579
 C746 C 0.75955 0.81760 0.46164
 C747 C 0.28022 0.25784 -0.12102
 C748 C 0.27621 0.26932 -0.10581
 C749 C 0.27158 0.28269 -0.08793
 C750 C 0.26767 0.29395 -0.07255
 C751 C 0.26311 0.30684 -0.05431
 C752 C 0.25919 0.31742 -0.03844
 C753 C 0.71977 0.24219 -0.12086
 C754 C 0.72379 0.23073 -0.10566
 C755 C 0.72843 0.21737 -0.08779
 C756 C 0.73235 0.20612 -0.07241
 C757 C 0.73694 0.19325 -0.05418
 C758 C 0.74089 0.18268 -0.03833
 C759 C 0.21969 0.74241 0.37929
 C760 C 0.22352 0.73087 0.39448
 C761 C 0.22792 0.71741 0.41233
 C762 C 0.23169 0.70607 0.42768
 C763 C 0.23617 0.69312 0.44589
 C764 C 0.24010 0.68251 0.46172
 C765 C 0.27974 0.74238 0.62088
 C766 C 0.27585 0.73084 0.60570
 C767 C 0.27138 0.71737 0.58786
 C768 C 0.26758 0.70603 0.57250
 C769 C 0.26310 0.69309 0.55428
 C770 C 0.25922 0.68249 0.53842
 C771 C 0.78102 0.24207 0.12095
 C772 C 0.77711 0.23059 0.10573
 C773 C 0.77257 0.21720 0.08786
 C774 C 0.76869 0.20594 0.07247
 C775 C 0.76411 0.19309 0.05423
 C776 C 0.76012 0.18255 0.03836
 C777 C 0.46952 0.37067 0.50777
 C778 C 0.47338 0.35548 0.51937
 C779 C 0.47788 0.33763 0.53288
 C780 C 0.48175 0.32227 0.54424
 C781 C 0.48634 0.30406 0.55723
 C782 C 0.49035 0.28823 0.56788
 C783 C -0.03058 0.87105 0.00753
 C784 C -0.02678 0.85584 0.01908
 C785 C -0.02234 0.83795 0.03252
 C786 C -0.01850 0.82254 0.04379
 C787 C -0.01389 0.80428 0.05665
 C788 C -0.00984 0.78841 0.06720
 C789 C 0.03070 0.62905 0.00754
 C790 C 0.02688 0.64429 0.01906
 C791 C 0.02239 0.66218 0.03248
 C792 C 0.01851 0.67757 0.04376
 C793 C 0.01389 0.69582 0.05664
 C794 C 0.00986 0.71168 0.06721
 C795 C 0.53086 0.12908 0.50778
 C796 C 0.52704 0.14427 0.51939
 C797 C 0.52256 0.16210 0.53292
 C798 C 0.51869 0.17744 0.54431
 C799 C 0.51408 0.19564 0.55731
 C800 C 0.51003 0.21147 0.56795
 C801 C -0.03099 0.12932 0.49236
 C802 C -0.02723 0.14454 0.48081
 C803 C -0.02281 0.16241 0.46734
 C804 C -0.01897 0.17776 0.45599
 C805 C -0.01438 0.19595 0.44303
 C806 C -0.01035 0.21178 0.43242
 C807 C 0.46970 0.62908 0.99248
 C808 C 0.47349 0.64428 0.98089
 C809 C 0.47791 0.66214 0.96739
 C810 C 0.48171 0.67751 0.95604
 C811 C 0.48626 0.69574 0.94310
 C812 C 0.49024 0.71161 0.93251
 C813 C 0.53060 0.87084 0.99253
 C814 C 0.52676 0.85565 0.98095
 C815 C 0.52226 0.83781 0.96745
 C816 C 0.51838 0.82246 0.95610
 C817 C 0.51377 0.80425 0.94314
 C818 C 0.50973 0.78840 0.93253
 C819 C 0.03043 0.37097 0.49216
 C820 C 0.02659 0.35575 0.48063
 C821 C 0.02207 0.33788 0.46720
 C822 C 0.01815 0.32251 0.45590
 C823 C 0.01348 0.30430 0.44299
 C824 C 0.00940 0.28846 0.43241
 C825 C 0.37078 0.50672 0.46998
 C826 C 0.35555 0.51819 0.47392
 C827 C 0.33771 0.53166 0.47839
 C828 C 0.32239 0.54306 0.48217
 C829 C 0.30423 0.55610 0.48660
 C830 C 0.28842 0.56679 0.49046
 C831 C 0.87090 0.00715 -0.03002
 C832 C 0.85567 0.01859 -0.02602
 C833 C 0.83782 0.03198 -0.02149
 C834 C 0.82246 0.04331 -0.01768
 C835 C 0.80428 0.05628 -0.01324
 C836 C 0.78845 0.06692 -0.00939
 C837 C 0.62947 0.00675 0.03034
 C838 C 0.64469 0.01823 0.02637
 C839 C 0.66251 0.03173 0.02184
 C840 C 0.67780 0.04316 0.01801
 C841 C 0.69592 0.05624 0.01351
 C842 C 0.71172 0.06694 0.00958
 C843 C 0.12918 0.50692 0.52983
 C844 C 0.14441 0.51838 0.52586
 C845 C 0.16226 0.53182 0.52136
 C846 C 0.17760 0.54318 0.51758
 C847 C 0.19580 0.55616 0.51314
 C848 C 0.21164 0.56680 0.50929
 C849 C 0.12921 0.49297 -0.02999
 C850 C 0.14444 0.48152 -0.02603
 C851 C 0.16228 0.46809 -0.02153
 C852 C 0.17761 0.45674 -0.01773
 C853 C 0.19577 0.44374 -0.01327
 C854 C 0.21159 0.43310 -0.00939
 C855 C 0.62941 0.99314 0.46996
 C856 C 0.64463 0.98169 0.47390
 C857 C 0.66243 0.96823 0.47836
 C858 C 0.67772 0.95683 0.48215
 C859 C 0.69584 0.94381 0.48660
 C860 C 0.71164 0.93315 0.49048
 C861 C 0.87061 0.99321 0.52993
 C862 C 0.85541 0.98173 0.52595
 C863 C 0.83761 0.96826 0.52145
 C864 C 0.82230 0.95687 0.51766
 C865 C 0.80415 0.94385 0.51323
 C866 C 0.78833 0.93320 0.50937
 C867 C 0.37083 0.49308 0.03025
 C868 C 0.35558 0.48164 0.02625
 C869 C 0.33771 0.46822 0.02170
 C870 C 0.32235 0.45686 0.01788
 C871 C 0.30417 0.44384 0.01341
 C872 C 0.28835 0.43316 0.00953
 C873 C 0.50754 0.46955 0.37069
 C874 C 0.51905 0.47348 0.35549
 C875 C 0.53252 0.47799 0.33766
 C876 C 0.54388 0.48182 0.32233
 C877 C 0.55688 0.48631 0.30415
 C878 C 0.56753 0.49021 0.28833
 C879 C 0.00734 -0.03016 0.87051
 C880 C 0.01884 -0.02621 0.85531
 C881 C 0.03229 -0.02168 0.83747
 C882 C 0.04365 -0.01787 0.82214
 C883 C 0.05664 -0.01342 0.80395
 C884 C 0.06729 -0.00958 0.78811
 C885 C 0.00723 0.03047 0.62928
 C886 C 0.01876 0.02650 0.64445
 C887 C 0.03224 0.02192 0.66223
 C888 C 0.04362 0.01803 0.67753
 C889 C 0.05664 0.01343 0.69565
 C890 C 0.06731 0.00944 0.71143
 C891 C 0.50762 0.53028 0.12943
 C892 C 0.51916 0.52631 0.14458
 C893 C 0.53264 0.52173 0.16237
 C894 C 0.54400 0.51785 0.17768
 C895 C 0.55698 0.51328 0.19584
 C896 C 0.56761 0.50932 0.21165
 C897 C 0.49246 -0.03026 0.12950
 C898 C 0.48093 -0.02633 0.14469
 C899 C 0.46745 -0.02182 0.16251
 C900 C 0.45607 -0.01800 0.17783
 C901 C 0.44306 -0.01351 0.19600
 C902 C 0.43240 -0.00961 0.21182
 C903 C 0.99258 0.46967 0.62925
 C904 C 0.98108 0.47363 0.64444
 C905 C 0.96765 0.47820 0.66226
 C906 C 0.95632 0.48206 0.67759
 C907 C 0.94336 0.48661 0.69576
 C908 C 0.93274 0.49055 0.71157
 C909 C 0.99264 0.53015 0.87060
 C910 C 0.98113 0.52618 0.85543
 C911 C 0.96767 0.52164 0.83762
 C912 C 0.95633 0.51781 0.82229
 C913 C 0.94335 0.51333 0.80411
 C914 C 0.93273 0.50946 0.78828
 C915 C 0.49274 0.03016 0.37065
 C916 C 0.48118 0.02617 0.35551
 C917 C 0.46765 0.02161 0.33773
 C918 C 0.45622 0.01776 0.32245
 C919 C 0.44315 0.01326 0.30432
 C920 C 0.43245 0.00935 0.28854
   
