data_POSCAR
  _audit_creation_date              2014-09-24
  _audit_creation_method            'ToBaCCo'
  _symmetry_space_group_name_H-M    'P1'
  _symmetry_Int_Tables_number       1
  _symmetry_cell_setting            triclinic
  loop_
  _symmetry_equiv_pos_as_xyz
 x,y,z
_cell_length_a 32.0392
_cell_length_b 32.0395
_cell_length_c 32.0397
_cell_angle_alpha 96.581700
_cell_angle_beta 83.410800
_cell_angle_gamma 96.589700
loop_
  _atom_site_label
  _atom_site_type_symbol
  _atom_site_fract_x
  _atom_site_fract_y
  _atom_site_fract_z
O1 O 0.55094 0.50961 0.03795
 O2 O 0.43632 0.50256 0.03100
 O3 O 0.48965 0.44893 0.03888
 O4 O 0.49763 0.56322 0.03006
 O5 O 0.50868 0.55099 -0.03946
 O6 O 0.50070 0.43670 -0.03065
 O7 O 0.44737 0.49033 -0.03851
 O8 O 0.56200 0.49737 -0.03156
 Cu9 Cu 0.49252 0.50730 0.04149
 Cu10 Cu 0.50579 0.49262 -0.04206
 C11 C 0.57580 0.50451 0.00441
 C12 C 0.42250 0.49544 -0.00497
 C13 C 0.49402 0.42354 0.00563
 C14 C 0.50432 0.57638 -0.00622
 O15 O -0.03804 0.55253 0.50970
 O16 O -0.03111 0.43791 0.50266
 O17 O -0.03015 0.49921 0.56332
 O18 O -0.03897 0.49124 0.44903
 O19 O 0.03056 0.50228 0.43679
 O20 O 0.03937 0.51025 0.55108
 O21 O 0.03842 0.44895 0.49042
 O22 O 0.03147 0.56358 0.49746
 Cu23 Cu -0.04158 0.49412 0.50740
 Cu24 Cu 0.04197 0.50738 0.49271
 C25 C -0.00450 0.57740 0.50459
 C26 C 0.00486 0.42410 0.49554
 C27 C 0.00612 0.50588 0.57647
 C28 C -0.00572 0.49559 0.42364
 O29 O 0.50275 0.03103 0.56348
 O30 O 0.50978 0.03796 0.44885
 O31 O 0.44912 0.03890 0.51016
 O32 O 0.56342 0.03007 0.50216
 O33 O 0.55116 -0.03945 0.49114
 O34 O 0.43687 -0.03062 0.49913
 O35 O 0.49753 -0.03156 0.43782
 O36 O 0.49050 -0.03848 0.55245
 Cu37 Cu 0.50750 0.04151 0.50727
 Cu38 Cu 0.49279 -0.04204 0.49403
 C39 C 0.49561 -0.00493 0.57731
 C40 C 0.50465 0.00441 0.42401
 C41 C 0.42373 0.00565 0.50581
 C42 C 0.57656 -0.00621 0.49549
 C43 C 0.49800 -0.04034 -0.09241
 C44 C 0.50023 -0.08173 -0.08378
 C45 C 0.50222 -0.09121 -0.04262
 C46 C 0.50201 -0.05866 -0.00889
 C47 C 0.49974 -0.01649 -0.01725
 C48 C 0.49772 -0.00725 -0.05919
 C49 C 0.49549 0.03477 -0.06676
 C50 C 0.49522 0.06711 -0.03376
 C51 C 0.49720 0.05864 0.00804
 C52 C 0.49949 0.01647 0.01640
 C53 C 0.50399 -0.06713 0.03292
 C54 C 0.50376 -0.03479 0.06591
 C55 C 0.50153 0.00723 0.05834
 C56 C 0.50128 0.04032 0.09156
 C57 C 0.49900 0.08171 0.08293
 C58 C 0.49696 0.09119 0.04178
 H59 H 0.49391 0.04303 -0.09833
 H60 H 0.49345 0.09889 -0.04135
 H61 H 0.50575 -0.09891 0.04050
 H62 H 0.50536 -0.04305 0.09748
 H63 H 0.50041 -0.10696 -0.10948
 H64 H 0.49883 0.10693 0.10863
 C65 C 0.04255 0.50294 0.90876
 C66 C 0.08371 0.50089 0.91822
 C67 C 0.09233 0.49862 0.95961
 C68 C 0.05912 0.49837 0.99271
 C69 C 0.01717 0.50042 0.98347
 C70 C 0.00882 0.50271 0.94131
 C71 C -0.03299 0.50469 0.93285
 C72 C -0.06598 0.50444 0.96519
 C73 C -0.05841 0.50221 1.00721
 C74 C -0.01647 0.50018 1.01645
 C75 C 0.06669 0.49614 1.03473
 C76 C 0.03370 0.49592 1.06707
 C77 C -0.00811 0.49791 1.05861
 C78 C -0.04184 0.49771 1.09117
 C79 C -0.08300 0.49971 1.08170
 C80 C -0.09163 0.50194 1.04031
 H81 H -0.04058 0.50646 0.90107
 H82 H -0.09756 0.50603 0.95694
 H83 H 0.09826 0.49455 1.04298
 H84 H 0.04128 0.49416 1.09885
 H85 H 0.10940 0.50106 0.89299
 H86 H -0.10870 0.49955 1.10693
 C87 C -0.04018 -0.09241 0.50201
 C88 C -0.08158 -0.08378 0.49976
 C89 C -0.09105 -0.04262 0.49776
 C90 C -0.05850 -0.00889 0.49797
 C91 C -0.01633 -0.01724 0.50025
 C92 C -0.00709 -0.05918 0.50228
 C93 C 0.03493 -0.06675 0.50452
 C94 C 0.06727 -0.03375 0.50478
 C95 C 0.05880 0.00805 0.50281
 C96 C 0.01664 0.01640 0.50051
 C97 C -0.06696 0.03292 0.49599
 C98 C -0.03462 0.06591 0.49623
 C99 C 0.00740 0.05835 0.49846
 C100 C 0.04049 0.09157 0.49872
 C101 C 0.08188 0.08295 0.50100
 C102 C 0.09135 0.04180 0.50304
 H103 H 0.04319 -0.09832 0.50611
 H104 H 0.09905 -0.04133 0.50656
 H105 H -0.09874 0.04050 0.49422
 H106 H -0.04287 0.09749 0.49463
 H107 H -0.10680 -0.10948 0.49958
 H108 H 0.10711 0.10865 0.50117
 C109 C -0.29807 0.50752 1.01369
 N110 N -0.27468 0.48026 0.98813
 N111 N -0.23384 0.47980 0.99236
 C112 C -0.21515 0.50658 1.02229
 N113 N -0.23852 0.53387 1.04781
 N114 N -0.27936 0.53433 1.04358
 C115 C -0.34235 0.50709 1.01002
 C116 C -0.37966 0.50623 1.00729
 C117 C -0.17152 0.50519 1.02780
 C118 C -0.13507 0.50381 1.03308
 C119 C 0.29876 0.49266 0.98602
 N120 N 0.28002 0.46601 0.95602
 N121 N 0.23918 0.46655 0.95184
 C122 C 0.21583 0.49374 0.97752
 N123 N 0.23455 0.52035 1.00756
 N124 N 0.27539 0.51981 1.01174
 C125 C 0.34304 0.49302 0.98963
 C126 C 0.38037 0.49387 0.99231
 C127 C 0.17221 0.49522 0.97206
 C128 C 0.13576 0.49668 0.96682
 C129 C -0.01358 -0.29885 0.50754
 N130 N -0.04341 -0.28013 0.53442
 N131 N -0.04764 -0.23929 0.53397
 C132 C -0.02216 -0.21593 0.50663
 N133 N 0.00771 -0.23463 0.47978
 N134 N 0.01194 -0.27548 0.48023
 C135 C -0.00993 -0.34314 0.50709
 C136 C -0.00723 -0.38047 0.50620
 C137 C -0.02767 -0.17230 0.50525
 C138 C -0.03295 -0.13584 0.50386
 C139 C 0.01406 0.29798 0.49272
 N140 N 0.04397 0.27921 0.46598
 N141 N 0.04816 0.23837 0.46654
 C142 C 0.02257 0.21506 0.49384
 N143 N -0.00739 0.23381 0.52054
 N144 N -0.01158 0.27465 0.51998
 C145 C 0.01043 0.34225 0.49306
 C146 C 0.00774 0.37957 0.49386
 C147 C 0.02803 0.17144 0.49532
 C148 C 0.03328 0.13499 0.49678
 C149 C 0.49261 -0.01391 -0.29892
 N150 N 0.52007 0.01148 -0.27561
 N151 N 0.52049 0.00730 -0.23475
 C152 C 0.49346 -0.02238 -0.21596
 N153 N 0.46597 -0.04773 -0.23925
 N154 N 0.46555 -0.04355 -0.28011
 C155 C 0.49308 -0.01031 -0.34321
 C156 C 0.49399 -0.00764 -0.38055
 C157 C 0.49481 -0.02785 -0.17232
 C158 C 0.49617 -0.03311 -0.13585
 C159 C 0.50740 0.01369 0.29790
 N160 N 0.53417 0.04358 0.27913
 N161 N 0.53359 0.04782 0.23831
 C162 C 0.50622 0.02231 0.21502
 N163 N 0.47948 -0.00762 0.23377
 N164 N 0.48007 -0.01186 0.27460
 C165 C 0.50709 0.01002 0.34217
 C166 C 0.50630 0.00730 0.37948
 C167 C 0.50471 0.02782 0.17142
 C168 C 0.50323 0.03310 0.13498
 C169 C 0.50804 -0.29782 -0.01720
 N170 N 0.48883 -0.27204 0.01388
 N171 N 0.48838 -0.23123 0.00949
 C172 C 0.50711 -0.21500 -0.02612
 N173 N 0.52635 -0.24077 -0.05717
 N174 N 0.52681 -0.28157 -0.05278
 C175 C 0.50743 -0.34199 -0.01302
 C176 C 0.50635 -0.37922 -0.00979
 C177 C 0.50569 -0.17135 -0.03137
 C178 C 0.50423 -0.13481 -0.03621
 C179 C 0.49054 0.29775 0.01654
 N180 N 0.50964 0.27200 -0.01465
 N181 N 0.51022 0.23121 -0.01030
 C182 C 0.49173 0.21495 0.02538
 N183 N 0.47259 0.24068 0.05654
 N184 N 0.47202 0.28147 0.05219
 C185 C 0.49103 0.34192 0.01241
 C186 C 0.49204 0.37914 0.00920
 C187 C 0.49328 0.17131 0.03058
 C188 C 0.49485 0.13478 0.03539
 C189 C -0.29764 -0.01720 0.49181
 N190 N -0.28143 -0.05285 0.47320
 N191 N -0.24064 -0.05725 0.47368
 C192 C -0.21483 -0.02613 0.49280
 N193 N -0.23103 0.00954 0.51136
 N194 N -0.27183 0.01394 0.51088
 C195 C -0.34181 -0.01302 0.49239
 C196 C -0.37903 -0.00979 0.49346
 C197 C -0.17119 -0.03138 0.49424
 C198 C -0.13465 -0.03622 0.49572
 C199 C 0.29793 0.01656 0.50935
 N200 N 0.27215 -0.01466 0.49034
 N201 N 0.23135 -0.01031 0.48979
 C202 C 0.21512 0.02540 0.50821
 N203 N 0.24088 0.05659 0.52727
 N204 N 0.28168 0.05224 0.52782
 C205 C 0.34210 0.01243 0.50883
 C206 C 0.37932 0.00922 0.50781
 C207 C 0.17148 0.03060 0.50669
 C208 C 0.13494 0.03541 0.50514
 C209 C -0.01660 0.49188 1.29782
 N210 N 0.01446 0.51117 1.27208
 N211 N 0.01012 0.51163 1.23127
 C212 C -0.02542 0.49281 1.21498
 N213 N -0.05646 0.47348 1.24070
 N214 N -0.05211 0.47302 1.28151
 C215 C -0.01248 0.49248 1.34200
 C216 C -0.00928 0.49356 1.37923
 C217 C -0.03063 0.49423 1.17132
 C218 C -0.03544 0.49569 1.13477
 C219 C 0.01711 0.50935 0.70224
 N220 N 0.05276 0.52793 0.71848
 N221 N 0.05716 0.52735 0.75926
 C222 C 0.02606 0.50815 0.78502
 N223 N -0.00962 0.48961 0.76879
 N224 N -0.01402 0.49019 0.72801
 C225 C 0.01294 0.50886 0.65809
 C226 C 0.00970 0.50786 0.62087
 C227 C 0.03131 0.50661 0.82865
 C228 C 0.03615 0.50504 0.86517
   
