data_POSCAR
  _audit_creation_date              2014-09-24
  _audit_creation_method            'ToBaCCo'
  _symmetry_space_group_name_H-M    'P1'
  _symmetry_Int_Tables_number       1
  _symmetry_cell_setting            triclinic
  loop_
  _symmetry_equiv_pos_as_xyz
 x,y,z
_cell_length_a 26.7657
_cell_length_b 27.2245
_cell_length_c 38.9219
_cell_angle_alpha 89.301400
_cell_angle_beta 89.370500
_cell_angle_gamma 112.758700
loop_
  _atom_site_label
  _atom_site_type_symbol
  _atom_site_fract_x
  _atom_site_fract_y
  _atom_site_fract_z
C1 C 1.24076 0.18591 0.25529
 C2 C 1.27489 0.23329 0.23272
 C3 C 1.30242 0.27856 0.24992
 C4 C 1.29435 0.27313 0.28862
 C5 C 1.28118 0.18016 0.28129
 C6 C 1.30916 0.22602 0.29845
 C7 C 1.20467 0.20639 0.27711
 C8 C 1.23269 0.25209 0.29431
 H9 H 1.27416 0.23225 0.20486
 H10 H 1.31783 0.31011 0.30258
 H11 H 1.28206 0.14232 0.28927
 H12 H 1.16104 0.18624 0.27891
 C13 C 0.70036 -0.29252 0.23790
 C14 C 0.75652 -0.25072 0.22823
 C15 C 0.78317 -0.21876 0.25429
 C16 C 0.75210 -0.23360 0.28868
 C17 C 0.71161 -0.32459 0.26739
 C18 C 0.73985 -0.29406 0.29416
 C19 C 0.67048 -0.26141 0.25517
 C20 C 0.69717 -0.23066 0.28130
 H21 H 0.77041 -0.24194 0.20172
 H22 H 0.77396 -0.20627 0.30918
 H23 H 0.69966 -0.36710 0.26635
 H24 H 0.63159 -0.26258 0.24671
 C25 C 0.70635 0.16555 -0.24935
 C26 C 0.75484 0.20677 -0.26445
 C27 C 0.78197 0.25072 -0.24231
 C28 C 0.75631 0.24380 -0.20830
 C29 C 0.72496 0.14869 -0.21772
 C30 C 0.75335 0.19186 -0.19527
 C31 C 0.67320 0.19372 -0.23696
 C32 C 0.70030 0.23708 -0.21473
 H33 H 0.76381 0.20925 -0.29184
 H34 H 0.77843 0.27720 -0.19100
 H35 H 0.72215 0.10860 -0.21241
 H36 H 0.62993 0.17976 -0.24085
 C37 C 1.21439 -0.27282 -0.26033
 C38 C 1.26947 -0.23245 -0.27262
 C39 C 1.30200 -0.20479 -0.24710
 C40 C 1.27668 -0.21904 -0.21119
 C41 C 1.22784 -0.30793 -0.23357
 C42 C 1.26065 -0.27996 -0.20768
 C43 C 1.18996 -0.24078 -0.23839
 C44 C 1.22234 -0.21267 -0.21300
 H45 H 1.28269 -0.22776 -0.29933
 H46 H 1.30396 -0.19355 -0.19172
 H47 H 1.21042 -0.35090 -0.23428
 H48 H 1.14837 -0.24439 -0.24030
 C49 C 0.20386 0.18752 0.74987
 C50 C 0.25858 0.22435 0.75598
 C51 C 0.28351 0.26211 0.72871
 C52 C 0.24932 0.25293 0.69881
 C53 C 0.17258 0.22247 0.73905
 C54 C 0.19622 0.25607 0.71184
 C55 C 0.20802 0.15964 0.71672
 C56 C 0.23256 0.19377 0.69028
 H57 H 0.27447 0.22996 0.78180
 H58 H 0.26936 0.28027 0.67688
 H59 H 0.13267 0.21659 0.74889
 H60 H 0.19192 0.11680 0.71394
 C61 C 0.68684 0.70198 0.75491
 C62 C 0.72797 0.75166 0.76587
 C63 C 0.76571 0.78074 0.73980
 C64 C 0.75586 0.75498 0.70679
 C65 C 0.66145 0.71589 0.72509
 C66 C 0.69955 0.74680 0.69879
 C67 C 0.71668 0.67228 0.73995
 C68 C 0.75534 0.70111 0.71330
 H69 H 0.73051 0.76616 0.79195
 H70 H 0.78665 0.77828 0.68721
 H71 H 0.61822 0.70483 0.72292
 H72 H 0.70364 0.62971 0.74408
 C73 C 0.69183 0.20344 0.26879
 C74 C 0.74716 0.24819 0.27386
 C75 C 0.77333 0.27395 0.24473
 C76 C 0.74272 0.25007 0.21207
 C77 C 0.66075 0.22942 0.24699
 C78 C 0.68736 0.25336 0.21742
 C79 C 0.70402 0.16559 0.24408
 C80 C 0.73056 0.18985 0.21462
 H81 H 0.76367 0.25923 0.29916
 H82 H 0.76436 0.26986 0.18803
 H83 H 0.62115 0.22840 0.25410
 H84 H 0.69925 0.12537 0.25068
 C85 C 0.19769 0.68697 0.25953
 C86 C 0.24217 0.73979 0.26849
 C87 C 0.26534 0.77386 0.24183
 C88 C 0.24102 0.75165 0.20713
 C89 C 0.15701 0.70287 0.23917
 C90 C 0.17970 0.73646 0.21196
 C91 C 0.22455 0.66396 0.23241
 C92 C 0.24703 0.69773 0.20506
 H93 H 0.25106 0.75109 0.29498
 H94 H 0.25945 0.77921 0.18502
 H95 H 0.11388 0.68734 0.24432
 H96 H 0.22733 0.62549 0.23524
 O97 O 1.03695 -0.04552 0.04695
 O98 O 0.85887 -0.11505 0.02285
 O99 O 0.92653 0.01056 0.05299
 O100 O 0.95415 -0.13460 0.03310
 O101 O 0.83976 -0.02276 0.03251
 O102 O 0.95804 -0.13256 0.03440
 O103 O 0.85951 -0.11946 0.02220
 O104 O 1.04035 0.03504 0.04025
 C105 C 1.05328 0.00167 0.05653
 C106 C 0.84499 -0.14210 0.05120
 C107 C 0.87391 0.00854 0.05508
 C108 C 0.96294 -0.17644 0.04045
 O109 O 0.98057 -0.12119 -0.03327
 O110 O 0.91619 0.02846 -0.01187
 O111 O 1.03147 0.05019 -0.02200
 O112 O 0.87277 -0.13093 -0.04402
 O113 O 0.84146 -0.06815 -0.03274
 O114 O 1.06282 -0.01777 -0.01742
 O115 O 0.97382 -0.12685 -0.03281
 O116 O 0.92327 0.03299 -0.01262
 Co117 Co 1.00899 -0.07696 0.00692
 Co118 Co 0.88593 -0.04317 0.00611
 Co119 Co 0.98175 0.02692 0.01348
 Co120 Co 0.91444 -0.12698 -0.00604
 O121 O 0.95318 -0.04744 -0.01035
 C122 C 0.99017 -0.16290 -0.04060
 C123 C 0.89872 0.06513 -0.00871
 C124 C 1.06709 0.02952 -0.02904
 C125 C 0.84221 -0.10621 -0.05172
 O126 O 1.05803 0.49138 0.52895
 O127 O 0.87335 0.37307 0.52079
 O128 O 0.89458 0.49944 0.53533
 O129 O 0.98646 0.38421 0.52814
 O130 O 0.89145 0.49277 0.53725
 O131 O 0.99109 0.38729 0.52944
 O132 O 0.87697 0.36791 0.51995
 O133 O 0.97758 0.47653 0.54585
 C134 C 1.03085 0.50393 0.54998
 C135 C 0.86319 0.34308 0.54815
 C136 C 0.90333 0.54573 0.53803
 C137 C 1.00887 0.35261 0.53834
 O138 O 1.00550 0.38411 0.46132
 O139 O 0.89365 0.49854 0.46852
 O140 O 1.00692 0.54312 0.49452
 O141 O 0.88589 0.33562 0.45872
 O142 O 0.84507 0.39228 0.45942
 O143 O 1.06084 0.50147 0.46944
 O144 O 0.99743 0.37578 0.46344
 O145 O 0.90164 0.50588 0.46777
 Co146 Co 1.02656 0.44079 0.49524
 Co147 Co 0.88003 0.43769 0.49641
 Co148 Co 0.93684 0.48194 0.50543
 Co149 Co 0.93613 0.36671 0.49211
 O150 O 0.95462 0.44124 0.47961
 C151 C 1.01864 0.34251 0.46140
 C152 C 0.85578 0.49496 0.45052
 C153 C 1.05104 0.54467 0.47632
 C154 C 0.84937 0.35020 0.44753
 O155 O 0.49809 -0.06195 0.54037
 O156 O 0.40145 -0.07620 0.53183
 O157 O 0.38001 -0.00293 0.53924
 O158 O 0.49896 -0.14309 0.51040
 O159 O 0.30425 -0.06208 0.51885
 O160 O 0.50423 -0.13765 0.50977
 O161 O 0.40763 -0.08299 0.53088
 O162 O 0.48381 0.01154 0.54420
 C163 C 0.50592 -0.01857 0.55503
 C164 C 0.38421 -0.09980 0.56083
 C165 C 0.32775 -0.02494 0.53940
 C166 C 0.55288 -0.11937 0.51216
 O167 O 0.47768 -0.11913 0.45052
 O168 O 0.38376 0.00210 0.47584
 O169 O 0.50961 0.04134 0.48681
 O170 O 0.36977 -0.15608 0.46663
 O171 O 0.31701 -0.10351 0.45955
 O172 O 0.53573 -0.03034 0.48248
 O173 O 0.47796 -0.11868 0.45013
 O174 O 0.39202 0.01100 0.47377
 Co175 Co 0.47249 -0.09215 0.49740
 Co176 Co 0.35699 -0.07136 0.49589
 Co177 Co 0.44101 0.01101 0.50812
 Co178 Co 0.44504 -0.10744 0.49120
 O179 O 0.42647 -0.05640 0.47777
 C180 C 0.49750 -0.08729 0.42488
 C181 C 0.35789 0.03302 0.47593
 C182 C 0.54556 0.02110 0.47964
 C183 C 0.32611 -0.14567 0.45125
 O184 O 0.53783 0.47657 0.02932
 O185 O 0.39088 0.40072 0.02725
 O186 O 0.41253 0.53346 0.02114
 O187 O 0.49050 0.36963 0.01739
 O188 O 0.40518 0.52688 0.01697
 O189 O 0.49241 0.37260 0.01933
 O190 O 0.38587 0.32665 0.00572
 O191 O 0.45806 0.47493 0.04314
 C192 C 0.50715 0.48762 0.04998
 C193 C 0.37558 0.35147 0.02968
 C194 C 0.37272 0.54993 0.01821
 C195 C 0.51625 0.34050 0.02476
 O196 O 0.51520 0.38989 -0.04809
 O197 O 0.35723 0.46555 -0.05033
 O198 O 0.50515 0.53739 -0.01009
 O199 O 0.40029 0.33226 -0.05821
 O200 O 0.34168 0.36821 -0.03612
 O201 O 0.55873 0.49801 -0.03211
 O202 O 0.51176 0.38149 -0.04987
 O203 O 0.42752 0.52440 -0.03981
 Co204 Co 0.52393 0.43490 -0.00912
 Co205 Co 0.38143 0.44005 -0.01227
 Co206 Co 0.43308 0.48525 -0.00060
 Co207 Co 0.44561 0.35616 -0.02270
 O208 O 0.44962 0.43584 -0.03009
 C209 C 0.51881 0.40566 -0.07912
 C210 C 0.38730 0.51083 -0.05733
 C211 C 0.54771 0.53964 -0.02781
 C212 C 0.35471 0.33726 -0.05947
 C213 C 1.14866 0.10757 0.18429
 C214 C 1.16654 0.06718 0.17920
 C215 C 1.20563 0.06028 0.19989
 C216 C 1.22771 0.09691 0.22640
 C217 C 1.20985 0.13907 0.23228
 C218 C 1.16896 0.14341 0.21091
 O219 O 1.11516 0.11061 0.16019
 C220 C 1.11164 0.07127 0.13930
 C221 C 1.14186 0.04302 0.14984
 C222 C 1.14467 0.00085 0.13110
 C223 C 1.11554 -0.01237 0.10034
 C224 C 1.08508 0.01702 0.08852
 C225 C 1.08301 0.05927 0.10859
 H226 H 1.22070 0.02946 0.19472
 H227 H 1.26065 0.09381 0.24083
 H228 H 1.15606 0.17632 0.21339
 H229 H 1.16835 -0.02118 0.13985
 H230 H 1.11704 -0.04526 0.08558
 H231 H 1.05941 0.08187 0.10069
 C232 C 1.14880 0.62902 0.66694
 C233 C 1.11734 0.65315 0.65251
 C234 C 1.11629 0.70065 0.66420
 C235 C 1.14836 0.72413 0.69233
 C236 C 1.17941 0.69918 0.70937
 C237 C 1.18066 0.65140 0.69558
 O238 O 1.14488 0.58475 0.65080
 C239 C 1.10989 0.58096 0.62584
 C240 C 1.09178 0.62185 0.62608
 C241 C 1.05468 0.62604 0.60277
 C242 C 1.03512 0.58634 0.57816
 C243 C 1.05304 0.54383 0.57692
 C244 C 1.09142 0.54113 0.60096
 H245 H 1.09221 0.71950 0.65172
 H246 H 1.14916 0.76224 0.70055
 H247 H 1.20602 0.63260 0.70640
 H248 H 1.04123 0.65873 0.60351
 H249 H 1.00691 0.58943 0.55947
 H250 H 1.10562 0.50891 0.60056
 C251 C 0.61711 0.09478 0.67698
 C252 C 0.62768 0.04947 0.67467
 C253 C 0.66412 0.03978 0.69632
 C254 C 0.68987 0.07773 0.72159
 C255 C 0.67834 0.12444 0.72560
 C256 C 0.64239 0.13303 0.70152
 O257 O 0.58386 0.09862 0.65299
 C258 C 0.57323 0.05484 0.63489
 C259 C 0.59897 0.02320 0.64692
 C260 C 0.59518 -0.02327 0.63040
 C261 C 0.56454 -0.03694 0.60018
 C262 C 0.53774 -0.00470 0.58724
 C263 C 0.54192 0.04154 0.60535
 H264 H 0.67338 0.00471 0.69337
 H265 H 0.71981 0.07094 0.73719
 H266 H 0.63480 0.16930 0.70117
 H267 H 0.61562 -0.04782 0.64013
 H268 H 0.56174 -0.07263 0.58692
 H269 H 0.52208 0.06711 0.59638
 C270 C 0.61831 0.60448 0.17111
 C271 C 0.61278 0.63911 0.14690
 C272 C 0.63437 0.69383 0.15031
 C273 C 0.66292 0.71420 0.18006
 C274 C 0.66990 0.68018 0.20606
 C275 C 0.64686 0.62403 0.20141
 O276 O 0.59504 0.55371 0.16182
 C277 C 0.57477 0.55688 0.13109
 C278 C 0.58469 0.60847 0.12113
 C279 C 0.56903 0.62214 0.08985
 C280 C 0.54253 0.58096 0.06745
 C281 C 0.53152 0.52725 0.07659
 C282 C 0.54752 0.51468 0.10907
 H283 H 0.62942 0.72005 0.13069
 H284 H 0.67957 0.75703 0.18309
 H285 H 0.65053 0.59640 0.22037
 H286 H 0.57783 0.66321 0.08263
 H287 H 0.53138 0.59126 0.04260
 H288 H 0.53965 0.47403 0.11671
 C289 C 0.87917 -0.13072 0.19437
 C290 C 0.85102 -0.09838 0.18835
 C291 C 0.81612 -0.09158 0.21289
 C292 C 0.80492 -0.12395 0.24261
 C293 C 0.82422 -0.16542 0.24519
 C294 C 0.86769 -0.16352 0.22363
 O295 O 0.90140 -0.14058 0.16621
 C296 C 0.88515 -0.11646 0.14168
 C297 C 0.85324 -0.09071 0.15354
 C298 C 0.81809 -0.07849 0.13193
 C299 C 0.81642 -0.09292 0.09717
 C300 C 0.85201 -0.11586 0.08442
 C301 C 0.88608 -0.12802 0.10719
 H302 H 0.79403 -0.06641 0.20780
 H303 H 0.77407 -0.12294 0.26026
 H304 H 0.88220 -0.19554 0.22460
 H305 H 0.78917 -0.06333 0.14214
 H306 H 0.78566 -0.08894 0.08088
 H307 H 0.90699 -0.15292 0.09919
 C308 C 0.86919 0.33853 0.69274
 C309 C 0.83922 0.36867 0.68540
 C310 C 0.79920 0.37066 0.70783
 C311 C 0.78666 0.33718 0.73717
 C312 C 0.81195 0.30041 0.74226
 C313 C 0.85684 0.30478 0.72138
 O314 O 0.89708 0.33279 0.66606
 C315 C 0.88320 0.35777 0.64099
 C316 C 0.84777 0.38065 0.65106
 C317 C 0.81854 0.39737 0.62718
 C318 C 0.82563 0.38930 0.59195
 C319 C 0.86112 0.36460 0.58198
 C320 C 0.89087 0.35010 0.60670
 H321 H 0.77476 0.39302 0.70128
 H322 H 0.75211 0.33476 0.75270
 H323 H 0.87585 0.27629 0.72395
 H324 H 0.78871 0.41269 0.63547
 H325 H 0.80121 0.39881 0.57309
 H326 H 0.91526 0.32780 0.59966
 C327 C 0.40132 -0.09711 0.70409
 C328 C 0.43359 -0.12340 0.69325
 C329 C 0.43440 -0.16817 0.71062
 C330 C 0.39601 -0.19045 0.73709
 C331 C 0.35789 -0.16788 0.74514
 C332 C 0.36502 -0.11743 0.73154
 O333 O 0.39339 -0.06671 0.67979
 C334 C 0.41813 -0.07584 0.65254
 C335 C 0.44377 -0.11009 0.65927
 C336 C 0.45712 -0.13787 0.63328
 C337 C 0.44163 -0.13192 0.59968
 C338 C 0.41470 -0.09720 0.59249
 C339 C 0.40486 -0.06759 0.61917
 H340 H 0.45826 -0.18952 0.70104
 H341 H 0.39057 -0.22938 0.74736
 H342 H 0.33448 -0.10120 0.73614
 H343 H 0.47402 -0.16722 0.63907
 H344 H 0.44823 -0.15682 0.58039
 H345 H 0.38028 -0.04455 0.61483
 C346 C 0.36480 0.33742 0.17377
 C347 C 0.32105 0.34698 0.16191
 C348 C 0.28456 0.35684 0.18361
 C349 C 0.28935 0.34947 0.21891
 C350 C 0.32712 0.32841 0.23052
 C351 C 0.37043 0.33073 0.20872
 O352 O 0.39284 0.32605 0.14909
 C353 C 0.36557 0.32735 0.12118
 C354 C 0.32065 0.33883 0.12774
 C355 C 0.28424 0.33849 0.10252
 C356 C 0.29808 0.33189 0.06860
 C357 C 0.34753 0.32628 0.06107
 C358 C 0.37976 0.32021 0.08777
 H359 H 0.25086 0.36493 0.17368
 H360 H 0.25683 0.34907 0.23585
 H361 H 0.39954 0.31459 0.21714
 H362 H 0.24799 0.34551 0.10852
 H363 H 0.27341 0.33686 0.04802
 H364 H 0.41812 0.31685 0.08247
 C365 C 0.80329 0.15158 -0.11558
 C366 C 0.85697 0.16516 -0.12445
 C367 C 0.87896 0.19009 -0.15569
 C368 C 0.84432 0.20143 -0.17860
 C369 C 0.78843 0.18620 -0.17046
 C370 C 0.76771 0.16066 -0.13853
 O371 O 0.79020 0.12773 -0.08491
 C372 C 0.83638 0.12566 -0.07429
 C373 C 0.87841 0.14735 -0.09769
 C374 C 0.92911 0.14526 -0.09285
 C375 C 0.93639 0.11920 -0.06299
 C376 C 0.89374 0.09726 -0.03832
 C377 C 0.84350 0.10155 -0.04383
 H378 H 0.92115 0.19995 -0.16235
 H379 H 0.86048 0.21986 -0.20330
 H380 H 0.72516 0.14811 -0.13182
 H381 H 0.96131 0.16147 -0.11191
 H382 H 0.97482 0.11550 -0.05923
 H383 H 0.80995 0.08387 -0.02584
 C384 C 0.78349 0.61357 0.35020
 C385 C 0.81164 0.64803 0.37515
 C386 C 0.81419 0.69981 0.37687
 C387 C 0.78816 0.71742 0.35124
 C388 C 0.76171 0.68412 0.32350
 C389 C 0.75889 0.63072 0.32374
 O390 O 0.78264 0.56475 0.35460
 C391 C 0.81138 0.56873 0.38281
 C392 C 0.83095 0.61920 0.39600
 C393 C 0.86278 0.63256 0.42512
 C394 C 0.87370 0.59191 0.44185
 C395 C 0.85163 0.53885 0.42976
 C396 C 0.82037 0.52728 0.39966
 H397 H 0.83465 0.72553 0.39766
 H398 H 0.78899 0.75707 0.35368
 H399 H 0.73909 0.60284 0.30393
 H400 H 0.87820 0.67271 0.43481
 H401 H 0.89724 0.60123 0.46507
 H402 H 0.80274 0.48711 0.39006
 C403 C 0.33050 0.18920 0.38734
 C404 C 0.38524 0.19982 0.38640
 C405 C 0.41881 0.22652 0.35871
 C406 C 0.39426 0.23967 0.33020
 C407 C 0.33748 0.22531 0.33020
 C408 C 0.30589 0.20266 0.35971
 O409 O 0.30383 0.15614 0.41251
 C410 C 0.34184 0.14422 0.42748
 C411 C 0.39258 0.16984 0.41265
 C412 C 0.43580 0.15523 0.42006
 C413 C 0.42567 0.11159 0.44258
 C414 C 0.37300 0.08393 0.45714
 C415 C 0.33152 0.10209 0.45063
 H416 H 0.46156 0.23383 0.35811
 H417 H 0.41858 0.25780 0.30752
 H418 H 0.26225 0.19033 0.35961
 H419 H 0.47482 0.17433 0.40723
 H420 H 0.45800 0.09793 0.44732
 H421 H 0.29064 0.08027 0.46032
 C422 C 0.29885 0.62248 -0.15376
 C423 C 0.32432 0.65514 -0.12738
 C424 C 0.32626 0.70635 -0.12395
 C425 C 0.30219 0.72575 -0.14945
 C426 C 0.27913 0.69506 -0.17881
 C427 C 0.27643 0.64180 -0.18040
 O428 O 0.30038 0.57422 -0.15103
 C429 C 0.32824 0.57719 -0.12245
 C430 C 0.34446 0.62647 -0.10765
 C431 C 0.37674 0.64060 -0.07904
 C432 C 0.39249 0.60206 -0.06451
 C433 C 0.37433 0.54980 -0.07779
 C434 C 0.34149 0.53681 -0.10729
 H435 H 0.34522 0.73044 -0.10217
 H436 H 0.30207 0.76484 -0.14566
 H437 H 0.25917 0.61653 -0.20195
 H438 H 0.38966 0.68004 -0.06838
 H439 H 0.41729 0.61255 -0.04186
 H440 H 0.32707 0.49721 -0.11787
 C441 C 1.14628 -0.19534 -0.13553
 C442 C 1.14237 -0.14779 -0.14404
 C443 C 1.16773 -0.11755 -0.17303
 C444 C 1.19733 -0.13778 -0.19462
 C445 C 1.20138 -0.18696 -0.18667
 C446 C 1.17643 -0.21567 -0.15638
 O447 O 1.11595 -0.21950 -0.10822
 C448 C 1.09235 -0.18648 -0.09932
 C449 C 1.10734 -0.14205 -0.12047
 C450 C 1.08576 -0.10350 -0.11709
 C451 C 1.04782 -0.11040 -0.09054
 C452 C 1.03151 -0.15576 -0.06801
 C453 C 1.05401 -0.19451 -0.07272
 H454 H 1.16303 -0.08082 -0.17954
 H455 H 1.21518 -0.11645 -0.21824
 H456 H 1.17764 -0.25417 -0.15050
 H457 H 1.09715 -0.06961 -0.13459
 H458 H 1.03057 -0.08061 -0.08801
 H459 H 1.04170 -0.22986 -0.05642
 C460 C 1.14280 0.27622 0.36180
 C461 C 1.16391 0.33103 0.36187
 C462 C 1.20623 0.36201 0.34019
 C463 C 1.22804 0.33540 0.31768
 C464 C 1.20707 0.27890 0.31708
 C465 C 1.16347 0.24893 0.33934
 O466 O 1.10276 0.25441 0.38459
 C467 C 1.09843 0.29638 0.39925
 C468 C 1.13480 0.34420 0.38617
 C469 C 1.13641 0.39319 0.39717
 C470 C 1.09835 0.39284 0.42231
 C471 C 1.06045 0.34391 0.43621
 C472 C 1.06109 0.29515 0.42484
 H473 H 1.22210 0.40509 0.34072
 H474 H 1.26108 0.35890 0.30063
 H475 H 1.14701 0.20579 0.33975
 H476 H 1.16537 0.43028 0.38645
 H477 H 1.09834 0.43054 0.43084
 H478 H 1.03210 0.25740 0.43479
 C479 C 0.62796 -0.17562 0.34534
 C480 C 0.62170 -0.13574 0.32596
 C481 C 0.64196 -0.12314 0.29256
 C482 C 0.66829 -0.15394 0.27833
 C483 C 0.67600 -0.19452 0.29810
 C484 C 0.65635 -0.20493 0.33224
 O485 O 0.60191 -0.18415 0.37537
 C486 C 0.57888 -0.14889 0.37499
 C487 C 0.59011 -0.11787 0.34552
 C488 C 0.57028 -0.07811 0.34003
 C489 C 0.53801 -0.06977 0.36619
 C490 C 0.52549 -0.10166 0.39653
 C491 C 0.54603 -0.14206 0.40086
 H492 H 0.63542 -0.09257 0.27746
 H493 H 0.68127 -0.14734 0.25163
 H494 H 0.65990 -0.23713 0.34726
 H495 H 0.58010 -0.05375 0.31680
 H496 H 0.52338 -0.03806 0.36317
 H497 H 0.53814 -0.16645 0.42407
 C498 C 0.65421 0.32206 -0.15880
 C499 C 0.61688 0.32942 -0.18008
 C500 C 0.60808 0.31040 -0.21323
 C501 C 0.63711 0.28050 -0.22453
 C502 C 0.67535 0.27100 -0.20310
 C503 C 0.68578 0.29446 -0.17018
 O504 O 0.65187 0.33865 -0.12705
 C505 C 0.61210 0.35645 -0.12848
 C506 C 0.58979 0.35211 -0.16051
 C507 C 0.54533 0.36495 -0.16742
 C508 C 0.52300 0.38344 -0.14020
 C509 C 0.54446 0.38731 -0.10687
 C510 C 0.58994 0.37403 -0.10088
 H511 H 0.57844 0.31674 -0.22942
 H512 H 0.63015 0.26533 -0.25038
 H513 H 0.71376 0.28747 -0.15281
 H514 H 0.52781 0.35992 -0.19270
 H515 H 0.48792 0.39305 -0.14477
 H516 H 0.60703 0.37678 -0.07554
 C517 C 1.14790 0.13682 -0.16012
 C518 C 1.16553 0.09594 -0.15620
 C519 C 1.19024 0.07939 -0.18259
 C520 C 1.19904 0.10736 -0.21399
 C521 C 1.18241 0.15074 -0.21888
 C522 C 1.15627 0.16538 -0.19119
 O523 O 1.12394 0.14506 -0.13195
 C524 C 1.12674 0.10865 -0.10983
 C525 C 1.15248 0.07811 -0.12332
 C526 C 1.15926 0.03716 -0.10491
 C527 C 1.13575 0.02502 -0.07191
 C528 C 1.10547 0.05334 -0.05815
 C529 C 1.10314 0.09741 -0.07698
 H530 H 1.20336 0.04676 -0.17892
 H531 H 1.22112 0.09653 -0.23394
 H532 H 1.14502 0.19943 -0.19307
 H533 H 1.17994 0.01388 -0.11612
 H534 H 1.13804 -0.00887 -0.05820
 H535 H 1.08005 0.11966 -0.06762
 C536 C 1.12532 0.64028 0.34653
 C537 C 1.16719 0.63517 0.36422
 C538 C 1.21350 0.63492 0.34791
 C539 C 1.21859 0.64392 0.31223
 C540 C 1.17895 0.65554 0.29345
 C541 C 1.13044 0.65155 0.31106
 O542 O 1.08250 0.63380 0.36662
 C543 C 1.09815 0.62516 0.39772
 C544 C 1.15033 0.62730 0.39768
 C545 C 1.17478 0.61846 0.42711
 C546 C 1.14271 0.60203 0.45712
 C547 C 1.08664 0.59230 0.45680
 C548 C 1.06509 0.60790 0.42735
 H549 H 1.24508 0.62880 0.36226
 H550 H 1.25606 0.64706 0.29969
 H551 H 1.09895 0.66013 0.29848
 H552 H 1.21605 0.62076 0.42646
 H553 H 1.15953 0.58944 0.47912
 H554 H 1.02209 0.59903 0.42576
 C555 C 0.64418 0.11739 0.35157
 C556 C 0.64300 0.15587 0.37366
 C557 C 0.64919 0.20659 0.36255
 C558 C 0.66014 0.21925 0.32751
 C559 C 0.66629 0.18202 0.30415
 C560 C 0.65622 0.12945 0.31651
 O561 O 0.63294 0.07040 0.36723
 C562 C 0.62519 0.07980 0.39998
 C563 C 0.63202 0.13184 0.40521
 C564 C 0.62509 0.15057 0.43717
 C565 C 0.60647 0.11345 0.46436
 C566 C 0.59216 0.05811 0.45892
 C567 C 0.60573 0.04175 0.42681
 H568 H 0.64610 0.23563 0.38030
 H569 H 0.66710 0.25938 0.31880
 H570 H 0.65919 0.09903 0.30011
 H571 H 0.63089 0.19180 0.44064
 H572 H 0.59651 0.12693 0.48859
 H573 H 0.59544 0.00016 0.42159
 C574 C 0.64257 0.63519 -0.15845
 C575 C 0.60327 0.65366 -0.14961
 C576 C 0.58523 0.68258 -0.17245
 C577 C 0.61003 0.69473 -0.20527
 C578 C 0.65178 0.67703 -0.21546
 C579 C 0.66774 0.64656 -0.19094
 O580 O 0.65385 0.60815 -0.13309
 C581 C 0.62104 0.60977 -0.10761
 C582 C 0.58962 0.63764 -0.11622
 C583 C 0.55211 0.64373 -0.09336
 C584 C 0.54445 0.61750 -0.06120
 C585 C 0.57287 0.58447 -0.05281
 C586 C 0.61391 0.58318 -0.07583
 H587 H 0.55424 0.69681 -0.16486
 H588 H 0.59858 0.72064 -0.22187
 H589 H 0.70133 0.63475 -0.19595
 H590 H 0.52772 0.66582 -0.10059
 H591 H 0.51280 0.61905 -0.04425
 H592 H 0.63585 0.55785 -0.07070
 C593 C 0.84269 -0.14913 -0.19603
 C594 C 0.81923 -0.11231 -0.19290
 C595 C 0.79539 -0.09760 -0.22068
 C596 C 0.78958 -0.12695 -0.25103
 C597 C 0.80630 -0.17051 -0.25231
 C598 C 0.84138 -0.17481 -0.22676
 O599 O 0.85392 -0.16575 -0.16626
 C600 C 0.83726 -0.13925 -0.14379
 C601 C 0.81645 -0.10515 -0.15831
 C602 C 0.79510 -0.07534 -0.13829
 C603 C 0.79918 -0.07828 -0.10218
 C604 C 0.82167 -0.11279 -0.08716
 C605 C 0.83772 -0.14575 -0.10863
 H606 H 0.77620 -0.06942 -0.21786
 H607 H 0.76350 -0.12224 -0.27078
 H608 H 0.85439 -0.20791 -0.22677
 H609 H 0.77805 -0.04919 -0.15001
 H610 H 0.78718 -0.05226 -0.08621
 H611 H 0.85423 -0.17342 -0.09847
 C612 C 0.83698 0.36353 0.30189
 C613 C 0.86361 0.33143 0.31185
 C614 C 0.88434 0.30579 0.28837
 C615 C 0.86949 0.30703 0.25408
 C616 C 0.82505 0.32127 0.24707
 C617 C 0.81998 0.36175 0.26783
 O618 O 0.81694 0.38100 0.32832
 C619 C 0.82853 0.35700 0.35518
 C620 C 0.85449 0.32414 0.34606
 C621 C 0.85780 0.28523 0.36815
 C622 C 0.84106 0.28563 0.40222
 C623 C 0.82712 0.32806 0.41406
 C624 C 0.81528 0.36083 0.38964
 H625 H 0.90812 0.28341 0.29633
 H626 H 0.88445 0.28741 0.23513
 H627 H 0.78974 0.37773 0.26193
 H628 H 0.87270 0.25567 0.35951
 H629 H 0.84676 0.25771 0.42029
 H630 H 0.80172 0.39173 0.39744
 C631 C 0.33374 -0.15713 0.30704
 C632 C 0.28926 -0.14669 0.31700
 C633 C 0.25663 -0.13489 0.29339
 C634 C 0.26577 -0.14196 0.25850
 C635 C 0.29875 -0.17014 0.24991
 C636 C 0.34192 -0.16508 0.27230
 O637 O 0.35766 -0.17038 0.33322
 C638 C 0.32684 -0.16970 0.36001
 C639 C 0.28350 -0.15710 0.35131
 C640 C 0.24298 -0.15989 0.37486
 C641 C 0.25171 -0.16826 0.40955
 C642 C 0.30083 -0.17234 0.41965
 C643 C 0.33599 -0.17863 0.39428
 H644 H 0.22301 -0.12486 0.30154
 H645 H 0.23775 -0.13824 0.23997
 H646 H 0.37056 -0.18284 0.26570
 H647 H 0.20716 -0.15365 0.36704
 H648 H 0.22340 -0.16532 0.42875
 H649 H 0.37341 -0.18253 0.40110
 C650 C 0.35808 0.32832 -0.20556
 C651 C 0.32397 0.35355 -0.19679
 C652 C 0.29522 0.36894 -0.22136
 C653 C 0.29547 0.35033 -0.25493
 C654 C 0.31937 0.31275 -0.26126
 C655 C 0.36051 0.31228 -0.23904
 O656 O 0.37475 0.30895 -0.17879
 C657 C 0.35030 0.32134 -0.15265
 C658 C 0.31883 0.34881 -0.16188
 C659 C 0.28673 0.36167 -0.13800
 C660 C 0.29206 0.35074 -0.10300
 C661 C 0.32778 0.32594 -0.09305
 C662 C 0.35325 0.30711 -0.11880
 H663 H 0.26889 0.38908 -0.21431
 H664 H 0.26766 0.35578 -0.27307
 H665 H 0.38069 0.28522 -0.24364
 H666 H 0.26041 0.38139 -0.14583
 H667 H 0.27164 0.36506 -0.08381
 H668 H 0.38001 0.28705 -0.11255
 C669 C 1.09445 -0.25897 0.13395
 C670 C 1.08760 -0.21008 0.14380
 C671 C 1.10994 -0.18020 0.17543
 C672 C 1.13862 -0.19929 0.19715
 C673 C 1.14773 -0.24461 0.18873
 C674 C 1.12709 -0.27381 0.15892
 O675 O 1.07173 -0.22257 0.12479
 C676 C 1.04375 -0.23748 0.09479
 C677 C 1.05899 -0.19806 0.12081
 C678 C 1.04389 -0.15098 0.12142
 C679 C 1.01337 -0.14373 0.09510
 C680 C 0.99736 -0.18069 0.06887
 C681 C 1.01207 -0.22503 0.06976
 H682 H 1.10383 -0.14441 0.18197
 H683 H 1.15372 -0.17867 0.22075
 H684 H 1.10459 -0.28248 0.13566
 H685 H 1.05613 -0.12240 0.14185
 H686 H 1.00154 -0.11006 0.09576
 H687 H 0.99807 -0.25322 0.04913
 C688 C 1.14457 0.31104 0.63810
 C689 C 1.11942 0.33993 0.65456
 C690 C 1.11847 0.34361 0.69026
 C691 C 1.14407 0.31605 0.70949
 C692 C 1.17012 0.28631 0.69263
 C693 C 1.17097 0.28474 0.65648
 O694 O 1.13637 0.30723 0.60467
 C695 C 1.10524 0.33417 0.59963
 C696 C 1.09406 0.35581 0.62911
 C697 C 1.05908 0.38271 0.62950
 C698 C 1.03375 0.38595 0.59853
 C699 C 1.04264 0.36080 0.56867
 C700 C 1.07980 0.33595 0.56911
 H701 H 1.09756 0.36556 0.70285
 H702 H 1.14367 0.31777 0.73726
 H703 H 1.18948 0.26150 0.64288
 H704 H 1.05012 0.39889 0.65294
 H705 H 1.00508 0.40511 0.59834
 H706 H 1.08646 0.31585 0.54671
 C707 C 0.61060 -0.23882 0.62686
 C708 C 0.65225 -0.19046 0.61158
 C709 C 0.70753 -0.16261 0.62544
 C710 C 0.72103 -0.18374 0.65429
 C711 C 0.68417 -0.23066 0.66982
 C712 C 0.63110 -0.25678 0.65716
 O713 O 0.62205 -0.20114 0.60038
 C714 C 0.57801 -0.21210 0.57947
 C715 C 0.63337 -0.17749 0.58381
 C716 C 0.66445 -0.13203 0.56061
 C717 C 0.63775 -0.11675 0.53546
 C718 C 0.58263 -0.14502 0.53220
 C719 C 0.55583 -0.19201 0.55218
 H720 H 0.73853 -0.12736 0.61354
 H721 H 0.76036 -0.16229 0.66487
 H722 H 0.59786 -0.26346 0.64001
 H723 H 0.70652 -0.10821 0.56476
 H724 H 0.65947 -0.08043 0.52063
 H725 H 0.51341 -0.21462 0.54726
 C726 C 0.61986 0.27852 0.13900
 C727 C 0.62338 0.32950 0.14492
 C728 C 0.64803 0.35795 0.17380
 C729 C 0.66915 0.33242 0.19780
 C730 C 0.66497 0.27964 0.19240
 C731 C 0.64066 0.25255 0.16247
 O732 O 0.59514 0.25862 0.10997
 C733 C 0.58254 0.29775 0.09730
 C734 C 0.59871 0.34188 0.11775
 C735 C 0.58858 0.38696 0.10964
 C736 C 0.56065 0.38646 0.07925
 C737 C 0.54433 0.34189 0.05740
 C738 C 0.55555 0.29692 0.06669
 H739 H 0.65106 0.39833 0.17764
 H740 H 0.68901 0.35364 0.22039
 H741 H 0.63776 0.21240 0.15781
 H742 H 0.60158 0.42123 0.12612
 H743 H 0.55253 0.42090 0.07271
 H744 H 0.54303 0.26202 0.05070
 C745 C 0.76743 0.10451 0.15094
 C746 C 0.82215 0.12311 0.15674
 C747 C 0.84821 0.16162 0.18057
 C748 C 0.81650 0.18211 0.19945
 C749 C 0.76046 0.16531 0.19379
 C750 C 0.73487 0.12511 0.16956
 O751 O 0.75195 0.06819 0.12632
 C752 C 0.79820 0.06425 0.11657
 C753 C 0.84187 0.09720 0.13471
 C754 C 0.89446 0.10179 0.12878
 C755 C 0.90303 0.07120 0.10285
 C756 C 0.85942 0.03665 0.08322
 C757 C 0.80581 0.03283 0.09019
 H758 H 0.89141 0.17528 0.18460
 H759 H 0.83519 0.21015 0.21915
 H760 H 0.69170 0.11103 0.16526
 H761 H 0.92799 0.12885 0.14317
 H762 H 0.94444 0.07578 0.09771
 H763 H 0.77184 0.00710 0.07550
 C764 C 0.84118 0.68322 0.63911
 C765 C 0.83701 0.63031 0.65030
 C766 C 0.81435 0.60566 0.68407
 C767 C 0.79006 0.63074 0.70482
 C768 C 0.78607 0.67835 0.69388
 C769 C 0.81274 0.70481 0.66331
 O770 O 0.84975 0.63790 0.62941
 C771 C 0.87524 0.64531 0.59771
 C772 C 0.85637 0.60927 0.62640
 C773 C 0.85839 0.55561 0.62848
 C774 C 0.87501 0.53648 0.59997
 C775 C 0.88952 0.56756 0.56997
 C776 C 0.89176 0.62017 0.57034
 H777 H 0.81491 0.56781 0.69239
 H778 H 0.77398 0.61196 0.72939
 H779 H 0.83902 0.71138 0.64125
 H780 H 0.84505 0.53039 0.65117
 H781 H 0.87608 0.49731 0.60130
 H782 H 0.90780 0.64461 0.54750
 C783 C 0.28742 0.12704 0.62673
 C784 C 0.24264 0.10389 0.60655
 C785 C 0.19710 0.11649 0.60911
 C786 C 0.19643 0.15175 0.63495
 C787 C 0.24093 0.17346 0.65711
 C788 C 0.28789 0.16274 0.65209
 O789 O 0.32491 0.10716 0.62197
 C790 C 0.30313 0.07027 0.59864
 C791 C 0.25274 0.06628 0.58842
 C792 C 0.22178 0.02801 0.56548
 C793 C 0.24479 -0.00596 0.55144
 C794 C 0.29775 -0.00082 0.56058
 C795 C 0.32654 0.03711 0.58519
 H796 H 0.16221 0.09759 0.59317
 H797 H 0.15995 0.15914 0.63938
 H798 H 0.32142 0.17742 0.66963
 H799 H 0.18189 0.02515 0.55812
 H800 H 0.22268 -0.03407 0.53215
 H801 H 0.36726 0.04255 0.59253
 C802 C 0.29137 0.65449 0.12214
 C803 C 0.34421 0.66322 0.12969
 C804 C 0.36746 0.68349 0.16095
 C805 C 0.33494 0.69516 0.18548
 C806 C 0.28045 0.68649 0.17836
 C807 C 0.25848 0.66651 0.14611
 O808 O 0.27606 0.63119 0.09202
 C809 C 0.32014 0.62500 0.08032
 C810 C 0.36296 0.64424 0.10239
 C811 C 0.41177 0.63874 0.09654
 C812 C 0.41625 0.61107 0.06731
 C813 C 0.37219 0.58892 0.04454
 C814 C 0.32396 0.59752 0.05075
 H815 H 0.40880 0.68905 0.16654
 H816 H 0.35185 0.71040 0.21016
 H817 H 0.21677 0.65922 0.14034
 H818 H 0.44457 0.65337 0.11457
 H819 H 0.45324 0.60483 0.06339
 H820 H 0.28917 0.58002 0.03448
   
