data_POSCAR
  _audit_creation_date              2014-09-24
  _audit_creation_method            'ToBaCCo'
  _symmetry_space_group_name_H-M    'P1'
  _symmetry_Int_Tables_number       1
  _symmetry_cell_setting            triclinic
  loop_
  _symmetry_equiv_pos_as_xyz
 x,y,z
_cell_length_a 22.3874
_cell_length_b 22.4124
_cell_length_c 22.4382
_cell_angle_alpha 89.905900
_cell_angle_beta 90.023500
_cell_angle_gamma 90.013000
loop_
  _atom_site_label
  _atom_site_type_symbol
  _atom_site_fract_x
  _atom_site_fract_y
  _atom_site_fract_z
C1 C 0.29367 0.25027 0.20542
 C2 C 0.29369 0.20610 0.24968
 C3 C 0.24964 0.20620 0.29404
 C4 C 0.20553 0.25057 0.29409
 C5 C 0.20544 0.29479 0.24985
 C6 C 0.24953 0.29460 0.20554
 H7 H 0.32784 0.17178 0.24962
 H8 H 0.17141 0.25067 0.32839
 H9 H 0.24950 0.32881 0.17129
 C10 C 0.70519 -0.25067 0.20516
 C11 C 0.70514 -0.20672 0.24959
 C12 C 0.74948 -0.20675 0.29371
 C13 C 0.79394 -0.25075 0.29342
 C14 C 0.79415 -0.29477 0.24908
 C15 C 0.74974 -0.29469 0.20495
 H16 H 0.67078 -0.17258 0.24993
 H17 H 0.82821 -0.25065 0.32764
 H18 H 0.74983 -0.32875 0.17060
 C19 C 0.70738 0.25112 0.79331
 C20 C 0.70774 0.20675 0.74941
 C21 C 0.75197 0.20682 0.70524
 C22 C 0.79592 0.25138 0.70500
 C23 C 0.79567 0.29588 0.74891
 C24 C 0.75132 0.29566 0.79305
 H25 H 0.67372 0.17229 0.74960
 H26 H 0.83013 0.25134 0.67075
 H27 H 0.75093 0.32996 0.82712
 C28 C 0.29316 -0.25165 0.79546
 C29 C 0.24861 -0.29563 0.79553
 C30 C 0.20435 -0.29557 0.75124
 C31 C 0.20478 -0.25140 0.70688
 C32 C 0.24930 -0.20742 0.70677
 C33 C 0.29344 -0.20759 0.75106
 H34 H 0.24849 -0.32970 0.82994
 H35 H 0.17065 -0.25116 0.67253
 H36 H 0.32789 -0.17355 0.75099
 C37 C 0.70641 -0.25122 0.79521
 C38 C 0.70635 -0.20697 0.75105
 C39 C 0.75053 -0.20686 0.70687
 C40 C 0.79479 -0.25102 0.70684
 C41 C 0.79491 -0.29533 0.75100
 C42 C 0.75067 -0.29539 0.79520
 H43 H 0.67209 -0.17277 0.75107
 H44 H 0.82895 -0.25082 0.67253
 H45 H 0.75059 -0.32961 0.82947
 C46 C 0.29366 0.25033 0.79325
 C47 C 0.24953 0.29460 0.79310
 C48 C 0.20512 0.29447 0.74913
 C49 C 0.20483 0.25005 0.70530
 C50 C 0.24897 0.20577 0.70545
 C51 C 0.29337 0.20592 0.74942
 H52 H 0.24974 0.32898 0.82706
 H53 H 0.17044 0.24995 0.67123
 H54 H 0.32756 0.17163 0.74953
 C55 C 0.29612 -0.24985 0.20501
 C56 C 0.25137 -0.29361 0.20464
 C57 C 0.20691 -0.29336 0.24854
 C58 C 0.20714 -0.24942 0.29281
 C59 C 0.25180 -0.20569 0.29325
 C60 C 0.29630 -0.20587 0.24937
 H61 H 0.25105 -0.32775 0.17040
 H62 H 0.17271 -0.24927 0.32680
 H63 H 0.33084 -0.17189 0.24983
 C64 C 0.70584 0.24977 0.20588
 C65 C 0.70607 0.20541 0.24992
 C66 C 0.75019 0.20561 0.29420
 C67 C 0.79406 0.25017 0.29443
 C68 C 0.79381 0.29452 0.25039
 C69 C 0.74971 0.29431 0.20613
 H70 H 0.67208 0.17092 0.24974
 H71 H 0.82824 0.25032 0.32871
 H72 H 0.74953 0.32865 0.17201
 O73 O 0.29928 0.05781 0.44246
 O74 O 0.29930 -0.05881 0.55851
 O75 O 0.30025 -0.05833 0.44235
 O76 O 0.29892 0.05742 0.55844
 O77 O 0.20012 0.05691 0.55790
 O78 O 0.20146 -0.05889 0.44177
 O79 O 0.20052 -0.05933 0.55792
 O80 O 0.20049 0.05724 0.44192
 Cu81 Cu 0.30941 -0.00045 0.50052
 Cu82 Cu 0.19068 -0.00112 0.49984
 C83 C 0.24987 0.07721 0.42262
 C84 C 0.24989 -0.07873 0.57782
 C85 C 0.25108 -0.07807 0.42240
 C86 C 0.24933 0.07677 0.57769
 O87 O 0.80072 0.05728 0.55794
 O88 O 0.79955 -0.05918 0.44216
 O89 O 0.79996 0.05699 0.44195
 O90 O 0.79993 -0.05899 0.55832
 O91 O 0.70114 -0.05854 0.55871
 O92 O 0.70117 0.05741 0.44238
 O93 O 0.70077 -0.05875 0.44256
 O94 O 0.70194 0.05773 0.55836
 Cu95 Cu 0.81001 -0.00106 0.50007
 Cu96 Cu 0.69129 -0.00052 0.50057
 C97 C 0.75152 0.07724 0.57762
 C98 C 0.74999 -0.07856 0.42275
 C99 C 0.75056 0.07679 0.42256
 C100 C 0.75052 -0.07832 0.57816
 O101 O 0.44197 0.29955 0.05708
 O102 O 0.55856 0.29987 -0.05874
 O103 O 0.44221 0.29966 -0.05894
 O104 O 0.55821 0.29928 0.05731
 O105 O 0.55816 0.20059 0.05719
 O106 O 0.44220 0.20097 -0.05904
 O107 O 0.55855 0.20120 -0.05888
 O108 O 0.44191 0.20087 0.05700
 Cu109 Cu 0.50025 0.30956 -0.00083
 Cu110 Cu 0.50021 0.19094 -0.00097
 C111 C 0.42229 0.25018 0.07662
 C112 C 0.57825 0.25060 -0.07835
 C113 C 0.42260 0.25036 -0.07857
 C114 C 0.57771 0.24987 0.07690
 O115 O 0.55869 0.79850 0.05931
 O116 O 0.44196 0.79803 -0.05666
 O117 O 0.44233 0.79875 0.05941
 O118 O 0.55833 0.79827 -0.05679
 O119 O 0.55831 0.69959 -0.05627
 O120 O 0.44227 0.70007 0.05997
 O121 O 0.44194 0.69936 -0.05610
 O122 O 0.55864 0.69983 0.05984
 Cu123 Cu 0.50034 0.80834 0.00126
 Cu124 Cu 0.50030 0.68975 0.00192
 C125 C 0.57836 0.74923 0.07915
 C126 C 0.42224 0.74861 -0.07594
 C127 C 0.42271 0.74950 0.07928
 C128 C 0.57789 0.74886 -0.07614
 O129 O 0.05744 0.44378 0.29886
 O130 O -0.05895 0.56004 0.29840
 O131 O -0.05876 0.44383 0.29914
 O132 O 0.05749 0.55992 0.29813
 O133 O 0.05724 0.55952 0.19956
 O134 O -0.05902 0.44343 0.20057
 O135 O -0.05922 0.55965 0.19985
 O136 O 0.05719 0.44338 0.20030
 Cu137 Cu -0.00068 0.50199 0.30859
 Cu138 Cu -0.00100 0.50150 0.19011
 C139 C 0.07692 0.42391 0.24965
 C140 C -0.07879 0.57943 0.24906
 C141 C -0.07841 0.42396 0.25001
 C142 C 0.07707 0.57921 0.24869
 O143 O 0.05737 0.55868 0.79978
 O144 O -0.05908 0.44237 0.79871
 O145 O 0.05715 0.44251 0.79885
 O146 O -0.05907 0.55862 0.79963
 O147 O -0.05900 0.55951 0.70107
 O148 O 0.05722 0.44340 0.70028
 O149 O -0.05902 0.44326 0.70015
 O150 O 0.05743 0.55957 0.70122
 Cu151 Cu -0.00093 0.50049 0.80919
 Cu152 Cu -0.00085 0.50157 0.69073
 C153 C 0.07713 0.57869 0.75067
 C154 C -0.07863 0.42310 0.74927
 C155 C 0.07676 0.42333 0.74944
 C156 C -0.07867 0.57864 0.75048
 C157 C 0.33899 0.25016 0.15991
 C158 C 0.37700 0.25012 0.12185
 C159 C 0.66201 0.74937 0.16227
 C160 C 0.62381 0.74935 0.12431
 C161 C 0.66185 0.25095 -0.16137
 C162 C 0.62369 0.25077 -0.12345
 C163 C 0.33863 0.74832 -0.15909
 C164 C 0.37678 0.74842 -0.12110
 C165 C 0.16009 0.34035 0.24987
 C166 C 0.12212 0.37852 0.24980
 C167 C 0.16104 0.66163 0.75122
 C168 C 0.12270 0.62378 0.75103
 C169 C -0.16258 0.66242 0.24893
 C170 C -0.12430 0.62454 0.24893
 C171 C -0.16155 0.33919 0.74880
 C172 C -0.12371 0.37753 0.74892
 C173 C 0.24971 0.16074 0.33946
 C174 C 0.24980 0.12261 0.37745
 C175 C 0.75210 0.16114 0.66016
 C176 C 0.75193 0.12282 0.62247
 C177 C 0.24963 -0.16205 0.66123
 C178 C 0.24982 -0.12403 0.62312
 C179 C 0.74946 -0.16154 0.33927
 C180 C 0.74962 -0.12368 0.37742
 C181 C 0.66105 0.74873 -0.15941
 C182 C 0.62307 0.74874 -0.12138
 C183 C 0.33920 0.25043 -0.16158
 C184 C 0.37733 0.25044 -0.12369
 C185 C 0.33929 0.74994 0.16229
 C186 C 0.37744 0.74973 0.12441
 C187 C 0.66059 0.24966 0.16042
 C188 C 0.62273 0.24971 0.12227
 C189 C -0.16208 0.66175 0.75092
 C190 C -0.12398 0.62378 0.75076
 C191 C -0.16113 0.34021 0.25047
 C192 C -0.12338 0.37850 0.25034
 C193 C 0.15981 0.33992 0.74908
 C194 C 0.12188 0.37803 0.74918
 C195 C 0.16106 0.66171 0.24831
 C196 C 0.12266 0.62407 0.24838
 C197 C 0.75047 -0.16145 0.66151
 C198 C 0.75049 -0.12347 0.62346
 C199 C 0.25183 -0.16061 0.33876
 C200 C 0.25157 -0.12291 0.37697
 C201 C 0.75039 0.16011 0.33945
 C202 C 0.75051 0.12203 0.37739
 C203 C 0.24883 0.16022 0.66040
 C204 C 0.24893 0.12207 0.62265
   
