data_POSCAR
  _audit_creation_date              2014-09-24
  _audit_creation_method            'ToBaCCo'
  _symmetry_space_group_name_H-M    'P1'
  _symmetry_Int_Tables_number       1
  _symmetry_cell_setting            triclinic
  loop_
  _symmetry_equiv_pos_as_xyz
 x,y,z
_cell_length_a 36.0755
_cell_length_b 36.3042
_cell_length_c 36.4952
_cell_angle_alpha 90.023300
_cell_angle_beta 90.012600
_cell_angle_gamma 90.027300
loop_
  _atom_site_label
  _atom_site_type_symbol
  _atom_site_fract_x
  _atom_site_fract_y
  _atom_site_fract_z
O1 O 0.37247 0.32157 -0.03619
 O2 O 0.32185 0.37236 0.03518
 O3 O 0.37227 0.32159 0.03530
 O4 O 0.32264 0.37284 -0.03643
 O5 O 0.27797 0.33124 -0.03597
 O6 O 0.32906 0.27843 0.03422
 O7 O 0.27779 0.33003 0.03460
 O8 O 0.32879 0.27886 -0.03649
 Cu9 Cu 0.35168 0.35135 -0.00049
 Cu10 Cu 0.29898 0.30033 -0.00100
 C11 C 0.35948 0.29137 -0.04812
 C12 C 0.29105 0.36005 0.04672
 C13 C 0.35945 0.29106 0.04655
 C14 C 0.29155 0.36122 -0.04798
 O15 O 0.67834 0.62769 0.03464
 O16 O 0.62770 0.67852 -0.03665
 O17 O 0.67743 0.62713 -0.03696
 O18 O 0.62807 0.67857 0.03483
 O19 O 0.67138 0.72163 0.03369
 O20 O 0.72219 0.66864 -0.03658
 O21 O 0.67147 0.72114 -0.03702
 O22 O 0.72250 0.66991 0.03399
 Cu23 Cu 0.64850 0.64873 -0.00100
 Cu24 Cu 0.70131 0.69963 -0.00159
 C25 C 0.70918 0.63994 0.04614
 C26 C 0.64072 0.70870 -0.04859
 C27 C 0.70853 0.63867 -0.04855
 C28 C 0.64099 0.70907 0.04608
 O29 O 0.62759 0.32156 1.03635
 O30 O 0.67823 0.37237 0.96502
 O31 O 0.62783 0.32157 0.96486
 O32 O 0.67735 0.37291 1.03661
 O33 O 0.72205 0.33137 1.03618
 O34 O 0.67106 0.27847 0.96595
 O35 O 0.72230 0.33009 0.96561
 O36 O 0.67130 0.27892 1.03667
 Cu37 Cu 0.64837 0.35136 1.00067
 Cu38 Cu 0.70110 0.30041 1.00120
 C39 C 0.64060 0.29139 1.04829
 C40 C 0.70903 0.36008 0.95348
 C41 C 0.64069 0.29108 0.95359
 C42 C 0.70844 0.36134 1.04817
 O43 O 0.32195 0.62745 0.96529
 O44 O 0.37279 0.67842 1.03647
 O45 O 0.32295 0.62706 1.03691
 O46 O 0.37235 0.67830 0.96498
 O47 O 0.32911 0.72139 0.96610
 O48 O 0.27827 0.66862 1.03651
 O49 O 0.32911 0.72109 1.03681
 O50 O 0.27787 0.66970 0.96593
 Cu51 Cu 0.35188 0.64855 1.00087
 Cu52 Cu 0.29917 0.69950 1.00144
 C53 C 0.29111 0.63969 0.95381
 C54 C 0.35985 0.70865 1.04837
 C55 C 0.29188 0.63866 1.04850
 C56 C 0.35947 0.70879 0.95371
 O57 O 0.03548 0.32262 0.37239
 O58 O -0.03680 0.37282 0.32184
 O59 O -0.03696 0.32327 0.37277
 O60 O 0.03552 0.37286 0.32183
 O61 O 0.03452 0.32999 0.27884
 O62 O -0.03634 0.27893 0.33133
 O63 O -0.03697 0.32941 0.27936
 O64 O 0.03504 0.27893 0.33020
 Cu65 Cu -0.00062 0.35224 0.35145
 Cu66 Cu -0.00097 0.29993 0.30065
 C67 C 0.04717 0.29202 0.36014
 C68 C -0.04883 0.35986 0.29180
 C69 C -0.04858 0.29237 0.36114
 C70 C 0.04686 0.36025 0.29140
 O71 O 0.03601 0.67700 0.62754
 O72 O -0.03651 0.62699 0.67797
 O73 O -0.03640 0.67646 0.62696
 O74 O 0.03583 0.62685 0.67819
 O75 O 0.03482 0.66979 0.72112
 O76 O -0.03576 0.72087 0.66832
 O77 O -0.03668 0.67046 0.72039
 O78 O 0.03558 0.72076 0.66966
 Cu79 Cu -0.00020 0.64747 0.64843
 Cu80 Cu -0.00055 0.69986 0.69915
 C81 C 0.04772 0.70761 0.63976
 C82 C -0.04858 0.64001 0.70795
 C83 C -0.04793 0.70742 0.63848
 C84 C 0.04713 0.63951 0.70863
 O85 O 1.03652 0.62726 0.32189
 O86 O 0.96416 0.67736 0.37243
 O87 O 0.96420 0.62724 0.32175
 O88 O 1.03656 0.67669 0.37296
 O89 O 1.03601 0.72113 0.33164
 O90 O 0.96527 0.67019 0.27887
 O91 O 0.96467 0.72114 0.33036
 O92 O 1.03677 0.67075 0.27952
 Cu93 Cu 1.00029 0.64778 0.35149
 Cu94 Cu 1.00073 0.70019 0.30082
 C95 C 1.04862 0.64028 0.29192
 C96 C 0.95250 0.70799 0.36025
 C97 C 0.95290 0.63993 0.29134
 C98 C 1.04817 0.70763 0.36145
 O99 O 0.96423 0.32255 0.62709
 O100 O 1.03652 0.37262 0.67791
 O101 O 1.03662 0.32320 0.62678
 O102 O 0.96417 0.37267 0.67784
 O103 O 0.96508 0.32968 0.72068
 O104 O 1.03590 0.27874 0.66806
 O105 O 1.03660 0.32911 0.72025
 O106 O 0.96458 0.27873 0.66911
 Cu107 Cu 1.00033 0.35213 0.64819
 Cu108 Cu 1.00057 0.29968 0.69880
 C109 C 0.95253 0.29189 0.63918
 C110 C 1.04851 0.35959 0.70792
 C111 C 1.04813 0.29224 0.63827
 C112 C 0.95279 0.35998 0.70821
 O113 O 0.37168 0.03593 0.32145
 O114 O 0.32174 -0.03644 0.37177
 O115 O 0.37234 -0.03593 0.32139
 O116 O 0.32145 0.03547 0.37225
 O117 O 0.27734 0.03486 0.33022
 O118 O 0.32919 -0.03562 0.27840
 O119 O 0.27773 -0.03619 0.32962
 O120 O 0.32842 0.03537 0.27856
 Cu121 Cu 0.35116 -0.00022 0.35098
 Cu122 Cu 0.29875 -0.00040 0.29991
 C123 C 0.35884 0.04753 0.29120
 C124 C 0.29102 -0.04825 0.35951
 C125 C 0.35973 -0.04751 0.29103
 C126 C 0.29053 0.04692 0.36019
 O127 O 0.62847 0.03604 0.67853
 O128 O 0.67857 -0.03629 0.62829
 O129 O 0.62794 -0.03582 0.67862
 O130 O 0.67863 0.03564 0.62765
 O131 O 0.72280 0.03525 0.66962
 O132 O 0.67110 -0.03526 0.72161
 O133 O 0.72257 -0.03581 0.67044
 O134 O 0.67178 0.03573 0.72138
 Cu135 Cu 0.64904 -0.00010 0.64901
 Cu136 Cu 0.70148 0.00000 0.70004
 C137 C 0.64130 0.04774 0.70876
 C138 C 0.70930 -0.04800 0.64059
 C139 C 0.64059 -0.04730 0.70899
 C140 C 0.70955 0.04720 0.63965
 O141 O 0.32141 1.03627 0.62812
 O142 O 0.37147 0.96416 0.67866
 O143 O 0.32135 0.96437 0.62775
 O144 O 0.37192 1.03603 0.67858
 O145 O 0.32869 1.03561 0.72149
 O146 O 0.27717 0.96486 0.66969
 O147 O 0.32815 0.96463 0.72147
 O148 O 0.27733 1.03591 0.67018
 Cu149 Cu 0.35091 1.00019 0.64902
 Cu150 Cu 0.29841 1.00025 0.69998
 C151 C 0.29064 1.04799 0.64031
 C152 C 0.35862 0.95256 0.70891
 C153 C 0.29045 0.95281 0.63977
 C154 C 0.35921 1.04761 0.70889
 O155 O 0.62847 0.96424 0.32203
 O156 O 0.67745 1.03687 0.37295
 O157 O 0.62756 1.03608 0.32202
 O158 O 0.67835 0.96485 0.37324
 O159 O 0.72265 0.96543 0.33143
 O160 O 0.67138 1.03635 0.27972
 O161 O 0.72225 1.03642 0.33173
 O162 O 0.67194 0.96532 0.27938
 Cu163 Cu 0.64857 1.00044 0.35179
 Cu164 Cu 0.70151 1.00094 0.30133
 C165 C 0.64151 0.95292 0.29176
 C166 C 0.70849 1.04861 0.36140
 C167 C 0.64057 1.04797 0.29196
 C168 C 0.70931 0.95336 0.36131
 O169 O 0.82181 0.87040 0.53695
 O170 O 0.87214 0.82010 0.46509
 O171 O 0.82196 0.87125 0.46548
 O172 O 0.87215 0.81951 0.53666
 O173 O 0.82902 0.77626 0.53530
 O174 O 0.77768 0.82916 0.46553
 O175 O 0.82864 0.77719 0.46478
 O176 O 0.77773 0.82810 0.53617
 Cu177 Cu 0.85141 0.84958 0.50109
 Cu178 Cu 0.79883 0.79839 0.50042
 C179 C 0.79099 0.85810 0.54838
 C180 C 0.85924 0.78987 0.45311
 C181 C 0.79103 0.85933 0.45384
 C182 C 0.85944 0.78882 0.54758
 O183 O 0.12770 0.17972 0.46464
 O184 O 0.17817 0.12929 0.53629
 O185 O 0.12787 0.18020 0.53621
 O186 O 0.17789 0.12858 0.46478
 O187 O 0.22215 0.17069 0.46487
 O188 O 0.17102 0.22345 0.53489
 O189 O 0.22226 0.17158 0.53555
 O190 O 0.17118 0.22265 0.46439
 Cu191 Cu 0.14852 0.15018 0.50052
 Cu192 Cu 0.20110 0.20137 0.49990
 C193 C 0.14056 0.20998 0.45273
 C194 C 0.20901 0.14158 0.54773
 C195 C 0.14062 0.21087 0.54719
 C196 C 0.20877 0.14056 0.45311
 O197 O 0.17855 0.87034 0.46343
 O198 O 0.12807 0.81983 0.53504
 O199 O 0.17818 0.87103 0.53494
 O200 O 0.12818 0.81946 0.46348
 O201 O 0.17130 0.77623 0.46479
 O202 O 0.22245 0.82896 0.53486
 O203 O 0.17155 0.77695 0.53529
 O204 O 0.22262 0.82806 0.46418
 Cu205 Cu 0.14886 0.84943 0.49917
 Cu206 Cu 0.20143 0.79827 0.49979
 C207 C 0.20938 0.85806 0.45200
 C208 C 0.14095 0.78959 0.54696
 C209 C 0.20905 0.85907 0.54664
 C210 C 0.14091 0.78881 0.45249
 O211 O 0.87172 0.17979 0.53407
 O212 O 0.82040 0.12970 0.46254
 O213 O 0.87109 0.18035 0.46250
 O214 O 0.82143 0.12868 0.53411
 O215 O 0.77747 0.17105 0.53479
 O216 O 0.82803 0.22363 0.46420
 O217 O 0.77632 0.17195 0.46425
 O218 O 0.82848 0.22291 0.53472
 Cu219 Cu 0.85053 0.15035 0.49819
 Cu220 Cu 0.79817 0.20169 0.49952
 C221 C 0.85911 0.21010 0.54615
 C222 C 0.78934 0.14200 0.45175
 C223 C 0.85835 0.21105 0.45169
 C224 C 0.79079 0.14079 0.54624
 O225 O 0.46317 0.87212 0.82160
 O226 O 0.53571 0.82176 0.87168
 O227 O 0.53553 0.87239 0.82162
 O228 O 0.46336 0.82197 0.87227
 O229 O 0.46363 0.77839 0.82997
 O230 O 0.53489 0.82969 0.77844
 O231 O 0.53506 0.77824 0.82931
 O232 O 0.46346 0.82933 0.77849
 Cu233 Cu 0.49944 0.85138 0.85107
 Cu234 Cu 0.49922 0.79956 0.79974
 C235 C 0.45144 0.85958 0.79126
 C236 C 0.54730 0.79119 0.85927
 C237 C 0.54709 0.85992 0.79120
 C238 C 0.45167 0.79136 0.86006
 O239 O 0.53597 0.17838 0.12859
 O240 O 0.46345 0.12806 0.17872
 O241 O 0.46363 0.17812 0.12799
 O242 O 0.53581 0.12794 0.17887
 O243 O 0.53511 0.17077 0.22193
 O244 O 0.46384 0.22179 0.17020
 O245 O 0.46368 0.17094 0.22174
 O246 O 0.53527 0.22203 0.17083
 Cu247 Cu 0.49973 0.14879 0.14928
 Cu248 Cu 0.49944 0.20075 0.20048
 C249 C 0.54752 0.20901 0.14090
 C250 C 0.45168 0.14065 0.20901
 C251 C 0.45190 0.20874 0.14013
 C252 C 0.54733 0.14052 0.20928
 O253 O 0.46424 0.17841 0.87167
 O254 O 0.53663 0.12808 0.82137
 O255 O 0.53657 0.17812 0.87213
 O256 O 0.46428 0.12788 0.82147
 O257 O 0.46487 0.17065 0.77839
 O258 O 0.53629 0.22175 0.82991
 O259 O 0.53630 0.17090 0.77834
 O260 O 0.46486 0.22200 0.82941
 Cu261 Cu 0.50043 0.14878 0.85093
 Cu262 Cu 0.50061 0.20069 0.79971
 C263 C 0.45266 0.20901 0.85936
 C264 C 0.54834 0.14064 0.79106
 C265 C 0.54829 0.20872 0.85995
 C266 C 0.45268 0.14042 0.79111
 O267 O 0.46493 0.82193 0.12819
 O268 O 0.53741 0.87240 0.17845
 O269 O 0.53728 0.82227 0.12769
 O270 O 0.46503 0.87251 0.17839
 O271 O 0.46567 0.82977 0.22149
 O272 O 0.53699 0.77864 0.16991
 O273 O 0.53712 0.82956 0.22146
 O274 O 0.46557 0.77838 0.17049
 Cu275 Cu 0.50116 0.85161 0.14891
 Cu276 Cu 0.50138 0.79973 0.20014
 C277 C 0.45334 0.79133 0.14053
 C278 C 0.54914 0.85985 0.20878
 C279 C 0.54896 0.79164 0.13985
 C280 C 0.45346 0.85998 0.20877
 O281 O 0.87102 0.53632 0.82067
 O282 O 0.82127 0.46435 0.87163
 O283 O 0.87185 0.46441 0.82107
 O284 O 0.82063 0.53626 0.87125
 O285 O 0.77641 0.53468 0.82932
 O286 O 0.82873 0.46428 0.77805
 O287 O 0.77737 0.46385 0.82937
 O288 O 0.82773 0.53531 0.77781
 Cu289 Cu 0.85057 0.50040 0.85041
 Cu290 Cu 0.79818 0.49947 0.79932
 C291 C 0.85811 0.54768 0.79037
 C292 C 0.79061 0.45230 0.85948
 C293 C 0.85931 0.45257 0.79076
 C294 C 0.78952 0.54716 0.85914
 O295 O 0.12905 0.53658 0.17915
 O296 O 0.17881 0.46454 0.12828
 O297 O 0.12811 0.46467 0.17873
 O298 O 0.17955 0.53645 0.12865
 O299 O 0.22368 0.53489 0.17065
 O300 O 0.17114 0.46455 0.22184
 O301 O 0.22262 0.46405 0.17063
 O302 O 0.17226 0.53557 0.22209
 Cu303 Cu 0.14951 0.50062 0.14944
 Cu304 Cu 0.20180 0.49971 0.20063
 C305 C 0.14191 0.54794 0.20948
 C306 C 0.20943 0.45247 0.14050
 C307 C 0.14057 0.45285 0.20906
 C308 C 0.21065 0.54735 0.14081
 O309 O 0.87101 0.46363 0.17898
 O310 O 0.82131 0.53555 0.12795
 O311 O 0.87189 0.53553 0.17851
 O312 O 0.82063 0.46365 0.12840
 O313 O 0.77641 0.46525 0.17031
 O314 O 0.82876 0.53569 0.22152
 O315 O 0.77741 0.53607 0.17020
 O316 O 0.82773 0.46468 0.22183
 Cu317 Cu 0.85059 0.49953 0.14920
 Cu318 Cu 0.79819 0.50048 0.20028
 C319 C 0.85809 0.45230 0.20929
 C320 C 0.79066 0.54761 0.14009
 C321 C 0.85934 0.54739 0.20880
 C322 C 0.78952 0.45275 0.14051
 O323 O 0.17864 0.53520 0.87213
 O324 O 0.12882 0.46322 0.82107
 O325 O 0.17924 0.46328 0.87170
 O326 O 0.12802 0.53513 0.82155
 O327 O 0.17114 0.53525 0.77854
 O328 O 0.22345 0.46485 0.82979
 O329 O 0.17211 0.46423 0.77823
 O330 O 0.22252 0.53568 0.82987
 Cu331 Cu 0.14930 0.49915 0.85087
 Cu332 Cu 0.20168 0.50005 0.79979
 C333 C 0.20931 0.54724 0.85999
 C334 C 0.14171 0.45187 0.79075
 C335 C 0.21035 0.45239 0.85960
 C336 C 0.14056 0.54696 0.79126
 N337 N 0.23231 0.38085 0.07306
 C338 C 0.26993 0.38160 0.07340
 N339 N 0.28750 0.40465 0.09699
 N340 N 0.26812 0.42624 0.11944
 C341 C 0.23051 0.42597 0.11863
 N342 N 0.21293 0.40290 0.09506
 N343 N 0.76789 0.61911 0.07254
 C344 C 0.73027 0.61840 0.07284
 N345 N 0.71266 0.59541 0.09644
 N346 N 0.73201 0.57385 0.11893
 C347 C 0.76962 0.57408 0.11816
 N348 N 0.78723 0.59708 0.09458
 N349 N 0.76775 0.38083 0.92704
 C350 C 0.73013 0.38160 0.92677
 N351 N 0.71255 0.40461 0.90318
 N352 N 0.73192 0.42614 0.88067
 C353 C 0.76953 0.42585 0.88140
 N354 N 0.78712 0.40282 0.90497
 N355 N 0.23231 0.61880 0.92754
 C356 C 0.26993 0.61808 0.92717
 N357 N 0.28746 0.59505 0.90356
 N358 N 0.26804 0.57346 0.88110
 C359 C 0.23043 0.57371 0.88193
 N360 N 0.21289 0.59675 0.90553
 N361 N 0.09761 0.28807 0.40498
 C362 C 0.07390 0.27084 0.38172
 N363 N 0.07333 0.23347 0.38084
 N364 N 0.09520 0.21399 0.40295
 C365 C 0.11888 0.23121 0.42623
 N366 N 0.11995 0.26859 0.42664
 N367 N 0.09811 0.71153 0.59489
 C368 C 0.07445 0.72877 0.61816
 N369 N 0.07387 0.76614 0.61898
 N370 N 0.09569 0.78561 0.59681
 C371 C 0.11932 0.76837 0.57351
 N372 N 0.12040 0.73100 0.57316
 N373 N 0.92637 0.76651 0.38110
 C374 C 0.92576 0.72914 0.38186
 N375 N 0.90206 0.71187 0.40507
 N376 N 0.87975 0.73132 0.42679
 C377 C 0.88085 0.76869 0.42651
 N378 N 0.90453 0.78595 0.40327
 N379 N 0.90214 0.28802 0.59427
 C380 C 0.92588 0.27073 0.61741
 N381 N 0.92657 0.23335 0.61800
 N382 N 0.90474 0.21393 0.59576
 C383 C 0.88100 0.23122 0.57262
 N384 N 0.87984 0.26860 0.57249
 N385 N 0.40386 0.09789 0.28693
 C386 C 0.38033 0.07422 0.26994
 N387 N 0.37924 0.07360 0.23277
 N388 N 0.40144 0.09540 0.21325
 C389 C 0.42501 0.11903 0.23024
 N390 N 0.42559 0.12014 0.26741
 N391 N 0.62089 0.07380 0.76720
 C392 C 0.61975 0.07437 0.73003
 N393 N 0.59611 0.09792 0.71307
 N394 N 0.57435 0.12011 0.73261
 C395 C 0.57500 0.11906 0.76978
 N396 N 0.59867 0.09554 0.78675
 N397 N 0.40368 0.90229 0.71328
 C398 C 0.38014 0.92594 0.73022
 N399 N 0.37904 0.92659 0.76739
 N400 N 0.40122 0.90483 0.78695
 C401 C 0.42480 0.88120 0.77000
 N402 N 0.42540 0.88008 0.73283
 N403 N 0.62125 0.92716 0.23305
 C404 C 0.62021 0.92624 0.27022
 N405 N 0.59682 0.90232 0.28700
 N406 N 0.57519 0.88010 0.26731
 C407 C 0.57572 0.88150 0.23015
 N408 N 0.59915 0.90539 0.21335
 N409 N 0.37988 0.23269 0.92575
 C410 C 0.38108 0.27006 0.92538
 N411 N 0.40484 0.28720 0.90214
 N412 N 0.42667 0.26765 0.88004
 C413 C 0.42596 0.23029 0.88088
 N414 N 0.40217 0.21313 0.90410
 N415 N 0.62026 0.76742 0.92546
 C416 C 0.61908 0.73006 0.92499
 N417 N 0.59527 0.71295 0.90175
 N418 N 0.57338 0.73253 0.87974
 C419 C 0.57407 0.76989 0.88070
 N420 N 0.59790 0.78701 0.90391
 N421 N 0.40537 0.71300 0.09800
 C422 C 0.38157 0.73006 0.07475
 N423 N 0.38042 0.76743 0.07427
 N424 N 0.40278 0.78706 0.09581
 C425 C 0.42661 0.76998 0.11904
 N426 N 0.42727 0.73262 0.12000
 N427 N 0.59525 0.28722 0.09805
 C428 C 0.61902 0.27008 0.07482
 N429 N 0.62028 0.23272 0.07450
 N430 N 0.59803 0.21316 0.09619
 C431 C 0.57422 0.23031 0.11939
 N432 N 0.57346 0.26767 0.12018
 N433 N 0.28717 0.09805 0.59542
 C434 C 0.26959 0.07478 0.61876
 N435 N 0.23198 0.07473 0.61976
 N436 N 0.21261 0.09668 0.59767
 C437 C 0.23018 0.11991 0.57428
 N438 N 0.26780 0.12046 0.57377
 N439 N 0.76422 0.08156 0.37485
 C440 C 0.72802 0.07424 0.38215
 N441 N 0.71183 0.09080 0.41144
 N442 N 0.73111 0.11364 0.43272
 C443 C 0.76746 0.12025 0.42588
 N444 N 0.78373 0.10380 0.39662
 N445 N 0.71280 0.90177 0.59586
 C446 C 0.73036 0.92511 0.61918
 N447 N 0.76796 0.92512 0.62027
 N448 N 0.78735 0.90308 0.59827
 C449 C 0.76980 0.87979 0.57490
 N450 N 0.73219 0.87927 0.57431
 N451 N 0.23237 0.92491 0.37997
 C452 C 0.26997 0.92491 0.38100
 N453 N 0.28755 0.90167 0.40438
 N454 N 0.26817 0.87924 0.42602
 C455 C 0.23056 0.87974 0.42546
 N456 N 0.21299 0.90294 0.40205
 N457 N 0.07498 0.37939 0.76644
 C458 C 0.07534 0.38092 0.72928
 N459 N 0.09883 0.40473 0.71246
 N460 N 0.12113 0.42632 0.73212
 C461 C 0.12026 0.42529 0.76928
 N462 N 0.09682 0.40143 0.78610
 N463 N 0.07525 0.62048 0.23352
 C464 C 0.07550 0.61895 0.27067
 N465 N 0.09889 0.59514 0.28759
 N466 N 0.12123 0.57354 0.26803
 C467 C 0.12047 0.57456 0.23086
 N468 N 0.09713 0.59842 0.21394
 N469 N 0.90096 0.40507 0.28745
 C470 C 0.92435 0.38123 0.27054
 N471 N 0.92463 0.37970 0.23339
 N472 N 0.90282 0.40179 0.21379
 C473 C 0.87948 0.42568 0.23069
 N474 N 0.87868 0.42671 0.26786
 N475 N 0.92476 0.62025 0.76634
 C476 C 0.92451 0.61871 0.72918
 N477 N 0.90111 0.59486 0.71226
 N478 N 0.87877 0.57326 0.73182
 C479 C 0.87953 0.57430 0.76899
 N480 N 0.90288 0.59819 0.78591
 N481 N 0.76445 0.62476 0.91904
 C482 C 0.72819 0.61756 0.92621
 N483 N 0.71201 0.58801 0.90987
 N484 N 0.73131 0.56644 0.88736
 C485 C 0.76770 0.57320 0.88087
 N486 N 0.78398 0.60270 0.89713
 N487 N 0.23557 0.37496 0.91962
 C488 C 0.27183 0.38224 0.92677
 N489 N 0.28795 0.41177 0.91037
 N490 N 0.26860 0.43325 0.88782
 C491 C 0.23221 0.42642 0.88135
 N492 N 0.21599 0.39694 0.89767
 N493 N 0.28829 0.58806 0.09012
 C494 C 0.27218 0.61761 0.07377
 N495 N 0.23593 0.62487 0.08093
 N496 N 0.21634 0.60285 0.10284
 C497 C 0.23255 0.57335 0.11911
 N498 N 0.26892 0.56653 0.11263
 N499 N 0.71196 0.41192 0.08980
 C500 C 0.72812 0.38240 0.07343
 N501 N 0.76438 0.37520 0.08058
 N502 N 0.78394 0.39725 0.10252
 C503 C 0.76768 0.42672 0.11880
 N504 N 0.73130 0.43348 0.11233
 N505 N 0.91967 0.76321 0.62478
 C506 C 0.92669 0.72716 0.61751
 N507 N 0.91009 0.71128 0.58805
 N508 N 0.88748 0.73069 0.56662
 C509 C 0.88116 0.76686 0.57345
 N510 N 0.89767 0.78284 0.60286
 N511 N 0.90920 0.28857 0.41137
 C512 C 0.92586 0.27268 0.38196
 N513 N 0.91872 0.23666 0.37461
 N514 N 0.89656 0.21707 0.39641
 C515 C 0.88000 0.23304 0.42578
 N516 N 0.88644 0.26920 0.43269
 N517 N 0.08047 0.23643 0.62447
 C518 C 0.07352 0.27251 0.61730
 N519 N 0.09015 0.28842 0.58789
 N520 N 0.11272 0.26902 0.56641
 C521 C 0.11896 0.23281 0.57313
 N522 N 0.10243 0.21681 0.60250
 N523 N 0.08071 0.76335 0.37521
 C524 C 0.07361 0.72731 0.38242
 N525 N 0.09019 0.71137 0.41185
 N526 N 0.11284 0.73072 0.43331
 C527 C 0.11923 0.76690 0.42655
 N528 N 0.10275 0.78293 0.39716
 N529 N 0.61981 0.92681 0.76748
 C530 C 0.61881 0.92619 0.73030
 N531 N 0.59517 0.90263 0.71329
 N532 N 0.57329 0.88047 0.73277
 C533 C 0.57381 0.88156 0.76995
 N534 N 0.59747 0.90510 0.78696
 N535 N 0.40530 0.90258 0.28671
 C536 C 0.38159 0.92604 0.26972
 N537 N 0.38057 0.92663 0.23254
 N538 N 0.40297 0.90499 0.21305
 C539 C 0.42670 0.88155 0.23004
 N540 N 0.42724 0.88049 0.26722
 N541 N 0.62017 0.07395 0.23338
 C542 C 0.61889 0.07446 0.27055
 N543 N 0.59502 0.09786 0.28743
 N544 N 0.57320 0.11996 0.26784
 C545 C 0.57400 0.11897 0.23067
 N546 N 0.59789 0.09559 0.21378
 N547 N 0.40460 0.09769 0.71318
 C548 C 0.38094 0.07417 0.73019
 N549 N 0.37990 0.07362 0.76736
 N550 N 0.40223 0.09534 0.78685
 C551 C 0.42592 0.11883 0.76984
 N552 N 0.42648 0.11987 0.73267
 N553 N 0.59646 0.71341 0.09661
 C554 C 0.61969 0.73052 0.07281
 N555 N 0.62070 0.76789 0.07223
 N556 N 0.59872 0.78746 0.09420
 C557 C 0.57545 0.77034 0.11797
 N558 N 0.57496 0.73298 0.11901
 N559 N 0.40412 0.28684 0.09698
 C560 C 0.38088 0.26967 0.07322
 N561 N 0.38000 0.23229 0.07260
 N562 N 0.40208 0.21278 0.09451
 C563 C 0.42535 0.22997 0.11826
 N564 N 0.42574 0.26734 0.11933
 N565 N 0.59608 0.28684 0.90312
 C566 C 0.61931 0.26968 0.92687
 N567 N 0.62022 0.23231 0.92743
 N568 N 0.59815 0.21279 0.90549
 C569 C 0.57488 0.22996 0.88177
 N570 N 0.57448 0.26733 0.88074
 N571 N 0.40409 0.71311 0.90324
 C572 C 0.38082 0.73022 0.92700
 N573 N 0.37983 0.76759 0.92757
 N574 N 0.40184 0.78716 0.90563
 C575 C 0.42515 0.77004 0.88190
 N576 N 0.42564 0.73267 0.88087
 N577 N 0.71290 0.90321 0.40620
 C578 C 0.73048 0.92675 0.38310
 N579 N 0.76810 0.92704 0.38240
 N580 N 0.78746 0.90504 0.40448
 C581 C 0.76988 0.88150 0.42758
 N582 N 0.73226 0.88076 0.42783
 N583 N 0.28698 0.90267 0.59488
 C584 C 0.26933 0.92617 0.61796
 N585 N 0.23171 0.92652 0.61847
 N586 N 0.21242 0.90460 0.59621
 C587 C 0.23007 0.88111 0.57312
 N588 N 0.26769 0.88030 0.57308
 N589 N 0.28686 0.09708 0.40506
 C590 C 0.26929 0.07349 0.38198
 N591 N 0.23167 0.07301 0.38142
 N592 N 0.21230 0.09490 0.40362
 C593 C 0.22987 0.11849 0.42671
 N594 N 0.26749 0.11941 0.42680
 N595 N 0.71300 0.09743 0.59489
 C596 C 0.73069 0.07377 0.61777
 N597 N 0.76832 0.07321 0.61800
 N598 N 0.78756 0.09508 0.59568
 C599 C 0.76986 0.11874 0.57279
 N600 N 0.73225 0.11975 0.57303
 N601 N 0.92725 0.61913 0.23268
 C602 C 0.92621 0.61846 0.26986
 N603 N 0.90208 0.59534 0.28677
 N604 N 0.87977 0.57367 0.26720
 C605 C 0.88127 0.57386 0.23004
 N606 N 0.90539 0.59699 0.21311
 N607 N 0.90206 0.40466 0.71277
 C608 C 0.92611 0.38148 0.72969
 N609 N 0.92710 0.38076 0.76687
 N610 N 0.90527 0.40292 0.78643
 C611 C 0.88123 0.42611 0.76950
 N612 N 0.87978 0.42634 0.73234
 N613 N 0.09785 0.59483 0.71325
 C614 C 0.07376 0.61799 0.73014
 N615 N 0.07272 0.61870 0.76732
 N616 N 0.09455 0.59657 0.78690
 C617 C 0.11863 0.57340 0.76999
 N618 N 0.12012 0.57317 0.73282
 N619 N 0.07261 0.38109 0.23279
 C620 C 0.07357 0.38179 0.26998
 N621 N 0.09764 0.40494 0.28694
 N622 N 0.11997 0.42662 0.26744
 C623 C 0.11856 0.42640 0.23027
 N624 N 0.09450 0.40324 0.21328
   
