data_POSCAR
  _audit_creation_date              2014-09-24
  _audit_creation_method            'ToBaCCo'
  _symmetry_space_group_name_H-M    'P1'
  _symmetry_Int_Tables_number       1
  _symmetry_cell_setting            triclinic
  loop_
  _symmetry_equiv_pos_as_xyz
 x,y,z
_cell_length_a 44.0692
_cell_length_b 43.6009
_cell_length_c 43.3971
_cell_angle_alpha 88.250600
_cell_angle_beta 92.164700
_cell_angle_gamma 87.934700
loop_
  _atom_site_label
  _atom_site_type_symbol
  _atom_site_fract_x
  _atom_site_fract_y
  _atom_site_fract_z
C1 C 0.76420 0.62684 1.04831
 C2 C 0.77860 0.64048 1.02332
 C3 C 0.80770 0.65222 1.02772
 C4 C 0.82247 0.65052 1.05710
 C5 C 0.80765 0.63666 1.08173
 C6 C 0.77878 0.62446 1.07782
 C7 C 0.76381 0.64083 0.99214
 C8 C 0.73412 0.65320 0.98682
 C9 C 0.71970 0.65223 0.95748
 C10 C 0.73541 0.63870 0.93337
 C11 C 0.76496 0.62587 0.93855
 C12 C 0.77913 0.62757 0.96785
 H13 H 0.74186 0.61805 1.04414
 H14 H 0.81849 0.66223 1.00804
 H15 H 0.72229 0.66363 1.00552
 H16 H 0.80191 0.61769 0.97204
 H17 H 0.81895 0.63509 1.10443
 H18 H 0.72512 0.63917 0.91033
 C19 C 0.72703 0.38436 0.46302
 C20 C 0.73749 0.36956 0.49082
 C21 C 0.76570 0.35329 0.49225
 C22 C 0.78336 0.35164 0.46606
 C23 C 0.77217 0.36585 0.43822
 C24 C 0.74444 0.38261 0.43664
 C25 C 0.71913 0.37138 0.51853
 C26 C 0.69093 0.35739 0.51945
 C27 C 0.67388 0.35831 0.54614
 C28 C 0.68548 0.37345 0.57199
 C29 C 0.71337 0.38793 0.57122
 C30 C 0.73025 0.38655 0.54441
 H31 H 0.70529 0.39685 0.46190
 H32 H 0.77386 0.34198 0.51372
 H33 H 0.68256 0.34530 0.49957
 H34 H 0.75234 0.39660 0.54371
 H35 H 0.78501 0.36384 0.41752
 H36 H 0.67326 0.37338 0.59317
 C37 C 0.26571 -0.12905 -0.05187
 C38 C 0.28169 -0.14648 -0.02870
 C39 C 0.30951 -0.16086 -0.03494
 C40 C 0.32189 -0.15780 -0.06424
 C41 C 0.30556 -0.13968 -0.08748
 C42 C 0.27725 -0.12540 -0.08135
 C43 C 0.26938 -0.14889 0.00234
 C44 C 0.24061 -0.16066 0.00630
 C45 C 0.22746 -0.16093 0.03531
 C46 C 0.24406 -0.14914 0.06060
 C47 C 0.27292 -0.13702 0.05672
 C48 C 0.28557 -0.13756 0.02761
 H49 H 0.24414 -0.11798 -0.04668
 H50 H 0.32154 -0.17448 -0.01670
 H51 H 0.22830 -0.16926 -0.01356
 H52 H 0.30767 -0.12808 0.02428
 H53 H 0.31430 -0.13714 -0.11023
 H54 H 0.23542 -0.15030 0.08349
 C55 C 0.23418 0.13158 0.53421
 C56 C 0.24886 0.14367 0.50866
 C57 C 0.27553 0.15985 0.51315
 C58 C 0.28781 0.16387 0.54293
 C59 C 0.27283 0.15179 0.56841
 C60 C 0.24635 0.13518 0.56429
 C61 C 0.23728 0.13814 0.47706
 C62 C 0.20897 0.15067 0.46621
 C63 C 0.19868 0.14617 0.43563
 C64 C 0.21686 0.12854 0.41636
 C65 C 0.24522 0.11566 0.42707
 C66 C 0.25517 0.12074 0.45750
 H67 H 0.21350 0.11934 0.53044
 H68 H 0.28693 0.16901 0.49336
 H69 H 0.19580 0.16479 0.48128
 H70 H 0.27698 0.11108 0.46614
 H71 H 0.28178 0.15524 0.59159
 H72 H 0.20838 0.12474 0.39315
 C73 C 0.12544 0.55176 0.25344
 C74 C 0.13506 0.52494 0.27028
 C75 C 0.14832 0.52707 0.29997
 C76 C 0.15239 0.55567 0.31291
 C77 C 0.14191 0.58239 0.29618
 C78 C 0.12828 0.58091 0.26643
 C79 C 0.13052 0.49443 0.25728
 C80 C 0.14073 0.48762 0.22795
 C81 C 0.13788 0.45811 0.21646
 C82 C 0.12304 0.43579 0.23394
 C83 C 0.11199 0.44260 0.26307
 C84 C 0.11638 0.47181 0.27467
 H85 H 0.11516 0.54919 0.23075
 H86 H 0.15590 0.50634 0.31289
 H87 H 0.15204 0.50494 0.21463
 H88 H 0.10827 0.47723 0.29722
 H89 H 0.14348 0.60451 0.30668
 H90 H 0.12037 0.41321 0.22488
 C91 C -0.11869 -0.02711 0.21994
 C92 C -0.13352 -0.00675 0.23927
 C93 C -0.14503 -0.01783 0.26704
 C94 C -0.14195 -0.04931 0.27562
 C95 C -0.12660 -0.06919 0.25602
 C96 C -0.11446 -0.05825 0.22847
 C97 C -0.13510 0.02651 0.23139
 C98 C -0.14674 0.03747 0.20243
 C99 C -0.14669 0.06909 0.19433
 C100 C -0.13420 0.08927 0.21578
 C101 C -0.12271 0.07852 0.24502
 C102 C -0.12348 0.04711 0.25253
 H103 H -0.10930 -0.01841 0.19880
 H104 H -0.15594 -0.00147 0.28163
 H105 H -0.15522 0.02092 0.18654
 H106 H -0.11412 0.03841 0.27470
 H107 H -0.12458 -0.09346 0.26214
 H108 H -0.13313 0.11332 0.20927
 C109 C 0.37912 0.44541 0.78209
 C110 C 0.35628 0.46653 0.78965
 C111 C 0.33639 0.45921 0.81289
 C112 C 0.33967 0.43096 0.82951
 C113 C 0.36242 0.40936 0.82096
 C114 C 0.38194 0.41656 0.79704
 C115 C 0.35448 0.49686 0.77397
 C116 C 0.33784 0.50147 0.74601
 C117 C 0.33884 0.52946 0.72942
 C118 C 0.35635 0.55310 0.74130
 C119 C 0.37264 0.54876 0.76972
 C120 C 0.37143 0.52057 0.78591
 H121 H 0.39443 0.45133 0.76402
 H122 H 0.31907 0.47613 0.81873
 H123 H 0.32466 0.48304 0.73688
 H124 H 0.38423 0.51677 0.80762
 H125 H 0.36497 0.38693 0.83227
 H126 H 0.35620 0.57512 0.72908
 C127 C 0.63641 1.02868 0.72058
 C128 C 0.65097 1.00418 0.73765
 C129 C 0.66466 1.00958 0.76673
 C130 C 0.66393 1.03917 0.77888
 C131 C 0.64988 1.06353 0.76068
 C132 C 0.63530 1.05827 0.73210
 C133 C 0.65007 0.97272 0.72567
 C134 C 0.65575 0.96748 0.69450
 C135 C 0.65248 0.93813 0.68247
 C136 C 0.64308 0.91431 0.70183
 C137 C 0.63682 0.91926 0.73276
 C138 C 0.64113 0.94830 0.74477
 H139 H 0.62498 1.02451 0.69862
 H140 H 0.67562 0.99054 0.78001
 H141 H 0.66218 0.98644 0.67979
 H142 H 0.63593 0.95229 0.76856
 H143 H 0.65106 1.08692 0.76779
 H144 H 0.64078 0.89162 0.69269
 C145 C -0.03691 0.23464 -0.12413
 C146 C -0.01333 0.25123 -0.13642
 C147 C -0.01892 0.28185 -0.14652
 C148 C -0.04824 0.29567 -0.14596
 C149 C -0.07159 0.27871 -0.13278
 C150 C -0.06588 0.24838 -0.12133
 C151 C 0.01719 0.23647 -0.13884
 C152 C 0.02086 0.20898 -0.15464
 C153 C 0.04977 0.19459 -0.15700
 C154 C 0.07514 0.20885 -0.14360
 C155 C 0.07165 0.23583 -0.12722
 C156 C 0.04264 0.24974 -0.12514
 H157 H -0.03240 0.21110 -0.11598
 H158 H -0.00054 0.29441 -0.15623
 H159 H 0.00101 0.19881 -0.16506
 H160 H 0.03976 0.27094 -0.11299
 H161 H -0.09409 0.28887 -0.13114
 H162 H 0.09799 0.19957 -0.14573
 C163 C 0.55399 0.24060 0.13900
 C164 C 0.52731 0.25327 0.15087
 C165 C 0.52774 0.28224 0.16415
 C166 C 0.55472 0.29823 0.16647
 C167 C 0.58124 0.28539 0.15408
 C168 C 0.58094 0.25694 0.13983
 C169 C 0.49861 0.23684 0.14836
 C170 C 0.49670 0.20689 0.16080
 C171 C 0.46918 0.19167 0.15888
 C172 C 0.44351 0.20676 0.14423
 C173 C 0.44529 0.23654 0.13124
 C174 C 0.47286 0.25147 0.13377
 H175 H 0.55349 0.21829 0.12871
 H176 H 0.50707 0.29214 0.17310
 H177 H 0.51646 0.19570 0.17250
 H178 H 0.47438 0.27461 0.12419
 H179 H 0.60193 0.29804 0.15416
 H180 H 0.42184 0.19595 0.14443
 C181 C 1.02713 0.73127 0.64253
 C182 C 1.00622 0.75292 0.65375
 C183 C 1.01643 0.78158 0.66339
 C184 C 1.04732 0.78862 0.66149
 C185 C 1.06757 0.76644 0.65024
 C186 C 1.05762 0.73826 0.63990
 C187 C 0.97333 0.74681 0.65144
 C188 C 0.96263 0.71783 0.66016
 C189 C 0.93199 0.71094 0.65430
 C190 C 0.91248 0.73321 0.63919
 C191 C 0.92293 0.76199 0.63015
 C192 C 0.95311 0.76893 0.63708
 H193 H 1.01933 0.70973 0.63392
 H194 H 1.00002 0.79834 0.67126
 H195 H 0.97843 0.70080 0.67084
 H196 H 0.96131 0.79093 0.62946
 H197 H 1.09147 0.77131 0.64915
 H198 H 0.88890 0.72812 0.63448
 C199 C 0.46568 0.73954 0.40622
 C200 C 0.48438 0.75770 0.38831
 C201 C 0.47417 0.78760 0.37887
 C202 C 0.44544 0.79924 0.38704
 C203 C 0.42750 0.78087 0.40561
 C204 C 0.43745 0.75102 0.41521
 C205 C 0.51458 0.74539 0.37958
 C206 C 0.51848 0.71480 0.37065
 C207 C 0.54702 0.70323 0.36243
 C208 C 0.57224 0.72205 0.36437
 C209 C 0.56870 0.75246 0.37384
 C210 C 0.53982 0.76410 0.38073
 H211 H 0.47331 0.71650 0.41370
 H212 H 0.48863 0.80133 0.36491
 H213 H 0.49912 0.70021 0.36913
 H214 H 0.53729 0.78748 0.38832
 H215 H 0.40511 0.78940 0.41142
 H216 H 0.59449 0.71306 0.35861
 C217 C 0.41466 -0.03625 0.27020
 H218 H 0.42576 -0.01861 0.25726
 C219 C 0.43210 -0.05959 0.28600
 H220 H 0.45665 -0.05964 0.28535
 C221 C 0.36923 -0.05873 0.28559
 H222 H 0.34466 -0.05860 0.28459
 C223 C 0.38571 -0.08228 0.30181
 H224 H 0.37342 -0.10032 0.31287
 N225 N 0.38380 -0.03625 0.27038
 C226 C 0.37805 0.02260 0.19306
 H227 H 0.36334 0.00720 0.18114
 C228 C 0.39193 0.04556 0.17622
 H229 H 0.38794 0.04732 0.15143
 C230 C 0.39948 0.04034 0.23981
 H231 H 0.40155 0.03862 0.26473
 C232 C 0.41384 0.06374 0.22383
 H233 H 0.42669 0.07988 0.23692
 Zn234 Zn 0.35868 -0.00745 0.24701
 N235 N 0.38178 0.02055 0.22431
 C236 C 0.31532 0.03854 0.26008
 N237 N 0.33386 0.01579 0.27319
 C238 C 0.33556 0.01064 0.30429
 C239 C 0.31774 0.02837 0.32346
 C240 C 0.29713 0.05686 0.27838
 C241 C 0.35030 -0.05061 0.20210
 C242 C 0.33487 -0.06834 0.18084
 C243 C 0.28761 -0.04474 0.19621
 C244 C 0.30399 -0.02756 0.21735
 N245 N 0.33483 -0.03038 0.21946
 H246 H 0.31473 0.04249 0.23533
 H247 H 0.35083 -0.00713 0.31441
 H248 H 0.31918 0.02310 0.34797
 H249 H 0.28244 0.07482 0.26750
 H250 H 0.37480 -0.05286 0.20475
 H251 H 0.34797 -0.08445 0.16779
 H252 H 0.26308 -0.04191 0.19446
 H253 H 0.29202 -0.01191 0.23187
 C254 C 0.40976 0.06677 0.19152
 C255 C 0.41763 -0.08287 0.30223
 C256 C 0.30304 -0.06508 0.17722
 C257 C 0.29828 0.05207 0.31054
 C258 C 0.10520 1.04275 0.75060
 H259 H 0.09506 1.03910 0.72798
 C260 C 0.09571 1.06810 0.76733
 H261 H 0.07830 1.08379 0.75718
 C262 C 0.14190 1.02783 0.79002
 H263 H 0.16058 1.01282 0.79846
 C264 C 0.13322 1.05277 0.80738
 H265 H 0.14511 1.05632 0.82922
 N266 N 0.12802 1.02332 0.76210
 C267 C 0.12566 0.93801 0.71289
 H268 H 0.14955 0.93637 0.70800
 C269 C 0.10702 0.91394 0.70578
 H270 H 0.11736 0.89379 0.69600
 C271 C 0.08464 0.96559 0.73424
 H272 H 0.07628 0.98548 0.74602
 C273 C 0.06496 0.94199 0.72722
 H274 H 0.04140 0.94404 0.73337
 Zn275 Zn 0.14386 0.99193 0.73732
 N276 N 0.11434 0.96320 0.72676
 C277 C 0.16697 0.95283 0.78473
 N278 N 0.17557 0.96938 0.75970
 C279 C 0.20499 0.96871 0.75118
 C280 C 0.22730 0.95175 0.76893
 C281 C 0.18844 0.93574 0.80309
 C282 C 0.14781 1.00383 0.67279
 C283 C 0.15831 1.01872 0.64651
 C284 C 0.19049 1.04855 0.67940
 C285 C 0.17937 1.03308 0.70504
 N286 N 0.15858 1.01107 0.70134
 H287 H 0.14330 0.95315 0.79052
 H288 H 0.21126 0.98134 0.73072
 H289 H 0.25071 0.95167 0.76217
 H290 H 0.18084 0.92259 0.82270
 H291 H 0.13090 0.98664 0.67030
 H292 H 0.14955 1.01259 0.62396
 H293 H 0.20759 1.06533 0.68317
 H294 H 0.18740 1.03853 0.72802
 C295 C 0.07601 0.91582 0.71254
 C296 C 0.11011 1.07348 0.79605
 C297 C 0.17975 1.04156 0.64955
 C298 C 0.21922 0.93557 0.79564
 C299 C 0.59455 0.54346 0.27819
 H300 H 0.59280 0.52189 0.29088
 C301 C 0.57999 0.57014 0.28868
 H302 H 0.56639 0.56843 0.30883
 C303 C 0.61612 0.57218 0.23793
 H304 H 0.63119 0.57365 0.21901
 C305 C 0.60165 0.59903 0.24719
 H306 H 0.60553 0.62040 0.23480
 N307 N 0.61344 0.54524 0.25410
 C308 C 0.64626 0.45733 0.21979
 H309 H 0.66822 0.46580 0.21437
 C310 C 0.63948 0.42759 0.21232
 H311 H 0.65641 0.41342 0.20140
 C312 C 0.59787 0.46546 0.24076
 H313 H 0.58206 0.48020 0.25242
 C314 C 0.58985 0.43560 0.23310
 H315 H 0.56783 0.42748 0.23902
 Zn316 Zn 0.64266 0.51319 0.24614
 N317 N 0.62596 0.47547 0.23437
 C318 C 0.68834 0.48048 0.28245
 N319 N 0.66790 0.50464 0.28237
 C320 C 0.66275 0.51982 0.30875
 C321 C 0.67590 0.50887 0.33696
 C322 C 0.70206 0.46884 0.31010
 C323 C 0.65029 0.52716 0.18454
 C324 C 0.66401 0.53831 0.15831
 C325 C 0.70904 0.54735 0.18977
 C326 C 0.69439 0.53590 0.21555
 N327 N 0.66538 0.52657 0.21248
 H328 H 0.69313 0.46929 0.26127
 H329 H 0.64746 0.53971 0.30833
 H330 H 0.67032 0.52035 0.35791
 H331 H 0.71772 0.44923 0.30939
 H332 H 0.62723 0.51951 0.18283
 H333 H 0.65137 0.53907 0.13638
 H334 H 0.73215 0.55453 0.19279
 H335 H 0.70595 0.53495 0.23801
 C336 C 0.61121 0.41622 0.21915
 C337 C 0.58462 0.59865 0.27374
 C338 C 0.69348 0.54918 0.16073
 C339 C 0.69463 0.48217 0.33807
 C340 C 0.88655 0.46341 0.78307
 H341 H 0.89501 0.48449 0.79187
 C342 C 0.89663 0.43528 0.79710
 H343 H 0.91218 0.43515 0.81701
 C344 C 0.85574 0.43777 0.74702
 H345 H 0.83996 0.43838 0.72745
 C346 C 0.86478 0.40938 0.76054
 H347 H 0.85553 0.38870 0.75136
 N348 N 0.86553 0.46426 0.75915
 C349 C 0.85952 0.55971 0.72466
 H350 H 0.83508 0.56244 0.72562
 C351 C 0.87646 0.58463 0.71600
 H352 H 0.86466 0.60650 0.71106
 C353 C 0.90411 0.52788 0.73178
 H354 H 0.91464 0.50568 0.73808
 C355 C 0.92209 0.55240 0.72311
 H356 H 0.94653 0.54893 0.72275
 Zn357 Zn 0.84581 0.50196 0.74388
 N358 N 0.87337 0.53204 0.73221
 C359 C 0.79245 0.52782 0.77032
 N360 N 0.82241 0.51970 0.77527
 C361 C 0.83731 0.52622 0.80215
 C362 C 0.82209 0.54087 0.82552
 C363 C 0.77633 0.54257 0.79310
 C364 C 0.82956 0.50175 0.68020
 C365 C 0.81361 0.49248 0.65388
 C366 C 0.77851 0.46721 0.68670
 C367 C 0.79518 0.47688 0.71239
 N368 N 0.82048 0.49344 0.70879
 H369 H 0.78112 0.52376 0.74844
 H370 H 0.86125 0.52063 0.80537
 H371 H 0.83460 0.54503 0.84679
 H372 H 0.75256 0.54903 0.78867
 H373 H 0.84991 0.51456 0.67772
 H374 H 0.82172 0.49858 0.63133
 H375 H 0.75859 0.45406 0.69047
 H376 H 0.78857 0.47018 0.73532
 C377 C 0.90821 0.58111 0.71464
 C378 C 0.88489 0.40788 0.78628
 C379 C 0.78823 0.47427 0.65686
 C380 C 0.79120 0.54963 0.82098
 C381 C 0.28604 0.36568 0.00727
 H382 H 0.29624 0.36082 0.02996
 C383 C 0.30404 0.37662 -0.01615
 H384 H 0.32788 0.38029 -0.01110
 C385 C 0.24343 0.36475 -0.02754
 H386 H 0.22007 0.35905 -0.03218
 C387 C 0.26055 0.37600 -0.05162
 H388 H 0.25001 0.37864 -0.07451
 N389 N 0.25666 0.35872 0.00096
 C390 C 0.21343 0.33387 0.08652
 H391 H 0.21526 0.30931 0.08370
 C392 C 0.20205 0.34538 0.11343
 H393 H 0.19517 0.32948 0.13130
 C394 C 0.22044 0.38418 0.06643
 H395 H 0.22790 0.39902 0.04800
 C396 C 0.20886 0.39682 0.09314
 H397 H 0.20786 0.42149 0.09511
 Zn398 Zn 0.23732 0.33255 0.02941
 N399 N 0.22226 0.35318 0.06367
 C400 C 0.28509 0.31354 0.06907
 N401 N 0.26715 0.30327 0.04568
 C402 C 0.27170 0.27458 0.03477
 C403 C 0.29600 0.25563 0.04666
 C404 C 0.30941 0.29547 0.08157
 C405 C 0.17577 0.31922 0.01861
 C406 C 0.15069 0.30802 0.00265
 C407 C 0.18456 0.28585 -0.03377
 C408 C 0.20908 0.29746 -0.01701
 N409 N 0.20433 0.31386 0.00866
 H410 H 0.28078 0.33619 0.07779
 H411 H 0.25699 0.26651 0.01656
 H412 H 0.29983 0.23309 0.03740
 H413 H 0.32302 0.30431 0.10033
 H414 H 0.17214 0.33289 0.03854
 H415 H 0.12814 0.31285 0.01083
 H416 H 0.18916 0.27270 -0.05389
 H417 H 0.23188 0.29412 -0.02501
 C418 C 0.19940 0.37715 0.11702
 C419 C 0.29161 0.38100 -0.04622
 C420 C 0.15477 0.29151 -0.02415
 C421 C 0.31569 0.26641 0.06973
 C422 C 0.78998 0.12555 1.02566
 H423 H 0.80277 0.14341 1.01505
 C424 C 0.80317 0.10815 1.05047
 H425 H 0.82634 0.11227 1.05793
 C426 C 0.74407 0.09925 1.02948
 H427 H 0.72072 0.09663 1.02171
 C428 C 0.75649 0.08114 1.05433
 H429 H 0.74270 0.06432 1.06545
 N430 N 0.76077 0.12121 1.01599
 C431 C 0.71362 0.15159 0.92989
 H432 H 0.71415 0.17590 0.93406
 C433 C 0.70056 0.14161 0.90252
 H434 H 0.69099 0.15847 0.88567
 C435 C 0.72550 0.10029 0.94710
 H436 H 0.73534 0.08439 0.96463
 C437 C 0.71275 0.08920 0.91966
 H438 H 0.71249 0.06469 0.91659
 Zn439 Zn 0.74169 0.14977 0.98709
 N440 N 0.72534 0.13104 0.95171
 C441 C 0.79183 0.16342 0.95427
 N442 N 0.77088 0.17684 0.97224
 C443 C 0.77077 0.20746 0.97733
 C444 C 0.79288 0.22570 0.96444
 C445 C 0.81410 0.18071 0.94084
 C446 C 0.68059 0.16660 0.99749
 C447 C 0.65646 0.17869 1.01371
 C448 C 0.69257 0.19832 1.05067
 C449 C 0.71613 0.18584 1.03360
 N450 N 0.70979 0.17033 1.00754
 H451 H 0.79099 0.13912 0.95013
 H452 H 0.75353 0.21780 0.99118
 H453 H 0.79260 0.25005 0.96871
 H454 H 0.82973 0.16917 0.92608
 H455 H 0.67577 0.15339 0.97738
 H456 H 0.63342 0.17506 1.00539
 H457 H 0.69845 0.21032 1.07133
 H458 H 0.73952 0.18792 1.04153
 C459 C 0.69995 0.11015 0.89703
 C460 C 0.78603 0.08625 1.06573
 C461 C 0.66211 0.19450 1.04086
 C462 C 0.81511 0.21235 0.94609
 C463 C 0.29482 0.60136 0.54453
 H464 H 0.30405 0.60480 0.52199
 C465 C 0.31163 0.58431 0.56751
 H466 H 0.33367 0.57432 0.56243
 C467 C 0.25628 0.61268 0.57953
 H468 H 0.23558 0.62506 0.58476
 C469 C 0.27206 0.59551 0.60298
 H470 H 0.26297 0.59504 0.62579
 N471 N 0.26807 0.61576 0.55113
 C472 C 0.22085 0.65261 0.46752
 H473 H 0.21929 0.67602 0.47503
 C474 C 0.20978 0.64570 0.43828
 H475 H 0.19944 0.66390 0.42341
 C476 C 0.23737 0.60077 0.47763
 H477 H 0.24873 0.58363 0.49297
 C478 C 0.22617 0.59270 0.44840
 H479 H 0.22916 0.56923 0.44134
 Zn480 Zn 0.25154 0.64620 0.52279
 N481 N 0.23489 0.63047 0.48623
 C482 C 0.29276 0.67184 0.48254
 N483 N 0.28368 0.67174 0.51215
 C484 C 0.29816 0.68834 0.53392
 C485 C 0.32195 0.70703 0.52582
 C486 C 0.31658 0.68973 0.47361
 C487 C 0.19406 0.65371 0.54677
 C488 C 0.16929 0.66913 0.55918
 C489 C 0.19718 0.71581 0.55716
 C490 C 0.22141 0.69949 0.54488
 N491 N 0.21965 0.66887 0.54046
 H492 H 0.28178 0.65781 0.46571
 H493 H 0.29104 0.68726 0.55751
 H494 H 0.33302 0.72057 0.54317
 H495 H 0.32285 0.68994 0.44972
 H496 H 0.19293 0.62954 0.54206
 H497 H 0.14916 0.65654 0.56367
 H498 H 0.19901 0.74018 0.56068
 H499 H 0.24136 0.71146 0.53856
 C500 C 0.21255 0.61559 0.42826
 C501 C 0.30052 0.58170 0.59730
 C502 C 0.17087 0.70060 0.56484
 C503 C 0.33154 0.70757 0.49540
 C504 C 0.74854 0.91998 0.43022
 H505 H 0.72516 0.92315 0.43659
 C506 C 0.75947 0.93735 0.40574
 H507 H 0.74439 0.95387 0.39315
 C508 C 0.79663 0.89441 0.43880
 H509 H 0.81115 0.87792 0.45194
 C510 C 0.80842 0.91108 0.41436
 H511 H 0.83207 0.90734 0.40917
 N512 N 0.76698 0.89858 0.44574
 C513 C 0.70185 0.89681 0.51263
 H514 H 0.68887 0.87928 0.50178
 C515 C 0.68915 0.91376 0.53601
 H516 H 0.66622 0.90928 0.54245
 C517 C 0.74724 0.92415 0.51696
 H518 H 0.77009 0.92764 0.50966
 C519 C 0.73549 0.94153 0.54055
 H520 H 0.74945 0.95839 0.55143
 Zn521 Zn 0.75037 0.87462 0.47741
 N522 N 0.73087 0.90137 0.50455
 C523 C 0.78791 0.85606 0.52980
 N524 N 0.78122 0.85074 0.49961
 C525 C 0.79487 0.82695 0.48523
 C526 C 0.81638 0.80757 0.50125
 C527 C 0.80947 0.83748 0.54656
 C528 C 0.71465 0.84811 0.42979
 C529 C 0.69510 0.82672 0.41745
 C530 C 0.69319 0.80245 0.46809
 C531 C 0.71251 0.82448 0.47952
 N532 N 0.72264 0.84686 0.46041
 H533 H 0.77615 0.87430 0.54127
 H534 H 0.78866 0.82277 0.46141
 H535 H 0.82683 0.78852 0.48960
 H536 H 0.81378 0.84177 0.57073
 H537 H 0.72360 0.86550 0.41478
 H538 H 0.68935 0.82796 0.39297
 H539 H 0.68527 0.78481 0.48363
 H540 H 0.71968 0.82364 0.50366
 C541 C 0.70666 0.93544 0.55130
 C542 C 0.78950 0.93237 0.39706
 C543 C 0.68394 0.80362 0.43680
 C544 C 0.82407 0.81289 0.53222
 C545 C -0.04314 0.31477 0.38869
 H546 H -0.02843 0.32653 0.37331
 C547 C -0.06593 0.33156 0.40281
 H548 H -0.06810 0.35614 0.39834
 C549 C -0.05958 0.26847 0.41136
 H550 H -0.05745 0.24371 0.41377
 C551 C -0.08295 0.28442 0.42586
 H552 H -0.09835 0.27146 0.43947
 N553 N -0.04066 0.28373 0.39270
 C554 C 0.03734 0.22351 0.37361
 H555 H 0.03426 0.22388 0.34874
 C556 C 0.06246 0.20782 0.38774
 H557 H 0.07778 0.19551 0.37324
 C558 C 0.02001 0.23882 0.42200
 H559 H 0.00353 0.25130 0.43512
 C560 C 0.04516 0.22364 0.43717
 H561 H 0.04777 0.22438 0.46205
 Zn562 Zn -0.01425 0.26105 0.36756
 N563 N 0.01672 0.23854 0.39072
 C564 C 0.02659 0.30646 0.35440
 N565 N 0.00599 0.28811 0.34091
 C566 C 0.00147 0.28826 0.30972
 C567 C 0.01732 0.30820 0.29092
 C568 C 0.04298 0.32666 0.33650
 C569 C -0.06198 0.24688 0.32645
 C570 C -0.07984 0.22836 0.30799
 C571 C -0.04962 0.18413 0.32737
 C572 C -0.03240 0.20349 0.34549
 N573 N -0.03840 0.23432 0.34425
 H574 H 0.03034 0.30528 0.37920
 H575 H -0.01427 0.27286 0.29929
 H576 H 0.01330 0.30820 0.26614
 H577 H 0.05955 0.34046 0.34801
 H578 H -0.06658 0.27143 0.32624
 H579 H -0.09817 0.23885 0.29352
 H580 H -0.04337 0.15993 0.32811
 H581 H -0.01405 0.19377 0.36028
 C582 C 0.06711 0.20831 0.41998
 C583 C -0.08678 0.31645 0.42099
 C584 C -0.07373 0.19655 0.30814
 C585 C 0.03809 0.32804 0.30424
 C586 C 1.06739 0.76737 0.08566
 H587 H 1.06242 0.74443 0.07863
 C588 C 1.09449 0.78058 0.07725
 H589 H 1.11008 0.76752 0.06362
 C590 C 1.05440 0.81079 0.11464
 H591 H 1.03952 0.82211 0.13026
 C592 C 1.08109 0.82474 0.10688
 H593 H 1.08605 0.84686 0.11620
 N594 N 1.04828 0.78238 0.10450
 C595 C 0.96082 0.74035 0.10935
 H596 H 0.96023 0.74143 0.13419
 C597 C 0.93633 0.72904 0.09291
 H598 H 0.91669 0.72228 0.10538
 C599 C 0.98713 0.74876 0.06337
 H600 H 1.00713 0.75646 0.05217
 C601 C 0.96288 0.73722 0.04581
 H602 H 0.96426 0.73600 0.02102
 Zn603 Zn 1.01641 0.76144 0.12284
 N604 N 0.98576 0.74944 0.09464
 C605 C 0.99786 0.78337 0.18127
 N606 N 0.99672 0.78788 0.15011
 C607 C 0.97982 0.81146 0.13626
 C608 C 0.96349 0.83202 0.15380
 C609 C 0.98197 0.80357 0.19980
 C610 C 1.02420 0.69778 0.13515
 C611 C 1.03753 0.67100 0.14878
 C612 C 1.07051 0.70200 0.17960
 C613 C 1.05652 0.72831 0.16527
 N614 N 1.03363 0.72576 0.14369
 H615 H 1.01091 0.76409 0.19177
 H616 H 0.97892 0.81410 0.11137
 H617 H 0.94990 0.85000 0.14174
 H618 H 0.98314 0.79977 0.22461
 H619 H 1.00664 0.69604 0.11734
 H620 H 1.02970 0.64897 0.14157
 H621 H 1.08903 0.70473 0.19621
 H622 H 1.06419 0.75080 0.17103
 C623 C 0.93750 0.72634 0.06082
 C624 C 1.10184 0.80944 0.08855
 C625 C 1.06085 0.67280 0.17142
 C626 C 0.96463 0.82842 0.18616
 C627 C 0.51209 0.31044 0.63830
 H628 H 0.49888 0.31913 0.65674
 C629 C 0.53210 0.32980 0.62380
 H630 H 0.53415 0.35301 0.63166
 C631 C 0.52564 0.27004 0.60580
 H632 H 0.52266 0.24688 0.59845
 C633 C 0.54602 0.28864 0.59063
 H634 H 0.55850 0.27909 0.57202
 N635 N 0.51025 0.28065 0.63018
 C636 C 0.45885 0.19998 0.63682
 H637 H 0.47465 0.18843 0.65332
 C638 C 0.43523 0.18368 0.62383
 H639 H 0.43351 0.15959 0.63017
 C640 C 0.44060 0.24569 0.61038
 H641 H 0.44231 0.27014 0.60618
 C642 C 0.41640 0.23022 0.59689
 H643 H 0.39985 0.24320 0.58229
 Zn644 Zn 0.48845 0.25257 0.65510
 N645 N 0.46074 0.23057 0.63052
 C646 C 0.43542 0.27072 0.68590
 N647 N 0.46603 0.27376 0.68538
 C648 C 0.48079 0.29055 0.70683
 C649 C 0.46459 0.30592 0.72917
 C650 C 0.41839 0.28555 0.70788
 C651 C 0.53592 0.20686 0.65868
 C652 C 0.55567 0.18451 0.67288
 C653 C 0.53525 0.19715 0.72192
 C654 C 0.51588 0.21924 0.70678
 N655 N 0.51652 0.22378 0.67565
 H656 H 0.42401 0.25668 0.66937
 H657 H 0.50525 0.29187 0.70667
 H658 H 0.47696 0.31888 0.74603
 H659 H 0.39401 0.28311 0.70764
 H660 H 0.53573 0.21015 0.63397
 H661 H 0.57102 0.17182 0.65870
 H662 H 0.53419 0.19370 0.74668
 H663 H 0.49987 0.23215 0.71996
 C664 C 0.41314 0.19883 0.60424
 C665 C 0.55033 0.31870 0.60046
 C666 C 0.55520 0.17916 0.70495
 C667 C 0.43281 0.30386 0.72954
 C668 C 0.49055 0.79017 0.85392
 H669 H 0.50954 0.80026 0.84291
 C670 C 0.46712 0.80931 0.86397
 H671 H 0.46831 0.83395 0.86053
 C672 C 0.46515 0.74603 0.87049
 H673 H 0.46385 0.72139 0.87208
 C674 C 0.44132 0.76436 0.88117
 H675 H 0.42202 0.75331 0.89067
 N676 N 0.48862 0.75909 0.85614
 C677 C 0.56143 0.69123 0.84133
 H678 H 0.55483 0.68674 0.81768
 C679 C 0.58580 0.67466 0.85580
 H680 H 0.59780 0.65731 0.84311
 C681 C 0.55396 0.71984 0.88618
 H682 H 0.54142 0.73763 0.89770
 C683 C 0.57865 0.70395 0.90153
 H684 H 0.58461 0.70940 0.92508
 Zn685 Zn 0.51528 0.73490 0.83233
 N686 N 0.54618 0.71341 0.85649
 C687 C 0.56422 0.76575 0.80699
 N688 N 0.53375 0.76189 0.80421
 C689 C 0.51584 0.77939 0.78381
 C690 C 0.52849 0.80182 0.76518
 C691 C 0.57771 0.78833 0.78924
 C692 C 0.48359 0.68097 0.82868
 C693 C 0.46630 0.65826 0.81552
 C694 C 0.46870 0.68489 0.76615
 C695 C 0.48618 0.70703 0.78026
 N696 N 0.49258 0.70516 0.81121
 H697 H 0.57802 0.75204 0.82369
 H698 H 0.49153 0.77666 0.78277
 H699 H 0.51394 0.81582 0.74927
 H700 H 0.60196 0.79122 0.79189
 H701 H 0.49019 0.67912 0.85293
 H702 H 0.46011 0.63917 0.83014
 H703 H 0.46341 0.68700 0.74158
 H704 H 0.49447 0.72560 0.76635
 C705 C 0.59510 0.68122 0.88603
 C706 C 0.44174 0.79647 0.87703
 C707 C 0.45799 0.66041 0.78388
 C708 C 0.55962 0.80695 0.76836
 C709 C 0.43255 -0.17023 0.37602
 C710 C 0.44341 -0.15320 0.35300
 C711 C 0.42640 -0.12534 0.34111
 C712 C 0.43608 -0.10859 0.31733
 H713 H 0.46361 -0.16045 0.34142
 H714 H 0.40515 -0.11910 0.35145
 H715 H 0.41172 -0.16219 0.38621
 H716 H 0.45816 -0.11411 0.30829
 C717 C 0.94702 0.32566 0.84108
 C718 C 0.91964 0.33885 0.83363
 C719 C 0.91645 0.36957 0.81838
 C720 C 0.89071 0.37780 0.80249
 H721 H 0.89907 0.32651 0.83664
 H722 H 0.93531 0.38483 0.81926
 H723 H 0.96682 0.33824 0.83489
 H724 H 0.87311 0.36114 0.80029
 C725 C 0.05229 1.16684 0.82708
 C726 C 0.07743 1.14845 0.82770
 C727 C 0.07941 1.12027 0.80981
 C728 C 0.10400 1.10140 0.81379
 H729 H 0.09712 1.15339 0.84201
 H730 H 0.06113 1.11531 0.79358
 H731 H 0.03242 1.15943 0.81420
 H732 H 0.12109 1.10678 0.83126
 C733 C 0.55007 0.67140 0.35195
 C734 C 0.56310 0.66510 0.32548
 C735 C 0.56638 0.63345 0.31461
 C736 C 0.57469 0.62878 0.28573
 H737 H 0.57145 0.68378 0.31146
 H738 H 0.56365 0.61444 0.33074
 H739 H 0.53966 0.65331 0.36505
 H740 H 0.57721 0.64879 0.27068
 C741 C 0.55422 0.32901 0.18023
 C742 C 0.57887 0.34043 0.19387
 C743 C 0.57951 0.37232 0.20429
 C744 C 0.60625 0.38368 0.21258
 H745 H 0.59961 0.32634 0.19651
 H746 H 0.55899 0.38684 0.20296
 H747 H 0.53309 0.34259 0.17899
 H748 H 0.62646 0.36876 0.21192
 C749 C 0.05925 0.81725 0.66837
 C750 C 0.04487 0.84104 0.68115
 C751 C 0.06177 0.86938 0.68496
 C752 C 0.05553 0.89015 0.70611
 H753 H 0.02211 0.83965 0.68945
 H754 H 0.08097 0.87239 0.67049
 H755 H 0.08281 0.82038 0.66281
 H756 H 0.03552 0.88781 0.71963
 C757 C 0.91905 0.68082 0.66224
 C758 C 0.93281 0.65804 0.67960
 C759 C 0.91582 0.63028 0.68667
 C760 C 0.92695 0.60733 0.70552
 H761 H 0.95553 0.66004 0.68944
 H762 H 0.89318 0.62896 0.67633
 H763 H 0.89597 0.67751 0.65369
 H764 H 0.95024 0.60772 0.71443
 C765 C 0.46691 0.16117 0.17454
 C766 C 0.44720 0.14056 0.16487
 C767 C 0.44158 0.11252 0.18329
 C768 C 0.42080 0.09312 0.17322
 H769 H 0.43389 0.14500 0.14358
 H770 H 0.45339 0.10873 0.20545
 H771 H 0.48138 0.15586 0.19491
 H772 H 0.41034 0.09739 0.15038
 C773 C 0.32006 0.42570 -0.14611
 C774 C 0.32498 0.40420 -0.12357
 C775 C 0.30341 0.40094 -0.09860
 C776 C 0.31230 0.38719 -0.07163
 H777 H 0.34555 0.38983 -0.12226
 H778 H 0.28040 0.41025 -0.10225
 H779 H 0.30051 0.44134 -0.14435
 H780 H 0.33602 0.38003 -0.06790
 C781 C 0.84709 0.93801 0.30313
 C782 C 0.83026 0.95303 0.32337
 C783 C 0.82064 0.93672 0.35133
 C784 C 0.80038 0.94928 0.36982
 H785 H 0.82289 0.97679 0.31959
 H786 H 0.82953 0.91351 0.35621
 H787 H 0.85242 0.91384 0.30824
 H788 H 0.79001 0.97167 0.36367
 C789 C 0.84204 0.08158 1.16555
 C790 C 0.82723 0.06624 1.14358
 C791 C 0.81663 0.08236 1.11457
 C792 C 0.79804 0.06941 1.09403
 H793 H 0.82205 0.04235 1.14667
 H794 H 0.82332 0.10578 1.11058
 H795 H 0.84509 0.10587 1.16099
 H796 H 0.78973 0.04679 1.09915
 C797 C 0.32018 0.53416 0.70060
 C798 C 0.33020 0.54908 0.67587
 C799 C 0.30986 0.55630 0.64876
 C800 C 0.32052 0.56832 0.62279
 H801 H 0.35326 0.55696 0.67603
 H802 H 0.28575 0.55299 0.65066
 H803 H 0.29777 0.52467 0.69961
 H804 H 0.34487 0.56972 0.62063
 C805 C 0.16643 0.55685 0.34443
 C806 C 0.18096 0.58127 0.35430
 C807 C 0.19285 0.58310 0.38632
 C808 C 0.20241 0.60994 0.39619
 H809 H 0.18382 0.60073 0.33872
 H810 H 0.19223 0.56330 0.40195
 H811 H 0.16502 0.53693 0.35982
 H812 H 0.20104 0.62962 0.38020
 C813 C 0.67737 0.04348 0.80850
 C814 C 0.67340 0.06917 0.82443
 C815 C 0.68877 0.07381 0.85465
 C816 C 0.68480 0.10093 0.86790
 H817 H 0.65814 0.08758 0.81566
 H818 H 0.70383 0.05594 0.86508
 H819 H 0.69104 0.02470 0.81941
 H820 H 0.67031 0.11840 0.85582
 C821 C 0.65746 0.93096 0.64984
 C822 C 0.67263 0.94812 0.62998
 C823 C 0.67836 0.93632 0.59920
 C824 C 0.69659 0.95025 0.57967
 H825 H 0.68224 0.96952 0.63667
 H826 H 0.66927 0.91435 0.59358
 H827 H 0.64925 0.90921 0.64210
 H828 H 0.70706 0.97129 0.58638
 C829 C 0.15087 0.45111 0.18635
 C830 C 0.16272 0.42333 0.18053
 C831 C 0.17587 0.41632 0.15069
 C832 C 0.18729 0.38802 0.14630
 H833 H 0.16319 0.40529 0.19830
 H834 H 0.17523 0.43381 0.13242
 H835 H 0.15216 0.46960 0.16922
 H836 H 0.18648 0.37110 0.16510
 C837 C -0.18716 0.33406 0.46742
 C838 C -0.16369 0.34335 0.45127
 C839 C -0.13587 0.32403 0.44808
 C840 C -0.11337 0.33480 0.43136
 H841 H -0.16558 0.36530 0.43878
 H842 H -0.13495 0.30082 0.45764
 H843 H -0.18492 0.31309 0.48150
 H844 H -0.11550 0.35849 0.42290
 C845 C 0.34960 0.82613 0.93107
 C846 C 0.36682 0.82963 0.90650
 C847 C 0.39442 0.80994 0.90361
 C848 C 0.41507 0.81679 0.88298
 H849 H 0.36122 0.84689 0.88859
 H850 H 0.39772 0.78963 0.91853
 H851 H 0.35802 0.80987 0.94912
 H852 H 0.41230 0.83824 0.86966
 C853 C 1.19840 0.82684 0.03764
 C854 C 1.18089 0.82956 0.06206
 C855 C 1.15086 0.81578 0.06260
 C856 C 1.13178 0.82308 0.08465
 H857 H 1.18784 0.84268 0.08166
 H858 H 1.14449 0.79998 0.04493
 H859 H 1.18903 0.81523 0.01785
 H860 H 1.13843 0.84022 0.10095
 C861 C 0.64540 0.34120 0.54760
 C862 C 0.62246 0.34966 0.56529
 C863 C 0.59658 0.32975 0.57042
 C864 C 0.57432 0.33873 0.58878
 H865 H 0.62335 0.37102 0.57736
 H866 H 0.59719 0.30713 0.56092
 H867 H 0.64357 0.32071 0.53422
 H868 H 0.57508 0.36162 0.59785
 C869 C 0.31603 0.18102 0.54694
 C870 C 0.33698 0.17357 0.56925
 C871 C 0.36452 0.19140 0.57387
 C872 C 0.38602 0.18160 0.59486
 H873 H 0.33384 0.15390 0.58452
 H874 H 0.36665 0.21253 0.56056
 H875 H 0.32015 0.19945 0.53046
 H876 H 0.38318 0.15968 0.60674
 C877 C 0.85157 0.66160 0.06349
 C878 C 0.86829 0.67817 0.04432
 C879 C 0.89739 0.68926 0.05660
 C880 C 0.91219 0.71225 0.04354
 H881 H 0.86029 0.68516 0.02123
 H882 H 0.90605 0.67942 0.07860
 H883 H 0.86104 0.65711 0.08674
 H884 H 0.90508 0.72143 0.02082
 C885 C 0.68893 0.66681 0.95205
 C886 C 0.66905 0.65687 0.93087
 C887 C 0.64002 0.67366 0.92278
 C888 C 0.62213 0.66391 0.89975
 H889 H 0.67466 0.63642 0.91837
 H890 H 0.63463 0.69489 0.93401
 H891 H 0.68258 0.68625 0.96572
 H892 H 0.62916 0.64312 0.88841
 C893 C 0.17019 0.16091 0.42207
 C894 C 0.14660 0.17070 0.43822
 C895 C 0.11978 0.18557 0.42183
 C896 C 0.09433 0.19323 0.43620
 H897 H 0.14672 0.16743 0.46305
 H898 H 0.12149 0.19068 0.39744
 H899 H 0.16838 0.16332 0.39710
 H900 H 0.09369 0.18905 0.46092
 C901 C 0.61858 0.08322 0.71382
 C902 C 0.60592 0.10784 0.72671
 C903 C 0.58810 0.13136 0.70808
 C904 C 0.57484 0.15529 0.72160
 H905 H 0.60764 0.11032 0.75145
 H906 H 0.58516 0.12834 0.68351
 H907 H 0.61511 0.08039 0.68921
 H908 H 0.57740 0.15676 0.74647
 C909 C 1.11753 0.60870 0.25157
 C910 C 1.10282 0.61127 0.22393
 C911 C 1.09121 0.64148 0.21148
 C912 C 1.07475 0.64370 0.18492
 H913 H 1.09841 0.59146 0.21035
 H914 H 1.09530 0.66162 0.22477
 H915 H 1.12087 0.62976 0.26377
 H916 H 1.07012 0.62279 0.17294
 C917 C 0.90264 0.92134 0.20804
 C918 C 0.91721 0.89520 0.21801
 C919 C 0.93409 0.87605 0.19667
 C920 C 0.94761 0.84928 0.20634
 H921 H 0.91724 0.88792 0.24207
 H922 H 0.93535 0.88435 0.17306
 H923 H 0.90426 0.92872 0.18409
 H924 H 0.94638 0.84233 0.23047
 C925 C 0.40556 0.39474 0.78672
 C926 C 0.40028 0.36530 0.78170
 C927 C 0.42209 0.34665 0.76451
 C928 C 0.41387 0.32059 0.75159
 H929 H 0.37862 0.35599 0.78734
 H930 H 0.44396 0.35599 0.75997
 H931 H 0.42642 0.40422 0.77878
 H932 H 0.39110 0.31280 0.75496
 C933 C 0.39024 0.57327 0.78387
 C934 C 0.40381 0.59509 0.76766
 C935 C 0.42189 0.61785 0.78381
 C936 C 0.43904 0.63742 0.76849
 H937 H 0.40253 0.59556 0.74268
 H938 H 0.42084 0.61838 0.80864
 H939 H 0.39348 0.57233 0.80879
 H940 H 0.43874 0.63701 0.74351
 C941 C -0.10810 0.09863 0.26784
 C942 C -0.10954 0.12937 0.26633
 C943 C -0.09260 0.14696 0.28933
 C944 C -0.09200 0.17762 0.28703
 H945 H -0.12268 0.14183 0.24817
 H946 H -0.08031 0.13437 0.30799
 H947 H -0.09522 0.08734 0.28703
 H948 H -0.10548 0.18952 0.26863
 C949 C 0.09663 0.41992 0.28269
 C950 C 0.08362 0.39476 0.27228
 C951 C 0.06811 0.37421 0.29366
 C952 C 0.05453 0.34915 0.28379
 H953 H 0.08362 0.38951 0.24808
 H954 H 0.06733 0.38032 0.31760
 H955 H 0.09503 0.42483 0.30695
 H956 H 0.05458 0.34440 0.25941
 C957 C 0.62516 0.89442 0.75249
 C958 C 0.60629 0.87385 0.74110
 C959 C 0.59477 0.84902 0.76052
 C960 C 0.57251 0.83175 0.74971
 H961 H 0.59858 0.87564 0.71707
 H962 H 0.60405 0.84530 0.78387
 H963 H 0.63103 0.89390 0.77699
 H964 H 0.56213 0.83714 0.72704
 C965 C 0.76612 0.61046 0.10386
 C966 C 0.74080 0.59435 0.10362
 C967 C 0.73015 0.58076 0.13263
 C968 C 0.70663 0.56226 0.13246
 H969 H 0.72805 0.59035 0.08246
 H970 H 0.74133 0.58668 0.15414
 H971 H 0.77836 0.61212 0.12590
 H972 H 0.69543 0.55761 0.11049
 C973 C 0.23223 1.12208 0.59199
 C974 C 0.21613 1.09661 0.59182
 C975 C 0.20488 1.08342 0.62075
 C976 C 0.19082 1.05669 0.62117
 H977 H 0.21237 1.08458 0.57063
 H978 H 0.20830 1.09586 0.64172
 H979 H 0.23706 1.13265 0.61385
 H980 H 0.18678 1.04546 0.59952
 C981 C 0.25843 0.89366 0.89569
 C982 C 0.26282 0.89636 0.86537
 C983 C 0.24038 0.91453 0.84562
 C984 C 0.24289 0.91837 0.81513
 H985 H 0.28173 0.88471 0.85495
 H986 H 0.22111 0.92510 0.85655
 H987 H 0.23867 0.90564 0.90441
 H988 H 0.26305 0.90949 0.80436
 C989 C 0.73392 0.39691 0.40669
 C990 C 0.72137 0.42526 0.40380
 C991 C 0.71309 0.43868 0.37292
 C992 C 0.70496 0.46844 0.36859
 H993 H 0.71811 0.43880 0.42404
 H994 H 0.71316 0.42354 0.35363
 H995 H 0.73893 0.38453 0.38606
 H996 H 0.70401 0.48284 0.38850
 C997 C 0.72504 0.40242 0.59951
 C998 C 0.74380 0.42588 0.59925
 C999 C 0.75546 0.43833 0.62841
 C1000 C 0.77340 0.46248 0.62851
 H1001 H 0.75064 0.43597 0.57760
 H1002 H 0.75021 0.42658 0.64974
 H1003 H 0.71722 0.39387 0.62145
 H1004 H 0.77902 0.47296 0.60656
 C1005 C 0.29068 -0.12356 0.08233
 C1006 C 0.27825 -0.11126 0.10701
 C1007 C 0.29734 -0.09599 0.13010
 C1008 C 0.28519 -0.08236 0.15424
 H1009 H 0.25392 -0.11114 0.10968
 H1010 H 0.32140 -0.09504 0.12635
 H1011 H 0.31497 -0.12195 0.07975
 H1012 H 0.26079 -0.08272 0.15655
 C1013 C 0.26494 0.09632 0.40778
 C1014 C 0.26159 0.09443 0.37708
 C1015 C 0.28219 0.07435 0.35998
 C1016 C 0.27856 0.07183 0.32937
 H1017 H 0.24398 0.10776 0.36419
 H1018 H 0.30053 0.06195 0.37273
 H1019 H 0.28356 0.08321 0.41953
 H1020 H 0.26051 0.08548 0.31731
 C1021 C 0.78195 0.61107 0.91386
 C1022 C 0.76851 0.59711 0.89022
 C1023 C 0.78686 0.58159 0.86725
 C1024 C 0.77382 0.56584 0.84462
 H1025 H 0.74399 0.59613 0.88828
 H1026 H 0.81127 0.58351 0.86892
 H1027 H 0.80656 0.61018 0.91617
 H1028 H 0.74922 0.56547 0.84280
 C1029 C 0.07877 0.71672 0.62498
 C1030 C 0.10065 0.72710 0.60730
 C1031 C 0.12321 0.70656 0.59361
 C1032 C 0.14567 0.71866 0.57786
 H1033 H 0.10225 0.75159 0.60292
 H1034 H 0.12209 0.68203 0.59768
 H1035 H 0.07579 0.69224 0.62781
 H1036 H 0.14647 0.74347 0.57556
 C1037 C 0.60900 0.24531 1.12560
 C1038 C 0.60849 0.22895 1.10000
 C1039 C 0.63677 0.21942 1.08515
 C1040 C 0.63546 0.20569 1.05795
 H1041 H 0.58692 0.22342 1.08912
 H1042 H 0.65829 0.22378 1.09664
 H1043 H 0.63066 0.25234 1.13515
 H1044 H 0.61316 0.20196 1.04756
 C1045 C 0.91040 0.22985 0.89293
 C1046 C 0.88548 0.24164 0.90567
 C1047 C 0.86362 0.22115 0.91983
 C1048 C 0.83813 0.23213 0.93215
 H1049 H 0.88126 0.26621 0.90625
 H1050 H 0.86897 0.19675 0.92025
 H1051 H 0.91430 0.20512 0.89398
 H1052 H 0.83408 0.25680 0.93238
 C1053 C 0.41770 0.73037 0.43223
 C1054 C 0.39751 0.74026 0.45224
 C1055 C 0.37582 0.71895 0.46499
 C1056 C 0.35629 0.72747 0.48622
 H1057 H 0.39614 0.76419 0.45826
 H1058 H 0.37504 0.69610 0.45587
 H1059 H 0.41979 0.70603 0.42789
 H1060 H 0.35823 0.74954 0.49682
 C1061 C 0.59467 0.77262 0.37740
 C1062 C 0.62011 0.76358 0.39335
 C1063 C 0.64298 0.78607 0.40160
 C1064 C 0.66301 0.78037 0.42520
 H1065 H 0.62276 0.74023 0.40265
 H1066 H 0.64172 0.80838 0.38984
 H1067 H 0.59115 0.79663 0.37046
 H1068 H 0.66234 0.75873 0.43810
 C1069 C 0.09895 0.24889 -0.11267
 C1070 C 0.09868 0.26176 -0.08514
 C1071 C 0.12699 0.27183 -0.07016
 C1072 C 0.12740 0.28081 -0.04096
 H1073 H 0.07772 0.26356 -0.07291
 H1074 H 0.14735 0.27187 -0.08332
 H1075 H 0.12044 0.24540 -0.12368
 H1076 H 0.10626 0.28120 -0.02892
 C1077 C 0.41850 0.25359 0.11670
 C1078 C 0.39371 0.24031 0.10532
 C1079 C 0.36773 0.25942 0.09262
 C1080 C 0.34236 0.24716 0.08132
 H1081 H 0.39233 0.21558 0.10538
 H1082 H 0.36956 0.28413 0.09261
 H1083 H 0.41943 0.27841 0.11498
 H1084 H 0.34140 0.22245 0.07975
 C1085 C 0.90282 0.78481 0.61277
 C1086 C 0.88274 0.77655 0.59096
 C1087 C 0.86281 0.79944 0.57382
 C1088 C 0.84578 0.79139 0.54941
 H1089 H 0.88120 0.75258 0.58535
 H1090 H 0.86224 0.82294 0.58122
 H1091 H 0.90576 0.80896 0.61680
 H1092 H 0.84815 0.76816 0.54132
   
