data_POSCAR
  _audit_creation_date              2014-09-24
  _audit_creation_method            'ToBaCCo'
  _symmetry_space_group_name_H-M    'P1'
  _symmetry_Int_Tables_number       1
  _symmetry_cell_setting            triclinic
  loop_
  _symmetry_equiv_pos_as_xyz
 x,y,z
_cell_length_a 42.6711
_cell_length_b 40.9511
_cell_length_c 17.9729
_cell_angle_alpha 90.302400
_cell_angle_beta 89.942100
_cell_angle_gamma 124.619700
loop_
  _atom_site_label
  _atom_site_type_symbol
  _atom_site_fract_x
  _atom_site_fract_y
  _atom_site_fract_z
C1 C 0.46606 0.96012 0.53206
 C2 C 0.46019 0.96293 0.45552
 C3 C 0.47629 1.00011 0.42292
 C4 C 0.49921 1.03575 0.46348
 C5 C 0.50507 1.03351 0.54097
 C6 C 0.48824 0.99568 0.57349
 H7 H 0.49280 0.99399 0.63176
 H8 H 0.46965 1.00068 0.36502
 C9 C 0.03733 0.53547 0.53349
 C10 C 0.03588 0.53162 0.45545
 C11 C 0.00086 0.51318 0.41861
 C12 C -0.03361 0.49769 0.45744
 C13 C -0.03197 0.50239 0.53616
 C14 C 0.00344 0.52134 0.57257
 H15 H 0.00459 0.52526 0.63245
 H16 H 0.00111 0.51231 0.35838
 C17 C 0.49868 0.52957 0.54576
 C18 C 0.49075 0.52270 0.46842
 C19 C 0.50089 0.50021 0.42948
 C20 C 0.51959 0.48531 0.46450
 C21 C 0.52795 0.49212 0.54170
 C22 C 0.51852 0.51560 0.58006
 H23 H 0.52621 0.52304 0.63802
 H24 H 0.49579 0.49567 0.37002
 O25 O 0.38496 0.64647 -0.08636
 O26 O 0.39777 0.71620 -0.06394
 C27 C 0.37793 0.72335 -0.10430
 O28 O 0.34242 0.70605 -0.09556
 O29 O 0.27277 0.64505 -0.06965
 C30 C 0.26205 0.61289 -0.10324
 O31 O 0.27521 0.59273 -0.08856
 O32 O 0.33180 0.58650 -0.06514
 C33 C 0.36247 0.60974 -0.10090
 O34 O 0.38370 0.63511 0.06119
 O35 O 0.39217 0.70283 0.08383
 C36 C 0.37977 0.72424 0.09337
 O37 O 0.35437 0.72189 0.05189
 O38 O 0.28636 0.65916 0.07726
 C39 C 0.26266 0.62130 0.09714
 O40 O 0.26430 0.59364 0.05951
 O41 O 0.32227 0.58963 0.08315
 C42 C 0.35713 0.60551 0.09694
 Cr43 Cr 0.38758 0.67419 -0.00140
 Cr44 Cr 0.31472 0.68173 -0.00901
 Cr45 Cr 0.29976 0.59289 -0.00281
 O46 O 0.33378 0.64939 -0.00372
 O47 O 0.60766 0.33850 -0.06369
 O48 O 0.60584 0.27471 -0.03892
 C49 C 0.62467 0.26710 -0.08189
 O50 O 0.66082 0.28710 -0.08227
 O51 O 0.72869 0.35463 -0.08105
 C52 C 0.73247 0.38199 -0.12137
 O53 O 0.71661 0.39954 -0.10640
 O54 O 0.65887 0.40114 -0.06600
 C55 C 0.62550 0.37372 -0.08749
 O56 O 0.62155 0.35867 0.08119
 O57 O 0.62163 0.29575 0.10564
 C58 C 0.63785 0.27787 0.11102
 O59 O 0.66319 0.28315 0.06599
 O60 O 0.72831 0.35241 0.06804
 C61 C 0.74793 0.38990 0.07448
 O62 O 0.74143 0.41177 0.03702
 O63 O 0.68221 0.41081 0.07688
 C64 C 0.64913 0.39239 0.10462
 Cr65 Cr 0.61632 0.31812 0.02023
 Cr66 Cr 0.69432 0.32045 -0.00713
 Cr67 Cr 0.69866 0.40360 -0.01416
 O68 O 0.66967 0.34743 -0.00039
 C69 C 0.44847 0.92258 -0.43342
 C70 C 0.45931 0.91628 -0.36428
 C71 C 0.43902 0.87723 -0.32689
 C72 C 0.45856 0.87074 -0.27280
 C73 C 0.44009 0.83533 -0.23291
 C74 C 0.40142 0.80545 -0.24621
 C75 C 0.38179 0.81196 -0.30016
 C76 C 0.40035 0.84743 -0.34030
 C77 C 0.38022 0.76881 -0.20099
 C78 C 0.39803 0.75461 -0.16063
 H79 H 0.48529 0.93994 -0.33795
 H80 H 0.48819 0.89344 -0.26054
 H81 H 0.45599 0.83227 -0.19006
 H82 H 0.35183 0.78975 -0.31055
 H83 H 0.38397 0.85179 -0.37985
 H84 H 0.34954 0.75312 -0.19773
 H85 H 0.42610 0.89663 -0.46309
 H86 H 0.42825 0.76822 -0.16697
 C87 C 0.07406 0.55620 -0.42576
 C88 C 0.07756 0.54255 -0.35743
 C89 C 0.11377 0.56196 -0.31555
 C90 C 0.11939 0.53897 -0.26717
 C91 C 0.15270 0.55635 -0.22493
 C92 C 0.18096 0.59731 -0.22959
 C93 C 0.17508 0.62049 -0.27696
 C94 C 0.14192 0.60297 -0.32010
 C95 C 0.21553 0.61659 -0.18240
 C96 C 0.23167 0.59673 -0.15952
 H97 H 0.05322 0.51500 -0.33585
 H98 H 0.09787 0.50743 -0.26190
 H99 H 0.15571 0.53780 -0.18714
 H100 H 0.19617 0.65221 -0.28050
 H101 H 0.13798 0.62173 -0.35531
 H102 H 0.22860 0.64717 -0.16550
 H103 H 0.09918 0.58085 -0.45238
 H104 H 0.22080 0.56750 -0.18181
 C105 C 0.48746 0.54922 -0.40814
 C106 C 0.45505 0.54926 -0.41965
 C107 C 0.44299 0.56724 -0.36522
 C108 C 0.40404 0.55032 -0.35506
 C109 C 0.39183 0.56561 -0.30143
 C110 C 0.41852 0.59846 -0.25753
 C111 C 0.45748 0.61643 -0.27011
 C112 C 0.46966 0.60091 -0.32317
 C113 C 0.40689 0.61513 -0.19921
 C114 C 0.37229 0.59270 -0.16134
 H115 H 0.43520 0.53118 -0.46354
 H116 H 0.38300 0.52476 -0.38774
 H117 H 0.36159 0.55187 -0.29507
 H118 H 0.47858 0.64219 -0.23793
 H119 H 0.49993 0.61541 -0.33142
 H120 H 0.42747 0.64560 -0.18205
 H121 H 0.50162 0.56026 -0.35477
 H122 H 0.35241 0.56148 -0.17403
 C123 C 0.52920 0.06825 -0.41584
 C124 C 0.52780 0.07023 -0.33819
 C125 C 0.55220 0.10779 -0.29617
 C126 C 0.53831 0.11305 -0.22975
 C127 C 0.55983 0.14858 -0.18981
 C128 C 0.59592 0.17962 -0.21542
 C129 C 0.61056 0.17376 -0.28014
 C130 C 0.58889 0.13823 -0.32043
 C131 C 0.61911 0.21766 -0.17433
 C132 C 0.60257 0.23230 -0.13084
 H133 H 0.50507 0.04520 -0.30758
 H134 H 0.51045 0.08977 -0.20916
 H135 H 0.54828 0.15135 -0.13843
 H136 H 0.63864 0.19690 -0.30002
 H137 H 0.60108 0.13460 -0.36995
 H138 H 0.64983 0.23475 -0.17932
 H139 H 0.54922 0.09578 -0.44367
 H140 H 0.57189 0.21677 -0.12998
 C141 C 0.93449 0.48802 -0.41521
 C142 C 0.90031 0.45058 -0.42120
 C143 C 0.87122 0.43567 -0.36237
 C144 C 0.83284 0.41798 -0.38092
 C145 C 0.80524 0.40383 -0.32491
 C146 C 0.81563 0.40611 -0.24990
 C147 C 0.85387 0.42284 -0.23180
 C148 C 0.88152 0.43802 -0.28740
 C149 C 0.78721 0.38993 -0.18964
 C150 C 0.75739 0.39475 -0.18697
 H151 H 0.89489 0.43135 -0.46807
 H152 H 0.82437 0.41557 -0.43857
 H153 H 0.77577 0.39034 -0.34025
 H154 H 0.86238 0.42450 -0.17437
 H155 H 0.91089 0.45087 -0.27199
 H156 H 0.79228 0.37744 -0.14189
 H157 H 0.93872 0.50572 -0.36630
 H158 H 0.75461 0.41132 -0.23012
 C159 C 0.54480 0.47548 -0.42041
 C160 C 0.54459 0.47173 -0.34297
 C161 C 0.56419 0.45625 -0.30486
 C162 C 0.54857 0.43467 -0.23905
 C163 C 0.56735 0.42135 -0.19944
 C164 C 0.60256 0.43007 -0.22426
 C165 C 0.61851 0.45214 -0.28957
 C166 C 0.59929 0.46479 -0.33013
 C167 C 0.62388 0.41839 -0.18028
 C168 C 0.60544 0.38315 -0.14011
 H169 H 0.52693 0.47685 -0.30870
 H170 H 0.52182 0.42825 -0.21805
 H171 H 0.55486 0.40535 -0.14814
 H172 H 0.64588 0.45965 -0.30906
 H173 H 0.61244 0.48225 -0.37978
 H174 H 0.65472 0.43771 -0.18017
 H175 H 0.55653 0.46232 -0.45194
 H176 H 0.57500 0.36184 -0.14662
 C177 C 0.93195 0.48004 0.41727
 C178 C 0.92623 0.46111 0.34851
 C179 C 0.89058 0.44215 0.30522
 C180 C 0.86827 0.45743 0.30399
 C181 C 0.83617 0.44022 0.25778
 C182 C 0.82579 0.40729 0.21274
 C183 C 0.84757 0.39155 0.21569
 C184 C 0.87995 0.40916 0.26062
 C185 C 0.79235 0.38833 0.16285
 C186 C 0.78014 0.40938 0.12703
 H187 H 0.94724 0.45628 0.32847
 H188 H 0.87614 0.48321 0.33709
 H189 H 0.81943 0.45251 0.25774
 H190 H 0.83998 0.36607 0.18182
 H191 H 0.89680 0.39697 0.26054
 H192 H 0.77872 0.35723 0.14929
 H193 H 0.90806 0.47853 0.44204
 H194 H 0.79535 0.44111 0.13542
 C195 C 0.51382 0.07251 0.42774
 C196 C 0.52069 0.07839 0.35118
 C197 C 0.53865 0.11772 0.31606
 C198 C 0.56133 0.12618 0.25300
 C199 C 0.57912 0.16297 0.21834
 C200 C 0.57435 0.19212 0.24575
 C201 C 0.55072 0.18331 0.30751
 C202 C 0.53318 0.14650 0.34283
 C203 C 0.59186 0.23063 0.20751
 C204 C 0.62593 0.24767 0.16851
 H205 H 0.51767 0.05496 0.31689
 H206 H 0.56549 0.10427 0.23064
 H207 H 0.59585 0.16809 0.16898
 H208 H 0.54594 0.20498 0.32854
 H209 H 0.51488 0.14043 0.39000
 H210 H 0.57669 0.24470 0.20703
 H211 H 0.52222 0.09838 0.46066
 H212 H 0.64223 0.23498 0.17340
 C213 C 0.52859 0.46182 0.41787
 C214 C 0.56607 0.47429 0.40507
 C215 C 0.57639 0.45360 0.35326
 C216 C 0.61304 0.47474 0.32253
 C217 C 0.62352 0.45657 0.27180
 C218 C 0.59756 0.41646 0.25152
 C219 C 0.56116 0.39514 0.28366
 C220 C 0.55067 0.41337 0.33417
 C221 C 0.60645 0.39610 0.19540
 C222 C 0.64263 0.41196 0.16571
 H223 H 0.58884 0.50162 0.43112
 H224 H 0.63343 0.50573 0.33665
 H225 H 0.65166 0.47452 0.24796
 H226 H 0.54062 0.36420 0.26944
 H227 H 0.52254 0.39572 0.35842
 H228 H 0.58304 0.36727 0.17558
 H229 H 0.50573 0.43789 0.38497
 H230 H 0.66699 0.43996 0.18568
 C231 C 0.07019 0.54719 0.40940
 C232 C 0.09458 0.53512 0.41923
 C233 C 0.12566 0.54639 0.36628
 C234 C 0.14496 0.58302 0.32939
 C235 C 0.17278 0.59224 0.27651
 C236 C 0.18189 0.56499 0.25928
 C237 C 0.16333 0.52887 0.29768
 C238 C 0.13569 0.51981 0.35125
 C239 C 0.20986 0.57331 0.20063
 C240 C 0.23150 0.61019 0.16691
 H241 H 0.08833 0.51384 0.46237
 H242 H 0.13861 0.60462 0.34132
 H243 H 0.18668 0.62051 0.24844
 H244 H 0.16999 0.50749 0.28575
 H245 H 0.12137 0.49152 0.37947
 H246 H 0.21337 0.55013 0.18348
 H247 H 0.07295 0.56374 0.36012
 H248 H 0.24601 0.61359 0.13263
 C249 C 0.43803 0.92807 0.40574
 C250 C 0.44850 0.90175 0.39423
 C251 C 0.43094 0.86984 0.33710
 C252 C 0.43619 0.83907 0.34246
 C253 C 0.42114 0.80904 0.28850
 C254 C 0.40080 0.80947 0.22738
 C255 C 0.39532 0.84007 0.22234
 C256 C 0.41040 0.87008 0.27613
 C257 C 0.38443 0.77860 0.16837
 C258 C 0.39636 0.75371 0.15412
 H259 H 0.47090 0.90487 0.42871
 H260 H 0.45189 0.83816 0.38881
 H261 H 0.42519 0.78548 0.29562
 H262 H 0.37979 0.84113 0.17582
 H263 H 0.40649 0.89369 0.26833
 H264 H 0.36303 0.77658 0.13233
 H265 H 0.41617 0.92629 0.37201
 H266 H 0.41888 0.75616 0.18677
 C267 C 0.47775 0.54361 0.42499
 C268 C 0.45162 0.52528 0.36670
 C269 C 0.43922 0.54592 0.32081
 C270 C 0.40421 0.52333 0.28329
 C271 C 0.39216 0.54160 0.23722
 C272 C 0.41515 0.58298 0.22730
 C273 C 0.45037 0.60552 0.26413
 C274 C 0.46228 0.58728 0.31068
 C275 C 0.40440 0.60310 0.17551
 C276 C 0.36681 0.58752 0.15525
 H277 H 0.43851 0.49398 0.35627
 H278 H 0.38620 0.49137 0.28928
 H279 H 0.36542 0.52304 0.20787
 H280 H 0.46887 0.63735 0.25641
 H281 H 0.48999 0.60555 0.33678
 H282 H 0.42702 0.63141 0.15281
 H283 H 0.48794 0.57354 0.44156
 H284 H 0.34364 0.56092 0.18170
   
