data_POSCAR
  _audit_creation_date              2014-09-24
  _audit_creation_method            'ToBaCCo'
  _symmetry_space_group_name_H-M    'P1'
  _symmetry_Int_Tables_number       1
  _symmetry_cell_setting            triclinic
  loop_
  _symmetry_equiv_pos_as_xyz
 x,y,z
_cell_length_a 59.1759
_cell_length_b 59.9772
_cell_length_c 60.1782
_cell_angle_alpha 89.632100
_cell_angle_beta 90.229100
_cell_angle_gamma 90.109200
loop_
  _atom_site_label
  _atom_site_type_symbol
  _atom_site_fract_x
  _atom_site_fract_y
  _atom_site_fract_z
N1 N 0.25886 0.21336 0.19621
 N2 N 0.25092 0.23295 0.19011
 C3 C 0.26292 0.24060 0.17266
 C4 C 0.27910 0.22494 0.16769
 C5 C 0.27619 0.20790 0.18289
 H6 H 0.26044 0.25655 0.16454
 H7 H 0.28631 0.19297 0.18449
 Cu8 Cu 0.22650 0.24726 0.20610
 Cu9 Cu 0.24709 0.19717 0.22177
 Cu10 Cu 0.20004 0.21936 0.24737
 N11 N 0.19824 0.25768 0.21864
 N12 N 0.18793 0.24680 0.23473
 C13 C 0.16931 0.25816 0.24066
 C14 C 0.16799 0.27702 0.22751
 C15 C 0.18652 0.27630 0.21375
 H16 H 0.15787 0.25333 0.25382
 H17 H 0.19128 0.28861 0.20141
 N18 N 0.21483 0.19176 0.25770
 N19 N 0.23277 0.18327 0.24790
 C20 C 0.23952 0.16503 0.25929
 C21 C 0.22509 0.16200 0.27696
 C22 C 0.20968 0.17914 0.27559
 H23 H 0.25418 0.15506 0.25545
 H24 H 0.19616 0.18248 0.28713
 H25 H 0.21487 0.21010 0.21777
 H26 H 0.23355 0.22389 0.23879
 N27 N 0.74299 -0.21447 0.19639
 N28 N 0.75102 -0.23381 0.18995
 C29 C 0.73928 -0.24078 0.17205
 C30 C 0.72318 -0.22490 0.16717
 C31 C 0.72585 -0.20846 0.18285
 H32 H 0.74196 -0.25637 0.16351
 H33 H 0.71579 -0.19353 0.18457
 Cu34 Cu 0.77533 -0.24868 0.20597
 Cu35 Cu 0.75459 -0.19916 0.22246
 Cu36 Cu 0.80163 -0.22213 0.24803
 N37 N 0.80360 -0.25947 0.21854
 N38 N 0.81386 -0.24909 0.23494
 C39 C 0.83247 -0.26061 0.24088
 C40 C 0.83383 -0.27904 0.22739
 C41 C 0.81534 -0.27796 0.21345
 H42 H 0.84383 -0.25621 0.25429
 H43 H 0.81056 -0.28992 0.20089
 N44 N 0.78675 -0.19495 0.25882
 N45 N 0.76878 -0.18618 0.24907
 C46 C 0.76194 -0.16840 0.26085
 C47 C 0.77634 -0.16597 0.27870
 C48 C 0.79183 -0.18298 0.27705
 H49 H 0.74723 -0.15836 0.25712
 H50 H 0.80534 -0.18670 0.28863
 H51 H 0.78680 -0.21188 0.21848
 H52 H 0.76811 -0.22640 0.23902
 N53 N 0.74107 0.21621 0.80027
 N54 N 0.74916 0.23583 0.80591
 C55 C 0.73769 0.24340 0.82362
 C56 C 0.72168 0.22764 0.82922
 C57 C 0.72417 0.21063 0.81415
 H58 H 0.74051 0.25929 0.83158
 H59 H 0.71417 0.19556 0.81312
 Cu60 Cu 0.77327 0.25011 0.78920
 Cu61 Cu 0.75232 0.19993 0.77475
 Cu62 Cu 0.79933 0.22180 0.74843
 N63 N 0.80169 0.26022 0.77655
 N64 N 0.81185 0.24914 0.76066
 C65 C 0.83075 0.26015 0.75465
 C66 C 0.83240 0.27898 0.76756
 C67 C 0.81379 0.27866 0.78125
 H68 H 0.84220 0.25503 0.74169
 H69 H 0.80925 0.29101 0.79346
 N70 N 0.78412 0.19433 0.73855
 N71 N 0.76617 0.18597 0.74861
 C72 C 0.75910 0.16780 0.73749
 C73 C 0.77333 0.16468 0.71974
 C74 C 0.78895 0.18169 0.72077
 H75 H 0.74436 0.15794 0.74159
 H76 H 0.80241 0.18493 0.70907
 H77 H 0.78459 0.21286 0.77830
 H78 H 0.76586 0.22648 0.75708
 N79 N 0.25180 -0.21005 0.80998
 N80 N 0.24159 -0.22755 0.81863
 C81 C 0.25376 -0.23505 0.83611
 C82 C 0.27241 -0.22145 0.83843
 C83 C 0.27076 -0.20580 0.82166
 H84 H 0.24973 -0.24962 0.84602
 H85 H 0.28276 -0.19270 0.81789
 Cu86 Cu 0.21409 -0.23973 0.80562
 Cu87 Cu 0.24049 -0.19489 0.78356
 Cu88 Cu 0.19278 -0.21703 0.75857
 N89 N 0.18798 -0.25244 0.79051
 N90 N 0.17971 -0.24353 0.77218
 C91 C 0.16242 -0.25616 0.76481
 C92 C 0.15983 -0.27379 0.77937
 C93 C 0.17625 -0.27109 0.79543
 H94 H 0.15289 -0.25309 0.74972
 H95 H 0.17977 -0.28220 0.80924
 N96 N 0.20833 -0.19027 0.74722
 N97 N 0.22656 -0.18183 0.75673
 C98 C 0.23381 -0.16427 0.74458
 C99 C 0.21939 -0.16165 0.72674
 C100 C 0.20348 -0.17831 0.72879
 H101 H 0.24877 -0.15450 0.74806
 H102 H 0.18981 -0.18178 0.71735
 H103 H 0.20701 -0.20404 0.78712
 H104 H 0.22521 -0.22293 0.77030
 N105 N 0.74651 -0.21258 0.80752
 N106 N 0.75610 -0.23081 0.81533
 C107 C 0.74434 -0.23817 0.83307
 C108 C 0.72660 -0.22372 0.83642
 C109 C 0.72836 -0.20771 0.82000
 H110 H 0.74806 -0.25309 0.84258
 H111 H 0.71703 -0.19386 0.81708
 Cu112 Cu 0.78241 -0.24343 0.80083
 Cu113 Cu 0.75755 -0.19708 0.78114
 Cu114 Cu 0.80454 -0.21958 0.75524
 N115 N 0.80877 -0.25598 0.78634
 N116 N 0.81738 -0.24650 0.76848
 C117 C 0.83487 -0.25880 0.76126
 C118 C 0.83725 -0.27679 0.77543
 C119 C 0.82050 -0.27465 0.79111
 H120 H 0.84474 -0.25522 0.74657
 H121 H 0.81685 -0.28610 0.80460
 N122 N 0.78914 -0.19244 0.74443
 N123 N 0.77125 -0.18388 0.75429
 C124 C 0.76406 -0.16609 0.74246
 C125 C 0.77812 -0.16342 0.72446
 C126 C 0.79377 -0.18031 0.72607
 H127 H 0.74934 -0.15617 0.74624
 H128 H 0.80712 -0.18383 0.71439
 H129 H 0.77188 -0.22461 0.76629
 H130 H 0.79075 -0.20724 0.78411
 N131 N 0.25657 0.21050 0.80393
 N132 N 0.24901 0.23020 0.80984
 C133 C 0.26097 0.23741 0.82749
 C134 C 0.27674 0.22134 0.83280
 C135 C 0.27362 0.20451 0.81759
 H136 H 0.25868 0.25329 0.83559
 H137 H 0.28332 0.18932 0.81629
 Cu138 Cu 0.22503 0.24516 0.79346
 Cu139 Cu 0.24449 0.19471 0.77833
 Cu140 Cu 0.19776 0.21802 0.75243
 N141 N 0.19689 0.25621 0.78087
 N142 N 0.18624 0.24560 0.76488
 C143 C 0.16781 0.25734 0.75883
 C144 C 0.16696 0.27617 0.77180
 C145 C 0.18558 0.27505 0.78558
 H146 H 0.15618 0.25279 0.74570
 H147 H 0.19070 0.28723 0.79780
 N148 N 0.21196 0.19022 0.74231
 N149 N 0.22982 0.18133 0.75216
 C150 C 0.23619 0.16311 0.74079
 C151 C 0.22158 0.16052 0.72311
 C152 C 0.20649 0.17789 0.72444
 H153 H 0.25071 0.15286 0.74467
 H154 H 0.19297 0.18161 0.71286
 H155 H 0.23144 0.22173 0.76105
 H156 H 0.21260 0.20825 0.78214
 N157 N 0.25551 -0.20919 0.19247
 N158 N 0.24592 -0.22733 0.18459
 C159 C 0.25773 -0.23441 0.16689
 C160 C 0.27548 -0.21986 0.16360
 C161 C 0.27369 -0.20409 0.18004
 H162 H 0.25409 -0.24927 0.15743
 H163 H 0.28508 -0.19031 0.18307
 Cu164 Cu 0.21961 -0.24028 0.19908
 Cu165 Cu 0.24457 -0.19425 0.21901
 Cu166 Cu 0.19763 -0.21741 0.24486
 N167 N 0.19331 -0.25323 0.21357
 N168 N 0.18474 -0.24410 0.23148
 C169 C 0.16724 -0.25657 0.23864
 C170 C 0.16481 -0.27434 0.22443
 C171 C 0.18156 -0.27186 0.20875
 H172 H 0.15738 -0.25326 0.25334
 H173 H 0.18515 -0.28307 0.19521
 N174 N 0.21309 -0.19047 0.25584
 N175 N 0.23096 -0.18164 0.24602
 C176 C 0.23820 -0.16409 0.25800
 C177 C 0.22418 -0.16186 0.27605
 C178 C 0.20850 -0.17875 0.27431
 H179 H 0.25292 -0.15404 0.25427
 H180 H 0.19517 -0.18255 0.28598
 H181 H 0.23028 -0.22209 0.23368
 H182 H 0.21138 -0.20442 0.21606
 N183 N 0.74330 0.21448 0.19600
 N184 N 0.75151 0.23409 0.19031
 C185 C 0.73999 0.24195 0.17258
 C186 C 0.72380 0.22639 0.16699
 C187 C 0.72624 0.20919 0.18211
 H188 H 0.74288 0.25790 0.16459
 H189 H 0.71610 0.19421 0.18317
 Cu190 Cu 0.77581 0.24800 0.20702
 Cu191 Cu 0.75466 0.19785 0.22157
 Cu192 Cu 0.80215 0.21913 0.24774
 N193 N 0.80449 0.25775 0.21942
 N194 N 0.81476 0.24649 0.23533
 C195 C 0.83382 0.25735 0.24117
 C196 C 0.83544 0.27627 0.22813
 C197 C 0.81666 0.27611 0.21454
 H198 H 0.84540 0.25209 0.25412
 H199 H 0.81205 0.28858 0.20229
 N200 N 0.78680 0.19168 0.25774
 N201 N 0.76868 0.18356 0.24774
 C202 C 0.76161 0.16532 0.25892
 C203 C 0.77601 0.16191 0.27665
 C204 C 0.79174 0.17882 0.27554
 H205 H 0.74678 0.15557 0.25487
 H206 H 0.80537 0.18183 0.28717
 H207 H 0.76862 0.22406 0.23920
 H208 H 0.78701 0.21055 0.21795
 C209 C 0.24104 0.01010 0.52059
 C210 C 0.24150 -0.01337 0.52084
 C211 C 0.24229 -0.02501 0.50075
 C212 C 0.24247 -0.01351 0.48041
 C213 C 0.24205 0.00996 0.48017
 C214 C 0.24142 0.02161 0.50026
 H215 H 0.24093 0.03969 0.50006
 H216 H 0.24247 -0.04310 0.50093
 C217 C 0.75663 -0.01284 0.52037
 C218 C 0.75651 0.01062 0.51976
 C219 C 0.75651 0.02180 0.49924
 C220 C 0.75677 0.00982 0.47933
 C221 C 0.75689 -0.01365 0.47995
 C222 C 0.75675 -0.02482 0.50046
 H223 H 0.75697 -0.04290 0.50093
 H224 H 0.75653 0.03989 0.49877
 C225 C 0.48067 0.23983 0.01100
 C226 C 0.48020 0.23840 -0.01234
 C227 C 0.50053 0.23810 -0.02419
 C228 C 0.52132 0.23902 -0.01301
 C229 C 0.52179 0.24037 0.01033
 C230 C 0.50146 0.24086 0.02216
 H231 H 0.50183 0.24179 0.04016
 H232 H 0.50018 0.23691 -0.04217
 C233 C 0.48021 0.76091 -0.01170
 C234 C 0.48034 0.76156 0.01169
 C235 C 0.50097 0.76211 0.02317
 C236 C 0.52146 0.76220 0.01161
 C237 C 0.52134 0.76161 -0.01178
 C238 C 0.50071 0.76087 -0.02326
 H239 H 0.50061 0.76056 -0.04129
 H240 H 0.50107 0.76274 0.04119
 C241 C 0.01351 0.47986 0.24166
 C242 C -0.01027 0.47954 0.24129
 C243 C -0.02224 0.49967 0.24149
 C244 C -0.01076 0.52012 0.24186
 C245 C 0.01303 0.52043 0.24218
 C246 C 0.02499 0.50029 0.24217
 H247 H 0.04333 0.50054 0.24229
 H248 H -0.04058 0.49943 0.24109
 C249 C 0.01265 0.47944 0.75712
 C250 C -0.01114 0.47910 0.75671
 C251 C -0.02312 0.49922 0.75677
 C252 C -0.01166 0.51967 0.75735
 C253 C 0.01213 0.52000 0.75774
 C254 C 0.02412 0.49989 0.75757
 H255 H 0.04245 0.50014 0.75799
 H256 H -0.04146 0.49896 0.75658
 C257 C 0.29677 0.22690 0.15151
 C258 C 0.31194 0.22855 0.13829
 C259 C 0.33048 0.23049 0.12298
 C260 C 0.32658 0.23612 0.10068
 C261 C 0.34474 0.23810 0.08596
 C262 C 0.36702 0.23452 0.09341
 C263 C 0.37071 0.22881 0.11585
 C264 C 0.35256 0.22681 0.13050
 C265 C 0.38641 0.23664 0.07793
 C266 C 0.40668 0.24670 0.08499
 C267 C 0.42525 0.24795 0.07078
 C268 C 0.42384 0.23921 0.04932
 C269 C 0.40365 0.22948 0.04198
 C270 C 0.38502 0.22822 0.05619
 C271 C 0.44341 0.23962 0.03522
 C272 C 0.46019 0.23980 0.02393
 H273 H 0.30955 0.23906 0.09470
 H274 H 0.34138 0.24274 0.06885
 H275 H 0.38761 0.22560 0.12202
 H276 H 0.35576 0.22238 0.14771
 H277 H 0.40816 0.25364 0.10149
 H278 H 0.44079 0.25555 0.07661
 H279 H 0.40242 0.22259 0.02542
 H280 H 0.36973 0.22018 0.05035
 C281 C 0.70687 0.77397 0.15125
 C282 C 0.69217 0.77294 0.13736
 C283 C 0.67430 0.77172 0.12112
 C284 C 0.66386 0.75127 0.11665
 C285 C 0.64583 0.75021 0.10160
 C286 C 0.63798 0.76963 0.09086
 C287 C 0.64881 0.79005 0.09524
 C288 C 0.66685 0.79107 0.11028
 C289 C 0.61813 0.76868 0.07571
 C290 C 0.60149 0.78539 0.07639
 C291 C 0.58237 0.78413 0.06276
 C292 C 0.57960 0.76620 0.04824
 C293 C 0.59616 0.74961 0.04723
 C294 C 0.61531 0.75082 0.06088
 C295 C 0.55945 0.76459 0.03490
 C296 C 0.54229 0.76341 0.02410
 H297 H 0.66943 0.73620 0.12504
 H298 H 0.63766 0.73430 0.09882
 H299 H 0.64335 0.80523 0.08702
 H300 H 0.67483 0.80698 0.11360
 H301 H 0.60299 0.79916 0.08785
 H302 H 0.56959 0.79700 0.06376
 H303 H 0.59420 0.73567 0.03602
 H304 H 0.62795 0.73785 0.05979
 C305 C 0.70482 0.22921 -0.15377
 C306 C 0.69037 0.23040 -0.13977
 C307 C 0.67275 0.23165 -0.12341
 C308 C 0.66655 0.21261 -0.11133
 C309 C 0.64870 0.21351 -0.09622
 C310 C 0.63678 0.23351 -0.09301
 C311 C 0.64339 0.25266 -0.10498
 C312 C 0.66124 0.25171 -0.12010
 C313 C 0.61709 0.23422 -0.07781
 C314 C 0.61344 0.25276 -0.06406
 C315 C 0.59444 0.25367 -0.05035
 C316 C 0.57885 0.23609 -0.05022
 C317 C 0.58244 0.21750 -0.06366
 C318 C 0.60143 0.21654 -0.07735
 C319 C 0.55885 0.23730 -0.03677
 C320 C 0.54187 0.23817 -0.02581
 H321 H 0.67536 0.19700 -0.11376
 H322 H 0.64421 0.19857 -0.08704
 H323 H 0.63437 0.26823 -0.10310
 H324 H 0.66583 0.26653 -0.12944
 H325 H 0.62533 0.26651 -0.06386
 H326 H 0.59182 0.26813 -0.03999
 H327 H 0.57042 0.20385 -0.06376
 H328 H 0.60357 0.20220 -0.08797
 C329 C 0.29079 0.77589 -0.14614
 C330 C 0.30654 0.77372 -0.13354
 C331 C 0.32571 0.77125 -0.11895
 C332 C 0.32269 0.76538 -0.09660
 C333 C 0.34143 0.76306 -0.08252
 C334 C 0.36343 0.76652 -0.09067
 C335 C 0.36624 0.77243 -0.11316
 C336 C 0.34751 0.77476 -0.12718
 C337 C 0.38342 0.76419 -0.07583
 C338 C 0.40334 0.75417 -0.08362
 C339 C 0.42249 0.75281 -0.07003
 C340 C 0.42202 0.76139 -0.04848
 C341 C 0.40219 0.77105 -0.04041
 C342 C 0.38298 0.77243 -0.05399
 C343 C 0.44217 0.76095 -0.03503
 C344 C 0.45935 0.76082 -0.02420
 H345 H 0.30588 0.76258 -0.09007
 H346 H 0.33874 0.75829 -0.06535
 H347 H 0.38291 0.77557 -0.11986
 H348 H 0.35003 0.77938 -0.14443
 H349 H 0.40410 0.74736 -0.10022
 H350 H 0.43774 0.74526 -0.07642
 H351 H 0.40168 0.77781 -0.02377
 H352 H 0.36799 0.78043 -0.04759
 C353 C 0.15171 0.29467 0.22887
 C354 C 0.13846 0.30987 0.22990
 C355 C 0.12316 0.32845 0.23098
 C356 C 0.12731 0.34752 0.21811
 C357 C 0.11299 0.36593 0.21955
 C358 C 0.09430 0.36555 0.23393
 C359 C 0.09009 0.34620 0.24661
 C360 C 0.10448 0.32778 0.24516
 C361 C 0.07954 0.38544 0.23590
 C362 C 0.05591 0.38316 0.23732
 C363 C 0.04212 0.40202 0.23886
 C364 C 0.05180 0.42334 0.23907
 C365 C 0.07528 0.42574 0.23784
 C366 C 0.08906 0.40695 0.23627
 C367 C 0.03779 0.44286 0.24022
 C368 C 0.02652 0.45955 0.24099
 H369 H 0.14169 0.34820 0.20704
 H370 H 0.11648 0.38045 0.20932
 H371 H 0.07598 0.34549 0.25799
 H372 H 0.10116 0.31312 0.25526
 H373 H 0.04808 0.36684 0.23685
 H374 H 0.02395 0.39999 0.23974
 H375 H 0.08294 0.44216 0.23805
 H376 H 0.10720 0.40924 0.23556
 C377 C 0.14544 0.70865 0.77723
 C378 C 0.13297 0.69286 0.77528
 C379 C 0.11849 0.67371 0.77293
 C380 C 0.09623 0.67617 0.76535
 C381 C 0.08235 0.65744 0.76285
 C382 C 0.09060 0.63599 0.76786
 C383 C 0.11298 0.63373 0.77555
 C384 C 0.12680 0.65246 0.77806
 C385 C 0.07603 0.61599 0.76510
 C386 C 0.08502 0.59620 0.75639
 C387 C 0.07155 0.57715 0.75439
 C388 C 0.04893 0.57761 0.76102
 C389 C 0.03972 0.59728 0.76945
 C390 C 0.05316 0.61639 0.77145
 C391 C 0.03546 0.55766 0.75968
 C392 C 0.02463 0.54066 0.75872
 H393 H 0.08966 0.69254 0.76127
 H394 H 0.06529 0.65969 0.75668
 H395 H 0.11972 0.61749 0.77987
 H396 H 0.14398 0.65037 0.78399
 H397 H 0.10244 0.59546 0.75104
 H398 H 0.07884 0.56202 0.74781
 H399 H 0.02224 0.59778 0.77471
 H400 H 0.04582 0.63130 0.77842
 C401 C -0.15086 0.70413 0.22875
 C402 C -0.13762 0.68892 0.22995
 C403 C -0.12230 0.67035 0.23135
 C404 C -0.12877 0.64967 0.22279
 C405 C -0.11425 0.63140 0.22451
 C406 C -0.09300 0.63356 0.23486
 C407 C -0.08653 0.65448 0.24326
 C408 C -0.10113 0.67275 0.24153
 C409 C -0.07781 0.61398 0.23700
 C410 C -0.05440 0.61611 0.23342
 C411 C -0.04029 0.59745 0.23490
 C412 C -0.04939 0.57649 0.24004
 C413 C -0.07258 0.57427 0.24388
 C414 C -0.08670 0.59286 0.24239
 C415 C -0.03517 0.55707 0.24089
 C416 C -0.02379 0.54043 0.24143
 H417 H -0.14510 0.64764 0.21483
 H418 H -0.11958 0.61562 0.21758
 H419 H -0.07039 0.65661 0.25151
 H420 H -0.09597 0.68868 0.24829
 H421 H -0.04709 0.63210 0.22903
 H422 H -0.02236 0.59933 0.23182
 H423 H -0.07979 0.55813 0.24792
 H424 H -0.10457 0.59073 0.24558
 C425 C -0.15163 0.29525 0.76621
 C426 C -0.13768 0.30987 0.76497
 C427 C -0.12133 0.32760 0.76347
 C428 C -0.11388 0.33506 0.74267
 C429 C -0.09870 0.35290 0.74115
 C430 C -0.09077 0.36351 0.76047
 C431 C -0.09812 0.35568 0.78132
 C432 C -0.11332 0.33786 0.78279
 C433 C -0.07546 0.38311 0.75888
 C434 C -0.05746 0.38578 0.77400
 C435 C -0.04369 0.40474 0.77304
 C436 C -0.04774 0.42126 0.75698
 C437 C -0.06539 0.41860 0.74168
 C438 C -0.07915 0.39966 0.74259
 C439 C -0.03440 0.44133 0.75671
 C440 C -0.02362 0.45841 0.75663
 H441 H -0.11995 0.32722 0.72760
 H442 H -0.09314 0.35837 0.72489
 H443 H -0.09258 0.36369 0.79647
 H444 H -0.11906 0.33228 0.79897
 H445 H -0.05404 0.37321 0.78656
 H446 H -0.03006 0.40663 0.78495
 H447 H -0.06875 0.43134 0.72926
 H448 H -0.09304 0.39824 0.73092
 C449 C 0.22701 0.14563 0.29438
 C450 C 0.22879 0.13216 0.30924
 C451 C 0.23108 0.11643 0.32726
 C452 C 0.21190 0.10625 0.33637
 C453 C 0.21405 0.09170 0.35450
 C454 C 0.23542 0.08720 0.36381
 C455 C 0.25463 0.09728 0.35433
 C456 C 0.25244 0.11180 0.33618
 C457 C 0.23759 0.07261 0.38373
 C458 C 0.25237 0.07843 0.40114
 C459 C 0.25379 0.06521 0.42030
 C460 C 0.24052 0.04598 0.42231
 C461 C 0.22600 0.03985 0.40497
 C462 C 0.22452 0.05308 0.38580
 C463 C 0.24129 0.03299 0.44248
 C464 C 0.24174 0.02240 0.45956
 H465 H 0.19527 0.10980 0.32965
 H466 H 0.19892 0.08443 0.36160
 H467 H 0.27133 0.09393 0.36094
 H468 H 0.26740 0.11957 0.32924
 H469 H 0.26243 0.09350 0.40018
 H470 H 0.26501 0.07016 0.43367
 H471 H 0.21568 0.02497 0.40636
 H472 H 0.21319 0.04802 0.37257
 C473 C 0.77107 0.14835 0.70252
 C474 C 0.76903 0.13494 0.68780
 C475 C 0.76647 0.11932 0.66991
 C476 C 0.74696 0.11976 0.65671
 C477 C 0.74479 0.10526 0.63873
 C478 C 0.76214 0.09012 0.63370
 C479 C 0.78155 0.08957 0.64729
 C480 C 0.78370 0.10411 0.66526
 C481 C 0.76028 0.07546 0.61398
 C482 C 0.76768 0.05318 0.61494
 C483 C 0.76644 0.03965 0.59612
 C484 C 0.75783 0.04822 0.57613
 C485 C 0.75029 0.07029 0.57506
 C486 C 0.75148 0.08382 0.59384
 C487 C 0.75719 0.03463 0.55653
 C488 C 0.75680 0.02357 0.53988
 H489 H 0.73351 0.13144 0.66019
 H490 H 0.72952 0.10588 0.62877
 H491 H 0.79531 0.07830 0.64368
 H492 H 0.79891 0.10369 0.67532
 H493 H 0.77430 0.04620 0.63027
 H494 H 0.77230 0.02256 0.59713
 H495 H 0.74369 0.07712 0.55964
 H496 H 0.74596 0.10098 0.59247
 C497 C 0.22169 -0.14620 0.70855
 C498 C 0.22363 -0.13363 0.69296
 C499 C 0.22591 -0.11914 0.67395
 C500 C 0.21810 -0.12619 0.65318
 C501 C 0.22063 -0.11246 0.63451
 C502 C 0.23106 -0.09145 0.63635
 C503 C 0.23872 -0.08441 0.65735
 C504 C 0.23619 -0.09821 0.67602
 C505 C 0.23396 -0.07705 0.61639
 C506 C 0.23016 -0.05392 0.61745
 C507 C 0.23226 -0.04057 0.59841
 C508 C 0.23825 -0.05016 0.57813
 C509 C 0.24235 -0.07308 0.57699
 C510 C 0.24024 -0.08644 0.59596
 C511 C 0.23965 -0.03671 0.55830
 C512 C 0.24061 -0.02589 0.54138
 H513 H 0.21007 -0.14234 0.65139
 H514 H 0.21424 -0.11821 0.61866
 H515 H 0.24702 -0.06843 0.65925
 H516 H 0.24238 -0.09262 0.69201
 H517 H 0.22508 -0.04624 0.63288
 H518 H 0.22897 -0.02284 0.59945
 H519 H 0.24705 -0.08067 0.56138
 H520 H 0.24363 -0.10412 0.59468
 C521 C 0.77436 -0.15032 0.29655
 C522 C 0.77264 -0.13753 0.31181
 C523 C 0.77055 -0.12271 0.33040
 C524 C 0.76346 -0.10066 0.32719
 C525 C 0.76116 -0.08645 0.34539
 C526 C 0.76589 -0.09417 0.36705
 C527 C 0.77311 -0.11633 0.37006
 C528 C 0.77540 -0.13048 0.35186
 C529 C 0.76329 -0.07927 0.38649
 C530 C 0.75406 -0.08750 0.40645
 C531 C 0.75222 -0.07373 0.42498
 C532 C 0.75953 -0.05156 0.42386
 C533 C 0.76847 -0.04310 0.40402
 C534 C 0.77032 -0.05686 0.38542
 C535 C 0.75839 -0.03778 0.44330
 C536 C 0.75760 -0.02662 0.45986
 H537 H 0.75959 -0.09450 0.31065
 H538 H 0.75535 -0.06956 0.34257
 H539 H 0.77721 -0.12267 0.38647
 H540 H 0.78096 -0.14749 0.35453
 H541 H 0.74817 -0.10456 0.40769
 H542 H 0.74523 -0.08043 0.44025
 H543 H 0.77425 -0.02597 0.40300
 H544 H 0.77770 -0.05011 0.37038
 C545 C 0.70901 0.77430 -0.14733
 C546 C 0.69397 0.77275 -0.13395
 C547 C 0.67569 0.77108 -0.11832
 C548 C 0.66428 0.75083 -0.11537
 C549 C 0.64587 0.74946 -0.10093
 C550 C 0.63860 0.76839 -0.08928
 C551 C 0.65040 0.78860 -0.09212
 C552 C 0.66881 0.78992 -0.10656
 C553 C 0.61840 0.76723 -0.07474
 C554 C 0.60255 0.78469 -0.07483
 C555 C 0.58321 0.78341 -0.06164
 C556 C 0.57944 0.76470 -0.04815
 C557 C 0.59518 0.74730 -0.04778
 C558 C 0.61454 0.74854 -0.06100
 C559 C 0.55921 0.76328 -0.03504
 C560 C 0.54206 0.76237 -0.02433
 H561 H 0.66941 0.73617 -0.12448
 H562 H 0.63698 0.73374 -0.09931
 H563 H 0.64540 0.80338 -0.08317
 H564 H 0.67753 0.80568 -0.10870
 H565 H 0.60486 0.79915 -0.08546
 H566 H 0.57110 0.79693 -0.06212
 H567 H 0.59243 0.73276 -0.03736
 H568 H 0.62655 0.73496 -0.06038
 C569 C 0.29403 0.22267 -0.15044
 C570 C 0.30878 0.22393 -0.13663
 C571 C 0.32669 0.22553 -0.12048
 C572 C 0.33726 0.24606 -0.11667
 C573 C 0.35530 0.24751 -0.10168
 C574 C 0.36305 0.22841 -0.09032
 C575 C 0.35211 0.20790 -0.09404
 C576 C 0.33406 0.20649 -0.10903
 C577 C 0.38293 0.22976 -0.07523
 C578 C 0.39950 0.21296 -0.07539
 C579 C 0.41870 0.21465 -0.06192
 C580 C 0.42161 0.23309 -0.04807
 C581 C 0.40509 0.24975 -0.04754
 C582 C 0.38586 0.24811 -0.06103
 C583 C 0.44190 0.23518 -0.03500
 C584 C 0.45919 0.23676 -0.02448
 H585 H 0.33176 0.26088 -0.12552
 H586 H 0.36356 0.26347 -0.09942
 H587 H 0.35751 0.19296 -0.08534
 H588 H 0.32598 0.19052 -0.11183
 H589 H 0.39790 0.19880 -0.08635
 H590 H 0.43144 0.20172 -0.06253
 H591 H 0.40717 0.26409 -0.03686
 H592 H 0.37328 0.26117 -0.06035
 C593 C 0.29333 0.77828 0.14762
 C594 C 0.30867 0.77680 0.13460
 C595 C 0.32742 0.77516 0.11955
 C596 C 0.32619 0.76119 0.10103
 C597 C 0.34475 0.75919 0.08685
 C598 C 0.36481 0.77110 0.09110
 C599 C 0.36576 0.78527 0.10963
 C600 C 0.34719 0.78726 0.12373
 C601 C 0.38482 0.76857 0.07653
 C602 C 0.40663 0.76726 0.08584
 C603 C 0.42556 0.76530 0.07223
 C604 C 0.42302 0.76459 0.04913
 C605 C 0.40140 0.76568 0.03965
 C606 C 0.38239 0.76761 0.05327
 C607 C 0.44274 0.76320 0.03531
 C608 C 0.45966 0.76230 0.02428
 H609 H 0.31097 0.75169 0.09767
 H610 H 0.34359 0.74799 0.07285
 H611 H 0.38082 0.79491 0.11315
 H612 H 0.34831 0.79817 0.13799
 H613 H 0.40903 0.76759 0.10368
 H614 H 0.44222 0.76442 0.07973
 H615 H 0.39926 0.76522 0.02177
 H616 H 0.36585 0.76879 0.04561
 C617 C 0.70683 0.22839 0.14998
 C618 C 0.69233 0.23008 0.13595
 C619 C 0.67469 0.23206 0.11953
 C620 C 0.66737 0.25314 0.11250
 C621 C 0.64951 0.25508 0.09733
 C622 C 0.63874 0.23592 0.08898
 C623 C 0.64647 0.21480 0.09590
 C624 C 0.66430 0.21291 0.11109
 C625 C 0.61904 0.23791 0.07375
 C626 C 0.61638 0.22321 0.05578
 C627 C 0.59722 0.22441 0.04215
 C628 C 0.58049 0.24029 0.04630
 C629 C 0.58315 0.25521 0.06389
 C630 C 0.60230 0.25407 0.07752
 C631 C 0.56013 0.24065 0.03316
 C632 C 0.54281 0.24067 0.02256
 H633 H 0.67530 0.26808 0.11892
 H634 H 0.64413 0.27155 0.09212
 H635 H 0.63833 0.19975 0.09003
 H636 H 0.66977 0.19651 0.11650
 H637 H 0.62910 0.21077 0.05229
 H638 H 0.59532 0.21278 0.02857
 H639 H 0.57023 0.26748 0.06732
 H640 H 0.60369 0.26541 0.09138
 C641 C -0.14811 0.70591 0.77338
 C642 C -0.13542 0.69033 0.77159
 C643 C -0.12068 0.67140 0.76951
 C644 C -0.09865 0.67409 0.76151
 C645 C -0.08450 0.65557 0.75937
 C646 C -0.09225 0.63411 0.76516
 C647 C -0.11440 0.63163 0.77326
 C648 C -0.12849 0.65015 0.77540
 C649 C -0.07738 0.61434 0.76282
 C650 C -0.08620 0.59408 0.75489
 C651 C -0.07243 0.57527 0.75328
 C652 C -0.04967 0.57642 0.75954
 C653 C -0.04063 0.59655 0.76721
 C654 C -0.05438 0.61542 0.76882
 C655 C -0.03585 0.55674 0.75857
 C656 C -0.02466 0.53999 0.75793
 H657 H -0.09246 0.69046 0.75685
 H658 H -0.06763 0.65798 0.75288
 H659 H -0.12074 0.61540 0.77818
 H660 H -0.14548 0.64789 0.78167
 H661 H -0.10373 0.59281 0.74982
 H662 H -0.07959 0.55978 0.74728
 H663 H -0.02305 0.59759 0.77217
 H664 H -0.04716 0.63070 0.77520
 C665 C -0.14764 0.29342 0.22930
 C666 C -0.13385 0.30821 0.23008
 C667 C -0.11793 0.32636 0.23079
 C668 C -0.10495 0.33012 0.24990
 C669 C -0.09036 0.34848 0.25090
 C670 C -0.08866 0.36335 0.23279
 C671 C -0.10151 0.35918 0.21353
 C672 C -0.11604 0.34083 0.21256
 C673 C -0.07415 0.38351 0.23421
 C674 C -0.08192 0.40406 0.22578
 C675 C -0.06850 0.42317 0.22733
 C676 C -0.04714 0.42205 0.23729
 C677 C -0.03918 0.40169 0.24568
 C678 C -0.05261 0.38252 0.24419
 C679 C -0.03362 0.44192 0.23898
 C680 C -0.02277 0.45890 0.24017
 H681 H -0.10636 0.31908 0.26415
 H682 H -0.08089 0.35138 0.26604
 H683 H -0.10033 0.37015 0.19921
 H684 H -0.12599 0.33806 0.19767
 H685 H -0.09854 0.40544 0.21832
 H686 H -0.07486 0.43886 0.22086
 H687 H -0.02263 0.40065 0.25338
 H688 H -0.04609 0.36690 0.25063
 C689 C 0.15103 0.29415 0.77020
 C690 C 0.13804 0.30955 0.76888
 C691 C 0.12298 0.32832 0.76736
 C692 C 0.12993 0.34908 0.77539
 C693 C 0.11562 0.36751 0.77363
 C694 C 0.09411 0.36543 0.76379
 C695 C 0.08719 0.34445 0.75591
 C696 C 0.10157 0.32602 0.75766
 C697 C 0.07910 0.38515 0.76170
 C698 C 0.05577 0.38332 0.76585
 C699 C 0.04183 0.40210 0.76443
 C700 C 0.05102 0.42289 0.75877
 C701 C 0.07414 0.42481 0.75436
 C702 C 0.08808 0.40609 0.75580
 C703 C 0.03698 0.44243 0.75798
 C704 C 0.02568 0.45913 0.75749
 H705 H 0.14645 0.35104 0.78298
 H706 H 0.12131 0.38334 0.78017
 H707 H 0.07084 0.34238 0.74804
 H708 H 0.09606 0.31003 0.75133
 H709 H 0.04840 0.36748 0.77065
 H710 H 0.02396 0.40046 0.76794
 H711 H 0.08142 0.44081 0.74993
 H712 H 0.10590 0.40798 0.75217
 C713 C 0.14925 0.70738 0.22653
 C714 C 0.13648 0.69179 0.22832
 C715 C 0.12165 0.67286 0.23046
 C716 C 0.09960 0.67553 0.23836
 C717 C 0.08537 0.65700 0.24062
 C718 C 0.09305 0.63557 0.23505
 C719 C 0.11522 0.63312 0.22705
 C720 C 0.12939 0.65164 0.22479
 C721 C 0.07811 0.61580 0.23753
 C722 C 0.08683 0.59552 0.24568
 C723 C 0.07303 0.57666 0.24729
 C724 C 0.05033 0.57779 0.24083
 C725 C 0.04137 0.59795 0.23300
 C726 C 0.05515 0.61687 0.23139
 C727 C 0.03658 0.55800 0.24158
 C728 C 0.02558 0.54107 0.24198
 H729 H 0.09346 0.69189 0.24287
 H730 H 0.06848 0.65939 0.24704
 H731 H 0.12152 0.61691 0.22230
 H732 H 0.14640 0.64939 0.21860
 H733 H 0.10433 0.59424 0.25087
 H734 H 0.08013 0.56114 0.25341
 H735 H 0.02383 0.59897 0.22787
 H736 H 0.04801 0.63218 0.22484
 C737 C 0.77561 -0.14772 0.70651
 C738 C 0.77338 -0.13489 0.69116
 C739 C 0.77061 -0.12003 0.67248
 C740 C 0.76954 -0.09695 0.67562
 C741 C 0.76679 -0.08263 0.65736
 C742 C 0.76503 -0.09126 0.63573
 C743 C 0.76614 -0.11449 0.63278
 C744 C 0.76890 -0.12875 0.65103
 C745 C 0.76227 -0.07620 0.61622
 C746 C 0.74772 -0.08207 0.59864
 C747 C 0.74593 -0.06847 0.57979
 C748 C 0.75857 -0.04880 0.57824
 C749 C 0.77276 -0.04255 0.59580
 C750 C 0.77459 -0.05615 0.61470
 C751 C 0.75766 -0.03560 0.55821
 C752 C 0.75709 -0.02502 0.54112
 H753 H 0.77079 -0.09003 0.69217
 H754 H 0.76577 -0.06485 0.66018
 H755 H 0.76522 -0.12164 0.61633
 H756 H 0.76977 -0.14658 0.64840
 H757 H 0.73774 -0.09720 0.59947
 H758 H 0.73487 -0.07344 0.56630
 H759 H 0.78268 -0.02739 0.59473
 H760 H 0.78610 -0.05129 0.62784
 C761 C 0.22664 -0.14653 0.29414
 C762 C 0.22870 -0.13404 0.30963
 C763 C 0.23110 -0.11961 0.32851
 C764 C 0.23632 -0.09701 0.32557
 C765 C 0.23869 -0.08311 0.34403
 C766 C 0.23590 -0.09170 0.36568
 C767 C 0.23062 -0.11444 0.36841
 C768 C 0.22825 -0.12827 0.34996
 C769 C 0.23835 -0.07708 0.38538
 C770 C 0.24922 -0.08497 0.40472
 C771 C 0.25075 -0.07159 0.42359
 C772 C 0.24151 -0.05015 0.42340
 C773 C 0.23100 -0.04197 0.40414
 C774 C 0.22944 -0.05533 0.38522
 C775 C 0.24217 -0.03690 0.44324
 C776 C 0.24246 -0.02613 0.46008
 H777 H 0.23863 -0.09015 0.30904
 H778 H 0.24298 -0.06574 0.34140
 H779 H 0.22801 -0.12147 0.38482
 H780 H 0.22414 -0.14572 0.35242
 H781 H 0.25656 -0.10149 0.40525
 H782 H 0.25896 -0.07807 0.43840
 H783 H 0.22373 -0.02540 0.40384
 H784 H 0.22079 -0.04886 0.37067
 C785 C 0.77389 0.14534 0.29385
 C786 C 0.77200 0.13170 0.30853
 C787 C 0.76965 0.11578 0.32637
 C788 C 0.78884 0.10744 0.33722
 C789 C 0.78654 0.09276 0.35521
 C790 C 0.76497 0.08627 0.36263
 C791 C 0.74578 0.09450 0.35140
 C792 C 0.74813 0.10915 0.33340
 C793 C 0.76251 0.07159 0.38245
 C794 C 0.74588 0.07607 0.39846
 C795 C 0.74421 0.06292 0.41764
 C796 C 0.75907 0.04510 0.42106
 C797 C 0.77543 0.04027 0.40508
 C798 C 0.77716 0.05343 0.38589
 C799 C 0.75803 0.03233 0.44135
 C800 C 0.75735 0.02195 0.45855
 H801 H 0.80558 0.11254 0.33198
 H802 H 0.80161 0.08696 0.36368
 H803 H 0.72897 0.08959 0.35655
 H804 H 0.73316 0.11549 0.32510
 H805 H 0.73455 0.09010 0.39644
 H806 H 0.73154 0.06686 0.42995
 H807 H 0.78700 0.02648 0.40756
 H808 H 0.78995 0.04941 0.37375
 C809 C 0.22306 0.14442 0.70562
 C810 C 0.22427 0.13131 0.69058
 C811 C 0.22563 0.11616 0.67218
 C812 C 0.24271 0.10006 0.67146
 C813 C 0.24452 0.08602 0.65307
 C814 C 0.22929 0.08799 0.63514
 C815 C 0.21200 0.10402 0.63620
 C816 C 0.21021 0.11800 0.65459
 C817 C 0.23170 0.07379 0.61516
 C818 C 0.22863 0.08300 0.59380
 C819 C 0.23084 0.06976 0.57494
 C820 C 0.23615 0.04713 0.57711
 C821 C 0.23931 0.03778 0.59827
 C822 C 0.23714 0.05103 0.61720
 C823 C 0.23815 0.03363 0.55755
 C824 C 0.23960 0.02273 0.54086
 H825 H 0.25479 0.09857 0.68495
 H826 H 0.25815 0.07401 0.65264
 H827 H 0.19983 0.10572 0.62282
 H828 H 0.19691 0.13038 0.65499
 H829 H 0.22479 0.10053 0.59166
 H830 H 0.22842 0.07718 0.55864
 H831 H 0.24338 0.02026 0.60013
 H832 H 0.23939 0.04342 0.63342
   
