data_POSCAR
  _audit_creation_date              2014-09-24
  _audit_creation_method            'ToBaCCo'
  _symmetry_space_group_name_H-M    'P1'
  _symmetry_Int_Tables_number       1
  _symmetry_cell_setting            triclinic
  loop_
  _symmetry_equiv_pos_as_xyz
 x,y,z
_cell_length_a 27.9887
_cell_length_b 28.2688
_cell_length_c 34.9716
_cell_angle_alpha 89.508300
_cell_angle_beta 90.423300
_cell_angle_gamma 120.528500
loop_
  _atom_site_label
  _atom_site_type_symbol
  _atom_site_fract_x
  _atom_site_fract_y
  _atom_site_fract_z
C1 C 0.00651 0.47751 1.36237
 C2 C 0.05583 0.49680 1.34145
 C3 C 0.05323 0.49852 1.30149
 C4 C 0.00412 0.48780 1.28262
 C5 C -0.04399 0.47193 1.30448
 C6 C -0.04347 0.46553 1.34455
 C7 C 0.00386 0.49442 1.24020
 C8 C -0.04356 0.45951 1.21833
 C9 C -0.04378 0.46590 1.17853
 C10 C 0.00501 0.50498 1.16008
 C11 C 0.05313 0.53900 1.18121
 C12 C 0.05165 0.53517 1.22116
 H13 H 0.00655 0.47141 1.39297
 H14 H 0.09038 0.51029 1.28513
 H15 H -0.08143 0.46426 1.29000
 H16 H -0.08053 0.42736 1.23208
 H17 H 0.00583 0.50848 1.12917
 H18 H 0.08847 0.56317 1.23716
 C19 C 0.48392 0.49288 1.34816
 C20 C 0.44394 0.49920 1.32800
 C21 C 0.43512 0.48513 1.28926
 C22 C 0.47116 0.47305 1.26908
 C23 C 0.51182 0.46790 1.29004
 C24 C 0.51658 0.47517 1.33006
 C25 C 0.46784 0.46881 1.22621
 C26 C 0.48774 0.43908 1.20621
 C27 C 0.48872 0.43934 1.16608
 C28 C 0.46579 0.46593 1.14561
 C29 C 0.44435 0.49437 1.16467
 C30 C 0.44639 0.49649 1.20466
 H31 H 0.48782 0.49917 1.37883
 H32 H 0.40171 0.48655 1.27460
 H33 H 0.53970 0.45866 1.27523
 H34 H 0.50321 0.41611 1.22143
 H35 H 0.46303 0.46285 1.11474
 H36 H 0.43222 0.52117 1.21851
 C37 C 0.49346 1.01075 1.34836
 C38 C 0.48421 0.96385 1.32881
 C39 C 0.48471 0.96407 1.28896
 C40 C 0.48971 1.00921 1.26812
 C41 C 0.49818 1.05602 1.28830
 C42 C 0.50299 1.05838 1.32848
 C43 C 0.48675 1.00706 1.22547
 C44 C 0.51838 1.05471 1.20316
 C45 C 0.51675 1.05206 1.16296
 C46 C 0.48484 1.00096 1.14520
 C47 C 0.45334 0.95318 1.16690
 C48 C 0.45293 0.95669 1.20674
 H49 H 0.49230 1.00887 1.37921
 H50 H 0.48000 0.92831 1.27436
 H51 H 0.50220 1.09117 1.27279
 H52 H 0.54385 1.09371 1.21708
 H53 H 0.48361 0.99841 1.11425
 H54 H 0.42665 0.91972 1.22302
 C55 C 1.01011 0.51703 0.64532
 C56 C 0.95979 0.47850 0.66250
 C57 C 0.95666 0.47342 0.70237
 C58 C 1.00197 0.50927 0.72537
 C59 C 1.05084 0.55007 0.70780
 C60 C 1.05669 0.55223 0.66795
 C61 C 0.99945 0.50274 0.76760
 C62 C 1.04643 0.51068 0.78821
 C63 C 1.04513 0.50632 0.82808
 C64 C 0.99531 0.48994 0.84727
 C65 C 0.94774 0.48051 0.82722
 C66 C 0.95036 0.48842 0.78756
 H67 H 1.01232 0.51963 0.61441
 H68 H 0.91873 0.44155 0.71537
 H69 H 1.08572 0.57833 0.72535
 H70 H 1.08448 0.52126 0.77342
 H71 H 0.99370 0.48522 0.87808
 H72 H 0.91406 0.48296 0.77234
 C73 C 0.47997 0.48296 0.65362
 C74 C 0.49589 0.44905 0.67229
 C75 C 0.48780 0.44074 0.71204
 C76 C 0.46735 0.46880 0.73393
 C77 C 0.45407 0.50450 0.71396
 C78 C 0.45877 0.51049 0.67412
 C79 C 0.45729 0.45906 0.77668
 C80 C 0.42413 0.47579 0.79649
 C81 C 0.41176 0.46364 0.83542
 C82 C 0.42996 0.43237 0.85470
 C83 C 0.46447 0.41714 0.83685
 C84 C 0.47917 0.43147 0.79828
 H85 H 0.48102 0.48536 0.62272
 H86 H 0.49696 0.41154 0.72516
 H87 H 0.43948 0.52809 0.72865
 H88 H 0.40566 0.49658 0.78226
 H89 H 0.41914 0.42181 0.88454
 H90 H 0.50675 0.41989 0.78560
 C91 C 0.52164 0.01792 0.65286
 C92 C 0.55598 0.06474 0.67473
 C93 C 0.55113 0.06209 0.71462
 C94 C 0.50928 0.01431 0.73265
 C95 C 0.47320 -0.03109 0.71009
 C96 C 0.48043 -0.03087 0.67045
 C97 C 0.50214 0.01144 0.77487
 C98 C 0.48609 -0.03799 0.79473
 C99 C 0.47419 -0.04305 0.83398
 C100 C 0.48319 0.00383 0.85397
 C101 C 0.50315 0.05443 0.83513
 C102 C 0.51030 0.05748 0.79546
 H103 H 0.52601 0.02084 0.62207
 H104 H 0.57900 0.09780 0.73135
 H105 H 0.43994 -0.06751 0.72362
 H106 H 0.48141 -0.07324 0.77934
 H107 H 0.47721 0.00220 0.88456
 H108 H 0.52315 0.09605 0.78088
 O109 O 0.39933 0.67498 0.93961
 O110 O 0.40161 0.76336 0.96280
 C111 C 0.36228 0.77237 0.95579
 O112 O 0.31469 0.74528 0.97082
 O113 O 0.22777 0.64890 0.98458
 C114 C 0.21741 0.61138 0.96044
 O115 O 0.24549 0.58758 0.95789
 O116 O 0.33942 0.58813 0.95415
 C117 C 0.37512 0.62436 0.93201
 O118 O 0.42322 0.65589 1.01150
 O119 O 0.42349 0.74430 1.03441
 C120 C 0.39847 0.76508 1.05117
 O121 O 0.34892 0.75233 1.04336
 O122 O 0.26292 0.65494 1.05748
 C123 C 0.23747 0.60303 1.05874
 O124 O 0.24392 0.57465 1.03377
 O125 O 0.34216 0.58436 1.03080
 C126 C 0.39486 0.61259 1.03152
 Cr127 Cr 0.40881 0.70783 0.98755
 Cr128 Cr 0.29024 0.69894 1.01350
 Cr129 Cr 0.29427 0.58674 0.99435
 O130 O 0.33132 0.66489 0.99857
 O131 O 0.58947 0.34375 0.95947
 O132 O 0.59121 0.25198 0.96362
 C133 C 0.61537 0.22434 0.96634
 O134 O 0.65421 0.23531 0.99017
 O135 O 0.74893 0.32199 0.97271
 C136 C 0.77453 0.36898 0.95712
 O137 O 0.76713 0.40840 0.96593
 O138 O 0.67656 0.40443 0.94431
 C139 C 0.62530 0.37948 0.93698
 O140 O 0.58881 0.34631 1.03642
 O141 O 0.58222 0.25055 1.04009
 C142 C 0.61366 0.24717 1.06493
 O143 O 0.66595 0.27372 1.06218
 O144 O 0.76254 0.35823 1.04499
 C145 C 0.77322 0.40618 1.05380
 O146 O 0.74974 0.42956 1.03804
 O147 O 0.65901 0.42741 1.01637
 C148 C 0.61634 0.39844 1.03702
 Cr149 Cr 0.59090 0.29965 1.00003
 Cr150 Cr 0.70650 0.29884 1.01701
 Cr151 Cr 0.71147 0.41453 0.99165
 O152 O 0.66993 0.33792 1.00294
 O153 O 0.65183 0.43325 0.51278
 O154 O 0.74603 0.43785 0.52745
 C155 C 0.77050 0.41463 0.54201
 O156 O 0.75860 0.36616 0.53359
 O157 O 0.66385 0.27825 0.55213
 C158 C 0.61169 0.25164 0.55639
 O159 O 0.57904 0.25650 0.53370
 O160 O 0.58392 0.35151 0.53405
 C161 C 0.61132 0.40373 0.53510
 O162 O 0.66185 0.41133 0.43827
 O163 O 0.75521 0.41727 0.45353
 C164 C 0.76436 0.37930 0.44397
 O165 O 0.74220 0.33276 0.46037
 O166 O 0.64892 0.24432 0.47886
 C167 C 0.60726 0.23210 0.45744
 O168 O 0.58158 0.25853 0.45719
 O169 O 0.57736 0.34957 0.45745
 C170 C 0.60989 0.38549 0.43388
 Cr171 Cr 0.70209 0.42188 0.48355
 Cr172 Cr 0.70189 0.30699 0.50584
 Cr173 Cr 0.58362 0.30564 0.49557
 O174 O 0.66296 0.34510 0.49516
 O175 O 0.36427 0.60443 0.53912
 O176 O 0.26406 0.59099 0.53774
 C177 C 0.25453 0.61978 0.56050
 O178 O 0.28053 0.67174 0.55898
 O179 O 0.36427 0.77073 0.54267
 C180 C 0.41411 0.78572 0.55163
 O181 O 0.44009 0.76400 0.53803
 O182 O 0.44485 0.67694 0.52006
 C183 C 0.41685 0.63429 0.54080
 O184 O 0.36504 0.60391 0.46239
 O185 O 0.26856 0.59922 0.46181
 C186 C 0.23727 0.61962 0.46348
 O187 O 0.24622 0.65874 0.48575
 O188 O 0.33085 0.75549 0.46956
 C189 C 0.37869 0.78331 0.45508
 O190 O 0.41964 0.77794 0.46475
 O191 O 0.42296 0.69084 0.44662
 C192 C 0.40202 0.64015 0.44094
 Cr193 Cr 0.31696 0.60267 0.50038
 Cr194 Cr 0.30728 0.71294 0.51388
 Cr195 Cr 0.42879 0.72561 0.49278
 O196 O 0.35123 0.68076 0.50239
 C197 C 0.41279 0.51907 0.34595
 C198 C 0.43288 0.55370 0.37553
 C199 C 0.40026 0.57283 0.39590
 C200 C 0.42608 0.62325 0.41067
 H201 H 0.47559 0.57054 0.38462
 H202 H 0.35675 0.54438 0.40154
 H203 H 0.37336 0.50999 0.33361
 H204 H 0.46873 0.65196 0.40275
 C205 C 0.47393 0.91438 0.35025
 C206 C 0.43843 0.89576 0.37944
 C207 C 0.43003 0.84922 0.40333
 C208 C 0.38680 0.82559 0.42702
 H209 H 0.41518 0.91577 0.38617
 H210 H 0.45974 0.83541 0.40236
 H211 H 0.49432 0.89241 0.34135
 H212 H 0.35622 0.83836 0.42628
 C213 C 0.10779 0.51625 0.35935
 C214 C 0.11790 0.53436 0.39546
 C215 C 0.17346 0.55974 0.41278
 C216 C 0.18578 0.59550 0.44112
 H217 H 0.08610 0.53550 0.41214
 H218 H 0.20351 0.54937 0.40268
 H219 H 0.14261 0.52225 0.34219
 H220 H 0.15574 0.60707 0.44919
 C221 C 0.55064 0.46382 0.35372
 C222 C 0.58503 0.44648 0.34259
 C223 C 0.61281 0.43005 0.37158
 C224 C 0.58457 0.39881 0.40167
 H225 H 0.59444 0.44527 0.31285
 H226 H 0.65609 0.44287 0.36771
 H227 H 0.54775 0.46818 0.38431
 H228 H 0.54027 0.38282 0.40331
 C229 C 0.51752 0.10789 0.34756
 C230 C 0.53707 0.11828 0.38358
 C231 C 0.55478 0.17064 0.40319
 C232 C 0.58758 0.18281 0.43394
 H233 H 0.54433 0.08923 0.39900
 H234 H 0.54181 0.19859 0.39274
 H235 H 0.51661 0.14054 0.33166
 H236 H 0.60208 0.15518 0.44236
 C237 C 0.90981 0.44807 0.36822
 C238 C 0.86129 0.44342 0.35787
 C239 C 0.81689 0.42868 0.38626
 C240 C 0.80439 0.39013 0.41324
 H241 H 0.85539 0.45603 0.32985
 H242 H 0.79372 0.44981 0.38453
 H243 H 0.91441 0.44031 0.39808
 H244 H 0.82410 0.36559 0.41280
 C245 C 0.51287 0.41098 1.14551
 C246 C 0.54190 0.43198 1.11333
 C247 C 0.56274 0.40248 1.09101
 C248 C 0.59738 0.42734 1.06178
 H249 H 0.55013 0.47168 1.10295
 H250 H 0.54900 0.36005 1.09810
 H251 H 0.50791 0.37321 1.15742
 H252 H 0.61266 0.47043 1.05594
 C253 C 0.90538 0.43044 1.15626
 C254 C 0.88824 0.45103 1.12837
 C255 C 0.83945 0.41573 1.10453
 C256 C 0.81693 0.43794 1.08217
 H257 H 0.91092 0.49490 1.12280
 H258 H 0.82308 0.37178 1.10438
 H259 H 0.88069 0.38732 1.16384
 H260 H 0.83250 0.48170 1.08374
 C261 C 0.54504 0.10160 1.13829
 C262 C 0.58878 0.14972 1.14906
 C263 C 0.61589 0.19685 1.12238
 C264 C 0.58713 0.20752 1.09638
 H265 H 0.60846 0.15361 1.17650
 H266 H 0.66061 0.22255 1.12396
 H267 H 0.53010 0.09734 1.10911
 H268 H 0.54221 0.18350 1.09638
 C269 C 0.41716 0.51976 1.14332
 C270 C 0.43410 0.54231 1.10867
 C271 C 0.40306 0.56240 1.08649
 C272 C 0.42545 0.59391 1.05555
 H273 H 0.47112 0.54574 1.09628
 H274 H 0.36152 0.55107 1.09538
 H275 H 0.38244 0.52008 1.15659
 H276 H 0.46807 0.60753 1.04805
 C277 C 0.10564 0.57705 1.16155
 C278 C 0.12481 0.55869 1.13399
 C279 C 0.17562 0.59489 1.11215
 C280 C 0.19561 0.57237 1.08836
 H281 H 0.10169 0.51536 1.12690
 H282 H 0.19399 0.63907 1.11349
 H283 H 0.12983 0.61925 1.17103
 H284 H 0.17616 0.52798 1.08776
 C285 C 0.41949 0.89962 1.14798
 C286 C 0.44143 0.88174 1.12204
 C287 C 0.40684 0.83085 1.10046
 C288 C 0.43010 0.80869 1.07934
 H289 H 0.48544 0.90589 1.11587
 H290 H 0.36223 0.81326 1.10019
 H291 H 0.37641 0.87408 1.15619
 H292 H 0.47461 0.82573 1.08076
 C293 C 0.51704 0.41900 0.64983
 C294 C 0.54626 0.43987 0.61754
 C295 C 0.56257 0.40839 0.59277
 C296 C 0.59518 0.43267 0.56239
 H297 H 0.55805 0.48121 0.60868
 H298 H 0.54724 0.36539 0.59894
 H299 H 0.50841 0.37911 0.66002
 H300 H 0.61158 0.47616 0.55745
 C301 C 0.59437 0.11741 0.65562
 C302 C 0.57461 0.13837 0.62988
 C303 C 0.60985 0.18922 0.60791
 C304 C 0.58501 0.21041 0.58697
 H305 H 0.53028 0.11645 0.62430
 H306 H 0.65430 0.20622 0.60650
 H307 H 0.63771 0.13989 0.66389
 H308 H 0.54037 0.19195 0.58925
 C309 C 0.91051 0.44219 0.63914
 C310 C 0.89210 0.46230 0.61178
 C311 C 0.84235 0.42623 0.58888
 C312 C 0.81666 0.44727 0.56867
 H313 H 0.91353 0.50626 0.60665
 H314 H 0.82722 0.38253 0.58820
 H315 H 0.88682 0.39889 0.64640
 H316 H 0.83118 0.49077 0.57080
 C317 C 0.43549 0.54064 0.65388
 C318 C 0.45508 0.56619 0.62034
 C319 C 0.42476 0.58664 0.59759
 C320 C 0.44779 0.61802 0.56665
 H321 H 0.49275 0.57021 0.60868
 H322 H 0.38260 0.57439 0.60545
 H323 H 0.39984 0.54002 0.66638
 H324 H 0.49082 0.63231 0.56000
 C325 C 0.44586 0.92075 0.64994
 C326 C 0.45932 0.90928 0.61604
 C327 C 0.42311 0.85671 0.59682
 C328 C 0.44580 0.83323 0.57674
 H329 H 0.49940 0.93653 0.60336
 H330 H 0.37846 0.83785 0.59875
 H331 H 0.40855 0.88883 0.66369
 H332 H 0.49054 0.85150 0.57711
 C333 C 0.10939 0.58794 0.65237
 C334 C 0.12628 0.57794 0.61935
 C335 C 0.18326 0.61289 0.60526
 C336 C 0.20697 0.58957 0.58615
 H337 H 0.09954 0.54071 0.60362
 H338 H 0.20359 0.65710 0.60807
 H339 H 0.14000 0.62136 0.66980
 H340 H 0.18563 0.54508 0.58475
 C341 C 0.37943 0.48236 0.85723
 C342 C 0.39304 0.53509 0.85840
 C343 C 0.36949 0.55355 0.88850
 C344 C 0.39137 0.60676 0.89713
 H345 H 0.42568 0.56515 0.84014
 H346 H 0.33658 0.52255 0.90614
 H347 H 0.34972 0.45371 0.87775
 H348 H 0.42477 0.63782 0.87986
 C349 C 0.09629 0.52047 0.84961
 C350 C 0.10728 0.54692 0.88288
 C351 C 0.15765 0.56219 0.90521
 C352 C 0.16912 0.59458 0.93557
 H353 H 0.07882 0.55893 0.89376
 H354 H 0.18491 0.54726 0.89701
 H355 H 0.12646 0.51201 0.83708
 H356 H 0.14200 0.61026 0.94247
 C357 C 0.45572 0.90600 0.85228
 C358 C 0.42857 0.89197 0.88567
 C359 C 0.41408 0.84023 0.90529
 C360 C 0.37287 0.81859 0.93070
 H361 H 0.41535 0.91797 0.89878
 H362 H 0.43838 0.82094 0.89994
 H363 H 0.46151 0.87544 0.83786
 H364 H 0.34690 0.83652 0.93414
 C365 C 0.48321 0.38550 0.85990
 C366 C 0.53607 0.39808 0.86188
 C367 C 0.55364 0.37430 0.89286
 C368 C 0.60717 0.39526 0.90179
 H369 H 0.56693 0.42997 0.84359
 H370 H 0.52208 0.34227 0.91072
 H371 H 0.45391 0.35628 0.88037
 H372 H 0.63862 0.42789 0.88424
 C373 C 0.89605 0.46436 0.84813
 C374 C 0.88036 0.42886 0.87731
 C375 C 0.83410 0.41818 0.90234
 C376 C 0.81635 0.37817 0.92848
 H377 H 0.90349 0.40848 0.88378
 H378 H 0.81599 0.44412 0.90038
 H379 H 0.87113 0.48213 0.83973
 H380 H 0.83314 0.35101 0.92897
 C381 C 0.51868 0.10477 0.85693
 C382 C 0.54548 0.11429 0.89031
 C383 C 0.56297 0.16452 0.91230
 C384 C 0.59708 0.17594 0.94215
 H385 H 0.55625 0.08491 0.90134
 H386 H 0.54821 0.19199 0.90411
 H387 H 0.51162 0.13585 0.84430
 H388 H 0.61278 0.14883 0.94909
   
