data_POSCAR
  _audit_creation_date              2014-09-24
  _audit_creation_method            'ToBaCCo'
  _symmetry_space_group_name_H-M    'P1'
  _symmetry_Int_Tables_number       1
  _symmetry_cell_setting            triclinic
  loop_
  _symmetry_equiv_pos_as_xyz
 x,y,z
_cell_length_a 36.8975
_cell_length_b 35.1822
_cell_length_c 35.1821
_cell_angle_alpha 89.903400
_cell_angle_beta 90.026400
_cell_angle_gamma 89.973300
loop_
  _atom_site_label
  _atom_site_type_symbol
  _atom_site_fract_x
  _atom_site_fract_y
  _atom_site_fract_z
C1 C 0.30494 0.30208 0.23544
 H2 H 0.30647 0.30270 0.26614
 C3 C 0.32839 0.32453 0.21381
 H4 H 0.34799 0.34264 0.22783
 C5 C 0.27780 0.27745 0.17952
 H6 H 0.25846 0.25869 0.16623
 C7 C 0.30076 0.29943 0.15684
 H8 H 0.29875 0.29781 0.12616
 N9 N 0.27997 0.27952 0.21810
 C10 C 0.19415 0.26398 0.30201
 H11 H 0.19255 0.23328 0.30271
 C12 C 0.17085 0.28567 0.32451
 H13 H 0.15128 0.27171 0.34274
 C14 C 0.22135 0.31982 0.27716
 H15 H 0.24067 0.33306 0.25830
 C16 C 0.19854 0.34257 0.29919
 H17 H 0.20064 0.37324 0.29750
 Zn18 Zn 0.24948 0.24974 0.24956
 N19 N 0.21910 0.28125 0.27933
 C20 C 0.27774 0.22207 0.31966
 N21 N 0.27988 0.21986 0.28109
 C22 C 0.30480 0.19717 0.26384
 C23 C 0.32822 0.17473 0.28557
 C24 C 0.30066 0.20011 0.34243
 C25 C 0.19412 0.23570 0.19705
 C26 C 0.17070 0.21410 0.17459
 C27 C 0.19822 0.15710 0.19996
 C28 C 0.22114 0.17976 0.22195
 N29 N 0.21902 0.21834 0.21975
 H30 H 0.25845 0.24095 0.33288
 H31 H 0.30632 0.19645 0.23314
 H32 H 0.34779 0.15652 0.27162
 H33 H 0.29868 0.20185 0.37310
 H34 H 0.19261 0.26641 0.19633
 H35 H 0.15115 0.22814 0.15636
 H36 H 0.20020 0.12642 0.20169
 H37 H 0.24043 0.16645 0.24083
 C38 C 0.17319 0.32532 0.32318
 C39 C 0.32616 0.32327 0.17416
 C40 C 0.17289 0.17445 0.17598
 C41 C 0.32602 0.17614 0.32521
 C42 C 0.80576 0.80341 0.23488
 H43 H 0.80734 0.80413 0.26558
 C44 C 0.82904 0.82595 0.21315
 H45 H 0.84854 0.84420 0.22717
 C46 C 0.77865 0.77845 0.17911
 H47 H 0.75938 0.75952 0.16592
 C48 C 0.80142 0.80050 0.15629
 H49 H 0.79928 0.79870 0.12562
 N50 N 0.78087 0.78066 0.21767
 C51 C 0.69516 0.76488 0.30168
 H52 H 0.69366 0.73418 0.30238
 C53 C 0.67179 0.78649 0.32418
 H54 H 0.65227 0.77245 0.34241
 C55 C 0.72218 0.82082 0.27683
 H56 H 0.74145 0.83413 0.25796
 C57 C 0.69929 0.84348 0.29885
 H58 H 0.70129 0.87416 0.29717
 Zn59 Zn 0.75054 0.75081 0.24925
 N60 N 0.72005 0.78224 0.27900
 C61 C 0.77882 0.72326 0.31939
 N62 N 0.78104 0.72108 0.28082
 C63 C 0.80600 0.69841 0.26361
 C64 C 0.82933 0.67590 0.28537
 C65 C 0.80166 0.70123 0.34219
 C66 C 0.69517 0.73641 0.19683
 C67 C 0.67182 0.71464 0.17445
 C68 C 0.69958 0.65783 0.19996
 C69 C 0.72243 0.68065 0.22186
 N70 N 0.72016 0.71922 0.21955
 H71 H 0.75950 0.74212 0.33258
 H72 H 0.80758 0.69770 0.23291
 H73 H 0.84890 0.65766 0.27145
 H74 H 0.79957 0.70291 0.37286
 H75 H 0.69354 0.76711 0.19602
 H76 H 0.65220 0.72855 0.15620
 H77 H 0.70168 0.62717 0.20177
 H78 H 0.74178 0.66747 0.24076
 C79 C 0.67400 0.82614 0.32285
 C80 C 0.82674 0.82458 0.17347
 C81 C 0.67417 0.67500 0.17594
 C82 C 0.82701 0.67723 0.32501
 C83 C 0.80628 0.30132 0.73668
 H84 H 0.80788 0.30200 0.76738
 C85 C 0.82959 0.32384 0.71495
 H86 H 0.84916 0.34206 0.72889
 C87 C 0.77909 0.27652 0.68088
 H88 H 0.75977 0.25768 0.66766
 C89 C 0.80190 0.29856 0.65810
 H90 H 0.79980 0.29690 0.62743
 N91 N 0.78133 0.27867 0.71944
 C92 C 0.69551 0.26327 0.80340
 H93 H 0.69392 0.23257 0.80417
 C94 C 0.67214 0.28502 0.82577
 H95 H 0.65254 0.27110 0.84399
 C96 C 0.72271 0.31905 0.77843
 H97 H 0.74204 0.33225 0.75955
 C98 C 0.69984 0.34185 0.80032
 H99 H 0.70191 0.37252 0.79853
 Zn100 Zn 0.75087 0.24892 0.75098
 N101 N 0.72048 0.28049 0.78070
 C102 C 0.77905 0.22122 0.82110
 N103 N 0.78124 0.21903 0.78254
 C104 C 0.80613 0.19630 0.76531
 C105 C 0.82946 0.17374 0.78702
 C106 C 0.80186 0.19916 0.84391
 C107 C 0.69546 0.23491 0.69853
 C108 C 0.67207 0.21334 0.67602
 C109 C 0.69962 0.15631 0.70130
 C110 C 0.72252 0.17894 0.72334
 N111 N 0.72038 0.21752 0.72120
 H112 H 0.75977 0.24014 0.83429
 H113 H 0.80768 0.19560 0.73461
 H114 H 0.84895 0.15552 0.77291
 H115 H 0.79969 0.20100 0.87459
 H116 H 0.69395 0.26562 0.69786
 H117 H 0.65252 0.22740 0.65781
 H118 H 0.70162 0.12563 0.70296
 H119 H 0.74182 0.16560 0.74219
 C120 C 0.67445 0.32466 0.82430
 C121 C 0.82725 0.32254 0.67531
 C122 C 0.67429 0.17368 0.67733
 C123 C 0.82721 0.17507 0.82672
 C124 C 0.30495 0.80287 0.73609
 H125 H 0.30647 0.80358 0.76679
 C126 C 0.32836 0.82530 0.71439
 H127 H 0.34792 0.84349 0.72835
 C128 C 0.27788 0.77799 0.68025
 H129 H 0.25859 0.75912 0.66701
 C130 C 0.30080 0.79994 0.65750
 H131 H 0.29881 0.79821 0.62682
 N132 N 0.28003 0.78019 0.71882
 C133 C 0.19428 0.76449 0.80279
 H134 H 0.19278 0.73379 0.80355
 C135 C 0.17084 0.78614 0.82519
 H136 H 0.15129 0.77214 0.84341
 C137 C 0.22129 0.82038 0.77784
 H138 H 0.24058 0.83366 0.75897
 C139 C 0.19835 0.84309 0.79977
 H140 H 0.20032 0.87376 0.79799
 Zn141 Zn 0.24964 0.75036 0.75034
 N142 N 0.21918 0.78181 0.78010
 C143 C 0.27796 0.72263 0.82041
 N144 N 0.28013 0.72056 0.78184
 C145 C 0.30511 0.69799 0.76452
 C146 C 0.32854 0.67550 0.78617
 C147 C 0.30091 0.70061 0.84312
 C148 C 0.19431 0.73610 0.69784
 C149 C 0.17099 0.71438 0.67537
 C150 C 0.19869 0.65751 0.70081
 C151 C 0.22151 0.68027 0.72281
 N152 N 0.21926 0.71884 0.72057
 H153 H 0.25861 0.74141 0.83369
 H154 H 0.30664 0.69737 0.73382
 H155 H 0.34814 0.65737 0.77217
 H156 H 0.29889 0.70222 0.87380
 H157 H 0.19270 0.76679 0.69709
 H158 H 0.15142 0.72833 0.65711
 H159 H 0.20079 0.62684 0.70256
 H160 H 0.24083 0.66704 0.74171
 C161 C 0.17302 0.82579 0.82374
 C162 C 0.32615 0.82389 0.67474
 C163 C 0.17333 0.67474 0.67678
 C164 C 0.32630 0.67674 0.82582
 C165 C -0.00130 0.00029 -0.00038
 C166 C 0.00002 0.49989 0.50020
 C167 C 0.50044 0.00005 0.50011
 C168 C 0.50057 0.49979 0.00002
 C169 C 0.10605 -0.10848 -0.11003
 C170 C 0.08080 -0.08235 -0.13291
 C171 C 0.05886 -0.06041 -0.11081
 C172 C 0.06432 -0.06677 -0.06801
 C173 C 0.10488 -0.05995 -0.06113
 C174 C 0.12681 -0.08187 -0.08322
 C175 C 0.08084 -0.13155 -0.08408
 C176 C 0.05889 -0.10962 -0.06198
 C177 C 0.12975 -0.13204 -0.13377
 C178 C 0.14939 -0.15131 -0.15319
 C179 C 0.04081 -0.04313 -0.04419
 C180 C 0.02168 -0.02358 -0.02447
 H181 H 0.08021 -0.08118 -0.16374
 H182 H 0.03946 -0.04045 -0.12271
 H183 H 0.11543 -0.03968 -0.04070
 H184 H 0.15617 -0.08038 -0.08171
 H185 H 0.08026 -0.16239 -0.08315
 H186 H 0.03951 -0.12166 -0.04212
 C187 C 0.10676 0.39112 0.38989
 C188 C 0.12773 0.41770 0.41656
 C189 C 0.10596 0.43964 0.43882
 C190 C 0.06535 0.43286 0.43224
 C191 C 0.05993 0.39002 0.43830
 C192 C 0.08170 0.36807 0.41603
 C193 C 0.08138 0.41729 0.36722
 C194 C 0.05960 0.43923 0.38949
 C195 C 0.13027 0.36754 0.36597
 C196 C 0.14975 0.34825 0.34641
 C197 C 0.04201 0.45650 0.45623
 C198 C 0.02296 0.47604 0.47604
 H199 H 0.15709 0.41917 0.41785
 H200 H 0.11667 0.45990 0.45918
 H201 H 0.04068 0.37798 0.45831
 H202 H 0.08111 0.33723 0.41696
 H203 H 0.08057 0.41847 0.33639
 H204 H 0.04014 0.45922 0.37774
 C205 C 0.60737 -0.10835 0.38964
 C206 C 0.58233 -0.13153 0.41569
 C207 C 0.56050 -0.10968 0.43800
 C208 C 0.56585 -0.06682 0.43206
 C209 C 0.56013 -0.06033 0.38932
 C210 C 0.58196 -0.08218 0.36701
 C211 C 0.62827 -0.08180 0.41640
 C212 C 0.60644 -0.05997 0.43871
 C213 C 0.63094 -0.13182 0.36568
 C214 C 0.65049 -0.15102 0.34609
 C215 C 0.54245 -0.04327 0.45610
 C216 C 0.52338 -0.02378 0.47593
 H217 H 0.58179 -0.16237 0.41653
 H218 H 0.54125 -0.12181 0.45795
 H219 H 0.54064 -0.04036 0.37761
 H220 H 0.58118 -0.08091 0.33619
 H221 H 0.65763 -0.08029 0.41772
 H222 H 0.61710 -0.03975 0.45913
 C223 C 0.60768 0.39068 -0.10954
 C224 C 0.58229 0.36772 -0.08368
 C225 C 0.56041 0.38975 -0.06161
 C226 C 0.56608 0.43257 -0.06756
 C227 C 0.56074 0.43901 -0.11036
 C228 C 0.58262 0.41699 -0.13244
 C229 C 0.62853 0.41713 -0.08264
 C230 C 0.60665 0.43915 -0.06057
 C231 C 0.63131 0.36701 -0.13325
 C232 C 0.65089 0.34765 -0.15265
 C233 C 0.54263 0.45630 -0.04376
 C234 C 0.52353 0.47590 -0.02406
 H235 H 0.58156 0.33688 -0.08280
 H236 H 0.54093 0.37778 -0.04181
 H237 H 0.54147 0.45910 -0.12228
 H238 H 0.58210 0.41820 -0.16327
 H239 H 0.65789 0.41845 -0.08106
 H240 H 0.61727 0.45934 -0.04009
 C241 C -0.10830 0.11050 -0.10943
 C242 C -0.08308 0.08454 -0.13243
 C243 C -0.06124 0.06230 -0.11043
 C244 C -0.06676 0.06821 -0.06760
 C245 C -0.10735 0.06143 -0.06089
 C246 C -0.12919 0.08367 -0.08288
 C247 C -0.08308 0.13321 -0.08323
 C248 C -0.06123 0.11097 -0.06124
 C249 C -0.13189 0.13439 -0.13307
 C250 C -0.15144 0.15395 -0.15240
 C251 C -0.04335 0.04425 -0.04390
 C252 C -0.02426 0.02444 -0.02430
 H253 H -0.08243 0.08371 -0.16327
 H254 H -0.04187 0.04242 -0.12242
 H255 H -0.11801 0.04097 -0.04065
 H256 H -0.15855 0.08225 -0.08147
 H257 H -0.08242 0.16404 -0.08206
 H258 H -0.04186 0.12274 -0.04122
 C259 C -0.10663 0.61038 0.39105
 C260 C -0.08145 0.58434 0.36811
 C261 C -0.05971 0.56202 0.39015
 C262 C -0.06530 0.56795 0.43296
 C263 C -0.10591 0.56131 0.43960
 C264 C -0.12764 0.58362 0.41757
 C265 C -0.08137 0.63301 0.41730
 C266 C -0.05964 0.61069 0.43934
 C267 C -0.13010 0.63435 0.36738
 C268 C -0.14956 0.65395 0.34801
 C269 C -0.04199 0.54391 0.45671
 C270 C -0.02295 0.52407 0.47631
 H271 H -0.08075 0.58350 0.33727
 H272 H -0.04039 0.54207 0.37820
 H273 H -0.11666 0.54089 0.45983
 H274 H -0.15701 0.58231 0.41892
 H275 H -0.08062 0.66383 0.41847
 H276 H -0.04027 0.62239 0.45939
 C277 C 0.39303 0.10989 0.39114
 C278 C 0.37230 0.08351 0.41827
 C279 C 0.39425 0.06141 0.44026
 C280 C 0.43480 0.06785 0.43297
 C281 C 0.44065 0.11065 0.43875
 C282 C 0.41868 0.13276 0.41675
 C283 C 0.41785 0.08350 0.36815
 C284 C 0.43981 0.06139 0.39015
 C285 C 0.36932 0.13364 0.36751
 C286 C 0.34966 0.15306 0.34817
 C287 C 0.45833 0.04401 0.45666
 C288 C 0.47747 0.02424 0.47624
 H289 H 0.34294 0.08230 0.42006
 H290 H 0.38371 0.04127 0.46088
 H291 H 0.46031 0.12254 0.45838
 H292 H 0.41952 0.16359 0.41753
 H293 H 0.41815 0.08229 0.33732
 H294 H 0.45893 0.04124 0.37817
 C295 C 0.39325 0.61008 -0.10859
 C296 C 0.41824 0.58401 -0.13173
 C297 C 0.44018 0.56175 -0.10987
 C298 C 0.43497 0.56775 -0.06701
 C299 C 0.39442 0.56110 -0.05997
 C300 C 0.37248 0.58335 -0.08182
 C301 C 0.41872 0.63277 -0.08263
 C302 C 0.44066 0.61051 -0.06076
 C303 C 0.36955 0.63399 -0.13207
 C304 C 0.34991 0.65354 -0.15130
 C305 C 0.45848 0.54377 -0.04344
 C306 C 0.47761 0.52395 -0.02390
 H307 H 0.41866 0.58313 -0.16258
 H308 H 0.45941 0.54179 -0.12197
 H309 H 0.38386 0.54070 -0.03960
 H310 H 0.34313 0.58202 -0.08018
 H311 H 0.41946 0.66360 -0.08152
 H312 H 0.46021 0.62226 -0.04092
 C313 C -0.10805 -0.10996 0.10871
 C314 C -0.12901 -0.08319 0.08211
 C315 C -0.10724 -0.06095 0.06010
 C316 C -0.06663 -0.06765 0.06685
 C317 C -0.06100 -0.11041 0.06054
 C318 C -0.08278 -0.13266 0.08255
 C319 C -0.08289 -0.08393 0.13169
 C320 C -0.06111 -0.06168 0.10968
 C321 C -0.13158 -0.13386 0.13236
 C322 C -0.15107 -0.15342 0.15171
 C323 C -0.04327 -0.04368 0.04313
 C324 C -0.02423 -0.02387 0.02353
 H325 H -0.15838 -0.08183 0.08068
 H326 H -0.11794 -0.04053 0.03982
 H327 H -0.04160 -0.12217 0.04056
 H328 H -0.08205 -0.16349 0.08142
 H329 H -0.08223 -0.08306 0.16253
 H330 H -0.04179 -0.04175 0.12165
 C331 C -0.10645 0.38938 0.60932
 C332 C -0.12750 0.41614 0.58278
 C333 C -0.10579 0.43844 0.56076
 C334 C -0.06517 0.43181 0.56744
 C335 C -0.05946 0.38907 0.56107
 C336 C -0.08117 0.36676 0.58310
 C337 C -0.08130 0.41544 0.63228
 C338 C -0.05959 0.43776 0.61026
 C339 C -0.12989 0.36542 0.63298
 C340 C -0.14933 0.34581 0.65234
 C341 C -0.04189 0.45585 0.54370
 C342 C -0.02289 0.47570 0.52410
 H343 H -0.15687 0.41744 0.58140
 H344 H -0.11657 0.45886 0.54052
 H345 H -0.04008 0.37737 0.54104
 H346 H -0.08039 0.33594 0.58194
 H347 H -0.08059 0.41629 0.66312
 H348 H -0.04028 0.45772 0.62222
 C349 C 0.39311 -0.10983 0.60892
 C350 C 0.37235 -0.08280 0.58241
 C351 C 0.39429 -0.06068 0.56047
 C352 C 0.43484 -0.06775 0.56717
 C353 C 0.44014 -0.11054 0.56072
 C354 C 0.41819 -0.13266 0.58268
 C355 C 0.41849 -0.08409 0.63196
 C356 C 0.44044 -0.06196 0.61001
 C357 C 0.36941 -0.13359 0.63250
 C358 C 0.34976 -0.15302 0.65181
 C359 C 0.45836 -0.04390 0.54351
 C360 C 0.47748 -0.02413 0.52396
 H361 H 0.34299 -0.08117 0.58100
 H362 H 0.38373 -0.04010 0.54026
 H363 H 0.45943 -0.12240 0.54069
 H364 H 0.41867 -0.16349 0.58145
 H365 H 0.41917 -0.08332 0.66280
 H366 H 0.45992 -0.04224 0.62204
 C367 C 0.39316 0.38975 0.10859
 C368 C 0.37242 0.41648 0.08177
 C369 C 0.39438 0.43867 0.05991
 C370 C 0.43493 0.43196 0.06701
 C371 C 0.44059 0.38919 0.06082
 C372 C 0.41863 0.36699 0.08269
 C373 C 0.41817 0.41581 0.13173
 C374 C 0.44013 0.43800 0.10987
 C375 C 0.36945 0.36591 0.13208
 C376 C 0.34979 0.34642 0.15130
 C377 C 0.45846 0.45588 0.04343
 C378 C 0.47760 0.47565 0.02391
 H379 H 0.34307 0.41786 0.08009
 H380 H 0.38384 0.45906 0.03951
 H381 H 0.46013 0.37738 0.04102
 H382 H 0.41935 0.33616 0.08162
 H383 H 0.41859 0.41673 0.16257
 H384 H 0.45937 0.45795 0.12197
 C385 C 0.10597 0.10887 0.10955
 C386 C 0.08065 0.08279 0.13234
 C387 C 0.05872 0.06091 0.11017
 C388 C 0.06427 0.06726 0.06739
 C389 C 0.10483 0.06035 0.06063
 C390 C 0.12676 0.08223 0.08279
 C391 C 0.08083 0.13200 0.08352
 C392 C 0.05890 0.11012 0.06135
 C393 C 0.12965 0.13238 0.13336
 C394 C 0.14928 0.15160 0.15284
 C395 C 0.04078 0.04367 0.04350
 C396 C 0.02166 0.02415 0.02374
 H397 H 0.08000 0.08162 0.16317
 H398 H 0.03928 0.04099 0.12201
 H399 H 0.11541 0.04006 0.04022
 H400 H 0.15611 0.08067 0.08137
 H401 H 0.08029 0.16284 0.08259
 H402 H 0.03957 0.12221 0.04143
 C403 C 0.10683 0.60883 0.61024
 C404 C 0.12778 0.58235 0.58345
 C405 C 0.10600 0.56036 0.56126
 C406 C 0.06539 0.56700 0.56802
 C407 C 0.05977 0.60983 0.56204
 C408 C 0.08156 0.63183 0.58424
 C409 C 0.08166 0.58255 0.63299
 C410 C 0.05987 0.56055 0.61079
 C411 C 0.13036 0.63245 0.63409
 C412 C 0.14986 0.65178 0.65360
 C413 C 0.04203 0.54331 0.54410
 C414 C 0.02298 0.52374 0.52432
 H415 H 0.15715 0.58099 0.58204
 H416 H 0.11670 0.54017 0.54083
 H417 H 0.04038 0.62182 0.54213
 H418 H 0.08084 0.66267 0.58336
 H419 H 0.08101 0.58133 0.66382
 H420 H 0.04055 0.54049 0.62259
 C421 C 0.60755 0.10828 0.61055
 C422 C 0.58216 0.08214 0.63318
 C423 C 0.56028 0.06033 0.61088
 C424 C 0.56595 0.06681 0.56814
 C425 C 0.60652 0.05991 0.56147
 C426 C 0.62839 0.08170 0.58377
 C427 C 0.58248 0.13150 0.58452
 C428 C 0.56061 0.10969 0.56222
 C429 C 0.63117 0.13170 0.63450
 C430 C 0.65074 0.15088 0.65408
 C431 C 0.54250 0.04331 0.54412
 C432 C 0.52341 0.02384 0.52428
 H433 H 0.58142 0.08087 0.66401
 H434 H 0.54080 0.04038 0.62260
 H435 H 0.61715 0.03967 0.54104
 H436 H 0.65775 0.08014 0.58243
 H437 H 0.58196 0.16234 0.58368
 H438 H 0.54134 0.12185 0.54228
 C439 C 0.60752 0.60893 0.10973
 C440 C 0.62841 0.58184 0.08351
 C441 C 0.60657 0.55980 0.06141
 C442 C 0.56599 0.56701 0.06769
 C443 C 0.56088 0.60982 0.06107
 C444 C 0.58272 0.63186 0.08317
 C445 C 0.58187 0.58327 0.13260
 C446 C 0.56003 0.56123 0.11049
 C447 C 0.63110 0.63261 0.13346
 C448 C 0.65065 0.65199 0.15288
 C449 C 0.54258 0.54327 0.04386
 C450 C 0.52351 0.52367 0.02414
 H451 H 0.65777 0.58011 0.08240
 H452 H 0.61723 0.53919 0.04137
 H453 H 0.54179 0.62176 0.04081
 H454 H 0.58234 0.66269 0.08185
 H455 H 0.58094 0.58249 0.16343
 H456 H 0.54039 0.54156 0.12239
   
