data_POSCAR
  _audit_creation_date              2014-09-24
  _audit_creation_method            'ToBaCCo'
  _symmetry_space_group_name_H-M    'P1'
  _symmetry_Int_Tables_number       1
  _symmetry_cell_setting            triclinic
  loop_
  _symmetry_equiv_pos_as_xyz
 x,y,z
_cell_length_a 21.0351
_cell_length_b 13.1777
_cell_length_c 12.9295
_cell_angle_alpha 89.773000
_cell_angle_beta 90.153700
_cell_angle_gamma 89.838900
loop_
  _atom_site_label
  _atom_site_type_symbol
  _atom_site_fract_x
  _atom_site_fract_y
  _atom_site_fract_z
O1 O 0.09036 0.17364 0.18973
 O2 O 0.15959 0.08330 0.08815
 C3 C 0.14710 0.14778 0.16049
 O4 O -0.08808 -0.18935 0.17890
 O5 O -0.15780 -0.09038 0.08560
 C6 C -0.14502 -0.16170 0.15140
 O7 O 0.09150 -0.17956 0.18837
 O8 O 0.16001 -0.08507 0.08967
 C9 C 0.14828 -0.15186 0.16067
 O10 O -0.08877 0.18330 0.18090
 O11 O -0.15824 0.08594 0.08688
 C12 C -0.14565 0.15638 0.15321
 Zr13 Zr 0.00072 0.12530 0.13307
 O14 O -0.00598 0.12021 0.29640
 O15 O 0.00741 0.28546 0.13715
 Zr16 Zr 0.00135 -0.13113 0.13131
 O17 O -0.00534 -0.13100 0.29468
 O18 O 0.00884 -0.29136 0.13161
 O19 O 0.05787 -0.00299 0.15196
 O20 O -0.05425 -0.00312 0.15118
 O21 O -0.08978 0.18606 -0.17653
 O22 O -0.15866 0.08737 -0.08258
 C23 C -0.14641 0.15847 -0.14870
 O24 O 0.08971 -0.17620 -0.18902
 O25 O 0.15928 -0.08591 -0.08800
 C26 C 0.14654 -0.15022 -0.16039
 O27 O -0.08928 -0.18574 -0.17877
 O28 O -0.15847 -0.08880 -0.08372
 C29 C -0.14606 -0.15880 -0.15061
 O30 O 0.08915 0.17717 -0.18722
 O31 O 0.15898 0.08281 -0.08938
 C32 C 0.14612 0.14961 -0.16002
 Zr33 Zr -0.00007 0.12815 -0.12928
 O34 O -0.00781 0.12814 -0.29260
 O35 O 0.00667 0.28843 -0.12930
 Zr36 Zr 0.00033 -0.12836 -0.13100
 O37 O -0.00742 -0.12467 -0.29429
 O38 O 0.00765 -0.28858 -0.13352
 Zr39 Zr 0.09483 -0.00138 0.00048
 Zr40 Zr -0.09361 -0.00148 0.00139
 O41 O -0.05520 0.00007 -0.14869
 O42 O 0.05679 0.00008 -0.15057
 O43 O -0.05608 0.14670 0.00223
 O44 O 0.05587 -0.14833 -0.00018
 O45 O 0.05522 0.14546 0.00169
 O46 O -0.05553 -0.14967 0.00030
 H47 H -0.08325 -0.00363 0.21145
 H48 H 0.08472 -0.20790 -0.00036
 H49 H -0.08449 0.00059 -0.20885
 H50 H 0.08373 0.20519 0.00161
 H51 H -0.02582 -0.31770 0.08749
 H52 H -0.02652 -0.31576 -0.08901
 H53 H 0.02917 -0.08569 -0.32109
 H54 H 0.02850 0.08871 -0.31990
 H55 H -0.02820 0.31470 -0.08568
 H56 H -0.02585 0.31284 0.09052
 H57 H 0.03175 0.08322 0.32277
 H58 H 0.03103 -0.09159 0.32163
 O59 O 0.58913 0.67698 0.68749
 O60 O 0.65862 0.58534 0.58771
 C61 C 0.64602 0.65051 0.65938
 O62 O 0.41010 0.31510 0.67840
 O63 O 0.34075 0.41488 0.58531
 C64 C 0.35326 0.34339 0.65121
 O65 O 0.58917 0.32367 0.68887
 O66 O 0.65856 0.41469 0.58813
 C67 C 0.64596 0.34982 0.66042
 O68 O 0.40998 0.68625 0.67657
 O69 O 0.34072 0.58874 0.58211
 C70 C 0.35324 0.65911 0.64852
 Zr71 Zr 0.49961 0.62889 0.62940
 O72 O 0.49233 0.62791 0.79270
 O73 O 0.50649 0.78914 0.62933
 Zr74 Zr 0.49970 0.37208 0.63042
 O75 O 0.49239 0.37301 0.79371
 O76 O 0.50689 0.21179 0.63155
 O77 O 0.55633 0.50032 0.65078
 O78 O 0.44452 0.50065 0.64831
 O79 O 0.40998 0.68699 0.31884
 O80 O 0.34076 0.58885 0.41265
 C81 C 0.35313 0.65971 0.34627
 O82 O 0.58971 0.32363 0.31160
 O83 O 0.65881 0.41651 0.41092
 C84 C 0.64648 0.35059 0.33980
 O85 O 0.41071 0.31429 0.32060
 O86 O 0.34108 0.41228 0.41376
 C87 C 0.35386 0.34147 0.34801
 O88 O 0.58947 0.67637 0.31004
 O89 O 0.65865 0.58323 0.41039
 C90 C 0.64625 0.64888 0.33854
 Zr91 Zr 0.49970 0.62894 0.36736
 O92 O 0.49262 0.62752 0.20399
 O93 O 0.50672 0.78916 0.36579
 Zr94 Zr 0.50002 0.37243 0.36810
 O95 O 0.49290 0.37571 0.20471
 O96 O 0.50725 0.21222 0.36595
 Zr97 Zr 0.59400 0.50027 0.49989
 Zr98 Zr 0.40556 0.50053 0.49817
 O99 O 0.44455 0.50073 0.34850
 O100 O 0.55660 0.50056 0.34830
 O101 O 0.44315 0.64876 0.49795
 O102 O 0.55482 0.35347 0.49976
 O103 O 0.55468 0.64735 0.49867
 O104 O 0.44344 0.35227 0.49897
 H105 H 0.41561 0.50087 0.70869
 H106 H 0.58352 0.29371 0.50001
 H107 H 0.41540 0.50077 0.28817
 H108 H 0.58338 0.70685 0.49846
 H109 H 0.47152 0.18522 0.58910
 H110 H 0.47410 0.18538 0.41264
 H111 H 0.53021 0.41302 0.17805
 H112 H 0.52887 0.58747 0.17748
 H113 H 0.47201 0.81593 0.40942
 H114 H 0.47135 0.81583 0.58602
 H115 H 0.52846 0.58768 0.82005
 H116 H 0.52834 0.41332 0.82076
 C117 C 0.22894 0.31077 0.32451
 C118 C 0.21411 0.31239 0.20724
 C119 C 0.20202 0.19756 0.21169
 C120 C 0.21618 0.19514 0.32830
 C121 C 0.27218 0.17539 0.18677
 C122 C 0.28489 0.29095 0.18297
 C123 C 0.29910 0.28868 0.29953
 C124 C 0.28708 0.17380 0.30414
 H125 H 0.21165 0.36697 0.38176
 H126 H 0.18348 0.36880 0.16687
 H127 H 0.18728 0.15518 0.38744
 H128 H 0.28944 0.11907 0.12962
 H129 H 0.31375 0.33087 0.12374
 H130 H 0.31774 0.11745 0.34452
 C131 C 0.77148 0.67293 0.31244
 C132 C 0.78632 0.67170 0.19518
 C133 C 0.79990 0.78609 0.19989
 C134 C 0.78573 0.78800 0.31634
 C135 C 0.72996 0.81067 0.17446
 C136 C 0.71565 0.69554 0.17057
 C137 C 0.70155 0.69761 0.28707
 C138 C 0.71521 0.81194 0.29161
 H139 H 0.78811 0.61566 0.36971
 H140 H 0.81622 0.61457 0.15512
 H141 H 0.81514 0.82640 0.37582
 H142 H 0.71329 0.86784 0.11710
 H143 H 0.68620 0.65710 0.11118
 H144 H 0.68535 0.86914 0.33165
 C145 C 0.71397 0.18567 0.70950
 C146 C 0.78464 0.20799 0.68568
 C147 C 0.79845 0.21061 0.80234
 C148 C 0.72840 0.18761 0.82690
 C149 C 0.78544 0.32531 0.80576
 C150 C 0.77095 0.32337 0.68830
 C151 C 0.70090 0.30033 0.71277
 C152 C 0.71463 0.30309 0.82949
 H153 H 0.68395 0.12882 0.66940
 H154 H 0.81404 0.16840 0.62708
 H155 H 0.71143 0.13126 0.88454
 H156 H 0.81549 0.38210 0.84589
 H157 H 0.78797 0.37979 0.63076
 H158 H 0.68518 0.34273 0.88799
 C159 C 0.22814 0.68869 0.67306
 C160 C 0.21413 0.68582 0.79047
 C161 C 0.20132 0.80061 0.78734
 C162 C 0.21465 0.80428 0.67061
 C163 C 0.27151 0.82298 0.81179
 C164 C 0.28493 0.70750 0.81427
 C165 C 0.29833 0.71103 0.69759
 C166 C 0.28559 0.82586 0.69432
 H167 H 0.21083 0.63295 0.61538
 H168 H 0.18413 0.62880 0.83054
 H169 H 0.18510 0.84462 0.61215
 H170 H 0.28885 0.87880 0.86939
 H171 H 0.31444 0.66718 0.87280
 H172 H 0.31562 0.88282 0.65422
 C173 C 0.28491 0.29119 0.81694
 C174 C 0.21407 0.31441 0.79396
 C175 C 0.20099 0.19988 0.78827
 C176 C 0.27124 0.17597 0.81188
 C177 C 0.21422 0.19962 0.67142
 C178 C 0.22796 0.31493 0.67645
 C179 C 0.29820 0.29105 0.70015
 C180 C 0.28517 0.17648 0.69432
 H181 H 0.31451 0.32930 0.87637
 H182 H 0.18425 0.37069 0.83539
 H183 H 0.28864 0.11821 0.86803
 H184 H 0.18458 0.16147 0.61207
 H185 H 0.21060 0.37262 0.62022
 H186 H 0.31501 0.12025 0.65287
 C187 C 0.77124 0.67709 0.68662
 C188 C 0.78460 0.79249 0.68364
 C189 C 0.79875 0.78934 0.80026
 C190 C 0.78603 0.67458 0.80402
 C191 C 0.72862 0.81217 0.82509
 C192 C 0.71387 0.81468 0.70775
 C193 C 0.70110 0.69997 0.71137
 C194 C 0.71518 0.69668 0.82804
 H195 H 0.78837 0.62096 0.62917
 H196 H 0.81370 0.83232 0.62467
 H197 H 0.81629 0.61746 0.84407
 H198 H 0.71151 0.86823 0.88263
 H199 H 0.68364 0.87186 0.66772
 H200 H 0.68605 0.65682 0.88694
 C201 C 0.22725 0.68854 0.32040
 C202 C 0.21264 0.80365 0.32167
 C203 C 0.20126 0.80084 0.20956
 C204 C 0.21275 0.69105 0.20315
 C205 C 0.26771 0.82598 0.18487
 C206 C 0.28366 0.82708 0.30167
 C207 C 0.29778 0.71217 0.29705
 C208 C 0.28364 0.71156 0.17989
 H209 H 0.20864 0.63189 0.37635
 H210 H 0.18107 0.84358 0.37705
 H211 H 0.18126 0.63793 0.16066
 H212 H 0.28226 0.88435 0.12744
 H213 H 0.31212 0.88592 0.34178
 H214 H 0.31209 0.67423 0.11857
 C215 C 0.71557 0.30202 0.17218
 C216 C 0.78644 0.32401 0.19619
 C217 C 0.79929 0.20922 0.20172
 C218 C 0.72914 0.18651 0.17693
 C219 C 0.78536 0.20786 0.31831
 C220 C 0.77184 0.32332 0.31356
 C221 C 0.70170 0.30053 0.28882
 C222 C 0.71461 0.18578 0.29421
 H223 H 0.68631 0.34123 0.11256
 H224 H 0.81658 0.38037 0.15542
 H225 H 0.71197 0.12972 0.12020
 H226 H 0.81458 0.16868 0.37800
 H227 H 0.78898 0.38020 0.37021
 H228 H 0.68450 0.12937 0.33496
   
