data_POSCAR
  _audit_creation_date              2014-09-24
  _audit_creation_method            'ToBaCCo'
  _symmetry_space_group_name_H-M    'P1'
  _symmetry_Int_Tables_number       1
  _symmetry_cell_setting            triclinic
  loop_
  _symmetry_equiv_pos_as_xyz
 x,y,z
_cell_length_a 31.8831
_cell_length_b 31.9857
_cell_length_c 32.1014
_cell_angle_alpha 87.373100
_cell_angle_beta 88.606900
_cell_angle_gamma 89.173500
loop_
  _atom_site_label
  _atom_site_type_symbol
  _atom_site_fract_x
  _atom_site_fract_y
  _atom_site_fract_z
C1 C 0.80573 0.67414 1.00443
 C2 C 0.81838 0.64948 0.96647
 C3 C 0.78906 0.62211 0.95493
 C4 C 0.74899 0.62193 0.98316
 C5 C 0.76385 0.69521 0.99307
 C6 C 0.73422 0.66817 0.98138
 C7 C 0.79459 0.64121 1.03853
 C8 C 0.76399 0.61443 1.02838
 H9 H 0.84699 0.65554 0.94841
 H10 H 0.72483 0.59945 0.97473
 H11 H 0.75873 0.72879 0.99255
 H12 H 0.80933 0.64066 1.06853
 C13 C 0.79341 0.33759 0.48531
 C14 C 0.80348 0.36973 0.51720
 C15 C 0.77025 0.39406 0.52826
 C16 C 0.72944 0.38439 0.50616
 C17 C 0.75661 0.31292 0.50487
 C18 C 0.72286 0.33703 0.51564
 C19 C 0.77462 0.36292 0.44864
 C20 C 0.74138 0.38786 0.45924
 H21 H 0.83431 0.37284 0.53012
 H22 H 0.70299 0.40525 0.51507
 H23 H 0.75715 0.27915 0.50954
 H24 H 0.78567 0.35931 0.41685
 C25 C 0.30433 -0.16744 -0.02642
 C26 C 0.31609 -0.14196 0.00778
 C27 C 0.28287 -0.11500 0.02212
 C28 C 0.24400 -0.11945 -0.00036
 C29 C 0.26754 -0.19039 -0.01069
 C30 C 0.23412 -0.16414 0.00415
 C31 C 0.28876 -0.13818 -0.05865
 C32 C 0.25511 -0.11172 -0.04452
 H33 H 0.34537 -0.14676 0.02383
 H34 H 0.21911 -0.09761 0.01012
 H35 H 0.26592 -0.22427 -0.00875
 H36 H 0.29886 -0.13953 -0.09102
 C37 C 0.29625 0.14451 0.50197
 C38 C 0.30934 0.11726 0.46567
 C39 C 0.27895 0.09054 0.45479
 C40 C 0.23836 0.09344 0.48128
 C41 C 0.25564 0.16652 0.48755
 C42 C 0.22536 0.13969 0.47658
 C43 C 0.28215 0.11382 0.53741
 C44 C 0.25138 0.08747 0.52688
 H45 H 0.33907 0.12034 0.44884
 H46 H 0.21371 0.07151 0.47239
 H47 H 0.25266 0.20020 0.48344
 H48 H 0.29132 0.11707 0.56937
 C49 C 0.14798 0.51411 0.29468
 C50 C 0.11670 0.47906 0.30504
 C51 C 0.08942 0.47289 0.27402
 C52 C 0.09577 0.50244 0.23547
 C53 C 0.16944 0.50161 0.25363
 C54 C 0.14187 0.49498 0.22270
 C55 C 0.12124 0.55258 0.28287
 C56 C 0.09444 0.54709 0.25128
 H57 H 0.11880 0.45819 0.33249
 H58 H 0.07339 0.49727 0.21025
 H59 H 0.20252 0.49374 0.25126
 H60 H 0.12455 0.58172 0.29818
 C61 C -0.16724 -0.01770 0.30402
 C62 C -0.13939 0.01914 0.31331
 C63 C -0.11593 0.03376 0.27975
 C64 C -0.12328 0.01030 0.23981
 C65 C -0.19405 -0.00097 0.26760
 C66 C -0.17105 0.01345 0.23376
 C67 C -0.13932 -0.04883 0.28647
 C68 C -0.11504 -0.03362 0.25103
 H69 H -0.14028 0.03362 0.34315
 H70 H -0.10419 0.02284 0.21277
 H71 H -0.22803 -0.00012 0.26871
 H72 H -0.13990 -0.08136 0.29732
 C73 C 0.32212 0.48253 0.79779
 C74 C 0.35386 0.51671 0.80475
 C75 C 0.37620 0.52934 0.76972
 C76 C 0.36432 0.50635 0.73070
 C77 C 0.29461 0.50085 0.76291
 C78 C 0.31645 0.51309 0.72764
 C79 C 0.34724 0.44729 0.77791
 C80 C 0.36968 0.45949 0.74289
 H81 H 0.35584 0.53160 0.83424
 H82 H 0.38285 0.51668 0.70249
 H83 H 0.26084 0.50432 0.76605
 H84 H 0.34476 0.41511 0.78950
 C85 C 0.65038 1.01662 0.79414
 C86 C 0.62393 0.97710 0.80197
 C87 C 0.59816 0.96921 0.77005
 C88 C 0.60137 1.00166 0.73327
 C89 C 0.67402 1.00924 0.75285
 C90 C 0.64850 1.00086 0.72097
 C91 C 0.62081 1.05030 0.78448
 C92 C 0.59433 1.04275 0.75034
 H93 H 0.62712 0.95604 0.82913
 H94 H 0.58014 0.99519 0.70749
 H95 H 0.70794 1.00798 0.74988
 H96 H 0.61991 1.07881 0.80139
 C97 C -0.00903 0.29174 -0.16680
 C98 C 0.02308 0.30082 -0.13394
 C99 C 0.03533 0.26640 -0.11032
 C100 C 0.01407 0.22571 -0.12217
 C101 C 0.01192 0.25757 -0.19241
 C102 C 0.02374 0.22288 -0.16924
 C103 C -0.04500 0.26998 -0.14262
 C104 C -0.03336 0.23525 -0.11934
 H105 H 0.03714 0.33127 -0.13206
 H106 H 0.02410 0.19770 -0.10301
 H107 H 0.01745 0.26080 -0.22582
 H108 H -0.07663 0.28267 -0.14290
 C109 C 0.52082 0.29436 0.15071
 C110 C 0.48067 0.30356 0.12650
 C111 C 0.46899 0.27167 0.10278
 C112 C 0.49880 0.23359 0.10526
 C113 C 0.51201 0.25339 0.17591
 C114 C 0.50001 0.22161 0.15230
 C115 C 0.55406 0.28244 0.11805
 C116 C 0.54292 0.25024 0.09447
 H117 H 0.46229 0.33208 0.12931
 H118 H 0.48978 0.20808 0.08514
 H119 H 0.51322 0.25039 0.20962
 H120 H 0.58550 0.29473 0.11804
 C121 C 1.00977 0.78667 0.67029
 C122 C 0.97044 0.79717 0.64964
 C123 C 0.95654 0.76535 0.62315
 C124 C 0.98476 0.72896 0.62291
 C125 C 1.00208 0.74669 0.69282
 C126 C 0.98710 0.71489 0.66706
 C127 C 1.03985 0.77702 0.63723
 C128 C 1.02661 0.74465 0.61126
 H129 H 0.95341 0.82625 0.65398
 H130 H 0.97472 0.70477 0.60174
 H131 H 1.00309 0.74249 0.72651
 H132 H 1.07119 0.78964 0.63599
 C133 C 0.48834 0.78637 0.34067
 C134 C 0.52223 0.79453 0.37193
 C135 C 0.53005 0.76164 0.39926
 C136 C 0.50314 0.72323 0.39239
 C137 C 0.50350 0.74690 0.31925
 C138 C 0.51146 0.71365 0.34634
 C139 C 0.45003 0.77249 0.36689
 C140 C 0.45739 0.73943 0.39418
 H141 H 0.54050 0.82287 0.37036
 H142 H 0.50959 0.69640 0.41465
 H143 H 0.50816 0.74637 0.28583
 H144 H 0.41953 0.78670 0.36185
 C145 C 0.42898 -0.03175 0.29156
 H146 H 0.42780 -0.00059 0.30330
 C147 C 0.45043 -0.06384 0.31354
 H148 H 0.46621 -0.05704 0.34191
 C149 C 0.40698 -0.07950 0.24251
 H150 H 0.38836 -0.08632 0.21612
 C151 C 0.42812 -0.11229 0.26326
 H152 H 0.42511 -0.14346 0.25211
 N153 N 0.40764 -0.04010 0.25677
 C154 C 0.38309 0.07170 0.17967
 H155 H 0.35225 0.06282 0.17024
 C156 C 0.40180 0.10688 0.16080
 H157 H 0.38509 0.12507 0.13705
 C158 C 0.44232 0.05834 0.22171
 H159 H 0.45824 0.03890 0.24490
 C160 C 0.46216 0.09383 0.20385
 H161 H 0.49339 0.10119 0.21345
 Zn162 Zn 0.37261 0.00144 0.23073
 N163 N 0.40317 0.04843 0.20978
 C164 C 0.31993 0.06070 0.26869
 N165 N 0.33276 0.01993 0.27133
 C166 C 0.32776 -0.00352 0.30757
 C167 C 0.31269 0.01490 0.34385
 C168 C 0.30504 0.08036 0.30416
 C169 C 0.38115 -0.02879 0.15423
 C170 C 0.37238 -0.04731 0.11732
 C171 C 0.29911 -0.04907 0.13856
 C172 C 0.30956 -0.03060 0.17579
 N173 N 0.35023 -0.02152 0.18294
 H174 H 0.32445 0.07913 0.24001
 H175 H 0.33879 -0.03566 0.30931
 H176 H 0.31211 -0.00360 0.37292
 H177 H 0.29772 0.11356 0.30201
 H178 H 0.41318 -0.02101 0.16070
 H179 H 0.39807 -0.05347 0.09562
 H180 H 0.26677 -0.05710 0.13407
 H181 H 0.28551 -0.02424 0.19909
 C182 C 0.44146 0.11870 0.17319
 C183 C 0.45000 -0.10475 0.29951
 C184 C 0.33111 -0.05816 0.10892
 C185 C 0.30291 0.05792 0.34266
 C186 C 0.06057 1.04183 0.78017
 H187 H 0.04400 1.01334 0.77502
 C188 C 0.03938 1.07542 0.79815
 H189 H 0.00634 1.07281 0.80639
 C190 C 0.12416 1.07945 0.77768
 H191 H 0.15750 1.08030 0.77059
 C192 C 0.10399 1.11408 0.79451
 H193 H 0.12202 1.14156 0.80033
 N194 N 0.10223 1.04449 0.77028
 C195 C 0.09775 0.91605 0.75321
 H196 H 0.11807 0.90924 0.77914
 C197 C 0.07436 0.88384 0.73754
 H198 H 0.07740 0.85306 0.75246
 C199 C 0.07206 0.96415 0.70137
 H200 H 0.07202 0.99540 0.68698
 C201 C 0.04873 0.93285 0.68428
 H202 H 0.03050 0.94065 0.65687
 Zn203 Zn 0.13283 0.99803 0.74998
 N204 N 0.09644 0.95520 0.73481
 C205 C 0.15006 0.96621 0.83057
 N206 N 0.16854 0.97838 0.79345
 C207 C 0.21097 0.97695 0.78807
 C208 C 0.23623 0.96017 0.81971
 C209 C 0.17419 0.94983 0.86341
 C210 C 0.15752 1.05162 0.68079
 C211 C 0.18073 1.06314 0.64473
 C212 C 0.21736 0.99655 0.65001
 C213 C 0.19237 0.98568 0.68512
 N214 N 0.16437 1.01379 0.70080
 H215 H 0.11629 0.96837 0.83434
 H216 H 0.22551 0.98857 0.75925
 H217 H 0.26987 0.95832 0.81417
 H218 H 0.15801 0.93896 0.89174
 H219 H 0.13396 1.07289 0.69264
 H220 H 0.17562 1.09370 0.62961
 H221 H 0.24081 0.97464 0.63886
 H222 H 0.19607 0.95513 0.70058
 C223 C 0.04996 0.89178 0.70186
 C224 C 0.06105 1.11223 0.80502
 C225 C 0.21154 1.03565 0.62950
 C226 C 0.21807 0.94591 0.85797
 C227 C 0.60273 0.56133 0.30090
 H228 H 0.61945 0.54218 0.32363
 C229 C 0.58122 0.59689 0.31388
 H230 H 0.58221 0.60395 0.34642
 C231 C 0.58520 0.57742 0.23071
 H232 H 0.58859 0.57091 0.19809
 C233 C 0.56321 0.61328 0.24234
 H234 H 0.54888 0.63344 0.21850
 N235 N 0.60410 0.55196 0.25996
 C236 C 0.61185 0.42345 0.23227
 H237 H 0.63593 0.41571 0.25450
 C238 C 0.59067 0.39122 0.21438
 H239 H 0.59899 0.35921 0.22334
 C240 C 0.57521 0.47420 0.19063
 H241 H 0.57002 0.50642 0.18058
 C242 C 0.55353 0.44287 0.17164
 H243 H 0.53153 0.45136 0.14739
 Zn244 Zn 0.63748 0.50613 0.24198
 N245 N 0.60390 0.46408 0.22027
 C246 C 0.64525 0.46429 0.32056
 N247 N 0.66770 0.48256 0.28816
 C248 C 0.71030 0.48342 0.28851
 C249 C 0.73186 0.46557 0.32247
 C250 C 0.66552 0.44616 0.35515
 C251 C 0.67542 0.51064 0.16045
 C252 C 0.69865 0.52989 0.12747
 C253 C 0.71970 0.58215 0.17447
 C254 C 0.69606 0.56207 0.20635
 N255 N 0.67412 0.52728 0.19880
 H256 H 0.61139 0.46349 0.31929
 H257 H 0.72764 0.49761 0.26234
 H258 H 0.76583 0.46614 0.32202
 H259 H 0.64678 0.43096 0.37978
 H260 H 0.65782 0.48285 0.15510
 H261 H 0.69893 0.51614 0.09733
 H262 H 0.73633 0.61030 0.18107
 H263 H 0.69418 0.57489 0.23695
 C264 C 0.56114 0.40082 0.18350
 C265 C 0.56090 0.62343 0.28438
 C266 C 0.72063 0.56669 0.13417
 C267 C 0.70953 0.44673 0.35645
 C268 C 0.90498 0.46667 0.80184
 H269 H 0.89999 0.49615 0.81648
 C270 C 0.93022 0.43570 0.82109
 H271 H 0.94493 0.44183 0.85021
 C272 C 0.88941 0.42152 0.74807
 H273 H 0.87240 0.41518 0.72052
 C274 C 0.91462 0.38988 0.76603
 H275 H 0.91606 0.35984 0.75187
 N276 N 0.88529 0.45928 0.76581
 C277 C 0.86942 0.56426 0.68085
 H278 H 0.84294 0.55231 0.66503
 C279 C 0.89123 0.59808 0.66252
 H280 H 0.88143 0.61099 0.63244
 C281 C 0.91263 0.56332 0.73974
 H282 H 0.92085 0.54980 0.76989
 C283 C 0.93497 0.59768 0.72285
 H284 H 0.96054 0.60898 0.74050
 Zn285 Zn 0.84870 0.50150 0.74251
 N286 N 0.88057 0.54718 0.71863
 C287 C 0.80999 0.56389 0.78903
 N288 N 0.81381 0.52171 0.78630
 C289 C 0.79902 0.49514 0.81746
 C290 C 0.78209 0.51096 0.85441
 C291 C 0.79350 0.58091 0.82524
 C292 C 0.84118 0.46863 0.66512
 C293 C 0.82275 0.45157 0.63112
 C294 C 0.75563 0.45481 0.66743
 C295 C 0.77552 0.47233 0.70099
 N296 N 0.81769 0.47864 0.69921
 H297 H 0.82171 0.58450 0.76392
 H298 H 0.80279 0.46170 0.81474
 H299 H 0.77258 0.48957 0.87990
 H300 H 0.79218 0.61461 0.82733
 H301 H 0.87469 0.47361 0.66462
 H302 H 0.84284 0.44258 0.60531
 H303 H 0.72222 0.44916 0.66934
 H304 H 0.75745 0.48039 0.72850
 C305 C 0.92417 0.61587 0.68362
 C306 C 0.93550 0.39679 0.80307
 C307 C 0.77930 0.44469 0.63170
 C308 C 0.78109 0.55433 0.85925
 C309 C 0.29898 0.40668 -0.02104
 H310 H 0.31582 0.40257 0.00774
 C311 C 0.31777 0.42770 -0.05551
 H312 H 0.34909 0.43988 -0.05305
 C313 C 0.23837 0.39441 -0.05976
 H314 H 0.20769 0.38083 -0.06156
 C315 C 0.25590 0.41531 -0.09492
 H316 H 0.23849 0.41670 -0.12343
 N317 N 0.26004 0.39034 -0.02379
 C318 C 0.19477 0.38147 0.09593
 H319 H 0.18145 0.35070 0.09420
 C320 C 0.18365 0.40619 0.12917
 H321 H 0.16206 0.39397 0.15313
 C322 C 0.24004 0.43407 0.06743
 H323 H 0.26194 0.44496 0.04334
 C324 C 0.23036 0.45957 0.10064
 H325 H 0.24491 0.48986 0.10190
 Zn326 Zn 0.23662 0.35909 0.02239
 N327 N 0.22244 0.39565 0.06580
 C328 C 0.27967 0.31257 0.08458
 N329 N 0.27812 0.32034 0.04264
 C330 C 0.31127 0.31044 0.01721
 C331 C 0.34912 0.29587 0.03417
 C332 C 0.31673 0.29810 0.10278
 C333 C 0.15127 0.35744 0.00741
 C334 C 0.11476 0.34558 -0.01151
 C335 C 0.15138 0.28433 -0.03560
 C336 C 0.18746 0.29734 -0.01581
 N337 N 0.18683 0.33363 0.00478
 H338 H 0.25332 0.32072 0.10443
 H339 H 0.30962 0.31727 -0.01603
 H340 H 0.37597 0.29155 0.01350
 H341 H 0.31811 0.29487 0.13647
 H342 H 0.15179 0.38709 0.02219
 H343 H 0.08737 0.36597 -0.01016
 H344 H 0.15323 0.25652 -0.05351
 H345 H 0.21648 0.27965 -0.01870
 C346 C 0.20150 0.44584 0.13167
 C347 C 0.29621 0.43227 -0.09301
 C348 C 0.11457 0.30922 -0.03421
 C349 C 0.35261 0.29140 0.07774
 C350 C 0.79868 0.05610 1.04642
 H351 H 0.80403 0.04358 1.01597
 C352 C 0.81581 0.03579 1.08172
 H353 H 0.83433 0.00743 1.07841
 C354 C 0.76920 0.10908 1.08780
 H355 H 0.75234 0.13847 1.08989
 C356 C 0.78517 0.08954 1.12384
 H357 H 0.78025 0.10420 1.15332
 N358 N 0.77564 0.09191 1.05014
 C359 C 0.69140 0.06778 0.97221
 H360 H 0.67442 0.07415 1.00061
 C361 C 0.67107 0.04706 0.94136
 H362 H 0.63869 0.03800 0.94661
 C363 C 0.75323 0.07266 0.93012
 H364 H 0.78528 0.08279 0.92575
 C365 C 0.73414 0.05179 0.89847
 H366 H 0.75238 0.04573 0.87054
 Zn367 Zn 0.75433 0.12031 1.00202
 N368 N 0.73119 0.08183 0.96546
 C369 C 0.83814 0.14872 0.98831
 N370 N 0.79866 0.14915 0.97303
 C371 C 0.79008 0.16861 0.93564
 C372 C 0.82180 0.18843 0.91190
 C373 C 0.87095 0.16832 0.96553
 C374 C 0.68038 0.14299 1.04470
 C375 C 0.64698 0.16833 1.05728
 C376 C 0.67799 0.22627 1.01739
 C377 C 0.71077 0.19956 1.00516
 N378 N 0.71112 0.15851 1.01848
 H379 H 0.84430 0.13310 1.01815
 H380 H 0.75853 0.16822 0.92399
 H381 H 0.81419 0.20367 0.88216
 H382 H 0.90182 0.16794 0.97873
 H383 H 0.68234 0.11100 1.05691
 H384 H 0.62367 0.15525 1.07901
 H385 H 0.67823 0.25892 1.00685
 H386 H 0.73590 0.21183 0.98526
 C387 C 0.69174 0.04046 0.90318
 C388 C 0.80859 0.05223 1.12106
 C389 C 0.64521 0.21050 1.04318
 C390 C 0.86294 0.18832 0.92652
 C391 C 0.28242 0.56535 0.54272
 H392 H 0.29005 0.55641 0.51131
 C393 C 0.30005 0.54335 0.57672
 H394 H 0.32105 0.51711 0.57142
 C395 C 0.24709 0.61161 0.58783
 H396 H 0.22742 0.63900 0.59186
 C397 C 0.26385 0.59047 0.62264
 H398 H 0.25693 0.60225 0.65313
 N399 N 0.25687 0.59901 0.54889
 C400 C 0.23306 0.60319 0.42060
 H401 H 0.25462 0.62797 0.41209
 C402 C 0.21671 0.57974 0.38934
 H403 H 0.22524 0.58779 0.35718
 C404 C 0.19434 0.56414 0.47242
 H405 H 0.18632 0.55766 0.50495
 C406 C 0.17684 0.54023 0.44213
 H407 H 0.15444 0.51622 0.45146
 Zn408 Zn 0.23806 0.63191 0.50279
 N409 N 0.22055 0.59609 0.46112
 C410 C 0.32271 0.65805 0.49589
 N411 N 0.28328 0.66545 0.48161
 C412 C 0.27591 0.69546 0.45119
 C413 C 0.30904 0.71835 0.43296
 C414 C 0.35684 0.67992 0.47819
 C415 C 0.15476 0.64742 0.53097
 C416 C 0.12091 0.67058 0.54663
 C417 C 0.16392 0.73212 0.54104
 C418 C 0.19687 0.70775 0.52518
 N419 N 0.19188 0.66608 0.52056
 H420 H 0.32803 0.63467 0.52057
 H421 H 0.24430 0.70100 0.44051
 H422 H 0.30268 0.74164 0.40827
 H423 H 0.38784 0.67338 0.49003
 H424 H 0.15147 0.61421 0.52821
 H425 H 0.09265 0.65392 0.55559
 H426 H 0.16906 0.76507 0.54521
 H427 H 0.22682 0.72201 0.51784
 C428 C 0.18741 0.54841 0.39997
 C429 C 0.29085 0.55587 0.61726
 C430 C 0.12522 0.71370 0.55233
 C431 C 0.35021 0.70999 0.44571
 C432 C 0.79491 0.91457 0.48657
 H433 H 0.80557 0.91686 0.51811
 C434 C 0.81588 0.93608 0.45349
 H435 H 0.84258 0.95519 0.45974
 C436 C 0.74844 0.88549 0.43961
 H437 H 0.72316 0.86462 0.43383
 C438 C 0.76819 0.90655 0.40585
 H439 H 0.75770 0.90122 0.37476
 N440 N 0.76147 0.89028 0.47915
 C441 C 0.67833 0.87626 0.58715
 H442 H 0.67165 0.84356 0.58373
 C443 C 0.65683 0.89825 0.61745
 H444 H 0.63365 0.88233 0.63742
 C445 C 0.71726 0.93644 0.56559
 H446 H 0.74050 0.95117 0.54499
 C447 C 0.69694 0.95954 0.59627
 H448 H 0.70471 0.99211 0.59909
 Zn449 Zn 0.73382 0.85961 0.52351
 N450 N 0.70814 0.89533 0.56223
 C451 C 0.77866 0.83336 0.59347
 N452 N 0.77461 0.82589 0.55240
 C453 C 0.80417 0.80301 0.53180
 C454 C 0.84067 0.78882 0.55214
 C455 C 0.81448 0.82055 0.61457
 C456 C 0.65863 0.86101 0.48931
 C457 C 0.62111 0.84930 0.47290
 C458 C 0.64378 0.77696 0.48018
 C459 C 0.68127 0.79026 0.49747
 N460 N 0.68792 0.83188 0.50117
 H461 H 0.75555 0.85191 0.60961
 H462 H 0.80094 0.79834 0.49887
 H463 H 0.86468 0.77278 0.53436
 H464 H 0.81748 0.82895 0.64669
 H465 H 0.66468 0.89388 0.49250
 H466 H 0.59869 0.87349 0.46345
 H467 H 0.63895 0.74390 0.47688
 H468 H 0.70488 0.76763 0.50754
 C469 C 0.66667 0.94003 0.62288
 C470 C 0.80214 0.93262 0.41260
 C471 C 0.61324 0.80705 0.46760
 C472 C 0.84686 0.79921 0.59380
 C473 C -0.06987 0.24640 0.40228
 H474 H -0.07442 0.21689 0.38812
 C475 C -0.10354 0.26521 0.42305
 H476 H -0.13349 0.24973 0.42408
 C477 C -0.02633 0.30375 0.41468
 H478 H 0.00349 0.31920 0.41004
 C479 C -0.05924 0.32378 0.43554
 H480 H -0.05439 0.35445 0.44742
 N481 N -0.03231 0.26598 0.39809
 C482 C 0.08580 0.20103 0.37768
 H483 H 0.07946 0.18912 0.34751
 C484 C 0.12189 0.18801 0.39832
 H485 H 0.14358 0.16684 0.38325
 C486 C 0.06531 0.24366 0.43332
 H487 H 0.04303 0.26499 0.44707
 C488 C 0.10138 0.23172 0.45498
 H489 H 0.10674 0.24416 0.48519
 Zn490 Zn 0.01044 0.24299 0.36379
 N491 N 0.05843 0.22848 0.39519
 C492 C 0.06579 0.28374 0.30642
 N493 N 0.02570 0.28405 0.32181
 C494 C 0.00038 0.31835 0.31603
 C495 C 0.01664 0.35571 0.29854
 C496 C 0.08324 0.32026 0.28858
 C497 C -0.01008 0.16023 0.37080
 C498 C -0.02827 0.12280 0.36122
 C499 C -0.04467 0.15329 0.29315
 C500 C -0.02564 0.19040 0.30403
 N501 N -0.00952 0.19321 0.34262
 H502 H 0.08549 0.25633 0.31111
 H503 H -0.03151 0.31792 0.32826
 H504 H -0.00330 0.38333 0.29770
 H505 H 0.11617 0.32020 0.27939
 H506 H 0.00236 0.16359 0.40150
 H507 H -0.02931 0.09737 0.38470
 H508 H -0.05884 0.15231 0.26298
 H509 H -0.02526 0.21737 0.28243
 C510 C 0.12985 0.20319 0.43767
 C511 C -0.09852 0.30468 0.43961
 C512 C -0.04664 0.11907 0.32241
 C513 C 0.05933 0.35742 0.28661
 C514 C 1.06460 0.83566 0.10085
 H515 H 1.04407 0.85682 0.11703
 C516 C 1.10043 0.85142 0.08034
 H517 H 1.10627 0.88470 0.08075
 C518 C 1.08295 0.76696 0.08230
 H519 H 1.07676 0.73382 0.08440
 C520 C 1.11933 0.78129 0.06154
 H521 H 1.13932 0.75833 0.04713
 N522 N 1.05614 0.79411 0.10104
 C523 C 0.92773 0.76405 0.09779
 H524 H 0.91824 0.78556 0.12130
 C525 C 0.89712 0.74596 0.07438
 H526 H 0.86456 0.75400 0.08051
 C527 C 0.98106 0.72423 0.06476
 H528 H 1.01354 0.71473 0.06206
 C529 C 0.95147 0.70517 0.04090
 H530 H 0.96160 0.68143 0.01969
 Zn531 Zn 1.00851 0.77178 0.13044
 N532 N 0.96877 0.75264 0.09302
 C533 C 0.96706 0.84831 0.14572
 N534 N 0.98305 0.81264 0.16421
 C535 C 0.97979 0.80524 0.20618
 C536 C 0.96016 0.83450 0.23130
 C537 C 0.94779 0.87878 0.16968
 C538 C 1.00660 0.68849 0.16470
 C539 C 1.02203 0.65378 0.18786
 C540 C 1.07830 0.69660 0.21035
 C541 C 1.06182 0.73039 0.18685
 N542 N 1.02689 0.72565 0.16427
 H543 H 0.96892 0.85289 0.11213
 H544 H 0.99197 0.77637 0.22025
 H545 H 0.95765 0.82771 0.26465
 H546 H 0.93477 0.90619 0.15357
 H547 H 0.97847 0.68563 0.14698
 H548 H 1.00510 0.62476 0.18780
 H549 H 1.10656 0.70085 0.22766
 H550 H 1.07724 0.76033 0.18597
 C551 C 0.90891 0.71561 0.04588
 C552 C 1.12869 0.82430 0.06038
 C553 C 1.05885 0.65748 0.21057
 C554 C 0.94414 0.87213 0.21332
 C555 C 0.54490 0.32380 0.59781
 H556 H 0.52265 0.34339 0.61381
 C557 C 0.57995 0.34226 0.57812
 H558 H 0.58375 0.37583 0.57879
 C559 C 0.56839 0.25659 0.57891
 H560 H 0.56444 0.22308 0.58033
 C561 C 0.60405 0.27376 0.55897
 H562 H 0.62609 0.25306 0.54380
 N563 N 0.53947 0.28164 0.59768
 C564 C 0.41325 0.24026 0.59596
 H565 H 0.40226 0.26145 0.61918
 C566 C 0.38396 0.21911 0.57342
 H567 H 0.35093 0.22465 0.57982
 C568 C 0.46922 0.20420 0.56284
 H569 H 0.50234 0.19741 0.55971
 C570 C 0.44094 0.18195 0.54000
 H571 H 0.45268 0.15861 0.51909
 Zn572 Zn 0.49328 0.25623 0.62749
 N573 N 0.45505 0.23234 0.59067
 C574 C 0.44548 0.33022 0.63869
 N575 N 0.46478 0.29734 0.65918
 C576 C 0.46446 0.29398 0.70156
 C577 C 0.44529 0.32498 0.72492
 C578 C 0.42595 0.36200 0.66084
 C579 C 0.49976 0.17318 0.66217
 C580 C 0.51740 0.14031 0.68636
 C581 C 0.56453 0.18963 0.71456
 C582 C 0.54655 0.22135 0.68917
 N583 N 0.51492 0.21264 0.66345
 H584 H 0.44555 0.33188 0.60494
 H585 H 0.47918 0.26736 0.71742
 H586 H 0.44548 0.32178 0.75866
 H587 H 0.41044 0.38735 0.64364
 H588 H 0.47403 0.16693 0.64220
 H589 H 0.50414 0.10959 0.68451
 H590 H 0.58998 0.19738 0.73448
 H591 H 0.55807 0.25297 0.68964
 C592 C 0.39773 0.18913 0.54529
 C593 C 0.61041 0.31721 0.55891
 C594 C 0.55088 0.14811 0.71267
 C595 C 0.42619 0.35983 0.70468
 C596 C 0.48210 0.79467 0.90228
 H597 H 0.51245 0.80903 0.89752
 C598 C 0.45021 0.81546 0.92406
 H599 H 0.45671 0.84561 0.93639
 C600 C 0.43644 0.73909 0.89007
 H601 H 0.43059 0.70993 0.87575
 C602 C 0.40389 0.75838 0.91214
 H603 H 0.37406 0.74283 0.91398
 N604 N 0.47453 0.75749 0.88518
 C605 C 0.58849 0.68617 0.85975
 H606 H 0.58130 0.67707 0.82870
 C607 C 0.62354 0.66897 0.87951
 H608 H 0.64349 0.64696 0.86334
 C609 C 0.57072 0.72539 0.91866
 H610 H 0.54964 0.74682 0.93402
 C611 C 0.60585 0.70920 0.93951
 H612 H 0.61125 0.71831 0.97096
 Zn613 Zn 0.51561 0.73366 0.84910
 N614 N 0.56308 0.71409 0.87924
 C615 C 0.57501 0.77788 0.79875
 N616 N 0.53350 0.77666 0.80953
 C617 C 0.50844 0.81120 0.80356
 C618 C 0.52578 0.84972 0.79019
 C619 C 0.59355 0.81556 0.78534
 C620 C 0.49141 0.65239 0.85449
 C621 C 0.47162 0.61563 0.84553
 C622 C 0.45325 0.64698 0.77844
 C623 C 0.47408 0.68351 0.78865
 N624 N 0.49209 0.68558 0.82652
 H625 H 0.59472 0.75056 0.80395
 H626 H 0.47567 0.80991 0.81297
 H627 H 0.50579 0.87733 0.78919
 H628 H 0.62720 0.81635 0.77984
 H629 H 0.50504 0.65502 0.88475
 H630 H 0.47076 0.59018 0.86899
 H631 H 0.43770 0.64649 0.74892
 H632 H 0.47445 0.71056 0.76715
 C633 C 0.63297 0.68087 0.91958
 C634 C 0.41017 0.79770 0.92895
 C635 C 0.45143 0.61260 0.80759
 C636 C 0.56934 0.85249 0.78287
 C637 C 0.47873 -0.17693 0.31127
 C638 C 0.46813 -0.13940 0.32569
 H639 H 0.47707 -0.18246 0.27836
 H640 H 0.47102 -0.13447 0.35868
 C641 C 0.97590 0.32950 0.80758
 C642 C 0.95896 0.36292 0.82582
 H643 H 0.97521 0.32740 0.77406
 H644 H 0.96084 0.36469 0.85937
 C645 C 0.04586 1.18741 0.81180
 C646 C 0.03900 1.14763 0.82457
 H647 H 0.06654 1.19413 0.78512
 H648 H 0.01502 1.14070 0.84830
 C649 C 0.52868 0.67250 0.33458
 C650 C 0.54005 0.66332 0.29548
 H651 H 0.53263 0.64941 0.35984
 H652 H 0.53450 0.68585 0.27005
 C653 C 0.53458 0.32912 0.17701
 C654 C 0.54100 0.36779 0.16060
 H655 H 0.54226 0.32145 0.20915
 H656 H 0.53204 0.37525 0.12872
 C657 C 0.02465 0.81850 0.69633
 C658 C 0.02870 0.86039 0.68166
 H659 H 0.03679 0.80868 0.72641
 H660 H 0.01515 0.86903 0.65176
 C661 C 0.97119 0.67736 0.68515
 C662 C 0.94402 0.65128 0.66484
 H663 H 0.97702 0.67126 0.71789
 H664 H 0.93447 0.66064 0.63368
 C665 C 0.48681 0.18101 0.17151
 C666 C 0.45978 0.15678 0.15295
 H667 H 0.49655 0.17296 0.20297
 H668 H 0.44708 0.16721 0.12323
 C669 C 0.29800 0.46792 -0.16352
 C670 C 0.31789 0.45187 -0.13002
 H671 H 0.26409 0.46903 -0.16399
 H672 H 0.35189 0.45256 -0.13004
 C673 C 0.80739 0.96533 0.34111
 C674 C 0.82526 0.95401 0.37743
 H675 H 0.77428 0.96021 0.33704
 H676 H 0.85816 0.96047 0.38144
 C677 C 0.80910 0.03216 1.19624
 C678 C 0.82750 0.03147 1.15833
 H679 H 0.77798 0.04577 1.19987
 H680 H 0.85658 0.01408 1.15406
 C681 C 0.29503 0.53296 0.69161
 C682 C 0.31166 0.53407 0.65293
 H683 H 0.26393 0.54587 0.69717
 H684 H 0.34085 0.51755 0.64670
 C685 C 0.17772 0.52296 0.32885
 C686 C 0.16344 0.52795 0.36795
 H687 H 0.20961 0.53128 0.32002
 H688 H 0.13147 0.51929 0.37627
 C689 C 0.67942 0.02650 0.82869
 C690 C 0.66721 0.02394 0.86899
 H691 H 0.70891 0.04081 0.81947
 H692 H 0.63609 0.01239 0.87690
 C693 C 0.66599 0.98785 0.68068
 C694 C 0.64581 0.96127 0.65762
 H695 H 0.69818 0.99591 0.67271
 H696 H 0.61537 0.94981 0.66806
 C697 C 0.15279 0.47369 0.18411
 C698 C 0.19151 0.47217 0.16727
 H699 H 0.12760 0.45794 0.16939
 H700 H 0.21623 0.49075 0.17929
 C701 C -0.16962 0.31094 0.47260
 C702 C -0.13414 0.32848 0.45752
 H703 H -0.17304 0.27731 0.47404
 H704 H -0.13139 0.36223 0.45753
 C705 C 0.33739 0.80586 0.95846
 C706 C 0.37796 0.82065 0.94873
 H707 H 0.32932 0.77428 0.95157
 H708 H 0.38487 0.85234 0.95680
 C709 C 1.19746 0.81834 0.02218
 C710 C 1.16500 0.84147 0.04094
 H711 H 1.19565 0.78468 0.02226
 H712 H 1.16797 0.87494 0.04201
 C713 C 0.68485 0.31744 0.53471
 C714 C 0.64801 0.33750 0.53935
 H715 H 0.68774 0.28493 0.54524
 H716 H 0.64516 0.37026 0.52987
 C717 C 0.32876 0.17459 0.51536
 C718 C 0.36787 0.16218 0.52462
 H719 H 0.31860 0.20628 0.52118
 H720 H 0.37807 0.13069 0.51785
 C721 C 0.83830 0.70394 0.01789
 C722 C 0.87766 0.69081 0.02490
 H723 H 0.82830 0.73522 0.02548
 H724 H 0.88701 0.65955 0.01638
 C725 C 0.69320 0.68362 0.96647
 C726 C 0.67115 0.66306 0.93923
 H727 H 0.68308 0.71458 0.97507
 H728 H 0.68360 0.63403 0.92761
 C729 C 0.18559 0.15256 0.45713
 C730 C 0.16813 0.19062 0.46027
 H731 H 0.16996 0.12923 0.43992
 H732 H 0.18136 0.21280 0.48063
 C733 C 0.56870 0.07326 0.73029
 C734 C 0.57174 0.11638 0.73642
 H735 H 0.54958 0.06287 0.70556
 H736 H 0.59468 0.12655 0.75791
 C737 C 1.06996 0.58141 0.23031
 C738 C 1.07852 0.62202 0.23457
 H739 H 1.04697 0.57246 0.20833
 H740 H 1.10357 0.63028 0.25457
 C741 C 0.91137 0.94135 0.22676
 C742 C 0.92351 0.90047 0.23929
 H743 H 0.92342 0.95514 0.19759
 H744 H 0.91770 0.89008 0.27145
 C745 C 0.39358 0.43015 0.71654
 C746 C 0.40508 0.39152 0.73053
 H747 H 0.40191 0.44115 0.68513
 H748 H 0.39954 0.38237 0.76302
 C749 C 0.40567 0.56489 0.76853
 C750 C 0.42612 0.57460 0.80270
 H751 H 0.40987 0.58300 0.73950
 H752 H 0.42331 0.55355 0.83002
 C753 C -0.08827 0.07039 0.28082
 C754 C -0.07044 0.08047 0.31629
 H755 H -0.08273 0.08862 0.25209
 H756 H -0.07422 0.05934 0.34344
 C757 C 0.06352 0.43519 0.27378
 C758 C 0.08178 0.39733 0.27858
 H759 H 0.03014 0.43897 0.26956
 H760 H 0.11578 0.39577 0.27946
 C761 C 0.57391 0.93021 0.76849
 C762 C 0.59159 0.89304 0.77912
 H763 H 0.54229 0.93218 0.75703
 H764 H 0.62460 0.89227 0.78659
 C765 C 0.74256 0.58549 0.05950
 C766 C 0.74448 0.59063 0.10088
 H767 H 0.72236 0.56215 0.04770
 H768 H 0.76255 0.61609 0.11172
 C769 C 0.22455 1.06546 0.55864
 C770 C 0.23959 1.04902 0.59438
 H771 H 0.19113 1.06482 0.55334
 H772 H 0.27315 1.04654 0.59865
 C773 C 0.23153 0.91531 0.92918
 C774 C 0.24411 0.92643 0.88806
 H775 H 0.20273 0.92828 0.94192
 H776 H 0.27631 0.92001 0.87863
 C777 C 0.71706 0.41332 0.42823
 C778 C 0.73340 0.42538 0.39061
 H779 H 0.68532 0.42216 0.43699
 H780 H 0.76634 0.41938 0.38405
 C781 C 0.77563 0.42692 0.55801
 C782 C 0.75977 0.42340 0.59700
 H783 H 0.80032 0.44908 0.55044
 H784 H 0.73506 0.40117 0.60450
 C785 C 0.28592 -0.08923 0.05618
 C786 C 0.32473 -0.07918 0.07218
 H787 H 0.25741 -0.07558 0.06885
 H788 H 0.35259 -0.08735 0.05421
 C789 C 0.28251 0.06485 0.41776
 C790 C 0.29627 0.08156 0.38100
 H791 H 0.27128 0.03306 0.42034
 H792 H 0.30324 0.11469 0.37876
 C793 C 0.79495 0.60171 0.91471
 C794 C 0.77100 0.57161 0.90055
 H795 H 0.82164 0.61208 0.89554
 H796 H 0.74629 0.55771 0.92004
 C797 C 0.05318 0.72452 0.58259
 C798 C 0.09377 0.73829 0.57140
 H799 H 0.04155 0.69645 0.56968
 H800 H 0.10211 0.76980 0.57852
 C801 C 0.57338 0.22564 1.06979
 C802 C 0.61185 0.23907 1.05836
 H803 H 0.56447 0.19412 1.06325
 H804 H 0.61987 0.27152 1.06141
 C805 C 0.93685 0.20976 0.90705
 C806 C 0.89531 0.21085 0.90054
 H807 H 0.94983 0.18945 0.93142
 H808 H 0.88373 0.22897 0.87386
 C809 C 0.42435 0.71817 0.42036
 C810 C 0.38492 0.73326 0.42430
 H811 H 0.43266 0.68823 0.43514
 H812 H 0.37637 0.76287 0.40913
 C813 C 0.56461 0.76206 0.42916
 C814 C 0.57370 0.79779 0.44685
 H815 H 0.58370 0.73414 0.43395
 H816 H 0.55203 0.82397 0.44226
 C817 C 0.06948 0.26738 -0.07981
 C818 C 0.07731 0.30223 -0.05977
 H819 H 0.08837 0.23937 -0.07459
 H820 H 0.05545 0.32835 -0.06325
 C821 C 0.42896 0.27177 0.08049
 C822 C 0.39352 0.28606 0.09851
 H823 H 0.42861 0.25843 0.05016
 H824 H 0.39463 0.29537 0.13053
 C825 C 0.91834 0.76697 0.60205
 C826 C 0.88476 0.79242 0.61481
 H827 H 0.91371 0.74502 0.57797
 H828 H 0.88742 0.80715 0.64434
   
