data_POSCAR
  _audit_creation_date              2014-09-24
  _audit_creation_method            'ToBaCCo'
  _symmetry_space_group_name_H-M    'P1'
  _symmetry_Int_Tables_number       1
  _symmetry_cell_setting            triclinic
  loop_
  _symmetry_equiv_pos_as_xyz
 x,y,z
_cell_length_a 34.7218
_cell_length_b 33.6698
_cell_length_c 35.0527
_cell_angle_alpha 89.618900
_cell_angle_beta 89.610300
_cell_angle_gamma 89.110000
loop_
  _atom_site_label
  _atom_site_type_symbol
  _atom_site_fract_x
  _atom_site_fract_y
  _atom_site_fract_z
C1 C 0.34851 0.35977 1.39646
 C2 C 0.31451 0.37470 1.41347
 C3 C 0.29761 0.41098 1.40109
 C4 C 0.31555 0.43181 1.37089
 C5 C 0.34871 0.41663 1.35291
 C6 C 0.36556 0.38075 1.36606
 C7 C 0.36538 0.32386 1.40910
 C8 C 0.39922 0.30812 1.39166
 C9 C 0.41576 0.32979 1.36122
 C10 C 0.39894 0.36539 1.34811
 C11 C 0.41413 0.38495 1.31612
 C12 C 0.39621 0.41949 1.30155
 C13 C 0.36422 0.43588 1.32080
 H14 H 0.30201 0.35849 1.43719
 H15 H 0.30246 0.45875 1.35949
 H16 H 0.35248 0.30902 1.43338
 H17 H 0.44049 0.31799 1.34584
 H18 H 0.43931 0.37262 1.30175
 H19 H 0.35021 0.46245 1.30961
 C20 C 1.18867 0.66413 0.87164
 C21 C 1.22290 0.64883 0.88747
 C22 C 1.24437 0.61840 0.86910
 C23 C 1.22958 0.60281 0.83487
 C24 C 1.19543 0.61784 0.81889
 C25 C 1.17491 0.64868 0.83730
 C26 C 1.16867 0.69554 0.88926
 C27 C 1.13537 0.71301 0.87264
 C28 C 1.12135 0.69617 0.83871
 C29 C 1.14083 0.66435 0.82110
 C30 C 1.12734 0.64875 0.78680
 C31 C 1.14770 0.61802 0.76831
 C32 C 1.18172 0.60269 0.78447
 H33 H 1.23370 0.66268 0.91294
 H34 H 1.24382 0.57808 0.82079
 H35 H 1.17914 0.70571 0.91645
 H36 H 1.09664 0.70900 0.82431
 H37 H 1.10134 0.66098 0.77403
 H38 H 1.19736 0.57883 0.77027
 C39 C 0.65206 -0.15419 0.11810
 C40 C 0.68617 -0.14108 0.10049
 C41 C 0.70409 -0.10627 0.11281
 C42 C 0.68650 -0.08373 0.14201
 C43 C 0.65270 -0.09654 0.16004
 C44 C 0.63544 -0.13202 0.14814
 C45 C 0.63509 -0.18981 0.10687
 C46 C 0.60165 -0.20440 0.12531
 C47 C 0.58533 -0.18142 0.15522
 C48 C 0.60215 -0.14580 0.16691
 C49 C 0.58704 -0.12450 0.19815
 C50 C 0.60463 -0.08955 0.21076
 C51 C 0.63694 -0.07532 0.19094
 H52 H 0.69968 -0.15889 0.07834
 H53 H 0.69966 -0.05651 0.15135
 H54 H 0.64771 -0.20537 0.08282
 H55 H 0.56071 -0.19207 0.17114
 H56 H 0.56190 -0.13547 0.21313
 H57 H 0.65096 -0.04876 0.20078
 C58 C -0.16764 1.15811 -0.40450
 C59 C -0.20153 1.14635 -0.42254
 C60 C -0.22424 1.11556 -0.40724
 C61 C -0.21091 1.09566 -0.37399
 C62 C -0.17673 1.10673 -0.35601
 C63 C -0.15526 1.13843 -0.37102
 C64 C -0.14649 1.19010 -0.41892
 C65 C -0.11356 1.20319 -0.39998
 C66 C -0.10120 1.18336 -0.36675
 C67 C -0.12164 1.15077 -0.35234
 C68 C -0.10928 1.13063 -0.31933
 C69 C -0.13028 1.09859 -0.30423
 C70 C -0.16403 1.08690 -0.32286
 H71 H -0.21117 1.16311 -0.44725
 H72 H -0.22640 1.07062 -0.36241
 H73 H -0.15623 1.20565 -0.44436
 H74 H -0.07564 1.19332 -0.35225
 H75 H -0.08305 1.13978 -0.30554
 H76 H -0.18092 1.06290 -0.31108
 C77 C 0.67197 0.67901 0.63471
 C78 C 0.70701 0.66571 0.61847
 C79 C 0.72592 0.63161 0.63301
 C80 C 0.70872 0.60990 0.66273
 C81 C 0.67400 0.62270 0.67912
 C82 C 0.65576 0.65765 0.66549
 C83 C 0.65338 0.71383 0.62152
 C84 C 0.61972 0.72862 0.63985
 C85 C 0.60422 0.70687 0.67064
 C86 C 0.62154 0.67143 0.68302
 C87 C 0.60524 0.64976 0.71310
 C88 C 0.62316 0.61482 0.72642
 C89 C 0.65763 0.60148 0.70949
 H90 H 0.72019 0.68253 0.59551
 H91 H 0.72269 0.58307 0.67341
 H92 H 0.66641 0.73044 0.59833
 H93 H 0.57757 0.71655 0.68419
 H94 H 0.57901 0.66050 0.72678
 H95 H 0.67162 0.57459 0.72001
 C96 C 0.83150 0.31273 0.13979
 C97 C 0.80118 0.33278 0.12130
 C98 C 0.78486 0.36794 0.13660
 C99 C 0.79986 0.38267 0.17098
 C100 C 0.82942 0.36228 0.19024
 C101 C 0.84517 0.32709 0.17470
 C102 C 0.84827 0.27844 0.12388
 C103 C 0.87778 0.25725 0.14310
 C104 C 0.89034 0.27143 0.17856
 C105 C 0.87466 0.30629 0.19408
 C106 C 0.88847 0.32087 0.22857
 C107 C 0.87293 0.35587 0.24433
 C108 C 0.84324 0.37636 0.22504
 H109 H 0.79137 0.32160 0.09419
 H110 H 0.78730 0.40894 0.18407
 H111 H 0.83704 0.26744 0.09725
 H112 H 0.91378 0.25655 0.19343
 H113 H 0.91190 0.30528 0.24280
 H114 H 0.83065 0.40308 0.23727
 C115 C 0.32514 0.17088 0.88565
 C116 C 0.28918 0.15895 0.89966
 C117 C 0.26969 0.12677 0.88335
 C118 C 0.28718 0.10702 0.85206
 C119 C 0.32257 0.11958 0.83688
 C120 C 0.34176 0.15148 0.85391
 C121 C 0.34483 0.20188 0.90312
 C122 C 0.38065 0.21429 0.88894
 C123 C 0.39668 0.19553 0.85669
 C124 C 0.37758 0.16401 0.83922
 C125 C 0.39371 0.14482 0.80732
 C126 C 0.37453 0.11336 0.78974
 C127 C 0.33898 0.10090 0.80477
 H128 H 0.27734 0.17379 0.92454
 H129 H 0.27250 0.08298 0.83815
 H130 H 0.33212 0.21674 0.92762
 H131 H 0.42431 0.20504 0.84566
 H132 H 0.42097 0.15478 0.79575
 H133 H 0.32430 0.07638 0.79162
 C134 C 0.16592 0.83578 0.36619
 C135 C 0.19540 0.85654 0.38379
 C136 C 0.21152 0.88995 0.36621
 C137 C 0.19713 0.90323 0.33091
 C138 C 0.16737 0.88269 0.31298
 C139 C 0.15155 0.84884 0.33080
 C140 C 0.15135 0.80161 0.38336
 C141 C 0.12263 0.77907 0.36571
 C142 C 0.10720 0.79335 0.33080
 C143 C 0.12178 0.82779 0.31309
 C144 C 0.10798 0.84096 0.27746
 C145 C 0.12424 0.87415 0.25919
 C146 C 0.15376 0.89489 0.27718
 H147 H 0.20624 0.84641 0.41118
 H148 H 0.20979 0.92880 0.31701
 H149 H 0.16216 0.79326 0.41123
 H150 H 0.08549 0.77668 0.31606
 H151 H 0.08536 0.82485 0.26341
 H152 H 0.16606 0.92064 0.26323
 Zn153 Zn 0.03458 0.96459 -0.00904
 Zn154 Zn -0.00173 1.03876 -0.03750
 Zn155 Zn -0.04196 0.96110 -0.05011
 Zn156 Zn -0.03528 0.99539 0.02853
 O157 O -0.01129 0.98981 -0.01730
 O158 O 0.07516 0.99154 -0.02638
 O159 O -0.02532 1.04596 -0.08171
 O160 O -0.01783 0.91559 -0.06584
 O161 O 0.04846 1.04765 -0.04688
 O162 O 0.03687 0.91967 -0.03404
 O163 O -0.05497 0.98952 -0.09284
 O164 O -0.08072 0.97246 0.02952
 O165 O -0.01934 1.07841 -0.00837
 O166 O -0.08726 0.94636 -0.02776
 O167 O -0.04419 1.04587 0.04074
 O168 O -0.00957 0.97384 0.06763
 O169 O 0.04381 0.95176 0.04012
 C170 C 0.07794 1.02547 -0.04198
 C171 C -0.04665 1.02496 -0.10246
 C172 C 0.01522 0.90159 -0.05687
 C173 C -0.10009 0.95290 0.00581
 C174 C -0.03694 1.07809 0.02343
 C175 C 0.02294 0.95640 0.06969
 Zn176 Zn 0.50435 -0.00530 0.55003
 Zn177 Zn 0.51536 0.03486 0.47296
 Zn178 Zn 0.48218 -0.04660 0.47995
 Zn179 Zn 0.43592 0.02175 0.50707
 O180 O 0.48467 0.00154 0.50235
 O181 O 0.54694 0.02192 0.55533
 O182 O 0.53297 0.01125 0.42878
 O183 O 0.50337 -0.08567 0.50711
 O184 O 0.55778 0.05044 0.49921
 O185 O 0.51884 -0.05560 0.56053
 O186 O 0.50777 -0.04816 0.43662
 O187 O 0.39991 -0.00857 0.48588
 O188 O 0.48925 0.08006 0.45918
 O189 O 0.43462 -0.06095 0.46830
 O190 O 0.43170 0.06850 0.48427
 O191 O 0.42116 0.03039 0.55566
 O192 O 0.47273 0.01106 0.58771
 C193 C 0.56752 0.04327 0.53364
 C194 C 0.52792 -0.02419 0.41738
 C195 C 0.51845 -0.08638 0.53987
 C196 C 0.40255 -0.04262 0.47071
 C197 C 0.45440 0.09067 0.46567
 C198 C 0.43884 0.02571 0.58701
 Zn199 Zn 1.00798 0.45263 0.48406
 Zn200 Zn 1.04624 0.52679 0.50861
 Zn201 Zn 0.96902 0.53200 0.47215
 Zn202 Zn 0.97707 0.49742 0.55038
 O203 O 1.00009 0.50221 0.50376
 O204 O 1.05795 0.44108 0.47501
 O205 O 1.04912 0.57148 0.48074
 O206 O 0.95392 0.50477 0.43166
 O207 O 1.08585 0.49654 0.49283
 O208 O 0.98333 0.44656 0.44008
 O209 O 0.99217 0.57504 0.45312
 O210 O 0.93252 0.52426 0.55309
 O211 O 1.05651 0.53984 0.55700
 O212 O 0.92591 0.54990 0.49522
 O213 O 1.00543 0.51707 0.58766
 O214 O 0.96679 0.44696 0.56362
 O215 O 0.99015 0.41388 0.51420
 C216 C 1.08794 0.46166 0.47940
 C217 C 1.02553 0.58874 0.45833
 C218 C 0.96141 0.46958 0.42096
 C219 C 0.91380 0.54524 0.52917
 C220 C 1.03761 0.53436 0.58769
 C221 C 0.97316 0.41446 0.54635
 Zn222 Zn 0.51422 0.44497 1.02681
 Zn223 Zn 0.48434 0.52909 1.03816
 Zn224 Zn 0.56237 0.51362 1.00444
 Zn225 Zn 0.49322 0.49354 0.96008
 O226 O 0.51340 0.49542 1.00758
 O227 O 0.48819 0.44234 1.07031
 O228 O 0.51079 0.57237 1.05378
 O229 O 0.59697 0.47981 1.02396
 O230 O 0.46747 0.50400 1.08075
 O231 O 0.56179 0.42742 1.03810
 O232 O 0.56822 0.55909 1.02904
 O233 O 0.52508 0.51103 0.92420
 O234 O 0.44191 0.54818 1.01388
 O235 O 0.57768 0.52380 0.95667
 O236 O 0.45078 0.52281 0.95634
 O237 O 0.47970 0.44500 0.94540
 O238 O 0.49371 0.40843 0.99598
 C239 C 0.47051 0.46769 1.09085
 C240 C 0.54580 0.58163 1.04806
 C241 C 0.59399 0.44470 1.03680
 C242 C 0.55960 0.52254 0.92541
 C243 C 0.43117 0.54372 0.97955
 C244 C 0.48046 0.41169 0.96243
 C245 C 1.25553 0.46712 0.41966
 C246 C 1.26285 0.42581 0.41753
 C247 C 1.23399 0.39983 0.43079
 C248 C 1.19829 0.41473 0.44394
 C249 C 1.19172 0.45617 0.44567
 C250 C 1.22067 0.48204 0.43395
 C251 C 1.15598 0.47115 0.45827
 C252 C 1.12604 0.44529 0.46800
 C253 C 1.13261 0.40408 0.46587
 C254 C 1.16858 0.38891 0.45436
 H255 H 1.23804 0.36796 0.42859
 H256 H 1.21616 0.51393 0.43529
 H257 H 1.15109 0.50302 0.45937
 H258 H 1.17296 0.35702 0.45303
 H259 H 1.27719 0.48831 0.41128
 H260 H 1.10999 0.38359 0.47331
 C261 C 0.30866 0.58798 0.85940
 C262 C 0.28023 0.60447 0.88393
 C263 C 0.28891 0.60699 0.92332
 C264 C 0.32440 0.59295 0.93755
 C265 C 0.35181 0.57615 0.91232
 C266 C 0.34379 0.57403 0.87342
 C267 C 0.38677 0.56123 0.92633
 C268 C 0.39502 0.56242 0.96553
 C269 C 0.36793 0.57981 0.99054
 C270 C 0.33285 0.59492 0.97665
 H271 H 0.26773 0.61814 0.94351
 H272 H 0.36484 0.56166 0.85365
 H273 H 0.40742 0.54816 0.90655
 H274 H 0.31220 0.60778 0.99652
 H275 H 0.30485 0.58707 0.82884
 H276 H 0.37354 0.58106 1.02085
 C277 C -0.22954 0.91932 0.12281
 C278 C -0.25743 0.90521 0.09756
 C279 C -0.24793 0.90183 0.05846
 C280 C -0.21135 0.91321 0.04490
 C281 C -0.18415 0.92797 0.07077
 C282 C -0.19342 0.93067 0.10958
 C283 C -0.14804 0.94010 0.05757
 C284 C -0.13815 0.93795 0.01863
 C285 C -0.16503 0.92261 -0.00699
 C286 C -0.20138 0.91042 0.00603
 H287 H -0.26909 0.89104 0.03862
 H288 H -0.17269 0.94161 0.12980
 H289 H -0.12763 0.95150 0.07789
 H290 H -0.22175 0.89908 -0.01432
 H291 H -0.23550 0.92122 0.15311
 H292 H -0.15820 0.92060 -0.03711
 C293 C 0.73328 0.11118 0.53640
 C294 C 0.74003 0.10559 0.57587
 C295 C 0.70976 0.09035 0.59841
 C296 C 0.67432 0.08070 0.58226
 C297 C 0.66833 0.08575 0.54270
 C298 C 0.69803 0.10117 0.52008
 C299 C 0.63296 0.07480 0.52655
 C300 C 0.60371 0.05877 0.54974
 C301 C 0.60995 0.05512 0.58928
 C302 C 0.64477 0.06594 0.60532
 H303 H 0.71283 0.08737 0.62902
 H304 H 0.69417 0.10517 0.48964
 H305 H 0.62862 0.07782 0.49608
 H306 H 0.64873 0.06221 0.63579
 H307 H 0.75567 0.12171 0.51746
 H308 H 0.58799 0.04325 0.60804
 C309 C 0.45523 0.26220 0.39857
 C310 C 0.41549 0.27097 0.40344
 C311 C 0.39216 0.24118 0.41960
 C312 C 0.40775 0.20410 0.43018
 C313 C 0.44747 0.19595 0.42513
 C314 C 0.47094 0.22531 0.40936
 C315 C 0.46294 0.15868 0.43607
 C316 C 0.43897 0.12956 0.45207
 C317 C 0.39934 0.13813 0.45640
 C318 C 0.38394 0.17488 0.44558
 H319 H 0.36135 0.24573 0.42242
 H320 H 0.50155 0.21985 0.40551
 H321 H 0.49350 0.15258 0.43257
 H322 H 0.35335 0.18051 0.44949
 H323 H 0.47488 0.28422 0.38767
 H324 H 0.37999 0.11639 0.46844
 C325 C 0.91819 0.24046 0.54685
 C326 C 0.90704 0.23839 0.58539
 C327 C 0.91357 0.27096 0.60925
 C328 C 0.92986 0.30582 0.59443
 C329 C 0.94077 0.30765 0.55553
 C330 C 0.93524 0.27464 0.53212
 C331 C 0.95606 0.34279 0.54040
 C332 C 0.95971 0.37665 0.56334
 C333 C 0.94892 0.37447 0.60202
 C334 C 0.93444 0.33927 0.61750
 H335 H 0.90457 0.26968 0.63891
 H336 H 0.94338 0.27555 0.50223
 H337 H 0.96394 0.34413 0.51044
 H338 H 0.92616 0.33846 0.64735
 H339 H 0.91344 0.21560 0.52809
 H340 H 0.95153 0.40007 0.62030
 C341 C 0.13954 0.77366 -0.08893
 C342 C 0.11769 0.74753 -0.11126
 C343 C 0.07846 0.75771 -0.11793
 C344 C 0.06203 0.79284 -0.10306
 C345 C 0.08476 0.81801 -0.08088
 C346 C 0.12325 0.80815 -0.07388
 C347 C 0.06891 0.85302 -0.06613
 C348 C 0.03032 0.86392 -0.07312
 C349 C 0.00762 0.83887 -0.09527
 C350 C 0.02333 0.80346 -0.11002
 H351 H 0.06007 0.73811 -0.13365
 H352 H 0.14112 0.82757 -0.05724
 H353 H 0.08705 0.87199 -0.04929
 H354 H 0.00533 0.78453 -0.12700
 H355 H 0.17002 0.76900 -0.08431
 H356 H -0.02218 0.84656 -0.10106
 C357 C 0.54590 0.75061 1.12010
 C358 C 0.58548 0.75858 1.11451
 C359 C 0.60868 0.72830 1.09793
 C360 C 0.59303 0.69198 1.08685
 C361 C 0.55338 0.68489 1.09213
 C362 C 0.53015 0.71442 1.10895
 C363 C 0.53775 0.64857 1.08022
 C364 C 0.56150 0.61935 1.06300
 C365 C 0.60110 0.62681 1.05866
 C366 C 0.61665 0.66258 1.07045
 H367 H 0.63945 0.73195 1.09477
 H368 H 0.49960 0.70974 1.11315
 H369 H 0.50722 0.64337 1.08382
 H370 H 0.64719 0.66739 1.06637
 H371 H 0.52632 0.77283 1.13159
 H372 H 0.62028 0.60502 1.04573
 C373 C 0.41243 0.47717 1.25851
 C374 C 0.40882 0.43605 1.26433
 C375 C 0.41632 0.41014 1.23389
 C376 C 0.42800 0.42479 1.19833
 C377 C 0.43214 0.46613 1.19266
 C378 C 0.42409 0.49211 1.22295
 C379 C 0.44479 0.48051 1.15702
 C380 C 0.45382 0.45387 1.12739
 C381 C 0.44883 0.41293 1.13342
 C382 C 0.43592 0.39855 1.16845
 H383 H 0.41274 0.37843 1.23782
 H384 H 0.42706 0.52389 1.21921
 H385 H 0.44866 0.51212 1.15274
 H386 H 0.43268 0.36681 1.17234
 H387 H 0.40669 0.49768 1.28161
 H388 H 0.45528 0.39178 1.11103
 C389 C 0.58705 -0.02823 0.24876
 C390 C 0.59122 -0.06981 0.24646
 C391 C 0.58384 -0.09288 0.27908
 C392 C 0.57210 -0.07504 0.31335
 C393 C 0.56730 -0.03329 0.31549
 C394 C 0.57502 -0.01014 0.28291
 C395 C 0.55434 -0.01578 0.34995
 C396 C 0.54577 -0.03990 0.38181
 C397 C 0.55186 -0.08125 0.37916
 C398 C 0.56488 -0.09858 0.34546
 H399 H 0.58776 -0.12487 0.27793
 H400 H 0.57163 0.02188 0.28377
 H401 H 0.54972 0.01607 0.35155
 H402 H 0.56874 -0.13056 0.34440
 H403 H 0.59269 -0.00978 0.22399
 H404 H 0.54602 -0.10058 0.40328
 C405 C -0.12029 1.03665 -0.26411
 C406 C -0.11740 1.07812 -0.26851
 C407 C -0.10196 1.10016 -0.23849
 C408 C -0.08905 1.08129 -0.20504
 C409 C -0.09191 1.03964 -0.20086
 C410 C -0.10775 1.01762 -0.23061
 C411 C -0.07861 1.02089 -0.16717
 C412 C -0.06204 1.04344 -0.13799
 C413 C -0.05966 1.08490 -0.14278
 C414 C -0.07311 1.10359 -0.17577
 H415 H -0.10022 1.13219 -0.24098
 H416 H -0.11014 0.98566 -0.22813
 H417 H -0.08062 0.98895 -0.16395
 H418 H -0.07078 1.13555 -0.17847
 H419 H -0.13169 1.01879 -0.28684
 H420 H -0.04740 1.10321 -0.12082
 C421 C 1.15836 0.59770 0.70046
 C422 C 1.13344 0.60213 0.73193
 C423 C 1.09465 0.59173 0.72852
 C424 C 1.08075 0.57717 0.69399
 C425 C 1.10583 0.57340 0.66221
 C426 C 1.14463 0.58362 0.66579
 C427 C 1.09167 0.55948 0.62745
 C428 C 1.05287 0.54873 0.62424
 C429 C 1.02840 0.55207 0.65623
 C430 C 1.04216 0.56634 0.69073
 H431 H 1.07542 0.59465 0.75288
 H432 H 1.16429 0.58083 0.64178
 H433 H 1.11087 0.55677 0.60306
 H434 H 1.02261 0.56895 0.71484
 H435 H 1.18834 0.60580 0.70255
 H436 H 0.99836 0.54411 0.65448
 C437 C 0.79281 0.60689 0.64484
 C438 C 0.76432 0.61874 0.61864
 C439 C 0.77218 0.61613 0.57931
 C440 C 0.80756 0.60011 0.56643
 C441 C 0.83529 0.58698 0.59324
 C442 C 0.82791 0.59111 0.63230
 C443 C 0.86983 0.56938 0.58070
 C444 C 0.87747 0.56478 0.54159
 C445 C 0.85028 0.57882 0.51498
 C446 C 0.81550 0.59619 0.52731
 H447 H 0.75036 0.62515 0.55891
 H448 H 0.84906 0.58159 0.65318
 H449 H 0.89078 0.55918 0.60152
 H450 H 0.79470 0.60619 0.50629
 H451 H 0.78769 0.60940 0.67526
 H452 H 0.85561 0.57573 0.48466
 C453 C 0.74922 0.42931 1.12028
 C454 C 0.75370 0.38763 1.11831
 C455 C 0.72576 0.36593 1.09846
 C456 C 0.69369 0.38518 1.08221
 C457 C 0.69003 0.42693 1.08422
 C458 C 0.71807 0.44871 1.10300
 C459 C 0.65793 0.44619 1.06818
 C460 C 0.62860 0.42413 1.05145
 C461 C 0.63208 0.38258 1.05003
 C462 C 0.66464 0.36326 1.06486
 H463 H 0.72748 0.33380 1.09754
 H464 H 0.71570 0.48079 1.10473
 H465 H 0.65512 0.47826 1.06988
 H466 H 0.66682 0.33117 1.06329
 H467 H 0.77048 0.44739 1.13405
 H468 H 0.60971 0.36510 1.03723
 C469 C 0.20724 1.14262 -0.08604
 C470 C 0.23351 1.11467 -0.10184
 C471 C 0.22287 1.07433 -0.10210
 C472 C 0.18748 1.06230 -0.08653
 C473 C 0.16123 1.09091 -0.07186
 C474 C 0.17142 1.13096 -0.07180
 C475 C 0.12533 1.07893 -0.05736
 C476 C 0.11600 1.03848 -0.05602
 C477 C 0.14287 1.01017 -0.06950
 C478 C 0.17808 1.02197 -0.08502
 H479 H 0.24280 1.05182 -0.11264
 H480 H 0.15170 1.15335 -0.06064
 H481 H 0.10490 1.10094 -0.04670
 H482 H 0.19796 0.99954 -0.09581
 H483 H 0.21345 1.17402 -0.08610
 H484 H 0.13620 0.97884 -0.06894
 C485 C 0.24548 -0.04911 0.38838
 C486 C 0.24454 -0.09056 0.38440
 C487 C 0.27497 -0.11397 0.39893
 C488 C 0.30576 -0.09644 0.41764
 C489 C 0.30628 -0.05476 0.42217
 C490 C 0.27605 -0.03134 0.40731
 C491 C 0.33730 -0.03732 0.44095
 C492 C 0.36817 -0.06100 0.45431
 C493 C 0.36725 -0.10236 0.44957
 C494 C 0.33618 -0.11997 0.43166
 H495 H 0.27476 -0.14594 0.39540
 H496 H 0.27603 0.00067 0.41035
 H497 H 0.33803 -0.00532 0.44403
 H498 H 0.33619 -0.15195 0.42836
 H499 H 0.22219 -0.03060 0.37753
 H500 H 0.39073 -0.12115 0.45961
 C501 C 0.58288 -0.21045 0.65448
 C502 C 0.60141 -0.23571 0.62780
 C503 C 0.60002 -0.22517 0.58885
 C504 C 0.57933 -0.19129 0.57680
 C505 C 0.56144 -0.16613 0.60401
 C506 C 0.56367 -0.17584 0.64277
 C507 C 0.54138 -0.13183 0.59198
 C508 C 0.53779 -0.12320 0.55296
 C509 C 0.55468 -0.14902 0.52606
 C510 C 0.57564 -0.18253 0.53787
 H511 H 0.61294 -0.24450 0.56756
 H512 H 0.55023 -0.15687 0.66405
 H513 H 0.52824 -0.11214 0.61286
 H514 H 0.58887 -0.20160 0.51656
 H515 H 0.58425 -0.21661 0.68480
 H516 H 0.55257 -0.14268 0.49580
 C517 C 1.13630 0.72046 0.40595
 C518 C 1.11055 0.74290 0.38290
 C519 C 1.07284 0.72844 0.37822
 C520 C 1.06093 0.69385 0.39750
 C521 C 1.08708 0.67279 0.42110
 C522 C 1.12472 0.68607 0.42472
 C523 C 1.07528 0.63872 0.44087
 C524 C 1.03743 0.62511 0.43759
 C525 C 1.01150 0.64613 0.41393
 C526 C 1.02313 0.68019 0.39409
 H527 H 1.05197 0.74493 0.36135
 H528 H 1.14535 0.66984 0.44217
 H529 H 1.09571 0.62281 0.45881
 H530 H 1.00254 0.69587 0.37619
 H531 H 1.16617 0.72854 0.40882
 H532 H 0.98217 0.63628 0.41076
 C533 C -0.09246 1.19108 0.15075
 C534 C -0.10536 1.22265 0.12715
 C535 C -0.10062 1.21909 0.08731
 C536 C -0.08325 1.18510 0.07153
 C537 C -0.07163 1.15337 0.09560
 C538 C -0.07625 1.15669 0.13510
 C539 C -0.05582 1.11871 0.07973
 C540 C -0.05057 1.11571 0.04014
 C541 C -0.06067 1.14799 0.01649
 C542 C -0.07722 1.18233 0.03204
 H543 H -0.10882 1.24340 0.06848
 H544 H -0.06747 1.13260 0.15394
 H545 H -0.04769 1.09400 0.09815
 H546 H -0.08562 1.20654 0.01319
 H547 H -0.09641 1.19196 0.18139
 H548 H -0.05698 1.14612 -0.01416
 C549 C 0.40569 0.24645 0.94784
 C550 C 0.40109 0.24696 0.90803
 C551 C 0.41499 0.27932 0.88679
 C552 C 0.43238 0.31131 0.90521
 C553 C 0.43683 0.31052 0.94530
 C554 C 0.42366 0.27777 0.96628
 C555 C 0.45362 0.34282 0.96379
 C556 C 0.46512 0.37645 0.94285
 C557 C 0.46057 0.37683 0.90300
 C558 C 0.44466 0.34447 0.88433
 H559 H 0.41118 0.28013 0.85612
 H560 H 0.42676 0.27662 0.99701
 H561 H 0.45666 0.34227 0.99455
 H562 H 0.44143 0.34566 0.85362
 H563 H 0.39540 0.22165 0.96468
 H564 H 0.46930 0.40228 0.88617
 C565 C 0.56719 0.58432 0.75972
 C566 C 0.60651 0.59332 0.75915
 C567 C 0.62948 0.58367 0.79077
 C568 C 0.61300 0.56649 0.82336
 C569 C 0.57325 0.55801 0.82388
 C570 C 0.55071 0.56649 0.79176
 C571 C 0.55641 0.54231 0.85691
 C572 C 0.57849 0.53580 0.88986
 C573 C 0.61810 0.54377 0.88894
 C574 C 0.63528 0.55876 0.85583
 H575 H 0.65978 0.59103 0.79053
 H576 H 0.52021 0.56013 0.79173
 H577 H 0.52578 0.53645 0.85729
 H578 H 0.66579 0.56509 0.85589
 H579 H 0.54920 0.59139 0.73540
 H580 H 0.63573 0.53883 0.91394
 C581 C 0.43100 0.08346 0.75459
 C582 C 0.39163 0.09381 0.75552
 C583 C 0.36898 0.08634 0.72327
 C584 C 0.38564 0.06970 0.69023
 C585 C 0.42532 0.05967 0.68960
 C586 C 0.44764 0.06636 0.72206
 C587 C 0.44221 0.04397 0.65628
 C588 C 0.42018 0.03892 0.62313
 C589 C 0.38065 0.04872 0.62423
 C590 C 0.36351 0.06370 0.65750
 H591 H 0.33867 0.09459 0.72350
 H592 H 0.47810 0.05884 0.72213
 H593 H 0.47277 0.03688 0.65584
 H594 H 0.33305 0.07123 0.65741
 H595 H 0.44894 0.08852 0.77919
 H596 H 0.36298 0.04511 0.59918
 C597 C 0.13785 0.89251 0.19123
 C598 C 0.11101 0.88717 0.22094
 C599 C 0.07191 0.89576 0.21436
 C600 C 0.05984 0.91040 0.17867
 C601 C 0.08703 0.91549 0.14886
 C602 C 0.12594 0.90621 0.15541
 C603 C 0.07493 0.93019 0.11318
 C604 C 0.03607 0.94072 0.10713
 C605 C 0.00942 0.93586 0.13716
 C606 C 0.02112 0.92061 0.17246
 H607 H 0.05117 0.89211 0.23733
 H608 H 0.14723 0.90998 0.13298
 H609 H 0.09581 0.93396 0.09036
 H610 H -0.00011 0.91705 0.19498
 H611 H 0.16811 0.88594 0.19581
 H612 H -0.02072 0.94350 0.13325
 C613 C 0.89905 0.34491 0.31008
 C614 C 0.88842 0.37125 0.28053
 C615 C 0.89380 0.41221 0.28527
 C616 C 0.91005 0.42662 0.31881
 C617 C 0.92154 0.39972 0.34786
 C618 C 0.91566 0.35899 0.34336
 C619 C 0.93871 0.41397 0.38095
 C620 C 0.94389 0.45488 0.38578
 C621 C 0.93175 0.48151 0.35712
 C622 C 0.91524 0.46746 0.32372
 H623 H 0.88617 0.43282 0.26257
 H624 H 0.92393 0.33803 0.36553
 H625 H 0.94755 0.39327 0.40317
 H626 H 0.90648 0.48850 0.30180
 H627 H 0.89450 0.31330 0.30748
 H628 H 0.93549 0.51319 0.36035
   
