data_POSCAR
  _audit_creation_date              2014-09-24
  _audit_creation_method            'ToBaCCo'
  _symmetry_space_group_name_H-M    'P1'
  _symmetry_Int_Tables_number       1
  _symmetry_cell_setting            triclinic
  loop_
  _symmetry_equiv_pos_as_xyz
 x,y,z
_cell_length_a 33.4521
_cell_length_b 33.4555
_cell_length_c 33.3599
_cell_angle_alpha 90.139900
_cell_angle_beta 90.167000
_cell_angle_gamma 89.999200
loop_
  _atom_site_label
  _atom_site_type_symbol
  _atom_site_fract_x
  _atom_site_fract_y
  _atom_site_fract_z
O1 O 0.55660 0.10028 0.00421
 O2 O 0.60079 0.04769 0.00226
 C3 C 0.59246 0.08547 0.00391
 O4 O 0.44492 -0.00333 0.10260
 O5 O 0.40062 -0.00164 0.04985
 C6 C 0.40903 -0.00325 0.08774
 O7 O 0.55732 0.00235 0.10216
 O8 O 0.60113 0.00067 0.04926
 C9 C 0.59311 0.00225 0.08720
 O10 O 0.44419 0.10022 -0.00092
 O11 O 0.40027 0.04744 0.00081
 C12 C 0.40840 0.08526 -0.00072
 Zr13 Zr 0.50038 0.07099 0.00167
 O14 O 0.49600 0.11534 0.04683
 O15 O 0.50462 0.11575 -0.04285
 Zr16 Zr 0.50090 -0.00045 0.07305
 O17 O 0.49651 0.04426 0.11785
 O18 O 0.50583 -0.04510 0.11766
 O19 O 0.53634 0.04087 0.04284
 O20 O 0.46591 0.04038 0.04266
 O21 O 0.44370 0.00226 -0.09942
 O22 O 0.40003 0.00048 -0.04642
 C23 C 0.40799 0.00208 -0.08436
 O24 O 0.55635 -0.10157 -0.00186
 O25 O 0.60031 -0.04890 0.00004
 C26 C 0.59211 -0.08669 -0.00179
 O27 O 0.44444 -0.10123 0.00405
 O28 O 0.40037 -0.04856 0.00263
 C29 C 0.40862 -0.08636 0.00409
 O30 O 0.55566 -0.00297 -0.10025
 O31 O 0.59996 -0.00115 -0.04759
 C32 C 0.59153 -0.00277 -0.08547
 Zr33 Zr 0.50004 -0.00040 -0.07024
 O34 O 0.49520 -0.04522 -0.11491
 O35 O 0.50425 0.04445 -0.11469
 Zr36 Zr 0.50056 -0.07189 0.00123
 O37 O 0.49567 -0.11641 -0.04374
 O38 O 0.50545 -0.11626 0.04613
 Zr39 Zr 0.56014 -0.00032 0.00128
 Zr40 Zr 0.44103 -0.00052 0.00159
 O41 O 0.46555 -0.04137 -0.03962
 O42 O 0.53599 -0.04159 -0.04014
 O43 O 0.46455 0.04080 -0.03973
 O44 O 0.53555 -0.04128 0.04220
 O45 O 0.53494 0.04051 -0.03953
 O46 O 0.46514 -0.04177 0.04279
 H47 H 0.44783 0.05690 0.05936
 H48 H 0.55377 -0.05783 0.05872
 H49 H 0.44731 -0.05794 -0.05619
 H50 H 0.55288 0.05715 -0.05617
 H51 H 0.48358 -0.06415 0.11352
 H52 H 0.48303 -0.11235 0.06499
 H53 H 0.51774 -0.11218 -0.06293
 H54 H 0.51766 -0.06405 -0.11102
 H55 H 0.48180 0.06324 -0.11054
 H56 H 0.48245 0.11142 -0.06205
 H57 H 0.51876 0.11155 0.06543
 H58 H 0.51880 0.06321 0.11372
 O59 O -0.00178 0.55593 -0.10204
 O60 O -0.00012 0.59979 -0.04894
 C61 C -0.00158 0.59170 -0.08690
 O62 O -0.10076 0.44400 0.00080
 O63 O -0.04816 0.39998 -0.00103
 C64 C -0.08595 0.40821 0.00053
 O65 O -0.10004 0.55588 -0.00421
 O66 O -0.04728 0.59981 -0.00209
 C67 C -0.08510 0.59166 -0.00388
 O68 O 0.00336 0.44355 -0.10250
 O69 O 0.00158 0.39944 -0.04987
 C70 C 0.00312 0.40769 -0.08776
 Zr71 Zr 0.00076 0.49969 -0.07293
 O72 O -0.04387 0.49531 -0.11785
 O73 O 0.04563 0.50426 -0.11730
 Zr74 Zr -0.07088 0.49970 -0.00164
 O75 O -0.11507 0.49528 -0.04700
 O76 O -0.11557 0.50433 0.04294
 O77 O -0.04053 0.53535 -0.04270
 O78 O -0.04024 0.46494 -0.04261
 O79 O 0.10121 0.44325 -0.00372
 O80 O 0.04847 0.39923 -0.00246
 C81 C 0.08629 0.40744 -0.00380
 O82 O 0.00314 0.55544 0.10009
 O83 O 0.00159 0.59956 0.04741
 C84 C 0.00305 0.59127 0.08530
 O85 O -0.00232 0.44308 0.09947
 O86 O -0.00062 0.39919 0.04639
 C87 C -0.00220 0.40731 0.08434
 O88 O 0.10139 0.55554 0.00241
 O89 O 0.04875 0.59964 0.00060
 C90 C 0.08655 0.59136 0.00242
 Zr91 Zr 0.07202 0.49948 -0.00091
 O92 O 0.11663 0.49474 0.04397
 O93 O 0.11656 0.50413 -0.04562
 Zr94 Zr 0.00041 0.49935 0.07044
 O95 O 0.04493 0.49465 0.11542
 O96 O -0.04454 0.50386 0.11477
 Zr97 Zr 0.00067 0.55900 -0.00095
 Zr98 Zr 0.00055 0.44001 -0.00153
 O99 O 0.04136 0.46468 0.03981
 O100 O 0.04180 0.53501 0.04054
 O101 O 0.04191 0.46393 -0.04261
 O102 O -0.04036 0.53424 0.03973
 O103 O 0.04162 0.53433 -0.04190
 O104 O -0.04081 0.46385 0.03973
 H105 H -0.05681 0.44690 -0.05939
 H106 H -0.05693 0.55237 0.05632
 H107 H 0.05790 0.44652 0.05642
 H108 H 0.05826 0.55250 -0.05829
 H109 H -0.11117 0.48237 0.06224
 H110 H -0.06312 0.48119 0.11083
 H111 H 0.06398 0.51688 0.11144
 H112 H 0.11228 0.51674 0.06333
 H113 H 0.11261 0.48170 -0.06458
 H114 H 0.06441 0.48179 -0.11328
 H115 H -0.06279 0.51764 -0.11371
 H116 H -0.11117 0.51796 -0.06554
 O117 O 0.09998 -0.00191 0.44409
 O118 O 0.04726 -0.00063 0.39979
 C119 C 0.08507 -0.00203 0.40814
 O120 O -0.00323 -0.09947 0.55674
 O121 O -0.00162 -0.04648 0.60067
 C122 C -0.00308 -0.08434 0.59258
 O123 O 0.00229 -0.10017 0.44413
 O124 O 0.00045 -0.04773 0.39981
 C125 C 0.00217 -0.08548 0.40818
 O126 O 0.09994 0.00423 0.55669
 O127 O 0.04719 0.00280 0.60064
 C128 C 0.08500 0.00432 0.59254
 Zr129 Zr 0.07068 0.00112 0.50029
 O130 O 0.11539 -0.04340 0.50519
 O131 O 0.11505 0.04599 0.49567
 Zr132 Zr -0.00077 -0.07054 0.50030
 O133 O 0.04370 -0.11529 0.50517
 O134 O -0.04574 -0.11487 0.49569
 O135 O 0.04054 -0.04048 0.46465
 O136 O 0.04016 -0.03968 0.53511
 O137 O 0.00153 0.10221 0.55580
 O138 O -0.00082 0.04981 0.60009
 C139 C 0.00102 0.08755 0.59174
 O140 O -0.10157 0.00309 0.44338
 O141 O -0.04881 0.00120 0.39946
 C142 C -0.08663 0.00275 0.40753
 O143 O -0.10154 -0.00170 0.55609
 O144 O -0.04880 0.00030 0.60036
 C145 C -0.08661 -0.00135 0.59203
 O146 O -0.00380 0.10129 0.44326
 O147 O -0.00196 0.04826 0.39940
 C148 C -0.00363 0.08612 0.40743
 Zr149 Zr -0.00099 0.07240 0.49972
 O150 O -0.04583 0.11686 0.50395
 O151 O 0.04370 0.11695 0.49506
 Zr152 Zr -0.07232 0.00073 0.49981
 O153 O -0.11704 0.04530 0.50410
 O154 O -0.11669 -0.04419 0.49524
 Zr155 Zr -0.00080 0.00054 0.44044
 Zr156 Zr -0.00079 0.00129 0.55967
 O157 O -0.04182 0.04191 0.53453
 O158 O -0.04219 0.04186 0.46401
 O159 O 0.04036 0.04255 0.53577
 O160 O -0.04166 -0.04029 0.46519
 O161 O 0.04001 0.04171 0.46517
 O162 O -0.04203 -0.04020 0.53583
 H163 H 0.05678 -0.05608 0.55340
 H164 H -0.05814 -0.05699 0.44697
 H165 H -0.05852 0.05854 0.55251
 H166 H 0.05651 0.05818 0.44695
 H167 H -0.06419 -0.11110 0.51851
 H168 H -0.11260 -0.06290 0.51779
 H169 H -0.11294 0.06417 0.48172
 H170 H -0.06479 0.11250 0.48156
 H171 H 0.06255 0.11311 0.51761
 H172 H 0.11096 0.06497 0.51806
 H173 H 0.11132 -0.06252 0.48290
 H174 H 0.06320 -0.11077 0.48342
 C175 C -0.37476 0.11305 0.00498
 C176 C -0.34749 0.13659 0.00562
 C177 C -0.31533 0.16516 0.00608
 C178 C -0.31221 0.19284 0.03744
 C179 C -0.28184 0.22154 0.03722
 C180 C -0.25420 0.22297 0.00553
 C181 C -0.25735 0.19471 -0.02565
 C182 C -0.28773 0.16602 -0.02534
 C183 C -0.22287 0.25441 0.00455
 C184 C -0.21344 0.27378 -0.03161
 C185 C -0.18488 0.30427 -0.03234
 C186 C -0.16534 0.31578 0.00298
 C187 C -0.17417 0.29643 0.03903
 C188 C -0.20275 0.26594 0.03984
 C189 C -0.13690 0.34804 0.00231
 C190 C -0.11346 0.37539 0.00158
 H191 H -0.33354 0.19255 0.06182
 H192 H -0.28056 0.24320 0.06136
 H193 H -0.23624 0.19472 -0.05019
 H194 H -0.28986 0.14469 -0.04975
 H195 H -0.22877 0.26598 -0.05916
 H196 H -0.17837 0.31916 -0.06038
 H197 H -0.15915 0.30506 0.06654
 H198 H -0.20899 0.25126 0.06803
 C199 C 0.37582 0.88612 0.00550
 C200 C 0.34858 0.86257 0.00658
 C201 C 0.31652 0.83394 0.00771
 C202 C 0.31034 0.81098 0.04215
 C203 C 0.28018 0.78207 0.04279
 C204 C 0.25579 0.77571 0.00892
 C205 C 0.26193 0.79931 -0.02538
 C206 C 0.29213 0.82819 -0.02596
 C207 C 0.22478 0.74394 0.00901
 C208 C 0.18723 0.75040 -0.00900
 C209 C 0.15851 0.72002 -0.00976
 C210 C 0.16693 0.68285 0.00745
 C211 C 0.20406 0.67623 0.02568
 C212 C 0.23279 0.70654 0.02649
 C213 C 0.13791 0.65114 0.00578
 C214 C 0.11415 0.62409 0.00428
 H215 H 0.32902 0.81522 0.06840
 H216 H 0.27586 0.76475 0.06982
 H217 H 0.24401 0.79479 -0.05209
 H218 H 0.29677 0.84569 -0.05284
 H219 H 0.18000 0.77901 -0.02229
 H220 H 0.12983 0.72547 -0.02390
 H221 H 0.21095 0.64750 0.03893
 H222 H 0.26158 0.70043 0.04006
 C223 C 0.37551 0.11270 -0.00186
 C224 C 0.34815 0.13613 -0.00262
 C225 C 0.31592 0.16460 -0.00328
 C226 C 0.29606 0.17315 -0.03923
 C227 C 0.26561 0.20178 -0.04004
 C228 C 0.25464 0.22225 -0.00484
 C229 C 0.27454 0.21312 0.03122
 C230 C 0.30498 0.18452 0.03195
 C231 C 0.22325 0.25363 -0.00581
 C232 C 0.19551 0.25715 0.02565
 C233 C 0.16692 0.28763 0.02540
 C234 C 0.16564 0.31496 -0.00626
 C235 C 0.19277 0.31146 -0.03791
 C236 C 0.22138 0.28099 -0.03774
 C237 C 0.13720 0.34723 -0.00573
 C238 C 0.11376 0.37458 -0.00499
 H239 H 0.30426 0.15786 -0.06667
 H240 H 0.25053 0.20779 -0.06815
 H241 H 0.26720 0.22874 0.05869
 H242 H 0.32028 0.17825 0.05991
 H243 H 0.19586 0.23626 0.05039
 H244 H 0.14602 0.29004 0.05003
 H245 H 0.19215 0.33257 -0.06249
 H246 H 0.24263 0.27942 -0.06212
 C247 C -0.37507 0.88582 -0.00360
 C248 C -0.34787 0.86224 -0.00513
 C249 C -0.31597 0.83345 -0.00695
 C250 C -0.31691 0.80311 -0.03587
 C251 C -0.28684 0.77413 -0.03678
 C252 C -0.25537 0.77510 -0.00871
 C253 C -0.25436 0.80607 0.01990
 C254 C -0.28452 0.83502 0.02078
 C255 C -0.22435 0.74334 -0.00866
 C256 C -0.18389 0.75272 -0.00174
 C257 C -0.15493 0.72254 -0.00117
 C258 C -0.16605 0.68268 -0.00744
 C259 C -0.20618 0.67309 -0.01442
 C260 C -0.23514 0.70317 -0.01504
 C261 C -0.13659 0.65136 -0.00628
 C262 C -0.11266 0.62444 -0.00523
 H263 H -0.34108 0.80165 -0.05752
 H264 H -0.28815 0.75101 -0.05952
 H265 H -0.23080 0.80736 0.04219
 H266 H -0.28358 0.85831 0.04339
 H267 H -0.17461 0.78340 0.00286
 H268 H -0.12392 0.73029 0.00422
 H269 H -0.21514 0.64231 -0.01912
 H270 H -0.26608 0.69490 -0.01982
 C271 C 0.00409 -0.37592 0.11301
 C272 C 0.00467 -0.34862 0.13665
 C273 C 0.00500 -0.31641 0.16531
 C274 C 0.04096 -0.29757 0.17557
 C275 C 0.04137 -0.26707 0.20432
 C276 C 0.00575 -0.25504 0.22319
 C277 C -0.03029 -0.27394 0.21236
 C278 C -0.03062 -0.30442 0.18364
 C279 C 0.00622 -0.22352 0.25463
 C280 C -0.02452 -0.19487 0.25661
 C281 C -0.02474 -0.16607 0.28705
 C282 C 0.00574 -0.16549 0.31587
 C283 C 0.03667 -0.19357 0.31392
 C284 C 0.03697 -0.22239 0.28350
 C285 C 0.00472 -0.13679 0.34805
 C286 C 0.00366 -0.11315 0.37534
 H287 H 0.06871 -0.30657 0.16151
 H288 H 0.06951 -0.25277 0.21165
 H289 H -0.05811 -0.26577 0.22673
 H290 H -0.05860 -0.31893 0.17604
 H291 H -0.04832 -0.19465 0.23455
 H292 H -0.04881 -0.14443 0.28827
 H293 H 0.06032 -0.19350 0.33618
 H294 H 0.06075 -0.24434 0.28311
 C295 C 0.00395 0.37790 0.88707
 C296 C 0.00439 0.35055 0.86347
 C297 C 0.00449 0.31832 0.83483
 C298 C 0.04030 0.29915 0.82484
 C299 C 0.04048 0.26866 0.79609
 C300 C 0.00478 0.25696 0.77694
 C301 C -0.03111 0.27618 0.78751
 C302 C -0.03121 0.30666 0.81623
 C303 C 0.00503 0.22550 0.74544
 C304 C -0.02595 0.19711 0.74314
 C305 C -0.02632 0.16836 0.71265
 C306 C 0.00423 0.16759 0.68408
 C307 C 0.03538 0.19542 0.68634
 C308 C 0.03582 0.22418 0.71681
 C309 C 0.00316 0.13889 0.65189
 C310 C 0.00220 0.11524 0.62459
 H311 H 0.06810 0.30792 0.83911
 H312 H 0.06849 0.25411 0.78896
 H313 H -0.05897 0.26827 0.77292
 H314 H -0.05907 0.32142 0.82362
 H315 H -0.04980 0.19705 0.76500
 H316 H -0.05054 0.14690 0.71121
 H317 H 0.05909 0.19519 0.66428
 H318 H 0.05977 0.24594 0.71742
 C319 C -0.00340 0.37439 0.11174
 C320 C -0.00414 0.34702 0.13515
 C321 C -0.00467 0.31477 0.16360
 C322 C -0.04057 0.29537 0.17269
 C323 C -0.04122 0.26493 0.20134
 C324 C -0.00590 0.25351 0.22129
 C325 C 0.03010 0.27293 0.21159
 C326 C 0.03067 0.30335 0.18297
 C327 C -0.00668 0.22220 0.25277
 C328 C 0.02445 0.19406 0.25581
 C329 C 0.02443 0.16559 0.28642
 C330 C -0.00668 0.16485 0.31437
 C331 C -0.03802 0.19238 0.31133
 C332 C -0.03807 0.22086 0.28073
 C333 C -0.00587 0.13660 0.34682
 C334 C -0.00497 0.11335 0.37435
 H335 H -0.06810 0.30394 0.15782
 H336 H -0.06930 0.25023 0.20779
 H337 H 0.05768 0.26523 0.22680
 H338 H 0.05860 0.31829 0.17628
 H339 H 0.04877 0.19401 0.23446
 H340 H 0.04881 0.14437 0.28848
 H341 H -0.06216 0.19217 0.33291
 H342 H -0.06217 0.24243 0.27954
 C343 C -0.00251 -0.37536 0.88570
 C344 C -0.00299 -0.34795 0.86232
 C345 C -0.00318 -0.31561 0.83395
 C346 C -0.03704 -0.29140 0.82971
 C347 C -0.03748 -0.26065 0.80137
 C348 C -0.00399 -0.25373 0.77691
 C349 C 0.03002 -0.27805 0.78167
 C350 C 0.03037 -0.30877 0.80999
 C351 C -0.00471 -0.22188 0.74596
 C352 C 0.02933 -0.19820 0.73895
 C353 C 0.02910 -0.16929 0.70876
 C354 C -0.00510 -0.16362 0.68521
 C355 C -0.03928 -0.18664 0.69227
 C356 C -0.03913 -0.21556 0.72246
 C357 C -0.00470 -0.13508 0.65300
 C358 C -0.00410 -0.11166 0.62561
 H359 H -0.06316 -0.29640 0.84817
 H360 H -0.06391 -0.24215 0.79876
 H361 H 0.05604 -0.27387 0.76293
 H362 H 0.05669 -0.32743 0.81292
 H363 H 0.05609 -0.20198 0.75687
 H364 H 0.05571 -0.15159 0.70358
 H365 H -0.06586 -0.18262 0.67409
 H366 H -0.06562 -0.23363 0.72676
 C367 C 0.37497 0.00327 0.88819
 C368 C 0.34752 0.00403 0.86472
 C369 C 0.31518 0.00464 0.83619
 C370 C 0.29566 0.04055 0.82728
 C371 C 0.26512 0.04130 0.79856
 C372 C 0.25372 0.00607 0.77840
 C373 C 0.27328 -0.02993 0.78790
 C374 C 0.30381 -0.03060 0.81658
 C375 C 0.22223 0.00696 0.74693
 C376 C 0.19412 -0.02420 0.74377
 C377 C 0.16543 -0.02404 0.71322
 C378 C 0.16441 0.00723 0.68545
 C379 C 0.19193 0.03859 0.68860
 C380 C 0.22063 0.03851 0.71915
 C381 C 0.13592 0.00656 0.65306
 C382 C 0.11246 0.00570 0.62558
 H383 H 0.30419 0.06800 0.84233
 H384 H 0.25031 0.06937 0.79226
 H385 H 0.26560 -0.05743 0.77252
 H386 H 0.31885 -0.05853 0.82314
 H387 H 0.19426 -0.04864 0.76499
 H388 H 0.14423 -0.04845 0.71107
 H389 H 0.19152 0.06286 0.66715
 H390 H 0.24217 0.06264 0.72044
 C391 C -0.37695 0.00346 0.11219
 C392 C -0.34949 0.00445 0.13566
 C393 C -0.31716 0.00546 0.16418
 C394 C -0.28754 -0.02407 0.16339
 C395 C -0.25693 -0.02386 0.19203
 C396 C -0.25557 0.00593 0.22187
 C397 C -0.28526 0.03574 0.22210
 C398 C -0.31584 0.03546 0.19345
 C399 C -0.22395 0.00543 0.25321
 C400 C -0.20618 0.04124 0.26650
 C401 C -0.17743 0.04079 0.29701
 C402 C -0.16606 0.00460 0.31462
 C403 C -0.18323 -0.03122 0.30133
 C404 C -0.21196 -0.03085 0.27082
 C405 C -0.13756 0.00422 0.34700
 C406 C -0.11409 0.00368 0.37448
 H407 H -0.28826 -0.04740 0.14082
 H408 H -0.23425 -0.04691 0.19076
 H409 H -0.28537 0.05875 0.24498
 H410 H -0.33872 0.05836 0.19443
 H411 H -0.21441 0.06957 0.25320
 H412 H -0.16428 0.06868 0.30704
 H413 H -0.17477 -0.05938 0.31488
 H414 H -0.22546 -0.05884 0.26167
 C415 C 0.37629 -0.00462 0.11534
 C416 C 0.34898 -0.00559 0.13881
 C417 C 0.31671 -0.00649 0.16721
 C418 C 0.28605 0.02190 0.16507
 C419 C 0.25536 0.02179 0.19344
 C420 C 0.25495 -0.00676 0.22435
 C421 C 0.28570 -0.03543 0.22597
 C422 C 0.31636 -0.03525 0.19760
 C423 C 0.22315 -0.00610 0.25534
 C424 C 0.20658 -0.04195 0.26973
 C425 C 0.17761 -0.04128 0.29986
 C426 C 0.16482 -0.00481 0.31598
 C427 C 0.18080 0.03101 0.30157
 C428 C 0.20974 0.03042 0.27144
 C429 C 0.13615 -0.00414 0.34804
 C430 C 0.11259 -0.00332 0.37530
 H431 H 0.28600 0.04426 0.14163
 H432 H 0.23186 0.04393 0.19110
 H433 H 0.28654 -0.05743 0.24971
 H434 H 0.34004 -0.05726 0.19962
 H435 H 0.21592 -0.07050 0.25759
 H436 H 0.16540 -0.06919 0.31077
 H437 H 0.17124 0.05940 0.31397
 H438 H 0.22229 0.05848 0.26140
 C439 C -0.37579 -0.00396 0.88686
 C440 C -0.34857 -0.00478 0.86329
 C441 C -0.31645 -0.00552 0.83470
 C442 C -0.31433 -0.03624 0.80625
 C443 C -0.28393 -0.03631 0.77760
 C444 C -0.25523 -0.00556 0.77699
 C445 C -0.25738 0.02497 0.80601
 C446 C -0.28781 0.02496 0.83466
 C447 C -0.22381 -0.00485 0.74563
 C448 C -0.21312 0.03133 0.72708
 C449 C -0.18447 0.03189 0.69668
 C450 C -0.16607 -0.00364 0.68443
 C451 C -0.17617 -0.03973 0.70294
 C452 C -0.20486 -0.04037 0.73335
 C453 C -0.13756 -0.00311 0.65223
 C454 C -0.11409 -0.00243 0.62490
 H455 H -0.33646 -0.05990 0.80592
 H456 H -0.28341 -0.05993 0.75535
 H457 H -0.23545 0.04876 0.80665
 H458 H -0.28914 0.04886 0.85660
 H459 H -0.22757 0.05908 0.73544
 H460 H -0.17700 0.05996 0.68242
 H461 H -0.16207 -0.06740 0.69371
 H462 H -0.21209 -0.06860 0.74737
   
