data_POSCAR
  _audit_creation_date              2014-09-24
  _audit_creation_method            'ToBaCCo'
  _symmetry_space_group_name_H-M    'P1'
  _symmetry_Int_Tables_number       1
  _symmetry_cell_setting            triclinic
  loop_
  _symmetry_equiv_pos_as_xyz
 x,y,z
_cell_length_a 34.1400
_cell_length_b 34.1856
_cell_length_c 34.1793
_cell_angle_alpha 90.681200
_cell_angle_beta 90.449300
_cell_angle_gamma 78.137200
loop_
  _atom_site_label
  _atom_site_type_symbol
  _atom_site_fract_x
  _atom_site_fract_y
  _atom_site_fract_z
O1 O 0.53642 0.51213 0.00508
 O2 O 0.42661 0.52272 0.00474
 O3 O 0.48747 0.46261 0.00486
 O4 O 0.47587 0.57184 0.00426
 O5 O 0.47027 0.57127 -0.06014
 O6 O 0.49270 0.46110 -0.05951
 O7 O 0.42748 0.51598 -0.05945
 O8 O 0.53521 0.51645 -0.05935
 Cu9 Cu 0.48155 0.51737 0.01125
 Cu10 Cu 0.48133 0.51606 -0.06612
 C11 C 0.55430 0.51393 -0.02711
 C12 C 0.40831 0.51997 -0.02740
 C13 C 0.49274 0.44313 -0.02720
 C14 C 0.47074 0.59025 -0.02802
 O15 O -0.02033 0.54430 0.50848
 O16 O -0.01729 0.43609 0.51040
 O17 O -0.01887 0.49198 0.56343
 O18 O -0.01830 0.48940 0.45581
 O19 O 0.04769 0.47946 0.45655
 O20 O 0.04718 0.47650 0.56407
 O21 O 0.04871 0.42433 0.50779
 O22 O 0.04548 0.53280 0.51280
 Cu23 Cu -0.02533 0.49150 0.50954
 Cu24 Cu 0.05391 0.47721 0.51042
 C25 C 0.01196 0.55724 0.51074
 C26 C 0.01622 0.41174 0.50867
 C27 C 0.01407 0.48421 0.58211
 C28 C 0.01479 0.48447 0.43782
 O29 O 0.50641 0.01751 0.54477
 O30 O 0.50506 0.01808 0.43695
 O31 O 0.45407 0.01192 0.49160
 O32 O 0.55872 0.02376 0.49060
 O33 O 0.57903 -0.04186 0.49217
 O34 O 0.47439 -0.05367 0.48800
 O35 O 0.52840 -0.04712 0.43600
 O36 O 0.52611 -0.04807 0.54372
 Cu37 Cu 0.50415 0.02444 0.49095
 Cu38 Cu 0.52892 -0.05429 0.48974
 C39 C 0.51610 -0.01542 0.56283
 C40 C 0.51681 -0.01440 0.41807
 C41 C 0.44639 -0.02285 0.48995
 C42 C 0.58671 -0.00709 0.49198
 O43 O 0.45463 0.02471 -0.06480
 O44 O 0.45362 0.02150 0.04295
 O45 O 0.45369 0.07627 -0.00803
 O46 O 0.45407 -0.03132 -0.01317
 O47 O 0.52006 -0.04468 -0.00889
 O48 O 0.51974 0.06301 -0.01053
 O49 O 0.51970 0.00977 0.04384
 O50 O 0.52062 0.00721 -0.06392
 Cu51 Cu 0.44734 0.02398 -0.01104
 Cu52 Cu 0.52669 0.00761 -0.00996
 C53 C 0.48781 0.01607 -0.08270
 C54 C 0.48652 0.01558 0.06179
 C55 C 0.48662 0.08798 -0.00856
 C56 C 0.48711 -0.05634 -0.01084
 O57 O -0.07924 0.54258 1.00811
 O58 O 0.02614 0.55264 1.01247
 O59 O -0.02585 0.54799 0.95666
 O60 O -0.02839 0.54730 1.06424
 O61 O -0.00525 0.48205 1.06339
 O62 O -0.00807 0.48211 0.95584
 O63 O 0.04555 0.48696 1.00803
 O64 O -0.05982 0.47691 1.01059
 Cu65 Cu -0.02867 0.55427 1.01057
 Cu66 Cu -0.00504 0.47537 1.00951
 C67 C -0.08749 0.50804 1.00889
 C68 C 0.05374 0.52150 1.01010
 C69 C -0.01698 0.51510 0.93790
 C70 C -0.01683 0.51460 1.08218
 O71 O 0.02196 -0.07167 0.49410
 O72 O 0.01162 0.03756 0.49503
 O73 O 0.07175 -0.02273 0.49425
 O74 O -0.03799 -0.01129 0.49492
 O75 O -0.03608 -0.01678 0.55926
 O76 O 0.07151 -0.01719 0.55869
 O77 O 0.00704 0.03818 0.55946
 O78 O 0.02860 -0.07220 0.55847
 Cu79 Cu 0.01678 -0.01707 0.48804
 Cu80 Cu 0.01783 -0.01701 0.56550
 C81 C 0.02751 -0.09057 0.52609
 C82 C 0.00707 0.05658 0.52737
 C83 C 0.09009 -0.02041 0.52640
 C84 C -0.05552 -0.01348 0.52723
 C85 C -0.34674 0.53866 0.94556
 C86 C -0.32045 0.51902 0.97473
 C87 C -0.33594 0.49507 1.00183
 C88 C -0.37684 0.49370 1.00139
 C89 C -0.40255 0.51430 0.97292
 C90 C -0.38698 0.53601 0.94462
 C91 C -0.31054 0.47264 1.02920
 C92 C -0.26988 0.47294 1.02998
 C93 C -0.25322 0.49713 1.00433
 C94 C -0.27934 0.52198 0.97758
 C95 C -0.26386 0.54995 0.95552
 C96 C -0.22406 0.55303 0.95884
 C97 C -0.19772 0.52746 0.98310
 C98 C -0.21155 0.49831 1.00536
 C99 C -0.18286 0.47122 1.02727
 C100 C -0.14256 0.47401 1.02787
 C101 C -0.12974 0.50424 1.00742
 C102 C -0.15746 0.53084 0.98507
 H103 H -0.33694 0.55560 0.92252
 H104 H -0.38860 0.47612 1.02287
 H105 H -0.40625 0.55179 0.92206
 H106 H -0.32215 0.45426 1.05002
 H107 H -0.25241 0.45500 1.05219
 H108 H -0.28226 0.57113 0.93645
 H109 H -0.21369 0.57545 0.94184
 H110 H -0.19044 0.44696 1.04343
 H111 H -0.12142 0.45282 1.04493
 H112 H -0.14743 0.55372 0.96841
 C113 C 0.30724 0.50928 0.93838
 C114 C 0.28404 0.51803 0.97268
 C115 C 0.30275 0.53057 1.00638
 C116 C 0.34392 0.53068 1.00643
 C117 C 0.36694 0.52068 0.97244
 C118 C 0.34773 0.51104 0.93824
 C119 C 0.28025 0.54296 1.03986
 C120 C 0.23938 0.54375 1.04049
 C121 C 0.21968 0.53029 1.00810
 C122 C 0.24286 0.51528 0.97445
 C123 C 0.22457 0.49662 0.94435
 C124 C 0.18479 0.49333 0.94671
 C125 C 0.16118 0.50997 0.97822
 C126 C 0.17784 0.52995 1.00875
 C127 C 0.15171 0.54920 1.03835
 C128 C 0.11121 0.54720 1.03823
 C129 C 0.09583 0.52528 1.00929
 C130 C 0.12085 0.50678 0.97933
 H131 H 0.29469 0.50195 0.91088
 H132 H 0.35782 0.53930 1.03292
 H133 H 0.36418 0.50385 0.91123
 H134 H 0.29430 0.55264 1.06577
 H135 H 0.22422 0.55346 1.06754
 H136 H 0.24084 0.48262 0.91926
 H137 H 0.17224 0.47797 0.92332
 H138 H 0.16149 0.56684 1.06139
 H139 H 0.09197 0.56217 1.06128
 H140 H 0.10859 0.49057 0.95639
 C141 C -0.02741 -0.33351 0.50061
 C142 C 0.00666 -0.31732 0.50903
 C143 C 0.04231 -0.34403 0.52032
 C144 C 0.04434 -0.38556 0.51985
 C145 C 0.01036 -0.40130 0.51075
 C146 C -0.02563 -0.37460 0.50196
 C147 C 0.07560 -0.32909 0.53240
 C148 C 0.07395 -0.28812 0.53451
 C149 C 0.03940 -0.26043 0.52268
 C150 C 0.00617 -0.27547 0.50753
 C151 C -0.02594 -0.24837 0.49029
 C152 C -0.02622 -0.20775 0.48904
 C153 C 0.00455 -0.19230 0.50633
 C154 C 0.03731 -0.21821 0.52443
 C155 C 0.06605 -0.20060 0.54433
 C156 C 0.06264 -0.15911 0.54526
 C157 C 0.03130 -0.13417 0.52553
 C158 C 0.00248 -0.15089 0.50599
 H159 H -0.05627 -0.31506 0.49413
 H160 H 0.07220 -0.40551 0.52773
 H161 H -0.05266 -0.38541 0.49535
 H162 H 0.10302 -0.34928 0.54106
 H163 H 0.10088 -0.27896 0.54410
 H164 H -0.05068 -0.25796 0.47604
 H165 H -0.05122 -0.18811 0.47498
 H166 H 0.09069 -0.21802 0.56049
 H167 H 0.08481 -0.14646 0.56104
 H168 H -0.02238 -0.13137 0.49154
 C169 C 0.04856 0.30197 0.48387
 C170 C 0.02014 0.28480 0.50383
 C171 C -0.00879 0.31049 0.52699
 C172 C -0.01056 0.35196 0.52772
 C173 C 0.01755 0.36835 0.50734
 C174 C 0.04738 0.34300 0.48598
 C175 C -0.03552 0.29464 0.54955
 C176 C -0.03358 0.25364 0.55051
 C177 C -0.00570 0.22688 0.52757
 C178 C 0.02005 0.24300 0.50227
 C179 C 0.04412 0.21699 0.47554
 C180 C 0.04410 0.17640 0.47444
 C181 C 0.02127 0.15983 0.50077
 C182 C -0.00330 0.18460 0.52837
 C183 C -0.02366 0.16578 0.55619
 C184 C -0.02016 0.12430 0.55594
 C185 C 0.00288 0.10040 0.52756
 C186 C 0.02333 0.11840 0.49993
 H187 H 0.07280 0.28437 0.46733
 H188 H -0.03320 0.37142 0.54503
 H189 H 0.06968 0.35505 0.47038
 H190 H -0.05780 0.31409 0.56722
 H191 H -0.05535 0.24384 0.56859
 H192 H 0.06240 0.22740 0.45403
 H193 H 0.06275 0.15764 0.45312
 H194 H -0.04146 0.18215 0.57926
 H195 H -0.03579 0.11086 0.57789
 H196 H 0.04201 0.09987 0.47845
 C197 C 0.53239 -0.05109 -0.33463
 C198 C 0.51565 -0.01648 -0.31259
 C199 C 0.49731 0.01818 -0.33338
 C200 C 0.49854 0.01871 -0.37446
 C201 C 0.51570 -0.01577 -0.39601
 C202 C 0.53194 -0.05078 -0.37549
 C203 C 0.47749 0.05206 -0.31309
 C204 C 0.47454 0.05203 -0.27256
 C205 C 0.49292 0.01851 -0.25051
 C206 C 0.51572 -0.01538 -0.27074
 C207 C 0.53874 -0.04649 -0.24849
 C208 C 0.53873 -0.04502 -0.20785
 C209 C 0.51454 -0.01343 -0.18775
 C210 C 0.49030 0.01821 -0.20876
 C211 C 0.46383 0.04783 -0.18708
 C212 C 0.46264 0.04658 -0.14627
 C213 C 0.48830 0.01646 -0.12578
 C214 C 0.51423 -0.01344 -0.14664
 H215 H 0.54495 -0.07927 -0.32113
 H216 H 0.48494 0.04586 -0.38964
 H217 H 0.54497 -0.07815 -0.39098
 H218 H 0.46349 0.07874 -0.32876
 H219 H 0.45889 0.07943 -0.25911
 H220 H 0.55843 -0.07178 -0.26177
 H221 H 0.55743 -0.06924 -0.19197
 H222 H 0.44288 0.07166 -0.20088
 H223 H 0.44200 0.06967 -0.13059
 H224 H 0.53348 -0.03735 -0.13080
 C225 C 0.54511 -0.04253 0.31317
 C226 C 0.51838 -0.01320 0.29171
 C227 C 0.48987 0.01488 0.31307
 C228 C 0.49003 0.01480 0.35418
 C229 C 0.51710 -0.01412 0.37486
 C230 C 0.54416 -0.04304 0.35400
 C231 C 0.46118 0.04274 0.29332
 C232 C 0.45948 0.04293 0.25271
 C233 C 0.48745 0.01596 0.23006
 C234 C 0.51853 -0.01124 0.24990
 C235 C 0.54926 -0.03480 0.22736
 C236 C 0.54917 -0.03265 0.18681
 C237 C 0.51787 -0.00800 0.16697
 C238 C 0.48601 0.01596 0.18819
 C239 C 0.45370 0.03839 0.16649
 C240 C 0.45379 0.03780 0.12562
 C241 C 0.48621 0.01545 0.10500
 C242 C 0.51819 -0.00739 0.12588
 H243 H 0.56643 -0.06613 0.29927
 H244 H 0.46840 0.03679 0.37015
 H245 H 0.56509 -0.06596 0.36937
 H246 H 0.43940 0.06439 0.30947
 H247 H 0.43657 0.06561 0.23981
 H248 H 0.57469 -0.05437 0.24034
 H249 H 0.57369 -0.05091 0.17077
 H250 H 0.42743 0.05590 0.18020
 H251 H 0.42854 0.05535 0.11005
 H252 H 0.54301 -0.02545 0.11004
 C253 C 0.44112 -0.30127 -0.05731
 C254 C 0.46175 -0.28210 -0.02925
 C255 C 0.48575 -0.30637 -0.00112
 C256 C 0.48716 -0.34762 -0.00013
 C257 C 0.46665 -0.36601 -0.02811
 C258 C 0.44400 -0.34265 -0.05690
 C259 C 0.50876 -0.28954 0.02555
 C260 C 0.50967 -0.24921 0.02417
 C261 C 0.48639 -0.22374 -0.00325
 C262 C 0.46027 -0.23997 -0.02880
 C263 C 0.43304 -0.21346 -0.05237
 C264 C 0.43215 -0.17262 -0.05182
 C265 C 0.45937 -0.15680 -0.02908
 C266 C 0.48765 -0.18231 -0.00529
 C267 C 0.51669 -0.16541 0.01479
 C268 C 0.51663 -0.12472 0.01233
 C269 C 0.48737 -0.09944 -0.00960
 C270 C 0.45873 -0.11559 -0.03022
 H271 H 0.42368 -0.28533 -0.08072
 H272 H 0.50553 -0.36577 0.02167
 H273 H 0.42832 -0.35644 -0.07910
 H274 H 0.52690 -0.30791 0.04733
 H275 H 0.52802 -0.23852 0.04597
 H276 H 0.41100 -0.22329 -0.07066
 H277 H 0.41034 -0.15330 -0.06997
 H278 H 0.54057 -0.18302 0.03173
 H279 H 0.53931 -0.11285 0.02815
 H280 H 0.43654 -0.09618 -0.04793
 C281 C 0.52509 0.33404 -0.05548
 C282 C 0.50596 0.31493 -0.02691
 C283 C 0.48186 0.33943 0.00122
 C284 C 0.47895 0.38095 0.00167
 C285 C 0.49802 0.39926 -0.02683
 C286 C 0.52074 0.37559 -0.05557
 C287 C 0.46027 0.32250 0.02842
 C288 C 0.46076 0.28183 0.02751
 C289 C 0.48412 0.25616 0.00004
 C290 C 0.50895 0.27260 -0.02597
 C291 C 0.53640 0.24613 -0.04958
 C292 C 0.53853 0.20511 -0.04881
 C293 C 0.51237 0.18898 -0.02577
 C294 C 0.48408 0.21440 -0.00173
 C295 C 0.45611 0.19708 0.01871
 C296 C 0.45700 0.15619 0.01606
 C297 C 0.48611 0.13111 -0.00634
 C298 C 0.51393 0.14758 -0.02702
 H299 H 0.54247 0.31785 -0.07891
 H300 H 0.46058 0.39929 0.02349
 H301 H 0.53538 0.38927 -0.07814
 H302 H 0.44210 0.34104 0.05022
 H303 H 0.44342 0.27109 0.04966
 H304 H 0.55763 0.25621 -0.06815
 H305 H 0.56037 0.18587 -0.06710
 H306 H 0.43233 0.21450 0.03595
 H307 H 0.43496 0.14401 0.03194
 H308 H 0.53598 0.12829 -0.04509
 C309 C -0.31852 0.03095 0.47471
 C310 C -0.28971 0.00351 0.49613
 C311 C -0.30333 -0.02610 0.51789
 C312 C -0.34349 -0.02962 0.51580
 C313 C -0.37129 -0.00279 0.49380
 C314 C -0.35874 0.02795 0.47395
 C315 C -0.27690 -0.05208 0.54169
 C316 C -0.23713 -0.04900 0.54501
 C317 C -0.22183 -0.02060 0.52340
 C318 C -0.24808 0.00472 0.49712
 C319 C -0.23160 0.02935 0.47181
 C320 C -0.19093 0.02956 0.47243
 C321 C -0.16540 0.00660 0.49934
 C322 C -0.18074 -0.01773 0.52616
 C323 C -0.15433 -0.03789 0.55496
 C324 C -0.11406 -0.03549 0.55568
 C325 C -0.09865 -0.01346 0.52757
 C326 C -0.12449 0.00775 0.49958
 H327 H -0.31108 0.05558 0.45902
 H328 H -0.35337 -0.05290 0.53200
 H329 H -0.38000 0.04934 0.45721
 H330 H -0.28715 -0.07484 0.55829
 H331 H -0.21862 -0.07054 0.56365
 H332 H -0.24919 0.04768 0.44994
 H333 H -0.17942 0.04824 0.45185
 H334 H -0.16403 -0.05508 0.57784
 H335 H -0.09464 -0.05173 0.57788
 H336 H -0.11280 0.02560 0.47828
 C337 C 0.35160 -0.06099 0.47063
 C338 C 0.32304 -0.03410 0.49304
 C339 C 0.33682 -0.00462 0.51578
 C340 C 0.37684 -0.00077 0.51385
 C341 C 0.40442 -0.02718 0.49105
 C342 C 0.39174 -0.05772 0.47006
 C343 C 0.31070 0.02084 0.54048
 C344 C 0.27115 0.01728 0.54384
 C345 C 0.25572 -0.01110 0.52142
 C346 C 0.28154 -0.03578 0.49415
 C347 C 0.26476 -0.06028 0.46811
 C348 C 0.22421 -0.06102 0.46899
 C349 C 0.19917 -0.03877 0.49687
 C350 C 0.21488 -0.01459 0.52439
 C351 C 0.18911 0.00477 0.55411
 C352 C 0.14902 0.00182 0.55508
 C353 C 0.13314 -0.02000 0.52634
 C354 C 0.15840 -0.04048 0.49740
 H355 H 0.34406 -0.08547 0.45407
 H356 H 0.38684 0.02232 0.53093
 H357 H 0.41285 -0.07878 0.45267
 H358 H 0.32107 0.04353 0.55779
 H359 H 0.25286 0.03843 0.56323
 H360 H 0.28199 -0.07810 0.44553
 H361 H 0.21243 -0.07958 0.44786
 H362 H 0.19920 0.02172 0.57752
 H363 H 0.13009 0.01749 0.57801
 H364 H 0.14638 -0.05817 0.47559
 C365 C 0.04762 0.46228 1.33318
 C366 C 0.01493 0.48423 1.31162
 C367 C -0.01718 0.50767 1.33292
 C368 C -0.01736 0.50697 1.37397
 C369 C 0.01498 0.48461 1.39470
 C370 C 0.04764 0.46281 1.37402
 C371 C -0.04884 0.53191 1.31321
 C372 C -0.04903 0.53420 1.27269
 C373 C -0.01804 0.51114 1.25009
 C374 C 0.01338 0.48426 1.26980
 C375 C 0.04155 0.45759 1.24709
 C376 C 0.03975 0.45784 1.20650
 C377 C 0.01075 0.48549 1.18689
 C378 C -0.01797 0.51326 1.20834
 C379 C -0.04499 0.54247 1.18702
 C380 C -0.04416 0.54307 1.14621
 C381 C -0.01692 0.51438 1.12530
 C382 C 0.01047 0.48566 1.14582
 H383 H 0.07408 0.44526 1.31939
 H384 H -0.04237 0.52462 1.38990
 H385 H 0.07317 0.44567 1.38953
 H386 H -0.07356 0.54976 1.32932
 H387 H -0.07475 0.55341 1.25977
 H388 H 0.06470 0.43509 1.25990
 H389 H 0.06168 0.43643 1.19027
 H390 H -0.06643 0.56588 1.20101
 H391 H -0.06531 0.56584 1.13090
 H392 H 0.03223 0.46388 1.12976
 C393 C 0.04491 0.45947 0.68675
 C394 C 0.01342 0.48350 0.70827
 C395 C -0.01718 0.50907 0.68700
 C396 C -0.01723 0.50852 0.64593
 C397 C 0.01390 0.48413 0.62523
 C398 C 0.04516 0.46011 0.64594
 C399 C -0.04744 0.53528 0.70679
 C400 C -0.04760 0.53745 0.74737
 C401 C -0.01809 0.51235 0.76991
 C402 C 0.01170 0.48356 0.75005
 C403 C 0.03809 0.45515 0.77254
 C404 C 0.03619 0.45546 0.81309
 C405 C 0.00892 0.48482 0.83292
 C406 C -0.01797 0.51433 0.81173
 C407 C -0.04314 0.54502 0.83337
 C408 C -0.04236 0.54544 0.87422
 C409 C -0.01702 0.51512 0.89479
 C410 C 0.00857 0.48490 0.87397
 H411 H 0.07033 0.44067 0.70057
 H412 H -0.04109 0.52784 0.63000
 H413 H 0.06977 0.44135 0.63048
 H414 H -0.07101 0.55478 0.69070
 H415 H -0.07217 0.55830 0.76034
 H416 H 0.05979 0.43127 0.75954
 H417 H 0.05669 0.43272 0.82913
 H418 H -0.06304 0.56967 0.81964
 H419 H -0.06207 0.56935 0.88980
 H420 H 0.02890 0.46182 0.88982
   
