data_POSCAR
  _audit_creation_date              2014-09-24
  _audit_creation_method            'ToBaCCo'
  _symmetry_space_group_name_H-M    'P1'
  _symmetry_Int_Tables_number       1
  _symmetry_cell_setting            triclinic
  loop_
  _symmetry_equiv_pos_as_xyz
 x,y,z
_cell_length_a 12.0049
_cell_length_b 12.0438
_cell_length_c 14.9723
_cell_angle_alpha 89.688100
_cell_angle_beta 89.993600
_cell_angle_gamma 90.362500
loop_
  _atom_site_label
  _atom_site_type_symbol
  _atom_site_fract_x
  _atom_site_fract_y
  _atom_site_fract_z
O1 O 0.24709 0.04828 0.05306
 O2 O -0.24807 -0.05317 0.04785
 O3 O -0.04283 0.23426 0.06181
 O4 O 0.04147 -0.24078 0.06681
 O5 O -0.16156 0.11289 0.10703
 O6 O 0.15851 -0.12024 0.11417
 O7 O -0.12573 -0.15580 0.10433
 O8 O 0.12712 0.16078 0.09968
 C9 C 0.21570 0.11296 0.11188
 C10 C -0.21853 -0.11506 0.10976
 C11 C -0.11217 0.20222 0.11928
 C12 C 0.10711 -0.20849 0.12642
 O13 O 0.15745 -0.20234 -0.05384
 O14 O -0.15573 0.19594 -0.05907
 O15 O 0.18632 0.14872 -0.07939
 O16 O -0.18814 -0.15432 -0.07480
 O17 O -0.19050 0.01441 -0.11794
 O18 O 0.20957 -0.02352 -0.11012
 O19 O -0.00382 -0.20317 -0.11119
 O20 O 0.00252 0.19284 -0.11859
 Co21 Co 0.17375 -0.06755 0.00103
 Co22 Co -0.16951 0.05977 -0.00546
 Co23 Co 0.06197 0.16659 -0.00906
 Co24 Co -0.06291 -0.17100 -0.00372
 O25 O 0.00133 -0.00309 -0.00414
 C26 C 0.09454 -0.23046 -0.11588
 C27 C -0.09443 0.22378 -0.12187
 C28 C 0.22647 0.07526 -0.12876
 C29 C -0.21185 -0.08373 -0.13332
 O30 O 0.45410 0.24950 0.44393
 O31 O 0.54332 0.73189 0.43386
 O32 O 0.25438 0.53863 0.45132
 O33 O 0.74416 0.44610 0.43526
 O34 O 0.37503 0.64959 0.39866
 O35 O 0.62228 0.33251 0.38992
 O36 O 0.65133 0.60897 0.38134
 O37 O 0.33513 0.36829 0.39906
 C38 C 0.38583 0.28085 0.38613
 C39 C 0.60340 0.69848 0.37161
 C40 C 0.28364 0.60469 0.39127
 C41 C 0.71234 0.37914 0.37752
 O42 O 0.70056 0.34326 0.56363
 O43 O 0.31541 0.64525 0.57540
 O44 O 0.35052 0.29819 0.57237
 O45 O 0.66055 0.69145 0.54967
 O46 O 0.50411 0.68743 0.61383
 O47 O 0.52019 0.28874 0.61340
 O48 O 0.70540 0.51278 0.60373
 O49 O 0.30930 0.47811 0.62069
 Co50 Co 0.56793 0.32154 0.50235
 Co51 Co 0.44126 0.66027 0.50579
 Co52 Co 0.33113 0.42797 0.50965
 Co53 Co 0.67155 0.55741 0.49326
 O54 O 0.50261 0.49142 0.50267
 C55 C 0.72762 0.41525 0.61990
 C56 C 0.28699 0.57596 0.63344
 C57 C 0.42140 0.26643 0.62790
 C58 C 0.60191 0.71859 0.61417
 N59 N 0.41630 0.11798 0.28815
 N60 N 0.37133 0.07395 0.21592
 C61 C 0.28569 0.13753 0.18959
 C62 C 0.27473 0.22599 0.24772
 C63 C 0.35965 0.21032 0.30919
 H64 H 0.21386 0.29192 0.24566
 H65 H 0.48460 0.08538 0.32233
 H66 H 0.39711 0.00040 0.18606
 N67 N 0.56643 0.86031 0.27312
 N68 N 0.61419 0.91039 0.20424
 C69 C 0.70556 0.85312 0.18168
 C70 C 0.71681 0.76237 0.23787
 C71 C 0.62666 0.77023 0.29479
 H72 H 0.78244 0.70109 0.23853
 H73 H 0.49459 0.88778 0.30523
 H74 H 0.58675 0.98401 0.17475
 N75 N 0.80410 0.46347 0.76773
 N76 N 0.85123 0.41299 0.83608
 C77 C 0.86956 0.30683 0.81380
 C78 C 0.83104 0.28760 0.72804
 C79 C 0.78922 0.38940 0.70164
 H80 H 0.82893 0.21032 0.69185
 H81 H 0.77868 0.54614 0.76800
 H82 H 0.86654 0.44969 0.89797
 N83 N 0.14739 0.53248 0.75036
 N84 N 0.09499 0.58416 0.81526
 C85 C 0.13041 0.69016 0.81706
 C86 C 0.20851 0.70785 0.75028
 C87 C 0.21633 0.60529 0.70935
 H88 H 0.25377 0.78351 0.73462
 H89 H 0.13549 0.44890 0.73445
 H90 H 0.03819 0.54670 0.85890
 N91 N 0.45376 0.10683 0.72168
 N92 N 0.39298 0.04618 0.78478
 C93 C 0.29944 0.10329 0.80236
 C94 C 0.29486 0.19705 0.74781
 C95 C 0.39235 0.19517 0.69766
 H96 H 0.22958 0.25857 0.74525
 H97 H 0.52941 0.08248 0.69400
 H98 H 0.42087 -0.02566 0.81693
 N99 N 0.66531 0.90738 0.64984
 N100 N 0.71647 0.95885 0.71572
 C101 C 0.72851 0.88750 0.78446
 C102 C 0.68132 0.78599 0.76204
 C103 C 0.64191 0.80293 0.67599
 H104 H 0.67993 0.71024 0.80109
 H105 H 0.64962 0.94249 0.58717
 H106 H 0.74517 1.04062 0.71245
 N107 N 0.11750 0.57832 0.29424
 N108 N 0.07084 0.62797 0.22486
 C109 C 0.13100 0.71919 0.20360
 C110 C 0.22032 0.72788 0.26188
 C111 C 0.20838 0.63661 0.31827
 H112 H 0.28575 0.79016 0.26208
 H113 H 0.08952 0.50419 0.32315
 H114 H -0.00029 0.59910 0.19200
 N115 N 0.87183 0.41296 0.28401
 N116 N 0.92139 0.36329 0.21039
 C117 C 0.86163 0.27171 0.19037
 C118 C 0.77187 0.26179 0.24905
 C119 C 0.78160 0.35224 0.30634
 H120 H 0.70821 0.19766 0.24991
 H121 H 0.89818 0.48689 0.31351
 H122 H 0.99316 0.39249 0.17830
   
