data_POSCAR
  _audit_creation_date              2014-09-24
  _audit_creation_method            'ToBaCCo'
  _symmetry_space_group_name_H-M    'P1'
  _symmetry_Int_Tables_number       1
  _symmetry_cell_setting            triclinic
  loop_
  _symmetry_equiv_pos_as_xyz
 x,y,z
_cell_length_a 39.6138
_cell_length_b 39.8735
_cell_length_c 76.4631
_cell_angle_alpha 88.533300
_cell_angle_beta 90.600500
_cell_angle_gamma 120.479300
loop_
  _atom_site_label
  _atom_site_type_symbol
  _atom_site_fract_x
  _atom_site_fract_y
  _atom_site_fract_z
C1 C 0.01166 0.06247 0.52594
 H2 H 0.03831 0.06126 0.52546
 C3 C 0.01037 0.09073 0.53578
 H4 H 0.03601 0.11071 0.54313
 C5 C -0.05389 0.03790 0.51671
 H6 H -0.07849 0.01785 0.50890
 C7 C -0.05644 0.06586 0.52638
 H8 H -0.08316 0.06700 0.52592
 N9 N -0.02012 0.03680 0.51667
 C10 C 0.00150 -0.05809 0.50764
 H11 H 0.00081 -0.05837 0.49349
 C12 C 0.00438 -0.08697 0.51709
 H13 H 0.00574 -0.10947 0.51005
 C14 C -0.00237 -0.02988 0.53389
 H15 H -0.00612 -0.00828 0.54040
 C16 C 0.00073 -0.05803 0.54385
 H17 H 0.00039 -0.05702 0.55798
 Zn18 Zn -0.01264 0.00318 0.50235
 N19 N -0.00218 -0.03056 0.51611
 C20 C 0.06446 0.03618 0.48799
 N21 N 0.02997 0.03587 0.48753
 C22 C 0.02559 0.06201 0.47750
 C23 C 0.05666 0.09013 0.46744
 C24 C 0.09656 0.06412 0.47819
 C25 C -0.09087 -0.05463 0.49787
 C26 C -0.12385 -0.08211 0.48886
 C27 C -0.08845 -0.05557 0.46177
 C28 C -0.05621 -0.02872 0.47136
 N29 N -0.05786 -0.02885 0.48907
 H30 H 0.06753 0.01566 0.49638
 H31 H -0.00204 0.06139 0.47759
 H32 H 0.05235 0.11051 0.45951
 H33 H 0.12418 0.06481 0.47915
 H34 H -0.09134 -0.05424 0.51201
 H35 H -0.14953 -0.10076 0.49665
 H36 H -0.08411 -0.05527 0.44784
 H37 H -0.02926 -0.00888 0.46460
 C38 C 0.00343 -0.08755 0.53547
 C39 C -0.02382 0.09305 0.53592
 C40 C -0.12334 -0.08392 0.47036
 C41 C 0.09303 0.09198 0.46794
 C42 C 1.07004 0.02461 0.14105
 H43 H 1.06795 0.05064 0.14108
 C44 C 1.09838 0.02359 0.13081
 H45 H 1.11749 0.04878 0.12271
 C46 C 1.04764 -0.03957 0.15179
 H47 H 1.02849 -0.06367 0.16036
 C48 C 1.07583 -0.04177 0.14181
 H49 H 1.07799 -0.06774 0.14279
 N50 N 1.04540 -0.00662 0.15125
 C51 C 0.95357 0.01982 0.16179
 H52 H 0.95499 0.02084 0.17592
 C53 C 0.92555 0.02504 0.15290
 H54 H 0.90599 0.03085 0.16030
 C55 C 0.97701 0.01022 0.13510
 H56 H 0.99625 0.00319 0.12825
 C57 C 0.94932 0.01510 0.12568
 H58 H 0.94775 0.01186 0.11163
 Zn59 Zn 1.01181 0.00058 0.16606
 N60 N 0.97854 0.01254 0.15283
 C61 C 1.04678 0.07677 0.18021
 N62 N 1.04496 0.04176 0.18082
 C63 C 1.06966 0.03569 0.19108
 C64 C 1.09762 0.06543 0.20131
 C65 C 1.07459 0.10752 0.19017
 C66 C 0.95425 -0.07770 0.17051
 C67 C 0.92625 -0.11115 0.17948
 C68 C 0.94917 -0.07679 0.20657
 C69 C 0.97688 -0.04405 0.19708
 N70 N 0.97879 -0.04503 0.17937
 H71 H 1.02759 0.08131 0.17159
 H72 H 1.06791 0.00772 0.19110
 H73 H 1.11675 0.05975 0.20947
 H74 H 1.07641 0.13552 0.18912
 H75 H 0.95595 -0.07745 0.15639
 H76 H 0.90701 -0.13684 0.17216
 H77 H 0.94722 -0.07492 0.22059
 H78 H 0.99575 -0.01744 0.20384
 C79 C 0.92279 0.02218 0.13460
 C80 C 1.10202 -0.00968 0.13130
 C81 C 0.92302 -0.11083 0.19776
 C82 C 1.10080 0.10217 0.20076
 C83 C 0.04305 0.97735 0.85594
 H84 H 0.01522 0.95035 0.85640
 C85 C 0.07470 0.98054 0.86543
 H86 H 0.07068 0.95601 0.87345
 C87 C 0.08175 1.04186 0.84471
 H88 H 0.08445 1.06528 0.83627
 C89 C 0.11440 1.04627 0.85396
 H90 H 0.14212 1.07323 0.85256
 N91 N 0.04707 1.00764 0.84580
 C92 C -0.07498 0.97520 0.83879
 H93 H -0.07786 0.97217 0.82474
 C94 C -0.10641 0.97073 0.84877
 H95 H -0.13283 0.96480 0.84192
 C96 C -0.03523 0.99027 0.86399
 H97 H -0.00719 0.99870 0.86986
 C98 C -0.06564 0.98655 0.87446
 H99 H -0.06044 0.99045 0.88837
 Zn100 Zn 0.00308 0.99695 0.83201
 N101 N -0.04024 0.98494 0.84648
 C102 C -0.04005 0.91947 0.81894
 N103 N -0.00638 0.95466 0.81802
 C104 C 0.02423 0.96042 0.80793
 C105 C 0.02181 0.93019 0.79822
 C106 C -0.04371 0.88827 0.80943
 C107 C 0.01763 1.07247 0.82621
 C108 C 0.01975 1.10380 0.81665
 C109 C 0.01226 1.06915 0.79009
 C110 C 0.00998 1.03837 0.80017
 N111 N 0.01243 1.04046 0.81790
 H112 H -0.06364 0.91521 0.82741
 H113 H 0.05087 0.98855 0.80766
 H114 H 0.04653 0.93557 0.79022
 H115 H -0.07029 0.86018 0.81065
 H116 H 0.01873 1.07303 0.84035
 H117 H 0.02233 1.12830 0.82360
 H118 H 0.01010 1.06681 0.77600
 H119 H 0.00502 1.01239 0.79381
 C120 C -0.10198 0.97734 0.86694
 C121 C 0.11121 1.01508 0.86428
 C122 C 0.01647 1.10217 0.79833
 C123 C -0.01229 0.89335 0.79906
 C124 C 0.51270 0.00739 0.00713
 C125 C 0.51350 0.00852 -0.01070
 C126 C 0.48388 0.01228 -0.02133
 C127 C 0.54374 0.00494 -0.02041
 C128 C 0.54592 0.00997 0.01744
 C129 C 0.47903 0.00388 0.01715
 C130 C 0.46459 -0.01345 -0.03498
 C131 C 0.43594 -0.01098 -0.04476
 C132 C 0.42595 0.01732 -0.04112
 C133 C 0.44611 0.04379 -0.02776
 C134 C 0.47500 0.04148 -0.01806
 C135 C 0.54733 -0.02813 -0.01797
 C136 C 0.57571 -0.03151 -0.02716
 C137 C 0.60111 -0.00178 -0.03887
 C138 C 0.59729 0.03119 -0.04136
 C139 C 0.56857 0.03434 -0.03232
 C140 C 0.58411 0.04140 0.01481
 C141 C 0.61525 0.04376 0.02454
 C142 C 0.60877 0.01484 0.03719
 C143 C 0.57036 -0.01636 0.03993
 C144 C 0.53922 -0.01865 0.03020
 C145 C 0.48570 0.02972 0.03063
 C146 C 0.45433 0.02718 0.03996
 C147 C 0.41557 -0.00137 0.03603
 C148 C 0.40900 -0.02783 0.02278
 C149 C 0.44044 -0.02540 0.01352
 H150 H 0.47127 -0.03591 -0.03788
 H151 H 0.42163 -0.03126 -0.05521
 H152 H 0.43902 0.06581 -0.02456
 H153 H 0.49014 0.06222 -0.00785
 H154 H 0.52808 -0.05131 -0.00897
 H155 H 0.57821 -0.05710 -0.02494
 H156 H 0.56600 0.05992 -0.03443
 H157 H 0.58975 0.06424 0.00529
 H158 H 0.64433 0.06854 0.02235
 H159 H 0.56445 -0.03932 0.04942
 H160 H 0.50992 -0.04305 0.03245
 H161 H 0.51524 0.05223 0.03380
 H162 H 0.46047 0.04748 0.05033
 H163 H 0.37953 -0.05001 0.01935
 H164 H 0.43466 -0.04620 0.00342
 H165 H 0.61625 0.05431 -0.05045
 C166 C -0.02206 0.49129 0.67632
 C167 C -0.02283 0.49097 0.65851
 C168 C -0.02217 0.45970 0.64870
 C169 C -0.02345 0.52236 0.64794
 C170 C -0.02070 0.52357 0.68613
 C171 C -0.02159 0.45981 0.68689
 C172 C 0.00883 0.45241 0.65065
 C173 C 0.00863 0.42235 0.64155
 C174 C -0.02247 0.39921 0.63027
 C175 C -0.05311 0.40706 0.62814
 C176 C -0.05283 0.43716 0.63721
 C177 C 0.00694 0.54451 0.63602
 C178 C 0.00792 0.57539 0.62654
 C179 C -0.02176 0.58446 0.62865
 C180 C -0.05275 0.56152 0.64032
 C181 C -0.05362 0.53069 0.64986
 C182 C -0.05031 0.51553 0.69827
 C183 C -0.04989 0.54566 0.70737
 C184 C -0.01959 0.58437 0.70464
 C185 C 0.01045 0.59225 0.69269
 C186 C 0.00996 0.56209 0.68356
 C187 C -0.05185 0.42094 0.68561
 C188 C -0.04997 0.39146 0.69508
 C189 C -0.01785 0.40037 0.70604
 C190 C 0.01194 0.43950 0.70753
 C191 C 0.00994 0.46891 0.69813
 H192 H 0.03304 0.46990 0.65927
 H193 H 0.03252 0.41685 0.64352
 H194 H -0.07712 0.39014 0.61933
 H195 H -0.07682 0.44261 0.63544
 H196 H 0.03048 0.53849 0.63439
 H197 H 0.03248 0.59274 0.61787
 H198 H -0.07765 0.51348 0.65881
 H199 H -0.07401 0.48592 0.70052
 H200 H -0.07307 0.53863 0.71670
 H201 H 0.03405 0.62180 0.69024
 H202 H 0.03338 0.56876 0.67442
 H203 H -0.07673 0.41346 0.67719
 H204 H -0.07374 0.36173 0.69388
 H205 H 0.03733 0.44736 0.71564
 H206 H 0.03357 0.49877 0.69925
 H207 H -0.07643 0.56727 0.64202
 C208 C 0.50331 0.50141 0.34390
 C209 C 0.50432 0.50107 0.32608
 C210 C 0.53870 0.53115 0.31596
 C211 C 0.47137 0.47048 0.31586
 C212 C 0.47247 0.46799 0.35430
 C213 C 0.53255 0.53569 0.35381
 C214 C 0.53342 0.55189 0.30217
 C215 C 0.56552 0.57989 0.29247
 C216 C 0.60355 0.58743 0.29625
 C217 C 0.60868 0.56631 0.31000
 C218 C 0.57656 0.53837 0.31971
 C219 C 0.43266 0.46161 0.31860
 C220 C 0.40186 0.43221 0.30920
 C221 C 0.40921 0.41148 0.29666
 C222 C 0.44815 0.42125 0.29359
 C223 C 0.47887 0.45044 0.30308
 C224 C 0.46421 0.42982 0.35164
 C225 C 0.43429 0.39854 0.36109
 C226 C 0.41245 0.40487 0.37360
 C227 C 0.42173 0.44328 0.37663
 C228 C 0.45141 0.47447 0.36709
 C229 C 0.55275 0.53070 0.36787
 C230 C 0.57969 0.56266 0.37746
 C231 C 0.58679 0.60024 0.37323
 C232 C 0.56628 0.60510 0.35922
 C233 C 0.53926 0.57311 0.34967
 H234 H 0.50443 0.54667 0.29905
 H235 H 0.56061 0.59599 0.28213
 H236 H 0.63746 0.57091 0.31304
 H237 H 0.58115 0.52208 0.33008
 H238 H 0.42627 0.47728 0.32813
 H239 H 0.37224 0.42529 0.31197
 H240 H 0.50854 0.45711 0.30060
 H241 H 0.48066 0.42420 0.34211
 H242 H 0.42779 0.36936 0.35835
 H243 H 0.40610 0.44929 0.38643
 H244 H 0.45757 0.50370 0.36951
 H245 H 0.54785 0.50205 0.37132
 H246 H 0.59532 0.55805 0.38806
 H247 H 0.57058 0.63355 0.35585
 H248 H 0.52328 0.57748 0.33915
 H249 H 0.45494 0.40645 0.28377
 C250 C -0.02540 0.18462 0.56412
 C251 C 0.00792 0.19188 0.55462
 C252 C 0.00821 0.16224 0.54543
 C253 C -0.02475 0.12450 0.54553
 C254 C -0.05825 0.11723 0.55488
 C255 C -0.05858 0.14697 0.56408
 C256 C -0.02525 0.21619 0.57402
 N257 N -0.05788 0.21029 0.58249
 N258 N -0.05752 0.23876 0.59140
 C259 C -0.02450 0.27433 0.59225
 N260 N 0.00809 0.28019 0.58379
 N261 N 0.00771 0.25176 0.57487
 C262 C -0.02398 0.30613 0.60212
 C263 C 0.01091 0.34212 0.60375
 C264 C 0.01143 0.37221 0.61295
 C265 C -0.02293 0.36708 0.62068
 C266 C -0.05779 0.33111 0.61911
 C267 C -0.05831 0.30095 0.60996
 H268 H 0.03390 0.22055 0.55424
 H269 H 0.03421 0.16903 0.53807
 H270 H -0.08399 0.08839 0.55533
 H271 H -0.08473 0.14034 0.57127
 H272 H 0.03790 0.34718 0.59788
 H273 H 0.03863 0.39975 0.61378
 H274 H -0.08463 0.32615 0.62512
 H275 H -0.08567 0.27361 0.60901
 C276 C 0.82957 0.79269 0.22651
 C277 C 0.82322 0.80282 0.20956
 C278 C 0.85366 0.83368 0.20018
 C279 C 0.89129 0.85508 0.20745
 C280 C 0.89784 0.84450 0.22428
 C281 C 0.86733 0.81371 0.23371
 C282 C 0.79674 0.76102 0.23672
 N283 N 0.80130 0.75423 0.25384
 N284 N 0.77143 0.72649 0.26311
 C285 C 0.73575 0.70432 0.25565
 N286 N 0.73128 0.71098 0.23851
 N287 N 0.76110 0.73875 0.22926
 C288 C 0.70222 0.67396 0.26603
 C289 C 0.66632 0.64904 0.25789
 C290 C 0.63446 0.62090 0.26767
 C291 C 0.63765 0.61705 0.28584
 C292 C 0.67360 0.64181 0.29398
 C293 C 0.70553 0.66990 0.28418
 H294 H 0.79451 0.78739 0.20362
 H295 H 0.84737 0.84143 0.18738
 H296 H 0.92661 0.86002 0.23017
 H297 H 0.87332 0.80653 0.24669
 H298 H 0.66276 0.65118 0.24392
 H299 H 0.60739 0.60186 0.26095
 H300 H 0.67687 0.63995 0.30799
 H301 H 0.73268 0.68870 0.29089
 C302 C 0.20986 0.02042 -0.10863
 C303 C 0.18240 -0.01347 -0.11716
 C304 C 0.15091 -0.01482 -0.12610
 C305 C 0.14578 0.01758 -0.12667
 C306 C 0.17359 0.05180 -0.11843
 C307 C 0.20534 0.05322 -0.10950
 C308 C 0.24246 0.02092 -0.09870
 N309 N 0.27199 0.05440 -0.09204
 N310 N 0.30095 0.05436 -0.08300
 C311 C 0.30147 0.02082 -0.08019
 N312 N 0.27194 -0.01257 -0.08685
 N313 N 0.24312 -0.01251 -0.09591
 C314 C 0.33335 0.02033 -0.07007
 C315 C 0.33037 -0.01529 -0.06515
 C316 C 0.36028 -0.01614 -0.05571
 C317 C 0.39412 0.01859 -0.05104
 C318 C 0.39709 0.05427 -0.05588
 C319 C 0.36699 0.05513 -0.06526
 H320 H 0.18516 -0.03914 -0.11695
 H321 H 0.13058 -0.04132 -0.13267
 H322 H 0.17033 0.07718 -0.11856
 H323 H 0.22596 0.07979 -0.10306
 H324 H 0.30475 -0.04268 -0.06848
 H325 H 0.35664 -0.04412 -0.05189
 H326 H 0.42296 0.08156 -0.05266
 H327 H 0.37028 0.08307 -0.06889
 C328 C -0.00064 0.81623 0.56456
 C329 C 0.02327 0.83196 0.54963
 C330 C 0.02521 0.86361 0.54038
 C331 C 0.00311 0.88013 0.54578
 C332 C -0.02049 0.86460 0.56081
 C333 C -0.02222 0.83316 0.57012
 C334 C -0.00363 0.78200 0.57412
 N335 N -0.02256 0.76991 0.58975
 N336 N -0.02574 0.73884 0.59824
 C337 C -0.01028 0.71841 0.59142
 N338 N 0.00866 0.73050 0.57579
 N339 N 0.01195 0.76165 0.56733
 C340 C -0.01394 0.68373 0.60084
 C341 C -0.00310 0.65940 0.59267
 C342 C -0.00617 0.62694 0.60159
 C343 C -0.01991 0.61815 0.61894
 C344 C -0.03100 0.64235 0.62707
 C345 C -0.02816 0.67469 0.61811
 H346 H 0.04052 0.81982 0.54506
 H347 H 0.04412 0.87519 0.52901
 H348 H -0.03848 0.87608 0.56517
 H349 H -0.04110 0.82168 0.58151
 H350 H 0.00766 0.66531 0.57933
 H351 H 0.00201 0.60856 0.59484
 H352 H -0.04112 0.63678 0.64051
 H353 H -0.03662 0.69289 0.62482
 C354 C 0.19245 0.19659 0.22968
 C355 C 0.15526 0.19279 0.22814
 C356 C 0.12546 0.16223 0.21877
 C357 C 0.13225 0.13490 0.21068
 C358 C 0.16960 0.13907 0.21208
 C359 C 0.19924 0.16939 0.22150
 C360 C 0.22409 0.22852 0.23978
 N361 N 0.25782 0.22865 0.24332
 N362 N 0.28638 0.25719 0.25237
 C363 C 0.28254 0.28695 0.25823
 N364 N 0.24882 0.28688 0.25468
 N365 N 0.22015 0.25823 0.24567
 C366 C 0.31460 0.31874 0.26822
 C367 C 0.31355 0.35248 0.27208
 C368 C 0.34419 0.38259 0.28129
 C369 C 0.37647 0.37955 0.28692
 C370 C 0.37728 0.34563 0.28318
 C371 C 0.34682 0.31568 0.27390
 H372 H 0.14901 0.21318 0.23433
 H373 H 0.09692 0.15965 0.21809
 H374 H 0.17617 0.11911 0.20569
 H375 H 0.22761 0.17161 0.22227
 H376 H 0.28926 0.35586 0.26783
 H377 H 0.34288 0.40851 0.28376
 H378 H 0.40131 0.34199 0.28761
 H379 H 0.34847 0.28999 0.27128
 C380 C 0.80779 -0.02204 -0.10336
 C381 C 0.79850 -0.04516 -0.11817
 C382 C 0.82795 -0.04575 -0.12785
 C383 C 0.86771 -0.02357 -0.12287
 C384 C 0.87650 -0.00122 -0.10766
 C385 C 0.84707 -0.00030 -0.09817
 C386 C 0.77695 -0.01980 -0.09357
 N387 N 0.78664 0.00919 -0.08211
 N388 N 0.75903 0.01180 -0.07352
 C389 C 0.72052 -0.01457 -0.07596
 N390 N 0.71080 -0.04369 -0.08735
 N391 N 0.73843 -0.04618 -0.09602
 C392 C 0.68988 -0.01139 -0.06648
 C393 C 0.65117 -0.04287 -0.06566
 C394 C 0.62238 -0.03983 -0.05662
 C395 C 0.63159 -0.00509 -0.04841
 C396 C 0.67018 0.02646 -0.04931
 C397 C 0.69908 0.02327 -0.05815
 H398 H 0.76842 -0.06250 -0.12246
 H399 H 0.81904 -0.06462 -0.13896
 H400 H 0.90633 0.01750 -0.10341
 H401 H 0.85526 0.01786 -0.08680
 H402 H 0.64315 -0.06999 -0.07190
 H403 H 0.59276 -0.06448 -0.05622
 H404 H 0.67809 0.05344 -0.04296
 H405 H 0.72858 0.04810 -0.05857
 C406 C 0.19509 -0.00981 0.10249
 C407 C 0.15801 -0.04375 0.10382
 C408 C 0.12774 -0.04385 0.11316
 C409 C 0.13395 -0.01006 0.12141
 C410 C 0.17117 0.02366 0.12022
 C411 C 0.20128 0.02383 0.11084
 C412 C 0.22725 -0.00916 0.09244
 N413 N 0.26119 0.02489 0.08941
 N414 N 0.29022 0.02578 0.08041
 C415 C 0.28665 -0.00736 0.07407
 N416 N 0.25271 -0.04148 0.07710
 N417 N 0.22358 -0.04236 0.08607
 C418 C 0.31925 -0.00611 0.06414
 C419 C 0.31805 -0.04059 0.05949
 C420 C 0.34921 -0.03914 0.05037
 C421 C 0.38221 -0.00317 0.04562
 C422 C 0.38318 0.03125 0.05013
 C423 C 0.35217 0.02981 0.05932
 H424 H 0.15221 -0.07014 0.09750
 H425 H 0.09932 -0.07021 0.11370
 H426 H 0.17727 0.04994 0.12674
 H427 H 0.22953 0.05038 0.11024
 H428 H 0.29322 -0.06875 0.06307
 H429 H 0.34774 -0.06619 0.04728
 H430 H 0.40778 0.05942 0.04639
 H431 H 0.35399 0.05695 0.06255
 C432 C 0.78388 0.82622 0.44201
 C433 C 0.81133 0.86102 0.43357
 C434 C 0.84151 0.89109 0.44294
 C435 C 0.84561 0.88758 0.46126
 C436 C 0.81666 0.85261 0.46963
 C437 C 0.78660 0.82264 0.46017
 C438 C 0.75327 0.79344 0.43188
 N439 N 0.72743 0.75928 0.44001
 N440 N 0.70079 0.72939 0.43086
 C441 C 0.69884 0.73235 0.41319
 N442 N 0.72454 0.76658 0.40507
 N443 N 0.75119 0.79647 0.41421
 C444 C 0.66978 0.69873 0.40297
 C445 C 0.66792 0.70178 0.38467
 C446 C 0.64096 0.66988 0.37503
 C447 C 0.61528 0.63419 0.38347
 C448 C 0.61701 0.63116 0.40176
 C449 C 0.64391 0.66305 0.41141
 H450 H 0.80971 0.86512 0.41959
 H451 H 0.86051 0.91746 0.43557
 H452 H 0.81789 0.84643 0.48337
 H453 H 0.76595 0.79613 0.46714
 H454 H 0.68745 0.72875 0.37773
 H455 H 0.64063 0.67298 0.36093
 H456 H 0.59723 0.60421 0.40866
 H457 H 0.64443 0.65965 0.42548
 C458 C 0.00981 0.19294 0.76931
 C459 C 0.03553 0.20209 0.78355
 C460 C 0.03831 0.17282 0.79275
 C461 C 0.01526 0.13369 0.78800
 C462 C -0.01014 0.12465 0.77363
 C463 C -0.01271 0.15392 0.76436
 C464 C 0.00592 0.22373 0.75985
 N465 N -0.01473 0.21595 0.74471
 N466 N -0.01875 0.24342 0.73634
 C467 C -0.00244 0.27981 0.74278
 N468 N 0.01822 0.28760 0.75792
 N469 N 0.02235 0.26016 0.76626
 C470 C -0.00706 0.31035 0.73351
 C471 C 0.00455 0.34598 0.74146
 C472 C 0.00053 0.37490 0.73267
 C473 C -0.01495 0.36903 0.71565
 C474 C -0.02678 0.33329 0.70773
 C475 C -0.02300 0.30426 0.71658
 H476 H 0.05354 0.23189 0.78762
 H477 H 0.05859 0.18088 0.80358
 H478 H -0.02888 0.09479 0.76980
 H479 H -0.03297 0.14579 0.75352
 H480 H 0.01663 0.35153 0.75454
 H481 H 0.00933 0.40182 0.73926
 H482 H -0.03824 0.32803 0.69454
 H483 H -0.03210 0.27722 0.71003
 C484 C 0.83024 0.02621 0.10611
 C485 C 0.82329 0.00842 0.12283
 C486 C 0.85340 0.00757 0.13212
 C487 C 0.89129 0.02465 0.12497
 C488 C 0.89841 0.04294 0.10836
 C489 C 0.86823 0.04368 0.09903
 C490 C 0.79785 0.02583 0.09603
 N491 N 0.80331 0.03942 0.07921
 N492 N 0.77395 0.03826 0.07006
 C493 C 0.73787 0.02352 0.07734
 N494 N 0.73246 0.01010 0.09418
 N495 N 0.76180 0.01119 0.10332
 C496 C 0.70499 0.02169 0.06710
 C497 C 0.66848 0.00898 0.07506
 C498 C 0.63736 0.00686 0.06538
 C499 C 0.64193 0.01729 0.04750
 C500 C 0.67844 0.03005 0.03954
 C501 C 0.70961 0.03229 0.04923
 H502 H 0.79438 -0.00546 0.12867
 H503 H 0.84672 -0.00734 0.14475
 H504 H 0.92737 0.05681 0.10258
 H505 H 0.87469 0.05783 0.08623
 H506 H 0.66391 0.00076 0.08881
 H507 H 0.60981 -0.00252 0.07197
 H508 H 0.68276 0.03778 0.02573
 H509 H 0.73723 0.04202 0.04264
 C510 C 0.19141 0.18491 0.43990
 C511 C 0.18654 0.14743 0.44095
 C512 C 0.15474 0.11719 0.45007
 C513 C 0.12724 0.12386 0.45839
 C514 C 0.13260 0.16152 0.45755
 C515 C 0.16413 0.19156 0.44838
 C516 C 0.22442 0.21700 0.42997
 N517 N 0.22517 0.25100 0.42669
 N518 N 0.25458 0.27997 0.41774
 C519 C 0.28463 0.27629 0.41172
 N520 N 0.28397 0.24230 0.41501
 N521 N 0.25443 0.21322 0.42392
 C522 C 0.31730 0.30881 0.40181
 C523 C 0.35159 0.30812 0.39801
 C524 C 0.38250 0.33924 0.38888
 C525 C 0.37973 0.37163 0.38328
 C526 C 0.34526 0.37205 0.38694
 C527 C 0.31452 0.34113 0.39614
 H528 H 0.20699 0.14130 0.43453
 H529 H 0.15130 0.08846 0.45035
 H530 H 0.11258 0.16796 0.46416
 H531 H 0.16717 0.22014 0.44802
 H532 H 0.35476 0.28375 0.40225
 H533 H 0.40882 0.33819 0.38646
 H534 H 0.34178 0.39614 0.38251
 H535 H 0.28843 0.34251 0.39871
 C536 C -0.01678 0.79851 0.77113
 C537 C 0.01751 0.82547 0.77978
 C538 C 0.01872 0.85591 0.78891
 C539 C -0.01426 0.86032 0.78959
 C540 C -0.04874 0.83315 0.78112
 C541 C -0.04999 0.80257 0.77198
 C542 C -0.01756 0.76661 0.76122
 N543 N -0.05098 0.73913 0.75351
 N544 N -0.05142 0.71066 0.74457
 C545 C -0.01845 0.70849 0.74293
 N546 N 0.01493 0.73598 0.75064
 N547 N 0.01535 0.76440 0.75959
 C548 C -0.01878 0.67686 0.73300
 C549 C 0.01599 0.67612 0.73057
 C550 C 0.01575 0.64626 0.72130
 C551 C -0.01927 0.61634 0.71429
 C552 C -0.05403 0.61707 0.71668
 C553 C -0.05378 0.64702 0.72590
 H554 H 0.04356 0.82312 0.77954
 H555 H 0.04550 0.87587 0.79559
 H556 H -0.07454 0.83594 0.78129
 H557 H -0.07688 0.78234 0.76545
 H558 H 0.04349 0.69860 0.73586
 H559 H 0.04290 0.64624 0.71984
 H560 H -0.08138 0.59465 0.71124
 H561 H -0.08107 0.64669 0.72748
   
