data_POSCAR
  _audit_creation_date              2014-09-24
  _audit_creation_method            'ToBaCCo'
  _symmetry_space_group_name_H-M    'P1'
  _symmetry_Int_Tables_number       1
  _symmetry_cell_setting            triclinic
  loop_
  _symmetry_equiv_pos_as_xyz
 x,y,z
_cell_length_a 38.2803
_cell_length_b 37.5453
_cell_length_c 38.8691
_cell_angle_alpha 90.214400
_cell_angle_beta 89.965300
_cell_angle_gamma 89.929000
loop_
  _atom_site_label
  _atom_site_type_symbol
  _atom_site_fract_x
  _atom_site_fract_y
  _atom_site_fract_z
C1 C 0.37565 0.27328 -0.02662
 C2 C 0.38421 0.25769 0.00505
 C3 C 0.36696 0.26669 0.03540
 C4 C 0.33821 0.29009 0.03436
 C5 C 0.32825 0.30568 0.00257
 C6 C 0.34718 0.29760 -0.02802
 C7 C 0.33897 0.31631 -0.05825
 C8 C 0.31204 0.34122 -0.05892
 C9 C 0.29190 0.34850 -0.02944
 C10 C 0.30062 0.33100 0.00185
 C11 C 0.31990 0.29901 0.06448
 C12 C 0.29274 0.32359 0.06375
 C13 C 0.28309 0.34021 0.03289
 C14 C 0.25654 0.36619 0.03234
 C15 C 0.24736 0.38210 0.00137
 C16 C 0.26520 0.37486 -0.02942
 H17 H 0.35404 0.31284 -0.08155
 H18 H 0.30795 0.35545 -0.08270
 H19 H 0.32666 0.28720 0.08897
 H20 H 0.27950 0.32970 0.08768
 H21 H 0.40579 0.23895 0.00645
 H22 H 0.22653 0.40176 0.00157
 C23 C 0.73692 0.62774 -0.03285
 C24 C 0.75171 0.61589 -0.00193
 C25 C 0.74019 0.62830 0.03006
 C26 C 0.71300 0.65369 0.03171
 C27 C 0.69803 0.66661 0.00078
 C28 C 0.71053 0.65432 -0.03161
 C29 C 0.69721 0.66985 -0.06178
 C30 C 0.67031 0.69474 -0.06036
 C31 C 0.65606 0.70549 -0.02868
 C32 C 0.67054 0.69200 0.00223
 C33 C 0.70095 0.66709 0.06339
 C34 C 0.67376 0.69173 0.06479
 C35 C 0.65759 0.70382 0.03456
 C36 C 0.62884 0.72756 0.03570
 C37 C 0.61456 0.74012 0.00490
 C38 C 0.62782 0.72965 -0.02707
 H39 H 0.70738 0.66273 -0.08686
 H40 H 0.66065 0.70538 -0.08439
 H41 H 0.71244 0.65863 0.08745
 H42 H 0.66539 0.70110 0.08983
 H43 H 0.77194 0.59559 -0.00262
 H44 H 0.59248 0.75826 0.00582
 C45 C 0.62977 0.26703 1.03103
 C46 C 0.61829 0.25539 0.99864
 C47 C 0.63225 0.26899 0.96824
 C48 C 0.65966 0.29395 0.96966
 C49 C 0.67234 0.30553 1.00209
 C50 C 0.65770 0.29185 1.03294
 C51 C 0.67197 0.30268 1.06468
 C52 C 0.69878 0.32774 1.06615
 C53 C 0.71248 0.34269 1.03594
 C54 C 0.69945 0.33120 1.00361
 C55 C 0.67448 0.30774 0.93944
 C56 C 0.70062 0.33333 0.94096
 C57 C 0.71313 0.34573 0.97276
 C58 C 0.73883 0.37259 0.97453
 C59 C 0.75175 0.38329 1.00647
 C60 C 0.73909 0.36870 1.03703
 H61 H 0.66242 0.29188 1.08868
 H62 H 0.70863 0.33541 1.09120
 H63 H 0.66577 0.29904 0.91429
 H64 H 0.71096 0.34335 0.91695
 H65 H 0.59667 0.23677 0.99696
 H66 H 0.77146 0.40402 1.00763
 C67 C 0.25739 0.63003 1.01867
 C68 C 0.24714 0.61802 0.98597
 C69 C 0.26378 0.62927 0.95603
 C70 C 0.29113 0.65425 0.95813
 C71 C 0.30267 0.66630 0.99087
 C72 C 0.28613 0.65391 1.02135
 C73 C 0.29789 0.66697 1.05332
 C74 C 0.32649 0.68982 1.05550
 C75 C 0.34351 0.70195 1.02571
 C76 C 0.33101 0.69061 0.99304
 C77 C 0.30747 0.66704 0.92828
 C78 C 0.33512 0.69084 0.93041
 C79 C 0.34731 0.70289 0.96246
 C80 C 0.37576 0.72663 0.96474
 C81 C 0.38880 0.73617 0.99695
 C82 C 0.37355 0.72396 1.02746
 H83 H 0.28517 0.65963 1.07710
 H84 H 0.33505 0.69804 1.08084
 H85 H 0.29905 0.65856 0.90296
 H86 H 0.34709 0.69950 0.90664
 H87 H 0.22646 0.59836 0.98378
 H88 H 0.41138 0.75361 0.99830
 C89 C 0.04164 0.27565 0.37997
 C90 C 0.01118 0.25903 0.39131
 C91 C -0.02193 0.26866 0.37902
 C92 C -0.02470 0.29709 0.35511
 C93 C 0.00620 0.31396 0.34298
 C94 C 0.03947 0.30288 0.35512
 C95 C 0.06972 0.31898 0.34190
 C96 C 0.06750 0.34570 0.31734
 C97 C 0.03497 0.35697 0.30476
 C98 C 0.00397 0.34126 0.31784
 C99 C -0.05709 0.30762 0.34128
 C100 C -0.05931 0.33491 0.31722
 C101 C -0.02917 0.35227 0.30532
 C102 C -0.03104 0.37934 0.28004
 C103 C -0.00009 0.39381 0.26694
 C104 C 0.03262 0.38319 0.27893
 H105 H 0.09547 0.31089 0.35032
 H106 H 0.09160 0.35725 0.30802
 H107 H -0.08113 0.29451 0.34846
 H108 H -0.08490 0.34186 0.30747
 H109 H 0.01334 0.23813 0.41044
 H110 H -0.00144 0.41420 0.24723
 C111 C 0.03002 0.61896 0.72118
 C112 C -0.00176 0.60458 0.73176
 C113 C -0.03374 0.61859 0.72068
 C114 C -0.03383 0.64695 0.69662
 C115 C -0.00159 0.66185 0.68573
 C116 C 0.03042 0.64816 0.69853
 C117 C 0.06204 0.66351 0.68796
 C118 C 0.06240 0.69093 0.66408
 C119 C 0.03117 0.70376 0.64976
 C120 C -0.00124 0.68978 0.66119
 C121 C -0.06501 0.65948 0.68184
 C122 C -0.06463 0.68646 0.65734
 C123 C -0.03312 0.70257 0.64707
 C124 C -0.03223 0.72956 0.62151
 C125 C 0.00024 0.74204 0.60996
 C126 C 0.03162 0.72951 0.62349
 H127 H 0.08686 0.65409 0.69772
 H128 H 0.08749 0.70157 0.65642
 H129 H -0.08998 0.64795 0.68861
 H130 H -0.08935 0.69424 0.64618
 H131 H -0.00150 0.58241 0.74964
 H132 H 0.00120 0.76193 0.58977
 C133 C 0.97033 0.72964 0.38117
 C134 C 1.00243 0.74147 0.39390
 C135 C 1.03402 0.72988 0.37956
 C136 C 1.03361 0.70640 0.35101
 C137 C 1.00124 0.69329 0.33860
 C138 C 0.96947 0.70474 0.35392
 C139 C 0.93765 0.69146 0.34129
 C140 C 0.93700 0.66729 0.31412
 C141 C 0.96810 0.65609 0.29821
 C142 C 1.00057 0.66918 0.31042
 C143 C 1.06462 0.69607 0.33436
 C144 C 1.06396 0.67280 0.30639
 C145 C 1.03227 0.65857 0.29426
 C146 C 1.03103 0.63567 0.26515
 C147 C 0.99862 0.62307 0.25366
 C148 C 0.96755 0.63239 0.27008
 H149 H 0.91294 0.69960 0.35237
 H150 H 0.91182 0.65785 0.30530
 H151 H 1.08972 0.70627 0.34257
 H152 H 1.08856 0.66646 0.29410
 H153 H 1.00281 0.76023 0.41519
 H154 H 0.99757 0.60466 0.23206
 C155 C 1.02790 0.26183 0.62629
 C156 C 0.99605 0.25050 0.61258
 C157 C 0.96421 0.26201 0.62626
 C158 C 0.96389 0.28615 0.65423
 C159 C 0.99603 0.29784 0.66854
 C160 C 1.02813 0.28496 0.65507
 C161 C 1.05956 0.29542 0.67073
 C162 C 1.05964 0.31963 0.69790
 C163 C 1.02832 0.33479 0.71009
 C164 C 0.99611 0.32262 0.69621
 C165 C 0.93240 0.29872 0.66835
 C166 C 0.93245 0.32283 0.69569
 C167 C 0.96399 0.33538 0.70972
 C168 C 0.96435 0.36004 0.73722
 C169 C 0.99620 0.37223 0.75023
 C170 C 1.02827 0.36117 0.73639
 H171 H 1.08443 0.28508 0.66195
 H172 H 1.08456 0.32668 0.70913
 H173 H 0.90744 0.29003 0.65828
 H174 H 0.90749 0.33160 0.70575
 H175 H 0.99602 0.23248 0.59067
 H176 H 0.99580 0.39239 0.77034
 C177 C 0.37420 0.02659 0.26739
 C178 C 0.38142 -0.00604 0.25161
 C179 C 0.36840 -0.03822 0.26457
 C180 C 0.34697 -0.03750 0.29444
 C181 C 0.33816 -0.00423 0.30981
 C182 C 0.35162 0.02792 0.29607
 C183 C 0.34227 0.06056 0.31134
 C184 C 0.32011 0.06172 0.33972
 C185 C 0.30680 0.03025 0.35404
 C186 C 0.31585 -0.00306 0.33902
 C187 C 0.33276 -0.06884 0.30840
 C188 C 0.31144 -0.06773 0.33740
 C189 C 0.30238 -0.03513 0.35296
 C190 C 0.28069 -0.03367 0.38252
 C191 C 0.27274 -0.00060 0.39736
 C192 C 0.28449 0.03120 0.38296
 H193 H 0.35190 0.08555 0.30127
 H194 H 0.31368 0.08751 0.35057
 H195 H 0.33775 -0.09462 0.29689
 H196 H 0.30183 -0.09275 0.34738
 H197 H 0.39913 -0.00651 0.22978
 H198 H 0.25549 0.00056 0.41953
 C199 C 0.62605 -0.02605 0.73309
 C200 C 0.61457 0.00744 0.74443
 C201 C 0.62395 0.03877 0.72757
 C202 C 0.64589 0.03722 0.69845
 C203 C 0.65816 0.00366 0.68661
 C204 C 0.64801 -0.02816 0.70368
 C205 C 0.66188 -0.06086 0.69222
 C206 C 0.68471 -0.06243 0.66437
 C207 C 0.69486 -0.03134 0.64710
 C208 C 0.68148 0.00204 0.65823
 C209 C 0.65658 0.06837 0.68149
 C210 C 0.67938 0.06673 0.65359
 C211 C 0.69232 0.03390 0.64175
 C212 C 0.71636 0.03201 0.61421
 C213 C 0.72904 -0.00107 0.60343
 C214 C 0.71893 -0.03256 0.61961
 H215 H 0.65589 -0.08556 0.70516
 H216 H 0.69478 -0.08825 0.65679
 H217 H 0.64775 0.09437 0.68995
 H218 H 0.68706 0.09147 0.64154
 H219 H 0.59727 0.00920 0.76652
 H220 H 0.74793 -0.00225 0.58262
 C221 C 0.26895 0.96709 0.63471
 C222 C 0.25375 0.99872 0.62336
 C223 C 0.26487 1.03206 0.63534
 C224 C 0.29241 1.03379 0.65973
 C225 C 0.30718 1.00167 0.67248
 C226 C 0.29510 0.96821 0.66026
 C227 C 0.30942 0.93678 0.67383
 C228 C 0.33545 0.93809 0.69880
 C229 C 0.34833 0.97088 0.71079
 C230 C 0.33404 1.00298 0.69760
 C231 C 0.30432 1.06651 0.67306
 C232 C 0.33102 1.06778 0.69733
 C233 C 0.34637 1.03638 0.70972
 C234 C 0.37362 1.03741 0.73418
 C235 C 0.38727 1.00564 0.74697
 C236 C 0.37476 0.97256 0.73606
 H237 H 0.30040 0.91088 0.66535
 H238 H 0.34546 0.91314 0.70859
 H239 H 0.29287 1.09152 0.66513
 H240 H 0.33935 1.09365 0.70658
 H241 H 0.23380 0.99738 0.60354
 H242 H 0.40801 1.00665 0.76598
 C243 C 0.61926 0.96510 0.26988
 C244 C 0.61077 0.99711 0.25382
 C245 C 0.62532 1.02960 0.26430
 C246 C 0.64959 1.03001 0.29191
 C247 C 0.65933 0.99741 0.30778
 C248 C 0.64406 0.96485 0.29675
 C249 C 0.65437 0.93285 0.31239
 C250 C 0.67973 0.93263 0.33805
 C251 C 0.69556 0.96441 0.34907
 C252 C 0.68512 0.99722 0.33409
 C253 C 0.66609 1.06166 0.30251
 C254 C 0.69135 1.06147 0.32827
 C255 C 0.70123 1.02963 0.34453
 C256 C 0.72845 1.02878 0.36929
 C257 C 0.73818 0.99612 0.38370
 C258 C 0.72208 0.96425 0.37431
 H259 H 0.64324 0.90761 0.30454
 H260 H 0.68715 0.90723 0.34894
 H261 H 0.66035 1.08685 0.29031
 H262 H 0.70373 1.08653 0.33464
 H263 H 0.59156 0.99681 0.23327
 H264 H 0.75856 0.99550 0.40312
 O265 O 0.82135 0.87295 0.53518
 O266 O 0.86954 0.82793 0.46660
 O267 O 0.81809 0.87303 0.46867
 O268 O 0.87050 0.82524 0.53267
 O269 O 0.83138 0.78194 0.53399
 O270 O 0.77965 0.82923 0.46824
 O271 O 0.83205 0.78325 0.46752
 O272 O 0.78170 0.83030 0.53538
 Cu273 Cu 0.84862 0.85419 0.50076
 Cu274 Cu 0.80215 0.80185 0.50123
 C275 C 0.79336 0.85973 0.54692
 C276 C 0.85968 0.79767 0.45587
 C277 C 0.78971 0.85957 0.45787
 C278 C 0.86017 0.79528 0.54375
 O279 O 0.17590 0.12410 0.53331
 O280 O 0.13600 0.17761 0.46530
 O281 O 0.18255 0.12716 0.46674
 O282 O 0.12861 0.17324 0.53075
 O283 O 0.16936 0.21411 0.53746
 O284 O 0.22476 0.16655 0.47390
 O285 O 0.17741 0.21789 0.47086
 O286 O 0.21693 0.16463 0.54069
 Cu287 Cu 0.15186 0.14635 0.49825
 Cu288 Cu 0.20139 0.19486 0.50618
 C289 C 0.20265 0.13544 0.54920
 C290 C 0.14917 0.20739 0.45702
 C291 C 0.21279 0.13867 0.45952
 C292 C 0.13926 0.20188 0.54463
 O293 O 0.18091 0.87281 0.46977
 O294 O 0.13132 0.82413 0.53508
 O295 O 0.18034 0.87227 0.53650
 O296 O 0.13283 0.82403 0.46910
 O297 O 0.17356 0.78263 0.46836
 O298 O 0.22036 0.82994 0.53798
 O299 O 0.17117 0.78170 0.53539
 O300 O 0.22247 0.83191 0.47126
 Cu301 Cu 0.15242 0.85259 0.50261
 Cu302 Cu 0.20097 0.80228 0.50322
 C303 C 0.21030 0.86103 0.45982
 C304 C 0.14204 0.79408 0.54559
 C305 C 0.20866 0.85974 0.54843
 C306 C 0.14453 0.79463 0.45763
 O307 O 0.87222 0.16448 0.53234
 O308 O 0.82968 0.11813 0.46049
 O309 O 0.88144 0.16324 0.46651
 O310 O 0.82184 0.11884 0.52644
 O311 O 0.78434 0.16329 0.52190
 O312 O 0.84360 0.20679 0.45944
 O313 O 0.79138 0.16171 0.45535
 O314 O 0.83595 0.20979 0.52627
 Cu315 Cu 0.85503 0.13682 0.49690
 Cu316 Cu 0.81009 0.18996 0.49030
 C317 C 0.86163 0.19514 0.54140
 C318 C 0.80311 0.13155 0.44584
 C319 C 0.87282 0.19232 0.45234
 C320 C 0.79279 0.13310 0.53407
 O321 O 0.53610 0.82872 0.88048
 O322 O 0.46972 0.87981 0.83451
 O323 O 0.46898 0.82718 0.87734
 O324 O 0.53729 0.87937 0.83453
 O325 O 0.53864 0.84052 0.79188
 O326 O 0.47125 0.78693 0.83570
 O327 O 0.47000 0.84034 0.79233
 O328 O 0.53858 0.78949 0.83816
 Cu329 Cu 0.50301 0.85777 0.86082
 Cu330 Cu 0.50487 0.81055 0.81003
 C331 C 0.54790 0.79988 0.86794
 C332 C 0.45796 0.86869 0.80599
 C333 C 0.45904 0.79789 0.86420
 C334 C 0.54966 0.86900 0.80587
 O335 O 0.53075 0.17312 0.12109
 O336 O 0.46678 0.12233 0.17110
 O337 O 0.46350 0.17265 0.12515
 O338 O 0.53410 0.12336 0.16722
 O339 O 0.53702 0.16380 0.20841
 O340 O 0.46525 0.21327 0.16616
 O341 O 0.46922 0.16251 0.21265
 O342 O 0.53369 0.21368 0.16203
 Cu343 Cu 0.49848 0.14384 0.14208
 Cu344 Cu 0.50132 0.19250 0.19142
 C345 C 0.54300 0.20224 0.13262
 C346 C 0.45780 0.13318 0.20076
 C347 C 0.45276 0.20183 0.13793
 C348 C 0.54781 0.13499 0.19478
 O349 O 0.53512 0.13282 0.82487
 O350 O 0.47059 0.17953 0.87797
 O351 O 0.46765 0.13316 0.82678
 O352 O 0.53762 0.18055 0.87207
 O353 O 0.53643 0.22303 0.83307
 O354 O 0.46431 0.17667 0.78893
 O355 O 0.46874 0.22344 0.84029
 O356 O 0.53224 0.17476 0.78521
 Cu357 Cu 0.50259 0.15216 0.85423
 Cu358 Cu 0.49980 0.20380 0.80797
 C359 C 0.54497 0.14571 0.79638
 C360 C 0.45980 0.21004 0.86901
 C361 C 0.45495 0.14617 0.79938
 C362 C 0.54881 0.21004 0.86057
 O363 O 0.52673 0.86877 0.17416
 O364 O 0.46399 0.81739 0.12257
 O365 O 0.45950 0.86665 0.16948
 O366 O 0.53155 0.81867 0.12802
 O367 O 0.53075 0.77821 0.16879
 O368 O 0.45664 0.82575 0.20998
 O369 O 0.46270 0.77570 0.16255
 O370 O 0.52436 0.82853 0.21538
 Cu371 Cu 0.49566 0.84689 0.14453
 Cu372 Cu 0.49337 0.79788 0.19324
 C373 C 0.53564 0.85797 0.20379
 C374 C 0.45311 0.78759 0.13345
 C375 C 0.44571 0.85462 0.19675
 C376 C 0.54345 0.79007 0.14091
 O377 O 0.87565 0.53290 0.82120
 O378 O 0.82976 0.46926 0.87629
 O379 O 0.87534 0.46394 0.82750
 O380 O 0.82913 0.53718 0.87015
 O381 O 0.78703 0.53413 0.83185
 O382 O 0.83359 0.46009 0.78846
 O383 O 0.78741 0.46519 0.83795
 O384 O 0.83385 0.52900 0.78214
 Cu385 Cu 0.85683 0.50137 0.85245
 Cu386 Cu 0.80621 0.49686 0.80615
 C387 C 0.86294 0.54138 0.79224
 C388 C 0.80041 0.45694 0.86694
 C389 C 0.86238 0.44933 0.80094
 C390 C 0.79958 0.54755 0.85919
 O391 O 0.11536 0.53983 0.16563
 O392 O 0.15783 0.46534 0.12100
 O393 O 0.11629 0.47132 0.17323
 O394 O 0.15764 0.53361 0.11329
 O395 O 0.20204 0.53987 0.14868
 O396 O 0.16101 0.47620 0.20891
 O397 O 0.20302 0.46985 0.15583
 O398 O 0.15975 0.54456 0.20159
 Cu399 Cu 0.13234 0.50212 0.13980
 Cu400 Cu 0.18626 0.50806 0.18207
 C401 C 0.12986 0.55471 0.19131
 C402 C 0.18752 0.45452 0.13089
 C403 C 0.13134 0.46336 0.20124
 C404 C 0.18657 0.54803 0.12081
 O405 O 0.87909 0.46692 0.18177
 O406 O 0.83575 0.53155 0.12632
 O407 O 0.87706 0.53536 0.17893
 O408 O 0.83424 0.46278 0.13188
 O409 O 0.78909 0.46599 0.16713
 O410 O 0.83380 0.53635 0.21667
 O411 O 0.79200 0.53566 0.16309
 O412 O 0.83454 0.46736 0.21776
 Cu413 Cu 0.86085 0.49887 0.15104
 Cu414 Cu 0.80771 0.50153 0.19469
 C415 C 0.86487 0.45644 0.20940
 C416 C 0.80695 0.54532 0.13537
 C417 C 0.86315 0.54758 0.20619
 C418 C 0.80430 0.45208 0.14134
 O419 O 0.17270 0.53433 0.86306
 O420 O 0.12459 0.46037 0.82315
 O421 O 0.17071 0.46664 0.87330
 O422 O 0.12379 0.52856 0.81760
 O423 O 0.16474 0.52391 0.77792
 O424 O 0.21277 0.46137 0.83463
 O425 O 0.16617 0.45445 0.78448
 O426 O 0.21407 0.52939 0.82378
 Cu427 Cu 0.14383 0.49774 0.84817
 Cu428 Cu 0.19344 0.49142 0.80114
 C429 C 0.20205 0.54385 0.85085
 C430 C 0.13650 0.44558 0.79609
 C431 C 0.20030 0.45467 0.86427
 C432 C 0.13580 0.53676 0.78830
 C433 C 0.24130 0.42736 0.10710
 C434 C 0.25833 0.40554 0.08335
 C435 C 0.23964 0.38073 0.06374
 C436 C 0.20369 0.37564 0.07026
 C437 C 0.18619 0.39772 0.09446
 C438 C 0.20498 0.42524 0.11166
 C439 C 0.15041 0.39137 0.10033
 N440 N 0.13361 0.36528 0.08269
 N441 N 0.15004 0.34502 0.05961
 C442 C 0.18448 0.34934 0.05277
 H443 H 0.25628 0.44786 0.12006
 H444 H 0.28587 0.40982 0.07843
 H445 H 0.13560 0.40629 0.11907
 H446 H 0.19669 0.33189 0.03406
 C447 C 0.75416 0.56878 0.10659
 C448 C 0.73786 0.58875 0.08103
 C449 C 0.75697 0.61281 0.06105
 C450 C 0.79280 0.61828 0.06821
 C451 C 0.80964 0.59761 0.09380
 C452 C 0.79020 0.57174 0.11242
 C453 C 0.84541 0.60385 0.09985
 N454 N 0.86273 0.62890 0.08151
 N455 N 0.84683 0.64822 0.05752
 C456 C 0.81250 0.64380 0.05026
 H457 H 0.73886 0.54928 0.12048
 H458 H 0.71043 0.58423 0.07572
 H459 H 0.85985 0.58958 0.11921
 H460 H 0.80083 0.66054 0.03079
 C461 C 0.80078 0.40654 0.90727
 C462 C 0.78605 0.38609 0.93326
 C463 C 0.75158 0.39187 0.94378
 C464 C 0.73118 0.41824 0.92723
 C465 C 0.74607 0.43899 0.90052
 C466 C 0.78145 0.43325 0.89081
 C467 C 0.72539 0.46596 0.88581
 N468 N 0.69216 0.47124 0.89681
 N469 N 0.67823 0.45167 0.92177
 C470 C 0.69662 0.42552 0.93747
 H471 H 0.82789 0.40204 0.90054
 H472 H 0.80200 0.36629 0.94604
 H473 H 0.73515 0.48317 0.86593
 H474 H 0.68408 0.41086 0.95791
 C475 C 0.20469 0.59922 0.88477
 C476 C 0.21949 0.61986 0.91071
 C477 C 0.25282 0.61209 0.92332
 C478 C 0.27265 0.58442 0.90790
 C479 C 0.25786 0.56361 0.88101
 C480 C 0.22283 0.57028 0.87043
 C481 C 0.27798 0.53526 0.86761
 N482 N 0.31036 0.52866 0.88018
 N483 N 0.32403 0.54811 0.90546
 C484 C 0.30624 0.57557 0.91987
 H485 H 0.17794 0.60458 0.87723
 H486 H 0.20398 0.64075 0.92253
 H487 H 0.26859 0.51790 0.84758
 H488 H 0.31854 0.59005 0.94065
 C489 C 0.11171 0.21135 0.40583
 C490 C 0.08505 0.22768 0.38745
 C491 C 0.07514 0.26277 0.39474
 C492 C 0.09458 0.28280 0.41903
 C493 C 0.12282 0.26658 0.43692
 C494 C 0.12979 0.22963 0.43185
 C495 C 0.14180 0.28779 0.46026
 N496 N 0.13243 0.32216 0.46590
 N497 N 0.10522 0.33683 0.45006
 C498 C 0.08584 0.31828 0.42703
 H499 H 0.11678 0.18334 0.40112
 H500 H 0.07046 0.21206 0.36889
 H501 H 0.16431 0.27799 0.47378
 H502 H 0.06391 0.33155 0.41514
 C503 C 0.10084 0.79325 0.59420
 C504 C 0.07391 0.77788 0.61298
 C505 C 0.06431 0.74246 0.60733
 C506 C 0.08339 0.72147 0.58347
 C507 C 0.11133 0.73689 0.56460
 C508 C 0.11926 0.77366 0.56926
 C509 C 0.12897 0.71515 0.54061
 N510 N 0.11925 0.68076 0.53601
 N511 N 0.09284 0.66654 0.55345
 C512 C 0.07447 0.68574 0.57684
 H513 H 0.10643 0.82125 0.59821
 H514 H 0.05934 0.79423 0.63101
 H515 H 0.15040 0.72471 0.52540
 H516 H 0.05305 0.67284 0.58991
 C517 C 0.89338 0.74402 0.44006
 C518 C 0.92111 0.72788 0.42268
 C519 C 0.93821 0.74563 0.39593
 C520 C 0.92588 0.77930 0.38507
 C521 C 0.89776 0.79573 0.40274
 C522 C 0.88236 0.77845 0.43134
 C523 C 0.88597 0.82910 0.39113
 N524 N 0.90178 0.84492 0.36396
 N525 N 0.92851 0.82964 0.34763
 C526 C 0.94111 0.79740 0.35724
 H527 H 0.88201 0.73050 0.46195
 H528 H 0.93025 0.70201 0.43105
 H529 H 0.86401 0.84247 0.40303
 H530 H 0.96272 0.78613 0.34291
 C531 C 0.89247 0.24913 0.56149
 C532 C 0.91777 0.26540 0.58202
 C533 C 0.93204 0.24753 0.61028
 C534 C 0.91879 0.21375 0.61954
 C535 C 0.89308 0.19719 0.59872
 C536 C 0.88111 0.21441 0.56851
 C537 C 0.88035 0.16368 0.60882
 N538 N 0.89314 0.14780 0.63747
 N539 N 0.91773 0.16314 0.65667
 C540 C 0.93104 0.19552 0.64867
 H541 H 0.88366 0.26271 0.53852
 H542 H 0.92783 0.29123 0.57463
 H543 H 0.86001 0.15023 0.59454
 H544 H 0.95079 0.20688 0.66529
 C545 C 0.40427 0.09718 0.20584
 C546 C 0.38384 0.07152 0.22198
 C547 C 0.39315 0.05823 0.25428
 C548 C 0.42311 0.07188 0.27118
 C549 C 0.44392 0.09814 0.25482
 C550 C 0.43453 0.11045 0.22157
 C551 C 0.47450 0.10959 0.27166
 N552 N 0.48310 0.09606 0.30282
 N553 N 0.46345 0.07160 0.31819
 C554 C 0.43390 0.05893 0.30340
 H555 H 0.39699 0.10596 0.18030
 H556 H 0.36132 0.06088 0.20857
 H557 H 0.49192 0.12886 0.26042
 H558 H 0.41928 0.03873 0.31692
 C559 C 0.56197 0.11478 0.74269
 C560 C 0.58119 0.08833 0.72590
 C561 C 0.61000 0.07249 0.74198
 C562 C 0.62138 0.08549 0.77427
 C563 C 0.60180 0.11218 0.79138
 C564 C 0.57088 0.12556 0.77609
 C565 C 0.61368 0.12437 0.82357
 N566 N 0.64305 0.11032 0.83758
 N567 N 0.66129 0.08497 0.82159
 C568 C 0.65147 0.07205 0.79044
 H569 H 0.53849 0.12482 0.73061
 H570 H 0.57221 0.07851 0.70120
 H571 H 0.60019 0.14525 0.83744
 H572 H 0.66741 0.05169 0.77842
 C573 C 0.43504 0.89539 0.75248
 C574 C 0.41487 0.92062 0.73526
 C575 C 0.38979 0.94072 0.75297
 C576 C 0.38328 0.93369 0.78812
 C577 C 0.40409 0.90851 0.80586
 C578 C 0.43116 0.89015 0.78800
 C579 C 0.39695 0.90275 0.84098
 N580 N 0.37090 0.92101 0.85683
 N581 N 0.35145 0.94468 0.84008
 C582 C 0.35675 0.95166 0.80630
 H583 H 0.45546 0.88164 0.73838
 H584 H 0.42014 0.92589 0.70837
 H585 H 0.41137 0.88371 0.85605
 H586 H 0.33996 0.97092 0.79388
 C587 C 0.58917 0.89395 0.20873
 C588 C 0.60979 0.91951 0.22489
 C589 C 0.60089 0.93272 0.25744
 C590 C 0.57135 0.91878 0.27470
 C591 C 0.55030 0.89259 0.25832
 C592 C 0.55907 0.88063 0.22469
 C593 C 0.52010 0.88087 0.27558
 N594 N 0.51211 0.89406 0.30715
 N595 N 0.53201 0.91841 0.32253
 C596 C 0.56123 0.93134 0.30735
 H597 H 0.59610 0.88534 0.18297
 H598 H 0.63200 0.93037 0.21119
 H599 H 0.50256 0.86163 0.26436
 H600 H 0.57619 0.95136 0.32091
 C601 C 0.40256 0.23273 0.89004
 C602 C 0.38182 0.24880 0.91538
 C603 C 0.39698 0.26446 0.94476
 C604 C 0.43405 0.26572 0.94716
 C605 C 0.45480 0.24765 0.92256
 C606 C 0.43888 0.23096 0.89383
 C607 C 0.49111 0.24672 0.92772
 N608 N 0.50576 0.26481 0.95426
 N609 N 0.48646 0.28373 0.97616
 C610 C 0.45119 0.28501 0.97342
 H611 H 0.39005 0.21991 0.86829
 H612 H 0.35367 0.24698 0.91301
 H613 H 0.50791 0.23184 0.91088
 H614 H 0.43686 0.30123 0.99167
 C615 C 0.59708 0.79704 0.90853
 C616 C 0.61617 0.78030 0.93426
 C617 C 0.61070 0.74438 0.94181
 C618 C 0.58663 0.72441 0.92195
 C619 C 0.56722 0.74133 0.89544
 C620 C 0.57194 0.77840 0.88938
 C621 C 0.54258 0.72070 0.87729
 N622 N 0.53817 0.68580 0.88504
 N623 N 0.55640 0.67008 0.90986
 C624 C 0.58032 0.68820 0.92868
 H625 H 0.60102 0.82529 0.90445
 H626 H 0.63442 0.79587 0.94939
 H627 H 0.52645 0.73163 0.85725
 H628 H 0.59408 0.67413 0.94876
 C629 C 0.39602 0.77528 0.10562
 C630 C 0.37596 0.75883 0.08004
 C631 C 0.39069 0.73279 0.05840
 C632 C 0.42555 0.72143 0.06441
 C633 C 0.44568 0.73796 0.09045
 C634 C 0.43104 0.76569 0.11057
 C635 C 0.48050 0.72701 0.09468
 N636 N 0.49389 0.70064 0.07471
 N637 N 0.47477 0.68453 0.05069
 C638 C 0.44110 0.69395 0.04488
 H639 H 0.38462 0.79673 0.12061
 H640 H 0.34963 0.76834 0.07550
 H641 H 0.49703 0.73918 0.11375
 H642 H 0.42669 0.67974 0.02522
 C643 C 0.59015 0.20139 0.08965
 C644 C 0.61112 0.21684 0.06471
 C645 C 0.61185 0.25382 0.06011
 C646 C 0.59078 0.27573 0.08177
 C647 C 0.56933 0.25990 0.10757
 C648 C 0.56843 0.22206 0.11087
 C649 C 0.54823 0.28265 0.12770
 N650 N 0.54818 0.31823 0.12203
 N651 N 0.56746 0.33282 0.09737
 C652 C 0.58841 0.31285 0.07689
 H653 H 0.59018 0.17261 0.09165
 H654 H 0.62661 0.19955 0.04829
 H655 H 0.53152 0.27300 0.14779
 H656 H 0.60263 0.32626 0.05676
 C657 C 0.25423 0.11018 0.57880
 C658 C 0.26969 0.08507 0.60031
 C659 C 0.24913 0.06238 0.62058
 C660 C 0.21235 0.06757 0.62138
 C661 C 0.19672 0.09362 0.60002
 C662 C 0.21780 0.11356 0.57706
 C663 C 0.16043 0.09920 0.60286
 N664 N 0.14125 0.07940 0.62500
 N665 N 0.15587 0.05465 0.64476
 C666 C 0.19069 0.04818 0.64385
 H667 H 0.27081 0.12549 0.56178
 H668 H 0.29777 0.08148 0.59905
 H669 H 0.14716 0.11971 0.58848
 H670 H 0.20124 0.02846 0.66122
 C671 C 0.74799 0.11051 0.41886
 C672 C 0.72936 0.08528 0.39980
 C673 C 0.74693 0.05922 0.38039
 C674 C 0.78384 0.06126 0.37728
 C675 C 0.80264 0.08729 0.39613
 C676 C 0.78467 0.11056 0.41892
 C677 C 0.83895 0.08938 0.39117
 N678 N 0.85529 0.06646 0.36944
 N679 N 0.83770 0.04171 0.35205
 C680 C 0.80259 0.03841 0.35509
 H681 H 0.73363 0.12843 0.43558
 H682 H 0.70121 0.08428 0.40259
 H683 H 0.85431 0.10965 0.40355
 H684 H 0.78954 0.01845 0.33963
 C685 C 0.73750 0.88544 0.56710
 C686 C 0.71930 0.91227 0.58440
 C687 C 0.73642 0.93426 0.60814
 C688 C 0.77163 0.92723 0.61679
 C689 C 0.79022 0.90020 0.59906
 C690 C 0.77338 0.88049 0.57265
 C691 C 0.82527 0.89406 0.60824
 N692 N 0.84046 0.91403 0.63322
 N693 N 0.82303 0.93971 0.64961
 C694 C 0.78918 0.94704 0.64222
 H695 H 0.72408 0.87043 0.54731
 H696 H 0.69229 0.91736 0.57770
 H697 H 0.84061 0.87332 0.59620
 H698 H 0.77617 0.96799 0.65651
 C699 C 0.26000 0.90076 0.44990
 C700 C 0.27683 0.92721 0.43128
 C701 C 0.26598 0.93595 0.39788
 C702 C 0.23754 0.91711 0.38292
 C703 C 0.22009 0.89052 0.40229
 C704 C 0.23114 0.88292 0.43619
 C705 C 0.19155 0.87281 0.38727
 N706 N 0.18097 0.88161 0.35512
 N707 N 0.19685 0.90702 0.33714
 C708 C 0.22457 0.92519 0.34997
 H709 H 0.26831 0.89567 0.47602
 H710 H 0.29808 0.94164 0.44337
 H711 H 0.17766 0.85202 0.40077
 H712 H 0.23607 0.94584 0.33433
 C713 C 0.09164 0.39875 0.79852
 C714 C 0.06467 0.37892 0.78424
 C715 C 0.05884 0.37832 0.74861
 C716 C 0.08175 0.39802 0.72689
 C717 C 0.11035 0.41720 0.74144
 C718 C 0.11423 0.41889 0.77796
 C719 C 0.13271 0.43550 0.71869
 N720 N 0.12585 0.43611 0.68452
 N721 N 0.09797 0.42008 0.67131
 C722 C 0.07551 0.40154 0.69128
 H723 H 0.09406 0.39937 0.82630
 H724 H 0.04759 0.36437 0.80143
 H725 H 0.15570 0.44932 0.72711
 H726 H 0.05281 0.39019 0.67902
 C727 C 0.10890 0.58090 0.24620
 C728 C 0.08457 0.60112 0.26462
 C729 C 0.06095 0.62353 0.24745
 C730 C 0.06468 0.62845 0.21144
 C731 C 0.08989 0.60850 0.19295
 C732 C 0.11052 0.58282 0.21022
 C733 C 0.09388 0.61516 0.15764
 N734 N 0.07340 0.63962 0.14184
 N735 N 0.04935 0.65808 0.15909
 C736 C 0.04437 0.65347 0.19331
 H737 H 0.12469 0.56166 0.25993
 H738 H 0.08216 0.59680 0.29208
 H739 H 0.11379 0.60190 0.14282
 H740 H 0.02509 0.66987 0.20619
 C741 C 0.90522 0.40595 0.21434
 C742 C 0.93112 0.38712 0.23139
 C743 C 0.93735 0.39250 0.26653
 C744 C 0.91559 0.41648 0.28517
 C745 C 0.88935 0.43628 0.26758
 C746 C 0.88499 0.43163 0.23146
 C747 C 0.87008 0.46160 0.28658
 N748 N 0.87634 0.46626 0.32062
 N749 N 0.90085 0.44777 0.33699
 C750 C 0.92083 0.42332 0.32044
 H751 H 0.90237 0.40189 0.18686
 H752 H 0.94759 0.36920 0.21661
 H753 H 0.85029 0.47807 0.27504
 H754 H 0.94077 0.40969 0.33502
 C755 C 0.90472 0.54750 0.74505
 C756 C 0.93053 0.56634 0.72780
 C757 C 0.93566 0.60288 0.73393
 C758 C 0.91326 0.62086 0.75756
 C759 C 0.88719 0.60133 0.77540
 C760 C 0.88367 0.56433 0.76956
 C761 C 0.86612 0.61931 0.79948
 N762 N 0.87118 0.65450 0.80555
 N763 N 0.89605 0.67275 0.78941
 C764 C 0.91740 0.65715 0.76590
 H765 H 0.90256 0.51904 0.74073
 H766 H 0.94753 0.55198 0.71024
 H767 H 0.84571 0.60567 0.81348
 H768 H 0.93749 0.67325 0.75420
 C769 C 0.80020 0.59552 0.90240
 C770 C 0.78531 0.61387 0.92974
 C771 C 0.74936 0.61222 0.93623
 C772 C 0.72776 0.59246 0.91323
 C773 C 0.74289 0.57466 0.88431
 C774 C 0.77999 0.57427 0.88030
 C775 C 0.72014 0.55678 0.86155
 N776 N 0.68549 0.55492 0.86848
 N777 N 0.67184 0.56948 0.89668
 C778 C 0.69176 0.58777 0.91941
 H779 H 0.82836 0.59652 0.89964
 H780 H 0.80235 0.62890 0.94669
 H781 H 0.72886 0.54455 0.83806
 H782 H 0.67917 0.59824 0.94216
 C783 C 0.22702 0.39861 0.88581
 C784 C 0.24359 0.37895 0.91160
 C785 C 0.25611 0.39569 0.94161
 C786 C 0.25364 0.43342 0.94428
 C787 C 0.23484 0.45287 0.91932
 C788 C 0.22132 0.43522 0.88991
 C789 C 0.23024 0.48965 0.92473
 N790 N 0.24556 0.50607 0.95191
 N791 N 0.26509 0.48814 0.97423
 C792 C 0.26983 0.45250 0.97126
 H793 H 0.21678 0.38483 0.86345
 H794 H 0.24463 0.35022 0.90900
 H795 H 0.21481 0.50554 0.90758
 H796 H 0.28637 0.43938 0.98989
 C797 C 0.23979 0.57508 0.09570
 C798 C 0.25746 0.59557 0.07146
 C799 C 0.23915 0.61597 0.04726
 C800 C 0.20206 0.61717 0.04920
 C801 C 0.18388 0.59575 0.07341
 C802 C 0.20312 0.57362 0.09644
 C803 C 0.14707 0.59803 0.07383
 N804 N 0.13013 0.62041 0.05222
 N805 N 0.14727 0.64097 0.03019
 C806 C 0.18255 0.64030 0.02808
 H807 H 0.25511 0.55870 0.11294
 H808 H 0.28568 0.59360 0.07026
 H809 H 0.13117 0.58293 0.09115
 H810 H 0.19506 0.65831 0.01028
 C811 C 0.75132 0.43057 0.11179
 C812 C 0.73526 0.41014 0.08635
 C813 C 0.75373 0.38308 0.06943
 C814 C 0.78798 0.37447 0.08018
 C815 C 0.80430 0.39508 0.10618
 C816 C 0.78633 0.42459 0.12069
 C817 C 0.83817 0.38539 0.11666
 N818 N 0.85461 0.35747 0.10139
 N819 N 0.83947 0.33857 0.07648
 C820 C 0.80674 0.34612 0.06533
 H821 H 0.73710 0.45287 0.12275
 H822 H 0.70905 0.41701 0.07821
 H823 H 0.85150 0.39927 0.13722
 H824 H 0.79550 0.32967 0.04529
 C825 C 0.90972 0.75496 0.54979
 C826 C 0.93627 0.73926 0.56871
 C827 C 0.93772 0.74277 0.60471
 C828 C 0.91100 0.76250 0.62182
 C829 C 0.88358 0.77807 0.60229
 C830 C 0.88363 0.77480 0.56606
 C831 C 0.85756 0.79748 0.61963
 N832 N 0.85950 0.80198 0.65420
 N833 N 0.88581 0.78854 0.67244
 C834 C 0.91172 0.76927 0.65747
 H835 H 0.91021 0.75262 0.52198
 H836 H 0.95636 0.72460 0.55495
 H837 H 0.83574 0.80907 0.60596
 H838 H 0.93271 0.75968 0.67355
 C839 C 0.89793 0.24786 0.42855
 C840 C 0.92321 0.26684 0.41046
 C841 C 0.94912 0.24911 0.39142
 C842 C 0.94787 0.21132 0.38897
 C843 C 0.92236 0.19189 0.40770
 C844 C 0.89773 0.21045 0.42867
 C845 C 0.92218 0.15451 0.40400
 N846 N 0.94551 0.13810 0.38302
 N847 N 0.96900 0.15639 0.36514
 C848 C 0.97083 0.19233 0.36720
 H849 H 0.87943 0.26268 0.44414
 H850 H 0.92377 0.29558 0.41310
 H851 H 0.90356 0.13792 0.41687
 H852 H 0.98983 0.20577 0.35127
 C853 C 0.09521 0.19885 0.59067
 C854 C 0.06819 0.21307 0.61029
 C855 C 0.06028 0.24938 0.60890
 C856 C 0.08110 0.27217 0.58838
 C857 C 0.10927 0.25784 0.56882
 C858 C 0.11557 0.22044 0.56914
 C859 C 0.12894 0.28151 0.54857
 N860 N 0.12079 0.31665 0.54790
 N861 N 0.09409 0.32985 0.56580
 C862 C 0.07385 0.30882 0.58581
 H863 H 0.09954 0.17034 0.59148
 H864 H 0.05237 0.19533 0.62574
 H865 H 0.15074 0.27285 0.53327
 H866 H 0.05228 0.32101 0.59941
 C867 C 0.10119 0.79509 0.41091
 C868 C 0.07389 0.77977 0.39258
 C869 C 0.06682 0.74340 0.39529
 C870 C 0.08922 0.72155 0.41512
 C871 C 0.11796 0.73691 0.43305
 C872 C 0.12269 0.77461 0.43245
 C873 C 0.13984 0.71381 0.45177
 N874 N 0.13275 0.67847 0.45314
 N875 N 0.10520 0.66446 0.43729
 C876 C 0.08311 0.68478 0.41852
 H877 H 0.10449 0.82372 0.40947
 H878 H 0.05706 0.79676 0.37735
 H879 H 0.16279 0.72283 0.46503
 H880 H 0.06105 0.67192 0.40641
 C881 C 0.57346 0.89380 0.75176
 C882 C 0.59236 0.91937 0.73372
 C883 C 0.61381 0.94380 0.75110
 C884 C 0.61868 0.93994 0.78717
 C885 C 0.60007 0.91332 0.80540
 C886 C 0.57561 0.89153 0.78773
 C887 C 0.60720 0.90903 0.84070
 N888 N 0.63060 0.93059 0.85660
 N889 N 0.64770 0.95586 0.83960
 C890 C 0.64273 0.96114 0.80548
 H891 H 0.55530 0.87716 0.73763
 H892 H 0.58807 0.92180 0.70626
 H893 H 0.59533 0.88814 0.85570
 H894 H 0.65821 0.98131 0.79284
 C895 C 0.41950 0.87946 0.25000
 C896 C 0.40050 0.90604 0.26685
 C897 C 0.37965 0.93004 0.24826
 C898 C 0.37521 0.92445 0.21233
 C899 C 0.39410 0.89704 0.19534
 C900 C 0.41824 0.87601 0.21409
 C901 C 0.38791 0.89142 0.16003
 N902 N 0.36486 0.91234 0.14298
 N903 N 0.34736 0.93830 0.15884
 C904 C 0.35161 0.94497 0.19288
 H905 H 0.43736 0.86332 0.26491
 H906 H 0.40455 0.90977 0.29423
 H907 H 0.40040 0.87002 0.14597
 H908 H 0.33599 0.96577 0.20459
 C909 C 0.57503 0.11178 0.24808
 C910 C 0.59428 0.08586 0.26538
 C911 C 0.61394 0.06053 0.24707
 C912 C 0.61719 0.06406 0.21082
 C913 C 0.59835 0.09103 0.19335
 C914 C 0.57511 0.11338 0.21201
 C915 C 0.60380 0.09490 0.15772
 N916 N 0.62583 0.07258 0.14083
 N917 N 0.64305 0.04687 0.15713
 C918 C 0.63962 0.04194 0.19149
 H919 H 0.55803 0.12903 0.26295
 H920 H 0.59138 0.08374 0.29304
 H921 H 0.59166 0.11606 0.14322
 H922 H 0.65504 0.02128 0.20352
 C923 C 0.40372 0.10661 0.79721
 C924 C 0.38370 0.08037 0.78136
 C925 C 0.38960 0.07090 0.74699
 C926 C 0.41489 0.08962 0.72761
 C927 C 0.43527 0.11657 0.74364
 C928 C 0.43014 0.12437 0.77915
 C929 C 0.46144 0.13314 0.72384
 N930 N 0.46626 0.12365 0.69048
 N931 N 0.44703 0.09848 0.67555
 C932 C 0.42169 0.08101 0.69299
 H933 H 0.39960 0.11199 0.82432
 H934 H 0.36473 0.06590 0.79656
 H935 H 0.47840 0.15332 0.73429
 H936 H 0.40720 0.06051 0.67962
 C937 C 0.59344 0.79182 0.10110
 C938 C 0.61374 0.77686 0.07516
 C939 C 0.61246 0.74033 0.06826
 C940 C 0.59256 0.71796 0.09011
 C941 C 0.57318 0.73298 0.11794
 C942 C 0.57149 0.77079 0.12165
 C943 C 0.55520 0.70940 0.13982
 N944 N 0.55527 0.67392 0.13319
 N945 N 0.57199 0.66023 0.10619
 C946 C 0.59037 0.68102 0.08431
 H947 H 0.59345 0.82056 0.10384
 H948 H 0.62899 0.79431 0.05887
 H949 H 0.54108 0.71828 0.16217
 H950 H 0.60316 0.66838 0.06269
 C951 C 0.40039 0.20242 0.10112
 C952 C 0.37925 0.21795 0.07621
 C953 C 0.38298 0.25389 0.06786
 C954 C 0.40689 0.27522 0.08658
 C955 C 0.42836 0.25956 0.11228
 C956 C 0.42600 0.22227 0.11853
 C957 C 0.45262 0.28168 0.12924
 N958 N 0.45500 0.31666 0.12101
 N959 N 0.43503 0.33113 0.09680
 C960 C 0.41121 0.31162 0.07921
 H961 H 0.39798 0.17404 0.10550
 H962 H 0.36132 0.20129 0.06182
 H963 H 0.46970 0.27202 0.14903
 H964 H 0.39592 0.32480 0.05965
 C965 C 0.60065 0.20896 0.89773
 C966 C 0.62058 0.22294 0.92438
 C967 C 0.61550 0.25794 0.93557
 C968 C 0.59147 0.28015 0.91809
 C969 C 0.57143 0.26618 0.89040
 C970 C 0.57510 0.22957 0.88124
 C971 C 0.54688 0.28896 0.87468
 N972 N 0.54303 0.32297 0.88590
 N973 N 0.56172 0.33585 0.91196
 C974 C 0.58561 0.31559 0.92855
 H975 H 0.60382 0.18104 0.89129
 H976 H 0.63881 0.20571 0.93768
 H977 H 0.53037 0.28048 0.85384
 H978 H 0.59964 0.32740 0.94983
 C979 C 0.44827 0.74774 0.90301
 C980 C 0.42814 0.73075 0.92782
 C981 C 0.39370 0.74158 0.93421
 C982 C 0.37866 0.76882 0.91383
 C983 C 0.39901 0.78546 0.88802
 C984 C 0.43442 0.77576 0.88371
 C985 C 0.38332 0.81171 0.86757
 N986 N 0.34972 0.82148 0.87351
 N987 N 0.33090 0.80669 0.89850
 C988 C 0.34423 0.78080 0.91893
 H989 H 0.47545 0.74033 0.90028
 H990 H 0.44003 0.71013 0.94336
 H991 H 0.39736 0.82401 0.84662
 H992 H 0.32776 0.76980 0.93883
 C993 C 0.78524 0.89496 0.40487
 C994 C 0.76865 0.91998 0.38421
 C995 C 0.73471 0.93155 0.39174
 C996 C 0.71638 0.91605 0.41956
 C997 C 0.73311 0.89017 0.44046
 C998 C 0.76830 0.88039 0.43350
 C999 C 0.71454 0.87658 0.46877
 N1000 N 0.68157 0.88799 0.47534
 N1001 N 0.66597 0.91227 0.45575
 C1002 C 0.68229 0.92683 0.42823
 H1003 H 0.81215 0.88802 0.39930
 H1004 H 0.78315 0.93201 0.36331
 H1005 H 0.72576 0.85716 0.48589
 H1006 H 0.66846 0.94668 0.41344
 C1007 C 0.20855 0.89687 0.60070
 C1008 C 0.22320 0.92269 0.62198
 C1009 C 0.25772 0.93382 0.61720
 C1010 C 0.27858 0.91704 0.59170
 C1011 C 0.26384 0.89024 0.57027
 C1012 C 0.22803 0.88106 0.57417
 C1013 C 0.28513 0.87521 0.54443
 N1014 N 0.31860 0.88625 0.54058
 N1015 N 0.33225 0.91153 0.56051
 C1016 C 0.31336 0.92745 0.58574
 H1017 H 0.18120 0.89029 0.60401
 H1018 H 0.20685 0.93562 0.64108
 H1019 H 0.27574 0.85505 0.52696
 H1020 H 0.32576 0.94813 0.60076
 C1021 C 0.26661 0.10486 0.44641
 C1022 C 0.28401 0.07829 0.42791
 C1023 C 0.26982 0.06466 0.39738
 C1024 C 0.23870 0.07963 0.38408
 C1025 C 0.22097 0.10651 0.40292
 C1026 C 0.23435 0.11802 0.43506
 C1027 C 0.19001 0.12071 0.38908
 N1028 N 0.17757 0.10825 0.35868
 N1029 N 0.19394 0.08258 0.34125
 C1030 C 0.22398 0.06777 0.35293
 H1031 H 0.27710 0.11326 0.47103
 H1032 H 0.30767 0.06684 0.43846
 H1033 H 0.17583 0.14185 0.40194
 H1034 H 0.23618 0.04706 0.33767
 C1035 C 0.78301 0.09935 0.58738
 C1036 C 0.76435 0.07507 0.60711
 C1037 C 0.73106 0.06384 0.59700
 C1038 C 0.71545 0.07890 0.56745
 C1039 C 0.73438 0.10378 0.54727
 C1040 C 0.76890 0.11336 0.55702
 C1041 C 0.71865 0.11655 0.51701
 N1042 N 0.68608 0.10564 0.50819
 N1043 N 0.66828 0.08260 0.52736
 C1044 C 0.68189 0.06876 0.55660
 H1045 H 0.80939 0.10607 0.59507
 H1046 H 0.77676 0.06337 0.62944
 H1047 H 0.73179 0.13493 0.50014
 H1048 H 0.66640 0.04998 0.57111
 C1049 C 0.90071 0.56120 0.25551
 C1050 C 0.92663 0.58180 0.27086
 C1051 C 0.93525 0.61524 0.25752
 C1052 C 0.91578 0.62935 0.22984
 C1053 C 0.88913 0.60856 0.21454
 C1054 C 0.88282 0.57368 0.22658
 C1055 C 0.86990 0.62327 0.18735
 N1056 N 0.87757 0.65642 0.17583
 N1057 N 0.90313 0.67573 0.18976
 C1058 C 0.92255 0.66332 0.21635
 H1059 H 0.89626 0.53442 0.26482
 H1060 H 0.94150 0.57072 0.29199
 H1061 H 0.84847 0.60890 0.17570
 H1062 H 0.94286 0.68015 0.22689
 C1063 C 0.88988 0.42413 0.74879
 C1064 C 0.91480 0.40229 0.73316
 C1065 C 0.93227 0.37607 0.75211
 C1066 C 0.92258 0.36997 0.78672
 C1067 C 0.89740 0.39222 0.80267
 C1068 C 0.88218 0.42054 0.78386
 C1069 C 0.88839 0.38541 0.83711
 N1070 N 0.90400 0.35835 0.85429
 N1071 N 0.92794 0.33766 0.83936
 C1072 C 0.93778 0.34254 0.80619
 H1073 H 0.87846 0.44563 0.73405
 H1074 H 0.92213 0.40738 0.70670
 H1075 H 0.86874 0.40097 0.85035
 H1076 H 0.95708 0.32474 0.79521
 C1077 C 0.09764 0.58917 0.78436
 C1078 C 0.07173 0.60907 0.76840
 C1079 C 0.06223 0.60197 0.73441
 C1080 C 0.08066 0.57583 0.71534
 C1081 C 0.10732 0.55550 0.73149
 C1082 C 0.11489 0.56146 0.76690
 C1083 C 0.12405 0.52893 0.71184
 N1084 N 0.11486 0.52353 0.67854
 N1085 N 0.08986 0.54260 0.66353
 C1086 C 0.07235 0.56845 0.68081
 H1087 H 0.10310 0.59438 0.81127
 H1088 H 0.05775 0.62901 0.78322
 H1089 H 0.14441 0.51243 0.72223
 H1090 H 0.05215 0.58299 0.66740
 C1091 C 0.09472 0.45553 0.25258
 C1092 C 0.07031 0.43601 0.27125
 C1093 C 0.06355 0.40029 0.26305
 C1094 C 0.08328 0.38332 0.23685
 C1095 C 0.10843 0.40310 0.21823
 C1096 C 0.11301 0.43975 0.22531
 C1097 C 0.12784 0.38561 0.19256
 N1098 N 0.12172 0.35076 0.18555
 N1099 N 0.09750 0.33235 0.20248
 C1100 C 0.07800 0.34744 0.22780
 H1101 H 0.09777 0.48368 0.25805
 H1102 H 0.05519 0.44937 0.29105
 H1103 H 0.14810 0.39928 0.17843
 H1104 H 0.05870 0.33123 0.24067
   
