data_POSCAR
  _audit_creation_date              2014-09-24
  _audit_creation_method            'ToBaCCo'
  _symmetry_space_group_name_H-M    'P1'
  _symmetry_Int_Tables_number       1
  _symmetry_cell_setting            triclinic
  loop_
  _symmetry_equiv_pos_as_xyz
 x,y,z
_cell_length_a 62.0121
_cell_length_b 61.9390
_cell_length_c 36.8810
_cell_angle_alpha 89.922100
_cell_angle_beta 89.908000
_cell_angle_gamma 89.996800
loop_
  _atom_site_label
  _atom_site_type_symbol
  _atom_site_fract_x
  _atom_site_fract_y
  _atom_site_fract_z
C1 C -0.00048 0.26562 -0.01804
 C2 C -0.00033 0.26580 0.01894
 C3 C -0.02063 0.26683 0.04035
 C4 C 0.02009 0.26451 0.03985
 C5 C 0.01983 0.26652 -0.03945
 C6 C -0.02091 0.26405 -0.03888
 C7 C -0.03576 0.28336 0.03451
 C8 C -0.05515 0.28364 0.05392
 C9 C -0.05950 0.26752 0.07964
 C10 C -0.04421 0.25132 0.08619
 C11 C -0.02485 0.25103 0.06676
 C12 C 0.02482 0.28029 0.06595
 C13 C 0.04411 0.27939 0.08546
 C14 C 0.05877 0.26259 0.07929
 C15 C 0.05398 0.24659 0.05377
 C16 C 0.03468 0.24746 0.03427
 C17 C 0.02418 0.25045 -0.06527
 C18 C 0.04362 0.25057 -0.08447
 C19 C 0.05884 0.26684 -0.07829
 C20 C 0.05437 0.28323 -0.05326
 C21 C 0.03491 0.28315 -0.03406
 C22 C -0.03546 0.24704 -0.03268
 C23 C -0.05482 0.24597 -0.05196
 C24 C -0.05973 0.26176 -0.07788
 C25 C -0.04509 0.27849 -0.08472
 C26 C -0.02573 0.27958 -0.06543
 H27 H -0.03262 0.29591 0.01472
 H28 H -0.06676 0.29635 0.04859
 H29 H -0.04728 0.23874 0.10602
 H30 H -0.01334 0.23822 0.07177
 H31 H 0.01370 0.29346 0.07082
 H32 H 0.04762 0.29182 0.10522
 H33 H 0.03113 0.23489 0.01479
 H34 H 0.01272 0.23755 -0.06994
 H35 H 0.04690 0.23783 -0.10382
 H36 H 0.06600 0.29595 -0.04836
 H37 H 0.03169 0.29590 -0.01473
 H38 H -0.03184 0.23466 -0.01284
 H39 H -0.06597 0.23289 -0.04659
 H40 H -0.04869 0.29075 -0.10480
 H41 H -0.01465 0.29273 -0.07078
 H42 H 0.06515 0.23346 0.04892
 C43 C 0.49984 0.76736 0.48300
 C44 C 0.50006 0.76765 0.51997
 C45 C 0.47982 0.76891 0.54147
 C46 C 0.52054 0.76620 0.54071
 C47 C 0.52008 0.76820 0.46142
 C48 C 0.47937 0.76570 0.46230
 C49 C 0.46475 0.78548 0.53540
 C50 C 0.44534 0.78590 0.55474
 C51 C 0.44092 0.76991 0.58059
 C52 C 0.45612 0.75371 0.58743
 C53 C 0.47551 0.75325 0.56809
 C54 C 0.52550 0.78196 0.56674
 C55 C 0.54488 0.78092 0.58598
 C56 C 0.55939 0.76402 0.57962
 C57 C 0.55435 0.74803 0.55421
 C58 C 0.53497 0.74904 0.53498
 C59 C 0.52427 0.75217 0.43547
 C60 C 0.54357 0.75233 0.41588
 C61 C 0.55880 0.76863 0.42181
 C62 C 0.55451 0.78496 0.44703
 C63 C 0.53519 0.78483 0.46662
 C64 C 0.46485 0.74869 0.46877
 C65 C 0.44554 0.74743 0.44941
 C66 C 0.44064 0.76302 0.42314
 C67 C 0.45522 0.77977 0.41610
 C68 C 0.47453 0.78106 0.43547
 H69 H 0.46794 0.79792 0.51545
 H70 H 0.43372 0.79856 0.54932
 H71 H 0.45287 0.74127 0.60739
 H72 H 0.48695 0.74041 0.57329
 H73 H 0.51451 0.79522 0.57172
 H74 H 0.54859 0.79334 0.60566
 H75 H 0.53124 0.73648 0.51556
 H76 H 0.51279 0.73928 0.43095
 H77 H 0.54672 0.73964 0.39640
 H78 H 0.56616 0.79769 0.45173
 H79 H 0.53208 0.79756 0.48603
 H80 H 0.46848 0.73644 0.48883
 H81 H 0.43442 0.73434 0.45494
 H82 H 0.45162 0.79187 0.39575
 H83 H 0.48559 0.79419 0.42991
 H84 H 0.56541 0.73481 0.54922
 C85 C 1.00044 0.73322 -0.01850
 C86 C 1.00023 0.73339 0.01848
 C87 C 1.02049 0.73249 0.03989
 C88 C 0.97977 0.73498 0.03932
 C89 C 0.98019 0.73222 -0.03990
 C90 C 1.02090 0.73455 -0.03941
 C91 C 1.03560 0.71587 0.03446
 C92 C 1.05502 0.71579 0.05366
 C93 C 1.05942 0.73216 0.07873
 C94 C 1.04418 0.74842 0.08495
 C95 C 1.02478 0.74854 0.06575
 C96 C 0.97486 0.71944 0.06583
 C97 C 0.95546 0.72057 0.08511
 C98 C 0.94088 0.73735 0.07829
 C99 C 0.94587 0.75314 0.05240
 C100 C 0.96527 0.75204 0.03314
 C101 C 0.97601 0.74804 -0.06627
 C102 C 0.95668 0.74777 -0.08565
 C103 C 0.94140 0.73160 -0.07908
 C104 C 0.94567 0.71547 -0.05344
 C105 C 0.96503 0.71569 -0.03406
 C106 C 1.03544 0.75163 -0.03381
 C107 C 1.05475 0.75258 -0.05336
 C108 C 1.05962 0.73661 -0.07897
 C109 C 1.04498 0.71978 -0.08514
 C110 C 1.02569 0.71881 -0.06556
 H111 H 1.03243 0.70313 0.01510
 H112 H 1.06667 0.70309 0.04873
 H113 H 1.04741 0.76114 0.10432
 H114 H 1.01330 0.76142 0.07044
 H115 H 0.98590 0.70627 0.07116
 H116 H 0.95179 0.70831 0.10516
 H117 H 0.96896 0.76442 0.01332
 H118 H 0.98754 0.76085 -0.07129
 H119 H 0.95354 0.76032 -0.10546
 H120 H 0.93398 0.70283 -0.04824
 H121 H 0.96812 0.70313 -0.01430
 H122 H 1.03184 0.76417 -0.01429
 H123 H 1.06586 0.76576 -0.04843
 H124 H 1.04850 0.70734 -0.10494
 H125 H 1.01460 0.70562 -0.07044
 H126 H 0.93476 0.76625 0.04706
 C127 C 0.50028 0.23328 0.47973
 C128 C 0.50001 0.23349 0.51671
 C129 C 0.52024 0.23261 0.53823
 C130 C 0.47952 0.23507 0.53747
 C131 C 0.48006 0.23203 0.45827
 C132 C 0.52078 0.23476 0.45895
 C133 C 0.53536 0.21599 0.53290
 C134 C 0.55465 0.21581 0.55246
 C135 C 0.55892 0.23208 0.57778
 C136 C 0.54368 0.24837 0.58383
 C137 C 0.52441 0.24859 0.56427
 C138 C 0.47469 0.21966 0.56424
 C139 C 0.45536 0.22087 0.58366
 C140 C 0.44074 0.23759 0.57673
 C141 C 0.44562 0.25324 0.55053
 C142 C 0.46496 0.25206 0.53112
 C143 C 0.47575 0.24772 0.43172
 C144 C 0.45640 0.24725 0.41240
 C145 C 0.44122 0.23100 0.41919
 C146 C 0.44564 0.21499 0.44496
 C147 C 0.46502 0.21542 0.46429
 C148 C 0.53522 0.25190 0.46475
 C149 C 0.55464 0.25292 0.44553
 C150 C 0.55972 0.23696 0.42005
 C151 C 0.54520 0.22010 0.41360
 C152 C 0.52578 0.21905 0.43284
 H153 H 0.53227 0.20330 0.51342
 H154 H 0.56630 0.20308 0.54766
 H155 H 0.54681 0.26102 0.60338
 H156 H 0.51292 0.26147 0.56890
 H157 H 0.48578 0.20654 0.56971
 H158 H 0.45176 0.20872 0.60395
 H159 H 0.46859 0.26436 0.51112
 H160 H 0.48718 0.26059 0.42656
 H161 H 0.45315 0.25971 0.39249
 H162 H 0.43404 0.20230 0.45034
 H163 H 0.46820 0.20295 0.48418
 H164 H 0.53147 0.26442 0.48423
 H165 H 0.56571 0.26611 0.45058
 H166 H 0.54893 0.20770 0.39387
 H167 H 0.51478 0.20581 0.42780
 H168 H 0.43448 0.26631 0.54509
 C169 C 0.73334 -0.00058 -0.01917
 C170 C 0.73341 0.00003 0.01780
 C171 C 0.73252 -0.02002 0.03992
 C172 C 0.73484 0.02074 0.03794
 C173 C 0.73236 0.01946 -0.04127
 C174 C 0.73474 -0.02129 -0.03934
 C175 C 0.71597 -0.03524 0.03498
 C176 C 0.71587 -0.05445 0.05493
 C177 C 0.73218 -0.05853 0.08030
 C178 C 0.74838 -0.04315 0.08600
 C179 C 0.74850 -0.02397 0.06603
 C180 C 0.71924 0.02582 0.06421
 C181 C 0.72027 0.04539 0.08298
 C182 C 0.73700 0.05998 0.07589
 C183 C 0.75284 0.05483 0.05021
 C184 C 0.75184 0.03526 0.03145
 C185 C 0.74826 0.02344 -0.06759
 C186 C 0.74807 0.04264 -0.08751
 C187 C 0.73188 0.05800 -0.08155
 C188 C 0.71564 0.05389 -0.05598
 C189 C 0.71581 0.03466 -0.03608
 C190 C 0.75178 -0.03579 -0.03309
 C191 C 0.75275 -0.05536 -0.05186
 C192 C 0.73683 -0.06055 -0.07733
 C193 C 0.72004 -0.04596 -0.08416
 C194 C 0.71906 -0.02640 -0.06537
 H195 H 0.70328 -0.03231 0.01543
 H196 H 0.70319 -0.06616 0.05032
 H197 H 0.76109 -0.04607 0.10556
 H198 H 0.76133 -0.01239 0.07035
 H199 H 0.70611 0.01477 0.06977
 H200 H 0.70797 0.04918 0.10288
 H201 H 0.76428 0.03144 0.01183
 H202 H 0.76109 0.01188 -0.07211
 H203 H 0.76072 0.04559 -0.10722
 H204 H 0.70296 0.06559 -0.05117
 H205 H 0.70318 0.03171 -0.01637
 H206 H 0.76427 -0.03195 -0.01366
 H207 H 0.76590 -0.06643 -0.04643
 H208 H 0.70766 -0.04971 -0.10388
 H209 H 0.70590 -0.01535 -0.07074
 H210 H 0.76593 0.06594 0.04466
 C211 C 0.23331 0.49966 0.48208
 C212 C 0.23330 0.50018 0.51905
 C213 C 0.23227 0.48009 0.54104
 C214 C 0.23480 0.52085 0.53932
 C215 C 0.23234 0.51975 0.46009
 C216 C 0.23478 0.47899 0.46180
 C217 C 0.21568 0.46494 0.53583
 C218 C 0.21544 0.44569 0.55568
 C219 C 0.23163 0.44152 0.58119
 C220 C 0.24786 0.45681 0.58717
 C221 C 0.24813 0.47603 0.56732
 C222 C 0.21921 0.52594 0.56560
 C223 C 0.22029 0.54547 0.58445
 C224 C 0.23708 0.56002 0.57745
 C225 C 0.25291 0.55486 0.55176
 C226 C 0.25185 0.53532 0.53292
 C227 C 0.24822 0.52377 0.43375
 C228 C 0.24799 0.54298 0.41387
 C229 C 0.23179 0.55830 0.41990
 C230 C 0.21559 0.55418 0.44548
 C231 C 0.21578 0.53494 0.46536
 C232 C 0.25180 0.46448 0.46814
 C233 C 0.25283 0.44495 0.44927
 C234 C 0.23701 0.43983 0.42363
 C235 C 0.22026 0.45441 0.41669
 C236 C 0.21920 0.47394 0.43557
 H237 H 0.20308 0.46794 0.51616
 H238 H 0.20277 0.43400 0.55093
 H239 H 0.26044 0.45375 0.60686
 H240 H 0.26099 0.48755 0.57186
 H241 H 0.20604 0.51492 0.57110
 H242 H 0.20800 0.54928 0.60435
 H243 H 0.26428 0.53150 0.51329
 H244 H 0.26106 0.51222 0.42917
 H245 H 0.26059 0.54600 0.39412
 H246 H 0.20293 0.56590 0.45026
 H247 H 0.20317 0.53197 0.48508
 H248 H 0.26422 0.46828 0.48772
 H249 H 0.26593 0.43384 0.45470
 H250 H 0.20798 0.45064 0.39683
 H251 H 0.20605 0.48499 0.43013
 H252 H 0.26603 0.56594 0.54627
 C253 C 0.26589 1.00035 -0.01908
 C254 C 0.26597 1.00020 0.01791
 C255 C 0.26441 1.02049 0.03919
 C256 C 0.26709 0.97972 0.03888
 C257 C 0.26421 0.98006 -0.04032
 C258 C 0.26697 1.02083 -0.04008
 C259 C 0.27997 1.02517 0.06565
 C260 C 0.27882 1.04437 0.08545
 C261 C 0.26198 1.05899 0.07919
 C262 C 0.24618 1.05421 0.05332
 C263 C 0.24731 1.03501 0.03356
 C264 C 0.28365 0.96466 0.03262
 C265 C 0.28406 0.94513 0.05168
 C266 C 0.26807 0.94057 0.07744
 C267 C 0.25185 0.95573 0.08440
 C268 C 0.25140 0.97524 0.06534
 C269 C 0.24710 0.96559 -0.03439
 C270 C 0.24587 0.94636 -0.05407
 C271 C 0.26160 0.94152 -0.08015
 C272 C 0.27843 0.95611 -0.08670
 C273 C 0.27967 0.97533 -0.06700
 C274 C 0.25119 1.02534 -0.06628
 C275 C 0.25159 1.04484 -0.08536
 C276 C 0.26788 1.05999 -0.07867
 C277 C 0.28396 1.05539 -0.05315
 C278 C 0.28358 1.03585 -0.03408
 H279 H 0.29317 1.01410 0.07056
 H280 H 0.29113 1.04783 0.10545
 H281 H 0.23300 1.06531 0.04832
 H282 H 0.23491 1.03147 0.01379
 H283 H 0.29613 0.96798 0.01280
 H284 H 0.29673 0.93355 0.04618
 H285 H 0.23857 0.98667 0.07070
 H286 H 0.23478 0.96916 -0.01446
 H287 H 0.23270 0.93529 -0.04883
 H288 H 0.29067 0.95260 -0.10686
 H289 H 0.29288 0.98637 -0.07212
 H290 H 0.23832 1.01393 -0.07142
 H291 H 0.23906 1.04816 -0.10506
 H292 H 0.29671 1.06691 -0.04778
 H293 H 0.29612 1.03251 -0.01447
 H294 H 0.23941 0.95238 0.10430
 C295 C 0.76703 0.50035 0.48183
 C296 C 0.76699 0.49973 0.51880
 C297 C 0.76786 0.51978 0.54083
 C298 C 0.76560 0.47902 0.53904
 C299 C 0.76800 0.48031 0.45979
 C300 C 0.76563 0.52106 0.46159
 C301 C 0.78439 0.53502 0.53573
 C302 C 0.78445 0.55423 0.55558
 C303 C 0.76813 0.55828 0.58097
 C304 C 0.75196 0.54290 0.58685
 C305 C 0.75187 0.52371 0.56700
 C306 C 0.78123 0.47395 0.56521
 C307 C 0.78025 0.45438 0.58407
 C308 C 0.76353 0.43977 0.57717
 C309 C 0.74767 0.44490 0.55159
 C310 C 0.74862 0.46447 0.53274
 C311 C 0.75210 0.47636 0.43356
 C312 C 0.75230 0.45718 0.41365
 C313 C 0.76851 0.44184 0.41953
 C314 C 0.78473 0.44591 0.44499
 C315 C 0.78456 0.46510 0.46490
 C316 C 0.74858 0.53555 0.46786
 C317 C 0.74762 0.55513 0.44902
 C318 C 0.76353 0.56031 0.42348
 C319 C 0.78032 0.54574 0.41660
 C320 C 0.78131 0.52618 0.43545
 H321 H 0.79709 0.53211 0.51613
 H322 H 0.79708 0.56600 0.55090
 H323 H 0.73927 0.54587 0.60645
 H324 H 0.73905 0.51212 0.57145
 H325 H 0.79435 0.48503 0.57063
 H326 H 0.79257 0.45061 0.60389
 H327 H 0.73616 0.46827 0.51320
 H328 H 0.73926 0.48791 0.42910
 H329 H 0.73969 0.45421 0.39399
 H330 H 0.79739 0.43418 0.44966
 H331 H 0.79719 0.46803 0.48454
 H332 H 0.73609 0.53171 0.48738
 H333 H 0.73450 0.56622 0.45440
 H334 H 0.79267 0.54956 0.39680
 H335 H 0.79448 0.51514 0.43005
 H336 H 0.73459 0.43376 0.54619
 O337 O 0.24404 0.21414 0.25295
 O338 O 0.23853 0.26692 0.29790
 O339 O 0.21486 0.24424 0.25355
 O340 O 0.26768 0.23668 0.29729
 O341 O 0.28358 0.25243 0.25072
 O342 O 0.23078 0.25999 0.20699
 O343 O 0.25443 0.28265 0.25133
 O344 O 0.25995 0.22991 0.20640
 Cu345 Cu 0.23968 0.23894 0.28011
 Cu346 Cu 0.25877 0.25785 0.22422
 C347 C 0.25288 0.21300 0.22191
 C348 C 0.24562 0.28382 0.28238
 C349 C 0.21379 0.25326 0.22264
 C350 C 0.28468 0.24327 0.28151
 O351 O 0.71567 0.74695 0.25039
 O352 O 0.76835 0.74027 0.20550
 O353 O 0.74525 0.71719 0.25034
 O354 O 0.73853 0.76982 0.20535
 O355 O 0.75446 0.78586 0.25146
 O356 O 0.76116 0.73317 0.29652
 O357 O 0.78425 0.75627 0.25167
 O358 O 0.73161 0.76297 0.29651
 Cu359 Cu 0.74039 0.74193 0.22327
 Cu360 Cu 0.75950 0.76115 0.27866
 C361 C 0.71462 0.75612 0.28115
 C362 C 0.78532 0.74724 0.22081
 C363 C 0.75422 0.71616 0.28124
 C364 C 0.74532 0.78686 0.22069
 O365 O 0.78514 0.24642 0.24866
 O366 O 0.73240 0.23976 0.29338
 O367 O 0.75552 0.21670 0.24865
 O368 O 0.76225 0.26926 0.29360
 O369 O 0.74640 0.28538 0.24742
 O370 O 0.73969 0.23276 0.20239
 O371 O 0.71658 0.25583 0.24714
 O372 O 0.76928 0.26252 0.20247
 Cu373 Cu 0.76039 0.24140 0.27570
 Cu374 Cu 0.74137 0.26071 0.22023
 C375 C 0.78624 0.25563 0.21790
 C376 C 0.71546 0.24677 0.27800
 C377 C 0.74658 0.21572 0.21772
 C378 C 0.75550 0.28633 0.27823
 O379 O 0.25492 0.71468 0.24743
 O380 O 0.26276 0.76724 0.20248
 O381 O 0.28508 0.74385 0.24779
 O382 O 0.23264 0.73792 0.20217
 O383 O 0.21664 0.75418 0.24808
 O384 O 0.26907 0.76010 0.29369
 O385 O 0.24676 0.78348 0.24840
 O386 O 0.23891 0.73095 0.29333
 Cu387 Cu 0.26046 0.73932 0.22035
 Cu388 Cu 0.24125 0.75884 0.27545
 C389 C 0.24559 0.71381 0.27810
 C390 C 0.25606 0.78436 0.21771
 C391 C 0.28604 0.75289 0.27864
 C392 C 0.21565 0.74500 0.21734
 O393 O 0.76109 0.26677 0.70354
 O394 O 0.75421 0.21398 0.74819
 O395 O 0.73149 0.23703 0.70330
 O396 O 0.78404 0.24352 0.74827
 O397 O 0.76806 0.25942 0.79453
 O398 O 0.71547 0.25296 0.74951
 O399 O 0.73819 0.22992 0.79440
 O400 O 0.74510 0.28267 0.74981
 Cu401 Cu 0.75934 0.23876 0.72119
 Cu402 Cu 0.74013 0.25786 0.77670
 C403 C 0.75414 0.28375 0.71893
 C404 C 0.74499 0.21291 0.77895
 C405 C 0.71448 0.24387 0.71868
 C406 C 0.78505 0.25246 0.77920
 O407 O 0.24354 0.78594 0.74727
 O408 O 0.23828 0.73309 0.70253
 O409 O 0.21452 0.75569 0.74696
 O410 O 0.26728 0.76346 0.70290
 O411 O 0.28326 0.74784 0.74943
 O412 O 0.23051 0.74007 0.79347
 O413 O 0.25427 0.71748 0.74906
 O414 O 0.25953 0.77030 0.79379
 Cu415 Cu 0.23930 0.76108 0.72023
 Cu416 Cu 0.25849 0.74233 0.77608
 C417 C 0.25238 0.78716 0.77826
 C418 C 0.24545 0.71623 0.71806
 C419 C 0.21349 0.74670 0.77789
 C420 C 0.28432 0.75698 0.71862
 O421 O 0.21644 0.24533 0.75221
 O422 O 0.26897 0.23964 0.70653
 O423 O 0.24665 0.21612 0.75172
 O424 O 0.23873 0.26871 0.70707
 O425 O 0.25461 0.28494 0.75304
 O426 O 0.26253 0.23232 0.79771
 O427 O 0.28485 0.25586 0.75250
 O428 O 0.23231 0.26155 0.79819
 Cu429 Cu 0.24112 0.24080 0.72480
 Cu430 Cu 0.26018 0.26027 0.77998
 C431 C 0.21537 0.25445 0.78299
 C432 C 0.28590 0.24688 0.72159
 C433 C 0.25590 0.21520 0.78240
 C434 C 0.24533 0.28584 0.72238
 O435 O 0.73179 0.76074 0.70628
 O436 O 0.78443 0.75383 0.75091
 O437 O 0.76150 0.73109 0.70605
 O438 O 0.75495 0.78370 0.75097
 O439 O 0.73898 0.76773 0.79726
 O440 O 0.74552 0.71506 0.75228
 O441 O 0.76843 0.73783 0.79714
 O442 O 0.71583 0.74475 0.75256
 Cu443 Cu 0.75974 0.75897 0.72391
 Cu444 Cu 0.74056 0.73977 0.77944
 C445 C 0.71480 0.75381 0.72169
 C446 C 0.78545 0.74462 0.78167
 C447 C 0.75466 0.71405 0.72147
 C448 C 0.74598 0.78473 0.78190
 C449 C 0.24812 0.15310 0.20219
 C450 C 0.25752 0.15182 0.16775
 C451 C 0.26567 0.17047 0.15123
 C452 C 0.26432 0.19035 0.16895
 C453 C 0.26108 0.07789 0.09796
 C454 C 0.24674 0.17298 0.21999
 C455 C 0.25857 0.13145 0.14911
 C456 C 0.25939 0.11447 0.13324
 C457 C 0.26031 0.09470 0.11435
 C458 C 0.25477 0.19185 0.20350
 H459 H 0.24174 0.13876 0.21521
 H460 H 0.27297 0.16965 0.12455
 H461 H 0.27064 0.20456 0.15550
 H462 H 0.23929 0.17357 0.24654
 C463 C 0.76968 0.67161 0.65185
 C464 C 0.76201 0.65278 0.66844
 C465 C 0.75209 0.65393 0.70249
 C466 C 0.74976 0.67385 0.71986
 C467 C 0.76759 0.57843 0.60032
 C468 C 0.76737 0.69154 0.66915
 C469 C 0.76397 0.63234 0.65021
 C470 C 0.76540 0.61528 0.63471
 C471 C 0.76675 0.59538 0.61629
 C472 C 0.75733 0.69290 0.70333
 H473 H 0.77734 0.67090 0.62546
 H474 H 0.74606 0.63946 0.71554
 H475 H 0.74197 0.67434 0.74614
 H476 H 0.77337 0.70589 0.65569
 C477 C 0.74785 0.84698 0.20143
 C478 C 0.73797 0.84812 0.16739
 C479 C 0.73032 0.82929 0.15093
 C480 C 0.73261 0.80936 0.16833
 C481 C 0.73265 0.92241 0.09874
 C482 C 0.75016 0.82706 0.21890
 C483 C 0.73606 0.86855 0.14903
 C484 C 0.73469 0.88559 0.13341
 C485 C 0.73341 0.90548 0.11484
 C486 C 0.74262 0.80801 0.20248
 H487 H 0.75387 0.86146 0.21438
 H488 H 0.72268 0.82999 0.12455
 H489 H 0.72663 0.79501 0.15496
 H490 H 0.75794 0.82659 0.24516
 C491 C 0.22975 0.32814 0.65274
 C492 C 0.23728 0.34704 0.66917
 C493 C 0.24718 0.34598 0.70319
 C494 C 0.24968 0.32609 0.72066
 C495 C 0.23198 0.42135 0.60058
 C496 C 0.23223 0.30823 0.67015
 C497 C 0.23529 0.36744 0.65075
 C498 C 0.23391 0.38449 0.63513
 C499 C 0.23267 0.40439 0.61660
 C500 C 0.24230 0.30697 0.70425
 H501 H 0.22210 0.32877 0.62637
 H502 H 0.25311 0.36051 0.71611
 H503 H 0.25749 0.32569 0.74688
 H504 H 0.22637 0.29382 0.65678
 C505 C 0.84631 0.25278 0.19894
 C506 C 0.84757 0.26267 0.16487
 C507 C 0.82884 0.27046 0.14830
 C508 C 0.80889 0.26829 0.16562
 C509 C 0.92208 0.26727 0.09695
 C510 C 0.82637 0.25058 0.21633
 C511 C 0.86802 0.26443 0.14659
 C512 C 0.88510 0.26564 0.13110
 C513 C 0.90506 0.26671 0.11277
 C514 C 0.80742 0.25825 0.19980
 H515 H 0.86071 0.24665 0.21198
 H516 H 0.82963 0.27811 0.12189
 H517 H 0.79461 0.27437 0.15216
 H518 H 0.82581 0.24278 0.24261
 C519 C 0.34452 0.75517 0.70059
 C520 C 0.34578 0.76487 0.66636
 C521 C 0.32700 0.77225 0.64941
 C522 C 0.30700 0.76983 0.66649
 C523 C 0.42058 0.76973 0.59943
 C524 C 0.32454 0.75274 0.71774
 C525 C 0.36629 0.76677 0.64831
 C526 C 0.38344 0.76805 0.63305
 C527 C 0.40349 0.76916 0.61501
 C528 C 0.30553 0.75996 0.70081
 H529 H 0.35895 0.74936 0.71393
 H530 H 0.32779 0.77974 0.62287
 H531 H 0.29268 0.77557 0.65273
 H532 H 0.32398 0.74508 0.74414
 C533 C 0.17320 0.73025 0.14771
 C534 C 0.15444 0.73807 0.16423
 C535 C 0.15566 0.74806 0.19816
 C536 C 0.17556 0.75028 0.21551
 C537 C 0.07975 0.73265 0.09745
 C538 C 0.19313 0.73245 0.16499
 C539 C 0.13398 0.73614 0.14614
 C540 C 0.11686 0.73475 0.13091
 C541 C 0.09683 0.73344 0.11295
 C542 C 0.19454 0.74253 0.19908
 H543 H 0.17244 0.72251 0.12140
 H544 H 0.14124 0.75421 0.21117
 H545 H 0.17608 0.75812 0.24173
 H546 H 0.20742 0.72630 0.15162
 C547 C 0.67212 0.22932 0.64879
 C548 C 0.65333 0.23706 0.66532
 C549 C 0.65448 0.24683 0.69945
 C550 C 0.67435 0.24895 0.71695
 C551 C 0.57908 0.23241 0.59701
 C552 C 0.69202 0.23143 0.66622
 C553 C 0.63295 0.23534 0.64695
 C554 C 0.61592 0.23414 0.63138
 C555 C 0.59603 0.23304 0.61294
 C556 C 0.69336 0.24133 0.70047
 H557 H 0.67142 0.22177 0.62234
 H558 H 0.64003 0.25290 0.71246
 H559 H 0.67483 0.25665 0.74328
 H560 H 0.70633 0.22539 0.65279
 C561 C 0.72985 0.17032 0.84841
 C562 C 0.73754 0.15152 0.83183
 C563 C 0.74747 0.15275 0.79779
 C564 C 0.74981 0.17270 0.78045
 C565 C 0.73229 0.07709 0.90010
 C566 C 0.73217 0.19029 0.83114
 C567 C 0.73563 0.13106 0.85008
 C568 C 0.73427 0.11398 0.86561
 C569 C 0.73302 0.09406 0.88408
 C570 C 0.74224 0.19172 0.79699
 H571 H 0.72217 0.16956 0.87479
 H572 H 0.75352 0.13829 0.78474
 H573 H 0.75763 0.17324 0.75419
 H574 H 0.72616 0.20461 0.84461
 C575 C 0.22997 0.67160 0.34794
 C576 C 0.23756 0.65268 0.33160
 C577 C 0.24754 0.65370 0.29758
 C578 C 0.25003 0.67357 0.28002
 C579 C 0.23218 0.57846 0.40046
 C580 C 0.23244 0.69148 0.33044
 C581 C 0.23556 0.63231 0.35010
 C582 C 0.23417 0.61528 0.36579
 C583 C 0.23290 0.59540 0.38438
 C584 C 0.24258 0.69271 0.29633
 H585 H 0.22226 0.67099 0.37431
 H586 H 0.25351 0.63916 0.28472
 H587 H 0.25790 0.67395 0.25380
 H588 H 0.22652 0.70590 0.34373
 C589 C 0.26511 0.82987 0.84861
 C590 C 0.25692 0.84846 0.83203
 C591 C 0.24748 0.84709 0.79767
 C592 C 0.24613 0.82717 0.78001
 C593 C 0.26063 0.92257 0.90121
 C594 C 0.26378 0.80994 0.83102
 C595 C 0.25799 0.86888 0.85049
 C596 C 0.25883 0.88590 0.86623
 C597 C 0.25980 0.90573 0.88495
 C598 C 0.25420 0.80835 0.79656
 H599 H 0.27244 0.83075 0.87521
 H600 H 0.24108 0.86139 0.78460
 H601 H 0.23866 0.82650 0.75352
 H602 H 0.27014 0.79577 0.84451
 C603 C 0.75300 0.34643 0.29743
 C604 C 0.76284 0.34752 0.33150
 C605 C 0.77045 0.32866 0.34801
 C606 C 0.76817 0.30875 0.33061
 C607 C 0.76809 0.42173 0.40008
 C608 C 0.75070 0.32654 0.27996
 C609 C 0.76473 0.36792 0.34986
 C610 C 0.76609 0.38494 0.36547
 C611 C 0.76735 0.40481 0.38402
 C612 C 0.75820 0.30746 0.29642
 H613 H 0.74702 0.36094 0.28444
 H614 H 0.77805 0.32931 0.37442
 H615 H 0.77412 0.29438 0.34402
 H616 H 0.74296 0.32611 0.25367
 C617 C 0.15535 0.25119 0.80219
 C618 C 0.15404 0.26113 0.83618
 C619 C 0.17275 0.26897 0.85273
 C620 C 0.19272 0.26685 0.83542
 C621 C 0.07921 0.26636 0.90298
 C622 C 0.17529 0.24905 0.78482
 C623 C 0.13354 0.26299 0.85427
 C624 C 0.11638 0.26433 0.86950
 C625 C 0.09632 0.26560 0.88748
 C626 C 0.19422 0.25682 0.80128
 H627 H 0.14096 0.24504 0.78916
 H628 H 0.17193 0.27665 0.87907
 H629 H 0.20697 0.27301 0.84882
 H630 H 0.17588 0.24127 0.75857
 C631 C 0.65457 0.75337 0.30030
 C632 C 0.65337 0.76325 0.33434
 C633 C 0.67214 0.77099 0.35084
 C634 C 0.69206 0.76878 0.33346
 C635 C 0.57900 0.76824 0.40257
 C636 C 0.67448 0.75114 0.28285
 C637 C 0.63295 0.76507 0.35267
 C638 C 0.61589 0.76636 0.36822
 C639 C 0.59597 0.76754 0.38664
 C640 C 0.69347 0.75876 0.29931
 H641 H 0.64014 0.74729 0.28732
 H642 H 0.67139 0.77863 0.37722
 H643 H 0.70636 0.77482 0.34686
 H644 H 0.67501 0.74336 0.25659
 C645 C 0.84552 0.74706 0.80038
 C646 C 0.84670 0.73714 0.83443
 C647 C 0.82790 0.72948 0.85109
 C648 C 0.80797 0.73181 0.83386
 C649 C 0.92115 0.73194 0.90194
 C650 C 0.82561 0.74941 0.78308
 C651 C 0.86712 0.73522 0.85260
 C652 C 0.88420 0.73386 0.86799
 C653 C 0.90415 0.73264 0.88621
 C654 C 0.80659 0.74187 0.79969
 H655 H 0.85997 0.75308 0.78728
 H656 H 0.82863 0.72182 0.87748
 H657 H 0.79365 0.72583 0.84737
 H658 H 0.82510 0.75722 0.75681
 C659 C 0.32742 0.22819 0.35053
 C660 C 0.34616 0.23571 0.33353
 C661 C 0.34486 0.24543 0.29933
 C662 C 0.32488 0.24775 0.28225
 C663 C 0.42091 0.23116 0.40034
 C664 C 0.30741 0.23049 0.33351
 C665 C 0.36667 0.23392 0.35153
 C666 C 0.38381 0.23272 0.36675
 C667 C 0.40385 0.23168 0.38477
 C668 C 0.30591 0.24039 0.29923
 H669 H 0.32824 0.22069 0.37704
 H670 H 0.35927 0.25135 0.28597
 H671 H 0.32429 0.25543 0.25588
 H672 H 0.29313 0.22465 0.34730
 C673 C 0.75034 0.84464 0.80171
 C674 C 0.74097 0.84587 0.83618
 C675 C 0.73290 0.82717 0.85268
 C676 C 0.73433 0.80729 0.83491
 C677 C 0.73762 0.92026 0.90470
 C678 C 0.75179 0.82479 0.78388
 C679 C 0.73989 0.86625 0.85480
 C680 C 0.73912 0.88331 0.87047
 C681 C 0.73830 0.90325 0.88889
 C682 C 0.74388 0.80586 0.80035
 H683 H 0.75664 0.85902 0.78869
 H684 H 0.72562 0.82793 0.87938
 H685 H 0.72810 0.79303 0.84834
 H686 H 0.75924 0.82425 0.75732
 C687 C 0.25049 0.34374 0.30185
 C688 C 0.24119 0.34510 0.33635
 C689 C 0.23306 0.32648 0.35302
 C690 C 0.23433 0.30656 0.33537
 C691 C 0.23790 0.41958 0.40459
 C692 C 0.25179 0.32383 0.28413
 C693 C 0.24019 0.36553 0.35482
 C694 C 0.23944 0.38261 0.37040
 C695 C 0.23861 0.40257 0.38878
 C696 C 0.24379 0.30499 0.30076
 H697 H 0.25685 0.35805 0.28870
 H698 H 0.22582 0.32735 0.37974
 H699 H 0.22803 0.29237 0.34893
 H700 H 0.25917 0.32319 0.25753
 C701 C 0.27100 0.17281 0.85225
 C702 C 0.26343 0.15395 0.83574
 C703 C 0.25370 0.15507 0.80159
 C704 C 0.25139 0.17497 0.78408
 C705 C 0.26776 0.07928 0.90354
 C706 C 0.26872 0.19274 0.83479
 C707 C 0.26519 0.13352 0.85417
 C708 C 0.26635 0.11641 0.86966
 C709 C 0.26731 0.09638 0.88789
 C710 C 0.25880 0.19406 0.80056
 H711 H 0.27853 0.17214 0.87872
 H712 H 0.24774 0.14057 0.78860
 H713 H 0.24369 0.17541 0.75777
 H714 H 0.27459 0.20712 0.84822
 C715 C 0.75000 0.65623 0.30122
 C716 C 0.75934 0.65500 0.33567
 C717 C 0.76736 0.67371 0.35209
 C718 C 0.76590 0.69360 0.33426
 C719 C 0.76270 0.58059 0.40442
 C720 C 0.74852 0.67609 0.28334
 C721 C 0.76043 0.63461 0.35436
 C722 C 0.76121 0.61755 0.37008
 C723 C 0.76202 0.59760 0.38856
 C724 C 0.75637 0.69503 0.29973
 H725 H 0.74373 0.64185 0.28827
 H726 H 0.77461 0.67295 0.37876
 H727 H 0.77208 0.70786 0.34763
 H728 H 0.74109 0.67662 0.25680
 C729 C 0.17113 0.73299 0.84853
 C730 C 0.15239 0.74087 0.83207
 C731 C 0.15354 0.75022 0.79756
 C732 C 0.17337 0.75188 0.77969
 C733 C 0.07856 0.73738 0.90232
 C734 C 0.19098 0.73463 0.83073
 C735 C 0.13207 0.73973 0.85091
 C736 C 0.11513 0.73891 0.86692
 C737 C 0.09538 0.73807 0.88591
 C738 C 0.19235 0.74421 0.79617
 H739 H 0.17042 0.72573 0.87525
 H740 H 0.13913 0.75638 0.78459
 H741 H 0.17387 0.75935 0.75314
 H742 H 0.20527 0.72858 0.84417
 C743 C 0.67286 0.23336 0.34846
 C744 C 0.65422 0.24145 0.33196
 C745 C 0.65554 0.25095 0.29759
 C746 C 0.67543 0.25251 0.27986
 C747 C 0.57989 0.23782 0.40073
 C748 C 0.69278 0.23489 0.33079
 C749 C 0.63381 0.24028 0.35052
 C750 C 0.61676 0.23944 0.36620
 C751 C 0.59685 0.23855 0.38474
 C752 C 0.69430 0.24458 0.29633
 H753 H 0.67203 0.22598 0.37508
 H754 H 0.64121 0.25728 0.28458
 H755 H 0.67603 0.26006 0.25338
 H756 H 0.70698 0.22864 0.34422
 C757 C 0.82738 0.26551 0.85002
 C758 C 0.84607 0.25746 0.83358
 C759 C 0.84488 0.24810 0.79913
 C760 C 0.82507 0.24665 0.78127
 C761 C 0.92016 0.26087 0.90274
 C762 C 0.80754 0.26408 0.83221
 C763 C 0.86641 0.25853 0.85227
 C764 C 0.88340 0.25932 0.86805
 C765 C 0.90325 0.26016 0.88669
 C766 C 0.80614 0.25455 0.79767
 H767 H 0.82811 0.27278 0.87669
 H768 H 0.85926 0.24181 0.78617
 H769 H 0.82456 0.23921 0.75473
 H770 H 0.79328 0.27030 0.84560
 C771 C 0.34575 0.74819 0.29938
 C772 C 0.34686 0.75780 0.33364
 C773 C 0.32815 0.76607 0.34971
 C774 C 0.30838 0.76462 0.33172
 C775 C 0.42062 0.76188 0.40356
 C776 C 0.32600 0.74672 0.28132
 C777 C 0.36713 0.75899 0.35248
 C778 C 0.38405 0.75992 0.36844
 C779 C 0.40380 0.76098 0.38731
 C780 C 0.30706 0.75486 0.29736
 H781 H 0.36014 0.74173 0.28669
 H782 H 0.32882 0.77354 0.37623
 H783 H 0.29412 0.77104 0.34482
 H784 H 0.32554 0.73911 0.25492
 C785 C 0.27121 0.82669 0.14770
 C786 C 0.26358 0.84556 0.16414
 C787 C 0.25378 0.84447 0.19829
 C788 C 0.25147 0.82459 0.21587
 C789 C 0.26798 0.92019 0.09624
 C790 C 0.26893 0.80678 0.16523
 C791 C 0.26535 0.86597 0.14566
 C792 C 0.26652 0.88307 0.13014
 C793 C 0.26750 0.90310 0.11189
 C794 C 0.25894 0.80549 0.19946
 H795 H 0.27879 0.82734 0.12123
 H796 H 0.24777 0.85897 0.21124
 H797 H 0.24372 0.82417 0.24219
 H798 H 0.27486 0.79239 0.15186
 C799 C 0.76743 0.32634 0.64832
 C800 C 0.75937 0.34501 0.66482
 C801 C 0.74996 0.34373 0.69927
 C802 C 0.74846 0.32384 0.71706
 C803 C 0.76271 0.41949 0.59622
 C804 C 0.76594 0.30642 0.66605
 C805 C 0.76046 0.36543 0.64620
 C806 C 0.76123 0.38250 0.63053
 C807 C 0.76204 0.40247 0.61208
 C808 C 0.75634 0.30493 0.70057
 H809 H 0.77473 0.32715 0.62164
 H810 H 0.74367 0.35808 0.71229
 H811 H 0.74097 0.32325 0.74359
 H812 H 0.77216 0.29218 0.65260
 C813 C 0.75071 0.15579 0.19787
 C814 C 0.74139 0.15462 0.16340
 C815 C 0.73343 0.17336 0.14692
 C816 C 0.73492 0.19323 0.16471
 C817 C 0.73788 0.08025 0.09487
 C818 C 0.75222 0.17564 0.21571
 C819 C 0.74026 0.13425 0.14476
 C820 C 0.73945 0.11720 0.12909
 C821 C 0.73859 0.09726 0.11068
 C822 C 0.74442 0.19461 0.19926
 H823 H 0.75693 0.14139 0.21087
 H824 H 0.72620 0.17264 0.12023
 H825 H 0.72878 0.20752 0.15129
 H826 H 0.75963 0.17613 0.24227
 C827 C 0.23300 0.67343 0.64767
 C828 C 0.24121 0.65487 0.66436
 C829 C 0.25054 0.65631 0.69879
 C830 C 0.25179 0.67624 0.71641
 C831 C 0.23798 0.58029 0.59643
 C832 C 0.23423 0.69339 0.66523
 C833 C 0.24024 0.63440 0.64599
 C834 C 0.23951 0.61729 0.63049
 C835 C 0.23869 0.59731 0.61219
 C836 C 0.24370 0.69503 0.69977
 H837 H 0.22575 0.67250 0.62102
 H838 H 0.25695 0.64204 0.71195
 H839 H 0.25919 0.67695 0.74295
 H840 H 0.22786 0.70753 0.65167
 C841 C 0.84521 0.75141 0.20100
 C842 C 0.84647 0.74195 0.16662
 C843 C 0.82780 0.73390 0.15020
 C844 C 0.80792 0.73543 0.16795
 C845 C 0.92072 0.73827 0.09765
 C846 C 0.82535 0.75295 0.21880
 C847 C 0.86685 0.74079 0.14799
 C848 C 0.88389 0.73993 0.13226
 C849 C 0.90378 0.73902 0.11368
 C850 C 0.80645 0.74506 0.20241
 H851 H 0.85956 0.75770 0.21395
 H852 H 0.82860 0.72656 0.12359
 H853 H 0.79369 0.72920 0.15457
 H854 H 0.82478 0.76047 0.24528
 C855 C 0.32815 0.23400 0.65037
 C856 C 0.34681 0.24230 0.66646
 C857 C 0.34562 0.25184 0.70078
 C858 C 0.32584 0.25319 0.71888
 C859 C 0.42068 0.23863 0.59635
 C860 C 0.30835 0.23533 0.66841
 C861 C 0.36711 0.24124 0.64756
 C862 C 0.38406 0.24040 0.63156
 C863 C 0.40384 0.23946 0.61265
 C864 C 0.30695 0.24501 0.70283
 H865 H 0.32889 0.22659 0.62380
 H866 H 0.35997 0.25833 0.71347
 H867 H 0.32532 0.26075 0.74533
 H868 H 0.29413 0.22889 0.65529
 C869 C 0.17134 0.26676 0.15225
 C870 C 0.15265 0.25877 0.16879
 C871 C 0.15385 0.24941 0.20328
 C872 C 0.17370 0.24785 0.22105
 C873 C 0.07878 0.26186 0.09896
 C874 C 0.19121 0.26523 0.16994
 C875 C 0.13232 0.25980 0.15006
 C876 C 0.11538 0.26052 0.13414
 C877 C 0.09561 0.26126 0.11527
 C878 C 0.19263 0.25564 0.20448
 H879 H 0.17059 0.27403 0.12553
 H880 H 0.13948 0.24315 0.21633
 H881 H 0.17424 0.24037 0.24758
 H882 H 0.20546 0.27137 0.15643
 C883 C 0.65489 0.74988 0.70217
 C884 C 0.65368 0.75937 0.66778
 C885 C 0.67238 0.76738 0.65126
 C886 C 0.69225 0.76577 0.66892
 C887 C 0.57951 0.76315 0.59896
 C888 C 0.67474 0.74825 0.71988
 C889 C 0.63331 0.76060 0.64922
 C890 C 0.61630 0.76148 0.63352
 C891 C 0.59643 0.76241 0.61497
 C892 C 0.69367 0.75609 0.70339
 H893 H 0.64052 0.74362 0.71519
 H894 H 0.67162 0.77475 0.62463
 H895 H 0.70650 0.77196 0.65547
 H896 H 0.67528 0.74071 0.74637
   
