data_POSCAR
  _audit_creation_date              2014-09-24
  _audit_creation_method            'ToBaCCo'
  _symmetry_space_group_name_H-M    'P1'
  _symmetry_Int_Tables_number       1
  _symmetry_cell_setting            triclinic
  loop_
  _symmetry_equiv_pos_as_xyz
 x,y,z
_cell_length_a 28.2334
_cell_length_b 28.2956
_cell_length_c 66.8038
_cell_angle_alpha 84.960700
_cell_angle_beta 92.533800
_cell_angle_gamma 120.116200
loop_
  _atom_site_label
  _atom_site_type_symbol
  _atom_site_fract_x
  _atom_site_fract_y
  _atom_site_fract_z
C1 C 0.00894 0.10136 0.52553
 H2 H 0.04718 0.10151 0.52461
 C3 C 0.00523 0.13721 0.53753
 H4 H 0.04063 0.16494 0.54598
 C5 C -0.08367 0.06556 0.51533
 H6 H -0.11783 0.03801 0.50642
 C7 C -0.08915 0.10096 0.52720
 H8 H -0.12774 0.10040 0.52757
 N9 N -0.03513 0.06633 0.51483
 C10 C -0.00074 -0.06382 0.50552
 H11 H 0.00174 -0.06084 0.48930
 C12 C 0.00101 -0.10690 0.51683
 H13 H 0.00552 -0.13686 0.50934
 C14 C -0.01322 -0.03060 0.53509
 H15 H -0.02081 -0.00210 0.54212
 C16 C -0.01161 -0.07293 0.54693
 H17 H -0.01705 -0.07626 0.56304
 Zn18 Zn -0.02204 0.02292 0.49849
 N19 N -0.00825 -0.02706 0.51475
 C20 C 0.08584 0.07078 0.48190
 N21 N 0.03848 0.07238 0.48215
 C22 C 0.03298 0.11232 0.47128
 C23 C 0.07590 0.15253 0.45934
 C24 C 0.12998 0.11042 0.47011
 C25 C -0.12928 -0.06062 0.49150
 C26 C -0.17152 -0.09978 0.48025
 C27 C -0.11823 -0.05356 0.45015
 C28 C -0.07704 -0.01545 0.46195
 N29 N -0.08291 -0.02002 0.48226
 H30 H 0.08963 0.03927 0.49096
 H31 H -0.00490 0.11295 0.47201
 H32 H 0.07108 0.18417 0.45076
 H33 H 0.16767 0.10916 0.46996
 H34 H -0.13228 -0.06406 0.50771
 H35 H -0.20742 -0.13304 0.48786
 H36 H -0.11215 -0.05045 0.43406
 H37 H -0.03934 0.01601 0.45493
 C38 C -0.00527 -0.11187 0.53770
 C39 C -0.04415 0.13712 0.53836
 C40 C -0.16546 -0.09677 0.45940
 C41 C 0.12485 0.15167 0.45877
 C42 C 1.13554 0.05954 0.13965
 H43 H 1.13633 0.09808 0.14001
 C44 C 1.17312 0.05626 0.12786
 H45 H 1.20288 0.09231 0.11901
 C46 C 1.09615 -0.03441 0.15100
 H47 H 1.06646 -0.06933 0.16026
 C48 C 1.13318 -0.03948 0.13937
 H49 H 1.13175 -0.07849 0.13953
 N50 N 1.09786 0.01458 0.15080
 C51 C 0.96591 0.04837 0.15890
 H52 H 0.96573 0.04882 0.17508
 C53 C 0.92436 0.05055 0.14740
 H54 H 0.89244 0.05335 0.15470
 C55 C 1.00529 0.04002 0.12972
 H56 H 1.03549 0.03369 0.12294
 C57 C 0.96462 0.04216 0.11769
 H58 H 0.96424 0.03835 0.10168
 Zn59 Zn 1.05151 0.02627 0.16667
 N60 N 1.00486 0.04248 0.14997
 C61 C 1.09630 0.13167 0.18234
 N62 N 1.09798 0.08439 0.18252
 C63 C 1.13566 0.07710 0.19365
 C64 C 1.17329 0.11798 0.20545
 C65 C 1.13338 0.17379 0.19399
 C66 C 0.96586 -0.08149 0.17448
 C67 C 0.92433 -0.12522 0.18600
 C68 C 0.96475 -0.07647 0.21569
 C69 C 1.00540 -0.03365 0.20364
 N70 N 1.00488 -0.03659 0.18339
 H71 H 1.06661 0.13690 0.17311
 H72 H 1.13641 0.03933 0.19328
 H73 H 1.20305 0.11169 0.21429
 H74 H 1.13197 0.21137 0.19385
 H75 H 0.96560 -0.08215 0.15830
 H76 H 0.89235 -0.16000 0.17872
 H77 H 0.96445 -0.07299 0.23170
 H78 H 1.03565 0.00292 0.21040
 C79 C 0.92325 0.04645 0.12665
 C80 C 1.17199 0.00638 0.12770
 C81 C 0.92332 -0.12218 0.20675
 C82 C 1.17219 0.16674 0.20563
 C83 C 0.03284 0.91995 0.86191
 H84 H -0.00502 0.88138 0.86116
 C85 C 0.07572 0.92273 0.87388
 H86 H 0.07088 0.88626 0.88247
 C87 C 0.08570 1.01444 0.85132
 H88 H 0.08951 1.04975 0.84226
 C89 C 0.12979 1.01900 0.86315
 H90 H 0.16747 1.05802 0.86333
 N91 N 0.03836 0.96540 0.85104
 C92 C -0.12937 0.93046 0.84160
 H93 H -0.13233 0.93093 0.82539
 C94 C -0.17161 0.92736 0.85284
 H95 H -0.20749 0.92474 0.84526
 C96 C -0.07720 0.93755 0.87118
 H97 H -0.03953 0.94381 0.87822
 C98 C -0.11842 0.93444 0.88296
 H99 H -0.11248 0.93742 0.89904
 Zn100 Zn -0.02211 0.95428 0.83467
 N101 N -0.08302 0.93626 0.85087
 C102 C -0.08369 0.84996 0.81781
 N103 N -0.03515 0.89778 0.81833
 C104 C 0.00895 0.90687 0.80765
 C105 C 0.00526 0.86732 0.79565
 C106 C -0.08915 0.80909 0.80593
 C107 C -0.00082 1.06234 0.82764
 C108 C 0.00094 1.10719 0.81633
 C109 C -0.01156 1.06062 0.78623
 C110 C -0.01319 1.01666 0.79807
 N111 N -0.00829 1.01808 0.81840
 H112 H -0.11788 0.84331 0.82669
 H113 H 0.04718 0.94501 0.80858
 H114 H 0.04068 0.87503 0.78722
 H115 H -0.12775 0.77101 0.80554
 H116 H 0.00160 1.06182 0.84386
 H117 H 0.00541 1.14164 0.82382
 H118 H -0.01696 1.05852 0.77011
 H119 H -0.02074 0.98058 0.79104
 C120 C -0.16557 0.93040 0.87368
 C121 C 0.12464 0.97262 0.87450
 C122 C -0.00527 1.10589 0.79546
 C123 C -0.04412 0.81798 0.79479
 O124 O 0.54711 -0.04919 0.02219
 O125 O 0.44310 -0.06048 -0.01583
 O126 O 0.53322 -0.06501 -0.01599
 O127 O 0.45287 -0.05320 0.02276
 O128 O 0.49628 0.03661 0.01661
 O129 O 0.57894 0.02480 -0.02210
 O130 O 0.48895 0.02932 -0.02198
 O131 O 0.59064 0.04062 0.01608
 Cu132 Cu 0.48972 -0.06590 0.00388
 Cu133 Cu 0.54323 0.04177 -0.00344
 C134 C 0.58676 -0.00196 0.02561
 C135 C 0.44832 -0.01709 -0.02533
 C136 C 0.56994 -0.02251 -0.02564
 C137 C 0.46009 -0.00669 0.02623
 O138 O -0.07804 0.41037 0.68635
 O139 O -0.07804 0.51079 0.64680
 O140 O -0.08242 0.41628 0.64727
 O141 O -0.08241 0.50050 0.68587
 O142 O 0.00788 0.54680 0.68582
 O143 O 0.00787 0.46038 0.64733
 O144 O 0.01225 0.55472 0.64680
 O145 O 0.01224 0.45683 0.68635
 Cu146 Cu -0.08922 0.45498 0.66657
 Cu147 Cu 0.01902 0.50917 0.66658
 C148 C -0.03247 0.41665 0.69306
 C149 C -0.03247 0.55013 0.64009
 C150 C -0.03764 0.42333 0.64077
 C151 C -0.03762 0.53829 0.69238
 O152 O 0.49664 0.46047 0.31689
 O153 O 0.57948 0.55485 0.35564
 O154 O 0.48942 0.46027 0.35550
 O155 O 0.59106 0.55084 0.31745
 O156 O 0.54761 0.59717 0.31141
 O157 O 0.44364 0.50426 0.34941
 O158 O 0.53384 0.59897 0.34960
 O159 O 0.45331 0.50691 0.31081
 Cu160 Cu 0.54367 0.50220 0.33696
 Cu161 Cu 0.49025 0.55641 0.32972
 C162 C 0.46047 0.46761 0.30730
 C163 C 0.57056 0.59316 0.35922
 C164 C 0.44883 0.46604 0.35888
 C165 C 0.58720 0.58958 0.30795
 C166 C -0.09128 0.31127 0.60469
 C167 C -0.04278 0.31567 0.59814
 C168 C 0.00772 0.35627 0.60512
 C169 C 0.00967 0.39198 0.61879
 C170 C -0.04761 0.17466 0.55061
 C171 C -0.08946 0.34683 0.61833
 C172 C -0.04506 0.27748 0.58471
 C173 C -0.04690 0.24502 0.57372
 C174 C -0.04815 0.20689 0.56112
 C175 C -0.03897 0.38737 0.62566
 H176 H -0.13058 0.27997 0.59941
 H177 H 0.04553 0.35995 0.60017
 H178 H 0.04914 0.42268 0.62415
 H179 H -0.12768 0.34215 0.62329
 C180 C 0.71399 0.65185 0.27534
 C181 C 0.71314 0.69711 0.26550
 C182 C 0.67034 0.70673 0.26917
 C183 C 0.62880 0.67146 0.28281
 C184 C 0.87785 0.83650 0.21869
 C185 C 0.67265 0.61665 0.28895
 C186 C 0.75721 0.73440 0.25215
 C187 C 0.79489 0.76585 0.24130
 C188 C 0.83957 0.80337 0.22896
 C189 C 0.62973 0.62620 0.29295
 H190 H 0.74694 0.64407 0.27264
 H191 H 0.66938 0.74177 0.26167
 H192 H 0.59637 0.67994 0.28556
 H193 H 0.67462 0.58218 0.29646
 C194 C 0.37312 0.02656 -0.06415
 C195 C 0.32520 -0.02311 -0.06686
 C196 C 0.31812 -0.07143 -0.05647
 C197 C 0.35857 -0.06992 -0.04319
 C198 C 0.16921 -0.02456 -0.11333
 C199 C 0.41349 0.02820 -0.05091
 C200 C 0.28284 -0.02389 -0.07987
 C201 C 0.24740 -0.02383 -0.09059
 C202 C 0.20558 -0.02377 -0.10295
 C203 C 0.40652 -0.01993 -0.04014
 H204 H 0.37902 0.06420 -0.07209
 H205 H 0.28109 -0.11013 -0.05844
 H206 H 0.35195 -0.10763 -0.03511
 H207 H 0.44990 0.06737 -0.04893
 C208 C 0.02245 0.67483 0.60290
 C209 C -0.02548 0.67475 0.59664
 C210 C -0.07625 0.63276 0.60408
 C211 C -0.07893 0.59140 0.61797
 C212 C -0.00862 0.84158 0.54957
 C213 C 0.01990 0.63372 0.61676
 C214 C -0.02191 0.71905 0.58319
 C215 C -0.01783 0.75715 0.57226
 C216 C -0.01262 0.80254 0.55985
 C217 C -0.03076 0.59177 0.62460
 H218 H 0.06195 0.70715 0.59728
 H219 H -0.11363 0.63241 0.59936
 H220 H -0.11851 0.55975 0.62374
 H221 H 0.05778 0.63523 0.62150
 C222 C 0.35115 0.40155 0.26779
 C223 C 0.35422 0.35485 0.26487
 C224 C 0.39338 0.34576 0.27534
 C225 C 0.42885 0.38292 0.28890
 C226 C 0.21112 0.20905 0.21778
 C227 C 0.38644 0.43865 0.28132
 C228 C 0.31592 0.31557 0.25161
 C229 C 0.28309 0.28255 0.24071
 C230 C 0.24422 0.24335 0.22822
 C231 C 0.42539 0.42955 0.29218
 H232 H 0.32099 0.40896 0.25979
 H233 H 0.39602 0.30964 0.27320
 H234 H 0.45831 0.37473 0.29704
 H235 H 0.38268 0.47413 0.28346
 C236 C 0.62334 -0.08758 -0.05875
 C237 C 0.66676 -0.04155 -0.06864
 C238 C 0.67783 0.01098 -0.06489
 C239 C 0.64592 0.01744 -0.05110
 C240 C 0.79700 -0.06621 -0.11525
 C241 C 0.59149 -0.08126 -0.04498
 C242 C 0.70104 -0.04847 -0.08203
 C243 C 0.73025 -0.05464 -0.09286
 C244 C 0.76550 -0.06149 -0.10512
 C245 C 0.60264 -0.02866 -0.04087
 H246 H 0.61449 -0.12841 -0.06149
 H247 H 0.71149 0.04693 -0.07243
 H248 H 0.65556 0.05844 -0.04827
 H249 H 0.55846 -0.11764 -0.03740
 C250 C 0.35084 -0.04973 0.06573
 C251 C 0.35394 0.00009 0.06859
 C252 C 0.39311 0.04830 0.05809
 C253 C 0.42856 0.04654 0.04455
 C254 C 0.21089 0.00297 0.11558
 C255 C 0.38610 -0.05162 0.05222
 C256 C 0.31566 0.00114 0.08182
 C257 C 0.28284 0.00138 0.09269
 C258 C 0.24399 0.00175 0.10516
 C259 C 0.42507 -0.00360 0.04133
 H260 H 0.32067 -0.08729 0.07375
 H261 H 0.39578 0.08711 0.06017
 H262 H 0.45802 0.08417 0.03638
 H263 H 0.38232 -0.09090 0.05013
 C264 C 0.67870 0.66756 0.39842
 C265 C 0.66774 0.70905 0.40221
 C266 C 0.62429 0.71167 0.39237
 C267 C 0.59231 0.67348 0.37861
 C268 C 0.79857 0.86405 0.44876
 C269 C 0.64667 0.62918 0.38464
 C270 C 0.70216 0.75028 0.41559
 C271 C 0.73150 0.78569 0.42641
 C272 C 0.76692 0.82782 0.43865
 C273 C 0.60337 0.63201 0.37446
 H274 H 0.71239 0.66528 0.40592
 H275 H 0.61551 0.74367 0.39514
 H276 H 0.55926 0.67683 0.37107
 H277 H 0.65624 0.59781 0.38178
 C278 C -0.07624 0.29019 0.72907
 C279 C -0.02548 0.29903 0.73651
 C280 C 0.02246 0.34694 0.73025
 C281 C 0.01991 0.38550 0.71640
 C282 C -0.00862 0.14908 0.78358
 C283 C -0.07893 0.32886 0.71518
 C284 C -0.02191 0.25830 0.74996
 C285 C -0.01783 0.22428 0.76088
 C286 C -0.01261 0.18412 0.77330
 C287 C -0.03076 0.37673 0.70855
 H288 H -0.11362 0.25313 0.73378
 H289 H 0.06196 0.35417 0.73587
 H290 H 0.05779 0.42192 0.71165
 H291 H -0.11851 0.32090 0.70941
 C292 C 0.66998 -0.03578 0.06438
 C293 C 0.71284 0.01670 0.06802
 C294 C 0.71370 0.06279 0.05816
 C295 C 0.67231 0.05658 0.04456
 C296 C 0.87775 0.04225 0.11473
 C297 C 0.62838 -0.04213 0.05076
 C298 C 0.75697 0.02356 0.08134
 C299 C 0.79470 0.02985 0.09217
 C300 C 0.83942 0.03705 0.10449
 C301 C 0.62933 0.00404 0.04060
 H302 H 0.66901 -0.07177 0.07190
 H303 H 0.74670 0.10358 0.06082
 H304 H 0.67429 0.09301 0.03703
 H305 H 0.59592 -0.08308 0.04804
 C306 C 0.37356 0.34691 0.39761
 C307 C 0.32565 0.34860 0.40033
 C308 C 0.31860 0.38990 0.38998
 C309 C 0.35908 0.42896 0.37673
 C310 C 0.16947 0.19354 0.44664
 C311 C 0.41396 0.38576 0.38440
 C312 C 0.28324 0.30688 0.41330
 C313 C 0.24776 0.27126 0.42399
 C314 C 0.20589 0.22924 0.43630
 C315 C 0.40702 0.42698 0.37367
 H316 H 0.37943 0.31513 0.40553
 H317 H 0.28158 0.39152 0.39196
 H318 H 0.35248 0.46009 0.36868
 H319 H 0.45037 0.38305 0.38242
 C320 C 0.00775 0.65077 0.72803
 C321 C -0.04274 0.64081 0.73501
 C322 C -0.09125 0.59664 0.72846
 C323 C -0.08943 0.56292 0.71481
 C324 C -0.04756 0.77699 0.78254
 C325 C 0.00970 0.61702 0.71436
 C326 C -0.04501 0.67673 0.74844
 C327 C -0.04685 0.70735 0.75943
 C328 C -0.04810 0.74422 0.77202
 C329 C -0.03895 0.57292 0.70749
 H330 H 0.04557 0.68495 0.73298
 H331 H -0.13054 0.58860 0.73374
 H332 H -0.12765 0.52932 0.70985
 H333 H 0.04917 0.62583 0.70900
   
