data_POSCAR
  _audit_creation_date              2014-09-24
  _audit_creation_method            'ToBaCCo'
  _symmetry_space_group_name_H-M    'P1'
  _symmetry_Int_Tables_number       1
  _symmetry_cell_setting            triclinic
  loop_
  _symmetry_equiv_pos_as_xyz
 x,y,z
_cell_length_a 34.0880
_cell_length_b 26.1101
_cell_length_c 15.6679
_cell_angle_alpha 89.720200
_cell_angle_beta 89.891700
_cell_angle_gamma 89.962400
loop_
  _atom_site_label
  _atom_site_type_symbol
  _atom_site_fract_x
  _atom_site_fract_y
  _atom_site_fract_z
O1 O 0.72767 0.29518 0.59577
 O2 O 0.80114 0.27177 0.42747
 O3 O 0.73782 0.32646 0.44130
 O4 O 0.78983 0.23487 0.57982
 O5 O 0.75362 0.17118 0.53175
 O6 O 0.70285 0.26199 0.39152
 O7 O 0.76615 0.20673 0.38022
 O8 O 0.69182 0.23110 0.54790
 Cu9 Cu 0.76780 0.28822 0.51678
 Cu10 Cu 0.72489 0.21144 0.45824
 C11 C 0.69664 0.26835 0.59885
 C12 C 0.79649 0.23506 0.37563
 C13 C 0.71128 0.30934 0.39257
 C14 C 0.78138 0.18740 0.57780
 O15 O 0.31217 0.79515 0.40220
 O16 O 0.24846 0.86213 0.54968
 O17 O 0.31258 0.80563 0.56825
 O18 O 0.23934 0.82587 0.39514
 O19 O 0.21261 0.75135 0.42783
 O20 O 0.28302 0.73305 0.60063
 O21 O 0.21821 0.78980 0.58206
 O22 O 0.28441 0.72108 0.43514
 Cu23 Cu 0.28046 0.82836 0.47648
 Cu24 Cu 0.24676 0.74214 0.51617
 C25 C 0.30924 0.74731 0.39224
 C26 C 0.22164 0.83836 0.58905
 C27 C 0.31034 0.76491 0.61345
 C28 C 0.21357 0.79129 0.38194
 O29 O 0.24790 0.13704 -0.54808
 O30 O 0.31198 0.20410 -0.40160
 O31 O 0.24168 0.17114 -0.39521
 O32 O 0.31415 0.19255 -0.57029
 O33 O 0.28454 0.26543 -0.60070
 O34 O 0.21504 0.24619 -0.42599
 O35 O 0.28522 0.27838 -0.43652
 O36 O 0.21861 0.20963 -0.58215
 Cu37 Cu 0.28233 0.16935 -0.47813
 Cu38 Cu 0.24798 0.25610 -0.51665
 C39 C 0.22125 0.16098 -0.58746
 C40 C 0.30932 0.25200 -0.39225
 C41 C 0.21617 0.20598 -0.38062
 C42 C 0.31191 0.23366 -0.61459
 O43 O -0.27394 0.70581 -0.59669
 O44 O -0.20138 0.72931 -0.42733
 O45 O -0.26476 0.67494 -0.44190
 O46 O -0.21193 0.76629 -0.57999
 O47 O -0.24850 0.83001 -0.53281
 O48 O -0.29958 0.73966 -0.39237
 O49 O -0.23658 0.79453 -0.38079
 O50 O -0.31018 0.76977 -0.54924
 Cu51 Cu -0.23427 0.71295 -0.51715
 Cu52 Cu -0.27745 0.78987 -0.45945
 C53 C -0.30508 0.73245 -0.60000
 C54 C -0.20641 0.76594 -0.37552
 C55 C -0.29135 0.69221 -0.39309
 C56 C -0.22048 0.81376 -0.57834
 N57 N -0.04383 0.90883 -0.09043
 N58 N -0.07476 0.87869 -0.10016
 N59 N 0.03853 0.94288 -0.14945
 N60 N 0.06569 0.93176 -0.20683
 N61 N 0.03850 0.90840 -0.08825
 N62 N 0.06488 0.87261 -0.10262
 N63 N -0.04415 0.94553 -0.14813
 N64 N -0.07522 0.94200 -0.19751
 C65 C -0.09383 0.90002 -0.16763
 C66 C 0.08197 0.88801 -0.17596
 N67 N 0.04097 1.08914 -0.09507
 N68 N 0.07434 1.11497 -0.10249
 N69 N -0.04304 1.05612 -0.15225
 N70 N -0.07019 1.06742 -0.20976
 N71 N -0.04163 1.09193 -0.09388
 N72 N -0.06725 1.12836 -0.10967
 N73 N 0.03965 1.05248 -0.15221
 N74 N 0.07186 1.05169 -0.19849
 Mn75 Mn -0.00241 0.99928 -0.15151
 C76 C 0.09296 1.09110 -0.16810
 C77 C -0.08519 1.11243 -0.18114
 N78 N 0.03929 0.91093 0.09624
 N79 N 0.07230 0.88439 0.10450
 N80 N -0.04471 0.94553 0.15131
 N81 N -0.07195 0.93424 0.20885
 N82 N -0.04330 0.90978 0.09280
 N83 N -0.06901 0.87345 0.10851
 N84 N 0.03799 0.94763 0.15337
 N85 N 0.06987 0.94771 0.20047
 Mn86 Mn -0.00222 0.90891 0.00270
 C87 C 0.09072 0.90783 0.17061
 C88 C -0.08703 0.88937 0.18005
 N89 N -0.04350 1.09294 0.08928
 N90 N -0.07423 1.12362 0.09782
 N91 N 0.03802 1.05737 0.15065
 N92 N 0.06470 1.06827 0.20900
 N93 N 0.03879 1.09175 0.08933
 N94 N 0.06524 1.12725 0.10451
 N95 N -0.04472 1.05626 0.14698
 N96 N -0.07625 1.06033 0.19513
 Mn97 Mn -0.00122 1.09201 -0.00269
 Mn98 Mn -0.00352 1.00167 0.15160
 Cl99 Cl -0.00236 1.00046 0.00005
 C100 C -0.09416 1.10267 0.16453
 C101 C 0.08154 1.11179 0.17851
 N102 N 0.45266 0.42012 -0.11637
 N103 N 0.42397 0.38962 -0.14068
 N104 N 0.53633 0.46054 -0.16318
 N105 N 0.56553 0.45899 -0.21859
 N106 N 0.53510 0.41818 -0.11774
 N107 N 0.56334 0.38646 -0.14153
 N108 N 0.45369 0.46148 -0.16438
 N109 N 0.42550 0.46066 -0.22180
 C110 C 0.40718 0.41580 -0.20608
 C111 C 0.58211 0.41261 -0.20448
 N112 N 0.53470 0.59940 -0.06389
 N113 N 0.56236 0.63459 -0.06798
 N114 N 0.45353 0.56919 -0.13375
 N115 N 0.42560 0.58183 -0.18797
 N116 N 0.45244 0.59870 -0.06614
 N117 N 0.42402 0.63314 -0.07369
 N118 N 0.53608 0.56941 -0.13086
 N119 N 0.56489 0.58319 -0.18227
 Mn120 Mn 0.49508 0.51522 -0.14883
 C121 C 0.58113 0.62359 -0.14165
 C122 C 0.40763 0.62189 -0.15031
 N123 N 0.53521 0.39918 0.06302
 N124 N 0.56371 0.36505 0.06533
 N125 N 0.45407 0.42901 0.13456
 N126 N 0.42630 0.41629 0.18932
 N127 N 0.45290 0.39948 0.06697
 N128 N 0.42458 0.36497 0.07508
 N129 N 0.53661 0.42915 0.13000
 N130 N 0.56624 0.41638 0.17968
 Mn131 Mn 0.49375 0.40861 -0.02627
 C132 C 0.58292 0.37657 0.13807
 C133 C 0.40836 0.37614 0.15207
 N134 N 0.45272 0.57813 0.11707
 N135 N 0.42410 0.60867 0.14189
 N136 N 0.53658 0.53807 0.16242
 N137 N 0.56566 0.54000 0.21783
 N138 N 0.53511 0.58039 0.11690
 N139 N 0.56306 0.61244 0.14064
 N140 N 0.45393 0.53682 0.16518
 N141 N 0.42590 0.53774 0.22325
 Mn142 Mn 0.49353 0.58976 0.02623
 Mn143 Mn 0.49547 0.48317 0.14884
 Cl144 Cl 0.49438 0.49919 0.00000
 C145 C 0.40752 0.58262 0.20774
 C146 C 0.58193 0.58655 0.20360
 C147 C 0.34051 0.24461 0.32314
 C148 C 0.33977 0.28810 0.27664
 C149 C 0.37267 0.30448 0.22082
 C150 C 0.37310 0.35224 0.18908
 H151 H 0.31540 0.31448 0.28405
 H152 H 0.39786 0.27967 0.21227
 H153 H 0.36480 0.21822 0.31539
 H154 H 0.34895 0.37779 0.20368
 C155 C -0.19679 0.85111 0.37353
 C156 C -0.16668 0.83639 0.32524
 C157 C -0.14039 0.87352 0.28354
 C158 C -0.11558 0.85687 0.22425
 H159 H -0.16082 0.79588 0.31693
 H160 H -0.14124 0.91366 0.30086
 H161 H -0.20317 0.89154 0.38089
 H162 H -0.11657 0.81701 0.20514
 C163 C 0.66357 0.71890 0.33900
 C164 C 0.65950 0.67092 0.31018
 C165 C 0.62573 0.65506 0.25732
 C166 C 0.61616 0.60543 0.25157
 H167 H 0.68026 0.64177 0.33027
 H168 H 0.60781 0.68391 0.22623
 H169 H 0.64152 0.74741 0.32372
 H170 H 0.63305 0.57730 0.28696
 C171 C 0.19425 1.13263 0.36591
 C172 C 0.16475 1.15396 0.32268
 C173 C 0.13524 1.12178 0.28068
 C174 C 0.11156 1.14191 0.22213
 H175 H 0.16203 1.19530 0.31845
 H176 H 0.13327 1.08140 0.29665
 H177 H 0.19694 1.09121 0.36699
 H178 H 0.11510 1.18162 0.20309
 C179 C 0.66508 0.28152 -0.34015
 C180 C 0.66065 0.32938 -0.31104
 C181 C 0.62663 0.34474 -0.25820
 C182 C 0.61662 0.39423 -0.25237
 H183 H 0.68125 0.35877 -0.33090
 H184 H 0.60889 0.31563 -0.22724
 H185 H 0.64318 0.25277 -0.32510
 H186 H 0.63335 0.42261 -0.28766
 C187 C 0.19522 0.86677 -0.36261
 C188 C 0.16561 0.84556 -0.31936
 C189 C 0.13633 0.87787 -0.27668
 C190 C 0.11221 0.85771 -0.21885
 H191 H 0.16248 0.80425 -0.31616
 H192 H 0.13467 0.91837 -0.29208
 H193 H 0.19835 0.90813 -0.36260
 H194 H 0.11535 0.81785 -0.20035
 C195 C 0.34056 0.75361 -0.32105
 C196 C 0.33932 0.71055 -0.27386
 C197 C 0.37219 0.69373 -0.21863
 C198 C 0.37240 0.64599 -0.18688
 H199 H 0.31452 0.68490 -0.28056
 H200 H 0.39756 0.71823 -0.21052
 H201 H 0.36534 0.77933 -0.31534
 H202 H 0.34812 0.62068 -0.20111
 C203 C -0.19504 1.15007 -0.37390
 C204 C -0.16507 1.16490 -0.32554
 C205 C -0.13869 1.12793 -0.28391
 C206 C -0.11382 1.14481 -0.22517
 H207 H -0.15935 1.20544 -0.31727
 H208 H -0.13949 1.08775 -0.30091
 H209 H -0.20127 1.10963 -0.38135
 H210 H -0.11483 1.18472 -0.20636
 C211 C 0.68757 0.65832 -0.34190
 C212 C 0.66109 0.67480 -0.28538
 C213 C 0.63478 0.63911 -0.24140
 C214 C 0.61239 0.65541 -0.17731
 H215 H 0.65739 0.71547 -0.27373
 H216 H 0.63221 0.60012 -0.26432
 H217 H 0.69226 0.61753 -0.34986
 H218 H 0.61608 0.69374 -0.15228
 C219 C 0.18652 1.20023 -0.31253
 C220 C 0.18064 1.15634 -0.27049
 C221 C 0.14561 1.14925 -0.21596
 C222 C 0.13250 1.10203 -0.20070
 H223 H 0.19944 1.12373 -0.28330
 H224 H 0.12806 1.18205 -0.19756
 H225 H 0.16668 1.23205 -0.30183
 H226 H 0.14877 1.06974 -0.22588
 C227 C 0.33462 0.27599 -0.32859
 C228 C 0.33702 0.32647 -0.31858
 C229 C 0.36483 0.34740 -0.25657
 C230 C 0.37532 0.39642 -0.25945
 H231 H 0.32002 0.35217 -0.35857
 H232 H 0.37895 0.32154 -0.21175
 H233 H 0.35274 0.25093 -0.28974
 H234 H 0.36247 0.42195 -0.30648
 C235 C -0.17598 0.77584 -0.31080
 C236 C -0.17431 0.82000 -0.26819
 C237 C -0.13992 0.83344 -0.21575
 C238 C -0.13119 0.88268 -0.20383
 H239 H -0.19672 0.84884 -0.27871
 H240 H -0.11980 0.80381 -0.19469
 H241 H -0.15251 0.74813 -0.30362
 H242 H -0.14987 0.91186 -0.23187
 C243 C 0.33501 0.72308 0.32947
 C244 C 0.33736 0.67254 0.31986
 C245 C 0.36534 0.65130 0.25830
 C246 C 0.37576 0.60222 0.26151
 H247 H 0.32005 0.64702 0.35966
 H248 H 0.37956 0.67698 0.21325
 H249 H 0.35346 0.74796 0.29095
 H250 H 0.36286 0.57685 0.30876
 C251 C -0.17406 1.22539 0.31549
 C252 C -0.17400 1.18378 0.26583
 C253 C -0.13918 1.16995 0.21469
 C254 C -0.13178 1.12071 0.19887
 H255 H -0.19804 1.15665 0.26953
 H256 H -0.11764 1.19894 0.19831
 H257 H -0.14891 1.25082 0.31373
 H258 H -0.15180 1.09176 0.22287
 C259 C 0.68887 0.34521 0.33950
 C260 C 0.66544 0.32849 0.27761
 C261 C 0.63746 0.36293 0.23582
 C262 C 0.61563 0.34630 0.17127
 H263 H 0.66513 0.28820 0.26106
 H264 H 0.63305 0.40108 0.26121
 H265 H 0.69011 0.38568 0.35438
 H266 H 0.62083 0.30877 0.14418
 C267 C 0.18351 0.79724 0.31496
 C268 C 0.17781 0.84113 0.27277
 C269 C 0.14271 0.84874 0.21890
 C270 C 0.13000 0.89618 0.20378
 H271 H 0.19695 0.87345 0.28479
 H272 H 0.12494 0.81620 0.20054
 H273 H 0.16337 0.76569 0.30516
 H274 H 0.14650 0.92821 0.22897
   
