data_POSCAR
  _audit_creation_date              2014-09-24
  _audit_creation_method            'ToBaCCo'
  _symmetry_space_group_name_H-M    'P1'
  _symmetry_Int_Tables_number       1
  _symmetry_cell_setting            triclinic
  loop_
  _symmetry_equiv_pos_as_xyz
 x,y,z
_cell_length_a 48.8172
_cell_length_b 28.0869
_cell_length_c 20.3532
_cell_angle_alpha 90.228500
_cell_angle_beta 89.770500
_cell_angle_gamma 90.590500
loop_
  _atom_site_label
  _atom_site_type_symbol
  _atom_site_fract_x
  _atom_site_fract_y
  _atom_site_fract_z
O1 O 0.70900 0.24577 0.43400
 O2 O 0.75017 0.18221 0.55703
 O3 O 0.70735 0.23944 0.56107
 O4 O 0.75083 0.18967 0.43059
 O5 O 0.77759 0.25348 0.43620
 O6 O 0.73631 0.29964 0.57361
 O7 O 0.77842 0.24398 0.56272
 O8 O 0.73552 0.30936 0.44638
 Cu9 Cu 0.72647 0.20800 0.49535
 Cu10 Cu 0.75970 0.28291 0.50566
 C11 C 0.71517 0.28858 0.41977
 C12 C 0.77181 0.20184 0.57927
 C13 C 0.71429 0.27813 0.58937
 C14 C 0.77154 0.21330 0.41096
 O15 O 0.28046 0.77519 0.43835
 O16 O 0.23222 0.81662 0.56258
 O17 O 0.27861 0.77001 0.56608
 O18 O 0.23162 0.81039 0.43477
 O19 O 0.21204 0.73912 0.43461
 O20 O 0.25694 0.70059 0.56607
 O21 O 0.21063 0.74718 0.56257
 O22 O 0.26104 0.70379 0.43840
 Cu23 Cu 0.25769 0.80004 0.50084
 Cu24 Cu 0.23316 0.71573 0.50070
 C25 C 0.27917 0.73290 0.41692
 C26 C 0.21295 0.79003 0.58304
 C27 C 0.27571 0.72770 0.58762
 C28 C 0.21402 0.78088 0.41201
 O29 O 0.27407 0.27813 -0.55305
 O30 O 0.22859 0.21570 -0.43811
 O31 O 0.27501 0.26152 -0.42822
 O32 O 0.22837 0.22987 -0.56417
 O33 O 0.25110 0.16319 -0.57980
 O34 O 0.29755 0.19467 -0.44428
 O35 O 0.25088 0.14864 -0.45449
 O36 O 0.29694 0.21179 -0.57037
 Cu37 Cu 0.24922 0.25295 -0.49426
 Cu38 Cu 0.27649 0.17295 -0.51395
 C39 C 0.29339 0.25593 -0.58094
 C40 C 0.23171 0.17167 -0.42697
 C41 C 0.29433 0.23356 -0.41343
 C42 C 0.23161 0.19064 -0.59454
 O43 O -0.20972 0.72953 -0.42508
 O44 O -0.25305 0.66641 -0.54657
 O45 O -0.20676 0.71376 -0.55142
 O46 O -0.25509 0.67921 -0.42090
 O47 O -0.27865 0.74489 -0.43669
 O48 O -0.22932 0.78052 -0.56653
 O49 O -0.27566 0.73293 -0.56335
 O50 O -0.23329 0.79514 -0.44126
 Cu51 Cu -0.22876 0.69070 -0.48431
 Cu52 Cu -0.25657 0.76996 -0.50361
 C53 C -0.21412 0.77326 -0.41295
 C54 C -0.27192 0.68907 -0.57522
 C55 C -0.20951 0.75318 -0.58078
 C56 C -0.27530 0.70551 -0.40726
 N57 N -0.03046 0.97661 0.13267
 N58 N -0.05175 0.97550 0.17272
 N59 N 0.02783 0.94015 0.09468
 N60 N 0.05020 0.91521 0.10568
 N61 N 0.02711 0.97758 0.13352
 N62 N 0.04884 0.97935 0.17153
 N63 N -0.03013 0.93861 0.09493
 N64 N -0.05122 0.91036 0.10864
 C65 C -0.06444 0.93397 0.15741
 C66 C 0.06292 0.94023 0.15415
 N67 N 0.02748 0.95389 -0.09756
 N68 N 0.04610 0.94086 -0.14105
 N69 N -0.02982 0.92448 -0.04566
 N70 N -0.04909 0.89141 -0.05142
 N71 N -0.03017 0.95347 -0.09619
 N72 N -0.04978 0.94105 -0.13746
 N73 N 0.02761 0.92532 -0.04658
 N74 N 0.04615 0.89176 -0.05450
 Mn75 Mn -0.00107 0.93151 0.02459
 C76 C 0.05774 0.90232 -0.11330
 C77 C -0.06149 0.90251 -0.10859
 N78 N 0.02758 1.07824 0.11496
 N79 N 0.04836 1.08736 0.15437
 N80 N -0.02941 1.10703 0.06366
 N81 N -0.04983 1.13743 0.06697
 N82 N -0.03011 1.07786 0.11382
 N83 N -0.05112 1.08724 0.15245
 N84 N 0.02811 1.10692 0.06424
 N85 N 0.04911 1.13689 0.06822
 Mn86 Mn -0.00155 1.02758 0.12439
 C87 C 0.06158 1.12399 0.12465
 C88 C -0.06320 1.12442 0.12250
 N89 N -0.03001 1.05567 -0.11481
 N90 N -0.05071 1.05876 -0.15635
 N91 N 0.02820 1.09274 -0.07619
 N92 N 0.04948 1.12058 -0.08866
 N93 N 0.02800 1.05557 -0.11554
 N94 N 0.04936 1.05690 -0.15558
 N95 N -0.02918 1.09312 -0.07601
 N96 N -0.04906 1.12271 -0.09007
 Mn97 Mn -0.00124 1.00462 -0.10688
 Mn98 Mn -0.00051 1.10046 -0.00626
 Cl99 Cl -0.00109 1.01595 0.00884
 C100 C -0.06238 1.10084 -0.13992
 C101 C 0.06246 1.09777 -0.13816
 N102 N 0.46484 0.56998 -0.10284
 N103 N 0.44511 0.58188 -0.14352
 N104 N 0.52237 0.60503 -0.05965
 N105 N 0.54232 0.63703 -0.06505
 N106 N 0.52233 0.57621 -0.11067
 N107 N 0.54231 0.58743 -0.15171
 N108 N 0.46502 0.59826 -0.05131
 N109 N 0.44561 0.63050 -0.05595
 C110 C 0.43314 0.61935 -0.11330
 C111 C 0.55455 0.62546 -0.12276
 N112 N 0.52861 0.55265 0.11761
 N113 N 0.55055 0.55679 0.15504
 N114 N 0.46842 0.58256 0.08896
 N115 N 0.44586 0.60577 0.10489
 N116 N 0.47113 0.54491 0.12639
 N117 N 0.45060 0.54131 0.16835
 N118 N 0.52601 0.59031 0.08025
 N119 N 0.54601 0.62122 0.09138
 Mn120 Mn 0.49540 0.59465 0.01482
 C121 C 0.56114 0.59979 0.13801
 C122 C 0.43512 0.57952 0.15480
 N123 N 0.52494 0.47478 -0.13290
 N124 N 0.54292 0.47264 -0.18146
 N125 N 0.46982 0.43094 -0.08659
 N126 N 0.44952 0.40060 -0.09859
 N127 N 0.46762 0.46889 -0.12363
 N128 N 0.44577 0.46574 -0.16125
 N129 N 0.52740 0.43793 -0.09397
 N130 N 0.54741 0.41020 -0.11413
 Mn131 Mn 0.49493 0.52254 -0.11815
 C132 C 0.55700 0.43253 -0.16841
 C133 C 0.43476 0.42301 -0.14536
 N134 N 0.47429 0.44404 0.10511
 N135 N 0.45616 0.42948 0.14907
 N136 N 0.53125 0.42285 0.04537
 N137 N 0.55158 0.39222 0.04845
 N138 N 0.53172 0.45161 0.09636
 N139 N 0.55242 0.44167 0.13519
 N140 N 0.47398 0.41594 0.05342
 N141 N 0.45582 0.38122 0.06099
 Mn142 Mn 0.50149 0.49832 0.11205
 Mn143 Mn 0.50061 0.42638 -0.02065
 Cl144 Cl 0.49809 0.51047 -0.00301
 C145 C 0.44473 0.39044 0.12062
 C146 C 0.56475 0.40484 0.10441
 C147 C 0.31092 0.28142 0.37789
 C148 C 0.33255 0.26092 0.34338
 C149 C 0.35222 0.29070 0.30667
 N150 N 0.36946 0.27080 0.26214
 N151 N 0.38763 0.29768 0.22969
 C152 C 0.38933 0.34533 0.24110
 N153 N 0.37226 0.36509 0.28596
 N154 N 0.35398 0.33832 0.31795
 C155 C 0.40969 0.37542 0.20743
 C156 C 0.42372 0.36027 0.15166
 H157 H 0.33524 0.22267 0.34341
 H158 H 0.41335 0.41099 0.22646
 H159 H 0.30766 0.31941 0.37359
 H160 H 0.41900 0.32598 0.12974
 C161 C -0.19007 0.76623 0.37202
 C162 C -0.18944 0.81100 0.34246
 C163 C -0.16674 0.82603 0.29909
 N164 N -0.16259 0.87297 0.28665
 N165 N -0.14138 0.88739 0.25020
 C166 C -0.12361 0.85538 0.22433
 N167 N -0.12803 0.80836 0.23578
 N168 N -0.14913 0.79395 0.27272
 C169 C -0.09944 0.87114 0.18627
 C170 C -0.08974 0.91786 0.19012
 H171 H -0.20472 0.83717 0.35546
 H172 H -0.08805 0.84494 0.15845
 H173 H -0.17390 0.74127 0.36084
 H174 H -0.10014 0.94320 0.22147
 C175 C 0.70978 0.66367 0.37902
 C176 C 0.69014 0.68783 0.34290
 C177 C 0.66853 0.66326 0.30543
 N178 N 0.65115 0.68906 0.26829
 N179 N 0.63046 0.66794 0.23682
 C180 C 0.62627 0.62021 0.24162
 N181 N 0.64369 0.59433 0.27866
 N182 N 0.66447 0.61545 0.30997
 C183 C 0.60274 0.59691 0.20939
 C184 C 0.58571 0.62163 0.16701
 H185 H 0.68988 0.72640 0.34405
 H186 H 0.59857 0.55973 0.21979
 H187 H 0.71096 0.62524 0.37598
 H188 H 0.59041 0.65826 0.15449
 C189 C 0.21329 1.17601 0.35694
 C190 C 0.19123 1.20341 0.33653
 C191 C 0.16928 1.18269 0.29573
 N192 N 0.15080 1.21116 0.26592
 N193 N 0.12996 1.19230 0.23217
 C194 C 0.12673 1.14429 0.22766
 N195 N 0.14516 1.11593 0.25756
 N196 N 0.16610 1.13474 0.29069
 C197 C 0.10285 1.12255 0.19524
 C198 C 0.08649 1.14674 0.15082
 H199 H 0.18935 1.24002 0.35278
 H200 H 0.09808 1.08571 0.20660
 H201 H 0.21585 1.14074 0.33611
 H202 H 0.09222 1.18208 0.13431
 C203 C 0.69743 0.29822 -0.36290
 C204 C 0.67033 0.28341 -0.35406
 C205 C 0.65181 0.30939 -0.31025
 N206 N 0.62558 0.31704 -0.32876
 N207 N 0.60865 0.34136 -0.29001
 C208 C 0.61728 0.35827 -0.23097
 N209 N 0.64340 0.34995 -0.21195
 N210 N 0.66049 0.32636 -0.25125
 C211 C 0.59836 0.38327 -0.18706
 C212 C 0.57824 0.41301 -0.21149
 H213 H 0.66155 0.25630 -0.38588
 H214 H 0.60054 0.37882 -0.13449
 H215 H 0.70485 0.32920 -0.33615
 H216 H 0.57805 0.42209 -0.26316
 C217 C 0.19427 0.80995 -0.37306
 C218 C 0.17197 0.78597 -0.34499
 C219 C 0.15158 0.81261 -0.30597
 N220 N 0.13430 0.78985 -0.26374
 N221 N 0.11583 0.81427 -0.22909
 C222 C 0.11384 0.86227 -0.23593
 N223 N 0.13091 0.88481 -0.27858
 N224 N 0.14947 0.86053 -0.31264
 C225 C 0.09309 0.89013 -0.20038
 C226 C 0.07908 0.87347 -0.14516
 H227 H 0.16938 0.74792 -0.35168
 H228 H 0.08920 0.92587 -0.21765
 H229 H 0.19718 0.84734 -0.36118
 H230 H 0.08397 0.83910 -0.12461
 C231 C 0.29448 0.70758 -0.36396
 C232 C 0.31635 0.73213 -0.33550
 C233 C 0.33681 0.70595 -0.29713
 N234 N 0.35431 0.72915 -0.25601
 N235 N 0.37308 0.70508 -0.22251
 C236 C 0.37512 0.65706 -0.22950
 N237 N 0.35780 0.63409 -0.27096
 N238 N 0.33895 0.65801 -0.30387
 C239 C 0.39633 0.62974 -0.19581
 C240 C 0.41084 0.64710 -0.14199
 H241 H 0.31881 0.77013 -0.34262
 H242 H 0.40035 0.59409 -0.21370
 H243 H 0.29159 0.67017 -0.35275
 H244 H 0.40585 0.68132 -0.12065
 C245 C -0.21007 1.17478 -0.37717
 C246 C -0.18745 1.19643 -0.34743
 C247 C -0.16640 1.16998 -0.31166
 N248 N -0.14708 1.19450 -0.27744
 N249 N -0.12703 1.17177 -0.24700
 C250 C -0.12534 1.12357 -0.24997
 N251 N -0.14462 1.09893 -0.28443
 N252 N -0.16483 1.12171 -0.31467
 C253 C -0.10272 1.09863 -0.21726
 C254 C -0.08582 1.12259 -0.17285
 H255 H -0.18460 1.23461 -0.35161
 H256 H -0.09954 1.06122 -0.22751
 H257 H -0.21391 1.13705 -0.37062
 H258 H -0.09013 1.15926 -0.16021
 C259 C 0.70463 0.68819 -0.35868
 C260 C 0.68261 0.71503 -0.33618
 C261 C 0.66044 0.69286 -0.29715
 N262 N 0.64208 0.72010 -0.26411
 N263 N 0.62135 0.69993 -0.23110
 C264 C 0.61813 0.65180 -0.23058
 N265 N 0.63640 0.62471 -0.26382
 N266 N 0.65721 0.64480 -0.29620
 C267 C 0.59462 0.62854 -0.19822
 C268 C 0.57851 0.65054 -0.15054
 H269 H 0.68120 0.75233 -0.34887
 H270 H 0.59016 0.59192 -0.21178
 H271 H 0.70668 0.65177 -0.34218
 H272 H 0.58388 0.68567 -0.13234
 C273 C 0.21239 1.14682 -0.38307
 C274 C 0.19348 1.17223 -0.34581
 C275 C 0.17099 1.14952 -0.30913
 N276 N 0.15485 1.17668 -0.27012
 N277 N 0.13340 1.15761 -0.23905
 C278 C 0.12716 1.11066 -0.24613
 N279 N 0.14332 1.08338 -0.28513
 N280 N 0.16490 1.10245 -0.31607
 C281 C 0.10285 1.08995 -0.21373
 C282 C 0.08755 1.11626 -0.16888
 H283 H 0.19460 1.21078 -0.34496
 H284 H 0.09685 1.05368 -0.22553
 H285 H 0.21242 1.10828 -0.38175
 H286 H 0.09421 1.15180 -0.15506
 C287 C 0.31377 0.24643 -0.36108
 C288 C 0.31429 0.29173 -0.33293
 C289 C 0.33618 0.30760 -0.28818
 N290 N 0.33898 0.35458 -0.27396
 N291 N 0.35955 0.37017 -0.23663
 C292 C 0.37804 0.33934 -0.21172
 N293 N 0.37497 0.29218 -0.22493
 N294 N 0.35446 0.27659 -0.26267
 C295 C 0.40174 0.35681 -0.17369
 C296 C 0.40967 0.40452 -0.17606
 H297 H 0.29938 0.31776 -0.34805
 H298 H 0.41425 0.33144 -0.14777
 H299 H 0.32921 0.22080 -0.34784
 H300 H 0.39807 0.42913 -0.20557
 C301 C -0.19653 0.80018 -0.36745
 C302 C -0.17612 0.77919 -0.33015
 C303 C -0.15663 0.80836 -0.29195
 N304 N -0.13979 0.78770 -0.24775
 N305 N -0.12150 0.81382 -0.21463
 C306 C -0.11927 0.86149 -0.22493
 N307 N -0.13602 0.88205 -0.26928
 N308 N -0.15442 0.85602 -0.30200
 C309 C -0.09841 0.89061 -0.19132
 C310 C -0.08378 0.87411 -0.13764
 H311 H -0.17409 0.74082 -0.32978
 H312 H -0.09448 0.92625 -0.20950
 H313 H -0.19932 0.83837 -0.36482
 H314 H -0.08865 0.83970 -0.11654
 C315 C 0.29920 0.71907 0.36645
 C316 C 0.30470 0.67214 0.34906
 C317 C 0.32718 0.66096 0.30302
 N318 N 0.33705 0.61606 0.29915
 N319 N 0.35836 0.60632 0.26038
 C320 C 0.37051 0.64103 0.22371
 N321 N 0.36033 0.68572 0.22670
 N322 N 0.33913 0.69551 0.26573
 C323 C 0.39492 0.63125 0.18311
 C324 C 0.40946 0.58925 0.19007
 H325 H 0.29373 0.64325 0.37292
 H326 H 0.40247 0.65862 0.15014
 H327 H 0.31141 0.74745 0.34491
 H328 H 0.40246 0.56281 0.22510
 C329 C -0.21084 1.19245 0.36028
 C330 C -0.18935 1.21783 0.33144
 C331 C -0.16844 1.19382 0.29173
 N332 N -0.14991 1.21972 0.25671
 N333 N -0.12982 1.19821 0.22396
 C334 C -0.12744 1.15008 0.22562
 N335 N -0.14596 1.12425 0.26061
 N336 N -0.16615 1.14570 0.29288
 C337 C -0.10440 1.12598 0.19393
 C338 C -0.08760 1.14828 0.14786
 H339 H -0.18707 1.25568 0.34060
 H340 H -0.10045 1.08946 0.20768
 H341 H -0.21405 1.15528 0.34780
 H342 H -0.09248 1.18339 0.12979
 C343 C 0.69838 0.31528 0.37315
 C344 C 0.67867 0.29329 0.33368
 C345 C 0.66009 0.32090 0.29210
 N346 N 0.64386 0.29839 0.24750
 N347 N 0.62610 0.32285 0.21166
 C348 C 0.62383 0.37071 0.21945
 N349 N 0.64006 0.39318 0.26403
 N350 N 0.65793 0.36879 0.29951
 C351 C 0.60305 0.39790 0.18401
 C352 C 0.58814 0.37908 0.13161
 H353 H 0.67656 0.25486 0.33377
 H354 H 0.59887 0.43374 0.20098
 H355 H 0.70157 0.35344 0.37017
 H356 H 0.59319 0.34455 0.11133
 C357 C 0.19529 0.79403 0.35908
 C358 C 0.19184 0.84060 0.33801
 C359 C 0.17003 0.85250 0.29135
 N360 N 0.16219 0.89834 0.28439
 N361 N 0.14106 0.90907 0.24619
 C362 C 0.12707 0.87442 0.21325
 N363 N 0.13530 0.82869 0.21900
 N364 N 0.15634 0.81792 0.25749
 C365 C 0.10237 0.88557 0.17527
 C366 C 0.08931 0.92887 0.18393
 H367 H 0.20373 0.86920 0.36008
 H368 H 0.09317 0.85824 0.14455
 H369 H 0.18244 0.76598 0.33882
 H370 H 0.09793 0.95512 0.21728
   
