data_POSCAR
  _audit_creation_date              2014-09-24
  _audit_creation_method            'ToBaCCo'
  _symmetry_space_group_name_H-M    'P1'
  _symmetry_Int_Tables_number       1
  _symmetry_cell_setting            triclinic
  loop_
  _symmetry_equiv_pos_as_xyz
 x,y,z
_cell_length_a 40.3962
_cell_length_b 42.5349
_cell_length_c 33.5538
_cell_angle_alpha 89.719200
_cell_angle_beta 86.339500
_cell_angle_gamma 89.739800
loop_
  _atom_site_label
  _atom_site_type_symbol
  _atom_site_fract_x
  _atom_site_fract_y
  _atom_site_fract_z
C1 C 1.26796 0.21851 0.27131
 C2 C 1.25191 0.24154 0.24940
 C3 C 1.22845 0.23263 0.22264
 C4 C 1.22053 0.20084 0.21816
 C5 C 1.23539 0.17816 0.24185
 C6 C 1.25934 0.18655 0.26865
 C7 C 1.25875 0.27504 0.25610
 C8 C 1.29077 0.28701 0.24771
 C9 C 1.29823 0.31817 0.25763
 C10 C 1.27288 0.33731 0.27515
 C11 C 1.24029 0.32624 0.28088
 C12 C 1.23344 0.29485 0.27209
 H13 H 1.28545 0.22602 0.29248
 H14 H 1.21653 0.25042 0.20522
 H15 H 1.31005 0.27174 0.23464
 H16 H 1.20841 0.28595 0.27718
 H17 H 1.22979 0.15362 0.23724
 H18 H 1.27787 0.36171 0.28173
 C19 C 0.76118 -0.28509 0.29413
 C20 C 0.74953 -0.26977 0.26084
 C21 C 0.73663 -0.28713 0.23041
 C22 C 0.73541 -0.31989 0.23268
 C23 C 0.74725 -0.33547 0.26595
 C24 C 0.76043 -0.31827 0.29726
 C25 C 0.75226 -0.23558 0.25614
 C26 C 0.78205 -0.22244 0.24069
 C27 C 0.78378 -0.19048 0.22947
 C28 C 0.75535 -0.17143 0.23725
 C29 C 0.72572 -0.18449 0.25409
 C30 C 0.72418 -0.21668 0.26264
 H31 H 0.77242 -0.27091 0.31628
 H32 H 0.72764 -0.27501 0.20468
 H33 H 0.80349 -0.23768 0.23641
 H34 H 0.70110 -0.22706 0.27445
 H35 H 0.74554 -0.36085 0.26745
 H36 H 0.75549 -0.14683 0.22892
 C37 C 0.77762 0.20063 -0.24758
 C38 C 0.75724 0.22190 -0.26657
 C39 C 0.73317 0.21068 -0.29089
 C40 C 0.72770 0.17840 -0.29451
 C41 C 0.74759 0.15704 -0.27458
 C42 C 0.77250 0.16812 -0.25076
 C43 C 0.75630 0.25522 -0.25501
 C44 C 0.78458 0.27412 -0.25978
 C45 C 0.78339 0.30583 -0.24757
 C46 C 0.75330 0.31773 -0.22991
 C47 C 0.72479 0.29907 -0.22581
 C48 C 0.72648 0.26786 -0.23837
 H49 H 0.79515 0.20936 -0.22715
 H50 H 0.71712 0.22729 -0.30503
 H51 H 0.80744 0.26383 -0.27245
 H52 H 0.70466 0.25314 -0.23454
 H53 H 0.74235 0.13210 -0.27552
 H54 H 0.75102 0.34236 -0.22214
 C55 C 1.26819 -0.30185 -0.22153
 C56 C 1.25174 -0.28438 -0.24991
 C57 C 1.23492 -0.29981 -0.27929
 C58 C 1.23407 -0.33269 -0.28022
 C59 C 1.24814 -0.34992 -0.24976
 C60 C 1.26551 -0.33485 -0.22025
 C61 C 1.25180 -0.24985 -0.24889
 C62 C 1.28116 -0.23340 -0.25867
 C63 C 1.28093 -0.20048 -0.26008
 C64 C 1.25138 -0.18410 -0.24980
 C65 C 1.22195 -0.20036 -0.23905
 C66 C 1.22219 -0.23335 -0.23946
 H67 H 1.28106 -0.28954 -0.19895
 H68 H 1.22347 -0.28617 -0.30210
 H69 H 1.30377 -0.24628 -0.26695
 H70 H 1.19962 -0.24621 -0.23149
 H71 H 1.24676 -0.37535 -0.25021
 H72 H 1.25124 -0.15862 -0.25051
 C73 C 0.23098 0.27940 0.72585
 C74 C 0.24306 0.26026 0.75558
 C75 C 0.22078 0.24501 0.78263
 C76 C 0.18625 0.24702 0.77866
 C77 C 0.17439 0.26608 0.74799
 C78 C 0.19674 0.28398 0.72322
 C79 C 0.27915 0.25792 0.75949
 C80 C 0.29337 0.27073 0.79266
 C81 C 0.32820 0.27210 0.79461
 C82 C 0.34838 0.25861 0.76309
 C83 C 0.33405 0.24455 0.73048
 C84 C 0.29948 0.24492 0.72863
 H85 H 0.24844 0.29229 0.70613
 H86 H 0.23057 0.23049 0.80582
 H87 H 0.27701 0.28190 0.81524
 H88 H 0.28820 0.23458 0.70335
 H89 H 0.14793 0.26952 0.74620
 H90 H 0.37513 0.25832 0.76412
 C91 C 0.71896 0.78343 0.71919
 C92 C 0.72845 0.76160 0.74755
 C93 C 0.70469 0.74197 0.76689
 C94 C 0.67089 0.74351 0.75807
 C95 C 0.66216 0.76566 0.72872
 C96 C 0.68569 0.78594 0.70926
 C97 C 0.76330 0.76030 0.75830
 C98 C 0.77587 0.78412 0.78168
 C99 C 0.80872 0.78282 0.79319
 C100 C 0.82912 0.75748 0.78042
 C101 C 0.81681 0.73354 0.75669
 C102 C 0.78385 0.73513 0.74574
 H103 H 0.73769 0.79919 0.70618
 H104 H 0.71301 0.72670 0.79007
 H105 H 0.75985 0.80351 0.79134
 H106 H 0.77401 0.71658 0.72795
 H107 H 0.63746 0.76564 0.71831
 H108 H 0.85435 0.75606 0.78954
 C109 C 0.72783 0.27124 0.21519
 C110 C 0.73660 0.24818 0.24246
 C111 C 0.71358 0.22510 0.25530
 C112 C 0.68125 0.22554 0.24183
 C113 C 0.67268 0.24935 0.21496
 C114 C 0.69601 0.27181 0.20097
 C115 C 0.77014 0.24855 0.25706
 C116 C 0.77868 0.27182 0.28384
 C117 C 0.81134 0.27429 0.29512
 C118 C 0.83567 0.25354 0.27881
 C119 C 0.82729 0.22945 0.25254
 C120 C 0.79417 0.22711 0.24212
 H121 H 0.74585 0.28884 0.20513
 H122 H 0.72104 0.20688 0.27557
 H123 H 0.75994 0.28824 0.29557
 H124 H 0.78687 0.20881 0.22220
 H125 H 0.64788 0.25041 0.20454
 H126 H 0.86100 0.25609 0.28705
 C127 C 0.21754 0.76499 0.20614
 C128 C 0.22572 0.74388 0.23595
 C129 C 0.20147 0.72401 0.25381
 C130 C 0.16836 0.72491 0.24226
 C131 C 0.16088 0.74660 0.21179
 C132 C 0.18500 0.76695 0.19378
 C133 C 0.25956 0.74418 0.24993
 C134 C 0.26954 0.76923 0.27322
 C135 C 0.30213 0.77075 0.28526
 C136 C 0.32491 0.74723 0.27282
 C137 C 0.31518 0.72166 0.24981
 C138 C 0.28219 0.72028 0.23872
 H139 H 0.23654 0.78095 0.19421
 H140 H 0.20869 0.70925 0.27810
 H141 H 0.25186 0.78760 0.28188
 H142 H 0.27399 0.70076 0.22128
 H143 H 0.13682 0.74635 0.19958
 H144 H 0.35019 0.74876 0.28156
 N145 N 1.07235 0.03775 0.02074
 N146 N 1.09406 0.06077 0.02175
 N147 N 1.05174 -0.02999 0.04892
 N148 N 1.06076 -0.05394 0.07108
 N149 N 1.07076 -0.02826 0.01580
 N150 N 1.09324 -0.05085 0.01452
 N151 N 1.05427 0.03601 0.05454
 N152 N 1.06330 0.05771 0.07965
 C153 C 1.08810 0.07304 0.05866
 C154 C 1.08658 -0.06688 0.04902
 N155 N 0.95447 -0.02448 0.04905
 N156 N 0.93201 -0.04553 0.06075
 N157 N 0.98419 0.03804 0.07430
 N158 N 0.98315 0.05800 0.10426
 N159 N 0.95797 0.04137 0.05342
 N160 N 0.93829 0.06374 0.06886
 N161 N 0.98119 -0.02774 0.06901
 N162 N 0.97771 -0.05129 0.09478
 Mn163 Mn 1.01790 0.00393 0.06208
 C164 C 0.94695 -0.06215 0.08896
 C165 C 0.95456 0.07408 0.10042
 N166 N 1.05891 -0.02344 -0.06714
 N167 N 1.07991 -0.04503 -0.08109
 N168 N 1.03437 0.04440 -0.08396
 N169 N 1.03454 0.07179 -0.10316
 N170 N 1.06039 0.04213 -0.06250
 N171 N 1.07871 0.06753 -0.06637
 N172 N 1.03260 -0.02231 -0.08812
 N173 N 1.03511 -0.04340 -0.11711
 Mn174 Mn 1.06582 0.00709 -0.02341
 C175 C 1.06481 -0.05750 -0.11205
 C176 C 1.06271 0.08574 -0.09201
 N177 N 0.94507 0.04522 -0.03101
 N178 N 0.91754 0.06147 -0.03478
 N179 N 0.96128 -0.02074 -0.06790
 N180 N 0.95035 -0.04217 -0.09241
 N181 N 0.94272 -0.02040 -0.03426
 N182 N 0.91895 -0.04138 -0.03491
 N183 N 0.96332 0.04537 -0.06499
 N184 N 0.94852 0.06201 -0.09216
 Mn185 Mn 0.94989 0.01060 0.00940
 Mn186 Mn 0.99791 0.01160 -0.07681
 Cl187 Cl 1.00779 0.00835 -0.00725
 C188 C 0.92029 0.07245 -0.07267
 C189 C 0.92392 -0.05498 -0.07112
 N190 N 1.01763 0.46934 0.42970
 N191 N 1.03872 0.46637 0.39831
 N192 N 0.95467 0.44654 0.48000
 N193 N 0.93341 0.42318 0.47860
 N194 N 0.94967 0.46741 0.45196
 N195 N 0.92531 0.45829 0.43021
 N196 N 1.02288 0.44749 0.45644
 N197 N 1.04770 0.42900 0.44379
 C198 C 1.05724 0.44104 0.40738
 C199 C 0.91494 0.43106 0.44787
 N200 N 0.97490 0.46979 0.58864
 N201 N 0.95814 0.46404 0.62283
 N202 N 1.03795 0.44766 0.53972
 N203 N 1.05946 0.42455 0.54410
 N204 N 1.04278 0.47040 0.56501
 N205 N 1.06808 0.46368 0.58654
 N206 N 0.97025 0.44741 0.56278
 N207 N 0.95025 0.42570 0.57885
 Mn208 Mn 0.99640 0.44698 0.50964
 C209 C 0.94269 0.43660 0.61623
 C210 C 1.07855 0.43528 0.57281
 N211 N 0.94753 0.53573 0.45165
 N212 N 0.91989 0.54120 0.43365
 N213 N 1.02013 0.55905 0.45492
 N214 N 1.03716 0.58276 0.43871
 N215 N 1.01546 0.53737 0.42810
 N216 N 1.02903 0.54610 0.39288
 N217 N 0.95207 0.55750 0.47838
 N218 N 0.92757 0.57808 0.47961
 Mn219 Mn 0.98248 0.50243 0.43996
 C220 C 0.90754 0.56755 0.45182
 C221 C 1.04339 0.57398 0.40034
 N222 N 1.04140 0.53766 0.56345
 N223 N 1.07032 0.54170 0.57860
 N224 N 0.96760 0.55875 0.56075
 N225 N 0.94794 0.58107 0.57612
 N226 N 0.97354 0.53751 0.58789
 N227 N 0.95824 0.54499 0.62256
 N228 N 1.03572 0.55986 0.53745
 N229 N 1.06052 0.58010 0.53467
 Mn230 Mn 1.00819 0.50386 0.57651
 Mn231 Mn 0.99386 0.55905 0.50784
 Cl232 Cl 0.99520 0.50305 0.50847
 C233 C 1.08192 0.56815 0.56038
 C234 C 0.94191 0.57198 0.61461
 N235 N 0.55133 0.04097 0.51834
 N236 N 0.57398 0.06304 0.52138
 N237 N 0.53681 -0.02606 0.55200
 N238 N 0.54785 -0.04745 0.57673
 N239 N 0.55624 -0.02469 0.51912
 N240 N 0.58095 -0.04491 0.52061
 N241 N 0.53138 0.03997 0.55078
 N242 N 0.53926 0.06172 0.57622
 C243 C 0.56556 0.07613 0.55737
 C244 C 0.57534 -0.05915 0.55655
 N245 N 0.43993 -0.03121 0.54916
 N246 N 0.41922 -0.05298 0.56330
 N247 N 0.46134 0.03623 0.56883
 N248 N 0.46024 0.06246 0.58992
 N249 N 0.43592 0.03485 0.54641
 N250 N 0.41712 0.06013 0.55121
 N251 N 0.46606 -0.02997 0.57035
 N252 N 0.46385 -0.05097 0.59955
 Mn253 Mn 0.49895 0.00493 0.56093
 C254 C 0.43458 -0.06536 0.59444
 C255 C 0.43231 0.07695 0.57880
 N256 N 0.54603 -0.02635 0.43497
 N257 N 0.57041 -0.04439 0.42023
 N258 N 0.51478 0.03663 0.41175
 N259 N 0.51693 0.05664 0.38155
 N260 N 0.54054 0.03938 0.43353
 N261 N 0.56078 0.06140 0.41866
 N262 N 0.51982 -0.02913 0.41398
 N263 N 0.52583 -0.04917 0.38441
 Mn264 Mn 0.54881 0.00744 0.47641
 C265 C 0.55737 -0.05881 0.38905
 C266 C 0.54551 0.07223 0.38649
 N267 N 0.42484 0.03191 0.46278
 N268 N 0.39739 0.04809 0.45844
 N269 N 0.44852 -0.03360 0.43227
 N270 N 0.43844 -0.05534 0.40768
 N271 N 0.42962 -0.03361 0.46561
 N272 N 0.40643 -0.05516 0.46468
 N273 N 0.44401 0.03257 0.42966
 N274 N 0.43014 0.04968 0.40217
 Mn275 Mn 0.43242 0.00051 0.50614
 Mn276 Mn 0.48177 0.00152 0.42153
 Cl277 Cl 0.49053 0.00357 0.49115
 C278 C 0.40141 0.05975 0.42097
 C279 C 0.41233 -0.06887 0.42869
 N280 N 0.57063 0.54083 0.02383
 N281 N 0.59531 0.56089 0.02523
 N282 N 0.55932 0.47326 0.05719
 N283 N 0.57051 0.45034 0.07929
 N284 N 0.57653 0.47503 0.02275
 N285 N 0.60011 0.45337 0.02056
 N286 N 0.55399 0.53896 0.05871
 N287 N 0.56724 0.55758 0.08472
 C288 C 0.59258 0.57158 0.06316
 C289 C 0.59594 0.43810 0.05607
 N290 N 0.46320 0.46518 0.06374
 N291 N 0.44385 0.44320 0.08039
 N292 N 0.48438 0.53326 0.08365
 N293 N 0.48145 0.55403 0.11268
 N294 N 0.45669 0.53129 0.06532
 N295 N 0.43425 0.55103 0.08122
 N296 N 0.49044 0.46776 0.08278
 N297 N 0.49007 0.44798 0.11323
 Mn298 Mn 0.52209 0.50337 0.07086
 C299 C 0.46122 0.43229 0.11078
 C300 C 0.45020 0.56520 0.11056
 N301 N 0.55993 0.47499 -0.05916
 N302 N 0.58123 0.45298 -0.07100
 N303 N 0.52629 0.53906 -0.07654
 N304 N 0.52430 0.56252 -0.10227
 N305 N 0.55412 0.54058 -0.05844
 N306 N 0.57201 0.56478 -0.07173
 N307 N 0.53261 0.47289 -0.07810
 N308 N 0.53463 0.44916 -0.10349
 Mn309 Mn 0.56556 0.50790 -0.01792
 C310 C 0.56522 0.43700 -0.09860
 C311 C 0.55304 0.57836 -0.09889
 N312 N 0.43973 0.53049 -0.01700
 N313 N 0.41153 0.54615 -0.01773
 N314 N 0.46336 0.46678 -0.05321
 N315 N 0.45570 0.44316 -0.07635
 N316 N 0.44667 0.46488 -0.01841
 N317 N 0.42720 0.44005 -0.01694
 N318 N 0.45675 0.53284 -0.05162
 N319 N 0.44060 0.55056 -0.07646
 Mn320 Mn 0.45130 0.49795 0.02352
 Mn321 Mn 0.49469 0.50294 -0.06537
 Cl322 Cl 0.50836 0.50316 0.00276
 C323 C 0.41281 0.55927 -0.05454
 C324 C 0.43315 0.42659 -0.05320
 C325 C 1.15717 0.15515 0.16449
 C326 C 1.16381 0.16563 0.12596
 C327 C 1.18679 0.18914 0.11618
 C328 C 1.20411 0.20190 0.14726
 C329 C 1.19852 0.19070 0.18702
 C330 C 1.17420 0.16738 0.19573
 O331 O 1.13571 0.13160 0.16723
 C332 C 1.12884 0.12688 0.12959
 C333 C 1.14553 0.14694 0.10310
 C334 C 1.14404 0.14439 0.06194
 C335 C 1.12472 0.12007 0.04755
 C336 C 1.10704 0.09930 0.07432
 C337 C 1.10886 0.10306 0.11596
 H338 H 1.19189 0.19675 0.08559
 H339 H 1.22299 0.21938 0.14007
 H340 H 1.16959 0.15818 0.22571
 H341 H 1.15794 0.15999 0.04161
 H342 H 1.12378 0.11726 0.01561
 H343 H 1.09628 0.08709 0.13705
 C344 C 1.17476 0.64218 0.64348
 C345 C 1.19149 0.61657 0.62722
 C346 C 1.22239 0.60705 0.63884
 C347 C 1.23653 0.62449 0.66867
 C348 C 1.21954 0.65068 0.68649
 C349 C 1.18843 0.65995 0.67311
 O350 O 1.14444 0.64547 0.63092
 C351 C 1.14190 0.62132 0.60642
 C352 C 1.17007 0.60291 0.60313
 C353 C 1.17157 0.57443 0.58290
 C354 C 1.14257 0.56408 0.56637
 C355 C 1.11325 0.58249 0.56979
 C356 C 1.11308 0.61187 0.58914
 H357 H 1.23480 0.58649 0.62610
 H358 H 1.26054 0.61736 0.67827
 H359 H 1.17458 0.67937 0.68678
 H360 H 1.19367 0.55990 0.58181
 H361 H 1.14243 0.54116 0.55243
 H362 H 1.09045 0.62548 0.59374
 C363 C 0.67114 0.13757 0.63685
 C364 C 0.64151 0.15201 0.64828
 C365 C 0.63831 0.17420 0.67846
 C366 C 0.66695 0.18226 0.69730
 C367 C 0.69797 0.16802 0.68592
 C368 C 0.70004 0.14505 0.65551
 O369 O 0.66830 0.11633 0.60837
 C370 C 0.63619 0.11740 0.60189
 C371 C 0.61878 0.13886 0.62566
 C372 C 0.58458 0.14253 0.62587
 C373 C 0.56743 0.12262 0.60135
 C374 C 0.58469 0.10009 0.57692
 C375 C 0.61965 0.09788 0.57643
 H376 H 0.61461 0.18489 0.68724
 H377 H 0.66502 0.19958 0.72092
 H378 H 0.72338 0.13379 0.64642
 H379 H 0.57146 0.15926 0.64535
 H380 H 0.54061 0.12406 0.60223
 H381 H 0.63318 0.08010 0.55900
 C382 C 0.67794 0.63165 0.17427
 C383 C 0.69060 0.63773 0.13596
 C384 C 0.71895 0.65555 0.12757
 C385 C 0.73445 0.66828 0.15999
 C386 C 0.72156 0.66277 0.19972
 C387 C 0.69325 0.64371 0.20700
 O388 O 0.65019 0.61498 0.17558
 C389 C 0.64524 0.61049 0.13729
 C390 C 0.66927 0.62394 0.11186
 C391 C 0.66880 0.62236 0.07054
 C392 C 0.64280 0.60573 0.05476
 C393 C 0.61791 0.59130 0.08034
 C394 C 0.61900 0.59407 0.12224
 H395 H 0.72832 0.66014 0.09717
 H396 H 0.75602 0.68305 0.15426
 H397 H 0.68259 0.63975 0.23703
 H398 H 0.68793 0.63328 0.05117
 H399 H 0.64229 0.60377 0.02264
 H400 H 0.60050 0.58317 0.14253
 C401 C 0.85069 -0.13491 0.18645
 C402 C 0.87047 -0.15542 0.16402
 C403 C 0.86350 -0.18721 0.16152
 C404 C 0.83503 -0.19836 0.18302
 C405 C 0.81439 -0.17797 0.20751
 C406 C 0.82277 -0.14564 0.20913
 O407 O 0.86023 -0.10519 0.18218
 C408 C 0.88662 -0.10706 0.15659
 C409 C 0.89418 -0.13735 0.14490
 C410 C 0.92025 -0.14459 0.11723
 C411 C 0.93892 -0.11949 0.10044
 C412 C 0.93082 -0.08814 0.11116
 C413 C 0.90455 -0.08180 0.13982
 H414 H 0.87885 -0.20273 0.14264
 H415 H 0.82877 -0.22281 0.17934
 H416 H 0.80801 -0.12909 0.22711
 H417 H 0.92553 -0.16859 0.10826
 H418 H 0.95874 -0.12430 0.07799
 H419 H 0.89761 -0.05790 0.14772
 C420 C 0.85501 0.34588 0.69966
 C421 C 0.85864 0.37105 0.72448
 C422 C 0.83997 0.37476 0.76030
 C423 C 0.81580 0.35207 0.77040
 C424 C 0.81072 0.32607 0.74483
 C425 C 0.83178 0.32258 0.70955
 O426 O 0.87315 0.34818 0.66540
 C427 C 0.88853 0.37543 0.66871
 C428 C 0.88063 0.39028 0.70440
 C429 C 0.89245 0.41990 0.71324
 C430 C 0.91329 0.43483 0.68406
 C431 C 0.92150 0.42013 0.64682
 C432 C 0.90905 0.38989 0.63920
 H433 H 0.84314 0.39492 0.77921
 H434 H 0.80110 0.35493 0.79827
 H435 H 0.82826 0.30403 0.68829
 H436 H 0.88549 0.43129 0.74133
 H437 H 0.92257 0.45802 0.69027
 H438 H 0.91465 0.37821 0.61096
 C439 C 0.33694 -0.14552 0.67945
 C440 C 0.36705 -0.15158 0.69500
 C441 C 0.37068 -0.17337 0.72556
 C442 C 0.34215 -0.18951 0.74046
 C443 C 0.31088 -0.18322 0.72503
 C444 C 0.30838 -0.16085 0.69415
 O445 O 0.33862 -0.12449 0.65020
 C446 C 0.37044 -0.11694 0.64721
 C447 C 0.38902 -0.13263 0.67399
 C448 C 0.42292 -0.12757 0.67612
 C449 C 0.43807 -0.10534 0.64970
 C450 C 0.41925 -0.08917 0.62171
 C451 C 0.38500 -0.09528 0.62047
 H452 H 0.39459 -0.17792 0.73728
 H453 H 0.34427 -0.20669 0.76410
 H454 H 0.28493 -0.15597 0.68138
 H455 H 0.43709 -0.14005 0.69752
 H456 H 0.46434 -0.10079 0.65095
 H457 H 0.36985 -0.08313 0.59975
 C458 C 0.37278 0.34494 0.19757
 C459 C 0.38708 0.36388 0.22475
 C460 C 0.37403 0.36737 0.26381
 C461 C 0.34467 0.35126 0.27504
 C462 C 0.32969 0.33103 0.24782
 C463 C 0.34487 0.32703 0.20889
 O464 O 0.38552 0.34901 0.16046
 C465 C 0.40848 0.37081 0.16434
 C466 C 0.41093 0.38019 0.20323
 C467 C 0.43185 0.40423 0.21380
 C468 C 0.45045 0.41969 0.18295
 C469 C 0.44682 0.41168 0.14252
 C470 C 0.42601 0.38653 0.13312
 H471 H 0.38495 0.38335 0.28422
 H472 H 0.33348 0.35467 0.30493
 H473 H 0.33324 0.31317 0.18670
 H474 H 0.43300 0.41149 0.24455
 H475 H 0.46600 0.43922 0.19037
 H476 H 0.42234 0.38045 0.10241
 C477 C 0.83723 0.13032 -0.18977
 C478 C 0.81708 0.11469 -0.16170
 C479 C 0.78280 0.11336 -0.16330
 C480 C 0.76859 0.12946 -0.19458
 C481 C 0.78866 0.14683 -0.22298
 C482 C 0.82354 0.14697 -0.22076
 O483 O 0.86919 0.12856 -0.18271
 C484 C 0.86914 0.11170 -0.14927
 C485 C 0.83781 0.10302 -0.13497
 C486 C 0.83178 0.08641 -0.09953
 C487 C 0.85923 0.07782 -0.07830
 C488 C 0.89194 0.08536 -0.09312
 C489 C 0.89693 0.10273 -0.12907
 H490 H 0.76750 0.10086 -0.14085
 H491 H 0.74185 0.12970 -0.19561
 H492 H 0.83932 0.16041 -0.24179
 H493 H 0.80685 0.08020 -0.08866
 H494 H 0.85501 0.06432 -0.05101
 H495 H 0.92162 0.10884 -0.14102
 C496 C 0.80683 0.62428 0.35700
 C497 C 0.80665 0.63980 0.39282
 C498 C 0.79019 0.66814 0.39966
 C499 C 0.77381 0.68144 0.36805
 C500 C 0.77400 0.66639 0.33011
 C501 C 0.79008 0.63668 0.32535
 O502 O 0.82666 0.59926 0.35541
 C503 C 0.83930 0.59907 0.39099
 C504 C 0.82769 0.62333 0.41505
 C505 C 0.83964 0.62924 0.45220
 C506 C 0.86503 0.60971 0.46477
 C507 C 0.87799 0.58494 0.44016
 C508 C 0.86436 0.57912 0.40309
 H509 H 0.79071 0.68009 0.42802
 H510 H 0.76080 0.70344 0.37354
 H511 H 0.79224 0.62474 0.29689
 H512 H 0.83054 0.64885 0.47027
 H513 H 0.87527 0.61450 0.49316
 H514 H 0.87428 0.56090 0.38326
 C515 C 0.32072 0.14266 0.32652
 C516 C 0.30163 0.11771 0.34008
 C517 C 0.26892 0.11390 0.33079
 C518 C 0.25521 0.13674 0.30644
 C519 C 0.27393 0.16342 0.29253
 C520 C 0.30731 0.16625 0.30329
 O521 O 0.35168 0.14117 0.33768
 C522 C 0.35197 0.11481 0.35908
 C523 C 0.32178 0.09983 0.36183
 C524 C 0.31608 0.07236 0.38371
 C525 C 0.34260 0.05979 0.40362
 C526 C 0.37417 0.07431 0.40045
 C527 C 0.37906 0.10214 0.37769
 H528 H 0.25446 0.09395 0.34179
 H529 H 0.22946 0.13411 0.29999
 H530 H 0.32298 0.18548 0.29259
 H531 H 0.29202 0.06116 0.38565
 H532 H 0.33877 0.03841 0.42096
 H533 H 0.40292 0.11371 0.37516
 C534 C 0.32575 0.63458 -0.15003
 C535 C 0.30807 0.60969 -0.13350
 C536 C 0.27642 0.60213 -0.14404
 C537 C 0.26247 0.62081 -0.17315
 C538 C 0.27968 0.64729 -0.19018
 C539 C 0.31165 0.65456 -0.17752
 O540 O 0.35668 0.63572 -0.13878
 C541 C 0.35837 0.61116 -0.11435
 C542 C 0.32903 0.59485 -0.10959
 C543 C 0.32517 0.56818 -0.08571
 C544 C 0.35281 0.55765 -0.06620
 C545 C 0.38370 0.57322 -0.07193
 C546 C 0.38656 0.60045 -0.09622
 H547 H 0.26330 0.58202 -0.13115
 H548 H 0.23782 0.61500 -0.18164
 H549 H 0.32609 0.67378 -0.19071
 H550 H 0.30182 0.55575 -0.08254
 H551 H 0.35055 0.53661 -0.04791
 H552 H 0.41000 0.61255 -0.10119
 C553 C 1.16415 -0.14201 -0.18653
 C554 C 1.13451 -0.14892 -0.20255
 C555 C 1.13169 -0.17275 -0.23047
 C556 C 1.16055 -0.18993 -0.24226
 C557 C 1.19139 -0.18274 -0.22642
 C558 C 1.19300 -0.15842 -0.19812
 O559 O 1.16179 -0.11907 -0.16001
 C560 C 1.13003 -0.11113 -0.15925
 C561 C 1.11208 -0.12842 -0.18478
 C562 C 1.07826 -0.12332 -0.18855
 C563 C 1.06250 -0.09957 -0.16492
 C564 C 1.08067 -0.08193 -0.13803
 C565 C 1.11491 -0.08792 -0.13542
 H566 H 1.10817 -0.17797 -0.24264
 H567 H 1.15903 -0.20848 -0.26404
 H568 H 1.21605 -0.15267 -0.18510
 H569 H 1.06454 -0.13708 -0.20890
 H570 H 1.03625 -0.09523 -0.16719
 H571 H 1.12962 -0.07479 -0.11543
 C572 C 1.16611 0.36447 0.33583
 C573 C 1.16374 0.39163 0.31373
 C574 C 1.18520 0.39861 0.28092
 C575 C 1.21028 0.37675 0.27051
 C576 C 1.21326 0.34848 0.29266
 C577 C 1.19064 0.34212 0.32563
 O578 O 1.14361 0.36288 0.36644
 C579 C 1.12670 0.38957 0.36346
 C580 C 1.13797 0.40787 0.33157
 C581 C 1.12391 0.43674 0.32271
 C582 C 1.09710 0.44725 0.34779
 C583 C 1.08514 0.42904 0.38118
 C584 C 1.10023 0.39973 0.38910
 H585 H 1.18288 0.42021 0.26411
 H586 H 1.22732 0.38169 0.24504
 H587 H 1.19255 0.32082 0.34315
 H588 H 1.13326 0.45068 0.29741
 H589 H 1.08590 0.46974 0.34138
 H590 H 1.09161 0.38530 0.41430
 C591 C 0.66614 -0.12729 0.30501
 C592 C 0.63736 -0.13461 0.28726
 C593 C 0.63638 -0.15659 0.25679
 C594 C 0.66611 -0.17207 0.24475
 C595 C 0.69595 -0.16500 0.26287
 C596 C 0.69605 -0.14192 0.29294
 O597 O 0.66146 -0.10714 0.33488
 C598 C 0.62907 -0.10159 0.33604
 C599 C 0.61313 -0.11770 0.30748
 C600 C 0.57900 -0.11577 0.30414
 C601 C 0.56065 -0.09628 0.33120
 C602 C 0.57659 -0.07960 0.36103
 C603 C 0.61132 -0.08243 0.36339
 H604 H 0.61339 -0.16232 0.24363
 H605 H 0.66586 -0.19008 0.22207
 H606 H 0.71836 -0.13681 0.30793
 H607 H 0.56695 -0.12881 0.28159
 H608 H 0.53408 -0.09434 0.32905
 H609 H 0.62424 -0.07001 0.38578
 C610 C 0.66318 0.34778 -0.16398
 C611 C 0.63475 0.34321 -0.18372
 C612 C 0.63373 0.32319 -0.21630
 C613 C 0.66330 0.30773 -0.22927
 C614 C 0.69302 0.31280 -0.20977
 C615 C 0.69262 0.33273 -0.17624
 O616 O 0.65965 0.36879 -0.13510
 C617 C 0.62841 0.37790 -0.13669
 C618 C 0.61191 0.36309 -0.16584
 C619 C 0.57937 0.37070 -0.17376
 C620 C 0.56348 0.39474 -0.15092
 C621 C 0.58041 0.41044 -0.12110
 C622 C 0.61315 0.40146 -0.11370
 H623 H 0.61125 0.32018 -0.23174
 H624 H 0.66336 0.29279 -0.25530
 H625 H 0.71486 0.33708 -0.16077
 H626 H 0.56693 0.35905 -0.19717
 H627 H 0.53839 0.40147 -0.15693
 H628 H 0.62695 0.41313 -0.09147
 C629 C 1.11979 0.19451 -0.17744
 C630 C 1.12651 0.19607 -0.13786
 C631 C 1.15146 0.21465 -0.12407
 C632 C 1.17080 0.23202 -0.15225
 C633 C 1.16440 0.23147 -0.19345
 C634 C 1.13758 0.21317 -0.20594
 O635 O 1.09849 0.17171 -0.18475
 C636 C 1.09166 0.15875 -0.14895
 C637 C 1.10790 0.17328 -0.11930
 C638 C 1.10702 0.16230 -0.08027
 C639 C 1.08959 0.13458 -0.07151
 C640 C 1.07385 0.11807 -0.10162
 C641 C 1.07391 0.13084 -0.14075
 H642 H 1.15691 0.21463 -0.09290
 H643 H 1.19079 0.24607 -0.14185
 H644 H 1.13284 0.21117 -0.23723
 H645 H 1.12047 0.17391 -0.05769
 H646 H 1.08963 0.12512 -0.04150
 H647 H 1.06299 0.11819 -0.16454
 C648 C 1.12619 0.65890 0.30041
 C649 C 1.09355 0.66666 0.29669
 C650 C 1.08388 0.69318 0.27624
 C651 C 1.10881 0.71250 0.25863
 C652 C 1.14327 0.70501 0.26075
 C653 C 1.15153 0.67734 0.28240
 O654 O 1.13007 0.63354 0.32299
 C655 C 1.09911 0.62518 0.33372
 C656 C 1.07582 0.64459 0.31809
 C657 C 1.04189 0.64072 0.32620
 C658 C 1.03154 0.61613 0.35201
 C659 C 1.05506 0.59630 0.36919
 C660 C 1.08933 0.60068 0.35977
 H661 H 1.05794 0.69930 0.27475
 H662 H 1.10054 0.73393 0.24500
 H663 H 1.17675 0.66944 0.28484
 H664 H 1.02406 0.65644 0.31375
 H665 H 1.00529 0.61311 0.35973
 H666 H 1.10769 0.58617 0.37330
 C667 C 0.63145 0.16679 0.30642
 C668 C 0.60865 0.15732 0.28030
 C669 C 0.60863 0.16841 0.24130
 C670 C 0.63296 0.19039 0.22877
 C671 C 0.65644 0.20127 0.25535
 C672 C 0.65560 0.18898 0.29479
 O673 O 0.62755 0.15282 0.34189
 C674 C 0.60166 0.13419 0.33805
 C675 C 0.58904 0.13625 0.30101
 C676 C 0.56178 0.11899 0.29061
 C677 C 0.54710 0.09852 0.31945
 C678 C 0.56007 0.09541 0.35761
 C679 C 0.58769 0.11369 0.36704
 H680 H 0.59070 0.16025 0.22111
 H681 H 0.63358 0.19864 0.19818
 H682 H 0.67279 0.19677 0.31610
 H683 H 0.55224 0.12110 0.26129
 H684 H 0.52605 0.08465 0.31172
 H685 H 0.59811 0.11187 0.39591
 C686 C 0.63106 0.67632 -0.18368
 C687 C 0.59813 0.68384 -0.18545
 C688 C 0.58755 0.71083 -0.20424
 C689 C 0.61181 0.73080 -0.22218
 C690 C 0.64647 0.72343 -0.22229
 C691 C 0.65566 0.69537 -0.20209
 O692 O 0.63599 0.64987 -0.16368
 C693 C 0.60545 0.64048 -0.15268
 C694 C 0.58131 0.66028 -0.16558
 C695 C 0.54758 0.65436 -0.15832
 C696 C 0.53841 0.62697 -0.13678
 C697 C 0.56290 0.60661 -0.12237
 C698 C 0.59690 0.61357 -0.13044
 H699 H 0.56145 0.71665 -0.20451
 H700 H 0.60291 0.75246 -0.23463
 H701 H 0.68101 0.68735 -0.20152
 H702 H 0.52900 0.67015 -0.16905
 H703 H 0.51232 0.62189 -0.13078
 H704 H 0.61613 0.59827 -0.12017
 C705 C 0.86129 -0.15480 -0.16087
 C706 C 0.84125 -0.14759 -0.12749
 C707 C 0.81094 -0.16207 -0.11832
 C708 C 0.80066 -0.18493 -0.14474
 C709 C 0.82073 -0.19304 -0.17946
 C710 C 0.85169 -0.17786 -0.18746
 O711 O 0.88891 -0.13771 -0.16409
 C712 C 0.88617 -0.11940 -0.13195
 C713 C 0.85746 -0.12474 -0.10865
 C714 C 0.84933 -0.10855 -0.07359
 C715 C 0.87166 -0.08585 -0.06188
 C716 C 0.90148 -0.07946 -0.08525
 C717 C 0.90882 -0.09653 -0.12099
 H718 H 0.79565 -0.15590 -0.09183
 H719 H 0.77716 -0.19655 -0.13800
 H720 H 0.86740 -0.18344 -0.21385
 H721 H 0.82657 -0.11325 -0.05580
 H722 H 0.86547 -0.07311 -0.03454
 H723 H 0.93135 -0.09229 -0.13940
 C724 C 0.85201 0.34195 0.34549
 C725 C 0.83557 0.34082 0.38268
 C726 C 0.81078 0.31907 0.39275
 C727 C 0.80261 0.29762 0.36329
 C728 C 0.81967 0.29790 0.32501
 C729 C 0.84473 0.32042 0.31600
 O730 O 0.87508 0.36413 0.34226
 C731 C 0.87334 0.37712 0.37826
 C732 C 0.84975 0.36354 0.40421
 C733 C 0.84539 0.37200 0.44423
 C734 C 0.86653 0.39507 0.45816
 C735 C 0.89070 0.40963 0.43185
 C736 C 0.89384 0.40085 0.39120
 H737 H 0.79828 0.31854 0.42224
 H738 H 0.78348 0.28036 0.37044
 H739 H 0.85809 0.32108 0.28699
 H740 H 0.82713 0.36054 0.46429
 H741 H 0.86443 0.40135 0.48947
 H742 H 0.91289 0.41092 0.37089
 C743 C 0.35122 -0.16552 0.33321
 C744 C 0.33037 -0.15900 0.36614
 C745 C 0.30000 -0.17378 0.37378
 C746 C 0.29075 -0.19644 0.34646
 C747 C 0.31190 -0.20402 0.31243
 C748 C 0.34261 -0.18820 0.30573
 O749 O 0.37892 -0.14864 0.33166
 C750 C 0.37548 -0.13119 0.36445
 C751 C 0.34623 -0.13684 0.38656
 C752 C 0.33760 -0.12174 0.42229
 C753 C 0.35993 -0.09975 0.43582
 C754 C 0.39017 -0.09301 0.41349
 C755 C 0.39805 -0.10904 0.37718
 H756 H 0.28408 -0.16822 0.39999
 H757 H 0.26744 -0.20861 0.35228
 H758 H 0.35920 -0.19337 0.27996
 H759 H 0.31449 -0.12674 0.43921
 H760 H 0.35338 -0.08774 0.46361
 H761 H 0.42095 -0.10451 0.35958
 C762 C 0.38171 0.32518 -0.14924
 C763 C 0.36444 0.32534 -0.11262
 C764 C 0.33641 0.30718 -0.10411
 C765 C 0.32515 0.28864 -0.13486
 C766 C 0.34206 0.28814 -0.17351
 C767 C 0.37157 0.30612 -0.18003
 O768 O 0.40603 0.34620 -0.15207
 C769 C 0.40403 0.35984 -0.11643
 C770 C 0.37911 0.34772 -0.09113
 C771 C 0.37149 0.35946 -0.05305
 C772 C 0.39014 0.38491 -0.04057
 C773 C 0.41560 0.39835 -0.06628
 C774 C 0.42284 0.38532 -0.10467
 H775 H 0.32307 0.30792 -0.07510
 H776 H 0.30327 0.27449 -0.12820
 H777 H 0.38474 0.30750 -0.20910
 H778 H 0.35150 0.34973 -0.03387
 H779 H 0.38418 0.39455 -0.01117
 H780 H 0.44187 0.39522 -0.12513
 C781 C 1.13798 -0.17305 0.13840
 C782 C 1.16148 -0.16473 0.10890
 C783 C 1.19282 -0.17833 0.10534
 C784 C 1.20043 -0.20126 0.13357
 C785 C 1.17662 -0.21070 0.16451
 C786 C 1.14463 -0.19639 0.16618
 O787 O 1.11040 -0.15595 0.13793
 C788 C 1.11661 -0.13652 0.10729
 C789 C 1.14743 -0.14114 0.08831
 C790 C 1.15925 -0.12312 0.05584
 C791 C 1.13854 -0.09921 0.04254
 C792 C 1.10693 -0.09344 0.06217
 C793 C 1.09577 -0.11256 0.09492
 H794 H 1.21099 -0.17123 0.08196
 H795 H 1.22470 -0.21218 0.13037
 H796 H 1.12597 -0.20170 0.18981
 H797 H 1.18364 -0.12715 0.04145
 H798 H 1.14749 -0.08474 0.01752
 H799 H 1.07181 -0.10871 0.11052
 C800 C 1.14856 0.33574 0.65423
 C801 C 1.16547 0.36352 0.65755
 C802 C 1.19214 0.36675 0.68120
 C803 C 1.20204 0.34023 0.70221
 C804 C 1.18534 0.31103 0.69941
 C805 C 1.15795 0.30886 0.67517
 O806 O 1.12309 0.33836 0.63115
 C807 C 1.12400 0.36843 0.61993
 C808 C 1.14947 0.38477 0.63544
 C809 C 1.15402 0.41689 0.62976
 C810 C 1.13099 0.43305 0.60772
 C811 C 1.10442 0.41690 0.59146
 C812 C 1.10118 0.38399 0.59702
 H813 H 1.20465 0.38903 0.68379
 H814 H 1.22242 0.34266 0.72141
 H815 H 1.14448 0.28707 0.67277
 H816 H 1.17401 0.42923 0.64283
 H817 H 1.13347 0.45825 0.60391
 H818 H 1.08056 0.37130 0.58583
 C819 C 0.63549 -0.15602 0.65418
 C820 C 0.65803 -0.14772 0.62365
 C821 C 0.68983 -0.16027 0.61963
 C822 C 0.69891 -0.18227 0.64830
 C823 C 0.67612 -0.19181 0.68032
 C824 C 0.64371 -0.17827 0.68270
 O825 O 0.60689 -0.14054 0.65326
 C826 C 0.61146 -0.12218 0.62125
 C827 C 0.64230 -0.12586 0.60195
 C828 C 0.65240 -0.10907 0.56772
 C829 C 0.62985 -0.08752 0.55281
 C830 C 0.59802 -0.08284 0.57243
 C831 C 0.58872 -0.10053 0.60719
 H832 H 0.70715 -0.15334 0.59524
 H833 H 0.72340 -0.19261 0.64431
 H834 H 0.62567 -0.18363 0.70699
 H835 H 0.67680 -0.11241 0.55304
 H836 H 0.63742 -0.07417 0.52624
 H837 H 0.56461 -0.09755 0.62278
 C838 C 0.65031 0.33557 0.14818
 C839 C 0.67159 0.34056 0.11508
 C840 C 0.70116 0.32398 0.10838
 C841 C 0.70905 0.30138 0.13696
 C842 C 0.68734 0.29570 0.17117
 C843 C 0.65749 0.31304 0.17668
 O844 O 0.62396 0.35430 0.14954
 C845 C 0.62864 0.37146 0.11658
 C846 C 0.65731 0.36394 0.09428
 C847 C 0.66696 0.37926 0.05869
 C848 C 0.64630 0.40344 0.04577
 C849 C 0.61688 0.41186 0.06868
 C850 C 0.60795 0.39544 0.10447
 H851 H 0.71762 0.32839 0.08224
 H852 H 0.73189 0.28809 0.13231
 H853 H 0.64066 0.30949 0.20273
 H854 H 0.68964 0.37296 0.04163
 H855 H 0.65344 0.41584 0.01832
 H856 H 0.58565 0.40127 0.12261
 C857 C 0.87475 0.17168 0.18414
 C858 C 0.89972 0.16276 0.20780
 C859 C 0.90266 0.17467 0.24590
 C860 C 0.87881 0.19662 0.26031
 C861 C 0.85282 0.20658 0.23645
 C862 C 0.85111 0.19387 0.19757
 O863 O 0.87580 0.15677 0.14937
 C864 C 0.90205 0.13802 0.15113
 C865 C 0.91766 0.14096 0.18618
 C866 C 0.94556 0.12350 0.19445
 C867 C 0.95777 0.10197 0.16553
 C868 C 0.94183 0.09802 0.12937
 C869 C 0.91359 0.11648 0.12206
 H870 H 0.92229 0.16693 0.26418
 H871 H 0.88030 0.20525 0.29042
 H872 H 0.83202 0.20099 0.17816
 H873 H 0.95741 0.12623 0.22225
 H874 H 0.97937 0.08804 0.17168
 H875 H 0.90089 0.11402 0.09480
 C876 C 0.86162 0.67123 0.69373
 C877 C 0.87613 0.65392 0.72272
 C878 C 0.87278 0.66174 0.76302
 C879 C 0.85358 0.68836 0.77385
 C880 C 0.83788 0.70623 0.74458
 C881 C 0.84196 0.69743 0.70393
 O882 O 0.86875 0.66048 0.65708
 C883 C 0.88806 0.63577 0.66305
 C884 C 0.89313 0.63055 0.70269
 C885 C 0.91255 0.60585 0.71555
 C886 C 0.92767 0.58597 0.68633
 C887 C 0.92355 0.59138 0.64516
 C888 C 0.90319 0.61656 0.63350
 H889 H 0.88465 0.64794 0.78529
 H890 H 0.85048 0.69482 0.80506
 H891 H 0.83047 0.71082 0.68097
 H892 H 0.91615 0.60216 0.74692
 H893 H 0.94326 0.56690 0.69574
 H894 H 0.89956 0.62130 0.60234
 C895 C 0.38945 0.18474 0.67665
 C896 C 0.38220 0.19077 0.63782
 C897 C 0.36226 0.21577 0.62719
 C898 C 0.34838 0.23481 0.65793
 C899 C 0.35441 0.22848 0.69840
 C900 C 0.37608 0.20362 0.70775
 O901 O 0.40659 0.15827 0.68062
 C902 C 0.40996 0.14724 0.64357
 C903 C 0.39532 0.16624 0.61634
 C904 C 0.39279 0.15774 0.57670
 C905 C 0.40566 0.12838 0.56465
 C906 C 0.42106 0.10842 0.59199
 C907 C 0.42377 0.11822 0.63189
 H908 H 0.35649 0.21970 0.59650
 H909 H 0.33174 0.25367 0.65046
 H910 H 0.38023 0.19767 0.73845
 H911 H 0.38038 0.17272 0.55611
 H912 H 0.40335 0.12104 0.53409
 H913 H 0.43459 0.10301 0.65357
 C914 C 0.36269 0.65942 0.18881
 C915 C 0.38674 0.65149 0.21428
 C916 C 0.38831 0.66472 0.25187
 C917 C 0.36425 0.68728 0.26360
 C918 C 0.33952 0.69659 0.23755
 C919 C 0.33877 0.68212 0.19961
 O920 O 0.36553 0.64389 0.15451
 C921 C 0.39204 0.62584 0.15841
 C922 C 0.40606 0.62979 0.19434
 C923 C 0.43451 0.61388 0.20432
 C924 C 0.44907 0.59293 0.17614
 C925 C 0.43479 0.58800 0.13912
 C926 C 0.40580 0.60470 0.13019
 H927 H 0.40731 0.65784 0.27155
 H928 H 0.36488 0.69731 0.29312
 H929 H 0.32064 0.68877 0.17869
 H930 H 0.44520 0.61757 0.23268
 H931 H 0.47121 0.58027 0.18341
 H932 H 0.39453 0.60158 0.10206
   
