data_POSCAR
  _audit_creation_date              2014-09-24
  _audit_creation_method            'ToBaCCo'
  _symmetry_space_group_name_H-M    'P1'
  _symmetry_Int_Tables_number       1
  _symmetry_cell_setting            triclinic
  loop_
  _symmetry_equiv_pos_as_xyz
 x,y,z
_cell_length_a 47.3945
_cell_length_b 47.3720
_cell_length_c 49.3904
_cell_angle_alpha 89.967200
_cell_angle_beta 90.202900
_cell_angle_gamma 89.733600
loop_
  _atom_site_label
  _atom_site_type_symbol
  _atom_site_fract_x
  _atom_site_fract_y
  _atom_site_fract_z
C1 C 0.14428 0.16972 0.19535
 C2 C 0.14599 0.19057 0.17531
 C3 C 0.16877 0.19107 0.15790
 C4 C 0.18977 0.17020 0.15991
 C5 C 0.18773 0.14926 0.17928
 C6 C 0.16507 0.14937 0.19754
 C7 C 0.12487 0.16466 0.21532
 N8 N 0.13342 0.14188 0.23020
 C9 C 0.15807 0.13237 0.21911
 C10 C 0.20986 0.13084 0.17518
 N11 N 0.22553 0.14012 0.15384
 C12 C 0.21332 0.16446 0.14468
 C13 C 0.16449 0.21319 0.14020
 N14 N 0.13953 0.22575 0.14635
 C15 C 0.12806 0.21210 0.16778
 H16 H 0.10658 0.17774 0.21923
 H17 H 0.17012 0.11420 0.22576
 H18 H 0.21409 0.11214 0.18712
 H19 H 0.21987 0.17641 0.12713
 H20 H 0.17797 0.21911 0.12349
 H21 H 0.10796 0.21726 0.17693
 C22 C -0.14614 0.83395 0.19238
 C23 C -0.14801 0.81356 0.17196
 C24 C -0.17179 0.81225 0.15563
 C25 C -0.19366 0.83202 0.15909
 C26 C -0.19149 0.85240 0.17897
 C27 C -0.16790 0.85292 0.19616
 C28 C -0.12592 0.83952 0.21163
 N29 N -0.13515 0.86106 0.22765
 C30 C -0.16087 0.86943 0.21802
 C31 C -0.21442 0.87003 0.17640
 N32 N -0.23076 0.86098 0.15539
 C33 C -0.21826 0.83734 0.14502
 C34 C -0.16766 0.79035 0.13767
 N35 N -0.14190 0.77877 0.14269
 C36 C -0.12973 0.79281 0.16355
 H37 H -0.10664 0.82754 0.21450
 H38 H -0.17359 0.88653 0.22595
 H39 H -0.21861 0.88819 0.18905
 H40 H -0.22529 0.82585 0.12733
 H41 H -0.18197 0.78367 0.12182
 H42 H -0.10909 0.78818 0.17194
 C43 C -0.14664 0.16571 -0.19229
 C44 C -0.14756 0.18613 -0.17182
 C45 C -0.16979 0.18665 -0.15376
 C46 C -0.19105 0.16620 -0.15561
 C47 C -0.18985 0.14575 -0.17553
 C48 C -0.16772 0.14585 -0.19440
 C49 C -0.12779 0.16070 -0.21278
 N50 N -0.13691 0.13840 -0.22787
 C51 C -0.16145 0.12921 -0.21650
 C52 C -0.21214 0.12777 -0.17133
 N53 N -0.22711 0.13676 -0.14937
 C54 C -0.21426 0.16055 -0.13991
 C55 C -0.16495 0.20860 -0.13603
 N56 N -0.14018 0.22102 -0.14282
 C57 C -0.12940 0.20741 -0.16465
 H58 H -0.10942 0.17346 -0.21681
 H59 H -0.17381 0.11140 -0.22325
 H60 H -0.21696 0.10957 -0.18369
 H61 H -0.22014 0.17220 -0.12196
 H62 H -0.17803 0.21466 -0.11906
 H63 H -0.10973 0.21262 -0.17450
 C64 C 0.15474 0.82394 -0.20004
 C65 C 0.15816 0.80198 -0.18128
 C66 C 0.18132 0.80157 -0.16412
 C67 C 0.20099 0.82363 -0.16507
 C68 C 0.19737 0.84539 -0.18338
 C69 C 0.17446 0.84521 -0.20141
 C70 C 0.13453 0.82951 -0.21939
 N71 N 0.14181 0.85336 -0.23310
 C72 C 0.16628 0.86308 -0.22197
 C73 C 0.21824 0.86479 -0.17851
 N74 N 0.23470 0.85549 -0.15759
 C75 C 0.22432 0.82999 -0.14959
 C76 C 0.17898 0.77789 -0.14805
 N77 N 0.15488 0.76424 -0.15498
 C78 C 0.14199 0.77883 -0.17522
 H79 H 0.11662 0.81620 -0.22385
 H80 H 0.17723 0.88210 -0.22786
 H81 H 0.22096 0.88426 -0.18961
 H82 H 0.23185 0.81761 -0.13261
 H83 H 0.19333 0.77143 -0.13208
 H84 H 0.12226 0.77301 -0.18476
 C85 C 0.17235 1.15486 0.79835
 C86 C 0.19527 1.15711 0.81624
 C87 C 0.19547 1.17796 0.83591
 C88 C 0.17249 1.19666 0.83808
 C89 C 0.14949 1.19359 0.82113
 C90 C 0.14941 1.17259 0.80120
 C91 C 0.16647 1.13682 0.77724
 N92 N 0.14022 1.14291 0.76743
 C93 C 0.12963 1.16468 0.78232
 C94 C 0.12975 1.21336 0.82855
 N95 N 0.14017 1.22893 0.84948
 C96 C 0.16646 1.21869 0.85536
 C97 C 0.21899 1.17342 0.85184
 N98 N 0.23262 1.15005 0.84261
 C99 C 0.21841 1.14012 0.82071
 H100 H 0.18007 1.11994 0.77022
 H101 H 0.10942 1.17491 0.77913
 H102 H 0.10962 1.21655 0.81860
 H103 H 0.18000 1.22594 0.87159
 H104 H 0.22457 1.18489 0.87002
 H105 H 0.22366 1.12100 0.80979
 C106 C 0.83463 0.86088 0.81113
 C107 C 0.81537 0.86030 0.83258
 C108 C 0.81407 0.83692 0.84936
 C109 C 0.83265 0.81415 0.84533
 C110 C 0.85182 0.81496 0.82437
 C111 C 0.85239 0.83820 0.80680
 C112 C 0.83993 0.88042 0.79123
 N113 N 0.86016 0.86996 0.77437
 C114 C 0.86791 0.84407 0.78402
 C115 C 0.86824 0.79105 0.82625
 N116 N 0.85970 0.77551 0.84798
 C117 C 0.83753 0.78954 0.85944
 C118 C 0.79295 0.84194 0.86786
 N119 N 0.78174 0.86784 0.86276
 C120 C 0.79536 0.87927 0.84131
 H121 H 0.82869 0.90018 0.78866
 H122 H 0.88401 0.83047 0.77555
 H123 H 0.88519 0.78571 0.81257
 H124 H 0.82670 0.78350 0.87778
 H125 H 0.78621 0.82789 0.88385
 H126 H 0.79061 0.89966 0.83242
 C127 C 0.17151 0.85055 1.19756
 C128 C 0.19260 0.84850 1.17784
 C129 C 0.19086 0.82813 1.15787
 C130 C 0.16810 0.80930 1.15760
 C131 C 0.14736 0.81122 1.17721
 C132 C 0.14927 0.83185 1.19753
 C133 C 0.16762 0.86870 1.21891
 N134 N 0.14370 0.86132 1.23237
 C135 C 0.13249 0.83856 1.21935
 C136 C 0.12773 0.79064 1.17166
 N137 N 0.13624 0.77618 1.14937
 C138 C 0.16094 0.78738 1.14070
 C139 C 0.21404 0.83134 1.14140
 N140 N 0.22988 0.85289 1.15121
 C141 C 0.21693 0.86350 1.17348
 H142 H 0.18189 0.88547 1.22457
 H143 H 0.11300 0.82811 1.22458
 H144 H 0.10880 0.78633 1.18311
 H145 H 0.17262 0.78034 1.12313
 H146 H 0.21924 0.81871 1.12384
 H147 H 0.22456 0.88101 1.18548
 C148 C 0.83019 1.15173 1.19765
 C149 C 0.80784 1.15264 1.17883
 C150 C 0.80907 1.17116 1.15715
 C151 C 0.83221 1.18911 1.15409
 C152 C 0.85444 1.18769 1.17219
 C153 C 0.85352 1.16871 1.19390
 C154 C 0.83540 1.13557 1.22039
 N155 N 0.86160 1.14191 1.23011
 C156 C 0.87272 1.16215 1.21380
 C157 C 0.87421 1.20707 1.16401
 N158 N 0.86422 1.22046 1.14161
 C159 C 0.83862 1.20951 1.13529
 C160 C 0.78643 1.16564 1.14062
 N161 N 0.77147 1.14415 1.15156
 C162 C 0.78413 1.13623 1.17512
 H163 H 0.82157 1.11953 1.22845
 H164 H 0.89306 1.17208 1.21647
 H165 H 0.89401 1.21170 1.17403
 H166 H 0.82557 1.21607 1.11836
 H167 H 0.78200 1.17548 1.12126
 H168 H 0.77774 1.11854 1.18752
 O169 O 0.45706 1.05300 1.04819
 O170 O 0.42706 1.02649 1.02204
 C171 C 0.43205 1.04577 1.04002
 O172 O 0.54094 1.05358 0.95703
 O173 O 0.57045 1.02537 0.98242
 C174 C 0.56581 1.04504 0.96464
 O175 O 0.46164 1.05714 0.95582
 O176 O 0.42931 1.02875 0.97687
 C177 C 0.43591 1.04950 0.96099
 O178 O 0.53602 1.04770 1.05578
 O179 O 0.56790 1.02358 1.02961
 C180 C 0.56163 1.04047 1.04935
 Zr181 Zr 0.49707 1.03642 1.03743
 O182 O 0.50124 1.08085 1.03949
 O183 O 0.49123 1.03461 1.07986
 Zr184 Zr 0.50049 1.03944 0.96903
 O185 O 0.50395 1.08395 0.96980
 O186 O 0.49952 1.03998 0.92617
 O187 O 0.47376 1.04380 1.00222
 O188 O 0.52329 1.04274 1.00469
 O189 O 0.53527 0.94984 1.05044
 O190 O 0.56761 0.97711 1.02795
 C191 C 0.56093 0.95761 1.04516
 O192 O 0.46094 0.95119 0.95327
 O193 O 0.42888 0.97982 0.97481
 C194 C 0.43533 0.95936 0.95848
 O195 O 0.54021 0.95363 0.95352
 O196 O 0.56995 0.97837 0.98137
 C197 C 0.56522 0.96039 0.96213
 O198 O 0.45584 0.94954 1.04486
 O199 O 0.42661 0.97759 1.01912
 C200 C 0.43104 0.95734 1.03627
 Zr201 Zr 0.49641 0.96514 1.03462
 O202 O 0.49856 0.92050 1.03354
 O203 O 0.49146 0.96424 1.07721
 Zr204 Zr 0.49996 0.96832 0.96607
 O205 O 0.50218 0.92421 0.96014
 O206 O 0.49865 0.97365 0.92350
 Zr207 Zr 0.45665 1.00285 0.99969
 Zr208 Zr 0.54032 1.00166 1.00385
 O209 O 0.52244 0.96114 1.00137
 O210 O 0.47326 0.96147 0.99891
 O211 O 0.52161 1.00013 1.04250
 O212 O 0.47580 1.00438 0.96137
 O213 O 0.47197 1.00095 1.03970
 O214 O 0.52575 1.00371 0.96351
 H215 H 0.53626 1.05902 1.00615
 H216 H 0.46341 1.00512 0.94518
 H217 H 0.53482 0.94423 1.00142
 H218 H 0.45829 1.00050 1.05482
 H219 H 0.51658 1.02996 0.91974
 H220 H 0.51748 0.98018 0.91768
 H221 H 0.49786 0.91547 0.97780
 H222 H 0.48323 0.91387 1.02150
 H223 H 0.50820 0.97338 1.08533
 H224 H 0.50581 1.02174 1.08729
 H225 H 0.48626 1.08922 1.02800
 H226 H 0.48931 1.09114 0.98228
 O227 O 0.04505 0.54287 -0.05099
 O228 O 0.01899 0.57252 -0.02411
 C229 C 0.03697 0.56789 -0.04330
 O230 O -0.05453 0.46065 -0.04703
 O231 O -0.02530 0.43015 -0.02408
 C232 C -0.04604 0.43539 -0.04054
 O233 O -0.05429 0.54018 -0.04888
 O234 O -0.02778 0.57146 -0.02405
 C235 C -0.04690 0.56555 -0.04199
 O236 O 0.05074 0.46362 -0.04906
 O237 O 0.02374 0.43183 -0.02573
 C238 C 0.04355 0.43807 -0.04268
 Zr239 Zr 0.03257 0.50243 -0.03662
 O240 O 0.02948 0.49954 -0.07932
 O241 O 0.07686 0.50674 -0.03947
 Zr242 Zr -0.03870 0.50065 -0.03508
 O243 O -0.03831 0.49803 -0.07787
 O244 O -0.08332 0.50270 -0.03548
 O245 O -0.00392 0.52683 -0.04084
 O246 O -0.00251 0.47697 -0.04106
 O247 O 0.05198 0.46196 0.04364
 O248 O 0.02430 0.43081 0.02013
 C249 C 0.04465 0.43653 0.03683
 O250 O -0.05180 0.53918 0.04865
 O251 O -0.02729 0.57076 0.02271
 C252 C -0.04533 0.56474 0.04147
 O253 O -0.05220 0.45970 0.04497
 O254 O -0.02406 0.42961 0.02047
 C255 C -0.04400 0.43458 0.03776
 O256 O 0.04770 0.54119 0.04675
 O257 O 0.01991 0.57198 0.02244
 C258 C 0.03936 0.56647 0.04028
 Zr259 Zr 0.03437 0.50144 0.03201
 O260 O 0.03445 0.49787 0.07475
 O261 O 0.07885 0.50543 0.03202
 Zr262 Zr -0.03678 0.49995 0.03351
 O263 O -0.03365 0.49628 0.07615
 O264 O -0.08126 0.50192 0.03647
 Zr265 Zr -0.00329 0.54297 -0.00107
 Zr266 Zr -0.00100 0.45920 -0.00203
 O267 O -0.00047 0.47604 0.03739
 O268 O -0.00174 0.52591 0.03833
 O269 O 0.03970 0.47698 -0.00269
 O270 O -0.04360 0.52454 -0.00045
 O271 O 0.03799 0.52641 -0.00211
 O272 O -0.04261 0.47517 -0.00093
 H273 H -0.00257 0.46411 -0.05688
 H274 H -0.06064 0.53672 -0.00003
 H275 H 0.00016 0.46290 0.05300
 H276 H 0.05431 0.53941 -0.00230
 H277 H -0.09023 0.48810 -0.02285
 H278 H -0.08899 0.48890 0.02272
 H279 H -0.02520 0.51393 0.08308
 H280 H 0.02394 0.51427 0.08202
 H281 H 0.08651 0.49050 0.02011
 H282 H 0.08528 0.49449 -0.02537
 H283 H 0.02001 0.51691 -0.08588
 H284 H -0.02920 0.51533 -0.08478
 O285 O 1.05099 -0.04961 0.53878
 O286 O 1.02297 -0.02473 0.56822
 C287 C 1.04312 -0.04242 0.56299
 O288 O 1.05002 0.04855 0.46275
 O289 O 1.02243 0.02350 0.43302
 C290 C 1.04192 0.04174 0.43848
 O291 O 1.05248 0.04503 0.53897
 O292 O 1.02329 0.02169 0.56832
 C293 C 1.04420 0.03835 0.56322
 O294 O 1.04677 -0.05380 0.46245
 O295 O 1.02268 -0.02500 0.43286
 C296 C 1.03996 -0.04551 0.43819
 Zr297 Zr 1.03447 -0.03708 0.50059
 O298 O 1.07901 -0.03750 0.49741
 O299 O 1.03454 -0.08161 0.50418
 Zr300 Zr 1.03466 0.03448 0.50078
 O301 O 1.07899 0.03894 0.49988
 O302 O 1.03106 0.07896 0.50369
 O303 O 1.04000 -0.00143 0.52462
 O304 O 1.03982 -0.00138 0.47728
 O305 O 0.94911 -0.05153 0.46207
 O306 O 0.97592 -0.02539 0.43271
 C307 C 0.95706 -0.04431 0.43789
 O308 O 0.94541 0.04614 0.53831
 O309 O 0.97432 0.02233 0.56800
 C310 C 0.95365 0.03941 0.56261
 O311 O 0.94849 0.04967 0.46224
 O312 O 0.97551 0.02365 0.43292
 C313 C 0.95627 0.04239 0.43801
 O314 O 0.94794 -0.05060 0.53847
 O315 O 0.97482 -0.02465 0.56804
 C316 C 0.95544 -0.04301 0.56272
 Zr317 Zr 0.96310 -0.03658 0.50032
 O318 O 0.91849 -0.03624 0.49785
 O319 O 0.96335 -0.08121 0.50274
 Zr320 Zr 0.96347 0.03513 0.50042
 O321 O 0.91918 0.03980 0.49815
 O322 O 0.96718 0.07955 0.50355
 Zr323 Zr 0.99875 -0.00110 0.54059
 Zr324 Zr 0.99900 -0.00098 0.46035
 O325 O 0.95814 -0.00068 0.47698
 O326 O 0.95759 -0.00078 0.52428
 O327 O 0.99877 -0.04228 0.47632
 O328 O 0.99903 0.03994 0.52436
 O329 O 0.99880 -0.04198 0.52392
 O330 O 0.99913 0.04034 0.47627
 H331 H 1.05639 -0.00190 0.46511
 H332 H 0.99908 0.05599 0.53722
 H333 H 0.94146 -0.00069 0.46484
 H334 H 0.99901 -0.05856 0.53617
 H335 H 1.02480 0.08613 0.48582
 H336 H 0.97394 0.08666 0.48589
 H337 H 0.91121 0.02083 0.50114
 H338 H 0.91133 -0.02564 0.51369
 H339 H 0.97378 -0.08843 0.48685
 H340 H 1.02198 -0.08904 0.48986
 H341 H 1.08651 -0.02551 0.51215
 H342 H 1.08693 0.01992 0.49674
 C343 C 1.07851 0.12859 0.28166
 C344 C 1.09265 0.11077 0.30030
 C345 C 1.12107 0.10356 0.29466
 C346 C 1.13428 0.11329 0.27099
 C347 C 1.12009 0.13126 0.25267
 C348 C 1.09196 0.13864 0.25853
 C349 C 1.13640 0.08691 0.31283
 C350 C 1.12437 0.07760 0.33680
 C351 C 1.09614 0.08418 0.34342
 C352 C 1.07972 0.10023 0.32444
 C353 C 1.05086 0.10489 0.33004
 C354 C 1.03849 0.09455 0.35342
 C355 C 1.05436 0.07957 0.37243
 C356 C 1.08356 0.07470 0.36812
 C357 C 1.09892 0.06070 0.38890
 C358 C 1.08546 0.05095 0.41221
 C359 C 1.05643 0.05464 0.41544
 C360 C 1.04105 0.06925 0.39574
 H361 H 1.05710 0.13568 0.28450
 H362 H 1.15614 0.10768 0.26769
 H363 H 1.07971 0.15183 0.24501
 H364 H 1.15811 0.08117 0.30860
 H365 H 1.13767 0.06467 0.34950
 H366 H 1.03691 0.11597 0.31642
 H367 H 1.01623 0.09849 0.35674
 H368 H 1.12135 0.05712 0.38792
 H369 H 1.09765 0.03978 0.42746
 H370 H 1.01868 0.07274 0.39872
 C371 C 0.92149 -0.12177 0.27640
 C372 C 0.90643 -0.10796 0.29724
 C373 C 0.87678 -0.10548 0.29434
 C374 C 0.86325 -0.11482 0.27069
 C375 C 0.87840 -0.12854 0.25005
 C376 C 0.90767 -0.13212 0.25349
 C377 C 0.86064 -0.09409 0.31525
 C378 C 0.87320 -0.08571 0.33934
 C379 C 0.90271 -0.08730 0.34303
 C380 C 0.91970 -0.09711 0.32106
 C381 C 0.94932 -0.09496 0.32332
 C382 C 0.96193 -0.08394 0.34642
 C383 C 0.94565 -0.07582 0.36856
 C384 C 0.91587 -0.07838 0.36761
 C385 C 0.90052 -0.07213 0.39144
 C386 C 0.91414 -0.06216 0.41460
 C387 C 0.94326 -0.05774 0.41459
 C388 C 0.95899 -0.06490 0.39166
 H389 H 0.94387 -0.12570 0.27757
 H390 H 0.84054 -0.11273 0.26923
 H391 H 0.92032 -0.14230 0.23812
 H392 H 0.83794 -0.09205 0.31315
 H393 H 0.85929 -0.07695 0.35440
 H394 H 0.96335 -0.10050 0.30703
 H395 H 0.98472 -0.08203 0.34703
 H396 H 0.87805 -0.07518 0.39293
 H397 H 0.90173 -0.05703 0.43233
 H398 H 0.98170 -0.06206 0.39189
 C399 C 0.91762 0.12401 0.72054
 C400 C 0.90307 0.10695 0.70167
 C401 C 0.87438 0.10090 0.70698
 C402 C 0.86136 0.11071 0.73079
 C403 C 0.87605 0.12778 0.74943
 C404 C 0.90436 0.13423 0.74372
 C405 C 0.85865 0.08536 0.68831
 C406 C 0.87059 0.07609 0.66422
 C407 C 0.89915 0.08139 0.65806
 C408 C 0.91592 0.09614 0.67759
 C409 C 0.94508 0.09919 0.67264
 C410 C 0.95738 0.08867 0.64929
 C411 C 0.94120 0.07515 0.62967
 C412 C 0.91173 0.07187 0.63332
 C413 C 0.89616 0.05945 0.61185
 C414 C 0.90962 0.04979 0.58841
 C415 C 0.93888 0.05186 0.58585
 C416 C 0.95449 0.06474 0.60639
 H417 H 0.93918 0.13044 0.71780
 H418 H 0.83932 0.10594 0.73398
 H419 H 0.91694 0.14674 0.75744
 H420 H 0.83670 0.08056 0.69223
 H421 H 0.85700 0.06412 0.65105
 H422 H 0.95930 0.10899 0.68680
 H423 H 0.97986 0.09141 0.64645
 H424 H 0.87356 0.05718 0.61239
 H425 H 0.89725 0.03997 0.57255
 H426 H 0.97711 0.06686 0.60408
 C427 C 1.08433 -0.12911 0.71895
 C428 C 1.09822 -0.11179 0.69992
 C429 C 1.12748 -0.10717 0.70359
 C430 C 1.14160 -0.11790 0.72645
 C431 C 1.12760 -0.13510 0.74531
 C432 C 1.09885 -0.14080 0.74093
 C433 C 1.14268 -0.09225 0.68417
 C434 C 1.12963 -0.08250 0.66073
 C435 C 1.10044 -0.08622 0.65636
 C436 C 1.08421 -0.09955 0.67705
 C437 C 1.05453 -0.09953 0.67455
 C438 C 1.04118 -0.08749 0.65225
 C439 C 1.05686 -0.07619 0.63105
 C440 C 1.08676 -0.07622 0.63235
 C441 C 1.10172 -0.06671 0.60933
 C442 C 1.08745 -0.05652 0.58652
 C443 C 1.05801 -0.05498 0.58619
 C444 C 1.04279 -0.06486 0.60845
 H445 H 1.06243 -0.13479 0.71693
 H446 H 1.16399 -0.11404 0.72858
 H447 H 1.08707 -0.15372 0.75493
 H448 H 1.16507 -0.08853 0.68686
 H449 H 1.14279 -0.07110 0.64677
 H450 H 1.04093 -0.10768 0.69013
 H451 H 1.01831 -0.08743 0.65141
 H452 H 1.12442 -0.06755 0.60808
 H453 H 1.09949 -0.04920 0.56930
 H454 H 1.01990 -0.06417 0.60793
 C455 C 0.27558 1.08383 1.13382
 C456 C 0.29439 1.09851 1.11675
 C457 C 0.29069 1.12807 1.11416
 C458 C 0.26765 1.14173 1.12637
 C459 C 0.24846 1.12680 1.14262
 C460 C 0.25333 1.09778 1.14671
 C461 C 0.31004 1.14393 1.09944
 C462 C 0.33336 1.13118 1.08758
 C463 C 0.33764 1.10171 1.08907
 C464 C 0.31700 1.08497 1.10261
 C465 C 0.31915 1.05529 1.10085
 C466 C 0.34114 1.04239 1.08694
 C467 C 0.36248 1.05844 1.07525
 C468 C 0.36149 1.08834 1.07681
 C469 C 0.38480 1.10358 1.06659
 C470 C 0.40768 1.08963 1.05482
 C471 C 0.40777 1.06027 1.05226
 C472 C 0.38507 1.04474 1.06232
 H473 H 0.27786 1.06161 1.13807
 H474 H 0.26539 1.16433 1.12386
 H475 H 0.23930 1.08526 1.15900
 H476 H 0.30733 1.16656 1.09731
 H477 H 0.34716 1.14490 1.07640
 H478 H 0.30345 1.04141 1.10920
 H479 H 0.34171 1.01953 1.08575
 H480 H 0.38642 1.12620 1.06823
 H481 H 0.42533 1.10188 1.04747
 H482 H 0.38550 1.02189 1.06089
 C483 C 0.28082 0.91416 0.86393
 C484 C 0.30068 0.90030 0.88076
 C485 C 0.29885 0.87056 0.88302
 C486 C 0.27672 0.85579 0.87047
 C487 C 0.25659 0.86987 0.85427
 C488 C 0.25947 0.89922 0.85081
 C489 C 0.31920 0.85561 0.89770
 C490 C 0.34175 0.86946 0.90974
 C491 C 0.34427 0.89912 0.90842
 C492 C 0.32257 0.91487 0.89495
 C493 C 0.32306 0.94462 0.89673
 C494 C 0.34445 0.95855 0.91053
 C495 C 0.36674 0.94352 0.92221
 C496 C 0.36740 0.91362 0.92071
 C497 C 0.39154 0.89951 0.93107
 C498 C 0.41360 0.91452 0.94297
 C499 C 0.41213 0.94389 0.94543
 C500 C 0.38860 0.95829 0.93515
 H501 H 0.28156 0.93653 0.86000
 H502 H 0.27594 0.83308 0.87266
 H503 H 0.24461 0.91122 0.83874
 H504 H 0.31790 0.83285 0.89962
 H505 H 0.35641 0.85638 0.92085
 H506 H 0.30656 0.95778 0.88842
 H507 H 0.34378 0.98139 0.91165
 H508 H 0.39440 0.87699 0.92955
 H509 H 0.43180 0.90306 0.95060
 H510 H 0.38773 0.98111 0.93652
 C511 C 0.71796 0.91731 1.13852
 C512 C 0.69858 0.90301 1.12170
 C513 C 0.70227 0.87354 1.11828
 C514 C 0.72596 0.85969 1.12929
 C515 C 0.74570 0.87432 1.14528
 C516 C 0.74080 0.90317 1.15029
 C517 C 0.68228 0.85801 1.10390
 C518 C 0.65842 0.87103 1.09313
 C519 C 0.65428 0.90048 1.09528
 C520 C 0.67546 0.91688 1.10852
 C521 C 0.67342 0.94661 1.10729
 C522 C 0.65117 0.95987 1.09395
 C523 C 0.62946 0.94412 1.08241
 C524 C 0.63016 0.91421 1.08374
 C525 C 0.60648 0.89930 1.07375
 C526 C 0.58373 0.91356 1.06191
 C527 C 0.58412 0.94292 1.05918
 C528 C 0.60696 0.95814 1.06952
 H529 H 0.71572 0.93938 1.14345
 H530 H 0.72837 0.83720 1.12609
 H531 H 0.75525 0.91549 1.16238
 H532 H 0.68492 0.83544 1.10119
 H533 H 0.64413 0.85759 1.08212
 H534 H 0.68947 0.96026 1.11545
 H535 H 0.65078 0.98274 1.09296
 H536 H 0.60462 0.87670 1.07539
 H537 H 0.56602 0.90152 1.05430
 H538 H 0.60695 0.98099 1.06791
 C539 C 0.72144 1.08149 0.86907
 C540 C 0.70364 1.09585 0.88745
 C541 C 0.70871 1.12493 0.89183
 C542 C 0.73185 1.13834 0.87970
 C543 C 0.74995 1.12370 0.86197
 C544 C 0.74389 1.09520 0.85645
 C545 C 0.69061 1.14062 0.90824
 C546 C 0.66717 1.12824 0.92003
 C547 C 0.66139 1.09925 0.91662
 C548 C 0.68073 1.08251 0.90121
 C549 C 0.67694 1.05296 0.90065
 C550 C 0.65456 1.04026 0.91401
 C551 C 0.63455 1.05651 0.92765
 C552 C 0.63726 1.08631 0.92864
 C553 C 0.61530 1.10195 0.94109
 C554 C 0.59213 1.08842 0.95257
 C555 C 0.59033 1.05901 0.95250
 C556 C 0.61156 1.04312 0.94007
 H557 H 0.71824 1.05972 0.86357
 H558 H 0.73500 1.16060 0.88350
 H559 H 0.75704 1.08283 0.84309
 H560 H 0.69441 1.16287 0.91178
 H561 H 0.65444 1.14182 0.93257
 H562 H 0.69154 1.03889 0.89073
 H563 H 0.65268 1.01747 0.91327
 H564 H 0.61497 1.12469 0.94157
 H565 H 0.57558 1.10101 0.96176
 H566 H 0.60963 1.02037 0.93924
 C567 C 0.08531 0.26836 0.10929
 C568 C 0.10024 0.29329 0.10283
 C569 C 0.12852 0.29556 0.11205
 C570 C 0.14161 0.27294 0.12567
 C571 C 0.12648 0.24845 0.13165
 C572 C 0.09825 0.24648 0.12367
 C573 C 0.14342 0.32051 0.10796
 C574 C 0.13060 0.34369 0.09569
 C575 C 0.10257 0.34241 0.08599
 C576 C 0.08779 0.31626 0.08823
 C577 C 0.06132 0.31371 0.07531
 C578 C 0.04908 0.33632 0.06174
 C579 C 0.06216 0.36260 0.06131
 C580 C 0.08894 0.36622 0.07370
 C581 C 0.10057 0.39371 0.07378
 C582 C 0.08624 0.41641 0.06186
 C583 C 0.06008 0.41248 0.04916
 C584 C 0.04836 0.38538 0.04876
 H585 H 0.06335 0.26550 0.10430
 H586 H 0.16334 0.27462 0.13240
 H587 H 0.08624 0.22774 0.12842
 H588 H 0.16509 0.32236 0.11483
 H589 H 0.14355 0.36216 0.09334
 H590 H 0.04988 0.29412 0.07458
 H591 H 0.02890 0.33329 0.05182
 H592 H 0.12029 0.39855 0.08362
 H593 H 0.09575 0.43714 0.06258
 H594 H 0.02803 0.38206 0.03920
 C595 C -0.08499 0.26521 -0.10943
 C596 C -0.10015 0.29002 -0.10258
 C597 C -0.12909 0.29149 -0.10996
 C598 C -0.14239 0.26835 -0.12235
 C599 C -0.12697 0.24405 -0.12888
 C600 C -0.09822 0.24279 -0.12257
 C601 C -0.14447 0.31617 -0.10534
 C602 C -0.13161 0.33984 -0.09427
 C603 C -0.10292 0.33942 -0.08645
 C604 C -0.08740 0.31361 -0.08934
 C605 C -0.05988 0.31206 -0.07841
 C606 C -0.04750 0.33519 -0.06599
 C607 C -0.06160 0.36104 -0.06474
 C608 C -0.08933 0.36375 -0.07533
 C609 C -0.10202 0.39088 -0.07481
 C610 C -0.08789 0.41404 -0.06377
 C611 C -0.06086 0.41096 -0.05260
 C612 C -0.04795 0.38428 -0.05304
 H613 H -0.06269 0.26283 -0.10574
 H614 H -0.16454 0.26952 -0.12780
 H615 H -0.08598 0.22422 -0.12775
 H616 H -0.16662 0.31741 -0.11081
 H617 H -0.14500 0.35802 -0.09136
 H618 H -0.04759 0.29287 -0.07837
 H619 H -0.02645 0.33290 -0.05760
 H620 H -0.12255 0.39508 -0.08339
 H621 H -0.09833 0.43443 -0.06381
 H622 H -0.02694 0.38164 -0.04466
 C623 C 0.15092 0.69138 -0.12586
 C624 C 0.12207 0.68938 -0.11869
 C625 C 0.10475 0.71352 -0.12283
 C626 C 0.11564 0.73781 -0.13514
 C627 C 0.14407 0.73921 -0.14242
 C628 C 0.16171 0.71606 -0.13732
 C629 C 0.07667 0.71340 -0.11458
 C630 C 0.06546 0.69010 -0.10152
 C631 C 0.08175 0.66553 -0.09696
 C632 C 0.10996 0.66456 -0.10709
 C633 C 0.12479 0.63865 -0.10588
 C634 C 0.11273 0.61471 -0.09452
 C635 C 0.08598 0.61592 -0.08286
 C636 C 0.07048 0.64160 -0.08320
 C637 C 0.04462 0.64254 -0.06904
 C638 C 0.03427 0.61874 -0.05593
 C639 C 0.04879 0.59293 -0.05702
 C640 C 0.07473 0.59167 -0.07052
 H641 H 0.16581 0.67452 -0.12223
 H642 H 0.10214 0.75601 -0.13857
 H643 H 0.18383 0.71697 -0.14263
 H644 H 0.06327 0.73170 -0.11792
 H645 H 0.04350 0.69160 -0.09606
 H646 H 0.14552 0.63598 -0.11445
 H647 H 0.12472 0.59517 -0.09440
 H648 H 0.03239 0.66164 -0.06686
 H649 H 0.01465 0.62061 -0.04490
 H650 H 0.08656 0.57202 -0.07078
 C651 C -0.08873 0.73644 0.10456
 C652 C -0.10232 0.71004 0.10172
 C653 C -0.12956 0.70703 0.11319
 C654 C -0.14300 0.73010 0.12562
 C655 C -0.12911 0.75593 0.12818
 C656 C -0.10190 0.75885 0.11783
 C657 C -0.14297 0.68090 0.11266
 C658 C -0.12962 0.65736 0.10173
 C659 C -0.10262 0.65931 0.08990
 C660 C -0.08949 0.68641 0.08859
 C661 C -0.06428 0.68913 0.07369
 C662 C -0.05179 0.66602 0.06127
 C663 C -0.06332 0.63916 0.06393
 C664 C -0.08857 0.63522 0.07873
 C665 C -0.09840 0.60723 0.08203
 C666 C -0.08413 0.58439 0.07040
 C667 C -0.05983 0.58866 0.05490
 C668 C -0.04963 0.61618 0.05177
 H669 H -0.06752 0.74016 0.09766
 H670 H -0.16385 0.72777 0.13428
 H671 H -0.09082 0.77866 0.12008
 H672 H -0.16382 0.67847 0.12129
 H673 H -0.14143 0.63798 0.10210
 H674 H -0.05414 0.70915 0.07045
 H675 H -0.03267 0.66919 0.04970
 H676 H -0.11669 0.60221 0.09397
 H677 H -0.09241 0.56334 0.07330
 H678 H -0.03083 0.61983 0.03988
 C679 C 1.08362 0.11656 0.72284
 C680 C 1.09905 0.10348 0.70184
 C681 C 1.12887 0.10484 0.70295
 C682 C 1.14250 0.11680 0.72547
 C683 C 1.12693 0.12983 0.74625
 C684 C 1.09733 0.12987 0.74430
 C685 C 1.14489 0.09482 0.68128
 C686 C 1.13187 0.08442 0.65808
 C687 C 1.10223 0.08216 0.65633
 C688 C 1.08579 0.08999 0.67936
 C689 C 1.05681 0.08337 0.67951
 C690 C 1.04404 0.07065 0.65738
 C691 C 1.05927 0.06540 0.63380
 C692 C 1.08845 0.07165 0.63264
 C693 C 1.10242 0.06772 0.60759
 C694 C 1.08797 0.05744 0.58493
 C695 C 1.05944 0.05020 0.58669
 C696 C 1.04532 0.05405 0.61127
 H697 H 1.06090 0.11781 0.72268
 H698 H 1.16534 0.11748 0.72588
 H699 H 1.08447 0.13945 0.75987
 H700 H 1.16773 0.09573 0.68195
 H701 H 1.14562 0.07725 0.64213
 H702 H 1.04367 0.08674 0.69700
 H703 H 1.02188 0.06532 0.65858
 H704 H 1.12425 0.07323 0.60471
 H705 H 1.09928 0.05475 0.56608
 H706 H 1.02318 0.04873 0.61274
 C707 C 0.87796 -0.07470 0.72461
 C708 C 0.89087 -0.09047 0.70372
 C709 C 0.89227 -0.12017 0.70679
 C710 C 0.88283 -0.13310 0.73067
 C711 C 0.87022 -0.11720 0.75148
 C712 C 0.86760 -0.08786 0.74780
 C713 C 0.90277 -0.13692 0.68587
 C714 C 0.91143 -0.12490 0.66166
 C715 C 0.91099 -0.09537 0.65782
 C716 C 0.90194 -0.07783 0.67972
 C717 C 0.90505 -0.04831 0.67725
 C718 C 0.91627 -0.03630 0.65405
 C719 C 0.92377 -0.05306 0.63201
 C720 C 0.92032 -0.08275 0.63315
 C721 C 0.92617 -0.09852 0.60943
 C722 C 0.93652 -0.08540 0.58618
 C723 C 0.94169 -0.05639 0.58601
 C724 C 0.93498 -0.04026 0.60883
 H725 H 0.87481 -0.05219 0.72333
 H726 H 0.88411 -0.15585 0.73228
 H727 H 0.85826 -0.07462 0.76322
 H728 H 0.90395 -0.15967 0.68808
 H729 H 0.91945 -0.13929 0.64662
 H730 H 0.90008 -0.03392 0.69346
 H731 H 0.91889 -0.01358 0.65327
 H732 H 0.92256 -0.12092 0.60808
 H733 H 0.94132 -0.09812 0.56854
 H734 H 0.93843 -0.01763 0.60847
 C735 C 1.12881 -0.08357 0.28328
 C736 C 1.11033 -0.09755 0.30116
 C737 C 1.10427 -0.12629 0.29597
 C738 C 1.11469 -0.13964 0.27260
 C739 C 1.13290 -0.12544 0.25477
 C740 C 1.14009 -0.09736 0.26081
 C741 C 1.08814 -0.14170 0.31432
 C742 C 1.07849 -0.12940 0.33811
 C743 C 1.08353 -0.10068 0.34390
 C744 C 1.09825 -0.08414 0.32433
 C745 C 1.09971 -0.05464 0.32814
 C746 C 1.08785 -0.04182 0.35069
 C747 C 1.07516 -0.05793 0.37085
 C748 C 1.07357 -0.08770 0.36821
 C749 C 1.06249 -0.10322 0.39025
 C750 C 1.05245 -0.08953 0.41338
 C751 C 1.05261 -0.06009 0.41496
 C752 C 1.06402 -0.04439 0.39371
 H753 H 1.13566 -0.06216 0.28655
 H754 H 1.10965 -0.16161 0.26916
 H755 H 1.15379 -0.08539 0.24770
 H756 H 1.08334 -0.16370 0.31049
 H757 H 1.06612 -0.14268 0.35118
 H758 H 1.10892 -0.04070 0.31340
 H759 H 1.08900 -0.01904 0.35255
 H760 H 1.06192 -0.12597 0.39046
 H761 H 1.04386 -0.10195 0.42981
 H762 H 1.06456 -0.02154 0.39520
 C763 C 0.91796 0.11650 0.27577
 C764 C 0.90246 0.10544 0.29768
 C765 C 0.87269 0.10806 0.29689
 C766 C 0.85907 0.11900 0.27378
 C767 C 0.87474 0.12993 0.25205
 C768 C 0.90435 0.12894 0.25370
 C769 C 0.85675 0.10028 0.31939
 C770 C 0.86984 0.09078 0.34299
 C771 C 0.89939 0.08709 0.34436
 C772 C 0.91564 0.09268 0.32067
 C773 C 0.94430 0.08448 0.32039
 C774 C 0.95689 0.07203 0.34285
 C775 C 0.94190 0.06876 0.36689
 C776 C 0.91318 0.07707 0.36831
 C777 C 0.89964 0.07544 0.39377
 C778 C 0.91391 0.06505 0.41656
 C779 C 0.94179 0.05538 0.41454
 C780 C 0.95555 0.05716 0.38956
 H781 H 0.94072 0.11679 0.27560
 H782 H 0.83626 0.12055 0.27351
 H783 H 0.91728 0.13691 0.23742
 H784 H 0.83396 0.10222 0.31902
 H785 H 0.85616 0.08528 0.35956
 H786 H 0.95721 0.08623 0.30253
 H787 H 0.97874 0.06533 0.34152
 H788 H 0.87830 0.08274 0.39681
 H789 H 0.90285 0.06397 0.43568
 H790 H 0.97709 0.04969 0.38777
 C791 C 0.08306 0.27612 -0.12705
 C792 C 0.09805 0.29705 -0.11268
 C793 C 0.12786 0.29489 -0.11189
 C794 C 0.14173 0.27165 -0.12365
 C795 C 0.12658 0.25092 -0.13795
 C796 C 0.09707 0.25377 -0.13959
 C797 C 0.14373 0.31620 -0.09977
 C798 C 0.13071 0.34004 -0.08907
 C799 C 0.10106 0.34298 -0.08909
 C800 C 0.08446 0.32038 -0.09972
 C801 C 0.05489 0.32153 -0.09651
 C802 C 0.04187 0.34437 -0.08412
 C803 C 0.05761 0.36735 -0.07524
 C804 C 0.08736 0.36741 -0.07819
 C805 C 0.10204 0.39219 -0.07056
 C806 C 0.08773 0.41539 -0.05963
 C807 C 0.05859 0.41440 -0.05552
 C808 C 0.04366 0.39038 -0.06343
 H809 H 0.06049 0.27682 -0.12972
 H810 H 0.16454 0.27068 -0.12280
 H811 H 0.08434 0.23828 -0.14997
 H812 H 0.16655 0.31470 -0.09899
 H813 H 0.14446 0.35549 -0.08004
 H814 H 0.04120 0.30454 -0.10255
 H815 H 0.01913 0.34420 -0.08182
 H816 H 0.12445 0.39453 -0.07337
 H817 H 0.09957 0.43397 -0.05387
 H818 H 0.02096 0.38987 -0.06084
 C819 C -0.08006 0.26534 0.11009
 C820 C -0.09558 0.28952 0.10186
 C821 C -0.12484 0.29032 0.10776
 C822 C -0.13800 0.26719 0.12009
 C823 C -0.12231 0.24345 0.12792
 C824 C -0.09327 0.24283 0.12310
 C825 C -0.14078 0.31430 0.10166
 C826 C -0.12821 0.33800 0.09051
 C827 C -0.09919 0.33829 0.08417
 C828 C -0.08298 0.31314 0.08860
 C829 C -0.05493 0.31223 0.07914
 C830 C -0.04281 0.33538 0.06656
 C831 C -0.05773 0.36064 0.06374
 C832 C -0.08595 0.36271 0.07298
 C833 C -0.09952 0.38935 0.07113
 C834 C -0.08578 0.41260 0.05997
 C835 C -0.05829 0.41006 0.04998
 C836 C -0.04444 0.38395 0.05187
 H837 H -0.05756 0.26351 0.10752
 H838 H -0.16040 0.26795 0.12444
 H839 H -0.08080 0.22473 0.12931
 H840 H -0.16319 0.31495 0.10597
 H841 H -0.14205 0.35557 0.08630
 H842 H -0.04198 0.29351 0.08038
 H843 H -0.02134 0.33360 0.05932
 H844 H -0.12046 0.39314 0.07877
 H845 H -0.09687 0.43262 0.05891
 H846 H -0.02299 0.38190 0.04458
 C847 C -0.08666 0.72010 -0.13914
 C848 C -0.10017 0.70284 -0.11983
 C849 C -0.12849 0.70940 -0.11318
 C850 C -0.14176 0.73353 -0.12397
 C851 C -0.12774 0.75127 -0.14239
 C852 C -0.10022 0.74363 -0.15026
 C853 C -0.14348 0.69189 -0.09573
 C854 C -0.13107 0.66779 -0.08484
 C855 C -0.10268 0.66071 -0.09028
 C856 C -0.08665 0.67918 -0.10716
 C857 C -0.05745 0.67392 -0.11010
 C858 C -0.04444 0.65113 -0.09745
 C859 C -0.06006 0.63217 -0.08206
 C860 C -0.08954 0.63622 -0.07876
 C861 C -0.10463 0.61533 -0.06429
 C862 C -0.09074 0.59214 -0.05282
 C863 C -0.06153 0.58924 -0.05511
 C864 C -0.04630 0.60909 -0.06991
 H865 H -0.06568 0.71578 -0.14643
 H866 H -0.16340 0.73791 -0.11839
 H867 H -0.08832 0.75633 -0.16430
 H868 H -0.16517 0.69676 -0.09053
 H869 H -0.14407 0.65564 -0.07136
 H870 H -0.04377 0.68772 -0.12132
 H871 H -0.02188 0.64821 -0.09991
 H872 H -0.12720 0.61599 -0.06191
 H873 H -0.10281 0.57662 -0.04172
 H874 H -0.02379 0.60617 -0.07243
 C875 C 0.07811 0.73118 0.12166
 C876 C 0.09306 0.70759 0.11129
 C877 C 0.12275 0.70693 0.11501
 C878 C 0.13676 0.72967 0.12724
 C879 C 0.12166 0.75298 0.13695
 C880 C 0.09225 0.75335 0.13441
 C881 C 0.13838 0.68357 0.10659
 C882 C 0.12520 0.66045 0.09497
 C883 C 0.09574 0.66008 0.09057
 C884 C 0.07960 0.68454 0.09773
 C885 C 0.05074 0.68541 0.09050
 C886 C 0.03797 0.66298 0.07719
 C887 C 0.05309 0.63842 0.07136
 C888 C 0.08201 0.63630 0.07860
 C889 C 0.09588 0.61022 0.07394
 C890 C 0.08181 0.58770 0.06185
 C891 C 0.05363 0.59038 0.05365
 C892 C 0.03938 0.61584 0.05844
 H893 H 0.05545 0.73288 0.12076
 H894 H 0.15949 0.72906 0.12973
 H895 H 0.08020 0.77114 0.14196
 H896 H 0.16109 0.68303 0.10925
 H897 H 0.13890 0.64345 0.08880
 H898 H 0.03757 0.70361 0.09411
 H899 H 0.01587 0.66476 0.07172
 H900 H 0.11739 0.60627 0.08000
 H901 H 0.09321 0.56813 0.05857
 H902 H 0.01742 0.61787 0.05263
 C903 C 0.27533 1.09236 0.87450
 C904 C 0.29868 1.10715 0.88531
 C905 C 0.30033 1.13657 0.88019
 C906 C 0.27842 1.15066 0.86637
 C907 C 0.25528 1.13567 0.85631
 C908 C 0.25414 1.10645 0.86016
 C909 C 0.32386 1.15173 0.88878
 C910 C 0.34620 1.13825 0.90183
 C911 C 0.34540 1.10908 0.90772
 C912 C 0.32061 1.09364 0.90056
 C913 C 0.31822 1.06542 0.90947
 C914 C 0.33972 1.05239 0.92403
 C915 C 0.36480 1.06654 0.92952
 C916 C 0.36829 1.09492 0.92104
 C917 C 0.39482 1.10769 0.92578
 C918 C 0.41664 1.09293 0.93867
 C919 C 0.41269 1.06520 0.94767
 C920 C 0.38658 1.05225 0.94323
 H921 H 0.27311 1.06981 0.87624
 H922 H 0.27951 1.17324 0.86298
 H923 H 0.23643 1.09451 0.85243
 H924 H 0.32523 1.17423 0.88504
 H925 H 0.36351 1.15151 0.90788
 H926 H 0.29949 1.05305 0.90625
 H927 H 0.33681 1.03080 0.93072
 H928 H 0.39969 1.12874 0.91904
 H929 H 0.43670 1.10336 0.94172
 H930 H 0.38343 1.03067 0.94982
 C931 C 0.30353 0.88050 1.14659
 C932 C 0.30700 0.88430 1.11835
 C933 C 0.28386 0.87759 1.10124
 C934 C 0.25892 0.86641 1.11209
 C935 C 0.25594 0.86291 1.14006
 C936 C 0.27832 0.87019 1.15716
 C937 C 0.28554 0.88250 1.07347
 C938 C 0.30932 0.89488 1.06228
 C939 C 0.33286 0.90207 1.07843
 C940 C 0.33226 0.89524 1.10664
 C941 C 0.35705 0.89920 1.12210
 C942 C 0.38122 0.91054 1.11070
 C943 C 0.38147 0.91918 1.08372
 C944 C 0.35716 0.91551 1.06725
 C945 C 0.35798 0.92619 1.04048
 C946 C 0.38198 0.93960 1.03058
 C947 C 0.40609 0.94245 1.04677
 C948 C 0.40581 0.93193 1.07324
 H949 H 0.31953 0.88614 1.16113
 H950 H 0.24136 0.86131 1.09887
 H951 H 0.27630 0.86776 1.17887
 H952 H 0.26803 0.87722 1.06025
 H953 H 0.30890 0.89788 1.04066
 H954 H 0.35869 0.89302 1.14304
 H955 H 0.39979 0.91306 1.12334
 H956 H 0.34013 0.92535 1.02694
 H957 H 0.38169 0.94774 1.01006
 H958 H 0.42427 0.93456 1.08603
 C959 C 0.72999 1.10877 1.09700
 C960 C 0.70446 1.10198 1.11021
 C961 C 0.70157 1.10994 1.13777
 C962 C 0.72402 1.12296 1.15163
 C963 C 0.74900 1.12955 1.13805
 C964 C 0.75170 1.12246 1.11071
 C965 C 0.67614 1.10531 1.15116
 C966 C 0.65312 1.09386 1.13758
 C967 C 0.65494 1.08565 1.11015
 C968 C 0.68150 1.08836 1.09675
 C969 C 0.68438 1.07704 1.07047
 C970 C 0.66176 1.06477 1.05715
 C971 C 0.63523 1.06383 1.06914
 C972 C 0.63124 1.07447 1.09570
 C973 C 0.60351 1.07406 1.10633
 C974 C 0.58097 1.06326 1.09127
 C975 C 0.58530 1.05222 1.06531
 C976 C 0.61258 1.05247 1.05448
 H977 H 0.73355 1.10468 1.07583
 H978 H 0.72180 1.12888 1.17272
 H979 H 0.77088 1.12750 1.09990
 H980 H 0.67380 1.11116 1.17226
 H981 H 0.63426 1.09107 1.14938
 H982 H 0.70417 1.07667 1.05981
 H983 H 0.66500 1.05631 1.03699
 H984 H 0.59838 1.08258 1.12594
 H985 H 0.56007 1.06340 1.10008
 H986 H 0.61615 1.04432 1.03426
 C987 C 0.73769 0.92181 0.89831
 C988 C 0.71217 0.90710 0.90280
 C989 C 0.71035 0.87890 0.89330
 C990 C 0.73371 0.86576 0.88114
 C991 C 0.75866 0.88073 0.87688
 C992 C 0.76039 0.90882 0.88529
 C993 C 0.68510 0.86411 0.89554
 C994 C 0.66122 0.87696 0.90623
 C995 C 0.66195 0.90493 0.91605
 C996 C 0.68824 0.91964 0.91571
 C997 C 0.68987 0.94610 0.92875
 C998 C 0.66645 0.95814 0.94108
 C999 C 0.64027 0.94489 0.93999
 C1000 C 0.63742 0.91846 0.92684
 C1001 C 0.60999 0.90695 0.92460
 C1002 C 0.58666 0.92078 0.93568
 C1003 C 0.58986 0.94625 0.94970
 C1004 C 0.61682 0.95807 0.95191
 H1005 H 0.74044 0.94365 0.90374
 H1006 H 0.73223 0.84418 0.87400
 H1007 H 0.77949 0.92072 0.88179
 H1008 H 0.68363 0.84250 0.88848
 H1009 H 0.64260 0.86404 0.90734
 H1010 H 0.70931 0.95765 0.93059
 H1011 H 0.66878 0.97831 0.95120
 H1012 H 0.60575 0.88768 0.91378
 H1013 H 0.56604 0.91125 0.93352
 H1014 H 0.61957 0.97782 0.96263
   
