data_POSCAR
  _audit_creation_date              2014-09-24
  _audit_creation_method            'ToBaCCo'
  _symmetry_space_group_name_H-M    'P1'
  _symmetry_Int_Tables_number       1
  _symmetry_cell_setting            triclinic
  loop_
  _symmetry_equiv_pos_as_xyz
 x,y,z
_cell_length_a 45.8492
_cell_length_b 34.6589
_cell_length_c 35.5971
_cell_angle_alpha 90.551600
_cell_angle_beta 89.549900
_cell_angle_gamma 88.761500
loop_
  _atom_site_label
  _atom_site_type_symbol
  _atom_site_fract_x
  _atom_site_fract_y
  _atom_site_fract_z
Si1 Si 1.25315 0.25718 0.24064
 Si2 Si 0.75215 -0.25216 0.24298
 Si3 Si 0.75093 0.24084 -0.25723
 Si4 Si 1.25033 -0.25823 -0.25719
 Si5 Si 0.24885 0.25643 0.75599
 Si6 Si 0.74970 0.76175 0.75558
 Si7 Si 0.74728 0.25135 0.25643
 Si8 Si 0.24849 0.74585 0.25550
 O9 O 1.04388 0.06637 0.07236
 O10 O 1.07617 0.03069 0.03598
 C11 C 1.07019 0.05568 0.06247
 O12 O 0.96202 -0.06890 0.06742
 O13 O 0.92995 -0.03034 0.03501
 C14 C 0.93575 -0.05781 0.05845
 O15 O 1.04351 -0.06780 0.07080
 O16 O 1.07607 -0.03414 0.03531
 C17 C 1.06989 -0.05890 0.06117
 O18 O 0.96242 0.07271 0.06958
 O19 O 0.93018 0.03721 0.03542
 C20 C 0.93612 0.06360 0.06009
 Zr21 Zr 1.00316 0.04966 0.05072
 O22 O 1.00032 0.05030 0.11010
 O23 O 1.00654 0.11050 0.05016
 Zr24 Zr 1.00289 -0.04731 0.05049
 O25 O 1.00180 -0.04095 0.10959
 O26 O 1.00284 -0.10813 0.05531
 O27 O 1.02919 0.00025 0.05769
 O28 O 0.97741 0.00198 0.05767
 O29 O 0.96255 0.07169 -0.06219
 O30 O 0.93015 0.03638 -0.02809
 C31 C 0.93619 0.06238 -0.05279
 O32 O 1.04375 -0.06730 -0.06672
 O33 O 1.07613 -0.03407 -0.03070
 C34 C 1.07008 -0.05827 -0.05738
 O35 O 0.96219 -0.06904 -0.06186
 O36 O 0.93016 -0.03081 -0.02769
 C37 C 0.93594 -0.05821 -0.05178
 O38 O 1.04429 0.06566 -0.06570
 O39 O 1.07650 0.03059 -0.02995
 C40 C 1.07059 0.05527 -0.05615
 Zr41 Zr 1.00335 0.04928 -0.04385
 O42 O 1.00036 0.05023 -0.10315
 O43 O 1.00672 0.11012 -0.04218
 Zr44 Zr 1.00305 -0.04810 -0.04429
 O45 O 0.99968 -0.04889 -0.10358
 O46 O 1.00591 -0.10914 -0.04374
 Zr47 Zr 1.04687 -0.00071 0.00283
 Zr48 Zr 0.95942 0.00234 0.00350
 O49 O 0.97784 0.00135 -0.05085
 O50 O 1.02925 -0.00033 -0.05175
 O51 O 0.97709 0.05801 0.00364
 O52 O 1.02846 -0.05576 0.00280
 O53 O 1.02881 0.05565 0.00329
 O54 O 0.97697 -0.05444 0.00326
 H55 H 0.96415 0.00237 0.07980
 H56 H 1.04176 -0.07866 0.00229
 H57 H 0.96484 0.00142 -0.07295
 H58 H 1.04211 0.07780 0.00336
 H59 H 1.01133 -0.11916 0.03188
 H60 H 0.99004 -0.11820 -0.02723
 H61 H 1.01533 -0.03265 -0.11367
 H62 H 1.01583 0.03269 -0.11336
 H63 H 0.98927 0.12073 -0.02884
 H64 H 0.98982 0.12097 0.03581
 H65 H 1.01427 0.03044 0.11932
 H66 H 1.00102 -0.06741 0.11976
 O67 O 1.04013 0.56311 0.56879
 O68 O 1.07142 0.52774 0.53068
 C69 C 1.06616 0.55214 0.55786
 O70 O 0.95785 0.42929 0.56564
 O71 O 0.92517 0.46767 0.53401
 C72 C 0.93144 0.44020 0.55729
 O73 O 1.03946 0.43032 0.56639
 O74 O 1.07110 0.46323 0.52895
 C75 C 1.06559 0.43883 0.55531
 O76 O 0.95811 0.57030 0.56787
 O77 O 0.92509 0.53502 0.53466
 C78 C 0.93156 0.56144 0.55906
 Zr79 Zr 0.99884 0.54733 0.54814
 O80 O 0.99712 0.54742 0.60756
 O81 O 1.00258 0.60813 0.54829
 Zr82 Zr 0.99836 0.45032 0.54687
 O83 O 0.99798 0.45425 0.60616
 O84 O 1.00102 0.38929 0.54802
 O85 O 1.02487 0.49769 0.55354
 O86 O 0.97317 0.49973 0.55546
 O87 O 0.95636 0.57187 0.43781
 O88 O 0.92444 0.53612 0.47216
 C89 C 0.93017 0.56294 0.44821
 O90 O 1.03662 0.42974 0.42993
 O91 O 1.07006 0.46319 0.46417
 C92 C 1.06321 0.43784 0.43882
 O93 O 0.95539 0.43027 0.43572
 O94 O 0.92397 0.46823 0.47108
 C95 C 0.92935 0.44118 0.44639
 O96 O 1.03777 0.56524 0.43112
 O97 O 1.07045 0.52885 0.46486
 C98 C 1.06419 0.55456 0.43974
 Zr99 Zr 0.99724 0.54787 0.45343
 O100 O 0.99291 0.54746 0.39424
 O101 O 1.00082 0.60866 0.45367
 Zr102 Zr 0.99644 0.45081 0.45202
 O103 O 0.99228 0.45302 0.39286
 O104 O 0.99892 0.38977 0.44972
 Zr105 Zr 1.04138 0.49719 0.49810
 Zr106 Zr 0.95407 0.50077 0.50193
 O107 O 0.97121 0.50043 0.44692
 O108 O 1.02290 0.49825 0.44409
 O109 O 0.97204 0.55630 0.50196
 O110 O 1.02262 0.44231 0.49831
 O111 O 1.02354 0.55366 0.49990
 O112 O 0.97135 0.44391 0.50044
 H113 H 0.96035 0.50004 0.57801
 H114 H 1.03535 0.41884 0.49776
 H115 H 0.95757 0.50112 0.42546
 H116 H 1.03686 0.57579 0.49992
 H117 H 0.98614 0.37957 0.53058
 H118 H 0.98395 0.38005 0.46717
 H119 H 1.00987 0.46540 0.38268
 H120 H 1.00943 0.53198 0.38363
 H121 H 0.98575 0.61930 0.47114
 H122 H 0.98534 0.61905 0.53529
 H123 H 1.01026 0.52627 0.61604
 H124 H 0.99804 0.42735 0.61534
 O125 O 0.53477 0.06213 0.57154
 O126 O 0.56849 0.03007 0.53417
 C127 C 0.56143 0.05275 0.56225
 O128 O 0.45604 -0.07332 0.55971
 O129 O 0.42339 -0.03529 0.52749
 C130 C 0.42963 -0.06275 0.55085
 O131 O 0.53777 -0.07055 0.56369
 O132 O 0.56972 -0.03444 0.52963
 C133 C 0.56399 -0.06038 0.55445
 O134 O 0.45368 0.06763 0.56566
 O135 O 0.42234 0.03199 0.53027
 C136 C 0.42762 0.05803 0.55560
 Zr137 Zr 0.49493 0.04625 0.54722
 O138 O 0.49142 0.04643 0.60653
 O139 O 0.49578 0.10716 0.54570
 Zr140 Zr 0.49669 -0.05088 0.54331
 O141 O 0.49536 -0.04830 0.60263
 O142 O 0.49652 -0.11201 0.54371
 O143 O 0.52177 -0.00262 0.55289
 O144 O 0.47021 -0.00258 0.55191
 O145 O 0.45542 0.07281 0.43616
 O146 O 0.42310 0.03444 0.46707
 C147 C 0.42911 0.06244 0.44444
 O148 O 0.53893 -0.06423 0.42605
 O149 O 0.57041 -0.03160 0.46403
 C150 C 0.56501 -0.05496 0.43630
 O151 O 0.45765 -0.06951 0.42981
 O152 O 0.42434 -0.03357 0.46438
 C153 C 0.43105 -0.05989 0.43942
 O154 O 0.53687 0.06867 0.43262
 O155 O 0.56930 0.03288 0.46736
 C156 C 0.56322 0.05846 0.44206
 Zr157 Zr 0.49623 0.04957 0.45288
 O158 O 0.49547 0.04804 0.39353
 O159 O 0.49773 0.11054 0.45437
 Zr160 Zr 0.49774 -0.04752 0.44870
 O161 O 0.49547 -0.04544 0.38940
 O162 O 0.50170 -0.10847 0.44678
 Zr163 Zr 0.54015 -0.00066 0.49851
 Zr164 Zr 0.45266 -0.00067 0.49755
 O165 O 0.47148 0.00131 0.44357
 O166 O 0.52314 0.00131 0.44375
 O167 O 0.46932 0.05544 0.50011
 O168 O 0.52288 -0.05631 0.49584
 O169 O 0.52112 0.05503 0.50079
 O170 O 0.47131 -0.05678 0.49544
 H171 H 0.45689 -0.00320 0.57395
 H172 H 0.53671 -0.07863 0.49450
 H173 H 0.45852 0.00204 0.42143
 H174 H 0.53406 0.07754 0.50215
 H175 H 0.51168 -0.12176 0.52593
 H176 H 0.48777 -0.11853 0.46547
 H177 H 0.50824 -0.02442 0.38115
 H178 H 0.49514 0.07531 0.38537
 H179 H 0.48506 0.11944 0.47549
 H180 H 0.49532 0.11607 0.57223
 H181 H 0.50258 0.02358 0.61540
 H182 H 0.49520 -0.07541 0.61121
 O183 O 0.54257 0.56503 0.07090
 O184 O 0.57548 0.53229 0.03283
 C185 C 0.56901 0.55533 0.06084
 O186 O 0.46175 0.43013 0.05800
 O187 O 0.42910 0.46975 0.02767
 C188 C 0.43541 0.44073 0.04920
 O189 O 0.54267 0.43308 0.06369
 O190 O 0.57533 0.46781 0.02947
 C191 C 0.56905 0.44248 0.05473
 O192 O 0.46149 0.57232 0.06733
 O193 O 0.42925 0.53872 0.03121
 C194 C 0.43527 0.56410 0.05689
 Zr195 Zr 0.50212 0.55002 0.04772
 O196 O 0.49937 0.54910 0.10706
 O197 O 0.50369 0.61090 0.04694
 Zr198 Zr 0.50225 0.45324 0.04289
 O199 O 0.49992 0.45510 0.10220
 O200 O 0.50565 0.39225 0.04254
 O201 O 0.52826 0.50053 0.05253
 O202 O 0.47645 0.50194 0.05229
 O203 O 0.46221 0.57917 -0.06195
 O204 O 0.42937 0.54116 -0.03143
 C205 C 0.43577 0.56958 -0.05334
 O206 O 0.54347 0.43834 -0.07386
 O207 O 0.57581 0.47045 -0.03669
 C208 C 0.56979 0.44673 -0.06389
 O209 O 0.46185 0.43656 -0.07009
 O210 O 0.42951 0.47304 -0.03461
 C211 C 0.43551 0.44656 -0.05960
 O212 O 0.54365 0.57211 -0.06727
 O213 O 0.57583 0.53523 -0.03322
 C214 C 0.56994 0.56113 -0.05827
 Zr215 Zr 0.50274 0.55418 -0.04663
 O216 O 0.49938 0.55630 -0.10588
 O217 O 0.50582 0.61497 -0.04386
 Zr218 Zr 0.50262 0.45721 -0.05177
 O219 O 0.49941 0.46108 -0.11094
 O220 O 0.50607 0.39628 -0.05568
 Zr221 Zr 0.54623 0.50231 -0.00205
 Zr222 Zr 0.45861 0.50484 -0.00182
 O223 O 0.47712 0.50680 -0.05604
 O224 O 0.52887 0.50523 -0.05669
 O225 O 0.47633 0.56037 0.00101
 O226 O 0.52787 0.44726 -0.00482
 O227 O 0.52804 0.55849 0.00095
 O228 O 0.47648 0.44828 -0.00476
 H229 H 0.46303 0.50116 0.07422
 H230 H 0.54097 0.42415 -0.00580
 H231 H 0.46389 0.50822 -0.07789
 H232 H 0.54130 0.58067 0.00219
 H233 H 0.49268 0.38282 0.02256
 H234 H 0.49004 0.38563 -0.04050
 H235 H 0.51656 0.47516 -0.12010
 H236 H 0.51602 0.54117 -0.11665
 H237 H 0.49293 0.62410 -0.02304
 H238 H 0.50391 0.61944 0.07358
 H239 H 0.51097 0.52640 0.11538
 H240 H 0.49981 0.42789 0.11048
 C241 C 1.20949 0.24691 0.18673
 C242 C 1.18950 0.22617 0.16576
 C243 C 1.18879 0.18581 0.16792
 C244 C 1.20897 0.16646 0.19116
 C245 C 1.22897 0.18737 0.21232
 C246 C 1.22888 0.22776 0.21076
 C247 C 1.16535 0.16569 0.14772
 C248 C 1.16615 0.12805 0.13859
 C249 C 1.14141 0.10935 0.11965
 C250 C 1.14680 0.07826 0.09485
 C251 C 1.12374 0.06069 0.07618
 C252 C 1.09477 0.07357 0.08248
 C253 C 1.08942 0.10401 0.10815
 C254 C 1.11242 0.12164 0.12655
 H255 H 1.20926 0.27810 0.18497
 H256 H 1.17420 0.24181 0.14818
 H257 H 1.20877 0.13544 0.19412
 H258 H 1.24395 0.17197 0.23041
 H259 H 1.14676 0.18324 0.13918
 H260 H 1.18568 0.11080 0.14348
 H261 H 1.16893 0.06796 0.08945
 H262 H 1.12862 0.03707 0.05684
 H263 H 1.06740 0.11446 0.11399
 H264 H 1.10737 0.14461 0.14653
 C265 C 1.21257 0.73273 0.68215
 C266 C 1.19322 0.71311 0.65927
 C267 C 1.18997 0.67317 0.66271
 C268 C 1.20737 0.65290 0.68873
 C269 C 1.22678 0.67270 0.71175
 C270 C 1.22878 0.71286 0.70925
 C271 C 1.16639 0.65488 0.64124
 C272 C 1.16473 0.61692 0.63443
 C273 C 1.13936 0.60044 0.61507
 C274 C 1.14329 0.56794 0.59168
 C275 C 1.11956 0.55231 0.57284
 C276 C 1.09136 0.56854 0.57764
 C277 C 1.08739 0.60049 0.60184
 C278 C 1.11109 0.61626 0.62036
 H279 H 1.21396 0.76377 0.67972
 H280 H 1.18012 0.72941 0.63951
 H281 H 1.20517 0.62219 0.69263
 H282 H 1.23937 0.65676 0.73218
 H283 H 1.14957 0.67398 0.63021
 H284 H 1.18259 0.59760 0.64183
 H285 H 1.16481 0.55499 0.58759
 H286 H 1.12329 0.52738 0.55471
 H287 H 1.06595 0.61349 0.60641
 H288 H 1.10716 0.64054 0.63922
 C289 C 0.74046 0.18469 0.68532
 C290 C 0.72280 0.16088 0.66361
 C291 C 0.69320 0.15669 0.67270
 C292 C 0.68171 0.17668 0.70436
 C293 C 0.69939 0.20039 0.72599
 C294 C 0.72876 0.20518 0.71631
 C295 C 0.67454 0.13374 0.64724
 C296 C 0.64923 0.11866 0.65836
 C297 C 0.62798 0.10060 0.63272
 C298 C 0.59874 0.10024 0.64442
 C299 C 0.57742 0.08483 0.62140
 C300 C 0.58476 0.06874 0.58608
 C301 C 0.61418 0.06810 0.57452
 C302 C 0.63563 0.08405 0.59757
 H303 H 0.76301 0.18760 0.67719
 H304 H 0.73221 0.14607 0.63931
 H305 H 0.65887 0.17541 0.71187
 H306 H 0.68977 0.21562 0.74987
 H307 H 0.68164 0.13044 0.61831
 H308 H 0.64261 0.12153 0.68751
 H309 H 0.59222 0.11253 0.67139
 H310 H 0.55507 0.08541 0.63152
 H311 H 0.62055 0.05562 0.54760
 H312 H 0.65806 0.08294 0.58794
 C313 C 0.73524 0.71821 0.17092
 C314 C 0.71940 0.69367 0.14757
 C315 C 0.70204 0.66480 0.16301
 C316 C 0.70230 0.65947 0.20218
 C317 C 0.71779 0.68421 0.22537
 C318 C 0.73375 0.71432 0.21004
 C319 C 0.68322 0.64166 0.13799
 C320 C 0.65814 0.62681 0.15030
 C321 C 0.63657 0.60736 0.12626
 C322 C 0.60785 0.60581 0.13977
 C323 C 0.58625 0.58860 0.11856
 C324 C 0.59281 0.57201 0.08325
 C325 C 0.62176 0.57249 0.06990
 C326 C 0.64351 0.59016 0.09119
 H327 H 0.74811 0.74046 0.15830
 H328 H 0.72004 0.69794 0.11748
 H329 H 0.69044 0.63643 0.21518
 H330 H 0.71695 0.68013 0.25549
 H331 H 0.68881 0.64002 0.10842
 H332 H 0.65156 0.63188 0.17922
 H333 H 0.60192 0.61849 0.16679
 H334 H 0.56430 0.58836 0.12999
 H335 H 0.62749 0.55974 0.04287
 H336 H 0.66559 0.58997 0.08027
 C337 C 0.80685 -0.21759 0.23150
 C338 C 0.82661 -0.19358 0.21393
 C339 C 0.81789 -0.17009 0.18405
 C340 C 0.78841 -0.16989 0.17308
 C341 C 0.76846 -0.19379 0.19113
 C342 C 0.77779 -0.21865 0.21970
 C343 C 0.84049 -0.14665 0.16573
 C344 C 0.83891 -0.13319 0.13059
 C345 C 0.86387 -0.11411 0.11228
 C346 C 0.85865 -0.08630 0.08462
 C347 C 0.88192 -0.06795 0.06703
 C348 C 0.91095 -0.07750 0.07644
 C349 C 0.91611 -0.10607 0.10345
 C350 C 0.89291 -0.12425 0.12104
 H351 H 0.81459 -0.23518 0.25441
 H352 H 0.84902 -0.19386 0.22340
 H353 H 0.78060 -0.15118 0.15102
 H354 H 0.74585 -0.19316 0.18253
 H355 H 0.86020 -0.14212 0.18160
 H356 H 0.81920 -0.13644 0.11446
 H357 H 0.83651 -0.07841 0.07695
 H358 H 0.87714 -0.04626 0.04613
 H359 H 0.93814 -0.11451 0.11110
 H360 H 0.89788 -0.14672 0.14103
 C361 C 0.79977 0.24727 0.69469
 C362 C 0.81982 0.26667 0.67252
 C363 C 0.81612 0.30624 0.66551
 C364 C 0.79169 0.32603 0.68117
 C365 C 0.77158 0.30648 0.70333
 C366 C 0.77542 0.26692 0.71013
 C367 C 0.83938 0.32595 0.64439
 C368 C 0.83650 0.36124 0.62952
 C369 C 0.86106 0.38085 0.61093
 C370 C 0.85515 0.40903 0.58382
 C371 C 0.87792 0.42836 0.56624
 C372 C 0.90711 0.42007 0.57573
 C373 C 0.91294 0.39227 0.60331
 C374 C 0.89023 0.37305 0.62084
 H375 H 0.80390 0.21712 0.70077
 H376 H 0.83867 0.25082 0.66144
 H377 H 0.78846 0.35675 0.67764
 H378 H 0.75358 0.32274 0.71581
 H379 H 0.85981 0.31009 0.64061
 H380 H 0.81548 0.37604 0.62984
 H381 H 0.83286 0.41591 0.57604
 H382 H 0.87265 0.44971 0.54520
 H383 H 0.93510 0.38549 0.61170
 H384 H 0.89568 0.35270 0.64267
 C385 C 0.29417 -0.25119 0.68816
 C386 C 0.31364 -0.23193 0.66511
 C387 C 0.31414 -0.19148 0.66507
 C388 C 0.29448 -0.17058 0.68863
 C389 C 0.27497 -0.19004 0.71190
 C390 C 0.27507 -0.23047 0.71212
 C391 C 0.33677 -0.17284 0.64195
 C392 C 0.33565 -0.13590 0.63107
 C393 C 0.35973 -0.11837 0.60950
 C394 C 0.35370 -0.08721 0.58566
 C395 C 0.37622 -0.06962 0.56578
 C396 C 0.40532 -0.08259 0.56977
 C397 C 0.41128 -0.11371 0.59376
 C398 C 0.38884 -0.13125 0.61348
 H399 H 0.29435 -0.28246 0.68770
 H400 H 0.32856 -0.24875 0.64740
 H401 H 0.29458 -0.13940 0.68997
 H402 H 0.26013 -0.17350 0.72984
 H403 H 0.35494 -0.19110 0.63266
 H404 H 0.31637 -0.11824 0.63693
 H405 H 0.33151 -0.07647 0.58242
 H406 H 0.37089 -0.04548 0.54780
 H407 H 0.43342 -0.12425 0.59787
 H408 H 0.39457 -0.15423 0.63260
 C409 C 0.27163 0.32921 0.21130
 C410 C 0.28718 0.35217 0.18640
 C411 C 0.30383 0.33526 0.15709
 C412 C 0.30335 0.29490 0.15204
 C413 C 0.28804 0.27202 0.17715
 C414 C 0.27264 0.28891 0.20739
 C415 C 0.32210 0.36031 0.13332
 C416 C 0.34648 0.34709 0.11610
 C417 C 0.36792 0.37193 0.09732
 C418 C 0.39675 0.35801 0.09451
 C419 C 0.41833 0.38041 0.07866
 C420 C 0.41163 0.41730 0.06467
 C421 C 0.38254 0.43094 0.06614
 C422 C 0.36081 0.40849 0.08251
 H423 H 0.25916 0.34310 0.23368
 H424 H 0.28676 0.38318 0.19057
 H425 H 0.31474 0.28075 0.12884
 H426 H 0.28839 0.24100 0.17308
 H427 H 0.31694 0.39093 0.13336
 H428 H 0.35288 0.31705 0.11909
 H429 H 0.40279 0.32986 0.10533
 H430 H 0.44041 0.36867 0.07745
 H431 H 0.37670 0.45911 0.05523
 H432 H 0.33861 0.41971 0.08330
 C433 C 0.79628 0.24017 -0.20456
 C434 C 0.81677 0.22335 -0.18066
 C435 C 0.81737 0.18337 -0.17476
 C436 C 0.79679 0.16047 -0.19334
 C437 C 0.77624 0.17744 -0.21740
 C438 C 0.77601 0.21736 -0.22319
 C439 C 0.84098 0.16688 -0.15112
 C440 C 0.84039 0.13192 -0.13532
 C441 C 0.86509 0.11582 -0.11323
 C442 C 0.85966 0.08762 -0.08617
 C443 C 0.88260 0.07086 -0.06587
 C444 C 0.91158 0.08170 -0.07250
 C445 C 0.91697 0.10998 -0.09959
 C446 C 0.89407 0.12672 -0.11980
 H447 H 0.79657 0.27104 -0.20898
 H448 H 0.83246 0.24164 -0.16703
 H449 H 0.79699 0.12945 -0.19040
 H450 H 0.76097 0.15931 -0.23193
 H451 H 0.85938 0.18516 -0.14580
 H452 H 0.82099 0.11484 -0.13743
 H453 H 0.83759 0.07845 -0.08079
 H454 H 0.87764 0.04899 -0.04540
 H455 H 0.93901 0.11878 -0.10575
 H456 H 0.89934 0.14735 -0.14129
 C457 C 0.79442 0.69009 0.25636
 C458 C 0.81340 0.66787 0.27805
 C459 C 0.81222 0.67014 0.31740
 C460 C 0.79092 0.69442 0.33471
 C461 C 0.77186 0.71676 0.31284
 C462 C 0.77406 0.71537 0.27356
 C463 C 0.83517 0.64931 0.33866
 C464 C 0.83379 0.64155 0.37544
 C465 C 0.85855 0.62257 0.39495
 C466 C 0.85325 0.59727 0.42463
 C467 C 0.87646 0.57802 0.44231
 C468 C 0.90544 0.58426 0.43093
 C469 C 0.91067 0.61077 0.40215
 C470 C 0.88754 0.62974 0.38444
 H471 H 0.79632 0.68852 0.22602
 H472 H 0.82957 0.64949 0.26397
 H473 H 0.78960 0.69747 0.36494
 H474 H 0.75609 0.73579 0.32669
 H475 H 0.85421 0.63944 0.32277
 H476 H 0.81398 0.64761 0.39132
 H477 H 0.83110 0.59173 0.43355
 H478 H 0.87169 0.55808 0.46466
 H479 H 0.93267 0.61667 0.39292
 H480 H 0.89246 0.65020 0.36262
 C481 C 0.30942 0.22993 0.26203
 C482 C 0.32903 0.20817 0.28339
 C483 C 0.31907 0.18335 0.31149
 C484 C 0.28875 0.18045 0.31737
 C485 C 0.26912 0.20226 0.29581
 C486 C 0.27935 0.22703 0.26797
 C487 C 0.34130 0.16158 0.33345
 C488 C 0.33605 0.14193 0.36509
 C489 C 0.35980 0.12255 0.38650
 C490 C 0.35374 0.08982 0.40797
 C491 C 0.37603 0.07047 0.42748
 C492 C 0.40480 0.08374 0.42607
 C493 C 0.41052 0.11736 0.40574
 C494 C 0.38834 0.13662 0.38642
 H495 H 0.31797 0.24922 0.24117
 H496 H 0.35218 0.21112 0.27820
 H497 H 0.27995 0.16143 0.33825
 H498 H 0.24592 0.19989 0.30095
 H499 H 0.36347 0.16238 0.32287
 H500 H 0.31405 0.13923 0.37564
 H501 H 0.33184 0.07874 0.40899
 H502 H 0.37085 0.04478 0.44304
 H503 H 0.43227 0.12888 0.40458
 H504 H 0.39367 0.16276 0.37174
 C505 C 0.25842 0.68630 -0.19966
 C506 C 0.27489 0.66456 -0.17412
 C507 C 0.30519 0.66906 -0.17183
 C508 C 0.31878 0.69489 -0.19632
 C509 C 0.30239 0.71631 -0.22186
 C510 C 0.27214 0.71202 -0.22393
 C511 C 0.32250 0.64570 -0.14496
 C512 C 0.34674 0.65929 -0.12920
 C513 C 0.36790 0.63606 -0.10709
 C514 C 0.39603 0.65054 -0.10302
 C515 C 0.41772 0.62915 -0.08500
 C516 C 0.41180 0.59277 -0.07007
 C517 C 0.38332 0.57875 -0.07258
 C518 C 0.36153 0.60014 -0.09108
 H519 H 0.23500 0.68302 -0.20049
 H520 H 0.26395 0.64463 -0.15578
 H521 H 0.34220 0.69822 -0.19627
 H522 H 0.31355 0.73636 -0.23972
 H523 H 0.31533 0.61685 -0.13911
 H524 H 0.35260 0.68883 -0.13475
 H525 H 0.40153 0.67821 -0.11477
 H526 H 0.43931 0.64108 -0.08312
 H527 H 0.37808 0.55090 -0.06109
 H528 H 0.33995 0.58833 -0.09280
 C529 C 1.19433 -0.23554 -0.23015
 C530 C 1.17455 -0.21489 -0.20749
 C531 C 1.18406 -0.18643 -0.18246
 C532 C 1.21416 -0.17924 -0.18036
 C533 C 1.23409 -0.20025 -0.20311
 C534 C 1.22423 -0.22822 -0.22845
 C535 C 1.16156 -0.16626 -0.15893
 C536 C 1.16520 -0.13301 -0.14013
 C537 C 1.14075 -0.11348 -0.11940
 C538 C 1.14656 -0.09044 -0.08781
 C539 C 1.12370 -0.07237 -0.06752
 C540 C 1.09457 -0.07684 -0.07868
 C541 C 1.08891 -0.09906 -0.11090
 C542 C 1.11167 -0.11689 -0.13116
 H543 H 1.18600 -0.25777 -0.24837
 H544 H 1.15159 -0.22137 -0.20947
 H545 H 1.22252 -0.15823 -0.16081
 H546 H 1.25719 -0.19493 -0.20069
 H547 H 1.14042 -0.17955 -0.15789
 H548 H 1.18630 -0.11970 -0.13945
 H549 H 1.16878 -0.08689 -0.07850
 H550 H 1.12883 -0.05518 -0.04298
 H551 H 1.06683 -0.10250 -0.12079
 H552 H 1.10634 -0.13286 -0.15635
 C553 C 1.24387 0.31132 0.30028
 C554 C 1.22675 0.33381 0.32526
 C555 C 1.19630 0.33041 0.32592
 C556 C 1.18331 0.30444 0.30078
 C557 C 1.20035 0.28217 0.27595
 C558 C 1.23069 0.28586 0.27504
 C559 C 1.17825 0.35537 0.35139
 C560 C 1.15238 0.34396 0.36450
 C561 C 1.13075 0.36932 0.38418
 C562 C 1.10147 0.35880 0.38250
 C563 C 1.07975 0.38149 0.39973
 C564 C 1.08677 0.41516 0.41968
 C565 C 1.11618 0.42564 0.42195
 C566 C 1.13805 0.40299 0.40417
 H567 H 1.26734 0.31422 0.30024
 H568 H 1.23726 0.35379 0.34412
 H569 H 1.15986 0.30186 0.29942
 H570 H 1.18953 0.26237 0.25735
 H571 H 1.18604 0.38385 0.35806
 H572 H 1.14555 0.31488 0.35829
 H573 H 1.09525 0.33299 0.36739
 H574 H 1.05741 0.37221 0.39773
 H575 H 1.12225 0.45127 0.43740
 H576 H 1.16049 0.41157 0.40665
 C577 C 0.69454 -0.22773 0.26289
 C578 C 0.67357 -0.20676 0.28362
 C579 C 0.68178 -0.18028 0.31149
 C580 C 0.71174 -0.17511 0.31806
 C581 C 0.73277 -0.19631 0.29724
 C582 C 0.72428 -0.22310 0.26989
 C583 C 0.65816 -0.15991 0.33313
 C584 C 0.66158 -0.12846 0.35489
 C585 C 0.63672 -0.10892 0.37495
 C586 C 0.64191 -0.08744 0.40781
 C587 C 0.61877 -0.06949 0.42771
 C588 C 0.58993 -0.07255 0.41497
 C589 C 0.58492 -0.09304 0.38147
 C590 C 0.60797 -0.11073 0.36157
 H591 H 0.68727 -0.24760 0.24152
 H592 H 0.65074 -0.21127 0.27777
 H593 H 0.71914 -0.15548 0.33954
 H594 H 0.75569 -0.19215 0.30281
 H595 H 0.63663 -0.17178 0.33056
 H596 H 0.68301 -0.11675 0.35886
 H597 H 0.66388 -0.08508 0.41844
 H598 H 0.62343 -0.05369 0.45328
 H599 H 0.56309 -0.09535 0.37037
 H600 H 0.60308 -0.12536 0.33548
 C601 C 0.70454 0.29601 -0.25273
 C602 C 0.68465 0.32099 -0.23444
 C603 C 0.68534 0.32587 -0.19525
 C604 C 0.70635 0.30490 -0.17467
 C605 C 0.72624 0.27988 -0.19306
 C606 C 0.72554 0.27539 -0.23223
 C607 C 0.66249 0.35072 -0.17696
 C608 C 0.66430 0.36518 -0.14193
 C609 C 0.64000 0.38726 -0.12337
 C610 C 0.64604 0.41266 -0.09357
 C611 C 0.62340 0.43259 -0.07451
 C612 C 0.59418 0.42716 -0.08467
 C613 C 0.58822 0.40167 -0.11448
 C614 C 0.61076 0.38185 -0.13344
 H615 H 0.70332 0.29245 -0.28294
 H616 H 0.66847 0.33630 -0.25096
 H617 H 0.70702 0.30669 -0.14435
 H618 H 0.74173 0.26362 -0.17642
 H619 H 0.64351 0.35777 -0.19364
 H620 H 0.68430 0.36151 -0.12632
 H621 H 0.66834 0.41700 -0.08494
 H622 H 0.62877 0.45184 -0.05156
 H623 H 0.56600 0.39644 -0.12293
 H624 H 0.60500 0.36152 -0.15524
 C625 C 1.19294 0.23237 -0.22060
 C626 C 1.17331 0.21165 -0.19914
 C627 C 1.18319 0.18575 -0.17181
 C628 C 1.21347 0.18116 -0.16618
 C629 C 1.23323 0.20236 -0.18763
 C630 C 1.22303 0.22841 -0.21472
 C631 C 1.16082 0.16506 -0.15002
 C632 C 1.16538 0.13188 -0.13164
 C633 C 1.14113 0.11132 -0.11316
 C634 C 1.14679 0.08807 -0.08185
 C635 C 1.12403 0.06933 -0.06345
 C636 C 1.09516 0.07333 -0.07624
 C637 C 1.08975 0.09550 -0.10837
 C638 C 1.11241 0.11399 -0.12675
 H639 H 1.18425 0.25120 -0.24196
 H640 H 1.15018 0.21558 -0.20429
 H641 H 1.22196 0.16186 -0.14503
 H642 H 1.25642 0.19852 -0.18302
 H643 H 1.13899 0.17760 -0.15040
 H644 H 1.18712 0.11933 -0.12984
 H645 H 1.16877 0.08502 -0.07117
 H646 H 1.12898 0.05226 -0.03890
 H647 H 1.06791 0.09861 -0.11949
 H648 H 1.10729 0.13002 -0.15186
 C649 C 1.20370 0.69533 0.25878
 C650 C 1.18288 0.67306 0.27669
 C651 C 1.18140 0.67164 0.31600
 C652 C 1.20111 0.69343 0.33719
 C653 C 1.22193 0.71596 0.31920
 C654 C 1.22347 0.71687 0.27981
 C655 C 1.15788 0.64909 0.33349
 C656 C 1.15885 0.63529 0.36855
 C657 C 1.13447 0.61376 0.38546
 C658 C 1.14032 0.58725 0.41414
 C659 C 1.11765 0.56731 0.43128
 C660 C 1.08854 0.57389 0.42038
 C661 C 1.08274 0.60056 0.39173
 C662 C 1.10537 0.62033 0.37458
 H663 H 1.20418 0.69583 0.22834
 H664 H 1.16778 0.65694 0.25970
 H665 H 1.20000 0.69410 0.36755
 H666 H 1.23630 0.73304 0.33625
 H667 H 1.13944 0.64244 0.31594
 H668 H 1.17841 0.63848 0.38502
 H669 H 1.16252 0.58193 0.42328
 H670 H 1.12290 0.54718 0.45345
 H671 H 1.06060 0.60664 0.38282
 H672 H 1.09982 0.64147 0.35350
 C673 C 0.70163 0.24642 0.30918
 C674 C 0.68121 0.22750 0.33120
 C675 C 0.68142 0.18706 0.33293
 C676 C 0.70272 0.16584 0.31222
 C677 C 0.72317 0.18488 0.29014
 C678 C 0.72265 0.22525 0.28846
 C679 C 0.65781 0.16841 0.35428
 C680 C 0.65909 0.13183 0.36621
 C681 C 0.63432 0.11369 0.38574
 C682 C 0.63983 0.08351 0.41087
 C683 C 0.61682 0.06565 0.42942
 C684 C 0.58776 0.07736 0.42279
 C685 C 0.58227 0.10714 0.39711
 C686 C 0.60523 0.12502 0.37872
 H687 H 0.70068 0.27763 0.30778
 H688 H 0.66489 0.24453 0.34652
 H689 H 0.70308 0.13464 0.31179
 H690 H 0.73877 0.16793 0.27365
 H691 H 0.63873 0.18615 0.36109
 H692 H 0.67906 0.11490 0.36290
 H693 H 0.66202 0.07393 0.41638
 H694 H 0.62182 0.04257 0.44879
 H695 H 0.56017 0.11664 0.39101
 H696 H 0.60003 0.14716 0.35848
 C697 C 0.69371 0.73638 -0.22293
 C698 C 0.67390 0.71574 -0.20171
 C699 C 0.68354 0.69016 -0.17397
 C700 C 0.71376 0.68551 -0.16794
 C701 C 0.73370 0.70662 -0.18918
 C702 C 0.72374 0.73267 -0.21641
 C703 C 0.66097 0.67009 -0.15202
 C704 C 0.66520 0.63698 -0.13343
 C705 C 0.64075 0.61700 -0.11477
 C706 C 0.64630 0.59343 -0.08366
 C707 C 0.62341 0.57495 -0.06529
 C708 C 0.59454 0.57961 -0.07786
 C709 C 0.58920 0.60229 -0.10965
 C710 C 0.61198 0.62046 -0.12805
 H711 H 0.68519 0.75513 -0.24446
 H712 H 0.65082 0.71964 -0.20721
 H713 H 0.72204 0.66638 -0.14651
 H714 H 0.75685 0.70292 -0.18411
 H715 H 0.63930 0.68310 -0.15242
 H716 H 0.68682 0.62402 -0.13167
 H717 H 0.66830 0.58980 -0.07321
 H718 H 0.62830 0.55744 -0.04100
 H719 H 0.56734 0.60585 -0.12061
 H720 H 0.60690 0.63674 -0.15302
 C721 C 0.79044 -0.18008 -0.23442
 C722 C 0.81060 -0.15852 -0.21460
 C723 C 0.81272 -0.16158 -0.17546
 C724 C 0.79341 -0.18583 -0.15630
 C725 C 0.77315 -0.20750 -0.17631
 C726 C 0.77217 -0.20544 -0.21556
 C727 C 0.83687 -0.14152 -0.15661
 C728 C 0.83793 -0.13396 -0.11967
 C729 C 0.86330 -0.11512 -0.10241
 C730 C 0.85899 -0.09096 -0.07096
 C731 C 0.88255 -0.07236 -0.05456
 C732 C 0.91102 -0.07813 -0.06895
 C733 C 0.91539 -0.10317 -0.09984
 C734 C 0.89182 -0.12147 -0.11639
 H735 H 0.78996 -0.17811 -0.26477
 H736 H 0.82516 -0.14014 -0.23007
 H737 H 0.79464 -0.18948 -0.12623
 H738 H 0.75912 -0.22674 -0.16119
 H739 H 0.85446 -0.13185 -0.17445
 H740 H 0.81941 -0.13992 -0.10179
 H741 H 0.83729 -0.08601 -0.05942
 H742 H 0.87845 -0.05357 -0.03053
 H743 H 0.93703 -0.10851 -0.11141
 H744 H 0.89605 -0.14096 -0.13983
 C745 C 0.79080 0.30693 0.26234
 C746 C 0.81040 0.33023 0.28129
 C747 C 0.81033 0.33216 0.32070
 C748 C 0.78994 0.31045 0.34084
 C749 C 0.77030 0.28712 0.32178
 C750 C 0.77073 0.28516 0.28245
 C751 C 0.83343 0.35434 0.33938
 C752 C 0.83249 0.36586 0.37546
 C753 C 0.85738 0.38508 0.39346
 C754 C 0.85228 0.41124 0.42325
 C755 C 0.87558 0.42963 0.44059
 C756 C 0.90445 0.42170 0.42873
 C757 C 0.90948 0.39478 0.39950
 C758 C 0.88628 0.37661 0.38217
 H759 H 0.79169 0.30531 0.23195
 H760 H 0.82605 0.34627 0.26510
 H761 H 0.78976 0.31011 0.37121
 H762 H 0.75549 0.26983 0.33792
 H763 H 0.85206 0.36176 0.32222
 H764 H 0.81293 0.36219 0.39211
 H765 H 0.83022 0.41778 0.43280
 H766 H 0.87097 0.44998 0.46326
 H767 H 0.93141 0.38765 0.38985
 H768 H 0.89115 0.35547 0.36032
 C769 C 0.29125 -0.25085 0.30889
 C770 C 0.31190 -0.23229 0.33090
 C771 C 0.31411 -0.19198 0.33039
 C772 C 0.29523 -0.17055 0.30714
 C773 C 0.27465 -0.18915 0.28498
 C774 C 0.27236 -0.22948 0.28579
 C775 C 0.33763 -0.17372 0.35225
 C776 C 0.33683 -0.13661 0.36343
 C777 C 0.36119 -0.11825 0.38358
 C778 C 0.35524 -0.08614 0.40693
 C779 C 0.37782 -0.06740 0.42541
 C780 C 0.40696 -0.08007 0.42047
 C781 C 0.41292 -0.11204 0.39681
 C782 C 0.39035 -0.13090 0.37855
 H783 H 0.29039 -0.28206 0.30953
 H784 H 0.32643 -0.24954 0.34813
 H785 H 0.29696 -0.13959 0.30484
 H786 H 0.26127 -0.17177 0.26653
 H787 H 0.35595 -0.19205 0.36016
 H788 H 0.31734 -0.11916 0.35887
 H789 H 0.33302 -0.07556 0.41095
 H790 H 0.37244 -0.04272 0.44325
 H791 H 0.43511 -0.12247 0.39218
 H792 H 0.39593 -0.15474 0.35983
 C793 C 0.29090 0.31336 -0.23708
 C794 C 0.31132 0.33565 -0.21855
 C795 C 0.31364 0.33462 -0.17932
 C796 C 0.29445 0.31132 -0.15881
 C797 C 0.27393 0.28887 -0.17755
 C798 C 0.27254 0.28922 -0.21684
 C799 C 0.33768 0.35607 -0.16170
 C800 C 0.33868 0.36594 -0.12525
 C801 C 0.36372 0.38658 -0.10907
 C802 C 0.35908 0.41138 -0.07814
 C803 C 0.38230 0.43124 -0.06237
 C804 C 0.41079 0.42626 -0.07690
 C805 C 0.41549 0.40087 -0.10746
 C806 C 0.39226 0.38122 -0.12334
 H807 H 0.29011 0.31401 -0.26748
 H808 H 0.32579 0.35322 -0.23505
 H809 H 0.29588 0.30918 -0.12860
 H810 H 0.25987 0.27052 -0.16141
 H811 H 0.35508 0.36505 -0.18019
 H812 H 0.32026 0.36054 -0.10700
 H813 H 0.33738 0.41564 -0.06637
 H814 H 0.37793 0.45023 -0.03854
 H815 H 0.43717 0.39602 -0.11909
 H816 H 0.39685 0.36130 -0.14634
 C817 C 1.20696 -0.19666 0.24972
 C818 C 1.18730 -0.17278 0.23062
 C819 C 1.18617 -0.17355 0.19126
 C820 C 1.20516 -0.19893 0.17130
 C821 C 1.22480 -0.22297 0.19047
 C822 C 1.22602 -0.22183 0.22988
 C823 C 1.16332 -0.14994 0.17251
 C824 C 1.16446 -0.13949 0.13634
 C825 C 1.14016 -0.11813 0.11801
 C826 C 1.14607 -0.09414 0.08744
 C827 C 1.12337 -0.07442 0.06915
 C828 C 1.09425 -0.07882 0.08077
 C829 C 1.08840 -0.10318 0.11115
 C830 C 1.11103 -0.12265 0.12947
 H831 H 1.20692 -0.19579 0.28017
 H832 H 1.17262 -0.15398 0.24672
 H833 H 1.20417 -0.20148 0.14103
 H834 H 1.23815 -0.24319 0.17425
 H835 H 1.14498 -0.14018 0.18974
 H836 H 1.18392 -0.14570 0.11978
 H837 H 1.16830 -0.09054 0.07780
 H838 H 1.12863 -0.05607 0.04570
 H839 H 1.06625 -0.10750 0.12074
 H840 H 1.10549 -0.14193 0.15204
 C841 C 1.21020 0.31871 0.74351
 C842 C 1.19080 0.34142 0.72288
 C843 C 1.18825 0.33598 0.68396
 C844 C 1.20643 0.30814 0.66582
 C845 C 1.22588 0.28528 0.68666
 C846 C 1.22713 0.28965 0.72578
 C847 C 1.16467 0.35747 0.66441
 C848 C 1.16358 0.36262 0.62718
 C849 C 1.13835 0.38218 0.60918
 C850 C 1.14267 0.40367 0.57651
 C851 C 1.11912 0.42235 0.55910
 C852 C 1.09065 0.41928 0.57370
 C853 C 1.08631 0.39710 0.60601
 C854 C 1.10985 0.37874 0.62354
 H855 H 1.21106 0.32276 0.77370
 H856 H 1.17715 0.36264 0.73756
 H857 H 1.20488 0.30271 0.63595
 H858 H 1.23917 0.26361 0.67224
 H859 H 1.14743 0.37004 0.68189
 H860 H 1.18184 0.35367 0.60948
 H861 H 1.16437 0.40636 0.56469
 H862 H 1.12320 0.43897 0.53406
 H863 H 1.06468 0.39390 0.61786
 H864 H 1.10559 0.36134 0.64798
 C865 C 0.71051 -0.17662 0.74284
 C866 C 0.69050 -0.15483 0.72220
 C867 C 0.68775 -0.16082 0.68339
 C868 C 0.70640 -0.18817 0.66531
 C869 C 0.72646 -0.21010 0.68613
 C870 C 0.72789 -0.20529 0.72519
 C871 C 0.66359 -0.14042 0.66389
 C872 C 0.66234 -0.13542 0.62665
 C873 C 0.63690 -0.11638 0.60861
 C874 C 0.64112 -0.09483 0.57596
 C875 C 0.61749 -0.07644 0.55851
 C876 C 0.58901 -0.07986 0.57298
 C877 C 0.58473 -0.10220 0.60520
 C878 C 0.60840 -0.12023 0.62286
 H879 H 0.71141 -0.17232 0.77299
 H880 H 0.67650 -0.13397 0.73685
 H881 H 0.70473 -0.19402 0.63552
 H882 H 0.73997 -0.23159 0.67180
 H883 H 0.64616 -0.12837 0.68139
 H884 H 0.68074 -0.14384 0.60897
 H885 H 0.66282 -0.09184 0.56422
 H886 H 0.62152 -0.05976 0.53349
 H887 H 0.56308 -0.10564 0.61691
 H888 H 0.60425 -0.13766 0.64731
 C889 C 0.70344 0.25542 0.20185
 C890 C 0.68396 0.27386 0.17768
 C891 C 0.68348 0.31420 0.17455
 C892 C 0.70285 0.33583 0.19639
 C893 C 0.72235 0.31728 0.22062
 C894 C 0.72279 0.27698 0.22333
 C895 C 0.66106 0.33246 0.15045
 C896 C 0.66262 0.36839 0.13706
 C897 C 0.63863 0.38647 0.11537
 C898 C 0.64484 0.41548 0.08945
 C899 C 0.62237 0.43348 0.06923
 C900 C 0.59322 0.42304 0.07498
 C901 C 0.58707 0.39428 0.10129
 C902 C 0.60944 0.37636 0.12134
 H903 H 0.70325 0.22427 0.20399
 H904 H 0.66903 0.25656 0.16159
 H905 H 0.70244 0.36702 0.19582
 H906 H 0.73658 0.33457 0.23765
 H907 H 0.64268 0.31496 0.14291
 H908 H 0.68217 0.38484 0.14113
 H909 H 0.66713 0.42413 0.08474
 H910 H 0.62783 0.45576 0.04940
 H911 H 0.56487 0.38577 0.10680
 H912 H 0.60363 0.35523 0.14213
 C913 C 0.79338 0.19636 0.25054
 C914 C 0.81460 0.17410 0.23144
 C915 C 0.81570 0.17346 0.19200
 C916 C 0.79500 0.19554 0.17202
 C917 C 0.77381 0.21778 0.19117
 C918 C 0.77292 0.21838 0.23052
 C919 C 0.83993 0.15191 0.17295
 C920 C 0.83920 0.14035 0.13691
 C921 C 0.86432 0.12091 0.11775
 C922 C 0.85923 0.09614 0.08722
 C923 C 0.88251 0.07762 0.06832
 C924 C 0.91143 0.08395 0.07932
 C925 C 0.91652 0.10946 0.10937
 C926 C 0.89326 0.12779 0.12834
 H927 H 0.79331 0.19703 0.28097
 H928 H 0.83048 0.15776 0.24752
 H929 H 0.79570 0.19703 0.14170
 H930 H 0.75883 0.23539 0.17505
 H931 H 0.85886 0.14475 0.18969
 H932 H 0.81931 0.14390 0.12102
 H933 H 0.83716 0.09080 0.07820
 H934 H 0.87781 0.05835 0.04512
 H935 H 0.93851 0.11524 0.11841
 H936 H 0.89809 0.14780 0.15085
 C937 C 0.80500 0.72719 0.73982
 C938 C 0.82483 0.70297 0.72079
 C939 C 0.81575 0.67927 0.69122
 C940 C 0.78591 0.67918 0.68197
 C941 C 0.76588 0.70329 0.70151
 C942 C 0.77547 0.72827 0.72986
 C943 C 0.83833 0.65523 0.67159
 C944 C 0.83611 0.64181 0.63629
 C945 C 0.86079 0.62156 0.61670
 C946 C 0.85504 0.59439 0.58840
 C947 C 0.87795 0.57485 0.56959
 C948 C 0.90717 0.58248 0.57842
 C949 C 0.91287 0.61043 0.60608
 C950 C 0.89001 0.62984 0.62488
 H951 H 0.81305 0.74482 0.76252
 H952 H 0.84755 0.70317 0.72895
 H953 H 0.77790 0.66030 0.66018
 H954 H 0.74299 0.70259 0.69435
 H955 H 0.85846 0.65010 0.68663
 H956 H 0.81597 0.64583 0.62104
 H957 H 0.83276 0.58792 0.58117
 H958 H 0.87273 0.55374 0.54819
 H959 H 0.93506 0.61744 0.61327
 H960 H 0.89540 0.65178 0.64533
 C961 C 0.30297 0.21936 0.73916
 C962 C 0.32193 0.19434 0.71967
 C963 C 0.31187 0.17113 0.69026
 C964 C 0.28190 0.17230 0.68170
 C965 C 0.26273 0.19719 0.70176
 C966 C 0.27335 0.22173 0.72984
 C967 C 0.33372 0.14664 0.66984
 C968 C 0.33082 0.13343 0.63455
 C969 C 0.35558 0.11437 0.61406
 C970 C 0.35033 0.08600 0.58669
 C971 C 0.37363 0.06766 0.56740
 C972 C 0.40261 0.07778 0.57488
 C973 C 0.40766 0.10701 0.60151
 C974 C 0.38451 0.12518 0.62068
 H975 H 0.31175 0.23665 0.76163
 H976 H 0.34478 0.19361 0.72727
 H977 H 0.27317 0.15392 0.66001
 H978 H 0.23973 0.19754 0.69510
 H979 H 0.35419 0.14137 0.68408
 H980 H 0.31038 0.13720 0.61992
 H981 H 0.32822 0.07761 0.58065
 H982 H 0.36895 0.04542 0.54688
 H983 H 0.42960 0.11603 0.60763
 H984 H 0.38939 0.14814 0.64031
 C985 C 0.27344 0.67636 0.23201
 C986 C 0.29357 0.65371 0.21149
 C987 C 0.31177 0.67050 0.18473
 C988 C 0.30989 0.71056 0.17917
 C989 C 0.29026 0.73341 0.20042
 C990 C 0.27149 0.71644 0.22657
 C991 C 0.33414 0.64618 0.16538
 C992 C 0.34184 0.65123 0.12946
 C993 C 0.36535 0.62769 0.11140
 C994 C 0.36263 0.61562 0.07388
 C995 C 0.38504 0.59391 0.05630
 C996 C 0.41086 0.58507 0.07571
 C997 C 0.41367 0.59759 0.11310
 C998 C 0.39105 0.61841 0.13089
 H999 H 0.26020 0.66237 0.25291
 H1000 H 0.29510 0.62299 0.21671
 H1001 H 0.32436 0.72438 0.15951
 H1002 H 0.28998 0.76439 0.19663
 H1003 H 0.34388 0.62254 0.18096
 H1004 H 0.33008 0.67215 0.11257
 H1005 H 0.34309 0.62278 0.05829
 H1006 H 0.38252 0.58490 0.02730
 H1007 H 0.43339 0.59118 0.12864
 H1008 H 0.39395 0.62807 0.15962
   
