data_POSCAR
  _audit_creation_date              2014-09-24
  _audit_creation_method            'ToBaCCo'
  _symmetry_space_group_name_H-M    'P1'
  _symmetry_Int_Tables_number       1
  _symmetry_cell_setting            triclinic
  loop_
  _symmetry_equiv_pos_as_xyz
 x,y,z
_cell_length_a 48.4678
_cell_length_b 48.7532
_cell_length_c 31.0611
_cell_angle_alpha 89.967100
_cell_angle_beta 90.110200
_cell_angle_gamma 120.092300
loop_
  _atom_site_label
  _atom_site_type_symbol
  _atom_site_fract_x
  _atom_site_fract_y
  _atom_site_fract_z
C1 C 0.45473 0.91525 0.49711
 C2 C 0.45936 0.93139 0.53650
 C3 C 0.47565 0.96488 0.53557
 C4 C 0.48903 0.98204 0.49729
 C5 C 0.48489 0.96489 0.45901
 C6 C 0.46686 0.93171 0.45840
 C7 C 0.50693 1.01768 0.49718
 C8 C 0.50935 1.03475 0.45934
 C9 C 0.52715 1.06820 0.45796
 C10 C 0.54038 1.08451 0.49688
 C11 C 0.53735 1.06813 0.53533
 C12 C 0.52163 1.03492 0.53486
 H13 H 0.44314 0.88967 0.49618
 H14 H 0.47662 0.97762 0.56446
 H15 H 0.49521 0.97713 0.42918
 H16 H 0.49609 1.02198 0.43115
 H17 H 0.55393 1.11010 0.49763
 H18 H 0.52135 1.02279 0.56415
 C19 C 0.08587 0.54595 0.50087
 C20 C 0.07028 0.53384 0.54048
 C21 C 0.03660 0.51580 0.54020
 C22 C 0.01873 0.51203 0.50248
 C23 C 0.03533 0.52561 0.46400
 C24 C 0.06872 0.54163 0.46266
 C25 C -0.01710 0.49417 0.50334
 C26 C -0.03493 0.47912 0.46602
 C27 C -0.06864 0.46275 0.46589
 C28 C -0.08429 0.45971 0.50538
 C29 C -0.06710 0.47371 0.54319
 C30 C -0.03377 0.49178 0.54151
 H31 H 0.11157 0.55736 0.49894
 H32 H 0.02407 0.50555 0.56977
 H33 H 0.02251 0.52420 0.43478
 H34 H -0.02248 0.47888 0.43736
 H35 H -0.11001 0.44719 0.50709
 H36 H -0.02112 0.50415 0.57031
 C37 C 0.45799 0.54189 0.50065
 C38 C 0.46027 0.52807 0.53950
 C39 C 0.47563 0.50993 0.53832
 C40 C 0.49033 0.50734 0.50063
 C41 C 0.48863 0.52262 0.46312
 C42 C 0.47168 0.53893 0.46246
 C43 C 0.50708 0.48849 0.50025
 C44 C 0.50981 0.47463 0.46182
 C45 C 0.52626 0.45777 0.46076
 C46 C 0.53856 0.45309 0.49918
 C47 C 0.53526 0.46563 0.53818
 C48 C 0.52039 0.48405 0.53823
 H49 H 0.44631 0.55581 0.49977
 H50 H 0.47480 0.49647 0.56638
 H51 H 0.50070 0.52224 0.43408
 H52 H 0.49877 0.47638 0.43246
 H53 H 0.55147 0.44028 0.49864
 H54 H 0.51903 0.49457 0.56818
 O55 O 0.37949 0.66629 -0.05260
 O56 O 0.38185 0.72049 -0.04212
 C57 C 0.36098 0.72375 -0.06277
 O58 O 0.33181 0.70932 -0.05242
 O59 O 0.27892 0.65776 -0.03398
 C60 C 0.27431 0.63296 -0.05393
 O61 O 0.28903 0.61837 -0.04461
 O62 O 0.34196 0.61783 -0.03281
 C63 C 0.36434 0.63650 -0.05781
 O64 O 0.38516 0.66129 0.03336
 O65 O 0.38422 0.71380 0.04385
 C66 C 0.36935 0.72834 0.05251
 O67 O 0.34438 0.72340 0.03224
 O68 O 0.29265 0.67072 0.05074
 C69 C 0.27825 0.64176 0.06138
 O70 O 0.28175 0.62103 0.04115
 O71 O 0.33639 0.62385 0.05285
 C72 C 0.36633 0.63910 0.05842
 Cr73 Cr 0.38098 0.68961 -0.00425
 Cr74 Cr 0.31280 0.68945 -0.00083
 Cr75 Cr 0.31313 0.62196 0.00400
 O76 O 0.33561 0.66704 -0.00036
 O77 O 0.62026 0.34074 -0.03803
 O78 O 0.62317 0.28987 -0.05457
 C79 C 0.63848 0.27563 -0.06203
 O80 O 0.66115 0.27871 -0.03805
 O81 O 0.71346 0.33320 -0.04677
 C82 C 0.72795 0.36296 -0.05256
 O83 O 0.72330 0.38162 -0.02897
 O84 O 0.67014 0.38062 -0.04551
 C85 C 0.64109 0.36585 -0.05679
 O86 O 0.61748 0.32753 0.04690
 O87 O 0.61770 0.27532 0.03033
 C88 C 0.63680 0.27120 0.05402
 O89 O 0.66674 0.28614 0.04825
 O90 O 0.72094 0.33878 0.03950
 C91 C 0.72358 0.36111 0.06346
 O92 O 0.70874 0.37584 0.05596
 O93 O 0.65688 0.37748 0.03947
 C94 C 0.63183 0.35639 0.05821
 Cr95 Cr 0.62134 0.30921 -0.00370
 Cr96 Cr 0.68972 0.31002 0.00073
 Cr97 Cr 0.68894 0.37722 0.00509
 O98 O 0.66664 0.33218 0.00070
 C99 C 0.41389 0.86545 -0.38470
 C100 C 0.43011 0.87919 -0.34643
 C101 C 0.45493 0.91067 -0.34635
 C102 C 0.46402 0.92817 -0.38458
 C103 C 0.44857 0.91441 -0.42403
 C104 C 0.42290 0.88277 -0.42301
 C105 C 0.42188 0.86055 -0.30767
 C106 C 0.41495 0.84439 -0.27573
 C107 C 0.40665 0.82491 -0.23887
 C108 C 0.39926 0.80786 -0.20779
 C109 C 0.38991 0.78708 -0.17109
 C110 C 0.41255 0.78299 -0.14834
 C111 C 0.40323 0.76241 -0.11305
 C112 C 0.37109 0.74563 -0.10010
 C113 C 0.34855 0.74997 -0.12325
 C114 C 0.35793 0.77054 -0.15845
 H115 H 0.39435 0.84116 -0.38503
 H116 H 0.46778 0.92151 -0.31686
 H117 H 0.48442 0.95188 -0.38314
 H118 H 0.40899 0.87126 -0.45146
 H119 H 0.43737 0.79563 -0.15793
 H120 H 0.42118 0.75961 -0.09601
 H121 H 0.32362 0.73745 -0.11424
 H122 H 0.34019 0.77347 -0.17590
 C123 C 0.09293 0.52728 -0.34568
 C124 C 0.12248 0.55503 -0.34207
 C125 C 0.13514 0.57521 -0.37744
 C126 C 0.11825 0.56798 -0.41618
 C127 C 0.08802 0.54025 -0.42053
 C128 C 0.07585 0.51990 -0.38438
 C129 C 0.13981 0.56318 -0.30204
 C130 C 0.15481 0.57067 -0.26891
 C131 C 0.17298 0.58003 -0.23063
 C132 C 0.18907 0.58840 -0.19844
 C133 C 0.20901 0.59867 -0.16068
 C134 C 0.21437 0.62588 -0.13844
 C135 C 0.23513 0.63677 -0.10313
 C136 C 0.25086 0.62057 -0.08969
 C137 C 0.24487 0.59293 -0.11192
 C138 C 0.22411 0.58211 -0.14715
 H139 H 0.08305 0.51127 -0.31856
 H140 H 0.15795 0.59691 -0.37491
 H141 H 0.12849 0.58524 -0.44179
 H142 H 0.05363 0.49764 -0.38586
 H143 H 0.20286 0.63894 -0.14876
 H144 H 0.23924 0.65814 -0.08685
 H145 H 0.25656 0.57987 -0.10253
 H146 H 0.22021 0.56108 -0.16421
 C147 C 0.41265 0.54653 -0.38250
 C148 C 0.42683 0.54631 -0.34342
 C149 C 0.45094 0.53859 -0.34275
 C150 C 0.46139 0.53178 -0.38107
 C151 C 0.44802 0.53276 -0.42125
 C152 C 0.42301 0.53980 -0.42094
 C153 C 0.41765 0.55548 -0.30434
 C154 C 0.41045 0.56399 -0.27195
 C155 C 0.40249 0.57484 -0.23446
 C156 C 0.39602 0.58481 -0.20284
 C157 C 0.38861 0.59748 -0.16563
 C158 C 0.40573 0.63012 -0.15766
 C159 C 0.39811 0.64277 -0.12232
 C160 C 0.37318 0.62290 -0.09435
 C161 C 0.35628 0.59004 -0.10242
 C162 C 0.36396 0.57745 -0.13785
 H163 H 0.39371 0.55220 -0.38335
 H164 H 0.46229 0.53860 -0.31265
 H165 H 0.48125 0.52761 -0.37892
 H166 H 0.41063 0.53946 -0.45010
 H167 H 0.42483 0.64585 -0.17900
 H168 H 0.41159 0.66815 -0.11715
 H169 H 0.33691 0.57408 -0.08164
 H170 H 0.35051 0.55215 -0.14376
 C171 C 0.54182 0.09324 -0.34816
 C172 C 0.57107 0.12162 -0.34732
 C173 C 0.59011 0.13178 -0.38427
 C174 C 0.57964 0.11398 -0.42220
 C175 C 0.54990 0.08581 -0.42366
 C176 C 0.53131 0.07541 -0.38604
 C177 C 0.58082 0.14100 -0.30916
 C178 C 0.58854 0.15747 -0.27745
 C179 C 0.59718 0.17700 -0.24058
 C180 C 0.60433 0.19384 -0.20929
 C181 C 0.61271 0.21412 -0.17212
 C182 C 0.63768 0.21822 -0.14520
 C183 C 0.64599 0.23812 -0.10929
 C184 C 0.62940 0.25422 -0.09981
 C185 C 0.60428 0.24987 -0.12708
 C186 C 0.59602 0.22995 -0.16296
 H187 H 0.52683 0.08522 -0.31980
 H188 H 0.61282 0.15369 -0.38395
 H189 H 0.59468 0.12236 -0.45047
 H190 H 0.50816 0.05402 -0.38629
 H191 H 0.65078 0.20610 -0.15201
 H192 H 0.66548 0.24096 -0.08907
 H193 H 0.59104 0.26191 -0.12080
 H194 H 0.57667 0.22696 -0.18362
 C195 C 0.87055 0.46209 -0.37363
 C196 C 0.88209 0.45420 -0.33712
 C197 C 0.91089 0.45414 -0.33925
 C198 C 0.92778 0.46130 -0.37792
 C199 C 0.91604 0.46856 -0.41509
 C200 C 0.88742 0.46927 -0.41239
 C201 C 0.86367 0.44464 -0.29807
 C202 C 0.84796 0.43584 -0.26565
 C203 C 0.82920 0.42472 -0.22808
 C204 C 0.81281 0.41463 -0.19639
 C205 C 0.79272 0.40199 -0.15910
 C206 C 0.77762 0.36948 -0.15041
 C207 C 0.75702 0.35683 -0.11528
 C208 C 0.75121 0.37659 -0.08831
 C209 C 0.76690 0.40935 -0.09699
 C210 C 0.78749 0.42192 -0.13217
 H211 H 0.84828 0.46222 -0.37233
 H212 H 0.91995 0.44791 -0.31124
 H213 H 0.94953 0.46018 -0.37912
 H214 H 0.87800 0.47517 -0.44029
 H215 H 0.78147 0.35382 -0.17110
 H216 H 0.74532 0.33153 -0.10963
 H217 H 0.76292 0.42523 -0.07700
 H218 H 0.79901 0.44712 -0.13866
 C219 C 0.55156 0.42113 -0.37465
 C220 C 0.56729 0.44475 -0.34359
 C221 C 0.57284 0.47543 -0.35117
 C222 C 0.56261 0.48242 -0.38968
 C223 C 0.54673 0.45877 -0.42107
 C224 C 0.54134 0.42805 -0.41308
 C225 C 0.57755 0.43719 -0.30406
 C226 C 0.58581 0.42999 -0.27139
 C227 C 0.59519 0.42067 -0.23364
 C228 C 0.60304 0.41209 -0.20185
 C229 C 0.61234 0.40124 -0.16441
 C230 C 0.64407 0.41730 -0.15045
 C231 C 0.65337 0.40603 -0.11513
 C232 C 0.63100 0.37845 -0.09328
 C233 C 0.59907 0.36266 -0.10734
 C234 C 0.58984 0.37399 -0.14268
 H235 H 0.54705 0.39729 -0.36907
 H236 H 0.58508 0.49391 -0.32736
 H237 H 0.56739 0.50635 -0.39509
 H238 H 0.52877 0.40922 -0.43631
 H239 H 0.66170 0.43837 -0.16712
 H240 H 0.67814 0.41876 -0.10524
 H241 H 0.58125 0.34136 -0.09135
 H242 H 0.56522 0.36132 -0.15331
 C243 C 0.86411 0.41421 0.38940
 C244 C 0.87746 0.42885 0.35021
 C245 C 0.90906 0.45357 0.34886
 C246 C 0.92710 0.46416 0.38668
 C247 C 0.91377 0.45034 0.42702
 C248 C 0.88198 0.42471 0.42735
 C249 C 0.85829 0.41936 0.31171
 C250 C 0.84194 0.41177 0.27975
 C251 C 0.82250 0.40319 0.24264
 C252 C 0.80570 0.39602 0.21117
 C253 C 0.78542 0.38752 0.17381
 C254 C 0.76899 0.40363 0.16458
 C255 C 0.74898 0.39518 0.12859
 C256 C 0.74514 0.37046 0.10129
 C257 C 0.76187 0.35448 0.11083
 C258 C 0.78185 0.36298 0.14684
 H259 H 0.83971 0.39478 0.39074
 H260 H 0.91959 0.46524 0.31866
 H261 H 0.95086 0.48445 0.38411
 H262 H 0.87076 0.41198 0.45658
 H263 H 0.77155 0.42265 0.18528
 H264 H 0.73645 0.40795 0.12227
 H265 H 0.75944 0.33531 0.09059
 H266 H 0.79443 0.35033 0.15371
 C267 C 0.53936 0.08745 0.34011
 C268 C 0.54680 0.11906 0.34004
 C269 C 0.54622 0.13349 0.37858
 C270 C 0.53899 0.11666 0.41729
 C271 C 0.53222 0.08484 0.41838
 C272 C 0.53205 0.07046 0.37868
 C273 C 0.55641 0.13712 0.30074
 C274 C 0.56521 0.15254 0.26812
 C275 C 0.57625 0.17099 0.23033
 C276 C 0.58621 0.18714 0.19846
 C277 C 0.59862 0.20697 0.16096
 C278 C 0.57821 0.21150 0.13376
 C279 C 0.59052 0.23189 0.09842
 C280 C 0.62349 0.24808 0.08986
 C281 C 0.64373 0.24296 0.11707
 C282 C 0.63135 0.22255 0.15236
 H283 H 0.53998 0.07610 0.31043
 H284 H 0.55166 0.15793 0.37882
 H285 H 0.53805 0.12869 0.44599
 H286 H 0.52817 0.04661 0.37717
 H287 H 0.55284 0.19960 0.14017
 H288 H 0.57426 0.23533 0.07825
 H289 H 0.66921 0.25506 0.11151
 H290 H 0.64737 0.21925 0.17327
 C291 C 0.53656 0.40602 0.37848
 C292 C 0.54583 0.42555 0.34206
 C293 C 0.54737 0.45496 0.34393
 C294 C 0.54025 0.46509 0.38227
 C295 C 0.53156 0.44593 0.41932
 C296 C 0.52944 0.41611 0.41687
 C297 C 0.55507 0.41603 0.30338
 C298 C 0.56347 0.40837 0.27129
 C299 C 0.57394 0.39965 0.23411
 C300 C 0.58332 0.39230 0.20269
 C301 C 0.59490 0.38352 0.16559
 C302 C 0.62220 0.40630 0.14410
 C303 C 0.63407 0.39760 0.10888
 C304 C 0.61876 0.36591 0.09469
 C305 C 0.59116 0.34323 0.11635
 C306 C 0.57936 0.35201 0.15154
 H307 H 0.53527 0.38319 0.37737
 H308 H 0.55466 0.47032 0.31600
 H309 H 0.54250 0.48833 0.38328
 H310 H 0.52245 0.40067 0.44469
 H311 H 0.63446 0.43076 0.15478
 H312 H 0.65537 0.41564 0.09303
 H313 H 0.57880 0.31863 0.10637
 H314 H 0.55826 0.33416 0.16801
 C315 C 0.09237 0.54276 0.34602
 C316 C 0.12100 0.57172 0.34396
 C317 C 0.13172 0.59160 0.38003
 C318 C 0.11428 0.58227 0.41833
 C319 C 0.08587 0.55285 0.42105
 C320 C 0.07487 0.53338 0.38428
 C321 C 0.14009 0.58045 0.30551
 C322 C 0.15654 0.58770 0.27376
 C323 C 0.17627 0.59623 0.23706
 C324 C 0.19348 0.60372 0.20607
 C325 C 0.21441 0.61304 0.16943
 C326 C 0.23081 0.64478 0.15644
 C327 C 0.25152 0.65409 0.12130
 C328 C 0.25615 0.63173 0.09856
 C329 C 0.23950 0.59983 0.11185
 C330 C 0.21878 0.59058 0.14707
 H331 H 0.08391 0.52713 0.31834
 H332 H 0.15383 0.61409 0.37877
 H333 H 0.12314 0.59792 0.44593
 H334 H 0.05330 0.51045 0.38554
 H335 H 0.22766 0.66237 0.17358
 H336 H 0.26394 0.67883 0.11203
 H337 H 0.24251 0.58202 0.09514
 H338 H 0.20624 0.56595 0.15692
 C339 C 0.47646 0.90622 0.34636
 C340 C 0.44563 0.88101 0.33849
 C341 C 0.42200 0.87224 0.36985
 C342 C 0.42907 0.88861 0.40887
 C343 C 0.45993 0.91404 0.41714
 C344 C 0.48360 0.92268 0.38546
 C345 C 0.43799 0.86390 0.29844
 C346 C 0.43083 0.84894 0.26537
 C347 C 0.42173 0.83070 0.22729
 C348 C 0.41353 0.81448 0.19533
 C349 C 0.40339 0.79433 0.15794
 C350 C 0.37598 0.78860 0.13535
 C351 C 0.36517 0.76759 0.10048
 C352 C 0.38164 0.75198 0.08784
 C353 C 0.40946 0.75833 0.11041
 C354 C 0.42021 0.77934 0.14519
 H355 H 0.49496 0.91312 0.32234
 H356 H 0.39805 0.85280 0.36407
 H357 H 0.41023 0.88171 0.43236
 H358 H 0.50764 0.94194 0.39106
 H359 H 0.36271 0.80001 0.14507
 H360 H 0.34365 0.76321 0.08392
 H361 H 0.42273 0.74674 0.10162
 H362 H 0.44139 0.78352 0.16254
 C363 C 0.46327 0.59301 0.38187
 C364 C 0.45491 0.57448 0.34450
 C365 C 0.45342 0.54508 0.34526
 C366 C 0.45965 0.53392 0.38339
 C367 C 0.46740 0.55203 0.42139
 C368 C 0.46953 0.58189 0.42010
 C369 C 0.44626 0.58479 0.30593
 C370 C 0.43810 0.59270 0.27378
 C371 C 0.42756 0.60123 0.23640
 C372 C 0.41777 0.60797 0.20476
 C373 C 0.40517 0.61546 0.16742
 C374 C 0.37239 0.59836 0.15911
 C375 C 0.35980 0.60582 0.12343
 C376 C 0.37988 0.63056 0.09545
 C377 C 0.41289 0.64749 0.10391
 C378 C 0.42542 0.63997 0.13968
 H379 H 0.46449 0.61581 0.38164
 H380 H 0.44679 0.53046 0.31659
 H381 H 0.45743 0.51069 0.38349
 H382 H 0.47585 0.59656 0.44866
 H383 H 0.35649 0.57936 0.18039
 H384 H 0.33430 0.59233 0.11797
 H385 H 0.42901 0.66671 0.08313
 H386 H 0.45084 0.65338 0.14584
   
