data_POSCAR
  _audit_creation_date              2014-09-24
  _audit_creation_method            'ToBaCCo'
  _symmetry_space_group_name_H-M    'P1'
  _symmetry_Int_Tables_number       1
  _symmetry_cell_setting            triclinic
  loop_
  _symmetry_equiv_pos_as_xyz
 x,y,z
_cell_length_a 35.9258
_cell_length_b 35.4093
_cell_length_c 29.1504
_cell_angle_alpha 89.730300
_cell_angle_beta 90.657700
_cell_angle_gamma 86.101800
loop_
  _atom_site_label
  _atom_site_type_symbol
  _atom_site_fract_x
  _atom_site_fract_y
  _atom_site_fract_z
O1 O 0.02609 0.30538 -0.04413
 O2 O -0.05419 0.30634 0.03352
 O3 O 0.01893 0.31200 0.04345
 O4 O -0.04463 0.29758 -0.05489
 O5 O -0.03920 0.23608 -0.04069
 O6 O 0.02887 0.25008 0.05109
 O7 O -0.04194 0.24553 0.04777
 O8 O 0.03284 0.24316 -0.03725
 Cu9 Cu -0.01460 0.31165 -0.00614
 Cu10 Cu -0.00407 0.23748 0.00590
 C11 C 0.04291 0.27392 -0.05427
 C12 C -0.06140 0.27623 0.05459
 C13 C 0.03544 0.28332 0.06322
 C14 C -0.05304 0.26412 -0.06389
 O15 O 0.46594 0.80463 0.55056
 O16 O 0.53980 0.80636 0.46337
 O17 O 0.46735 0.80516 0.46127
 O18 O 0.53884 0.80751 0.55227
 O19 O 0.54438 0.74505 0.55323
 O20 O 0.47328 0.74268 0.46183
 O21 O 0.54470 0.74381 0.46322
 O22 O 0.47207 0.74207 0.55057
 Cu23 Cu 0.50241 0.81222 0.50701
 Cu24 Cu 0.50936 0.73712 0.50759
 C25 C 0.45627 0.77283 0.56485
 C26 C 0.55429 0.77528 0.44796
 C27 C 0.45831 0.77355 0.44577
 C28 C 0.55397 0.77667 0.56809
 O29 O 1.04542 0.69379 0.05218
 O30 O 0.97686 0.69018 -0.04179
 O31 O 1.04923 0.69160 -0.03510
 O32 O 0.97220 0.69201 0.04777
 O33 O 0.96533 0.75432 0.04299
 O34 O 1.04530 0.75405 -0.03448
 O35 O 0.97398 0.75260 -0.04662
 O36 O 1.03653 0.75604 0.05401
 Cu37 Cu 1.01108 0.68556 0.00615
 Cu38 Cu 1.00450 0.76051 0.00365
 C39 C 1.05276 0.72544 0.06922
 C40 C 0.96472 0.72080 -0.06119
 C41 C 1.06105 0.72291 -0.04807
 C42 C 0.95572 0.72330 0.05962
 O43 O 0.53034 0.19894 0.54331
 O44 O 0.46003 0.19692 0.44998
 O45 O 0.53256 0.19643 0.45423
 O46 O 0.45786 0.19658 0.53934
 O47 O 0.45382 0.25910 0.53903
 O48 O 0.52720 0.25889 0.45175
 O49 O 0.45569 0.25945 0.44817
 O50 O 0.52578 0.26139 0.54099
 Cu51 Cu 0.49559 0.19097 0.49695
 Cu52 Cu 0.48992 0.26599 0.49494
 C53 C 0.54014 0.23061 0.55797
 C54 C 0.44654 0.22794 0.43259
 C55 C 0.54233 0.22755 0.43804
 C56 C 0.44361 0.22781 0.55434
 O57 O 0.67860 -0.03512 0.04115
 O58 O 0.68282 0.03355 -0.05454
 O59 O 0.68240 -0.03889 -0.04715
 O60 O 0.67430 0.03975 0.03500
 O61 O 0.73525 0.03485 0.04764
 O62 O 0.74370 -0.03954 -0.03974
 O63 O 0.74214 0.03871 -0.03713
 O64 O 0.73963 -0.03458 0.05099
 Cu65 Cu 0.67325 0.00028 -0.00700
 Cu66 Cu 0.74647 -0.00139 0.00384
 C67 C 0.70857 -0.04672 0.06210
 C68 C 0.71317 0.04929 -0.06041
 C69 C 0.71469 -0.05277 -0.05694
 C70 C 0.70309 0.05019 0.05589
 O71 O 0.17077 0.46971 0.55013
 O72 O 0.18080 0.54407 0.46338
 O73 O 0.17487 0.47078 0.46078
 O74 O 0.17793 0.54266 0.55168
 O75 O 0.23935 0.53307 0.55560
 O76 O 0.23572 0.45842 0.46908
 O77 O 0.24195 0.53252 0.46614
 O78 O 0.23216 0.46225 0.55749
 Cu79 Cu 0.16990 0.50770 0.50579
 Cu80 Cu 0.24358 0.49561 0.51180
 C81 C 0.19980 0.45412 0.56940
 C82 C 0.21315 0.55126 0.45036
 C83 C 0.20476 0.45163 0.45058
 C84 C 0.20921 0.54995 0.56911
 O85 O 0.32166 0.95884 -0.04005
 O86 O 0.31624 1.03731 0.04356
 O87 O 0.31856 0.96254 0.04852
 O88 O 0.31948 1.03301 -0.04450
 O89 O 0.25826 1.03275 -0.05052
 O90 O 0.25693 0.96643 0.04658
 O91 O 0.25477 1.04002 0.03826
 O92 O 0.26016 0.96090 -0.04252
 Cu93 Cu 0.32521 0.99764 0.00254
 Cu94 Cu 0.25136 1.00024 -0.00210
 C95 C 0.29159 0.94658 -0.05570
 C96 C 0.28449 1.05263 0.05420
 C97 C 0.28763 0.95241 0.06324
 C98 C 0.28893 1.04462 -0.06384
 O99 O 0.81920 0.45070 0.45615
 O100 O 0.82496 0.52796 0.54036
 O101 O 0.81736 0.45499 0.54541
 O102 O 0.82547 0.52436 0.45182
 O103 O 0.76401 0.53345 0.44864
 O104 O 0.75607 0.46530 0.54298
 O105 O 0.76356 0.53728 0.53776
 O106 O 0.75793 0.46108 0.45430
 Cu107 Cu 0.82797 0.48839 0.49857
 Cu108 Cu 0.75428 0.50030 0.49558
 C109 C 0.78736 0.44257 0.44122
 C110 C 0.79506 0.54580 0.55325
 C111 C 0.78527 0.44838 0.56024
 C112 C 0.79602 0.54084 0.43463
 C113 C 0.29008 0.33220 0.33987
 C114 C 0.31997 0.30641 0.33521
 C115 C 0.30830 0.27798 0.30694
 N116 N 0.27205 0.28536 0.29490
 C117 C 0.26080 0.31842 0.31515
 C118 C 0.32945 0.24390 0.29694
 C119 C 0.31755 0.21727 0.26479
 C120 C 0.33226 0.18016 0.26107
 C121 C 0.31428 0.16444 0.22469
 C122 C 0.28953 0.19251 0.20655
 N123 N 0.29183 0.22467 0.23109
 C124 C 0.26700 0.18857 0.16692
 C125 C 0.23750 0.21525 0.15465
 C126 C 0.21899 0.21686 0.11262
 C127 C 0.18981 0.24373 0.11657
 C128 C 0.19160 0.25764 0.16084
 N129 N 0.22080 0.24030 0.18398
 C130 C 0.16421 0.28247 0.18100
 C131 C 0.16945 0.29984 0.22384
 C132 C 0.14118 0.31711 0.24989
 C133 C 0.15793 0.33153 0.28805
 C134 C 0.19604 0.32302 0.28400
 N135 N 0.20280 0.30383 0.24461
 C136 C 0.22357 0.33429 0.31525
 H137 H 0.28980 0.35780 0.36003
 H138 H 0.34684 0.30826 0.35177
 H139 H 0.22885 0.29711 0.23043
 H140 H 0.35380 0.16571 0.28211
 H141 H 0.31920 0.13564 0.21285
 H142 H 0.22537 0.19987 0.08259
 H143 H 0.16902 0.25137 0.09038
 H144 H 0.14354 0.34650 0.31561
 H145 H 0.27947 0.25121 0.22249
 H146 H 0.11154 0.31900 0.24229
 C147 C 0.79942 0.77828 0.12370
 C148 C 0.77014 0.80516 0.12521
 C149 C 0.75333 0.80110 0.16736
 N150 N 0.77147 0.77277 0.19167
 C151 C 0.79971 0.75881 0.16509
 C152 C 0.72361 0.82531 0.18385
 C153 C 0.70353 0.81831 0.22416
 C154 C 0.67762 0.84401 0.24369
 C155 C 0.66348 0.82640 0.28111
 C156 C 0.68148 0.79049 0.28403
 N157 N 0.70540 0.78564 0.24864
 C158 C 0.67424 0.76293 0.31769
 C159 C 0.69710 0.72922 0.32545
 C160 C 0.69049 0.70219 0.35844
 C161 C 0.71950 0.67510 0.35651
 C162 C 0.74304 0.68629 0.32241
 N163 N 0.72956 0.71964 0.30395
 C164 C 0.77734 0.66672 0.31109
 C165 C 0.80189 0.67894 0.27734
 C166 C 0.83905 0.66599 0.27399
 C167 C 0.85335 0.68438 0.23726
 C168 C 0.82441 0.70768 0.21851
 N169 N 0.79303 0.70394 0.24302
 C170 C 0.82750 0.73075 0.17902
 H171 H 0.81853 0.77385 0.09550
 H172 H 0.76229 0.82559 0.09848
 H173 H 0.76635 0.71490 0.23435
 H174 H 0.66943 0.87246 0.23203
 H175 H 0.64226 0.83894 0.30340
 H176 H 0.66762 0.70225 0.38227
 H177 H 0.72317 0.65035 0.37847
 H178 H 0.88194 0.68096 0.22591
 H179 H 0.71945 0.76042 0.23915
 H180 H 0.85452 0.64577 0.29613
 C181 C 0.72419 0.29092 0.37652
 C182 C 0.69508 0.26790 0.37437
 C183 C 0.69219 0.25676 0.32908
 N184 N 0.71847 0.27212 0.30352
 C185 C 0.73808 0.29306 0.33241
 C186 C 0.66394 0.23511 0.31136
 C187 C 0.66563 0.21795 0.26776
 C188 C 0.63692 0.19943 0.24755
 C189 C 0.65082 0.18350 0.20782
 C190 C 0.68744 0.19328 0.20449
 N191 N 0.69628 0.21401 0.24129
 C192 C 0.71253 0.18050 0.17015
 C193 C 0.74588 0.19782 0.16018
 C194 C 0.76988 0.18668 0.12520
 C195 C 0.79775 0.21123 0.12553
 C196 C 0.79042 0.23625 0.16136
 N197 N 0.75812 0.22852 0.18171
 C198 C 0.81274 0.26637 0.17339
 C199 C 0.80534 0.29089 0.21106
 C200 C 0.82184 0.32472 0.21844
 C201 C 0.80829 0.33918 0.25917
 C202 C 0.78444 0.31350 0.27620
 N203 N 0.78304 0.28406 0.24686
 C204 C 0.76597 0.31692 0.31878
 H205 H 0.73378 0.30486 0.40699
 H206 H 0.67767 0.26060 0.40271
 H207 H 0.77076 0.25892 0.25331
 H208 H 0.60915 0.19677 0.26066
 H209 H 0.63567 0.16641 0.18437
 H210 H 0.76715 0.16380 0.10116
 H211 H 0.82051 0.21077 0.10155
 H212 H 0.81559 0.36543 0.27465
 H213 H 0.72300 0.22058 0.25068
 H214 H 0.84170 0.33785 0.19701
 C215 C 0.28220 0.70014 0.38420
 C216 C 0.31002 0.72467 0.38203
 C217 C 0.30835 0.74016 0.33824
 N218 N 0.28059 0.72588 0.31358
 C219 C 0.26457 0.70137 0.34161
 C220 C 0.33373 0.76523 0.32095
 C221 C 0.32779 0.78602 0.27964
 C222 C 0.35423 0.80704 0.25910
 C223 C 0.33714 0.82500 0.22191
 C224 C 0.30082 0.81386 0.21993
 N225 N 0.29529 0.79045 0.25565
 C226 C 0.27353 0.82686 0.18697
 C227 C 0.24007 0.80895 0.17833
 C228 C 0.21438 0.81994 0.14421
 C229 C 0.18720 0.79468 0.14526
 C230 C 0.19673 0.76907 0.18038
 N231 N 0.22953 0.77748 0.19983
 C232 C 0.17602 0.73767 0.19214
 C233 C 0.18694 0.71100 0.22728
 C234 C 0.17137 0.67653 0.23405
 C235 C 0.18878 0.65964 0.27166
 C236 C 0.21394 0.68443 0.28797
 N237 N 0.21254 0.71571 0.26089
 C238 C 0.23568 0.67844 0.32850
 H239 H 0.27579 0.68322 0.41373
 H240 H 0.32926 0.73045 0.40956
 H241 H 0.22522 0.74048 0.26795
 H242 H 0.38282 0.80969 0.26999
 H243 H 0.35038 0.84406 0.19921
 H244 H 0.21555 0.84307 0.11999
 H245 H 0.16368 0.79487 0.12177
 H246 H 0.18297 0.63236 0.28575
 H247 H 0.26977 0.78156 0.26598
 H248 H 0.14948 0.66430 0.21465
 C249 C 0.69107 0.28016 0.62314
 C250 C 0.71924 0.30453 0.62329
 C251 C 0.73720 0.30019 0.66551
 N252 N 0.72106 0.27400 0.69109
 C253 C 0.69271 0.26189 0.66534
 C254 C 0.76574 0.32244 0.68167
 C255 C 0.78766 0.31211 0.72085
 C256 C 0.80851 0.33630 0.74621
 C257 C 0.82694 0.31466 0.77993
 C258 C 0.81731 0.27774 0.77365
 N259 N 0.79319 0.27657 0.73772
 C260 C 0.83147 0.24556 0.79893
 C261 C 0.81278 0.21180 0.79750
 C262 C 0.82792 0.17614 0.81003
 C263 C 0.79875 0.15305 0.81154
 C264 C 0.76691 0.17549 0.79989
 N265 N 0.77560 0.21120 0.79079
 C266 C 0.72990 0.16527 0.80475
 C267 C 0.70085 0.18367 0.77788
 C268 C 0.66279 0.18172 0.78433
 C269 C 0.64495 0.20144 0.74860
 C270 C 0.67254 0.21574 0.72208
 N271 N 0.70640 0.20471 0.73994
 C272 C 0.66637 0.23724 0.68149
 H273 H 0.67134 0.27671 0.59540
 H274 H 0.72553 0.32352 0.59568
 H275 H 0.73193 0.20855 0.72453
 H276 H 0.81001 0.36647 0.74122
 H277 H 0.84509 0.32517 0.80609
 H278 H 0.85675 0.16794 0.81855
 H279 H 0.80048 0.12352 0.82163
 H280 H 0.61508 0.20543 0.74324
 H281 H 0.78383 0.25223 0.72269
 H282 H 0.64894 0.16789 0.81181
 C283 C 0.29557 0.66908 0.65618
 C284 C 0.32403 0.69293 0.65520
 C285 C 0.31383 0.72306 0.68368
 N286 N 0.28016 0.71816 0.70232
 C287 C 0.26911 0.68497 0.68588
 C288 C 0.33426 0.75557 0.68959
 C289 C 0.32536 0.78329 0.72321
 C290 C 0.33762 0.81959 0.72329
 C291 C 0.32369 0.83706 0.76223
 C292 C 0.30360 0.81081 0.78503
 N293 N 0.30496 0.77807 0.76113
 C294 C 0.28589 0.81676 0.82772
 C295 C 0.26106 0.79153 0.84587
 C296 C 0.24962 0.79097 0.89111
 C297 C 0.22181 0.76634 0.89314
 C298 C 0.21719 0.75286 0.84904
 N299 N 0.24133 0.76813 0.82027
 C300 C 0.18879 0.72975 0.83485
 C301 C 0.18941 0.71134 0.79193
 C302 C 0.15963 0.69414 0.77229
 C303 C 0.17254 0.67715 0.73268
 C304 C 0.20972 0.68495 0.72882
 N305 N 0.21980 0.70560 0.76521
 C306 C 0.23427 0.67026 0.69478
 H307 H 0.29449 0.64322 0.63677
 H308 H 0.34922 0.68859 0.63538
 H309 H 0.24694 0.71136 0.77410
 H310 H 0.35460 0.83225 0.69776
 H311 H 0.32802 0.86575 0.77260
 H312 H 0.25966 0.80736 0.91938
 H313 H 0.20622 0.75976 0.92337
 H314 H 0.15633 0.66060 0.70979
 H315 H 0.29555 0.75246 0.77222
 H316 H 0.13163 0.69337 0.78538
 C317 C 0.20698 0.22416 0.88326
 C318 C 0.23640 0.19750 0.88048
 C319 C 0.24793 0.19759 0.83529
 N320 N 0.22688 0.22338 0.81049
 C321 C 0.20173 0.23953 0.83966
 C322 C 0.27458 0.17143 0.81637
 C323 C 0.29299 0.17800 0.77483
 C324 C 0.31741 0.15193 0.75353
 C325 C 0.33173 0.17011 0.71666
 C326 C 0.31491 0.20665 0.71554
 N327 N 0.29180 0.21129 0.75168
 C328 C 0.32246 0.23522 0.68330
 C329 C 0.29847 0.26825 0.67576
 C330 C 0.30439 0.29623 0.64369
 C331 C 0.27440 0.32215 0.64570
 C332 C 0.25081 0.30923 0.67872
 N333 N 0.26527 0.27593 0.69643
 C334 C 0.21569 0.32725 0.68986
 C335 C 0.19177 0.31357 0.72327
 C336 C 0.15420 0.32478 0.72738
 C337 C 0.14171 0.30695 0.76571
 C338 C 0.17214 0.28589 0.78444
 N339 N 0.20252 0.29012 0.75835
 C340 C 0.17201 0.26530 0.82610
 H341 H 0.19082 0.23091 0.91360
 H342 H 0.24740 0.17933 0.90811
 H343 H 0.22989 0.28136 0.76703
 H344 H 0.32493 0.12303 0.76405
 H345 H 0.35231 0.15734 0.69377
 H346 H 0.32734 0.29760 0.62019
 H347 H 0.27009 0.34714 0.62428
 H348 H 0.11353 0.30968 0.77858
 H349 H 0.27920 0.23682 0.76279
 H350 H 0.13742 0.34392 0.70527
 C351 C 0.80857 0.82220 0.84312
 C352 C 0.83876 0.79668 0.83913
 C353 C 0.82751 0.76766 0.81149
 N354 N 0.79122 0.77433 0.79933
 C355 C 0.77954 0.80758 0.81880
 C356 C 0.84917 0.73383 0.80191
 C357 C 0.83820 0.70709 0.76938
 C358 C 0.85357 0.67022 0.76557
 C359 C 0.83634 0.65440 0.72865
 C360 C 0.81134 0.68219 0.71044
 N361 N 0.81288 0.71428 0.73523
 C362 C 0.78901 0.67813 0.67077
 C363 C 0.75979 0.70482 0.65807
 C364 C 0.74209 0.70682 0.61553
 C365 C 0.71219 0.73283 0.61946
 C366 C 0.71271 0.74558 0.66430
 N367 N 0.74190 0.72864 0.68772
 C368 C 0.68436 0.76889 0.68474
 C369 C 0.68899 0.78596 0.72783
 C370 C 0.66028 0.80221 0.75401
 C371 C 0.67664 0.81733 0.79200
 C372 C 0.71492 0.81016 0.78769
 N373 N 0.72217 0.79105 0.74843
 C374 C 0.74218 0.82301 0.81816
 H375 H 0.80802 0.84822 0.86250
 H376 H 0.86560 0.79921 0.85551
 H377 H 0.74834 0.78553 0.73403
 H378 H 0.87507 0.65603 0.78692
 H379 H 0.84189 0.62578 0.71645
 H380 H 0.74936 0.69041 0.58530
 H381 H 0.69168 0.74050 0.59295
 H382 H 0.66193 0.83201 0.81955
 H383 H 0.80013 0.74068 0.72672
 H384 H 0.63066 0.80316 0.74648
 C385 C 0.24843 0.09812 0.10507
 C386 C 0.28181 0.08605 0.08431
 C387 C 0.31209 0.10907 0.09188
 C388 C 0.30761 0.14263 0.11856
 C389 C 0.27285 0.15379 0.13870
 C390 C 0.24423 0.12993 0.13086
 C391 C 0.20435 0.12451 0.14079
 C392 C 0.20909 0.08853 0.11133
 H393 H 0.33889 0.10169 0.07651
 H394 H 0.33112 0.15988 0.12318
 H395 H 0.18502 0.14694 0.12518
 H396 H 0.19981 0.11865 0.17772
 H397 H 0.19276 0.09046 0.07868
 H398 H 0.20713 0.06191 0.13125
 C399 C 0.76517 0.58877 0.61142
 C400 C 0.79638 0.57707 0.58612
 C401 C 0.82809 0.59841 0.59204
 C402 C 0.82652 0.63107 0.62051
 C403 C 0.79334 0.64269 0.64390
 C404 C 0.76380 0.61955 0.63892
 C405 C 0.72372 0.61656 0.65004
 C406 C 0.72529 0.58162 0.61870
 H407 H 0.85341 0.59089 0.57345
 H408 H 0.85063 0.64771 0.62313
 H409 H 0.70549 0.64060 0.63612
 H410 H 0.71964 0.60980 0.68683
 H411 H 0.70820 0.58590 0.58683
 H412 H 0.72206 0.55459 0.63730
 C413 C 0.67971 0.90001 0.10282
 C414 C 0.70781 0.92545 0.09979
 C415 C 0.73736 0.92162 0.13215
 C416 C 0.74107 0.89018 0.16187
 C417 C 0.71541 0.86192 0.15964
 C418 C 0.68349 0.86882 0.13211
 C419 C 0.66616 0.84378 0.09815
 C420 C 0.66207 0.87782 0.06602
 H421 H 0.75900 0.94148 0.13238
 H422 H 0.76540 0.88648 0.18413
 H423 H 0.63898 0.83443 0.11011
 H424 H 0.68604 0.82075 0.08567
 H425 H 0.63254 0.88797 0.05939
 H426 H 0.67963 0.87457 0.03490
 C427 C 0.17322 0.39638 0.60163
 C428 C 0.19632 0.42642 0.60631
 C429 C 0.21928 0.42724 0.64571
 C430 C 0.22272 0.39606 0.67583
 C431 C 0.20399 0.36329 0.66624
 C432 C 0.17736 0.36518 0.63075
 C433 C 0.17105 0.33806 0.59296
 C434 C 0.16651 0.37215 0.56095
 H435 H 0.23660 0.45070 0.65135
 H436 H 0.24272 0.39606 0.70392
 H437 H 0.14484 0.32358 0.59747
 H438 H 0.19621 0.31905 0.58577
 H439 H 0.13769 0.37722 0.54691
 H440 H 0.18899 0.37287 0.53516
 C441 C 0.90525 0.24665 0.11588
 C442 C 0.90889 0.27642 0.08518
 C443 C 0.87999 0.30588 0.08619
 C444 C 0.84856 0.30317 0.11507
 C445 C 0.84615 0.27192 0.14521
 C446 C 0.87621 0.24504 0.14501
 C447 C 0.89009 0.20769 0.16454
 C448 C 0.92316 0.20959 0.13165
 H449 H 0.88064 0.33001 0.06333
 H450 H 0.82603 0.32506 0.11331
 H451 H 0.87163 0.18471 0.15608
 H452 H 0.89812 0.20967 0.20134
 H453 H 0.92352 0.18783 0.10426
 H454 H 0.95031 0.21272 0.14942
 C455 C 0.38985 0.76505 0.58083
 C456 C 0.42563 0.77093 0.59724
 C457 C 0.43234 0.76796 0.64485
 C458 C 0.40264 0.76324 0.67519
 C459 C 0.36589 0.76106 0.65826
 C460 C 0.36067 0.76065 0.61063
 C461 C 0.33344 0.78347 0.58107
 C462 C 0.36542 0.78843 0.54832
 H463 H 0.46033 0.76972 0.65851
 H464 H 0.40823 0.76165 0.71176
 H465 H 0.32290 0.81027 0.59764
 H466 H 0.31157 0.76607 0.56660
 H467 H 0.37344 0.81815 0.54581
 H468 H 0.36186 0.77398 0.51493
 C469 C 0.10619 0.69624 0.11103
 C470 C 0.07936 0.72643 0.10445
 C471 C 0.08128 0.75808 0.13355
 C472 C 0.11120 0.76033 0.16493
 C473 C 0.14099 0.73223 0.16576
 C474 C 0.13669 0.69970 0.13979
 C475 C 0.16302 0.67873 0.10841
 C476 C 0.12973 0.67479 0.07651
 H477 H 0.06032 0.78151 0.13129
 H478 H 0.11253 0.78536 0.18592
 H479 H 0.17429 0.65133 0.12344
 H480 H 0.18419 0.69690 0.09417
 H481 H 0.12198 0.64507 0.07299
 H482 H 0.13169 0.69047 0.04356
 C483 C 0.58848 0.19888 0.61083
 C484 C 0.56829 0.23178 0.59528
 C485 C 0.57633 0.26627 0.61615
 C486 C 0.60694 0.26792 0.64660
 C487 C 0.63025 0.23517 0.65650
 C488 C 0.61867 0.20056 0.64073
 C489 C 0.64031 0.16891 0.61741
 C490 C 0.60730 0.16707 0.58452
 H491 H 0.56039 0.29233 0.60703
 H492 H 0.61382 0.29508 0.66002
 H493 H 0.64465 0.14349 0.63986
 H494 H 0.66588 0.17816 0.60074
 H495 H 0.59274 0.14051 0.58794
 H496 H 0.61371 0.17524 0.54873
 C497 C 0.69003 0.08382 0.87098
 C498 C 0.71443 0.07951 0.90879
 C499 C 0.73948 0.10793 0.91604
 C500 C 0.74194 0.13751 0.88419
 C501 C 0.72180 0.13788 0.84219
 C502 C 0.69455 0.11154 0.83787
 C503 C 0.68624 0.08597 0.79923
 C504 C 0.68132 0.05551 0.83517
 H505 H 0.75720 0.10744 0.94641
 H506 H 0.76131 0.15890 0.89140
 H507 H 0.71072 0.07974 0.77684
 H508 H 0.65984 0.09521 0.78094
 H509 H 0.70291 0.03155 0.83350
 H510 H 0.65214 0.04711 0.83740
 C511 C 0.25060 0.58683 0.39495
 C512 C 0.21731 0.58242 0.41762
 C513 C 0.18827 0.61088 0.40917
 C514 C 0.19390 0.64221 0.38001
 C515 C 0.22856 0.64562 0.35824
 C516 C 0.25585 0.61656 0.36672
 C517 C 0.29527 0.60361 0.35707
 C518 C 0.28934 0.56991 0.38921
 H519 H 0.16162 0.60953 0.42586
 H520 H 0.17145 0.66386 0.37492
 H521 H 0.31546 0.62320 0.37094
 H522 H 0.29929 0.59542 0.32062
 H523 H 0.30597 0.57029 0.42158
 H524 H 0.29001 0.54222 0.37134
 C525 C 0.26000 0.90667 0.89091
 C526 C 0.29253 0.91702 0.91254
 C527 C 0.32570 0.89502 0.90104
 C528 C 0.32435 0.86287 0.87190
 C529 C 0.29001 0.85261 0.85287
 C530 C 0.25891 0.87673 0.86229
 C531 C 0.21751 0.88066 0.85721
 C532 C 0.21874 0.91473 0.88963
 H533 H 0.35225 0.90140 0.91602
 H534 H 0.34970 0.84542 0.86568
 H535 H 0.20371 0.85659 0.87255
 H536 H 0.20845 0.88848 0.82165
 H537 H 0.20583 0.90990 0.92345
 H538 H 0.21041 0.94232 0.87287
 C539 C 0.74857 0.40412 0.39120
 C540 C 0.78363 0.41056 0.40969
 C541 C 0.81338 0.38353 0.40068
 C542 C 0.80816 0.35287 0.37089
 C543 C 0.77321 0.34900 0.34952
 C544 C 0.74358 0.37433 0.36189
 C545 C 0.71629 0.39713 0.33236
 C546 C 0.72178 0.43006 0.36448
 H547 H 0.84060 0.38624 0.41616
 H548 H 0.83136 0.33262 0.36405
 H549 H 0.68788 0.38661 0.33400
 H550 H 0.72685 0.40164 0.29718
 H551 H 0.69645 0.43863 0.38445
 H552 H 0.73553 0.45375 0.34798
 C553 C 0.08919 0.23950 0.89495
 C554 C 0.07474 0.27308 0.91435
 C555 C 0.09311 0.30605 0.90300
 C556 C 0.12478 0.30395 0.87407
 C557 C 0.13856 0.26891 0.85551
 C558 C 0.11918 0.23755 0.86700
 C559 C 0.11826 0.19593 0.86040
 C560 C 0.08421 0.19818 0.89216
 H561 H 0.08353 0.33322 0.91697
 H562 H 0.13861 0.32947 0.86663
 H563 H 0.14302 0.17986 0.87569
 H564 H 0.11145 0.18857 0.82439
 H565 H 0.08953 0.18358 0.92568
 H566 H 0.05772 0.19210 0.87449
 C567 C 0.60969 0.80142 0.41123
 C568 C 0.58193 0.77559 0.41119
 C569 C 0.58134 0.74954 0.37481
 C570 C 0.61023 0.74706 0.34249
 C571 C 0.64072 0.76987 0.34674
 C572 C 0.63872 0.79821 0.38013
 C573 C 0.66690 0.80836 0.41504
 C574 C 0.63519 0.81190 0.44925
 H575 H 0.55938 0.73012 0.37245
 H576 H 0.61007 0.72567 0.31607
 H577 H 0.67867 0.83584 0.40707
 H578 H 0.68786 0.78456 0.42288
 H579 H 0.62880 0.84141 0.46105
 H580 H 0.63778 0.79022 0.47706
 C581 C 0.91136 0.69405 0.89798
 C582 C 0.93962 0.71927 0.89891
 C583 C 0.94256 0.74371 0.86100
 C584 C 0.91483 0.74590 0.82633
 C585 C 0.88323 0.72461 0.83006
 C586 C 0.88349 0.69708 0.86463
 C587 C 0.85391 0.68832 0.89772
 C588 C 0.88438 0.68510 0.93444
 H589 H 0.96508 0.76251 0.85949
 H590 H 0.91625 0.76664 0.79910
 H591 H 0.84189 0.66091 0.89006
 H592 H 0.83313 0.71263 0.90291
 H593 H 0.88977 0.65587 0.94812
 H594 H 0.88129 0.70760 0.96089
 C595 C 0.39176 0.20277 0.39236
 C596 C 0.42054 0.22739 0.39326
 C597 C 0.42352 0.25208 0.35557
 C598 C 0.39554 0.25498 0.32114
 C599 C 0.36370 0.23404 0.32473
 C600 C 0.36378 0.20629 0.35904
 C601 C 0.33403 0.19819 0.39211
 C602 C 0.36440 0.19509 0.42884
 H603 H 0.44637 0.27047 0.35399
 H604 H 0.39710 0.27593 0.29417
 H605 H 0.32181 0.17082 0.38480
 H606 H 0.31343 0.22271 0.39690
 H607 H 0.36916 0.16616 0.44367
 H608 H 0.36164 0.21851 0.45403
 C609 C 0.70457 0.91658 0.86777
 C610 C 0.71831 0.91449 0.91275
 C611 C 0.73357 0.87928 0.92920
 C612 C 0.73908 0.84844 0.89916
 C613 C 0.73063 0.85284 0.85193
 C614 C 0.71118 0.88662 0.83789
 C615 C 0.71758 0.91207 0.79833
 C616 C 0.71035 0.94506 0.83103
 H617 H 0.74229 0.87601 0.96478
 H618 H 0.75208 0.82199 0.91219
 H619 H 0.69566 0.91061 0.77129
 H620 H 0.74678 0.90901 0.78592
 H621 H 0.68429 0.96260 0.82271
 H622 H 0.73533 0.96126 0.83753
 C623 C 0.18957 0.42584 0.37346
 C624 C 0.20347 0.42026 0.41812
 C625 C 0.21723 0.38354 0.43101
 C626 C 0.22091 0.35453 0.39823
 C627 C 0.21245 0.36222 0.35157
 C628 C 0.19445 0.39756 0.34078
 C629 C 0.20205 0.42501 0.30370
 C630 C 0.19676 0.45607 0.33941
 H631 H 0.22689 0.37777 0.46582
 H632 H 0.23308 0.32695 0.40866
 H633 H 0.17988 0.42647 0.27671
 H634 H 0.23108 0.42118 0.29085
 H635 H 0.17159 0.47546 0.33289
 H636 H 0.22271 0.47035 0.34725
 C637 C 0.25755 0.07822 0.87179
 C638 C 0.28886 0.07097 0.90030
 C639 C 0.31981 0.09270 0.89197
 C640 C 0.31606 0.12469 0.86261
 C641 C 0.28180 0.13454 0.84002
 C642 C 0.25439 0.10841 0.84192
 C643 C 0.21272 0.11108 0.84405
 C644 C 0.21639 0.07789 0.87777
 H645 H 0.34561 0.08743 0.91124
 H646 H 0.33886 0.14306 0.86012
 H647 H 0.19969 0.10371 0.81079
 H648 H 0.20054 0.13740 0.85988
 H649 H 0.20511 0.05170 0.86403
 H650 H 0.20748 0.08583 0.91304
 C651 C 0.78270 0.56630 0.35561
 C652 C 0.79900 0.56978 0.39901
 C653 C 0.81573 0.60370 0.40895
 C654 C 0.81064 0.63503 0.37888
 C655 C 0.78940 0.63243 0.33817
 C656 C 0.77847 0.59671 0.32558
 C657 C 0.74250 0.58406 0.30687
 C658 C 0.74708 0.55079 0.34028
 H659 H 0.82966 0.60714 0.44166
 H660 H 0.82088 0.66188 0.38890
 H661 H 0.74488 0.57534 0.27038
 H662 H 0.71808 0.60389 0.31439
 H663 H 0.75182 0.52303 0.32293
 H664 H 0.72561 0.55183 0.36751
 C665 C 0.10442 0.75709 0.90636
 C666 C 0.09184 0.72331 0.92299
 C667 C 0.11275 0.68979 0.90931
 C668 C 0.14450 0.69153 0.88081
 C669 C 0.15601 0.72673 0.86493
 C670 C 0.13454 0.75868 0.87892
 C671 C 0.13041 0.80067 0.87459
 C672 C 0.09625 0.79891 0.90576
 H673 H 0.10499 0.66231 0.92082
 H674 H 0.16000 0.66550 0.87131
 H675 H 0.12325 0.81009 0.83896
 H676 H 0.15385 0.81460 0.89106
 H677 H 0.06936 0.80734 0.88810
 H678 H 0.10017 0.81168 0.94010
 C679 C 0.57340 0.25822 0.37262
 C680 C 0.57089 0.22726 0.40215
 C681 C 0.59598 0.19538 0.39512
 C682 C 0.62567 0.19724 0.36409
 C683 C 0.63045 0.23085 0.33943
 C684 C 0.60221 0.25991 0.34188
 C685 C 0.60321 0.30180 0.34671
 C686 C 0.57166 0.29985 0.38094
 H687 H 0.59409 0.16995 0.41550
 H688 H 0.64598 0.17335 0.36128
 H689 H 0.59448 0.31704 0.31453
 H690 H 0.62942 0.31071 0.36256
 H691 H 0.54494 0.31423 0.36853
 H692 H 0.58001 0.30694 0.41656
 C693 C 0.89135 0.23387 0.90696
 C694 C 0.92028 0.25729 0.89906
 C695 C 0.92353 0.27241 0.85456
 C696 C 0.89598 0.26693 0.82062
 C697 C 0.86393 0.24765 0.83131
 C698 C 0.86365 0.22990 0.87439
 C699 C 0.83380 0.22963 0.90952
 C700 C 0.86423 0.23404 0.94545
 H701 H 0.94681 0.28903 0.84638
 H702 H 0.89890 0.27922 0.78690
 H703 H 0.82124 0.20184 0.91147
 H704 H 0.81348 0.25469 0.90668
 H705 H 0.86913 0.20880 0.96809
 H706 H 0.86156 0.26162 0.96363
 C707 C 0.40857 0.80513 0.39510
 C708 C 0.43037 0.77256 0.40848
 C709 C 0.42437 0.73860 0.38522
 C710 C 0.39414 0.73670 0.35440
 C711 C 0.36923 0.76861 0.34661
 C712 C 0.37857 0.80312 0.36508
 C713 C 0.35524 0.83230 0.39044
 C714 C 0.38813 0.83467 0.42341
 H715 H 0.44168 0.71302 0.39267
 H716 H 0.38878 0.70978 0.33903
 H717 H 0.33050 0.82063 0.40646
 H718 H 0.34928 0.85851 0.36975
 H719 H 0.38242 0.82456 0.45860
 H720 H 0.40106 0.86227 0.42172
 C721 C 0.31272 0.89160 0.09825
 C722 C 0.28749 0.92343 0.09937
 C723 C 0.26102 0.92571 0.13470
 C724 C 0.25794 0.89503 0.16508
 C725 C 0.28050 0.86120 0.15969
 C726 C 0.30888 0.86101 0.12725
 C727 C 0.31931 0.83290 0.09094
 C728 C 0.32356 0.86637 0.05896
 H729 H 0.24175 0.95045 0.13758
 H730 H 0.23640 0.89675 0.19082
 H731 H 0.29586 0.81551 0.08112
 H732 H 0.34617 0.81663 0.09892
 H733 H 0.30267 0.86836 0.03043
 H734 H 0.35286 0.86930 0.04844
 C735 C 0.81197 0.39592 0.61147
 C736 C 0.78176 0.42064 0.59770
 C737 C 0.74741 0.41702 0.61985
 C738 C 0.74267 0.38637 0.64973
 C739 C 0.77207 0.35859 0.65774
 C740 C 0.80721 0.36565 0.64076
 C741 C 0.83459 0.34016 0.61561
 C742 C 0.83981 0.37325 0.58339
 H743 H 0.72360 0.43647 0.61201
 H744 H 0.71541 0.38296 0.66406
 H745 H 0.82141 0.31621 0.59878
 H746 H 0.85979 0.33204 0.63685
 H747 H 0.82967 0.36851 0.54782
 H748 H 0.86808 0.38408 0.58599
 C749 C 0.67548 0.11273 0.08316
 C750 C 0.69963 0.08045 0.09010
 C751 C 0.72318 0.07921 0.12912
 C752 C 0.72547 0.11130 0.15690
 C753 C 0.70479 0.14532 0.14564
 C754 C 0.67824 0.14467 0.11021
 C755 C 0.67122 0.17094 0.07047
 C756 C 0.66823 0.13605 0.04075
 H757 H 0.74142 0.05425 0.13653
 H758 H 0.74535 0.11041 0.18518
 H759 H 0.69576 0.18719 0.06236
 H760 H 0.64437 0.18821 0.07356
 H761 H 0.69101 0.13206 0.01534
 H762 H 0.63966 0.13332 0.02665
 C763 C 0.18910 0.61239 0.60338
 C764 C 0.21072 0.57808 0.60574
 C765 C 0.23538 0.57194 0.64340
 C766 C 0.24113 0.60130 0.67453
 C767 C 0.22312 0.63749 0.66765
 C768 C 0.19554 0.64163 0.63338
 C769 C 0.18946 0.67110 0.59689
 C770 C 0.18240 0.63913 0.56389
 H771 H 0.25154 0.54515 0.64741
 H772 H 0.26165 0.59662 0.70183
 H773 H 0.21519 0.68562 0.58921
 H774 H 0.16421 0.69019 0.60317
 H775 H 0.20396 0.63514 0.53693
 H776 H 0.15309 0.63989 0.55110
 C777 C 0.90703 0.69163 0.10430
 C778 C 0.92576 0.72397 0.09396
 C779 C 0.91555 0.75731 0.11843
 C780 C 0.88472 0.75896 0.14790
 C781 C 0.86301 0.72753 0.15295
 C782 C 0.87624 0.69348 0.13282
 C783 C 0.85624 0.66624 0.10444
 C784 C 0.88988 0.66417 0.07308
 H785 H 0.93046 0.78256 0.11350
 H786 H 0.87659 0.78539 0.16477
 H787 H 0.83049 0.67949 0.08789
 H788 H 0.85264 0.63933 0.12313
 H789 H 0.88362 0.67615 0.03834
 H790 H 0.90556 0.63600 0.07360
 C791 C 0.39136 0.19836 0.59378
 C792 C 0.41563 0.22750 0.59078
 C793 C 0.41343 0.25552 0.62505
 C794 C 0.38469 0.25639 0.65765
 C795 C 0.35690 0.23010 0.65546
 C796 C 0.36230 0.20017 0.62466
 C797 C 0.33589 0.18371 0.59189
 C798 C 0.36758 0.18187 0.55768
 H799 H 0.43306 0.27741 0.62567
 H800 H 0.38257 0.27916 0.68236
 H801 H 0.31222 0.20408 0.58191
 H802 H 0.32796 0.15535 0.60317
 H803 H 0.36218 0.20141 0.52825
 H804 H 0.37761 0.15248 0.54866
 C805 C 0.07012 0.26043 0.13416
 C806 C 0.06303 0.28820 0.10021
 C807 C 0.08552 0.31941 0.10079
 C808 C 0.11758 0.31898 0.12947
 C809 C 0.12713 0.28761 0.15826
 C810 C 0.10103 0.26037 0.16278
 C811 C 0.10507 0.21817 0.16523
 C812 C 0.07124 0.21818 0.13326
 H813 H 0.08044 0.34231 0.07629
 H814 H 0.13632 0.34154 0.12652
 H815 H 0.09953 0.20740 0.20020
 H816 H 0.13104 0.20575 0.14942
 H817 H 0.04644 0.20705 0.14974
 H818 H 0.07813 0.20628 0.09891
 C819 C 0.59138 0.74710 0.63365
 C820 C 0.58318 0.77770 0.60384
 C821 C 0.60475 0.80939 0.60864
 C822 C 0.63688 0.80740 0.63710
 C823 C 0.64761 0.77386 0.66138
 C824 C 0.62253 0.74533 0.66197
 C825 C 0.62759 0.70322 0.65858
 C826 C 0.59346 0.70527 0.62690
 H827 H 0.59861 0.83449 0.58782
 H828 H 0.65464 0.83091 0.63762
 H829 H 0.62273 0.68907 0.69189
 H830 H 0.65352 0.69297 0.64101
 H831 H 0.56918 0.69199 0.64188
 H832 H 0.60013 0.69699 0.59102
   
