data_POSCAR
  _audit_creation_date              2014-09-24
  _audit_creation_method            'ToBaCCo'
  _symmetry_space_group_name_H-M    'P1'
  _symmetry_Int_Tables_number       1
  _symmetry_cell_setting            triclinic
  loop_
  _symmetry_equiv_pos_as_xyz
 x,y,z
_cell_length_a 42.8846
_cell_length_b 42.8846
_cell_length_c 41.4314
_cell_angle_alpha 90.000000
_cell_angle_beta 90.000000
_cell_angle_gamma 90.000000
loop_
  _atom_site_label
  _atom_site_type_symbol
  _atom_site_fract_x
  _atom_site_fract_y
  _atom_site_fract_z
C1 C 0.30902 0.28157 0.21626
 H2 H 0.32163 0.26439 0.23004
 C3 C 0.32679 0.30152 0.19469
 H4 H 0.35177 0.29813 0.19411
 C5 C 0.26313 0.30605 0.20075
 H6 H 0.23808 0.30871 0.20212
 C7 C 0.28027 0.32679 0.17906
 H8 H 0.26721 0.34365 0.16510
 N9 N 0.27704 0.28322 0.21968
 C10 C 0.19913 0.27623 0.30660
 H11 H 0.19368 0.25176 0.30941
 C12 C 0.18317 0.29860 0.32761
 H13 H 0.16668 0.28976 0.34513
 C14 C 0.22682 0.31630 0.28205
 H15 H 0.24388 0.32462 0.26488
 C16 C 0.21159 0.33908 0.30250
 H17 H 0.21781 0.36324 0.29877
 Zn18 Zn 0.24898 0.25255 0.25257
 N19 N 0.22121 0.28467 0.28371
 C20 C 0.25980 0.20185 0.30610
 N21 N 0.27632 0.22100 0.28549
 C22 C 0.30847 0.21755 0.28785
 C23 C 0.32382 0.19535 0.30958
 C24 C 0.27418 0.17954 0.32785
 C25 C 0.20018 0.22954 0.19719
 C26 C 0.18403 0.20719 0.17632
 C27 C 0.20878 0.16635 0.20475
 C28 C 0.22435 0.18913 0.22491
 N29 N 0.22065 0.22090 0.22155
 H30 H 0.23462 0.20336 0.30588
 H31 H 0.32318 0.23180 0.27277
 H32 H 0.34902 0.19409 0.30926
 H33 H 0.25863 0.16610 0.34294
 H34 H 0.19632 0.25414 0.19300
 H35 H 0.16894 0.21614 0.15755
 H36 H 0.21336 0.14210 0.21001
 H37 H 0.24005 0.18064 0.24333
 C38 C 0.18909 0.33144 0.32681
 C39 C 0.31329 0.32527 0.17470
 C40 C 0.18801 0.17414 0.17889
 C41 C 0.30718 0.17472 0.33057
 C42 C 0.80989 0.77821 0.21181
 H43 H 0.82129 0.75912 0.22416
 C44 C 0.82857 0.79774 0.19065
 H45 H 0.85299 0.79190 0.18960
 C46 C 0.76604 0.80781 0.20023
 H47 H 0.74143 0.81267 0.20302
 C48 C 0.78422 0.82839 0.17918
 H49 H 0.77213 0.84736 0.16736
 N50 N 0.77844 0.78255 0.21684
 C51 C 0.69979 0.77039 0.30207
 H52 H 0.69609 0.74544 0.30267
 C53 C 0.68171 0.78974 0.32396
 H54 H 0.66567 0.77781 0.33983
 C55 C 0.72513 0.81424 0.28224
 H56 H 0.74212 0.82505 0.26652
 C57 C 0.70745 0.83446 0.30402
 H58 H 0.71176 0.85930 0.30312
 Zn59 Zn 0.74992 0.75127 0.24859
 N60 N 0.72155 0.78210 0.28076
 C61 C 0.77542 0.71794 0.31342
 N62 N 0.77784 0.71921 0.28002
 C63 C 0.79777 0.69727 0.26708
 C64 C 0.81501 0.67483 0.28635
 C65 C 0.79245 0.69567 0.33363
 C66 C 0.70276 0.73252 0.19235
 C67 C 0.68536 0.71319 0.16990
 C68 C 0.70589 0.66808 0.19478
 C69 C 0.72308 0.68831 0.21695
 N70 N 0.72173 0.72065 0.21623
 H71 H 0.75989 0.73419 0.32526
 H72 H 0.80040 0.69646 0.24113
 H73 H 0.82934 0.65844 0.27325
 H74 H 0.78913 0.69674 0.35950
 H75 H 0.70102 0.75759 0.18994
 H76 H 0.67183 0.72530 0.15185
 H77 H 0.70830 0.64311 0.19750
 H78 H 0.73779 0.67735 0.23487
 C79 C 0.68441 0.82308 0.32600
 C80 C 0.81675 0.82407 0.17270
 C81 C 0.68578 0.67967 0.17001
 C82 C 0.81351 0.67287 0.32095
 C83 C 0.80847 0.27996 0.71531
 H84 H 0.82087 0.26312 0.72992
 C85 C 0.82651 0.29996 0.69396
 H86 H 0.85153 0.29697 0.69417
 C87 C 0.76264 0.30368 0.69830
 H88 H 0.73754 0.30602 0.69902
 C89 C 0.78003 0.32440 0.67678
 H90 H 0.76707 0.34094 0.66232
 N91 N 0.77640 0.28119 0.71775
 C92 C 0.70093 0.26906 0.80579
 H93 H 0.69855 0.24401 0.80771
 C94 C 0.68361 0.28842 0.82827
 H95 H 0.66953 0.27631 0.84586
 C96 C 0.72270 0.31316 0.78235
 H97 H 0.73804 0.32406 0.76497
 C98 C 0.70557 0.33343 0.80456
 H99 H 0.70861 0.35838 0.80233
 Zn100 Zn 0.74858 0.24995 0.75010
 N101 N 0.72060 0.28085 0.78247
 C102 C 0.77475 0.21713 0.81506
 N103 N 0.77734 0.21859 0.78167
 C104 C 0.79793 0.19720 0.76884
 C105 C 0.81552 0.17504 0.78816
 C106 C 0.79212 0.19515 0.83532
 C107 C 0.69958 0.22697 0.69459
 C108 C 0.68351 0.20481 0.67337
 C109 C 0.70914 0.16375 0.70053
 C110 C 0.72444 0.18634 0.72123
 N111 N 0.72038 0.21817 0.71861
 H112 H 0.75878 0.23296 0.82686
 H113 H 0.80081 0.19656 0.74290
 H114 H 0.83030 0.15906 0.77508
 H115 H 0.78856 0.19604 0.86116
 H116 H 0.69533 0.25158 0.69096
 H117 H 0.66814 0.21395 0.65495
 H118 H 0.71419 0.13942 0.70498
 H119 H 0.74018 0.17765 0.73952
 C120 C 0.68477 0.32192 0.82877
 C121 C 0.81316 0.32330 0.67325
 C122 C 0.68798 0.17175 0.67507
 C123 C 0.81376 0.17285 0.82274
 C124 C 0.30155 0.80088 0.73312
 H125 H 0.30626 0.79875 0.75868
 C126 C 0.32002 0.82281 0.71455
 H127 H 0.33705 0.83568 0.72825
 C128 C 0.27311 0.78797 0.68741
 H129 H 0.25468 0.77504 0.67563
 C130 C 0.29098 0.81019 0.66792
 H131 H 0.28515 0.81228 0.64262
 N132 N 0.27806 0.78296 0.72012
 C133 C 0.20073 0.77486 0.80676
 H134 H 0.19696 0.75027 0.81113
 C135 C 0.18460 0.79728 0.82755
 H136 H 0.16964 0.78839 0.84647
 C137 C 0.22455 0.81519 0.77856
 H138 H 0.23993 0.82358 0.75979
 C139 C 0.20903 0.83803 0.79866
 H140 H 0.21343 0.86228 0.79320
 Zn141 Zn 0.24904 0.75172 0.75115
 N142 N 0.22103 0.78344 0.78225
 C143 C 0.26279 0.69762 0.80236
 N144 N 0.27664 0.72032 0.78326
 C145 C 0.30868 0.72164 0.78589
 C146 C 0.32663 0.70155 0.80718
 C147 C 0.28010 0.67677 0.82377
 C148 C 0.19963 0.73323 0.69719
 C149 C 0.18165 0.71397 0.67522
 C150 C 0.20622 0.66901 0.69627
 C151 C 0.22381 0.68914 0.71812
 N152 N 0.22075 0.72133 0.71904
 H153 H 0.23770 0.69522 0.80143
 H154 H 0.32112 0.73864 0.77152
 H155 H 0.35165 0.70463 0.80726
 H156 H 0.26712 0.66005 0.83799
 H157 H 0.19640 0.75823 0.69625
 H158 H 0.16611 0.72596 0.65886
 H159 H 0.21003 0.64410 0.69757
 H160 H 0.24027 0.67826 0.73439
 C161 C 0.18843 0.83031 0.82470
 C162 C 0.31595 0.82879 0.68053
 C163 C 0.18386 0.68060 0.67371
 C164 C 0.31319 0.67800 0.82751
 C165 C -0.03494 -0.01891 0.02165
 C166 C -0.01725 0.00181 0.00125
 C167 C -0.03538 0.02158 -0.01978
 C168 C -0.06933 0.02175 -0.02181
 C169 C -0.08528 -0.00028 -0.00010
 C170 C -0.06888 -0.02169 0.02191
 C171 C 0.02020 0.00216 0.00136
 C172 C 0.03827 -0.01813 -0.01990
 C173 C 0.07213 -0.01863 -0.02103
 C174 C 0.08744 0.00234 0.00153
 C175 C 0.07193 0.02322 0.02406
 C176 C 0.03805 0.02253 0.02277
 H177 H -0.02152 -0.03334 0.03791
 H178 H -0.02246 0.03736 -0.03515
 H179 H 0.02569 -0.03322 -0.03630
 H180 H 0.02530 0.03750 0.03915
 H181 H -0.11043 -0.00178 -0.00142
 H182 H 0.11263 0.00241 0.00157
 C183 C -0.03737 0.47872 0.51891
 C184 C -0.01954 0.49949 0.49869
 C185 C -0.03749 0.51970 0.47796
 C186 C -0.07141 0.52013 0.47589
 C187 C -0.08754 0.49819 0.49753
 C188 C -0.07130 0.47651 0.51936
 C189 C 0.01781 0.50082 0.49994
 C190 C 0.03783 0.48105 0.48024
 C191 C 0.07177 0.48250 0.48057
 C192 C 0.08518 0.50532 0.50310
 C193 C 0.06715 0.52626 0.52342
 C194 C 0.03352 0.52272 0.52087
 H195 H -0.02417 0.46388 0.53500
 H196 H -0.02446 0.53568 0.46292
 H197 H 0.02675 0.46477 0.46391
 H198 H 0.01883 0.53727 0.53579
 H199 H -0.11271 0.49697 0.49628
 H200 H 0.11024 0.50728 0.50472
 C201 C 0.46383 -0.01755 0.52391
 C202 C 0.47977 0.00328 0.50194
 C203 C 0.45983 0.02261 0.48157
 C204 C 0.42581 0.02171 0.48220
 C205 C 0.41229 -0.00030 0.50557
 C206 C 0.43017 -0.02031 0.52703
 C207 C 0.51720 0.00316 0.49966
 C208 C 0.53311 -0.01859 0.47863
 C209 C 0.56680 -0.02213 0.47621
 C210 C 0.58469 -0.00126 0.49682
 C211 C 0.57112 0.02144 0.51944
 C212 C 0.53715 0.02276 0.51967
 H213 H 0.47830 -0.03233 0.53886
 H214 H 0.47101 0.03810 0.46452
 H215 H 0.51850 -0.03319 0.46368
 H216 H 0.52599 0.03869 0.53630
 H217 H 0.38724 -0.00131 0.50807
 H218 H 0.60977 -0.00320 0.49545
 C219 C 0.46247 0.47961 0.01975
 C220 C 0.48034 0.50097 0.00027
 C221 C 0.46248 0.52248 -0.01902
 C222 C 0.42855 0.52411 -0.01989
 C223 C 0.41236 0.50127 0.00062
 C224 C 0.42853 0.47828 0.02097
 C225 C 0.51769 0.50087 0.00010
 C226 C 0.53545 0.47911 -0.01906
 C227 C 0.56938 0.47771 -0.02037
 C228 C 0.58567 0.50076 -0.00023
 C229 C 0.56960 0.52385 0.02005
 C230 C 0.53568 0.52257 0.01906
 H231 H 0.47564 0.46366 0.03468
 H232 H 0.47565 0.53829 -0.03410
 H233 H 0.52226 0.46290 -0.03367
 H234 H 0.52269 0.53890 0.03375
 H235 H 0.38713 0.50138 0.00075
 H236 H 0.61089 0.50075 -0.00036
 C237 C 0.13391 -0.11825 -0.11291
 C238 C 0.15140 -0.09150 -0.11142
 C239 C 0.17949 -0.08916 -0.12858
 C240 C 0.19020 -0.11449 -0.14806
 C241 C 0.17373 -0.14336 -0.15174
 C242 C 0.14461 -0.14476 -0.13282
 O243 O 0.10775 -0.11519 -0.09427
 C244 C 0.10892 -0.08605 -0.08089
 C245 C 0.13538 -0.07084 -0.09082
 C246 C 0.14169 -0.04044 -0.08017
 C247 C 0.12080 -0.02496 -0.05859
 C248 C 0.09272 -0.03867 -0.04637
 C249 C 0.08692 -0.07040 -0.05872
 H250 H 0.19324 -0.06805 -0.12697
 H251 H 0.21235 -0.11133 -0.16006
 H252 H 0.13050 -0.16563 -0.13384
 H253 H 0.16252 -0.02859 -0.08837
 H254 H 0.12675 -0.00138 -0.05170
 H255 H 0.06627 -0.08276 -0.05092
 C256 C 0.13412 0.38338 0.38839
 C257 C 0.15336 0.40856 0.39297
 C258 C 0.18270 0.40968 0.37804
 C259 C 0.19290 0.38474 0.35769
 C260 C 0.17470 0.35747 0.35096
 C261 C 0.14428 0.35728 0.36760
 O262 O 0.10693 0.38741 0.40516
 C263 C 0.10922 0.41557 0.42051
 C264 C 0.13739 0.42922 0.41369
 C265 C 0.14498 0.45843 0.42680
 C266 C 0.12358 0.47431 0.44759
 C267 C 0.09368 0.46216 0.45660
 C268 C 0.08675 0.43163 0.44181
 H269 H 0.19779 0.42954 0.38200
 H270 H 0.21598 0.38686 0.34746
 H271 H 0.12878 0.33766 0.36417
 H272 H 0.16715 0.46911 0.42102
 H273 H 0.13066 0.49701 0.45619
 H274 H 0.06468 0.42048 0.44695
 C275 C 0.64685 -0.10827 0.38426
 C276 C 0.61928 -0.12237 0.39256
 C277 C 0.61191 -0.15205 0.38049
 C278 C 0.63304 -0.16812 0.35955
 C279 C 0.66257 -0.15584 0.34947
 C280 C 0.66896 -0.12443 0.36253
 O281 O 0.64898 -0.07966 0.39876
 C282 C 0.62228 -0.07577 0.41641
 C283 C 0.60345 -0.10145 0.41317
 C284 C 0.57464 -0.10279 0.42917
 C285 C 0.56436 -0.07737 0.44886
 C286 C 0.58186 -0.04928 0.45375
 C287 C 0.61215 -0.04930 0.43679
 H288 H 0.58998 -0.16285 0.38699
 H289 H 0.62552 -0.19058 0.35069
 H290 H 0.69062 -0.11299 0.35631
 H291 H 0.56009 -0.12327 0.42668
 H292 H 0.54223 -0.08026 0.46099
 H293 H 0.62723 -0.02920 0.43898
 C294 C 0.64788 0.39164 -0.11377
 C295 C 0.62297 0.37594 -0.10085
 C296 C 0.61703 0.34493 -0.10967
 C297 C 0.63692 0.32911 -0.13204
 C298 C 0.66389 0.34292 -0.14672
 C299 C 0.66878 0.37570 -0.13692
 O300 O 0.64884 0.42145 -0.10194
 C301 C 0.62410 0.42442 -0.08125
 C302 C 0.60770 0.39697 -0.07998
 C303 C 0.58121 0.39436 -0.06030
 C304 C 0.57071 0.42030 -0.04157
 C305 C 0.58564 0.45020 -0.04131
 C306 C 0.61367 0.45155 -0.06195
 H307 H 0.59709 0.33289 -0.09962
 H308 H 0.63037 0.30555 -0.13820
 H309 H 0.68839 0.38840 -0.14675
 H310 H 0.56859 0.37252 -0.05931
 H311 H 0.55031 0.41666 -0.02667
 H312 H 0.62660 0.47316 -0.06352
 C313 C -0.14903 0.11454 -0.10738
 C314 C -0.12342 0.10373 -0.12374
 C315 C -0.11714 0.11417 -0.15516
 C316 C -0.13738 0.13604 -0.17074
 C317 C -0.16506 0.14864 -0.15631
 C318 C -0.17030 0.13718 -0.12307
 O319 O -0.15022 0.10139 -0.07725
 C320 C -0.12493 0.08200 -0.07474
 C321 C -0.10795 0.08284 -0.10280
 C322 C -0.08082 0.06482 -0.10596
 C323 C -0.07027 0.04558 -0.07996
 C324 C -0.08576 0.04311 -0.04941
 C325 C -0.11446 0.06212 -0.04753
 H326 H -0.09667 0.10575 -0.16771
 H327 H -0.13054 0.14348 -0.19460
 H328 H -0.19046 0.14535 -0.10985
 H329 H -0.06772 0.06549 -0.12828
 H330 H -0.04935 0.03206 -0.08411
 H331 H -0.12788 0.06201 -0.02543
 C332 C -0.14998 0.61404 0.39065
 C333 C -0.12454 0.60291 0.37424
 C334 C -0.11816 0.61330 0.34281
 C335 C -0.13814 0.63544 0.32730
 C336 C -0.16562 0.64838 0.34181
 C337 C -0.17097 0.63696 0.37504
 O338 O -0.15132 0.60086 0.42076
 C339 C -0.12628 0.58114 0.42319
 C340 C -0.10932 0.58180 0.39511
 C341 C -0.08242 0.56345 0.39187
 C342 C -0.07209 0.54405 0.41783
 C343 C -0.08760 0.54173 0.44838
 C344 C -0.11605 0.56109 0.45035
 H345 H -0.09782 0.60463 0.33022
 H346 H -0.13126 0.64283 0.30344
 H347 H -0.19099 0.64538 0.38830
 H348 H -0.06934 0.56400 0.36955
 H349 H -0.05133 0.53029 0.41366
 H350 H -0.12944 0.56111 0.47247
 C351 C 0.36370 0.12071 0.38911
 C352 C 0.34357 0.09665 0.39561
 C353 C 0.31353 0.09647 0.38218
 C354 C 0.30335 0.12139 0.36175
 C355 C 0.32217 0.14788 0.35355
 C356 C 0.35367 0.14667 0.36794
 O357 O 0.39146 0.11592 0.40467
 C358 C 0.38866 0.08840 0.42117
 C359 C 0.35962 0.07587 0.41621
 C360 C 0.35142 0.04743 0.43069
 C361 C 0.37304 0.03120 0.45099
 C362 C 0.40382 0.04223 0.45826
 C363 C 0.41136 0.07199 0.44204
 H364 H 0.29792 0.07725 0.38723
 H365 H 0.28017 0.11934 0.35177
 H366 H 0.36982 0.16549 0.36318
 H367 H 0.32856 0.03758 0.42636
 H368 H 0.36533 0.00912 0.46064
 H369 H 0.43408 0.08232 0.44577
 C370 C 0.34890 0.60987 -0.11257
 C371 C 0.37501 0.62503 -0.10165
 C372 C 0.38169 0.65547 -0.11204
 C373 C 0.36149 0.67110 -0.13426
 C374 C 0.33365 0.65759 -0.14727
 C375 C 0.32754 0.62574 -0.13528
 O376 O 0.34739 0.58057 -0.09953
 C377 C 0.37296 0.57735 -0.08003
 C378 C 0.39040 0.60419 -0.08066
 C379 C 0.41776 0.60652 -0.06230
 C380 C 0.42812 0.58090 -0.04302
 C381 C 0.41228 0.55151 -0.04105
 C382 C 0.38331 0.55050 -0.06027
 H383 H 0.40231 0.66723 -0.10317
 H384 H 0.36774 0.69466 -0.14092
 H385 H 0.30705 0.61348 -0.14367
 H386 H 0.43115 0.62791 -0.06269
 H387 H 0.44914 0.58446 -0.02908
 H388 H 0.36958 0.52935 -0.06043
 C389 C -0.14919 -0.10896 0.11334
 C390 C -0.12101 -0.12210 0.10578
 C391 C -0.11258 -0.15111 0.11866
 C392 C -0.13308 -0.16744 0.13998
 C393 C -0.16327 -0.15625 0.14974
 C394 C -0.17106 -0.12571 0.13500
 O395 O -0.15202 -0.08060 0.09829
 C396 C -0.12515 -0.07606 0.08096
 C397 C -0.10569 -0.10115 0.08487
 C398 C -0.07685 -0.10219 0.06902
 C399 C -0.06703 -0.07697 0.04891
 C400 C -0.08475 -0.04903 0.04375
 C401 C -0.11528 -0.04947 0.06040
 H402 H -0.09032 -0.16130 0.11234
 H403 H -0.12484 -0.18992 0.14787
 H404 H -0.19321 -0.11492 0.14056
 H405 H -0.06194 -0.12237 0.07186
 H406 H -0.04490 -0.07988 0.03680
 H407 H -0.13064 -0.02961 0.05795
 C408 C -0.15119 0.39104 0.61251
 C409 C -0.12448 0.37628 0.60264
 C410 C -0.11738 0.34623 0.61393
 C411 C -0.13777 0.33060 0.63600
 C412 C -0.16622 0.34370 0.64803
 C413 C -0.17273 0.37516 0.63509
 O414 O -0.15307 0.42000 0.59866
 C415 C -0.12710 0.42340 0.57973
 C416 C -0.10906 0.39702 0.58151
 C417 C -0.08119 0.39495 0.56394
 C418 C -0.07095 0.42036 0.54426
 C419 C -0.08742 0.44930 0.54103
 C420 C -0.11690 0.45003 0.55950
 H421 H -0.09630 0.33476 0.60587
 H422 H -0.13112 0.30733 0.64330
 H423 H -0.19370 0.38713 0.64265
 H424 H -0.06730 0.37391 0.56523
 H425 H -0.04952 0.41695 0.53097
 H426 H -0.13116 0.47082 0.55870
 C427 C 0.35207 -0.11408 0.61240
 C428 C 0.37780 -0.10339 0.62861
 C429 C 0.38408 -0.11370 0.66000
 C430 C 0.36379 -0.13536 0.67572
 C431 C 0.33605 -0.14822 0.66135
 C432 C 0.33086 -0.13677 0.62806
 O433 O 0.35068 -0.10076 0.58239
 C434 C 0.37603 -0.08148 0.57983
 C435 C 0.39330 -0.08259 0.60767
 C436 C 0.42071 -0.06490 0.61061
 C437 C 0.43115 -0.04560 0.58461
 C438 C 0.41507 -0.04263 0.55448
 C439 C 0.38623 -0.06138 0.55280
 H440 H 0.40461 -0.10528 0.67247
 H441 H 0.37113 -0.14243 0.69946
 H442 H 0.31074 -0.14484 0.61473
 H443 H 0.43408 -0.06589 0.63274
 H444 H 0.45225 -0.03229 0.58851
 H445 H 0.37240 -0.06078 0.53098
 C446 C 0.34900 0.39319 0.11446
 C447 C 0.37477 0.37774 0.10311
 C448 C 0.38118 0.34718 0.11326
 C449 C 0.36107 0.33171 0.13570
 C450 C 0.33360 0.34553 0.14920
 C451 C 0.32775 0.37751 0.13743
 O452 O 0.34770 0.42256 0.10155
 C453 C 0.37306 0.42552 0.08170
 C454 C 0.39015 0.39847 0.08198
 C455 C 0.41727 0.39587 0.06326
 C456 C 0.42771 0.42144 0.04395
 C457 C 0.41221 0.45102 0.04227
 C458 C 0.38349 0.45232 0.06189
 H459 H 0.40152 0.33518 0.10404
 H460 H 0.36711 0.30804 0.14214
 H461 H 0.30754 0.39001 0.14618
 H462 H 0.43039 0.37431 0.06340
 H463 H 0.44853 0.41768 0.02973
 H464 H 0.37002 0.47363 0.06230
 C465 C 0.13349 0.12278 0.11630
 C466 C 0.15100 0.09605 0.11477
 C467 C 0.17909 0.09371 0.13192
 C468 C 0.18979 0.11901 0.15145
 C469 C 0.17329 0.14786 0.15523
 C470 C 0.14417 0.14927 0.13630
 O471 O 0.10734 0.11974 0.09763
 C472 C 0.10853 0.09062 0.08418
 C473 C 0.13500 0.07541 0.09411
 C474 C 0.14133 0.04503 0.08343
 C475 C 0.12047 0.02956 0.06181
 C476 C 0.09240 0.04326 0.04953
 C477 C 0.08658 0.07498 0.06193
 H478 H 0.19286 0.07262 0.13025
 H479 H 0.21195 0.11583 0.16340
 H480 H 0.13003 0.17013 0.13737
 H481 H 0.16214 0.03317 0.09165
 H482 H 0.12645 0.00599 0.05491
 H483 H 0.06594 0.08735 0.05411
 C484 C 0.14653 0.61214 0.61559
 C485 C 0.11917 0.62641 0.60687
 C486 C 0.11184 0.65619 0.61865
 C487 C 0.13283 0.67218 0.63974
 C488 C 0.16213 0.65968 0.65019
 C489 C 0.16848 0.62819 0.63745
 O490 O 0.14865 0.58346 0.60131
 C491 C 0.12214 0.57970 0.58338
 C492 C 0.10345 0.60553 0.58623
 C493 C 0.07484 0.60702 0.56989
 C494 C 0.06462 0.58159 0.55025
 C495 C 0.08203 0.55339 0.54580
 C496 C 0.11210 0.55324 0.56307
 H497 H 0.09006 0.66711 0.61182
 H498 H 0.12542 0.69476 0.64840
 H499 H 0.18998 0.61664 0.64400
 H500 H 0.06041 0.62762 0.57210
 H501 H 0.04265 0.58451 0.53783
 H502 H 0.12705 0.53301 0.56119
 C503 C 0.63337 0.12024 0.61246
 C504 C 0.65224 0.09467 0.60855
 C505 C 0.68118 0.09315 0.62430
 C506 C 0.69135 0.11805 0.64476
 C507 C 0.67359 0.14577 0.65074
 C508 C 0.64357 0.14637 0.63329
 O509 O 0.60648 0.11655 0.59509
 C510 C 0.60856 0.08822 0.57999
 C511 C 0.63633 0.07413 0.58756
 C512 C 0.64367 0.04472 0.57472
 C513 C 0.62245 0.02909 0.55349
 C514 C 0.59291 0.04163 0.54379
 C515 C 0.58622 0.07238 0.55829
 H516 H 0.69598 0.07296 0.62092
 H517 H 0.71409 0.11556 0.65572
 H518 H 0.62838 0.16630 0.63614
 H519 H 0.66554 0.03370 0.58102
 H520 H 0.62933 0.00626 0.54506
 H521 H 0.56445 0.08386 0.55262
 C522 C 0.64845 0.60990 0.11303
 C523 C 0.62388 0.62580 0.09969
 C524 C 0.61831 0.65700 0.10806
 C525 C 0.63823 0.67278 0.13042
 C526 C 0.66483 0.65873 0.14554
 C527 C 0.66935 0.62578 0.13621
 O528 O 0.64911 0.57995 0.10157
 C529 C 0.62453 0.57709 0.08068
 C530 C 0.60851 0.60474 0.07892
 C531 C 0.58221 0.60749 0.05899
 C532 C 0.57150 0.58146 0.04050
 C533 C 0.58608 0.55140 0.04072
 C534 C 0.61391 0.54989 0.06162
 H535 H 0.59864 0.66921 0.09765
 H536 H 0.63201 0.69652 0.13623
 H537 H 0.68868 0.61292 0.14639
 H538 H 0.56987 0.62946 0.05764
 H539 H 0.55123 0.58515 0.02543
 H540 H 0.62653 0.52814 0.06357
   
