data_POSCAR
  _audit_creation_date              2014-09-24
  _audit_creation_method            'ToBaCCo'
  _symmetry_space_group_name_H-M    'P1'
  _symmetry_Int_Tables_number       1
  _symmetry_cell_setting            triclinic
  loop_
  _symmetry_equiv_pos_as_xyz
 x,y,z
_cell_length_a 20.4010
_cell_length_b 20.4961
_cell_length_c 23.6661
_cell_angle_alpha 90.030400
_cell_angle_beta 89.999900
_cell_angle_gamma 90.000200
loop_
  _atom_site_label
  _atom_site_type_symbol
  _atom_site_fract_x
  _atom_site_fract_y
  _atom_site_fract_z
Si1 Si 1.24885 0.24998 0.25009
 Si2 Si 0.75063 -0.25001 0.25009
 Si3 Si 0.75204 0.24998 -0.24991
 Si4 Si 1.24950 -0.25002 -0.24991
 Si5 Si 0.25012 0.24999 0.75009
 Si6 Si 0.74805 0.74999 0.75009
 Si7 Si 0.74895 0.24998 0.25009
 Si8 Si 0.25162 0.74998 0.25009
 O9 O 1.12521 0.07326 0.04020
 O10 O 0.87637 -0.07602 0.03932
 O11 O 0.92503 0.12320 0.03865
 O12 O 1.07639 -0.12630 0.04029
 O13 O 0.88854 0.03380 0.07079
 O14 O 1.11330 -0.03673 0.07197
 O15 O 0.96615 -0.11264 0.07149
 O16 O 1.03493 0.11069 0.07097
 C17 C 1.09424 0.10222 0.07795
 C18 C 0.90676 -0.10427 0.07776
 C19 C 0.89600 0.09315 0.07691
 C20 C 1.10590 -0.09613 0.07834
 O21 O 1.12543 -0.07699 -0.03733
 O22 O 0.87667 0.07365 -0.03885
 O23 O 1.07692 0.12260 -0.03757
 O24 O 0.92529 -0.12586 -0.03780
 O25 O 0.88931 -0.03616 -0.06994
 O26 O 1.11411 0.03310 -0.06916
 O27 O 1.03544 -0.11366 -0.06906
 O28 O 0.96691 0.11001 -0.07025
 Co29 Co 1.10806 -0.00180 0.00136
 Co30 Co 0.89423 -0.00121 0.00041
 Co31 Co 1.00093 0.10504 0.00046
 Co32 Co 1.00082 -0.10798 0.00121
 O33 O 1.00103 -0.00149 0.00087
 C34 C 1.09479 -0.10530 -0.07564
 C35 C 0.90743 0.10228 -0.07691
 C36 C 1.10599 0.09235 -0.07570
 C37 C 0.89648 -0.09554 -0.07607
 O38 O 1.12542 0.57696 0.53750
 O39 O 0.87666 0.42632 0.53903
 O40 O 0.92529 0.62583 0.53797
 O41 O 1.07692 0.37737 0.53775
 O42 O 0.88931 0.53614 0.57011
 O43 O 1.11410 0.46688 0.56934
 O44 O 0.96690 0.38997 0.57043
 O45 O 1.03544 0.61363 0.56923
 C46 C 1.09479 0.60527 0.57581
 C47 C 0.90743 0.39769 0.57709
 C48 C 0.89647 0.59551 0.57624
 C49 C 1.10599 0.40762 0.57588
 O50 O 1.12521 0.42671 0.45998
 O51 O 0.87637 0.57599 0.46085
 O52 O 1.07639 0.62627 0.45988
 O53 O 0.92503 0.37677 0.46153
 O54 O 0.88854 0.46616 0.42939
 O55 O 1.11329 0.53670 0.42820
 O56 O 1.03493 0.38928 0.42920
 O57 O 0.96615 0.61260 0.42868
 Co58 Co 1.10805 0.50177 0.49882
 Co59 Co 0.89423 0.50118 0.49977
 Co60 Co 1.00082 0.60795 0.49896
 Co61 Co 1.00092 0.39493 0.49972
 O62 O 1.00103 0.50146 0.49931
 C63 C 1.09424 0.39775 0.42222
 C64 C 0.90676 0.60423 0.42241
 C65 C 1.10590 0.59610 0.42183
 C66 C 0.89599 0.40681 0.42327
 O67 O 0.61105 0.03430 0.57062
 O68 O 0.38631 -0.03536 0.56938
 O69 O 0.46462 0.11073 0.57042
 O70 O 0.53284 -0.11295 0.56965
 O71 O 0.37445 0.07440 0.53858
 O72 O 0.62305 -0.07556 0.53879
 O73 O 0.42262 -0.12477 0.53712
 O74 O 0.57476 0.12389 0.53870
 C75 C 0.60382 0.09368 0.57686
 C76 C 0.39413 -0.09459 0.57559
 C77 C 0.40513 0.10288 0.57683
 C78 C 0.59220 -0.10443 0.57665
 O79 O 0.61174 -0.03510 0.42961
 O80 O 0.38728 0.03466 0.42894
 O81 O 0.53366 0.11145 0.42959
 O82 O 0.46424 -0.11215 0.42834
 O83 O 0.37406 -0.07517 0.45956
 O84 O 0.62366 0.07463 0.46121
 O85 O 0.57447 -0.12468 0.46095
 O86 O 0.42356 0.12397 0.46152
 Co87 Co 0.60587 -0.00042 0.50003
 Co88 Co 0.39207 -0.00038 0.49916
 Co89 Co 0.49911 0.10591 0.50000
 Co90 Co 0.49857 -0.10711 0.49906
 O91 O 0.49892 -0.00052 0.49955
 C92 C 0.60369 -0.09430 0.42303
 C93 C 0.39503 0.09393 0.42300
 C94 C 0.59311 0.10340 0.42310
 C95 C 0.40471 -0.10434 0.42162
 O96 O 0.61175 0.53507 0.07056
 O97 O 0.38729 0.46531 0.07124
 O98 O 0.46425 0.61212 0.07184
 O99 O 0.53366 0.38852 0.07059
 O100 O 0.37407 0.57514 0.04062
 O101 O 0.62367 0.42534 0.03897
 O102 O 0.42356 0.37599 0.03866
 O103 O 0.57447 0.62465 0.03922
 C104 C 0.60370 0.59427 0.07714
 C105 C 0.39504 0.40604 0.07718
 C106 C 0.40472 0.60431 0.07855
 C107 C 0.59312 0.39657 0.07708
 O108 O 0.61105 0.46566 -0.07044
 O109 O 0.38631 0.53532 -0.06920
 O110 O 0.53284 0.61291 -0.06948
 O111 O 0.46462 0.38924 -0.07024
 O112 O 0.37446 0.42556 -0.03841
 O113 O 0.62306 0.57553 -0.03862
 O114 O 0.57477 0.37608 -0.03852
 O115 O 0.42263 0.62474 -0.03695
 Co116 Co 0.60588 0.50039 0.00014
 Co117 Co 0.39207 0.50034 0.00102
 Co118 Co 0.49858 0.60707 0.00112
 Co119 Co 0.49912 0.39405 0.00018
 O120 O 0.49893 0.50049 0.00062
 C121 C 0.60382 0.40629 -0.07668
 C122 C 0.39414 0.59455 -0.07541
 C123 C 0.59220 0.60440 -0.07648
 C124 C 0.40514 0.39708 -0.07665
 N125 N 1.13315 0.20638 0.19979
 C126 C 1.19899 0.19828 0.20371
 N127 N 1.22937 0.15633 0.16812
 N128 N 1.19522 0.12407 0.12928
 C129 C 1.12954 0.13280 0.12462
 N130 N 1.09885 0.17402 0.16090
 N131 N 1.13379 0.70696 0.69929
 C132 C 1.19961 0.69866 0.70324
 N133 N 1.22999 0.65742 0.66700
 N134 N 1.19589 0.62607 0.62755
 C135 C 1.13023 0.63503 0.62287
 N136 N 1.09955 0.67548 0.65982
 N137 N 0.70839 0.13413 0.69932
 C138 C 0.70076 0.19986 0.70251
 N139 N 0.65937 0.22972 0.66598
 N140 N 0.62722 0.19529 0.62715
 C141 C 0.63533 0.12969 0.62327
 N142 N 0.67611 0.09955 0.66042
 N143 N 0.70774 0.63444 0.19951
 C144 C 0.69957 0.70005 0.20292
 N145 N 0.65787 0.72990 0.16670
 N146 N 0.62592 0.69548 0.12781
 C147 C 0.63463 0.63002 0.12365
 N148 N 0.67567 0.59989 0.16054
 N149 N 0.77063 -0.15732 0.16732
 C150 C 0.80073 -0.19864 0.20361
 N151 N 0.86663 -0.20659 0.20033
 N152 N 0.90128 -0.17474 0.16140
 C153 C 0.87091 -0.13419 0.12441
 N154 N 0.80515 -0.12557 0.12842
 N155 N 0.77184 0.34313 0.66716
 C156 C 0.80216 0.30165 0.70320
 N157 N 0.86810 0.29386 0.69948
 N158 N 0.90247 0.32606 0.66048
 C159 C 0.87184 0.36687 0.62379
 N160 N 0.80605 0.37522 0.62821
 N161 N 0.34152 -0.23006 0.66601
 C162 C 0.30040 -0.20013 0.70271
 N163 N 0.29212 -0.13454 0.69926
 N164 N 0.32353 -0.10012 0.65984
 C165 C 0.36392 -0.13034 0.62245
 N166 N 0.37279 -0.19578 0.62663
 N167 N 0.29201 0.36550 0.19995
 C168 C 0.29984 0.29983 0.20290
 N169 N 0.34107 0.27000 0.16624
 N170 N 0.37286 0.30451 0.12734
 C171 C 0.36446 0.37005 0.12365
 N172 N 0.32393 0.40014 0.16100
 N173 N 0.86810 0.20611 -0.19930
 C174 C 0.80216 0.19832 -0.20303
 N175 N 0.77184 0.15683 -0.16698
 N176 N 0.80606 0.12474 -0.12804
 C177 C 0.87184 0.13310 -0.12362
 N178 N 0.90247 0.17391 -0.16031
 N179 N 0.86663 0.70656 0.29984
 C180 C 0.80072 0.69861 0.29656
 N181 N 0.77063 0.65730 0.33285
 N182 N 0.80514 0.62555 0.37175
 C183 C 0.87091 0.63416 0.37576
 N184 N 0.90128 0.67471 0.33877
 N185 N 0.34106 0.22997 0.33394
 C186 C 0.29984 0.20014 0.29728
 N187 N 0.29200 0.13447 0.30022
 N188 N 0.32393 0.09983 0.33918
 C189 C 0.36445 0.12992 0.37653
 N190 N 0.37286 0.19546 0.37284
 N191 N 0.34152 0.73002 -0.16584
 C192 C 0.30040 0.70009 -0.20254
 N193 N 0.29212 0.63450 -0.19909
 N194 N 0.32353 0.60008 -0.15967
 C195 C 0.36393 0.63030 -0.12228
 N196 N 0.37280 0.69574 -0.12646
 N197 N 1.13379 -0.20700 -0.19912
 C198 C 1.19961 -0.19870 -0.20306
 N199 N 1.22999 -0.15746 -0.16682
 N200 N 1.19589 -0.12610 -0.12737
 C201 C 1.13024 -0.13507 -0.12270
 N202 N 1.09955 -0.17552 -0.15964
 N203 N 1.13315 0.29358 0.30038
 C204 C 1.19899 0.30169 0.29647
 N205 N 1.22937 0.34364 0.33206
 N206 N 1.19522 0.37590 0.37089
 C207 C 1.12953 0.36717 0.37556
 N208 N 1.09885 0.32595 0.33927
 N209 N 0.65787 -0.22992 0.33347
 C210 C 0.69957 -0.20008 0.29725
 N211 N 0.70774 -0.13446 0.30067
 N212 N 0.67567 -0.09992 0.33964
 C213 C 0.63463 -0.13005 0.37652
 N214 N 0.62591 -0.19551 0.37236
 N215 N 0.65937 0.27024 -0.16581
 C216 C 0.70076 0.30010 -0.20234
 N217 N 0.70839 0.36584 -0.19915
 N218 N 0.67611 0.40041 -0.16025
 C219 C 0.63533 0.37028 -0.12310
 N220 N 0.62722 0.30468 -0.12697
 N221 N 1.15793 0.22866 -0.16581
 C222 C 1.19943 0.19931 -0.20254
 N223 N 1.20832 0.13374 -0.19919
 N224 N 1.17713 0.09882 -0.15992
 C225 C 1.13628 0.12847 -0.12253
 N226 N 1.12686 0.19388 -0.12661
 N227 N 1.21114 0.63663 0.29937
 C228 C 1.20269 0.70226 0.29536
 N229 N 1.16054 0.73195 0.33147
 N230 N 1.12858 0.69761 0.37054
 C231 C 1.13753 0.63216 0.37518
 N232 N 1.17901 0.60215 0.33846
 N233 N 0.72900 0.15724 0.33320
 C234 C 0.69880 0.19860 0.29698
 N235 N 0.63288 0.20655 0.30056
 N236 N 0.59839 0.17460 0.33960
 C237 C 0.62888 0.13394 0.37646
 N238 N 0.69465 0.12541 0.37220
 N239 N 0.72775 0.65663 -0.16741
 C240 C 0.69771 0.69847 -0.20330
 N241 N 0.63193 0.70722 -0.19922
 N242 N 0.59740 0.67559 -0.16001
 C243 C 0.62776 0.63448 -0.12344
 N244 N 0.69337 0.62512 -0.12824
 N245 N 0.79215 -0.13477 -0.19878
 C246 C 0.79942 -0.20051 -0.20218
 N247 N 0.84055 -0.23082 -0.16571
 N248 N 0.87279 -0.19681 -0.12667
 C249 C 0.86502 -0.13121 -0.12259
 N250 N 0.82454 -0.10063 -0.15969
 N251 N 0.84138 0.27054 0.33415
 C252 C 0.80005 0.30024 0.29749
 N253 N 0.79216 0.36594 0.30059
 N254 N 0.82414 0.40065 0.33956
 C255 C 0.86484 0.37067 0.37685
 N256 N 0.87324 0.30511 0.37306
 N257 N 0.36517 -0.20921 0.29951
 C258 C 0.29934 -0.20073 0.29495
 N259 N 0.26918 -0.15850 0.33059
 N260 N 0.30333 -0.12645 0.36971
 C261 C 0.36899 -0.13548 0.37483
 N262 N 0.39947 -0.17703 0.33863
 N263 N 0.26961 0.34265 -0.16668
 C264 C 0.30004 0.30142 -0.20291
 N265 N 0.36599 0.29381 -0.19933
 N266 N 0.40029 0.32595 -0.16025
 C267 C 0.36956 0.36647 -0.12336
 N268 N 0.30376 0.37466 -0.12764
 N269 N 1.16054 -0.23198 0.16869
 C270 C 1.20269 -0.20230 0.20481
 N271 N 1.21114 -0.13667 0.20081
 N272 N 1.17902 -0.10219 0.16171
 C273 C 1.13753 -0.13219 0.12499
 N274 N 1.12858 -0.19764 0.12963
 N275 N 1.15792 0.27132 0.66598
 C276 C 1.19943 0.30066 0.70272
 N277 N 1.20832 0.36623 0.69937
 N278 N 1.17712 0.40116 0.66009
 C279 C 1.13628 0.37150 0.62271
 N280 N 1.12686 0.30610 0.62679
 N281 N 0.63193 -0.20725 0.69939
 C282 C 0.69771 -0.19850 0.70347
 N283 N 0.72774 -0.15666 0.66758
 N284 N 0.69337 -0.12515 0.62842
 C285 C 0.62775 -0.13452 0.62361
 N286 N 0.59740 -0.17563 0.66018
 N287 N 0.63288 0.29342 0.19962
 C288 C 0.69880 0.30136 0.20320
 N289 N 0.72901 0.34272 0.16698
 N290 N 0.69466 0.37455 0.12798
 C291 C 0.62889 0.36603 0.12371
 N292 N 0.59839 0.32536 0.16058
 N293 N 0.84139 0.22943 0.16602
 C294 C 0.80005 0.19973 0.20268
 N295 N 0.79216 0.13403 0.19959
 N296 N 0.82415 0.09931 0.16062
 C297 C 0.86484 0.12929 0.12333
 N298 N 0.87324 0.19485 0.12712
 N299 N 0.79215 0.63475 0.69895
 C300 C 0.79942 0.70048 0.70235
 N301 N 0.84054 0.73080 0.66588
 N302 N 0.87279 0.69679 0.62684
 C303 C 0.86502 0.63118 0.62276
 N304 N 0.82454 0.60060 0.65987
 N305 N 0.26960 0.15733 0.66686
 C306 C 0.30004 0.19855 0.70309
 N307 N 0.36599 0.20616 0.69951
 N308 N 0.40028 0.17402 0.66043
 C309 C 0.36955 0.13350 0.62354
 N310 N 0.30375 0.12531 0.62782
 N311 N 0.26918 0.65847 0.16958
 C312 C 0.29934 0.70070 0.20523
 N313 N 0.36517 0.70918 0.20066
 N314 N 0.39948 0.67700 0.16155
 C315 C 0.36899 0.63545 0.12535
 N316 N 0.30333 0.62642 0.13046
   
