data_POSCAR
  _audit_creation_date              2014-09-24
  _audit_creation_method            'ToBaCCo'
  _symmetry_space_group_name_H-M    'P1'
  _symmetry_Int_Tables_number       1
  _symmetry_cell_setting            triclinic
  loop_
  _symmetry_equiv_pos_as_xyz
 x,y,z
_cell_length_a 32.1728
_cell_length_b 32.1725
_cell_length_c 32.1725
_cell_angle_alpha 90.114200
_cell_angle_beta 89.885800
_cell_angle_gamma 90.114600
loop_
  _atom_site_label
  _atom_site_type_symbol
  _atom_site_fract_x
  _atom_site_fract_y
  _atom_site_fract_z
N1 N 0.36090 0.35775 1.35602
 N2 N 1.14226 0.64399 0.86089
 N3 N 0.63626 -0.13626 0.13627
 N4 N -0.14397 1.13911 -0.35774
 N5 N 0.64619 0.64380 0.64127
 N6 N 0.85620 0.35873 0.14619
 N7 N 0.35515 0.14485 0.85516
 N8 N 0.14127 0.85383 0.35622
 Zn9 Zn 0.00801 1.05258 -0.02277
 Zn10 Zn -0.03382 0.96919 -0.03175
 Zn11 Zn 0.04938 0.97735 0.01027
 Zn12 Zn -0.02578 1.01035 0.05195
 O13 O -0.00070 1.00222 0.00175
 O14 O -0.01617 1.05573 -0.07226
 O15 O -0.00863 0.92078 -0.04596
 O16 O 0.09241 1.00665 -0.00950
 O17 O -0.04735 0.99469 -0.07996
 O18 O 0.06180 1.06381 -0.03207
 O19 O 0.05217 0.92813 -0.01446
 O20 O 0.00316 0.99024 0.09482
 O21 O -0.08250 0.95529 -0.00682
 O22 O 0.06019 0.96738 0.06392
 O23 O -0.07501 0.98569 0.05460
 O24 O -0.03571 1.06387 0.06326
 O25 O -0.01228 1.09520 0.00669
 C26 C -0.03813 1.03071 -0.09340
 C27 C 0.02727 0.90717 -0.03669
 C28 C 0.09421 1.04223 -0.02627
 C29 C 0.03855 0.97310 0.09641
 C30 C -0.09609 0.96404 0.02931
 C31 C -0.02974 1.09650 0.04203
 Zn32 Zn 0.48966 -0.05194 0.47423
 Zn33 Zn 0.53082 0.03177 0.46619
 Zn34 Zn 0.44743 0.02279 0.50802
 Zn35 Zn 0.52266 -0.01025 0.54939
 O36 O 0.49779 -0.00174 0.49931
 O37 O 0.51431 -0.05458 0.42500
 O38 O 0.50532 0.07998 0.45266
 O39 O 0.40481 -0.00668 0.48773
 O40 O 0.54472 0.00683 0.41751
 O41 O 0.43614 -0.06324 0.46430
 O42 O 0.44429 0.07228 0.48384
 O43 O 0.49336 0.00951 0.59242
 O44 O 0.57923 0.04597 0.49138
 O45 O 0.43620 0.03208 0.56181
 O46 O 0.57188 0.01448 0.55218
 O47 O 0.53263 -0.06391 0.56020
 O48 O 0.50977 -0.09480 0.50317
 C49 C 0.53597 -0.02930 0.40392
 C50 C 0.46930 0.09341 0.46187
 C51 C 0.40351 -0.04201 0.47027
 C52 C 0.45778 0.02628 0.59422
 C53 C 0.59284 0.03671 0.52728
 C54 C 0.52691 -0.09639 0.53855
 Zn55 Zn 1.01222 0.44668 0.47792
 Zn56 Zn 1.05333 0.52209 0.51221
 Zn57 Zn 0.97031 0.52970 0.47031
 Zn58 Zn 0.97792 0.48779 0.55333
 O59 O 1.00336 0.49665 0.50335
 O60 O 1.06601 0.43655 0.46786
 O61 O 1.05617 0.57153 0.48768
 O62 O 0.95563 0.50443 0.42249
 O63 O 1.09670 0.49313 0.49232
 O64 O 0.98768 0.44385 0.42847
 O65 O 0.99558 0.57752 0.45562
 O66 O 0.92848 0.51233 0.55616
 O67 O 1.06346 0.53214 0.56600
 O68 O 0.92249 0.54438 0.49558
 O69 O 1.00688 0.50769 0.59670
 O70 O 0.96787 0.43400 0.56346
 O71 O 0.99232 0.40330 0.50687
 C72 C 1.09846 0.45808 0.47425
 C73 C 1.03121 0.59176 0.46499
 C74 C 0.96499 0.46880 0.40825
 C75 C 0.90825 0.53502 0.53120
 C76 C 1.04193 0.52576 0.59845
 C77 C 0.97426 0.40155 0.54192
 Zn78 Zn 0.47722 0.49199 0.94742
 Zn79 Zn 0.55194 0.52579 0.98966
 Zn80 Zn 0.46824 0.53382 1.03082
 Zn81 Zn 0.51026 0.45063 1.02266
 O82 O 0.50174 0.50071 0.99778
 O83 O 0.50669 0.51228 0.90481
 O84 O 0.55459 0.57501 1.01431
 O85 O 0.42003 0.54736 1.00532
 O86 O 0.56325 0.53572 0.93614
 O87 O 0.42773 0.51618 0.94428
 O88 O 0.49318 0.58250 1.04472
 O89 O 0.48553 0.44783 1.07187
 O90 O 0.59481 0.49685 1.00977
 O91 O 0.45403 0.50864 1.07923
 O92 O 0.56391 0.43982 1.03262
 O93 O 0.49049 0.40760 0.99336
 O94 O 0.46793 0.43821 0.93620
 C95 C 0.54202 0.52975 0.90350
 C96 C 0.52930 0.59609 1.03596
 C97 C 0.40660 0.53814 0.96929
 C98 C 0.46330 0.47274 1.09284
 C99 C 0.59640 0.46146 1.02691
 C100 C 0.47372 0.40579 0.95777
 C101 C 1.25070 0.40071 0.40786
 N102 N 1.28419 0.42629 0.40447
 N103 N 1.31951 0.41270 0.38749
 C104 C 1.32259 0.37299 0.37340
 N105 N 1.28904 0.34754 0.37665
 N106 N 1.25375 0.36116 0.39346
 C107 C 1.21158 0.41541 0.42637
 N108 N 1.17727 0.39078 0.42586
 N109 N 1.14145 0.40416 0.44175
 C110 C 1.13864 0.44257 0.45905
 N111 N 1.17304 0.46712 0.45987
 N112 N 1.20886 0.45379 0.44381
 C113 C 0.25165 0.59623 0.91100
 N114 N 0.23816 0.58391 0.87299
 N115 N 0.20305 0.59896 0.85724
 C116 C 0.18004 0.62721 0.87866
 N117 N 0.19331 0.63889 0.91709
 N118 N 0.22845 0.62383 0.93292
 C119 C 0.29130 0.58061 0.92727
 N120 N 0.30559 0.59234 0.96529
 N121 N 0.34219 0.57871 0.97911
 C122 C 0.36580 0.55299 0.95531
 N123 N 0.35137 0.54127 0.91743
 N124 N 0.31486 0.55478 0.90369
 C125 C -0.25261 0.90860 0.08718
 N126 N -0.27964 0.88726 0.06278
 N127 N -0.31558 0.87347 0.07829
 C128 C -0.32582 0.88043 0.11877
 N129 N -0.29875 0.90201 0.14294
 N130 N -0.26295 0.91586 0.12745
 C131 C -0.21236 0.92311 0.07107
 N132 N -0.18671 0.94525 0.09614
 N133 N -0.14985 0.95811 0.08249
 C134 C -0.13704 0.94927 0.04326
 N135 N -0.16264 0.92710 0.01798
 N136 N -0.19970 0.91423 0.03168
 C137 C 0.74783 0.09347 0.58757
 N138 N 0.76138 0.07832 0.62441
 N139 N 0.79634 0.09237 0.64141
 C140 C 0.81943 0.12212 0.62234
 N141 N 0.80580 0.13731 0.58532
 N142 N 0.77073 0.12320 0.56819
 C143 C 0.70820 0.07855 0.57040
 N144 N 0.69358 0.09201 0.53315
 N145 N 0.65694 0.07864 0.51885
 C146 C 0.63369 0.05149 0.54144
 N147 N 0.64848 0.03812 0.57852
 N148 N 0.68497 0.05132 0.59268
 C149 C 0.41101 0.24836 0.40378
 N150 N 0.43293 0.27156 0.37618
 N151 N 0.41709 0.30670 0.36112
 C152 C 0.37866 0.31997 0.37281
 N153 N 0.35725 0.29696 0.40106
 N154 N 0.37300 0.26185 0.41610
 C155 C 0.42728 0.20871 0.41940
 N156 N 0.40370 0.18515 0.44524
 N157 N 0.41744 0.14864 0.45875
 C158 C 0.45531 0.13421 0.44703
 N159 N 0.47912 0.15781 0.42130
 N160 N 0.46529 0.19442 0.40767
 C161 C 0.90787 0.24930 0.59929
 N162 N 0.89347 0.24625 0.63884
 N163 N 0.87666 0.21097 0.65247
 C164 C 0.87341 0.17741 0.62702
 N165 N 0.88749 0.18050 0.58731
 N166 N 0.90448 0.21581 0.57371
 C167 C 0.92638 0.28843 0.58460
 N168 N 0.94382 0.29114 0.54622
 N169 N 0.95988 0.32697 0.53288
 C170 C 0.95906 0.36136 0.55744
 N171 N 0.94176 0.35856 0.59584
 N172 N 0.92587 0.32274 0.60922
 C173 C 0.08756 0.75218 -0.09346
 N174 N 0.06818 0.72928 -0.12320
 N175 N 0.08531 0.69422 -0.13731
 C176 C 0.12234 0.68058 -0.12211
 N177 N 0.14141 0.70367 -0.09236
 N178 N 0.12440 0.73863 -0.07830
 C179 C 0.07040 0.79181 -0.07853
 N180 N 0.09267 0.81503 -0.05130
 N181 N 0.07850 0.85153 -0.03810
 C182 C 0.04143 0.86632 -0.05148
 N183 N 0.01884 0.84307 -0.07863
 N184 N 0.03314 0.80644 -0.09200
 C185 C 0.58717 0.75261 1.09141
 N186 N 0.56277 0.77965 1.11276
 N187 N 0.57828 0.81558 1.12655
 C188 C 0.61876 0.82583 1.11959
 N189 N 0.64293 0.79876 1.09800
 N190 N 0.62744 0.76295 1.08414
 C191 C 0.57106 0.71236 1.07689
 N192 N 0.59613 0.68672 1.05475
 N193 N 0.58248 0.64986 1.04189
 C194 C 0.54325 0.63704 1.05074
 N195 N 0.51797 0.66265 1.07291
 N196 N 0.53167 0.69971 1.08578
 C197 C 0.40653 0.41244 1.24783
 N198 N 0.42169 0.37560 1.26138
 N199 N 0.40764 0.35860 1.29633
 C200 C 0.37789 0.37767 1.31942
 N201 N 0.36269 0.41469 1.30579
 N202 N 0.37680 0.43182 1.27073
 C203 C 0.42146 0.42961 1.20819
 N204 N 0.40799 0.46686 1.19357
 N205 N 0.42137 0.48117 1.15694
 C206 C 0.44851 0.45857 1.13368
 N207 N 0.46189 0.42150 1.14847
 N208 N 0.44869 0.40733 1.18497
 C209 C 0.59140 -0.08716 0.24740
 N210 N 0.61275 -0.06276 0.22037
 N211 N 0.62654 -0.07828 0.18443
 C212 C 0.61958 -0.11876 0.17418
 N213 N 0.59800 -0.14293 0.20126
 N214 N 0.58414 -0.12743 0.23706
 C215 C 0.57689 -0.07105 0.28765
 N216 N 0.55475 -0.09613 0.31329
 N217 N 0.54189 -0.08247 0.35015
 C218 C 0.55074 -0.04324 0.36297
 N219 N 0.57291 -0.01796 0.33737
 N220 N 0.58578 -0.03167 0.30031
 C221 C -0.09622 1.08900 -0.24835
 N222 N -0.08389 1.12701 -0.26184
 N223 N -0.09894 1.14276 -0.29695
 C224 C -0.12719 1.12134 -0.31996
 N225 N -0.13887 1.08291 -0.30669
 N226 N -0.12381 1.06708 -0.27155
 C227 C -0.08060 1.07273 -0.20870
 N228 N -0.09233 1.03472 -0.19441
 N229 N -0.07870 1.02089 -0.15780
 C230 C -0.05297 1.04470 -0.13420
 N231 N -0.04125 1.08257 -0.14862
 N232 N -0.05477 1.09631 -0.18514
 C233 C 1.09929 0.59215 0.75070
 N234 N 1.13884 0.60655 0.75375
 N235 N 1.15247 0.62336 0.78903
 C236 C 1.12702 0.62661 0.82259
 N237 N 1.08731 0.61252 0.81950
 N238 N 1.07371 0.59554 0.78419
 C239 C 1.08460 0.57364 0.71158
 N240 N 1.04622 0.55620 0.70886
 N241 N 1.03289 0.54014 0.67303
 C242 C 1.05744 0.54096 0.63864
 N243 N 1.09584 0.55826 0.64144
 N244 N 1.10922 0.57415 0.67726
 C245 C 0.75343 0.59534 0.58766
 N246 N 0.73682 0.63124 0.57311
 N247 N 0.70209 0.64659 0.58982
 C248 C 0.68261 0.62652 0.62156
 N249 N 0.69905 0.59030 0.63549
 N250 N 0.73380 0.57512 0.61901
 C251 C 0.79297 0.57927 0.57155
 N252 N 0.81267 0.54830 0.59213
 N253 N 0.84925 0.53425 0.57896
 C254 C 0.86745 0.55041 0.54452
 N255 N 0.84765 0.58120 0.52360
 N256 N 0.81109 0.59552 0.53701
 C257 C 0.74849 0.40250 1.09074
 N258 N 0.75525 0.36111 1.09481
 N259 N 0.79003 0.34722 1.11223
 C260 C 0.81916 0.37417 1.12670
 N261 N 0.81246 0.41563 1.12256
 N262 N 0.77778 0.42954 1.10477
 C263 C 0.70954 0.41760 1.07261
 N264 N 0.70539 0.45795 1.06112
 N265 N 0.66957 0.47172 1.04570
 C266 C 0.63653 0.44571 1.04153
 N267 N 0.64071 0.40536 1.05298
 N268 N 0.67663 0.39151 1.06802
 C269 C 0.24707 1.10199 -0.08869
 N270 N 0.25536 1.14333 -0.09053
 N271 N 0.29035 1.15705 -0.10801
 C272 C 0.31811 1.12996 -0.12472
 N273 N 0.30976 1.08861 -0.12291
 N274 N 0.27498 1.07487 -0.10503
 C275 C 0.20796 1.08689 -0.07061
 N276 N 0.20329 1.04621 -0.06048
 N277 N 0.16729 1.03220 -0.04544
 C278 C 0.13455 1.05828 -0.04037
 N279 N 0.13922 1.09898 -0.05046
 N280 N 0.17536 1.11308 -0.06508
 C281 C 0.25154 -0.10251 0.40693
 N282 N 0.22092 -0.07569 0.39604
 N283 N 0.18560 -0.08970 0.37957
 C284 C 0.17950 -0.13108 0.37375
 N285 N 0.21018 -0.15787 0.38455
 N286 N 0.24561 -0.14382 0.40071
 C287 C 0.29065 -0.08710 0.42458
 N288 N 0.32414 -0.11249 0.42759
 N289 N 0.36001 -0.09826 0.44262
 C290 C 0.36352 -0.05824 0.45559
 N291 N 0.32991 -0.03294 0.45293
 N292 N 0.29414 -0.04708 0.43759
 C293 C 0.59075 -0.24848 0.59751
 N294 N 0.59481 -0.25525 0.63890
 N295 N 0.61224 -0.29003 0.65279
 C296 C 0.62671 -0.31916 0.62583
 N297 N 0.62256 -0.31245 0.58438
 N298 N 0.60478 -0.27778 0.57047
 C299 C 0.57261 -0.20954 0.58241
 N300 N 0.56803 -0.17663 0.60850
 N301 N 0.55299 -0.14070 0.59465
 C302 C 0.54153 -0.13653 0.55430
 N303 N 0.54571 -0.16957 0.52830
 N304 N 0.56113 -0.20539 0.54206
 C305 C 1.08766 0.74659 0.40467
 N306 N 1.07311 0.76320 0.36877
 N307 N 1.08982 0.79793 0.35343
 C308 C 1.12156 0.81741 0.37350
 N309 N 1.13549 0.80097 0.40971
 N310 N 1.11901 0.76622 0.42490
 C311 C 1.07156 0.70704 0.42074
 N312 N 1.09214 0.68735 0.45170
 N313 N 1.07896 0.65077 0.46575
 C314 C 1.04452 0.63257 0.44960
 N315 N 1.02360 0.65236 0.41881
 N316 N 1.03701 0.68892 0.40449
 C317 C -0.09309 1.24846 0.10252
 N318 N -0.10397 1.27908 0.07570
 N319 N -0.12045 1.31440 0.08972
 C320 C -0.12627 1.32051 0.13109
 N321 N -0.11546 1.28982 0.15789
 N322 N -0.09931 1.25439 0.14384
 C323 C -0.07544 1.20936 0.08711
 N324 N -0.07242 1.17586 0.11251
 N325 N -0.05739 1.14000 0.09827
 C326 C -0.04442 1.13649 0.05825
 N327 N -0.04708 1.17010 0.03295
 N328 N -0.06243 1.20587 0.04710
 C329 C 0.41130 0.25293 0.89802
 N330 N 0.39496 0.22503 0.92514
 N331 N 0.37708 0.19024 0.91140
 C332 C 0.37527 0.18189 0.87005
 N333 N 0.39198 0.20965 0.84295
 N334 N 0.40946 0.24464 0.85668
 C335 C 0.42937 0.29205 0.91312
 N336 N 0.43491 0.32464 0.88693
 N337 N 0.44953 0.36078 0.90102
 C338 C 0.45962 0.36546 0.94172
 N339 N 0.45455 0.33271 0.96781
 N340 N 0.43951 0.29672 0.95380
 C341 C 0.60252 0.59309 0.75154
 N342 N 0.64384 0.59930 0.74561
 N343 N 0.65789 0.61546 0.71018
 C344 C 0.63110 0.62627 0.67950
 N345 N 0.58972 0.62045 0.68560
 N346 N 0.57571 0.60397 0.72092
 C347 C 0.58711 0.57544 0.79064
 N348 N 0.54710 0.56243 0.79414
 N349 N 0.53295 0.54708 0.82991
 C350 C 0.55825 0.54442 0.86352
 N351 N 0.59827 0.55739 0.86001
 N352 N 0.61251 0.57242 0.82414
 C353 C 0.39802 0.08870 0.74708
 N354 N 0.35668 0.09054 0.75537
 N355 N 0.34295 0.10802 0.79036
 C356 C 0.37004 0.12472 0.81812
 N357 N 0.41140 0.12292 0.80977
 N358 N 0.42513 0.10504 0.77499
 C359 C 0.41312 0.07062 0.70797
 N360 N 0.45380 0.06049 0.70330
 N361 N 0.46781 0.04546 0.66730
 C362 C 0.44173 0.04038 0.63456
 N363 N 0.40103 0.05047 0.63923
 N364 N 0.38693 0.06509 0.67537
 C365 C 0.09750 0.90927 0.24850
 N366 N 0.07047 0.89525 0.27780
 N367 N 0.08437 0.87746 0.31247
 C368 C 0.12583 0.87332 0.31918
 N369 N 0.15279 0.88779 0.29004
 N370 N 0.13889 0.90521 0.25526
 C371 C 0.08241 0.92741 0.20955
 N372 N 0.10850 0.93199 0.17665
 N373 N 0.09464 0.94703 0.14072
 C374 C 0.05430 0.95848 0.13654
 N375 N 0.02829 0.95431 0.16958
 N376 N 0.04206 0.93889 0.20541
 C377 C 0.90466 0.41235 0.25342
 N378 N 0.92489 0.38100 0.23379
 N379 N 0.90970 0.36451 0.19904
 C380 C 0.87348 0.37845 0.18260
 N381 N 0.85341 0.41019 0.20209
 N382 N 0.86876 0.42690 0.23682
 C383 C 0.92074 0.42845 0.29297
 N384 N 0.90448 0.46300 0.31109
 N385 N 0.91881 0.47641 0.34765
 C386 C 0.94960 0.45549 0.36744
 N387 N 0.96575 0.42105 0.34924
 N388 N 0.95170 0.40787 0.31266
   
