data_POSCAR
  _audit_creation_date              2014-09-24
  _audit_creation_method            'ToBaCCo'
  _symmetry_space_group_name_H-M    'P1'
  _symmetry_Int_Tables_number       1
  _symmetry_cell_setting            triclinic
  loop_
  _symmetry_equiv_pos_as_xyz
 x,y,z
_cell_length_a 48.6683
_cell_length_b 48.1425
_cell_length_c 48.6688
_cell_angle_alpha 89.963700
_cell_angle_beta 89.998400
_cell_angle_gamma 89.937700
loop_
  _atom_site_label
  _atom_site_type_symbol
  _atom_site_fract_x
  _atom_site_fract_y
  _atom_site_fract_z
C1 C 0.60467 0.64477 0.62593
 C2 C 0.60475 0.62424 0.64635
 C3 C 0.62534 0.60385 0.64657
 C4 C 0.64583 0.60402 0.62632
 C5 C 0.64572 0.62454 0.60590
 C6 C 0.62515 0.64491 0.60571
 H7 H 0.58884 0.62419 0.66198
 H8 H 0.66180 0.58827 0.62641
 H9 H 0.62509 0.66081 0.58991
 C10 C 0.89611 0.35468 0.12538
 C11 C 0.87564 0.35463 0.10512
 C12 C 0.85509 0.37503 0.10532
 C13 C 0.85498 0.39547 0.12579
 C14 C 0.87543 0.39555 0.14605
 C15 C 0.89600 0.37517 0.14584
 H16 H 0.87565 0.33881 0.08924
 H17 H 0.83907 0.41126 0.12594
 H18 H 0.91182 0.37529 0.16155
 C19 C 0.39549 0.14550 -0.12557
 C20 C 0.37516 0.14553 -0.10519
 C21 C 0.35467 0.12511 -0.10527
 C22 C 0.35452 0.10466 -0.12573
 C23 C 0.37484 0.10462 -0.14612
 C24 C 0.39532 0.12505 -0.14603
 H25 H 0.37528 0.16137 -0.08934
 H26 H 0.33866 0.08885 -0.12579
 H27 H 0.41106 0.12503 -0.16181
 C28 C 0.10361 0.85426 0.37453
 C29 C 0.10366 0.87482 0.35412
 C30 C 0.12413 0.89525 0.35399
 C31 C 0.14457 0.89514 0.37425
 C32 C 0.14454 0.87461 0.39466
 C33 C 0.12408 0.85417 0.39480
 H34 H 0.08785 0.87497 0.33839
 H35 H 0.16042 0.91097 0.37414
 H36 H 0.12412 0.83829 0.41064
 N37 N 0.09267 0.17002 0.11256
 N38 N 0.08182 0.15863 0.13462
 C39 C 0.05953 0.17340 0.14218
 C40 C 0.05644 0.19502 0.12387
 C41 C 0.07768 0.19239 0.10534
 H42 H 0.04652 0.16886 0.15962
 H43 H 0.08188 0.20572 0.08795
 Cu44 Cu 0.09795 0.12563 0.15118
 Cu45 Cu 0.12535 0.15503 0.09485
 Cu46 Cu 0.15443 0.09621 0.12410
 N47 N 0.11442 0.09264 0.16740
 N48 N 0.13656 0.08125 0.15670
 C49 C 0.14372 0.05891 0.17174
 C50 C 0.12507 0.05629 0.19287
 C51 C 0.10675 0.07788 0.18966
 H52 H 0.16116 0.04559 0.16766
 H53 H 0.08923 0.08244 0.20257
 N54 N 0.16950 0.11439 0.09109
 N55 N 0.15842 0.13680 0.07995
 C56 C 0.17330 0.14418 0.05777
 C57 C 0.19459 0.12554 0.05498
 C58 C 0.19171 0.10694 0.07628
 H59 H 0.16904 0.16176 0.04459
 H60 H 0.20483 0.08933 0.08059
 H61 H 0.11974 0.11443 0.10745
 H62 H 0.14180 0.13684 0.12963
 N63 N 0.40650 0.82999 0.61280
 N64 N 0.41720 0.84135 0.63494
 C65 C 0.43947 0.82660 0.64262
 C66 C 0.44270 0.80503 0.62431
 C67 C 0.42157 0.80766 0.60565
 H68 H 0.45238 0.83115 0.66012
 H69 H 0.41751 0.79436 0.58822
 Cu70 Cu 0.40093 0.87431 0.65140
 Cu71 Cu 0.37393 0.84499 0.59488
 Cu72 Cu 0.34467 0.90380 0.62390
 N73 N 0.38433 0.90727 0.66752
 N74 N 0.36232 0.91872 0.65662
 C75 C 0.35508 0.94107 0.67159
 C76 C 0.37355 0.94363 0.69288
 C77 C 0.39185 0.92199 0.68984
 H78 H 0.33772 0.95445 0.66733
 H79 H 0.40925 0.91740 0.70289
 N80 N 0.32983 0.88565 0.59080
 N81 N 0.34096 0.86323 0.57976
 C82 C 0.32617 0.85582 0.55753
 C83 C 0.30490 0.87446 0.55461
 C84 C 0.30768 0.89308 0.57588
 H85 H 0.33048 0.83821 0.54443
 H86 H 0.29451 0.91067 0.58011
 H87 H 0.37947 0.88558 0.60751
 H88 H 0.35723 0.86317 0.62954
 N89 N 0.90746 0.66968 0.38759
 N90 N 0.91822 0.65828 0.36550
 C91 C 0.94046 0.67303 0.35783
 C92 C 0.94361 0.69463 0.37611
 C93 C 0.92245 0.69203 0.39473
 H94 H 0.95340 0.66848 0.34033
 H95 H 0.91830 0.70537 0.41211
 Cu96 Cu 0.90203 0.62533 0.34901
 Cu97 Cu 0.87485 0.65474 0.40544
 Cu98 Cu 0.84567 0.59598 0.37636
 N99 N 0.88549 0.59239 0.33288
 N100 N 0.86342 0.58102 0.34369
 C101 C 0.85620 0.55870 0.32868
 C102 C 0.87476 0.55609 0.30747
 C103 C 0.89307 0.57765 0.31059
 H104 H 0.83879 0.54540 0.33285
 H105 H 0.91052 0.58220 0.29758
 N106 N 0.83074 0.61418 0.40942
 N107 N 0.84184 0.63657 0.42049
 C108 C 0.82704 0.64397 0.44272
 C109 C 0.80579 0.62535 0.44562
 C110 C 0.80860 0.60675 0.42433
 H111 H 0.83135 0.66154 0.45586
 H112 H 0.79548 0.58915 0.42010
 H113 H 0.88042 0.61412 0.39284
 H114 H 0.85825 0.63657 0.37074
 N115 N 0.59354 0.33043 -0.11313
 N116 N 0.58312 0.34150 -0.13555
 C117 C 0.56080 0.32684 -0.14315
 C118 C 0.55726 0.30562 -0.12448
 C119 C 0.57826 0.30837 -0.10571
 H120 H 0.54808 0.33120 -0.16085
 H121 H 0.58211 0.29531 -0.08803
 Cu122 Cu 0.59972 0.37398 -0.15258
 Cu123 Cu 0.62611 0.34537 -0.09527
 Cu124 Cu 0.65552 0.40390 -0.12457
 N125 N 0.61609 0.40720 -0.16840
 N126 N 0.63793 0.41878 -0.15735
 C127 C 0.64501 0.44126 -0.17223
 C128 C 0.62660 0.44376 -0.19359
 C129 C 0.60851 0.42196 -0.19069
 H130 H 0.66221 0.45475 -0.16786
 H131 H 0.59121 0.41729 -0.20383
 N132 N 0.67032 0.38581 -0.09138
 N133 N 0.65911 0.36351 -0.08022
 C134 C 0.67384 0.35613 -0.05793
 C135 C 0.69517 0.37467 -0.05509
 C136 C 0.69247 0.39320 -0.07648
 H137 H 0.66946 0.33861 -0.04473
 H138 H 0.70569 0.41071 -0.08080
 H139 H 0.62049 0.38581 -0.10853
 H140 H 0.64318 0.36320 -0.12994
 C141 C -0.00349 0.25474 0.12440
 C142 C -0.00294 0.27602 0.14448
 C143 C -0.02375 0.29676 0.14468
 C144 C -0.04499 0.29611 0.12481
 C145 C -0.04554 0.27484 0.10473
 C146 C -0.02473 0.25410 0.10452
 C147 C -0.02571 0.23306 0.08425
 C148 C -0.04666 0.23251 0.06474
 C149 C -0.06701 0.25279 0.06494
 C150 C -0.06656 0.27377 0.08465
 C151 C -0.02277 0.31782 0.16494
 C152 C -0.00182 0.31837 0.18446
 C153 C 0.01852 0.29808 0.18427
 C154 C 0.01808 0.27711 0.16456
 C155 C -0.06625 0.31728 0.12502
 C156 C -0.08392 0.33485 0.12519
 C157 C 0.01777 0.23355 0.12420
 C158 C 0.03542 0.21595 0.12404
 H159 H -0.01035 0.21683 0.08325
 H160 H -0.04710 0.21626 0.04938
 H161 H -0.08324 0.25228 0.04974
 H162 H -0.08284 0.28908 0.08396
 H163 H -0.03813 0.33406 0.16593
 H164 H -0.00138 0.33462 0.19981
 H165 H 0.03475 0.29860 0.19947
 H166 H 0.03436 0.26180 0.16525
 C167 C 0.50286 0.74553 0.62493
 C168 C 0.52622 0.74850 0.60784
 C169 C 0.54710 0.72782 0.60803
 C170 C 0.54450 0.70431 0.62533
 C171 C 0.52114 0.70133 0.64241
 C172 C 0.50025 0.72200 0.64221
 C173 C 0.47708 0.71856 0.65945
 C174 C 0.47460 0.69536 0.67641
 C175 C 0.49502 0.67515 0.67661
 C176 C 0.51807 0.67800 0.65985
 C177 C 0.57026 0.73123 0.59075
 C178 C 0.57272 0.75440 0.57376
 C179 C 0.55231 0.77462 0.57358
 C180 C 0.52929 0.77181 0.59037
 C181 C 0.56583 0.68320 0.62554
 C182 C 0.58354 0.66568 0.62572
 C183 C 0.48152 0.76665 0.62472
 C184 C 0.46380 0.78417 0.62454
 H185 H 0.46065 0.73372 0.66002
 H186 H 0.45674 0.69306 0.68946
 H187 H 0.49300 0.65717 0.68981
 H188 H 0.53340 0.66172 0.66073
 H189 H 0.58667 0.71606 0.59017
 H190 H 0.59056 0.75667 0.56067
 H191 H 0.55432 0.79259 0.56035
 H192 H 0.51397 0.78809 0.58950
 C193 C 1.00350 0.75427 0.37539
 C194 C 1.02604 0.75226 0.39369
 C195 C 1.04681 0.77299 0.39348
 C196 C 1.04491 0.79562 0.37498
 C197 C 1.02239 0.79763 0.35666
 C198 C 1.00162 0.77690 0.35687
 C199 C 0.97930 0.77936 0.33838
 C200 C 0.97756 0.80167 0.32019
 C201 C 0.99787 0.82194 0.31999
 C202 C 1.02008 0.82005 0.33797
 C203 C 1.06914 0.77054 0.41197
 C204 C 1.07091 0.74823 0.43013
 C205 C 1.05060 0.72795 0.43034
 C206 C 1.02838 0.72983 0.41237
 C207 C 1.06611 0.81682 0.37480
 C208 C 1.08372 0.83441 0.37466
 C209 C 0.98225 0.73310 0.37562
 C210 C 0.96462 0.71554 0.37584
 H211 H 0.96299 0.76411 0.33776
 H212 H 0.96034 0.80322 0.30619
 H213 H 0.99642 0.83922 0.30583
 H214 H 1.03536 0.83634 0.33704
 H215 H 1.08544 0.78579 0.41259
 H216 H 1.08813 0.74667 0.44413
 H217 H 1.05207 0.71066 0.44449
 H218 H 1.01310 0.71355 0.41331
 C219 C 0.49704 0.24632 -0.12493
 C220 C 0.47756 0.24527 -0.10334
 C221 C 0.45671 0.22462 -0.10349
 C222 C 0.45546 0.20512 -0.12523
 C223 C 0.47492 0.20618 -0.14683
 C224 C 0.49577 0.22684 -0.14669
 C225 C 0.51498 0.22749 -0.16851
 C226 C 0.51365 0.20827 -0.18987
 C227 C 0.49327 0.18806 -0.19001
 C228 C 0.47408 0.18693 -0.16879
 C229 C 0.43746 0.22399 -0.08169
 C230 C 0.43878 0.24322 -0.06034
 C231 C 0.45917 0.26341 -0.06019
 C232 C 0.47839 0.26452 -0.08138
 C233 C 0.43419 0.18400 -0.12536
 C234 C 0.41654 0.16645 -0.12546
 C235 C 0.51838 0.26739 -0.12476
 C236 C 0.53611 0.28486 -0.12462
 H237 H 0.53121 0.24281 -0.16932
 H238 H 0.52851 0.20906 -0.20640
 H239 H 0.49233 0.17318 -0.20664
 H240 H 0.45861 0.17083 -0.16981
 H241 H 0.42122 0.20867 -0.08089
 H242 H 0.42390 0.24244 -0.04383
 H243 H 0.46011 0.27829 -0.04355
 H244 H 0.49387 0.28061 -0.08035
 C245 C 0.12453 -0.00334 0.25287
 C246 C 0.14769 -0.00668 0.27019
 C247 C 0.14757 -0.02745 0.29096
 C248 C 0.12432 -0.04477 0.29429
 C249 C 0.10116 -0.04144 0.27698
 C250 C 0.10126 -0.02066 0.25621
 C251 C 0.07787 -0.01772 0.23917
 C252 C 0.05504 -0.03483 0.24252
 C253 C 0.05495 -0.05516 0.26282
 C254 C 0.07768 -0.05852 0.27991
 C255 C 0.17096 -0.03039 0.30803
 C256 C 0.19381 -0.01331 0.30465
 C257 C 0.19393 0.00699 0.28433
 C258 C 0.17119 0.01036 0.26724
 C259 C 0.12423 -0.06603 0.31546
 C260 C 0.12418 -0.08368 0.33303
 C261 C 0.12468 0.01783 0.23160
 C262 C 0.12483 0.03540 0.21393
 H263 H 0.07697 -0.00221 0.22309
 H264 H 0.03733 -0.03231 0.22930
 H265 H 0.03716 -0.06840 0.26534
 H266 H 0.07663 -0.07462 0.29540
 H267 H 0.17184 -0.04588 0.32413
 H268 H 0.21152 -0.01585 0.31788
 H269 H 0.21173 0.02020 0.28179
 H270 H 0.17226 0.02644 0.25174
 C271 C 0.62601 0.50355 -0.25343
 C272 C 0.64893 0.50654 -0.27111
 C273 C 0.64876 0.52732 -0.29187
 C274 C 0.62568 0.54501 -0.29481
 C275 C 0.60277 0.54203 -0.27714
 C276 C 0.60293 0.52123 -0.25639
 C277 C 0.57977 0.51864 -0.23897
 C278 C 0.55712 0.53610 -0.24195
 C279 C 0.55697 0.55645 -0.26223
 C280 C 0.57947 0.55947 -0.27968
 C281 C 0.67191 0.52991 -0.30930
 C282 C 0.69458 0.51247 -0.30630
 C283 C 0.69475 0.49215 -0.28601
 C284 C 0.67224 0.48912 -0.26856
 C285 C 0.62553 0.56627 -0.31599
 C286 C 0.62543 0.58392 -0.33358
 C287 C 0.62620 0.48233 -0.23220
 C288 C 0.62637 0.46472 -0.21457
 H289 H 0.57892 0.50312 -0.22290
 H290 H 0.53958 0.53383 -0.22845
 H291 H 0.53932 0.56997 -0.26446
 H292 H 0.57838 0.57560 -0.29514
 H293 H 0.67274 0.54540 -0.32540
 H294 H 0.71211 0.51473 -0.31981
 H295 H 0.71241 0.47865 -0.28376
 H296 H 0.67335 0.47301 -0.25308
 C297 C 0.37397 1.00335 0.75271
 C298 C 0.38496 0.99728 0.77898
 C299 C 0.38513 1.01805 0.79973
 C300 C 0.37432 1.04478 0.79409
 C301 C 0.36330 1.05083 0.76783
 C302 C 0.36311 1.03005 0.74708
 C303 C 0.35196 1.03659 0.72100
 C304 C 0.34130 1.06290 0.71557
 C305 C 0.34149 1.08322 0.73585
 C306 C 0.35234 1.07737 0.76171
 C307 C 0.39621 1.01149 0.82584
 C308 C 0.40682 0.98516 0.83129
 C309 C 0.40666 0.96486 0.81100
 C310 C 0.39589 0.97073 0.78511
 C311 C 0.37452 1.06600 0.81528
 C312 C 0.37467 1.08362 0.83287
 C313 C 0.37383 0.98214 0.73150
 C314 C 0.37371 0.96455 0.71388
 H315 H 0.35135 1.02149 0.70456
 H316 H 0.33284 1.06755 0.69551
 H317 H 0.33318 1.10363 0.73152
 H318 H 0.35201 1.09386 0.77681
 H319 H 0.39679 1.02659 0.84229
 H320 H 0.41521 0.98050 0.85137
 H321 H 0.41493 0.94444 0.81535
 H322 H 0.39623 0.95425 0.77001
 C323 C 0.87507 0.49656 0.24746
 C324 C 0.85098 0.48095 0.24225
 C325 C 0.85103 0.46027 0.22141
 C326 C 0.87517 0.45530 0.20593
 C327 C 0.89926 0.47090 0.21114
 C328 C 0.89920 0.49160 0.23196
 C329 C 0.92352 0.50695 0.23678
 C330 C 0.94722 0.50199 0.22147
 C331 C 0.94728 0.48175 0.20112
 C332 C 0.92364 0.46632 0.19593
 C333 C 0.82669 0.44496 0.21654
 C334 C 0.80299 0.44993 0.23185
 C335 C 0.80295 0.47012 0.25224
 C336 C 0.82661 0.48552 0.25747
 C337 C 0.87524 0.43413 0.18468
 C338 C 0.87531 0.41654 0.16706
 C339 C 0.87501 0.51769 0.26874
 C340 C 0.87491 0.53522 0.28642
 H341 H 0.92449 0.52291 0.25240
 H342 H 0.96564 0.51392 0.22543
 H343 H 0.96574 0.47798 0.18929
 H344 H 0.92469 0.45080 0.17989
 H345 H 0.82571 0.42903 0.20090
 H346 H 0.78456 0.43803 0.22785
 H347 H 0.78449 0.47390 0.26407
 H348 H 0.82556 0.50100 0.27354
 C349 C 0.25408 0.12535 -0.00447
 C350 C 0.27343 0.14726 -0.00573
 C351 C 0.29407 0.14719 -0.02640
 C352 C 0.29524 0.12522 -0.04569
 C353 C 0.27590 0.10330 -0.04443
 C354 C 0.25526 0.10336 -0.02376
 C355 C 0.23616 0.08123 -0.02291
 C356 C 0.23740 0.05965 -0.04195
 C357 C 0.25758 0.05960 -0.06217
 C358 C 0.27666 0.08112 -0.06349
 C359 C 0.31319 0.16932 -0.02724
 C360 C 0.31194 0.19090 -0.00821
 C361 C 0.29176 0.19097 0.01199
 C362 C 0.27267 0.16946 0.01332
 C363 C 0.31631 0.12516 -0.06681
 C364 C 0.33381 0.12513 -0.08434
 C365 C 0.23298 0.12542 0.01663
 C366 C 0.21546 0.12548 0.03414
 H367 H 0.22009 0.08034 -0.00758
 H368 H 0.22263 0.04289 -0.04101
 H369 H 0.25845 0.04279 -0.07691
 H370 H 0.29197 0.08015 -0.07959
 H371 H 0.32927 0.17019 -0.04257
 H372 H 0.32673 0.20766 -0.00916
 H373 H 0.29088 0.20779 0.02672
 H374 H 0.25735 0.17044 0.02941
 C375 C 0.74651 0.62516 0.50529
 C376 C 0.72671 0.64673 0.50618
 C377 C 0.70608 0.64662 0.52686
 C378 C 0.70537 0.62495 0.54654
 C379 C 0.72519 0.60341 0.54568
 C380 C 0.74581 0.60352 0.52499
 C381 C 0.76539 0.58175 0.52455
 C382 C 0.76462 0.56050 0.54399
 C383 C 0.74446 0.56041 0.56422
 C384 C 0.72492 0.58156 0.56515
 C385 C 0.68651 0.66839 0.52732
 C386 C 0.68730 0.68966 0.50790
 C387 C 0.70746 0.68977 0.48769
 C388 C 0.72700 0.66860 0.48673
 C389 C 0.68426 0.62480 0.56761
 C390 C 0.66670 0.62468 0.58508
 C391 C 0.76755 0.62524 0.48413
 C392 C 0.78501 0.62530 0.46655
 H393 H 0.78147 0.58091 0.50921
 H394 H 0.77975 0.54401 0.54335
 H395 H 0.74395 0.54386 0.57928
 H396 H 0.70964 0.58058 0.58128
 H397 H 0.67042 0.66921 0.54264
 H398 H 0.67217 0.70615 0.50856
 H399 H 0.70799 0.70634 0.47265
 H400 H 0.74228 0.66960 0.47061
 C401 C 0.75441 0.37470 0.00461
 C402 C 0.77461 0.35350 0.00510
 C403 C 0.79522 0.35357 0.02580
 C404 C 0.79551 0.37482 0.04590
 C405 C 0.77529 0.39599 0.04544
 C406 C 0.75469 0.39593 0.02474
 C407 C 0.73470 0.41732 0.02470
 C408 C 0.73505 0.43816 0.04456
 C409 C 0.75519 0.43821 0.06481
 C410 C 0.77513 0.41742 0.06534
 C411 C 0.81519 0.33217 0.02587
 C412 C 0.81482 0.31130 0.00605
 C413 C 0.79467 0.31123 -0.01419
 C414 C 0.77475 0.33204 -0.01476
 C415 C 0.81659 0.37492 0.06700
 C416 C 0.83413 0.37498 0.08449
 C417 C 0.73339 0.37467 -0.01657
 C418 C 0.71594 0.37466 -0.03416
 H419 H 0.71862 0.41817 0.00937
 H420 H 0.71961 0.45435 0.04423
 H421 H 0.75537 0.45444 0.08019
 H422 H 0.79038 0.41836 0.08150
 H423 H 0.83128 0.33133 0.04119
 H424 H 0.83025 0.29509 0.00641
 H425 H 0.79447 0.29497 -0.02954
 H426 H 0.75950 0.33109 -0.03091
 C427 C 0.24545 0.87445 0.49512
 C428 C 0.24365 0.89686 0.47634
 C429 C 0.22298 0.89686 0.45570
 C430 C 0.20421 0.87447 0.45399
 C431 C 0.20601 0.85207 0.47276
 C432 C 0.22669 0.85205 0.49339
 C433 C 0.22808 0.82942 0.51192
 C434 C 0.20957 0.80743 0.51013
 C435 C 0.18935 0.80744 0.48996
 C436 C 0.18749 0.82945 0.47144
 C437 C 0.22160 0.91948 0.43714
 C438 C 0.24011 0.94146 0.43892
 C439 C 0.26031 0.94147 0.45911
 C440 C 0.26216 0.91948 0.47766
 C441 C 0.18307 0.87451 0.43294
 C442 C 0.16550 0.87455 0.41548
 C443 C 0.26656 0.87445 0.51622
 C444 C 0.28407 0.87445 0.53373
 H445 H 0.24345 0.82846 0.52796
 H446 H 0.21093 0.79028 0.52447
 H447 H 0.17503 0.79031 0.48865
 H448 H 0.17141 0.82852 0.45611
 H449 H 0.20625 0.92042 0.42109
 H450 H 0.23877 0.95859 0.42456
 H451 H 0.27464 0.95860 0.46041
 H452 H 0.27823 0.92043 0.49299
   
