data_POSCAR
  _audit_creation_date              2014-09-24
  _audit_creation_method            'ToBaCCo'
  _symmetry_space_group_name_H-M    'P1'
  _symmetry_Int_Tables_number       1
  _symmetry_cell_setting            triclinic
  loop_
  _symmetry_equiv_pos_as_xyz
 x,y,z
_cell_length_a 33.5584
_cell_length_b 33.8490
_cell_length_c 34.0327
_cell_angle_alpha 89.548400
_cell_angle_beta 89.847500
_cell_angle_gamma 90.149400
loop_
  _atom_site_label
  _atom_site_type_symbol
  _atom_site_fract_x
  _atom_site_fract_y
  _atom_site_fract_z
C1 C 0.28068 1.08518 -0.01677
 C2 C 0.27907 1.07408 0.02302
 C3 C 0.26534 1.03602 0.03272
 C4 C 0.25243 1.00930 0.00334
 C5 C 0.25305 1.02233 -0.03613
 C6 C 0.26755 1.05994 -0.04667
 C7 C 0.23850 0.96810 0.01373
 C8 C 0.23723 0.93731 -0.01456
 C9 C 0.22436 0.89901 -0.00418
 C10 C 0.21614 0.89087 0.03560
 C11 C 0.21799 0.92033 0.06428
 C12 C 0.22702 0.95898 0.05270
 H13 H 0.29122 1.11432 -0.02443
 H14 H 0.26699 1.02711 0.06317
 H15 H 0.24055 1.00390 -0.05862
 H16 H 0.24618 0.94254 -0.04463
 H17 H 0.20861 0.86117 0.04465
 H18 H 0.22592 0.98159 0.07471
 C19 C 0.77959 0.60486 0.50278
 C20 C 0.79130 0.57623 0.53060
 C21 C 0.78616 0.53618 0.52211
 C22 C 0.76559 0.52436 0.48838
 C23 C 0.75162 0.55357 0.46205
 C24 C 0.75907 0.59383 0.46888
 C25 C 0.75649 0.48175 0.48238
 C26 C 0.75602 0.46610 0.44460
 C27 C 0.74558 0.42654 0.43794
 C28 C 0.73830 0.40115 0.47061
 C29 C 0.73902 0.41651 0.50920
 C30 C 0.74748 0.45680 0.51434
 H31 H 0.78363 0.63598 0.50878
 H32 H 0.79614 0.51405 0.54286
 H33 H 0.73411 0.54519 0.43675
 H34 H 0.76408 0.48507 0.42008
 H35 H 0.73017 0.37056 0.46602
 H36 H 0.74654 0.46887 0.54370
 C37 C 0.72017 1.00797 1.08405
 C38 C 0.72842 0.97071 1.06721
 C39 C 0.73947 0.96975 1.02717
 C40 C 0.73627 1.00305 1.00260
 C41 C 0.72245 1.03807 1.01887
 C42 C 0.71648 1.04187 1.05957
 C43 C 0.74847 1.00162 0.96027
 C44 C 0.76451 1.03489 0.94089
 C45 C 0.77749 1.03327 0.90155
 C46 C 0.77643 0.99654 0.88187
 C47 C 0.76203 0.96253 0.90181
 C48 C 0.74592 0.96627 0.93959
 H49 H 0.71375 1.01020 1.11514
 H50 H 0.75201 0.94311 1.01516
 H51 H 0.71903 1.06333 0.99968
 H52 H 0.76721 1.06240 0.95651
 H53 H 0.78867 0.99406 0.85252
 H54 H 0.73241 0.94063 0.95345
 C55 C 0.24547 0.50442 0.60721
 C56 C 0.24176 0.46635 0.59165
 C57 C 0.24387 0.46088 0.55096
 C58 C 0.25108 0.49257 0.52523
 C59 C 0.25631 0.53056 0.54151
 C60 C 0.25130 0.53728 0.58209
 C61 C 0.24829 0.48663 0.48161
 C62 C 0.23437 0.51744 0.45783
 C63 C 0.22831 0.51251 0.41762
 C64 C 0.23451 0.47550 0.40038
 C65 C 0.24679 0.44313 0.42370
 C66 C 0.25539 0.44967 0.46386
 H67 H 0.24170 0.50832 0.63852
 H68 H 0.23867 0.43163 0.53948
 H69 H 0.26354 0.55514 0.52242
 H70 H 0.22705 0.54567 0.47058
 H71 H 0.22795 0.47176 0.36951
 H72 H 0.26727 0.42587 0.48148
 C73 C 1.10137 0.20665 -0.01168
 C74 C 1.08472 0.21859 0.02442
 C75 C 1.04812 0.23941 0.02440
 C76 C 1.02689 0.24473 -0.01114
 C77 C 1.04375 0.23009 -0.04616
 C78 C 1.08147 0.21315 -0.04699
 C79 C 0.98631 0.26317 -0.01360
 C80 C 0.97556 0.28195 -0.04919
 C81 C 0.93569 0.28374 -0.06131
 C82 C 0.90614 0.27581 -0.03292
 C83 C 0.91601 0.26287 0.00528
 C84 C 0.95625 0.25544 0.01457
 H85 H 1.13052 0.19297 -0.01264
 H86 H 1.03536 0.24945 0.05182
 H87 H 1.02774 0.23245 -0.07358
 H88 H 0.99901 0.29054 -0.06926
 H89 H 0.87503 0.27915 -0.04044
 H90 H 0.96353 0.24097 0.04211
 C91 C 0.59004 0.76611 0.52356
 C92 C 0.57101 0.74611 0.55491
 C93 C 0.52909 0.74430 0.55572
 C94 C 0.50636 0.76273 0.52637
 C95 C 0.52586 0.78464 0.49708
 C96 C 0.56744 0.78505 0.49422
 C97 C 0.46293 0.75487 0.52279
 C98 C 0.44667 0.74798 0.48544
 C99 C 0.40663 0.73733 0.48066
 C100 C 0.38267 0.73261 0.51421
 C101 C 0.39856 0.73917 0.55183
 C102 C 0.43831 0.75110 0.55597
 H103 H 0.62224 0.76621 0.52148
 H104 H 0.51393 0.72771 0.57853
 H105 H 0.50819 0.79904 0.47471
 H106 H 0.46566 0.75035 0.45987
 H107 H 0.35202 0.72295 0.51126
 H108 H 0.45037 0.75569 0.58508
 C109 C -0.00550 0.72443 -0.08304
 C110 C 0.02427 0.70978 -0.05761
 C111 C 0.01949 0.71380 -0.01695
 C112 C -0.01310 0.73419 -0.00174
 C113 C -0.04089 0.75102 -0.02739
 C114 C -0.03783 0.74615 -0.06818
 C115 C -0.01753 0.74019 0.04093
 C116 C -0.05510 0.73729 0.05824
 C117 C -0.06200 0.74933 0.09715
 C118 C -0.02850 0.76011 0.12021
 C119 C 0.00992 0.76138 0.10312
 C120 C 0.01481 0.75198 0.06349
 H121 H -0.00220 0.72098 -0.11446
 H122 H 0.04168 0.70246 0.00311
 H123 H -0.06552 0.76718 -0.01488
 H124 H -0.07877 0.72599 0.04017
 H125 H -0.03207 0.76903 0.15047
 H126 H 0.04397 0.75449 0.04991
 C127 C 0.50311 0.26332 0.39318
 C128 C 0.53992 0.26289 0.41328
 C129 C 0.54009 0.25640 0.45395
 C130 C 0.50491 0.24931 0.47495
 C131 C 0.46876 0.24962 0.45487
 C132 C 0.46719 0.25788 0.41439
 C133 C 0.50638 0.24335 0.51816
 C134 C 0.47794 0.26057 0.54284
 C135 C 0.48212 0.25902 0.58389
 C136 C 0.51601 0.24073 0.60021
 C137 C 0.54495 0.22359 0.57551
 C138 C 0.53863 0.22348 0.53492
 H139 H 0.50234 0.26941 0.36191
 H140 H 0.56805 0.25679 0.46960
 H141 H 0.44166 0.24313 0.47100
 H142 H 0.45282 0.27583 0.52996
 H143 H 0.52037 0.24097 0.63173
 H144 H 0.56030 0.21008 0.51572
 C145 C 1.08912 -0.01627 0.27948
 C146 C 1.08311 0.02369 0.26930
 C147 C 1.04471 0.03497 0.25615
 C148 C 1.01402 0.00631 0.25080
 C149 C 1.02404 -0.03372 0.25634
 C150 C 1.06029 -0.04501 0.27224
 C151 C 0.97221 0.01639 0.23784
 C152 C 0.94151 -0.01266 0.23954
 C153 C 0.90491 -0.00681 0.22077
 C154 C 0.89651 0.03073 0.20560
 C155 C 0.92338 0.06196 0.20968
 C156 C 0.96197 0.05435 0.22363
 H157 H 1.11709 -0.02627 0.29108
 H158 H 1.03920 0.06585 0.25059
 H159 H 1.00451 -0.05703 0.24692
 H160 H 0.94596 -0.04060 0.25418
 H161 H 0.86761 0.03677 0.19305
 H162 H 0.98305 0.07837 0.22433
 C163 C 0.61425 0.47256 0.74248
 C164 C 0.60272 0.51140 0.75153
 C165 C 0.56202 0.52058 0.75409
 C166 C 0.53316 0.49096 0.74809
 C167 C 0.54551 0.45280 0.73729
 C168 C 0.58587 0.44273 0.73595
 C169 C 0.49040 0.49759 0.75741
 C170 C 0.46914 0.46771 0.77695
 C171 C 0.42828 0.47092 0.78368
 C172 C 0.40838 0.50556 0.77258
 C173 C 0.42952 0.53735 0.75528
 C174 C 0.47057 0.53259 0.74705
 H175 H 0.64562 0.46554 0.74149
 H176 H 0.55302 0.54980 0.76328
 H177 H 0.52326 0.43055 0.73118
 H178 H 0.48435 0.44094 0.78585
 H179 H 0.37674 0.50767 0.77821
 H180 H 0.48733 0.55549 0.73213
 C181 C 1.04276 1.09619 0.71266
 C182 C 1.00204 1.08777 0.71824
 C183 C 0.99142 1.05049 0.73370
 C184 C 1.02066 1.02110 0.74008
 C185 C 1.06094 1.03043 0.73304
 C186 C 1.07225 1.06830 0.72117
 C187 C 1.00960 0.98009 0.75215
 C188 C 1.03614 0.95643 0.77381
 C189 C 1.02996 0.91547 0.77823
 C190 C 0.99393 0.89920 0.76465
 C191 C 0.96452 0.92391 0.74786
 C192 C 0.97374 0.96342 0.73962
 H193 H 1.05221 1.12520 0.70310
 H194 H 0.96043 1.04395 0.73963
 H195 H 1.08379 1.00842 0.73727
 H196 H 1.06320 0.96963 0.78477
 H197 H 0.98791 0.86812 0.76959
 H198 H 0.95316 0.98094 0.72249
 C199 C 0.49263 0.61644 0.27257
 C200 C 0.45955 0.59490 0.25882
 C201 C 0.46003 0.55383 0.26077
 C202 C 0.49257 0.53333 0.27589
 C203 C 0.52585 0.55459 0.28879
 C204 C 0.52646 0.59630 0.28726
 C205 C 0.49207 0.48965 0.27394
 C206 C 0.52460 0.46949 0.25832
 C207 C 0.52111 0.42979 0.24742
 C208 C 0.48429 0.41021 0.25166
 C209 C 0.45107 0.43051 0.26690
 C210 C 0.45630 0.46916 0.28041
 H211 H 0.49220 0.64841 0.27122
 H212 H 0.43467 0.53740 0.24993
 H213 H 0.55143 0.53823 0.29906
 H214 H 0.55220 0.48528 0.25286
 H215 H 0.48112 0.38040 0.24082
 H216 H 0.43165 0.48469 0.29371
 O217 O 0.27039 0.14546 0.17255
 O218 O 0.32012 0.14014 0.22824
 O219 O 0.16155 0.16820 0.24272
 O220 O 0.13764 0.21682 0.27799
 O221 O 0.19849 0.23511 0.13645
 O222 O 0.24214 0.29825 0.13496
 O223 O 0.24955 0.28529 0.34326
 O224 O 0.21032 0.22627 0.34948
 O225 O 0.35728 0.25274 0.29175
 O226 O 0.37372 0.21283 0.23239
 O227 O 0.29397 0.34778 0.24849
 O228 O 0.23241 0.35236 0.20108
 O229 O 0.24212 0.33660 0.30040
 O230 O 0.19585 0.34839 0.25104
 O231 O 0.34864 0.30828 0.24516
 O232 O 0.36629 0.26582 0.19408
 O233 O 0.30938 0.24404 0.33849
 O234 O 0.26761 0.18751 0.34645
 O235 O 0.27244 0.19983 0.13299
 O236 O 0.28648 0.26106 0.11845
 O237 O 0.15158 0.22160 0.18303
 O238 O 0.13553 0.26673 0.23850
 O239 O 0.21766 0.13096 0.23759
 O240 O 0.27568 0.11875 0.26263
 Zr241 Zr 0.26517 0.17070 0.22949
 O242 O 0.29607 0.20604 0.27008
 Zr243 Zr 0.18366 0.22645 0.23636
 O244 O 0.21221 0.26553 0.27586
 Zr245 Zr 0.25135 0.24576 0.16793
 O246 O 0.28408 0.28399 0.20440
 Zr247 Zr 0.25619 0.23519 0.30754
 O248 O 0.22547 0.19525 0.27101
 Zr249 Zr 0.32473 0.25174 0.23888
 O250 O 0.29641 0.21460 0.19796
 Zr251 Zr 0.24441 0.30929 0.24488
 O252 O 0.21083 0.27365 0.20560
 O253 O 0.22198 0.19923 0.19651
 O254 O 0.28681 0.27981 0.27825
 C255 C 0.27619 0.16261 0.13906
 C256 C 0.18014 0.13505 0.24399
 C257 C 0.16302 0.22547 0.14711
 C258 C 0.24545 0.32229 0.33535
 C259 C 0.34549 0.25061 0.32761
 C260 C 0.33187 0.34196 0.24894
 H261 H 0.31485 0.18965 0.28546
 H262 H 0.29798 0.30411 0.18814
 H263 H 0.20886 0.17947 0.17955
 H264 H 0.19250 0.27757 0.29376
 H265 H 0.19415 0.20377 0.34007
 H266 H 0.14544 0.23034 0.30244
 H267 H 0.35956 0.24901 0.17136
 H268 H 0.31277 0.26926 0.12865
 H269 H 0.25157 0.16494 0.33705
 H270 H 0.27820 0.12706 0.29030
 H271 H 0.25762 0.35796 0.18694
 H272 H 0.21421 0.30649 0.13946
 H273 H 0.33560 0.15095 0.20579
 H274 H 0.37307 0.19346 0.25430
 H275 H 0.13898 0.28553 0.21629
 H276 H 0.17244 0.33202 0.25808
 O277 O 0.72022 0.87915 0.20394
 O278 O 0.67741 0.89358 0.26082
 O279 O 0.82923 0.84472 0.25296
 O280 O 0.84628 0.80479 0.30635
 O281 O 0.77826 0.76965 0.17004
 O282 O 0.72145 0.72515 0.16797
 O283 O 0.73585 0.74180 0.38050
 O284 O 0.78435 0.79700 0.37930
 O285 O 0.63194 0.79002 0.33531
 O286 O 0.61483 0.82476 0.27061
 O287 O 0.67955 0.68209 0.29262
 O288 O 0.73498 0.66797 0.24265
 O289 O 0.73484 0.68951 0.33896
 O290 O 0.77785 0.67219 0.28426
 O291 O 0.62895 0.72659 0.28959
 O292 O 0.60847 0.77212 0.24342
 O293 O 0.68342 0.79396 0.37856
 O294 O 0.73070 0.84057 0.38102
 O295 O 0.72020 0.82486 0.16496
 O296 O 0.67860 0.76805 0.16290
 O297 O 0.82965 0.77906 0.21261
 O298 O 0.84602 0.74692 0.27180
 O299 O 0.77745 0.88811 0.25105
 O300 O 0.72529 0.90353 0.29903
 Zr301 Zr 0.72632 0.85430 0.26110
 O302 O 0.69495 0.82390 0.30570
 Zr303 Zr 0.80070 0.79000 0.26617
 O304 O 0.77138 0.75547 0.30967
 Zr305 Zr 0.72563 0.77612 0.20326
 O306 O 0.69246 0.74299 0.24427
 Zr307 Zr 0.73388 0.79193 0.34253
 O308 O 0.76620 0.82772 0.30155
 Zr309 Zr 0.65859 0.78078 0.27990
 O310 O 0.68732 0.81361 0.23468
 Zr311 Zr 0.73207 0.71511 0.28308
 O312 O 0.76561 0.74551 0.23978
 O313 O 0.76259 0.81836 0.22718
 O314 O 0.69582 0.75009 0.31827
 C315 C 0.71889 0.86245 0.17009
 C316 C 0.81431 0.87933 0.24703
 C317 C 0.81559 0.77105 0.17858
 C318 C 0.73485 0.70447 0.37333
 C319 C 0.64631 0.79431 0.37001
 C320 C 0.64246 0.69138 0.29400
 H321 H 0.67959 0.84352 0.32086
 H322 H 0.67546 0.72389 0.23021
 H323 H 0.77736 0.83236 0.20608
 H324 H 0.79095 0.74208 0.32684
 H325 H 0.79985 0.82004 0.36960
 H326 H 0.84313 0.78741 0.32967
 H327 H 0.61795 0.75806 0.21983
 H328 H 0.65703 0.78620 0.17097
 H329 H 0.74273 0.86319 0.36683
 H330 H 0.75020 0.90289 0.31453
 H331 H 0.70916 0.66658 0.22876
 H332 H 0.74195 0.70652 0.17762
 H333 H 0.65778 0.88297 0.24195
 H334 H 0.61896 0.84554 0.29048
 H335 H 0.83555 0.72248 0.25979
 H336 H 0.79859 0.68133 0.30272
 O337 O 0.79413 0.14320 0.77960
 O338 O 0.75582 0.12245 0.72856
 O339 O 0.88467 0.21269 0.71655
 O340 O 0.88659 0.26741 0.67796
 O341 O 0.83067 0.26089 0.82366
 O342 O 0.77231 0.28408 0.84176
 O343 O 0.75458 0.29257 0.61980
 O344 O 0.80417 0.24870 0.60455
 O345 O 0.66748 0.22631 0.68014
 O346 O 0.66463 0.18422 0.73468
 O347 O 0.70258 0.33674 0.72394
 O348 O 0.75300 0.35755 0.76371
 O349 O 0.74512 0.34016 0.66561
 O350 O 0.80056 0.36054 0.71153
 O351 O 0.66324 0.28210 0.72921
 O352 O 0.66736 0.22367 0.77966
 O353 O 0.71134 0.22813 0.62905
 O354 O 0.77994 0.19501 0.61616
 O355 O 0.79018 0.19096 0.82604
 O356 O 0.73197 0.23827 0.83639
 O357 O 0.87590 0.26868 0.77435
 O358 O 0.87364 0.31237 0.71526
 O359 O 0.84923 0.15548 0.72178
 O360 O 0.79210 0.13409 0.68055
 Zr361 Zr 0.78936 0.17536 0.72685
 O362 O 0.74261 0.20042 0.69361
 Zr363 Zr 0.84317 0.25793 0.72212
 O364 O 0.80086 0.28467 0.68489
 Zr365 Zr 0.77856 0.24426 0.79471
 O366 O 0.73452 0.27477 0.76253
 Zr367 Zr 0.76708 0.24224 0.65452
 O368 O 0.81437 0.21581 0.68639
 Zr369 Zr 0.70338 0.23336 0.72931
 O370 O 0.74610 0.20210 0.76325
 Zr371 Zr 0.75953 0.31350 0.72037
 O372 O 0.80328 0.28879 0.75791
 O373 O 0.82100 0.21542 0.76097
 O374 O 0.72606 0.27335 0.68821
 C375 C 0.79386 0.15464 0.81539
 C376 C 0.88181 0.17499 0.71617
 C377 C 0.86555 0.26950 0.81086
 C378 C 0.74545 0.32789 0.62983
 C379 C 0.67617 0.22377 0.64371
 C380 C 0.66859 0.31985 0.72685
 H381 H 0.72853 0.17896 0.67977
 H382 H 0.71702 0.28918 0.78091
 H383 H 0.84217 0.20286 0.77697
 H384 H 0.81419 0.30338 0.66661
 H385 H 0.82648 0.26615 0.61214
 H386 H 0.87733 0.25267 0.65469
 H387 H 0.66422 0.24922 0.79324
 H388 H 0.72056 0.21148 0.83326
 H389 H 0.75890 0.17475 0.61971
 H390 H 0.81218 0.14400 0.66151
 H391 H 0.77701 0.35606 0.78051
 H392 H 0.76669 0.31012 0.82965
 H393 H 0.73099 0.12857 0.74301
 H394 H 0.67660 0.16244 0.71952
 H395 H 0.86444 0.32977 0.73669
 H396 H 0.78509 0.38450 0.70455
 O397 O 0.23174 0.82366 0.84511
 O398 O 0.27563 0.84508 0.78977
 O399 O 0.12843 0.78131 0.78508
 O400 O 0.11701 0.73834 0.73536
 O401 O 0.18469 0.70566 0.87307
 O402 O 0.24691 0.66952 0.87588
 O403 O 0.23230 0.69390 0.66416
 O404 O 0.18134 0.74737 0.66587
 O405 O 0.33342 0.73840 0.71126
 O406 O 0.34329 0.78697 0.77123
 O407 O 0.29699 0.63657 0.75339
 O408 O 0.24081 0.61435 0.80012
 O409 O 0.24139 0.64020 0.70376
 O410 O 0.19973 0.61522 0.75652
 O411 O 0.34117 0.68734 0.75923
 O412 O 0.35335 0.73703 0.80752
 O413 O 0.28234 0.74529 0.66796
 O414 O 0.23409 0.79238 0.66543
 O415 O 0.23303 0.76750 0.88235
 O416 O 0.28357 0.71822 0.88354
 O417 O 0.13459 0.71582 0.82914
 O418 O 0.12321 0.68216 0.76933
 O419 O 0.17504 0.82942 0.79394
 O420 O 0.22776 0.85354 0.75138
 Zr421 Zr 0.23029 0.80174 0.78645
 O422 O 0.26594 0.77711 0.74138
 Zr423 Zr 0.16350 0.72980 0.77645
 O424 O 0.19761 0.70029 0.73367
 Zr425 Zr 0.23696 0.72116 0.84196
 O426 O 0.27515 0.69401 0.80133
 Zr427 Zr 0.23147 0.74249 0.70313
 O428 O 0.19486 0.77288 0.74382
 Zr429 Zr 0.30546 0.73695 0.76729
 O430 O 0.27217 0.76396 0.81282
 Zr431 Zr 0.24018 0.66307 0.76075
 O432 O 0.20186 0.68796 0.80323
 O433 O 0.19651 0.76057 0.81764
 O434 O 0.27240 0.70382 0.72789
 C435 C 0.23104 0.80522 0.87847
 C436 C 0.13883 0.81725 0.79227
 C437 C 0.14777 0.70598 0.86313
 C438 C 0.23785 0.65659 0.66988
 C439 C 0.31910 0.74007 0.67623
 C440 C 0.33259 0.65097 0.75347
 H441 H 0.28014 0.79814 0.72659
 H442 H 0.29376 0.67654 0.81568
 H443 H 0.17882 0.77234 0.83765
 H444 H 0.17988 0.68565 0.71573
 H445 H 0.16470 0.76907 0.67624
 H446 H 0.12458 0.72458 0.71093
 H447 H 0.34680 0.71735 0.82819
 H448 H 0.30240 0.73981 0.87679
 H449 H 0.22189 0.81433 0.68007
 H450 H 0.20555 0.85000 0.73265
 H451 H 0.26609 0.61531 0.81498
 H452 H 0.22890 0.64892 0.86550
 H453 H 0.29584 0.83484 0.80836
 H454 H 0.34453 0.79987 0.74507
 H455 H 0.13544 0.65891 0.78230
 H456 H 0.17758 0.62374 0.73935
 O457 O 0.25671 0.35754 0.71918
 O458 O 0.21122 0.35398 0.77187
 O459 O 0.36339 0.31477 0.78351
 O460 O 0.38741 0.25986 0.80719
 O461 O 0.33398 0.27637 0.66405
 O462 O 0.29040 0.22429 0.64158
 O463 O 0.26944 0.17886 0.85048
 O464 O 0.30739 0.23395 0.87309
 O465 O 0.16673 0.22234 0.80131
 O466 O 0.15096 0.27440 0.75275
 O467 O 0.23368 0.14105 0.73797
 O468 O 0.29515 0.14390 0.70065
 O469 O 0.27839 0.13959 0.79727
 O470 O 0.33371 0.14463 0.74674
 O471 O 0.17970 0.18131 0.74131
 O472 O 0.16245 0.24357 0.70439
 O473 O 0.20913 0.22340 0.85328
 O474 O 0.25508 0.27281 0.87690
 O475 O 0.26340 0.31712 0.66648
 O476 O 0.24041 0.25779 0.64075
 O477 O 0.37813 0.27136 0.71445
 O478 O 0.38819 0.21728 0.76391
 O479 O 0.31067 0.35663 0.77803
 O480 O 0.25213 0.35240 0.81811
 Zr481 Zr 0.26263 0.31836 0.76731
 O482 O 0.22784 0.27430 0.79495
 Zr483 Zr 0.34201 0.25983 0.76426
 O484 O 0.31077 0.21341 0.79251
 Zr485 Zr 0.27880 0.26174 0.68971
 O486 O 0.24503 0.21505 0.71382
 Zr487 Zr 0.26479 0.23627 0.82744
 O488 O 0.29929 0.28291 0.80338
 Zr489 Zr 0.20207 0.23783 0.75241
 O490 O 0.23273 0.28482 0.72463
 Zr491 Zr 0.28149 0.17951 0.74966
 O492 O 0.31643 0.22355 0.72125
 O493 O 0.30725 0.29779 0.73019
 O494 O 0.23666 0.20015 0.78666
 C495 C 0.25519 0.35043 0.68221
 C496 C 0.34720 0.34902 0.78596
 C497 C 0.36945 0.27690 0.67807
 C498 C 0.27375 0.14502 0.83427
 C499 C 0.17450 0.21858 0.83807
 C500 C 0.19608 0.14755 0.73634
 H501 H 0.20734 0.28677 0.81159
 H502 H 0.23286 0.19999 0.69214
 H503 H 0.32217 0.32001 0.71797
 H504 H 0.32932 0.19747 0.80860
 H505 H 0.32485 0.25738 0.86973
 H506 H 0.37658 0.24584 0.83048
 H507 H 0.17012 0.22390 0.68441
 H508 H 0.21366 0.26566 0.65010
 H509 H 0.23322 0.29130 0.87061
 H510 H 0.27041 0.34232 0.83864
 H511 H 0.27813 0.15283 0.67865
 H512 H 0.31289 0.20705 0.64934
 H513 H 0.19155 0.34295 0.75328
 H514 H 0.15128 0.28994 0.77724
 H515 H 0.38593 0.20260 0.73897
 H516 H 0.34730 0.14606 0.77245
 O517 O 0.78763 0.63491 0.69436
 O518 O 0.83500 0.63775 0.74966
 O519 O 0.67638 0.66234 0.75467
 O520 O 0.65543 0.71308 0.79360
 O521 O 0.70706 0.72458 0.64623
 O522 O 0.75519 0.77609 0.63081
 O523 O 0.76515 0.79729 0.84139
 O524 O 0.72522 0.73911 0.85788
 O525 O 0.87043 0.75686 0.79411
 O526 O 0.88292 0.70654 0.73600
 O527 O 0.80528 0.84515 0.73705
 O528 O 0.74191 0.84238 0.69290
 O529 O 0.75579 0.84177 0.79192
 O530 O 0.70672 0.84464 0.74272
 O531 O 0.85998 0.80557 0.73860
 O532 O 0.88224 0.75529 0.69941
 O533 O 0.82355 0.75570 0.84254
 O534 O 0.77889 0.70105 0.86112
 O535 O 0.77392 0.67935 0.64573
 O536 O 0.80340 0.73934 0.62798
 O537 O 0.66317 0.71350 0.69619
 O538 O 0.64660 0.75913 0.74689
 O539 O 0.73315 0.62551 0.75305
 O540 O 0.78590 0.62546 0.79323
 Zr541 Zr 0.77903 0.66680 0.74673
 O542 O 0.81016 0.70814 0.78081
 Zr543 Zr 0.69693 0.72149 0.74730
 O544 O 0.72526 0.76687 0.77968
 Zr545 Zr 0.76235 0.73212 0.67473
 O546 O 0.79512 0.77549 0.70445
 Zr547 Zr 0.77020 0.74186 0.81429
 O548 O 0.73954 0.69623 0.78490
 Zr549 Zr 0.83692 0.74874 0.74229
 O550 O 0.80827 0.70587 0.70792
 Zr551 Zr 0.75614 0.80602 0.74173
 O552 O 0.72243 0.76441 0.70933
 O553 O 0.73479 0.69018 0.71063
 O554 O 0.79965 0.78198 0.77804
 C555 C 0.78501 0.64528 0.65806
 C556 C 0.69531 0.62922 0.75680
 C557 C 0.67192 0.71749 0.65966
 C558 C 0.76104 0.83277 0.82819
 C559 C 0.85934 0.76015 0.83009
 C560 C 0.84319 0.83936 0.73696
 H561 H 0.83008 0.69440 0.79727
 H562 H 0.80807 0.79315 0.68496
 H563 H 0.72086 0.66949 0.69546
 H564 H 0.70578 0.78102 0.79620
 H565 H 0.70918 0.71516 0.85250
 H566 H 0.65932 0.73466 0.81266
 H567 H 0.86959 0.76628 0.67552
 H568 H 0.82895 0.72809 0.63722
 H569 H 0.80357 0.68607 0.85589
 H570 H 0.77232 0.63678 0.81637
 H571 H 0.76616 0.84507 0.67648
 H572 H 0.73194 0.79223 0.63854
 H573 H 0.83158 0.60972 0.74195
 H574 H 0.88893 0.69565 0.76240
 H575 H 0.65170 0.77978 0.72673
 H576 H 0.68555 0.83152 0.75833
 O577 O 0.23515 0.63313 0.30542
 O578 O 0.20333 0.62180 0.25216
 O579 O 0.33799 0.70161 0.26104
 O580 O 0.34400 0.76162 0.22771
 O581 O 0.28556 0.72928 0.36996
 O582 O 0.22998 0.76500 0.39021
 O583 O 0.22396 0.81067 0.17590
 O584 O 0.26664 0.76037 0.15343
 O585 O 0.12311 0.74670 0.21945
 O586 O 0.11678 0.69280 0.26143
 O587 O 0.16788 0.84072 0.28188
 O588 O 0.21679 0.84905 0.32798
 O589 O 0.21663 0.85155 0.22811
 O590 O 0.26942 0.85605 0.27996
 O591 O 0.12279 0.79053 0.27725
 O592 O 0.11805 0.72665 0.31701
 O593 O 0.16955 0.76242 0.17311
 O594 O 0.22743 0.71369 0.15323
 O595 O 0.22623 0.67229 0.35877
 O596 O 0.18597 0.72760 0.38138
 O597 O 0.33220 0.74293 0.32315
 O598 O 0.33648 0.79962 0.27620
 O599 O 0.29494 0.65086 0.25003
 O600 O 0.23448 0.64430 0.20457
 Zr601 Zr 0.23694 0.67414 0.25898
 O602 O 0.19427 0.70937 0.22979
 Zr603 Zr 0.30001 0.74890 0.27059
 O604 O 0.26247 0.78653 0.23832
 Zr605 Zr 0.23153 0.73104 0.33838
 O606 O 0.19201 0.77068 0.31094
 Zr607 Zr 0.22554 0.75425 0.20029
 O608 O 0.26846 0.71739 0.22726
 Zr609 Zr 0.15782 0.73941 0.27003
 O610 O 0.19571 0.69901 0.29906
 Zr611 Zr 0.22311 0.81337 0.27754
 O612 O 0.26287 0.77784 0.31075
 O613 O 0.27108 0.70316 0.30061
 O614 O 0.18723 0.78326 0.23813
 C615 C 0.22753 0.63848 0.34189
 C616 C 0.33022 0.66593 0.25195
 C617 C 0.32169 0.73508 0.35867
 C618 C 0.21866 0.84476 0.19095
 C619 C 0.13330 0.75817 0.18491
 C620 C 0.13222 0.82715 0.28079
 H621 H 0.17792 0.69325 0.21181
 H622 H 0.17544 0.78353 0.33121
 H623 H 0.28889 0.68439 0.31443
 H624 H 0.27893 0.80633 0.22412
 H625 H 0.28912 0.77638 0.16333
 H626 H 0.33583 0.74763 0.20359
 H627 H 0.11842 0.74915 0.33538
 H628 H 0.16566 0.70895 0.37146
 H629 H 0.20043 0.70242 0.14988
 H630 H 0.25743 0.65364 0.18865
 H631 H 0.23978 0.84310 0.34514
 H632 H 0.24515 0.78948 0.38453
 H633 H 0.17515 0.63005 0.25043
 H634 H 0.12806 0.66930 0.27478
 H635 H 0.32882 0.81260 0.30107
 H636 H 0.25707 0.88256 0.27782
 O637 O 0.73532 0.36336 0.27324
 O638 O 0.77787 0.37353 0.20929
 O639 O 0.63087 0.30916 0.22885
 O640 O 0.61605 0.25512 0.19360
 O641 O 0.69547 0.26230 0.32702
 O642 O 0.75553 0.21771 0.32938
 O643 O 0.72143 0.20285 0.12239
 O644 O 0.67531 0.25516 0.11561
 O645 O 0.83092 0.26460 0.14857
 O646 O 0.84310 0.31858 0.20187
 O647 O 0.80161 0.16654 0.21053
 O648 O 0.75167 0.15309 0.26886
 O649 O 0.73564 0.15707 0.16959
 O650 O 0.70844 0.14105 0.22886
 O651 O 0.84455 0.21832 0.20406
 O652 O 0.85894 0.27451 0.24109
 O653 O 0.77615 0.25371 0.11106
 O654 O 0.72516 0.30000 0.10375
 O655 O 0.74784 0.31696 0.32033
 O656 O 0.79516 0.26671 0.32660
 O657 O 0.64155 0.25799 0.28688
 O658 O 0.62870 0.20856 0.23762
 O659 O 0.67533 0.35853 0.21601
 O660 O 0.72482 0.38195 0.18232
 Zr661 Zr 0.73156 0.33206 0.21935
 O662 O 0.76396 0.30031 0.17682
 Zr663 Zr 0.66672 0.25816 0.23040
 O664 O 0.69823 0.22216 0.19130
 Zr665 Zr 0.74530 0.26428 0.28887
 O666 O 0.78133 0.23099 0.25059
 Zr667 Zr 0.72782 0.25779 0.14982
 O668 O 0.69379 0.29425 0.18703
 Zr669 Zr 0.80720 0.26718 0.20654
 O670 O 0.77664 0.30131 0.24912
 Zr671 Zr 0.74455 0.19161 0.22005
 O672 O 0.70861 0.22297 0.26076
 O673 O 0.70184 0.29797 0.26091
 O674 O 0.77273 0.22551 0.17693
 C675 C 0.74202 0.35265 0.30915
 C676 C 0.63981 0.34534 0.22118
 C677 C 0.65765 0.26052 0.32085
 C678 C 0.72521 0.16704 0.13463
 C679 C 0.81393 0.25735 0.11549
 C680 C 0.83670 0.18141 0.20546
 H681 H 0.77579 0.31843 0.15703
 H682 H 0.80185 0.21701 0.26612
 H683 H 0.68542 0.31464 0.27834
 H684 H 0.67882 0.20390 0.17929
 H685 H 0.65738 0.27617 0.12528
 H686 H 0.62298 0.23860 0.17077
 H687 H 0.85481 0.25920 0.26563
 H688 H 0.81447 0.28503 0.31401
 H689 H 0.70976 0.32254 0.11406
 H690 H 0.72333 0.37175 0.15522
 H691 H 0.77947 0.15545 0.27817
 H692 H 0.73281 0.19916 0.32714
 H693 H 0.79566 0.37237 0.23244
 H694 H 0.83905 0.33032 0.17547
 H695 H 0.64086 0.19135 0.25793
 H696 H 0.68094 0.14891 0.22202
 N697 N 0.31419 0.15670 0.07774
 N698 N 0.31454 0.13271 0.04483
 C699 C 0.29052 0.10144 0.05211
 C700 C 0.27539 0.10436 0.09048
 C701 C 0.29011 0.14003 0.10484
 H702 H 0.25285 0.08585 0.10411
 H703 H 0.32794 0.18437 0.07927
 H704 H 0.33093 0.13904 0.01944
 N705 N 0.81315 0.58174 0.63359
 N706 N 0.81679 0.56419 0.59919
 C707 C 0.80150 0.58810 0.57101
 C708 C 0.78802 0.62224 0.58835
 C709 C 0.79538 0.61685 0.62777
 H710 H 0.77207 0.64653 0.57484
 H711 H 0.82209 0.56952 0.66042
 H712 H 0.82859 0.53594 0.59565
 N713 N 0.71746 0.86973 0.09811
 N714 N 0.72156 0.89918 0.06981
 C715 C 0.72460 0.93439 0.08811
 C716 C 0.72187 0.92771 0.12887
 C717 C 0.71803 0.88667 0.13367
 H718 H 0.72408 0.94938 0.15197
 H719 H 0.71554 0.83959 0.09197
 H720 H 0.71986 0.89366 0.03974
 N721 N 0.21127 0.37252 0.62899
 N722 N 0.20685 0.40334 0.60561
 C723 C 0.23250 0.43182 0.61666
 C724 C 0.25379 0.41880 0.64929
 C725 C 0.23959 0.38072 0.65560
 H726 H 0.27869 0.43314 0.66349
 H727 H 0.19611 0.34574 0.62577
 H728 H 0.18782 0.40400 0.58137
 N729 N 0.81406 0.13153 0.88196
 N730 N 0.81106 0.09933 0.90394
 C731 C 0.79318 0.07042 0.88317
 C732 C 0.78532 0.08501 0.84558
 C733 C 0.79859 0.12416 0.84638
 H734 H 0.76914 0.07052 0.82229
 H735 H 0.82581 0.15836 0.89161
 H736 H 0.82024 0.09781 0.93320
 N737 N 0.18648 0.60497 0.39208
 N738 N 0.18459 0.57041 0.41002
 C739 C 0.21330 0.54681 0.39551
 C740 C 0.23401 0.56711 0.36628
 C741 C 0.21632 0.60410 0.36570
 H742 H 0.26068 0.55796 0.35094
 H743 H 0.16828 0.62904 0.39865
 H744 H 0.16566 0.56410 0.43368
 N745 N 0.19961 0.81004 0.94350
 N746 N 0.19719 0.83404 0.97365
 C747 C 0.21904 0.86682 0.96623
 C748 C 0.23530 0.86360 0.92830
 C749 C 0.22246 0.82661 0.91533
 H750 H 0.25477 0.88419 0.91311
 H751 H 0.18531 0.78262 0.94223
 H752 H 0.18011 0.82767 0.99857
 N753 N 0.73106 0.42080 0.33325
 N754 N 0.73090 0.43963 0.36703
 C755 C 0.74071 0.41423 0.39630
 C756 C 0.74693 0.37720 0.38015
 C757 C 0.74086 0.38290 0.33995
 H758 H 0.75517 0.35020 0.39526
 H759 H 0.72400 0.43376 0.30620
 H760 H 0.72349 0.46943 0.36971
 N761 N 0.14709 0.17631 0.09790
 N762 N 0.12703 0.17513 0.06233
 C763 C 0.10481 0.20814 0.05919
 C764 C 0.10989 0.23090 0.09297
 C765 C 0.13738 0.21013 0.11591
 H766 H 0.09928 0.26065 0.09773
 H767 H 0.16944 0.15656 0.10632
 H768 H 0.12995 0.15245 0.04189
 N769 N 0.60641 0.69132 0.63881
 N770 N 0.57973 0.69873 0.61134
 C771 C 0.59447 0.72640 0.58640
 C772 C 0.63288 0.73616 0.59821
 C773 C 0.63895 0.71356 0.63178
 H774 H 0.65223 0.75894 0.58630
 H775 H 0.60184 0.67212 0.66259
 H776 H 0.55172 0.68531 0.61057
 N777 N 0.12488 0.67769 0.92718
 N778 N 0.09144 0.67739 0.94778
 C779 C 0.06265 0.69552 0.92657
 C780 C 0.07844 0.70696 0.89074
 C781 C 0.11781 0.69575 0.89260
 H782 H 0.06461 0.72473 0.86802
 H783 H 0.15215 0.66686 0.93726
 H784 H 0.08923 0.66616 0.97634
 N785 N 0.64265 0.28091 0.38886
 N786 N 0.61141 0.28369 0.41221
 C787 C 0.57896 0.26937 0.39359
 C788 C 0.59017 0.25762 0.35616
 C789 C 0.63098 0.26502 0.35472
 H790 H 0.57169 0.24450 0.33373
 H791 H 0.67129 0.29055 0.39609
 H792 H 0.61268 0.29556 0.44040
 N793 N 0.83183 0.75352 0.11034
 N794 N 0.86567 0.74689 0.08782
 C795 C 0.89817 0.75204 0.11088
 C796 C 0.88522 0.76224 0.14852
 C797 C 0.84373 0.76275 0.14669
 H798 H 0.90324 0.76857 0.17401
 H799 H 0.80261 0.75165 0.10002
 H800 H 0.86409 0.74109 0.05786
 N801 N 0.39870 0.31283 0.62145
 N802 N 0.42860 0.30836 0.59666
 C803 C 0.45120 0.27768 0.60874
 C804 C 0.43539 0.26263 0.64360
 C805 C 0.40178 0.28555 0.65020
 H806 H 0.44424 0.23611 0.65921
 H807 H 0.37560 0.33313 0.61768
 H808 H 0.43228 0.32520 0.57106
 N809 N 0.93313 0.29113 0.83304
 N810 N 0.95246 0.29598 0.86899
 C811 C 0.92598 0.28827 0.89825
 C812 C 0.88938 0.27914 0.88113
 C813 C 0.89530 0.28051 0.84071
 H814 H 0.86235 0.26953 0.89576
 H815 H 0.94664 0.29382 0.80547
 H816 H 0.98260 0.30313 0.87128
 N817 N 0.39177 0.72282 0.37720
 N818 N 0.41400 0.72253 0.40907
 C819 C 0.39089 0.73075 0.44049
 C820 C 0.35178 0.73563 0.42787
 C821 C 0.35394 0.73084 0.38744
 H822 H 0.32598 0.74370 0.44515
 H823 H 0.40257 0.71771 0.34887
 H824 H 0.44454 0.71677 0.40877
 N825 N 0.17846 0.07097 0.27773
 N826 N 0.15171 0.04086 0.28641
 C827 C 0.11596 0.05031 0.27057
 C828 C 0.11933 0.08783 0.25274
 C829 C 0.15918 0.09904 0.25734
 H830 H 0.09675 0.10386 0.23660
 H831 H 0.20829 0.07127 0.28641
 H832 H 0.15967 0.01628 0.30321
 N833 N 0.69157 0.56098 0.78224
 N834 N 0.66768 0.53011 0.78083
 C835 C 0.63390 0.54048 0.76218
 C836 C 0.63611 0.58044 0.75189
 C837 C 0.67370 0.59203 0.76477
 H838 H 0.61504 0.59750 0.73479
 H839 H 0.72024 0.56034 0.79413
 H840 H 0.67499 0.50220 0.79191
 N841 N 0.94772 0.17242 0.68535
 N842 N 0.98143 0.14885 0.68622
 C843 C 0.97332 0.11675 0.70874
 C844 C 0.93361 0.11885 0.72164
 C845 C 0.91924 0.15460 0.70697
 H846 H 0.91820 0.09891 0.74153
 H847 H 0.94601 0.19988 0.67125
 H848 H 1.00736 0.15559 0.67057
 N849 N 0.36451 0.61275 0.21572
 N850 N 0.39999 0.59610 0.21552
 C851 C 0.42311 0.61338 0.24300
 C852 C 0.40159 0.64312 0.26078
 C853 C 0.36446 0.64111 0.24305
 H854 H 0.41031 0.66110 0.28549
 H855 H 0.34078 0.60444 0.19776
 H856 H 0.40751 0.57212 0.19788
 N857 N 0.11773 0.87861 0.82419
 N858 N 0.08778 0.90653 0.82001
 C859 C 0.06034 0.89207 0.79500
 C860 C 0.07175 0.85394 0.78369
 C861 C 0.10861 0.84743 0.80161
 H862 H 0.05808 0.83592 0.76128
 H863 H 0.14418 0.88318 0.83965
 H864 H 0.08803 0.93404 0.83366
 N865 N 0.61208 0.40860 0.19760
 N866 N 0.58049 0.43067 0.20397
 C867 C 0.55544 0.41098 0.22820
 C868 C 0.57143 0.37422 0.23710
 C869 C 0.60775 0.37435 0.21750
 H870 H 0.56024 0.35241 0.25781
 H871 H 0.63674 0.41756 0.18096
 H872 H 0.57702 0.45934 0.19294
 N873 N 0.82284 0.93072 0.19729
 N874 N 0.84690 0.96341 0.19052
 C875 C 0.87652 0.96270 0.21728
 C876 C 0.87240 0.92883 0.24099
 C877 C 0.83789 0.91041 0.22789
 H878 H 0.88957 0.92078 0.26668
 H879 H 0.79627 0.92490 0.18246
 H880 H 0.84219 0.98370 0.16777
 N881 N 0.40302 0.37695 0.82407
 N882 N 0.42373 0.41010 0.82476
 C883 C 0.40695 0.43630 0.79975
 C884 C 0.37338 0.41936 0.78319
 C885 C 0.37255 0.38152 0.79890
 H886 H 0.35546 0.43090 0.75934
 H887 H 0.41084 0.35114 0.83918
 H888 H 0.45030 0.41365 0.84026
 N889 N 0.10487 0.19704 0.85158
 N890 N 0.08041 0.19478 0.88197
 C891 C 0.10054 0.20452 0.91477
 C892 C 0.13982 0.21285 0.90474
 C893 C 0.14108 0.20833 0.86430
 H894 H 0.16308 0.22420 0.92356
 H895 H 0.09638 0.19223 0.82249
 H896 H 0.05013 0.18793 0.87984
 N897 N 0.58691 0.82603 0.39878
 N898 N 0.56740 0.82565 0.43247
 C899 C 0.58588 0.80071 0.45769
 C900 C 0.61942 0.78550 0.43937
 C901 C 0.61838 0.80183 0.40198
 H902 H 0.63966 0.76315 0.45030
 H903 H 0.57854 0.84240 0.37402
 H904 H 0.54129 0.84159 0.43734
 N905 N 0.87985 0.79658 0.88849
 N906 N 0.90791 0.79178 0.91804
 C907 C 0.93319 0.76289 0.90698
 C908 C 0.92258 0.74984 0.86962
 C909 C 0.88854 0.77091 0.85985
 H910 H 0.93454 0.72477 0.85400
 H911 H 0.85455 0.81436 0.89049
 H912 H 0.90798 0.80816 0.94388
 N913 N 0.36313 0.27070 0.39473
 N914 N 0.39492 0.27364 0.41707
 C915 C 0.42727 0.26234 0.39637
 C916 C 0.41544 0.25268 0.35846
 C917 C 0.37429 0.25786 0.35911
 H918 H 0.43362 0.24156 0.33470
 H919 H 0.33423 0.27749 0.40392
 H920 H 0.39408 0.28323 0.44615
 N921 N 0.10700 0.79530 0.12775
 N922 N 0.07348 0.79821 0.10784
 C923 C 0.04584 0.77429 0.12442
 C924 C 0.06251 0.75562 0.15690
 C925 C 0.10157 0.76941 0.15745
 H926 H 0.04944 0.73262 0.17508
 H927 H 0.13334 0.81021 0.12045
 H928 H 0.07035 0.81475 0.08198
 N929 N 0.64597 0.19100 0.58607
 N930 N 0.61047 0.18857 0.56967
 C931 C 0.58444 0.21090 0.59026
 C932 C 0.60431 0.22733 0.62177
 C933 C 0.64320 0.21450 0.61752
 H934 H 0.59302 0.24814 0.64304
 H935 H 0.67150 0.17677 0.57581
 H936 H 0.60480 0.17239 0.54431
 N937 N 0.82307 0.23275 0.04790
 N938 N 0.84981 0.23332 0.01950
 C939 C 0.88290 0.25176 0.03222
 C940 C 0.87702 0.26310 0.07121
 C941 C 0.83815 0.25083 0.07971
 H942 H 0.89684 0.28015 0.08954
 H943 H 0.79453 0.22071 0.04508
 H944 H 0.84491 0.22203 -0.00856
 N945 N 0.33769 0.69339 0.62512
 N946 N 0.35650 0.69368 0.59112
 C947 C 0.37516 0.72862 0.58685
 C948 C 0.36812 0.75176 0.61973
 C949 C 0.34399 0.72808 0.64322
 H950 H 0.37687 0.78214 0.62444
 H951 H 0.31933 0.67039 0.63497
 H952 H 0.35599 0.67051 0.57103
 N953 N 0.26733 0.07280 0.84838
 N954 N 0.26441 0.04908 0.88204
 C955 C 0.26838 0.07270 0.91370
 C956 C 0.27347 0.11148 0.90069
 C957 C 0.27251 0.11027 0.86020
 H958 H 0.27606 0.13800 0.91800
 H959 H 0.26455 0.06284 0.81955
 H960 H 0.26126 0.01842 0.88151
 N961 N 0.69584 0.65402 0.40864
 N962 N 0.70266 0.62319 0.43158
 C963 C 0.74078 0.62450 0.44362
 C964 C 0.75904 0.65804 0.42776
 C965 C 0.72929 0.67593 0.40559
 H966 H 0.79018 0.66623 0.42939
 H967 H 0.66919 0.65883 0.39356
 H968 H 0.68168 0.60125 0.43814
 N969 N 0.69681 0.14431 0.07224
 N970 N 0.69290 0.10920 0.05186
 C971 C 0.70852 0.07985 0.07412
 C972 C 0.72142 0.09551 0.10973
 C973 C 0.71463 0.13606 0.10661
 H974 H 0.73700 0.08024 0.13312
 H975 H 0.68805 0.17199 0.06163
 H976 H 0.67962 0.10719 0.02425
 N977 N 0.24027 0.64248 0.59782
 N978 N 0.24475 0.61141 0.57490
 C979 C 0.24893 0.57856 0.59745
 C980 C 0.24687 0.58979 0.63664
 C981 C 0.24120 0.63041 0.63553
 H982 H 0.24879 0.57122 0.66257
 H983 H 0.23642 0.67140 0.58761
 H984 H 0.24384 0.61308 0.54430
 N985 N 0.77581 0.85804 0.89437
 N986 N 0.77778 0.89198 0.91285
 C987 C 0.76784 0.92151 0.88790
 C988 C 0.75965 0.90542 0.85124
 C989 C 0.76468 0.86480 0.85701
 H990 H 0.75004 0.92068 0.82488
 H991 H 0.78203 0.83071 0.90740
 H992 H 0.78542 0.89463 0.94245
 N993 N 0.24848 0.33775 0.40667
 N994 N 0.24968 0.36898 0.42965
 C995 C 0.24804 0.40216 0.40736
 C996 C 0.24534 0.39092 0.36801
 C997 C 0.24572 0.34977 0.36901
 H998 H 0.24363 0.40975 0.34225
 H999 H 0.24950 0.30858 0.41688
 H1000 H 0.25077 0.36699 0.46023
 N1001 N 0.20682 0.91529 0.17009
 N1002 N 0.20596 0.93511 0.13634
 C1003 C 0.21319 0.90981 0.10657
 C1004 C 0.21891 0.87258 0.12232
 C1005 C 0.21481 0.87721 0.16236
 H1006 H 0.22647 0.84568 0.10706
 H1007 H 0.20214 0.92776 0.19769
 H1008 H 0.20047 0.96538 0.13415
 N1009 N 0.70788 0.38628 0.60570
 N1010 N 0.70480 0.40825 0.57364
 C1011 C 0.72805 0.39318 0.54504
 C1012 C 0.74650 0.35922 0.55986
 C1013 C 0.73310 0.35631 0.59877
 H1014 H 0.76911 0.34151 0.54574
 H1015 H 0.69361 0.39246 0.63227
 H1016 H 0.68834 0.43436 0.57205
 N1017 N 0.17932 0.07672 0.72288
 N1018 N 0.14635 0.05568 0.71840
 C1019 C 0.11469 0.08016 0.72063
 C1020 C 0.12820 0.11810 0.72685
 C1021 C 0.16902 0.11470 0.72823
 H1022 H 0.11081 0.14448 0.73183
 H1023 H 0.20810 0.06505 0.72294
 H1024 H 0.14588 0.02516 0.71426
 N1025 N 0.62365 0.62578 0.32114
 N1026 N 0.59314 0.60117 0.32019
 C1027 C 0.56327 0.61778 0.29929
 C1028 C 0.57536 0.65545 0.28733
 C1029 C 0.61401 0.65900 0.30150
 H1030 H 0.55961 0.67612 0.26863
 H1031 H 0.65091 0.61947 0.33451
 H1032 H 0.59352 0.57325 0.33339
 N1033 N 0.06121 0.84910 0.28387
 N1034 N 0.04215 0.88320 0.28163
 C1035 C 0.06928 0.91267 0.27858
 C1036 C 0.10695 0.89659 0.27925
 C1037 C 0.10058 0.85652 0.28247
 H1038 H 0.13529 0.91150 0.27554
 H1039 H 0.04740 0.82146 0.28560
 H1040 H 0.01116 0.88584 0.28193
 N1041 N 0.59592 0.33626 0.73321
 N1042 N 0.57419 0.36880 0.73523
 C1043 C 0.59826 0.40073 0.73092
 C1044 C 0.63689 0.38748 0.72570
 C1045 C 0.63421 0.34670 0.72770
 H1046 H 0.66381 0.40483 0.72230
 H1047 H 0.58474 0.30762 0.73675
 H1048 H 0.54365 0.36867 0.74109
 N1049 N 0.90862 0.16613 0.19482
 N1050 N 0.93183 0.13463 0.19569
 C1051 C 0.90889 0.10256 0.20257
 C1052 C 0.86949 0.11432 0.20626
 C1053 C 0.87065 0.15461 0.20134
 H1054 H 0.84371 0.09652 0.21382
 H1055 H 0.91887 0.19503 0.19063
 H1056 H 0.96272 0.13548 0.19208
 N1057 N 0.40269 0.63841 0.73489
 N1058 N 0.42824 0.60888 0.73509
 C1059 C 0.40924 0.57562 0.74696
 C1060 C 0.36933 0.58477 0.75404
 C1061 C 0.36674 0.62490 0.74638
 H1062 H 0.34591 0.56586 0.76541
 H1063 H 0.41020 0.66761 0.72791
 H1064 H 0.45840 0.61248 0.72853
 N1065 N 0.85888 0.91129 0.73481
 N1066 N 0.89117 0.93348 0.73756
 C1067 C 0.92352 0.90980 0.74024
 C1068 C 0.91112 0.87097 0.73900
 C1069 C 0.87011 0.87325 0.73571
 H1070 H 0.92906 0.84457 0.74167
 H1071 H 0.82980 0.92214 0.73369
 H1072 H 0.89045 0.96424 0.73941
 N1073 N 0.34528 0.41322 0.25990
 N1074 N 0.37651 0.43627 0.26542
 C1075 C 0.41002 0.41412 0.26453
 C1076 C 0.39933 0.37517 0.25781
 C1077 C 0.35810 0.37602 0.25506
 H1078 H 0.41862 0.34977 0.25514
 H1079 H 0.31582 0.42306 0.25915
 H1080 H 0.37439 0.46684 0.26844
   
