data_POSCAR
  _audit_creation_date              2014-09-24
  _audit_creation_method            'ToBaCCo'
  _symmetry_space_group_name_H-M    'P1'
  _symmetry_Int_Tables_number       1
  _symmetry_cell_setting            triclinic
  loop_
  _symmetry_equiv_pos_as_xyz
 x,y,z
_cell_length_a 19.7380
_cell_length_b 20.3772
_cell_length_c 20.3564
_cell_angle_alpha 85.415800
_cell_angle_beta 94.858000
_cell_angle_gamma 85.280900
loop_
  _atom_site_label
  _atom_site_type_symbol
  _atom_site_fract_x
  _atom_site_fract_y
  _atom_site_fract_z
O1 O 0.59381 0.47404 0.05957
 O2 O 0.41456 0.53968 0.04695
 O3 O 0.47898 0.41282 0.05801
 O4 O 0.52952 0.58407 0.04852
 O5 O 0.51568 0.58768 -0.06055
 O6 O 0.47325 0.41398 -0.05090
 O7 O 0.40227 0.52135 -0.05858
 O8 O 0.58442 0.46486 -0.04826
 Cu9 Cu 0.50296 0.49981 0.06431
 Cu10 Cu 0.49407 0.50007 -0.06564
 C11 C 0.61973 0.45874 0.00741
 C12 C 0.37761 0.54139 -0.00745
 C13 C 0.46920 0.38375 0.00539
 C14 C 0.53086 0.61506 -0.00792
 O15 O -0.04559 0.59746 0.46948
 O16 O -0.07026 0.42422 0.51552
 O17 O -0.05828 0.53046 0.57761
 O18 O -0.05514 0.49191 0.40362
 O19 O 0.05622 0.46579 0.42084
 O20 O 0.05378 0.50891 0.59306
 O21 O 0.04179 0.40204 0.53067
 O22 O 0.06629 0.57427 0.47849
 Cu23 Cu -0.06870 0.51313 0.48960
 Cu24 Cu 0.06588 0.48573 0.50779
 C25 C 0.01414 0.61565 0.46702
 C26 C -0.01804 0.38353 0.53013
 C27 C -0.00269 0.52753 0.61443
 C28 C 0.00110 0.47080 0.38321
 O29 O 0.52233 0.04689 0.58285
 O30 O 0.48175 0.05186 0.40478
 O31 O 0.41510 0.07177 0.50828
 O32 O 0.59548 0.02669 0.48228
 O33 O 0.57359 -0.07792 0.48345
 O34 O 0.39770 -0.03399 0.52408
 O35 O 0.45478 -0.05127 0.41646
 O36 O 0.51446 -0.06076 0.59525
 Cu37 Cu 0.50660 0.05971 0.49292
 Cu38 Cu 0.48437 -0.06704 0.50602
 C39 C 0.52218 -0.00612 0.61983
 C40 C 0.45930 0.00173 0.38038
 C41 C 0.37683 0.02674 0.52344
 C42 C 0.61416 -0.03331 0.47551
 C43 C 0.53338 -0.04457 -0.13211
 C44 C 0.53723 -0.11318 -0.11440
 C45 C 0.53525 -0.13789 -0.04799
 C46 C 0.51987 -0.09310 -0.00013
 C47 C 0.51832 -0.02441 -0.01711
 C48 C 0.53297 -0.00104 -0.08094
 C49 C 0.54678 0.06547 -0.09136
 C50 C 0.52940 0.11072 -0.04667
 C51 C 0.50159 0.09011 0.01196
 C52 C 0.50146 0.02145 0.02941
 C53 C 0.50554 -0.11491 0.06416
 C54 C 0.48862 -0.07001 0.10969
 C55 C 0.48330 -0.00129 0.09236
 C56 C 0.46160 0.04540 0.13620
 C57 C 0.45810 0.11347 0.11644
 C58 C 0.47582 0.13632 0.05400
 H59 H 0.56962 0.08344 -0.13503
 H60 H 0.53776 0.16200 -0.05851
 H61 H 0.50530 -0.16691 0.07954
 H62 H 0.47978 -0.09029 0.15852
 H63 H 0.54258 -0.14753 -0.15196
 H64 H 0.43817 0.14877 0.14869
 C65 C 0.03909 0.54385 0.85937
 C66 C 0.10483 0.55958 0.87999
 C67 C 0.12930 0.55258 0.94705
 C68 C 0.08867 0.52529 0.99473
 C69 C 0.02200 0.50933 0.97470
 C70 C -0.00291 0.51865 0.90688
 C71 C -0.06886 0.50144 0.88828
 C72 C -0.11028 0.47833 0.93518
 C73 C -0.08647 0.46780 1.00263
 C74 C -0.01972 0.48355 1.02263
 C75 C 0.11336 0.51207 1.06181
 C76 C 0.07187 0.48944 1.10882
 C77 C 0.00510 0.47442 1.09052
 C78 C -0.03775 0.45147 1.13830
 C79 C -0.10410 0.43759 1.11786
 C80 C -0.12813 0.44350 1.05076
 H81 H -0.08967 0.50546 0.83717
 H82 H -0.16151 0.46954 0.91735
 H83 H 0.16532 0.51841 1.07937
 H84 H 0.09326 0.48419 1.15976
 H85 H 0.13640 0.57980 0.84366
 H86 H -0.13668 0.41977 1.15446
 C87 C -0.02747 -0.14228 0.46204
 C88 C -0.09795 -0.12951 0.44553
 C89 C -0.13274 -0.06787 0.45149
 C90 C -0.09451 -0.01540 0.47036
 C91 C -0.02342 -0.02805 0.49011
 C92 C 0.00957 -0.09233 0.48854
 C93 C 0.07774 -0.10513 0.51593
 C94 C 0.11540 -0.05443 0.53613
 C95 C 0.08588 0.01090 0.53167
 C96 C 0.01479 0.02363 0.51189
 C97 C -0.12454 0.04970 0.46779
 C98 C -0.08699 0.10041 0.48834
 C99 C -0.01803 0.08798 0.51325
 C100 C 0.01994 0.13850 0.53702
 C101 C 0.09045 0.12579 0.55283
 C102 C 0.12460 0.06353 0.54891
 H103 H 0.10261 -0.15464 0.52383
 H104 H 0.16743 -0.06744 0.55701
 H105 H -0.17690 0.06266 0.44797
 H106 H -0.11254 0.14972 0.48274
 H107 H -0.12654 -0.16906 0.42875
 H108 H 0.11949 0.16588 0.56753
 N109 N -0.21425 0.38551 0.98533
 N110 N -0.28125 0.39144 0.97211
 C111 C -0.30825 0.43451 1.01161
 C112 C -0.25675 0.45686 1.05193
 C113 C -0.19781 0.42580 1.03250
 H114 H -0.26113 0.49487 1.08594
 H115 H -0.18040 0.35688 0.96015
 H116 H -0.30757 0.36767 0.93557
 N117 N 0.21160 0.60907 1.01820
 N118 N 0.28202 0.60163 1.03400
 C119 C 0.30924 0.56465 0.98928
 C120 C 0.25796 0.54788 0.94440
 C121 C 0.19757 0.57385 0.96617
 H122 H 0.26325 0.51401 0.90641
 H123 H 0.17651 0.63216 1.04653
 H124 H 0.30757 0.61971 1.07488
 N125 N 0.06777 -0.22363 0.43514
 N126 N 0.07972 -0.29233 0.43821
 C127 C 0.02193 -0.31769 0.45442
 C128 C -0.02690 -0.26723 0.46291
 C129 C 0.00418 -0.20926 0.45280
 H130 H -0.07710 -0.27247 0.47932
 H131 H 0.10245 -0.19048 0.42066
 H132 H 0.12558 -0.31821 0.42962
 N133 N -0.07043 0.22218 0.56857
 N134 N -0.08035 0.28732 0.56691
 C135 C -0.02600 0.31329 0.54292
 C136 C 0.01982 0.26334 0.52790
 C137 C -0.01051 0.20622 0.54377
 H138 H 0.06767 0.26811 0.50636
 H139 H -0.10375 0.18965 0.58727
 H140 H -0.12318 0.31314 0.58249
 N141 N 0.49303 0.04361 -0.22261
 N142 N 0.49642 0.05555 -0.29009
 C143 C 0.52273 -0.00039 -0.31255
 C144 C 0.53936 -0.04859 -0.25956
 C145 C 0.52300 -0.01759 -0.20320
 H146 H 0.56119 -0.09875 -0.26177
 H147 H 0.46600 0.07570 -0.19469
 H148 H 0.47483 0.09849 -0.31821
 N149 N 0.39677 -0.02110 0.21455
 N150 N 0.39732 -0.03370 0.27930
 C151 C 0.44042 0.00497 0.30904
 C152 C 0.46840 0.04400 0.26151
 C153 C 0.44063 0.02481 0.20223
 H154 H 0.50721 0.07792 0.26896
 H155 H 0.36818 -0.04490 0.17962
 H156 H 0.36950 -0.06888 0.30239
 N157 N 0.59771 -0.23187 0.02417
 N158 N 0.59604 -0.29637 0.03503
 C159 C 0.55131 -0.31696 -0.01081
 C160 C 0.52314 -0.26282 -0.05331
 C161 C 0.55315 -0.20943 -0.02820
 H162 H 0.48275 -0.26166 -0.09291
 H163 H 0.62724 -0.20342 0.05378
 H164 H 0.62389 -0.32545 0.07439
 N165 N 0.42191 0.22417 -0.03068
 N166 N 0.42010 0.28880 -0.04335
 C167 C 0.45316 0.31427 0.00792
 C168 C 0.47697 0.26317 0.05604
 C169 C 0.45697 0.20651 0.02866
 H170 H 0.50894 0.26611 0.10140
 H171 H 0.40129 0.19248 -0.06337
 H172 H 0.39832 0.31466 -0.08748
 N173 N -0.24296 -0.09786 0.39644
 N174 N -0.30859 -0.09136 0.40517
 C175 C -0.31827 -0.05137 0.45358
 C176 C -0.25582 -0.03145 0.47709
 C177 C -0.20881 -0.06249 0.43952
 H178 H -0.24579 -0.00201 0.51819
 H179 H -0.22216 -0.12699 0.36192
 H180 H -0.34612 -0.11395 0.37811
 N181 N 0.23527 0.09413 0.60225
 N182 N 0.30076 0.08700 0.59306
 C183 C 0.30972 0.04566 0.54566
 C184 C 0.24708 0.02541 0.52340
 C185 C 0.20062 0.05777 0.56053
 H186 H 0.23653 -0.00508 0.48324
 H187 H 0.21487 0.12444 0.63604
 H188 H 0.33864 0.11013 0.61902
 N189 N 0.04274 0.40174 1.23399
 N190 N 0.05359 0.40822 1.29792
 C191 C 0.00337 0.45007 1.31582
 C192 C -0.04190 0.47103 1.26083
 C193 C -0.01404 0.44014 1.20964
 H194 H -0.08630 0.50641 1.25771
 H195 H 0.07472 0.37268 1.20734
 H196 H 0.09513 0.38468 1.32851
 N197 N -0.04369 0.59339 0.76536
 N198 N -0.05548 0.58750 0.70139
 C199 C -0.00451 0.54752 0.68210
 C200 C 0.04223 0.52723 0.73617
 C201 C 0.01452 0.55649 0.78831
 H202 H 0.08742 0.49298 0.73814
 H203 H -0.07613 0.62075 0.79306
 H204 H -0.09821 0.61001 0.67178
   
