data_POSCAR
  _audit_creation_date              2014-09-24
  _audit_creation_method            'ToBaCCo'
  _symmetry_space_group_name_H-M    'P1'
  _symmetry_Int_Tables_number       1
  _symmetry_cell_setting            triclinic
  loop_
  _symmetry_equiv_pos_as_xyz
 x,y,z
_cell_length_a 49.9466
_cell_length_b 49.9663
_cell_length_c 49.9317
_cell_angle_alpha 89.956400
_cell_angle_beta 90.004600
_cell_angle_gamma 89.977000
loop_
  _atom_site_label
  _atom_site_type_symbol
  _atom_site_fract_x
  _atom_site_fract_y
  _atom_site_fract_z
C1 C 0.16664 0.16489 0.20082
 C2 C 0.15520 0.18773 0.18872
 C3 C 0.16584 0.19870 0.16515
 C4 C 0.18818 0.18659 0.15325
 C5 C 0.20064 0.16403 0.16479
 C6 C 0.18953 0.15353 0.18862
 H7 H 0.13751 0.19691 0.19709
 H8 H 0.19495 0.19432 0.13420
 H9 H 0.20010 0.13781 0.19900
 C10 C -0.16408 0.83412 0.20082
 C11 C -0.18714 0.84542 0.18887
 C12 C -0.19803 0.83500 0.16513
 C13 C -0.18578 0.81282 0.15310
 C14 C -0.16329 0.80067 0.16470
 C15 C -0.15255 0.81145 0.18837
 H16 H -0.19778 0.86150 0.19868
 H17 H -0.19357 0.80519 0.13436
 H18 H -0.13476 0.80228 0.19654
 C19 C -0.16527 0.16604 -0.20129
 C20 C -0.18792 0.15448 -0.18883
 C21 C -0.19871 0.16513 -0.16512
 C22 C -0.18658 0.18759 -0.15349
 C23 C -0.16440 0.19987 -0.16552
 C24 C -0.15398 0.18905 -0.18930
 H25 H -0.19708 0.13671 -0.19702
 H26 H -0.19421 0.19532 -0.13472
 H27 H -0.13789 0.19971 -0.19910
 C28 C 0.16422 0.83639 -0.19825
 C29 C 0.15337 0.81315 -0.18628
 C30 C 0.16587 0.80059 -0.16443
 C31 C 0.18944 0.81164 -0.15398
 C32 C 0.20043 0.83507 -0.16486
 C33 C 0.18777 0.84724 -0.18689
 H34 H 0.13439 0.80525 -0.19301
 H35 H 0.19967 0.80159 -0.13770
 H36 H 0.19703 0.86478 -0.19549
 C37 C 0.16383 1.16302 0.80156
 C38 C 0.18736 1.15205 0.81290
 C39 C 0.20008 1.16412 0.83491
 C40 C 0.18920 1.18758 0.84581
 C41 C 0.16565 1.19876 0.83539
 C42 C 0.15309 1.18630 0.81353
 H43 H 0.19654 1.13448 0.80429
 H44 H 0.19948 1.19754 0.86209
 H45 H 0.13414 1.19430 0.80681
 C46 C 0.83572 0.83423 0.79974
 C47 C 0.81319 0.84573 0.81227
 C48 C 0.80115 0.83382 0.83465
 C49 C 0.81216 0.81026 0.84526
 C50 C 0.83498 0.79819 0.83376
 C51 C 0.84626 0.81041 0.81083
 H52 H 0.80544 0.86478 0.80552
 H53 H 0.80304 0.80189 0.86299
 H54 H 0.86196 0.80005 0.80020
 C55 C 0.16660 0.83394 1.20145
 C56 C 0.15499 0.81127 1.18908
 C57 C 0.16558 0.80045 1.16536
 C58 C 0.18801 0.81257 1.15362
 C59 C 0.20034 0.83476 1.16555
 C60 C 0.18958 0.84521 1.18935
 H61 H 0.13724 0.80212 1.19736
 H62 H 0.19568 0.80490 1.13485
 H63 H 0.20027 0.86130 1.19908
 C64 C 0.83488 1.16597 1.20098
 C65 C 0.81204 1.15460 1.18883
 C66 C 0.80105 1.16537 1.16533
 C67 C 0.81313 1.18780 1.15355
 C68 C 0.83568 1.20019 1.16514
 C69 C 0.84619 1.18895 1.18891
 H70 H 0.80290 1.13684 1.19710
 H71 H 0.80539 1.19468 1.13453
 H72 H 0.86190 1.19947 1.19935
 N73 N 0.47270 0.97100 1.04764
 N74 N 0.45178 0.96821 1.06355
 N75 N 0.52914 0.95239 1.02940
 N76 N 0.54990 0.93634 1.03245
 N77 N 0.52915 0.97112 1.04781
 N78 N 0.55001 0.96840 1.06383
 N79 N 0.47284 0.95231 1.02918
 N80 N 0.45210 0.93621 1.03212
 C81 C 0.43916 0.94635 1.05368
 C82 C 0.56273 0.94654 1.05405
 N83 N 0.52946 0.97072 0.95307
 N84 N 0.55024 0.96774 0.93703
 N85 N 0.47303 0.95219 0.97150
 N86 N 0.45235 0.93604 0.96848
 N87 N 0.47318 0.97062 0.95275
 N88 N 0.45268 0.96742 0.93638
 N89 N 0.52948 0.95227 0.97180
 N90 N 0.55037 0.93631 0.96909
 Mn91 Mn 0.50111 0.95195 1.00046
 C92 C 0.56310 0.94615 0.94724
 C93 C 0.43987 0.94574 0.94642
 N94 N 0.52899 1.02869 1.04755
 N95 N 0.54988 1.03154 1.06348
 N96 N 0.47254 1.04707 1.02878
 N97 N 0.45165 1.06302 1.03154
 N98 N 0.47255 1.02853 1.04741
 N99 N 0.45161 1.03130 1.06330
 N100 N 0.52887 1.04731 1.02899
 N101 N 0.54960 1.06341 1.03187
 Mn102 Mn 0.50085 0.99984 1.04795
 C103 C 0.56251 1.05337 1.05352
 C104 C 0.43879 1.05297 1.05321
 N105 N 0.47301 1.02829 0.95250
 N106 N 0.45247 1.03128 0.93613
 N107 N 0.52910 1.04709 0.97131
 N108 N 0.54981 1.06323 0.96843
 N109 N 0.52939 1.02834 0.95291
 N110 N 0.55037 1.03114 0.93709
 N111 N 0.47274 1.04681 0.97113
 N112 N 0.45196 1.06283 0.96802
 Mn113 Mn 0.50126 0.99950 0.95247
 Mn114 Mn 0.50080 1.04741 1.00005
 Cl115 Cl 0.50100 0.99967 1.00023
 C116 C 0.43953 1.05295 0.94604
 C117 C 0.56289 1.05307 0.94696
 N118 N 0.02970 0.47151 0.04795
 N119 N 0.03235 0.45057 0.06387
 N120 N 0.04847 0.52786 0.02945
 N121 N 0.06446 0.54868 0.03236
 N122 N 0.02968 0.52797 0.04783
 N123 N 0.03230 0.54896 0.06366
 N124 N 0.04849 0.47159 0.02957
 N125 N 0.06451 0.45080 0.03256
 C126 C 0.05423 0.43788 0.05408
 C127 C 0.05416 0.56165 0.05383
 N128 N 0.03041 0.52776 -0.04696
 N129 N 0.03352 0.54841 -0.06316
 N130 N 0.04883 0.47143 -0.02806
 N131 N 0.06493 0.45066 -0.03087
 N132 N 0.03045 0.47150 -0.04685
 N133 N 0.03360 0.45086 -0.06301
 N134 N 0.04880 0.52785 -0.02817
 N135 N 0.06485 0.54864 -0.03102
 Mn136 Mn 0.04899 0.49968 0.00070
 C137 C 0.05513 0.56124 -0.05299
 C138 C 0.05522 0.43804 -0.05283
 N139 N -0.02787 0.52796 0.04740
 N140 N -0.03066 0.54896 0.06318
 N141 N -0.04639 0.47156 0.02888
 N142 N -0.06246 0.45079 0.03174
 N143 N -0.02788 0.47155 0.04754
 N144 N -0.03080 0.45073 0.06356
 N145 N -0.04642 0.52787 0.02877
 N146 N -0.06241 0.54874 0.03146
 Mn147 Mn 0.00090 0.49975 0.04803
 C148 C -0.05236 0.56169 0.05306
 C149 C -0.05252 0.43799 0.05351
 N150 N -0.02719 0.47140 -0.04718
 N151 N -0.03000 0.45060 -0.06323
 N152 N -0.04602 0.52777 -0.02892
 N153 N -0.06237 0.54825 -0.03228
 N154 N -0.02725 0.52781 -0.04732
 N155 N -0.03027 0.54839 -0.06364
 N156 N -0.04599 0.47151 -0.02881
 N157 N -0.06216 0.45088 -0.03192
 Mn158 Mn 0.00160 0.49962 -0.04742
 Mn159 Mn -0.04654 0.49968 -0.00002
 Cl160 Cl 0.00124 0.49968 0.00032
 C161 C -0.05197 0.43802 -0.05351
 C162 C -0.05232 0.56094 -0.05404
 N163 N 1.02952 0.04725 0.52843
 N164 N 1.03211 0.06312 0.54938
 N165 N 1.04835 0.02845 0.47217
 N166 N 1.06461 0.03140 0.45155
 N167 N 1.02984 0.04711 0.47208
 N168 N 1.03306 0.06331 0.45145
 N169 N 1.04805 0.02861 0.52862
 N170 N 1.06369 0.03125 0.54976
 C171 C 1.05358 0.05295 0.56248
 C172 C 1.05486 0.05329 0.43882
 N173 N 1.02975 -0.04775 0.47243
 N174 N 1.03297 -0.06408 0.45192
 N175 N 1.04801 -0.02893 0.52884
 N176 N 1.06370 -0.03152 0.54996
 N177 N 1.02947 -0.04753 0.52878
 N178 N 1.03208 -0.06334 0.54980
 N179 N 1.04829 -0.02914 0.47240
 N180 N 1.06457 -0.03225 0.45181
 Mn181 Mn 1.04852 -0.00025 0.50050
 C182 C 1.05481 -0.05419 0.43924
 C183 C 1.05358 -0.05315 0.56281
 N184 N 0.97220 0.04712 0.47171
 N185 N 0.96920 0.06332 0.45103
 N186 N 0.95325 0.02878 0.52807
 N187 N 0.93684 0.03202 0.54854
 N188 N 0.97190 0.04729 0.52813
 N189 N 0.96874 0.06356 0.54870
 N190 N 0.95355 0.02862 0.47174
 N191 N 0.93730 0.03178 0.45114
 Mn192 Mn 1.00086 0.04753 0.50008
 C193 C 0.94729 0.05353 0.43839
 C194 C 0.94674 0.05383 0.56123
 N195 N 0.97187 -0.04742 0.52852
 N196 N 0.96894 -0.06334 0.54940
 N197 N 0.95356 -0.02901 0.47193
 N198 N 0.93744 -0.03213 0.45122
 N199 N 0.97207 -0.04767 0.47215
 N200 N 0.96900 -0.06404 0.45165
 N201 N 0.95323 -0.02888 0.52832
 N202 N 0.93708 -0.03174 0.54904
 Mn203 Mn 1.00079 -0.04793 0.50046
 Mn204 Mn 0.95306 -0.00013 0.50001
 Cl205 Cl 1.00080 -0.00019 0.50026
 C206 C 0.94709 -0.05338 0.56200
 C207 C 0.94728 -0.05411 0.43877
 C208 C 1.13337 0.13128 0.27216
 C209 C 1.12956 0.15841 0.26600
 C210 C 1.14054 0.16949 0.24277
 C211 C 1.15566 0.15375 0.22472
 C212 C 1.15934 0.12643 0.23120
 C213 C 1.14844 0.11545 0.25453
 C214 C 1.12166 0.11957 0.29681
 N215 N 1.12832 0.09445 0.30485
 N216 N 1.11781 0.08398 0.32702
 C217 C 1.10012 0.09813 0.34206
 N218 N 1.09343 0.12323 0.33400
 N219 N 1.10400 0.13374 0.31188
 C220 C 1.08843 0.08652 0.36676
 C221 C 1.06745 0.09964 0.38020
 C222 C 1.05647 0.08876 0.40353
 C223 C 1.06636 0.06464 0.41404
 C224 C 1.08729 0.05147 0.40068
 C225 C 1.09815 0.06224 0.37723
 H226 H 1.11834 0.17129 0.27933
 H227 H 1.13787 0.19076 0.23983
 H228 H 1.16968 0.11290 0.21784
 H229 H 1.15153 0.09437 0.25851
 H230 H 1.05940 0.11830 0.37265
 H231 H 1.04031 0.09931 0.41340
 H232 H 1.09523 0.03278 0.40830
 H233 H 1.11430 0.05162 0.36742
 C234 C 0.86941 -0.13248 0.27210
 C235 C 0.85396 -0.11671 0.25473
 C236 C 0.84302 -0.12761 0.23142
 C237 C 0.84703 -0.15482 0.22467
 C238 C 0.86258 -0.17050 0.24243
 C239 C 0.87359 -0.15948 0.26567
 C240 C 0.88108 -0.12081 0.29678
 N241 N 0.89890 -0.13488 0.31177
 N242 N 0.90940 -0.12437 0.33392
 C243 C 0.90248 -0.09937 0.34206
 N244 N 0.88463 -0.08532 0.32708
 N245 N 0.87419 -0.09580 0.30490
 C246 C 0.91406 -0.08772 0.36678
 C247 C 0.90421 -0.06346 0.37712
 C248 C 0.91498 -0.05258 0.40055
 C249 C 0.93592 -0.06563 0.41403
 C250 C 0.94591 -0.08975 0.40366
 C251 C 0.93504 -0.10074 0.38033
 H252 H 0.85058 -0.09572 0.25891
 H253 H 0.83237 -0.11410 0.21828
 H254 H 0.86556 -0.19169 0.23928
 H255 H 0.88514 -0.17232 0.27879
 H256 H 0.88805 -0.05291 0.36723
 H257 H 0.90693 -0.03390 0.40806
 H258 H 0.96208 -0.10022 0.41364
 H259 H 0.94317 -0.11939 0.37288
 C260 C 0.86818 0.13258 0.72742
 C261 C 0.84116 0.12843 0.73386
 C262 C 0.83012 0.13946 0.75709
 C263 C 0.84580 0.15499 0.77483
 C264 C 0.87301 0.15900 0.76806
 C265 C 0.88393 0.14804 0.74476
 C266 C 0.87987 0.12083 0.70279
 N267 N 0.90491 0.12765 0.69465
 N268 N 0.91541 0.11711 0.67252
 C269 C 0.90137 0.09923 0.65762
 N270 N 0.87635 0.09237 0.66579
 N271 N 0.86581 0.10297 0.68788
 C272 C 0.91306 0.08751 0.63298
 C273 C 0.90003 0.06648 0.61955
 C274 C 0.91105 0.05546 0.59631
 C275 C 0.93520 0.06536 0.58589
 C276 C 0.94825 0.08635 0.59924
 C277 C 0.93735 0.09725 0.62259
 H278 H 0.82833 0.11688 0.72076
 H279 H 0.80892 0.13650 0.76025
 H280 H 0.88653 0.16965 0.78118
 H281 H 0.90494 0.15140 0.74057
 H282 H 0.88136 0.05842 0.62704
 H283 H 0.90058 0.03926 0.58643
 H284 H 0.96696 0.09431 0.59169
 H285 H 0.94790 0.11344 0.63239
 C286 C 1.12851 -0.12876 0.73219
 C287 C 1.12442 -0.15583 0.73842
 C288 C 1.13597 -0.16717 0.76123
 C289 C 1.15197 -0.15179 0.77881
 C290 C 1.15566 -0.12443 0.77245
 C291 C 1.14418 -0.11319 0.74951
 C292 C 1.11676 -0.11702 0.70757
 N293 N 1.12384 -0.09213 0.69920
 N294 N 1.11364 -0.08184 0.67679
 C295 C 1.09586 -0.09596 0.66183
 N296 N 1.08869 -0.12079 0.67027
 N297 N 1.09894 -0.13111 0.69263
 C298 C 1.08478 -0.08473 0.63667
 C299 C 1.06404 -0.09799 0.62301
 C300 C 1.05383 -0.08764 0.59909
 C301 C 1.06425 -0.06392 0.58822
 C302 C 1.08488 -0.05056 0.60185
 C303 C 1.09499 -0.06081 0.62587
 H304 H 1.11268 -0.16852 0.72535
 H305 H 1.13316 -0.18843 0.76409
 H306 H 1.16662 -0.11112 0.78551
 H307 H 1.14745 -0.09214 0.74549
 H308 H 1.05563 -0.11639 0.63079
 H309 H 1.03786 -0.09831 0.58904
 H310 H 1.09320 -0.03216 0.59397
 H311 H 1.11097 -0.05009 0.63584
 C312 C 0.27072 1.12959 1.12983
 C313 C 0.25373 1.11414 1.14600
 C314 C 0.23070 1.12531 1.15734
 C315 C 0.22392 1.15246 1.15299
 C316 C 0.24122 1.16776 1.13659
 C317 C 0.26413 1.15649 1.12520
 C318 C 0.29529 1.11784 1.11800
 N319 N 0.30996 1.13175 1.09981
 N320 N 0.33218 1.12134 1.08937
 C321 C 0.34073 1.09659 1.09671
 N322 N 0.32604 1.08266 1.11489
 N323 N 0.30378 1.09304 1.12528
 C324 C 0.36567 1.08520 1.08534
 C325 C 0.37647 1.06127 1.09554
 C326 C 0.40025 1.05081 1.08511
 C327 C 0.41363 1.06396 1.06417
 C328 C 0.40276 1.08771 1.05377
 C329 C 0.37908 1.09826 1.06430
 H330 H 0.25803 1.09322 1.14973
 H331 H 0.21786 1.11209 1.16868
 H332 H 0.23800 1.18890 1.13328
 H333 H 0.27695 1.16909 1.11307
 H334 H 0.36669 1.05069 1.11174
 H335 H 0.40813 1.03240 1.09343
 H336 H 0.41263 1.09823 1.03758
 H337 H 0.37129 1.11667 1.05589
 C338 C 0.27267 0.86858 0.86871
 C339 C 0.26860 0.86839 0.84086
 C340 C 0.24529 0.85742 0.82995
 C341 C 0.22535 0.84664 0.84665
 C342 C 0.22940 0.84694 0.87452
 C343 C 0.25282 0.85767 0.88541
 C344 C 0.29744 0.88008 0.88028
 N345 N 0.30396 0.87571 0.90633
 N346 N 0.32626 0.88599 0.91672
 C347 C 0.34294 0.90117 0.90152
 N348 N 0.33639 0.90559 0.87549
 N349 N 0.31415 0.89522 0.86507
 C350 C 0.36774 0.91263 0.91308
 C351 C 0.38209 0.93251 0.89924
 C352 C 0.40545 0.94336 0.91015
 C353 C 0.41511 0.93436 0.93498
 C354 C 0.40087 0.91446 0.94881
 C355 C 0.37735 0.90380 0.93804
 H356 H 0.28359 0.87644 0.82741
 H357 H 0.24307 0.85706 0.80838
 H358 H 0.21428 0.83916 0.88797
 H359 H 0.25523 0.85766 0.90696
 H360 H 0.37519 0.93984 0.88003
 H361 H 0.41604 0.95870 0.89907
 H362 H 0.40782 0.90722 0.96805
 H363 H 0.36682 0.88848 0.94919
 C364 C 0.73054 0.86953 1.13076
 C365 C 0.75020 0.88597 1.14235
 C366 C 0.77343 0.87482 1.15333
 C367 C 0.77742 0.84696 1.15319
 C368 C 0.75767 0.83055 1.14167
 C369 C 0.73459 0.84170 1.13049
 C370 C 0.70590 0.88126 1.11910
 N371 N 0.68941 0.86623 1.10357
 N372 N 0.66719 0.87667 1.09317
 C373 C 0.66044 0.90257 1.09794
 N374 N 0.67691 0.91761 1.11348
 N375 N 0.69921 0.90719 1.12380
 C376 C 0.63556 0.91404 1.08654
 C377 C 0.62566 0.93878 1.09561
 C378 C 0.60193 0.94932 1.08512
 C379 C 0.58777 0.93546 1.06520
 C380 C 0.59776 0.91090 1.05592
 C381 C 0.62132 0.90023 1.06658
 H382 H 0.74779 0.90751 1.14273
 H383 H 0.78841 0.88807 1.16167
 H384 H 0.75984 0.80898 1.14165
 H385 H 0.71975 0.82844 1.12191
 H386 H 0.63611 0.94992 1.11099
 H387 H 0.59473 0.96837 1.09255
 H388 H 0.58726 0.89981 1.04054
 H389 H 0.62844 0.88119 1.05905
 C390 C 0.73069 1.13030 0.87058
 C391 C 0.73427 1.15819 0.87010
 C392 C 0.75714 1.16940 0.85855
 C393 C 0.77713 1.15301 0.84742
 C394 C 0.77366 1.12508 0.84814
 C395 C 0.75065 1.11387 0.85947
 C396 C 0.70617 1.11852 0.88241
 N397 N 0.69977 1.09245 0.87812
 N398 N 0.67750 1.08201 0.88846
 C399 C 0.66077 1.09716 0.90362
 N400 N 0.66724 1.12319 0.90801
 N401 N 0.68943 1.13366 0.89758
 C402 C 0.63586 1.08567 0.91494
 C403 C 0.62137 1.09958 0.93466
 C404 C 0.59776 1.08889 0.94518
 C405 C 0.58798 1.06421 0.93600
 C406 C 0.60241 1.05026 0.91632
 C407 C 0.62618 1.06082 0.90598
 H408 H 0.71921 1.17145 0.87831
 H409 H 0.75894 1.19099 0.85794
 H410 H 0.78887 1.11184 0.84019
 H411 H 0.74860 1.09230 0.85970
 H412 H 0.62832 1.11871 0.94208
 H413 H 0.58705 1.10004 0.96037
 H414 H 0.59537 1.03113 0.90896
 H415 H 0.63681 1.04961 0.89078
 C416 C 0.13103 0.26971 0.13019
 C417 C 0.15893 0.26608 0.13063
 C418 C 0.17013 0.24310 0.14196
 C419 C 0.15371 0.22302 0.15290
 C420 C 0.12577 0.22654 0.15224
 C421 C 0.11457 0.24969 0.14113
 C422 C 0.11928 0.29433 0.11851
 N423 N 0.09321 0.30078 0.12285
 N424 N 0.08280 0.32311 0.11261
 C425 C 0.09799 0.33986 0.09748
 N426 N 0.12401 0.33334 0.09306
 N427 N 0.13445 0.31109 0.10340
 C428 C 0.08655 0.36480 0.08620
 C429 C 0.10051 0.37923 0.06646
 C430 C 0.08990 0.40288 0.05593
 C431 C 0.06525 0.41275 0.06511
 C432 C 0.05123 0.39840 0.08481
 C433 C 0.06171 0.37458 0.09516
 H434 H 0.17221 0.28119 0.12255
 H435 H 0.19172 0.24124 0.14252
 H436 H 0.11252 0.21128 0.16005
 H437 H 0.09299 0.25177 0.14092
 H438 H 0.11962 0.37221 0.05902
 H439 H 0.10111 0.41352 0.04072
 H440 H 0.03210 0.40551 0.09215
 H441 H 0.05046 0.36398 0.11037
 C442 C -0.12973 0.27104 -0.13091
 C443 C -0.11332 0.25140 -0.14261
 C444 C -0.12452 0.22827 -0.15367
 C445 C -0.15240 0.22434 -0.15350
 C446 C -0.16878 0.24406 -0.14188
 C447 C -0.15758 0.26706 -0.13061
 C448 C -0.11794 0.29559 -0.11917
 N449 N -0.13293 0.31206 -0.10359
 N450 N -0.12241 0.33419 -0.09310
 C451 C -0.09648 0.34085 -0.09784
 N452 N -0.08148 0.32439 -0.11345
 N453 N -0.09197 0.30219 -0.12385
 C454 C -0.08491 0.36561 -0.08635
 C455 C -0.06008 0.37539 -0.09535
 C456 C -0.04941 0.39898 -0.08475
 C457 C -0.06322 0.41312 -0.06477
 C458 C -0.08787 0.40327 -0.05557
 C459 C -0.09868 0.37984 -0.06634
 H460 H -0.09178 0.25377 -0.14302
 H461 H -0.11129 0.21331 -0.16209
 H462 H -0.19035 0.24192 -0.14182
 H463 H -0.17082 0.28187 -0.12195
 H464 H -0.04898 0.36495 -0.11077
 H465 H -0.03030 0.40609 -0.09213
 H466 H -0.09893 0.41377 -0.04015
 H467 H -0.11778 0.37282 -0.05887
 C468 C 0.13219 0.72870 -0.13025
 C469 C 0.13169 0.73299 -0.15806
 C470 C 0.14271 0.75619 -0.16911
 C471 C 0.15428 0.77582 -0.15260
 C472 C 0.15470 0.77157 -0.12476
 C473 C 0.14389 0.74823 -0.11372
 C474 C 0.12060 0.70401 -0.11860
 N475 N 0.12537 0.69723 -0.09268
 N476 N 0.11505 0.67494 -0.08228
 C477 C 0.09941 0.65856 -0.09733
 N478 N 0.09458 0.66540 -0.12322
 N479 N 0.10499 0.68761 -0.13364
 C480 C 0.08795 0.63373 -0.08584
 C481 C 0.06791 0.61957 -0.09961
 C482 C 0.05715 0.59610 -0.08885
 C483 C 0.06638 0.58616 -0.06422
 C484 C 0.08640 0.60024 -0.05042
 C485 C 0.09700 0.62386 -0.06105
 H486 H 0.12303 0.71826 -0.17139
 H487 H 0.14246 0.75859 -0.19066
 H488 H 0.16308 0.78645 -0.11143
 H489 H 0.14446 0.74564 -0.09220
 H490 H 0.06040 0.62667 -0.11868
 H491 H 0.04170 0.58566 -0.09989
 H492 H 0.09382 0.59306 -0.03133
 H493 H 0.11244 0.63425 -0.04995
 C494 C -0.12872 0.72997 0.12901
 C495 C -0.11219 0.74987 0.14007
 C496 C -0.12332 0.77292 0.15141
 C497 C -0.15124 0.77647 0.15218
 C498 C -0.16773 0.75653 0.14111
 C499 C -0.15660 0.73364 0.12956
 C500 C -0.11703 0.70542 0.11717
 N501 N -0.13226 0.68877 0.10201
 N502 N -0.12189 0.66654 0.09160
 C503 C -0.09588 0.65994 0.09599
 N504 N -0.08063 0.67659 0.11115
 N505 N -0.09097 0.69890 0.12147
 C506 C -0.08452 0.63496 0.08474
 C507 C -0.05972 0.62513 0.09377
 C508 C -0.04931 0.60126 0.08353
 C509 C -0.06334 0.58689 0.06387
 C510 C -0.08794 0.59683 0.05459
 C511 C -0.09850 0.62054 0.06502
 H512 H -0.09062 0.74775 0.13980
 H513 H -0.11002 0.78807 0.15932
 H514 H -0.18932 0.75840 0.14177
 H515 H -0.16993 0.71863 0.12139
 H516 H -0.04846 0.63571 0.10897
 H517 H -0.03022 0.59411 0.09095
 H518 H -0.09916 0.58617 0.03941
 H519 H -0.11758 0.62761 0.05754
 C520 C 1.12804 0.12838 0.73201
 C521 C 1.14362 0.11273 0.74937
 C522 C 1.15511 0.12390 0.77231
 C523 C 1.15152 0.15127 0.77864
 C524 C 1.13557 0.16673 0.76105
 C525 C 1.12401 0.15545 0.73823
 C526 C 1.11633 0.11670 0.70735
 N527 N 1.09864 0.13087 0.69231
 N528 N 1.08845 0.12060 0.66992
 C529 C 1.09557 0.09574 0.66155
 N530 N 1.11323 0.08154 0.67661
 N531 N 1.12337 0.09178 0.69905
 C532 C 1.08457 0.08454 0.63635
 C533 C 1.09475 0.06057 0.62567
 C534 C 1.08471 0.05033 0.60164
 C535 C 1.06418 0.06374 0.58788
 C536 C 1.05380 0.08753 0.59863
 C537 C 1.06394 0.09787 0.62256
 H538 H 1.14684 0.09167 0.74537
 H539 H 1.16600 0.11053 0.78540
 H540 H 1.13282 0.18800 0.76390
 H541 H 1.11233 0.16820 0.72514
 H542 H 1.11064 0.04979 0.63574
 H543 H 1.09300 0.03187 0.59386
 H544 H 1.03791 0.09825 0.58847
 H545 H 1.05556 0.11632 0.63025
 C546 C 0.87003 -0.13064 0.72966
 C547 C 0.88553 -0.14682 0.74662
 C548 C 0.87439 -0.15822 0.76964
 C549 C 0.84724 -0.15393 0.77645
 C550 C 0.83188 -0.13753 0.75918
 C551 C 0.84312 -0.12608 0.73627
 C552 C 0.88176 -0.11874 0.70511
 N553 N 0.86779 -0.10061 0.69039
 N554 N 0.87821 -0.09009 0.66821
 C555 C 0.90303 -0.09729 0.65973
 N556 N 0.91701 -0.11540 0.67445
 N557 N 0.90662 -0.12587 0.69668
 C558 C 0.91447 -0.08583 0.63484
 C559 C 0.93853 -0.09585 0.62420
 C560 C 0.94910 -0.08532 0.60051
 C561 C 0.93592 -0.06445 0.58705
 C562 C 0.91201 -0.05424 0.59773
 C563 C 0.90134 -0.06488 0.62133
 H564 H 0.90645 -0.15050 0.74230
 H565 H 0.88765 -0.16957 0.78246
 H566 H 0.81073 -0.13426 0.76243
 H567 H 0.83048 -0.11395 0.72347
 H568 H 0.94916 -0.11198 0.63405
 H569 H 0.96763 -0.09350 0.59277
 H570 H 0.90146 -0.03811 0.58779
 H571 H 0.88283 -0.05661 0.62900
 C572 C 1.13335 -0.13260 0.27285
 C573 C 1.14878 -0.11685 0.25544
 C574 C 1.15967 -0.12778 0.23210
 C575 C 1.15562 -0.15498 0.22537
 C576 C 1.14015 -0.17065 0.24319
 C577 C 1.12918 -0.15960 0.26645
 C578 C 1.12165 -0.12091 0.29751
 N579 N 1.10382 -0.13496 0.31248
 N580 N 1.09326 -0.12444 0.33459
 C581 C 1.10013 -0.09943 0.34273
 N582 N 1.11799 -0.08539 0.32778
 N583 N 1.12849 -0.09588 0.30562
 C584 C 1.08843 -0.08776 0.36739
 C585 C 1.09818 -0.06348 0.37778
 C586 C 1.08730 -0.05261 0.40116
 C587 C 1.06632 -0.06568 0.41455
 C588 C 1.05642 -0.08982 0.40413
 C589 C 1.06742 -0.10079 0.38086
 H590 H 1.15216 -0.09586 0.25960
 H591 H 1.17029 -0.11428 0.21894
 H592 H 1.13717 -0.19184 0.24007
 H593 H 1.11767 -0.17243 0.27960
 H594 H 1.11436 -0.05292 0.36795
 H595 H 1.09526 -0.03392 0.40870
 H596 H 1.04023 -0.10030 0.41404
 H597 H 1.05935 -0.11946 0.37339
 C598 C 0.86869 0.13228 0.27206
 C599 C 0.88445 0.14749 0.25449
 C600 C 0.87341 0.15851 0.23124
 C601 C 0.84608 0.15482 0.22479
 C602 C 0.83040 0.13954 0.24276
 C603 C 0.84156 0.12843 0.26591
 C604 C 0.88047 0.12048 0.29665
 N605 N 0.86639 0.10272 0.31168
 N606 N 0.87697 0.09209 0.33375
 C607 C 0.90207 0.09882 0.34178
 N608 N 0.91614 0.11660 0.32676
 N609 N 0.90559 0.12717 0.30465
 C610 C 0.91378 0.08709 0.36643
 C611 C 0.93804 0.09686 0.37685
 C612 C 0.94891 0.08599 0.40026
 C613 C 0.93585 0.06500 0.41363
 C614 C 0.91174 0.05506 0.40317
 C615 C 0.90076 0.06605 0.37987
 H616 H 0.90554 0.15061 0.25844
 H617 H 0.88690 0.16897 0.21792
 H618 H 0.80914 0.13683 0.23984
 H619 H 0.82872 0.11709 0.27921
 H620 H 0.94859 0.11306 0.36704
 H621 H 0.96758 0.09398 0.40784
 H622 H 0.90126 0.03886 0.41305
 H623 H 0.88211 0.05797 0.37237
 C624 C 0.13224 0.27069 -0.13031
 C625 C 0.13168 0.26648 -0.15813
 C626 C 0.14261 0.24326 -0.16922
 C627 C 0.15415 0.22355 -0.15274
 C628 C 0.15464 0.22773 -0.12490
 C629 C 0.14391 0.25109 -0.11382
 C630 C 0.12070 0.29539 -0.11861
 N631 N 0.12553 0.30211 -0.09270
 N632 N 0.11524 0.32439 -0.08226
 C633 C 0.09958 0.34082 -0.09727
 N634 N 0.09469 0.33405 -0.12315
 N635 N 0.10508 0.31185 -0.13361
 C636 C 0.08812 0.36563 -0.08573
 C637 C 0.06802 0.37980 -0.09946
 C638 C 0.05725 0.40324 -0.08867
 C639 C 0.06652 0.41316 -0.06406
 C640 C 0.08660 0.39907 -0.05031
 C641 C 0.09721 0.37547 -0.06097
 H642 H 0.12303 0.28127 -0.17143
 H643 H 0.14233 0.24092 -0.19077
 H644 H 0.16299 0.21279 -0.11159
 H645 H 0.14452 0.25362 -0.09229
 H646 H 0.06048 0.37272 -0.11851
 H647 H 0.04175 0.41368 -0.09968
 H648 H 0.09404 0.40623 -0.03124
 H649 H 0.11269 0.36508 -0.04990
 C650 C -0.12982 0.27036 0.13042
 C651 C -0.15674 0.26384 0.12579
 C652 C -0.16804 0.24090 0.13711
 C653 C -0.15274 0.22352 0.15344
 C654 C -0.12558 0.23025 0.15780
 C655 C -0.11438 0.25329 0.14654
 C656 C -0.11802 0.29493 0.11864
 N657 N -0.09318 0.30330 0.12588
 N658 N -0.08274 0.32553 0.11549
 C659 C -0.09665 0.34031 0.09736
 N660 N -0.12145 0.33188 0.09006
 N661 N -0.13192 0.30969 0.10050
 C662 C -0.08516 0.36519 0.08594
 C663 C -0.09821 0.37867 0.06493
 C664 C -0.08753 0.40225 0.05431
 C665 C -0.06367 0.41295 0.06460
 C666 C -0.05055 0.39952 0.08554
 C667 C -0.06114 0.37584 0.09605
 H668 H -0.16933 0.27672 0.11371
 H669 H -0.18918 0.23772 0.13379
 H670 H -0.11236 0.21733 0.16909
 H671 H -0.09346 0.25754 0.15027
 H672 H -0.11669 0.37100 0.05659
 H673 H -0.09803 0.41217 0.03813
 H674 H -0.03206 0.40727 0.09378
 H675 H -0.05057 0.36600 0.11223
 C676 C -0.13117 0.72697 -0.13299
 C677 C -0.11542 0.74461 -0.14813
 C678 C -0.12648 0.76790 -0.15902
 C679 C -0.15381 0.77433 -0.15527
 C680 C -0.16948 0.75627 -0.14008
 C681 C -0.15831 0.73308 -0.12911
 C682 C -0.11937 0.70237 -0.12127
 N683 N -0.13347 0.68726 -0.10358
 N684 N -0.12287 0.66520 -0.09298
 C685 C -0.09773 0.65725 -0.09967
 N686 N -0.08364 0.67233 -0.11738
 N687 N -0.09422 0.69444 -0.12792
 C688 C -0.08599 0.63264 -0.08791
 C689 C -0.06162 0.62234 -0.09755
 C690 C -0.05070 0.59900 -0.08660
 C691 C -0.06383 0.58558 -0.06566
 C692 C -0.08806 0.59592 -0.05588
 C693 C -0.09908 0.61914 -0.06694
 H694 H -0.09433 0.74068 -0.15128
 H695 H -0.11300 0.78128 -0.16942
 H696 H -0.19074 0.75917 -0.13734
 H697 H -0.17114 0.71973 -0.11782
 H698 H -0.05102 0.63219 -0.11370
 H699 H -0.03194 0.59150 -0.09447
 H700 H -0.09859 0.58600 -0.03972
 H701 H -0.11782 0.62656 -0.05896
 C702 C 0.13077 0.72972 0.13000
 C703 C 0.11431 0.74965 0.14113
 C704 C 0.12552 0.77271 0.15236
 C705 C 0.15345 0.77624 0.15295
 C706 C 0.16986 0.75627 0.14182
 C707 C 0.15866 0.73336 0.13037
 C708 C 0.11901 0.70517 0.11822
 N709 N 0.13418 0.68849 0.10303
 N710 N 0.12375 0.66628 0.09263
 C711 C 0.09775 0.65972 0.09708
 N712 N 0.08256 0.67640 0.11229
 N713 N 0.09296 0.69869 0.12259
 C714 C 0.08633 0.63479 0.08579
 C715 C 0.06150 0.62499 0.09475
 C716 C 0.05107 0.60117 0.08443
 C717 C 0.06512 0.58681 0.06477
 C718 C 0.08975 0.59671 0.05558
 C719 C 0.10032 0.62037 0.06607
 H720 H 0.09274 0.74755 0.14098
 H721 H 0.11227 0.78789 0.16032
 H722 H 0.19145 0.75811 0.14234
 H723 H 0.17193 0.71833 0.12215
 H724 H 0.05024 0.63558 0.10994
 H725 H 0.03195 0.59403 0.09179
 H726 H 0.10099 0.58607 0.04039
 H727 H 0.11943 0.62741 0.05863
 C728 C 0.27217 1.13011 0.86841
 C729 C 0.26810 1.13040 0.84056
 C730 C 0.24484 1.14153 0.82967
 C731 C 0.22497 1.15240 0.84639
 C732 C 0.22903 1.15201 0.87426
 C733 C 0.25239 1.14111 0.88513
 C734 C 0.29691 1.11848 0.87996
 N735 N 0.30345 1.12279 0.90601
 N736 N 0.32574 1.11244 0.91638
 C737 C 0.34238 1.09723 0.90118
 N738 N 0.33580 1.09285 0.87515
 N739 N 0.31357 1.10330 0.86475
 C740 C 0.36720 1.08576 0.91272
 C741 C 0.38159 1.06589 0.89891
 C742 C 0.40501 1.05510 0.90982
 C743 C 0.41467 1.06416 0.93460
 C744 C 0.40038 1.08403 0.94841
 C745 C 0.37682 1.09463 0.93765
 H746 H 0.28303 1.12229 0.82710
 H747 H 0.24261 1.14195 0.80811
 H748 H 0.21396 1.15985 0.88773
 H749 H 0.25481 1.14106 0.90668
 H750 H 0.37468 1.05854 0.87973
 H751 H 0.41563 1.03978 0.89876
 H752 H 0.40734 1.09132 0.96761
 H753 H 0.36627 1.10994 0.94879
 C754 C 0.27154 0.86924 1.13067
 C755 C 0.26748 0.84141 1.13042
 C756 C 0.24448 0.83027 1.14177
 C757 C 0.22481 0.84670 1.15343
 C758 C 0.22880 0.87456 1.15355
 C759 C 0.25195 0.88569 1.14240
 C760 C 0.29611 0.88097 1.11888
 N761 N 0.30280 0.90690 1.12353
 N762 N 0.32504 0.91732 1.11313
 C763 C 0.34148 0.90227 1.09754
 N764 N 0.33473 0.87637 1.09280
 N765 N 0.31256 0.86593 1.10329
 C766 C 0.36634 0.91375 1.08610
 C767 C 0.38061 0.89995 1.06614
 C768 C 0.40417 0.91064 1.05549
 C769 C 0.41410 0.93522 1.06476
 C770 C 0.39990 0.94908 1.08466
 C771 C 0.37618 0.93852 1.09514
 H772 H 0.28226 0.82814 1.12174
 H773 H 0.24231 0.80871 1.14176
 H774 H 0.21389 0.88782 1.16200
 H775 H 0.25436 0.90722 1.14278
 H776 H 0.37353 0.88090 1.05863
 H777 H 0.41470 0.89956 1.04012
 H778 H 0.40705 0.96814 1.09209
 H779 H 0.36572 0.94965 1.11052
 C780 C 0.73024 1.13059 1.13001
 C781 C 0.75031 1.11413 1.14092
 C782 C 0.77338 1.12532 1.15215
 C783 C 0.77679 1.15325 1.15297
 C784 C 0.75667 1.16967 1.14207
 C785 C 0.73375 1.15848 1.13062
 C786 C 0.70570 1.11881 1.11822
 N787 N 0.68890 1.13399 1.10313
 N788 N 0.66672 1.12352 1.09270
 C789 C 0.66030 1.09746 1.09702
 N790 N 0.67709 1.08227 1.11212
 N791 N 0.69935 1.09271 1.12245
 C792 C 0.63541 1.08597 1.08568
 C793 C 0.62574 1.06109 1.09462
 C794 C 0.60198 1.05053 1.08424
 C795 C 0.58758 1.06450 1.06453
 C796 C 0.59736 1.08920 1.05536
 C797 C 0.62094 1.09990 1.06593
 H798 H 0.74831 1.09255 1.14059
 H799 H 0.78867 1.11207 1.15992
 H800 H 0.75845 1.19126 1.14275
 H801 H 0.71861 1.17175 1.12257
 H802 H 0.63636 1.04987 1.10984
 H803 H 0.59495 1.03138 1.09158
 H804 H 0.58667 1.10037 1.04015
 H805 H 0.62790 1.11904 1.05851
 C806 C 0.73041 0.86900 0.86973
 C807 C 0.73389 0.86853 0.84181
 C808 C 0.75678 0.85709 0.83053
 C809 C 0.77689 0.84609 0.84688
 C810 C 0.77350 0.84676 0.87483
 C811 C 0.75046 0.85796 0.88612
 C812 C 0.70593 0.88085 0.88159
 N813 N 0.69955 0.87651 0.90769
 N814 N 0.67735 0.88692 0.91819
 C815 C 0.66067 0.90221 0.90308
 N816 N 0.66712 0.90664 0.87703
 N817 N 0.68924 0.89613 0.86650
 C818 C 0.63586 0.91367 0.91463
 C819 C 0.62158 0.93361 0.90080
 C820 C 0.59805 0.94428 0.91151
 C821 C 0.58814 0.93503 0.93614
 C822 C 0.60235 0.91514 0.95003
 C823 C 0.62606 0.90465 0.93945
 H824 H 0.71875 0.87668 0.82859
 H825 H 0.75853 0.85652 0.80892
 H826 H 0.78880 0.83889 0.88803
 H827 H 0.74849 0.85819 0.90772
 H828 H 0.62864 0.94110 0.88171
 H829 H 0.58752 0.95964 0.90040
 H830 H 0.59520 0.90773 0.96912
 H831 H 0.63654 0.88928 0.95059
   
