data_POSCAR
  _audit_creation_date              2014-09-24
  _audit_creation_method            'ToBaCCo'
  _symmetry_space_group_name_H-M    'P1'
  _symmetry_Int_Tables_number       1
  _symmetry_cell_setting            triclinic
  loop_
  _symmetry_equiv_pos_as_xyz
 x,y,z
_cell_length_a 47.5822
_cell_length_b 46.7262
_cell_length_c 47.4925
_cell_angle_alpha 84.546200
_cell_angle_beta 95.289300
_cell_angle_gamma 94.914700
loop_
  _atom_site_label
  _atom_site_type_symbol
  _atom_site_fract_x
  _atom_site_fract_y
  _atom_site_fract_z
C1 C 0.28073 0.30789 0.24138
 H2 H 0.28073 0.31007 0.26386
 C3 C 0.29909 0.32604 0.22513
 H4 H 0.31264 0.34255 0.23526
 C5 C 0.26288 0.28366 0.20113
 H6 H 0.24939 0.26657 0.19199
 C7 C 0.28118 0.30101 0.18418
 H8 H 0.28137 0.29694 0.16215
 N9 N 0.26272 0.28757 0.22912
 C10 C 0.20011 0.26894 0.29163
 H11 H 0.19971 0.24566 0.29422
 C12 C 0.18351 0.28328 0.30764
 H13 H 0.17070 0.27084 0.32285
 C14 C 0.21766 0.31332 0.26884
 H15 H 0.23045 0.32493 0.25323
 C16 C 0.20135 0.32852 0.28434
 H17 H 0.20192 0.35177 0.28053
 Zn18 Zn 0.23918 0.26281 0.25260
 N19 N 0.21717 0.28408 0.27311
 C20 C 0.26488 0.24011 0.30613
 N21 N 0.26349 0.24003 0.27739
 C22 C 0.28042 0.22398 0.26479
 C23 C 0.29925 0.20662 0.28117
 C24 C 0.28345 0.22298 0.32339
 C25 C 0.19687 0.25177 0.20905
 C26 C 0.17894 0.23510 0.19098
 C27 C 0.19458 0.19221 0.21835
 C28 C 0.21259 0.20970 0.23559
 N29 N 0.21384 0.23889 0.23030
 H30 H 0.25184 0.25361 0.31576
 H31 H 0.27908 0.22456 0.24187
 H32 H 0.31209 0.19357 0.27066
 H33 H 0.28445 0.22342 0.34621
 H34 H 0.19789 0.27505 0.20568
 H35 H 0.16609 0.24561 0.17367
 H36 H 0.19429 0.16899 0.22238
 H37 H 0.22566 0.19989 0.25306
 C38 C 0.18415 0.31352 0.30426
 C39 C 0.29956 0.32272 0.19606
 C40 C 0.17789 0.20493 0.19542
 C41 C 0.30094 0.20591 0.31090
 C42 C 0.80356 0.78280 0.23997
 H43 H 0.81106 0.76637 0.25571
 C44 C 0.82298 0.79956 0.22386
 H45 H 0.84508 0.79579 0.22854
 C46 C 0.76597 0.80847 0.21711
 H47 H 0.74364 0.81190 0.21467
 C48 C 0.78462 0.82573 0.20039
 H49 H 0.77560 0.84137 0.18467
 N50 N 0.77553 0.78698 0.23593
 C51 C 0.70729 0.76983 0.29256
 H52 H 0.70237 0.74697 0.29136
 C53 C 0.69148 0.78492 0.30869
 H54 H 0.67417 0.77350 0.31941
 C55 C 0.73566 0.81246 0.27994
 H56 H 0.75323 0.82305 0.26915
 C57 C 0.72035 0.82840 0.29577
 H58 H 0.72631 0.85117 0.29693
 Zn59 Zn 0.74962 0.76206 0.25699
 N60 N 0.72880 0.78374 0.27843
 C61 C 0.77341 0.73828 0.31025
 N62 N 0.77015 0.73575 0.28182
 C63 C 0.78176 0.71450 0.27024
 C64 C 0.79768 0.69485 0.28741
 C65 C 0.78924 0.71908 0.32823
 C66 C 0.72053 0.74807 0.20397
 C67 C 0.70272 0.73100 0.18616
 C68 C 0.69344 0.69748 0.22672
 C69 C 0.71117 0.71537 0.24381
 N70 N 0.72433 0.74016 0.23230
 H71 H 0.76401 0.75539 0.31897
 H72 H 0.77889 0.71308 0.24754
 H73 H 0.80726 0.67848 0.27767
 H74 H 0.79159 0.72136 0.35082
 H75 H 0.73135 0.76748 0.19492
 H76 H 0.69973 0.73804 0.16379
 H77 H 0.68390 0.67748 0.23632
 H78 H 0.71503 0.70904 0.26623
 C79 C 0.69788 0.81463 0.31038
 C80 C 0.81379 0.82120 0.20304
 C81 C 0.68903 0.70516 0.19741
 C82 C 0.80170 0.69706 0.31682
 C83 C 0.78052 0.28981 0.74486
 H84 H 0.78425 0.28818 0.76775
 C85 C 0.79912 0.30723 0.72829
 H86 H 0.81706 0.31923 0.73853
 C87 C 0.75287 0.27570 0.70365
 H88 H 0.73534 0.26283 0.69402
 C89 C 0.77070 0.29319 0.68629
 H90 H 0.76658 0.29374 0.66344
 N91 N 0.75789 0.27453 0.73240
 C92 C 0.69645 0.25813 0.79608
 H93 H 0.69373 0.23483 0.79775
 C94 C 0.68109 0.27370 0.81223
 H95 H 0.66678 0.26217 0.82660
 C96 C 0.71865 0.30141 0.77542
 H97 H 0.73300 0.31218 0.76076
 C98 C 0.70379 0.31780 0.79120
 H99 H 0.70685 0.34109 0.78841
 Zn100 Zn 0.73520 0.25002 0.75691
 N101 N 0.71502 0.27212 0.77836
 C102 C 0.76106 0.22545 0.80954
 N103 N 0.76029 0.22728 0.78080
 C104 C 0.77836 0.21328 0.76754
 C105 C 0.79795 0.19624 0.78316
 C106 C 0.78020 0.20843 0.82614
 C107 C 0.68921 0.23758 0.71668
 C108 C 0.67090 0.22009 0.69965
 C109 C 0.69169 0.17835 0.72423
 C110 C 0.70980 0.19662 0.74048
 N111 N 0.70881 0.22571 0.73595
 H112 H 0.74703 0.23740 0.81974
 H113 H 0.77727 0.21513 0.74459
 H114 H 0.81054 0.18451 0.77111
 H115 H 0.78050 0.20878 0.84887
 H116 H 0.68840 0.26076 0.71394
 H117 H 0.65642 0.23011 0.68351
 H118 H 0.69296 0.15528 0.72825
 H119 H 0.72477 0.18746 0.75659
 C120 C 0.68480 0.30396 0.81001
 C121 C 0.79425 0.30908 0.69862
 C122 C 0.67235 0.19001 0.70296
 C123 C 0.79943 0.19320 0.81325
 C124 C 0.28620 0.79547 0.73788
 H125 H 0.29020 0.79629 0.76060
 C126 C 0.30338 0.81261 0.71958
 H127 H 0.32073 0.82640 0.72849
 C128 C 0.25952 0.77534 0.69895
 H129 H 0.24285 0.76039 0.69091
 C130 C 0.27601 0.79224 0.67989
 H131 H 0.27118 0.79055 0.65736
 N132 N 0.26465 0.77742 0.72736
 C133 C 0.20569 0.76253 0.79344
 H134 H 0.20439 0.73923 0.79652
 C135 C 0.18973 0.77807 0.80901
 H136 H 0.17648 0.76654 0.82437
 C137 C 0.22480 0.80576 0.76975
 H138 H 0.23812 0.81645 0.75409
 C139 C 0.20921 0.82215 0.78485
 H140 H 0.21072 0.84538 0.78058
 Zn141 Zn 0.24339 0.75382 0.75384
 N142 N 0.22300 0.77652 0.77449
 C143 C 0.27176 0.73435 0.80702
 N144 N 0.26955 0.73294 0.77841
 C145 C 0.28673 0.71698 0.76601
 C146 C 0.30667 0.70101 0.78255
 C147 C 0.29143 0.71867 0.82440
 C148 C 0.19662 0.73906 0.71585
 C149 C 0.17758 0.72078 0.70041
 C150 C 0.19900 0.67997 0.72617
 C151 C 0.21785 0.69902 0.74082
 N152 N 0.21681 0.72799 0.73496
 H153 H 0.25841 0.74770 0.81643
 H154 H 0.28472 0.71649 0.74318
 H155 H 0.31968 0.68795 0.77226
 H156 H 0.29301 0.72016 0.84711
 H157 H 0.19586 0.76219 0.71203
 H158 H 0.16259 0.73016 0.68437
 H159 H 0.20024 0.65701 0.73126
 H160 H 0.23332 0.69057 0.75683
 C161 C 0.19142 0.80832 0.80485
 C162 C 0.29840 0.81115 0.69010
 C163 C 0.17887 0.69074 0.70517
 C164 C 0.30917 0.70164 0.81219
 C165 C 0.03358 -0.02675 -0.03020
 C166 C 0.05085 -0.00462 -0.01219
 C167 C 0.03485 0.01073 0.00226
 C168 C 0.00294 0.00260 -0.00226
 C169 C 0.01596 -0.04531 -0.00873
 C170 C -0.00018 -0.03016 0.00591
 C171 C 0.01212 -0.00931 -0.04901
 C172 C -0.00379 0.00637 -0.03470
 H173 H 0.07370 -0.00272 -0.00899
 H174 H -0.00953 0.01546 0.00976
 H175 H 0.01645 -0.06851 -0.00544
 H176 H 0.00999 -0.00949 -0.07189
 C177 C 0.02422 0.46592 0.47858
 C178 C 0.04173 0.48521 0.49930
 C179 C 0.02596 0.50074 0.51396
 C180 C -0.00613 0.49542 0.50663
 C181 C 0.00408 0.44722 0.49756
 C182 C -0.01193 0.46258 0.51199
 C183 C 0.00537 0.48628 0.45981
 C184 C -0.01042 0.50199 0.47422
 H185 H 0.06454 0.48586 0.50271
 H186 H -0.01894 0.50757 0.51900
 H187 H 0.00339 0.42392 0.50041
 H188 H 0.00444 0.48756 0.43686
 C189 C 0.52374 -0.02814 0.46597
 C190 C 0.54111 -0.01004 0.48761
 C191 C 0.52544 0.00505 0.50275
 C192 C 0.49343 0.00063 0.49475
 C193 C 0.50222 -0.04712 0.48320
 C194 C 0.48652 -0.03220 0.49850
 C195 C 0.50544 -0.00676 0.44756
 C196 C 0.48979 0.00849 0.46253
 H197 H 0.56402 -0.00881 0.49003
 H198 H 0.48047 0.01288 0.50685
 H199 H 0.49982 -0.07037 0.48341
 H200 H 0.50337 -0.00523 0.42460
 C201 C 0.53407 0.47441 -0.02372
 C202 C 0.55193 0.49328 -0.00277
 C203 C 0.53646 0.50955 0.01133
 C204 C 0.50441 0.50516 0.00380
 C205 C 0.51307 0.45653 -0.00511
 C206 C 0.49752 0.47235 0.00953
 C207 C 0.51608 0.49532 -0.04280
 C208 C 0.50058 0.51150 -0.02864
 H209 H 0.57465 0.49340 0.00133
 H210 H 0.49234 0.51861 0.01559
 H211 H 0.51123 0.43322 -0.00352
 H212 H 0.51552 0.49680 -0.06574
 C213 C 0.14298 -0.14233 -0.14754
 C214 C 0.13110 -0.16831 -0.15780
 C215 C 0.14678 -0.18430 -0.17327
 C216 C 0.17470 -0.17467 -0.17880
 C217 C 0.18657 -0.14868 -0.16854
 C218 C 0.17089 -0.13269 -0.15310
 C219 C 0.12640 -0.12538 -0.13100
 C220 C 0.12788 -0.09513 -0.13539
 C221 C 0.11262 -0.07914 -0.11954
 C222 C 0.09556 -0.09302 -0.09890
 C223 C 0.09391 -0.12328 -0.09467
 C224 C 0.10915 -0.13928 -0.11054
 C225 C 0.07982 -0.07598 -0.08162
 C226 C 0.05208 -0.08523 -0.07525
 C227 C 0.03742 -0.06928 -0.05879
 C228 C 0.05030 -0.04399 -0.04769
 C229 C 0.07776 -0.03429 -0.05502
 C230 C 0.09239 -0.05023 -0.07150
 H231 H 0.10951 -0.17608 -0.15423
 H232 H 0.13687 -0.20399 -0.18126
 H233 H 0.20818 -0.14092 -0.17204
 H234 H 0.18080 -0.11300 -0.14509
 H235 H 0.14059 -0.08383 -0.15134
 H236 H 0.11395 -0.05589 -0.12367
 H237 H 0.08127 -0.13457 -0.07865
 H238 H 0.10789 -0.16252 -0.10638
 H239 H 0.04151 -0.10457 -0.08341
 H240 H 0.01584 -0.07671 -0.05484
 H241 H 0.08807 -0.01417 -0.04860
 H242 H 0.11370 -0.04243 -0.07615
 C243 C 0.13524 0.35910 0.35491
 C244 C 0.12398 0.33311 0.34424
 C245 C 0.13975 0.31840 0.32769
 C246 C 0.16717 0.32931 0.32150
 C247 C 0.17838 0.35535 0.33215
 C248 C 0.16259 0.37009 0.34863
 C249 C 0.11863 0.37463 0.37269
 C250 C 0.11853 0.40481 0.36890
 C251 C 0.10318 0.41948 0.38587
 C252 C 0.08764 0.40430 0.40708
 C253 C 0.08765 0.37409 0.41078
 C254 C 0.10294 0.35942 0.39376
 C255 C 0.07159 0.41991 0.42537
 C256 C 0.04468 0.40876 0.43287
 C257 C 0.02960 0.42342 0.45008
 C258 C 0.04128 0.44932 0.46085
 C259 C 0.06779 0.46096 0.45233
 C260 C 0.08288 0.44627 0.43516
 H261 H 0.10280 0.32434 0.34839
 H262 H 0.13032 0.29865 0.31943
 H263 H 0.19962 0.36408 0.32819
 H264 H 0.17199 0.38984 0.35692
 H265 H 0.13005 0.41707 0.35254
 H266 H 0.10319 0.44270 0.38212
 H267 H 0.07624 0.36181 0.42721
 H268 H 0.10295 0.33619 0.39744
 H269 H 0.03499 0.38897 0.42490
 H270 H 0.00854 0.41460 0.45451
 H271 H 0.07688 0.48166 0.45855
 H272 H 0.10350 0.45555 0.42965
 C273 C 0.64865 -0.13781 0.35892
 C274 C 0.65650 -0.16543 0.36932
 C275 C 0.67256 -0.18078 0.35366
 C276 C 0.68118 -0.16887 0.32723
 C277 C 0.67352 -0.14118 0.31692
 C278 C 0.65742 -0.12583 0.33257
 C279 C 0.63113 -0.12169 0.37533
 C280 C 0.63661 -0.09179 0.37673
 C281 C 0.61981 -0.07657 0.39176
 C282 C 0.59717 -0.09091 0.40577
 C283 C 0.59182 -0.12083 0.40455
 C284 C 0.60860 -0.13604 0.38949
 C285 C 0.57892 -0.07470 0.42127
 C286 C 0.56981 -0.08615 0.44760
 C287 C 0.55222 -0.07113 0.46193
 C288 C 0.54261 -0.04459 0.44996
 C289 C 0.55289 -0.03261 0.42417
 C290 C 0.57053 -0.04761 0.40988
 H291 H 0.65048 -0.17506 0.38976
 H292 H 0.67853 -0.20188 0.36239
 H293 H 0.67948 -0.13159 0.29645
 H294 H 0.65135 -0.10480 0.32376
 H295 H 0.65410 -0.08019 0.36645
 H296 H 0.62475 -0.05361 0.39270
 H297 H 0.57427 -0.13241 0.41477
 H298 H 0.60354 -0.15898 0.38845
 H299 H 0.57667 -0.10656 0.45736
 H300 H 0.54637 -0.08029 0.48256
 H301 H 0.54766 -0.01147 0.41498
 H302 H 0.57738 -0.03807 0.38973
 C303 C 0.63894 0.35428 -0.14086
 C304 C 0.62546 0.32989 -0.15307
 C305 C 0.64034 0.31346 -0.16887
 C306 C 0.66902 0.32107 -0.17286
 C307 C 0.68252 0.34534 -0.16051
 C308 C 0.66767 0.36173 -0.14469
 C309 C 0.62314 0.37194 -0.12425
 C310 C 0.62763 0.40218 -0.12677
 C311 C 0.61313 0.41882 -0.11086
 C312 C 0.59375 0.40563 -0.09209
 C313 C 0.58906 0.37542 -0.08973
 C314 C 0.60361 0.35876 -0.10561
 C315 C 0.57867 0.42330 -0.07486
 C316 C 0.54984 0.41678 -0.07112
 C317 C 0.53573 0.43335 -0.05477
 C318 C 0.55020 0.45646 -0.04109
 C319 C 0.57889 0.46354 -0.04580
 C320 C 0.59296 0.44701 -0.06222
 H321 H 0.60325 0.32382 -0.15084
 H322 H 0.62926 0.29510 -0.17844
 H323 H 0.70472 0.35146 -0.16279
 H324 H 0.67881 0.38006 -0.13512
 H325 H 0.64214 0.41302 -0.14132
 H326 H 0.61683 0.44207 -0.11351
 H327 H 0.57453 0.36463 -0.07517
 H328 H 0.59997 0.33551 -0.10289
 H329 H 0.53805 0.39914 -0.08126
 H330 H 0.51333 0.42811 -0.05293
 H331 H 0.59064 0.48207 -0.03736
 H332 H 0.61516 0.45271 -0.06488
 C333 C -0.14286 0.13954 -0.13915
 C334 C -0.13837 0.15038 -0.16703
 C335 C -0.15725 0.16828 -0.18267
 C336 C -0.18157 0.17625 -0.17102
 C337 C -0.18536 0.16565 -0.14249
 C338 C -0.16641 0.14758 -0.12698
 C339 C -0.12308 0.11972 -0.12306
 C340 C -0.11526 0.12180 -0.09399
 C341 C -0.09616 0.10344 -0.07918
 C342 C -0.08440 0.08272 -0.09316
 C343 C -0.09247 0.08042 -0.12210
 C344 C -0.11162 0.09864 -0.13685
 C345 C -0.06355 0.06368 -0.07781
 C346 C -0.03943 0.05807 -0.09068
 C347 C -0.02001 0.03972 -0.07662
 C348 C -0.02431 0.02631 -0.04937
 C349 C -0.04825 0.03232 -0.03636
 C350 C -0.06764 0.05081 -0.05040
 H351 H -0.11986 0.14539 -0.17673
 H352 H -0.15151 0.17676 -0.20348
 H353 H -0.20377 0.16955 -0.13215
 H354 H -0.17073 0.13919 -0.10563
 H355 H -0.12345 0.13802 -0.08283
 H356 H -0.09010 0.10587 -0.05694
 H357 H -0.08416 0.06429 -0.13329
 H358 H -0.11766 0.09603 -0.15906
 H359 H -0.03540 0.06817 -0.11155
 H360 H -0.00142 0.03642 -0.08705
 H361 H -0.05243 0.02240 -0.01558
 H362 H -0.08617 0.05457 -0.04005
 C363 C -0.14498 0.63889 0.36830
 C364 C -0.14392 0.66808 0.37355
 C365 C -0.16157 0.68686 0.35720
 C366 C -0.18067 0.67684 0.33525
 C367 C -0.18217 0.64751 0.33046
 C368 C -0.16453 0.62876 0.34679
 C369 C -0.12522 0.61923 0.38459
 C370 C -0.11225 0.59932 0.37067
 C371 C -0.09333 0.58105 0.38574
 C372 C -0.08691 0.58223 0.41510
 C373 C -0.09996 0.60205 0.42909
 C374 C -0.11886 0.62042 0.41398
 C375 C -0.06673 0.56274 0.43094
 C376 C -0.07222 0.54911 0.45774
 C377 C -0.05376 0.52978 0.47200
 C378 C -0.02945 0.52352 0.45975
 C379 C -0.02358 0.53789 0.43328
 C380 C -0.04202 0.55718 0.41905
 H381 H -0.12884 0.67659 0.38975
 H382 H -0.15965 0.70941 0.36118
 H383 H -0.19704 0.63904 0.31406
 H384 H -0.16623 0.60627 0.34259
 H385 H -0.11644 0.59812 0.34799
 H386 H -0.08389 0.56577 0.37442
 H387 H -0.09527 0.60361 0.45167
 H388 H -0.12870 0.63539 0.42532
 H389 H -0.09119 0.55281 0.46738
 H390 H -0.05906 0.51931 0.49228
 H391 H -0.00461 0.53447 0.42354
 H392 H -0.03684 0.56788 0.39873
 C393 C 0.35777 0.14988 0.36046
 C394 C 0.36621 0.16629 0.33589
 C395 C 0.34795 0.18481 0.32015
 C396 C 0.32081 0.18738 0.32859
 C397 C 0.31259 0.17150 0.35355
 C398 C 0.33090 0.15294 0.36933
 C399 C 0.37677 0.12914 0.37625
 C400 C 0.37973 0.12624 0.40609
 C401 C 0.39798 0.10690 0.42074
 C402 C 0.41361 0.09005 0.40584
 C403 C 0.41031 0.09272 0.37601
 C404 C 0.39215 0.11203 0.36141
 C405 C 0.43345 0.06983 0.42113
 C406 C 0.45969 0.06703 0.41072
 C407 C 0.47801 0.04732 0.42433
 C408 C 0.47058 0.02996 0.44872
 C409 C 0.44462 0.03310 0.45952
 C410 C 0.42621 0.05283 0.44585
 H411 H 0.38700 0.16485 0.32884
 H412 H 0.35513 0.19721 0.30136
 H413 H 0.29170 0.17279 0.36043
 H414 H 0.32371 0.14037 0.38802
 H415 H 0.36835 0.13934 0.41809
 H416 H 0.40029 0.10554 0.44371
 H417 H 0.42157 0.07960 0.36392
 H418 H 0.38986 0.11332 0.33844
 H419 H 0.46616 0.08024 0.39209
 H420 H 0.49814 0.04582 0.41584
 H421 H 0.43815 0.01976 0.47807
 H422 H 0.40601 0.05426 0.45420
 C423 C 0.36891 0.64971 -0.13696
 C424 C 0.37622 0.66493 -0.16256
 C425 C 0.35701 0.68209 -0.17880
 C426 C 0.33001 0.68443 -0.16986
 C427 C 0.32288 0.66964 -0.14399
 C428 C 0.34213 0.65248 -0.12772
 C429 C 0.38891 0.63046 -0.12040
 C430 C 0.39226 0.62924 -0.09060
 C431 C 0.41089 0.61080 -0.07514
 C432 C 0.42654 0.59316 -0.08915
 C433 C 0.42316 0.59442 -0.11894
 C434 C 0.40459 0.61285 -0.13438
 C435 C 0.44608 0.57322 -0.07287
 C436 C 0.47220 0.56915 -0.08290
 C437 C 0.49002 0.54942 -0.06835
 C438 C 0.48217 0.53330 -0.04339
 C439 C 0.45639 0.53784 -0.03299
 C440 C 0.43850 0.55754 -0.04758
 H441 H 0.39688 0.66366 -0.16998
 H442 H 0.36335 0.69365 -0.19834
 H443 H 0.30213 0.67071 -0.13670
 H444 H 0.33575 0.64074 -0.10828
 H445 H 0.38073 0.64281 -0.07926
 H446 H 0.41330 0.61061 -0.05223
 H447 H 0.43447 0.58071 -0.13035
 H448 H 0.40209 0.61288 -0.15727
 H449 H 0.47894 0.58132 -0.10199
 H450 H 0.51005 0.54692 -0.07660
 H451 H 0.44956 0.52556 -0.01407
 H452 H 0.41836 0.55989 -0.03947
 C453 C -0.12911 -0.13171 0.14793
 C454 C -0.12270 -0.15845 0.16190
 C455 C -0.14122 -0.17370 0.18012
 C456 C -0.16692 -0.16270 0.18515
 C457 C -0.17291 -0.13547 0.17127
 C458 C -0.15431 -0.12029 0.15299
 C459 C -0.10975 -0.11614 0.12775
 C460 C -0.10456 -0.08598 0.12658
 C461 C -0.08634 -0.07149 0.10751
 C462 C -0.07286 -0.08686 0.08929
 C463 C -0.07807 -0.11697 0.09045
 C464 C -0.09634 -0.13143 0.10940
 C465 C -0.05366 -0.07163 0.06886
 C466 C -0.02827 -0.08313 0.06440
 C467 C -0.01073 -0.06947 0.04434
 C468 C -0.01824 -0.04406 0.02810
 C469 C -0.04334 -0.03228 0.03305
 C470 C -0.06085 -0.04589 0.05319
 H471 H -0.10329 -0.16776 0.15869
 H472 H -0.13558 -0.19478 0.18906
 H473 H -0.19156 -0.12513 0.17488
 H474 H -0.15992 -0.09972 0.14248
 H475 H -0.11425 -0.07362 0.14069
 H476 H -0.08248 -0.04830 0.10730
 H477 H -0.06841 -0.12934 0.07631
 H478 H -0.10032 -0.15459 0.10933
 H479 H -0.02188 -0.10264 0.07657
 H480 H 0.00883 -0.07878 0.04176
 H481 H -0.04998 -0.01298 0.02090
 H482 H -0.08043 -0.03667 0.05596
 C483 C -0.14824 0.35963 0.64518
 C484 C -0.13801 0.34098 0.66815
 C485 C -0.15667 0.32494 0.68575
 C486 C -0.18599 0.32687 0.68056
 C487 C -0.19631 0.34547 0.65771
 C488 C -0.17765 0.36184 0.64034
 C489 C -0.12838 0.37626 0.62608
 C490 C -0.13608 0.38116 0.59679
 C491 C -0.11724 0.39625 0.57876
 C492 C -0.09014 0.40641 0.58952
 C493 C -0.08237 0.40165 0.61871
 C494 C -0.10134 0.38693 0.63683
 C495 C -0.06985 0.42141 0.57020
 C496 C -0.04200 0.41325 0.57155
 C497 C -0.02314 0.42665 0.55260
 C498 C -0.03169 0.44874 0.53230
 C499 C -0.05934 0.45724 0.53126
 C500 C -0.07836 0.44354 0.54990
 H501 H -0.11560 0.33824 0.67222
 H502 H -0.14823 0.31046 0.70303
 H503 H -0.21884 0.34755 0.65349
 H504 H -0.18629 0.37638 0.62324
 H505 H -0.15645 0.37281 0.58762
 H506 H -0.12358 0.39935 0.55626
 H507 H -0.06168 0.40959 0.62754
 H508 H -0.09486 0.38411 0.65931
 H509 H -0.03501 0.39611 0.58689
 H510 H -0.00182 0.41988 0.55388
 H511 H -0.06647 0.47394 0.51557
 H512 H -0.09970 0.45027 0.54854
 C513 C 0.35163 -0.13796 0.63224
 C514 C 0.34470 -0.12666 0.65685
 C515 C 0.32732 -0.14305 0.67554
 C516 C 0.31670 -0.17122 0.67014
 C517 C 0.32381 -0.18250 0.64553
 C518 C 0.34096 -0.16602 0.62675
 C519 C 0.37020 -0.12075 0.61244
 C520 C 0.36346 -0.12003 0.58298
 C521 C 0.38140 -0.10458 0.56426
 C522 C 0.40665 -0.08972 0.57457
 C523 C 0.41318 -0.09021 0.60411
 C524 C 0.39509 -0.10545 0.62283
 C525 C 0.42642 -0.07441 0.55461
 C526 C 0.44153 -0.04826 0.56088
 C527 C 0.46083 -0.03448 0.54256
 C528 C 0.46536 -0.04642 0.51745
 C529 C 0.44993 -0.07232 0.51095
 C530 C 0.43079 -0.08619 0.52935
 H531 H 0.35242 -0.10496 0.66143
 H532 H 0.32192 -0.13350 0.69402
 H533 H 0.31654 -0.20430 0.64098
 H534 H 0.34634 -0.17543 0.60816
 H535 H 0.34417 -0.13129 0.57442
 H536 H 0.37541 -0.10420 0.54169
 H537 H 0.43266 -0.07942 0.61280
 H538 H 0.40096 -0.10593 0.64544
 H539 H 0.43845 -0.03840 0.57997
 H540 H 0.47264 -0.01480 0.54846
 H541 H 0.45257 -0.08192 0.49160
 H542 H 0.41981 -0.10647 0.52399
 C543 C 0.35823 0.37434 0.14404
 C544 C 0.33097 0.36528 0.13257
 C545 C 0.31182 0.34911 0.14954
 C546 C 0.31951 0.34118 0.17835
 C547 C 0.34666 0.35052 0.18990
 C548 C 0.36568 0.36705 0.17303
 C549 C 0.37904 0.39054 0.12565
 C550 C 0.40797 0.38581 0.13011
 C551 C 0.42739 0.40011 0.11225
 C552 C 0.41838 0.41921 0.08914
 C553 C 0.38952 0.42425 0.08487
 C554 C 0.37014 0.41024 0.10299
 C555 C 0.43889 0.43316 0.06916
 C556 C 0.43604 0.46131 0.05647
 C557 C 0.45495 0.47398 0.03719
 C558 C 0.47737 0.45897 0.03019
 C559 C 0.48046 0.43098 0.04337
 C560 C 0.46137 0.41819 0.06232
 H561 H 0.32454 0.37012 0.11029
 H562 H 0.29095 0.34279 0.13997
 H563 H 0.35354 0.34459 0.21188
 H564 H 0.38628 0.37403 0.18276
 H565 H 0.41564 0.37054 0.14706
 H566 H 0.44950 0.39608 0.11657
 H567 H 0.38171 0.43856 0.06715
 H568 H 0.34814 0.41484 0.09915
 H569 H 0.41927 0.47371 0.06155
 H570 H 0.45161 0.49544 0.02766
 H571 H 0.49777 0.41880 0.03938
 H572 H 0.46411 0.39635 0.07133
 C573 C 0.12989 0.15040 0.13750
 C574 C 0.12737 0.14529 0.16681
 C575 C 0.14276 0.16317 0.18570
 C576 C 0.16047 0.18676 0.17553
 C577 C 0.16236 0.19230 0.14615
 C578 C 0.14739 0.17413 0.12733
 C579 C 0.11516 0.13045 0.11759
 C580 C 0.13030 0.11910 0.09783
 C581 C 0.11669 0.09999 0.07916
 C582 C 0.08747 0.09218 0.07945
 C583 C 0.07234 0.10373 0.09926
 C584 C 0.08611 0.12249 0.11831
 C585 C 0.07306 0.07195 0.05927
 C586 C 0.05065 0.05208 0.06735
 C587 C 0.03780 0.03258 0.04858
 C588 C 0.04741 0.03221 0.02160
 C589 C 0.06951 0.05212 0.01333
 C590 C 0.08201 0.07196 0.03183
 H591 H 0.11410 0.12701 0.17511
 H592 H 0.14091 0.15857 0.20827
 H593 H 0.17605 0.21023 0.13784
 H594 H 0.14954 0.17854 0.10479
 H595 H 0.15282 0.12462 0.09720
 H596 H 0.12925 0.09102 0.06479
 H597 H 0.04977 0.09863 0.09985
 H598 H 0.07400 0.13117 0.13328
 H599 H 0.04346 0.05106 0.08841
 H600 H 0.02093 0.01719 0.05548
 H601 H 0.07697 0.05249 -0.00759
 H602 H 0.09863 0.08738 0.02451
 C603 C 0.12518 0.63338 0.65359
 C604 C 0.15289 0.62695 0.66325
 C605 C 0.17016 0.64549 0.68001
 C606 C 0.16004 0.67078 0.68782
 C607 C 0.13214 0.67703 0.67834
 C608 C 0.11495 0.65860 0.66125
 C609 C 0.10743 0.61401 0.63500
 C610 C 0.09263 0.62525 0.60999
 C611 C 0.07783 0.60677 0.59129
 C612 C 0.07733 0.57667 0.59734
 C613 C 0.09128 0.56557 0.62296
 C614 C 0.10628 0.58402 0.64147
 C615 C 0.06351 0.55690 0.57652
 C616 C 0.07597 0.53158 0.57233
 C617 C 0.06363 0.51327 0.55231
 C618 C 0.03865 0.51991 0.53572
 C619 C 0.02602 0.54508 0.53998
 C620 C 0.03829 0.56336 0.56018
 H621 H 0.16146 0.60789 0.65724
 H622 H 0.19170 0.64028 0.68629
 H623 H 0.12346 0.69605 0.68428
 H624 H 0.09356 0.66390 0.65424
 H625 H 0.09340 0.64831 0.60440
 H626 H 0.06765 0.61607 0.57162
 H627 H 0.09077 0.54255 0.62863
 H628 H 0.11715 0.57484 0.66084
 H629 H 0.09560 0.52611 0.58419
 H630 H 0.07368 0.49381 0.55000
 H631 H 0.00693 0.55098 0.52734
 H632 H 0.02799 0.58253 0.56305
 C633 C 0.62173 0.13466 0.64693
 C634 C 0.64936 0.12848 0.65715
 C635 C 0.66566 0.14644 0.67523
 C636 C 0.65462 0.17089 0.68384
 C637 C 0.62686 0.17702 0.67365
 C638 C 0.61064 0.15916 0.65525
 C639 C 0.60490 0.11571 0.62726
 C640 C 0.59036 0.12749 0.60235
 C641 C 0.57628 0.10948 0.58279
 C642 C 0.57626 0.07931 0.58788
 C643 C 0.59004 0.06762 0.61332
 C644 C 0.60432 0.08562 0.63270
 C645 C 0.56281 0.06009 0.56638
 C646 C 0.57554 0.03516 0.56148
 C647 C 0.56333 0.01725 0.54103
 C648 C 0.53819 0.02393 0.52474
 C649 C 0.52539 0.04882 0.52961
 C650 C 0.53753 0.06667 0.55024
 H651 H 0.65860 0.11003 0.65064
 H652 H 0.68716 0.14142 0.68201
 H653 H 0.61754 0.19542 0.68012
 H654 H 0.58929 0.16426 0.64781
 H655 H 0.59072 0.15064 0.59753
 H656 H 0.56620 0.11922 0.56327
 H657 H 0.58989 0.04451 0.61826
 H658 H 0.61500 0.07600 0.65197
 H659 H 0.59524 0.02964 0.57317
 H660 H 0.57356 -0.00195 0.53815
 H661 H 0.50626 0.05487 0.51718
 H662 H 0.52702 0.08555 0.55362
 C663 C 0.63737 0.64870 0.14322
 C664 C 0.63015 0.65153 0.17077
 C665 C 0.64665 0.67009 0.18823
 C666 C 0.67093 0.68599 0.17862
 C667 C 0.67806 0.68308 0.15098
 C668 C 0.66138 0.66478 0.13345
 C669 C 0.62030 0.62862 0.12484
 C670 C 0.61281 0.63726 0.09618
 C671 C 0.59767 0.61796 0.07856
 C672 C 0.59005 0.58954 0.08918
 C673 C 0.59728 0.58098 0.11792
 C674 C 0.61211 0.60040 0.13563
 C675 C 0.57547 0.56863 0.07006
 C676 C 0.58497 0.54095 0.07034
 C677 C 0.57219 0.52166 0.05139
 C678 C 0.54945 0.52956 0.03204
 C679 C 0.53953 0.55698 0.03216
 C680 C 0.55256 0.57643 0.05086
 H681 H 0.61156 0.63958 0.17870
 H682 H 0.64021 0.67216 0.20917
 H683 H 0.69690 0.69446 0.14303
 H684 H 0.66765 0.66267 0.11244
 H685 H 0.61871 0.65896 0.08741
 H686 H 0.59255 0.62502 0.05644
 H687 H 0.59149 0.55924 0.12665
 H688 H 0.61780 0.59315 0.15760
 H689 H 0.60272 0.53448 0.08478
 H690 H 0.58004 0.50051 0.05193
 H691 H 0.52217 0.56364 0.01729
 H692 H 0.54474 0.59759 0.05035
   
