data_POSCAR
  _audit_creation_date              2014-09-24
  _audit_creation_method            'ToBaCCo'
  _symmetry_space_group_name_H-M    'P1'
  _symmetry_Int_Tables_number       1
  _symmetry_cell_setting            triclinic
  loop_
  _symmetry_equiv_pos_as_xyz
 x,y,z
_cell_length_a 32.5134
_cell_length_b 22.8860
_cell_length_c 24.0185
_cell_angle_alpha 89.618700
_cell_angle_beta 89.900100
_cell_angle_gamma 89.726100
loop_
  _atom_site_label
  _atom_site_type_symbol
  _atom_site_fract_x
  _atom_site_fract_y
  _atom_site_fract_z
C1 C 0.21960 0.21460 0.24385
 C2 C 0.21756 0.27696 0.24363
 C3 C 0.24617 0.30892 0.27450
 C4 C 0.27862 0.28149 0.30258
 C5 C 0.28500 0.22040 0.29619
 C6 C 0.25406 0.18792 0.26972
 H7 H 0.25892 0.14141 0.26506
 H8 H 0.24270 0.35599 0.27745
 C9 C 0.76346 0.29726 0.18124
 C10 C 0.76204 0.23480 0.18045
 C11 C 0.73076 0.20508 0.20924
 C12 C 0.69978 0.23494 0.23830
 C13 C 0.70103 0.29667 0.24012
 C14 C 0.73261 0.32641 0.21219
 H15 H 0.73406 0.37296 0.21865
 H16 H 0.73009 0.15772 0.20793
 C17 C 0.71184 0.71845 0.75421
 C18 C 0.71427 0.77976 0.74747
 C19 C 0.74529 0.81076 0.77471
 C20 C 0.77515 0.78269 0.80833
 C21 C 0.77091 0.72123 0.81714
 C22 C 0.73977 0.69035 0.78988
 H23 H 0.73817 0.64329 0.79515
 H24 H 0.74499 0.85779 0.77006
 C25 C 0.27563 0.80363 0.70949
 C26 C 0.27531 0.74253 0.70170
 C27 C 0.24702 0.70798 0.73052
 C28 C 0.21801 0.73147 0.76830
 C29 C 0.21614 0.79393 0.77224
 C30 C 0.24521 0.82848 0.74354
 H31 H 0.24464 0.87540 0.74930
 H32 H 0.24734 0.66207 0.72058
 O33 O 1.04649 -0.07798 0.02378
 O34 O 0.96217 -0.00139 0.09592
 O35 O 0.96632 -0.08713 0.02506
 O36 O 1.04180 0.00879 0.09280
 O37 O 1.03590 0.07183 0.02326
 O38 O 0.96140 -0.02458 -0.04504
 O39 O 0.95610 0.06001 0.02505
 O40 O 1.04110 -0.01589 -0.04661
 Cu41 Cu 1.00472 -0.04574 0.06637
 Cu42 Cu 0.99838 0.02917 -0.01787
 C43 C 1.05813 -0.06003 -0.02380
 C44 C 0.94461 0.04208 0.07273
 C45 C 0.95077 -0.07192 -0.02140
 C46 C 1.05146 0.05691 0.06974
 O47 O 0.54113 0.43145 0.49967
 O48 O 0.46567 0.51246 0.58086
 O49 O 0.45945 0.44624 0.49131
 O50 O 0.54359 0.51595 0.57100
 O51 O 0.54649 0.58419 0.50572
 O52 O 0.46373 0.51623 0.42791
 O53 O 0.46442 0.58258 0.51730
 O54 O 0.54129 0.50014 0.43472
 Cu55 Cu 0.50176 0.46915 0.54052
 Cu56 Cu 0.50375 0.55317 0.46666
 C57 C 0.55412 0.45111 0.45349
 C58 C 0.45191 0.56099 0.56335
 C59 C 0.44720 0.46987 0.44594
 C60 C 0.55924 0.56272 0.55133
 O61 O -0.03663 0.55851 -0.01203
 O62 O 0.04793 0.48480 0.06411
 O63 O 0.03924 0.57742 -0.00814
 O64 O -0.03486 0.48036 0.05962
 O65 O -0.02411 0.41322 -0.00465
 O66 O 0.05066 0.51129 -0.07306
 O67 O 0.05584 0.42279 -0.00503
 O68 O -0.02796 0.49562 -0.08061
 Cu69 Cu 0.00506 0.53019 0.03393
 Cu70 Cu 0.01450 0.45421 -0.04750
 C71 C -0.04648 0.53927 -0.05969
 C72 C 0.06610 0.44107 0.04256
 C73 C 0.05664 0.56180 -0.05300
 C74 C -0.04294 0.43113 0.03854
 O75 O 0.47500 0.90494 0.50066
 O76 O 0.54733 0.97862 0.40500
 O77 O 0.55384 0.90608 0.48775
 O78 O 0.46648 0.97212 0.41348
 O79 O 0.47112 1.05078 0.46596
 O80 O 0.55282 0.97866 0.54792
 O81 O 0.55072 1.05262 0.46349
 O82 O 0.47283 0.98384 0.55323
 Cu83 Cu 0.51041 0.93303 0.44574
 Cu84 Cu 0.51228 1.02419 0.51326
 C85 C 0.46127 0.93226 0.54276
 C86 C 0.56177 1.02795 0.41876
 C87 C 0.56740 0.93008 0.53141
 C88 C 0.45415 1.02280 0.42680
 C89 C 1.13722 0.16610 0.15006
 C90 C 1.13139 0.10831 0.16763
 N91 N 1.15388 0.08685 0.21062
 C92 C 1.18247 0.12024 0.23643
 C93 C 1.18914 0.17870 0.21877
 N94 N 1.16549 0.19962 0.17616
 N95 N 1.11504 0.18750 0.10656
 C96 C 1.08728 0.15345 0.07973
 C97 C 1.08120 0.09538 0.09746
 N98 N 1.10345 0.07441 0.14130
 H99 H 1.19850 0.10146 0.27169
 H100 H 1.07003 0.17164 0.04518
 C101 C 0.64983 0.65662 0.63886
 C102 C 0.62518 0.61564 0.66676
 N103 N 0.62934 0.60854 0.72269
 C104 C 0.65685 0.64090 0.75195
 C105 C 0.68123 0.68257 0.72410
 N106 N 0.67735 0.68847 0.66798
 N107 N 0.64534 0.66490 0.58328
 C108 C 0.61695 0.63438 0.55417
 C109 C 0.59195 0.59332 0.58178
 N110 N 0.59688 0.58470 0.63763
 H111 H 0.65937 0.63468 0.79652
 H112 H 0.61383 0.64235 0.50990
 C113 C -0.13780 0.33340 0.11369
 C114 C -0.14157 0.39374 0.10570
 N115 N -0.17674 0.42121 0.12083
 C116 C -0.20834 0.39133 0.14443
 C117 C -0.20463 0.33037 0.15486
 N118 N -0.16889 0.30376 0.13867
 N119 N -0.10338 0.30531 0.09567
 C120 C -0.07244 0.33528 0.07017
 C121 C -0.07577 0.39617 0.06371
 N122 N -0.11038 0.42384 0.08172
 H123 H -0.23621 0.41553 0.15261
 H124 H -0.04524 0.31213 0.05622
 C125 C 0.37565 0.84712 0.64653
 C126 C 0.36674 0.90251 0.62429
 N127 N 0.32900 0.92657 0.63305
 C128 C 0.29946 0.89717 0.66207
 C129 C 0.30803 0.84095 0.68347
 N130 N 0.34650 0.81845 0.67609
 N131 N 0.41227 0.82111 0.63513
 C132 C 0.44042 0.84790 0.60196
 C133 C 0.43181 0.90354 0.57993
 N134 N 0.39521 0.92991 0.59200
 H135 H 0.26925 0.91662 0.66636
 H136 H 0.46929 0.82612 0.59297
 C137 C -0.13920 0.62720 -0.15037
 C138 C -0.14055 0.62490 -0.09193
 N139 N -0.17196 0.65144 -0.06446
 C140 C -0.20172 0.68109 -0.09280
 C141 C -0.19913 0.68601 -0.15104
 N142 N -0.16825 0.65810 -0.17854
 N143 N -0.10859 0.59911 -0.17795
 C144 C -0.07894 0.56920 -0.14974
 C145 C -0.07939 0.56844 -0.09122
 N146 N -0.11035 0.59631 -0.06368
 H147 H -0.22635 0.70235 -0.07017
 H148 H -0.05466 0.54754 -0.17273
 C149 C 0.35261 1.10415 0.34954
 C150 C 0.38960 1.13428 0.35710
 N151 N 0.39265 1.19046 0.33976
 C152 C 0.35982 1.21888 0.31743
 C153 C 0.32115 1.19094 0.31459
 N154 N 0.31935 1.13311 0.32891
 N155 N 0.35031 1.04684 0.36425
 C156 C 0.38325 1.01869 0.38709
 C157 C 0.41962 1.04977 0.39712
 N158 N 0.42197 1.10685 0.38152
 H159 H 0.36450 1.26237 0.30107
 H160 H 0.38059 0.97323 0.39923
 C161 C 1.15234 -0.15010 -0.11019
 C162 C 1.12523 -0.11221 -0.13834
 N163 N 1.12847 -0.10556 -0.19433
 C164 C 1.15741 -0.13545 -0.22362
 C165 C 1.18444 -0.17379 -0.19578
 N166 N 1.18168 -0.17944 -0.13934
 N167 N 1.14830 -0.15778 -0.05434
 C168 C 1.11832 -0.12941 -0.02538
 C169 C 1.09134 -0.09102 -0.05342
 N170 N 1.09568 -0.08333 -0.10938
 H171 H 1.15923 -0.12966 -0.26833
 H172 H 1.11573 -0.13651 0.01908
 C173 C 0.63735 0.34933 0.35894
 C174 C 0.61877 0.39950 0.33599
 N175 N 0.62695 0.41476 0.28246
 C176 C 0.65294 0.38220 0.25079
 C177 C 0.67174 0.33195 0.27359
 N178 N 0.66350 0.31693 0.32744
 N179 N 0.62883 0.33374 0.41230
 C180 C 0.60246 0.36594 0.44378
 C181 C 0.58381 0.41633 0.42100
 N182 N 0.59258 0.43185 0.36746
 H183 H 0.65875 0.39519 0.20809
 H184 H 0.59615 0.35225 0.48614
 C185 C 0.85863 -0.17357 -0.09748
 C186 C 0.87013 -0.11949 -0.11982
 N187 N 0.85092 -0.09887 -0.16598
 C188 C 0.82024 -0.12947 -0.19057
 C189 C 0.80772 -0.18402 -0.16800
 N190 N 0.82806 -0.20415 -0.12203
 N191 N 0.87780 -0.19436 -0.05118
 C192 C 0.90794 -0.16309 -0.02600
 C193 C 0.91944 -0.10849 -0.04819
 N194 N 0.90019 -0.08826 -0.09487
 H195 H 0.80726 -0.11180 -0.22847
 H196 H 0.92255 -0.18054 0.01104
 C197 C 0.35265 0.39260 0.35124
 C198 C 0.36095 0.37298 0.40566
 N199 N 0.33925 0.32758 0.42714
 C200 C 0.31048 0.29981 0.39608
 C201 C 0.30377 0.31734 0.34053
 N202 N 0.32446 0.36429 0.31990
 N203 N 0.37437 0.43779 0.32961
 C204 C 0.40440 0.46392 0.35961
 C205 C 0.41368 0.44345 0.41360
 N206 N 0.39137 0.39856 0.43548
 H207 H 0.29433 0.26271 0.41357
 H208 H 0.42136 0.49966 0.34099
 C209 C 0.13292 0.67717 -0.14357
 C210 C 0.14167 0.61730 -0.14066
 N211 N 0.17561 0.59617 -0.16620
 C212 C 0.20112 0.63185 -0.19530
 C213 C 0.19204 0.69252 -0.20075
 N214 N 0.15780 0.71277 -0.17395
 N215 N 0.10005 0.69884 -0.11528
 C216 C 0.07548 0.66297 -0.08447
 C217 C 0.08365 0.60256 -0.08292
 N218 N 0.11664 0.58129 -0.11125
 H219 H 0.22881 0.61224 -0.21148
 H220 H 0.04930 0.68114 -0.06257
 C221 C 0.64988 1.11826 0.32311
 C222 C 0.60860 1.13646 0.32343
 N223 N 0.59727 1.18449 0.29367
 C224 C 0.62553 1.21600 0.26458
 C225 C 0.66739 1.19998 0.26673
 N226 N 0.67826 1.15052 0.29519
 N227 N 0.66103 1.06923 0.35160
 C228 C 0.63279 1.03796 0.38102
 C229 C 0.59178 1.05723 0.38287
 N230 N 0.58059 1.10607 0.35388
 H231 H 0.61542 1.25344 0.24043
 H232 H 0.64242 0.99947 0.40408
 C233 C 0.15813 0.34651 0.12897
 C234 C 0.12809 0.37819 0.15831
 N235 N 0.12767 0.37599 0.21484
 C236 C 0.15578 0.34325 0.24332
 C237 C 0.18562 0.31116 0.21397
 N238 N 0.18644 0.31448 0.15738
 N239 N 0.15807 0.34740 0.07253
 C240 C 0.12912 0.37821 0.04391
 C241 C 0.09902 0.41022 0.07298
 N242 N 0.09939 0.40965 0.12972
 H243 H 0.15492 0.34216 0.28837
 H244 H 0.12961 0.37770 -0.00115
 C245 C 0.65595 0.83793 0.62608
 C246 C 0.63002 0.87928 0.65130
 N247 N 0.63205 0.88731 0.70719
 C248 C 0.65864 0.85551 0.73904
 C249 C 0.68431 0.81365 0.71394
 N250 N 0.68277 0.80676 0.65778
 N251 N 0.65329 0.82869 0.57049
 C252 C 0.62556 0.85859 0.53891
 C253 C 0.59952 0.90010 0.56393
 N254 N 0.60259 0.90965 0.61969
 H255 H 0.65971 0.86259 0.78353
 H256 H 0.62379 0.84990 0.49474
 C257 C 0.84818 0.13156 0.15467
 C258 C 0.85291 0.13585 0.09668
 N259 N 0.82639 0.16954 0.06669
 C260 C 0.79581 0.20010 0.09226
 C261 C 0.79235 0.19817 0.15061
 N262 N 0.81824 0.16299 0.18031
 N263 N 0.87416 0.09700 0.18454
 C264 C 0.90496 0.06684 0.15913
 C265 C 0.91056 0.07226 0.10125
 N266 N 0.88416 0.10663 0.07140
 H267 H 0.77530 0.22724 0.06768
 H268 H 0.92537 0.03988 0.18404
 C269 C 0.36037 0.64455 0.65921
 C270 C 0.36540 0.65891 0.60266
 N271 N 0.33970 0.69867 0.57863
 C272 C 0.30956 0.72521 0.60884
 C273 C 0.30540 0.71204 0.66587
 N274 N 0.33071 0.67144 0.68938
 N275 N 0.38543 0.60427 0.68326
 C276 C 0.41535 0.57736 0.65333
 C277 C 0.42077 0.59169 0.59675
 N278 N 0.39558 0.63237 0.57270
 H279 H 0.28964 0.75716 0.58906
 H280 H 0.43478 0.54516 0.67364
   
