data_POSCAR
  _audit_creation_date              2014-09-24
  _audit_creation_method            'ToBaCCo'
  _symmetry_space_group_name_H-M    'P1'
  _symmetry_Int_Tables_number       1
  _symmetry_cell_setting            triclinic
  loop_
  _symmetry_equiv_pos_as_xyz
 x,y,z
_cell_length_a 50.9797
_cell_length_b 50.9791
_cell_length_c 49.0598
_cell_angle_alpha 90.094100
_cell_angle_beta 89.861600
_cell_angle_gamma 89.988700
loop_
  _atom_site_label
  _atom_site_type_symbol
  _atom_site_fract_x
  _atom_site_fract_y
  _atom_site_fract_z
C1 C 0.29025 0.28541 0.23897
 H2 H 0.29150 0.28597 0.26098
 C3 C 0.30710 0.30083 0.22326
 H4 H 0.32122 0.31330 0.23343
 C5 C 0.27037 0.26819 0.19919
 H6 H 0.25629 0.25518 0.18985
 C7 C 0.28684 0.28327 0.18268
 H8 H 0.28498 0.28181 0.16076
 N9 N 0.27210 0.26979 0.22680
 C10 C 0.21032 0.25997 0.28764
 H11 H 0.20912 0.23879 0.28843
 C12 C 0.19357 0.27521 0.30373
 H13 H 0.17957 0.26552 0.31694
 C14 C 0.22993 0.29813 0.26912
 H15 H 0.24383 0.30702 0.25531
 C16 C 0.21356 0.31412 0.28483
 H17 H 0.21534 0.33521 0.28305
 Zn18 Zn 0.25011 0.24951 0.24971
 N19 N 0.22828 0.27157 0.27105
 C20 C 0.27078 0.23081 0.29993
 N21 N 0.27218 0.22908 0.27229
 C22 C 0.29010 0.21330 0.25988
 C23 C 0.30705 0.19785 0.27536
 C24 C 0.28737 0.21571 0.31621
 C25 C 0.20985 0.23940 0.21245
 C26 C 0.19279 0.22432 0.19665
 C27 C 0.21268 0.18523 0.21517
 C28 C 0.22936 0.20106 0.23060
 N29 N 0.22791 0.22764 0.22872
 H30 H 0.25690 0.24395 0.30945
 H31 H 0.29109 0.21264 0.23785
 H32 H 0.32100 0.18527 0.26500
 H33 H 0.28580 0.21729 0.33816
 H34 H 0.20881 0.26059 0.21170
 H35 H 0.17872 0.23414 0.18370
 H36 H 0.21430 0.16412 0.21690
 H37 H 0.24335 0.19204 0.24415
 C38 C 0.19514 0.30270 0.30254
 C39 C 0.30543 0.30000 0.19469
 C40 C 0.19414 0.19682 0.19780
 C41 C 0.30575 0.19884 0.30395
 C42 C 0.79075 0.78614 0.23866
 H43 H 0.79202 0.78674 0.26066
 C44 C 0.80752 0.80162 0.22292
 H45 H 0.82155 0.81410 0.23322
 C46 C 0.77089 0.76878 0.19896
 H47 H 0.75686 0.75569 0.18967
 C48 C 0.78727 0.78390 0.18239
 H49 H 0.78526 0.78227 0.16048
 N50 N 0.77265 0.77044 0.22655
 C51 C 0.71093 0.76052 0.28744
 H52 H 0.70978 0.73934 0.28824
 C53 C 0.69414 0.77572 0.30353
 H54 H 0.68017 0.76600 0.31675
 C55 C 0.73044 0.79872 0.26889
 H56 H 0.74431 0.80764 0.25508
 C57 C 0.71403 0.81467 0.28460
 H58 H 0.71575 0.83577 0.28282
 Zn59 Zn 0.75073 0.75013 0.24952
 N60 N 0.72886 0.77215 0.27084
 C61 C 0.77143 0.73151 0.29975
 N62 N 0.77286 0.72978 0.27212
 C63 C 0.79079 0.71400 0.25972
 C64 C 0.80772 0.69854 0.27522
 C65 C 0.78799 0.71639 0.31605
 C66 C 0.71047 0.73986 0.21230
 C67 C 0.69344 0.72470 0.19654
 C68 C 0.71344 0.68569 0.21512
 C69 C 0.73009 0.70160 0.23051
 N70 N 0.72857 0.72817 0.22857
 H71 H 0.75754 0.74464 0.30926
 H72 H 0.79181 0.71334 0.23770
 H73 H 0.82167 0.68595 0.26488
 H74 H 0.78638 0.71796 0.33800
 H75 H 0.70938 0.76104 0.21150
 H76 H 0.67934 0.73446 0.18357
 H77 H 0.71512 0.66459 0.21690
 H78 H 0.74411 0.69264 0.24408
 C79 C 0.69564 0.80322 0.30233
 C80 C 0.80588 0.80082 0.19427
 C81 C 0.69486 0.69720 0.19774
 C82 C 0.80636 0.69950 0.30382
 C83 C 0.79100 0.28490 0.73982
 H84 H 0.79228 0.28551 0.76182
 C85 C 0.80779 0.30034 0.72405
 H86 H 0.82191 0.31285 0.73417
 C87 C 0.77107 0.26760 0.70010
 H88 H 0.75700 0.25455 0.69081
 C89 C 0.78748 0.28269 0.68354
 H90 H 0.78558 0.28120 0.66162
 N91 N 0.77285 0.26924 0.72771
 C92 C 0.71109 0.25953 0.78860
 H93 H 0.70990 0.23835 0.78945
 C94 C 0.69432 0.27480 0.80463
 H95 H 0.68032 0.26514 0.81786
 C96 C 0.73070 0.29765 0.76998
 H97 H 0.74460 0.30651 0.75616
 C98 C 0.71431 0.31367 0.78563
 H99 H 0.71608 0.33476 0.78379
 Zn100 Zn 0.75087 0.24900 0.75067
 N101 N 0.72906 0.27109 0.77199
 C102 C 0.77154 0.23029 0.80087
 N103 N 0.77294 0.22857 0.77326
 C104 C 0.79083 0.21278 0.76086
 C105 C 0.80776 0.19727 0.77631
 C106 C 0.78808 0.21517 0.81718
 C107 C 0.71058 0.23888 0.71345
 C108 C 0.69353 0.22381 0.69765
 C109 C 0.71343 0.18471 0.71615
 C110 C 0.73011 0.20054 0.73158
 N111 N 0.72865 0.22712 0.72971
 H112 H 0.75768 0.24346 0.81038
 H113 H 0.79182 0.21214 0.73883
 H114 H 0.82158 0.18477 0.76564
 H115 H 0.78626 0.21696 0.83911
 H116 H 0.70954 0.26007 0.71271
 H117 H 0.67946 0.23363 0.68470
 H118 H 0.71505 0.16360 0.71787
 H119 H 0.74410 0.19152 0.74513
 C120 C 0.69587 0.30229 0.80336
 C121 C 0.80606 0.29948 0.69548
 C122 C 0.69489 0.19630 0.69877
 C123 C 0.80656 0.19810 0.80505
 C124 C 0.29011 0.78580 0.73931
 H125 H 0.29137 0.78640 0.76132
 C126 C 0.30693 0.80123 0.72357
 H127 H 0.32104 0.81372 0.73371
 C128 C 0.27023 0.76849 0.69957
 H129 H 0.25617 0.75544 0.69026
 C130 C 0.28667 0.78357 0.68303
 H131 H 0.28481 0.78207 0.66111
 N132 N 0.27197 0.77014 0.72718
 C133 C 0.21025 0.76026 0.78809
 H134 H 0.20910 0.73908 0.78891
 C135 C 0.19346 0.77549 0.80414
 H136 H 0.17948 0.76579 0.81737
 C137 C 0.22977 0.79843 0.76949
 H138 H 0.24365 0.80733 0.75567
 C139 C 0.21336 0.81441 0.78517
 H140 H 0.21509 0.83550 0.78335
 Zn141 Zn 0.25003 0.74984 0.75013
 N142 N 0.22819 0.77187 0.77147
 C143 C 0.27076 0.73112 0.80032
 N144 N 0.27216 0.72945 0.77268
 C145 C 0.29009 0.71371 0.76023
 C146 C 0.30707 0.69825 0.77567
 C147 C 0.28737 0.71600 0.81656
 C148 C 0.20977 0.73963 0.71288
 C149 C 0.19275 0.72450 0.69708
 C150 C 0.21273 0.68546 0.71563
 C151 C 0.22937 0.70135 0.73106
 N152 N 0.22785 0.72792 0.72916
 H153 H 0.25686 0.74422 0.80988
 H154 H 0.29108 0.71309 0.73821
 H155 H 0.32103 0.68571 0.76528
 H156 H 0.28580 0.71753 0.83852
 H157 H 0.20869 0.76081 0.71212
 H158 H 0.17867 0.73428 0.68412
 H159 H 0.21440 0.66436 0.71737
 H160 H 0.24337 0.69236 0.74462
 C161 C 0.19496 0.80298 0.80290
 C162 C 0.30525 0.80034 0.69500
 C163 C 0.19417 0.69700 0.69824
 C164 C 0.30577 0.69917 0.80427
 C165 C 0.03481 0.04066 0.01058
 H166 H 0.03539 0.04193 -0.01142
 C167 C 0.05025 0.05746 0.02630
 H168 H 0.06275 0.07157 0.01614
 C169 C 0.01752 0.02076 0.05036
 H170 H 0.00448 0.00669 0.05969
 C171 C 0.03262 0.03718 0.06687
 H172 H 0.03114 0.03530 0.08880
 N173 N 0.01915 0.02251 0.02274
 C174 C 0.00938 -0.03924 -0.03808
 H175 H -0.01179 -0.04043 -0.03890
 C176 C 0.02464 -0.05601 -0.05412
 H177 H 0.01497 -0.07001 -0.06733
 C178 C 0.04751 -0.01966 -0.01952
 H179 H 0.05639 -0.00576 -0.00571
 C180 C 0.06353 -0.03605 -0.03518
 H181 H 0.08461 -0.03429 -0.03337
 Zn182 Zn -0.00112 0.00054 -0.00017
 N183 N 0.02096 -0.02129 -0.02149
 C184 C -0.01980 0.02122 -0.05040
 N185 N -0.02153 0.02263 -0.02276
 C186 C -0.03732 0.04054 -0.01035
 C187 C -0.05278 0.05748 -0.02584
 C188 C -0.03492 0.03779 -0.06668
 C189 C -0.01126 -0.03973 0.03711
 C190 C -0.02636 -0.05678 0.05293
 C191 C -0.06544 -0.03687 0.03441
 C192 C -0.04959 -0.02019 0.01896
 N193 N -0.02301 -0.02166 0.02083
 H194 H -0.00666 0.00734 -0.05992
 H195 H -0.03798 0.04154 0.01167
 H196 H -0.06537 0.07142 -0.01548
 H197 H -0.03334 0.03621 -0.08863
 H198 H 0.00992 -0.04078 0.03785
 H199 H -0.01656 -0.07086 0.06589
 H200 H -0.08655 -0.03523 0.03269
 H201 H -0.05860 -0.00619 0.00540
 C202 C 0.05213 -0.05447 -0.05289
 C203 C 0.04940 0.05576 0.05487
 C204 C -0.05387 -0.05541 0.05180
 C205 C -0.05181 0.05616 -0.05443
 C206 C 0.03552 0.54032 0.51087
 H207 H 0.03612 0.54158 0.48886
 C208 C 0.05093 0.55714 0.52659
 H209 H 0.06342 0.57127 0.51643
 C210 C 0.01822 0.52042 0.55064
 H211 H 0.00518 0.50635 0.55996
 C212 C 0.03329 0.53686 0.56715
 H213 H 0.03179 0.53499 0.58908
 N214 N 0.01987 0.52216 0.52302
 C215 C 0.01005 0.46042 0.46221
 H216 H -0.01112 0.45922 0.46143
 C217 C 0.02528 0.44366 0.44612
 H218 H 0.01559 0.42966 0.43293
 C219 C 0.04822 0.48001 0.48068
 H220 H 0.05712 0.49391 0.49447
 C221 C 0.06420 0.46363 0.46497
 H222 H 0.08529 0.46539 0.46673
 Zn223 Zn -0.00040 0.50019 0.50012
 N224 N 0.02166 0.47837 0.47877
 C225 C -0.01906 0.52089 0.44990
 N226 N -0.02081 0.52228 0.47754
 C227 C -0.03662 0.54018 0.48994
 C228 C -0.05205 0.55715 0.47445
 C229 C -0.03415 0.53749 0.43361
 C230 C -0.01049 0.45991 0.53737
 C231 C -0.02556 0.44284 0.55320
 C232 C -0.06467 0.46275 0.53476
 C233 C -0.04885 0.47944 0.51929
 N234 N -0.02227 0.47798 0.52113
 H235 H -0.00591 0.50702 0.44038
 H236 H -0.03729 0.54117 0.51197
 H237 H -0.06464 0.57109 0.48481
 H238 H -0.03254 0.53592 0.41166
 H239 H 0.01069 0.45887 0.53809
 H240 H -0.01573 0.42876 0.56614
 H241 H -0.08578 0.46438 0.53307
 H242 H -0.05788 0.49344 0.50576
 C243 C 0.05278 0.44521 0.44729
 C244 C 0.05005 0.55546 0.55517
 C245 C -0.05307 0.44420 0.55211
 C246 C -0.05104 0.55586 0.44586
 C247 C 0.53593 0.04040 0.51100
 H248 H 0.53656 0.04170 0.48900
 C249 C 0.55137 0.05715 0.52678
 H250 H 0.56391 0.07126 0.51667
 C251 C 0.51853 0.02046 0.55070
 H252 H 0.50545 0.00640 0.55998
 C253 C 0.53362 0.03683 0.56727
 H254 H 0.53209 0.03492 0.58920
 N255 N 0.52022 0.02226 0.52310
 C256 C 0.51040 -0.03938 0.46215
 H257 H 0.48922 -0.04054 0.46133
 C258 C 0.52564 -0.05612 0.44605
 H259 H 0.51595 -0.07007 0.43280
 C260 C 0.54856 -0.01987 0.48073
 H261 H 0.55746 -0.00602 0.49457
 C262 C 0.56455 -0.03624 0.46502
 H263 H 0.58564 -0.03450 0.46682
 Zn264 Zn 0.49995 0.00036 0.50011
 N265 N 0.52200 -0.02147 0.47877
 C266 C 0.48135 0.02113 0.44989
 N267 N 0.47961 0.02252 0.47753
 C268 C 0.46382 0.04043 0.48994
 C269 C 0.44836 0.05738 0.47446
 C270 C 0.46624 0.03771 0.43361
 C271 C 0.48966 -0.03994 0.53731
 C272 C 0.47449 -0.05698 0.55308
 C273 C 0.43549 -0.03696 0.53451
 C274 C 0.45141 -0.02031 0.51911
 N275 N 0.47798 -0.02184 0.52103
 H276 H 0.49449 0.00725 0.44037
 H277 H 0.46315 0.04141 0.51196
 H278 H 0.43576 0.07131 0.48482
 H279 H 0.46782 0.03613 0.41166
 H280 H 0.51084 -0.04104 0.53810
 H281 H 0.48424 -0.07109 0.56605
 H282 H 0.41440 -0.03528 0.53275
 H283 H 0.44246 -0.00628 0.50554
 C284 C 0.55313 -0.05460 0.44726
 C285 C 0.55045 0.05540 0.55535
 C286 C 0.44699 -0.05554 0.55190
 C287 C 0.44934 0.05607 0.44586
 C288 C 0.53594 0.54042 0.01074
 H289 H 0.53653 0.54167 -0.01127
 C290 C 0.55138 0.55724 0.02644
 H291 H 0.56387 0.57135 0.01627
 C292 C 0.51865 0.52054 0.05052
 H293 H 0.50561 0.50648 0.05986
 C294 C 0.53374 0.53698 0.06702
 H295 H 0.53226 0.53512 0.08895
 N296 N 0.52029 0.52228 0.02291
 C297 C 0.51045 0.46054 -0.03792
 H298 H 0.48928 0.45938 -0.03875
 C299 C 0.52570 0.44374 -0.05395
 H300 H 0.51602 0.42975 -0.06716
 C301 C 0.54861 0.48008 -0.01935
 H302 H 0.55750 0.49396 -0.00555
 C303 C 0.56460 0.46366 -0.03500
 H304 H 0.58569 0.46538 -0.03318
 Zn305 Zn 0.50000 0.50033 -0.00001
 N306 N 0.52205 0.47848 -0.02133
 C307 C 0.48128 0.52103 -0.05022
 N308 N 0.47961 0.52244 -0.02258
 C309 C 0.46386 0.54037 -0.01014
 C310 C 0.44839 0.55732 -0.02560
 C311 C 0.46615 0.53761 -0.06648
 C312 C 0.48978 0.46007 0.03728
 C313 C 0.47463 0.44303 0.05307
 C314 C 0.43561 0.46298 0.03448
 C315 C 0.45150 0.47964 0.01906
 N316 N 0.47807 0.47815 0.02098
 H317 H 0.49439 0.50713 -0.05977
 H318 H 0.46325 0.54137 0.01188
 H319 H 0.43583 0.57128 -0.01522
 H320 H 0.46768 0.53602 -0.08843
 H321 H 0.51096 0.45900 0.03807
 H322 H 0.48440 0.42894 0.06605
 H323 H 0.41451 0.46463 0.03271
 H324 H 0.44253 0.49364 0.00548
 C325 C 0.55319 0.44524 -0.05271
 C326 C 0.55052 0.55556 0.05502
 C327 C 0.44713 0.44442 0.05188
 C328 C 0.44930 0.55600 -0.05419
 N329 N 0.16350 -0.13884 -0.16590
 C330 C 0.14585 -0.14993 -0.14873
 N331 N 0.14419 -0.17643 -0.14744
 N332 N 0.15974 -0.19139 -0.16284
 C333 C 0.17751 -0.18040 -0.18009
 N334 N 0.17904 -0.15380 -0.18129
 C335 C 0.12928 -0.13377 -0.13201
 C336 C 0.11552 -0.12004 -0.11796
 C337 C 0.09933 -0.10350 -0.10124
 N338 N 0.07283 -0.10520 -0.10253
 N339 N 0.05783 -0.08968 -0.08713
 C340 C 0.06879 -0.07190 -0.06989
 N341 N 0.09538 -0.07033 -0.06871
 N342 N 0.11038 -0.08584 -0.08410
 N343 N 0.14449 0.32332 0.35232
 C344 C 0.14622 0.34982 0.35109
 N345 N 0.16388 0.36090 0.33393
 N346 N 0.17936 0.34593 0.31848
 C347 C 0.17775 0.31933 0.31961
 N348 N 0.15997 0.30835 0.33686
 C349 C 0.12972 0.36598 0.36788
 C350 C 0.11600 0.37971 0.38198
 C351 C 0.09986 0.39623 0.39876
 N352 N 0.07336 0.39452 0.39755
 N353 N 0.05840 0.41003 0.41301
 C354 C 0.06940 0.42780 0.43023
 N355 N 0.09599 0.42939 0.43133
 N356 N 0.11095 0.41389 0.41589
 N357 N 0.64498 -0.17628 0.35214
 C358 C 0.64664 -0.14978 0.35091
 N359 N 0.66425 -0.13866 0.33373
 N360 N 0.67975 -0.15359 0.31826
 C361 C 0.67822 -0.18019 0.31940
 N362 N 0.66049 -0.19121 0.33667
 C363 C 0.63012 -0.13366 0.36771
 C364 C 0.61639 -0.11996 0.38184
 C365 C 0.60023 -0.10348 0.39865
 N366 N 0.57373 -0.10516 0.39740
 N367 N 0.55877 -0.08969 0.41288
 C368 C 0.56976 -0.07198 0.43018
 N369 N 0.59635 -0.07042 0.43133
 N370 N 0.61132 -0.08589 0.41585
 N371 N 0.64511 0.32303 -0.14704
 C372 C 0.64681 0.34953 -0.14837
 N373 N 0.66449 0.36056 -0.16553
 N374 N 0.68002 0.34555 -0.18089
 C375 C 0.67844 0.31896 -0.17966
 N376 N 0.66064 0.30802 -0.16241
 C377 C 0.63026 0.36573 -0.13168
 C378 C 0.61651 0.37951 -0.11766
 C379 C 0.60034 0.39609 -0.10097
 N380 N 0.61140 0.41375 -0.08384
 N381 N 0.59642 0.42931 -0.06848
 C382 C 0.56983 0.42778 -0.06968
 N383 N 0.55886 0.40999 -0.08691
 N384 N 0.57383 0.39443 -0.10228
 N385 N -0.16310 0.16877 -0.13664
 C386 C -0.14557 0.15240 -0.14858
 N387 N -0.14408 0.15149 -0.17613
 N388 N -0.15968 0.16649 -0.19129
 C389 C -0.17742 0.18300 -0.17953
 N390 N -0.17870 0.18377 -0.15180
 C391 C -0.12897 0.13603 -0.13225
 C392 C -0.11514 0.12217 -0.11854
 C393 C -0.09879 0.10555 -0.10221
 N394 N -0.08243 0.08799 -0.11416
 N395 N -0.06745 0.07237 -0.09899
 C396 C -0.06828 0.07373 -0.07132
 N397 N -0.08472 0.09142 -0.05948
 N398 N -0.09970 0.10704 -0.07464
 N399 N -0.14289 0.65148 0.32407
 C400 C -0.14444 0.65237 0.35164
 N401 N -0.16199 0.66875 0.36357
 N402 N -0.17754 0.68379 0.34838
 C403 C -0.17612 0.68298 0.32072
 N404 N -0.15844 0.66652 0.30890
 C405 C -0.12791 0.63595 0.36799
 C406 C -0.11413 0.62205 0.38172
 C407 C -0.09785 0.60538 0.39806
 N408 N -0.09882 0.60684 0.42563
 N409 N -0.08390 0.59117 0.44080
 C410 C -0.06746 0.57347 0.42897
 N411 N -0.06658 0.57214 0.40130
 N412 N -0.08150 0.58781 0.38612
 N413 N 0.35673 0.15104 0.32415
 C414 C 0.35526 0.15198 0.35172
 N415 N 0.33768 0.16832 0.36367
 N416 N 0.32202 0.18325 0.34850
 C417 C 0.32336 0.18240 0.32083
 N418 N 0.34106 0.16598 0.30899
 C419 C 0.37192 0.13568 0.36805
 C420 C 0.38582 0.12188 0.38177
 C421 C 0.40223 0.10533 0.39809
 N422 N 0.40133 0.10684 0.42566
 N423 N 0.41636 0.09126 0.44082
 C424 C 0.43283 0.07361 0.42898
 N425 N 0.43365 0.07223 0.40131
 N426 N 0.41862 0.08780 0.38614
 N427 N 0.35674 0.65132 -0.17567
 C428 C 0.35526 0.65217 -0.14810
 N429 N 0.33768 0.66848 -0.13610
 N430 N 0.32202 0.68346 -0.15122
 C431 C 0.32337 0.68269 -0.17889
 N432 N 0.34108 0.66630 -0.19078
 C433 C 0.37191 0.63582 -0.13182
 C434 C 0.38580 0.62197 -0.11814
 C435 C 0.40220 0.60537 -0.10185
 N436 N 0.40136 0.60687 -0.07429
 N437 N 0.41638 0.59126 -0.05916
 C438 C 0.43279 0.57356 -0.07104
 N439 N 0.43354 0.57219 -0.09871
 N440 N 0.41852 0.58780 -0.11384
 N441 N -0.14447 -0.15192 0.17408
 C442 C -0.14636 -0.15270 0.14655
 N443 N -0.16405 -0.16904 0.13489
 N444 N -0.17940 -0.18412 0.15030
 C445 C -0.17769 -0.18345 0.17797
 N446 N -0.15983 -0.16701 0.18948
 C447 C -0.13008 -0.13618 0.12998
 C448 C -0.11652 -0.12216 0.11607
 C449 C -0.10053 -0.10532 0.09954
 N450 N -0.11177 -0.08754 0.08271
 N451 N -0.09695 -0.07175 0.06751
 C452 C -0.07034 -0.07314 0.06858
 N453 N -0.05919 -0.09103 0.08550
 N454 N -0.07401 -0.10683 0.10071
 N455 N -0.14344 0.34753 0.67446
 C456 C -0.14538 0.34679 0.64692
 N457 N -0.16310 0.33048 0.63526
 N458 N -0.17844 0.31537 0.65068
 C459 C -0.17662 0.31603 0.67832
 N460 N -0.15877 0.33242 0.68987
 C461 C -0.12913 0.36334 0.63034
 C462 C -0.11560 0.37738 0.61643
 C463 C -0.09964 0.39424 0.59989
 N464 N -0.11092 0.41202 0.58309
 N465 N -0.09612 0.42783 0.56788
 C466 C -0.06951 0.42645 0.56891
 N467 N -0.05833 0.40855 0.58580
 N468 N -0.07312 0.39274 0.60102
 N469 N 0.35594 -0.15178 0.67404
 C470 C 0.35407 -0.15255 0.64650
 N471 N 0.33632 -0.16882 0.63482
 N472 N 0.32090 -0.18386 0.65021
 C473 C 0.32264 -0.18316 0.67785
 N474 N 0.34051 -0.16681 0.68943
 C475 C 0.37043 -0.13609 0.62995
 C476 C 0.38405 -0.12212 0.61606
 C477 C 0.40012 -0.10533 0.59956
 N478 N 0.38895 -0.08752 0.58270
 N479 N 0.40384 -0.07177 0.56753
 C480 C 0.43045 -0.07324 0.56865
 N481 N 0.44151 -0.09116 0.58559
 N482 N 0.42663 -0.10692 0.60077
 N483 N 0.35616 0.34790 0.17385
 C484 C 0.35429 0.34718 0.14631
 N485 N 0.33654 0.33095 0.13459
 N486 N 0.32110 0.31589 0.14994
 C487 C 0.32284 0.31652 0.17759
 N488 N 0.34072 0.33283 0.18920
 C489 C 0.37064 0.36369 0.12980
 C490 C 0.38426 0.37769 0.11594
 C491 C 0.40031 0.39453 0.09948
 N492 N 0.38912 0.41233 0.08262
 N493 N 0.40400 0.42811 0.06747
 C494 C 0.43060 0.42670 0.06861
 N495 N 0.44169 0.40879 0.08556
 N496 N 0.42682 0.39299 0.10071
 N497 N 0.14267 0.17671 0.14897
 C498 C 0.14417 0.15020 0.15016
 N499 N 0.16194 0.13894 0.16697
 N500 N 0.17776 0.15375 0.18214
 C501 C 0.17639 0.18036 0.18105
 N502 N 0.15849 0.19152 0.16414
 C503 C 0.12729 0.13421 0.13368
 C504 C 0.11326 0.12066 0.11981
 C505 C 0.09671 0.10439 0.10328
 N506 N 0.09743 0.10630 0.07574
 N507 N 0.08233 0.09094 0.06038
 C508 C 0.06595 0.07309 0.07199
 N509 N 0.06531 0.07131 0.09963
 N510 N 0.08041 0.08667 0.11500
 N511 N 0.14283 0.67674 0.64934
 C512 C 0.14440 0.65023 0.65054
 N513 N 0.16218 0.63902 0.66739
 N514 N 0.17793 0.65388 0.68257
 C515 C 0.17649 0.68049 0.68147
 N516 N 0.15859 0.69160 0.66454
 C517 C 0.12760 0.63419 0.63403
 C518 C 0.11363 0.62059 0.62015
 C519 C 0.09716 0.60425 0.60361
 N520 N 0.09793 0.60614 0.57607
 N521 N 0.08289 0.59072 0.56070
 C522 C 0.06654 0.57285 0.57229
 N523 N 0.06585 0.57109 0.59993
 N524 N 0.08089 0.58650 0.61531
 N525 N 0.64350 0.17621 0.64985
 C526 C 0.64501 0.14969 0.65101
 N527 N 0.66277 0.13843 0.66784
 N528 N 0.67855 0.15323 0.68305
 C529 C 0.67717 0.17984 0.68199
 N530 N 0.65929 0.19101 0.66507
 C531 C 0.62819 0.13372 0.63447
 C532 C 0.61418 0.12018 0.62055
 C533 C 0.59768 0.10393 0.60395
 N534 N 0.59848 0.10588 0.57642
 N535 N 0.58340 0.09055 0.56100
 C536 C 0.56698 0.07270 0.57253
 N537 N 0.56627 0.07088 0.60017
 N538 N 0.58134 0.08621 0.61560
 N539 N 0.66282 0.63918 0.16704
 C540 C 0.64501 0.65035 0.15021
 N541 N 0.64344 0.67686 0.14896
 N542 N 0.65923 0.69174 0.16410
 C543 C 0.67715 0.68066 0.18103
 N544 N 0.67859 0.65406 0.18217
 C545 C 0.62819 0.63429 0.13375
 C546 C 0.61419 0.62068 0.11990
 C547 C 0.59770 0.60434 0.10339
 N548 N 0.58143 0.58660 0.11512
 N549 N 0.56637 0.57119 0.09976
 C550 C 0.56703 0.57294 0.07212
 N551 N 0.58338 0.59080 0.06050
 N552 N 0.59844 0.60621 0.07585
   
