data_POSCAR
  _audit_creation_date              2014-09-24
  _audit_creation_method            'ToBaCCo'
  _symmetry_space_group_name_H-M    'P1'
  _symmetry_Int_Tables_number       1
  _symmetry_cell_setting            triclinic
  loop_
  _symmetry_equiv_pos_as_xyz
 x,y,z
_cell_length_a 20.9070
_cell_length_b 20.9927
_cell_length_c 23.3882
_cell_angle_alpha 89.997100
_cell_angle_beta 90.243600
_cell_angle_gamma 120.142800
loop_
  _atom_site_label
  _atom_site_type_symbol
  _atom_site_fract_x
  _atom_site_fract_y
  _atom_site_fract_z
O1 O 0.34888 0.55515 0.29751
 O2 O 0.22720 0.55794 0.31440
 C3 C 0.19420 0.59314 0.32521
 O4 O 0.20406 0.64917 0.29721
 O5 O 0.32891 0.77065 0.31466
 C6 C 0.39745 0.80376 0.32572
 O7 O 0.44379 0.79386 0.29792
 O8 O 0.44069 0.66967 0.31503
 C9 C 0.40528 0.60142 0.32570
 O10 O 0.32879 0.55820 0.18359
 O11 O 0.20390 0.55467 0.20045
 C12 C 0.19377 0.60066 0.17237
 O13 O 0.22690 0.66891 0.18334
 O14 O 0.34861 0.79348 0.20083
 C15 C 0.40505 0.80370 0.17307
 O16 O 0.44054 0.77095 0.18402
 O17 O 0.44370 0.64988 0.20115
 C18 C 0.39731 0.59364 0.17301
 Cr19 Cr 0.27925 0.56060 0.24899
 Cr20 Cr 0.27918 0.71850 0.24901
 Cr21 Cr 0.43805 0.71902 0.24952
 O22 O 0.33217 0.66605 0.24918
 O23 O 0.55875 0.33005 0.68455
 O24 O 0.55561 0.20585 0.70166
 C25 C 0.60193 0.19594 0.67385
 O26 O 0.67046 0.22902 0.68490
 O27 O 0.79534 0.35047 0.70234
 C28 C 0.80526 0.40654 0.67437
 O29 O 0.77231 0.44178 0.68521
 O30 O 0.65062 0.44458 0.70202
 C31 C 0.59418 0.39830 0.67386
 O32 O 0.55573 0.34983 0.79844
 O33 O 0.55887 0.22876 0.81555
 C34 C 0.59436 0.19600 0.82650
 O35 O 0.65080 0.20620 0.79874
 O36 O 0.77257 0.33075 0.81620
 C37 C 0.80563 0.39899 0.82716
 O38 O 0.79552 0.44505 0.79917
 O39 O 0.67064 0.44155 0.81596
 C40 C 0.60211 0.40610 0.82655
 Cr41 Cr 0.56138 0.28069 0.75007
 Cr42 Cr 0.72023 0.28116 0.75054
 Cr43 Cr 0.72021 0.43912 0.75058
 O44 O 0.66727 0.33366 0.75041
 C45 C 0.47507 -0.04708 0.45794
 C46 C 0.47442 0.02430 0.44509
 C47 C 0.50028 0.07367 0.48907
 C48 C 0.52427 0.04682 0.54160
 C49 C 0.58115 0.02732 0.51897
 C50 C 0.55529 -0.02205 0.47499
 C51 C 0.43051 -0.07669 0.51326
 C52 C 0.45638 -0.02732 0.55724
 C53 C 0.44726 -0.10024 0.41062
 C54 C 0.42446 -0.14402 0.37179
 C55 C 0.55209 0.09997 0.58892
 C56 C 0.57490 0.14373 0.62776
 H57 H 0.45532 0.03512 0.40498
 H58 H 0.50334 0.12678 0.48664
 H59 H 0.63684 0.05026 0.53598
 H60 H 0.58882 -0.04140 0.45433
 H61 H 0.38284 -0.13159 0.51751
 H62 H 0.43086 -0.03994 0.59917
 C63 C 1.04620 0.52200 0.45778
 C64 C 1.02983 0.58110 0.48009
 C65 C 0.98098 0.55780 0.52427
 C66 C 0.95329 0.47768 0.54182
 C67 C 1.02357 0.47423 0.55460
 C68 C 1.07242 0.49753 0.51042
 C69 C 0.97026 0.45583 0.44261
 C70 C 0.92141 0.43253 0.48679
 C71 C 1.09882 0.54713 0.41026
 C72 C 1.14224 0.56799 0.37132
 C73 C 0.90066 0.45255 0.58934
 C74 C 0.85723 0.43169 0.62827
 H75 H 1.05444 0.63638 0.46272
 H76 H 0.96375 0.59312 0.54475
 H77 H 1.03405 0.45518 0.59481
 H78 H 1.12474 0.49843 0.51279
 H79 H 0.95610 0.42959 0.40085
 H80 H 0.86541 0.38633 0.48288
 C81 C 0.47727 0.52432 0.45795
 C82 C 0.47620 0.45234 0.44395
 C83 C 0.49981 0.42661 0.48793
 C84 C 0.52217 0.47537 0.54161
 C85 C 0.45420 0.48193 0.55626
 C86 C 0.43059 0.50766 0.51227
 C87 C 0.55695 0.57813 0.47713
 C88 C 0.58056 0.55239 0.52111
 C89 C 0.45182 0.55199 0.41062
 C90 C 0.43071 0.57464 0.37179
 C91 C 0.54763 0.44770 0.58893
 C92 C 0.56875 0.42507 0.62777
 H93 H 0.45847 0.42408 0.40309
 H94 H 0.50230 0.37630 0.48476
 H95 H 0.42701 0.46762 0.59754
 H96 H 0.38318 0.51540 0.51588
 H97 H 0.59177 0.63172 0.45787
 H98 H 0.63561 0.58394 0.53953
 C99 C 0.47715 -0.04712 1.04142
 C100 C 0.55891 -0.01612 1.02643
 C101 C 0.58262 0.03328 0.98265
 C102 C 0.52225 0.04684 0.95817
 C103 C 0.49343 0.07016 1.00967
 C104 C 0.46971 0.02076 1.05345
 C105 C 0.43490 -0.07916 0.98517
 C106 C 0.45862 -0.02976 0.94140
 C107 C 0.45159 -0.10031 1.08852
 C108 C 0.43044 -0.14409 1.12718
 C109 C 0.54782 0.10002 0.91106
 C110 C 0.56896 0.14380 0.87240
 H111 H 0.59500 -0.03160 1.04826
 H112 H 0.63903 0.06011 0.96699
 H113 H 0.49179 0.12100 1.01160
 H114 H 0.44776 0.02929 1.09287
 H115 H 0.39029 -0.13567 0.98016
 H116 H 0.43432 -0.04395 0.89890
 C117 C 1.04913 0.52560 1.04388
 C118 C 1.07601 0.50109 0.99186
 C119 C 1.02658 0.47528 0.94769
 C120 C 0.95512 0.47650 0.95987
 C121 C 0.98065 0.55660 0.97629
 C122 C 1.03008 0.58242 1.02046
 C123 C 0.97443 0.45837 1.05955
 C124 C 0.92500 0.43256 1.01538
 C125 C 1.10236 0.55337 1.09140
 C126 C 1.14623 0.57614 1.13038
 C127 C 0.90188 0.44874 0.91235
 C128 C 0.85801 0.42597 0.87338
 H129 H 1.12919 0.50378 0.98989
 H130 H 1.03742 0.45585 0.90789
 H131 H 0.96159 0.59010 0.95510
 H132 H 1.05336 0.63802 1.03710
 H133 H 0.96149 0.43325 1.10163
 H134 H 0.86972 0.38532 1.01963
 C135 C 0.47501 0.52217 1.04138
 C136 C 0.55483 0.57793 1.02438
 C137 C 0.58078 0.55447 0.98063
 C138 C 0.52438 0.47755 0.95817
 C139 C 0.45575 0.48257 0.94221
 C140 C 0.42979 0.50603 0.98596
 C141 C 0.47554 0.45081 1.05461
 C142 C 0.50150 0.42735 1.01086
 C143 C 0.44711 0.54746 1.08846
 C144 C 0.42428 0.56842 1.12711
 C145 C 0.55230 0.45227 0.91109
 C146 C 0.57513 0.43131 0.87245
 H147 H 0.58803 0.63116 1.04489
 H148 H 0.63622 0.58760 0.96367
 H149 H 0.42982 0.46890 0.90025
 H150 H 0.38162 0.51245 0.98147
 H151 H 0.45714 0.42130 1.09480
 H152 H 0.50534 0.37775 1.01357
   
