data_POSCAR
  _audit_creation_date              2014-09-24
  _audit_creation_method            'ToBaCCo'
  _symmetry_space_group_name_H-M    'P1'
  _symmetry_Int_Tables_number       1
  _symmetry_cell_setting            triclinic
  loop_
  _symmetry_equiv_pos_as_xyz
 x,y,z
_cell_length_a 23.7738
_cell_length_b 23.7831
_cell_length_c 23.8644
_cell_angle_alpha 90.074800
_cell_angle_beta 90.134600
_cell_angle_gamma 89.983200
loop_
  _atom_site_label
  _atom_site_type_symbol
  _atom_site_fract_x
  _atom_site_fract_y
  _atom_site_fract_z
O1 O 0.44788 0.95255 -0.55788
 O2 O 0.55102 0.94954 -0.44298
 O3 O 0.44164 0.95225 -0.44876
 O4 O 0.55719 0.95019 -0.55194
 O5 O 0.55321 1.04284 -0.55661
 O6 O 0.44941 1.04458 -0.44289
 O7 O 0.55879 1.04173 -0.44764
 O8 O 0.44394 1.04514 -0.55181
 Cu9 Cu 0.49919 0.94177 -0.50043
 Cu10 Cu 0.50156 1.05293 -0.49963
 C11 C 0.42747 0.99927 -0.57367
 C12 C 0.57374 0.99500 -0.42641
 C13 C 0.42687 0.99886 -0.42722
 C14 C 0.57378 0.99637 -0.57293
 O15 O -0.56195 1.44972 0.05128
 O16 O -0.44277 1.54816 0.05133
 O17 O -0.55205 1.55841 0.05107
 O18 O -0.45323 1.43925 0.04999
 O19 O -0.44787 1.44530 -0.04222
 O20 O -0.55788 1.55411 -0.04099
 O21 O -0.44855 1.55458 -0.04083
 O22 O -0.55751 1.44428 -0.04078
 Cu23 Cu -0.50241 1.49893 0.06023
 Cu24 Cu -0.50311 1.49958 -0.05055
 C25 C -0.57933 1.42887 0.00535
 C26 C -0.42615 1.56910 0.00535
 C27 C -0.57302 1.57594 0.00523
 C28 C -0.43274 1.42288 0.00365
 O29 O -0.04882 0.44876 0.44447
 O30 O -0.04289 0.55999 0.55193
 O31 O -0.04171 0.55672 0.44314
 O32 O -0.05149 0.45020 0.55432
 O33 O 0.04083 0.44003 0.55332
 O34 O 0.05099 0.55341 0.44864
 O35 O 0.04893 0.54898 0.55822
 O36 O 0.04393 0.44342 0.44539
 Cu37 Cu -0.05556 0.50449 0.49855
 Cu38 Cu 0.05551 0.49603 0.50156
 C39 C -0.00334 0.42766 0.42611
 C40 C 0.00402 0.57324 0.57402
 C41 C 0.00630 0.57357 0.42726
 C42 C -0.00714 0.42616 0.57202
 O43 O -0.14585 0.99306 -0.07564
 O44 O 0.14327 1.00381 -0.07733
 O45 O -0.00539 1.07338 -0.14628
 O46 O 0.00150 0.92147 -0.14438
 O47 O 0.00791 0.85397 -0.07509
 O48 O -0.01066 1.14256 -0.07853
 O49 O 0.07460 0.99739 -0.14554
 O50 O -0.07797 0.99778 -0.14458
 Zr51 Zr -0.00137 0.99806 -0.09963
 O52 O 0.05220 0.94991 -0.05153
 O53 O -0.05447 1.04727 -0.05215
 C54 C -0.12965 0.99537 -0.12744
 C55 C 0.12657 1.00041 -0.12900
 C56 C -0.00975 1.12536 -0.13018
 C57 C 0.00598 0.86996 -0.12705
 H58 H 0.07004 1.07659 -0.07669
 O59 O 0.04725 1.05181 -0.05248
 H60 H -0.07256 0.92045 -0.07411
 O61 O -0.04939 0.94571 -0.05061
 O62 O 0.14457 1.00732 0.07352
 O63 O -0.14424 0.99276 0.07577
 O64 O 0.06838 1.14738 0.00019
 O65 O 0.08184 0.85827 -0.00136
 O66 O -0.07025 0.85133 0.00330
 O67 O -0.08365 1.14011 -0.00466
 O68 O -0.00010 1.07786 0.14223
 O69 O 0.00419 0.92563 0.14460
 O70 O -0.00670 1.14516 0.07288
 O71 O 0.00402 0.85599 0.07703
 O72 O 0.14017 1.08191 -0.00116
 O73 O -0.14888 1.06842 -0.00192
 O74 O -0.14173 0.91697 0.00172
 O75 O 0.14730 0.93007 -0.00207
 O76 O 0.07701 1.00693 0.14280
 O77 O -0.07535 0.99533 0.14411
 Zr78 Zr 0.09796 1.00387 -0.00159
 Zr79 Zr -0.09933 0.99481 -0.00024
 Zr80 Zr -0.00545 1.09812 -0.00212
 Zr81 Zr 0.00373 0.90047 0.00034
 Zr82 Zr 0.00037 1.00082 0.09793
 O83 O -0.04887 0.94675 0.05114
 O84 O 0.04840 1.05347 0.04905
 C85 C 0.12876 1.00810 0.12550
 C86 C -0.12739 0.99315 0.12753
 C87 C 0.12100 1.13295 0.00035
 C88 C 0.13289 0.87748 -0.00200
 C89 C -0.12293 0.86577 0.00325
 C90 C -0.13482 1.12109 -0.00399
 C91 C -0.00334 1.12949 0.12485
 C92 C 0.00453 0.87345 0.12864
 H93 H -0.07811 1.07154 0.07329
 O94 O -0.05321 1.04836 0.04952
 H95 H 0.07787 0.92909 0.07383
 O96 O 0.05260 0.95172 0.04988
 C97 C 0.30329 1.00065 0.29520
 C98 C 0.29792 1.03731 0.34167
 C99 C 0.33943 1.03784 0.38373
 C100 C 0.38464 1.00001 0.38167
 C101 C 0.38837 0.96187 0.33710
 C102 C 0.34858 0.96242 0.29406
 C103 C 0.25949 1.00290 0.25008
 C104 C 0.26488 0.97356 0.19907
 C105 C 0.22266 0.97639 0.15854
 C106 C 0.17368 1.00770 0.16813
 C107 C 0.16816 1.03787 0.21833
 C108 C 0.21139 1.03694 0.25863
 C109 C 0.25046 1.07193 0.34656
 C110 C 0.20743 1.07066 0.30665
 H111 H 0.24588 1.09950 0.38246
 H112 H 0.17101 1.09730 0.31296
 H113 H 0.33569 1.06642 0.41897
 H114 H 0.42273 0.93200 0.33514
 H115 H 0.22788 0.95308 0.11986
 H116 H 0.13084 1.06301 0.22540
 H117 H 0.35350 0.93199 0.26088
 H118 H 0.30162 0.94883 0.18934
 C119 C -0.30118 0.99800 0.29722
 C120 C -0.29698 0.95902 0.34181
 C121 C -0.33877 0.95749 0.38343
 C122 C -0.38313 0.99641 0.38279
 C123 C -0.38568 1.03663 0.34006
 C124 C -0.34560 1.03724 0.29752
 C125 C -0.25720 0.99688 0.25243
 C126 C -0.26160 1.02892 0.20304
 C127 C -0.21948 1.02682 0.16261
 C128 C -0.17155 0.99355 0.17066
 C129 C -0.16685 0.96080 0.21926
 C130 C -0.21008 0.96109 0.25945
 C131 C -0.25043 0.92298 0.34527
 C132 C -0.20725 0.92496 0.30573
 H133 H -0.24674 0.89357 0.37974
 H134 H -0.17162 0.89699 0.31086
 H135 H -0.33590 0.92721 0.41725
 H136 H -0.41933 1.06736 0.33917
 H137 H -0.22396 1.05204 0.12515
 H138 H -0.13037 0.93398 0.22492
 H139 H -0.34964 1.06932 0.26588
 H140 H -0.29756 1.05519 0.19438
 C141 C -0.30167 0.98978 -0.29895
 C142 C -0.31108 1.03984 -0.32953
 C143 C -0.35328 1.04177 -0.37081
 C144 C -0.38463 0.99343 -0.38451
 C145 C -0.37300 0.94312 -0.35578
 C146 C -0.33258 0.94138 -0.31335
 C147 C -0.25800 0.99010 -0.25360
 C148 C -0.25040 0.94485 -0.21620
 C149 C -0.20893 0.94711 -0.17478
 C150 C -0.17364 0.99393 -0.17044
 C151 C -0.18105 1.03953 -0.20671
 C152 C -0.22395 1.03857 -0.24726
 C153 C -0.27741 1.08721 -0.31969
 C154 C -0.23387 1.08612 -0.28040
 H155 H -0.28407 1.12539 -0.34354
 H156 H -0.20831 1.12349 -0.27510
 H157 H -0.36053 1.08072 -0.39328
 H158 H -0.39576 0.90484 -0.36545
 H159 H -0.20380 0.91187 -0.14650
 H160 H -0.15433 1.07625 -0.20229
 H161 H -0.32557 0.90153 -0.29296
 H162 H -0.27655 0.90781 -0.21766
 C163 C 0.30067 1.00411 -0.29843
 C164 C 0.29766 0.96310 -0.34140
 C165 C 0.33971 0.96063 -0.38266
 C166 C 0.38340 1.00026 -0.38326
 C167 C 0.38491 1.04227 -0.34208
 C168 C 0.34441 1.04404 -0.29994
 C169 C 0.25636 1.00401 -0.25391
 C170 C 0.25931 1.03865 -0.20604
 C171 C 0.21715 1.03694 -0.16559
 C172 C 0.17059 1.00148 -0.17224
 C173 C 0.16722 0.96646 -0.21943
 C174 C 0.21046 0.96645 -0.25952
 C175 C 0.25211 0.92577 -0.34358
 C176 C 0.20883 0.92823 -0.30422
 H177 H 0.24937 0.89477 -0.37680
 H178 H 0.17407 0.89900 -0.30824
 H179 H 0.33763 0.92885 -0.41523
 H180 H 0.41803 1.07355 -0.34207
 H181 H 0.22063 1.06395 -0.12915
 H182 H 0.13185 0.93801 -0.22394
 H183 H 0.34768 1.07746 -0.26952
 H184 H 0.29422 1.06663 -0.19853
 C185 C 0.29047 1.30695 0.00762
 C186 C 0.32136 1.31679 -0.04200
 C187 C 0.36325 1.35844 -0.04305
 C188 C 0.37744 1.38856 0.00579
 C189 C 0.34817 1.37670 0.05556
 C190 C 0.30501 1.33698 0.05640
 C191 C 0.24494 1.26343 0.00657
 C192 C 0.20739 1.25520 0.05151
 C193 C 0.16635 1.21328 0.04885
 C194 C 0.16259 1.17827 0.00190
 C195 C 0.19868 1.18664 -0.04355
 C196 C 0.23885 1.22988 -0.04214
 C197 C 0.31146 1.28386 -0.08976
 C198 C 0.27208 1.24039 -0.08936
 H199 H 0.33552 1.29088 -0.12763
 H200 H 0.26692 1.21522 -0.12692
 H201 H 0.38609 1.36591 -0.08162
 H202 H 0.35811 1.39861 0.09417
 H203 H 0.13807 1.20748 0.08392
 H204 H 0.19463 1.16015 -0.08038
 H205 H 0.28433 1.32964 0.09590
 H206 H 0.20860 1.28103 0.08868
 C207 C 0.30586 0.70705 0.00707
 C208 C 0.31912 0.67907 -0.04357
 C209 C 0.35995 0.63639 -0.04410
 C210 C 0.38692 0.61944 0.00568
 C211 C 0.37251 0.64654 0.05604
 C212 C 0.33287 0.68981 0.05676
 C213 C 0.26257 0.75288 0.00570
 C214 C 0.24911 0.78583 0.05302
 C215 C 0.20745 0.82705 0.04987
 C216 C 0.17826 0.83605 -0.00020
 C217 C 0.19187 0.80473 -0.04787
 C218 C 0.23428 0.76370 -0.04550
 C219 C 0.29080 0.69302 -0.09320
 C220 C 0.24871 0.73384 -0.09397
 H221 H 0.30068 0.67138 -0.13195
 H222 H 0.22740 0.74244 -0.13325
 H223 H 0.36979 0.61567 -0.08338
 H224 H 0.39207 0.63457 0.09531
 H225 H 0.19730 0.85144 0.08688
 H226 H 0.16972 0.81272 -0.08680
 H227 H 0.32353 0.70863 0.09679
 H228 H 0.27022 0.78062 0.09270
 C229 C -0.29273 0.69095 0.00698
 C230 C -0.33932 0.69759 -0.02951
 C231 C -0.38190 0.65671 -0.03101
 C232 C -0.38040 0.61078 0.00567
 C233 C -0.33564 0.60555 0.04358
 C234 C -0.29195 0.64477 0.04393
 C235 C -0.24725 0.73453 0.00597
 C236 C -0.19600 0.72838 0.03517
 C237 C -0.15525 0.77062 0.03342
 C238 C -0.16514 0.82040 0.00369
 C239 C -0.21545 0.82644 -0.02651
 C240 C -0.25575 0.78336 -0.02681
 C241 C -0.34395 0.74572 -0.06297
 C242 C -0.30376 0.78836 -0.06058
 H243 H -0.37990 0.75116 -0.09044
 H244 H -0.30987 0.82537 -0.08634
 H245 H -0.41726 0.66158 -0.05940
 H246 H -0.33413 0.57056 0.07257
 H247 H -0.11623 0.76471 0.05605
 H248 H -0.22259 0.86421 -0.05092
 H249 H -0.25860 0.63882 0.07408
 H250 H -0.18628 0.69099 0.05886
 C251 C -0.31056 1.28997 0.00192
 C252 C -0.30280 1.33848 -0.03150
 C253 C -0.34377 1.38099 -0.03193
 C254 C -0.39083 1.37745 0.00310
 C255 C -0.39711 1.33086 0.03831
 C256 C -0.35782 1.28723 0.03738
 C257 C -0.26694 1.24462 -0.00039
 C258 C -0.27414 1.19178 0.02523
 C259 C -0.23169 1.15130 0.02278
 C260 C -0.18069 1.16289 -0.00421
 C261 C -0.17363 1.21487 -0.03092
 C262 C -0.21689 1.25502 -0.03063
 C263 C -0.25350 1.34503 -0.06286
 C264 C -0.21078 1.30487 -0.06121
 H265 H -0.24721 1.38246 -0.08793
 H266 H -0.17281 1.31248 -0.08510
 H267 H -0.33816 1.41781 -0.05811
 H268 H -0.43300 1.32784 0.06604
 H269 H -0.23837 1.11117 0.04303
 H270 H -0.13477 1.22371 -0.05274
 H271 H -0.36458 1.25233 0.06540
 H272 H -0.31243 1.18070 0.04672
 C273 C -0.00844 1.30302 0.29551
 C274 C 0.03217 1.29945 0.33886
 C275 C 0.03427 1.34091 0.38076
 C276 C -0.00540 1.38453 0.38178
 C277 C -0.04728 1.38651 0.34045
 C278 C -0.04860 1.34660 0.29750
 C279 C -0.00771 1.25933 0.25022
 C280 C -0.04157 1.26286 0.20178
 C281 C -0.03946 1.22093 0.16084
 C282 C -0.00440 1.17408 0.16769
 C283 C 0.03000 1.17041 0.21529
 C284 C 0.02970 1.21331 0.25576
 C285 C 0.06952 1.25392 0.34081
 C286 C 0.06741 1.21109 0.30088
 H287 H 0.10018 1.25078 0.37435
 H288 H 0.09652 1.17624 0.30479
 H289 H 0.06591 1.33849 0.41349
 H290 H -0.07856 1.41965 0.34084
 H291 H -0.06603 1.22465 0.12408
 H292 H 0.05810 1.13485 0.22001
 H293 H -0.08175 1.35016 0.26677
 H294 H -0.06930 1.29799 0.19435
 C295 C -0.01682 1.29800 -0.30135
 C296 C 0.02399 1.29457 -0.34431
 C297 C 0.02730 1.33696 -0.38506
 C298 C -0.01119 1.38165 -0.38525
 C299 C -0.05348 1.38344 -0.34451
 C300 C -0.05610 1.34243 -0.30274
 C301 C -0.01678 1.25369 -0.25675
 C302 C -0.05063 1.25711 -0.20846
 C303 C -0.04811 1.21535 -0.16749
 C304 C -0.01281 1.16870 -0.17412
 C305 C 0.02103 1.16470 -0.22196
 C306 C 0.02043 1.20751 -0.26246
 C307 C 0.06064 1.24851 -0.34683
 C308 C 0.05804 1.20528 -0.30749
 H309 H 0.09139 1.24547 -0.38016
 H310 H 0.08690 1.17024 -0.31162
 H311 H 0.05923 1.33466 -0.41738
 H312 H -0.08395 1.41732 -0.34432
 H313 H -0.07415 1.21932 -0.13061
 H314 H 0.04943 1.12929 -0.22653
 H315 H -0.08939 1.34598 -0.27231
 H316 H -0.07837 1.29220 -0.20096
 C317 C 0.01077 0.69759 -0.29841
 C318 C -0.03843 0.69074 -0.33115
 C319 C -0.04095 0.64852 -0.37230
 C320 C 0.00626 0.61478 -0.38403
 C321 C 0.05603 0.62400 -0.35335
 C322 C 0.05812 0.66430 -0.31078
 C323 C 0.01078 0.74128 -0.25309
 C324 C 0.05435 0.74614 -0.21315
 C325 C 0.05228 0.78762 -0.17170
 C326 C 0.00761 0.82585 -0.17006
 C327 C -0.03633 0.82111 -0.20894
 C328 C -0.03588 0.77810 -0.24930
 C329 C -0.08426 0.72704 -0.32367
 C330 C -0.08239 0.77075 -0.28468
 H331 H -0.12171 0.72237 -0.34924
 H332 H -0.11847 0.79841 -0.28130
 H333 H -0.07935 0.64324 -0.39637
 H334 H 0.09347 0.59935 -0.36150
 H335 H 0.08600 0.79036 -0.14127
 H336 H -0.07166 0.84990 -0.20655
 H337 H 0.09744 0.66941 -0.28869
 H338 H 0.08972 0.71771 -0.21261
 C339 C 0.01300 0.70241 0.30123
 C340 C -0.02764 0.65903 0.29800
 C341 C -0.02981 0.61756 0.33970
 C342 C 0.00973 0.61692 0.38336
 C343 C 0.05192 0.65798 0.38489
 C344 C 0.05334 0.70061 0.34464
 C345 C 0.01180 0.74767 0.25758
 C346 C 0.04533 0.79646 0.26090
 C347 C 0.04233 0.83758 0.21924
 C348 C 0.00679 0.83047 0.17288
 C349 C -0.02708 0.78246 0.16933
 C350 C -0.02599 0.74188 0.21196
 C351 C -0.06519 0.65672 0.25273
 C352 C -0.06347 0.69651 0.20994
 H353 H -0.09582 0.62309 0.24987
 H354 H -0.09284 0.69241 0.17535
 H355 H -0.06168 0.58498 0.33763
 H356 H 0.08313 0.65780 0.41805
 H357 H 0.06851 0.87471 0.22280
 H358 H -0.05555 0.77763 0.13417
 H359 H 0.08655 0.73136 0.34788
 H360 H 0.07336 0.80404 0.29571
   
