data_POSCAR
  _audit_creation_date              2014-09-24
  _audit_creation_method            'ToBaCCo'
  _symmetry_space_group_name_H-M    'P1'
  _symmetry_Int_Tables_number       1
  _symmetry_cell_setting            triclinic
  loop_
  _symmetry_equiv_pos_as_xyz
 x,y,z
_cell_length_a 19.5295
_cell_length_b 19.5974
_cell_length_c 19.4679
_cell_angle_alpha 89.884200
_cell_angle_beta 89.978600
_cell_angle_gamma 90.026700
loop_
  _atom_site_label
  _atom_site_type_symbol
  _atom_site_fract_x
  _atom_site_fract_y
  _atom_site_fract_z
N1 N 0.57326 0.13817 0.03268
 N2 N 0.62151 0.17918 0.05610
 N3 N 0.42932 0.13775 -0.03442
 N4 N 0.38105 0.17840 -0.05857
 N5 N 0.42925 0.13801 0.03307
 N6 N 0.38098 0.17888 0.05670
 N7 N 0.57329 0.13759 -0.03480
 N8 N 0.62150 0.17821 -0.05917
 C9 C 0.65139 0.20305 -0.00182
 C10 C 0.35109 0.20297 -0.00110
 N11 N 0.42895 -0.03391 -0.13751
 N12 N 0.38011 -0.05786 -0.17768
 N13 N 0.57311 0.03279 -0.13876
 N14 N 0.62087 0.05599 -0.18090
 N15 N 0.57300 -0.03418 -0.13752
 N16 N 0.62358 -0.05912 -0.18126
 N17 N 0.42910 0.03310 -0.13814
 N18 N 0.38038 0.05666 -0.17872
 Mn19 Mn 0.50123 0.08582 -0.08704
 C20 C 0.35007 -0.00070 -0.20230
 C21 C 0.65151 -0.00084 -0.20580
 N22 N 0.42954 0.03445 0.13877
 N23 N 0.38077 0.05817 0.17921
 N24 N 0.57369 -0.03220 0.13915
 N25 N 0.62122 -0.05558 0.18138
 N26 N 0.57373 0.03479 0.13803
 N27 N 0.62423 0.05951 0.18205
 N28 N 0.42973 -0.03258 0.13925
 N29 N 0.38116 -0.05635 0.17995
 Mn30 Mn 0.50140 0.08686 0.08620
 C31 C 0.35087 0.00085 0.20383
 C32 C 0.65194 0.00109 0.20653
 N33 N 0.57300 -0.13728 -0.03242
 N34 N 0.62136 -0.17782 -0.05633
 N35 N 0.42942 -0.13714 0.03543
 N36 N 0.38122 -0.17791 0.05966
 N37 N 0.42912 -0.13724 -0.03204
 N38 N 0.38079 -0.17806 -0.05561
 N39 N 0.57343 -0.13684 0.03504
 N40 N 0.62208 -0.17716 0.05895
 Mn41 Mn 0.50096 -0.08613 -0.08540
 Mn42 Mn 0.50160 -0.08520 0.08773
 Cl43 Cl 0.50127 0.00036 0.00040
 C44 C 0.65175 -0.20160 0.00128
 C45 C 0.35109 -0.20232 0.00219
 N46 N 0.13854 0.42808 0.03274
 N47 N 0.17920 0.37963 0.05639
 N48 N 0.13930 0.57221 -0.03345
 N49 N 0.18010 0.62077 -0.05676
 N50 N 0.13898 0.57155 0.03402
 N51 N 0.17955 0.61959 0.05852
 N52 N 0.13871 0.42867 -0.03475
 N53 N 0.17955 0.38066 -0.05887
 C54 C 0.20371 0.35025 -0.00137
 C55 C 0.20414 0.65007 0.00125
 N56 N -0.03205 0.57404 -0.13891
 N57 N -0.05561 0.62186 -0.18060
 N58 N 0.03444 0.43021 -0.13982
 N59 N 0.05798 0.38153 -0.18027
 N60 N -0.03282 0.43059 -0.13991
 N61 N -0.05695 0.38224 -0.18034
 N62 N 0.03518 0.57392 -0.13824
 N63 N 0.05988 0.62462 -0.18207
 Mn64 Mn 0.08743 0.50122 -0.08714
 C65 C 0.00118 0.65260 -0.20592
 C66 C 0.00030 0.35192 -0.20453
 N67 N 0.03418 0.57088 0.13840
 N68 N 0.05782 0.61905 0.17941
 N69 N -0.03347 0.42755 0.13684
 N70 N -0.05766 0.37905 0.17728
 N71 N 0.03378 0.42735 0.13711
 N72 N 0.05726 0.37869 0.17773
 N73 N -0.03307 0.57096 0.13807
 N74 N -0.05710 0.61913 0.17876
 Mn75 Mn 0.08689 0.49947 0.08609
 C76 C 0.00021 0.64889 0.20351
 C77 C -0.00042 0.34877 0.20166
 N78 N -0.13736 0.42979 -0.03552
 N79 N -0.17792 0.38163 -0.05984
 N80 N -0.13687 0.57241 0.03322
 N81 N -0.17731 0.62057 0.05757
 N82 N -0.13664 0.57329 -0.03425
 N83 N -0.17698 0.62208 -0.05772
 N84 N -0.13736 0.42901 0.03195
 N85 N -0.17789 0.38035 0.05544
 Mn86 Mn -0.08523 0.50195 -0.08765
 Mn87 Mn -0.08569 0.49996 0.08551
 Cl88 Cl 0.00089 0.50064 -0.00081
 C89 C -0.20213 0.35104 -0.00242
 C90 C -0.20123 0.65133 0.00022
 N91 N 0.03193 0.13658 0.42813
 N92 N 0.05591 0.17711 0.37951
 N93 N -0.03536 0.13691 0.57246
 N94 N -0.05899 0.17827 0.62042
 N95 N 0.03190 0.13667 0.57248
 N96 N 0.05591 0.17780 0.62038
 N97 N -0.03533 0.13657 0.42799
 N98 N -0.05902 0.17715 0.37928
 C99 C -0.00145 0.20132 0.34926
 C100 C -0.00138 0.20262 0.65015
 N101 N -0.14003 -0.03413 0.57301
 N102 N -0.18123 -0.05759 0.62141
 N103 N -0.13989 0.03258 0.42829
 N104 N -0.18095 0.05626 0.37994
 N105 N -0.13997 -0.03446 0.42852
 N106 N -0.18109 -0.05824 0.38032
 N107 N -0.13988 0.03292 0.57270
 N108 N -0.18091 0.05692 0.62083
 Mn109 Mn -0.08812 0.08524 0.50035
 C110 C -0.20561 -0.00015 0.65103
 C111 C -0.20557 -0.00101 0.35020
 N112 N 0.13606 0.03269 0.57281
 N113 N 0.17700 0.05643 0.62115
 N114 N 0.13623 -0.03424 0.42849
 N115 N 0.17744 -0.05778 0.38025
 N116 N 0.13613 0.03278 0.42844
 N117 N 0.17719 0.05673 0.38021
 N118 N 0.13604 -0.03433 0.57294
 N119 N 0.17693 -0.05810 0.62136
 Mn120 Mn 0.08448 0.08515 0.50048
 C121 C 0.20135 -0.00085 0.65124
 C122 C 0.20184 -0.00037 0.35031
 N123 N -0.03544 -0.13854 0.42884
 N124 N -0.05904 -0.17946 0.38050
 N125 N 0.03173 -0.13837 0.57321
 N126 N 0.05565 -0.17952 0.62133
 N127 N -0.03555 -0.13842 0.57336
 N128 N -0.05925 -0.17967 0.62157
 N129 N 0.03184 -0.13829 0.42884
 N130 N 0.05587 -0.17898 0.38057
 Mn131 Mn -0.08827 -0.08691 0.50095
 Mn132 Mn 0.08444 -0.08680 0.50086
 Cl133 Cl -0.00191 -0.00085 0.50068
 C134 C -0.00142 -0.20357 0.35060
 C135 C -0.00171 -0.20418 0.65134
 C136 C -0.29563 0.25377 -0.00240
 C137 C -0.25230 0.29756 -0.00266
 C138 C 0.29797 0.74707 0.00233
 C139 C 0.25450 0.70340 0.00196
 C140 C 0.29784 0.25349 -0.00141
 C141 C 0.25425 0.29705 -0.00152
 C142 C -0.29500 0.74811 0.00115
 C143 C -0.25149 0.70459 0.00076
 C144 C -0.00028 -0.29783 0.25395
 C145 C -0.00093 -0.25418 0.29745
 C146 C -0.00025 0.29805 0.74566
 C147 C -0.00090 0.25386 0.70269
 C148 C -0.00086 0.29539 0.25213
 C149 C -0.00121 0.25176 0.29580
 C150 C -0.00039 -0.29908 0.74794
 C151 C -0.00135 -0.25519 0.70442
 C152 C 0.29628 -0.00088 0.74760
 C153 C 0.25227 -0.00089 0.70427
 C154 C -0.30000 -0.00027 0.25301
 C155 C -0.25634 -0.00092 0.29683
 C156 C 0.29703 0.00060 0.25401
 C157 C 0.25294 0.00007 0.29733
 C158 C -0.30027 0.00015 0.74791
 C159 C -0.25648 0.00023 0.70425
   
