data_POSCAR
  _audit_creation_date              2014-09-24
  _audit_creation_method            'ToBaCCo'
  _symmetry_space_group_name_H-M    'P1'
  _symmetry_Int_Tables_number       1
  _symmetry_cell_setting            triclinic
  loop_
  _symmetry_equiv_pos_as_xyz
 x,y,z
_cell_length_a 38.0463
_cell_length_b 42.6593
_cell_length_c 49.0028
_cell_angle_alpha 90.710800
_cell_angle_beta 89.702100
_cell_angle_gamma 89.910200
loop_
  _atom_site_label
  _atom_site_type_symbol
  _atom_site_fract_x
  _atom_site_fract_y
  _atom_site_fract_z
B1 B 0.27071 0.23723 0.27555
 B2 B 0.22984 0.22551 0.26811
 B3 B 0.23707 0.26229 0.27896
 B4 B 0.27569 0.27477 0.26589
 B5 B 0.29206 0.24463 0.24630
 B6 B 0.26344 0.21389 0.24801
 B7 B 0.22927 0.26282 0.22450
 B8 B 0.27014 0.27454 0.23194
 B9 B 0.26290 0.23776 0.22109
 B10 B 0.22429 0.22528 0.23416
 B11 B 0.20792 0.25542 0.25375
 B12 B 0.23654 0.28616 0.25204
 B13 B 0.73513 0.76557 0.22326
 B14 B 0.73093 0.72718 0.22937
 B15 B 0.77054 0.74227 0.22249
 B16 B 0.77324 0.77840 0.23684
 B17 B 0.73393 0.78520 0.25306
 B18 B 0.70758 0.75326 0.24808
 B19 B 0.76491 0.73450 0.27669
 B20 B 0.76911 0.77288 0.27059
 B21 B 0.72950 0.75780 0.27747
 B22 B 0.72680 0.72167 0.26312
 B23 B 0.76611 0.71486 0.24689
 B24 B 0.79246 0.74681 0.25187
 B25 B 0.74115 0.22999 -0.22383
 B26 B 0.72786 0.26723 -0.22707
 B27 B 0.77064 0.25908 -0.22300
 B28 B 0.78017 0.22539 -0.23995
 B29 B 0.74199 0.21300 -0.25494
 B30 B 0.70946 0.23902 -0.24645
 B31 B 0.75894 0.26997 -0.27621
 B32 B 0.77224 0.23272 -0.27297
 B33 B 0.72946 0.24087 -0.27704
 B34 B 0.71993 0.27457 -0.26009
 B35 B 0.75811 0.28695 -0.24511
 B36 B 0.79064 0.26094 -0.25359
 B37 B 0.26326 0.76298 -0.22147
 B38 B 0.27172 0.72632 -0.23226
 B39 B 0.23062 0.73688 -0.22386
 B40 B 0.22379 0.77412 -0.23366
 B41 B 0.26200 0.78653 -0.24860
 B42 B 0.29191 0.75670 -0.24737
 B43 B 0.23681 0.73702 -0.27852
 B44 B 0.22834 0.77368 -0.26774
 B45 B 0.26945 0.76312 -0.27614
 B46 B 0.27628 0.72588 -0.26633
 B47 B 0.23807 0.71346 -0.25140
 B48 B 0.20815 0.74329 -0.25262
 B49 B 1.22943 1.25770 0.77748
 B50 B 1.26908 1.27273 0.77068
 B51 B 1.26479 1.23433 0.77668
 B52 B 1.22668 1.22161 0.76303
 B53 B 1.20755 1.25328 0.74806
 B54 B 1.23396 1.28517 0.75314
 B55 B 1.27054 1.24227 0.72250
 B56 B 1.23089 1.22723 0.72930
 B57 B 1.23518 1.26563 0.72330
 B58 B 1.27329 1.27836 0.73695
 B59 B 1.29241 1.24668 0.75192
 B60 B 1.26601 1.21479 0.74684
 B61 B 0.77072 0.73727 0.77557
 B62 B 0.72993 0.72543 0.76804
 B63 B 0.73698 0.76223 0.77893
 B64 B 0.77559 0.77483 0.76594
 B65 B 0.79214 0.74476 0.74637
 B66 B 0.76363 0.71393 0.74800
 B67 B 0.72935 0.76277 0.72445
 B68 B 0.77015 0.77461 0.73198
 B69 B 0.76309 0.73782 0.72109
 B70 B 0.72449 0.72522 0.73408
 B71 B 0.70794 0.75529 0.75365
 B72 B 0.73644 0.78611 0.75202
 B73 B 1.24141 0.73026 0.27642
 B74 B 1.22807 0.76746 0.27294
 B75 B 1.27089 0.75936 0.27680
 B76 B 1.28027 0.72550 0.26008
 B77 B 1.24195 0.71291 0.24546
 B78 B 1.20947 0.73899 0.25394
 B79 B 1.25861 0.76964 0.22358
 B80 B 1.27195 0.73243 0.22705
 B81 B 1.22913 0.74053 0.22320
 B82 B 1.21975 0.77439 0.23992
 B83 B 1.25807 0.78698 0.25454
 B84 B 1.29054 0.76090 0.24606
 B85 B 0.76943 1.26300 0.22382
 B86 B 0.72837 1.27366 0.23226
 B87 B 0.73672 1.23696 0.22153
 B88 B 0.77620 1.22578 0.23368
 B89 B 0.79195 1.25662 0.25256
 B90 B 0.76210 1.28650 0.25132
 B91 B 0.73067 1.23697 0.27620
 B92 B 0.77173 1.22631 0.26776
 B93 B 0.76337 1.26301 0.27849
 B94 B 0.72390 1.27419 0.26633
 B95 B 0.70815 1.24335 0.24746
 B96 B 0.73799 1.21347 0.24869
 N97 N 0.56189 1.03351 0.02934
 N98 N 0.58621 1.05478 0.03451
 N99 N 0.53703 0.96829 0.04915
 N100 N 0.54416 0.94790 0.06845
 N101 N 0.56165 0.96768 0.03025
 N102 N 0.58611 0.94690 0.03616
 N103 N 0.53729 1.03425 0.04825
 N104 N 0.54425 1.05608 0.06679
 C105 C 0.57465 1.06888 0.05775
 C106 C 0.57464 0.93451 0.05986
 N107 N 0.43684 0.96824 0.02957
 N108 N 0.41173 0.94804 0.03544
 N109 N 0.46129 1.03459 0.04778
 N110 N 0.45418 1.05674 0.06606
 N111 N 0.43726 1.03406 0.02863
 N112 N 0.41317 1.05577 0.03336
 N113 N 0.46084 0.96865 0.04876
 N114 N 0.45259 0.94872 0.06821
 Mn115 Mn 0.49911 1.00144 0.04876
 C116 C 0.42213 0.93577 0.05940
 C117 C 0.42428 1.06992 0.05661
 N118 N 0.56249 0.96581 -0.02854
 N119 N 0.58658 0.94409 -0.03327
 N120 N 0.53888 1.03122 -0.04867
 N121 N 0.54708 1.05116 -0.06811
 N122 N 0.56289 1.03164 -0.02949
 N123 N 0.58799 1.05185 -0.03537
 N124 N 0.53845 0.96527 -0.04768
 N125 N 0.54556 0.94312 -0.06596
 Mn126 Mn 0.56249 0.99967 0.00039
 C127 C 0.57545 0.92995 -0.05651
 C128 C 0.57754 1.06412 -0.05933
 N129 N 0.43809 1.03219 -0.03016
 N130 N 0.41361 1.05296 -0.03608
 N131 N 0.46246 0.96562 -0.04814
 N132 N 0.45553 0.94374 -0.06666
 N133 N 0.43786 0.96635 -0.02924
 N134 N 0.41356 0.94506 -0.03437
 N135 N 0.46270 1.03157 -0.04906
 N136 N 0.45556 1.05194 -0.06837
 Mn137 Mn 0.43725 1.00021 -0.00030
 Mn138 Mn 0.50063 0.99842 -0.04866
 Cl139 Cl 0.49987 0.99994 0.00005
 C140 C 0.42507 1.06533 -0.05979
 C141 C 0.42515 0.93093 -0.05759
 N142 N 1.06215 0.53367 0.52924
 N143 N 1.08646 0.55495 0.53437
 N144 N 1.03728 0.46847 0.54907
 N145 N 1.04443 0.44813 0.56839
 N146 N 1.06189 0.46784 0.53016
 N147 N 1.08637 0.44708 0.53610
 N148 N 1.03754 0.53442 0.54814
 N149 N 1.04450 0.55628 0.56666
 C150 C 1.07489 0.56908 0.55760
 C151 C 1.07492 0.43473 0.55982
 N152 N 0.93708 0.46844 0.52951
 N153 N 0.91200 0.44822 0.53539
 N154 N 0.96156 0.53479 0.54769
 N155 N 0.95445 0.55693 0.56598
 N156 N 0.93752 0.53426 0.52855
 N157 N 0.91342 0.55597 0.53329
 N158 N 0.96111 0.46885 0.54868
 N159 N 0.95292 0.44890 0.56812
 Mn160 Mn 0.99937 0.50163 0.54867
 C161 C 0.92246 0.43593 0.55933
 C162 C 0.92455 0.57011 0.55654
 N163 N 1.06268 0.46596 0.47138
 N164 N 1.08675 0.44423 0.46665
 N165 N 1.03913 0.53138 0.45124
 N166 N 1.04736 0.55133 0.43180
 N167 N 1.06313 0.53178 0.47042
 N168 N 1.08823 0.55199 0.46457
 N169 N 1.03864 0.46544 0.45223
 N170 N 1.04574 0.44328 0.43395
 Mn171 Mn 1.06272 0.49981 0.50030
 C172 C 1.07563 0.43009 0.44341
 C173 C 1.07782 0.56428 0.44062
 N174 N 0.93832 0.53238 0.46977
 N175 N 0.91386 0.55317 0.46385
 N176 N 0.96266 0.46581 0.45178
 N177 N 0.95572 0.44395 0.43326
 N178 N 0.93806 0.46655 0.47068
 N179 N 0.91376 0.44526 0.46555
 N180 N 0.96294 0.53177 0.45086
 N181 N 0.95581 0.55215 0.43156
 Mn182 Mn 0.93748 0.50041 0.49963
 Mn183 Mn 1.00085 0.49860 0.45125
 Cl184 Cl 1.00010 0.50011 0.49996
 C185 C 0.92533 0.56555 0.44015
 C186 C 0.92533 0.43114 0.44232
 N187 N 1.06219 0.53339 0.02961
 N188 N 1.08556 0.55562 0.03472
 N189 N 1.03679 0.46795 0.04878
 N190 N 1.04250 0.44663 0.06755
 N191 N 1.06186 0.46728 0.03024
 N192 N 1.08537 0.44548 0.03600
 N193 N 1.03708 0.53397 0.04812
 N194 N 1.04259 0.55659 0.06620
 C195 C 1.07275 0.57003 0.05751
 C196 C 1.07271 0.43262 0.05922
 N197 N 0.93650 0.46803 0.02943
 N198 N 0.91279 0.44624 0.03473
 N199 N 0.96134 0.53443 0.04764
 N200 N 0.95551 0.55717 0.06561
 N201 N 0.93689 0.53415 0.02881
 N202 N 0.91365 0.55672 0.03358
 N203 N 0.96096 0.46840 0.04826
 N204 N 0.95465 0.44689 0.06677
 Mn205 Mn 0.99904 0.50118 0.04842
 C206 C 0.92470 0.43310 0.05798
 C207 C 0.92585 0.57101 0.05652
 N208 N 1.06285 0.46564 -0.02892
 N209 N 1.08608 0.44306 -0.03367
 N210 N 1.03878 0.53138 -0.04839
 N211 N 1.04514 0.55284 -0.06692
 N212 N 1.06323 0.53176 -0.02955
 N213 N 1.08697 0.55351 -0.03486
 N214 N 1.03839 0.46534 -0.04775
 N215 N 1.04422 0.44258 -0.06570
 Mn216 Mn 1.06294 0.49952 0.00035
 C217 C 1.07388 0.42874 -0.05660
 C218 C 1.07510 0.56662 -0.05814
 N219 N 0.93787 0.53249 -0.03036
 N220 N 0.91437 0.55431 -0.03610
 N221 N 0.96263 0.46580 -0.04823
 N222 N 0.95712 0.44317 -0.06630
 N223 N 0.93752 0.46639 -0.02971
 N224 N 0.91416 0.44414 -0.03480
 N225 N 0.96294 0.53182 -0.04890
 N226 N 0.95723 0.55315 -0.06766
 Mn227 Mn 0.93678 0.50027 -0.00046
 Mn228 Mn 1.00069 0.49859 -0.04853
 Cl229 Cl 0.99986 0.49989 -0.00006
 C230 C 0.92703 0.56716 -0.05932
 C231 C 0.92697 0.42972 -0.05760
 N232 N 0.56246 1.03361 0.52969
 N233 N 0.58584 1.05583 0.53479
 N234 N 0.53704 0.96818 0.54889
 N235 N 0.54275 0.94688 0.56767
 N236 N 0.56211 0.96750 0.53035
 N237 N 0.58561 0.94570 0.53611
 N238 N 0.53735 1.03420 0.54820
 N239 N 0.54288 1.05682 0.56628
 C240 C 0.57304 1.07026 0.55758
 C241 C 0.57295 0.93286 0.55934
 N242 N 0.43675 0.96824 0.52953
 N243 N 0.41302 0.94649 0.53485
 N244 N 0.46159 1.03467 0.54771
 N245 N 0.45575 1.05742 0.56567
 N246 N 0.43713 1.03436 0.52889
 N247 N 0.41388 1.05692 0.53364
 N248 N 0.46120 0.96864 0.54837
 N249 N 0.45485 0.94718 0.56691
 Mn250 Mn 0.49929 1.00142 0.54851
 C251 C 0.42489 0.93340 0.55814
 C252 C 0.42607 1.07124 0.55657
 N253 N 0.56310 0.96583 0.47118
 N254 N 0.58636 0.94328 0.46640
 N255 N 0.53903 1.03157 0.45171
 N256 N 0.54534 1.05308 0.43321
 N257 N 0.56349 1.03195 0.47054
 N258 N 0.58719 1.05374 0.46526
 N259 N 0.53865 0.96554 0.45234
 N260 N 0.54450 0.94281 0.43437
 Mn261 Mn 0.56320 0.99972 0.50044
 C262 C 0.57418 0.92898 0.44346
 C263 C 0.57529 1.06687 0.44200
 N264 N 0.43813 1.03269 0.46972
 N265 N 0.41463 1.05449 0.46396
 N266 N 0.46290 0.96600 0.45186
 N267 N 0.45738 0.94341 0.43377
 N268 N 0.43779 0.96659 0.47037
 N269 N 0.41440 0.94438 0.46524
 N270 N 0.46320 1.03202 0.45118
 N271 N 0.45749 1.05333 0.43241
 Mn272 Mn 0.43704 1.00047 0.49963
 Mn273 Mn 0.50096 0.99879 0.45156
 Cl274 Cl 0.50012 1.00010 0.50003
 C275 C 0.42729 1.06734 0.44074
 C276 C 0.42721 0.92997 0.44244
 N277 N 1.06501 1.03566 0.52394
 N278 N 1.09154 1.05510 0.52818
 N279 N 1.03609 0.97682 0.55223
 N280 N 1.04093 0.95962 0.57401
 N281 N 1.06079 0.97136 0.53397
 N282 N 1.08327 0.95027 0.54289
 N283 N 1.03965 1.04119 0.54162
 N284 N 1.04775 1.06479 0.55786
 C285 C 1.07984 1.07353 0.54905
 C286 C 1.07019 0.94303 0.56777
 N287 N 0.93582 0.97735 0.53424
 N288 N 0.91138 0.95792 0.54306
 N289 N 0.96503 1.04481 0.54177
 N290 N 0.96021 1.06976 0.55736
 N291 N 0.93947 1.04179 0.52406
 N292 N 0.91612 1.06451 0.52749
 N293 N 0.96091 0.98049 0.55236
 N294 N 0.95440 0.96333 0.57393
 Mn295 Mn 1.00041 1.01085 0.54718
 C296 C 0.92364 0.94928 0.56776
 C297 C 0.92995 1.08204 0.54804
 N298 N 1.06052 0.95834 0.47605
 N299 N 1.08396 0.93571 0.47254
 N300 N 1.03907 1.01964 0.44774
 N301 N 1.04554 1.03685 0.42620
 N302 N 1.06414 1.02278 0.46586
 N303 N 1.08854 1.04227 0.45708
 N304 N 1.03496 0.95531 0.45834
 N305 N 1.03988 0.93044 0.44267
 Mn306 Mn 1.06310 0.99702 0.49994
 C307 C 1.07019 0.91821 0.45196
 C308 C 1.07627 1.05093 0.43238
 N309 N 0.93919 1.02878 0.46613
 N310 N 0.91673 1.04988 0.45721
 N311 N 0.96034 0.95893 0.45848
 N312 N 0.95220 0.93539 0.44219
 N313 N 0.93495 0.96447 0.47614
 N314 N 0.90837 0.94509 0.47182
 N315 N 0.96390 1.02330 0.44788
 N316 N 0.95908 1.04051 0.42610
 Mn317 Mn 0.93688 1.00311 0.50016
 Mn318 Mn 0.99958 0.98927 0.45293
 Cl319 Cl 0.99999 1.00006 0.50005
 C320 C 0.92983 1.05711 0.43233
 C321 C 0.92008 0.92669 0.45093
 N322 N 0.56515 0.53544 0.02387
 N323 N 0.59173 0.55482 0.02821
 N324 N 0.53619 0.47659 0.05209
 N325 N 0.54103 0.45938 0.07387
 N326 N 0.56090 0.47113 0.03383
 N327 N 0.58339 0.45006 0.04275
 N328 N 0.53976 0.54097 0.04153
 N329 N 0.54789 0.56450 0.05785
 C330 C 0.58002 0.57320 0.04912
 C331 C 0.57030 0.44280 0.06762
 N332 N 0.43594 0.47715 0.03410
 N333 N 0.41151 0.45768 0.04288
 N334 N 0.46514 0.54460 0.04168
 N335 N 0.46023 0.56947 0.05735
 N336 N 0.43959 0.54160 0.02395
 N337 N 0.41617 0.56425 0.02746
 N338 N 0.46101 0.48026 0.05222
 N339 N 0.45452 0.46305 0.07376
 Mn340 Mn 0.50052 0.51063 0.04706
 C341 C 0.42378 0.44899 0.06757
 C342 C 0.42994 0.58172 0.04805
 N343 N 0.56063 0.45817 -0.02410
 N344 N 0.58398 0.43545 -0.02754
 N345 N 0.53921 0.51951 -0.05236
 N346 N 0.54571 0.53670 -0.07391
 N347 N 0.56430 0.52262 -0.03424
 N348 N 0.58874 0.54207 -0.04304
 N349 N 0.53508 0.45517 -0.04181
 N350 N 0.53990 0.43024 -0.05742
 Mn351 Mn 0.56323 0.49683 -0.00017
 C352 C 0.57015 0.41794 -0.04810
 C353 C 0.57647 0.55074 -0.06773
 N354 N 0.43933 0.52865 -0.03398
 N355 N 0.41686 0.54974 -0.04289
 N356 N 0.46046 0.45881 -0.04168
 N357 N 0.45234 0.43524 -0.05795
 N358 N 0.43509 0.46433 -0.02400
 N359 N 0.40854 0.44491 -0.02827
 N360 N 0.46404 0.52320 -0.05224
 N361 N 0.45920 0.54042 -0.07401
 Mn362 Mn 0.43701 0.50295 0.00003
 Mn363 Mn 0.49971 0.48915 -0.04721
 Cl364 Cl 0.50012 0.49989 -0.00007
 C365 C 0.42994 0.55700 -0.06776
 C366 C 0.42025 0.42650 -0.04916
 N367 N 0.32379 1.21892 0.16212
 C368 C 0.30823 1.19356 0.15051
 N369 N 0.27663 1.18395 0.16020
 N370 N 0.26134 1.19898 0.18112
 C371 C 0.27712 1.22414 0.19307
 N372 N 0.30852 1.23389 0.18303
 C373 C 0.32731 1.17462 0.13107
 C374 C 0.34446 1.15785 0.11615
 C375 C 0.36575 1.13694 0.09990
 N376 N 0.35389 1.12533 0.07577
 N377 N 0.37293 1.10441 0.06165
 C378 C 0.40439 1.09438 0.07124
 N379 N 0.41627 1.10617 0.09531
 N380 N 0.39725 1.12710 0.10940
 N381 N 0.82435 0.71888 0.66238
 C382 C 0.80860 0.69378 0.65051
 N383 N 0.77679 0.68438 0.65994
 N384 N 0.76147 0.69937 0.68087
 C385 C 0.77744 0.72427 0.69308
 N386 N 0.80905 0.73381 0.68330
 C387 C 0.82764 0.67484 0.63104
 C388 C 0.84477 0.65806 0.61611
 C389 C 0.86604 0.63714 0.59985
 N390 N 0.85417 0.62554 0.57572
 N391 N 0.87320 0.60461 0.56160
 C392 C 0.90466 0.59456 0.57118
 N393 N 0.91655 0.60635 0.59526
 N394 N 0.89754 0.62728 0.60936
 N395 N 0.72280 0.81375 0.15934
 C396 C 0.68722 0.81495 0.15744
 N397 N 0.66747 0.79928 0.17581
 N398 N 0.68268 0.78311 0.19555
 C399 C 0.71822 0.78180 0.19764
 N400 N 0.73807 0.79745 0.17914
 C401 C 0.67011 0.83451 0.13786
 C402 C 0.65397 0.85129 0.12271
 C403 C 0.63329 0.87168 0.10600
 N404 N 0.64546 0.88146 0.08149
 N405 N 0.62648 0.90113 0.06657
 C406 C 0.59473 0.91166 0.07566
 N407 N 0.58258 0.90172 0.10015
 N408 N 0.60154 0.88205 0.11505
 N409 N 1.22299 0.31397 0.65944
 C410 C 1.18741 0.31523 0.65753
 N411 N 1.16762 0.29956 0.67587
 N412 N 1.18279 0.28333 0.69560
 C413 C 1.21833 0.28196 0.69770
 N414 N 1.23822 0.29761 0.67922
 C415 C 1.17034 0.33482 0.63794
 C416 C 1.15423 0.35161 0.62278
 C417 C 1.13358 0.37199 0.60606
 N418 N 1.14574 0.38172 0.58153
 N419 N 1.12677 0.40138 0.56658
 C420 C 1.09502 0.41193 0.57566
 N421 N 1.08287 0.40204 0.60018
 N422 N 1.10183 0.38240 0.61510
 N423 N 0.71117 1.20413 -0.15358
 C424 C 0.69978 1.17454 -0.15881
 N425 N 0.70431 1.16216 -0.18417
 N426 N 0.71903 1.17901 -0.20383
 C427 C 0.72989 1.20885 -0.19891
 N428 N 0.72601 1.22098 -0.17330
 C429 C 0.68006 1.15740 -0.13883
 C430 C 0.66217 1.14237 -0.12334
 C431 C 0.63987 1.12373 -0.10619
 N432 N 0.60801 1.11413 -0.11535
 N433 N 0.58783 1.09561 -0.10018
 C434 C 0.59882 1.08605 -0.07533
 N435 N 0.63065 1.09583 -0.06612
 N436 N 0.65085 1.11436 -0.08130
 N437 N 1.20984 0.70535 0.34650
 C438 C 1.20047 0.67510 0.34176
 N439 N 1.20703 0.66206 0.31691
 N440 N 1.22171 0.67889 0.29722
 C441 C 1.23052 0.70938 0.30161
 N442 N 1.22463 0.72218 0.32675
 C443 C 1.18060 0.65786 0.36159
 C444 C 1.16263 0.64276 0.37696
 C445 C 1.14026 0.62404 0.39399
 N446 N 1.15111 0.61469 0.41893
 N447 N 1.13086 0.59611 0.43402
 C448 C 1.09913 0.58625 0.42468
 N449 N 1.08827 0.59578 0.39978
 N450 N 1.10850 0.61435 0.38470
 N451 N 0.27780 0.81836 -0.16183
 C452 C 0.30930 0.80864 -0.15220
 N453 N 0.32456 0.78279 -0.16343
 N454 N 0.30910 0.76746 -0.18393
 C455 C 0.27780 0.77731 -0.19390
 N456 N 0.26233 0.80297 -0.18233
 C457 C 0.32842 0.82765 -0.13300
 C458 C 0.34553 0.84435 -0.11813
 C459 C 0.36668 0.86505 -0.10173
 N460 N 0.35449 0.87656 -0.07756
 N461 N 0.37347 0.89712 -0.06321
 C462 C 0.40524 0.90689 -0.07258
 N463 N 0.41746 0.89520 -0.09671
 N464 N 0.39849 0.87464 -0.11104
 N465 N 0.77793 0.31842 0.33812
 C466 C 0.80956 0.30886 0.34761
 N467 N 0.82493 0.28312 0.33629
 N468 N 0.80945 0.26772 0.31584
 C469 C 0.77801 0.27740 0.30601
 N470 N 0.76243 0.30296 0.31767
 C471 C 0.82865 0.32792 0.36681
 C472 C 0.84574 0.34463 0.38168
 C473 C 0.86687 0.36533 0.39810
 N474 N 0.85463 0.37685 0.42225
 N475 N 0.87361 0.39739 0.43663
 C476 C 0.90542 0.40712 0.42731
 N477 N 0.91769 0.39541 0.40320
 N478 N 0.89872 0.37487 0.38885
 N479 N 1.16106 0.30770 0.18495
 C480 C 1.17481 0.30829 0.15941
 N481 N 1.20534 0.29275 0.15421
 N482 N 1.22175 0.27744 0.17406
 C483 C 1.20819 0.27718 0.19979
 N484 N 1.17745 0.29248 0.20476
 C485 C 1.15812 0.32702 0.13888
 C486 C 1.14328 0.34392 0.12298
 C487 C 1.12464 0.36518 0.10556
 N488 N 1.13933 0.37573 0.08209
 N489 N 1.12261 0.39684 0.06698
 C490 C 1.09068 0.40817 0.07489
 N491 N 1.07603 0.39745 0.09830
 N492 N 1.09271 0.37637 0.11336
 N493 N 0.66104 0.80748 0.68487
 C494 C 0.67490 0.80825 0.65937
 N495 N 0.70555 0.79287 0.65419
 N496 N 0.72195 0.77754 0.67404
 C497 C 0.70829 0.77710 0.69973
 N498 N 0.67743 0.79224 0.70466
 C499 C 0.65824 0.82705 0.63888
 C500 C 0.64343 0.84401 0.62301
 C501 C 0.62482 0.86534 0.60563
 N502 N 0.63950 0.87587 0.58216
 N503 N 0.62280 0.89701 0.56707
 C504 C 0.59091 0.90839 0.57501
 N505 N 0.57628 0.89771 0.59844
 N506 N 0.59293 0.87659 0.61347
 N507 N 1.20890 0.70678 -0.15301
 C508 C 1.17824 0.69132 -0.15749
 N509 N 1.16384 0.69192 -0.18269
 N510 N 1.17969 0.70707 -0.20288
 C511 C 1.21054 0.72230 -0.19866
 N512 N 1.22477 0.72205 -0.17326
 C513 C 1.16200 0.67267 -0.13663
 C514 C 1.14717 0.65575 -0.12067
 C515 C 1.12819 0.63441 -0.10348
 N516 N 1.09642 0.62347 -0.11154
 N517 N 1.07938 0.60227 -0.09678
 C518 C 1.09351 0.59118 -0.07342
 N519 N 1.12528 0.60227 -0.06524
 N520 N 1.14238 0.62350 -0.08006
 N521 N 0.70918 1.20679 0.34705
 C522 C 0.67834 1.19159 0.34267
 N523 N 0.66374 1.19241 0.31754
 N524 N 0.67958 1.20753 0.29733
 C525 C 0.71061 1.22248 0.30145
 N526 N 0.72504 1.22202 0.32678
 C527 C 0.66209 1.17296 0.36353
 C528 C 0.64727 1.15606 0.37950
 C529 C 0.62829 1.13474 0.39671
 N530 N 0.59650 1.12382 0.38867
 N531 N 0.57948 1.10261 0.40342
 C532 C 0.59364 1.09148 0.42675
 N533 N 0.62544 1.10255 0.43491
 N534 N 0.64252 1.12379 0.42010
 N535 N 0.79202 0.71383 0.15058
 C536 C 0.82528 0.70282 0.15352
 N537 N 0.84178 0.70731 0.17769
 N538 N 0.82535 0.72156 0.19845
 C539 C 0.79180 0.73200 0.19589
 N540 N 0.77559 0.72821 0.17139
 C541 C 0.84162 0.68334 0.13280
 C542 C 0.85623 0.66549 0.11705
 C543 C 0.87474 0.64288 0.10020
 N544 N 0.90635 0.63181 0.10837
 N545 N 0.92275 0.60932 0.09412
 C546 C 0.90814 0.59699 0.07117
 N547 N 0.87653 0.60820 0.06287
 N548 N 0.86006 0.63072 0.07719
 N549 N 0.34184 1.20737 0.67773
 C550 C 0.32541 1.20301 0.65352
 N551 N 0.29219 1.21409 0.65055
 N552 N 0.27571 1.22841 0.67137
 C553 C 0.29185 1.23207 0.69591
 N554 N 0.32537 1.22156 0.69851
 C555 C 0.34177 1.18358 0.63277
 C556 C 0.35641 1.16576 0.61702
 C557 C 0.37494 1.14316 0.60017
 N558 N 0.36022 1.13090 0.57721
 N559 N 0.37669 1.10836 0.56292
 C560 C 0.40835 1.09723 0.57119
 N561 N 0.42301 1.10966 0.59408
 N562 N 0.40660 1.13216 0.60831
 N563 N 0.79348 0.28850 -0.15174
 C564 C 0.82642 0.29988 -0.15550
 N565 N 0.84224 0.29575 -0.18011
 N566 N 0.82548 0.28135 -0.20048
 C567 C 0.79224 0.27043 -0.19706
 N568 N 0.77672 0.27400 -0.17216
 C569 C 0.84310 0.31910 -0.13495
 C570 C 0.85779 0.33665 -0.11916
 C571 C 0.87618 0.35886 -0.10206
 N572 N 0.86099 0.37110 -0.07915
 N573 N 0.87736 0.39329 -0.06458
 C574 C 0.90938 0.40407 -0.07251
 N575 N 0.92451 0.39165 -0.09536
 N576 N 0.90820 0.36949 -0.10988
 N577 N 0.29489 0.78740 0.34826
 C578 C 0.32683 0.80065 0.34400
 N579 N 0.34171 0.79837 0.31889
 N580 N 0.32497 0.78391 0.29854
 C581 C 0.29271 0.77109 0.30249
 N582 N 0.27815 0.77285 0.32786
 C583 C 0.34338 0.81971 0.36472
 C584 C 0.35802 0.83716 0.38062
 C585 C 0.37640 0.85927 0.39781
 N586 N 0.36112 0.87157 0.42066
 N587 N 0.37749 0.89371 0.43529
 C588 C 0.40960 0.90437 0.42748
 N589 N 0.42482 0.89191 0.40468
 N590 N 0.40851 0.86980 0.39011
 N591 N 1.15944 1.18554 0.30946
 C592 C 1.17764 1.16215 0.32143
 N593 N 1.21209 1.15808 0.31526
 N594 N 1.22807 1.17728 0.29799
 C595 C 1.21016 1.20120 0.28643
 N596 N 1.17545 1.20474 0.29219
 C597 C 1.16093 1.14268 0.34107
 C598 C 1.14658 1.12661 0.35769
 C599 C 1.12876 1.10761 0.37711
 N600 N 1.14335 1.10160 0.40170
 N601 N 1.12655 1.08370 0.41964
 C602 C 1.09465 1.07140 0.41347
 N603 N 1.08014 1.07757 0.38888
 N604 N 1.09691 1.09543 0.37099
 N605 N 0.71217 0.65781 -0.18502
 C606 C 0.67776 0.66193 -0.17875
 N607 N 0.65959 0.68543 -0.19059
 N608 N 0.67558 0.70467 -0.20783
 C609 C 0.71026 0.70108 -0.21369
 N610 N 0.72814 0.67706 -0.20225
 C611 C 0.66108 0.64244 -0.15912
 C612 C 0.64674 0.62636 -0.14250
 C613 C 0.62895 0.60737 -0.12306
 N614 N 0.59703 0.59527 -0.12912
 N615 N 0.58028 0.57743 -0.11121
 C616 C 0.59486 0.57118 -0.08667
 N617 N 0.62682 0.58340 -0.08055
 N618 N 0.64361 0.60128 -0.09851
 N619 N 0.79828 1.17532 0.67145
 C620 C 0.82613 1.18977 0.65978
 N621 N 0.83821 1.21694 0.67080
 N622 N 0.82219 1.22979 0.69242
 C623 C 0.79370 1.21580 0.70374
 N624 N 0.78227 1.18816 0.69305
 C625 C 0.84317 1.17593 0.63658
 C626 C 0.85798 1.16331 0.61772
 C627 C 0.87675 1.14666 0.59683
 N628 N 0.91184 1.14260 0.59937
 N629 N 0.92903 1.12320 0.58258
 C630 C 0.91174 1.10727 0.56266
 N631 N 0.87666 1.11185 0.55971
 N632 N 0.85940 1.13124 0.57661
 N633 N 0.33863 0.71558 0.17155
 C634 C 0.32562 0.68914 0.15985
 N635 N 0.29679 0.67547 0.17078
 N636 N 0.28079 0.68839 0.19236
 C637 C 0.29319 0.71531 0.20375
 N638 N 0.32261 0.72851 0.19314
 C639 C 0.34270 0.67523 0.13669
 C640 C 0.35757 0.66260 0.11787
 C641 C 0.37643 0.64600 0.09700
 N642 N 0.35917 0.63061 0.07672
 N643 N 0.37653 0.61133 0.05978
 C644 C 0.41162 0.60683 0.06276
 N645 N 0.42882 0.62274 0.08274
 N646 N 0.41153 0.64203 0.09957
 N647 N 1.15443 0.81101 0.69324
 C648 C 1.17113 0.83456 0.68022
 N649 N 1.20572 0.83959 0.68492
 N650 N 1.22330 0.82118 0.70180
 C651 C 1.20689 0.79709 0.71441
 N652 N 1.17204 0.79260 0.71014
 C653 C 1.15292 0.85293 0.66070
 C654 C 1.13788 0.86816 0.64396
 C655 C 1.12012 0.88635 0.62406
 N656 N 1.08899 0.90015 0.63029
 N657 N 1.07281 0.91783 0.61203
 C658 C 1.08724 0.92221 0.58699
 N659 N 1.11835 0.90823 0.58073
 N660 N 1.13454 0.89052 0.59901
 N661 N 0.65452 0.31095 0.19317
 C662 C 0.67124 0.33449 0.18014
 N663 N 0.70581 0.33953 0.18487
 N664 N 0.72337 0.32114 0.20179
 C665 C 0.70694 0.29706 0.21440
 N666 N 0.67209 0.29256 0.21009
 C667 C 0.65307 0.35283 0.16059
 C668 C 0.63804 0.36803 0.14382
 C669 C 0.62028 0.38620 0.12392
 N670 N 0.58915 0.40000 0.13015
 N671 N 0.57296 0.41766 0.11189
 C672 C 0.58737 0.42200 0.08684
 N673 N 0.61847 0.40802 0.08057
 N674 N 0.63468 0.39034 0.09886
 N675 N 0.78329 0.83620 0.32376
 C676 C 0.81396 0.82707 0.33515
 N677 N 0.83162 0.80228 0.32430
 N678 N 0.81847 0.78638 0.30321
 C679 C 0.78731 0.79485 0.29218
 N680 N 0.77013 0.82027 0.30263
 C681 C 0.82780 0.84311 0.35844
 C682 C 0.84141 0.85596 0.37758
 C683 C 0.86063 0.87106 0.39892
 N684 N 0.84429 0.88872 0.41844
 N685 N 0.86315 0.90528 0.43639
 C686 C 0.89882 0.90458 0.43526
 N687 N 0.91489 0.88644 0.41600
 N688 N 0.89613 0.86988 0.39820
 N689 N 0.33159 0.30184 -0.17550
 C690 C 0.31397 0.32664 -0.16462
 N691 N 0.28334 0.33586 -0.17601
 N692 N 0.27016 0.32002 -0.19719
 C693 C 0.28730 0.29459 -0.20767
 N694 N 0.31842 0.28603 -0.19663
 C695 C 0.32785 0.34263 -0.14133
 C696 C 0.34150 0.35549 -0.12221
 C697 C 0.36076 0.37063 -0.10093
 N698 N 0.39626 0.36955 -0.10175
 N699 N 0.41505 0.38620 -0.08402
 C700 C 0.39900 0.40433 -0.06476
 N701 N 0.36334 0.40495 -0.06353
 N702 N 0.34445 0.38830 -0.08140
 N703 N 1.20784 0.28596 -0.15058
 C704 C 1.17460 0.29702 -0.15355
 N705 N 1.15816 0.29262 -0.17775
 N706 N 1.17461 0.27841 -0.19852
 C707 C 1.20813 0.26791 -0.19593
 N708 N 1.22429 0.27161 -0.17141
 C709 C 1.15824 0.31645 -0.13280
 C710 C 1.14359 0.33427 -0.11705
 C711 C 1.12505 0.35685 -0.10020
 N712 N 1.13973 0.36908 -0.07722
 N713 N 1.12325 0.39161 -0.06293
 C714 C 1.09160 0.40275 -0.07121
 N715 N 1.07697 0.39035 -0.09413
 N716 N 1.09340 0.36786 -0.10836
 N717 N 0.70797 0.78613 0.34940
 C718 C 0.67473 0.79718 0.34645
 N719 N 0.65827 0.79277 0.32226
 N720 N 0.67470 0.77855 0.30149
 C721 C 0.70823 0.76806 0.30407
 N722 N 0.72441 0.77177 0.32858
 C723 C 0.65840 0.81665 0.36719
 C724 C 0.64379 0.83449 0.38294
 C725 C 0.62530 0.85711 0.39979
 N726 N 0.59366 0.86814 0.39164
 N727 N 0.57726 0.89064 0.40589
 C728 C 0.59190 0.90301 0.42881
 N729 N 0.62355 0.89185 0.43708
 N730 N 0.64001 0.86932 0.42277
 N731 N 0.83903 0.69259 -0.18483
 C732 C 0.82517 0.69184 -0.15933
 N733 N 0.79453 0.70722 -0.15416
 N734 N 0.77812 0.72253 -0.17402
 C735 C 0.79179 0.72295 -0.19971
 N736 N 0.82264 0.70782 -0.20463
 C737 C 0.84182 0.67304 -0.13883
 C738 C 0.85662 0.65608 -0.12296
 C739 C 0.87522 0.63474 -0.10558
 N740 N 0.86052 0.62420 -0.08212
 N741 N 0.87720 0.60304 -0.06704
 C742 C 0.90909 0.59165 -0.07497
 N743 N 0.92374 0.60235 -0.09839
 N744 N 0.90710 0.62349 -0.11342
 N745 N 0.33894 1.19236 0.31506
 C746 C 0.32518 1.19171 0.34060
 N747 N 0.29463 1.20723 0.34582
 N748 N 0.27823 1.22256 0.32597
 C749 C 0.29179 1.22287 0.30025
 N750 N 0.32255 1.20759 0.29528
 C751 C 0.34187 1.17296 0.36111
 C752 C 0.35671 1.15605 0.37700
 C753 C 0.37536 1.13478 0.39441
 N754 N 0.36067 1.12424 0.41788
 N755 N 0.37740 1.10313 0.43299
 C756 C 0.40932 1.09179 0.42507
 N757 N 0.42395 1.10250 0.40165
 N758 N 0.40727 1.12358 0.38659
 N759 N 1.15833 0.70147 0.18112
 C760 C 1.17316 0.69927 0.15599
 N761 N 1.20508 0.71258 0.15172
 N762 N 1.22182 0.72711 0.17213
 C763 C 1.20730 0.72880 0.19752
 N764 N 1.17508 0.71591 0.20147
 C765 C 1.15660 0.68025 0.13524
 C766 C 1.14194 0.66284 0.11933
 C767 C 1.12355 0.64076 0.10213
 N768 N 1.13886 0.62840 0.07932
 N769 N 1.12250 0.60626 0.06468
 C770 C 1.09034 0.59565 0.07246
 N771 N 1.07508 0.60818 0.09521
 N772 N 1.09139 0.63030 0.10978
 N773 N 0.65784 1.20420 0.68009
 C774 C 0.67365 1.20009 0.65547
 N775 N 0.70658 1.21149 0.65169
 N776 N 0.72335 1.22598 0.67211
 C777 C 0.70785 1.22953 0.69702
 N778 N 0.67462 1.21859 0.70046
 C779 C 0.65695 1.18087 0.63492
 C780 C 0.64225 1.16332 0.61914
 C781 C 0.62386 1.14110 0.60205
 N782 N 0.63903 1.12887 0.57914
 N783 N 0.62266 1.10668 0.56456
 C784 C 0.59065 1.09590 0.57251
 N785 N 0.57553 1.10830 0.59536
 N786 N 0.59185 1.13047 0.60988
 N787 N 0.83634 0.30756 0.18246
 C788 C 0.82176 0.30833 0.15732
 N789 N 0.79094 0.29310 0.15294
 N790 N 0.77507 0.27789 0.17323
 C791 C 0.78948 0.27748 0.19857
 N792 N 0.82049 0.29246 0.20268
 C793 C 0.83799 0.32696 0.13645
 C794 C 0.85279 0.34386 0.12048
 C795 C 0.87175 0.36520 0.10327
 N796 N 0.85749 0.37617 0.07990
 N797 N 0.87455 0.39743 0.06509
 C798 C 0.90635 0.40849 0.07323
 N799 N 0.92054 0.39735 0.09655
 N800 N 0.90355 0.37612 0.11130
 N801 N 0.33621 0.80810 0.68271
 C802 C 0.32182 0.80870 0.65751
 N803 N 0.29117 0.79323 0.65302
 N804 N 0.27530 0.77796 0.67327
 C805 C 0.28953 0.77771 0.69867
 N806 N 0.32036 0.79294 0.70289
 C807 C 0.33806 0.82735 0.63666
 C808 C 0.35288 0.84427 0.62070
 C809 C 0.37185 0.86561 0.60350
 N810 N 0.35764 0.87651 0.58008
 N811 N 0.37472 0.89774 0.56525
 C812 C 0.40650 0.90884 0.57342
 N813 N 0.42063 0.89777 0.59679
 N814 N 0.40361 0.87657 0.61156
 N815 N 0.33233 1.20036 -0.17591
 C816 C 0.31254 1.18475 -0.15753
 N817 N 0.27695 1.18606 -0.15942
 N818 N 0.26173 1.20241 -0.17921
 C819 C 0.28164 1.21800 -0.19772
 N820 N 0.31717 1.21658 -0.19564
 C821 C 0.32959 1.16519 -0.13792
 C822 C 0.34571 1.14841 -0.12275
 C823 C 0.36638 1.12805 -0.10602
 N824 N 0.35421 1.11829 -0.08150
 N825 N 0.37320 1.09865 -0.06655
 C826 C 0.40497 1.08814 -0.07562
 N827 N 0.41713 1.09806 -0.10012
 N828 N 0.39816 1.11769 -0.11505
 N829 N 0.77725 0.68635 0.34064
 C830 C 0.81284 0.68512 0.34251
 N831 N 0.83258 0.70076 0.32412
 N832 N 0.81737 0.71693 0.30438
 C833 C 0.78183 0.71827 0.30231
 N834 N 0.76198 0.70265 0.32084
 C835 C 0.82995 0.66557 0.36210
 C836 C 0.84607 0.64879 0.37726
 C837 C 0.86673 0.62840 0.39398
 N838 N 0.89847 0.61799 0.38493
 N839 N 0.91741 0.59831 0.39983
 C840 C 0.90526 0.58840 0.42433
 N841 N 0.87352 0.59896 0.43343
 N842 N 0.85456 0.61864 0.41850
 N843 N 0.67521 1.21698 0.16366
 C844 C 0.69053 1.19120 0.15236
 N845 N 0.72212 1.18157 0.16188
 N846 N 0.73762 1.19699 0.18235
 C847 C 0.72209 1.22259 0.19399
 N848 N 0.69070 1.23234 0.18412
 C849 C 0.67140 1.17215 0.13318
 C850 C 0.65430 1.15543 0.11832
 C851 C 0.63315 1.13471 0.10193
 N852 N 0.64537 1.12318 0.07777
 N853 N 0.62637 1.10263 0.06341
 C854 C 0.59458 1.09289 0.07276
 N855 N 0.58235 1.10459 0.09688
 N856 N 0.60133 1.12514 0.11122
 N857 N 1.22220 0.68162 0.66184
 C858 C 1.19072 0.69137 0.65222
 N859 N 1.17548 0.71724 0.66344
 N860 N 1.19096 0.73256 0.68393
 C861 C 1.22225 0.72269 0.69391
 N862 N 1.23769 0.69701 0.68234
 C863 C 1.17158 0.67237 0.63301
 C864 C 1.15447 0.65567 0.61814
 C865 C 1.13333 0.63496 0.60174
 N866 N 1.10151 0.62539 0.61103
 N867 N 1.08255 0.60483 0.59670
 C868 C 1.09479 0.59311 0.57259
 N869 N 1.12658 0.60286 0.56324
 N870 N 1.14556 0.62343 0.57759
 N871 N 0.72321 0.81571 -0.15995
 C872 C 0.69142 0.80629 -0.15051
 N873 N 0.67570 0.78116 -0.16236
 N874 N 0.69102 0.76622 -0.18328
 C875 C 0.72262 0.77579 -0.19306
 N876 N 0.73855 0.80072 -0.18088
 C877 C 0.67236 0.82522 -0.13105
 C878 C 0.65522 0.84199 -0.11611
 C879 C 0.63394 0.86290 -0.09983
 N880 N 0.64582 0.87449 -0.07570
 N881 N 0.62679 0.89542 -0.06157
 C882 C 0.59534 0.90548 -0.07115
 N883 N 0.58345 0.89369 -0.09523
 N884 N 0.60245 0.87277 -0.10933
 N885 N 1.22339 0.31607 0.33987
 C886 C 1.19177 0.30648 0.34954
 N887 N 1.17619 0.28114 0.33793
 N888 N 1.19146 0.26616 0.31701
 C889 C 1.22286 0.27590 0.30698
 N890 N 1.23867 0.30104 0.31895
 C891 C 1.17270 0.32543 0.36897
 C892 C 1.15553 0.34221 0.38388
 C893 C 1.13422 0.36311 0.40012
 N894 N 1.14606 0.37472 0.42426
 N895 N 1.12699 0.39562 0.43837
 C896 C 1.09553 0.40564 0.42878
 N897 N 1.08367 0.39384 0.40469
 N898 N 1.10272 0.37294 0.39061
 N899 N 0.29003 0.79470 0.15350
 C900 C 0.29958 0.82490 0.15831
 N901 N 0.29322 0.83784 0.18322
 N902 N 0.27853 0.82099 0.20289
 C903 C 0.26954 0.79056 0.19843
 N904 N 0.27524 0.77784 0.17322
 C905 C 0.31941 0.84217 0.13848
 C906 C 0.33735 0.85730 0.12310
 C907 C 0.35969 0.87605 0.10607
 N908 N 0.34883 0.88539 0.08113
 N909 N 0.36907 0.90396 0.06603
 C910 C 0.40081 0.91383 0.07535
 N911 N 0.41167 0.90432 0.10026
 N912 N 0.39145 0.88574 0.11535
 N913 N 0.78897 0.29579 0.65354
 C914 C 0.80029 0.32541 0.65877
 N915 N 0.79569 0.33781 0.68410
 N916 N 0.78097 0.32097 0.70376
 C917 C 0.77019 0.29109 0.69887
 N918 N 0.77414 0.27894 0.67326
 C919 C 0.82001 0.34256 0.63879
 C920 C 0.83788 0.35760 0.62330
 C921 C 0.86018 0.37626 0.60617
 N922 N 0.84919 0.38564 0.58128
 N923 N 0.86938 0.40419 0.56611
 C924 C 0.90120 0.41398 0.57532
 N925 N 0.91220 0.40441 0.60018
 N926 N 0.89203 0.38587 0.61533
 N927 N 1.21668 1.16408 0.67600
 C928 C 1.18608 1.17332 0.66458
 N929 N 1.16845 1.19812 0.67543
 N930 N 1.18160 1.21394 0.69657
 C931 C 1.21269 1.20537 0.70765
 N932 N 1.22983 1.17993 0.69718
 C933 C 1.17222 1.15733 0.64127
 C934 C 1.15858 1.14450 0.62213
 C935 C 1.13934 1.12939 0.60082
 N936 N 1.10383 1.13053 0.60160
 N937 N 1.08504 1.11390 0.58387
 C938 C 1.10109 1.09572 0.56463
 N939 N 1.13675 1.09505 0.56345
 N940 N 1.15564 1.11169 0.58132
 N941 N 0.71674 0.66386 0.17621
 C942 C 0.68606 0.67297 0.16484
 N943 N 0.66838 0.69776 0.17569
 N944 N 0.68155 0.71367 0.19678
 C945 C 0.71272 0.70522 0.20779
 N946 N 0.72991 0.67980 0.19734
 C947 C 0.67221 0.65692 0.14156
 C948 C 0.65860 0.64404 0.12243
 C949 C 0.63941 0.62891 0.10110
 N950 N 0.60390 0.63004 0.10183
 N951 N 0.58516 0.61345 0.08404
 C952 C 0.60125 0.59533 0.06479
 N953 N 0.63692 0.59466 0.06365
 N954 N 0.65576 0.61126 0.08159
 N955 N 1.20324 0.82442 0.32921
 C956 C 1.17440 0.81077 0.34014
 N957 N 1.16135 0.78435 0.32841
 N958 N 1.17736 0.77143 0.30682
 C959 C 1.20681 0.78459 0.29623
 N960 N 1.21924 0.81150 0.30763
 C961 C 1.15735 0.82468 0.36330
 C962 C 1.14250 0.83731 0.38214
 C963 C 1.12367 0.85392 0.40302
 N964 N 1.14096 0.86935 0.42326
 N965 N 1.12361 0.88865 0.44020
 C966 C 1.08851 0.89311 0.43726
 N967 N 1.07129 0.87716 0.41731
 N968 N 1.08857 0.85787 0.40048
 N969 N 0.66191 0.28300 -0.17082
 C970 C 0.67398 0.31017 -0.15981
 N971 N 0.70183 0.32463 -0.17148
 N972 N 0.71783 0.31179 -0.19309
 C973 C 0.70640 0.28415 -0.20378
 N974 N 0.67792 0.27016 -0.19245
 C975 C 0.65694 0.32401 -0.13660
 C976 C 0.64213 0.33663 -0.11775
 C977 C 0.62335 0.35330 -0.09687
 N978 N 0.58827 0.35739 -0.09944
 N979 N 0.57108 0.37680 -0.08266
 C980 C 0.58836 0.39271 -0.06272
 N981 N 0.62343 0.38809 -0.05974
 N982 N 0.64069 0.36869 -0.07664
 N983 N 0.84562 1.18894 0.30675
 C984 C 0.82891 1.16540 0.31978
 N985 N 0.79432 1.16039 0.31510
 N986 N 0.77674 1.17882 0.29822
 C987 C 0.79316 1.20290 0.28561
 N988 N 0.82803 1.20737 0.28987
 C989 C 0.84710 1.14705 0.33931
 C990 C 0.86214 1.13184 0.35607
 C991 C 0.87989 1.11369 0.37599
 N992 N 0.86551 1.10961 0.40106
 N993 N 0.88171 1.09195 0.41937
 C994 C 0.91278 1.07791 0.41310
 N995 N 0.92717 1.08219 0.38804
 N996 N 0.91100 1.09984 0.36976
 N997 N 0.34562 0.68896 -0.19324
 C998 C 0.32890 0.66543 -0.18019
 N999 N 0.29431 0.66042 -0.18488
 N1000 N 0.27674 0.67883 -0.20177
 C1001 C 0.29316 0.70290 -0.21441
 N1002 N 0.32802 0.70737 -0.21014
 C1003 C 0.34711 0.64707 -0.16067
 C1004 C 0.36216 0.63184 -0.14392
 C1005 C 0.37994 0.61366 -0.12403
 N1006 N 0.41107 0.59987 -0.13027
 N1007 N 0.42727 0.58219 -0.11202
 C1008 C 0.41287 0.57783 -0.08697
 N1009 N 0.38177 0.59181 -0.08069
 N1010 N 0.36555 0.60950 -0.09897
 N1011 N 0.84045 0.81466 0.69060
 C1012 C 0.82226 0.83815 0.67878
 N1013 N 0.78785 0.84225 0.68505
 N1014 N 0.77189 0.82299 0.70228
 C1015 C 0.78980 0.79898 0.71371
 N1016 N 0.82448 0.79540 0.70784
 C1017 C 0.83894 0.85767 0.65915
 C1018 C 0.85328 0.87376 0.64254
 C1019 C 0.87108 0.89275 0.62311
 N1020 N 0.85647 0.89878 0.59853
 N1021 N 0.87329 0.91663 0.58057
 C1022 C 0.90522 0.92888 0.58671
 N1023 N 0.91975 0.92270 0.61129
 N1024 N 0.90297 0.90489 0.62920
 N1025 N 0.28794 0.34200 0.18483
 C1026 C 0.32236 0.33787 0.17859
 N1027 N 0.34052 0.31442 0.19051
 N1028 N 0.32452 0.29523 0.20778
 C1029 C 0.28983 0.29884 0.21362
 N1030 N 0.27195 0.32282 0.20211
 C1031 C 0.33907 0.35731 0.15893
 C1032 C 0.35343 0.37336 0.14229
 C1033 C 0.37126 0.39233 0.12286
 N1034 N 0.35665 0.39838 0.09828
 N1035 N 0.37346 0.41626 0.08034
 C1036 C 0.40538 0.42853 0.08649
 N1037 N 0.41991 0.42233 0.11107
 N1038 N 0.40313 0.40449 0.12896
   
