data_POSCAR
  _audit_creation_date              2014-09-24
  _audit_creation_method            'ToBaCCo'
  _symmetry_space_group_name_H-M    'P1'
  _symmetry_Int_Tables_number       1
  _symmetry_cell_setting            triclinic
  loop_
  _symmetry_equiv_pos_as_xyz
 x,y,z
_cell_length_a 22.5123
_cell_length_b 22.2897
_cell_length_c 22.1507
_cell_angle_alpha 90.180900
_cell_angle_beta 91.614000
_cell_angle_gamma 89.575700
loop_
  _atom_site_label
  _atom_site_type_symbol
  _atom_site_fract_x
  _atom_site_fract_y
  _atom_site_fract_z
C1 C 0.03019 0.43470 0.16042
 H2 H 0.05814 0.47354 0.15535
 C3 C 0.03838 0.38439 0.12397
 H4 H 0.07258 0.38521 0.09051
 C5 C -0.04710 0.38656 0.21158
 H6 H -0.07968 0.38734 0.24647
 C7 C -0.03965 0.33473 0.17699
 H8 H -0.06877 0.29751 0.18506
 N9 N -0.01219 0.43504 0.20290
 C10 C -0.01524 0.62833 0.23253
 H11 H -0.00405 0.63183 0.28021
 C12 C -0.02092 0.68030 0.19743
 H13 H -0.01438 0.72357 0.21877
 C14 C -0.04032 0.56782 0.14764
 H15 H -0.04920 0.52406 0.12853
 C16 C -0.04735 0.61850 0.11122
 H17 H -0.06068 0.61317 0.06414
 Zn18 Zn -0.01511 0.50254 0.25430
 N19 N -0.02348 0.57336 0.20691
 C20 C 0.10038 0.54155 0.29747
 N21 N 0.05737 0.49914 0.29965
 C22 C 0.06627 0.44746 0.33116
 C23 C 0.11976 0.43688 0.36257
 C24 C 0.15487 0.53274 0.32832
 C25 C -0.13586 0.49385 0.27953
 C26 C -0.18582 0.48621 0.31463
 C27 C -0.12177 0.48664 0.40395
 C28 C -0.07300 0.49442 0.36711
 N29 N -0.08074 0.49689 0.30599
 H30 H 0.09320 0.58159 0.27088
 H31 H 0.03179 0.41391 0.33112
 H32 H 0.12590 0.39523 0.38713
 H33 H 0.18789 0.56755 0.32631
 H34 H -0.14077 0.49586 0.23084
 H35 H -0.22878 0.48169 0.29206
 H36 H -0.11481 0.48403 0.45248
 H37 H -0.02902 0.49799 0.38749
 C38 C -0.03657 0.67550 0.13566
 C39 C 0.00433 0.33279 0.13281
 C40 C -0.17907 0.48247 0.37787
 C41 C 0.16530 0.47927 0.36089
 C42 C 0.06265 0.58592 0.81929
 H43 H 0.10027 0.55837 0.80764
 C44 C 0.07175 0.63621 0.85584
 H45 H 0.11598 0.64577 0.87370
 C46 C -0.03959 0.61005 0.80648
 H47 H -0.08277 0.60016 0.78659
 C48 C -0.03220 0.66159 0.84196
 H49 H -0.07021 0.69023 0.85006
 N50 N 0.00758 0.57335 0.79585
 C51 C -0.02900 0.38742 0.77383
 H52 H -0.06653 0.39311 0.74289
 C53 C -0.01946 0.33189 0.80198
 H54 H -0.05018 0.29585 0.79218
 C55 C 0.05887 0.42570 0.82017
 H56 H 0.09029 0.46152 0.82619
 C57 C 0.07027 0.37104 0.84881
 H58 H 0.10991 0.36599 0.87729
 Zn59 Zn 0.00068 0.50766 0.74142
 N60 N 0.00986 0.43321 0.78348
 C61 C 0.09899 0.46666 0.67651
 N62 N 0.06354 0.51485 0.68761
 C63 C 0.07438 0.56956 0.66339
 C64 C 0.12318 0.57760 0.62691
 C65 C 0.14871 0.47291 0.64106
 C66 C -0.12479 0.50015 0.72567
 C67 C -0.17949 0.50464 0.69437
 C68 C -0.12752 0.53662 0.60629
 C69 C -0.07391 0.52951 0.63870
 N70 N -0.07332 0.51209 0.69750
 H71 H 0.08914 0.42346 0.69566
 H72 H 0.04553 0.60715 0.67328
 H73 H 0.13187 0.62151 0.60843
 H74 H 0.17657 0.43413 0.63276
 H75 H -0.12337 0.48740 0.77278
 H76 H -0.21909 0.49564 0.71913
 H77 H -0.12635 0.55127 0.55970
 H78 H -0.03285 0.53879 0.61672
 C79 C 0.03088 0.32333 0.84021
 C80 C 0.02432 0.67528 0.86656
 C81 C -0.18159 0.52351 0.63347
 C82 C 0.16173 0.52928 0.61678
 C83 C 0.19371 0.03775 0.39613
 H84 H 0.22388 0.07507 0.39959
 C85 C 0.15799 0.03128 0.34413
 H86 H 0.16051 0.06467 0.30899
 C87 C 0.15294 -0.04978 0.43830
 H88 H 0.15223 -0.08190 0.47480
 C89 C 0.11633 -0.05803 0.38693
 H90 H 0.08697 -0.09629 0.38436
 N91 N 0.19267 -0.00406 0.44066
 C92 C 0.23466 -0.06206 0.61239
 H93 H 0.26631 -0.09391 0.59511
 C94 C 0.20985 -0.07280 0.66827
 H95 H 0.22321 -0.11247 0.69348
 C96 C 0.17734 0.02677 0.60003
 H97 H 0.16402 0.06483 0.57250
 C98 C 0.15157 0.01792 0.65614
 H99 H 0.11811 0.04937 0.67083
 Zn100 Zn 0.25272 -0.00297 0.50253
 N101 N 0.21859 -0.01270 0.57958
 C102 C 0.29531 0.11336 0.53785
 N103 N 0.29770 0.06803 0.49677
 C104 C 0.33432 0.07072 0.44904
 C105 C 0.36924 0.12111 0.44010
 C106 C 0.32926 0.16496 0.53036
 C107 C 0.29161 -0.11325 0.45263
 C108 C 0.32961 -0.16239 0.44774
 C109 C 0.39944 -0.11346 0.51631
 C110 C 0.35941 -0.06570 0.52100
 N111 N 0.30627 -0.06696 0.49016
 H112 H 0.26711 0.10970 0.57629
 H113 H 0.33598 0.03362 0.41752
 H114 H 0.39771 0.12267 0.40152
 H115 H 0.32713 0.20024 0.56390
 H116 H 0.25004 -0.11303 0.42736
 H117 H 0.31682 -0.19969 0.41886
 H118 H 0.44112 -0.11279 0.54195
 H119 H 0.37008 -0.02803 0.55013
 C120 C 0.16824 -0.03241 0.69124
 C121 C 0.12068 -0.01876 0.33793
 C122 C 0.38360 -0.16311 0.48080
 C123 C 0.36616 0.16950 0.48028
 C124 C 0.79083 0.03947 0.60383
 H125 H 0.76274 0.07846 0.59681
 C126 C 0.82736 0.03581 0.65563
 H127 H 0.82683 0.07238 0.68784
 C128 C 0.82837 -0.05342 0.56833
 H129 H 0.82874 -0.08773 0.53372
 C130 C 0.86591 -0.05871 0.61926
 H131 H 0.89494 -0.09750 0.62393
 N132 N 0.79153 -0.00512 0.56183
 C133 C 0.76845 0.01155 0.36861
 H134 H 0.72163 0.00194 0.36235
 C135 C 0.80413 0.01710 0.31856
 H136 H 0.78287 0.01324 0.27446
 C137 C 0.85089 0.02890 0.43498
 H138 H 0.86895 0.03305 0.48051
 C139 C 0.88820 0.03548 0.38619
 H140 H 0.93489 0.04455 0.39496
 Zn141 Zn 0.74321 -0.00062 0.49106
 N142 N 0.79245 0.01601 0.42538
 C143 C 0.68606 0.10875 0.45909
 N144 N 0.68593 0.06257 0.49913
 C145 C 0.65026 0.06438 0.54777
 C146 C 0.61466 0.11483 0.55864
 C147 C 0.65105 0.15979 0.46808
 C148 C 0.73627 -0.11521 0.43869
 C149 C 0.71642 -0.17376 0.42968
 C150 C 0.64006 -0.15518 0.50185
 C151 C 0.66117 -0.09659 0.50920
 N152 N 0.70849 -0.07762 0.47767
 H153 H 0.71476 0.10719 0.42092
 H154 H 0.65184 0.02820 0.58013
 H155 H 0.58801 0.11623 0.59859
 H156 H 0.65219 0.19537 0.43510
 H157 H 0.77517 -0.10057 0.41563
 H158 H 0.73944 -0.20292 0.39870
 H159 H 0.60179 -0.16884 0.52672
 H160 H 0.63999 -0.06669 0.54050
 C161 C 0.86554 0.02774 0.32693
 C162 C 0.86505 -0.01424 0.66406
 C163 C 0.66846 -0.19482 0.46209
 C164 C 0.61607 0.16416 0.51955
 C165 C 0.57008 0.16058 0.94560
 H166 H 0.53783 0.16610 0.90886
 C167 C 0.61944 0.12349 0.93826
 H168 H 0.62510 0.10015 0.89581
 C169 C 0.60280 0.18571 1.04514
 H170 H 0.59659 0.21052 1.08640
 C171 C 0.65319 0.14965 1.03947
 H172 H 0.68460 0.14608 1.07722
 N173 N 0.56237 0.19026 0.99859
 C174 C 0.37213 0.22538 1.00784
 H175 H 0.37163 0.27268 1.01898
 C176 C 0.31864 0.19427 1.00065
 H177 H 0.27765 0.21900 1.00599
 C178 C 0.42693 0.13759 0.98487
 H179 H 0.46898 0.11512 0.97940
 C180 C 0.37472 0.10523 0.97561
 H181 H 0.37770 0.05829 0.96299
 Zn182 Zn 0.49608 0.24206 1.00258
 N183 N 0.42483 0.19697 0.99914
 C184 C 0.45398 0.29800 0.89434
 N185 N 0.50021 0.29208 0.93471
 C186 C 0.55268 0.32044 0.92678
 C187 C 0.55978 0.35784 0.87733
 C188 C 0.45941 0.33447 0.84376
 C189 C 0.49796 0.26302 1.12876
 C190 C 0.50798 0.29648 1.18154
 C191 C 0.52158 0.38457 1.12036
 C192 C 0.51056 0.34971 1.06896
 N193 N 0.50087 0.28970 1.07380
 H194 H 0.41296 0.27446 0.90119
 H195 H 0.58893 0.31416 0.95931
 H196 H 0.60168 0.38049 0.87176
 H197 H 0.42182 0.33954 0.81262
 H198 H 0.48991 0.21532 1.13146
 H199 H 0.50773 0.27399 1.22477
 H200 H 0.53069 0.43196 1.11560
 H201 H 0.51105 0.37077 1.02524
 C202 C 0.31947 0.13325 0.98340
 C203 C 0.66211 0.11859 0.98514
 C204 C 0.52080 0.35799 1.17740
 C205 C 0.51311 0.36460 0.83482
 C206 C 0.37966 0.79189 0.99416
 H207 H 0.37652 0.74503 0.98168
 C208 C 0.32789 0.82645 0.99863
 H209 H 0.28602 0.80450 0.98928
 C210 C 0.43892 0.87386 1.02614
 H211 H 0.48222 0.89161 1.03831
 C212 C 0.38807 0.90990 1.03239
 H213 H 0.39318 0.95563 1.04834
 N214 N 0.43381 0.81581 1.00764
 C215 C 0.60553 0.78246 1.07928
 H216 H 0.58793 0.75026 1.11017
 C217 C 0.66315 0.80356 1.08952
 H218 H 0.68851 0.78830 1.12891
 C219 C 0.59566 0.83901 0.98917
 H220 H 0.56935 0.85171 0.94957
 C221 C 0.65355 0.86080 0.99739
 H222 H 0.67049 0.89180 0.96469
 Zn223 Zn 0.49971 0.76132 1.01050
 N224 N 0.57307 0.79999 1.02953
 C225 C 0.55781 0.68345 0.93212
 N226 N 0.51012 0.72106 0.93544
 C227 C 0.47464 0.73228 0.88594
 C228 C 0.48593 0.70416 0.83075
 C229 C 0.57088 0.65468 0.87787
 C230 C 0.47222 0.73111 1.12736
 C231 C 0.46421 0.69501 1.17768
 C232 C 0.47699 0.60760 1.11444
 C233 C 0.48510 0.64556 1.06516
 N234 N 0.48399 0.70615 1.07287
 H235 H 0.58621 0.67632 0.97170
 H236 H 0.43824 0.76392 0.88871
 H237 H 0.45775 0.71494 0.79189
 H238 H 0.60911 0.62498 0.87621
 H239 H 0.47049 0.77943 1.13193
 H240 H 0.45502 0.71614 1.22049
 H241 H 0.47916 0.55943 1.10813
 H242 H 0.49321 0.62657 1.02120
 C243 C 0.68850 0.84192 1.04764
 C244 C 0.33127 0.88653 1.01868
 C245 C 0.46805 0.63234 1.17185
 C246 C 0.53453 0.66435 0.82634
 B247 B 0.99447 1.06388 0.04214
 B248 B 0.99202 1.06884 -0.03378
 B249 B 1.05560 1.04630 0.00249
 B250 B 1.03641 1.00321 0.06200
 B251 B 0.96093 0.99930 0.06183
 B252 B 0.93430 1.03943 0.00264
 B253 B 0.99903 0.94604 -0.04238
 B254 B 1.00146 0.94097 0.03421
 B255 B 0.93818 0.96386 -0.00298
 B256 B 0.95783 1.00755 -0.06169
 B257 B 1.03263 1.01118 -0.06191
 B258 B 1.06022 0.97031 -0.00249
 B259 B 0.55404 0.50095 0.46950
 B260 B 0.55292 0.49729 0.54627
 B261 B 0.53141 0.56121 0.51040
 B262 B 0.49404 0.54148 0.44520
 B263 B 0.49220 0.46550 0.44150
 B264 B 0.52884 0.43817 0.50364
 B265 B 0.43099 0.50095 0.54018
 B266 B 0.43205 0.50449 0.46427
 B267 B 0.45352 0.44061 0.50062
 B268 B 0.49048 0.46023 0.56489
 B269 B 0.49170 0.53584 0.56890
 B270 B 0.45636 0.56326 0.50650
 C271 C 1.01589 1.28165 0.09760
 C272 C 0.99420 1.22448 0.10952
 C273 C 1.00676 1.17619 0.07180
 C274 C 0.98821 1.12104 0.08483
 H275 H 0.96860 1.21643 0.14923
 H276 H 1.03115 1.18425 0.03147
 H277 H 1.04588 1.28616 0.06037
 H278 H 0.96294 1.11552 0.12503
 C279 C 0.95557 0.72870 0.09621
 C280 C 0.98641 0.77924 0.10441
 C281 C 0.97635 0.83144 0.06463
 C282 C 1.01050 0.87992 0.07045
 H283 H 1.01957 0.78230 0.14068
 H284 H 0.94137 0.82957 0.03042
 H285 H 0.92499 0.72525 0.05765
 H286 H 1.04855 0.87742 0.10121
 C287 C 1.04536 1.26519 -0.13030
 C288 C 1.00470 1.22397 -0.11794
 C289 C 1.02174 1.16774 -0.08698
 C290 C 0.98003 1.13035 -0.06843
 H291 H 0.95817 1.23226 -0.12877
 H292 H 1.06830 1.15779 -0.07862
 H293 H 1.09117 1.25711 -0.11589
 H294 H 0.93384 1.14205 -0.07749
 C295 C 1.03534 0.72977 -0.09688
 C296 C 1.00786 0.78193 -0.10857
 C297 C 1.02102 0.83541 -0.07169
 C298 C 0.99489 0.88802 -0.08439
 H299 H 0.97590 0.78544 -0.14594
 H300 H 1.05035 0.83045 -0.03258
 H301 H 1.06972 0.72779 -0.06162
 H302 H 0.96404 0.88983 -0.12256
 C303 C 1.08678 0.96852 0.28109
 C304 C 1.10445 0.98703 0.22704
 C305 C 1.06892 0.97470 0.17177
 C306 C 1.07790 1.00567 0.12132
 H307 H 1.14489 1.01255 0.22319
 H308 H 1.03193 0.94425 0.17440
 H309 H 1.04722 0.94125 0.28356
 H310 H 1.11393 1.03758 0.12138
 C311 C 1.14203 0.95417 -0.24958
 C312 C 1.11823 0.99595 -0.21404
 C313 C 1.09224 0.98002 -0.15586
 C314 C 1.06643 1.02241 -0.12271
 H315 H 1.11790 1.04258 -0.22757
 H316 H 1.09239 0.93367 -0.14158
 H317 H 1.14414 0.90817 -0.23378
 H318 H 1.06661 1.06799 -0.13914
 C319 C 0.90503 1.03018 0.27891
 C320 C 0.89060 1.01284 0.21963
 C321 C 0.93248 1.01531 0.17462
 C322 C 0.91902 0.99650 0.11857
 H323 H 0.84726 0.99493 0.20807
 H324 H 0.97536 1.03414 0.18556
 H325 H 0.95056 1.04341 0.28901
 H326 H 0.87339 0.98461 0.10881
 C327 C 0.90475 0.97928 -0.28202
 C328 C 0.89231 1.00337 -0.22849
 C329 C 0.93240 0.99434 -0.17580
 C330 C 0.91740 1.01412 -0.12136
 H331 H 0.85148 1.02848 -0.22275
 H332 H 0.97399 0.97111 -0.18209
 H333 H 0.94416 0.95136 -0.28582
 H334 H 0.87580 1.03812 -0.11750
 C335 C 1.26770 1.09960 -0.02757
 C336 C 1.21142 1.11634 -0.00843
 C337 C 1.16233 1.08015 -0.02083
 C338 C 1.11204 1.08830 0.00878
 H339 H 1.20612 1.15522 0.02038
 H340 H 1.16630 1.04343 -0.05257
 H341 H 1.27220 1.05595 -0.04896
 H342 H 1.11073 1.12303 0.04289
 C343 C 0.71553 1.08149 -0.02405
 C344 C 0.76842 1.09611 0.00013
 C345 C 0.82119 1.05942 -0.01128
 C346 C 0.87458 1.07694 0.00908
 H347 H 0.77324 1.13628 0.02748
 H348 H 0.81561 1.01834 -0.03649
 H349 H 0.71199 1.04330 -0.05439
 H350 H 0.87795 1.11919 0.03318
 C351 C 1.28033 0.92275 0.02780
 C352 C 1.22286 0.90841 0.00653
 C353 C 1.17291 0.94360 0.01972
 C354 C 1.12078 0.93336 -0.00923
 H355 H 1.21662 0.87050 -0.02351
 H356 H 1.17711 0.97990 0.05201
 H357 H 1.28617 0.96532 0.05103
 H358 H 1.11984 0.89882 -0.04347
 C359 C 0.75083 0.86134 0.05848
 C360 C 0.78664 0.87823 0.01453
 C361 C 0.84743 0.89936 0.02870
 C362 C 0.87923 0.92538 -0.01385
 H363 H 0.77076 0.87826 -0.03207
 H364 H 0.86485 0.89524 0.07442
 H365 H 0.76849 0.85994 0.10453
 H366 H 0.86117 0.92525 -0.05971
 C367 C 0.76980 0.47247 0.41744
 C368 C 0.71422 0.48905 0.40206
 C369 C 0.66431 0.47908 0.44242
 C370 C 0.61187 0.50538 0.43030
 H371 H 0.70526 0.51231 0.35990
 H372 H 0.67095 0.45118 0.48192
 H373 H 0.77857 0.45291 0.46160
 H374 H 0.60771 0.53310 0.39031
 C375 C 0.22205 0.46545 0.39382
 C376 C 0.27300 0.49446 0.38581
 C377 C 0.32702 0.47775 0.42101
 C378 C 0.37417 0.51367 0.42243
 H379 H 0.27538 0.53096 0.35396
 H380 H 0.32623 0.43804 0.44857
 H381 H 0.22213 0.42845 0.42554
 H382 H 0.37175 0.55477 0.39651
 C383 C 0.76730 0.53041 0.60049
 C384 C 0.71155 0.50970 0.61715
 C385 C 0.66126 0.52058 0.58044
 C386 C 0.61104 0.49021 0.58801
 H387 H 0.70725 0.48131 0.65629
 H388 H 0.66418 0.55213 0.54366
 H389 H 0.76968 0.55085 0.55615
 H390 H 0.61048 0.45591 0.62240
 C391 C 0.21536 0.53867 0.58148
 C392 C 0.26676 0.51126 0.59574
 C393 C 0.31981 0.52132 0.56038
 C394 C 0.37207 0.49764 0.57784
 H395 H 0.27000 0.48155 0.63436
 H396 H 0.31517 0.54721 0.51943
 H397 H 0.21340 0.57128 0.54524
 H398 H 0.37477 0.47247 0.61959
 C399 C 0.46248 0.59221 0.22456
 C400 C 0.47941 0.60871 0.28059
 C401 C 0.47380 0.56795 0.33220
 C402 C 0.49671 0.58263 0.38659
 H403 H 0.49904 0.65234 0.28858
 H404 H 0.45036 0.52628 0.32528
 H405 H 0.44663 0.54695 0.21665
 H406 H 0.51978 0.62471 0.39102
 C407 C 0.54975 0.63380 0.76891
 C408 C 0.50974 0.62235 0.72460
 C409 C 0.52582 0.58991 0.66900
 C410 C 0.48295 0.57203 0.63019
 H411 H 0.46366 0.63492 0.73005
 H412 H 0.57196 0.57996 0.66064
 H413 H 0.59494 0.61766 0.76417
 H414 H 0.43736 0.58305 0.64045
 C415 C 0.53522 0.39506 0.23119
 C416 C 0.50992 0.38622 0.28408
 C417 C 0.52309 0.42518 0.33639
 C418 C 0.48535 0.42699 0.38158
 H419 H 0.47690 0.35145 0.28830
 H420 H 0.56219 0.45284 0.33665
 H421 H 0.56468 0.43289 0.22615
 H422 H 0.44490 0.40115 0.37697
 C423 C 0.52166 0.40361 0.78225
 C424 C 0.49559 0.39294 0.72852
 C425 C 0.50652 0.43209 0.67707
 C426 C 0.48418 0.41888 0.62238
 H427 H 0.46711 0.35436 0.72192
 H428 H 0.53275 0.47184 0.68454
 H429 H 0.55286 0.44030 0.78707
 H430 H 0.45736 0.37900 0.61700
 C431 C 0.64908 0.74234 0.45252
 C432 C 0.62176 0.71060 0.49447
 C433 C 0.60105 0.64904 0.48221
 C434 C 0.56646 0.62202 0.52164
 H435 H 0.61332 0.73044 0.53812
 H436 H 0.61119 0.62788 0.43977
 H437 H 0.65927 0.72090 0.40998
 H438 H 0.55699 0.64554 0.56312
 C439 C 0.58154 0.21926 0.53415
 C440 C 0.59478 0.27366 0.51296
 C441 C 0.55975 0.32757 0.52811
 C442 C 0.56687 0.37823 0.49704
 H443 H 0.63204 0.27921 0.48374
 H444 H 0.52651 0.32452 0.56210
 H445 H 0.54530 0.21522 0.56507
 H446 H 0.59844 0.37786 0.46111
 C447 C 0.42232 0.78370 0.48007
 C448 C 0.39979 0.72917 0.48764
 C449 C 0.43770 0.67573 0.48614
 C450 C 0.41935 0.62396 0.50883
 H451 H 0.35281 0.72400 0.49580
 H452 H 0.48040 0.67956 0.46587
 H453 H 0.46991 0.78957 0.47683
 H454 H 0.37734 0.62349 0.53106
 C455 C 0.40268 0.22307 0.46910
 C456 C 0.38758 0.27793 0.48786
 C457 C 0.42537 0.33000 0.47656
 C458 C 0.41290 0.38272 0.50201
 H459 H 0.34702 0.28482 0.51219
 H460 H 0.46436 0.32432 0.44963
 H461 H 0.44216 0.21749 0.44262
 H462 H 0.37398 0.38586 0.52955
   
