data_POSCAR
  _audit_creation_date              2014-09-24
  _audit_creation_method            'ToBaCCo'
  _symmetry_space_group_name_H-M    'P1'
  _symmetry_Int_Tables_number       1
  _symmetry_cell_setting            triclinic
  loop_
  _symmetry_equiv_pos_as_xyz
 x,y,z
_cell_length_a 46.0101
_cell_length_b 44.1620
_cell_length_c 41.7669
_cell_angle_alpha 89.852500
_cell_angle_beta 90.089800
_cell_angle_gamma 118.528800
loop_
  _atom_site_label
  _atom_site_type_symbol
  _atom_site_fract_x
  _atom_site_fract_y
  _atom_site_fract_z
O1 O 0.03926 0.46212 0.01195
 O2 O 0.00373 0.50746 -0.03490
 O3 O 0.04294 0.52269 0.01409
 O4 O -0.00054 0.44744 -0.03789
 O5 O -0.04198 0.42454 -0.00372
 O6 O -0.00110 0.50390 0.04506
 O7 O -0.04079 0.48414 -0.00437
 O8 O -0.00223 0.44488 0.04612
 Cu9 Cu 0.02573 0.48677 -0.01486
 Cu10 Cu -0.02591 0.46216 0.02399
 C11 C 0.02524 0.44709 0.03784
 C12 C -0.02506 0.50273 -0.02815
 C13 C 0.02831 0.52650 0.03826
 C14 C -0.02885 0.42326 -0.03012
 O15 O 0.56540 0.51605 -0.01023
 O16 O 0.48893 0.48816 0.03627
 O17 O 0.50617 0.46468 -0.01278
 O18 O 0.54784 0.53989 0.03958
 O19 O 0.53516 0.57080 0.00638
 O20 O 0.48949 0.49363 -0.04404
 O21 O 0.47532 0.52026 0.00561
 O22 O 0.54994 0.54472 -0.04328
 Cu23 Cu 0.52877 0.49934 0.01640
 Cu24 Cu 0.51106 0.53536 -0.02218
 C25 C 0.57039 0.53442 -0.03516
 C26 C 0.46942 0.50002 0.02929
 C27 C 0.49039 0.46598 -0.03726
 C28 C 0.54821 0.56800 0.03227
 O29 O 0.50068 1.00714 -0.04099
 O30 O 0.42818 0.96012 0.01074
 O31 O 0.44282 1.00277 -0.03740
 O32 O 0.48673 0.96481 0.00785
 O33 O 0.50257 1.00695 0.04314
 O34 O 0.46510 1.04816 -0.00581
 O35 O 0.44580 1.00534 0.04249
 O36 O 0.52208 1.04942 -0.00569
 Cu37 Cu 0.46271 0.97923 -0.01826
 Cu38 Cu 0.48588 1.03192 0.02185
 C39 C 0.52369 1.03624 -0.03218
 C40 C 0.42441 0.97472 0.03534
 C41 C 0.44740 1.03265 -0.02993
 C42 C 0.50108 0.97890 0.03390
 O43 O 1.05155 0.52272 0.49595
 O44 O 1.00960 0.44693 0.54786
 O45 O 1.04857 0.46214 0.49784
 O46 O 1.01222 0.50634 0.54522
 O47 O 0.96774 0.48282 0.51462
 O48 O 1.00734 0.44561 0.46356
 O49 O 0.96762 0.42403 0.51409
 O50 O 1.00709 0.50373 0.46549
 Cu51 Cu 1.03493 0.48651 0.52482
 Cu52 Cu 0.98307 0.46166 0.48621
 C53 C 1.03644 0.52657 0.47212
 C54 C 0.98125 0.42285 0.54024
 C55 C 1.03488 0.44774 0.47163
 C56 C 0.98326 0.50124 0.53850
 O57 O 0.55579 0.54255 0.45122
 O58 O 0.51485 0.46700 0.50359
 O59 O 0.49696 0.49079 0.45497
 O60 O 0.57388 0.51888 0.50113
 O61 O 0.55841 0.54745 0.53411
 O62 O 0.48335 0.52248 0.48599
 O63 O 0.49837 0.49576 0.53524
 O64 O 0.54293 0.57313 0.48446
 Cu65 Cu 0.53708 0.50199 0.47452
 Cu66 Cu 0.51935 0.53766 0.51333
 C67 C 0.55583 0.57048 0.45846
 C68 C 0.49937 0.46825 0.52823
 C69 C 0.47741 0.50250 0.46221
 C70 C 0.57892 0.53729 0.52598
 O71 O 0.49436 -0.03803 0.48769
 O72 O 0.45343 -0.00169 0.53925
 O73 O 0.43583 -0.04291 0.48936
 O74 O 0.51130 0.00110 0.53788
 O75 O 0.52924 0.04666 0.50624
 O76 O 0.45243 0.00314 0.45880
 O77 O 0.47225 0.04412 0.50795
 O78 O 0.51022 0.00667 0.45521
 Cu79 Cu 0.47183 -0.02496 0.51674
 Cu80 Cu 0.49290 0.02966 0.47881
 C81 C 0.50870 -0.02201 0.46229
 C82 C 0.45659 0.02790 0.53272
 C83 C 0.43118 -0.02770 0.46560
 C84 C 0.53302 0.03144 0.53051
 C85 C 0.32685 0.44289 0.23096
 C86 C 0.32785 0.44363 0.26377
 C87 C 0.29830 0.44158 0.27399
 N88 N 0.27942 0.43982 0.24850
 C89 C 0.29670 0.44036 0.22215
 C90 C 0.29076 0.44520 0.30606
 C91 C 0.26000 0.44225 0.31542
 C92 C 0.25429 0.45499 0.34365
 C93 C 0.22122 0.44570 0.34415
 C94 C 0.20729 0.42648 0.31673
 N95 N 0.23121 0.42473 0.29924
 C96 C 0.17307 0.40944 0.30917
 C97 C 0.16185 0.39730 0.27789
 C98 C 0.12941 0.37488 0.26942
 C99 C 0.12836 0.37426 0.23654
 C100 C 0.16025 0.39607 0.22613
 N101 N 0.18068 0.40992 0.25140
 C102 C 0.16943 0.40659 0.19413
 C103 C 0.20293 0.42257 0.18415
 C104 C 0.21475 0.43960 0.15524
 C105 C 0.24783 0.44900 0.15391
 C106 C 0.25563 0.43841 0.18242
 N107 N 0.22806 0.42202 0.20058
 C108 C 0.28714 0.44239 0.19038
 H109 H 0.34662 0.44517 0.21548
 H110 H 0.34855 0.44662 0.27828
 H111 H 0.22586 0.40821 0.22150
 H112 H 0.27196 0.46966 0.36204
 H113 H 0.20902 0.45236 0.36280
 H114 H 0.10852 0.36122 0.28525
 H115 H 0.10654 0.36011 0.22194
 H116 H 0.26414 0.46233 0.13414
 H117 H 0.22755 0.40934 0.27920
 H118 H 0.20114 0.44472 0.13682
 C119 C 0.63469 0.74613 0.26069
 C120 C 0.63416 0.74592 0.22779
 C121 C 0.61637 0.76248 0.21861
 N122 N 0.60641 0.77313 0.24462
 C123 C 0.61720 0.76280 0.27035
 C124 C 0.60437 0.76237 0.18750
 C125 C 0.59229 0.78534 0.17900
 C126 C 0.57202 0.78173 0.15306
 C127 C 0.56706 0.81011 0.15302
 C128 C 0.58433 0.83015 0.17900
 N129 N 0.59963 0.81490 0.19467
 C130 C 0.58673 0.86226 0.18736
 C131 C 0.59542 0.87542 0.21874
 C132 C 0.60445 0.90888 0.22797
 C133 C 0.60513 0.90919 0.26087
 C134 C 0.59646 0.87589 0.27053
 N135 N 0.59093 0.85542 0.24476
 C136 C 0.58908 0.86330 0.30223
 C137 C 0.58674 0.83120 0.31068
 C138 C 0.57032 0.81156 0.33722
 C139 C 0.57514 0.78309 0.33710
 C140 C 0.59451 0.78627 0.31057
 N141 N 0.60139 0.81562 0.29460
 C142 C 0.60623 0.76311 0.30180
 H143 H 0.64533 0.73401 0.27579
 H144 H 0.64430 0.73361 0.21241
 H145 H 0.61755 0.82598 0.27528
 H146 H 0.56146 0.76069 0.13614
 H147 H 0.55204 0.81509 0.13605
 H148 H 0.60899 0.93048 0.21262
 H149 H 0.61034 0.93109 0.27595
 H150 H 0.56511 0.76230 0.35438
 H151 H 0.61640 0.82555 0.21349
 H152 H 0.55595 0.81687 0.35462
 C153 C 0.13223 0.67336 0.27130
 C154 C 0.13164 0.67318 0.23845
 C155 C 0.14722 0.70736 0.22874
 N156 N 0.15716 0.72838 0.25451
 C157 C 0.14813 0.70765 0.28055
 C158 C 0.15116 0.71886 0.19665
 C159 C 0.17287 0.75339 0.18795
 C160 C 0.17297 0.76815 0.15857
 C161 C 0.20040 0.80029 0.15821
 C162 C 0.21625 0.80420 0.18736
 N163 N 0.19915 0.77566 0.20544
 C164 C 0.24755 0.83184 0.19540
 C165 C 0.25935 0.83833 0.22722
 C166 C 0.29183 0.85998 0.23615
 C167 C 0.29245 0.86007 0.26899
 C168 C 0.26032 0.83856 0.27901
 N169 N 0.24012 0.82535 0.25344
 C170 C 0.24962 0.83237 0.31121
 C171 C 0.21848 0.80491 0.32002
 C172 C 0.20337 0.80137 0.34952
 C173 C 0.17594 0.76924 0.34989
 C174 C 0.17506 0.75414 0.32057
 N175 N 0.20086 0.77617 0.30243
 C176 C 0.15315 0.71952 0.31251
 H177 H 0.12240 0.65079 0.28655
 H178 H 0.12128 0.65044 0.22350
 H179 H 0.20868 0.76994 0.28128
 H180 H 0.15560 0.75657 0.13911
 H181 H 0.20829 0.81831 0.13840
 H182 H 0.31296 0.87395 0.22068
 H183 H 0.31419 0.87412 0.28372
 H184 H 0.15909 0.75788 0.36978
 H185 H 0.20755 0.76973 0.22644
 H186 H 0.21177 0.81963 0.36907
 C187 C 0.88003 0.54927 0.76947
 C188 C 0.88085 0.54904 0.73664
 C189 C 0.86216 0.56413 0.72613
 N190 N 0.85005 0.57365 0.75137
 C191 C 0.86084 0.56446 0.77789
 C192 C 0.85742 0.57013 0.69378
 C193 C 0.83311 0.57923 0.68429
 C194 C 0.83165 0.59249 0.65457
 C195 C 0.80227 0.59361 0.65353
 C196 C 0.78661 0.58094 0.68263
 N197 N 0.80572 0.57256 0.70133
 C198 C 0.75399 0.57389 0.69003
 C199 C 0.74178 0.56828 0.72174
 C200 C 0.70882 0.55506 0.73025
 C201 C 0.70783 0.55491 0.76311
 C202 C 0.74022 0.56807 0.77356
 N203 N 0.76093 0.57636 0.74824
 C204 C 0.75053 0.57342 0.80591
 C205 C 0.78282 0.58093 0.81526
 C206 C 0.79685 0.59378 0.84491
 C207 C 0.82640 0.59302 0.84596
 C208 C 0.82956 0.57974 0.81691
 N209 N 0.80307 0.57277 0.79824
 C210 C 0.85446 0.57083 0.80954
 H211 H 0.89192 0.53906 0.78527
 H212 H 0.89349 0.53861 0.72224
 H213 H 0.79686 0.55854 0.77717
 H214 H 0.84950 0.59975 0.63534
 H215 H 0.79306 0.60190 0.63332
 H216 H 0.68763 0.54609 0.71450
 H217 H 0.68572 0.54579 0.77756
 H218 H 0.84319 0.60047 0.86613
 H219 H 0.79830 0.55844 0.72250
 H220 H 0.78642 0.60194 0.86412
 C221 C 0.40648 0.13005 0.76720
 C222 C 0.40759 0.12959 0.73437
 C223 C 0.39475 0.15044 0.72347
 N224 N 0.38557 0.16334 0.74845
 C225 C 0.39282 0.15101 0.77522
 C226 C 0.39114 0.15711 0.69102
 C227 C 0.38604 0.18505 0.68180
 C228 C 0.37569 0.18941 0.65175
 C229 C 0.37974 0.22239 0.65081
 C230 C 0.39240 0.23717 0.68031
 N231 N 0.39563 0.21405 0.69919
 C232 C 0.40507 0.27245 0.68778
 C233 C 0.41083 0.28436 0.71971
 C234 C 0.43004 0.31833 0.72911
 C235 C 0.42875 0.31858 0.76193
 C236 C 0.40870 0.28475 0.77144
 N237 N 0.39768 0.26393 0.74559
 C238 C 0.40029 0.27322 0.80335
 C239 C 0.38624 0.23793 0.81138
 C240 C 0.37063 0.22342 0.84008
 C241 C 0.36669 0.19049 0.84101
 C242 C 0.38004 0.18591 0.81285
 N243 N 0.39126 0.21467 0.79469
 C244 C 0.38668 0.15838 0.80664
 H245 H 0.41545 0.11703 0.78318
 H246 H 0.41750 0.11614 0.72025
 H247 H 0.40670 0.22023 0.77489
 H248 H 0.36749 0.17125 0.63212
 H249 H 0.37523 0.23462 0.63030
 H250 H 0.44416 0.34055 0.71402
 H251 H 0.44171 0.34102 0.77697
 H252 H 0.35674 0.17260 0.86083
 H253 H 0.40875 0.21968 0.72061
 H254 H 0.36431 0.23590 0.85904
 C255 C 0.67724 0.11411 0.76731
 C256 C 0.67853 0.11304 0.73452
 C257 C 0.70559 0.14356 0.72497
 N258 N 0.72050 0.16342 0.75076
 C259 C 0.70308 0.14560 0.77667
 C260 C 0.71408 0.15460 0.69295
 C261 C 0.74434 0.18365 0.68468
 C262 C 0.75103 0.20140 0.65587
 C263 C 0.78350 0.22682 0.65710
 C264 C 0.79609 0.22324 0.68623
 N265 N 0.77199 0.19689 0.70287
 C266 C 0.82932 0.24276 0.69651
 C267 C 0.83816 0.24235 0.72881
 C268 C 0.87004 0.25365 0.74000
 C269 C 0.86846 0.25468 0.77280
 C270 C 0.83571 0.24428 0.78040
 N271 N 0.81722 0.23638 0.75351
 C272 C 0.82376 0.24697 0.81082
 C273 C 0.78945 0.22891 0.81762
 C274 C 0.77371 0.23590 0.84259
 C275 C 0.74107 0.21076 0.84192
 C276 C 0.73771 0.18947 0.81627
 N277 N 0.76720 0.20076 0.80151
 C278 C 0.70847 0.15924 0.80805
 H279 H 0.65885 0.09428 0.78239
 H280 H 0.66114 0.09238 0.71951
 H281 H 0.77251 0.18778 0.78355
 H282 H 0.73440 0.19680 0.63595
 H283 H 0.79619 0.24559 0.63848
 H284 H 0.89222 0.26143 0.72590
 H285 H 0.88921 0.26332 0.78910
 H286 H 0.72195 0.20852 0.85832
 H287 H 0.77505 0.18632 0.72413
 H288 H 0.78444 0.25688 0.85956
 C289 C 0.07925 0.41664 0.10269
 C290 C 0.05866 0.42989 0.11422
 C291 C 0.03943 0.43735 0.09284
 C292 C 0.04199 0.43413 0.05973
 C293 C 0.06289 0.42175 0.04814
 C294 C 0.08097 0.41257 0.06936
 C295 C 0.10016 0.41004 0.12636
 C296 C 0.11919 0.39392 0.11815
 C297 C 0.14033 0.39103 0.14060
 C298 C 0.14356 0.40485 0.17144
 C299 C 0.12324 0.41907 0.18028
 C300 C 0.10112 0.42099 0.15833
 C301 C 0.05883 0.43759 0.14674
 C302 C 0.08027 0.43413 0.16816
 H303 H 0.04320 0.44793 0.15551
 H304 H 0.08054 0.44185 0.19282
 H305 H 0.02404 0.44789 0.10187
 H306 H 0.06547 0.41949 0.02261
 H307 H 0.15514 0.37908 0.13356
 H308 H 0.12524 0.42946 0.20417
 H309 H 0.09709 0.40367 0.05923
 H310 H 0.11815 0.38360 0.09453
 C311 C 0.58024 0.65023 0.10046
 C312 C 0.58433 0.65794 0.06735
 C313 C 0.57448 0.63113 0.04490
 C314 C 0.56207 0.59687 0.05517
 C315 C 0.56078 0.58982 0.08803
 C316 C 0.56960 0.61607 0.11044
 C317 C 0.58732 0.67878 0.12351
 C318 C 0.57810 0.67262 0.15594
 C319 C 0.58377 0.69979 0.17631
 C320 C 0.59963 0.73397 0.16525
 C321 C 0.60900 0.74042 0.13291
 C322 C 0.60186 0.71299 0.11177
 C323 C 0.59817 0.69228 0.05704
 C324 C 0.60767 0.71931 0.07887
 H325 H 0.60196 0.69837 0.03173
 H326 H 0.61850 0.74544 0.06973
 H327 H 0.57631 0.63685 0.01949
 H328 H 0.55163 0.56363 0.09651
 H329 H 0.57526 0.69399 0.20085
 H330 H 0.62072 0.76670 0.12402
 H331 H 0.56777 0.60909 0.13541
 H332 H 0.56539 0.64692 0.16579
 C333 C 0.34314 0.91768 0.09982
 C334 C 0.35132 0.90049 0.07577
 C335 C 0.37690 0.91944 0.05402
 C336 C 0.39545 0.95543 0.05639
 C337 C 0.38730 0.97246 0.08016
 C338 C 0.36138 0.95393 0.10149
 C339 C 0.31648 0.89633 0.12333
 C340 C 0.30577 0.91083 0.14763
 C341 C 0.28251 0.88981 0.17027
 C342 C 0.26949 0.85394 0.16933
 C343 C 0.27879 0.83915 0.14442
 C344 C 0.30192 0.85997 0.12138
 C345 C 0.33479 0.86443 0.07424
 C346 C 0.31091 0.84461 0.09678
 H347 H 0.34105 0.85128 0.05582
 H348 H 0.29947 0.81678 0.09507
 H349 H 0.38322 0.90594 0.03598
 H350 H 0.40124 1.00022 0.08253
 H351 H 0.27520 0.90160 0.18911
 H352 H 0.26860 0.81137 0.14355
 H353 H 0.35660 0.96841 0.11952
 H354 H 0.31526 0.93827 0.14980
 C355 C 0.93424 0.53976 0.60145
 C356 C 0.91622 0.51488 0.57779
 C357 C 0.93265 0.50357 0.55663
 C358 C 0.96687 0.51577 0.55915
 C359 C 0.98474 0.54043 0.58258
 C360 C 0.96874 0.55246 0.60336
 C361 C 0.91549 0.55029 0.62424
 C362 C 0.93103 0.57557 0.64809
 C363 C 0.91224 0.58284 0.66994
 C364 C 0.87760 0.56500 0.66868
 C365 C 0.86193 0.54089 0.64427
 C366 C 0.88053 0.53360 0.62200
 C367 C 0.88176 0.50053 0.57600
 C368 C 0.86427 0.50939 0.59786
 H369 H 0.86798 0.48148 0.55788
 H370 H 0.83754 0.49692 0.59594
 H371 H 0.91847 0.48421 0.53886
 H372 H 1.01116 0.55023 0.58509
 H373 H 0.92473 0.60193 0.68838
 H374 H 0.83513 0.52719 0.64314
 H375 H 0.98371 0.57108 0.62114
 H376 H 0.95757 0.58977 0.65044
 C377 C 0.45499 0.37959 0.59044
 C378 C 0.44638 0.40625 0.59344
 C379 C 0.46070 0.43509 0.57302
 C380 C 0.48311 0.43749 0.54910
 C381 C 0.49051 0.41034 0.54542
 C382 C 0.47674 0.38183 0.56575
 C383 C 0.44086 0.35034 0.61392
 C384 C 0.45033 0.32433 0.61474
 C385 C 0.43796 0.29875 0.63821
 C386 C 0.41549 0.29803 0.66118
 C387 C 0.40508 0.32315 0.66005
 C388 C 0.41811 0.34965 0.63708
 C389 C 0.42362 0.40398 0.61684
 C390 C 0.40948 0.37607 0.63791
 H391 H 0.41669 0.42415 0.61895
 H392 H 0.39212 0.37562 0.65568
 H393 H 0.45441 0.45568 0.57577
 H394 H 0.50753 0.41134 0.52703
 H395 H 0.44665 0.27987 0.63894
 H396 H 0.38779 0.32275 0.67788
 H397 H 0.48356 0.36195 0.56170
 H398 H 0.46798 0.32379 0.59814
 C399 C 0.61448 0.08248 0.59565
 C400 C 0.59965 0.10074 0.58112
 C401 C 0.57439 0.08442 0.55837
 C402 C 0.56229 0.04947 0.55119
 C403 C 0.57643 0.03117 0.56608
 C404 C 0.60248 0.04749 0.58775
 C405 C 0.64120 0.10076 0.61999
 C406 C 0.65958 0.08603 0.63375
 C407 C 0.68355 0.10380 0.65703
 C408 C 0.68942 0.13635 0.66740
 C409 C 0.67173 0.15151 0.65357
 C410 C 0.64832 0.13438 0.62944
 C411 C 0.60905 0.13463 0.59041
 C412 C 0.63234 0.15081 0.61454
 H413 H 0.59752 0.14853 0.57950
 H414 H 0.63813 0.17673 0.62145
 H415 H 0.56286 0.09839 0.54753
 H416 H 0.56712 0.00403 0.56106
 H417 H 0.69736 0.09199 0.66729
 H418 H 0.67654 0.17688 0.66143
 H419 H 0.61215 0.03203 0.59875
 H420 H 0.65602 0.06102 0.62668
 C421 C 0.41359 0.08582 0.90883
 C422 C 0.40261 0.05029 0.90412
 C423 C 0.41320 0.03241 0.92489
 C424 C 0.43399 0.04925 0.95105
 C425 C 0.44242 0.08381 0.95702
 C426 C 0.43252 0.10187 0.93620
 C427 C 0.40503 0.10493 0.88417
 C428 C 0.41926 0.14112 0.88398
 C429 C 0.41258 0.15805 0.85918
 C430 C 0.39097 0.13944 0.83429
 C431 C 0.37575 0.10329 0.83479
 C432 C 0.38352 0.08603 0.85888
 C433 C 0.38138 0.03299 0.87857
 C434 C 0.37141 0.05034 0.85687
 H435 H 0.37239 0.00562 0.87524
 H436 H 0.35507 0.03582 0.83745
 H437 H 0.40556 0.00547 0.92032
 H438 H 0.45775 0.09753 0.97729
 H439 H 0.42510 0.18597 0.85899
 H440 H 0.35917 0.08876 0.81550
 H441 H 0.44015 0.12844 0.94187
 H442 H 0.43670 0.15694 0.90199
 C443 C 0.65218 0.55398 0.90256
 C444 C 0.63411 0.57216 0.89823
 C445 C 0.60793 0.56630 0.91903
 C446 C 0.59964 0.54281 0.94452
 C447 C 0.61858 0.52603 0.94957
 C448 C 0.64446 0.53147 0.92893
 C449 C 0.67849 0.55927 0.87864
 C450 C 0.69588 0.54027 0.87929
 C451 C 0.71929 0.54522 0.85582
 C452 C 0.72625 0.56942 0.83130
 C453 C 0.70945 0.58884 0.83059
 C454 C 0.68530 0.58355 0.85370
 C455 C 0.64210 0.59585 0.87306
 C456 C 0.66740 0.60172 0.85152
 H457 H 0.62851 0.61004 0.86991
 H458 H 0.67254 0.62026 0.83242
 H459 H 0.59377 0.57978 0.91511
 H460 H 0.61291 0.50795 0.96915
 H461 H 0.73180 0.52976 0.85656
 H462 H 0.71475 0.60754 0.81158
 H463 H 0.65789 0.51761 0.93397
 H464 H 0.69138 0.52098 0.89728
 C465 C 0.91487 0.34640 0.90219
 C466 C 0.90662 0.34036 0.93498
 C467 C 0.92529 0.36582 0.95769
 C468 C 0.95383 0.39610 0.94832
 C469 C 0.96393 0.39969 0.91611
 C470 C 0.94445 0.37553 0.89327
 C471 C 0.89205 0.32114 0.87830
 C472 C 0.89335 0.32912 0.84557
 C473 C 0.87082 0.30529 0.82419
 C474 C 0.84738 0.27220 0.83448
 C475 C 0.84581 0.26419 0.86730
 C476 C 0.86678 0.28910 0.88939
 C477 C 0.88017 0.30876 0.94469
 C478 C 0.86160 0.28306 0.92241
 H479 H 0.87421 0.30354 0.96987
 H480 H 0.84188 0.25878 0.93110
 H481 H 0.91782 0.36181 0.98262
 H482 H 0.98611 0.42220 0.90802
 H483 H 0.87167 0.31286 0.79938
 H484 H 0.82747 0.23904 0.87577
 H485 H 0.95289 0.37994 0.86874
 H486 H 0.91077 0.35416 0.83633
 C487 C 0.54769 0.93160 0.39680
 C488 C 0.52754 0.94566 0.38574
 C489 C 0.51611 0.96195 0.40724
 C490 C 0.52268 0.96259 0.44005
 C491 C 0.54128 0.94729 0.45132
 C492 C 0.55408 0.93235 0.42992
 C493 C 0.56005 0.91520 0.37283
 C494 C 0.58343 0.90423 0.38040
 C495 C 0.59351 0.88834 0.35729
 C496 C 0.58005 0.88235 0.32631
 C497 C 0.55723 0.89380 0.31848
 C498 C 0.54799 0.91104 0.34108
 C499 C 0.51789 0.94227 0.35357
 C500 C 0.52716 0.92449 0.33192
 H501 H 0.50214 0.95268 0.34520
 H502 H 0.51832 0.92175 0.30747
 H503 H 0.50089 0.97293 0.39866
 H504 H 0.54618 0.94722 0.47669
 H505 H 0.61158 0.88026 0.36371
 H506 H 0.54661 0.88927 0.29464
 H507 H 0.56822 0.92084 0.43977
 H508 H 0.59445 0.90807 0.40387
 C509 C 0.39514 0.47964 0.39981
 C510 C 0.40556 0.45466 0.40539
 C511 C 0.43238 0.46218 0.42588
 C512 C 0.44810 0.49375 0.44210
 C513 C 0.43643 0.51758 0.43809
 C514 C 0.41042 0.51079 0.41706
 C515 C 0.36804 0.47162 0.37600
 C516 C 0.35911 0.49638 0.36537
 C517 C 0.33411 0.48779 0.34265
 C518 C 0.31694 0.45420 0.33064
 C519 C 0.32577 0.42943 0.34077
 C520 C 0.35171 0.43812 0.36267
 C521 C 0.38895 0.42228 0.39075
 C522 C 0.36209 0.41390 0.37045
 H523 H 0.39660 0.40295 0.39535
 H524 H 0.34982 0.38837 0.36000
 H525 H 0.44088 0.44335 0.42945
 H526 H 0.44809 0.54203 0.45057
 H527 H 0.32808 0.50740 0.33436
 H528 H 0.31301 0.40368 0.33077
 H529 H 0.40258 0.53014 0.41474
 H530 H 0.37165 0.52267 0.37370
 C531 C 0.08786 0.61439 0.40994
 C532 C 0.05337 0.59272 0.40650
 C533 C 0.03656 0.56443 0.42714
 C534 C 0.05358 0.55748 0.45154
 C535 C 0.08752 0.57977 0.45560
 C536 C 0.10447 0.60781 0.43515
 C537 C 0.10524 0.64305 0.38626
 C538 C 0.13983 0.66443 0.38624
 C539 C 0.15504 0.68957 0.36268
 C540 C 0.13623 0.69435 0.33877
 C541 C 0.10172 0.67393 0.33901
 C542 C 0.08619 0.64802 0.36220
 C543 C 0.03591 0.59921 0.38232
 C544 C 0.05192 0.62645 0.36084
 H545 H 0.00945 0.58284 0.37984
 H546 H 0.03732 0.63023 0.34244
 H547 H 0.01025 0.54763 0.42398
 H548 H 0.10127 0.57521 0.47435
 H549 H 0.18174 0.70494 0.36270
 H550 H 0.08714 0.67759 0.32049
 H551 H 0.13055 0.62379 0.43943
 H552 H 0.15571 0.66169 0.40368
 C553 C 0.92781 0.54217 0.90734
 C554 C 0.90900 0.51682 0.93044
 C555 C 0.92477 0.50536 0.95241
 C556 C 0.95910 0.51787 0.95112
 C557 C 0.97775 0.54320 0.92841
 C558 C 0.96242 0.55539 0.90693
 C559 C 0.90983 0.55249 0.88335
 C560 C 0.92618 0.57792 0.85973
 C561 C 0.90819 0.58473 0.83650
 C562 C 0.87356 0.56632 0.83619
 C563 C 0.85700 0.54216 0.86042
 C564 C 0.87480 0.53526 0.88401
 C565 C 0.87446 0.50204 0.93074
 C566 C 0.85771 0.51079 0.90781
 H567 H 0.86006 0.48267 0.94845
 H568 H 0.83091 0.49791 0.90854
 H569 H 0.91005 0.48551 0.96963
 H570 H 1.00428 0.55330 0.92692
 H571 H 0.92132 0.60385 0.81819
 H572 H 0.83018 0.52803 0.86031
 H573 H 0.97801 0.57445 0.88972
 H574 H 0.95278 0.59254 0.85852
 C575 C 0.44653 0.37928 0.90128
 C576 C 0.44116 0.40786 0.89589
 C577 C 0.45548 0.43653 0.91642
 C578 C 0.47453 0.43684 0.94296
 C579 C 0.47799 0.40739 0.94914
 C580 C 0.46434 0.37914 0.92864
 C581 C 0.43322 0.35048 0.87746
 C582 C 0.44088 0.32318 0.87858
 C583 C 0.42953 0.29801 0.85486
 C584 C 0.40977 0.29891 0.82970
 C585 C 0.40125 0.32547 0.82875
 C586 C 0.41357 0.35172 0.85190
 C587 C 0.42158 0.40762 0.87005
 C588 C 0.40756 0.37986 0.84889
 H589 H 0.41699 0.42924 0.86612
 H590 H 0.39265 0.38095 0.82926
 H591 H 0.45181 0.45861 0.91156
 H592 H 0.49195 0.40627 0.96961
 H593 H 0.43689 0.27809 0.85575
 H594 H 0.38614 0.32640 0.80921
 H595 H 0.46807 0.35750 0.93470
 H596 H 0.45651 0.32138 0.89690
 C597 C 0.60520 0.09135 0.90373
 C598 C 0.57219 0.07918 0.89330
 C599 C 0.54583 0.06051 0.91433
 C600 C 0.55182 0.05538 0.94623
 C601 C 0.58442 0.06912 0.95720
 C602 C 0.61091 0.08658 0.93612
 C603 C 0.63252 0.10936 0.87990
 C604 C 0.66571 0.11823 0.88638
 C605 C 0.69010 0.13422 0.86303
 C606 C 0.68221 0.14239 0.83288
 C607 C 0.64931 0.13410 0.82640
 C608 C 0.62437 0.11663 0.84915
 C609 C 0.56570 0.08631 0.86222
 C610 C 0.59128 0.10543 0.84089
 H611 H 0.54044 0.07745 0.85441
 H612 H 0.58500 0.11068 0.81725
 H613 H 0.52053 0.05069 0.90614
 H614 H 0.58935 0.06575 0.98196
 H615 H 0.71529 0.14009 0.86845
 H616 H 0.64302 0.14051 0.80324
 H617 H 0.63560 0.09652 0.94565
 H618 H 0.67314 0.11226 0.90902
 C619 C 0.08738 0.41868 0.40623
 C620 C 0.06135 0.42467 0.39569
 C621 C 0.04216 0.43101 0.41800
 C622 C 0.05091 0.43571 0.45063
 C623 C 0.07776 0.43123 0.46084
 C624 C 0.09525 0.42199 0.43908
 C625 C 0.10738 0.41229 0.38156
 C626 C 0.12999 0.40037 0.38921
 C627 C 0.14978 0.39731 0.36539
 C628 C 0.14859 0.40760 0.33375
 C629 C 0.12475 0.41768 0.32581
 C630 C 0.10328 0.41856 0.34911
 C631 C 0.05626 0.42698 0.36288
 C632 C 0.07770 0.42549 0.34016
 H633 H 0.03661 0.43205 0.35474
 H634 H 0.07393 0.42935 0.31518
 H635 H 0.02225 0.43545 0.40939
 H636 H 0.08532 0.43488 0.48573
 H637 H 0.16702 0.38815 0.37193
 H638 H 0.12312 0.42529 0.30145
 H639 H 0.11588 0.41920 0.44805
 H640 H 0.13248 0.39318 0.41339
 C641 C 0.58535 0.65209 0.38957
 C642 C 0.59028 0.66010 0.42256
 C643 C 0.58129 0.63351 0.44526
 C644 C 0.56897 0.59921 0.43528
 C645 C 0.56691 0.59191 0.40247
 C646 C 0.57483 0.61792 0.37985
 C647 C 0.59147 0.68033 0.36635
 C648 C 0.58125 0.67378 0.33419
 C649 C 0.58613 0.70068 0.31367
 C650 C 0.60221 0.73499 0.32425
 C651 C 0.61251 0.74183 0.35634
 C652 C 0.60614 0.71465 0.37768
 C653 C 0.60414 0.69452 0.43251
 C654 C 0.61284 0.72132 0.41042
 H655 H 0.60858 0.70086 0.45771
 H656 H 0.62375 0.74752 0.41927
 H657 H 0.58371 0.63943 0.47062
 H658 H 0.55780 0.56569 0.39420
 H659 H 0.57688 0.69457 0.28938
 H660 H 0.62439 0.76819 0.36489
 H661 H 0.57242 0.61075 0.35493
 H662 H 0.56836 0.64796 0.32473
 C663 C 0.34886 0.91768 0.40422
 C664 C 0.35559 0.90049 0.42944
 C665 C 0.38181 0.91908 0.45068
 C666 C 0.40296 0.95460 0.44627
 C667 C 0.39627 0.97149 0.42101
 C668 C 0.36949 0.95342 0.40047
 C669 C 0.32122 0.89667 0.38151
 C670 C 0.31106 0.91143 0.35688
 C671 C 0.28685 0.89056 0.33493
 C672 C 0.27250 0.85456 0.33675
 C673 C 0.28118 0.83963 0.36216
 C674 C 0.30497 0.86035 0.38474
 C675 C 0.33711 0.86460 0.43249
 C676 C 0.31280 0.84490 0.41025
 H677 H 0.34230 0.85139 0.45175
 H678 H 0.29999 0.81712 0.41303
 H679 H 0.38664 0.90536 0.46975
 H680 H 0.41195 0.99879 0.41680
 H681 H 0.27990 0.90253 0.31588
 H682 H 0.26990 0.81179 0.36389
 H683 H 0.36601 0.96773 0.38125
 H684 H 0.32160 0.93895 0.35405
 C685 C 0.54072 0.92969 0.09577
 C686 C 0.52085 0.94346 0.10810
 C687 C 0.50897 0.96030 0.08767
 C688 C 0.51490 0.96199 0.05468
 C689 C 0.53308 0.94686 0.04209
 C690 C 0.54627 0.93124 0.06243
 C691 C 0.55393 0.91307 0.11876
 C692 C 0.57716 0.90235 0.10995
 C693 C 0.58838 0.88665 0.13233
 C694 C 0.57623 0.88064 0.16381
 C695 C 0.55337 0.89160 0.17279
 C696 C 0.54300 0.90860 0.15093
 C697 C 0.51212 0.93951 0.14052
 C698 C 0.52224 0.92164 0.16130
 H699 H 0.49655 0.94968 0.14984
 H700 H 0.51422 0.91860 0.18604
 H701 H 0.49407 0.97115 0.09730
 H702 H 0.53750 0.94761 0.01656
 H703 H 0.60640 0.87887 0.12500
 H704 H 0.54373 0.88699 0.19702
 H705 H 0.56019 0.92002 0.05164
 H706 H 0.58726 0.90631 0.08607
 C707 C 0.38789 0.47648 0.09282
 C708 C 0.39869 0.45185 0.08720
 C709 C 0.42514 0.45955 0.06620
 C710 C 0.44020 0.49100 0.04961
 C711 C 0.42809 0.51445 0.05363
 C712 C 0.40238 0.50744 0.07510
 C713 C 0.36140 0.46838 0.11733
 C714 C 0.35215 0.49287 0.12793
 C715 C 0.32802 0.48435 0.15155
 C716 C 0.31204 0.45108 0.16457
 C717 C 0.32101 0.42652 0.15431
 C718 C 0.34610 0.43516 0.13144
 C719 C 0.38298 0.41968 0.10244
 C720 C 0.35674 0.41124 0.12354
 H721 H 0.39092 0.40062 0.09780
 H722 H 0.34523 0.38591 0.13453
 H723 H 0.43395 0.44099 0.06264
 H724 H 0.43922 0.53878 0.04087
 H725 H 0.32182 0.50379 0.15982
 H726 H 0.30913 0.40102 0.16500
 H727 H 0.39423 0.52653 0.07747
 H728 H 0.36384 0.51894 0.11891
 C729 C 0.08217 0.61355 0.10048
 C730 C 0.04776 0.59205 0.10483
 C731 C 0.03011 0.56398 0.08424
 C732 C 0.04621 0.55712 0.05897
 C733 C 0.08007 0.57923 0.05410
 C734 C 0.09783 0.60701 0.07448
 C735 C 0.10048 0.64206 0.12399
 C736 C 0.13508 0.66325 0.12304
 C737 C 0.15117 0.68841 0.14630
 C738 C 0.13327 0.69342 0.17090
 C739 C 0.09875 0.67307 0.17173
 C740 C 0.08233 0.64714 0.14882
 C741 C 0.03124 0.59857 0.12982
 C742 C 0.04809 0.62571 0.15115
 H743 H 0.00485 0.58234 0.13304
 H744 H 0.03419 0.62955 0.17016
 H745 H 0.00388 0.54731 0.08806
 H746 H 0.09315 0.57475 0.03471
 H747 H 0.17788 0.70368 0.14547
 H748 H 0.08485 0.67687 0.19080
 H749 H 0.12379 0.62287 0.06949
 H750 H 0.15032 0.66038 0.10501
 C751 C 0.42054 0.07802 0.59781
 C752 C 0.44468 0.09714 0.57443
 C753 C 0.45523 0.08027 0.55273
 C754 C 0.44311 0.04451 0.55448
 C755 C 0.41950 0.02554 0.57787
 C756 C 0.40813 0.04199 0.59915
 C757 C 0.41044 0.09731 0.62089
 C758 C 0.38545 0.08085 0.64408
 C759 C 0.37832 0.10020 0.66609
 C760 C 0.39609 0.13632 0.66570
 C761 C 0.42010 0.15288 0.64199
 C762 C 0.42707 0.13378 0.61946
 C763 C 0.45903 0.13311 0.57342
 C764 C 0.45078 0.15108 0.59575
 H765 H 0.47758 0.14772 0.55555
 H766 H 0.46320 0.17898 0.59445
 H767 H 0.47392 0.09532 0.53511
 H768 H 0.40989 -0.00207 0.57979
 H769 H 0.35935 0.08697 0.68397
 H770 H 0.43389 0.18081 0.64154
 H771 H 0.39020 0.02619 0.61685
 H772 H 0.37129 0.05316 0.64570
 C773 C 0.65999 0.55688 0.58934
 C774 C 0.64233 0.57559 0.59264
 C775 C 0.61657 0.56984 0.57132
 C776 C 0.60819 0.54586 0.54635
 C777 C 0.62681 0.52862 0.54220
 C778 C 0.65235 0.53399 0.56336
 C779 C 0.68561 0.56185 0.61404
 C780 C 0.70252 0.54235 0.61449
 C781 C 0.72493 0.54673 0.63890
 C782 C 0.73135 0.57086 0.66327
 C783 C 0.71525 0.59096 0.66273
 C784 C 0.69210 0.58625 0.63868
 C785 C 0.65015 0.59955 0.61743
 C786 C 0.67474 0.60504 0.63974
 H787 H 0.63688 0.61415 0.61976
 H788 H 0.67969 0.62371 0.65859
 H789 H 0.60266 0.58369 0.57452
 H790 H 0.62104 0.51015 0.52303
 H791 H 0.73697 0.53080 0.63909
 H792 H 0.72017 0.60962 0.68160
 H793 H 0.66549 0.51969 0.55911
 H794 H 0.69830 0.52304 0.59668
 C795 C 0.92403 0.34494 0.60925
 C796 C 0.92169 0.33602 0.57648
 C797 C 0.94060 0.36132 0.55363
 C798 C 0.96319 0.39484 0.56343
 C799 C 0.96739 0.40256 0.59619
 C800 C 0.94799 0.37808 0.61884
 C801 C 0.90089 0.31871 0.63244
 C802 C 0.89677 0.32731 0.66389
 C803 C 0.87373 0.30252 0.68427
 C804 C 0.85484 0.26818 0.67435
 C805 C 0.85909 0.25922 0.64307
 C806 C 0.88089 0.28456 0.62168
 C807 C 0.90070 0.30196 0.56700
 C808 C 0.88157 0.27651 0.58931
 H809 H 0.89932 0.29477 0.54204
 H810 H 0.86599 0.25048 0.58085
 H811 H 0.93787 0.35498 0.52836
 H812 H 0.98493 0.42816 0.60432
 H813 H 0.87026 0.31039 0.70788
 H814 H 0.84436 0.23286 0.63502
 H815 H 0.95209 0.38558 0.64369
 H816 H 0.91009 0.35334 0.67279
   
