data_POSCAR
  _audit_creation_date              2014-09-24
  _audit_creation_method            'ToBaCCo'
  _symmetry_space_group_name_H-M    'P1'
  _symmetry_Int_Tables_number       1
  _symmetry_cell_setting            triclinic
  loop_
  _symmetry_equiv_pos_as_xyz
 x,y,z
_cell_length_a 69.4916
_cell_length_b 69.4995
_cell_length_c 69.4272
_cell_angle_alpha 90.083800
_cell_angle_beta 90.092200
_cell_angle_gamma 90.432800
loop_
  _atom_site_label
  _atom_site_type_symbol
  _atom_site_fract_x
  _atom_site_fract_y
  _atom_site_fract_z
C1 C 0.22132 0.51348 1.02396
 H2 H 0.22078 0.52439 1.01288
 C3 C 0.20855 0.51419 1.03943
 H4 H 0.19808 0.52561 1.03949
 C5 C 0.23488 0.48473 1.03582
 H6 H 0.24505 0.47315 1.03426
 C7 C 0.22235 0.48480 1.05153
 H8 H 0.22392 0.47351 1.06208
 N9 N 0.23422 0.49898 1.02249
 C10 C 0.27970 0.52148 0.98546
 H11 H 0.27979 0.51051 0.97439
 C12 C 0.29299 0.53662 0.98479
 H13 H 0.30310 0.53736 0.97296
 C14 C 0.26639 0.53371 1.01435
 H15 H 0.25629 0.53229 1.02608
 C16 C 0.27943 0.54911 1.01425
 H17 H 0.27919 0.55941 1.02596
 Zn18 Zn 0.25010 0.49864 1.00037
 N19 N 0.26669 0.52035 1.00002
 C20 C 0.23438 0.51288 0.96529
 N21 N 0.23356 0.49864 0.97869
 C22 C 0.22007 0.48441 0.97763
 C23 C 0.20680 0.48399 0.96251
 C24 C 0.22139 0.51302 0.94992
 C25 C 0.27930 0.47518 1.01450
 C26 C 0.29198 0.45971 1.01488
 C27 C 0.27708 0.44751 0.98582
 C28 C 0.26465 0.46321 0.98602
 N29 N 0.26590 0.47658 1.00030
 H30 H 0.24487 0.52435 0.96666
 H31 H 0.21957 0.47341 0.98863
 H32 H 0.19631 0.47242 0.96183
 H33 H 0.22205 0.52465 0.93958
 H34 H 0.28022 0.48622 1.02547
 H35 H 0.30273 0.45902 1.02616
 H36 H 0.27577 0.43692 0.97443
 H37 H 0.25419 0.46478 0.97462
 C38 C 0.29302 0.55067 0.99936
 C39 C 0.20872 0.49966 1.05366
 C40 C 0.29101 0.44563 1.00037
 C41 C 0.20731 0.49847 0.94843
 C42 C 0.77941 0.51509 -0.02333
 H43 H 0.78019 0.52619 -0.01241
 C44 C 0.79226 0.51538 -0.03876
 H45 H 0.80299 0.52673 -0.03954
 C46 C 0.76494 0.48638 -0.03504
 H47 H 0.75448 0.47494 -0.03339
 C48 C 0.77754 0.48610 -0.05070
 H49 H 0.77635 0.47459 -0.06117
 N50 N 0.76601 0.50082 -0.02183
 C51 C 0.72071 0.52468 0.01422
 H52 H 0.71999 0.51382 0.02534
 C53 C 0.70799 0.54012 0.01452
 H54 H 0.69740 0.54097 0.02591
 C55 C 0.73491 0.53620 -0.01460
 H56 H 0.74520 0.53447 -0.02609
 C57 C 0.72243 0.55186 -0.01487
 H58 H 0.72355 0.56226 -0.02642
 Zn59 Zn 0.74985 0.50111 0.00009
 N60 N 0.73392 0.52307 -0.00012
 C61 C 0.76541 0.51570 0.03522
 N62 N 0.76608 0.50125 0.02200
 C63 C 0.77916 0.48688 0.02349
 C64 C 0.79208 0.48649 0.03889
 C65 C 0.77809 0.51589 0.05085
 C66 C 0.72013 0.47781 -0.01408
 C67 C 0.70709 0.46244 -0.01446
 C68 C 0.72136 0.45049 0.01488
 C69 C 0.73415 0.46609 0.01469
 N70 N 0.73341 0.47928 0.00026
 H71 H 0.75521 0.52723 0.03358
 H72 H 0.77963 0.47578 0.01257
 H73 H 0.80255 0.47506 0.03966
 H74 H 0.77723 0.52741 0.06132
 H75 H 0.71961 0.48872 -0.02517
 H76 H 0.69647 0.46169 -0.02587
 H77 H 0.72231 0.44003 0.02638
 H78 H 0.74452 0.46771 0.02619
 C79 C 0.70872 0.55396 -0.00019
 C80 C 0.79145 0.50073 -0.05270
 C81 C 0.70758 0.44852 0.00017
 C82 C 0.79168 0.50115 0.05283
 C83 C -0.01398 0.27941 0.47625
 H84 H -0.02494 0.27993 0.48729
 C85 C -0.01456 0.29227 0.46084
 H86 H -0.02593 0.30280 0.46080
 C87 C 0.01473 0.26575 0.46441
 H88 H 0.02624 0.25551 0.46593
 C89 C 0.01478 0.27836 0.44877
 H90 H 0.02609 0.27678 0.43824
 N91 N 0.00042 0.26640 0.47769
 C92 C -0.02252 0.22045 0.51387
 H93 H -0.01149 0.21999 0.52488
 C94 C -0.03784 0.20736 0.51434
 H95 H -0.03843 0.19675 0.52573
 C96 C -0.03460 0.23440 0.48521
 H97 H -0.03314 0.24476 0.47372
 C98 C -0.05015 0.22155 0.48511
 H99 H -0.06074 0.22244 0.47369
 Zn100 Zn 0.00053 0.25023 0.49959
 N101 N -0.02125 0.23371 0.49955
 C102 C -0.01391 0.26532 0.53484
 N103 N 0.00040 0.26642 0.52153
 C104 C 0.01464 0.27988 0.52298
 C105 C 0.01503 0.29275 0.53843
 C106 C -0.01409 0.27792 0.55052
 C107 C 0.02401 0.22111 0.48529
 C108 C 0.03949 0.20844 0.48484
 C109 C 0.05156 0.22302 0.51412
 C110 C 0.03585 0.23544 0.51399
 N111 N 0.02254 0.23436 0.49963
 H112 H -0.02533 0.25481 0.53324
 H113 H 0.02563 0.28068 0.51199
 H114 H 0.02634 0.30351 0.53917
 H115 H -0.02550 0.27670 0.56106
 H116 H 0.01301 0.22031 0.47426
 H117 H 0.04024 0.19782 0.47345
 H118 H 0.06210 0.22422 0.52557
 H119 H 0.03423 0.24578 0.52549
 C120 C -0.05191 0.20778 0.49981
 C121 C -0.00001 0.29207 0.44664
 C122 C 0.05351 0.20927 0.49942
 C123 C 0.00051 0.29189 0.55246
 C124 C 0.98536 0.72046 0.52376
 H125 H 0.97443 0.71950 0.51267
 C126 C 0.98503 0.70764 0.53921
 H127 H 0.97383 0.69675 0.53984
 C128 C 1.01369 0.73537 0.53584
 H129 H 1.02501 0.74598 0.53432
 C130 C 1.01393 0.72281 0.55153
 H131 H 1.02528 0.72417 0.56216
 N132 N 0.99946 0.73405 0.52242
 C133 C 0.97547 0.77865 0.48560
 H134 H 0.98645 0.77938 0.47458
 C135 C 0.95992 0.79123 0.48501
 H136 H 0.95909 0.80171 0.47352
 C137 C 0.96379 0.76462 0.51443
 H138 H 0.96551 0.75447 0.52605
 C139 C 0.94801 0.77695 0.51442
 H140 H 0.93752 0.77586 0.52589
 Zn141 Zn 0.99929 0.75004 0.50038
 N142 N 0.97707 0.76562 0.50009
 C143 C 0.98549 0.73383 0.46521
 N144 N 0.99977 0.73362 0.47863
 C145 C 1.01441 0.72080 0.47753
 C146 C 1.01519 0.70761 0.46239
 C147 C 0.98571 0.72088 0.44981
 C148 C 1.02184 0.78022 0.51471
 C149 C 1.03689 0.79362 0.51518
 C150 C 1.04954 0.77943 0.48610
 C151 C 1.03423 0.76629 0.48618
 N152 N 1.02084 0.76684 0.50043
 H153 H 0.97371 0.74378 0.46659
 H154 H 1.02544 0.72079 0.48855
 H155 H 1.02708 0.69765 0.46170
 H156 H 0.97404 0.72103 0.43946
 H157 H 1.01084 0.78050 0.52572
 H158 H 1.03752 0.80402 0.52680
 H159 H 1.05989 0.77897 0.47446
 H160 H 1.03292 0.75589 0.47467
 C161 C 0.94596 0.79053 0.49960
 C162 C 0.99948 0.70869 0.55335
 C163 C 1.05098 0.79338 0.50070
 C164 C 1.00067 0.70747 0.44830
 C165 C 0.47681 -0.01490 0.27880
 H166 H 0.48779 -0.02585 0.27912
 C167 C 0.46156 -0.01567 0.29183
 H168 H 0.46074 -0.02747 0.30197
 C169 C 0.46472 0.01384 0.26520
 H170 H 0.46624 0.02557 0.25512
 C171 C 0.44921 0.01363 0.27798
 H172 H 0.43892 0.02525 0.27756
 N173 N 0.47808 -0.00035 0.26579
 C174 C 0.51490 -0.02240 0.22019
 H175 H 0.52593 -0.01132 0.22006
 C176 C 0.51567 -0.03754 0.20701
 H177 H 0.52790 -0.03801 0.19744
 C178 C 0.48627 -0.03499 0.23371
 H179 H 0.47454 -0.03367 0.24381
 C180 C 0.48645 -0.05044 0.22082
 H181 H 0.47444 -0.06040 0.22127
 Zn182 Zn 0.50005 0.00026 0.24974
 N183 N 0.50043 -0.02143 0.23325
 C184 C 0.53525 -0.01360 0.26536
 N185 N 0.52181 0.00050 0.26616
 C186 C 0.52289 0.01475 0.27956
 C187 C 0.53805 0.01532 0.29276
 C188 C 0.55068 -0.01358 0.27829
 C189 C 0.48558 0.02363 0.22052
 C190 C 0.48506 0.03910 0.20774
 C191 C 0.51421 0.05152 0.22232
 C192 C 0.51416 0.03581 0.23485
 N193 N 0.49990 0.02233 0.23381
 H194 H 0.53388 -0.02509 0.25495
 H195 H 0.51185 0.02563 0.28004
 H196 H 0.53874 0.02690 0.30319
 H197 H 0.56105 -0.02511 0.27765
 H198 H 0.47464 0.01250 0.21976
 H199 H 0.47370 0.03970 0.19707
 H200 H 0.52559 0.06219 0.22347
 H201 H 0.52564 0.03432 0.24522
 C202 C 0.50126 -0.05201 0.20698
 C203 C 0.44754 -0.00122 0.29160
 C204 C 0.49955 0.05329 0.20850
 C205 C 0.55218 0.00098 0.29228
 C206 C 0.52337 -0.01487 0.72047
 H207 H 0.51234 -0.02592 0.71988
 C208 C 0.53883 -0.01541 0.70767
 H209 H 0.53953 -0.02691 0.69717
 C210 C 0.53532 0.01400 0.73440
 H211 H 0.53374 0.02560 0.74462
 C212 C 0.55101 0.01403 0.72185
 H213 H 0.56158 0.02551 0.72283
 N214 N 0.52196 -0.00039 0.73357
 C215 C 0.48527 -0.02317 0.77915
 H216 H 0.47428 -0.01223 0.77946
 C217 C 0.48463 -0.03834 0.79229
 H218 H 0.47290 -0.03913 0.80251
 C219 C 0.51393 -0.03530 0.76542
 H220 H 0.52555 -0.03384 0.75521
 C221 C 0.51385 -0.05072 0.77830
 H222 H 0.52547 -0.06100 0.77783
 Zn223 Zn 0.49995 -0.00026 0.74959
 N224 N 0.49969 -0.02198 0.76600
 C225 C 0.46471 -0.01474 0.73412
 N226 N 0.47815 -0.00043 0.73322
 C227 C 0.47693 0.01379 0.71986
 C228 C 0.46155 0.01421 0.70692
 C229 C 0.44909 -0.01489 0.72143
 C230 C 0.51422 0.02332 0.77900
 C231 C 0.51464 0.03878 0.79185
 C232 C 0.48554 0.05071 0.77717
 C233 C 0.48569 0.03502 0.76458
 N234 N 0.49997 0.02179 0.76563
 H235 H 0.46614 -0.02615 0.74455
 H236 H 0.48802 0.02478 0.71922
 H237 H 0.46098 0.02553 0.69624
 H238 H 0.43843 -0.02628 0.72250
 H239 H 0.52519 0.01238 0.77976
 H240 H 0.52595 0.03957 0.80257
 H241 H 0.47414 0.06118 0.77601
 H242 H 0.47425 0.03335 0.75415
 C243 C 0.49909 -0.05235 0.79202
 C244 C 0.55290 -0.00080 0.70822
 C245 C 0.50013 0.05272 0.79107
 C246 C 0.44737 -0.00028 0.70759
 C247 C 0.27969 0.01604 0.47653
 H248 H 0.28024 0.02706 0.48755
 C249 C 0.29285 0.01644 0.46138
 H250 H 0.30334 0.02802 0.46068
 C251 C 0.26532 -0.01246 0.46421
 H252 H 0.25485 -0.02393 0.46559
 C253 C 0.27821 -0.01261 0.44880
 H254 H 0.27750 -0.02427 0.43844
 N255 N 0.26621 0.00181 0.47762
 C256 C 0.22063 0.02530 0.51353
 H257 H 0.21976 0.01426 0.52447
 C258 C 0.20794 0.04076 0.51396
 H259 H 0.19725 0.04146 0.52525
 C260 C 0.23514 0.03724 0.48505
 H261 H 0.24555 0.03566 0.47363
 C262 C 0.22271 0.05294 0.48490
 H263 H 0.22397 0.06352 0.47353
 Zn264 Zn 0.24978 0.00184 0.49933
 N265 N 0.23397 0.02388 0.49930
 C266 C 0.26509 0.01586 0.53479
 N267 N 0.26575 0.00155 0.52142
 C268 C 0.27870 -0.01295 0.52286
 C269 C 0.29151 -0.01360 0.53834
 C270 C 0.27766 0.01579 0.55051
 C271 C 0.22011 -0.02104 0.48443
 C272 C 0.20683 -0.03618 0.48376
 C273 C 0.22055 -0.04862 0.51317
 C274 C 0.23358 -0.03322 0.51328
 N275 N 0.23320 -0.01988 0.49897
 H276 H 0.25499 0.02748 0.53320
 H277 H 0.27917 -0.02394 0.51182
 H278 H 0.30190 -0.02510 0.53905
 H279 H 0.27682 0.02721 0.56108
 H280 H 0.21996 -0.01007 0.47338
 H281 H 0.19666 -0.03694 0.47195
 H282 H 0.22085 -0.05891 0.52486
 H283 H 0.24374 -0.03178 0.52499
 C284 C 0.20885 0.05484 0.49948
 C285 C 0.29227 0.00194 0.44728
 C286 C 0.20689 -0.05021 0.49831
 C287 C 0.29114 0.00094 0.55241
 C288 C 0.72102 0.01283 0.52368
 H289 H 0.72053 0.02392 0.51278
 C290 C 0.70816 0.01325 0.53909
 H291 H 0.69770 0.02469 0.53988
 C292 C 0.73478 -0.01600 0.53535
 H293 H 0.74496 -0.02753 0.53369
 C294 C 0.72216 -0.01615 0.55099
 H295 H 0.72305 -0.02766 0.56144
 N296 N 0.73408 -0.00156 0.52216
 C297 C 0.77993 0.02175 0.48608
 H298 H 0.78041 0.01081 0.47500
 C299 C 0.79296 0.03712 0.48568
 H300 H 0.80354 0.03785 0.47427
 C301 C 0.76601 0.03357 0.51486
 H302 H 0.75568 0.03199 0.52636
 C303 C 0.77880 0.04918 0.51504
 H304 H 0.77789 0.05968 0.52653
 Zn305 Zn 0.75023 -0.00147 0.50024
 N306 N 0.76670 0.02033 0.50043
 C307 C 0.73503 0.01326 0.46516
 N308 N 0.73399 -0.00119 0.47833
 C309 C 0.72055 -0.01543 0.47679
 C310 C 0.70762 -0.01568 0.46139
 C311 C 0.72235 0.01358 0.44953
 C312 C 0.77938 -0.02505 0.51432
 C313 C 0.79207 -0.04051 0.51463
 C314 C 0.77749 -0.05232 0.48525
 C315 C 0.76506 -0.03663 0.48552
 N316 N 0.76613 -0.02346 0.50000
 H317 H 0.74552 0.02468 0.46683
 H318 H 0.71981 -0.02653 0.48768
 H319 H 0.69685 -0.02699 0.46059
 H320 H 0.72351 0.02510 0.43910
 H321 H 0.78017 -0.01415 0.52545
 H322 H 0.80270 -0.04135 0.52601
 H323 H 0.77631 -0.06276 0.47370
 H324 H 0.75472 -0.03492 0.47404
 C325 C 0.79252 0.05110 0.50031
 C326 C 0.70859 -0.00140 0.55300
 C327 C 0.79126 -0.05440 0.49993
 C328 C 0.70839 -0.00101 0.44751
 C329 C 0.48496 0.22033 1.02315
 H330 H 0.47393 0.21955 1.01215
 C331 C 0.48458 0.20748 1.03858
 H332 H 0.47324 0.19675 1.03929
 C333 C 0.51358 0.23483 1.03504
 H334 H 0.52503 0.24530 1.03346
 C335 C 0.51378 0.22224 1.05070
 H336 H 0.52522 0.22344 1.06125
 N337 N 0.49923 0.23375 1.02173
 C338 C 0.47559 0.27906 0.98555
 H339 H 0.48654 0.27980 0.97451
 C340 C 0.46015 0.29178 0.98514
 H341 H 0.45938 0.30237 0.97376
 C342 C 0.46386 0.26482 1.01426
 H343 H 0.46550 0.25451 1.02575
 C344 C 0.44818 0.27728 1.01442
 H345 H 0.43770 0.27614 1.02589
 Zn346 Zn 0.49907 0.24991 0.99982
 N347 N 0.47710 0.26584 0.99988
 C348 C 0.48469 0.23439 0.96458
 N349 N 0.49906 0.23369 0.97789
 C350 C 0.51344 0.22062 0.97647
 C351 C 0.51393 0.20773 0.96105
 C352 C 0.48461 0.22175 0.94892
 C353 C 0.52227 0.27965 1.01411
 C354 C 0.53762 0.29270 1.01457
 C355 C 0.54975 0.27843 0.98530
 C356 C 0.53417 0.26562 0.98542
 N357 N 0.52089 0.26636 0.99977
 H358 H 0.47316 0.24460 0.96616
 H359 H 0.52447 0.22013 0.98747
 H360 H 0.52536 0.19726 0.96034
 H361 H 0.47316 0.22265 0.93838
 H362 H 0.51130 0.28016 1.02514
 H363 H 0.53830 0.30333 1.02598
 H364 H 0.56027 0.27750 0.97386
 H365 H 0.53262 0.25525 0.97391
 C366 C 0.44619 0.29102 0.99974
 C367 C 0.49915 0.20831 1.05261
 C368 C 0.55162 0.29223 1.00001
 C369 C 0.49936 0.20817 0.94701
 C370 C 0.48583 0.77892 -0.02336
 H371 H 0.47491 0.77914 -0.01229
 C372 C 0.48501 0.79197 -0.03860
 H373 H 0.47320 0.80201 -0.03930
 C374 C 0.51457 0.76557 -0.03573
 H375 H 0.52630 0.75557 -0.03432
 C376 C 0.51430 0.77837 -0.05123
 H377 H 0.52590 0.77805 -0.06162
 N378 N 0.50041 0.76603 -0.02224
 C379 C 0.47836 0.72024 0.01469
 H380 H 0.48943 0.72012 0.02567
 C381 C 0.46325 0.70693 0.01542
 H382 H 0.46262 0.69676 0.02720
 C383 C 0.46587 0.73368 -0.01404
 H384 H 0.46718 0.74383 -0.02573
 C385 C 0.45050 0.72062 -0.01387
 H386 H 0.44010 0.72089 -0.02550
 Zn387 Zn 0.50102 0.74997 -0.00027
 N388 N 0.47935 0.73333 0.00018
 C389 C 0.48713 0.76546 0.03507
 N390 N 0.50122 0.76636 0.02151
 C391 C 0.51543 0.77988 0.02246
 C392 C 0.51599 0.79309 0.03760
 C393 C 0.48714 0.77841 0.05048
 C394 C 0.52452 0.72099 -0.01486
 C395 C 0.53999 0.70831 -0.01539
 C396 C 0.55226 0.72296 0.01377
 C397 C 0.53655 0.73537 0.01373
 N398 N 0.52313 0.73424 -0.00051
 H399 H 0.47567 0.75496 0.03380
 H400 H 0.52630 0.78043 0.01133
 H401 H 0.52754 0.80361 0.03818
 H402 H 0.47563 0.77770 0.06096
 H403 H 0.51343 0.72015 -0.02579
 H404 H 0.54066 0.69767 -0.02676
 H405 H 0.56287 0.72417 0.02516
 H406 H 0.53499 0.74571 0.02524
 C407 C 0.44908 0.70695 0.00096
 C408 C 0.49944 0.79188 -0.05274
 C409 C 0.55410 0.70915 -0.00090
 C410 C 0.50166 0.79252 0.05184
 C411 C 1.02368 0.48567 0.22025
 H412 H 1.01260 0.47468 0.21948
 C413 C 1.03909 0.48531 0.20739
 H414 H 1.03970 0.47402 0.19665
 C415 C 1.03583 0.51417 0.23475
 H416 H 1.03437 0.52555 0.24524
 C417 C 1.05148 0.51438 0.22215
 H418 H 1.06213 0.52577 0.22335
 N419 N 1.02241 0.49986 0.23368
 C420 C 0.98614 0.47605 0.27909
 H421 H 0.97521 0.48703 0.27984
 C422 C 0.98563 0.46057 0.29186
 H423 H 0.97428 0.45980 0.30251
 C424 C 1.01468 0.46430 0.26480
 H425 H 1.02615 0.46595 0.25445
 C426 C 1.01475 0.44858 0.27732
 H427 H 1.02612 0.43808 0.27619
 Zn428 Zn 1.00055 0.49966 0.24991
 N429 N 1.00044 0.47757 0.26582
 C430 C 0.96522 0.48548 0.23441
 N431 N 0.97859 0.49986 0.23374
 C432 C 0.97722 0.51437 0.22072
 C433 C 0.96179 0.51498 0.20784
 C434 C 0.94956 0.48550 0.22178
 C435 C 1.01515 0.52245 0.27971
 C436 C 1.01576 0.53757 0.29295
 C437 C 0.98661 0.55004 0.27884
 C438 C 0.98656 0.53466 0.26585
 N439 N 1.00077 0.52132 0.26644
 H440 H 0.96676 0.47384 0.24457
 H441 H 0.98827 0.52542 0.22026
 H442 H 0.96113 0.52651 0.19741
 H443 H 0.93897 0.47403 0.22265
 H444 H 1.02613 0.51150 0.28002
 H445 H 1.02745 0.53831 0.30326
 H446 H 0.97500 0.56033 0.27836
 H447 H 0.97497 0.53325 0.25555
 C448 C 1.00010 0.44659 0.29112
 C449 C 1.05325 0.49982 0.20822
 C450 C 1.00132 0.55160 0.29267
 C451 C 0.94771 0.50038 0.20824
 C452 C -0.02400 0.48583 0.77953
 H453 H -0.01300 0.47492 0.78034
 C454 C -0.03944 0.48541 0.79235
 H455 H -0.04016 0.47416 0.80309
 C456 C -0.03585 0.51423 0.76501
 H457 H -0.03424 0.52561 0.75456
 C458 C -0.05152 0.51438 0.77758
 H459 H -0.06205 0.52572 0.77637
 N460 N -0.02254 0.50001 0.76612
 C461 C 0.01408 0.47645 0.72109
 H462 H 0.02512 0.48750 0.72050
 C463 C 0.01461 0.46097 0.70828
 H464 H 0.02609 0.46026 0.69778
 C465 C -0.01474 0.46452 0.73499
 H466 H -0.02633 0.46611 0.74520
 C467 C -0.01478 0.44879 0.72244
 H468 H -0.02626 0.43822 0.72340
 Zn469 Zn -0.00054 0.50000 0.75011
 N470 N -0.00038 0.47789 0.73417
 C471 C 0.03451 0.48618 0.76607
 N472 N 0.02122 0.50044 0.76652
 C473 C 0.02246 0.51499 0.77959
 C474 C 0.03762 0.51571 0.79277
 C475 C 0.04993 0.48633 0.77900
 C476 C -0.01475 0.52266 0.72024
 C477 C -0.01519 0.53781 0.70709
 C478 C 0.01389 0.55056 0.72152
 C479 C 0.01379 0.53514 0.73440
 N480 N -0.00048 0.52165 0.73362
 H481 H 0.03301 0.47446 0.75593
 H482 H 0.01154 0.52601 0.77980
 H483 H 0.03844 0.52752 0.80293
 H484 H 0.06017 0.47467 0.77865
 H485 H -0.02577 0.51159 0.71978
 H486 H -0.02681 0.53846 0.69671
 H487 H 0.02553 0.56099 0.72216
 H488 H 0.02528 0.53383 0.74479
 C489 C 0.00001 0.44689 0.70881
 C490 C -0.05345 0.49985 0.79151
 C491 C -0.00071 0.55201 0.70759
 C492 C 0.05159 0.50120 0.79265
 C493 C 0.09405 0.17723 0.48220
 C494 C 0.10008 0.16887 0.49949
 C495 C 0.09114 0.17394 0.51679
 C496 C 0.07612 0.18722 0.51681
 C497 C 0.06983 0.19558 0.49948
 C498 C 0.07903 0.19050 0.48218
 C499 C 0.11514 0.15477 0.49943
 C500 C 0.12758 0.14277 0.49939
 C501 C 0.14195 0.12852 0.49935
 C502 C 0.15403 0.11618 0.49932
 C503 C 0.16825 0.10122 0.49930
 C504 C 0.17654 0.09519 0.51663
 C505 C 0.18989 0.08024 0.51668
 C506 C 0.19513 0.07112 0.49938
 C507 C 0.18684 0.07742 0.48201
 C508 C 0.17348 0.09236 0.48199
 H509 H 0.10089 0.17342 0.46872
 H510 H 0.09564 0.16749 0.53025
 H511 H 0.06917 0.19062 0.53032
 H512 H 0.07468 0.19687 0.46864
 H513 H 0.17260 0.10196 0.53011
 H514 H 0.19619 0.07588 0.53025
 H515 H 0.19037 0.07052 0.46849
 H516 H 0.16709 0.09686 0.46850
 C517 C 0.67321 0.59125 -0.01792
 C518 C 0.66817 0.60040 -0.00070
 C519 C 0.67660 0.59461 0.01664
 C520 C 0.68992 0.57963 0.01681
 C521 C 0.69498 0.57022 -0.00040
 C522 C 0.68653 0.57627 -0.01779
 C523 C 0.65404 0.61543 -0.00079
 C524 C 0.64202 0.62785 -0.00084
 C525 C 0.62775 0.64219 -0.00088
 C526 C 0.61540 0.65427 -0.00088
 C527 C 0.60043 0.66848 -0.00084
 C528 C 0.59160 0.67369 0.01648
 C529 C 0.57667 0.68707 0.01649
 C530 C 0.57036 0.69539 -0.00085
 C531 C 0.57945 0.69017 -0.01817
 C532 C 0.59438 0.67680 -0.01814
 H533 H 0.66671 0.59556 -0.03142
 H534 H 0.67282 0.60161 0.03005
 H535 H 0.69634 0.57547 0.03038
 H536 H 0.68992 0.56916 -0.03124
 H537 H 0.59611 0.66728 0.02994
 H538 H 0.56980 0.69057 0.03002
 H539 H 0.57508 0.69649 -0.03171
 H540 H 0.60114 0.67288 -0.03163
 C541 C 0.90538 -0.17751 0.48227
 C542 C 0.89948 -0.16896 0.49952
 C543 C 0.90851 -0.17390 0.51683
 C544 C 0.92348 -0.18723 0.51690
 C545 C 0.92964 -0.19578 0.49961
 C546 C 0.92036 -0.19083 0.48230
 C547 C 0.88449 -0.15478 0.49941
 C548 C 0.87212 -0.14272 0.49937
 C549 C 0.85785 -0.12838 0.49936
 C550 C 0.84583 -0.11596 0.49938
 C551 C 0.83170 -0.10093 0.49945
 C552 C 0.82333 -0.09506 0.51678
 C553 C 0.81004 -0.08006 0.51694
 C554 C 0.80495 -0.07071 0.49972
 C555 C 0.81333 -0.07683 0.48234
 C556 C 0.82663 -0.09183 0.48222
 H557 H 0.89848 -0.17380 0.46878
 H558 H 0.90411 -0.16730 0.53025
 H559 H 0.93050 -0.19051 0.53042
 H560 H 0.92462 -0.19734 0.46879
 H561 H 0.82714 -0.10202 0.53020
 H562 H 0.80367 -0.07584 0.53051
 H563 H 0.80992 -0.06976 0.46888
 H564 H 0.83309 -0.09620 0.46873
 C565 C 0.32629 0.40809 0.98273
 C566 C 0.33161 0.39924 1.00001
 C567 C 0.32341 0.40529 1.01737
 C568 C 0.31006 0.42024 1.01749
 C569 C 0.30473 0.42935 1.00021
 C570 C 0.31293 0.42303 0.98281
 C571 C 0.34582 0.38428 0.99997
 C572 C 0.35790 0.37193 0.99995
 C573 C 0.37225 0.35766 0.99993
 C574 C 0.38468 0.34566 0.99993
 C575 C 0.39972 0.33153 0.99994
 C576 C 0.40874 0.32647 1.01722
 C577 C 0.42373 0.31316 1.01719
 C578 C 0.42991 0.30475 0.99984
 C579 C 0.42064 0.30983 0.98256
 C580 C 0.40565 0.32313 0.98263
 H581 H 0.33262 0.40358 0.96922
 H582 H 0.32742 0.39852 1.03083
 H583 H 0.30383 0.42461 1.03108
 H584 H 0.30934 0.42992 0.96931
 H585 H 0.40432 0.33295 1.03069
 H586 H 0.43074 0.30976 1.03069
 H587 H 0.42491 0.30343 0.96901
 H588 H 0.39875 0.32693 0.96917
 C589 C 0.91072 0.17149 0.48257
 C590 C 0.90187 0.16627 0.49990
 C591 C 0.90791 0.17482 0.51717
 C592 C 0.92282 0.18844 0.51714
 C593 C 0.93191 0.19368 0.49981
 C594 C 0.92563 0.18512 0.48250
 C595 C 0.88688 0.15188 0.50001
 C596 C 0.87447 0.13967 0.50010
 C597 C 0.86011 0.12520 0.50020
 C598 C 0.84800 0.11269 0.50027
 C599 C 0.83371 0.09759 0.50034
 C600 C 0.82862 0.08859 0.51764
 C601 C 0.81510 0.07359 0.51767
 C602 C 0.80651 0.06736 0.50036
 C603 C 0.81164 0.07659 0.48306
 C604 C 0.82515 0.09160 0.48307
 H605 H 0.90622 0.16490 0.46913
 H606 H 0.90114 0.17091 0.53067
 H607 H 0.92716 0.19495 0.53066
 H608 H 0.93251 0.18864 0.46896
 H609 H 0.83523 0.09306 0.53109
 H610 H 0.81167 0.06661 0.53118
 H611 H 0.80510 0.07229 0.46954
 H612 H 0.82896 0.09848 0.46960
 C613 C 0.31585 0.60022 0.00479
 C614 C 0.33490 0.59654 -0.00048
 C615 C 0.34023 0.57794 -0.00591
 C616 C 0.32660 0.56305 -0.00605
 C617 C 0.30741 0.56657 -0.00073
 C618 C 0.30218 0.58534 0.00468
 C619 C 0.34908 0.61174 -0.00016
 C620 C 0.36117 0.62427 0.00010
 C621 C 0.37557 0.63869 0.00040
 C622 C 0.38808 0.65080 0.00066
 C623 C 0.40327 0.66500 0.00094
 C624 C 0.42192 0.65967 0.00621
 C625 C 0.43679 0.67332 0.00630
 C626 C 0.43320 0.69253 0.00111
 C627 C 0.41437 0.69776 -0.00412
 C628 C 0.39951 0.68407 -0.00419
 H629 H 0.31156 0.61458 0.00899
 H630 H 0.35496 0.57491 -0.00994
 H631 H 0.33116 0.54872 -0.01000
 H632 H 0.28749 0.58856 0.00864
 H633 H 0.42501 0.64493 0.01014
 H634 H 0.45116 0.66877 0.01012
 H635 H 0.41111 0.71247 -0.00798
 H636 H 0.38511 0.68836 -0.00826
 C637 C 0.07804 -0.15920 0.50528
 C638 C 0.09670 -0.16458 0.50014
 C639 C 0.10048 -0.18373 0.49526
 C640 C 0.08565 -0.19744 0.49548
 C641 C 0.06682 -0.19216 0.50062
 C642 C 0.06320 -0.17287 0.50553
 C643 C 0.11187 -0.15038 0.49975
 C644 C 0.12438 -0.13826 0.49944
 C645 C 0.13877 -0.12384 0.49909
 C646 C 0.15086 -0.11131 0.49880
 C647 C 0.16503 -0.09610 0.49847
 C648 C 0.18411 -0.09977 0.50369
 C649 C 0.19777 -0.08488 0.50357
 C650 C 0.19250 -0.06612 0.49821
 C651 C 0.17328 -0.06262 0.49294
 C652 C 0.15966 -0.07751 0.49307
 H653 H 0.07494 -0.14440 0.50901
 H654 H 0.11489 -0.18806 0.49128
 H655 H 0.08893 -0.21221 0.49184
 H656 H 0.04882 -0.16828 0.50926
 H657 H 0.18843 -0.11412 0.50786
 H658 H 0.21249 -0.08808 0.50749
 H659 H 0.16869 -0.04829 0.48902
 H660 H 0.14491 -0.07449 0.48908
 C661 C 0.67480 0.40801 0.98302
 C662 C 0.66629 0.40212 1.00031
 C663 C 0.67148 0.41117 1.01759
 C664 C 0.68503 0.42614 1.01759
 C665 C 0.69356 0.43228 1.00026
 C666 C 0.68834 0.42299 0.98298
 C667 C 0.65197 0.38705 1.00027
 C668 C 0.63982 0.37458 1.00023
 C669 C 0.62542 0.36015 1.00017
 C670 C 0.61297 0.34797 1.00011
 C671 C 0.59794 0.33362 1.00003
 C672 C 0.59198 0.32512 1.01731
 C673 C 0.57703 0.31155 1.01730
 C674 C 0.56783 0.30628 0.99998
 C675 C 0.57403 0.31480 0.98267
 C676 C 0.58898 0.32838 0.98272
 H677 H 0.67090 0.40109 0.96956
 H678 H 0.66493 0.40677 1.03105
 H679 H 0.68854 0.43317 1.03109
 H680 H 0.69482 0.42722 0.96944
 H681 H 0.59883 0.32905 1.03079
 H682 H 0.57275 0.30507 1.03082
 H683 H 0.56708 0.31126 0.96914
 H684 H 0.59342 0.33493 0.96927
 C685 C 0.51685 0.09094 1.17280
 C686 C 0.49954 0.09967 1.16756
 C687 C 0.48226 0.09350 1.17594
 C688 C 0.48227 0.07855 1.18939
 C689 C 0.49958 0.06956 1.19464
 C690 C 0.51689 0.07599 1.18626
 C691 C 0.49946 0.11465 1.15327
 C692 C 0.49942 0.12703 1.14113
 C693 C 0.49938 0.14133 1.12672
 C694 C 0.49937 0.15337 1.11424
 C695 C 0.49937 0.16755 1.09915
 C696 C 0.48206 0.17578 1.09312
 C697 C 0.48199 0.18916 1.07810
 C698 C 0.49926 0.19448 1.06890
 C699 C 0.51660 0.18624 1.07518
 C700 C 0.51664 0.17285 1.09020
 H701 H 0.53029 0.09554 1.16634
 H702 H 0.46878 0.10017 1.17200
 H703 H 0.46874 0.07408 1.19577
 H704 H 0.53041 0.06920 1.18979
 H705 H 0.46862 0.17180 1.09997
 H706 H 0.46845 0.19543 1.07376
 H707 H 0.53009 0.18983 1.06823
 H708 H 0.53010 0.16650 1.09469
 C709 C -0.01744 0.67572 0.59356
 C710 C -0.00007 0.66763 0.59962
 C711 C 0.01719 0.67325 0.59085
 C712 C 0.01709 0.68677 0.57596
 C713 C -0.00032 0.69483 0.56961
 C714 C -0.01758 0.68923 0.57866
 C715 C -0.00003 0.65320 0.61447
 C716 C -0.00004 0.64091 0.62670
 C717 C -0.00011 0.62629 0.64078
 C718 C -0.00021 0.61361 0.65261
 C719 C -0.00039 0.59824 0.66648
 C720 C 0.00457 0.60184 0.68570
 C721 C 0.00445 0.58683 0.69911
 C722 C -0.00065 0.56802 0.69343
 C723 C -0.00561 0.56457 0.67407
 C724 C -0.00547 0.57959 0.66070
 H725 H -0.03089 0.67148 0.60026
 H726 H 0.03070 0.66701 0.59537
 H727 H 0.03057 0.69059 0.56912
 H728 H -0.03118 0.69535 0.57427
 H729 H 0.00849 0.61624 0.69034
 H730 H 0.00813 0.58998 0.71395
 H731 H -0.00932 0.55022 0.66918
 H732 H -0.00927 0.57663 0.64584
 C733 C 0.49389 0.92022 -0.16103
 C734 C 0.49907 0.90162 -0.16664
 C735 C 0.50420 0.89801 -0.18579
 C736 C 0.50417 0.91294 -0.19928
 C737 C 0.49900 0.93170 -0.19376
 C738 C 0.49385 0.93516 -0.17447
 C739 C 0.49920 0.88635 -0.15266
 C740 C 0.49927 0.87381 -0.14069
 C741 C 0.49929 0.85941 -0.12638
 C742 C 0.49926 0.84737 -0.11389
 C743 C 0.49917 0.83333 -0.09868
 C744 C 0.50440 0.81427 -0.10240
 C745 C 0.50444 0.80074 -0.08750
 C746 C 0.49923 0.80612 -0.06867
 C747 C 0.49398 0.82532 -0.06511
 C748 C 0.49396 0.83880 -0.08001
 H749 H 0.48998 0.92319 -0.14623
 H750 H 0.50819 0.88365 -0.19030
 H751 H 0.50800 0.90979 -0.21405
 H752 H 0.49008 0.94948 -0.16970
 H753 H 0.50843 0.80988 -0.11681
 H754 H 0.50835 0.78604 -0.09074
 H755 H 0.49020 0.82999 -0.05073
 H756 H 0.48997 0.85353 -0.07695
 C757 C 0.98263 0.32733 0.40965
 C758 C 0.99981 0.33236 0.40049
 C759 C 1.01701 0.32387 0.40632
 C760 C 1.01710 0.31050 0.42134
 C761 C 0.99989 0.30533 0.43101
 C762 C 0.98262 0.31400 0.42471
 C763 C 0.99985 0.34652 0.38538
 C764 C 0.99988 0.35855 0.37290
 C765 C 0.99994 0.37284 0.35847
 C766 C 1.00000 0.38521 0.34632
 C767 C 1.00009 0.40019 0.33202
 C768 C 1.01740 0.40916 0.32682
 C769 C 1.01745 0.42411 0.31337
 C770 C 1.00013 0.43031 0.30495
 C771 C 0.98282 0.42107 0.31016
 C772 C 0.98281 0.40612 0.32361
 H773 H 0.96918 0.33372 0.40515
 H774 H 1.03045 0.32780 0.39942
 H775 H 1.03093 0.30505 0.42579
 H776 H 0.96883 0.31016 0.43084
 H777 H 1.03085 0.40474 0.33332
 H778 H 1.03097 0.43110 0.30987
 H779 H 0.96929 0.42535 0.30376
 H780 H 0.96933 0.39925 0.32751
 C781 C 0.49205 0.89999 0.18358
 C782 C 0.50158 0.90231 0.16604
 C783 C 0.51114 0.91959 0.16207
 C784 C 0.51115 0.93456 0.17552
 C785 C 0.50150 0.93263 0.19337
 C786 C 0.49198 0.91493 0.19710
 C787 C 0.50141 0.88709 0.15195
 C788 C 0.50133 0.87458 0.13990
 C789 C 0.50130 0.86021 0.12552
 C790 C 0.50134 0.84818 0.11300
 C791 C 0.50147 0.83413 0.09776
 C792 C 0.50633 0.83974 0.07903
 C793 C 0.50642 0.82621 0.06412
 C794 C 0.50165 0.80684 0.06775
 C795 C 0.49677 0.80133 0.08663
 C796 C 0.49670 0.81490 0.10154
 H797 H 0.48471 0.88659 0.18686
 H798 H 0.51843 0.92160 0.14842
 H799 H 0.51807 0.94787 0.17131
 H800 H 0.48496 0.91212 0.21070
 H801 H 0.50997 0.85460 0.07593
 H802 H 0.50995 0.83097 0.04971
 H803 H 0.49324 0.78649 0.08992
 H804 H 0.49295 0.81039 0.11599
 C805 C -0.01697 0.32731 0.59013
 C806 C 0.00031 0.33266 0.59911
 C807 C 0.01762 0.32448 0.59306
 C808 C 0.01769 0.31110 0.57800
 C809 C 0.00041 0.30573 0.56878
 C810 C -0.01694 0.31393 0.57508
 C811 C 0.00030 0.34684 0.61425
 C812 C 0.00028 0.35887 0.62676
 C813 C 0.00024 0.37316 0.64123
 C814 C 0.00017 0.38553 0.65342
 C815 C 0.00007 0.40051 0.66775
 C816 C 0.01730 0.40653 0.67639
 C817 C 0.01728 0.42148 0.68989
 C818 C -0.00001 0.43062 0.69492
 C819 C -0.01728 0.42433 0.68628
 C820 C -0.01722 0.40938 0.67278
 H821 H -0.03045 0.33362 0.59465
 H822 H 0.03107 0.32850 0.59992
 H823 H 0.03124 0.30487 0.57364
 H824 H -0.03044 0.31030 0.56811
 H825 H 0.03077 0.39974 0.67262
 H826 H 0.03077 0.42584 0.69646
 H827 H -0.03078 0.43123 0.68964
 H828 H -0.03063 0.40489 0.66612
 C829 C 0.48258 0.09009 0.82678
 C830 C 0.49984 0.09913 0.83211
 C831 C 0.51717 0.09324 0.82381
 C832 C 0.51727 0.07827 0.81033
 C833 C 0.50000 0.06898 0.80498
 C834 C 0.48263 0.07513 0.81329
 C835 C 0.49981 0.11414 0.84641
 C836 C 0.49976 0.12656 0.85856
 C837 C 0.49968 0.14090 0.87297
 C838 C 0.49960 0.15299 0.88543
 C839 C 0.49948 0.16723 0.90051
 C840 C 0.51671 0.17589 0.90653
 C841 C 0.51667 0.18933 0.92154
 C842 C 0.49936 0.19428 0.93073
 C843 C 0.48209 0.18560 0.92446
 C844 C 0.48217 0.17216 0.90946
 H845 H 0.46909 0.09447 0.83318
 H846 H 0.53062 0.10016 0.82783
 H847 H 0.53083 0.07404 0.80402
 H848 H 0.46914 0.06810 0.80968
 H849 H 0.53019 0.17220 0.89968
 H850 H 0.53016 0.19594 0.92587
 H851 H 0.46857 0.18890 0.93141
 H852 H 0.46876 0.16547 0.90497
 C853 C 0.99560 0.68478 0.39871
 C854 C 1.00100 0.66579 0.40246
 C855 C 1.00637 0.66046 0.42112
 C856 C 1.00632 0.67401 0.43600
 C857 C 1.00089 0.69314 0.43241
 C858 C 0.99552 0.69838 0.41359
 C859 C 1.00095 0.65169 0.38726
 C860 C 1.00095 0.63963 0.37476
 C861 C 1.00101 0.62524 0.36040
 C862 C 1.00109 0.61271 0.34837
 C863 C 1.00125 0.59748 0.33430
 C864 C 1.00637 0.57886 0.33983
 C865 C 1.00644 0.56397 0.32630
 C866 C 1.00138 0.56750 0.30699
 C867 C 0.99624 0.58628 0.30156
 C868 C 0.99620 0.60117 0.31514
 H869 H 0.99145 0.68908 0.38430
 H870 H 1.01051 0.64578 0.42419
 H871 H 1.01024 0.66945 0.45037
 H872 H 0.99147 0.71304 0.41033
 H873 H 1.01023 0.57583 0.35464
 H874 H 1.01018 0.54962 0.33100
 H875 H 0.99248 0.58950 0.28678
 H876 H 0.99224 0.61555 0.31070
 C877 C 1.17677 0.48279 0.09393
 C878 C 1.16830 0.50001 0.09969
 C879 C 1.17344 0.51717 0.09055
 C880 C 1.18685 0.51713 0.07557
 C881 C 1.19547 0.49982 0.06930
 C882 C 1.19021 0.48264 0.07897
 C883 C 1.15401 0.50002 0.11468
 C884 C 1.14186 0.50003 0.12705
 C885 C 1.12743 0.50004 0.14133
 C886 C 1.11494 0.50004 0.15336
 C887 C 1.09983 0.50004 0.16751
 C888 C 1.09105 0.51732 0.17278
 C889 C 1.07602 0.51728 0.18614
 C890 C 1.06955 0.49993 0.19440
 C891 C 1.07857 0.48265 0.18911
 C892 C 1.09361 0.48272 0.17576
 H893 H 1.17275 0.46936 0.10081
 H894 H 1.16708 0.53065 0.09502
 H895 H 1.19076 0.53090 0.06945
 H896 H 1.19563 0.46879 0.07455
 H897 H 1.09570 0.53080 0.16642
 H898 H 1.06921 0.53078 0.18971
 H899 H 1.07409 0.46909 0.19540
 H900 H 1.10032 0.46927 0.17180
 C901 C 0.59048 0.01630 0.67237
 C902 C 0.59938 -0.00100 0.66740
 C903 C 0.59332 -0.01820 0.67600
 C904 C 0.57832 -0.01814 0.68940
 C905 C 0.56918 -0.00083 0.69439
 C906 C 0.57550 0.01641 0.68578
 C907 C 0.61443 -0.00115 0.65319
 C908 C 0.62687 -0.00125 0.64111
 C909 C 0.64125 -0.00135 0.62678
 C910 C 0.65337 -0.00142 0.61438
 C911 C 0.66764 -0.00149 0.59937
 C912 C 0.67255 -0.01875 0.59029
 C913 C 0.68601 -0.01876 0.57534
 C914 C 0.69471 -0.00147 0.56924
 C915 C 0.68978 0.01579 0.57858
 C916 C 0.67633 0.01577 0.59353
 H917 H 0.59501 0.02969 0.66574
 H918 H 0.60012 -0.03168 0.67227
 H919 H 0.57395 -0.03161 0.69595
 H920 H 0.56859 0.02992 0.68910
 H921 H 0.66584 -0.03218 0.59464
 H922 H 0.68929 -0.03224 0.56828
 H923 H 0.69641 0.02930 0.57438
 H924 H 0.67265 0.02921 0.60048
 C925 C -0.17604 0.51759 0.90669
 C926 C -0.16777 0.50027 0.90078
 C927 C -0.17305 0.48305 0.90984
 C928 C -0.18645 0.48316 0.92485
 C929 C -0.19472 0.50053 0.93101
 C930 C -0.18942 0.51774 0.92171
 C931 C -0.15358 0.50020 0.88571
 C932 C -0.14152 0.50015 0.87325
 C933 C -0.12721 0.50012 0.85885
 C934 C -0.11482 0.50010 0.84672
 C935 C -0.09983 0.50009 0.83244
 C936 C -0.09386 0.48275 0.82417
 C937 C -0.07891 0.48268 0.81073
 C938 C -0.06971 0.49996 0.80537
 C939 C -0.07594 0.51733 0.81364
 C940 C -0.09088 0.51737 0.82709
 H941 H -0.17207 0.53100 0.89976
 H942 H -0.16668 0.46957 0.90544
 H943 H -0.19002 0.46971 0.93189
 H944 H -0.19571 0.53130 0.92595
 H945 H -0.10070 0.46929 0.82819
 H946 H -0.07461 0.46911 0.80444
 H947 H -0.06898 0.53084 0.81003
 H948 H -0.09533 0.53086 0.83347
 C949 C 0.42019 -0.00638 0.33860
 C950 C 0.40162 -0.00104 0.33305
 C951 C 0.39797 0.00409 0.31391
 C952 C 0.41286 0.00395 0.30037
 C953 C 0.43160 -0.00135 0.30583
 C954 C 0.43508 -0.00654 0.32510
 C955 C 0.38644 -0.00063 0.34712
 C956 C 0.37397 -0.00026 0.35916
 C957 C 0.35966 0.00018 0.37355
 C958 C 0.34768 0.00058 0.38608
 C959 C 0.33367 0.00108 0.40131
 C960 C 0.31442 -0.00375 0.39762
 C961 C 0.30092 -0.00343 0.41253
 C962 C 0.30651 0.00176 0.43135
 C963 C 0.32589 0.00662 0.43488
 C964 C 0.33936 0.00627 0.41996
 H965 H 0.42319 -0.01030 0.35339
 H966 H 0.38364 0.00823 0.30946
 H967 H 0.40968 0.00782 0.28561
 H968 H 0.44939 -0.01040 0.32983
 H969 H 0.30986 -0.00776 0.38323
 H970 H 0.28607 -0.00703 0.40931
 H971 H 0.33072 0.01038 0.44924
 H972 H 0.35424 0.00996 0.42300
 C973 C 0.18484 0.50406 0.89884
 C974 C 0.16562 0.49925 0.90259
 C975 C 0.16005 0.49410 0.92125
 C976 C 0.17361 0.49379 0.93613
 C977 C 0.19297 0.49863 0.93254
 C978 C 0.19844 0.50377 0.91372
 C979 C 0.15153 0.49969 0.88739
 C980 C 0.13949 0.50004 0.87488
 C981 C 0.12512 0.50043 0.86049
 C982 C 0.11263 0.50074 0.84843
 C983 C 0.09745 0.50109 0.83432
 C984 C 0.07888 0.50648 0.83978
 C985 C 0.06400 0.50661 0.82621
 C986 C 0.06750 0.50133 0.80696
 C987 C 0.08624 0.49598 0.80160
 C988 C 0.10111 0.49588 0.81520
 H989 H 0.18932 0.50803 0.88444
 H990 H 0.14519 0.49043 0.92433
 H991 H 0.16887 0.49006 0.95051
 H992 H 0.21327 0.50736 0.91045
 H993 H 0.07587 0.51047 0.85455
 H994 H 0.04969 0.51051 0.83087
 H995 H 0.08943 0.49205 0.78685
 H996 H 0.11544 0.49171 0.81081
 C997 C 0.57956 0.00565 0.33941
 C998 C 0.59820 0.00070 0.33376
 C999 C 0.60186 -0.00409 0.31453
 C1000 C 0.58692 -0.00396 0.30100
 C1001 C 0.56812 0.00099 0.30655
 C1002 C 0.56462 0.00580 0.32592
 C1003 C 0.61348 0.00043 0.34778
 C1004 C 0.62608 0.00023 0.35972
 C1005 C 0.64061 0.00002 0.37394
 C1006 C 0.65284 -0.00013 0.38627
 C1007 C 0.66721 -0.00030 0.40122
 C1008 C 0.67546 -0.01767 0.40699
 C1009 C 0.68899 -0.01790 0.42192
 C1010 C 0.69444 -0.00073 0.43129
 C1011 C 0.68618 0.01669 0.42526
 C1012 C 0.67265 0.01688 0.41034
 H1013 H 0.57656 0.00931 0.35428
 H1014 H 0.61624 -0.00791 0.31000
 H1015 H 0.59012 -0.00752 0.28616
 H1016 H 0.55027 0.00939 0.33071
 H1017 H 0.67137 -0.03105 0.40002
 H1018 H 0.69526 -0.03150 0.42607
 H1019 H 0.68986 0.03011 0.43234
 H1020 H 0.66628 0.03040 0.40604
 C1021 C 0.82409 0.48404 0.09332
 C1022 C 0.83279 0.50131 0.09919
 C1023 C 0.82784 0.51856 0.09015
 C1024 C 0.81433 0.51855 0.07520
 C1025 C 0.80561 0.50125 0.06907
 C1026 C 0.81059 0.48400 0.07837
 C1027 C 0.84711 0.50126 0.11420
 C1028 C 0.85927 0.50119 0.12660
 C1029 C 0.87369 0.50107 0.14094
 C1030 C 0.88616 0.50094 0.15303
 C1031 C 0.90124 0.50075 0.16726
 C1032 C 0.90732 0.51792 0.17597
 C1033 C 0.92232 0.51780 0.18942
 C1034 C 0.93144 0.50047 0.19433
 C1035 C 0.92511 0.48326 0.18560
 C1036 C 0.91012 0.48342 0.17215
 H1037 H 0.82780 0.47061 0.10024
 H1038 H 0.83456 0.53199 0.09453
 H1039 H 0.81101 0.53203 0.06818
 H1040 H 0.80395 0.47049 0.07415
 H1041 H 0.90053 0.53141 0.17231
 H1042 H 0.92670 0.53124 0.19606
 H1043 H 0.93200 0.46973 0.18887
 H1044 H 0.90558 0.47005 0.16543
 C1045 C 0.40706 0.01703 0.67510
 C1046 C 0.40080 -0.00024 0.66671
 C1047 C 0.40955 -0.01756 0.67188
 C1048 C 0.42458 -0.01761 0.68529
 C1049 C 0.43108 -0.00030 0.69370
 C1050 C 0.42209 0.01702 0.68851
 C1051 C 0.38569 -0.00014 0.65252
 C1052 C 0.37318 -0.00003 0.64046
 C1053 C 0.35873 0.00013 0.62616
 C1054 C 0.34655 0.00029 0.61378
 C1055 C 0.33221 0.00052 0.59880
 C1056 C 0.32342 -0.01666 0.59280
 C1057 C 0.30992 -0.01652 0.57785
 C1058 C 0.30504 0.00083 0.56869
 C1059 C 0.31384 0.01805 0.57496
 C1060 C 0.32734 0.01787 0.58990
 H1061 H 0.40037 0.03052 0.67123
 H1062 H 0.40487 -0.03100 0.66541
 H1063 H 0.43136 -0.03114 0.68879
 H1064 H 0.42660 0.03054 0.69491
 H1065 H 0.32707 -0.03017 0.59960
 H1066 H 0.30322 -0.02996 0.57351
 H1067 H 0.31060 0.03159 0.56803
 H1068 H 0.33413 0.03123 0.59438
   
