data_POSCAR
  _audit_creation_date              2014-09-24
  _audit_creation_method            'ToBaCCo'
  _symmetry_space_group_name_H-M    'P1'
  _symmetry_Int_Tables_number       1
  _symmetry_cell_setting            triclinic
  loop_
  _symmetry_equiv_pos_as_xyz
 x,y,z
_cell_length_a 24.7395
_cell_length_b 24.2395
_cell_length_c 60.0073
_cell_angle_alpha 89.170100
_cell_angle_beta 90.842600
_cell_angle_gamma 123.769400
loop_
  _atom_site_label
  _atom_site_type_symbol
  _atom_site_fract_x
  _atom_site_fract_y
  _atom_site_fract_z
C1 C -0.04845 -0.04721 0.48439
 C2 C -0.00352 -0.01064 0.50140
 C3 C 0.00691 -0.04371 0.51848
 C4 C -0.02690 -0.11321 0.51884
 C5 C -0.07233 -0.14942 0.50160
 C6 C -0.08435 -0.11692 0.48441
 C7 C 0.03204 0.06244 0.50153
 C8 C 0.02989 0.09485 0.52031
 C9 C 0.06108 0.16387 0.52025
 C10 C 0.09748 0.20104 0.50159
 C11 C 0.10301 0.16955 0.48313
 C12 C 0.06823 0.09984 0.48294
 H13 H -0.05644 -0.02094 0.47135
 H14 H 0.04216 -0.01473 0.53148
 H15 H 0.00214 0.06604 0.53474
 H16 H 0.06945 0.07428 0.46851
 H17 H -0.09569 -0.20220 0.50101
 H18 H 0.12365 0.25469 0.50180
 C19 C 1.05988 0.00328 0.14533
 C20 C 1.02882 0.01878 0.16095
 C21 C 1.06528 0.06445 0.17781
 C22 C 1.13268 0.09534 0.17916
 C23 C 1.16355 0.07955 0.16337
 C24 C 1.12737 0.03223 0.14654
 C25 C 0.95782 -0.01342 0.15999
 C26 C 0.91944 -0.05173 0.17808
 C27 C 0.85175 -0.08222 0.17754
 C28 C 0.82350 -0.07018 0.15925
 C29 C 0.86174 -0.03138 0.14108
 C30 C 0.92859 -0.00473 0.14131
 H31 H 1.03084 -0.03268 0.13248
 H32 H 1.04098 0.07638 0.18982
 H33 H 0.94278 -0.05753 0.19248
 H34 H 0.95833 0.02487 0.12731
 H35 H 1.21575 0.10655 0.16379
 H36 H 0.77140 -0.09301 0.15882
 C37 C 0.02391 0.97623 0.85278
 C38 C -0.02269 0.95731 0.83597
 C39 C -0.03464 0.90937 0.82038
 C40 C -0.00176 0.87748 0.82096
 C41 C 0.04509 0.89348 0.83763
 C42 C 0.06370 0.94673 0.85507
 C43 C -0.05904 0.98909 0.83456
 C44 C -0.05285 1.02666 0.81570
 C45 C -0.08276 1.06134 0.81417
 C46 C -0.12344 1.05628 0.83118
 C47 C -0.13644 1.01389 0.85207
 C48 C -0.09837 0.98221 0.85229
 H49 H 0.03287 1.01419 0.86446
 H50 H -0.07103 0.89630 0.80752
 H51 H -0.02190 1.03104 0.80223
 H52 H -0.10302 0.95206 0.86659
 H53 H 0.06897 0.86744 0.83859
 H54 H -0.14765 1.08199 0.82931
 O55 O 0.41024 -0.04696 -0.01750
 O56 O 0.53622 -0.01449 0.02261
 O57 O 0.42673 -0.01754 0.02585
 O58 O 0.52706 -0.01610 -0.01996
 O59 O 0.56967 0.09115 -0.02456
 O60 O 0.47110 0.08956 0.02010
 O61 O 0.58041 0.09333 0.01981
 O62 O 0.45286 0.06038 -0.02163
 Cu63 Cu 0.46981 -0.03380 0.00368
 Cu64 Cu 0.52370 0.09359 -0.00156
 C65 C 0.41009 0.00021 -0.02672
 C66 C 0.58002 0.04438 0.02807
 C67 C 0.43230 0.03653 0.03065
 C68 C 0.56533 0.03868 -0.03014
 O69 O -0.06671 0.51881 0.65149
 O70 O -0.04827 0.41719 0.69264
 O71 O -0.04359 0.52776 0.69426
 O72 O -0.06043 0.41594 0.64929
 O73 O 0.04640 0.47499 0.64608
 O74 O 0.06243 0.58950 0.68877
 O75 O 0.05860 0.48005 0.68943
 O76 O 0.04251 0.58033 0.64591
 Cu77 Cu -0.06491 0.46393 0.67246
 Cu78 Cu 0.06281 0.53702 0.66714
 C79 C -0.01631 0.56826 0.64045
 C80 C 0.00758 0.43107 0.69822
 C81 C 0.01272 0.57825 0.69892
 C82 C -0.00942 0.42663 0.64012
 O83 O 0.57794 0.55952 0.31098
 O84 O 0.46009 0.44187 0.35195
 O85 O 0.57382 0.55347 0.35455
 O86 O 0.46823 0.44357 0.30865
 O87 O 0.51960 0.39269 0.31024
 O88 O 0.62321 0.50054 0.35553
 O89 O 0.50979 0.38934 0.35342
 O90 O 0.62887 0.50824 0.31218
 Cu91 Cu 0.51506 0.50491 0.33139
 Cu92 Cu 0.57542 0.44260 0.33297
 C93 C 0.62327 0.55400 0.30449
 C94 C 0.46463 0.39562 0.35970
 C95 C 0.61634 0.54497 0.36288
 C96 C 0.47641 0.39934 0.30170
 C97 C 0.05708 0.19623 0.54019
 C98 C 0.04984 0.24923 0.53877
 C99 C 0.04498 0.28082 0.55881
 C100 C 0.00502 0.30507 0.55836
 C101 C 0.00079 0.33634 0.57704
 C102 C 0.03773 0.34513 0.59630
 C103 C 0.07843 0.32178 0.59660
 C104 C 0.08156 0.28928 0.57812
 C105 C 0.03863 0.38274 0.61559
 C106 C -0.01501 0.38321 0.62210
 H107 H 0.04326 0.26507 0.52256
 H108 H -0.02301 0.29969 0.54354
 H109 H -0.02969 0.35542 0.57613
 H110 H 0.10805 0.32895 0.61115
 H111 H 0.11396 0.27246 0.57874
 H112 H 0.08303 0.40989 0.62540
 H113 H 0.05437 0.17427 0.55634
 H114 H -0.06176 0.35103 0.61403
 C115 C 0.80969 0.87326 0.19577
 C116 C 0.82604 0.83625 0.20885
 C117 C 0.78405 0.78910 0.22657
 C118 C 0.79399 0.73986 0.23356
 C119 C 0.75571 0.69435 0.25028
 C120 C 0.70680 0.69758 0.26058
 C121 C 0.69745 0.74741 0.25373
 C122 C 0.73567 0.79282 0.23699
 C123 C 0.66387 0.65014 0.27818
 C124 C 0.66970 0.60064 0.28772
 H125 H 0.86981 0.83843 0.20500
 H126 H 0.83123 0.73615 0.22590
 H127 H 0.76472 0.65686 0.25478
 H128 H 0.66043 0.75142 0.26143
 H129 H 0.72766 0.83115 0.23256
 H130 H 0.62501 0.65439 0.28393
 H131 H 0.76243 0.86539 0.19757
 H132 H 0.70810 0.59480 0.28288
 C133 C 0.11828 -0.02902 -0.12609
 C134 C 0.15670 -0.05410 -0.12363
 C135 C 0.20751 -0.03062 -0.10616
 C136 C 0.24005 -0.06268 -0.10359
 C137 C 0.28753 -0.04292 -0.08706
 C138 C 0.30348 0.00947 -0.07267
 C139 C 0.27247 0.04303 -0.07564
 C140 C 0.22448 0.02290 -0.09214
 C141 C 0.35235 0.02957 -0.05464
 C142 C 0.36012 -0.01681 -0.04378
 H143 H 0.14925 -0.09269 -0.13471
 H144 H 0.22851 -0.10344 -0.11435
 H145 H 0.31209 -0.06840 -0.08575
 H146 H 0.28450 0.08399 -0.06492
 H147 H 0.20073 0.04914 -0.09385
 H148 H 0.38040 0.08071 -0.04919
 H149 H 0.09110 -0.04351 -0.13605
 H150 H 0.32782 -0.06883 -0.04791
 C151 C -0.01267 0.85663 0.53614
 C152 C -0.04744 0.78824 0.54038
 C153 C -0.02942 0.75878 0.55835
 C154 C -0.07822 0.69799 0.56773
 C155 C -0.06326 0.66772 0.58441
 C156 C 0.00130 0.69728 0.59190
 C157 C 0.05036 0.75771 0.58232
 C158 C 0.03525 0.78834 0.56571
 C159 C 0.01828 0.66537 0.60932
 C160 C -0.02993 0.60995 0.62086
 H161 H -0.09230 0.75461 0.53155
 H162 H -0.12827 0.67392 0.56220
 H163 H -0.10236 0.62083 0.59125
 H164 H 0.10050 0.78116 0.58764
 H165 H 0.07440 0.83423 0.55836
 H166 H 0.06898 0.68570 0.61316
 H167 H 0.02671 0.88885 0.54751
 H168 H -0.01889 0.59222 0.63020
 C169 C 0.16943 0.14565 0.19672
 C170 C 0.23027 0.16286 0.20468
 C171 C 0.26881 0.21393 0.22185
 C172 C 0.33485 0.23796 0.22423
 C173 C 0.37317 0.28433 0.24059
 C174 C 0.34601 0.30717 0.25525
 C175 C 0.28039 0.28457 0.25259
 C176 C 0.24188 0.23803 0.23617
 C177 C 0.38498 0.35379 0.27347
 C178 C 0.43664 0.35465 0.28349
 H179 H 0.25165 0.13808 0.19797
 H180 H 0.35705 0.22081 0.21333
 H181 H 0.42415 0.30239 0.24157
 H182 H 0.25846 0.30167 0.26363
 H183 H 0.19104 0.22023 0.23523
 H184 H 0.37037 0.38500 0.28001
 H185 H 0.14672 0.16872 0.20372
 H186 H 0.44783 0.31954 0.27827
 C187 C 0.81594 0.00194 -0.12813
 C188 C 0.77862 0.02853 -0.12801
 C189 C 0.73430 0.01645 -0.10953
 C190 C 0.70119 0.04823 -0.11010
 C191 C 0.66010 0.03943 -0.09274
 C192 C 0.65138 -0.00131 -0.07435
 C193 C 0.68273 -0.03492 -0.07409
 C194 C 0.72423 -0.02585 -0.09145
 C195 C 0.61029 -0.00882 -0.05532
 C196 C 0.60502 0.04299 -0.04887
 H197 H 0.78193 0.05955 -0.14182
 H198 H 0.70741 0.08033 -0.12397
 H199 H 0.63490 0.06428 -0.09387
 H200 H 0.67622 -0.06708 -0.06020
 H201 H 0.74855 -0.05164 -0.09062
 H202 H 0.58733 -0.05396 -0.04541
 H203 H 0.83951 0.00991 -0.13874
 H204 H 0.63293 0.09025 -0.05752
 C205 C 0.15583 0.01342 0.13072
 C206 C 0.22082 0.03278 0.13121
 C207 C 0.25107 0.01704 0.11344
 C208 C 0.31863 0.05898 0.11082
 C209 C 0.34958 0.04811 0.09389
 C210 C 0.31364 -0.00540 0.07923
 C211 C 0.24654 -0.04951 0.08247
 C212 C 0.21527 -0.03825 0.09937
 C213 C 0.34576 -0.01459 0.06039
 C214 C 0.39561 0.04024 0.04889
 H215 H 0.25301 0.06346 0.14450
 H216 H 0.34754 0.10117 0.12167
 H217 H 0.40178 0.08173 0.09229
 H218 H 0.21810 -0.09172 0.07160
 H219 H 0.16347 -0.07312 0.10139
 H220 H 0.32778 -0.06424 0.05475
 H221 H 0.12509 -0.01832 0.11726
 H222 H 0.40837 0.08933 0.05328
 C223 C 0.87007 0.84906 0.46702
 C224 C 0.82569 0.78003 0.46605
 C225 C 0.78125 0.74489 0.44694
 C226 C 0.75552 0.67712 0.44451
 C227 C 0.71471 0.64167 0.42659
 C228 C 0.69852 0.67325 0.41059
 C229 C 0.72181 0.74030 0.41345
 C230 C 0.76304 0.77604 0.43141
 C231 C 0.65726 0.63682 0.39101
 C232 C 0.65828 0.58524 0.38154
 H233 H 0.82364 0.74869 0.47942
 H234 H 0.76763 0.65150 0.45643
 H235 H 0.69552 0.58934 0.42545
 H236 H 0.70892 0.76534 0.40158
 H237 H 0.77968 0.82751 0.43309
 H238 H 0.62804 0.65265 0.38338
 H239 H 0.86939 0.87875 0.45353
 H240 H 0.69182 0.57344 0.38801
 C241 C -0.07197 0.10221 0.79414
 C242 C -0.06145 0.16486 0.79556
 C243 C -0.05228 0.20585 0.77570
 C244 C -0.01272 0.27526 0.77727
 C245 C -0.00611 0.31519 0.75905
 C246 C -0.04023 0.28614 0.73910
 C247 C -0.07998 0.21675 0.73759
 C248 C -0.08550 0.17686 0.75563
 C249 C -0.03993 0.32666 0.72044
 C250 C 0.01310 0.39042 0.71535
 H251 H -0.05690 0.18584 0.81185
 H252 H 0.01269 0.29859 0.79269
 H253 H 0.02358 0.36858 0.76090
 H254 H -0.10743 0.19337 0.72247
 H255 H -0.11759 0.12349 0.75410
 H256 H -0.08319 0.30484 0.71004
 H257 H -0.06740 0.08480 0.77820
 H258 H 0.05922 0.41049 0.72386
 C259 C 0.83254 -0.02007 0.12139
 C260 C 0.78240 -0.01010 0.12315
 C261 C 0.75104 -0.00155 0.10346
 C262 C 0.72420 0.03620 0.10525
 C263 C 0.69083 0.04167 0.08723
 C264 C 0.68274 0.00828 0.06723
 C265 C 0.70968 -0.02934 0.06546
 C266 C 0.74395 -0.03386 0.08331
 C267 C 0.64108 0.00590 0.04887
 C268 C 0.63000 0.05554 0.04442
 H269 H 0.76729 -0.00586 0.13954
 H270 H 0.72847 0.06090 0.12071
 H271 H 0.66917 0.06965 0.08931
 H272 H 0.70319 -0.05631 0.05033
 H273 H 0.76259 -0.06474 0.08157
 H274 H 0.61770 -0.03754 0.03832
 H275 H 0.85404 -0.01506 0.10527
 H276 H 0.65774 0.10252 0.05302
 C277 C 0.14614 0.21068 0.46455
 C278 C 0.17696 0.18980 0.45100
 C279 C 0.22466 0.23191 0.43355
 C280 C 0.26719 0.21526 0.42592
 C281 C 0.31348 0.25387 0.40965
 C282 C 0.31807 0.31017 0.40056
 C283 C 0.27451 0.32590 0.40786
 C284 C 0.22823 0.28726 0.42411
 C285 C 0.36655 0.35359 0.38344
 C286 C 0.41737 0.34884 0.37626
 H287 H 0.16982 0.14221 0.45439
 H288 H 0.26495 0.17238 0.43271
 H289 H 0.34490 0.23883 0.40433
 H290 H 0.27629 0.36844 0.40097
 H291 H 0.19506 0.30064 0.42895
 H292 H 0.36277 0.39276 0.37639
 H293 H 0.15869 0.26101 0.46305
 H294 H 0.42403 0.31141 0.38297
 C295 C -0.01893 0.82620 0.80391
 C296 C 0.02190 0.80569 0.79822
 C297 C 0.00680 0.75582 0.78089
 C298 C 0.05676 0.74861 0.77436
 C299 C 0.04601 0.70327 0.75796
 C300 C -0.01516 0.66415 0.74747
 C301 C -0.06588 0.66957 0.75447
 C302 C -0.05518 0.71492 0.77100
 C303 C -0.02739 0.61691 0.72954
 C304 C 0.02248 0.62509 0.71629
 H305 H 0.06945 0.82982 0.80596
 H306 H 0.10461 0.77837 0.78196
 H307 H 0.08570 0.69864 0.75383
 H308 H -0.11377 0.63912 0.74696
 H309 H -0.09577 0.71708 0.77593
 H310 H -0.07701 0.57619 0.72615
 H311 H -0.06381 0.80706 0.79474
 H312 H 0.07153 0.66810 0.71850
   
