data_POSCAR
  _audit_creation_date              2014-09-24
  _audit_creation_method            'ToBaCCo'
  _symmetry_space_group_name_H-M    'P1'
  _symmetry_Int_Tables_number       1
  _symmetry_cell_setting            triclinic
  loop_
  _symmetry_equiv_pos_as_xyz
 x,y,z
_cell_length_a 29.0768
_cell_length_b 30.1195
_cell_length_c 28.1463
_cell_angle_alpha 91.501800
_cell_angle_beta 92.110100
_cell_angle_gamma 91.361000
loop_
  _atom_site_label
  _atom_site_type_symbol
  _atom_site_fract_x
  _atom_site_fract_y
  _atom_site_fract_z
O1 O 0.52705 0.07713 0.00795
 O2 O 0.45764 -0.03791 -0.08845
 O3 O 0.59544 -0.03017 -0.02544
 O4 O 0.38214 0.02692 0.01250
 O5 O 0.54333 -0.04513 -0.08319
 O6 O 0.44277 0.07093 0.01452
 O7 O 0.43729 0.02254 -0.05357
 O8 O 0.58647 0.03659 0.02555
 C9 C 0.56967 0.07132 0.00795
 C10 C 0.44180 0.00046 -0.09117
 C11 C 0.58429 -0.03603 -0.06932
 C12 C 0.39954 0.06698 0.01978
 O13 O 0.45648 0.02384 0.09513
 O14 O 0.53555 -0.10622 -0.02184
 O15 O 0.55216 -0.02010 0.09444
 O16 O 0.40009 -0.05106 -0.02599
 O17 O 0.45223 -0.09867 -0.01872
 O18 O 0.53961 0.04757 0.09321
 O19 O 0.42244 -0.03222 0.05868
 O20 O 0.56712 -0.08164 0.04445
 Co21 Co 0.49184 0.04761 0.04867
 Co22 Co 0.49664 -0.06661 -0.04759
 Co23 Co 0.56912 -0.02239 0.03311
 Co24 Co 0.43276 -0.00496 0.00357
 O25 O 0.50058 -0.01530 0.00806
 C26 C 0.43142 -0.01078 0.09647
 C27 C 0.55878 -0.11267 0.01531
 C28 C 0.55360 0.01573 0.11595
 C29 C 0.41059 -0.09086 -0.02346
 O30 O -0.10660 0.45678 -0.04216
 O31 O 0.04319 0.53972 0.07811
 O32 O -0.03652 0.42521 0.03770
 O33 O -0.08995 0.56295 0.02588
 O34 O 0.01961 0.45835 0.07743
 O35 O -0.11417 0.53837 -0.04321
 O36 O -0.02721 0.54743 0.07555
 O37 O -0.05554 0.40751 -0.04746
 C38 C -0.09695 0.41687 -0.04526
 C39 C 0.00891 0.55303 0.09837
 C40 C -0.01480 0.43206 0.07625
 C41 C -0.12154 0.55762 -0.00448
 O42 O -0.04856 0.54668 -0.10157
 O43 O 0.07003 0.44770 -0.00144
 O44 O 0.02123 0.44470 -0.07234
 O45 O 0.03174 0.58558 0.01007
 O46 O 0.07582 0.52984 -0.00639
 O47 O -0.04161 0.46400 -0.10868
 O48 O -0.03646 0.59517 -0.04209
 O49 O 0.02467 0.38897 -0.00812
 Co50 Co -0.07225 0.50086 -0.06819
 Co51 Co 0.04467 0.49429 0.03263
 Co52 Co -0.00799 0.43791 -0.01636
 Co53 Co -0.02899 0.56726 0.01574
 O54 O -0.01994 0.50280 -0.01051
 C55 C -0.03932 0.58581 -0.08656
 C56 C 0.06559 0.40575 0.00296
 C57 C -0.00150 0.44943 -0.11027
 C58 C 0.06872 0.57081 -0.00604
 O59 O 0.00311 -0.07615 0.45881
 O60 O 0.09957 0.06554 0.53511
 O61 O 0.05992 -0.01751 0.42617
 O62 O 0.02503 -0.04129 0.60094
 O63 O 0.09494 0.04183 0.45204
 O64 O 0.01335 -0.08361 0.53950
 O65 O 0.09050 0.00812 0.57931
 O66 O -0.02256 -0.03829 0.40361
 C67 C -0.01104 -0.07533 0.41696
 C68 C 0.11608 0.03696 0.56239
 C69 C 0.09616 0.00493 0.43071
 C70 C 0.02391 -0.07901 0.58226
 O71 O -0.06097 -0.03458 0.55922
 O72 O 0.01391 0.08569 0.44080
 O73 O -0.05063 0.03381 0.43994
 O74 O 0.03668 0.07585 0.58942
 O75 O 0.01546 0.10331 0.52345
 O76 O -0.07581 -0.02649 0.47178
 O77 O -0.03033 0.02299 0.60041
 O78 O 0.01172 0.03903 0.38084
 Co79 Co -0.02686 -0.04980 0.50676
 Co80 Co 0.05256 0.06825 0.48935
 Co81 Co 0.00597 0.00945 0.43566
 Co82 Co 0.02923 0.01592 0.58417
 O83 O 0.01505 0.00850 0.50741
 C84 C -0.06276 -0.00506 0.59235
 C85 C 0.01597 0.08000 0.39613
 C86 C -0.08382 0.00921 0.45040
 C87 C 0.02356 0.10838 0.56668
 C88 C -0.33565 0.17465 -0.03122
 C89 C -0.38273 0.18342 -0.02759
 C90 C -0.41405 0.14952 -0.01664
 C91 C -0.39879 0.10633 -0.00872
 C92 C -0.35208 0.09729 -0.01402
 C93 C -0.32094 0.13095 -0.02534
 C94 C -0.30150 0.21094 -0.03847
 N95 N -0.25640 0.20173 -0.04330
 N96 N -0.22503 0.23424 -0.04683
 C97 C -0.23731 0.27744 -0.04560
 N98 N -0.28251 0.28673 -0.04128
 N99 N -0.31395 0.25415 -0.03778
 C100 C -0.20179 0.31347 -0.04719
 C101 C -0.21377 0.35837 -0.04371
 C102 C -0.17979 0.39207 -0.04339
 C103 C -0.13316 0.38154 -0.04654
 C104 C -0.12126 0.33673 -0.05054
 C105 C -0.15513 0.30311 -0.05087
 H106 H -0.39525 0.21666 -0.03218
 H107 H -0.44989 0.15745 -0.01283
 H108 H -0.33929 0.06431 -0.00834
 H109 H -0.28503 0.12286 -0.02806
 H110 H -0.24936 0.36754 -0.04079
 H111 H -0.19000 0.42635 -0.04033
 H112 H -0.08566 0.32752 -0.05316
 H113 H -0.14459 0.26893 -0.05362
 C114 C 0.31096 0.80617 -0.03289
 C115 C 0.29810 0.85077 -0.03549
 C116 C 0.33125 0.88518 -0.03218
 C117 C 0.37840 0.87597 -0.02620
 C118 C 0.39115 0.83113 -0.02362
 C119 C 0.35788 0.79679 -0.02692
 C120 C 0.27549 0.76983 -0.03554
 N121 N 0.28737 0.72664 -0.03177
 N122 N 0.25525 0.69427 -0.03254
 C123 C 0.20987 0.70372 -0.03722
 N124 N 0.19810 0.74685 -0.04146
 N125 N 0.23017 0.77917 -0.04070
 C126 C 0.17369 0.66833 -0.03476
 C127 C 0.12711 0.67968 -0.03428
 C128 C 0.09310 0.64749 -0.02682
 C129 C 0.10460 0.60300 -0.02012
 C130 C 0.15083 0.59101 -0.02308
 C131 C 0.18511 0.62343 -0.03013
 H132 H 0.26225 0.85927 -0.03999
 H133 H 0.31968 0.91901 -0.03445
 H134 H 0.42694 0.82231 -0.01908
 H135 H 0.36903 0.76284 -0.02469
 H136 H 0.11688 0.71377 -0.03804
 H137 H 0.05779 0.65777 -0.02490
 H138 H 0.16070 0.55696 -0.01799
 H139 H 0.22064 0.61350 -0.03064
 C140 C 0.30810 0.17737 0.02583
 C141 C 0.29243 0.13371 0.03364
 C142 C 0.32241 0.09833 0.03194
 C143 C 0.36901 0.10549 0.02265
 C144 C 0.38525 0.14909 0.01567
 C145 C 0.35498 0.18474 0.01700
 C146 C 0.27489 0.21416 0.02622
 N147 N 0.28691 0.25600 0.01334
 N148 N 0.25587 0.28802 0.01213
 C149 C 0.21159 0.27947 0.02381
 N150 N 0.19997 0.23782 0.03709
 N151 N 0.23082 0.20598 0.03827
 C152 C 0.17564 0.31370 0.02056
 C153 C 0.12970 0.30155 0.02876
 C154 C 0.09476 0.33199 0.02358
 C155 C 0.10451 0.37567 0.01031
 C156 C 0.15045 0.38873 0.00341
 C157 C 0.18579 0.35785 0.00822
 H158 H 0.25667 0.12657 0.04058
 H159 H 0.30894 0.06518 0.03787
 H160 H 0.42110 0.15553 0.00851
 H161 H 0.36822 0.21793 0.01096
 H162 H 0.12033 0.26810 0.03854
 H163 H 0.05976 0.32111 0.02979
 H164 H 0.15884 0.42232 -0.00671
 H165 H 0.22083 0.36836 0.00183
 C166 C -0.37674 0.76153 0.03102
 C167 C -0.37016 0.79508 0.06652
 C168 C -0.39271 0.83539 0.06268
 C169 C -0.42241 0.84285 0.02336
 C170 C -0.43118 0.80826 -0.01051
 C171 C -0.40856 0.76809 -0.00676
 C172 C -0.34738 0.72201 0.03080
 N173 N -0.34693 0.69447 -0.00819
 N174 N -0.31655 0.66219 -0.01095
 C175 C -0.28540 0.65600 0.02526
 N176 N -0.28668 0.68280 0.06475
 N177 N -0.31697 0.71513 0.06746
 C178 C -0.24756 0.62441 0.01974
 C179 C -0.21485 0.61937 0.05707
 C180 C -0.17504 0.59563 0.04972
 C181 C -0.16699 0.57628 0.00490
 C182 C -0.20106 0.57867 -0.03156
 C183 C -0.24100 0.60254 -0.02421
 H184 H -0.34603 0.79107 0.09622
 H185 H -0.38547 0.86131 0.08949
 H186 H -0.45423 0.81279 -0.04101
 H187 H -0.41480 0.74282 -0.03447
 H188 H -0.21898 0.63534 0.09151
 H189 H -0.14966 0.59397 0.07874
 H190 H -0.19590 0.56390 -0.06640
 H191 H -0.26565 0.60553 -0.05367
 C192 C 0.00963 -0.34682 0.20907
 C193 C -0.03147 -0.36865 0.19329
 C194 C -0.03094 -0.40373 0.16012
 C195 C 0.01067 -0.41752 0.14130
 C196 C 0.05220 -0.39770 0.15923
 C197 C 0.05169 -0.36271 0.19315
 C198 C 0.00771 -0.30608 0.23943
 N199 N 0.04408 -0.29223 0.26814
 N200 N 0.04182 -0.25526 0.29499
 C201 C 0.00339 -0.23037 0.29370
 N202 N -0.03275 -0.24404 0.26467
 N203 N -0.03065 -0.28118 0.23822
 C204 C 0.00037 -0.18986 0.32421
 C205 C -0.02999 -0.15591 0.31192
 C206 C -0.03340 -0.11810 0.34155
 C207 C -0.00735 -0.11421 0.38446
 C208 C 0.02293 -0.14813 0.39667
 C209 C 0.02711 -0.18530 0.36664
 H210 H -0.06434 -0.35771 0.20552
 H211 H -0.06353 -0.41852 0.14725
 H212 H 0.08472 -0.40754 0.14518
 H213 H 0.08394 -0.34656 0.20492
 H214 H -0.05088 -0.15850 0.27927
 H215 H -0.05689 -0.09234 0.33139
 H216 H 0.04369 -0.14578 0.42943
 H217 H 0.05061 -0.21093 0.37716
 C218 C 0.03745 0.38577 0.76053
 C219 C -0.00075 0.41343 0.76066
 C220 C -0.01150 0.43692 0.80200
 C221 C 0.01569 0.43314 0.84397
 C222 C 0.05634 0.40904 0.84256
 C223 C 0.06719 0.38564 0.80115
 C224 C 0.04218 0.35226 0.72173
 N225 N 0.07610 0.32223 0.72469
 N226 N 0.07575 0.28696 0.69529
 C227 C 0.04146 0.28013 0.66166
 N228 N 0.00849 0.31107 0.65725
 N229 N 0.00881 0.34639 0.68681
 C230 C 0.03724 0.23718 0.63520
 C231 C 0.01007 0.23171 0.59291
 C232 C 0.00500 0.18977 0.57010
 C233 C 0.02605 0.15276 0.59009
 C234 C 0.05282 0.15851 0.63244
 C235 C 0.05867 0.20013 0.65441
 H236 H -0.02402 0.41477 0.72983
 H237 H -0.04269 0.45588 0.80183
 H238 H 0.07821 0.40594 0.87424
 H239 H 0.09725 0.36510 0.80212
 H240 H -0.00697 0.25978 0.57747
 H241 H -0.01545 0.18621 0.53722
 H242 H 0.07008 0.13080 0.64844
 H243 H 0.07936 0.20300 0.68719
 C244 C -0.02928 0.33963 0.18755
 C245 C -0.05831 0.33624 0.14654
 C246 C -0.05668 0.36877 0.11215
 C247 C -0.02559 0.40516 0.11779
 C248 C 0.00083 0.41037 0.16046
 C249 C -0.00117 0.37800 0.19514
 C250 C -0.02533 0.30169 0.21982
 N251 N -0.00305 0.30659 0.26296
 N252 N 0.00331 0.27174 0.29042
 C253 C -0.01191 0.23044 0.27573
 N254 N -0.03439 0.22558 0.23269
 N255 N -0.04096 0.26047 0.20534
 C256 C -0.00381 0.19160 0.30591
 C257 C -0.00893 0.14797 0.28695
 C258 C -0.00135 0.11145 0.31580
 C259 C 0.01090 0.11793 0.36424
 C260 C 0.01624 0.16150 0.38303
 C261 C 0.00928 0.19788 0.35418
 H262 H -0.08087 0.30743 0.13996
 H263 H -0.07755 0.36377 0.07969
 H264 H 0.02507 0.43807 0.16583
 H265 H 0.02139 0.38180 0.22653
 H266 H -0.01871 0.14201 0.24979
 H267 H -0.00589 0.07825 0.30040
 H268 H 0.02541 0.16758 0.42030
 H269 H 0.01343 0.23098 0.36996
 C270 C -0.00858 -0.31793 0.81378
 C271 C -0.02174 -0.36138 0.79905
 C272 C -0.03265 -0.39314 0.83224
 C273 C -0.03081 -0.38249 0.88149
 C274 C -0.01846 -0.33849 0.89608
 C275 C -0.00725 -0.30676 0.86265
 C276 C 0.00319 -0.28456 0.77810
 N277 N 0.01947 -0.24342 0.79185
 N278 N 0.02893 -0.21319 0.75969
 C279 C 0.02260 -0.22279 0.71241
 N280 N 0.00666 -0.26404 0.69866
 N281 N -0.00270 -0.29430 0.73081
 C282 C 0.02975 -0.18797 0.67698
 C283 C 0.01667 -0.19557 0.62872
 C284 C 0.01758 -0.16073 0.59677
 C285 C 0.03153 -0.11772 0.61254
 C286 C 0.04753 -0.11091 0.65996
 C287 C 0.04666 -0.14559 0.69178
 H288 H -0.02331 -0.37114 0.76172
 H289 H -0.04208 -0.42632 0.81890
 H290 H -0.01696 -0.32844 0.93335
 H291 H 0.00241 -0.27343 0.87518
 H292 H 0.00380 -0.22793 0.61604
 H293 H 0.00505 -0.16696 0.56043
 H294 H 0.05889 -0.07819 0.67311
 H295 H 0.05761 -0.13866 0.72847
 C296 C 0.38449 0.03873 0.77861
 C297 C 0.38199 0.06692 0.81904
 C298 C 0.40329 0.05561 0.86239
 C299 C 0.42699 0.01544 0.86627
 C300 C 0.43249 -0.01061 0.82455
 C301 C 0.41166 0.00095 0.78148
 C302 C 0.35472 0.04504 0.73557
 N303 N 0.35024 0.01218 0.70163
 N304 N 0.31850 0.01396 0.66654
 C305 C 0.29000 0.04886 0.66367
 N306 N 0.29544 0.08257 0.69660
 N307 N 0.32710 0.08065 0.73194
 C308 C 0.24979 0.04686 0.62999
 C309 C 0.22651 0.08554 0.61778
 C310 C 0.18425 0.08249 0.59232
 C311 C 0.16425 0.04072 0.57989
 C312 C 0.18852 0.00225 0.58996
 C313 C 0.23121 0.00530 0.61420
 H314 H 0.36166 0.09655 0.81789
 H315 H 0.39887 0.07712 0.89328
 H316 H 0.45150 -0.04113 0.82524
 H317 H 0.41510 -0.02110 0.75088
 H318 H 0.24013 0.11795 0.62942
 H319 H 0.16581 0.11258 0.58515
 H320 H 0.17361 -0.03026 0.58060
 H321 H 0.24821 -0.02512 0.62320
 C322 C -0.36491 0.02797 0.24631
 C323 C -0.38477 -0.01326 0.23112
 C324 C -0.41304 -0.01680 0.18989
 C325 C -0.42265 0.02086 0.16323
 C326 C -0.40524 0.06253 0.17989
 C327 C -0.37640 0.06602 0.22087
 C328 C -0.32959 0.03038 0.28587
 N329 N -0.30155 0.06690 0.29282
 N330 N -0.26670 0.06723 0.32498
 C331 C -0.25848 0.03114 0.35173
 N332 N -0.28715 -0.00499 0.34548
 N333 N -0.32187 -0.00538 0.31323
 C334 C -0.21663 0.02939 0.38352
 C335 C -0.20939 -0.00726 0.41261
 C336 C -0.16712 -0.01234 0.43701
 C337 C -0.13104 0.01899 0.43267
 C338 C -0.13923 0.05707 0.40607
 C339 C -0.18159 0.06228 0.38189
 H340 H -0.37682 -0.04325 0.24982
 H341 H -0.42616 -0.04932 0.17797
 H342 H -0.41206 0.09211 0.15998
 H343 H -0.36197 0.09833 0.23177
 H344 H -0.23574 -0.03301 0.41510
 H345 H -0.16199 -0.04197 0.45734
 H346 H -0.11217 0.08189 0.40209
 H347 H -0.18599 0.09105 0.36006
 C348 C 0.35654 -0.03766 0.22150
 C349 C 0.35008 -0.06506 0.18044
 C350 C 0.37648 -0.05810 0.14066
 C351 C 0.40988 -0.02358 0.14107
 C352 C 0.41858 0.00177 0.18317
 C353 C 0.39223 -0.00522 0.22298
 C354 C 0.32346 -0.03981 0.26036
 N355 N 0.32727 -0.01063 0.29800
 N356 N 0.29466 -0.00883 0.32996
 C357 C 0.25677 -0.03612 0.32571
 N358 N 0.25346 -0.06603 0.28869
 N359 N 0.28609 -0.06783 0.25671
 C360 C 0.21783 -0.03012 0.35776
 C361 C 0.17729 -0.05642 0.35154
 C362 C 0.13828 -0.04649 0.37710
 C363 C 0.13899 -0.00995 0.40921
 C364 C 0.18025 0.01469 0.41749
 C365 C 0.21926 0.00466 0.39214
 H366 H 0.32321 -0.09062 0.17815
 H367 H 0.36911 -0.07835 0.10879
 H368 H 0.44434 0.02840 0.18469
 H369 H 0.39849 0.01624 0.25413
 H370 H 0.17505 -0.08366 0.32562
 H371 H 0.10700 -0.06621 0.37016
 H372 H 0.18196 0.04277 0.44239
 H373 H 0.24994 0.02542 0.39818
 C374 C -0.31289 -0.02157 0.82526
 C375 C -0.35732 -0.03812 0.81242
 C376 C -0.39064 -0.04256 0.84662
 C377 C -0.38022 -0.03098 0.89461
 C378 C -0.33574 -0.01460 0.90754
 C379 C -0.30253 -0.00968 0.87321
 C380 C -0.27751 -0.01706 0.78894
 N381 N -0.23757 0.00609 0.79908
 N382 N -0.20557 0.00976 0.76665
 C383 C -0.21203 -0.00966 0.72272
 N384 N -0.25200 -0.03280 0.71253
 N385 N -0.28411 -0.03631 0.74491
 C386 C -0.17563 -0.00654 0.68730
 C387 C -0.17734 -0.03388 0.64592
 C388 C -0.14130 -0.03273 0.61425
 C389 C -0.10302 -0.00393 0.62313
 C390 C -0.10215 0.02441 0.66367
 C391 C -0.13788 0.02300 0.69541
 H392 H -0.36652 -0.04746 0.77582
 H393 H -0.42456 -0.05536 0.83543
 H394 H -0.32656 -0.00549 0.94419
 H395 H -0.26859 0.00302 0.88437
 H396 H -0.20597 -0.05699 0.63856
 H397 H -0.14305 -0.05492 0.58330
 H398 H -0.07320 0.04701 0.67165
 H399 H -0.13558 0.04478 0.72668
   
