data_POSCAR
  _audit_creation_date              2014-09-24
  _audit_creation_method            'ToBaCCo'
  _symmetry_space_group_name_H-M    'P1'
  _symmetry_Int_Tables_number       1
  _symmetry_cell_setting            triclinic
  loop_
  _symmetry_equiv_pos_as_xyz
 x,y,z
_cell_length_a 14.8594
_cell_length_b 14.7223
_cell_length_c 25.2081
_cell_angle_alpha 79.541400
_cell_angle_beta 99.155900
_cell_angle_gamma 83.233400
loop_
  _atom_site_label
  _atom_site_type_symbol
  _atom_site_fract_x
  _atom_site_fract_y
  _atom_site_fract_z
O1 O 0.04721 0.55478 1.06583
 O2 O 0.07341 0.40946 0.96337
 O3 O 0.08180 0.58447 0.96720
 O4 O 0.04868 0.37913 1.06462
 O5 O -0.10127 0.40748 1.03244
 O6 O -0.06846 0.61811 0.93698
 O7 O -0.07627 0.44247 0.93102
 O8 O -0.10335 0.58339 1.03589
 Cu9 Cu 0.07777 0.47875 1.01821
 Cu10 Cu -0.10241 0.51585 0.98074
 C11 C -0.03257 0.59384 1.06834
 C12 C 0.00293 0.40094 0.92975
 C13 C 0.01267 0.63763 0.93634
 C14 C -0.03144 0.35796 1.06513
 O15 O 0.56717 0.06820 0.43317
 O16 O 0.41273 0.10206 0.53199
 O17 O 0.58335 0.11552 0.52841
 O18 O 0.38882 0.06539 0.43394
 O19 O 0.42439 -0.08492 0.47128
 O20 O 0.61534 -0.03388 0.56859
 O21 O 0.44500 -0.04903 0.56834
 O22 O 0.60155 -0.08121 0.47266
 Cu23 Cu 0.48444 0.10271 0.47741
 Cu24 Cu 0.52550 -0.07742 0.52349
 C25 C 0.61250 -0.01254 0.43714
 C26 C 0.40317 0.03163 0.56712
 C27 C 0.63083 0.04991 0.56549
 C28 C 0.37192 -0.01782 0.43739
 C29 C -0.05258 -0.15386 0.22778
 C30 C -0.12939 -0.14870 0.26144
 C31 C -0.13296 -0.07476 0.28710
 C32 C -0.05745 -0.01300 0.27712
 C33 C -0.06826 -0.05840 0.18879
 C34 C -0.07087 0.01536 0.21443
 C35 C 0.03556 -0.15515 0.26888
 C36 C 0.03438 -0.08101 0.29396
 H37 H -0.17722 -0.19875 0.26432
 H38 H -0.05922 0.04703 0.29800
 H39 H -0.07195 -0.05071 0.14490
 H40 H 0.09503 -0.20908 0.27633
 C41 C 0.14550 0.06314 0.71965
 C42 C 0.14323 -0.03019 0.75784
 C43 C 0.06817 -0.03167 0.78253
 C44 C 0.00230 0.06206 0.76711
 C45 C 0.05350 0.08257 0.67954
 C46 C -0.02132 0.08122 0.70398
 C47 C 0.13842 0.13575 0.75550
 C48 C 0.06391 0.13515 0.78094
 H49 H 0.19562 -0.09073 0.76373
 H50 H -0.05906 0.06444 0.78695
 H51 H 0.04849 0.08924 0.63559
 H52 H 0.18767 0.18385 0.75923
 C53 C -0.04361 -0.34613 0.10833
 C54 C 0.02943 -0.32120 0.13752
 C55 C 0.02258 -0.25140 0.17232
 C56 C -0.04851 -0.23329 0.19754
 H57 H 0.09817 -0.34586 0.13185
 H58 H 0.08029 -0.21319 0.17751
 H59 H -0.11289 -0.31718 0.11079
 H60 H -0.10626 -0.27163 0.19373
 C61 C -0.04141 0.27388 0.10388
 C62 C -0.11857 0.23505 0.10010
 C63 C -0.12292 0.14305 0.13353
 C64 C -0.07685 0.11274 0.18519
 H65 H -0.17653 0.26561 0.06735
 H66 H -0.16542 0.09872 0.11435
 H67 H 0.01916 0.23927 0.13377
 H68 H -0.04179 0.15976 0.20658
 C69 C 0.34227 0.04074 0.60688
 C70 C 0.30167 0.12309 0.61346
 C71 C 0.23349 0.13064 0.64984
 C72 C 0.22747 0.06181 0.69147
 H73 H 0.31258 0.18714 0.58814
 H74 H 0.18326 0.19365 0.63998
 H75 H 0.32889 -0.02394 0.63013
 H76 H 0.28035 0.00108 0.70425
 C77 C -0.29469 0.07236 0.60447
 C78 C -0.25352 0.01210 0.65082
 C79 C -0.17258 0.02877 0.68811
 C80 C -0.11286 0.08361 0.67096
 H81 H -0.27911 -0.05329 0.66208
 H82 H -0.15583 -0.01503 0.72876
 H83 H -0.27452 0.14083 0.59470
 H84 H -0.12443 0.12012 0.62858
 C85 C 0.02793 -0.28169 0.90242
 C86 C -0.04045 -0.21779 0.87053
 C87 C -0.02523 -0.13001 0.83615
 C88 C 0.05400 -0.11817 0.81852
 H89 H -0.11156 -0.22708 0.87120
 H90 H -0.08402 -0.07542 0.82338
 H91 H 0.09878 -0.26996 0.90421
 H92 H 0.11042 -0.17561 0.82848
 C93 C 0.01223 0.34174 0.88898
 C94 C 0.09426 0.29675 0.88555
 C95 C 0.10917 0.23707 0.84555
 C96 C 0.04371 0.19709 0.81919
 H97 H 0.15568 0.30629 0.91220
 H98 H 0.17988 0.22175 0.84045
 H99 H -0.04955 0.33629 0.86127
 H100 H -0.02548 0.20523 0.82777
 C101 C -0.32365 -0.02801 0.40336
 C102 C -0.30152 0.04005 0.36668
 C103 C -0.22984 0.02391 0.33317
 C104 C -0.20391 -0.05906 0.32089
 H105 H -0.33292 0.11176 0.36283
 H106 H -0.20112 0.08443 0.31616
 H107 H -0.28817 -0.09870 0.40945
 H108 H -0.23891 -0.11748 0.33355
 C109 C 0.28974 -0.03798 0.40295
 C110 C 0.22268 0.02994 0.37337
 C111 C 0.13619 0.01448 0.33997
 C112 C 0.11750 -0.06908 0.33133
 H113 H 0.23000 0.10211 0.37396
 H114 H 0.08775 0.07653 0.31989
 H115 H 0.28363 -0.11076 0.40477
 H116 H 0.16733 -0.13115 0.34849
   
