data_POSCAR
  _audit_creation_date              2014-09-24
  _audit_creation_method            'ToBaCCo'
  _symmetry_space_group_name_H-M    'P1'
  _symmetry_Int_Tables_number       1
  _symmetry_cell_setting            triclinic
  loop_
  _symmetry_equiv_pos_as_xyz
 x,y,z
_cell_length_a 30.8476
_cell_length_b 30.0574
_cell_length_c 30.5233
_cell_angle_alpha 87.577500
_cell_angle_beta 90.802000
_cell_angle_gamma 92.742200
loop_
  _atom_site_label
  _atom_site_type_symbol
  _atom_site_fract_x
  _atom_site_fract_y
  _atom_site_fract_z
C1 C 0.19923 0.47939 1.06830
 H2 H 0.20189 0.45339 1.04516
 C3 C 0.16554 0.47666 1.09849
 H4 H 0.14255 0.44828 1.09814
 C5 C 0.22449 0.54922 1.09425
 H6 H 0.24706 0.57782 1.09189
 C7 C 0.19101 0.54805 1.12477
 H8 H 0.18919 0.57524 1.14676
 N9 N 0.22747 0.51551 1.06628
 C10 C 0.30627 0.59897 0.98127
 H11 H 0.28405 0.59404 0.95405
 C12 C 0.34133 0.62993 0.97651
 H13 H 0.34553 0.64920 0.94594
 C14 C 0.33097 0.57670 1.05246
 H15 H 0.32786 0.55426 1.08101
 C16 C 0.36625 0.60741 1.04918
 H17 H 0.38993 0.60917 1.07566
 Zn18 Zn 0.26618 0.51990 1.01853
 N19 N 0.30256 0.57223 1.01830
 C20 C 0.20125 0.55009 0.96184
 N21 N 0.23168 0.51896 0.96698
 C22 C 0.23525 0.48658 0.93757
 C23 C 0.20754 0.48481 0.90109
 C24 C 0.17270 0.54935 0.92599
 C25 C 0.33498 0.47589 0.98806
 C26 C 0.36429 0.44253 0.98436
 C27 C 0.33049 0.40267 1.04635
 C28 C 0.30175 0.43709 1.04902
 N29 N 0.30396 0.47226 1.01939
 H30 H 0.19864 0.57492 0.98619
 H31 H 0.25885 0.46144 0.94278
 H32 H 0.21020 0.45852 0.87820
 H33 H 0.14780 0.57353 0.92286
 H34 H 0.33644 0.50459 0.96543
 H35 H 0.38837 0.44545 0.95878
 H36 H 0.32807 0.37421 1.06931
 H37 H 0.27755 0.43542 1.07436
 C38 C 0.37263 0.63290 1.01005
 C39 C 0.15972 0.51227 1.12602
 C40 C 0.36151 0.40499 1.01309
 C41 C 0.17585 0.51647 0.89508
 C42 C 0.83648 0.53023 -0.06266
 H43 H 0.83488 0.55820 -0.04186
 C44 C 0.87245 0.52735 -0.08939
 H45 H 0.89840 0.55281 -0.08793
 C46 C 0.80625 0.46194 -0.08751
 H47 H 0.78280 0.43438 -0.08460
 C48 C 0.84001 0.45953 -0.11718
 H49 H 0.83980 0.43186 -0.13879
 N50 N 0.80462 0.49728 -0.06118
 C51 C 0.70875 0.56288 0.01416
 H52 H 0.70654 0.53928 0.04183
 C53 C 0.68515 0.60121 0.01384
 H54 H 0.66434 0.60676 0.04118
 C55 C 0.73772 0.58375 -0.05569
 H56 H 0.75783 0.57632 -0.08292
 C57 C 0.71465 0.62283 -0.05729
 H58 H 0.71723 0.64563 -0.08566
 Zn59 Zn 0.76310 0.50077 -0.01557
 N60 N 0.73439 0.55486 -0.02019
 C61 C 0.81929 0.53807 0.04728
 N62 N 0.79628 0.49988 0.03765
 C63 C 0.80149 0.46148 0.06199
 C64 C 0.83136 0.46046 0.09687
 C65 C 0.85124 0.53783 0.08013
 C66 C 0.70339 0.43632 -0.05338
 C67 C 0.67214 0.40100 -0.05243
 C68 C 0.66701 0.40789 0.02566
 C69 C 0.70001 0.44130 0.02349
 N70 N 0.71890 0.45370 -0.01541
 H71 H 0.81417 0.56849 0.02817
 H72 H 0.78372 0.43114 0.05349
 H73 H 0.83473 0.42972 0.11615
 H74 H 0.87089 0.56800 0.08535
 H75 H 0.71471 0.45007 -0.08463
 H76 H 0.66188 0.38633 -0.08288
 H77 H 0.65176 0.39960 0.05686
 H78 H 0.71007 0.45784 0.05296
 C79 C 0.68833 0.63195 -0.02193
 C80 C 0.87503 0.49115 -0.11666
 C81 C 0.65412 0.38551 -0.01228
 C82 C 0.85863 0.49826 0.10459
 C83 C -0.02738 0.30793 0.45445
 H84 H -0.05212 0.30609 0.47932
 C85 C -0.03011 0.33855 0.41896
 H86 H -0.05645 0.36112 0.41807
 C87 C 0.03906 0.28357 0.42866
 H88 H 0.06673 0.26313 0.43316
 C89 C 0.03730 0.31324 0.39223
 H90 H 0.06309 0.31356 0.36852
 N91 N 0.00647 0.28072 0.45837
 C92 C -0.05620 0.18142 0.54782
 H93 H -0.03654 0.18536 0.57713
 C94 C -0.09354 0.15330 0.54930
 H95 H -0.10317 0.13723 0.58028
 C96 C -0.06635 0.19638 0.47172
 H97 H -0.05496 0.21251 0.44141
 C98 C -0.10226 0.16635 0.47118
 H99 H -0.11778 0.15920 0.44007
 Zn100 Zn 0.00691 0.24080 0.50833
 N101 N -0.04452 0.20390 0.50985
 C102 C -0.02064 0.27821 0.58737
 N103 N 0.01227 0.27606 0.55838
 C104 C 0.04937 0.30194 0.56234
 C105 C 0.05472 0.33079 0.59688
 C106 C -0.01604 0.30543 0.62319
 C107 C 0.05556 0.17973 0.46765
 C108 C 0.08578 0.14725 0.46388
 C109 C 0.10775 0.15788 0.53914
 C110 C 0.07816 0.19163 0.54094
 N111 N 0.05261 0.20155 0.50551
 H112 H -0.05110 0.25996 0.58233
 H113 H 0.07444 0.30077 0.53803
 H114 H 0.08381 0.35231 0.59865
 H115 H -0.04244 0.30641 0.64609
 H116 H 0.03398 0.18731 0.44040
 H117 H 0.08829 0.13097 0.43309
 H118 H 0.12698 0.14924 0.56794
 H119 H 0.07440 0.20860 0.57109
 C120 C -0.11744 0.14560 0.51063
 C121 C 0.00185 0.34091 0.38618
 C122 C 0.11110 0.13463 0.50044
 C123 C 0.02208 0.33211 0.62839
 C124 C 0.95094 0.67572 0.56101
 H125 H 0.91906 0.68299 0.54823
 C126 C 0.95600 0.63872 0.58976
 H127 H 0.92774 0.61769 0.59852
 C128 C 1.02676 0.69167 0.56171
 H129 H 1.05488 0.70982 0.54826
 C130 C 1.03277 0.65771 0.59320
 H131 H 1.06515 0.65312 0.60619
 N132 N 0.98622 0.70110 0.54717
 C133 C 0.90018 0.77528 0.46897
 H134 H 0.90352 0.75376 0.44186
 C135 C 0.86738 0.80587 0.46782
 H136 H 0.84495 0.80713 0.44022
 C137 C 0.92657 0.80194 0.53683
 H138 H 0.95059 0.80100 0.56296
 C139 C 0.89479 0.83344 0.53661
 H140 H 0.89415 0.85648 0.56291
 Zn141 Zn 0.98109 0.74379 0.49989
 N142 N 0.92950 0.77466 0.50270
 C143 C 0.95231 0.67506 0.44702
 N144 N 0.98220 0.70982 0.44843
 C145 C 1.01371 0.71542 0.41760
 C146 C 1.01625 0.68508 0.38439
 C147 C 0.95503 0.64279 0.41572
 C148 C 1.04718 0.79604 0.54196
 C149 C 1.08375 0.82498 0.54426
 C150 C 1.07437 0.84372 0.46715
 C151 C 1.03808 0.81412 0.46634
 N152 N 1.02721 0.78842 0.50267
 H153 H 0.92744 0.67113 0.47159
 H154 H 1.03827 0.74196 0.41956
 H155 H 1.04162 0.68997 0.36024
 H156 H 0.93242 0.61409 0.41684
 H157 H 1.03528 0.77908 0.57161
 H158 H 1.10081 0.82876 0.57524
 H159 H 1.08410 0.86241 0.43752
 H160 H 1.01919 0.81096 0.43645
 C161 C 0.86577 0.83668 0.50100
 C162 C 0.99762 0.62888 0.60591
 C163 C 1.09878 0.84757 0.50605
 C164 C 0.98825 0.64681 0.38473
 C165 C 0.41785 -0.05360 0.27996
 H166 H 0.42326 -0.08204 0.26055
 C167 C 0.38273 -0.05468 0.30855
 H168 H 0.36067 -0.08379 0.31094
 C169 C 0.44083 0.01850 0.30253
 H170 H 0.46420 0.04650 0.30044
 C171 C 0.40629 0.01885 0.33129
 H172 H 0.40270 0.04729 0.35137
 N173 N 0.44605 -0.01738 0.27781
 C174 C 0.53386 -0.09131 0.21158
 H175 H 0.55948 -0.08625 0.23555
 C176 C 0.53689 -0.12477 0.18157
 H177 H 0.56515 -0.14486 0.18284
 C178 C 0.46860 -0.06815 0.17785
 H179 H 0.44236 -0.04551 0.17636
 C180 C 0.47074 -0.10056 0.14675
 H181 H 0.44549 -0.10297 0.12181
 Zn182 Zn 0.49725 -0.01464 0.24511
 N183 N 0.50002 -0.06389 0.20921
 C184 C 0.54508 -0.05068 0.31424
 N185 N 0.54245 -0.01348 0.28750
 C186 C 0.56739 0.02409 0.29491
 C187 C 0.59725 0.02466 0.32962
 C188 C 0.57442 -0.05151 0.34941
 C189 C 0.45860 0.05098 0.19319
 C190 C 0.45610 0.08659 0.16270
 C191 C 0.53439 0.09372 0.16254
 C192 C 0.53540 0.05647 0.19146
 N193 N 0.49782 0.03698 0.20741
 H194 H 0.52364 -0.07948 0.30870
 H195 H 0.56305 0.05424 0.27528
 H196 H 0.61687 0.05475 0.33542
 H197 H 0.57604 -0.08116 0.37068
 H198 H 0.42912 0.03359 0.20457
 H199 H 0.42457 0.09597 0.15046
 H200 H 0.56463 0.10961 0.15108
 H201 H 0.56619 0.04300 0.20092
 C202 C 0.50515 -0.12971 0.14831
 C203 C 0.37718 -0.01818 0.33465
 C204 C 0.49428 0.10952 0.14807
 C205 C 0.60042 -0.01328 0.35758
 C206 C 0.58413 0.00445 0.72758
 H207 H 0.58632 -0.00352 0.76236
 C208 C 0.62017 -0.00076 0.70118
 H209 H 0.65011 -0.01205 0.71579
 C210 C 0.54172 0.02481 0.66519
 H211 H 0.51100 0.03369 0.65088
 C212 C 0.57680 0.02013 0.63779
 H213 H 0.57283 0.02555 0.60267
 N214 N 0.54553 0.01603 0.70916
 C215 C 0.47377 -0.04163 0.81751
 H216 H 0.45672 -0.01302 0.82702
 C217 C 0.47862 -0.07750 0.84742
 H218 H 0.46557 -0.07632 0.88009
 C219 C 0.51448 -0.07680 0.76464
 H220 H 0.52919 -0.07580 0.73264
 C221 C 0.52016 -0.11341 0.79363
 H222 H 0.53965 -0.14036 0.78415
 Zn223 Zn 0.49396 0.01276 0.74306
 N224 N 0.49272 -0.04129 0.77752
 C225 C 0.42821 -0.02753 0.69113
 N226 N 0.44553 0.01259 0.70345
 C227 C 0.43245 0.05128 0.68379
 C228 C 0.39988 0.05060 0.65156
 C229 C 0.39716 -0.02978 0.65740
 C230 C 0.52753 0.06464 0.81159
 C231 C 0.52717 0.09553 0.84457
 C232 C 0.45806 0.11902 0.81656
 C233 C 0.45904 0.08673 0.78506
 N234 N 0.49365 0.06046 0.78273
 H235 H 0.43982 -0.05797 0.70620
 H236 H 0.44820 0.08276 0.69206
 H237 H 0.38918 0.08181 0.63717
 H238 H 0.38501 -0.06208 0.64695
 H239 H 0.55419 0.04279 0.81015
 H240 H 0.55374 0.09737 0.86810
 H241 H 0.43033 0.13970 0.81776
 H242 H 0.43116 0.08171 0.76391
 C243 C 0.50305 -0.11321 0.83588
 C244 C 0.61607 0.00595 0.65568
 C245 C 0.49165 0.12258 0.84785
 C246 C 0.38315 0.00964 0.63654
 Si247 Si 0.24599 -0.01142 0.48634
 Si248 Si 0.74073 -0.00803 0.50394
 Si249 Si 0.49112 0.25569 0.99829
 Si250 Si 0.53972 0.75547 -0.00774
 Si251 Si 1.00313 0.49819 0.25007
 Si252 Si 0.03020 0.48723 0.75577
 C253 C 0.12803 0.05609 0.47978
 C254 C 0.14108 0.09751 0.49772
 C255 C 0.18435 0.10492 0.51086
 C256 C 0.21464 0.07271 0.50601
 C257 C 0.20367 0.03277 0.48550
 C258 C 0.15983 0.02489 0.47087
 C259 C 0.08383 0.04461 0.47113
 C260 C 0.07163 0.00559 0.45020
 C261 C 0.10304 -0.02254 0.43726
 C262 C 0.14660 -0.01302 0.44719
 H263 H 0.05824 0.06533 0.48087
 H264 H 0.03769 -0.00247 0.44339
 H265 H 0.09361 -0.05211 0.41974
 H266 H 0.16974 -0.03534 0.43538
 H267 H 0.19495 0.13610 0.52505
 H268 H 0.24694 0.07963 0.51866
 C269 C 0.66322 0.70142 0.01251
 C270 C 0.66194 0.67196 -0.02257
 C271 C 0.63121 0.67744 -0.05623
 C272 C 0.59845 0.70729 -0.05259
 C273 C 0.59485 0.73180 -0.01476
 C274 C 0.62972 0.73213 0.01636
 C275 C 0.69740 0.70092 0.04378
 C276 C 0.69868 0.72988 0.07823
 C277 C 0.66653 0.76029 0.08173
 C278 C 0.63271 0.76176 0.05103
 H279 H 0.72383 0.67877 0.04138
 H280 H 0.72512 0.72919 0.10191
 H281 H 0.66809 0.78335 0.10808
 H282 H 0.61021 0.78742 0.05436
 H283 H 0.63036 0.65586 -0.08380
 H284 H 0.57320 0.70773 -0.07762
 C285 C 0.83620 -0.09365 0.46312
 C286 C 0.83529 -0.12650 0.49800
 C287 C 0.80634 -0.12302 0.53238
 C288 C 0.77835 -0.08815 0.53275
 C289 C 0.77730 -0.05602 0.49817
 C290 C 0.80642 -0.05865 0.46272
 C291 C 0.86716 -0.09379 0.42942
 C292 C 0.86762 -0.06161 0.39521
 C293 C 0.83769 -0.02847 0.39396
 C294 C 0.80752 -0.02676 0.42730
 H295 H 0.89173 -0.11820 0.42936
 H296 H 0.89143 -0.06233 0.36956
 H297 H 0.83808 -0.00366 0.36718
 H298 H 0.78517 -0.00025 0.42466
 H299 H 0.80584 -0.14729 0.55967
 H300 H 0.75781 -0.08630 0.56093
 C301 C 0.38945 0.34346 0.96871
 C302 C 0.39067 0.36811 1.00729
 C303 C 0.42291 0.36065 1.03897
 C304 C 0.45310 0.32847 1.03353
 C305 C 0.45178 0.30218 0.99654
 C306 C 0.42186 0.31222 0.96197
 C307 C 0.35686 0.34972 0.93633
 C308 C 0.35799 0.32836 0.89680
 C309 C 0.39197 0.30137 0.88843
 C310 C 0.42386 0.29385 0.92033
 H311 H 0.33035 0.37123 0.94117
 H312 H 0.33307 0.33380 0.87209
 H313 H 0.39392 0.28651 0.85686
 H314 H 0.45089 0.27569 0.91068
 H315 H 0.42479 0.38004 1.06812
 H316 H 0.47684 0.32290 1.05945
 C317 C 0.80704 0.11940 0.48386
 C318 C 0.84436 0.11305 0.51072
 C319 C 0.84734 0.07265 0.53499
 C320 C 0.81506 0.03898 0.53235
 C321 C 0.77994 0.04267 0.50300
 C322 C 0.77725 0.08261 0.47631
 C323 C 0.79878 0.16152 0.46401
 C324 C 0.76567 0.16606 0.43291
 C325 C 0.74092 0.12875 0.42058
 C326 C 0.74700 0.08741 0.44162
 H327 H 0.81777 0.19121 0.47237
 H328 H 0.76018 0.19835 0.41732
 H329 H 0.71688 0.13178 0.39458
 H330 H 0.72934 0.05954 0.42856
 H331 H 0.87537 0.06645 0.55570
 H332 H 0.81852 0.00890 0.55268
 C333 C 0.45434 0.63842 0.00228
 C334 C 0.41401 0.65906 0.00282
 C335 C 0.41313 0.70536 -0.00132
 C336 C 0.45143 0.73149 -0.00496
 C337 C 0.49227 0.71259 -0.00430
 C338 C 0.49395 0.66516 0.00107
 C339 C 0.45593 0.59144 0.00331
 C340 C 0.49539 0.57094 0.00619
 C341 C 0.53381 0.59667 0.00887
 C342 C 0.53312 0.64303 0.00680
 H343 H 0.42675 0.57008 0.00179
 H344 H 0.49610 0.53493 0.00733
 H345 H 0.56441 0.58065 0.01286
 H346 H 0.56360 0.66029 0.01180
 H347 H 0.38249 0.72151 -0.00101
 H348 H 0.44893 0.76732 -0.00788
 C349 C 0.17550 -0.13476 0.47979
 C350 C 0.14019 -0.12545 0.50658
 C351 C 0.14449 -0.08997 0.53472
 C352 C 0.18066 -0.06052 0.53261
 C353 C 0.21345 -0.06518 0.50187
 C354 C 0.21300 -0.10508 0.47840
 C355 C 0.17478 -0.17364 0.45524
 C356 C 0.21029 -0.18336 0.43028
 C357 C 0.24753 -0.15550 0.43047
 C358 C 0.24906 -0.11725 0.45480
 H359 H 0.14737 -0.19745 0.45588
 H360 H 0.20940 -0.21336 0.41181
 H361 H 0.27580 -0.16415 0.41261
 H362 H 0.27961 -0.09953 0.45751
 H363 H 0.11837 -0.08332 0.55654
 H364 H 0.18074 -0.03131 0.55223
 C365 C 0.61658 0.31649 1.02505
 C366 C 0.61948 0.34884 0.98978
 C367 C 0.58606 0.34920 0.95819
 C368 C 0.55009 0.31958 0.96179
 C369 C 0.54440 0.29017 0.99840
 C370 C 0.57709 0.29047 1.03193
 C371 C 0.65194 0.30985 1.05412
 C372 C 0.64686 0.28304 1.09219
 C373 C 0.60643 0.26324 1.10230
 C374 C 0.57179 0.26738 1.07283
 H375 H 0.68372 0.32534 1.04769
 H376 H 0.67399 0.27890 1.11463
 H377 H 0.60182 0.24462 1.13316
 H378 H 0.54086 0.25439 1.08392
 H379 H 0.58701 0.37342 0.93091
 H380 H 0.52545 0.32100 0.93618
 C381 C 0.46206 0.18139 1.11742
 C382 C 0.49217 0.14729 1.11497
 C383 C 0.51852 0.14675 1.07807
 C384 C 0.51586 0.17906 1.04442
 C385 C 0.48531 0.21215 1.04499
 C386 C 0.45581 0.21142 1.08058
 C387 C 0.43805 0.18651 1.15584
 C388 C 0.40509 0.21655 1.15625
 C389 C 0.39515 0.24151 1.11842
 C390 C 0.41995 0.23873 1.08091
 H391 H 0.44463 0.16757 1.18590
 H392 H 0.38647 0.21960 1.18567
 H393 H 0.36813 0.26322 1.11812
 H394 H 0.40907 0.25654 1.05207
 H395 H 0.54147 0.12092 1.07503
 H396 H 0.53844 0.17822 1.01764
 C397 C 0.04255 0.56502 0.63707
 C398 C 0.00452 0.59001 0.63712
 C399 C -0.02623 0.57967 0.66978
 C400 C -0.01873 0.54775 0.70294
 C401 C 0.02163 0.52845 0.70790
 C402 C 0.05284 0.53709 0.67433
 C403 C 0.07018 0.56630 0.60044
 C404 C 0.10942 0.54517 0.60243
 C405 C 0.12174 0.52218 0.64070
 C406 C 0.09382 0.51810 0.67626
 H407 H 0.06144 0.58304 0.56975
 H408 H 0.13054 0.54703 0.57432
 H409 H 0.15274 0.50675 0.64259
 H410 H 0.10490 0.50016 0.70512
 H411 H -0.05634 0.59668 0.67022
 H412 H -0.04511 0.53876 0.72478
 C413 C 0.55205 0.86364 -0.10145
 C414 C 0.51642 0.85400 -0.12972
 C415 C 0.49211 0.81386 -0.12370
 C416 C 0.50119 0.78422 -0.08873
 C417 C 0.53429 0.79419 -0.05815
 C418 C 0.56134 0.83352 -0.06559
 C419 C 0.57845 0.90307 -0.10798
 C420 C 0.61331 0.91268 -0.07994
 C421 C 0.62253 0.88340 -0.04501
 C422 C 0.59695 0.84436 -0.03786
 H423 H 0.57256 0.92672 -0.13488
 H424 H 0.63327 0.94296 -0.08538
 H425 H 0.64967 0.89095 -0.02326
 H426 H 0.60559 0.82309 -0.01047
 H427 H 0.46524 0.80587 -0.14568
 H428 H 0.48144 0.75364 -0.08542
 C429 C 0.96041 0.38470 0.32927
 C430 C 1.00004 0.37250 0.35014
 C431 C 1.03859 0.39564 0.33668
 C432 C 1.03813 0.43153 0.30644
 C433 C 0.99934 0.44657 0.28822
 C434 C 0.95960 0.42382 0.30097
 C435 C 0.92177 0.35776 0.33426
 C436 C 0.88243 0.37189 0.31720
 C437 C 0.88076 0.41288 0.29469
 C438 C 0.91878 0.43865 0.28671
 H439 H 0.92167 0.32526 0.35089
 H440 H 0.85303 0.35122 0.32202
 H441 H 0.84991 0.42453 0.28277
 H442 H 0.91519 0.47036 0.26999
 H443 H 1.06956 0.38807 0.35162
 H444 H 1.06882 0.44846 0.29866
 C445 C 0.52209 0.79527 0.12262
 C446 C 0.51009 0.84011 0.11466
 C447 C 0.50491 0.85603 0.07111
 C448 C 0.51459 0.83034 0.03623
 C449 C 0.52965 0.78739 0.04294
 C450 C 0.53203 0.76883 0.08656
 C451 C 0.52149 0.77506 0.16535
 C452 C 0.53310 0.73115 0.17279
 C453 C 0.54471 0.70614 0.13795
 C454 C 0.54389 0.72454 0.09534
 H455 H 0.51098 0.79248 0.19329
 H456 H 0.53276 0.71635 0.20574
 H457 H 0.55388 0.67208 0.14389
 H458 H 0.55301 0.70372 0.06963
 H459 H 0.49539 0.88978 0.06365
 H460 H 0.50982 0.84479 0.00366
 C461 C 0.06378 0.37043 0.69033
 C462 C 0.02585 0.36446 0.66401
 C463 C -0.00863 0.39223 0.66932
 C464 C -0.00551 0.42644 0.69842
 C465 C 0.03278 0.43579 0.72224
 C466 C 0.06842 0.40771 0.71795
 C467 C 0.09717 0.33990 0.68991
 C468 C 0.13568 0.34749 0.71329
 C469 C 0.14174 0.38560 0.73723
 C470 C 0.10867 0.41541 0.73944
 H471 H 0.09369 0.30969 0.67190
 H472 H 0.16116 0.32402 0.71232
 H473 H 0.17223 0.39210 0.75431
 H474 H 0.11609 0.44479 0.75702
 H475 H -0.03804 0.38830 0.64977
 H476 H -0.03326 0.44690 0.70111
 C477 C 0.45273 0.15383 0.91223
 C478 C 0.48923 0.15371 0.88436
 C479 C 0.52419 0.18427 0.89100
 C480 C 0.52352 0.21474 0.92411
 C481 C 0.48724 0.21692 0.95091
 C482 C 0.45087 0.18687 0.94429
 C483 C 0.41848 0.12098 0.90987
 C484 C 0.38187 0.12265 0.93584
 C485 C 0.37869 0.15670 0.96482
 C486 C 0.41273 0.18839 0.96915
 H487 H 0.41978 0.09328 0.88857
 H488 H 0.35577 0.09747 0.93332
 H489 H 0.34989 0.15830 0.98444
 H490 H 0.40845 0.21416 0.99184
 H491 H 0.55252 0.18442 0.87040
 H492 H 0.55202 0.23641 0.92883
 C493 C 1.03527 0.59180 0.34789
 C494 C 0.99441 0.61042 0.35395
 C495 C 0.95816 0.59311 0.33115
 C496 C 0.96195 0.55953 0.30165
 C497 C 1.00248 0.54406 0.29103
 C498 C 1.03981 0.55973 0.31513
 C499 C 1.07138 0.60291 0.37507
 C500 C 1.11173 0.58585 0.36819
 C501 C 1.11688 0.55677 0.33479
 C502 C 1.08147 0.54354 0.30886
 H503 H 1.06880 0.62394 0.40264
 H504 H 1.13907 0.59502 0.38909
 H505 H 1.14835 0.54361 0.32947
 H506 H 1.08776 0.52016 0.28459
 H507 H 0.92631 0.60543 0.33650
 H508 H 0.93242 0.54542 0.28750
 C509 C 1.09693 0.54915 0.15788
 C510 C 1.12325 0.51175 0.15389
 C511 C 1.11207 0.47227 0.17824
 C512 C 1.07755 0.46972 0.20716
 C513 C 1.05220 0.50632 0.21316
 C514 C 1.06203 0.54676 0.18847
 C515 C 1.10205 0.58763 0.12963
 C516 C 1.07668 0.62420 0.13409
 C517 C 1.04490 0.62303 0.16584
 C518 C 1.03727 0.58477 0.19241
 H519 H 1.12464 0.58964 0.10286
 H520 H 1.08146 0.65345 0.11247
 H521 H 1.02531 0.65159 0.16926
 H522 H 1.01147 0.58571 0.21556
 H523 H 1.13106 0.44306 0.17590
 H524 H 1.07067 0.43822 0.22450
 C525 C 0.64547 -0.04208 0.59828
 C526 C 0.65087 -0.00545 0.62585
 C527 C 0.68757 0.02339 0.62151
 C528 C 0.71677 0.01893 0.58772
 C529 C 0.70989 -0.01429 0.55707
 C530 C 0.67517 -0.04673 0.56363
 C531 C 0.61056 -0.07385 0.60418
 C532 C 0.60475 -0.10927 0.57637
 C533 C 0.63355 -0.11386 0.54243
 C534 C 0.66840 -0.08314 0.53607
 H535 H 0.58772 -0.07183 0.63053
 H536 H 0.57787 -0.13336 0.58130
 H537 H 0.62902 -0.14155 0.52102
 H538 H 0.69010 -0.08888 0.50974
 H539 H 0.69216 0.05130 0.64270
 H540 H 0.74292 0.04394 0.58376
 C541 C -0.06610 0.44577 0.85006
 C542 C -0.08609 0.48688 0.85537
 C543 C -0.06823 0.52540 0.83388
 C544 C -0.03303 0.52356 0.80635
 C545 C -0.01704 0.48282 0.79502
 C546 C -0.03259 0.44319 0.81837
 C547 C -0.07701 0.40768 0.87722
 C548 C -0.05847 0.36717 0.87106
 C549 C -0.02778 0.36392 0.83875
 C550 C -0.01452 0.40142 0.81315
 H551 H -0.09888 0.40894 0.90440
 H552 H -0.06752 0.33829 0.89193
 H553 H -0.01311 0.33243 0.83436
 H554 H 0.01112 0.39687 0.79081
 H555 H -0.08152 0.55757 0.83833
 H556 H -0.01883 0.55476 0.79291
 C557 C 0.30148 -0.00118 0.35725
 C558 C 0.34223 -0.01883 0.36707
 C559 C 0.35207 -0.03314 0.40981
 C560 C 0.32219 -0.03041 0.44294
 C561 C 0.28083 -0.01366 0.43499
 C562 C 0.27074 0.00253 0.39143
 C563 C 0.29123 0.01388 0.31405
 C564 C 0.25187 0.03302 0.30447
 C565 C 0.22245 0.03805 0.33770
 C566 C 0.23190 0.02333 0.38054
 H567 H 0.31360 0.01111 0.28740
 H568 H 0.24440 0.04453 0.27126
 H569 H 0.19220 0.05378 0.33034
 H570 H 0.20875 0.02968 0.40447
 H571 H 0.38360 -0.04594 0.41780
 H572 H 0.33172 -0.04231 0.47546
 C573 C 0.13558 0.54768 0.82801
 C574 C 0.14339 0.51250 0.85905
 C575 C 0.11740 0.47324 0.85829
 C576 C 0.08434 0.46815 0.82746
 C577 C 0.07585 0.50183 0.79570
 C578 C 0.10012 0.54335 0.79755
 C579 C 0.16221 0.58724 0.82683
 C580 C 0.15248 0.62306 0.79859
 C581 C 0.11580 0.62044 0.77173
 C582 C 0.08964 0.58132 0.77152
 H583 H 0.19070 0.59085 0.84767
 H584 H 0.17292 0.65336 0.79830
 H585 H 0.10734 0.64901 0.75113
 H586 H 0.06049 0.58249 0.75228
 H587 H 0.12247 0.44626 0.88222
 H588 H 0.06597 0.43669 0.82798
 C589 C 0.62725 0.01786 0.42939
 C590 C 0.63057 -0.01261 0.39559
 C591 C 0.66448 -0.04183 0.39668
 C592 C 0.69614 -0.04000 0.42944
 C593 C 0.69560 -0.00819 0.46166
 C594 C 0.66051 0.02101 0.46211
 C595 C 0.59134 0.04515 0.43140
 C596 C 0.58915 0.07630 0.46370
 C597 C 0.62270 0.08120 0.49422
 C598 C 0.65811 0.05418 0.49337
 H599 H 0.56450 0.04242 0.40834
 H600 H 0.56151 0.09709 0.46476
 H601 H 0.62136 0.10615 0.51866
 H602 H 0.68382 0.06059 0.51678
 H603 H 0.66691 -0.06579 0.37138
 H604 H 0.72142 -0.06361 0.42902
 C605 C 0.92381 0.46124 0.14124
 C606 C 0.89483 0.49665 0.13770
 C607 C 0.90060 0.53179 0.16627
 C608 C 0.93320 0.53195 0.19825
 C609 C 0.95938 0.49544 0.20550
 C610 C 0.95434 0.45921 0.17686
 C611 C 0.92422 0.42849 0.10933
 C612 C 0.95058 0.39228 0.11455
 C613 C 0.97736 0.38813 0.15126
 C614 C 0.97942 0.42114 0.18198
 H615 H 0.90500 0.43084 0.07955
 H616 H 0.95010 0.36725 0.09005
 H617 H 0.99726 0.35953 0.15562
 H618 H 1.00084 0.41603 0.20953
 H619 H 0.87981 0.55985 0.16370
 H620 H 0.93773 0.56139 0.21702
 C621 C 0.35640 0.03339 0.55948
 C622 C 0.35107 0.00774 0.59946
 C623 C 0.31387 -0.02047 0.60470
 C624 C 0.28282 -0.02435 0.57143
 C625 C 0.28633 0.00154 0.53228
 C626 C 0.32253 0.03257 0.52705
 C627 C 0.39530 0.05860 0.55010
 C628 C 0.39916 0.08570 0.51207
 C629 C 0.36468 0.08807 0.48246
 C630 C 0.32680 0.06185 0.48968
 H631 H 0.42346 0.05707 0.57143
 H632 H 0.42903 0.10511 0.50564
 H633 H 0.36754 0.10976 0.45331
 H634 H 0.30109 0.06493 0.46555
 H635 H 0.30897 -0.04036 0.63481
 H636 H 0.25602 -0.04824 0.57678
   
