data_POSCAR
  _audit_creation_date              2014-09-24
  _audit_creation_method            'ToBaCCo'
  _symmetry_space_group_name_H-M    'P1'
  _symmetry_Int_Tables_number       1
  _symmetry_cell_setting            triclinic
  loop_
  _symmetry_equiv_pos_as_xyz
 x,y,z
_cell_length_a 32.4398
_cell_length_b 32.4759
_cell_length_c 32.4554
_cell_angle_alpha 102.510200
_cell_angle_beta 75.295700
_cell_angle_gamma 77.110600
loop_
  _atom_site_label
  _atom_site_type_symbol
  _atom_site_fract_x
  _atom_site_fract_y
  _atom_site_fract_z
C1 C 0.54204 0.49934 -0.00241
 C2 C 0.50524 0.53678 0.00510
 C3 C 0.46253 0.53090 0.01078
 C4 C 0.45549 0.48893 0.00421
 C5 C 0.49271 0.45168 -0.00512
 C6 C 0.53504 0.45738 -0.00928
 H7 H 0.56234 0.42854 -0.01443
 H8 H 0.43468 0.55935 0.01651
 C9 C 0.00568 0.46748 0.51094
 C10 C 0.00157 0.50268 0.54745
 C11 C -0.00081 0.54468 0.54167
 C12 C 0.00203 0.55280 0.50010
 C13 C 0.00579 0.51701 0.46372
 C14 C 0.00834 0.47511 0.46963
 H15 H 0.01010 0.44837 0.44197
 H16 H -0.00294 0.57089 0.56993
 C17 C 0.49494 0.00089 0.45473
 C18 C 0.45980 -0.00073 0.48971
 C19 C 0.46644 -0.00126 0.53063
 C20 C 0.50753 -0.00134 0.53802
 C21 C 0.54284 0.00158 0.50289
 C22 C 0.53576 0.00146 0.46167
 H23 H 0.56199 0.00347 0.43448
 H24 H 0.43910 -0.00327 0.55671
 O25 O 0.47316 -0.01067 -0.05880
 O26 O 0.46400 0.00580 0.05940
 O27 O 0.46447 0.05645 0.00654
 O28 O 0.47256 -0.06081 -0.00598
 O29 O 0.54591 -0.07722 -0.02376
 O30 O 0.53779 0.04019 -0.01127
 O31 O 0.53733 -0.01047 0.04159
 O32 O 0.54649 -0.02693 -0.07671
 Cu33 Cu 0.46119 -0.00060 0.00207
 Cu34 Cu 0.54924 -0.02014 -0.01929
 C35 C 0.51128 -0.02131 -0.08781
 C36 C 0.49921 -0.00027 0.07050
 C37 C 0.49981 0.06820 -0.00075
 C38 C 0.51050 -0.08887 -0.01650
 O39 O -0.07086 0.53734 1.02101
 O40 O 0.04773 0.52947 1.00483
 O41 O -0.00312 0.52990 0.95393
 O42 O -0.02035 0.53946 1.07233
 O43 O -0.00338 0.46689 1.05723
 O44 O 0.01292 0.45735 0.93835
 O45 O 0.06414 0.45689 0.98911
 O46 O -0.05417 0.46481 1.00618
 Cu47 Cu -0.01332 0.54131 1.01451
 Cu48 Cu 0.00647 0.45420 0.99617
 C49 C -0.08255 0.50222 1.01590
 C50 C 0.07598 0.49184 0.99481
 C51 C 0.00724 0.49223 0.92608
 C52 C -0.01402 0.50483 1.08485
 O53 O 0.01152 -0.05576 0.46129
 O54 O -0.00230 0.06184 0.47009
 O55 O 0.06379 -0.00489 0.46059
 O56 O -0.05456 0.01136 0.47021
 O57 O -0.07219 0.02670 0.54335
 O58 O 0.04633 0.01084 0.53375
 O59 O -0.01996 0.07738 0.54326
 O60 O -0.00578 -0.04009 0.53443
 Cu61 Cu 0.00632 0.00151 0.45819
 Cu62 Cu -0.01467 0.02017 0.54605
 C63 C 0.00486 -0.06784 0.49649
 C64 C -0.01290 0.08948 0.50810
 C65 C 0.07509 0.00097 0.49561
 C66 C -0.08346 0.02150 0.50828
 N67 N -0.34040 0.46816 0.98860
 C68 C -0.33632 0.50615 1.01194
 N69 N -0.37264 0.54210 1.03051
 N70 N -0.41177 0.54010 1.02556
 C71 C -0.41608 0.50234 1.00141
 N72 N -0.37951 0.46624 0.98368
 C73 C -0.29389 0.50807 1.01657
 C74 C -0.25762 0.50850 1.01937
 C75 C -0.21368 0.50753 1.02122
 N76 N -0.20145 0.54513 1.02790
 N77 N -0.15985 0.54365 1.02719
 C78 C -0.12915 0.50452 1.01977
 N79 N -0.14162 0.46701 1.01335
 N80 N -0.18317 0.46850 1.01408
 N81 N 0.33736 0.52110 1.01553
 C82 C 0.33111 0.48201 0.99834
 N83 N 0.36594 0.44475 0.98397
 N84 N 0.40588 0.44670 0.98655
 C85 C 0.41260 0.48584 1.00378
 N86 N 0.37723 0.52295 1.01807
 C87 C 0.28817 0.48069 0.99483
 C88 C 0.25154 0.48128 0.99252
 C89 C 0.20733 0.48359 0.99081
 N90 N 0.19446 0.44649 0.98272
 N91 N 0.15279 0.44905 0.98303
 C92 C 0.12263 0.48878 0.99137
 N93 N 0.13572 0.52584 0.99920
 N94 N 0.17738 0.52327 0.99888
 N95 N 0.01625 -0.35678 0.45312
 C96 C 0.00764 -0.32344 0.49033
 N97 N -0.00311 -0.33113 0.53047
 N98 N -0.00520 -0.37091 0.53335
 C99 C 0.00313 -0.40470 0.49631
 N100 N 0.01415 -0.39661 0.45612
 C101 C 0.00971 -0.28038 0.48775
 C102 C 0.01075 -0.24358 0.48745
 C103 C 0.01095 -0.19912 0.48918
 N104 N 0.00189 -0.16907 0.52893
 N105 N 0.00062 -0.12737 0.53111
 C106 C 0.00841 -0.11429 0.49360
 N107 N 0.01767 -0.14450 0.45376
 N108 N 0.01893 -0.18625 0.45159
 N109 N 0.02498 0.34703 0.48255
 C110 C -0.00388 0.34270 0.51853
 N111 N -0.02886 0.37918 0.55274
 N112 N -0.02515 0.41885 0.55090
 C113 C 0.00387 0.42332 0.51491
 N114 N 0.02868 0.38664 0.48071
 C115 C -0.00869 0.30008 0.51946
 C116 C -0.01197 0.26375 0.51879
 C117 C -0.01467 0.21991 0.51651
 N118 N -0.02395 0.20686 0.55391
 N119 N -0.02436 0.16545 0.55134
 C120 C -0.01553 0.13577 0.51129
 N121 N -0.00651 0.14904 0.47395
 N122 N -0.00611 0.19044 0.47654
 N123 N 0.47790 -0.00263 -0.34660
 C124 C 0.51797 -0.02136 -0.34297
 N125 N 0.55491 -0.03397 -0.37907
 N126 N 0.55178 -0.02752 -0.41752
 C127 C 0.51179 -0.00764 -0.42121
 N128 N 0.47486 0.00380 -0.38497
 C129 C 0.52084 -0.02638 -0.30085
 C130 C 0.52116 -0.02887 -0.26441
 C131 C 0.51932 -0.02979 -0.21999
 N132 N 0.55687 -0.03658 -0.20807
 N133 N 0.55447 -0.03474 -0.16605
 C134 C 0.51443 -0.02597 -0.13460
 N135 N 0.47695 -0.01943 -0.14674
 N136 N 0.47937 -0.02129 -0.18871
 N137 N 0.46948 -0.02328 0.34862
 C138 C 0.48735 0.00400 0.32835
 N139 N 0.50712 0.03032 0.34964
 N140 N 0.50891 0.02954 0.38999
 C141 C 0.49086 0.00253 0.41063
 N142 N 0.47127 -0.02406 0.38907
 C143 C 0.48699 0.00408 0.28424
 C144 C 0.48798 0.00435 0.24692
 C145 C 0.49052 0.00449 0.20215
 N146 N 0.53066 -0.00406 0.17114
 N147 N 0.53335 -0.00480 0.12933
 C148 C 0.49594 0.00313 0.11714
 N149 N 0.45574 0.01189 0.14832
 N150 N 0.45306 0.01262 0.19016
 N151 N 0.55157 -0.37788 -0.02670
 C152 C 0.51563 -0.34159 -0.00762
 N153 N 0.47665 -0.34563 0.01608
 N154 N 0.47370 -0.38470 0.02071
 C155 C 0.50968 -0.42134 0.00229
 N156 N 0.54855 -0.41701 -0.02202
 C157 C 0.51819 -0.29932 -0.01270
 C158 C 0.51857 -0.26310 -0.01595
 C159 C 0.51711 -0.21923 -0.01842
 N160 N 0.47738 -0.18907 -0.01005
 N161 N 0.47543 -0.14772 -0.01028
 C162 C 0.51316 -0.13511 -0.01894
 N163 N 0.55297 -0.16545 -0.02756
 N164 N 0.55491 -0.20684 -0.02730
 N165 N 0.45831 0.36033 0.03014
 C166 C 0.48756 0.32448 -0.00247
 N167 N 0.51758 0.33042 -0.03653
 N168 N 0.51839 0.37093 -0.03796
 C169 C 0.48894 0.40696 -0.00557
 N170 N 0.45911 0.40087 0.02872
 C171 C 0.48799 0.28068 -0.00023
 C172 C 0.48927 0.24363 0.00127
 C173 C 0.49170 0.19917 0.00237
 N174 N 0.45418 0.18637 0.01162
 N175 N 0.45669 0.14476 0.01133
 C176 C 0.49681 0.11457 0.00183
 N177 N 0.53430 0.12757 -0.00724
 N178 N 0.53177 0.16916 -0.00694
 N179 N -0.37492 0.03425 0.55091
 C180 C -0.33854 0.02167 0.51425
 N181 N -0.34177 0.00296 0.47414
 N182 N -0.38003 -0.00348 0.47080
 C183 C -0.41653 0.00793 0.50745
 N184 N -0.41325 0.02780 0.54747
 C185 C -0.29654 0.02668 0.51746
 C186 C -0.26015 0.02915 0.51800
 C187 C -0.21574 0.03004 0.51627
 N188 N -0.18452 0.02213 0.47647
 N189 N -0.14252 0.02023 0.47410
 C190 C -0.13029 0.02613 0.51147
 N191 N -0.16169 0.03430 0.55138
 N192 N -0.20374 0.03617 0.55374
 N193 N 0.35339 0.02401 0.46456
 C194 C 0.33345 -0.00367 0.48201
 N195 N 0.35513 -0.03053 0.50129
 N196 N 0.39552 -0.02985 0.50303
 C197 C 0.41581 -0.00242 0.48541
 N198 N 0.39388 0.02469 0.46629
 C199 C 0.28923 -0.00353 0.48190
 C200 C 0.25181 -0.00368 0.48317
 C201 C 0.20695 -0.00372 0.48604
 N202 N 0.17617 0.00463 0.52624
 N203 N 0.13427 0.00538 0.52923
 C204 C 0.12179 -0.00235 0.49207
 N205 N 0.15276 -0.01090 0.45181
 N206 N 0.19468 -0.01164 0.44883
 N207 N 0.03017 0.49355 1.34243
 C208 C -0.00535 0.52245 1.33934
 N209 N -0.03649 0.55086 1.37710
 N210 N -0.03226 0.55023 1.41679
 C211 C 0.00347 0.52144 1.41995
 N212 N 0.03440 0.49290 1.38205
 C213 C -0.01060 0.52148 1.29659
 C214 C -0.01409 0.51943 1.26015
 C215 C -0.01691 0.51594 1.21619
 N216 N -0.00808 0.47575 1.18709
 N217 N -0.00825 0.47221 1.14545
 C218 C -0.01732 0.50878 1.13156
 N219 N -0.02646 0.54900 1.16090
 N220 N -0.02628 0.55253 1.20252
 N221 N -0.02026 0.52530 0.66870
 C222 C 0.00735 0.48870 0.67148
 N223 N 0.03258 0.45612 0.63363
 N224 N 0.03023 0.46011 0.59419
 C225 C 0.00240 0.49670 0.59127
 N226 N -0.02261 0.52928 0.62932
 C227 C 0.01061 0.48547 0.71401
 C228 C 0.01249 0.48459 0.75045
 C229 C 0.01346 0.48578 0.79464
 N230 N 0.02030 0.44833 0.80732
 N231 N 0.01923 0.45014 0.84905
 C232 C 0.01127 0.48946 0.87941
 N233 N 0.00467 0.52679 0.86647
 N234 N 0.00577 0.52498 0.82481
   
