data_POSCAR
  _audit_creation_date              2014-09-24
  _audit_creation_method            'ToBaCCo'
  _symmetry_space_group_name_H-M    'P1'
  _symmetry_Int_Tables_number       1
  _symmetry_cell_setting            triclinic
  loop_
  _symmetry_equiv_pos_as_xyz
 x,y,z
_cell_length_a 30.5475
_cell_length_b 31.1347
_cell_length_c 28.2153
_cell_angle_alpha 91.511400
_cell_angle_beta 92.878500
_cell_angle_gamma 88.681200
loop_
  _atom_site_label
  _atom_site_type_symbol
  _atom_site_fract_x
  _atom_site_fract_y
  _atom_site_fract_z
Si1 Si 0.24229 0.46798 0.96328
 Si2 Si 0.73274 0.50892 0.01139
 Si3 Si -0.02500 0.25730 0.48861
 Si4 Si 1.05009 0.75399 0.53603
 Si5 Si 0.50077 -0.00999 0.25334
 Si6 Si 0.50442 -0.01092 0.74222
 C7 C 0.32062 0.03301 0.45149
 H8 H 0.33043 0.03514 0.48874
 C9 C 0.35249 0.03370 0.41823
 H10 H 0.38667 0.03561 0.43021
 C11 C 0.26470 0.02588 0.39049
 H12 H 0.23039 0.02190 0.38028
 C13 C 0.29571 0.02682 0.35577
 H14 H 0.28535 0.02381 0.31858
 N15 N 0.27775 0.02863 0.43729
 C16 C 0.17635 0.07664 0.52873
 H17 H 0.17976 0.05372 0.55690
 C18 C 0.14389 0.10878 0.53006
 H19 H 0.12201 0.11054 0.55913
 C20 C 0.19884 0.10082 0.45488
 H21 H 0.21969 0.09704 0.42521
 C22 C 0.16694 0.13355 0.45489
 H23 H 0.16312 0.15482 0.42512
 Zn24 Zn 0.23757 0.02242 0.48485
 N25 N 0.20176 0.07221 0.49057
 C26 C 0.28001 0.04568 0.57301
 N27 N 0.27040 0.01241 0.54227
 C28 C 0.29018 -0.02692 0.54742
 C29 C 0.32236 -0.03350 0.58346
 C30 C 0.31191 0.04039 0.60976
 C31 C 0.22113 -0.06041 0.44684
 C32 C 0.19925 -0.09933 0.44311
 C33 C 0.13834 -0.06508 0.48183
 C34 C 0.16119 -0.02688 0.48454
 N35 N 0.20261 -0.02571 0.46914
 H36 H 0.26502 0.07701 0.56727
 H37 H 0.28287 -0.05253 0.52192
 H38 H 0.33932 -0.06435 0.58598
 H39 H 0.32090 0.06752 0.63273
 H40 H 0.25413 -0.05873 0.43494
 H41 H 0.21568 -0.12776 0.42913
 H42 H 0.10698 -0.06662 0.49796
 H43 H 0.14673 0.00089 0.50172
 C44 C 0.13806 0.13645 0.49190
 C45 C 0.34017 0.03075 0.36980
 C46 C 0.15838 -0.10214 0.46304
 C47 C 0.33402 0.00067 0.61442
 C48 C 0.73243 0.00839 0.58741
 H49 H 0.75720 0.03264 0.58944
 C50 C 0.69888 0.01043 0.61945
 H51 H 0.69779 0.03649 0.64559
 C52 C 0.70330 -0.05505 0.55150
 H53 H 0.70501 -0.08066 0.52519
 C54 C 0.66900 -0.05399 0.58251
 H55 H 0.64433 -0.07849 0.57936
 N56 N 0.73321 -0.02318 0.55308
 C57 C 0.84860 0.03023 0.50519
 H58 H 0.86598 -0.00031 0.50292
 C59 C 0.87208 0.06817 0.50589
 H60 H 0.90745 0.06658 0.50447
 C61 C 0.78163 0.06987 0.50892
 H62 H 0.74625 0.07026 0.50976
 C63 C 0.80392 0.10869 0.50976
 H64 H 0.78575 0.13890 0.51170
 Zn65 Zn 0.77387 -0.02153 0.50360
 N66 N 0.80414 0.03159 0.50676
 C67 C 0.73240 0.00939 0.41833
 N68 N 0.74139 -0.02640 0.44416
 C69 C 0.72221 -0.06440 0.43180
 C70 C 0.68894 -0.06609 0.39601
 C71 C 0.69936 0.00913 0.38230
 C72 C 0.83135 -0.07613 0.55555
 C73 C 0.86610 -0.10559 0.56283
 C74 C 0.86746 -0.11725 0.47791
 C75 C 0.83249 -0.08766 0.47221
 N76 N 0.81563 -0.06738 0.51079
 H77 H 0.74852 0.03908 0.42755
 H78 H 0.73077 -0.09284 0.45167
 H79 H 0.67123 -0.09554 0.38925
 H80 H 0.68982 0.03872 0.36485
 H81 H 0.81777 -0.05916 0.58556
 H82 H 0.87905 -0.11151 0.59855
 H83 H 0.88161 -0.13219 0.44696
 H84 H 0.81998 -0.07962 0.43694
 C85 C 0.84973 0.10794 0.50872
 C86 C 0.66573 -0.02012 0.61586
 C87 C 0.88526 -0.12561 0.52362
 C88 C 0.67594 -0.02842 0.37261
 C89 C 0.53400 0.16498 1.04329
 H90 H 0.54126 0.15618 1.00724
 C91 C 0.53434 0.13314 1.07692
 H92 H 0.54054 0.09995 1.06631
 C93 C 0.51665 0.21838 1.10127
 H94 H 0.50991 0.25175 1.11042
 C95 C 0.51634 0.18728 1.13618
 H96 H 0.50831 0.19645 1.17205
 N97 N 0.52361 0.20646 1.05540
 C98 C 0.46322 0.31367 0.97533
 H99 H 0.48681 0.31611 0.94859
 C100 C 0.42698 0.34159 0.97425
 H101 H 0.42334 0.36528 0.94679
 C102 C 0.43690 0.27810 1.04097
 H103 H 0.44008 0.25255 1.06610
 C104 C 0.39951 0.30522 1.04073
 H105 H 0.37422 0.30028 1.06546
 Zn106 Zn 0.51925 0.24615 1.00522
 N107 N 0.46797 0.28273 1.00845
 C108 C 0.47920 0.18891 0.94056
 N109 N 0.51548 0.21320 0.94785
 C110 C 0.55006 0.20857 0.91938
 C111 C 0.54979 0.17693 0.88333
 C112 C 0.47803 0.15631 0.90565
 C113 C 0.59751 0.27996 1.04752
 C114 C 0.63137 0.30935 1.05288
 C115 C 0.60967 0.33680 0.97570
 C116 C 0.57685 0.30651 0.97148
 N117 N 0.56999 0.28022 1.00803
 H118 H 0.45245 0.19295 0.96410
 H119 H 0.57901 0.22742 0.92635
 H120 H 0.57803 0.17250 0.86186
 H121 H 0.45001 0.13557 0.90199
 H122 H 0.59222 0.25827 1.07580
 H123 H 0.65184 0.31042 1.08534
 H124 H 0.61316 0.35923 0.94748
 H125 H 0.55639 0.30466 0.93925
 C126 C 0.39427 0.33708 1.00664
 C127 C 0.52422 0.14410 1.12348
 C128 C 0.63606 0.33947 1.01757
 C129 C 0.51439 0.14901 0.87791
 C130 C 0.43141 0.79971 -0.07647
 H131 H 0.40178 0.79990 -0.05701
 C132 C 0.43683 0.83068 -0.11057
 H133 H 0.41112 0.85452 -0.11773
 C134 C 0.50253 0.77067 -0.08847
 H135 H 0.52913 0.74899 -0.07805
 C136 C 0.50912 0.80082 -0.12307
 H137 H 0.54025 0.80139 -0.13979
 N138 N 0.46411 0.77058 -0.06591
 C139 C 0.39980 0.67774 0.02120
 H140 H 0.41975 0.68181 0.05371
 C141 C 0.36956 0.64468 0.01692
 H142 H 0.36595 0.62364 0.04638
 C143 C 0.38331 0.69739 -0.05844
 H144 H 0.39034 0.71661 -0.08838
 C145 C 0.35276 0.66456 -0.06427
 H146 H 0.33593 0.65904 -0.09852
 Zn147 Zn 0.45813 0.73604 -0.01202
 N148 N 0.40681 0.70266 -0.01648
 C149 C 0.42777 0.78240 0.07072
 N150 N 0.46074 0.77423 0.04086
 C151 C 0.49943 0.79491 0.04622
 C152 C 0.50667 0.82468 0.08316
 C153 C 0.43339 0.81280 0.10795
 C154 C 0.51631 0.67188 -0.04343
 C155 C 0.55061 0.64177 -0.03954
 C156 C 0.55937 0.65972 0.04422
 C157 C 0.52577 0.69054 0.03840
 N158 N 0.50533 0.69627 -0.00504
 H159 H 0.39700 0.76608 0.06515
 H160 H 0.52483 0.78805 0.02155
 H161 H 0.53775 0.84081 0.08686
 H162 H 0.40670 0.82016 0.13090
 H163 H 0.49868 0.67623 -0.07724
 H164 H 0.56001 0.62360 -0.07082
 H165 H 0.57502 0.65504 0.07906
 H166 H 0.51542 0.70916 0.06886
 C167 C 0.34678 0.63700 -0.02667
 C168 C 0.47621 0.83151 -0.13392
 C169 C 0.57189 0.63472 0.00495
 C170 C 0.47345 0.83405 0.11449
 C171 C 1.07439 0.46403 0.19279
 H172 H 1.06313 0.43649 0.21070
 C173 C 1.10156 0.45761 0.15464
 H174 H 1.11112 0.42525 0.14380
 C175 C 1.07538 0.53940 0.18402
 H176 H 1.06463 0.57126 0.19513
 C177 C 1.10303 0.53441 0.14598
 H178 H 1.11354 0.56248 0.12812
 N179 N 1.06082 0.50439 0.20605
 C180 C 1.01748 0.45958 0.33239
 H181 H 1.03148 0.48748 0.35037
 C182 C 1.00676 0.42446 0.35886
 H183 H 1.01271 0.42540 0.39705
 C184 C 0.99196 0.42414 0.26122
 H185 H 0.98505 0.42480 0.22325
 C186 C 0.98109 0.38808 0.28639
 H187 H 0.96660 0.36064 0.26776
 Zn188 Zn 1.01592 0.51119 0.25130
 N189 N 1.00912 0.45930 0.28454
 C190 C 0.92502 0.50436 0.23192
 N191 N 0.96169 0.52401 0.21861
 C192 C 0.96016 0.55066 0.18110
 C193 C 0.92173 0.55504 0.15263
 C194 C 0.88603 0.50761 0.20429
 C195 C 1.06524 0.57622 0.30487
 C196 C 1.07041 0.60644 0.34241
 C197 C 0.99529 0.59536 0.36142
 C198 C 0.99148 0.56582 0.32365
 N199 N 1.02627 0.55626 0.29672
 H200 H 0.92635 0.48466 0.26292
 H201 H 0.98924 0.56680 0.17171
 H202 H 0.92166 0.57368 0.12074
 H203 H 0.85802 0.48921 0.21308
 H204 H 1.09262 0.56780 0.28335
 H205 H 1.10171 0.62152 0.34962
 H206 H 0.96766 0.60164 0.38340
 H207 H 0.96101 0.54928 0.31671
 C208 C 0.98762 0.38864 0.33586
 C209 C 1.11540 0.49303 0.13013
 C210 C 1.03528 0.61538 0.37165
 C211 C 0.88491 0.53174 0.16318
 C212 C -0.08885 0.48863 0.81242
 H213 H -0.06160 0.46633 0.81802
 C214 C -0.12420 0.48748 0.84153
 H215 H -0.12412 0.46428 0.86950
 C216 C -0.12011 0.54924 0.77302
 H217 H -0.11775 0.57418 0.74756
 C218 C -0.15635 0.54903 0.80119
 H219 H -0.18153 0.57396 0.79757
 N220 N -0.08706 0.51957 0.77949
 C221 C -0.02926 0.48242 0.65538
 H222 H -0.02864 0.51486 0.64308
 C223 C -0.02597 0.44841 0.62253
 H224 H -0.02409 0.45509 0.58521
 C225 C -0.03241 0.43380 0.71824
 H226 H -0.03434 0.42816 0.75562
 C227 C -0.02798 0.39884 0.68670
 H228 H -0.02700 0.36650 0.70001
 Zn229 Zn -0.03481 0.52155 0.74708
 N230 N -0.03244 0.47473 0.70235
 C231 C 0.04635 0.48857 0.78235
 N232 N 0.01315 0.51645 0.79268
 C233 C 0.01494 0.54114 0.83343
 C234 C 0.05173 0.53867 0.86529
 C235 C 0.08306 0.48474 0.81318
 C236 C -0.06019 0.58655 0.67993
 C237 C -0.05213 0.62197 0.65225
 C238 C 0.01585 0.63183 0.69837
 C239 C 0.00651 0.59672 0.72508
 N240 N -0.03044 0.57410 0.71491
 H241 H 0.04495 0.46988 0.74956
 H242 H -0.01182 0.56332 0.84069
 H243 H 0.05342 0.55905 0.89698
 H244 H 0.10922 0.46237 0.80414
 H245 H -0.08893 0.56757 0.67168
 H246 H -0.07491 0.63067 0.62326
 H247 H 0.04654 0.64815 0.70547
 H248 H 0.03011 0.58635 0.75236
 C249 C -0.02403 0.40607 0.63830
 C250 C -0.15773 0.51858 0.83666
 C251 C -0.01298 0.64402 0.66072
 C252 C 0.08642 0.51031 0.85488
 C253 C 0.02677 0.18521 0.45244
 C254 C 0.02485 0.22096 0.48488
 C255 C 0.05972 0.22745 0.51834
 C256 C 0.09632 0.20013 0.51975
 C257 C 0.09898 0.16500 0.48821
 C258 C 0.06387 0.15666 0.45476
 C259 C -0.00736 0.17667 0.41794
 C260 C -0.00566 0.14051 0.38789
 C261 C 0.02995 0.11203 0.39129
 C262 C 0.06445 0.11987 0.42430
 H263 H -0.03545 0.19790 0.41309
 H264 H -0.03221 0.13454 0.36185
 H265 H 0.03092 0.08377 0.36815
 H266 H 0.09125 0.09657 0.42590
 H267 H 0.05854 0.25333 0.54454
 H268 H 0.12268 0.20617 0.54606
 C269 C 0.64116 0.53252 -0.01329
 C270 C 0.68191 0.54528 0.00949
 C271 C 0.68401 0.58599 0.03183
 C272 C 0.64791 0.61403 0.03113
 C273 C 0.60761 0.60180 0.00989
 C274 C 0.60328 0.55973 -0.00972
 C275 C 0.63652 0.49351 -0.03971
 C276 C 0.59558 0.47944 -0.05678
 C277 C 0.55820 0.50420 -0.04879
 C278 C 0.56187 0.54410 -0.02573
 H279 H 0.66403 0.47344 -0.04820
 H280 H 0.59288 0.44900 -0.07602
 H281 H 0.52633 0.49281 -0.06122
 H282 H 0.53192 0.56235 -0.02018
 H283 H 0.71386 0.59737 0.04905
 H284 H 0.65180 0.64604 0.04654
 C285 C 1.00287 -0.16504 0.55562
 C286 C 1.00017 -0.20880 0.53998
 C287 C 0.95940 -0.22436 0.52323
 C288 C 0.92266 -0.19710 0.51834
 C289 C 0.92529 -0.15329 0.53026
 C290 C 0.96571 -0.13680 0.54882
 C291 C 1.04156 -0.14836 0.57779
 C292 C 1.04490 -0.10474 0.58931
 C293 C 1.00960 -0.07682 0.57977
 C294 C 0.97026 -0.09255 0.56000
 H295 H 1.06926 -0.16879 0.58758
 H296 H 1.07507 -0.09255 0.60574
 H297 H 1.01252 -0.04287 0.58830
 H298 H 0.94368 -0.06962 0.55333
 H299 H 0.95575 -0.25791 0.51329
 H300 H 0.89185 -0.21028 0.50477
 C301 C 0.29358 0.38650 0.94298
 C302 C 0.28407 0.42208 0.97474
 C303 C 0.30878 0.42549 1.01799
 C304 C 0.34288 0.39639 1.02961
 C305 C 0.35249 0.36177 0.99911
 C306 C 0.32614 0.35513 0.95712
 C307 C 0.27341 0.38123 0.89693
 C308 C 0.28130 0.34485 0.86853
 C309 C 0.31029 0.31292 0.88446
 C310 C 0.33292 0.31806 0.92807
 H311 H 0.25262 0.40487 0.88058
 H312 H 0.26495 0.34160 0.83371
 H313 H 0.31606 0.28454 0.86246
 H314 H 0.35585 0.29272 0.93884
 H315 H 0.30308 0.45218 1.04238
 H316 H 0.36301 0.40189 1.06181
 C317 C 0.93617 0.19145 0.54337
 C318 C 0.93159 0.21817 0.50307
 C319 C 0.89669 0.21144 0.46976
 C320 C 0.86885 0.17690 0.47343
 C321 C 0.87481 0.14828 0.51080
 C322 C 0.90723 0.15660 0.54733
 C323 C 0.96912 0.19798 0.57973
 C324 C 0.97303 0.17153 0.61886
 C325 C 0.94418 0.13816 0.62300
 C326 C 0.91146 0.13074 0.58780
 H327 H 0.99187 0.22381 0.57912
 H328 H 0.99837 0.17725 0.64637
 H329 H 0.94706 0.11801 0.65373
 H330 H 0.88925 0.10487 0.59288
 H331 H 0.89252 0.23137 0.43893
 H332 H 0.84390 0.17113 0.44548
 C333 C 0.31305 0.52279 -0.06473
 C334 C 0.27302 0.52011 -0.04131
 C335 C 0.25631 0.55730 -0.01883
 C336 C 0.28017 0.59503 -0.01504
 C337 C 0.32131 0.59717 -0.03433
 C338 C 0.33804 0.56100 -0.05968
 C339 C 0.32893 0.48868 -0.09346
 C340 C 0.36955 0.49061 -0.11359
 C341 C 0.39502 0.52682 -0.10620
 C342 C 0.37946 0.56187 -0.07980
 H343 H 0.30978 0.46078 -0.10194
 H344 H 0.38124 0.46390 -0.13519
 H345 H 0.42671 0.52803 -0.12160
 H346 H 0.40018 0.58955 -0.07545
 H347 H 0.22457 0.55739 -0.00358
 H348 H 0.26664 0.62271 0.00368
 C349 C 0.13455 -0.19932 0.53536
 C350 C 0.09465 -0.21287 0.51079
 C351 C 0.08202 -0.19386 0.46749
 C352 C 0.10486 -0.15994 0.45035
 C353 C 0.14159 -0.14408 0.47562
 C354 C 0.15765 -0.16432 0.51750
 C355 C 0.15157 -0.21745 0.57814
 C356 C 0.18904 -0.20192 0.60233
 C357 C 0.21076 -0.16758 0.58505
 C358 C 0.19533 -0.14880 0.54322
 H359 H 0.13781 -0.24415 0.59397
 H360 H 0.20124 -0.21668 0.63486
 H361 H 0.23971 -0.15542 0.60414
 H362 H 0.21334 -0.12189 0.53158
 H363 H 0.05201 -0.20269 0.44824
 H364 H 0.09216 -0.14417 0.41858
 C365 C 0.68032 0.44838 1.05917
 C366 C 0.71166 0.45385 1.02413
 C367 C 0.72207 0.41881 0.99421
 C368 C 0.69914 0.38083 0.99487
 C369 C 0.66504 0.37651 1.02544
 C370 C 0.65578 0.40999 1.05866
 C371 C 0.67115 0.48085 1.09344
 C372 C 0.63782 0.47658 1.12477
 C373 C 0.61262 0.44000 1.12268
 C374 C 0.62124 0.40704 1.08994
 H375 H 0.68931 0.50995 1.09661
 H376 H 0.63122 0.50203 1.15048
 H377 H 0.58627 0.43710 1.14658
 H378 H 0.60028 0.37959 1.08946
 H379 H 0.74618 0.42098 0.96794
 H380 H 0.70646 0.35535 0.96939
 C381 C 0.47124 0.04984 1.17982
 C382 C 0.50597 0.03666 1.21239
 C383 C 0.54452 0.06045 1.21604
 C384 C 0.54953 0.09609 1.18816
 C385 C 0.51593 0.10941 1.15617
 C386 C 0.47619 0.08690 1.15225
 C387 C 0.43184 0.02689 1.17313
 C388 C 0.39808 0.04079 1.14178
 C389 C 0.40267 0.07763 1.11599
 C390 C 0.44131 0.10049 1.12089
 H391 H 0.42666 -0.00251 1.19093
 H392 H 0.36824 0.02270 1.13735
 H393 H 0.37630 0.08836 1.09177
 H394 H 0.44351 0.12892 1.09996
 H395 H 0.57105 0.05200 1.24102
 H396 H 0.58011 0.11314 1.19116
 C397 C 0.07300 0.69080 0.58434
 C398 C 0.06492 0.73351 0.59419
 C399 C 0.03710 0.74646 0.62985
 C400 C 0.00824 0.71802 0.64843
 C401 C 0.00198 0.67668 0.62870
 C402 C 0.02628 0.66273 0.58990
 C403 C 0.11732 0.67682 0.55071
 C404 C 0.11722 0.63054 0.51628
 C405 C 0.04539 0.59042 0.52438
 C406 C 0.01194 0.61650 0.56156
 H407 H 0.14416 0.69827 0.54773
 H408 H 0.14563 0.62349 0.49515
 H409 H 0.03351 0.56025 0.50835
 H410 H -0.01870 0.60179 0.56839
 H411 H 0.03593 0.77982 0.64155
 H412 H -0.00990 0.72852 0.67883
 C413 C 0.49380 0.89678 -0.24480
 C414 C 0.50036 0.93814 -0.22312
 C415 C 0.49924 0.94251 -0.17358
 C416 C 0.49147 0.90766 -0.14568
 C417 C 0.48460 0.86689 -0.16610
 C418 C 0.48597 0.86095 -0.21592
 C419 C 0.49424 0.88996 -0.29447
 C420 C 0.48720 0.84935 -0.31505
 C421 C 0.47942 0.81466 -0.28682
 C422 C 0.47871 0.82025 -0.23771
 H423 H 0.50036 0.91556 -0.31805
 H424 H 0.48776 0.84479 -0.35319
 H425 H 0.47383 0.78325 -0.30307
 H426 H 0.47218 0.79252 -0.21706
 H427 H 0.50269 0.97346 -0.15582
 H428 H 0.49041 0.91264 -0.10759
 C429 C 0.93453 0.32322 0.42914
 C430 C 0.96553 0.28861 0.43255
 C431 C 0.99717 0.28406 0.39824
 C432 C 1.00162 0.31527 0.36453
 C433 C 0.97479 0.35215 0.36424
 C434 C 0.93966 0.35557 0.39511
 C435 C 0.89949 0.32750 0.45982
 C436 C 0.87062 0.36281 0.45737
 C437 C 0.87591 0.39447 0.42436
 C438 C 0.91003 0.39100 0.39339
 H439 H 0.89365 0.30350 0.48554
 H440 H 0.84392 0.36555 0.48115
 H441 H 0.85335 0.42176 0.42260
 H442 H 0.91280 0.41604 0.36788
 H443 H 1.02155 0.25843 0.39978
 H444 H 1.02846 0.31221 0.34089
 C445 C 0.48396 0.89839 0.23281
 C446 C 0.49363 0.93940 0.21531
 C447 C 0.49900 0.94319 0.16658
 C448 C 0.49161 0.90897 0.13506
 C449 C 0.48001 0.86885 0.15092
 C450 C 0.47710 0.86285 0.20030
 C451 C 0.48149 0.89147 0.28177
 C452 C 0.47258 0.85102 0.29846
 C453 C 0.46640 0.81644 0.26684
 C454 C 0.46885 0.82207 0.21822
 H455 H 0.48655 0.91697 0.30766
 H456 H 0.47081 0.84643 0.33621
 H457 H 0.45995 0.78500 0.28007
 H458 H 0.46481 0.79408 0.19506
 H459 H 0.50876 0.97297 0.15192
 H460 H 0.49501 0.91396 0.09756
 C461 C 0.01412 0.33294 0.53595
 C462 C -0.01872 0.30117 0.53565
 C463 C -0.05060 0.30414 0.56964
 C464 C -0.05097 0.33761 0.60311
 C465 C -0.01933 0.36941 0.60410
 C466 C 0.01446 0.36658 0.57133
 C467 C 0.04682 0.33225 0.50219
 C468 C 0.07950 0.36281 0.50399
 C469 C 0.08084 0.39437 0.53972
 C470 C 0.04897 0.39615 0.57335
 H471 H 0.04828 0.30785 0.47455
 H472 H 0.10436 0.36154 0.47794
 H473 H 0.10683 0.41751 0.54152
 H474 H 0.05205 0.42060 0.60115
 H475 H -0.07663 0.28119 0.56963
 H476 H -0.07711 0.33937 0.62771
 C477 C 0.54758 0.04186 0.81739
 C478 C 0.51206 0.03780 0.78308
 C479 C 0.48054 0.07115 0.77942
 C480 C 0.48243 0.10700 0.80976
 C481 C 0.51587 0.11096 0.84515
 C482 C 0.54870 0.07803 0.84962
 C483 C 0.58141 0.01023 0.82161
 C484 C 0.61448 0.01330 0.85727
 C485 C 0.61444 0.04753 0.88985
 C486 C 0.58183 0.07946 0.88643
 H487 H 0.58249 -0.01758 0.79816
 H488 H 0.63991 -0.01143 0.86010
 H489 H 0.63973 0.04928 0.91808
 H490 H 0.58272 0.10477 0.91336
 H491 H 0.45387 0.06982 0.75283
 H492 H 0.45721 0.13188 0.80580
 C493 C 1.05148 0.65801 0.50881
 C494 C 1.03685 0.70254 0.49829
 C495 C 1.01834 0.71176 0.45304
 C496 C 1.01787 0.68334 0.41412
 C497 C 1.03983 0.64373 0.41438
 C498 C 1.05980 0.62875 0.45654
 C499 C 1.08795 0.61532 0.58187
 C500 C 1.11300 0.56812 0.56312
 C501 C 1.11240 0.55330 0.50182
 C502 C 1.08852 0.58097 0.45586
 H503 H 1.09186 0.62362 0.61975
 H504 H 1.12940 0.54999 0.59630
 H505 H 1.11393 0.55936 0.53521
 H506 H 1.09185 0.56498 0.42181
 H507 H 1.00421 0.74332 0.44651
 H508 H 1.00143 0.69384 0.38136
 C509 C 1.14970 0.45680 0.00478
 C510 C 1.19650 0.47225 0.00947
 C511 C 1.21188 0.49256 0.05219
 C512 C 1.18514 0.50085 0.08990
 C513 C 1.14236 0.48674 0.08792
 C514 C 1.12715 0.46423 0.04672
 C515 C 1.10425 0.41503 -0.04754
 C516 C 1.06225 0.40194 -0.04135
 C517 C 1.08719 0.42151 -0.00532
 C518 C 1.08749 0.44648 0.03963
 H519 H 1.10953 0.40254 -0.08443
 H520 H 1.03624 0.41445 -0.06549
 H521 H 1.06767 0.40133 0.01947
 H522 H 1.06065 0.45634 0.06278
 H523 H 1.24540 0.50304 0.05658
 H524 H 1.19850 0.51724 0.12156
 C525 C 0.56015 0.02272 0.67079
 C526 C 0.55263 -0.01102 0.70239
 C527 C 0.58245 -0.04590 0.70481
 C528 C 0.61874 -0.04822 0.67674
 C529 C 0.62668 -0.01569 0.64517
 C530 C 0.59689 0.01984 0.64136
 C531 C 0.53159 0.05896 0.66674
 C532 C 0.53827 0.09076 0.63422
 C533 C 0.57325 0.08719 0.60467
 C534 C 0.60221 0.05209 0.60790
 H535 H 0.50331 0.06301 0.68774
 H536 H 0.51578 0.11807 0.63150
 H537 H 0.57787 0.11167 0.57895
 H538 H 0.62836 0.05037 0.58346
 H539 H 0.57805 -0.07164 0.72900
 H540 H 0.64107 -0.07565 0.67987
 C541 C -0.20988 0.55388 0.95112
 C542 C -0.24138 0.52097 0.95383
 C543 C -0.24923 0.49351 0.91430
 C544 C -0.22326 0.49452 0.87525
 C545 C -0.18924 0.52358 0.87422
 C546 C -0.18281 0.55427 0.91159
 C547 C -0.20354 0.58584 0.98715
 C548 C -0.17054 0.61581 0.98550
 C549 C -0.14303 0.61490 0.94782
 C550 C -0.14895 0.58453 0.91114
 H551 H -0.22382 0.58846 1.01694
 H552 H -0.16619 0.63976 1.01377
 H553 H -0.11714 0.63798 0.94686
 H554 H -0.12666 0.58514 0.88262
 H555 H -0.27414 0.46959 0.91396
 H556 H -0.22853 0.47120 0.84646
 C557 C 0.44804 0.04689 0.31201
 C558 C 0.45047 0.00779 0.28480
 C559 C 0.41416 -0.01897 0.28120
 C560 C 0.37708 -0.00940 0.30630
 C561 C 0.37474 0.02777 0.33502
 C562 C 0.40913 0.05753 0.33579
 C563 C 0.48368 0.07508 0.31778
 C564 C 0.47994 0.11380 0.34333
 C565 C 0.44089 0.12523 0.36406
 C566 C 0.40578 0.09740 0.36056
 H567 H 0.51506 0.06749 0.30364
 H568 H 0.50751 0.13506 0.34702
 H569 H 0.43798 0.15555 0.38343
 H570 H 0.37593 0.10741 0.37721
 H571 H 0.41466 -0.04832 0.25993
 H572 H 0.35094 -0.03239 0.30522
 C573 C 0.17072 0.44149 0.92516
 C574 C 0.20778 0.45992 0.91032
 C575 C 0.20607 0.49268 0.87734
 C576 C 0.16656 0.51259 0.86237
 C577 C 0.12735 0.50654 0.88501
 C578 C 0.12849 0.48039 0.92470
 C579 C 0.17861 0.39545 0.96167
 C580 C 0.14422 0.38217 1.00601
 C581 C 0.08578 0.48195 0.96264
 H582 H 0.20800 0.37600 0.95894
 H583 H 0.14771 0.35449 1.02835
 H584 H 0.05386 0.41340 1.00924
 H585 H 0.05726 0.50310 0.95942
 H586 H 0.23622 0.50400 0.86396
 H587 H 0.16649 0.53359 0.83234
 C588 C 0.55234 -0.01924 0.34528
 C589 C 0.55112 -0.01942 0.29449
 C590 C 0.59053 -0.02621 0.27155
 C591 C 0.63069 -0.02935 0.29705
 C592 C 0.63283 -0.02588 0.34651
 C593 C 0.59374 -0.02043 0.37111
 C594 C 0.51422 -0.01918 0.37169
 C595 C 0.51647 -0.01586 0.42109
 C596 C 0.55680 -0.01375 0.44579
 C597 C 0.59516 -0.01653 0.42127
 H598 H 0.48227 -0.02381 0.35565
 H599 H 0.48666 -0.01546 0.44032
 H600 H 0.55842 -0.01104 0.48417
 H601 H 0.62586 -0.01582 0.44211
 H602 H 0.59043 -0.02805 0.23315
 H603 H 0.66043 -0.03395 0.27801
 C604 C 0.82083 0.49129 0.05228
 C605 C 0.77976 0.51350 0.05772
 C606 C 0.77454 0.53985 0.09827
 C607 C 0.80879 0.54563 0.13213
 C608 C 0.84938 0.52513 0.12666
 C609 C 0.85563 0.49719 0.08716
 C610 C 0.82873 0.46342 0.01304
 C611 C 0.86896 0.44219 0.00833
 C612 C 0.90245 0.44761 0.04281
 C613 C 0.89596 0.47458 0.08200
 H614 H 0.80453 0.45742 -0.01478
 H615 H 0.87405 0.42121 -0.02221
 H616 H 0.93357 0.43078 0.03925
 H617 H 0.92291 0.47726 0.10818
 H618 H 0.74393 0.55641 0.10435
 H619 H 0.80366 0.56644 0.16283
 C620 C 0.40878 -0.00410 0.72750
 C621 C 0.45036 -0.00779 0.70672
 C622 C 0.45174 -0.01099 0.65719
 C623 C 0.41368 -0.00884 0.62827
 C624 C 0.37267 -0.00369 0.64771
 C625 C 0.36972 -0.00189 0.69758
 C626 C 0.40475 -0.00234 0.77719
 C627 C 0.36378 0.00117 0.79674
 C628 C 0.32586 0.00294 0.76742
 C629 C 0.32862 0.00140 0.71828
 H630 H 0.43290 -0.00312 0.80165
 H631 H 0.36145 0.00254 0.83491
 H632 H 0.29413 0.00550 0.78284
 H633 H 0.29832 0.00246 0.69673
 H634 H 0.48248 -0.01543 0.64018
 H635 H 0.41630 -0.01070 0.59009
   
