data_POSCAR
  _audit_creation_date              2014-09-24
  _audit_creation_method            'ToBaCCo'
  _symmetry_space_group_name_H-M    'P1'
  _symmetry_Int_Tables_number       1
  _symmetry_cell_setting            triclinic
  loop_
  _symmetry_equiv_pos_as_xyz
 x,y,z
_cell_length_a 41.5090
_cell_length_b 56.1319
_cell_length_c 29.2241
_cell_angle_alpha 89.956100
_cell_angle_beta 90.172400
_cell_angle_gamma 90.071700
loop_
  _atom_site_label
  _atom_site_type_symbol
  _atom_site_fract_x
  _atom_site_fract_y
  _atom_site_fract_z
C1 C 0.19859 0.25540 0.15135
 C2 C 0.20365 0.23415 0.17583
 C3 C 0.22286 0.23491 0.21560
 C4 C 0.23869 0.25599 0.22940
 C5 C 0.23309 0.27696 0.20397
 C6 C 0.21227 0.27697 0.16601
 C7 C 0.26066 0.25596 0.27036
 C8 C 0.26631 0.27689 0.29586
 C9 C 0.28710 0.27683 0.33387
 C10 C 0.30068 0.25525 0.34849
 C11 C 0.29557 0.23403 0.32394
 C12 C 0.27641 0.23486 0.28412
 H13 H 0.18289 0.25543 0.12168
 H14 H 0.22533 0.21894 0.23598
 H15 H 0.24493 0.29343 0.21322
 H16 H 0.25453 0.29337 0.28665
 H17 H 0.31634 0.25522 0.37820
 H18 H 0.27391 0.21892 0.26369
 C19 C 0.79811 0.24722 0.15130
 C20 C 0.78495 0.26871 0.16686
 C21 C 0.76436 0.26844 0.20486
 C22 C 0.75873 0.24731 0.22986
 C23 C 0.77371 0.22617 0.21474
 C24 C 0.79255 0.22583 0.17485
 C25 C 0.73780 0.24742 0.27182
 C26 C 0.72236 0.22643 0.28702
 C27 C 0.70368 0.22614 0.32725
 C28 C 0.69885 0.24770 0.35079
 C29 C 0.71235 0.26905 0.33497
 C30 C 0.73274 0.26858 0.29681
 H31 H 0.81378 0.24730 0.12174
 H32 H 0.75282 0.28491 0.21451
 H33 H 0.77108 0.20985 0.23398
 H34 H 0.72457 0.21022 0.26739
 H35 H 0.68347 0.24811 0.38066
 H36 H 0.74460 0.28494 0.28704
 C37 C 0.70251 0.74940 0.64918
 C38 C 0.71621 0.72814 0.66513
 C39 C 0.73615 0.72876 0.70392
 C40 C 0.74045 0.74988 0.72939
 C41 C 0.72526 0.77083 0.71363
 C42 C 0.70697 0.77087 0.67301
 C43 C 0.76012 0.74976 0.77262
 C44 C 0.77578 0.77054 0.78839
 C45 C 0.79396 0.77048 0.82929
 C46 C 0.79768 0.74884 0.85315
 C47 C 0.78360 0.72774 0.83701
 C48 C 0.76385 0.72859 0.79810
 H49 H 0.68724 0.74905 0.61907
 H50 H 0.74816 0.71252 0.71408
 H51 H 0.72724 0.78715 0.73304
 H52 H 0.77418 0.78677 0.76859
 H53 H 0.81265 0.74812 0.88354
 H54 H 0.75151 0.71249 0.78786
 C55 C 0.29623 0.74989 0.64870
 C56 C 0.28234 0.77123 0.66383
 C57 C 0.26226 0.77084 0.70237
 C58 C 0.25770 0.74979 0.72800
 C59 C 0.27319 0.72882 0.71315
 C60 C 0.29179 0.72858 0.67302
 C61 C 0.23741 0.74987 0.77043
 C62 C 0.22156 0.72902 0.78534
 C63 C 0.20317 0.72878 0.82584
 C64 C 0.19943 0.75021 0.85023
 C65 C 0.21359 0.77143 0.83484
 C66 C 0.23340 0.77091 0.79609
 H67 H 0.31162 0.75007 0.61885
 H68 H 0.25024 0.78713 0.71210
 H69 H 0.27114 0.71261 0.73292
 H70 H 0.22324 0.71294 0.76517
 H71 H 0.18440 0.75068 0.88044
 H72 H 0.24568 0.78711 0.78626
 O73 O 1.03626 0.02755 -0.01078
 O74 O 0.97677 -0.01770 -0.04481
 O75 O 0.97422 0.02572 -0.01260
 O76 O 1.03947 -0.01616 -0.04124
 O77 O 1.03866 -0.02998 0.02955
 O78 O 0.97343 0.01171 0.05807
 O79 O 0.97628 -0.03176 0.02581
 O80 O 1.03580 0.01377 0.06007
 Cu81 Cu 1.00675 0.00616 -0.03452
 Cu82 Cu 1.00596 -0.01049 0.05045
 C83 C 1.04569 0.02868 0.03051
 C84 C 0.96663 -0.03257 -0.01546
 C85 C 0.96317 0.02612 0.02788
 C86 C 1.04996 -0.03034 -0.01075
 O87 O 0.53683 0.46991 0.52620
 O88 O 0.47689 0.51506 0.55829
 O89 O 0.47434 0.47124 0.52819
 O90 O 0.53945 0.51402 0.55423
 O91 O 0.53785 0.52691 0.48280
 O92 O 0.47286 0.48441 0.45696
 O93 O 0.47568 0.52816 0.48700
 O94 O 0.53570 0.48283 0.45478
 Cu95 Cu 0.50700 0.49125 0.54889
 Cu96 Cu 0.50536 0.50680 0.46317
 C97 C 0.54638 0.46860 0.48507
 C98 C 0.46638 0.52948 0.52829
 C99 C 0.46266 0.47050 0.48798
 C100 C 0.54946 0.52791 0.52297
 O101 O -0.03785 0.46938 -0.02519
 O102 O 0.02177 0.51490 -0.05742
 O103 O 0.02463 0.47107 -0.02736
 O104 O -0.04080 0.51351 -0.05317
 O105 O -0.03927 0.52628 0.01830
 O106 O 0.02617 0.48422 0.04385
 O107 O 0.02283 0.52802 0.01384
 O108 O -0.03667 0.48222 0.04625
 Cu109 Cu -0.00818 0.49092 -0.04795
 Cu110 Cu -0.00655 0.50639 0.03778
 C111 C -0.04731 0.46797 0.01598
 C112 C 0.03210 0.52941 -0.02747
 C113 C 0.03640 0.47037 0.01281
 C114 C -0.05091 0.52728 -0.02185
 O115 O 0.52120 0.98256 0.54676
 O116 O 0.46154 1.02741 0.51186
 O117 O 0.45851 0.98367 0.54219
 O118 O 0.52352 1.02607 0.51463
 O119 O 0.52508 1.01213 0.44398
 O120 O 0.46007 0.96990 0.47143
 O121 O 0.46271 1.01374 0.44100
 O122 O 0.52249 0.96864 0.47610
 Cu123 Cu 0.49106 1.00622 0.53603
 Cu124 Cu 0.49272 0.98968 0.45105
 C125 C 0.53180 0.96784 0.51753
 C126 C 0.45244 1.02854 0.47042
 C127 C 0.44842 0.96945 0.51153
 C128 C 0.53489 1.02661 0.47434
 C129 C 1.16281 0.17104 0.13161
 N130 N 1.15960 0.19128 0.10666
 N131 N 1.17262 0.21163 0.12109
 C132 C 1.18954 0.21261 0.16098
 N133 N 1.19276 0.19222 0.18578
 N134 N 1.17957 0.17187 0.17151
 C135 C 1.14805 0.14874 0.11574
 N136 N 1.14682 0.12929 0.14337
 N137 N 1.13255 0.10931 0.12919
 C138 C 1.11924 0.10802 0.08676
 N139 N 1.12073 0.12741 0.05905
 N140 N 1.13481 0.14740 0.07331
 C141 C 1.10220 0.08649 0.07157
 N142 N 1.09115 0.08483 0.02794
 N143 N 1.07399 0.06601 0.01460
 C144 C 1.06714 0.04818 0.04441
 N145 N 1.07841 0.04972 0.08799
 N146 N 1.09573 0.06851 0.10130
 C147 C 0.68497 0.66319 0.60960
 N148 N 0.68139 0.68376 0.58568
 N149 N 0.69235 0.70429 0.60250
 C150 C 0.70747 0.70505 0.64378
 N151 N 0.71159 0.68434 0.66719
 N152 N 0.70050 0.66383 0.65050
 C153 C 0.66972 0.64109 0.59354
 N154 N 0.66767 0.62184 0.62156
 N155 N 0.65121 0.60256 0.60875
 C156 C 0.63630 0.60180 0.56736
 N157 N 0.63880 0.62090 0.53905
 N158 N 0.65512 0.64022 0.55196
 C159 C 0.61584 0.58146 0.55475
 N160 N 0.60209 0.58034 0.51262
 N161 N 0.58160 0.56288 0.50218
 C162 C 0.57397 0.54596 0.53356
 N163 N 0.58793 0.54694 0.57559
 N164 N 0.60855 0.56436 0.58597
 C165 C -0.18102 0.33286 0.11126
 N166 N -0.19609 0.33258 0.15240
 N167 N -0.20804 0.31235 0.16920
 C168 C -0.20526 0.29159 0.14564
 N169 N -0.19056 0.29200 0.10416
 N170 N -0.17877 0.31225 0.08723
 C171 C -0.16511 0.35459 0.09473
 N172 N -0.15137 0.35516 0.05264
 N173 N -0.13477 0.37418 0.03897
 C174 C -0.13110 0.39329 0.06698
 N175 N -0.14507 0.39282 0.10892
 N176 N -0.16182 0.37383 0.12251
 C177 C -0.11083 0.41348 0.05308
 N178 N -0.10271 0.43075 0.08356
 N179 N -0.08279 0.44831 0.07163
 C180 C -0.07037 0.44929 0.02874
 N181 N -0.07874 0.43216 -0.00184
 N182 N -0.09853 0.41454 0.01015
 C183 C 0.31302 0.83562 0.60544
 N184 N 0.29803 0.83539 0.64664
 N185 N 0.28712 0.81505 0.66431
 C186 C 0.29090 0.79412 0.64161
 N187 N 0.30547 0.79448 0.60004
 N188 N 0.31624 0.81483 0.58225
 C189 C 0.32810 0.85753 0.58817
 N190 N 0.34227 0.85788 0.54637
 N191 N 0.35851 0.87701 0.53235
 C192 C 0.36135 0.89644 0.55972
 N193 N 0.34687 0.89620 0.60131
 N194 N 0.33049 0.87711 0.61524
 C195 C 0.38181 0.91656 0.54596
 N196 N 0.38930 0.93407 0.57624
 N197 N 0.40996 0.95128 0.56494
 C198 C 0.42379 0.95163 0.52290
 N199 N 0.41596 0.93431 0.49244
 N200 N 0.39541 0.91706 0.50379
 C201 C -0.18636 0.66245 -0.10767
 N202 N -0.20157 0.66331 -0.14880
 N203 N -0.21233 0.68393 -0.16541
 C204 C -0.20818 0.70453 -0.14169
 N205 N -0.19341 0.70354 -0.10017
 N206 N -0.18279 0.68290 -0.08343
 C207 C -0.17134 0.64026 -0.09172
 N208 N -0.15697 0.63921 -0.04998
 N209 N -0.14073 0.61985 -0.03719
 C210 C -0.13807 0.60090 -0.06576
 N211 N -0.15275 0.60184 -0.10730
 N212 N -0.16914 0.62115 -0.12000
 C213 C -0.11760 0.58058 -0.05328
 N214 N -0.11012 0.56364 -0.08468
 N215 N -0.08942 0.54629 -0.07442
 C216 C -0.07556 0.54521 -0.03233
 N217 N -0.08338 0.56195 -0.00077
 N218 N -0.10396 0.57934 -0.01109
 C219 C 0.33602 1.17083 0.36820
 N220 N 0.31941 1.17174 0.32819
 N221 N 0.30635 1.19211 0.31389
 C222 C 0.30956 1.21247 0.33878
 N223 N 0.32634 1.21142 0.37878
 N224 N 0.33923 1.19104 0.39323
 C225 C 0.35062 1.14850 0.38414
 N226 N 0.36353 1.14708 0.42676
 N227 N 0.37746 1.12706 0.44112
 C228 C 0.37914 1.10775 0.41333
 N229 N 0.36615 1.10912 0.37070
 N230 N 0.35202 1.12912 0.35642
 C231 C 0.39605 1.08621 0.42868
 N232 N 0.40287 1.06833 0.39895
 N233 N 0.42013 1.04957 0.41245
 C234 C 0.43099 1.04796 0.45623
 N235 N 0.42377 1.06568 0.48604
 N236 N 0.40667 1.08446 0.47251
 C237 C 1.18430 -0.16397 -0.10654
 N238 N 1.18124 -0.18471 -0.08304
 N239 N 1.19159 -0.20513 -0.10092
 C240 C 1.20558 -0.20560 -0.14289
 N241 N 1.20922 -0.18473 -0.16591
 N242 N 1.19871 -0.16432 -0.14815
 C243 C 1.16956 -0.14202 -0.08912
 N244 N 1.16683 -0.12251 -0.11638
 N245 N 1.15067 -0.10340 -0.10224
 C246 C 1.13676 -0.10306 -0.06025
 N247 N 1.13996 -0.12241 -0.03271
 N248 N 1.15599 -0.14156 -0.04693
 C249 C 1.11646 -0.08295 -0.04621
 N250 N 1.10337 -0.08241 -0.00372
 N251 N 1.08289 -0.06523 0.00794
 C252 C 1.07460 -0.04801 -0.02252
 N253 N 1.08793 -0.04840 -0.06489
 N254 N 1.10853 -0.06554 -0.07650
 C255 C 0.67959 0.33350 0.39034
 N256 N 0.69431 0.33304 0.34895
 N257 N 0.70590 0.31272 0.33223
 C258 C 0.70310 0.29204 0.35612
 N259 N 0.68877 0.29264 0.39785
 N260 N 0.67734 0.31298 0.41469
 C261 C 0.66395 0.35532 0.40678
 N262 N 0.65048 0.35602 0.44903
 N263 N 0.63402 0.37509 0.46262
 C264 C 0.63024 0.39411 0.43437
 N265 N 0.64397 0.39351 0.39228
 N266 N 0.66057 0.37447 0.37876
 C267 C 0.61004 0.41431 0.44819
 N268 N 0.60180 0.43149 0.41759
 N269 N 0.58186 0.44902 0.42945
 C270 C 0.56953 0.45002 0.47238
 N271 N 0.57803 0.43297 0.50308
 N272 N 0.59784 0.41540 0.49118
 C273 C 0.83795 -0.16842 -0.12226
 N274 N 0.83924 -0.18901 -0.09806
 N275 N 0.82503 -0.20865 -0.11378
 C276 C 0.80881 -0.20857 -0.15429
 N277 N 0.80740 -0.18781 -0.17830
 N278 N 0.82178 -0.16816 -0.16271
 C279 C 0.85446 -0.14704 -0.10517
 N280 N 0.85742 -0.12731 -0.13176
 N281 N 0.87352 -0.10831 -0.11662
 C282 C 0.88708 -0.10830 -0.07425
 N283 N 0.88386 -0.12795 -0.04756
 N284 N 0.86791 -0.14697 -0.06277
 C285 C 0.90613 -0.08787 -0.05821
 N286 N 0.91796 -0.08739 -0.01484
 N287 N 0.93662 -0.06947 -0.00088
 C288 C 0.94424 -0.05142 -0.02983
 N289 N 0.93225 -0.05181 -0.07311
 N290 N 0.91346 -0.06968 -0.08701
 C291 C 0.32078 0.34018 0.39326
 N292 N 0.32299 0.31922 0.41620
 N293 N 0.31120 0.29925 0.39809
 C294 C 0.29658 0.29945 0.35643
 N295 N 0.29376 0.32056 0.33398
 N296 N 0.30569 0.34052 0.35198
 C297 C 0.33710 0.36155 0.41086
 N298 N 0.34024 0.38122 0.38419
 N299 N 0.35772 0.39974 0.39835
 C300 C 0.37263 0.39930 0.43977
 N301 N 0.36906 0.37978 0.46675
 N302 N 0.35170 0.36122 0.45250
 C303 C 0.39418 0.41880 0.45365
 N304 N 0.40829 0.41878 0.49563
 N305 N 0.42957 0.43559 0.50702
 C306 C 0.43763 0.45293 0.47673
 N307 N 0.42333 0.45305 0.43489
 N308 N 0.40195 0.43632 0.42359
 C309 C 0.15914 0.66718 -0.12836
 N310 N 0.15765 0.68754 -0.10355
 N311 N 0.17184 0.70736 -0.11841
 C312 C 0.18824 0.70768 -0.15863
 N313 N 0.18982 0.68715 -0.18326
 N314 N 0.17547 0.66733 -0.16853
 C315 C 0.14275 0.64556 -0.11223
 N316 N 0.13999 0.62612 -0.13959
 N317 N 0.12409 0.60686 -0.12530
 C318 C 0.11056 0.60631 -0.08305
 N319 N 0.11357 0.62568 -0.05560
 N320 N 0.12931 0.64496 -0.06996
 C321 C 0.09179 0.58557 -0.06791
 N322 N 0.08023 0.58445 -0.02455
 N323 N 0.06184 0.56625 -0.01135
 C324 C 0.05423 0.54854 -0.04108
 N325 N 0.06596 0.54956 -0.08437
 N326 N 0.08448 0.56772 -0.09751
 C327 C 0.66246 1.16387 0.37492
 N328 N 0.65974 1.18445 0.39887
 N329 N 0.67299 1.20449 0.38339
 C330 C 0.68964 1.20484 0.34337
 N331 N 0.69244 1.18411 0.31961
 N332 N 0.67903 1.16406 0.33495
 C333 C 0.64697 1.14201 0.39159
 N334 N 0.64535 1.12225 0.36490
 N335 N 0.63001 1.10280 0.37946
 C336 C 0.61594 1.10237 0.42135
 N337 N 0.61787 1.12205 0.44819
 N338 N 0.63306 1.14151 0.43355
 C339 C 0.59722 1.08158 0.43637
 N340 N 0.58443 1.08088 0.47905
 N341 N 0.56546 1.06289 0.49168
 C342 C 0.55852 1.04499 0.46206
 N343 N 0.57159 1.04555 0.41953
 N344 N 0.59068 1.06349 0.40696
 C345 C 0.17867 0.34038 0.10689
 N346 N 0.19373 0.34067 0.14819
 N347 N 0.20565 0.32068 0.16611
 C348 C 0.20283 0.29961 0.14354
 N349 N 0.18824 0.29949 0.10186
 N350 N 0.17647 0.31947 0.08383
 C351 C 0.16235 0.36176 0.08939
 N352 N 0.14778 0.36149 0.04773
 N353 N 0.13039 0.38003 0.03357
 C354 C 0.12676 0.39947 0.06066
 N355 N 0.14165 0.39986 0.10209
 N356 N 0.15916 0.38136 0.11617
 C357 C 0.10516 0.41893 0.04687
 N358 N 0.09733 0.43637 0.07701
 N359 N 0.07587 0.45303 0.06579
 C360 C 0.06155 0.45292 0.02396
 N361 N 0.06968 0.43567 -0.00640
 N362 N 0.09103 0.41894 0.00490
 C363 C 0.66247 0.83316 0.62433
 N364 N 0.67506 0.83241 0.66725
 N365 N 0.68944 0.81274 0.68268
 C366 C 0.69164 0.79303 0.65588
 N367 N 0.67912 0.79392 0.61290
 N368 N 0.66486 0.81358 0.59742
 C369 C 0.64569 0.85447 0.60748
 N370 N 0.63460 0.85534 0.56376
 N371 N 0.61832 0.87423 0.54872
 C372 C 0.61243 0.89294 0.57686
 N373 N 0.62366 0.89214 0.62054
 N374 N 0.64005 0.87326 0.63557
 C375 C 0.59302 0.91316 0.56082
 N376 N 0.58414 0.93070 0.59015
 N377 N 0.56511 0.94837 0.57611
 C378 C 0.55437 0.94921 0.53220
 N379 N 0.56350 0.93180 0.50276
 N380 N 0.58245 0.91409 0.51683
 C381 C 0.83411 0.16232 0.12726
 N382 N 0.83339 0.18207 0.10050
 N383 N 0.82016 0.20215 0.11565
 C384 C 0.80706 0.20332 0.15814
 N385 N 0.80763 0.18346 0.18479
 N386 N 0.82098 0.16337 0.16971
 C387 C 0.84974 0.14049 0.11091
 N388 N 0.85384 0.12150 0.13915
 N389 N 0.86937 0.10215 0.12476
 C390 C 0.88122 0.10104 0.08154
 N391 N 0.87683 0.11993 0.05320
 N392 N 0.86140 0.13930 0.06762
 C393 C 0.90022 0.08043 0.06653
 N394 N 0.91184 0.07939 0.02320
 N395 N 0.93105 0.06162 0.01043
 C396 C 0.93938 0.04425 0.04054
 N397 N 0.92745 0.04513 0.08373
 N398 N 0.90817 0.06288 0.09646
 C399 C 0.33666 0.66592 0.62744
 N400 N 0.33464 0.68533 0.59990
 N401 N 0.32031 0.70512 0.61439
 C402 C 0.30734 0.70633 0.65696
 N403 N 0.30920 0.68680 0.68439
 N404 N 0.32366 0.66700 0.66996
 C405 C 0.35341 0.64441 0.61172
 N406 N 0.35863 0.62583 0.64059
 N407 N 0.37490 0.60673 0.62662
 C408 C 0.38641 0.60547 0.58323
 N409 N 0.38095 0.62396 0.55429
 N410 N 0.36479 0.64309 0.56830
 C411 C 0.40564 0.58496 0.56835
 N412 N 0.41631 0.58349 0.52457
 N413 N 0.43509 0.56551 0.51154
 C414 C 0.44395 0.54838 0.54185
 N415 N 0.43310 0.54975 0.58556
 N416 N 0.41424 0.56769 0.59855
   
