data_POSCAR
  _audit_creation_date              2014-09-24
  _audit_creation_method            'ToBaCCo'
  _symmetry_space_group_name_H-M    'P1'
  _symmetry_Int_Tables_number       1
  _symmetry_cell_setting            triclinic
  loop_
  _symmetry_equiv_pos_as_xyz
 x,y,z
_cell_length_a 29.8129
_cell_length_b 30.1033
_cell_length_c 30.2041
_cell_angle_alpha 89.852300
_cell_angle_beta 90.305500
_cell_angle_gamma 90.710000
loop_
  _atom_site_label
  _atom_site_type_symbol
  _atom_site_fract_x
  _atom_site_fract_y
  _atom_site_fract_z
C1 C 0.18956 0.53651 1.05593
 H2 H 0.19154 0.56520 1.03435
 C3 C 0.15894 0.53560 1.09064
 H4 H 0.13778 0.56415 1.09569
 C5 C 0.21390 0.46411 1.07415
 H6 H 0.23488 0.43603 1.06706
 C7 C 0.18308 0.46137 1.10879
 H8 H 0.18239 0.43143 1.12857
 N9 N 0.21640 0.50121 1.04847
 C10 C 0.31784 0.55941 0.96183
 H11 H 0.31519 0.53637 0.93448
 C12 C 0.34930 0.59405 0.96045
 H13 H 0.36958 0.59776 0.93111
 C14 C 0.29364 0.58194 1.03280
 H15 H 0.27275 0.57641 1.06143
 C16 C 0.32480 0.61700 1.03289
 H17 H 0.32708 0.63861 1.06146
 Zn18 Zn 0.25286 0.50326 0.99755
 N19 N 0.29073 0.55405 0.99752
 C20 C 0.21075 0.53866 0.92023
 N21 N 0.21318 0.50357 0.94858
 C22 C 0.18420 0.46854 0.94534
 C23 C 0.15090 0.46792 0.91275
 C24 C 0.17787 0.53942 0.88705
 C25 C 0.32011 0.44954 1.03044
 C26 C 0.35204 0.41610 1.03048
 C27 C 0.32413 0.39213 0.95906
 C28 C 0.29237 0.42591 0.96056
 N29 N 0.29111 0.45381 0.99588
 H30 H 0.23354 0.56659 0.92388
 H31 H 0.18648 0.44140 0.96876
 H32 H 0.12779 0.43991 0.91106
 H33 H 0.17701 0.56753 0.86474
 H34 H 0.31875 0.47263 1.05777
 H35 H 0.37509 0.41340 1.05818
 H36 H 0.32441 0.37015 0.93079
 H37 H 0.26948 0.43039 0.93310
 C38 C 0.35365 0.62302 0.99676
 C39 C 0.15443 0.49732 1.11708
 C40 C 0.35491 0.38742 0.99417
 C41 C 0.14683 0.50397 0.88356
 C42 C 0.82146 0.53662 -0.04516
 H43 H 0.82568 0.55885 -0.01732
 C44 C 0.85191 0.53819 -0.08004
 H45 H 0.87965 0.56155 -0.07799
 C46 C 0.78152 0.47715 -0.07906
 H47 H 0.75436 0.45305 -0.07809
 C48 C 0.81114 0.47768 -0.11480
 H49 H 0.80643 0.45392 -0.14135
 N50 N 0.78731 0.50631 -0.04516
 C51 C 0.68636 0.55809 0.04406
 H52 H 0.68531 0.53195 0.06870
 C53 C 0.65597 0.59281 0.04627
 H54 H 0.63176 0.59245 0.07278
 C55 C 0.71663 0.58690 -0.02260
 H56 H 0.73952 0.58381 -0.05000
 C57 C 0.68677 0.62233 -0.02167
 H58 H 0.68724 0.64652 -0.04827
 Zn59 Zn 0.75116 0.50370 0.00594
 N60 N 0.71568 0.55550 0.00986
 C61 C 0.78791 0.52796 0.09046
 N62 N 0.79083 0.50000 0.05524
 C63 C 0.82538 0.47114 0.05176
 C64 C 0.85912 0.47018 0.08393
 C65 C 0.82064 0.52764 0.12375
 C66 C 0.66760 0.46075 -0.00420
 C67 C 0.63664 0.42573 -0.00371
 C68 C 0.69742 0.37506 0.00953
 C69 C 0.72732 0.41132 0.00947
 N70 N 0.71190 0.45333 0.00350
 H71 H 0.76106 0.55151 0.09238
 H72 H 0.82777 0.45007 0.02296
 H73 H 0.88651 0.44723 0.08023
 H74 H 0.81828 0.55058 0.15119
 H75 H 0.65598 0.49391 -0.01088
 H76 H 0.60157 0.43254 -0.00981
 H77 H 0.70996 0.34185 0.01486
 H78 H 0.76268 0.40585 0.01464
 C79 C 0.65578 0.62555 0.01294
 C80 C 0.84694 0.50843 -0.11566
 C81 C 0.65136 0.38232 0.00410
 C82 C 0.85738 0.49938 0.12006
 C83 C -0.03880 0.31647 0.44137
 H84 H -0.06906 0.31145 0.46042
 C85 C -0.03757 0.34867 0.40803
 H86 H -0.06746 0.36770 0.40123
 C87 C 0.03730 0.29903 0.42874
 H88 H 0.06663 0.28012 0.43752
 C89 C 0.04048 0.33185 0.39610
 H90 H 0.07209 0.33611 0.37916
 N91 N -0.00180 0.29222 0.45083
 C92 C -0.05512 0.18661 0.53533
 H93 H -0.03048 0.18917 0.56166
 C94 C -0.08782 0.15316 0.53666
 H95 H -0.08723 0.13028 0.56424
 C96 C -0.08216 0.21175 0.46590
 H97 H -0.07876 0.23349 0.43760
 C98 C -0.11562 0.17878 0.46593
 H99 H -0.13828 0.17610 0.43789
 Zn100 Zn -0.00273 0.25412 0.50066
 N101 N -0.05287 0.21510 0.50045
 C102 C -0.03840 0.29236 0.57911
 N103 N -0.00309 0.29146 0.55078
 C104 C 0.03190 0.32052 0.55489
 C105 C 0.03217 0.35242 0.58826
 C106 C -0.03954 0.32385 0.61304
 C107 C 0.05185 0.18982 0.46525
 C108 C 0.08515 0.15775 0.46431
 C109 C 0.11028 0.18249 0.53644
 C110 C 0.07648 0.21434 0.53591
 N111 N 0.04793 0.21709 0.50076
 H112 H -0.06627 0.26948 0.57479
 H113 H 0.05922 0.31945 0.53149
 H114 H 0.06010 0.37568 0.59059
 H115 H -0.06785 0.32364 0.63524
 H116 H 0.02828 0.19239 0.43804
 H117 H 0.08727 0.13587 0.43600
 H118 H 0.13264 0.18101 0.56470
 H119 H 0.07231 0.23592 0.56409
 C120 C -0.11878 0.14883 0.50154
 C121 C 0.00279 0.35783 0.38578
 C122 C 0.11426 0.15303 0.50058
 C123 C -0.00421 0.35503 0.61734
 C124 C 0.96124 0.67822 0.54755
 H125 H 0.93749 0.67580 0.52043
 C126 C 0.95918 0.64768 0.58232
 H127 H 0.93384 0.62177 0.58088
 C128 C 1.02497 0.71350 0.57960
 H129 H 1.05122 0.73850 0.57782
 C130 C 1.02402 0.68376 0.61521
 H131 H 1.04941 0.68651 0.64089
 N132 N 0.99376 0.71024 0.54675
 C133 C 0.94173 0.80991 0.45592
 H134 H 0.96682 0.80866 0.43022
 C135 C 0.90753 0.84106 0.45336
 H136 H 0.90612 0.86252 0.42466
 C137 C 0.91384 0.78286 0.52429
 H138 H 0.91711 0.76087 0.55242
 C139 C 0.87923 0.81375 0.52323
 H140 H 0.85582 0.81493 0.55050
 Zn141 Zn 0.99615 0.74626 0.49544
 N142 N 0.94453 0.78192 0.49117
 C143 C 0.96689 0.70396 0.41582
 N144 N 1.00007 0.70698 0.44681
 C145 C 1.03546 0.67894 0.44642
 C146 C 1.03854 0.64626 0.41394
 C147 C 0.96846 0.67148 0.38287
 C148 C 1.04495 0.81765 0.52965
 C149 C 1.07856 0.85024 0.53207
 C150 C 1.11385 0.81709 0.46863
 C151 C 1.07935 0.78521 0.46729
 N152 N 1.04595 0.78590 0.49777
 H153 H 0.93858 0.72595 0.41720
 H154 H 1.06092 0.68150 0.47197
 H155 H 1.06677 0.62395 0.41441
 H156 H 0.94182 0.66987 0.35845
 H157 H 1.01734 0.81811 0.55275
 H158 H 1.07573 0.87570 0.55701
 H159 H 1.14006 0.81622 0.44396
 H160 H 1.07893 0.76054 0.44139
 C161 C 0.87643 0.84421 0.48810
 C162 C 0.99089 0.65025 0.61697
 C163 C 1.11392 0.85013 0.50137
 C164 C 1.00438 0.64162 0.38216
 C165 C 0.44606 -0.02895 0.31864
 H166 H 0.47343 -0.05221 0.31969
 C167 C 0.41171 -0.03210 0.34974
 H168 H 0.41382 -0.05784 0.37459
 C169 C 0.41290 0.03440 0.28606
 H170 H 0.41407 0.06085 0.26183
 C171 C 0.37767 0.03234 0.31639
 H172 H 0.35172 0.05718 0.31489
 N173 N 0.44615 0.00394 0.28775
 C174 C 0.53447 -0.04534 0.18519
 H175 H 0.56118 -0.02074 0.18683
 C176 C 0.53582 -0.07888 0.15351
 H177 H 0.56420 -0.08006 0.13129
 C178 C 0.46441 -0.07219 0.21127
 H179 H 0.43632 -0.06895 0.23345
 C180 C 0.46385 -0.10576 0.17939
 H181 H 0.43569 -0.12870 0.17900
 Zn182 Zn 0.49689 0.00751 0.25058
 N183 N 0.49922 -0.04266 0.21332
 C184 C 0.58057 -0.01982 0.28750
 N185 N 0.54786 0.01130 0.28808
 C186 C 0.54854 0.04474 0.31824
 C187 C 0.58308 0.04787 0.34947
 C188 C 0.61602 -0.01770 0.31791
 C189 C 0.46098 0.05608 0.18120
 C190 C 0.45964 0.08813 0.14782
 C191 C 0.52600 0.12246 0.17957
 C192 C 0.52616 0.08954 0.21229
 N193 N 0.49400 0.05712 0.21235
 H194 H 0.57865 -0.04708 0.26439
 H195 H 0.52160 0.06849 0.31855
 H196 H 0.58270 0.07429 0.37374
 H197 H 0.64089 -0.04357 0.31767
 H198 H 0.43655 0.02919 0.18138
 H199 H 0.43396 0.08488 0.12265
 H200 H 0.55236 0.14756 0.17947
 H201 H 0.55284 0.08910 0.23663
 C202 C 0.49968 -0.10903 0.14930
 C203 C 0.37672 -0.00109 0.34893
 C204 C 0.49270 0.12194 0.14651
 C205 C 0.61742 0.01650 0.34952
 C206 C 0.55171 -0.04296 0.68393
 H207 H 0.52548 -0.06811 0.68451
 C208 C 0.58534 -0.04477 0.65206
 H209 H 0.58506 -0.07164 0.62827
 C210 C 0.58270 0.02381 0.71302
 H211 H 0.58099 0.05094 0.73626
 C212 C 0.61674 0.02350 0.68142
 H213 H 0.64164 0.04996 0.68154
 N214 N 0.55082 -0.00890 0.71338
 C215 C 0.46373 -0.05458 0.81997
 H216 H 0.43998 -0.02770 0.82025
 C217 C 0.46167 -0.08750 0.85255
 H218 H 0.43615 -0.08495 0.87762
 C219 C 0.52777 -0.08750 0.78838
 H220 H 0.55432 -0.08664 0.76420
 C221 C 0.52681 -0.12126 0.82018
 H222 H 0.55241 -0.14648 0.81968
 Zn223 Zn 0.50023 -0.00540 0.75055
 N224 N 0.49647 -0.05505 0.78886
 C225 C 0.41484 -0.03173 0.71492
 N226 N 0.44969 -0.00226 0.71270
 C227 C 0.45150 0.02945 0.68065
 C228 C 0.41740 0.03257 0.64907
 C229 C 0.37974 -0.02962 0.68411
 C230 C 0.53689 0.04662 0.81827
 C231 C 0.53874 0.08080 0.84941
 C232 C 0.47266 0.11219 0.81558
 C233 C 0.47207 0.07736 0.78514
 N234 N 0.50385 0.04540 0.78711
 H235 H 0.41454 -0.05733 0.74006
 H236 H 0.48014 0.05182 0.67913
 H237 H 0.42099 0.05726 0.62330
 H238 H 0.35237 -0.05353 0.68611
 H239 H 0.56109 0.02015 0.81971
 H240 H 0.56442 0.07968 0.87474
 H241 H 0.44662 0.13693 0.81403
 H242 H 0.44543 0.07523 0.76082
 C243 C 0.49368 -0.12153 0.85303
 C244 C 0.61764 -0.01066 0.64977
 C245 C 0.50611 0.11421 0.84842
 C246 C 0.38061 0.00283 0.65060
 C247 C 0.24613 0.00362 0.50052
 C248 C 0.74733 -0.00272 0.49846
 C249 C 0.49864 0.25112 0.99316
 C250 C 0.50490 0.75652 0.01073
 C251 C 1.01306 0.49498 0.24880
 C252 C -0.00366 0.50163 0.75096
 C253 C 0.14753 0.11682 0.49958
 C254 C 0.16553 0.09861 0.53610
 C255 C 0.19559 0.05978 0.53580
 C256 C 0.21785 0.04548 0.50007
 H257 H 0.15568 0.11028 0.56840
 H258 H 0.20002 0.04271 0.56706
 H259 H 0.15434 0.10265 0.46751
 H260 H 0.21414 0.06277 0.46888
 C261 C 0.62153 0.66089 0.01116
 C262 C 0.59828 0.67390 0.04669
 C263 C 0.55979 0.70436 0.04532
 C264 C 0.54836 0.73028 0.01083
 H265 H 0.60580 0.66006 0.07889
 H266 H 0.53906 0.70475 0.07468
 H267 H 0.61476 0.67531 -0.02095
 H268 H 0.56865 0.73070 -0.01874
 C269 C 0.84192 -0.12061 0.48976
 C270 C 0.84577 -0.08208 0.46750
 C271 C 0.81531 -0.04391 0.47176
 C272 C 0.77632 -0.04399 0.49401
 H273 H 0.87464 -0.07601 0.44679
 H274 H 0.82660 -0.01369 0.45560
 H275 H 0.81466 -0.12559 0.51276
 H276 H 0.76338 -0.07474 0.50776
 C277 C 0.39040 0.35344 0.99436
 C278 C 0.40834 0.33679 0.95738
 C279 C 0.44686 0.30633 0.95782
 C280 C 0.45622 0.27886 0.99163
 H281 H 0.39743 0.34873 0.92532
 H282 H 0.46823 0.30649 0.92894
 H283 H 0.40472 0.34487 1.02622
 H284 H 0.43403 0.27761 1.01989
 C285 C 0.84755 0.11208 0.49925
 C286 C 0.83599 0.08671 0.53411
 C287 C 0.80602 0.04739 0.53150
 C288 C 0.77593 0.03971 0.49911
 H289 H 0.85043 0.09305 0.56636
 H290 H 0.80853 0.02367 0.55842
 H291 H 0.83287 0.10522 0.46712
 H292 H 0.77141 0.06383 0.47290
 C293 C 0.38756 0.65951 -0.00158
 C294 C 0.42443 0.66070 -0.02691
 C295 C 0.45874 0.69643 -0.02517
 C296 C 0.46654 0.72239 0.01020
 H297 H 0.43024 0.63495 -0.05096
 H298 H 0.48013 0.70000 -0.05387
 H299 H 0.38213 0.68574 0.02216
 H300 H 0.44835 0.71607 0.04054
 C301 C 0.14989 -0.11519 0.50089
 C302 C 0.15911 -0.08836 0.53532
 C303 C 0.19366 -0.05259 0.53538
 C304 C 0.21377 -0.03601 0.49908
 H305 H 0.14161 -0.09299 0.56624
 H306 H 0.20134 -0.03808 0.56732
 H307 H 0.16992 -0.11273 0.47122
 H308 H 0.20384 -0.04804 0.46672
 C309 C 0.61909 0.34465 1.00588
 C310 C 0.57858 0.34901 1.02433
 C311 C 0.54404 0.31358 1.02556
 C312 C 0.53902 0.28263 0.99396
 H313 H 0.57035 0.37976 1.04078
 H314 H 0.51896 0.31584 1.05126
 H315 H 0.62953 0.31268 0.99352
 H316 H 0.56227 0.28220 0.96651
 C317 C 0.49558 0.15505 1.10998
 C318 C 0.46196 0.16293 1.08134
 C319 C 0.46489 0.19305 1.04265
 C320 C 0.49838 0.22223 1.03466
 H321 H 0.43011 0.14591 1.08502
 H322 H 0.43715 0.19116 1.01938
 H323 H 0.52714 0.17272 1.10656
 H324 H 0.52626 0.22535 1.05752
 C325 C -0.00779 0.61743 0.65381
 C326 C -0.04218 0.59009 0.66400
 C327 C -0.04097 0.55561 0.69898
 C328 C -0.00345 0.54052 0.71843
 H329 H -0.07389 0.59315 0.64689
 H330 H -0.07295 0.54066 0.70760
 H331 H 0.02263 0.61663 0.67344
 H332 H 0.02893 0.55291 0.70771
 C333 C 0.49563 0.84402 -0.11169
 C334 C 0.46258 0.83613 -0.08256
 C335 C 0.46524 0.80360 -0.04588
 C336 C 0.50359 0.78663 -0.02989
 H337 H 0.43103 0.85310 -0.08569
 H338 H 0.43386 0.79498 -0.02996
 H339 H 0.52562 0.82421 -0.11029
 H340 H 0.53537 0.79796 -0.04321
 C341 C 1.00406 0.39257 0.35456
 C342 C 1.04381 0.41315 0.33994
 C343 C 1.04560 0.44726 0.30845
 C344 C 1.01067 0.45759 0.27890
 H345 H 1.07522 0.40536 0.35607
 H346 H 1.07710 0.46539 0.30568
 H347 H 0.97234 0.40664 0.34454
 H348 H 0.98027 0.43756 0.27945
 C349 C 0.50081 0.85933 0.11514
 C350 C 0.46352 0.83430 0.10061
 C351 C 0.46470 0.80288 0.06653
 C352 C 0.50410 0.78488 0.04911
 H353 H 0.43067 0.84138 0.11356
 H354 H 0.43257 0.79134 0.05391
 H355 H 0.53178 0.85712 0.09687
 H356 H 0.53617 0.79521 0.06280
 C357 C -0.00380 0.39084 0.65099
 C358 C -0.04072 0.40582 0.67113
 C359 C -0.04065 0.44420 0.70173
 C360 C -0.00411 0.45928 0.72348
 H361 H -0.07327 0.39203 0.66263
 H362 H -0.07245 0.46035 0.70668
 H363 H 0.02805 0.40751 0.65660
 H364 H 0.02741 0.44244 0.71915
 C365 C 0.50364 0.14954 0.88252
 C366 C 0.53795 0.16112 0.90930
 C367 C 0.53511 0.19368 0.94586
 C368 C 0.50053 0.22098 0.95282
 H369 H 0.57007 0.14534 0.90575
 H370 H 0.56328 0.19483 0.96865
 H371 H 0.47173 0.16580 0.88557
 H372 H 0.47222 0.22093 0.93035
 C373 C 1.00738 0.60526 0.34935
 C374 C 0.97132 0.58625 0.33005
 C375 C 0.97385 0.54722 0.30055
 C376 C 1.01005 0.53735 0.27627
 H377 H 0.93804 0.59687 0.33894
 H378 H 0.94431 0.52603 0.29860
 H379 H 1.04024 0.59146 0.34391
 H380 H 1.03886 0.55960 0.27751
 C381 C 1.12123 0.49654 0.15002
 C382 C 1.10622 0.45807 0.17210
 C383 C 1.07171 0.45742 0.20339
 C384 C 1.05492 0.49526 0.22455
 H385 H 1.11833 0.42598 0.16208
 H386 H 1.05738 0.42521 0.21157
 H387 H 1.10378 0.52728 0.15561
 H388 H 1.07113 0.52702 0.21849
 C389 C 0.65054 -0.01095 0.61323
 C390 C 0.66677 0.02657 0.59504
 C391 C 0.69482 0.02779 0.55493
 C392 C 0.72088 -0.00564 0.54149
 H393 H 0.65578 0.05839 0.60722
 H394 H 0.69441 0.05831 0.53585
 H395 H 0.65775 -0.04266 0.59821
 H396 H 0.72279 -0.03562 0.56127
 C397 C -0.12044 0.50674 0.84736
 C398 C -0.09211 0.54029 0.83744
 C399 C -0.05755 0.53886 0.80253
 C400 C -0.04307 0.50166 0.78300
 H401 H -0.09437 0.57149 0.85484
 H402 H -0.04185 0.57035 0.79413
 H403 H -0.12067 0.47695 0.82743
 H404 H -0.05626 0.46969 0.79344
 C405 C 0.34039 -0.00059 0.38254
 C406 C 0.33227 -0.03381 0.41136
 C407 C 0.29864 -0.03264 0.44729
 C408 C 0.27577 0.00347 0.45960
 H409 H 0.35085 -0.06427 0.40929
 H410 H 0.29417 -0.06309 0.46604
 H411 H 0.31978 0.02866 0.38305
 H412 H 0.28198 0.03487 0.44319
 C413 C 0.10979 0.50299 0.85055
 C414 C 0.09390 0.53925 0.83005
 C415 C 0.05478 0.53869 0.79959
 C416 C 0.03902 0.50216 0.77893
 H417 H 0.10772 0.57167 0.83784
 H418 H 0.03878 0.57023 0.79362
 H419 H 0.09324 0.47124 0.84558
 H420 H 0.05555 0.47083 0.78437
 C421 C 0.65188 0.01845 0.38494
 C422 C 0.69293 0.00119 0.38106
 C423 C 0.72596 0.00164 0.41769
 C424 C 0.71388 -0.00187 0.46032
 H425 H 0.70375 -0.01202 0.34965
 H426 H 0.76113 0.00262 0.40906
 H427 H 0.64325 0.03580 0.41505
 H428 H 0.67856 -0.00594 0.46797
 C429 C 0.89393 0.50188 0.15333
 C430 C 0.93697 0.49689 0.14198
 C431 C 0.97520 0.50156 0.17291
 C432 C 0.97288 0.49313 0.21668
 H433 H 0.94540 0.49196 0.10753
 H434 H 1.00693 0.51010 0.15772
 H435 H 0.88546 0.51167 0.18669
 H436 H 0.94061 0.48393 0.23049
 C437 C 0.34407 0.00292 0.61688
 C438 C 0.33680 0.03682 0.58879
 C439 C 0.30243 0.03705 0.55324
 C440 C 0.27749 0.00179 0.54056
 H441 H 0.35647 0.06704 0.59158
 H442 H 0.29879 0.06807 0.53540
 H443 H 0.32236 -0.02608 0.61593
 H444 H 0.28281 -0.03028 0.55573
   
