data_POSCAR
  _audit_creation_date              2014-09-24
  _audit_creation_method            'ToBaCCo'
  _symmetry_space_group_name_H-M    'P1'
  _symmetry_Int_Tables_number       1
  _symmetry_cell_setting            triclinic
  loop_
  _symmetry_equiv_pos_as_xyz
 x,y,z
_cell_length_a 37.6263
_cell_length_b 36.9765
_cell_length_c 30.5671
_cell_angle_alpha 92.293100
_cell_angle_beta 85.406100
_cell_angle_gamma 87.901600
loop_
  _atom_site_label
  _atom_site_type_symbol
  _atom_site_fract_x
  _atom_site_fract_y
  _atom_site_fract_z
C1 C 0.19111 0.22660 0.27462
 N2 N 0.18057 0.26114 0.26749
 C3 C 0.19791 0.28062 0.23646
 N4 N 0.22675 0.26516 0.21200
 C5 C 0.23811 0.23048 0.21870
 N6 N 0.21985 0.21142 0.24988
 C7 C -0.19576 0.83169 0.18122
 N8 N -0.22969 0.83655 0.16954
 C9 C -0.24029 0.81932 0.13277
 N10 N -0.21681 0.79614 0.10850
 C11 C -0.18300 0.79126 0.11993
 N12 N -0.17266 0.80924 0.15581
 C13 C -0.18065 0.18490 -0.17470
 N14 N -0.21498 0.17840 -0.16080
 C15 C -0.22815 0.18833 -0.11892
 N16 N -0.20662 0.20493 -0.09139
 C17 C -0.17223 0.21053 -0.10473
 N18 N -0.15953 0.20080 -0.14628
 C19 C 0.18153 0.82355 -0.21836
 N20 N 0.16803 0.79115 -0.20651
 C21 C 0.18557 0.76980 -0.17904
 N22 N 0.21594 0.78155 -0.16299
 C23 C 0.22991 0.81329 -0.17448
 N24 N 0.21270 0.83387 -0.20254
 C25 C 0.18953 1.17952 0.75945
 N26 N 0.21043 1.16394 0.78812
 C27 C 0.22192 1.18307 0.82224
 N28 N 0.21344 1.21883 0.82737
 C29 C 0.19189 1.23539 0.79979
 N30 N 0.17910 1.21531 0.76620
 C31 C 0.82628 0.84139 0.84413
 N32 N 0.79051 0.83863 0.84257
 C33 C 0.77153 0.81819 0.87147
 N34 N 0.78919 0.79836 0.90026
 C35 C 0.82508 0.80094 0.90211
 N36 N 0.84292 0.82341 0.87491
 C37 C 0.21543 0.78155 1.21419
 N38 N 0.20278 0.74896 1.20145
 C39 C 0.22319 0.72605 1.17251
 N40 N 0.25622 0.73590 1.15685
 C41 C 0.26931 0.76772 1.17038
 N42 N 0.24863 0.79017 1.19848
 C43 C 0.81749 1.15739 1.17786
 N44 N 0.84103 1.18113 1.16098
 C45 C 0.83455 1.20018 1.12511
 N46 N 0.80388 1.19469 1.10512
 C47 C 0.78039 1.17012 1.12104
 N48 N 0.78734 1.15186 1.15733
 O49 O 0.51515 0.97128 0.90602
 O50 O 0.44895 0.98524 1.08437
 O51 O 0.55635 0.97254 1.02215
 O52 O 0.44661 0.95193 0.95385
 O53 O 0.51455 0.97920 1.07674
 O54 O 0.44854 0.98898 0.90548
 O55 O 0.44450 0.94991 1.02916
 O56 O 0.56745 0.97611 0.93711
 C57 C 0.54871 0.96275 0.90609
 C58 C 0.44231 0.95457 1.06941
 C59 C 0.54424 0.96593 1.06032
 C60 C 0.43943 0.95901 0.91668
 O61 O 0.45852 1.05380 0.93448
 O62 O 0.51883 1.04876 1.06471
 O63 O 0.55472 1.03819 0.96911
 O64 O 0.41180 1.01782 1.03972
 O65 O 0.45136 1.05413 1.06191
 O66 O 0.52218 1.04376 0.91575
 O67 O 0.41468 1.02290 0.96255
 O68 O 0.55740 1.03194 1.00836
 Co69 Co 0.48610 1.01320 0.92375
 Co70 Co 0.48336 1.01616 1.06471
 Co71 Co 0.53496 0.99428 0.97756
 Co72 Co 0.43327 0.98711 0.99574
 O73 O 0.48420 1.00581 0.99445
 C74 C 0.42636 1.05217 0.94791
 C75 C 0.54979 1.04921 1.04605
 C76 C 0.54807 1.05372 0.93474
 C77 C 0.41938 1.04710 1.05883
 O78 O 0.03046 0.45593 0.07602
 O79 O 0.01448 0.53701 -0.09059
 O80 O 0.05553 0.45420 -0.06169
 O81 O 0.05939 0.53931 0.03481
 O82 O 0.01349 0.46871 -0.10122
 O83 O 0.02730 0.52061 0.09045
 O84 O 0.04994 0.55847 -0.04297
 O85 O 0.06288 0.45299 0.01542
 C86 C 0.06057 0.45001 0.05562
 C87 C 0.04039 0.55610 -0.08125
 C88 C 0.04423 0.45521 -0.09846
 C89 C 0.05563 0.53432 0.07494
 O90 O -0.04290 0.52283 0.07037
 O91 O -0.04935 0.46915 -0.05562
 O92 O -0.00028 0.41970 0.02865
 O93 O -0.01682 0.57635 -0.01817
 O94 O -0.05042 0.53859 -0.05169
 O95 O -0.03937 0.45935 0.05391
 O96 O -0.00688 0.56435 0.05857
 O97 O -0.00952 0.42621 -0.04860
 Co98 Co -0.00501 0.49018 0.06662
 Co99 Co -0.01566 0.50251 -0.06780
 Co100 Co 0.02539 0.44308 -0.01518
 Co101 Co 0.02025 0.55383 0.00748
 O102 O 0.00607 0.49763 -0.00271
 C103 C -0.03805 0.55558 0.06777
 C104 C -0.04143 0.43640 -0.05241
 C105 C -0.03154 0.42717 0.04420
 C106 C -0.04539 0.56942 -0.03542
 O107 O 1.06892 -0.00495 0.44508
 O108 O 0.91590 0.02621 0.51966
 O109 O 0.97120 0.04439 0.43430
 O110 O 1.01267 0.02754 0.57455
 O111 O 0.92461 0.01477 0.43759
 O112 O 1.05644 0.01716 0.52326
 O113 O 0.94297 0.03329 0.58283
 O114 O 1.03129 0.03630 0.43913
 C115 C 1.06278 0.02629 0.43439
 C116 C 0.91596 0.03968 0.55919
 C117 C 0.93966 0.04289 0.42701
 C118 C 1.04303 0.03420 0.55765
 O119 O 1.03982 -0.04922 0.54299
 O120 O 0.94108 -0.05490 0.44863
 O121 O 1.02872 -0.03611 0.40474
 O122 O 0.95862 -0.02951 0.57675
 O123 O 0.92390 -0.04603 0.52712
 O124 O 1.04104 -0.06689 0.46194
 O125 O 0.99103 -0.02797 0.58217
 O126 O 0.96742 -0.02483 0.39733
 Co127 Co 1.04569 -0.02475 0.49297
 Co128 Co 0.93254 -0.01463 0.48342
 Co129 Co 0.99909 0.00389 0.42361
 Co130 Co 0.97513 0.00963 0.54679
 O131 O 0.98984 -0.01049 0.48732
 C132 C 1.02038 -0.04758 0.57811
 C133 C 0.95106 -0.05221 0.40924
 C134 C 1.03855 -0.06554 0.42133
 C135 C 0.93245 -0.04759 0.56555
 C136 C 1.17941 0.16963 0.31119
 C137 C 1.15672 0.14899 0.33824
 C138 C 1.12503 0.16531 0.35950
 C139 C 1.11717 0.20211 0.35482
 C140 C 1.13968 0.22242 0.32798
 C141 C 1.17066 0.20641 0.30485
 C142 C 1.10120 0.14449 0.38433
 C143 C 1.10849 0.10742 0.38814
 C144 C 1.14074 0.09117 0.36830
 C145 C 1.16471 0.11208 0.34350
 C146 C 1.14804 0.05410 0.37289
 C147 C 1.12314 0.03314 0.39572
 C148 C 1.09046 0.04888 0.41398
 C149 C 1.08357 0.08617 0.41067
 H150 H 1.20323 0.15669 0.29422
 H151 H 1.09316 0.21508 0.37124
 H152 H 1.13206 0.25064 0.32465
 H153 H 1.07660 0.15700 0.39991
 H154 H 1.18912 0.09949 0.32756
 H155 H 1.17269 0.04119 0.35818
 H156 H 1.12898 0.00440 0.39796
 H157 H 1.05852 0.09855 0.42504
 C158 C 0.85212 -0.15298 0.22705
 C159 C 0.86435 -0.13528 0.26388
 C160 C 0.83990 -0.11564 0.29421
 C161 C 0.80364 -0.11345 0.28650
 C162 C 0.79173 -0.13037 0.24891
 C163 C 0.81576 -0.15060 0.21882
 C164 C 0.85223 -0.09801 0.33123
 C165 C 0.88887 -0.09859 0.33714
 C166 C 0.91339 -0.11743 0.30600
 C167 C 0.90088 -0.13632 0.27013
 C168 C 0.95015 -0.11600 0.31041
 C169 C 0.96257 -0.09518 0.34468
 C170 C 0.93840 -0.07710 0.37608
 C171 C 0.90158 -0.07931 0.37268
 H172 H 0.87138 -0.16797 0.20428
 H173 H 0.78455 -0.09831 0.30929
 H174 H 0.76359 -0.12795 0.24384
 H175 H 0.83350 -0.08302 0.35469
 H176 H 0.91967 -0.15093 0.24638
 H177 H 0.96928 -0.12991 0.28653
 H178 H 0.99099 -0.09282 0.34637
 H179 H 0.88300 -0.06432 0.39631
 C180 C 0.81815 0.15113 0.75198
 C181 C 0.83510 0.14052 0.71043
 C182 C 0.86767 0.15601 0.69620
 C183 C 0.88197 0.18268 0.72246
 C184 C 0.86545 0.19251 0.76373
 C185 C 0.83399 0.17624 0.77952
 C186 C 0.88667 0.14321 0.65718
 C187 C 0.87452 0.11391 0.63307
 C188 C 0.84118 0.09936 0.64567
 C189 C 0.82125 0.11330 0.68395
 C190 C 0.82985 0.06932 0.62159
 C191 C 0.85297 0.05170 0.58854
 C192 C 0.88724 0.06443 0.57886
 C193 C 0.89694 0.09674 0.59923
 H194 H 0.79379 0.13858 0.76366
 H195 H 0.90671 0.19500 0.71179
 H196 H 0.87786 0.21250 0.78372
 H197 H 0.91221 0.15436 0.64724
 H198 H 0.79624 0.10143 0.69455
 H199 H 0.80431 0.05787 0.63048
 H200 H 0.84538 0.02641 0.57349
 H201 H 0.92363 0.10628 0.59195
 C202 C 1.12980 -0.16034 0.73960
 C203 C 1.11247 -0.13569 0.71324
 C204 C 1.12947 -0.10370 0.70104
 C205 C 1.16295 -0.09656 0.71531
 C206 C 1.17975 -0.12072 0.74149
 C207 C 1.16371 -0.15302 0.75422
 C208 C 1.11305 -0.07925 0.67439
 C209 C 1.07977 -0.08625 0.65923
 C210 C 1.06215 -0.11783 0.67155
 C211 C 1.07857 -0.14237 0.69868
 C212 C 1.02890 -0.12462 0.65544
 C213 C 1.01401 -0.10097 0.62635
 C214 C 1.03177 -0.06986 0.61379
 C215 C 1.06442 -0.06255 0.63070
 H216 H 1.11670 -0.18482 0.74893
 H217 H 1.17628 -0.07215 0.70618
 H218 H 1.20567 -0.11377 0.75161
 H219 H 1.12646 -0.05494 0.66489
 H220 H 1.06526 -0.16678 0.70789
 H221 H 1.01499 -0.14876 0.66418
 H222 H 0.98955 -0.10781 0.61218
 H223 H 1.07851 -0.03887 0.62030
 C224 C 0.27491 1.17630 1.19455
 C225 C 0.30271 1.15894 1.16732
 C226 C 0.32449 1.17922 1.13844
 C227 C 0.31730 1.21662 1.13660
 C228 C 0.28872 1.23362 1.16283
 C229 C 0.26720 1.21376 1.19242
 C230 C 0.35273 1.16167 1.11166
 C231 C 0.35862 1.12391 1.11254
 C232 C 0.33576 1.10374 1.14052
 C233 C 0.30849 1.12139 1.16812
 C234 C 0.34028 1.06603 1.14037
 C235 C 0.36719 1.04826 1.11289
 C236 C 0.39072 1.06777 1.08574
 C237 C 0.38660 1.10574 1.08575
 H238 H 0.25866 1.16013 1.21653
 H239 H 0.33351 1.23268 1.11449
 H240 H 0.28378 1.26245 1.16013
 H241 H 0.36971 1.17727 1.08982
 H242 H 0.29137 1.10577 1.18982
 H243 H 0.32288 1.05021 1.16141
 H244 H 0.37017 1.01902 1.11352
 H245 H 0.40456 1.12083 1.06454
 C246 C 0.27940 0.85474 0.82684
 C247 C 0.31018 0.86658 0.84540
 C248 C 0.32242 0.84940 0.88219
 C249 C 0.30478 0.81937 0.89826
 C250 C 0.27493 0.80690 0.87870
 C251 C 0.26124 0.82486 0.84337
 C252 C 0.35186 0.86270 0.90249
 C253 C 0.36969 0.89257 0.88584
 C254 C 0.35857 0.90831 0.84748
 C255 C 0.32880 0.89546 0.82778
 C256 C 0.37689 0.93731 0.82990
 C257 C 0.40475 0.95193 0.85126
 C258 C 0.41476 0.93815 0.89093
 C259 C 0.39776 0.90767 0.90748
 H260 H 0.26991 0.86865 0.79919
 H261 H 0.31398 0.80555 0.92610
 H262 H 0.26197 0.78373 0.89237
 H263 H 0.36059 0.85012 0.93145
 H264 H 0.31987 0.90825 0.79904
 H265 H 0.36905 0.94938 0.80022
 H266 H 0.41750 0.97521 0.83757
 H267 H 0.40528 0.89675 0.93796
 C268 C 0.70121 0.85112 1.14315
 C269 C 0.66996 0.86357 1.12554
 C270 C 0.66309 0.85200 1.08249
 C271 C 0.68617 0.82630 1.05903
 C272 C 0.71713 0.81391 1.07677
 C273 C 0.72590 0.82734 1.11822
 C274 C 0.63419 0.86747 1.06282
 C275 C 0.61236 0.89469 1.08552
 C276 C 0.61768 0.90461 1.12960
 C277 C 0.64640 0.88879 1.14947
 C278 C 0.59522 0.93150 1.15225
 C279 C 0.56933 0.95007 1.13047
 C280 C 0.56585 0.94207 1.08582
 C281 C 0.58651 0.91351 1.06397
 H282 H 0.70687 0.86123 1.17555
 H283 H 0.68097 0.81674 1.02628
 H284 H 0.73499 0.79511 1.05681
 H285 H 0.62970 0.85954 1.02920
 H286 H 0.65134 0.89729 1.18275
 H287 H 0.59866 0.93918 1.18619
 H288 H 0.55351 0.97207 1.14771
 H289 H 0.58352 0.90706 1.02954
 C290 C 0.71403 1.16373 0.86845
 C291 C 0.68047 1.15300 0.88497
 C292 C 0.66881 1.16049 0.92965
 C293 C 0.69013 1.18031 0.95648
 C294 C 0.72378 1.19043 0.94006
 C295 C 0.73666 1.18128 0.89619
 C296 C 0.63693 1.14650 0.94730
 C297 C 0.61748 1.12385 0.92118
 C298 C 0.62815 1.11808 0.87587
 C299 C 0.65924 1.13323 0.85790
 C300 C 0.60865 1.09553 0.84974
 C301 C 0.58073 1.07645 0.86903
 C302 C 0.57190 1.07983 0.91454
 C303 C 0.58893 1.10500 0.94011
 H304 H 0.72298 1.15695 0.83440
 H305 H 0.68141 1.18673 0.99066
 H306 H 0.74004 1.20451 0.96239
 H307 H 0.62845 1.15143 0.98185
 H308 H 0.66797 1.12786 0.82348
 H309 H 0.61616 1.09116 0.81491
 H310 H 0.56750 1.05727 0.84877
 H311 H 0.58087 1.10875 0.97481
 C312 C 0.18898 0.33039 0.18434
 C313 C 0.16690 0.35846 0.17041
 C314 C 0.13778 0.37288 0.19874
 C315 C 0.13275 0.36085 0.24152
 C316 C 0.15439 0.33261 0.25486
 C317 C 0.18164 0.31597 0.22579
 C318 C 0.11296 0.39744 0.18311
 C319 C 0.11638 0.40707 0.13913
 C320 C 0.14670 0.39439 0.11162
 C321 C 0.17198 0.37055 0.12757
 C322 C 0.15029 0.40423 0.06783
 C323 C 0.12300 0.42421 0.05054
 C324 C 0.09154 0.43480 0.07669
 C325 C 0.08903 0.42742 0.12153
 H326 H 0.20997 0.31797 0.16167
 H327 H 0.11093 0.37195 0.26392
 H328 H 0.14851 0.32253 0.28732
 H329 H 0.08999 0.40745 0.20446
 H330 H 0.19449 0.35986 0.10591
 H331 H 0.17353 0.39517 0.04642
 H332 H 0.12591 0.42994 0.01599
 H333 H 0.06509 0.43577 0.14209
 C334 C -0.16231 0.26918 -0.06883
 C335 C -0.13782 0.29498 -0.05834
 C336 C -0.10199 0.28391 -0.05347
 C337 C -0.09169 0.24703 -0.05752
 C338 C -0.11573 0.22186 -0.07109
 C339 C -0.15070 0.23315 -0.07806
 C340 C -0.07647 0.30998 -0.04853
 C341 C -0.08595 0.34675 -0.05128
 C342 C -0.12189 0.35782 -0.05514
 C343 C -0.14782 0.33185 -0.05731
 C344 C -0.13109 0.39461 -0.05833
 C345 C -0.10480 0.42022 -0.05833
 C346 C -0.06898 0.40938 -0.05492
 C347 C -0.05978 0.37256 -0.05139
 H348 H -0.18923 0.27780 -0.07518
 H349 H -0.06439 0.23810 -0.05380
 H350 H -0.10656 0.19402 -0.07852
 H351 H -0.04889 0.30160 -0.04540
 H352 H -0.17528 0.34026 -0.06118
 H353 H -0.15853 0.40353 -0.06118
 H354 H -0.11256 0.44853 -0.06056
 H355 H -0.03227 0.36394 -0.04831
 C356 C 0.14124 0.71932 -0.17976
 C357 C 0.12981 0.68563 -0.16475
 C358 C 0.15037 0.66658 -0.13567
 C359 C 0.18204 0.68061 -0.12290
 C360 C 0.19304 0.71374 -0.13761
 C361 C 0.17278 0.73390 -0.16569
 C362 C 0.13861 0.63424 -0.11849
 C363 C 0.10599 0.62081 -0.12894
 C364 C 0.08565 0.63873 -0.15905
 C365 C 0.09787 0.67096 -0.17720
 C366 C 0.05273 0.62487 -0.16874
 C367 C 0.03904 0.59537 -0.14625
 C368 C 0.05822 0.57918 -0.11407
 C369 C 0.09244 0.59098 -0.10731
 H370 H 0.12542 0.73430 -0.20157
 H371 H 0.19810 0.66622 -0.10081
 H372 H 0.21757 0.72366 -0.12630
 H373 H 0.15420 0.62029 -0.09548
 H374 H 0.08199 0.68520 -0.19961
 H375 H 0.03676 0.63798 -0.19194
 H376 H 0.01244 0.58694 -0.15176
 H377 H 0.10751 0.57857 -0.08265
 C378 C -0.16753 0.72839 0.09217
 C379 C -0.14098 0.70093 0.08307
 C380 C -0.10487 0.71027 0.07607
 C381 C -0.09610 0.74674 0.07602
 C382 C -0.12246 0.77370 0.08700
 C383 C -0.15799 0.76457 0.09654
 C384 C -0.07789 0.68312 0.07164
 C385 C -0.08641 0.64679 0.07495
 C386 C -0.12243 0.63716 0.08056
 C387 C -0.14961 0.66435 0.08408
 C388 C -0.13050 0.60051 0.08325
 C389 C -0.10307 0.57373 0.08037
 C390 C -0.06726 0.58330 0.07492
 C391 C -0.05922 0.61993 0.07257
 H392 H -0.19497 0.72142 0.10013
 H393 H -0.06862 0.75428 0.07019
 H394 H -0.11488 0.80160 0.09034
 H395 H -0.05020 0.69033 0.06682
 H396 H -0.17726 0.65713 0.08926
 H397 H -0.15796 0.59258 0.08738
 H398 H -0.10985 0.54556 0.08166
 H399 H -0.03168 0.62761 0.06790
 C400 C 1.14946 0.16675 0.70104
 C401 C 1.13723 0.14150 0.67036
 C402 C 1.15646 0.10813 0.66053
 C403 C 1.18742 0.10045 0.68112
 C404 C 1.19827 0.12451 0.71300
 C405 C 1.17924 0.15771 0.72416
 C406 C 1.14365 0.08204 0.63191
 C407 C 1.11067 0.08779 0.61481
 C408 C 1.09118 0.12104 0.62460
 C409 C 1.10505 0.14807 0.65126
 C410 C 1.05733 0.12598 0.60930
 C411 C 1.04228 0.09771 0.58650
 C412 C 1.06127 0.06451 0.57726
 C413 C 1.09592 0.05998 0.59022
 H414 H 1.13434 0.19198 0.70912
 H415 H 1.20255 0.07511 0.67387
 H416 H 1.22190 0.11678 0.72902
 H417 H 1.15843 0.05643 0.62488
 H418 H 1.08991 0.17335 0.65900
 H419 H 1.04191 0.15116 0.61646
 H420 H 1.01544 0.10154 0.57654
 H421 H 1.11035 0.03416 0.58360
 C422 C 0.83386 -0.13276 0.77175
 C423 C 0.85618 -0.11802 0.73856
 C424 C 0.89051 -0.10701 0.74772
 C425 C 0.90254 -0.11228 0.78920
 C426 C 0.88118 -0.12915 0.82105
 C427 C 0.84653 -0.13947 0.81291
 C428 C 0.91258 -0.09155 0.71506
 C429 C 0.90144 -0.08845 0.67270
 C430 C 0.86797 -0.10132 0.66273
 C431 C 0.84521 -0.11532 0.69596
 C432 C 0.85775 -0.09964 0.61975
 C433 C 0.87997 -0.08429 0.58729
 C434 C 0.91251 -0.06981 0.59744
 C435 C 0.92313 -0.07227 0.64026
 H436 H 0.80759 -0.14120 0.76442
 H437 H 0.92888 -0.10424 0.79665
 H438 H 0.89178 -0.13371 0.85239
 H439 H 0.93862 -0.08242 0.72241
 H440 H 0.81924 -0.12455 0.68852
 H441 H 0.83233 -0.10964 0.61139
 H442 H 0.87089 -0.08228 0.55471
 H443 H 0.94777 -0.06057 0.64883
 C444 C 1.16139 -0.19978 0.26290
 C445 C 1.14122 -0.17215 0.28814
 C446 C 1.15329 -0.13633 0.28851
 C447 C 1.18555 -0.12877 0.26578
 C448 C 1.20603 -0.15625 0.24271
 C449 C 1.19427 -0.19208 0.24010
 C450 C 1.13341 -0.10842 0.31229
 C451 C 1.10237 -0.11584 0.33789
 C452 C 1.09064 -0.15169 0.33954
 C453 C 1.10968 -0.17959 0.31373
 C454 C 1.06064 -0.15887 0.36792
 C455 C 1.04317 -0.13093 0.39485
 C456 C 1.05455 -0.09531 0.39220
 C457 C 1.08374 -0.08790 0.36322
 H458 H 1.15196 -0.22712 0.26197
 H459 H 1.19524 -0.10152 0.26619
 H460 H 1.23088 -0.14874 0.22575
 H461 H 1.14270 -0.08098 0.31190
 H462 H 1.10055 -0.20705 0.31447
 H463 H 1.05128 -0.18615 0.37007
 H464 H 1.02072 -0.13698 0.41744
 H465 H 1.09299 -0.06047 0.36198
 C466 C 0.85425 0.14682 0.23914
 C467 C 0.86233 0.12729 0.27577
 C468 C 0.84119 0.09819 0.28880
 C469 C 0.81139 0.09014 0.26597
 C470 C 0.80307 0.11013 0.22997
 C471 C 0.82476 0.13831 0.21543
 C472 C 0.85054 0.07731 0.32390
 C473 C 0.88080 0.08526 0.34611
 C474 C 0.90100 0.11537 0.33408
 C475 C 0.89162 0.13617 0.29911
 C476 C 0.93104 0.12354 0.35629
 C477 C 0.94222 0.10101 0.38847
 C478 C 0.92352 0.06993 0.39928
 C479 C 0.89207 0.06285 0.37894
 H480 H 0.87112 0.16871 0.22926
 H481 H 0.79466 0.06812 0.27570
 H482 H 0.78004 0.10282 0.21295
 H483 H 0.83477 0.05447 0.33328
 H484 H 0.90763 0.15878 0.28943
 H485 H 0.94661 0.14668 0.34773
 H486 H 0.96643 0.10716 0.40371
 H487 H 0.87748 0.03891 0.38691
 C488 C 0.15277 0.28942 -0.20936
 C489 C 0.14108 0.32490 -0.19449
 C490 C 0.16083 0.34418 -0.16436
 C491 C 0.19205 0.32853 -0.15046
 C492 C 0.20246 0.29308 -0.16354
 C493 C 0.18262 0.27251 -0.19214
 C494 C 0.14807 0.37793 -0.14618
 C495 C 0.11465 0.39192 -0.15544
 C496 C 0.09506 0.37367 -0.18649
 C497 C 0.10886 0.34061 -0.20677
 C498 C 0.06099 0.38762 -0.19426
 C499 C 0.04527 0.41709 -0.16841
 C500 C 0.06369 0.43336 -0.13503
 C501 C 0.09923 0.42209 -0.13088
 H502 H 0.13710 0.27424 -0.23142
 H503 H 0.20758 0.34312 -0.12769
 H504 H 0.22617 0.28169 -0.15053
 H505 H 0.16298 0.39202 -0.12225
 H506 H 0.09345 0.32605 -0.22972
 H507 H 0.04558 0.37428 -0.21817
 H508 H 0.01779 0.42524 -0.17223
 H509 H 0.11374 0.43459 -0.10538
 C510 C -0.14975 0.25678 0.08918
 C511 C -0.12421 0.28320 0.08012
 C512 C -0.08793 0.27552 0.08661
 C513 C -0.07800 0.24262 0.10405
 C514 C -0.10381 0.21817 0.11678
 C515 C -0.13997 0.22461 0.10940
 C516 C -0.06228 0.30146 0.07767
 C517 C -0.07268 0.33633 0.06605
 C518 C -0.10922 0.34496 0.06229
 C519 C -0.13453 0.31796 0.06745
 C520 C -0.11988 0.38073 0.05457
 C521 C -0.09465 0.40754 0.05039
 C522 C -0.05807 0.39887 0.05183
 C523 C -0.04725 0.36306 0.05957
 H524 H -0.17753 0.26268 0.08417
 H525 H -0.05041 0.23644 0.10970
 H526 H -0.09517 0.19364 0.13179
 H527 H -0.03442 0.29507 0.08188
 H528 H -0.16242 0.32449 0.06366
 H529 H -0.14776 0.38805 0.05203
 H530 H -0.10363 0.43492 0.04436
 H531 H -0.01918 0.35623 0.06151
 C532 C -0.16718 0.74383 -0.06104
 C533 C -0.14287 0.71706 -0.04847
 C534 C -0.10713 0.72588 -0.04315
 C535 C -0.09667 0.76139 -0.04845
 C536 C -0.12009 0.78699 -0.06389
 C537 C -0.15509 0.77814 -0.07237
 C538 C -0.08171 0.69867 -0.03583
 C539 C -0.09102 0.66238 -0.03601
 C540 C -0.12685 0.65343 -0.04011
 C541 C -0.15278 0.68095 -0.04512
 C542 C -0.13576 0.61693 -0.04113
 C543 C -0.10924 0.58960 -0.03970
 C544 C -0.07348 0.59831 -0.03638
 C545 C -0.06469 0.63484 -0.03375
 H546 H -0.19403 0.73647 -0.06718
 H547 H -0.06956 0.76873 -0.04376
 H548 H -0.11022 0.81350 -0.07084
 H549 H -0.05424 0.70551 -0.03249
 H550 H -0.18010 0.67399 -0.04927
 H551 H -0.16307 0.60948 -0.04408
 H552 H -0.11672 0.56159 -0.04107
 H553 H -0.03719 0.64183 -0.03104
 C554 C 0.17932 0.67583 0.17517
 C555 C 0.16436 0.64567 0.15496
 C556 C 0.17852 0.63264 0.11273
 C557 C 0.20825 0.64863 0.09237
 C558 C 0.22316 0.67814 0.11275
 C559 C 0.20851 0.69262 0.15383
 C560 C 0.16212 0.60461 0.09078
 C561 C 0.13146 0.58951 0.11021
 C562 C 0.11828 0.60099 0.15333
 C563 C 0.13490 0.62894 0.17557
 C564 C 0.08770 0.58542 0.17261
 C565 C 0.06884 0.56089 0.14819
 C566 C 0.08028 0.55153 0.10414
 C567 C 0.11260 0.56465 0.08611
 H568 H 0.16802 0.68648 0.20703
 H569 H 0.21956 0.63881 0.06016
 H570 H 0.24558 0.69039 0.09544
 H571 H 0.17246 0.59550 0.05787
 H572 H 0.12419 0.63848 0.20815
 H573 H 0.07738 0.59354 0.20579
 H574 H 0.04402 0.55119 0.16289
 H575 H 0.12181 0.55741 0.05226
 C576 C 0.27513 1.17540 0.86503
 C577 C 0.29647 1.15311 0.88932
 C578 C 0.28314 1.12023 0.90485
 C579 C 0.24858 1.11058 0.89677
 C580 C 0.22826 1.13204 0.87099
 C581 C 0.24165 1.16407 0.85435
 C582 C 0.30529 1.09633 0.92565
 C583 C 0.34122 1.10372 0.92866
 C584 C 0.35450 1.13682 0.91402
 C585 C 0.33173 1.16182 0.89558
 C586 C 0.39084 1.14335 0.91561
 C587 C 0.41419 1.11629 0.92852
 C588 C 0.40138 1.08266 0.94100
 C589 C 0.36460 1.07726 0.94303
 H590 H 0.28550 1.20001 0.85172
 H591 H 0.23797 1.08555 0.90844
 H592 H 0.20229 1.12321 0.86309
 H593 H 0.29520 1.07084 0.93670
 H594 H 0.34207 1.18687 0.88350
 H595 H 0.40148 1.16863 0.90483
 H596 H 0.44243 1.12125 0.92736
 H597 H 0.35443 1.05147 0.95281
 C598 C 0.32000 0.80896 1.17284
 C599 C 0.34766 0.82738 1.15129
 C600 C 0.35978 0.81686 1.10751
 C601 C 0.34543 0.78664 1.08710
 C602 C 0.31744 0.76870 1.10870
 C603 C 0.30357 0.78067 1.15104
 C604 C 0.38453 0.83788 1.08421
 C605 C 0.39641 0.86976 1.10385
 C606 C 0.38556 0.87920 1.14832
 C607 C 0.36168 0.85760 1.17196
 C608 C 0.39725 0.91116 1.16773
 C609 C 0.41753 0.93486 1.14257
 C610 C 0.42669 0.92680 1.09771
 C611 C 0.41725 0.89345 1.07900
 H612 H 0.30981 0.81809 1.20578
 H613 H 0.35464 0.77798 1.05370
 H614 H 0.30531 0.74690 1.09129
 H615 H 0.39303 0.83052 1.05017
 H616 H 0.35249 0.86547 1.20567
 H617 H 0.38939 0.91862 1.20188
 H618 H 0.42466 0.96025 1.15776
 H619 H 0.42435 0.88685 1.04445
 C620 C 0.71623 1.15498 1.12010
 C621 C 0.68879 1.13784 1.09958
 C622 C 0.69513 1.12404 1.05573
 C623 C 0.72790 1.12997 1.03225
 C624 C 0.75470 1.14798 1.05258
 C625 C 0.74953 1.15952 1.09701
 C626 C 0.66900 1.10386 1.03650
 C627 C 0.63613 1.09828 1.06009
 C628 C 0.62902 1.11405 1.10292
 C629 C 0.65552 1.13331 1.12260
 C630 C 0.59567 1.10979 1.12569
 C631 C 0.56970 1.08972 1.10656
 C632 C 0.57668 1.07284 1.06455
 C633 C 0.61032 1.07700 1.04172
 H634 H 0.71214 1.16379 1.15446
 H635 H 0.73311 1.11994 0.99847
 H636 H 0.78028 1.15083 1.03438
 H637 H 0.67429 1.09240 1.00329
 H638 H 0.65037 1.14445 1.15597
 H639 H 0.58969 1.12184 1.15847
 H640 H 0.54435 1.08671 1.12520
 H641 H 0.61654 1.06362 1.00970
 C642 C 0.71400 0.84242 0.84536
 C643 C 0.67779 0.85293 0.85436
 C644 C 0.65887 0.84120 0.89270
 C645 C 0.67574 0.81725 0.91965
 C646 C 0.71196 0.80756 0.91098
 C647 C 0.73187 0.82128 0.87485
 C648 C 0.62436 0.85557 0.90515
 C649 C 0.60926 0.88277 0.88086
 C650 C 0.62723 0.89300 0.84114
 C651 C 0.66109 0.87730 0.82756
 C652 C 0.61250 0.92117 0.81789
 C653 C 0.58264 0.94175 0.83643
 C654 C 0.56657 0.93358 0.87760
 C655 C 0.57850 0.90262 0.89817
 H656 H 0.72880 0.85291 0.81705
 H657 H 0.66145 0.80764 0.94883
 H658 H 0.72477 0.79098 0.93405
 H659 H 0.61048 0.84771 0.93559
 H660 H 0.67554 0.88620 0.79804
 H661 H 0.62585 0.92930 0.78733
 H662 H 0.57432 0.96605 0.82073
 H663 H 0.56661 0.89690 0.93056
   
