data_POSCAR
  _audit_creation_date              2014-09-24
  _audit_creation_method            'ToBaCCo'
  _symmetry_space_group_name_H-M    'P1'
  _symmetry_Int_Tables_number       1
  _symmetry_cell_setting            triclinic
  loop_
  _symmetry_equiv_pos_as_xyz
 x,y,z
_cell_length_a 38.6987
_cell_length_b 39.7151
_cell_length_c 39.2692
_cell_angle_alpha 90.363800
_cell_angle_beta 89.572800
_cell_angle_gamma 90.764700
loop_
  _atom_site_label
  _atom_site_type_symbol
  _atom_site_fract_x
  _atom_site_fract_y
  _atom_site_fract_z
C1 C 0.18248 0.21125 0.20517
 C2 C 0.18021 0.23248 0.17692
 C3 C 0.20264 0.22862 0.14953
 C4 C 0.22795 0.20368 0.15032
 C5 C 0.23009 0.18292 0.17823
 C6 C 0.20754 0.18696 0.20593
 C7 C 0.16268 0.20756 0.23422
 N8 N 0.17539 0.18171 0.25289
 C9 C 0.20313 0.16927 0.23558
 C10 C 0.25519 0.15979 0.17142
 N11 N 0.26889 0.16590 0.13995
 C12 C 0.25240 0.19312 0.12706
 C13 C 0.19356 0.25173 0.12532
 N14 N 0.16659 0.26972 0.13765
 C15 C 0.15824 0.25813 0.16913
 H16 H 0.14068 0.22279 0.24099
 H17 H 0.21795 0.14754 0.24266
 H18 H 0.26296 0.14026 0.18870
 H19 H 0.25641 0.20363 0.10198
 H20 H 0.20583 0.25548 0.10074
 H21 H 0.13741 0.26747 0.18499
 C22 C -0.19545 0.77816 0.26098
 C23 C -0.19990 0.74847 0.24181
 C24 C -0.23000 0.74315 0.22362
 C25 C -0.25610 0.76737 0.22443
 C26 C -0.25171 0.79634 0.24350
 C27 C -0.22108 0.80195 0.26154
 C28 C -0.16782 0.79159 0.27861
 N29 N -0.17585 0.82328 0.28954
 C30 C -0.20859 0.82956 0.27896
 C31 C -0.27916 0.81676 0.23701
 N32 N -0.30029 0.80135 0.21385
 C33 C -0.28613 0.77086 0.20624
 C34 C -0.22561 0.71446 0.20436
 N35 N -0.19354 0.70220 0.21019
 C36 C -0.17776 0.72287 0.23325
 H37 H -0.14311 0.77956 0.28145
 H38 H -0.22282 0.85241 0.28355
 H39 H -0.28160 0.84217 0.24667
 H40 H -0.29604 0.75259 0.18816
 H41 H -0.24407 0.70409 0.18644
 H42 H -0.15124 0.72087 0.24147
 C43 C -0.20507 0.22227 -0.24743
 C44 C -0.20584 0.24986 -0.22477
 C45 C -0.22647 0.24832 -0.19590
 C46 C -0.24603 0.21922 -0.18882
 C47 C -0.24482 0.19209 -0.21077
 C48 C -0.22463 0.19380 -0.24048
 C49 C -0.18604 0.21543 -0.27642
 N50 N -0.19363 0.18345 -0.28747
 C51 C -0.21739 0.17033 -0.26519
 C52 C -0.26315 0.16618 -0.19584
 N53 N -0.27568 0.17677 -0.16507
 C54 C -0.26534 0.20952 -0.16092
 C55 C -0.22009 0.27692 -0.17712
 N56 N -0.19561 0.29592 -0.19336
 C57 C -0.18693 0.27951 -0.22275
 H58 H -0.16782 0.23280 -0.28802
 H59 H -0.22789 0.14500 -0.26546
 H60 H -0.26667 0.14141 -0.20695
 H61 H -0.26951 0.22488 -0.13848
 H62 H -0.23183 0.28267 -0.15274
 H63 H -0.16688 0.28739 -0.24043
 C64 C 0.19576 0.79479 -0.23909
 C65 C 0.19352 0.77080 -0.21306
 C66 C 0.22208 0.76431 -0.19322
 C67 C 0.25322 0.78202 -0.19902
 C68 C 0.25537 0.80536 -0.22479
 C69 C 0.22656 0.81163 -0.24505
 C70 C 0.17158 0.80837 -0.26040
 N71 N 0.18698 0.83307 -0.27947
 C72 C 0.22079 0.83493 -0.26997
 C73 C 0.28689 0.82139 -0.22224
 N74 N 0.30428 0.80893 -0.19504
 C75 C 0.28362 0.78433 -0.18111
 C76 C 0.21171 0.74164 -0.16863
 N77 N 0.17761 0.73431 -0.17305
 C78 C 0.16633 0.75213 -0.20015
 H79 H 0.14475 0.80055 -0.26155
 H80 H 0.23982 0.85306 -0.27888
 H81 H 0.29498 0.84220 -0.23809
 H82 H 0.28880 0.77020 -0.15835
 H83 H 0.22752 0.73207 -0.14832
 H84 H 0.14015 0.75178 -0.20966
 C85 C 0.22269 1.19020 0.78800
 C86 C 0.24264 1.18547 0.81723
 C87 C 0.24042 1.20787 0.84440
 C88 C 0.21762 1.23515 0.84274
 C89 C 0.19778 1.23926 0.81402
 C90 C 0.20044 1.21684 0.78653
 C91 C 0.21770 1.17121 0.75893
 N92 N 0.19255 1.18553 0.73975
 C93 C 0.18209 1.21366 0.75686
 C94 C 0.17543 1.26499 0.82038
 N95 N 0.18067 1.27706 0.85251
 C96 C 0.20699 1.25906 0.86617
 C97 C 0.26094 1.19552 0.86995
 N98 N 0.27505 1.16617 0.85898
 C99 C 0.26398 1.15991 0.82681
 H100 H 0.23040 1.14768 0.75353
 H101 H 0.16230 1.23081 0.74896
 H102 H 0.15649 1.27375 0.80251
 H103 H 0.21622 1.26130 0.89203
 H104 H 0.26423 1.20630 0.89513
 H105 H 0.27054 1.13799 0.81168
 C106 C 0.78837 0.80221 0.73649
 C107 C 0.75934 0.79914 0.75798
 C108 C 0.75522 0.77097 0.77824
 C109 C 0.77985 0.74535 0.77702
 C110 C 0.80835 0.74849 0.75598
 C111 C 0.81288 0.77729 0.73590
 C112 C 0.80037 0.82766 0.71572
 N113 N 0.83195 0.81912 0.70285
 C114 C 0.83965 0.78819 0.71537
 C115 C 0.82903 0.72133 0.76178
 N116 N 0.81410 0.70143 0.78618
 C117 C 0.78377 0.71632 0.79545
 C118 C 0.72696 0.77632 0.79898
 N119 N 0.71381 0.80707 0.79191
 C120 C 0.73341 0.82107 0.76668
 H121 H 0.78757 0.85138 0.71188
 H122 H 0.86279 0.77414 0.70981
 H123 H 0.85399 0.71775 0.74990
 H124 H 0.76573 0.70752 0.81464
 H125 H 0.71744 0.75947 0.81857
 H126 H 0.73040 0.84625 0.75685
 C127 C 0.21500 0.80703 1.24751
 C128 C 0.24431 0.80358 1.22638
 C129 C 0.24340 0.78124 1.19920
 C130 C 0.21329 0.76248 1.19237
 C131 C 0.18450 0.76624 1.21295
 C132 C 0.18552 0.78836 1.24080
 C133 C 0.20733 0.82794 1.27461
 N134 N 0.17380 0.82240 1.28471
 C135 C 0.16059 0.79803 1.26369
 C136 C 0.15806 0.74773 1.19862
 N137 N 0.17010 0.73277 1.16980
 C138 C 0.20395 0.74148 1.16583
 C139 C 0.27387 0.78503 1.18145
 N140 N 0.29340 0.80947 1.19670
 C141 C 0.27547 0.82078 1.22441
 H142 H 0.22521 0.84607 1.28546
 H143 H 0.13441 0.78828 1.26377
 H144 H 0.13176 0.74589 1.20809
 H145 H 0.22008 0.73435 1.14440
 H146 H 0.28059 0.77153 1.15840
 H147 H 0.28342 0.84141 1.24082
 C148 C 0.78807 1.19803 1.25202
 C149 C 0.76380 1.19348 1.22590
 C150 C 0.76062 1.21772 1.20109
 C151 C 0.78188 1.24653 1.20174
 C152 C 0.80630 1.25074 1.22696
 C153 C 0.80942 1.22620 1.25237
 C154 C 0.79772 1.17800 1.27864
 N155 N 0.82472 1.19298 1.29534
 C156 C 0.83202 1.22253 1.27903
 C157 C 0.82515 1.27945 1.21917
 N158 N 0.81273 1.29268 1.18982
 C159 C 0.78608 1.27261 1.17928
 C160 C 0.73756 1.20552 1.17737
 N161 N 0.72685 1.17425 1.18693
 C162 C 0.74268 1.16676 1.21672
 H163 H 0.78662 1.15348 1.28410
 H164 H 0.85201 1.24053 1.28592
 H165 H 0.84732 1.28894 1.23303
 H166 H 0.77104 1.27611 1.15651
 H167 H 0.73078 1.21766 1.15378
 H168 H 0.74004 1.14312 1.23012
 O169 O 0.54929 0.96721 0.93752
 O170 O 0.48375 0.96279 1.07963
 O171 O 0.55634 0.92994 1.03706
 O172 O 0.46151 0.92825 0.97598
 O173 O 0.54577 0.96473 1.07750
 O174 O 0.48519 0.96046 0.93678
 O175 O 0.47189 0.92687 1.03993
 O176 O 0.56175 0.93131 0.97561
 C177 C 0.56037 0.93881 0.94511
 C178 C 0.47357 0.93374 1.07083
 C179 C 0.55407 0.93572 1.06805
 C180 C 0.46813 0.93435 0.94535
 O181 O 0.47797 1.02372 0.95626
 O182 O 0.54391 1.02735 1.04872
 O183 O 0.58532 0.99593 0.97902
 O184 O 0.44367 0.98803 1.04382
 O185 O 0.48190 1.02601 1.05230
 O186 O 0.54416 1.02887 0.96286
 O187 O 0.44029 0.99045 0.98156
 O188 O 0.58436 0.99258 1.04088
 Co189 Co 0.51434 0.99355 0.95424
 Co190 Co 0.51395 0.99375 1.05998
 Co191 Co 0.56705 0.96382 1.00824
 Co192 Co 0.46002 0.95997 1.01051
 O193 O 0.51368 0.97758 1.00801
 C194 C 0.44749 1.01670 0.96476
 C195 C 0.57518 1.02147 1.04939
 C196 C 0.57543 1.02410 0.96821
 C197 C 0.45098 1.01816 1.04977
 O198 O 0.03258 0.47831 0.03805
 O199 O 0.03496 0.53847 -0.05215
 O200 O -0.00323 0.43926 -0.03889
 O201 O -0.00023 0.57953 0.01973
 O202 O 0.03463 0.47776 -0.04692
 O203 O 0.02963 0.54182 0.04708
 O204 O -0.00252 0.57637 -0.04300
 O205 O -0.00274 0.43861 0.02213
 C206 C 0.02657 0.44784 0.03294
 C207 C 0.02774 0.56874 -0.05077
 C208 C 0.02744 0.44731 -0.04520
 C209 C 0.02468 0.57172 0.03862
 O210 O -0.03580 0.53555 0.06398
 O211 O -0.02884 0.47505 -0.07742
 O212 O -0.06780 0.46499 0.02285
 O213 O -0.06645 0.55133 -0.04027
 O214 O -0.02978 0.53573 -0.07907
 O215 O -0.03163 0.47326 0.06248
 O216 O -0.06534 0.56135 0.02464
 O217 O -0.06639 0.46850 -0.03812
 Co218 Co -0.00259 0.50700 0.04702
 Co219 Co 0.00109 0.50675 -0.05914
 Co220 Co -0.03353 0.45733 -0.00799
 Co221 Co -0.03219 0.56132 -0.00980
 O222 O -0.01650 0.50838 -0.00714
 C223 C -0.06065 0.55390 0.05521
 C224 C -0.05908 0.46715 -0.06881
 C225 C -0.06117 0.46401 0.05350
 C226 C -0.05923 0.54671 -0.07091
 O227 O 1.07193 0.05815 0.47168
 O228 O 0.94007 0.02588 0.53670
 O229 O 0.99079 0.06095 0.45220
 O230 O 1.03661 0.06945 0.55764
 O231 O 0.94476 0.04234 0.47603
 O232 O 1.08238 0.05098 0.53353
 O233 O 0.97757 0.06212 0.54933
 O234 O 1.04377 0.03483 0.43072
 C235 C 1.06465 0.05691 0.44085
 C236 C 0.94700 0.05392 0.54900
 C237 C 0.95979 0.06482 0.45899
 C238 C 1.06826 0.07095 0.55358
 O239 O 1.07977 -0.01288 0.52902
 O240 O 0.96406 -0.02175 0.46172
 O241 O 1.02386 -0.02461 0.45098
 O242 O 0.98238 -0.00536 0.56815
 O243 O 0.96785 -0.03257 0.52224
 O244 O 1.07515 -0.00898 0.46489
 O245 O 1.04559 0.00348 0.57143
 O246 O 0.98117 0.00694 0.41713
 Co247 Co 1.07128 0.02167 0.49964
 Co248 Co 0.95993 0.00550 0.49945
 Co249 Co 1.00657 0.01835 0.45419
 Co250 Co 1.01036 0.03127 0.55696
 O251 O 1.01482 0.02067 0.50456
 C252 C 1.07000 -0.01461 0.55975
 C253 C 0.96007 -0.01578 0.43018
 C254 C 1.05544 -0.02982 0.45061
 C255 C 0.97077 -0.03173 0.55382
 C256 C 1.13168 0.13863 0.33997
 C257 C 1.16657 0.13326 0.33241
 C258 C 1.18137 0.14807 0.30365
 C259 C 1.16172 0.16888 0.28247
 C260 C 1.12710 0.17474 0.29208
 N261 N 1.11302 0.15907 0.31966
 C262 C 1.11415 0.12012 0.36764
 N263 N 1.08193 0.10715 0.36218
 C264 C 1.06536 0.08753 0.38552
 C265 C 1.08130 0.08013 0.41649
 C266 C 1.11394 0.09429 0.42321
 C267 C 1.13059 0.11410 0.39870
 H268 H 1.20832 0.14330 0.29837
 H269 H 1.11049 0.19007 0.27677
 H270 H 1.03993 0.07747 0.37971
 H271 H 1.12697 0.08922 0.44691
 H272 H 1.18195 0.11670 0.34780
 H273 H 1.15607 0.12441 0.40387
 C274 C 0.88614 -0.11022 0.34588
 C275 C 0.89478 -0.14432 0.34398
 C276 C 0.87458 -0.16647 0.32461
 C277 C 0.84518 -0.15495 0.30743
 C278 C 0.83804 -0.12019 0.30963
 N279 N 0.85846 -0.09911 0.32832
 C280 C 0.90579 -0.08639 0.36748
 N281 N 0.91211 -0.05436 0.35656
 C282 C 0.92960 -0.03130 0.37590
 C283 C 0.94092 -0.03990 0.40850
 C284 C 0.93412 -0.07258 0.42036
 C285 C 0.91687 -0.09593 0.39986
 H286 H 0.88147 -0.19274 0.32436
 H287 H 0.81671 -0.10938 0.29615
 H288 H 0.93426 -0.00625 0.36603
 H289 H 0.94248 -0.08025 0.44537
 H290 H 0.91695 -0.15381 0.35739
 H291 H 0.91159 -0.12096 0.40954
 C292 C 0.85444 0.13093 0.63263
 C293 C 0.82553 0.11669 0.64905
 C294 C 0.80898 0.13452 0.67502
 C295 C 0.82102 0.16673 0.68530
 C296 C 0.84938 0.18046 0.66707
 N297 N 0.86523 0.16234 0.64210
 C298 C 0.87568 0.11189 0.60766
 N299 N 0.90861 0.12287 0.60167
 C300 C 0.93108 0.10563 0.58166
 C301 C 0.92106 0.07489 0.56662
 C302 C 0.88683 0.06372 0.57105
 C303 C 0.86399 0.08219 0.59139
 H304 H 0.78688 0.12248 0.68689
 H305 H 0.86011 0.20495 0.67314
 H306 H 0.95715 0.11542 0.57856
 H307 H 0.87800 0.04030 0.55957
 H308 H 0.81625 0.09159 0.64305
 H309 H 0.83779 0.07290 0.59448
 C310 C 1.13910 -0.10479 0.64990
 C311 C 1.17522 -0.10609 0.65088
 C312 C 1.19116 -0.12687 0.67429
 C313 C 1.17138 -0.14679 0.69700
 C314 C 1.13504 -0.14472 0.69486
 N315 N 1.12017 -0.12386 0.67202
 C316 C 1.12133 -0.08247 0.62589
 N317 N 1.09101 -0.06798 0.63539
 C318 C 1.07402 -0.04641 0.61477
 C319 C 1.08743 -0.03856 0.58240
 C320 C 1.11822 -0.05389 0.57190
 C321 C 1.13521 -0.07575 0.59351
 H322 H 1.21905 -0.12753 0.67383
 H323 H 1.11823 -0.15870 0.71183
 H324 H 1.05015 -0.03542 0.62371
 H325 H 1.12941 -0.04877 0.54708
 H326 H 1.19116 -0.09076 0.63416
 H327 H 1.15878 -0.08747 0.58475
 C328 C 0.34529 1.10842 1.09287
 C329 C 0.33896 1.14085 1.08078
 C330 C 0.31303 1.16004 1.09610
 C331 C 0.29391 1.14729 1.12402
 C332 C 0.30134 1.11446 1.13502
 N333 N 0.32612 1.09619 1.11922
 C334 C 0.37203 1.08671 1.07803
 N335 N 0.36619 1.05288 1.07757
 C336 C 0.39058 1.03079 1.06724
 C337 C 0.42362 1.04241 1.05781
 C338 C 0.43018 1.07723 1.05757
 C339 C 0.40428 1.09955 1.06740
 H340 H 0.30891 1.18515 1.08661
 H341 H 0.28694 1.10261 1.15542
 H342 H 0.38450 1.00411 1.06769
 H343 H 0.45538 1.08709 1.05028
 H344 H 0.35356 1.15110 1.05953
 H345 H 0.40991 1.12632 1.06813
 C346 C 0.39114 0.85327 0.85082
 C347 C 0.38021 0.86494 0.81910
 C348 C 0.35238 0.84910 0.80289
 C349 C 0.33470 0.82164 0.81815
 C350 C 0.34850 0.80927 0.84872
 N351 N 0.37532 0.82548 0.86413
 C352 C 0.41613 0.87212 0.87250
 N353 N 0.41777 0.86356 0.90593
 C354 C 0.43614 0.88176 0.92902
 C355 C 0.45376 0.91128 0.91916
 C356 C 0.45428 0.91966 0.88452
 C357 C 0.43564 0.90010 0.86106
 H358 H 0.34445 0.85951 0.77894
 H359 H 0.33749 0.78766 0.86148
 H360 H 0.43554 0.87392 0.95537
 H361 H 0.46790 0.94201 0.87576
 H362 H 0.39163 0.88695 0.80729
 H363 H 0.43600 0.90761 0.83468
 C364 C 0.62008 0.84921 1.16252
 C365 C 0.63180 0.86239 1.19362
 C366 C 0.65728 0.84567 1.21149
 C367 C 0.67165 0.81566 1.19863
 C368 C 0.65735 0.80224 1.16841
 N369 N 0.63299 0.81945 1.15115
 C370 C 0.59775 0.86876 1.13965
 N371 N 0.59950 0.86241 1.10557
 C372 C 0.58370 0.88206 1.08234
 C373 C 0.56562 0.91069 1.09299
 C374 C 0.56162 0.91656 1.12803
 C375 C 0.57738 0.89553 1.15145
 H376 H 0.66582 0.85683 1.23517
 H377 H 0.66674 0.77926 1.15708
 H378 H 0.58694 0.87631 1.05553
 H379 H 0.54722 0.93800 1.13730
 H380 H 0.62292 0.88625 1.20349
 H381 H 0.57422 0.90086 1.17832
 C382 C 0.66700 1.11794 0.90351
 C383 C 0.66845 1.15294 0.90802
 C384 C 0.68792 1.17263 0.88544
 C385 C 0.70583 1.15768 0.85792
 C386 C 0.70403 1.12226 0.85499
 N387 N 0.68512 1.10374 0.87751
 C388 C 0.64513 1.09596 0.92513
 N389 N 0.65465 1.06345 0.92991
 C390 C 0.63387 1.04067 0.94608
 C391 C 0.60075 1.04988 0.95710
 C392 C 0.59081 1.08348 0.95336
 C393 C 0.61300 1.10666 0.93764
 H394 H 0.68781 1.19960 0.88918
 H395 H 0.71796 1.10891 0.83533
 H396 H 0.64241 1.01495 0.94837
 H397 H 0.56539 1.09150 0.96149
 H398 H 0.65470 1.16505 0.92874
 H399 H 0.60420 1.13206 0.93357
 C400 C 0.11545 0.34846 0.08804
 C401 C 0.12398 0.35191 0.12257
 C402 C 0.14093 0.32594 0.13886
 C403 C 0.14988 0.29685 0.12072
 C404 C 0.14139 0.29449 0.08611
 N405 N 0.12410 0.31985 0.07088
 C406 C 0.09551 0.37461 0.07087
 N407 N 0.06919 0.36543 0.04979
 C408 C 0.04770 0.38845 0.03607
 C409 C 0.05210 0.42283 0.04365
 C410 C 0.08018 0.43283 0.06391
 C411 C 0.10181 0.40882 0.07764
 H412 H 0.14717 0.32851 0.16559
 H413 H 0.14767 0.27215 0.07154
 H414 H 0.02664 0.37980 0.02012
 H415 H 0.08471 0.45910 0.07020
 H416 H 0.11674 0.37402 0.13708
 H417 H 0.12290 0.41687 0.09387
 C418 C -0.14419 0.38164 -0.15125
 C419 C -0.14233 0.37581 -0.18655
 C420 C -0.15981 0.34800 -0.20064
 C421 C -0.17912 0.32598 -0.17974
 C422 C -0.18099 0.33348 -0.14473
 N423 N -0.16373 0.36051 -0.13172
 C424 C -0.12442 0.40874 -0.13372
 N425 N -0.13451 0.41768 -0.10167
 C426 C -0.11542 0.43860 -0.08160
 C427 C -0.08329 0.45095 -0.09304
 C428 C -0.07303 0.44350 -0.12658
 C429 C -0.09351 0.42243 -0.14704
 H430 H -0.15812 0.34380 -0.22784
 H431 H -0.19509 0.31744 -0.12728
 H432 H -0.12449 0.44391 -0.05600
 H433 H -0.04835 0.45245 -0.13637
 H434 H -0.12768 0.39237 -0.20316
 H435 H -0.08404 0.41545 -0.17204
 C436 C 0.11587 0.66879 -0.11250
 C437 C 0.10113 0.69749 -0.12689
 C438 C 0.12152 0.71914 -0.14658
 C439 C 0.15662 0.71247 -0.15202
 C440 C 0.17050 0.68369 -0.13700
 N441 N 0.14999 0.66267 -0.11819
 C442 C 0.09462 0.64406 -0.09320
 N443 N 0.10344 0.61096 -0.09392
 C444 C 0.08350 0.58657 -0.07910
 C445 C 0.05234 0.59497 -0.06278
 C446 C 0.04369 0.62909 -0.06031
 C447 C 0.06474 0.65365 -0.07532
 H448 H 0.10984 0.74116 -0.15752
 H449 H 0.19737 0.67747 -0.14091
 H450 H 0.09132 0.56057 -0.08124
 H451 H 0.02020 0.63676 -0.04742
 H452 H 0.07392 0.70278 -0.12389
 H453 H 0.05741 0.67978 -0.07317
 C454 C -0.14256 0.62622 0.15315
 C455 C -0.13181 0.63351 0.18656
 C456 C -0.14927 0.65777 0.20576
 C457 C -0.17735 0.67490 0.19191
 C458 C -0.18789 0.66608 0.15886
 N459 N -0.17031 0.64267 0.14059
 C460 C -0.12307 0.60387 0.12966
 N461 N -0.12964 0.60607 0.09576
 C462 C -0.11132 0.58898 0.07183
 C463 C -0.08390 0.56839 0.08143
 C464 C -0.07754 0.56442 0.11631
 C465 C -0.09711 0.58197 0.14052
 H466 H -0.14045 0.66347 0.23126
 H467 H -0.20909 0.67872 0.14685
 H468 H -0.11748 0.59253 0.04527
 H469 H -0.05684 0.54853 0.12486
 H470 H -0.10954 0.62178 0.19758
 H471 H -0.09142 0.57860 0.16716
 C472 C 1.14823 0.14538 0.65110
 C473 C 1.17930 0.13227 0.66310
 C474 C 1.19445 0.14598 0.69229
 C475 C 1.17892 0.17297 0.70993
 C476 C 1.14819 0.18587 0.69616
 N477 N 1.13375 0.17165 0.66802
 C478 C 1.12905 0.12948 0.62261
 N479 N 1.09399 0.13195 0.62217
 C480 C 1.07415 0.11537 0.59890
 C481 C 1.08952 0.09429 0.57446
 C482 C 1.12575 0.09286 0.57325
 C483 C 1.14558 0.11044 0.59718
 H484 H 1.21833 0.13514 0.70072
 H485 H 1.13452 0.20627 0.70819
 H486 H 1.04633 0.11747 0.60056
 H487 H 1.13873 0.07711 0.55468
 H488 H 1.19129 0.11082 0.65097
 H489 H 1.17343 0.10858 0.59602
 C490 C 0.89475 -0.12306 0.63838
 C491 C 0.85937 -0.11653 0.64047
 C492 C 0.83843 -0.13543 0.66239
 C493 C 0.85244 -0.16166 0.68171
 C494 C 0.88830 -0.16738 0.67845
 N495 N 0.90828 -0.14792 0.65754
 C496 C 0.91715 -0.10305 0.61565
 N497 N 0.94341 -0.08398 0.62878
 C498 C 0.96242 -0.06237 0.60916
 C499 C 0.95523 -0.05915 0.57433
 C500 C 0.92933 -0.07989 0.56017
 C501 C 0.91002 -0.10157 0.58083
 H502 H 0.81112 -0.13009 0.66313
 H503 H 0.90083 -0.18648 0.69321
 H504 H 0.98227 -0.04689 0.62096
 H505 H 0.92272 -0.07809 0.53350
 H506 H 0.84812 -0.09676 0.62543
 H507 H 0.88918 -0.11648 0.56993
 C508 C 1.11945 -0.12499 0.36050
 C509 C 1.10339 -0.15207 0.34366
 C510 C 1.12159 -0.16990 0.31878
 C511 C 1.15611 -0.16109 0.31026
 C512 C 1.17143 -0.13437 0.32890
 N513 N 1.15298 -0.11737 0.35288
 C514 C 1.10117 -0.10387 0.38594
 N515 N 1.12044 -0.08488 0.40783
 C516 C 1.10612 -0.06265 0.43002
 C517 C 1.07024 -0.05781 0.43053
 C518 C 1.04965 -0.07773 0.40889
 C519 C 1.06497 -0.10076 0.38655
 H520 H 1.10809 -0.19058 0.30663
 H521 H 1.19775 -0.12626 0.32439
 H522 H 1.12299 -0.04788 0.44633
 H523 H 1.02190 -0.07454 0.40824
 H524 H 1.07716 -0.15978 0.34966
 H525 H 1.04865 -0.11463 0.36902
 C526 C 0.87928 0.15096 0.37605
 C527 C 0.84598 0.13899 0.36848
 C528 C 0.82765 0.15318 0.34184
 C529 C 0.84196 0.17994 0.32268
 C530 C 0.87495 0.19214 0.33231
 N531 N 0.89263 0.17721 0.35785
 C532 C 0.90065 0.13365 0.40167
 N533 N 0.88535 0.11181 0.42394
 C534 C 0.90382 0.09196 0.44497
 C535 C 0.94008 0.09237 0.44340
 C536 C 0.95646 0.11596 0.42198
 C537 C 0.93684 0.13682 0.40131
 H538 H 0.80208 0.14321 0.33678
 H539 H 0.88765 0.21239 0.31869
 H540 H 0.89009 0.07429 0.46120
 H541 H 0.98438 0.11704 0.41987
 H542 H 0.83449 0.11813 0.38233
 H543 H 0.94993 0.15378 0.38383
 C544 C 0.12022 0.34855 -0.09735
 C545 C 0.10806 0.33309 -0.12705
 C546 C 0.12844 0.30981 -0.14406
 C547 C 0.16111 0.30107 -0.13137
 C548 C 0.17235 0.31750 -0.10131
 N549 N 0.15204 0.34074 -0.08547
 C550 C 0.09809 0.37264 -0.07912
 N551 N 0.10916 0.40491 -0.07370
 C552 C 0.08761 0.42905 -0.06134
 C553 C 0.05277 0.42115 -0.05431
 C554 C 0.04157 0.38762 -0.05824
 C555 C 0.06405 0.36342 -0.07077
 H556 H 0.11756 0.29787 -0.16638
 H557 H 0.19742 0.31250 -0.09067
 H558 H 0.09734 0.45454 -0.05817
 H559 H 0.01504 0.38028 -0.05285
 H560 H 0.08283 0.33901 -0.13701
 H561 H 0.05470 0.33790 -0.07491
 C562 C -0.14367 0.37529 0.13542
 C563 C -0.16469 0.35162 0.11846
 C564 C -0.17919 0.32477 0.13640
 C565 C -0.17308 0.32117 0.17141
 C566 C -0.15202 0.34555 0.18751
 N567 N -0.13781 0.37141 0.16932
 C568 C -0.12547 0.40247 0.11649
 N569 N -0.09400 0.41359 0.12748
 C570 C -0.07404 0.43542 0.10907
 C571 C -0.08518 0.44655 0.07714
 C572 C -0.11841 0.43708 0.06640
 C573 C -0.13869 0.41530 0.08606
 H574 H -0.19429 0.30634 0.12241
 H575 H -0.14672 0.34408 0.21444
 H576 H -0.04871 0.44246 0.11846
 H577 H -0.12822 0.44549 0.04218
 H578 H -0.16886 0.35286 0.09129
 H579 H -0.16405 0.40800 0.07698
 C580 C -0.13976 0.61955 -0.16610
 C581 C -0.12472 0.63300 -0.19572
 C582 C -0.14069 0.65947 -0.21234
 C583 C -0.17176 0.67318 -0.19965
 C584 C -0.18681 0.65746 -0.17088
 N585 N -0.17040 0.63204 -0.15494
 C586 C -0.12152 0.59541 -0.14414
 N587 N -0.13141 0.59329 -0.11088
 C588 C -0.11348 0.57555 -0.08764
 C589 C -0.08287 0.55933 -0.09718
 C590 C -0.07339 0.55916 -0.13173
 C591 C -0.09272 0.57698 -0.15533
 H592 H -0.12795 0.66923 -0.23480
 H593 H -0.21074 0.66596 -0.15980
 H594 H -0.12213 0.57584 -0.06136
 H595 H -0.05024 0.54650 -0.14027
 H596 H -0.10009 0.62451 -0.20538
 H597 H -0.08445 0.57693 -0.18167
 C598 C 0.11018 0.67154 0.10375
 C599 C 0.09517 0.69970 0.11943
 C600 C 0.11503 0.72007 0.14092
 C601 C 0.14983 0.71267 0.14662
 C602 C 0.16410 0.68478 0.12988
 N603 N 0.14406 0.66489 0.10955
 C604 C 0.08932 0.64724 0.08374
 N605 N 0.09788 0.61415 0.08447
 C606 C 0.07840 0.58985 0.06912
 C607 C 0.04808 0.59832 0.05191
 C608 C 0.03960 0.63246 0.04947
 C609 C 0.06011 0.65699 0.06540
 H610 H 0.10319 0.74154 0.15320
 H611 H 0.19080 0.67819 0.13387
 H612 H 0.08620 0.56387 0.07116
 H613 H 0.01663 0.64011 0.03614
 H614 H 0.06810 0.70529 0.11623
 H615 H 0.05298 0.68316 0.06359
 C616 C 0.34156 1.10211 0.91290
 C617 C 0.31457 1.08811 0.89351
 C618 C 0.29240 1.10928 0.87612
 C619 C 0.29669 1.14433 0.87834
 C620 C 0.32340 1.15740 0.89866
 N621 N 0.34525 1.13625 0.91477
 C622 C 0.36758 1.08051 0.92898
 N623 N 0.40112 1.09121 0.92981
 C624 C 0.42682 1.07165 0.94186
 C625 C 0.41939 1.03914 0.95403
 C626 C 0.38479 1.02813 0.95470
 C627 C 0.35886 1.04865 0.94207
 H628 H 0.27199 1.09832 0.86077
 H629 H 0.32760 1.18432 0.90071
 H630 H 0.45309 1.08135 0.94143
 H631 H 0.37787 1.00337 0.96417
 H632 H 0.31136 1.06112 0.89074
 H633 H 0.33235 1.03960 0.94242
 C634 C 0.38468 0.85420 1.15515
 C635 C 0.37760 0.85785 1.19014
 C636 C 0.34798 0.84252 1.20409
 C637 C 0.32540 0.82353 1.18339
 C638 C 0.33425 0.81963 1.14882
 N639 N 0.36298 0.83491 1.13589
 C640 C 0.41341 0.87212 1.13746
 N641 N 0.42226 0.86151 1.10557
 C642 C 0.44418 0.87921 1.08508
 C643 C 0.45765 0.91043 1.09586
 C644 C 0.45066 0.92100 1.12936
 C645 C 0.42855 0.90196 1.15026
 H646 H 0.34274 0.84567 1.23101
 H647 H 0.31785 0.80557 1.13157
 H648 H 0.44917 0.86988 1.05958
 H649 H 0.46046 0.94499 1.13867
 H650 H 0.39449 0.87234 1.20662
 H651 H 0.42180 0.91182 1.17512
 C652 C 0.66605 1.10916 1.12495
 C653 C 0.69160 1.09563 1.14590
 C654 C 0.71118 1.11696 1.16678
 C655 C 0.70555 1.15177 1.16685
 C656 C 0.67945 1.16426 1.14589
 N657 N 0.66049 1.14294 1.12594
 C658 C 0.64425 1.08741 1.10281
 N659 N 0.61125 1.09671 1.09607
 C660 C 0.58920 1.07694 1.07762
 C661 C 0.59999 1.04561 1.06494
 C662 C 0.63438 1.03631 1.07023
 C663 C 0.65654 1.05707 1.08907
 H664 H 0.73117 1.10629 1.18236
 H665 H 0.67402 1.19090 1.14552
 H666 H 0.56298 1.08521 1.07386
 H667 H 0.64391 1.01252 1.06064
 H668 H 0.69616 1.06883 1.14662
 H669 H 0.68289 1.04928 1.09295
 C670 C 0.63735 0.85915 0.84880
 C671 C 0.64154 0.86571 0.81381
 C672 C 0.66624 0.84810 0.79493
 C673 C 0.68656 0.82367 0.81051
 C674 C 0.68066 0.81696 0.84513
 N675 N 0.65685 0.83475 0.86308
 C676 C 0.61387 0.87869 0.87146
 N677 N 0.61032 0.86881 0.90449
 C678 C 0.59196 0.88658 0.92796
 C679 C 0.57622 0.91681 0.91890
 C680 C 0.57847 0.92703 0.88481
 C681 C 0.59723 0.90817 0.86107
 H682 H 0.66953 0.85363 0.76814
 H683 H 0.69582 0.79853 0.85831
 H684 H 0.59076 0.87763 0.95392
 H685 H 0.56672 0.95021 0.87671
 H686 H 0.62639 0.88423 0.80083
 H687 H 0.59937 0.91759 0.83542
   
