data_POSCAR
  _audit_creation_date              2014-09-24
  _audit_creation_method            'ToBaCCo'
  _symmetry_space_group_name_H-M    'P1'
  _symmetry_Int_Tables_number       1
  _symmetry_cell_setting            triclinic
  loop_
  _symmetry_equiv_pos_as_xyz
 x,y,z
_cell_length_a 48.3224
_cell_length_b 48.2150
_cell_length_c 48.1925
_cell_angle_alpha 90.087300
_cell_angle_beta 89.978400
_cell_angle_gamma 89.928500
loop_
  _atom_site_label
  _atom_site_type_symbol
  _atom_site_fract_x
  _atom_site_fract_y
  _atom_site_fract_z
C1 C 0.18975 1.22840 0.18887
 N2 N 0.17931 1.21806 0.21291
 C3 C 0.19160 1.19610 0.22559
 N4 N 0.21458 1.18454 0.21409
 C5 C 0.22514 1.19469 0.19005
 N6 N 0.21260 1.21653 0.17746
 C7 C 0.81133 0.77492 0.19491
 N8 N 0.78718 0.78547 0.18503
 C9 C 0.77569 0.80833 0.19688
 N10 N 0.78843 0.82063 0.21879
 C11 C 0.81254 0.81022 0.22890
 N12 N 0.82395 0.78743 0.21680
 C13 C 0.80553 1.22530 -0.19155
 N14 N 0.81724 1.21382 -0.21452
 C15 C 0.80726 1.18973 -0.22522
 N16 N 0.78535 1.17716 -0.21283
 C17 C 0.77335 1.18860 -0.19003
 N18 N 0.78355 1.21259 -0.17941
 C19 C 0.19269 0.77230 -0.19392
 N20 N 0.18181 0.78450 -0.21684
 C21 C 0.19373 0.80754 -0.22781
 N22 N 0.21667 0.81835 -0.21561
 C23 C 0.22770 0.80627 -0.19270
 N24 N 0.21560 0.78329 -0.18187
 C25 C 0.52501 1.04596 -0.01562
 H26 H 0.51144 1.05653 -0.00126
 C27 C 0.54401 1.06128 -0.03117
 H28 H 0.54452 1.08361 -0.02884
 C29 C 0.54162 1.00403 -0.03523
 H30 H 0.54080 0.98163 -0.03631
 C31 C 0.56076 1.01852 -0.05131
 H32 H 0.57456 1.00703 -0.06481
 N33 N 0.52406 1.01786 -0.01804
 C34 C 0.45943 1.03664 0.01134
 H35 H 0.46063 1.03758 -0.01106
 C36 C 0.44049 1.05330 0.02553
 H37 H 0.42723 1.06709 0.01381
 C38 C 0.47488 1.01684 0.05355
 H39 H 0.48790 1.00217 0.06434
 C40 C 0.45606 1.03297 0.06858
 H41 H 0.45514 1.03077 0.09092
 Zn42 Zn 0.50007 0.99621 0.00412
 N43 N 0.47632 1.01907 0.02545
 C44 C 0.52371 0.94616 0.02488
 N45 N 0.52285 0.97426 0.02729
 C46 C 0.53977 0.98792 0.04521
 C47 C 0.55815 0.97324 0.06202
 C48 C 0.54199 0.93065 0.04113
 C49 C 0.47670 0.97623 -0.04635
 C50 C 0.45827 0.96054 -0.06225
 C51 C 0.44089 0.93991 -0.02004
 C52 C 0.45946 0.95617 -0.00496
 N53 N 0.47704 0.97369 -0.01825
 H54 H 0.51069 0.93574 0.00994
 H55 H 0.53906 1.01032 0.04628
 H56 H 0.57148 0.98460 0.07605
 H57 H 0.54249 0.90833 0.03876
 H58 H 0.49026 0.99085 -0.05648
 H59 H 0.45819 0.96300 -0.08457
 H60 H 0.42703 0.92619 -0.00898
 H61 H 0.45977 0.95500 0.01745
 C62 C 0.43852 1.05151 0.05455
 C63 C 0.56224 1.04755 -0.04931
 C64 C 0.44000 0.94210 -0.04909
 C65 C 0.55956 0.94421 0.05999
 C66 C -0.01143 0.54112 1.03732
 H67 H 0.01089 0.53979 1.03844
 C68 C -0.02561 0.56011 1.05396
 H69 H -0.01396 0.57327 1.06792
 C70 C -0.05346 0.52597 1.01708
 H71 H -0.06418 0.51305 1.00225
 C72 C -0.06847 0.54486 1.03317
 H73 H -0.09073 0.54593 1.03080
 N74 N -0.02546 0.52435 1.01954
 C75 C 0.03523 0.45897 1.00476
 H76 H 0.03648 0.45988 0.98236
 C77 C 0.05127 0.43981 1.01933
 H78 H 0.06491 0.42610 1.00791
 C79 C 0.01524 0.47536 1.04659
 H80 H 0.00075 0.48885 1.05709
 C81 C 0.03072 0.45632 1.06198
 H82 H 0.02823 0.45571 1.08430
 Zn83 Zn -0.00413 0.50052 0.99676
 N84 N 0.01788 0.47644 1.01851
 C85 C 0.04628 0.52394 0.97701
 N86 N 0.01826 0.52358 0.97433
 C87 C 0.00506 0.54113 0.95668
 C88 C 0.02014 0.55966 0.94041
 C89 C 0.06217 0.54234 0.96131
 C90 C -0.04524 0.46092 0.98818
 C91 C -0.06192 0.44251 0.97336
 C92 C -0.04055 0.45842 0.93095
 C93 C -0.02445 0.47673 0.94658
 N94 N -0.02715 0.47772 0.97466
 H95 H 0.05634 0.51042 0.99174
 H96 H -0.01729 0.54081 0.95540
 H97 H 0.00915 0.57349 0.92656
 H98 H 0.08443 0.54242 0.96387
 H99 H -0.04653 0.46171 1.01058
 H100 H -0.07608 0.42926 0.98461
 H101 H -0.03794 0.45779 0.90864
 H102 H -0.00938 0.48966 0.93628
 C103 C 0.04905 0.43822 1.04834
 C104 C -0.05453 0.56226 1.05193
 C105 C -0.05957 0.44095 0.94435
 C106 C 0.04910 0.56055 0.94271
 C107 C 1.04528 -0.00503 0.54127
 H108 H 1.04671 0.01736 0.54087
 C109 C 1.06148 -0.02021 0.55981
 H110 H 1.07542 -0.00927 0.57357
 C111 C 1.02461 -0.04624 0.52429
 H112 H 1.00978 -0.05625 0.51085
 C113 C 1.04022 -0.06222 0.54272
 H114 H 1.03748 -0.08450 0.54290
 N115 N 1.02749 -0.01818 0.52382
 C116 C 1.01350 0.04548 0.46116
 H117 H 0.99116 0.04676 0.46201
 C118 C 1.02818 0.06223 0.44274
 H119 H 1.01690 0.07643 0.42953
 C120 C 1.05507 0.02466 0.47687
 H121 H 1.06541 0.00956 0.48976
 C122 C 1.07057 0.04083 0.45853
 H123 H 1.09282 0.03824 0.45786
 Zn124 Zn 1.00510 0.00430 0.50078
 N125 N 1.02706 0.02735 0.47793
 C126 C 0.98493 0.05378 0.52626
 N127 N 0.98244 0.02573 0.52464
 C128 C 0.96470 0.01170 0.54141
 C129 C 0.94811 0.02596 0.56037
 C130 C 0.96888 0.06887 0.54512
 C131 C 0.95533 -0.01505 0.47566
 C132 C 0.93993 -0.03057 0.45665
 C133 C 0.98242 -0.05125 0.44011
 C134 C 0.99700 -0.03517 0.45924
 N135 N 0.98333 -0.01774 0.47672
 H136 H 0.99972 0.06449 0.51334
 H137 H 0.96357 -0.01067 0.54009
 H138 H 0.93417 0.01431 0.57352
 H139 H 0.97126 0.09117 0.54618
 H140 H 0.94490 -0.00049 0.48915
 H141 H 0.91767 -0.02803 0.45606
 H142 H 0.99377 -0.06496 0.42639
 H143 H 1.01933 -0.03647 0.46014
 C144 C 1.05712 0.05991 0.44112
 C145 C 1.05894 -0.04921 0.56083
 C146 C 0.95348 -0.04898 0.43854
 C147 C 0.95015 0.05494 0.56251
 C148 C 0.15091 0.29319 1.14953
 N149 N 0.17363 0.28109 1.13816
 N150 N 0.18636 0.26024 1.15104
 C151 C 0.17677 0.25060 1.17571
 N152 N 0.15406 0.26277 1.18709
 N153 N 0.14140 0.28370 1.17426
 C154 C 0.13655 0.31578 1.13502
 N155 N 0.11492 0.32913 1.14712
 N156 N 0.10156 0.34924 1.13370
 C157 C 0.10928 0.35666 1.10766
 N158 N 0.13094 0.34334 1.09559
 N159 N 0.14436 0.32331 1.10904
 C160 C 0.09411 0.37830 1.09254
 N161 N 0.09998 0.38361 1.06553
 N162 N 0.08579 0.40274 1.05158
 C163 C 0.06523 0.41740 1.06409
 N164 N 0.05952 0.41216 1.09120
 N165 N 0.07364 0.39294 1.10514
 C166 C -0.15196 0.70823 1.15649
 N167 N -0.13964 0.72072 1.17851
 N168 N -0.15170 0.74215 1.19116
 C169 C -0.17650 0.75197 1.18221
 N170 N -0.18887 0.73936 1.16025
 N171 N -0.17685 0.71788 1.14765
 C172 C -0.13820 0.68521 1.14200
 N173 N -0.15095 0.67187 1.12073
 N174 N -0.13810 0.65152 1.10710
 C175 C -0.11200 0.64384 1.11419
 N176 N -0.09930 0.65713 1.13552
 N177 N -0.11217 0.67741 1.14920
 C178 C -0.09742 0.62208 1.09859
 N179 N -0.07044 0.61642 1.10394
 N180 N -0.05691 0.59729 1.08927
 C181 C -0.06985 0.58299 1.06872
 N182 N -0.09693 0.58857 1.06353
 N183 N -0.11044 0.60778 1.07814
 C184 C -0.16016 0.29458 0.84421
 N185 N -0.18246 0.28207 0.85588
 N186 N -0.19387 0.25989 0.84403
 C187 C -0.18334 0.24928 0.82011
 N188 N -0.16116 0.26195 0.80834
 N189 N -0.14981 0.28420 0.82015
 C190 C -0.14676 0.31817 0.85803
 N191 N -0.12513 0.33141 0.84591
 N192 N -0.11223 0.35204 0.85901
 C193 C -0.12043 0.36010 0.88474
 N194 N -0.14215 0.34695 0.89679
 N195 N -0.15510 0.32640 0.88366
 C196 C -0.10540 0.38190 0.89977
 N197 N -0.11153 0.38757 0.92667
 N198 N -0.09717 0.40652 0.94070
 C199 C -0.07617 0.42063 0.92839
 N200 N -0.07024 0.41508 0.90137
 N201 N -0.08453 0.39604 0.88735
 C202 C 0.15293 0.70452 0.84252
 N203 N 0.14164 0.71751 0.82025
 N204 N 0.15450 0.73886 0.80840
 C205 C 0.17909 0.74805 0.81844
 N206 N 0.19043 0.73499 0.84065
 N207 N 0.17761 0.71358 0.85244
 C208 C 0.13824 0.68165 0.85619
 N209 N 0.15006 0.66774 0.87761
 N210 N 0.13635 0.64759 0.89058
 C211 C 0.11029 0.64070 0.88266
 N212 N 0.09851 0.65455 0.86118
 N213 N 0.11225 0.67463 0.84815
 C214 C 0.09474 0.61925 0.89761
 N215 N 0.06771 0.61456 0.89165
 N216 N 0.05331 0.59576 0.90581
 C217 C 0.06538 0.58084 0.92643
 N218 N 0.09252 0.58544 0.93221
 N219 N 0.10691 0.60432 0.91812
 C220 C 1.15626 0.16139 0.29484
 N221 N 1.14446 0.18369 0.28238
 N222 N 1.15617 0.19523 0.26020
 C223 C 1.18008 0.18484 0.24957
 N224 N 1.19200 0.16266 0.26220
 N225 N 1.18032 0.15118 0.28444
 C226 C 1.14260 0.14785 0.31842
 N227 N 1.15481 0.12618 0.33160
 N228 N 1.14185 0.11315 0.35222
 C229 C 1.11617 0.12125 0.36032
 N230 N 1.10402 0.14300 0.34723
 N231 N 1.11701 0.15609 0.32669
 C232 C 1.10129 0.10608 0.38210
 N233 N 1.07446 0.11214 0.38783
 N234 N 1.06055 0.09767 0.40677
 C235 C 1.07294 0.07662 0.42080
 N236 N 1.09988 0.07076 0.41520
 N237 N 1.11378 0.08516 0.39618
 C238 C 1.15812 -0.15340 0.70541
 N239 N 1.18109 -0.14275 0.71763
 N240 N 1.19285 -0.15561 0.73906
 C241 C 1.18200 -0.17953 0.74918
 N242 N 1.15909 -0.19023 0.73683
 N243 N 1.14740 -0.17743 0.71533
 C244 C 1.14459 -0.13870 0.68244
 N245 N 1.12263 -0.15012 0.66910
 N246 N 1.10981 -0.13639 0.64885
 C247 C 1.11841 -0.11069 0.64130
 N248 N 1.14042 -0.09931 0.65458
 N249 N 1.15331 -0.11308 0.67475
 C250 C 1.10362 -0.09509 0.61974
 N251 N 1.11010 -0.06821 0.61458
 N252 N 1.09608 -0.05374 0.59571
 C253 C 1.07509 -0.06559 0.58118
 N254 N 1.06878 -0.09257 0.58624
 N255 N 1.08273 -0.10702 0.60520
 C256 C 0.85208 -0.15101 0.29366
 N257 N 0.82729 -0.14154 0.28439
 N258 N 0.81440 -0.15419 0.26347
 C259 C 0.82578 -0.17684 0.25109
 N260 N 0.85051 -0.18638 0.26052
 N261 N 0.86344 -0.17367 0.28137
 C262 C 0.86664 -0.13665 0.31624
 N263 N 0.89263 -0.14441 0.32360
 N264 N 0.90612 -0.13098 0.34362
 C265 C 0.89407 -0.10935 0.35709
 N266 N 0.86802 -0.10168 0.34983
 N267 N 0.85456 -0.11505 0.32974
 C268 C 0.90922 -0.09415 0.37870
 N269 N 0.89668 -0.07368 0.39343
 N270 N 0.91064 -0.05952 0.41262
 C271 C 0.93771 -0.06521 0.41775
 N272 N 0.95017 -0.08576 0.40300
 N273 N 0.93620 -0.09999 0.38389
 C274 C 0.84559 0.15293 0.70808
 N275 N 0.82352 0.14068 0.72044
 N276 N 0.81090 0.15278 0.74185
 C277 C 0.81992 0.17754 0.75180
 N278 N 0.84192 0.18986 0.73932
 N279 N 0.85449 0.17779 0.71785
 C280 C 0.86007 0.13910 0.68510
 N281 N 0.88138 0.15179 0.67188
 N282 N 0.89502 0.13887 0.65158
 C283 C 0.88789 0.11275 0.64383
 N284 N 0.86653 0.10010 0.65700
 N285 N 0.85284 0.11305 0.67723
 C286 C 0.90350 0.09808 0.62215
 N287 N 0.89813 0.07105 0.61647
 N288 N 0.91280 0.05744 0.59740
 C289 C 0.93338 0.07034 0.58319
 N290 N 0.93859 0.09747 0.58879
 N291 N 0.92398 0.11106 0.60794
 C292 C 0.29293 1.15591 0.15239
 N293 N 0.27979 1.17732 0.13970
 N294 N 0.25842 1.18989 0.15186
 C295 C 0.24934 1.18147 0.17714
 N296 N 0.26254 1.16012 0.18989
 N297 N 0.28397 1.14760 0.17776
 C298 C 0.31589 1.14149 0.13853
 N299 N 0.32974 1.12073 0.15155
 N300 N 0.35004 1.10713 0.13862
 C301 C 0.35715 1.11375 0.11219
 N302 N 0.34335 1.13456 0.09922
 N303 N 0.32312 1.14821 0.11217
 C304 C 0.37885 1.09817 0.09755
 N305 N 0.38408 1.10312 0.07034
 N306 N 0.40316 1.08845 0.05678
 C307 C 0.41784 1.06830 0.06989
 N308 N 0.41269 1.06352 0.09720
 N309 N 0.39353 1.07813 0.11075
 C310 C 0.70740 1.14844 -0.15084
 N311 N 0.71596 1.17377 -0.14200
 N312 N 0.73688 1.18663 -0.15458
 C313 C 0.74994 1.17468 -0.17650
 N314 N 0.74129 1.14941 -0.18542
 N315 N 0.72044 1.13651 -0.17279
 C316 C 0.68481 1.13393 -0.13657
 N317 N 0.67800 1.10758 -0.14380
 N318 N 0.65793 1.09416 -0.13045
 C319 C 0.64388 1.10662 -0.10945
 N320 N 0.65059 1.13303 -0.10231
 N321 N 0.67072 1.14642 -0.11560
 C322 C 0.62222 1.09156 -0.09433
 N323 N 0.60706 1.10440 -0.07436
 N324 N 0.58783 1.09051 -0.06026
 C325 C 0.58307 1.06322 -0.06550
 N326 N 0.59824 1.05046 -0.08556
 N327 N 0.61740 1.06436 -0.09972
 C328 C 0.29549 0.84258 -0.15286
 N329 N 0.28252 0.82032 -0.14157
 N330 N 0.26116 0.80853 -0.15445
 C331 C 0.25192 0.81862 -0.17905
 N332 N 0.26494 0.84081 -0.19039
 N333 N 0.28637 0.85255 -0.17756
 C334 C 0.31840 0.85616 -0.13817
 N335 N 0.33234 0.87751 -0.15004
 N336 N 0.35255 0.89038 -0.13634
 C337 C 0.35950 0.88242 -0.11024
 N338 N 0.34563 0.86101 -0.09842
 N339 N 0.32548 0.84808 -0.11215
 C340 C 0.38105 0.89726 -0.09471
 N341 N 0.38579 0.89131 -0.06761
 N342 N 0.40467 0.90538 -0.05322
 C343 C 0.41963 0.92589 -0.06537
 N344 N 0.41499 0.93166 -0.09257
 N345 N 0.39603 0.91766 -0.10695
 C346 C 0.70537 0.84467 0.16174
 N347 N 0.71506 0.82002 0.15210
 N348 N 0.73722 0.80821 0.16357
 C349 C 0.75043 0.82057 0.18515
 N350 N 0.74057 0.84508 0.19495
 N351 N 0.71848 0.85693 0.18342
 C352 C 0.68188 0.85845 0.14818
 N353 N 0.67419 0.88442 0.15591
 N354 N 0.65373 0.89749 0.14280
 C355 C 0.64013 0.88503 0.12153
 N356 N 0.64764 0.85895 0.11395
 N357 N 0.66818 0.84591 0.12701
 C358 C 0.61841 0.89996 0.10632
 N359 N 0.60395 0.88726 0.08579
 N360 N 0.58499 0.90119 0.07134
 C361 C 0.57983 0.92838 0.07677
 N362 N 0.59426 0.94097 0.09743
 N363 N 0.61314 0.92704 0.11195
   
