data_POSCAR
  _audit_creation_date              2014-09-24
  _audit_creation_method            'ToBaCCo'
  _symmetry_space_group_name_H-M    'P1'
  _symmetry_Int_Tables_number       1
  _symmetry_cell_setting            triclinic
  loop_
  _symmetry_equiv_pos_as_xyz
 x,y,z
_cell_length_a 15.9443
_cell_length_b 16.7294
_cell_length_c 16.5533
_cell_angle_alpha 89.811800
_cell_angle_beta 92.081400
_cell_angle_gamma 90.253900
loop_
  _atom_site_label
  _atom_site_type_symbol
  _atom_site_fract_x
  _atom_site_fract_y
  _atom_site_fract_z
C1 C 0.43054 1.01113 -0.54161
 C2 C 0.42862 0.98152 -0.46146
 C3 C 0.50401 0.95808 -0.42173
 C4 C 0.58161 0.96546 -0.45833
 C5 C 0.58263 0.98321 -0.54197
 C6 C 0.50809 1.01189 -0.57974
 H7 H 0.51002 1.03292 -0.64087
 H8 H 0.50267 0.93799 -0.35940
 C9 C -0.54111 1.43105 0.00077
 C10 C -0.45319 1.42783 0.01372
 C11 C -0.40760 1.49997 0.01733
 C12 C -0.44546 1.57521 0.00676
 C13 C -0.53419 1.57842 -0.00569
 C14 C -0.57971 1.50620 -0.00543
 H15 H -0.64758 1.50875 -0.00623
 H16 H -0.33969 1.49732 0.02306
 C17 C -0.00581 0.43212 0.43839
 C18 C -0.00092 0.43011 0.52514
 C19 C -0.00455 0.50492 0.56681
 C20 C -0.01609 0.57886 0.52575
 C21 C -0.02755 0.57764 0.44096
 C22 C -0.02342 0.50568 0.39968
 H23 H -0.03651 0.50784 0.33499
 H24 H 0.00252 0.50717 0.63175
 O25 O -0.19997 1.00160 -0.13397
 O26 O 0.22748 1.01139 -0.08118
 O27 O 0.01362 1.12066 -0.20370
 O28 O 0.02890 0.89807 -0.20916
 O29 O 0.02579 0.79891 -0.11141
 O30 O -0.00087 1.21158 -0.10018
 O31 O 0.13590 1.01033 -0.19254
 O32 O -0.09038 1.00720 -0.22093
 Zr33 Zr 0.01645 1.00701 -0.14221
 O34 O 0.08778 0.93516 -0.06484
 O35 O -0.06759 1.07494 -0.07984
 C36 C -0.16944 1.00538 -0.20515
 C37 C 0.21047 1.01131 -0.15839
 C38 C 0.00498 1.19317 -0.17570
 C39 C 0.03282 0.82352 -0.18516
 H40 H 0.11896 1.11558 -0.09036
 O41 O 0.08186 1.07908 -0.06087
 H42 H -0.09306 0.89495 -0.12284
 O43 O -0.06161 0.92921 -0.08363
 O44 O 0.20430 1.01372 0.13698
 O45 O -0.22113 0.98548 0.07907
 O46 O 0.11096 1.21066 0.01809
 O47 O 0.12768 0.80243 0.00219
 O48 O -0.10462 0.79313 -0.01531
 O49 O -0.11886 1.20258 -0.00211
 O50 O -0.01816 1.09987 0.21187
 O51 O -0.01257 0.88741 0.20454
 O52 O -0.00554 1.20151 0.11849
 O53 O 0.00044 0.79209 0.10548
 O54 O 0.21501 1.11556 0.03189
 O55 O -0.21548 1.10114 -0.02436
 O56 O -0.20811 0.88880 -0.02736
 O57 O 0.22396 0.90450 0.02309
 O58 O 0.09351 1.00031 0.22187
 O59 O -0.13008 0.98331 0.19037
 Zr60 Zr 0.14923 1.00740 0.01882
 Zr61 Zr -0.14192 0.99696 -0.01834
 Zr62 Zr -0.00177 1.14247 0.00564
 Zr63 Zr 0.00897 0.86046 -0.00287
 Zr64 Zr -0.01053 0.99593 0.14115
 O65 O -0.07648 0.92347 0.06140
 O66 O 0.06911 1.07419 0.08521
 C67 C 0.17195 1.01024 0.20786
 C68 C -0.20431 0.97982 0.15573
 C69 C 0.18891 1.18843 0.02769
 C70 C 0.20387 0.83035 0.01191
 C71 C -0.18274 0.81555 -0.02316
 C72 C -0.19498 1.17537 -0.01385
 C73 C -0.01160 1.17444 0.19189
 C74 C -0.00721 0.81426 0.18025
 H75 H -0.12132 1.09901 0.09838
 O76 O -0.08147 1.06846 0.06622
 H77 H 0.10966 0.89586 0.11789
 O78 O 0.07496 0.92924 0.08043
 C79 C 0.35643 1.03234 0.41395
 C80 C 0.35650 1.07485 0.34467
 C81 C 0.28908 1.07242 0.28168
 C82 C 0.22847 1.01711 0.27871
 H83 H 0.41049 1.11021 0.32911
 H84 H 0.29504 1.11313 0.23106
 H85 H 0.29711 1.01037 0.43425
 H86 H 0.21909 0.97608 0.32818
 C87 C -0.34593 0.96758 0.41208
 C88 C -0.34768 0.96552 0.33125
 C89 C -0.27080 0.96299 0.28597
 C90 C -0.27689 0.97060 0.20592
 H91 H -0.40588 0.96753 0.29591
 H92 H -0.21014 0.96075 0.31768
 H93 H -0.28691 0.95186 0.44188
 H94 H -0.33833 0.97321 0.17558
 C95 C -0.34660 0.95818 -0.40729
 C96 C -0.27752 1.00377 -0.41407
 C97 C -0.21161 1.00634 -0.34977
 C98 C -0.23151 1.00537 -0.27210
 H99 H -0.27067 1.04469 -0.46415
 H100 H -0.14704 1.01356 -0.36670
 H101 H -0.35244 0.92299 -0.35263
 H102 H -0.29686 1.00419 -0.25616
 C103 C 0.35070 0.98056 -0.41505
 C104 C 0.35128 1.00555 -0.33844
 C105 C 0.27609 1.00196 -0.29017
 C106 C 0.28277 1.01429 -0.21054
 H107 H 0.40877 1.02873 -0.31019
 H108 H 0.21591 0.98769 -0.31932
 H109 H 0.29262 0.95910 -0.44327
 H110 H 0.34400 1.02567 -0.18208
 C111 C 0.40413 1.35873 0.00082
 C112 C 0.33098 1.35719 -0.04255
 C113 C 0.26366 1.29717 -0.03502
 C114 C 0.25489 1.24960 0.02908
 H115 H 0.31797 1.40383 -0.08672
 H116 H 0.21671 1.29470 -0.08403
 H117 H 0.42231 1.30893 0.03937
 H118 H 0.30130 1.24902 0.07839
 C119 C 0.41547 0.65328 -0.00721
 C120 C 0.34427 0.65793 -0.05349
 C121 C 0.27622 0.71688 -0.04578
 C122 C 0.27465 0.77445 0.00983
 H123 H 0.33118 0.61153 -0.09776
 H124 H 0.22288 0.71044 -0.08781
 H125 H 0.43352 0.70042 0.03448
 H126 H 0.32826 0.78541 0.05019
 C127 C -0.38928 0.64061 0.00863
 C128 C -0.39914 0.71002 -0.03097
 C129 C -0.33097 0.77059 -0.03276
 C130 C -0.24833 0.75293 -0.02676
 H131 H -0.45662 0.72358 -0.06463
 H132 H -0.35052 0.83204 -0.04128
 H133 H -0.32897 0.63052 0.03913
 H134 H -0.22768 0.69145 -0.02346
 C135 C -0.40537 1.35152 0.01569
 C136 C -0.33319 1.34520 0.06000
 C137 C -0.26761 1.28424 0.05040
 C138 C -0.26490 1.23204 -0.01044
 H139 H -0.31763 1.39078 0.10445
 H140 H -0.21586 1.28567 0.09475
 H141 H -0.42633 1.30384 -0.02422
 H142 H -0.31646 1.22637 -0.05434
 C143 C 0.00090 1.36325 0.38870
 C144 C 0.02679 1.36844 0.31193
 C145 C 0.02527 1.30428 0.25090
 C146 C -0.01082 1.23253 0.25869
 H147 H 0.05277 1.42407 0.29028
 H148 H 0.05370 1.31932 0.19430
 H149 H -0.01439 1.30509 0.41227
 H150 H -0.03792 1.21462 0.31492
 C151 C 0.01046 1.35613 -0.43182
 C152 C -0.00059 1.34573 -0.35211
 C153 C 0.00936 1.26698 -0.31006
 C154 C -0.00005 1.26404 -0.22992
 H155 H -0.02109 1.39490 -0.31579
 H156 H 0.02351 1.21340 -0.34341
 H157 H 0.02724 1.30309 -0.46434
 H158 H -0.01294 1.31987 -0.19960
 C159 C -0.02330 0.65604 -0.42912
 C160 C 0.02068 0.67287 -0.36053
 C161 C 0.01033 0.74912 -0.31561
 C162 C 0.04921 0.75860 -0.24310
 H163 H 0.06477 0.62919 -0.33607
 H164 H -0.03274 0.79433 -0.33880
 H165 H -0.06473 0.70149 -0.45460
 H166 H 0.08778 0.70998 -0.21955
 C167 C -0.04249 0.64917 0.38977
 C168 C 0.01333 0.70866 0.38653
 C169 C 0.00968 0.76954 0.32179
 C170 C -0.00805 0.75194 0.24361
 H171 H 0.06401 0.71264 0.43173
 H172 H 0.02914 0.82953 0.33853
 H173 H -0.09258 0.64576 0.34381
 H174 H -0.01975 0.69059 0.22554
   
