data_POSCAR
  _audit_creation_date              2014-09-24
  _audit_creation_method            'ToBaCCo'
  _symmetry_space_group_name_H-M    'P1'
  _symmetry_Int_Tables_number       1
  _symmetry_cell_setting            triclinic
  loop_
  _symmetry_equiv_pos_as_xyz
 x,y,z
_cell_length_a 39.5565
_cell_length_b 38.0207
_cell_length_c 41.0264
_cell_angle_alpha 89.591700
_cell_angle_beta 88.131200
_cell_angle_gamma 89.635000
loop_
  _atom_site_label
  _atom_site_type_symbol
  _atom_site_fract_x
  _atom_site_fract_y
  _atom_site_fract_z
C1 C 0.29668 0.30100 0.23312
 H2 H 0.29877 0.30002 0.25934
 C3 C 0.31805 0.32278 0.21437
 H4 H 0.33681 0.33826 0.22636
 C5 C 0.27007 0.28132 0.18572
 H6 H 0.25149 0.26499 0.17460
 C7 C 0.29090 0.30274 0.16604
 H8 H 0.28762 0.30307 0.13994
 N9 N 0.27294 0.28126 0.21867
 C10 C 0.19292 0.26659 0.29290
 H11 H 0.19129 0.23819 0.29345
 C12 C 0.17113 0.28670 0.31280
 H13 H 0.15305 0.27353 0.32899
 C14 C 0.21872 0.31811 0.27116
 H15 H 0.23682 0.33031 0.25446
 C16 C 0.19744 0.33923 0.29064
 H17 H 0.19947 0.36756 0.28868
 Zn18 Zn 0.24431 0.25334 0.24603
 N19 N 0.21637 0.28246 0.27289
 C20 C 0.27099 0.22721 0.30493
 N21 N 0.27227 0.22445 0.27187
 C22 C 0.29445 0.20211 0.25651
 C23 C 0.31569 0.18051 0.27458
 C24 C 0.29197 0.20635 0.32391
 C25 C 0.19169 0.24340 0.20342
 C26 C 0.16914 0.22498 0.18451
 C27 C 0.19502 0.17065 0.20210
 C28 C 0.21696 0.19011 0.22084
 N29 N 0.21525 0.22586 0.22079
 H30 H 0.25386 0.24572 0.31671
 H31 H 0.29553 0.20101 0.23015
 H32 H 0.33314 0.16281 0.26197
 H33 H 0.29024 0.20856 0.35021
 H34 H 0.19056 0.27182 0.20419
 H35 H 0.15096 0.23945 0.17041
 H36 H 0.19668 0.14221 0.20247
 H37 H 0.23515 0.17654 0.23550
 C38 C 0.17329 0.32356 0.31189
 C39 C 0.31514 0.32406 0.18035
 C40 C 0.17077 0.18810 0.18354
 C41 C 0.31455 0.18247 0.30876
 C42 C 0.79471 0.78770 0.23941
 H43 H 0.79498 0.78956 0.26570
 C44 C 0.81813 0.80657 0.22015
 H45 H 0.83655 0.82197 0.23258
 C46 C 0.77150 0.76278 0.19256
 H47 H 0.75347 0.74547 0.18184
 C48 C 0.79444 0.78110 0.17232
 H49 H 0.79216 0.77824 0.14630
 N50 N 0.77182 0.76659 0.22542
 C51 C 0.68778 0.75620 0.29641
 H52 H 0.68603 0.72785 0.29796
 C53 C 0.66542 0.77719 0.31489
 H54 H 0.64674 0.76473 0.33094
 C55 C 0.71481 0.80672 0.27400
 H56 H 0.73382 0.81814 0.25775
 C57 C 0.69300 0.82870 0.29208
 H58 H 0.69547 0.85693 0.28949
 Zn59 Zn 0.74194 0.74068 0.25330
 N60 N 0.71219 0.77116 0.27687
 C61 C 0.76507 0.71867 0.31514
 N62 N 0.76890 0.71464 0.28231
 C63 C 0.79293 0.69272 0.26923
 C64 C 0.81345 0.67275 0.28942
 C65 C 0.78516 0.69934 0.33622
 C66 C 0.69245 0.72486 0.20846
 C67 C 0.67258 0.70368 0.18916
 C68 C 0.69927 0.65242 0.21240
 C69 C 0.71844 0.67455 0.23142
 N70 N 0.71523 0.71009 0.22866
 H71 H 0.74659 0.73701 0.32509
 H72 H 0.79585 0.69048 0.24301
 H73 H 0.83175 0.65473 0.27848
 H74 H 0.78186 0.70314 0.36226
 H75 H 0.69009 0.75319 0.20705
 H76 H 0.65514 0.71591 0.17265
 H77 H 0.70229 0.62420 0.21477
 H78 H 0.73591 0.66320 0.24827
 C79 C 0.66804 0.81398 0.31307
 C80 C 0.81853 0.80363 0.18581
 C81 C 0.67618 0.66696 0.19073
 C82 C 0.80958 0.67575 0.32345
 C83 C 0.80873 0.28771 0.73495
 H84 H 0.81025 0.28800 0.76123
 C85 C 0.83085 0.30818 0.71571
 H86 H 0.84956 0.32399 0.72741
 C87 C 0.78315 0.26571 0.68787
 H88 H 0.76478 0.24886 0.67707
 C89 C 0.80473 0.28578 0.66772
 H90 H 0.80220 0.28463 0.64155
 N91 N 0.78527 0.26730 0.72085
 C92 C 0.70337 0.25301 0.79321
 H93 H 0.70185 0.22461 0.79376
 C94 C 0.68101 0.27306 0.81258
 H95 H 0.66257 0.25982 0.82832
 C96 C 0.72970 0.30461 0.77226
 H97 H 0.74838 0.31684 0.75617
 C98 C 0.70788 0.32567 0.79126
 H99 H 0.71001 0.35401 0.78954
 Zn100 Zn 0.75671 0.23976 0.74854
 N101 N 0.72738 0.26896 0.77390
 C102 C 0.78173 0.21588 0.80881
 N103 N 0.78485 0.21297 0.77592
 C104 C 0.80934 0.19245 0.76187
 C105 C 0.83150 0.17320 0.78105
 C106 C 0.80321 0.19713 0.82900
 C107 C 0.70517 0.22614 0.70564
 C108 C 0.68419 0.20617 0.68640
 C109 C 0.71299 0.15371 0.70460
 C110 C 0.73328 0.17469 0.72369
 N111 N 0.72939 0.21027 0.72348
 H112 H 0.76298 0.23338 0.81961
 H113 H 0.81156 0.19090 0.73556
 H114 H 0.84920 0.15608 0.76825
 H115 H 0.80027 0.20213 0.85481
 H116 H 0.70240 0.25446 0.70620
 H117 H 0.66550 0.21935 0.67187
 H118 H 0.71644 0.12544 0.70499
 H119 H 0.75211 0.16247 0.73858
 C120 C 0.68323 0.30991 0.81188
 C121 C 0.82897 0.30744 0.68159
 C122 C 0.68815 0.16947 0.68551
 C123 C 0.82898 0.17492 0.81560
 C124 C 0.30650 0.80064 0.73380
 H125 H 0.30843 0.80209 0.76000
 C126 C 0.32860 0.81997 0.71347
 H127 H 0.34766 0.83609 0.72426
 C128 C 0.27999 0.77682 0.68802
 H129 H 0.26132 0.75968 0.67812
 C130 C 0.30151 0.79571 0.66682
 H131 H 0.29857 0.79338 0.64078
 N132 N 0.28255 0.77989 0.72086
 C133 C 0.20162 0.76905 0.79510
 H134 H 0.19927 0.74071 0.79574
 C135 C 0.18070 0.78975 0.81530
 H136 H 0.16253 0.77709 0.83175
 C137 C 0.22891 0.81975 0.77338
 H138 H 0.24750 0.83137 0.75681
 C139 C 0.20855 0.84147 0.79322
 H140 H 0.21168 0.86970 0.79164
 Zn141 Zn 0.25381 0.75384 0.74981
 N142 N 0.22556 0.78420 0.77514
 C143 C 0.27866 0.72997 0.81030
 N144 N 0.28162 0.72677 0.77733
 C145 C 0.30462 0.70437 0.76326
 C146 C 0.32460 0.68273 0.78256
 C147 C 0.29821 0.70896 0.83050
 C148 C 0.20184 0.73935 0.70708
 C149 C 0.18087 0.71867 0.68843
 C150 C 0.20800 0.66682 0.71005
 C151 C 0.22829 0.68846 0.72843
 N152 N 0.22542 0.72406 0.72610
 H153 H 0.26106 0.74868 0.82109
 H154 H 0.30686 0.70276 0.73696
 H155 H 0.34187 0.66418 0.77085
 H156 H 0.29541 0.71189 0.85668
 H157 H 0.19974 0.76772 0.70605
 H158 H 0.16284 0.73130 0.67278
 H159 H 0.21079 0.63854 0.71206
 H160 H 0.24635 0.67668 0.74441
 C161 C 0.18429 0.82648 0.81480
 C162 C 0.32622 0.81772 0.67945
 C163 C 0.18416 0.68189 0.68947
 C164 C 0.32120 0.68454 0.81670
 C165 C -0.00319 -0.00261 0.00772
 C166 C 0.00259 0.51058 0.50555
 C167 C 0.49942 0.01454 0.49588
 C168 C 0.50435 0.50153 -0.00599
 C169 C 0.17834 -0.12283 -0.14664
 C170 C 0.15929 -0.10253 -0.12445
 C171 C 0.12497 -0.10976 -0.11792
 C172 C 0.11009 -0.13805 -0.13401
 C173 C 0.12920 -0.15844 -0.15616
 C174 C 0.16356 -0.15112 -0.16266
 C175 C 0.10633 -0.08814 -0.09322
 C176 C 0.07250 -0.08490 -0.09128
 C177 C 0.05426 -0.06344 -0.06615
 C178 C 0.02010 -0.07049 -0.05888
 C179 C 0.00209 -0.05111 -0.03519
 C180 C 0.01793 -0.02459 -0.01734
 C181 C 0.05169 -0.01614 -0.02644
 C182 C 0.06963 -0.03544 -0.05018
 H183 H 0.20489 -0.11688 -0.15069
 H184 H 0.17149 -0.08114 -0.11219
 H185 H 0.08401 -0.14520 -0.12908
 H186 H 0.11708 -0.18000 -0.16821
 H187 H 0.12154 -0.07429 -0.07610
 H188 H 0.05721 -0.09886 -0.10826
 H189 H 0.00726 -0.09120 -0.07150
 H190 H -0.02437 -0.05703 -0.03053
 H191 H 0.06434 0.00600 -0.01597
 H192 H 0.09523 -0.02754 -0.05648
 C193 C 0.11618 0.33667 0.33764
 C194 C 0.09470 0.35735 0.35740
 C195 C 0.10697 0.38714 0.37307
 C196 C 0.14116 0.39634 0.36791
 C197 C 0.16262 0.37568 0.34811
 C198 C 0.15042 0.34553 0.33285
 C199 C 0.08315 0.40817 0.39385
 C200 C 0.09302 0.42919 0.41787
 C201 C 0.06936 0.44979 0.43923
 C202 C 0.08204 0.47854 0.45608
 C203 C 0.06110 0.49821 0.47720
 C204 C 0.02693 0.48888 0.48313
 C205 C 0.01406 0.46090 0.46490
 C206 C 0.03500 0.44122 0.44380
 H207 H 0.10586 0.31397 0.32575
 H208 H 0.06841 0.34989 0.36063
 H209 H 0.15146 0.41968 0.37861
 H210 H 0.18891 0.38314 0.34498
 H211 H 0.05654 0.40543 0.38930
 H212 H 0.11967 0.43175 0.42240
 H213 H 0.10826 0.48613 0.45258
 H214 H 0.07187 0.52104 0.48837
 H215 H -0.01238 0.45385 0.46750
 H216 H 0.02409 0.41906 0.43171
 C217 C 0.61093 -0.17146 0.33824
 C218 C 0.58983 -0.15042 0.35807
 C219 C 0.60248 -0.12052 0.37330
 C220 C 0.63697 -0.11231 0.36851
 C221 C 0.65804 -0.13333 0.34866
 C222 C 0.64531 -0.16318 0.33336
 C223 C 0.57932 -0.09975 0.39504
 C224 C 0.58501 -0.06632 0.40351
 C225 C 0.56265 -0.04620 0.42647
 C226 C 0.57623 -0.01759 0.44283
 C227 C 0.55642 0.00183 0.46510
 C228 C 0.52241 -0.00729 0.47231
 C229 C 0.50834 -0.03450 0.45395
 C230 C 0.52820 -0.05400 0.43173
 H231 H 0.60028 -0.19412 0.32658
 H232 H 0.56346 -0.15751 0.36147
 H233 H 0.64817 -0.09034 0.38067
 H234 H 0.68458 -0.12671 0.34597
 H235 H 0.55682 -0.11292 0.40440
 H236 H 0.60747 -0.05309 0.39419
 H237 H 0.60240 -0.01021 0.43839
 H238 H 0.56789 0.02432 0.47620
 H239 H 0.48177 -0.04083 0.45700
 H240 H 0.51621 -0.07459 0.41831
 C241 C 0.62581 0.32287 -0.16306
 C242 C 0.60419 0.34309 -0.14303
 C243 C 0.61622 0.37274 -0.12694
 C244 C 0.65064 0.38155 -0.13108
 C245 C 0.67224 0.36133 -0.15115
 C246 C 0.66009 0.33175 -0.16732
 C247 C 0.59232 0.39268 -0.10530
 C248 C 0.59747 0.42574 -0.09539
 C249 C 0.57349 0.44486 -0.07323
 C250 C 0.58564 0.47231 -0.05432
 C251 C 0.56401 0.49061 -0.03270
 C252 C 0.52954 0.48145 -0.02888
 C253 C 0.51716 0.45549 -0.04977
 C254 C 0.53877 0.43721 -0.07131
 H255 H 0.61560 0.30044 -0.17543
 H256 H 0.57788 0.33558 -0.14019
 H257 H 0.66135 0.40340 -0.11835
 H258 H 0.69870 0.36839 -0.15343
 H259 H 0.56946 0.37920 -0.09734
 H260 H 0.62036 0.43936 -0.10293
 H261 H 0.61206 0.47961 -0.05621
 H262 H 0.57450 0.51227 -0.01954
 H263 H 0.49050 0.44914 -0.04915
 H264 H 0.52796 0.41762 -0.08679
 C265 C -0.11822 0.14251 -0.17717
 C266 C -0.09651 0.12363 -0.15718
 C267 C -0.10520 0.11722 -0.12438
 C268 C -0.13584 0.13089 -0.11162
 C269 C -0.15761 0.14983 -0.13141
 C270 C -0.14957 0.15623 -0.16491
 C271 C -0.08143 0.09711 -0.10399
 C272 C -0.09156 0.07865 -0.07749
 C273 C -0.06841 0.05814 -0.05680
 C274 C -0.08196 0.03092 -0.03739
 C275 C -0.06153 0.01141 -0.01677
 C276 C -0.02693 0.01946 -0.01385
 C277 C -0.01323 0.04593 -0.03460
 C278 C -0.03370 0.06542 -0.05531
 H279 H -0.10897 0.14748 -0.20180
 H280 H -0.07267 0.11396 -0.16748
 H281 H -0.14314 0.12730 -0.08618
 H282 H -0.18141 0.15780 -0.12006
 H283 H -0.05517 0.09615 -0.11222
 H284 H -0.11831 0.07695 -0.07128
 H285 H -0.10850 0.02431 -0.03851
 H286 H -0.07310 -0.01041 -0.00372
 H287 H 0.01350 0.05186 -0.03440
 H288 H -0.02225 0.08642 -0.06964
 C289 C -0.18340 0.64022 0.37461
 C290 C -0.16367 0.62002 0.39536
 C291 C -0.12939 0.61346 0.38766
 C292 C -0.11534 0.62717 0.35828
 C293 C -0.13508 0.64751 0.33757
 C294 C -0.16932 0.65432 0.34551
 C295 C -0.10977 0.59159 0.41058
 C296 C -0.07584 0.59002 0.41046
 C297 C -0.05674 0.56885 0.43428
 C298 C -0.02297 0.57746 0.43960
 C299 C -0.00431 0.55867 0.46228
 C300 C -0.01913 0.53130 0.48116
 C301 C -0.05229 0.52111 0.47380
 C302 C -0.07090 0.53978 0.45099
 H303 H -0.20986 0.64435 0.38116
 H304 H -0.17530 0.60949 0.41760
 H305 H -0.08935 0.62203 0.35080
 H306 H -0.12339 0.65814 0.31543
 H307 H -0.12419 0.57758 0.42932
 H308 H -0.06116 0.60628 0.39363
 H309 H -0.01100 0.59897 0.42628
 H310 H 0.02181 0.56586 0.46550
 H311 H -0.06393 0.49821 0.48504
 H312 H -0.09607 0.53073 0.44607
 C313 C 0.34077 0.12386 0.32127
 C314 C 0.36065 0.10215 0.34066
 C315 C 0.37730 0.11592 0.36738
 C316 C 0.37333 0.15187 0.37462
 C317 C 0.35321 0.17349 0.35540
 C318 C 0.33667 0.15971 0.32857
 C319 C 0.39701 0.09184 0.38817
 C320 C 0.42315 0.10248 0.40556
 C321 C 0.44206 0.07879 0.42740
 C322 C 0.47575 0.08654 0.43382
 C323 C 0.49390 0.06571 0.45540
 C324 C 0.47838 0.03751 0.47261
 C325 C 0.44495 0.02886 0.46468
 C326 C 0.42690 0.04952 0.44286
 H327 H 0.32796 0.11243 0.30099
 H328 H 0.36299 0.07449 0.33481
 H329 H 0.38498 0.16323 0.39555
 H330 H 0.35058 0.20105 0.36153
 H331 H 0.39039 0.06426 0.38811
 H332 H 0.43194 0.12930 0.40299
 H333 H 0.48819 0.10868 0.42188
 H334 H 0.52014 0.07202 0.45915
 H335 H 0.43253 0.00594 0.47504
 H336 H 0.40090 0.04274 0.43862
 C337 C 0.32593 0.64606 -0.13370
 C338 C 0.34431 0.62355 -0.11379
 C339 C 0.37818 0.61516 -0.12167
 C340 C 0.39315 0.62937 -0.15044
 C341 C 0.37476 0.65200 -0.17034
 C342 C 0.34097 0.66071 -0.16214
 C343 C 0.39642 0.59103 -0.09961
 C344 C 0.43024 0.58826 -0.09906
 C345 C 0.44813 0.56523 -0.07580
 C346 C 0.48185 0.57265 -0.06917
 C347 C 0.49943 0.55213 -0.04694
 C348 C 0.48358 0.52403 -0.02988
 C349 C 0.45043 0.51518 -0.03853
 C350 C 0.43287 0.53566 -0.06087
 H351 H 0.29974 0.65161 -0.12702
 H352 H 0.33198 0.61269 -0.09203
 H353 H 0.41883 0.62285 -0.15805
 H354 H 0.38712 0.66291 -0.19203
 H355 H 0.38112 0.57648 -0.08189
 H356 H 0.44576 0.60502 -0.11473
 H357 H 0.49463 0.59460 -0.08107
 H358 H 0.52553 0.55854 -0.04261
 H359 H 0.43801 0.49200 -0.02873
 H360 H 0.40766 0.52765 -0.06686
 C361 C -0.14858 -0.18919 0.13387
 C362 C -0.12580 -0.17033 0.11387
 C363 C -0.11157 -0.13902 0.12459
 C364 C -0.11982 -0.12744 0.15632
 C365 C -0.14259 -0.14625 0.17643
 C366 C -0.15779 -0.17746 0.16559
 C367 C -0.08809 -0.11960 0.10209
 C368 C -0.08204 -0.08504 0.10449
 C369 C -0.06066 -0.06516 0.08047
 C370 C -0.06584 -0.02884 0.07735
 C371 C -0.04717 -0.00930 0.05425
 C372 C -0.02317 -0.02557 0.03294
 C373 C -0.01623 -0.06165 0.03807
 C374 C -0.03497 -0.08123 0.06120
 H375 H -0.15784 -0.21367 0.12445
 H376 H -0.11939 -0.18025 0.08974
 H377 H -0.10871 -0.10392 0.16593
 H378 H -0.14901 -0.13513 0.20001
 H379 H -0.07740 -0.13398 0.08151
 H380 H -0.09518 -0.06992 0.12326
 H381 H -0.08477 -0.01555 0.09254
 H382 H -0.05196 0.01872 0.05248
 H383 H 0.00402 -0.07497 0.02474
 H384 H -0.02877 -0.10878 0.06428
 C385 C -0.13413 0.31548 0.63117
 C386 C -0.11267 0.33591 0.61118
 C387 C -0.10455 0.37038 0.61992
 C388 C -0.11774 0.38375 0.64966
 C389 C -0.13926 0.36331 0.66964
 C390 C -0.14784 0.32901 0.66056
 C391 C -0.08178 0.39101 0.59771
 C392 C -0.08010 0.42626 0.59779
 C393 C -0.05828 0.44671 0.57458
 C394 C -0.06630 0.48208 0.56868
 C395 C -0.04675 0.50213 0.54663
 C396 C -0.01902 0.48717 0.52905
 C397 C -0.00973 0.45226 0.53692
 C398 C -0.02924 0.43225 0.55906
 H399 H -0.13969 0.28892 0.62377
 H400 H -0.10253 0.32478 0.58864
 H401 H -0.11132 0.40974 0.65788
 H402 H -0.14949 0.37455 0.69207
 H403 H -0.06739 0.37642 0.57939
 H404 H -0.09675 0.44110 0.61406
 H405 H -0.08792 0.49426 0.58106
 H406 H -0.05354 0.52947 0.54293
 H407 H 0.01304 0.44033 0.52665
 H408 H -0.02090 0.40576 0.56446
 C409 C 0.36221 -0.17678 0.62809
 C410 C 0.38334 -0.15739 0.60686
 C411 C 0.39193 -0.12260 0.61406
 C412 C 0.37959 -0.10789 0.64357
 C413 C 0.35841 -0.12729 0.66480
 C414 C 0.34928 -0.16188 0.65722
 C415 C 0.41426 -0.10307 0.59054
 C416 C 0.41609 -0.06783 0.58925
 C417 C 0.43762 -0.04823 0.56509
 C418 C 0.43037 -0.01264 0.55934
 C419 C 0.44999 0.00695 0.53700
 C420 C 0.47703 -0.00864 0.51890
 C421 C 0.48538 -0.04393 0.52627
 C422 C 0.46580 -0.06351 0.54875
 H423 H 0.35625 -0.20360 0.62182
 H424 H 0.39282 -0.16957 0.58455
 H425 H 0.38643 -0.08162 0.65066
 H426 H 0.34881 -0.11500 0.68698
 H427 H 0.42819 -0.11853 0.57255
 H428 H 0.39987 -0.05231 0.60536
 H429 H 0.40944 0.00016 0.57226
 H430 H 0.44396 0.03454 0.53370
 H431 H 0.50760 -0.05645 0.51546
 H432 H 0.47356 -0.09025 0.55383
 C433 C 0.34466 0.38167 0.17068
 C434 C 0.36485 0.40409 0.15131
 C435 C 0.37811 0.39303 0.12091
 C436 C 0.37019 0.35912 0.10999
 C437 C 0.35002 0.33670 0.12938
 C438 C 0.33703 0.34769 0.15995
 C439 C 0.39896 0.41796 0.10096
 C440 C 0.42115 0.40771 0.07742
 C441 C 0.44209 0.43231 0.05719
 C442 C 0.47104 0.41910 0.04081
 C443 C 0.49109 0.44080 0.02068
 C444 C 0.48210 0.47634 0.01524
 C445 C 0.45381 0.48980 0.03307
 C446 C 0.43370 0.46805 0.05318
 H447 H 0.33454 0.39119 0.19384
 H448 H 0.37017 0.43020 0.16015
 H449 H 0.37893 0.34989 0.08630
 H450 H 0.34473 0.31064 0.12046
 H451 H 0.39684 0.44552 0.10711
 H452 H 0.42542 0.37992 0.07341
 H453 H 0.47848 0.39183 0.04392
 H454 H 0.51395 0.42952 0.00994
 H455 H 0.44693 0.51732 0.03094
 H456 H 0.41143 0.47938 0.06502
 C457 C 0.11309 0.17740 0.16197
 C458 C 0.09122 0.15855 0.14261
 C459 C 0.10309 0.12982 0.12410
 C460 C 0.13764 0.12071 0.12500
 C461 C 0.15944 0.13945 0.14451
 C462 C 0.14743 0.16798 0.16320
 C463 C 0.07896 0.11101 0.10348
 C464 C 0.08435 0.07831 0.09220
 C465 C 0.06080 0.05911 0.07123
 C466 C 0.06609 0.02296 0.06672
 C467 C 0.04549 0.00375 0.04650
 C468 C 0.01941 0.02019 0.02920
 C469 C 0.01320 0.05627 0.03505
 C470 C 0.03395 0.07556 0.05521
 H471 H 0.10305 0.19914 0.17628
 H472 H 0.06484 0.16634 0.14222
 H473 H 0.14826 0.09970 0.11023
 H474 H 0.18594 0.13209 0.14443
 H475 H 0.05547 0.12444 0.09868
 H476 H 0.10671 0.06407 0.09935
 H477 H 0.08627 0.00939 0.07897
 H478 H 0.05019 -0.02420 0.04395
 H479 H -0.00791 0.06988 0.02452
 H480 H 0.02877 0.10334 0.05780
 C481 C 0.17817 0.63074 0.65208
 C482 C 0.15882 0.60961 0.63229
 C483 C 0.12422 0.61649 0.62866
 C484 C 0.10925 0.64489 0.64581
 C485 C 0.12872 0.66620 0.66546
 C486 C 0.16337 0.65933 0.66877
 C487 C 0.10506 0.59299 0.60725
 C488 C 0.07407 0.60017 0.59644
 C489 C 0.05598 0.57684 0.57404
 C490 C 0.02946 0.59098 0.55617
 C491 C 0.01215 0.57025 0.53430
 C492 C 0.02155 0.53481 0.52889
 C493 C 0.04663 0.52023 0.54872
 C494 C 0.06377 0.54088 0.57072
 H495 H 0.20490 0.62501 0.65393
 H496 H 0.17105 0.58788 0.61955
 H497 H 0.08254 0.65067 0.64467
 H498 H 0.11656 0.68773 0.67851
 H499 H 0.11807 0.56946 0.59890
 H500 H 0.06193 0.62491 0.60253
 H501 H 0.02203 0.61828 0.55914
 H502 H -0.00891 0.58218 0.52215
 H503 H 0.05314 0.49259 0.54697
 H504 H 0.08263 0.52826 0.58536
 C505 C 0.68113 0.12042 0.64582
 C506 C 0.66120 0.10070 0.62531
 C507 C 0.62649 0.10790 0.62290
 C508 C 0.61196 0.13490 0.64220
 C509 C 0.63197 0.15478 0.66257
 C510 C 0.66678 0.14786 0.66447
 C511 C 0.60664 0.08627 0.60042
 C512 C 0.57595 0.09535 0.58991
 C513 C 0.55683 0.07421 0.56648
 C514 C 0.53012 0.09031 0.55023
 C515 C 0.51163 0.07170 0.52767
 C516 C 0.51997 0.03651 0.51986
 C517 C 0.54534 0.01989 0.53797
 C518 C 0.56368 0.03842 0.56067
 H519 H 0.70793 0.11465 0.64662
 H520 H 0.67307 0.07995 0.61095
 H521 H 0.58518 0.14064 0.64215
 H522 H 0.62012 0.17532 0.67718
 H523 H 0.61890 0.06279 0.59099
 H524 H 0.56481 0.12022 0.59721
 H525 H 0.52341 0.11749 0.55508
 H526 H 0.49047 0.08500 0.51687
 H527 H 0.55109 -0.00773 0.53440
 H528 H 0.58268 0.02425 0.57391
 C529 C 0.67207 0.61541 0.15341
 C530 C 0.65375 0.59420 0.13276
 C531 C 0.61937 0.60095 0.12768
 C532 C 0.60348 0.62910 0.14445
 C533 C 0.62192 0.65049 0.16491
 C534 C 0.65642 0.64395 0.16950
 C535 C 0.60137 0.57782 0.10497
 C536 C 0.57141 0.58581 0.09222
 C537 C 0.55447 0.56357 0.06807
 C538 C 0.52865 0.57866 0.04989
 C539 C 0.51240 0.55924 0.02633
 C540 C 0.52220 0.52421 0.01943
 C541 C 0.54651 0.50852 0.03946
 C542 C 0.56263 0.52788 0.06318
 H543 H 0.69871 0.60989 0.15631
 H544 H 0.66664 0.57264 0.12039
 H545 H 0.57683 0.63468 0.14231
 H546 H 0.60908 0.67192 0.17752
 H547 H 0.61457 0.55419 0.09722
 H548 H 0.55938 0.61069 0.09799
 H549 H 0.52093 0.60571 0.05393
 H550 H 0.49182 0.57187 0.01401
 H551 H 0.55323 0.48104 0.03650
 H552 H 0.58099 0.51447 0.07780
   
