data_POSCAR
  _audit_creation_date              2014-09-24
  _audit_creation_method            'ToBaCCo'
  _symmetry_space_group_name_H-M    'P1'
  _symmetry_Int_Tables_number       1
  _symmetry_cell_setting            triclinic
  loop_
  _symmetry_equiv_pos_as_xyz
 x,y,z
_cell_length_a 49.6997
_cell_length_b 49.5101
_cell_length_c 49.4943
_cell_angle_alpha 89.965800
_cell_angle_beta 89.955900
_cell_angle_gamma 89.988200
loop_
  _atom_site_label
  _atom_site_type_symbol
  _atom_site_fract_x
  _atom_site_fract_y
  _atom_site_fract_z
C1 C 0.20794 1.23099 0.18643
 C2 C 0.22809 1.21116 0.18662
 C3 C 0.22827 1.19161 0.20657
 C4 C 0.20825 1.19160 0.22656
 C5 C 0.18846 1.21109 0.22632
 C6 C 0.18832 1.23098 0.20611
 C7 C 0.20191 1.25148 0.16869
 N8 N 0.17889 1.26417 0.17692
 C9 C 0.17067 1.25148 0.20004
 C10 C 0.17101 1.20527 0.24709
 N11 N 0.17954 1.18251 0.26019
 C12 C 0.20254 1.17424 0.24748
 C13 C 0.24912 1.17422 0.20089
 N14 N 0.26160 1.18269 0.17793
 C15 C 0.24881 1.20533 0.16913
 H16 H 0.21365 1.25618 0.15094
 H17 H 0.15270 1.25585 0.21152
 H18 H 0.15326 1.21698 0.25169
 H19 H 0.21421 1.15644 0.25216
 H20 H 0.25414 1.15615 0.21212
 H21 H 0.25398 1.21667 0.15116
 C22 C 0.79245 0.77244 0.18972
 C23 C 0.77265 0.79264 0.19005
 C24 C 0.77323 0.81245 0.20972
 C25 C 0.79356 0.81228 0.22936
 C26 C 0.81299 0.79243 0.22899
 C27 C 0.81242 0.77234 0.20901
 C28 C 0.79772 0.75153 0.17224
 N29 N 0.82062 0.73849 0.18024
 C30 C 0.82953 0.75139 0.20295
 C31 C 0.83088 0.79813 0.24937
 N32 N 0.82298 0.82117 0.26236
 C33 C 0.79993 0.82974 0.24997
 C34 C 0.75258 0.83013 0.20428
 N35 N 0.73944 0.82157 0.18175
 C36 C 0.75163 0.79859 0.17298
 H37 H 0.78575 0.74702 0.15461
 H38 H 0.84736 0.74656 0.21443
 H39 H 0.84847 0.78614 0.25381
 H40 H 0.78867 0.84781 0.25464
 H41 H 0.74766 0.84802 0.21581
 H42 H 0.74627 0.78750 0.15493
 C43 C 0.79257 1.22427 -0.18828
 C44 C 0.77277 1.20408 -0.18833
 C45 C 0.77320 1.18419 -0.20791
 C46 C 0.79338 1.18426 -0.22773
 C47 C 0.81276 1.20414 -0.22769
 C48 C 0.81236 1.22432 -0.20780
 C49 C 0.79794 1.24528 -0.17097
 N50 N 0.82070 1.25837 -0.17931
 C51 C 0.82944 1.24538 -0.20205
 C52 C 0.83041 1.19840 -0.24831
 N53 N 0.82242 1.17529 -0.26109
 C54 C 0.79955 1.16672 -0.24834
 C55 C 0.75259 1.16654 -0.20218
 N56 N 0.73963 1.17520 -0.17958
 C57 C 0.75189 1.19822 -0.17103
 H58 H 0.78588 1.25013 -0.15347
 H59 H 0.84734 1.25000 -0.21353
 H60 H 0.84818 1.21014 -0.25274
 H61 H 0.78797 1.14890 -0.25311
 H62 H 0.74759 1.14859 -0.21358
 H63 H 0.74667 1.20940 -0.15298
 C64 C 0.20587 0.77313 -0.18606
 C65 C 0.22620 0.79278 -0.18563
 C66 C 0.22703 0.81247 -0.20543
 C67 C 0.20750 0.81282 -0.22587
 C68 C 0.18757 0.79349 -0.22627
 C69 C 0.18672 0.77350 -0.20617
 C70 C 0.19933 0.75243 -0.16873
 N71 N 0.17644 0.74000 -0.17764
 C72 C 0.16882 0.75304 -0.20075
 C73 C 0.17080 0.79950 -0.24750
 N74 N 0.17987 0.82224 -0.26027
 C75 C 0.20252 0.83031 -0.24687
 C76 C 0.24800 0.82952 -0.19925
 N77 N 0.25992 0.82070 -0.17614
 C78 C 0.24665 0.79818 -0.16773
 H79 H 0.21036 0.74772 -0.15054
 H80 H 0.15143 0.74856 -0.21302
 H81 H 0.15283 0.78825 -0.25236
 H82 H 0.21479 0.84771 -0.25152
 H83 H 0.25353 0.84756 -0.21029
 H84 H 0.25136 0.78661 -0.14979
 C85 C 0.52165 1.04806 -0.01920
 H86 H 0.50723 1.05817 -0.00638
 C87 C 0.53949 1.06338 -0.03474
 H88 H 0.53822 1.08520 -0.03410
 C89 C 0.54113 1.00747 -0.03534
 H90 H 0.54183 0.98563 -0.03510
 C91 C 0.55931 1.02197 -0.05120
 H92 H 0.57410 1.01111 -0.06303
 N93 N 0.52267 1.02062 -0.01990
 C94 C 0.47849 1.02068 0.05100
 H95 H 0.49287 1.00778 0.06105
 C96 C 0.46085 1.03636 0.06639
 H97 H 0.46222 1.03573 0.08821
 C98 C 0.45893 1.03691 0.01047
 H99 H 0.45811 1.03665 -0.01137
 C100 C 0.44094 1.05291 0.02505
 H101 H 0.42618 1.06482 0.01424
 Zn102 Zn 0.49987 0.99926 0.00207
 N103 N 0.47734 1.02137 0.02355
 C104 C 0.54097 0.99057 0.03946
 N105 N 0.52238 0.97763 0.02405
 C106 C 0.52108 0.95020 0.02332
 C107 C 0.53878 0.93468 0.03880
 C108 C 0.55903 0.97586 0.05527
 C109 C 0.47831 0.97822 -0.04688
 C110 C 0.46046 0.96286 -0.06232
 C111 C 0.44028 0.94643 -0.02104
 C112 C 0.45848 0.96212 -0.00640
 N113 N 0.47711 0.97745 -0.01943
 H114 H 0.54191 1.01240 0.03924
 H115 H 0.50656 0.94026 0.01052
 H116 H 0.53730 0.91288 0.03813
 H117 H 0.57395 0.98656 0.06706
 H118 H 0.49286 0.99096 -0.05689
 H119 H 0.46186 0.96356 -0.08414
 H120 H 0.42534 0.93470 -0.01027
 H121 H 0.45764 0.96231 0.01544
 C122 C 0.44171 1.05274 0.05342
 C123 C 0.55868 1.05034 -0.05100
 C124 C 0.44107 0.94673 -0.04940
 C125 C 0.55813 0.94751 0.05502
 C126 C -0.01292 0.54061 1.03632
 H127 H 0.00882 0.54158 1.03617
 C128 C -0.02765 0.55848 1.05235
 H129 H -0.01704 0.57328 1.06440
 C130 C -0.05307 0.52085 1.01974
 H131 H -0.06292 0.50647 1.00667
 C132 C -0.06860 0.53837 1.03544
 H133 H -0.09032 0.53689 1.03467
 N134 N -0.02574 0.52218 1.02057
 C135 C 0.03365 0.45904 1.00600
 H136 H 0.03361 0.45875 0.98414
 C137 C 0.04958 0.44074 1.02028
 H138 H 0.06209 0.42665 1.00923
 C139 C 0.01724 0.47781 1.04684
 H140 H 0.00417 0.49188 1.05712
 C141 C 0.03287 0.45986 1.06195
 H142 H 0.03163 0.46035 1.08378
 Zn143 Zn -0.00410 0.50002 0.99826
 N144 N 0.01803 0.47718 1.01938
 C145 C 0.04440 0.52258 0.97749
 N146 N 0.01705 0.52333 0.97664
 C147 C 0.00386 0.54196 0.96141
 C148 C 0.01821 0.56065 0.94598
 C149 C 0.05957 0.54091 0.96235
 C150 C -0.04091 0.45846 0.98928
 C151 C -0.05643 0.44025 0.97445
 C152 C -0.04014 0.46101 0.93339
 C153 C -0.02495 0.47885 0.94902
 N154 N -0.02572 0.47736 0.97646
 H155 H 0.05454 0.50812 0.99027
 H156 H -0.01791 0.54235 0.96141
 H157 H 0.00730 0.57514 0.93379
 H158 H 0.08130 0.54030 0.96366
 H159 H -0.04073 0.45739 1.01111
 H160 H -0.06804 0.42508 0.98506
 H161 H -0.03943 0.46262 0.91158
 H162 H -0.01231 0.49362 0.93917
 C163 C 0.04925 0.44092 1.04866
 C164 C -0.05589 0.55756 1.05198
 C165 C -0.05611 0.44133 0.94610
 C166 C 0.04647 0.56035 0.94640
 C167 C 1.04181 -0.00830 0.53978
 H168 H 1.04154 0.01352 0.54082
 C169 C 1.05765 -0.02307 0.55778
 H170 H 1.06944 -0.01241 0.57275
 C171 C 1.02565 -0.04862 0.51976
 H172 H 1.01279 -0.05853 0.50526
 C173 C 1.04117 -0.06419 0.53740
 H174 H 1.04048 -0.08599 0.53586
 N175 N 1.02632 -0.02119 0.52119
 C176 C 1.01138 0.03858 0.45826
 H177 H 0.98962 0.03834 0.45799
 C178 C 1.02546 0.05462 0.43988
 H179 H 1.01434 0.06704 0.42576
 C180 C 1.05221 0.02245 0.47699
 H181 H 1.06256 0.00941 0.49107
 C182 C 1.06711 0.03820 0.45895
 H183 H 1.08886 0.03710 0.45938
 Zn184 Zn 1.00399 0.00042 0.49903
 N185 N 1.02485 0.02300 0.47639
 C186 C 0.98250 0.04867 0.52179
 N187 N 0.98207 0.02120 0.52236
 C188 C 0.96699 0.00758 0.54080
 C189 C 0.95127 0.02160 0.55949
 C190 C 0.96706 0.06352 0.54013
 C191 C 0.99572 -0.03639 0.45721
 C192 C 0.98125 -0.05200 0.43880
 C193 C 0.94004 -0.03632 0.45942
 C194 C 0.95532 -0.02098 0.47745
 N195 N 0.98265 -0.02141 0.47613
 H196 H 0.99515 0.05915 0.50747
 H197 H 0.96731 -0.01427 0.54103
 H198 H 0.93920 0.01035 0.57381
 H199 H 0.96801 0.08536 0.53967
 H200 H 1.01747 -0.03606 0.45638
 H201 H 0.99207 -0.06399 0.42408
 H202 H 0.91830 -0.03536 0.46048
 H203 H 0.94527 -0.00840 0.49215
 C204 C 1.05372 0.05446 0.43996
 C205 C 1.05737 -0.05142 0.55682
 C206 C 0.95300 -0.05202 0.43969
 C207 C 0.95124 0.04997 0.55938
 C208 C 0.13815 0.32674 1.13627
 C209 C 0.12905 0.31786 1.16143
 C210 C 0.14272 0.29734 1.17515
 C211 C 0.16591 0.28504 1.16390
 C212 C 0.17500 0.29477 1.13856
 C213 C 0.16122 0.31529 1.12496
 C214 C 0.12341 0.34707 1.12168
 C215 C 0.11086 0.36376 1.10919
 C216 C 0.09564 0.38326 1.09398
 C217 C 0.09378 0.41004 1.10286
 C218 C 0.07876 0.42885 1.08811
 C219 C 0.06543 0.42110 1.06426
 C220 C 0.06748 0.39413 1.05552
 C221 C 0.08248 0.37538 1.07029
 H222 H 0.11121 0.32668 1.17043
 H223 H 0.13479 0.29144 1.19457
 H224 H 0.19245 0.28648 1.12860
 H225 H 0.16844 0.32202 1.10542
 H226 H 0.10393 0.41637 1.12115
 H227 H 0.07781 0.44951 1.09520
 H228 H 0.05713 0.38742 1.03749
 H229 H 0.08371 0.35468 1.06330
 C230 C -0.14118 0.67405 1.14000
 C231 C -0.12961 0.68522 1.16312
 C232 C -0.14238 0.70638 1.17671
 C233 C -0.16715 0.71705 1.16738
 C234 C -0.17868 0.70507 1.14412
 C235 C -0.16578 0.68390 1.13064
 C236 C -0.12744 0.65296 1.12550
 C237 C -0.11566 0.63560 1.11318
 C238 C -0.10128 0.61525 1.09826
 C239 C -0.07836 0.60318 1.10937
 C240 C -0.06377 0.58417 1.09448
 C241 C -0.07193 0.57699 1.06822
 C242 C -0.09519 0.58903 1.05736
 C243 C -0.10974 0.60804 1.07229
 H244 H -0.11051 0.67772 1.17055
 H245 H -0.13229 0.71430 1.19428
 H246 H -0.19765 0.71175 1.13593
 H247 H -0.17496 0.67533 1.11274
 H248 H -0.07165 0.60861 1.12947
 H249 H -0.04615 0.57502 1.10353
 H250 H -0.10179 0.58422 1.03708
 H251 H -0.12738 0.61737 1.06344
 C252 C -0.14090 0.32329 0.85983
 C253 C -0.16369 0.31143 0.87129
 C254 C -0.17667 0.29008 0.85821
 C255 C -0.16705 0.27994 0.83324
 C256 C -0.14413 0.29261 0.82184
 C257 C -0.13127 0.31396 0.83504
 C258 C -0.12703 0.34460 0.87384
 C259 C -0.11519 0.36215 0.88580
 C260 C -0.10081 0.38275 0.90034
 C261 C -0.11214 0.39439 0.92346
 C262 C -0.09776 0.41368 0.93817
 C263 C -0.07181 0.42157 0.92994
 C264 C -0.06073 0.40996 0.90649
 C265 C -0.07514 0.39067 0.89182
 H266 H -0.17131 0.31851 0.89054
 H267 H -0.19394 0.28154 0.86827
 H268 H -0.13582 0.28640 0.80270
 H269 H -0.11363 0.32308 0.82593
 H270 H -0.13201 0.38843 0.93022
 H271 H -0.10698 0.42249 0.95593
 H272 H -0.04067 0.41532 0.89984
 H273 H -0.06612 0.38168 0.87403
 C274 C 0.13497 0.67679 0.86128
 C275 C 0.15980 0.68548 0.87114
 C276 C 0.17377 0.70624 0.85809
 C277 C 0.16313 0.71896 0.83478
 C278 C 0.13809 0.70945 0.82494
 C279 C 0.12424 0.68869 0.83810
 C280 C 0.12015 0.65613 0.87534
 C281 C 0.10749 0.63914 0.88731
 C282 C 0.09213 0.61923 0.90184
 C283 C 0.10085 0.59237 0.90293
 C284 C 0.08598 0.57316 0.91732
 C285 C 0.06216 0.58060 0.93080
 C286 C 0.05355 0.60765 0.92951
 C287 C 0.06845 0.62680 0.91513
 H288 H 0.16834 0.67632 0.88907
 H289 H 0.19291 0.71197 0.86659
 H290 H 0.12858 0.71807 0.80737
 H291 H 0.10496 0.68211 0.83031
 H292 H 0.11913 0.58628 0.89266
 H293 H 0.09296 0.55245 0.91768
 H294 H 0.03554 0.61411 0.94000
 H295 H 0.06157 0.64756 0.91451
 C296 C 1.13995 0.14256 0.32400
 C297 C 1.12847 0.16546 0.31226
 C298 C 1.14171 0.17899 0.29133
 C299 C 1.16687 0.16980 0.28147
 C300 C 1.17831 0.14680 0.29406
 C301 C 1.16494 0.13339 0.31499
 C302 C 1.12567 0.12802 0.34472
 C303 C 1.11341 0.11562 0.36170
 C304 C 1.09841 0.10056 0.38151
 C305 C 1.07480 0.08720 0.37391
 C306 C 1.06024 0.07232 0.39293
 C307 C 1.06910 0.07058 0.41988
 C308 C 1.09286 0.08412 0.42734
 C309 C 1.10740 0.09903 0.40826
 H310 H 1.10905 0.17273 0.31909
 H311 H 1.13163 0.19631 0.28286
 H312 H 1.19760 0.13881 0.28806
 H313 H 1.17407 0.11567 0.32402
 H314 H 1.06772 0.08816 0.35324
 H315 H 1.04228 0.06179 0.38644
 H316 H 1.10004 0.08341 0.44798
 H317 H 1.12564 0.10934 0.41436
 C318 C 1.14238 -0.13790 0.67467
 C319 C 1.13275 -0.16286 0.68351
 C320 C 1.14533 -0.17630 0.70488
 C321 C 1.16795 -0.16497 0.71810
 C322 C 1.17760 -0.13983 0.70844
 C323 C 1.16489 -0.12650 0.68706
 C324 C 1.12870 -0.12365 0.65337
 C325 C 1.11691 -0.11159 0.63582
 C326 C 1.10245 -0.09706 0.61526
 C327 C 1.07673 -0.10554 0.60756
 C328 C 1.06220 -0.09091 0.58831
 C329 C 1.07323 -0.06752 0.57651
 C330 C 1.09923 -0.05931 0.58419
 C331 C 1.11373 -0.07400 0.60344
 H332 H 1.11533 -0.17193 0.67397
 H333 H 1.13707 -0.19560 0.71067
 H334 H 1.19464 -0.12981 0.71746
 H335 H 1.17250 -0.10710 0.68037
 H336 H 1.06776 -0.12329 0.61668
 H337 H 1.04210 -0.09754 0.58314
 H338 H 1.10839 -0.04159 0.57525
 H339 H 1.13364 -0.06726 0.60925
 C340 C 0.86425 -0.13901 0.32506
 C341 C 0.83922 -0.12955 0.31647
 C342 C 0.82530 -0.14291 0.29590
 C343 C 0.83621 -0.16614 0.28327
 C344 C 0.86143 -0.17560 0.29269
 C345 C 0.87522 -0.16213 0.31326
 C346 C 0.87903 -0.12459 0.34546
 C347 C 0.89168 -0.11231 0.36220
 C348 C 0.90707 -0.09741 0.38178
 C349 C 0.93032 -0.08367 0.37371
 C350 C 0.94529 -0.06899 0.39254
 C351 C 0.93719 -0.06785 0.41977
 C352 C 0.91378 -0.08176 0.42770
 C353 C 0.89884 -0.09646 0.40881
 H354 H 0.83049 -0.11167 0.32555
 H355 H 0.80601 -0.13471 0.29023
 H356 H 0.87113 -0.19310 0.28414
 H357 H 0.89465 -0.16962 0.31977
 H358 H 0.93682 -0.08418 0.35281
 H359 H 0.96296 -0.05817 0.38571
 H360 H 0.90719 -0.08152 0.44856
 H361 H 0.88089 -0.10707 0.41528
 C362 C 0.86313 0.13568 0.67564
 C363 C 0.87210 0.16078 0.68475
 C364 C 0.85845 0.17414 0.70553
 C365 C 0.83541 0.16259 0.71784
 C366 C 0.82647 0.13731 0.70790
 C367 C 0.84023 0.12407 0.68713
 C368 C 0.87782 0.12148 0.65499
 C369 C 0.89030 0.10930 0.63802
 C370 C 0.90541 0.09443 0.61816
 C371 C 0.91906 0.07090 0.62570
 C372 C 0.93390 0.05642 0.60659
 C373 C 0.93529 0.06530 0.57961
 C374 C 0.92147 0.08900 0.57221
 C375 C 0.90662 0.10345 0.59138
 H376 H 0.88981 0.17000 0.67592
 H377 H 0.86628 0.19352 0.71161
 H378 H 0.80915 0.12713 0.71618
 H379 H 0.83312 0.10458 0.68021
 H380 H 0.91835 0.06380 0.64640
 H381 H 0.94463 0.03851 0.61302
 H382 H 0.92190 0.09618 0.55155
 H383 H 0.89607 0.12162 0.58532
 C384 C 0.32565 1.14163 0.13816
 C385 C 0.32282 1.13969 0.16622
 C386 C 0.30194 1.15337 0.17934
 C387 C 0.28359 1.16918 0.16453
 C388 C 0.28679 1.17116 0.13634
 C389 C 0.30765 1.15746 0.12327
 C390 C 0.34660 1.12692 0.12450
 C391 C 0.36386 1.11444 0.11278
 C392 C 0.38411 1.09936 0.09847
 C393 C 0.39127 1.07346 0.10721
 C394 C 0.41024 1.05840 0.09276
 C395 C 0.42226 1.06907 0.06931
 C396 C 0.41511 1.09525 0.06086
 C397 C 0.39615 1.11027 0.07535
 H398 H 0.33666 1.12751 0.17795
 H399 H 0.30025 1.15170 0.20107
 H400 H 0.27282 1.18280 0.12428
 H401 H 0.30958 1.15899 0.10152
 H402 H 0.38197 1.06477 0.12500
 H403 H 0.41503 1.03819 0.09958
 H404 H 0.42426 1.10415 0.04310
 H405 H 0.39076 1.13032 0.06842
 C406 C 0.67550 1.13506 -0.13899
 C407 C 0.67816 1.16313 -0.13700
 C408 C 0.69908 1.17636 -0.15052
 C409 C 0.71763 1.16168 -0.16622
 C410 C 0.71460 1.13348 -0.16825
 C411 C 0.69369 1.12030 -0.15471
 C412 C 0.65448 1.12130 -0.12446
 C413 C 0.63716 1.10954 -0.11211
 C414 C 0.61681 1.09522 -0.09716
 C415 C 0.60949 1.10391 -0.07128
 C416 C 0.59037 1.08950 -0.05637
 C417 C 0.57834 1.06615 -0.06716
 C418 C 0.58566 1.05773 -0.09332
 C419 C 0.60477 1.07219 -0.10819
 H420 H 0.66416 1.17476 -0.12491
 H421 H 0.70063 1.19809 -0.14882
 H422 H 0.72872 1.12151 -0.17980
 H423 H 0.69189 1.09855 -0.15628
 H424 H 0.61878 1.12164 -0.06250
 H425 H 0.58545 1.09629 -0.03617
 H426 H 0.57652 1.04005 -0.10231
 H427 H 0.61028 1.06530 -0.12822
 C428 C 0.32407 0.86029 -0.13519
 C429 C 0.30557 0.84470 -0.12066
 C430 C 0.28465 0.83148 -0.13411
 C431 C 0.28193 0.83371 -0.16233
 C432 C 0.30079 0.84927 -0.17677
 C433 C 0.32171 0.86246 -0.16327
 C434 C 0.34510 0.87451 -0.12117
 C435 C 0.36244 0.88661 -0.10922
 C436 C 0.38282 0.90130 -0.09473
 C437 C 0.39462 0.89008 -0.07165
 C438 C 0.41377 0.90471 -0.05705
 C439 C 0.42137 0.93081 -0.06536
 C440 C 0.40956 0.94180 -0.08875
 C441 C 0.39041 0.92714 -0.10331
 H442 H 0.30714 0.84298 -0.09889
 H443 H 0.27030 0.82002 -0.12233
 H444 H 0.29947 0.85112 -0.19851
 H445 H 0.33595 0.87446 -0.17472
 H446 H 0.38890 0.87008 -0.06484
 H447 H 0.42273 0.89556 -0.03933
 H448 H 0.41469 0.96197 -0.09547
 H449 H 0.38130 0.93607 -0.12108
 C450 C 0.67501 0.86193 0.14194
 C451 C 0.69332 0.87662 0.15757
 C452 C 0.71432 0.86336 0.17086
 C453 C 0.71733 0.83517 0.16867
 C454 C 0.69866 0.82057 0.15307
 C455 C 0.67765 0.83388 0.13980
 C456 C 0.65391 0.87578 0.12763
 C457 C 0.63653 0.88764 0.11547
 C458 C 0.61614 0.90208 0.10072
 C459 C 0.60430 0.92516 0.11189
 C460 C 0.58521 0.93978 0.09717
 C461 C 0.57770 0.93148 0.07105
 C462 C 0.58951 0.90806 0.06013
 C463 C 0.60862 0.89349 0.07488
 H464 H 0.69153 0.89836 0.15925
 H465 H 0.72852 0.87526 0.18234
 H466 H 0.70020 0.79885 0.15125
 H467 H 0.66357 0.82231 0.12777
 H468 H 0.60997 0.93198 0.13189
 H469 H 0.57624 0.95752 0.10626
 H470 H 0.58445 0.90135 0.03995
 H471 H 0.61776 0.87571 0.06600
   
