data_POSCAR
  _audit_creation_date              2014-09-24
  _audit_creation_method            'ToBaCCo'
  _symmetry_space_group_name_H-M    'P1'
  _symmetry_Int_Tables_number       1
  _symmetry_cell_setting            triclinic
  loop_
  _symmetry_equiv_pos_as_xyz
 x,y,z
_cell_length_a 17.7964
_cell_length_b 17.8204
_cell_length_c 31.3648
_cell_angle_alpha 86.269800
_cell_angle_beta 93.403200
_cell_angle_gamma 57.564100
loop_
  _atom_site_label
  _atom_site_type_symbol
  _atom_site_fract_x
  _atom_site_fract_y
  _atom_site_fract_z
O1 O -0.02299 0.61087 0.95826
 O2 O -0.11135 0.51609 1.03256
 O3 O -0.03402 0.60482 1.04049
 O4 O -0.09881 0.52193 0.94986
 O5 O 0.03356 0.39473 0.96097
 O6 O 0.09832 0.47755 1.05144
 O7 O 0.02102 0.38902 1.04331
 O8 O 0.11004 0.48439 0.96938
 Cu9 Cu -0.08024 0.57605 0.99428
 Cu10 Cu 0.07897 0.42353 1.00735
 C11 C 0.05853 0.56400 0.95132
 C12 C -0.06027 0.43648 1.05070
 C13 C 0.04343 0.55545 1.06118
 C14 C -0.04333 0.44442 0.93985
 O15 O 0.39696 0.03395 0.53968
 O16 O 0.47816 0.10056 0.44858
 O17 O 0.38986 0.02404 0.45739
 O18 O 0.48627 0.11069 0.53142
 O19 O 0.61314 -0.02199 0.54164
 O20 O 0.51679 -0.10865 0.46753
 O21 O 0.60592 -0.03120 0.45914
 O22 O 0.52401 -0.09862 0.54971
 Cu23 Cu 0.42516 0.08074 0.49331
 Cu24 Cu 0.57784 -0.07836 0.50547
 C25 C 0.44641 -0.04386 0.55999
 C26 C 0.55576 0.04597 0.43822
 C27 C 0.43678 -0.05706 0.45000
 C28 C 0.56601 0.05895 0.54925
 C29 C 0.10665 0.01738 0.29119
 H30 H 0.06684 0.08160 0.27188
 C31 C 0.17909 -0.00045 0.31964
 H32 H 0.19489 0.05011 0.32157
 C33 C 0.13398 -0.12600 0.31245
 H34 H 0.11516 -0.17417 0.30979
 C35 C 0.20789 -0.14715 0.34088
 H36 H 0.24537 -0.21166 0.36016
 N37 N 0.08532 -0.04497 0.28816
 C38 C -0.05504 -0.11360 0.19572
 H39 H -0.12385 -0.06120 0.19764
 C40 C -0.03609 -0.18338 0.17132
 H41 H -0.09105 -0.18409 0.15510
 C42 C 0.09974 -0.17604 0.21446
 H43 H 0.15262 -0.17176 0.23036
 C44 C 0.12171 -0.24717 0.19055
 H45 H 0.19161 -0.29695 0.18865
 Zn46 Zn -0.01593 -0.01574 0.25002
 N47 N 0.01251 -0.11165 0.21714
 C48 C 0.00167 0.07328 0.17850
 N49 N -0.04776 0.08618 0.21190
 C50 C -0.11479 0.16963 0.21878
 C51 C -0.13551 0.24413 0.19084
 C52 C -0.01632 0.14592 0.14999
 C53 C -0.09637 -0.01940 0.32492
 C54 C -0.16683 -0.00097 0.34892
 C55 C -0.27017 0.07634 0.28460
 C56 C -0.19756 0.05476 0.26162
 N57 N -0.11264 0.00846 0.28203
 H58 H 0.05548 0.00637 0.17414
 H59 H -0.15124 0.17877 0.24636
 H60 H -0.18840 0.30998 0.19720
 H61 H 0.02343 0.13395 0.12344
 H62 H -0.02882 -0.05575 0.34075
 H63 H -0.15260 -0.02309 0.38306
 H64 H -0.33730 0.11390 0.26789
 H65 H -0.20923 0.07668 0.22756
 C66 C 0.05333 -0.25177 0.16875
 C67 C 0.23079 -0.08366 0.34486
 C68 C -0.25505 0.04826 0.32879
 C69 C -0.08589 0.23275 0.15592
 C70 C -0.05111 0.19737 0.76198
 H71 H -0.07110 0.20920 0.72774
 C72 C -0.07237 0.26960 0.78498
 H73 H -0.10729 0.33643 0.76802
 C74 C 0.01729 0.09636 0.82571
 H75 H 0.05129 0.02905 0.84171
 C76 C -0.00118 0.16641 0.84980
 H77 H 0.01868 0.15201 0.88413
 N78 N -0.00739 0.11267 0.78254
 C79 C 0.17820 -0.09940 0.71486
 H80 H 0.17331 -0.15204 0.73071
 C81 C 0.24945 -0.12172 0.69076
 H82 H 0.29871 -0.19161 0.68869
 C83 C 0.11705 0.05509 0.69632
 H84 H 0.06511 0.12392 0.69831
 C85 C 0.18697 0.03579 0.67174
 H86 H 0.18820 0.09053 0.65551
 Zn87 Zn 0.01775 0.01620 0.75044
 N88 N 0.11432 -0.01216 0.71769
 C89 C -0.07003 -0.00299 0.67942
 N90 N -0.08365 0.04784 0.71214
 C91 C -0.16728 0.11618 0.71805
 C92 C -0.24125 0.13651 0.68989
 C93 C -0.14206 0.01469 0.65069
 C94 C 0.12784 -0.13343 0.81299
 C95 C 0.14911 -0.20741 0.84151
 C96 C 0.00294 -0.17971 0.82001
 C97 C -0.01502 -0.10718 0.79147
 N98 N 0.04701 -0.08526 0.78854
 H99 H -0.00300 -0.05769 0.67578
 H100 H -0.17703 0.15396 0.74506
 H101 H -0.30725 0.19034 0.69558
 H102 H -0.12940 -0.02630 0.62471
 H103 H 0.17571 -0.11410 0.81040
 H104 H 0.21341 -0.24443 0.86094
 H105 H -0.04739 -0.19596 0.82189
 H106 H -0.07910 -0.06771 0.77205
 C107 C 0.25469 -0.05366 0.66890
 C108 C -0.04708 0.25437 0.82944
 C109 C 0.08592 -0.23086 0.84542
 C110 C -0.22912 0.08534 0.65569
 N111 N 0.15408 -0.40670 0.14830
 N112 N 0.15113 -0.45735 0.12016
 C113 C 0.07045 -0.41097 0.09662
 C114 C 0.01958 -0.32722 0.11039
 C115 C 0.07517 -0.32686 0.14326
 H116 H -0.04761 -0.27373 0.09757
 H117 H 0.20928 -0.42755 0.17072
 H118 H 0.20382 -0.52243 0.11717
 N119 N -0.18544 0.38980 0.11982
 N120 N -0.17796 0.44647 0.09003
 C121 C -0.09371 0.40109 0.07917
 C122 C -0.04623 0.31553 0.10114
 C123 C -0.10571 0.31094 0.12628
 H124 H 0.02325 0.26386 0.09953
 H125 H -0.24389 0.40667 0.13346
 H126 H -0.22928 0.51229 0.07893
 N127 N 0.40895 -0.15513 0.64746
 N128 N 0.45934 -0.15225 0.61893
 C129 C 0.41317 -0.07124 0.59566
 C130 C 0.32989 -0.02009 0.61001
 C131 C 0.32953 -0.07580 0.64294
 H132 H 0.27666 0.04744 0.59752
 H133 H 0.42969 -0.21055 0.66977
 H134 H 0.52408 -0.20520 0.61549
 N135 N -0.38663 0.18306 0.61932
 N136 N -0.44028 0.17611 0.59117
 C137 C -0.39575 0.09286 0.57933
 C138 C -0.31000 0.04476 0.60067
 C139 C -0.30667 0.10429 0.62589
 H140 H -0.25819 -0.02437 0.59864
 H141 H -0.40487 0.24135 0.63326
 H142 H -0.50629 0.22758 0.58050
 N143 N 0.18803 -0.37965 0.88946
 N144 N 0.18064 -0.43414 0.91702
 C145 C 0.09345 -0.39700 0.92213
 C146 C 0.04306 -0.31583 0.89658
 C147 C 0.10551 -0.30713 0.87630
 H148 H -0.02881 -0.26913 0.89375
 H149 H 0.24865 -0.39283 0.87966
 H150 H 0.23461 -0.49519 0.93224
 N151 N -0.14067 0.41403 0.84454
 N152 N -0.14034 0.46367 0.87399
 C153 C -0.06810 0.41210 0.90306
 C154 C -0.02065 0.32577 0.89189
 C155 C -0.06894 0.32970 0.85453
 H156 H 0.04084 0.26859 0.90838
 H157 H -0.19007 0.43770 0.81849
 H158 H -0.18849 0.53180 0.87384
 N159 N -0.41241 0.14817 0.34568
 N160 N -0.46469 0.14806 0.37707
 C161 C -0.41419 0.07095 0.40336
 C162 C -0.32948 0.02113 0.38993
 C163 C -0.33093 0.07171 0.35390
 H164 H -0.27392 -0.04366 0.40446
 H165 H -0.43323 0.20038 0.32134
 H166 H -0.53121 0.19901 0.37891
 N167 N 0.38025 -0.18572 0.38824
 N168 N 0.43495 -0.17851 0.41557
 C169 C 0.39748 -0.09155 0.42095
 C170 C 0.31582 -0.04110 0.39582
 C171 C 0.30723 -0.10331 0.37549
 H172 H 0.26881 0.03061 0.39325
 H173 H 0.39366 -0.24613 0.37829
 H174 H 0.49640 -0.23245 0.43044
   
