data_POSCAR
  _audit_creation_date              2014-09-24
  _audit_creation_method            'ToBaCCo'
  _symmetry_space_group_name_H-M    'P1'
  _symmetry_Int_Tables_number       1
  _symmetry_cell_setting            triclinic
  loop_
  _symmetry_equiv_pos_as_xyz
 x,y,z
_cell_length_a 46.7192
_cell_length_b 34.7243
_cell_length_c 36.6642
_cell_angle_alpha 89.983200
_cell_angle_beta 89.994700
_cell_angle_gamma 90.458600
loop_
  _atom_site_label
  _atom_site_type_symbol
  _atom_site_fract_x
  _atom_site_fract_y
  _atom_site_fract_z
C1 C 0.25294 0.26581 0.24545
 C2 C 0.25473 0.22666 0.24414
 C3 C 0.23562 0.20292 0.22066
 C4 C 0.27576 0.20579 0.26702
 C5 C 0.27432 0.28884 0.26609
 C6 C 0.23013 0.28759 0.22628
 C7 C 0.21989 0.17256 0.23596
 C8 C 0.20042 0.15149 0.21491
 C9 C 0.19593 0.16004 0.17747
 C10 C 0.21304 0.18997 0.16221
 C11 C 0.23262 0.21076 0.18342
 C12 C 0.27529 0.20940 0.30513
 C13 C 0.29574 0.19088 0.32648
 C14 C 0.31699 0.16817 0.31015
 C15 C 0.31697 0.16392 0.27197
 C16 C 0.29645 0.18244 0.25063
 C17 C 0.30319 0.28911 0.25557
 C18 C 0.32335 0.31030 0.27550
 C19 C 0.31495 0.33115 0.30648
 C20 C 0.28599 0.33103 0.31680
 C21 C 0.26576 0.31036 0.29649
 C22 C 0.23756 0.31960 0.20477
 C23 C 0.21652 0.34025 0.18634
 C24 C 0.18763 0.32913 0.18887
 C25 C 0.18008 0.29743 0.21070
 C26 C 0.20110 0.27719 0.22972
 H27 H 0.22188 0.16605 0.26474
 H28 H 0.18771 0.13035 0.22939
 H29 H 0.21256 0.19684 0.13349
 H30 H 0.24534 0.23329 0.17076
 H31 H 0.25910 0.22670 0.31830
 H32 H 0.29481 0.19410 0.35583
 H33 H 0.29706 0.17927 0.22126
 H34 H 0.31006 0.27281 0.23200
 H35 H 0.34558 0.30984 0.26718
 H36 H 0.27903 0.34715 0.34043
 H37 H 0.24352 0.31050 0.30483
 H38 H 0.25975 0.32834 0.20186
 H39 H 0.22284 0.36454 0.16955
 H40 H 0.15787 0.28871 0.21345
 H41 H 0.19471 0.25335 0.24702
 H42 H 0.33320 0.14695 0.25853
 C43 C 0.75629 0.23247 0.25755
 C44 C 0.75360 0.27154 0.25731
 C45 C 0.77401 0.29609 0.23664
 C46 C 0.73037 0.29148 0.27741
 C47 C 0.73771 0.20745 0.28045
 C48 C 0.77749 0.21287 0.23395
 C49 C 0.80319 0.29673 0.24570
 C50 C 0.82255 0.31829 0.22483
 C51 C 0.81303 0.33915 0.19440
 C52 C 0.78372 0.33906 0.18585
 C53 C 0.76431 0.31800 0.20707
 C54 C 0.73710 0.32238 0.30064
 C55 C 0.71563 0.34057 0.32062
 C56 C 0.68706 0.32805 0.31785
 C57 C 0.68020 0.29775 0.29398
 C58 C 0.70160 0.28001 0.27352
 C59 C 0.72102 0.17861 0.26396
 C60 C 0.70180 0.15674 0.28467
 C61 C 0.69914 0.16297 0.32242
 C62 C 0.71671 0.19097 0.33910
 C63 C 0.73588 0.21295 0.31830
 C64 C 0.77684 0.21764 0.19595
 C65 C 0.79708 0.19956 0.17393
 C66 C 0.81825 0.17612 0.18947
 C67 C 0.81850 0.17089 0.22752
 C68 C 0.79821 0.18897 0.24953
 H69 H 0.81095 0.28011 0.26861
 H70 H 0.84507 0.31780 0.23180
 H71 H 0.77590 0.35518 0.16266
 H72 H 0.74183 0.31785 0.19983
 H73 H 0.75908 0.33193 0.30386
 H74 H 0.72141 0.36387 0.33889
 H75 H 0.69574 0.25710 0.25487
 H76 H 0.72216 0.17396 0.23478
 H77 H 0.68838 0.13576 0.27089
 H78 H 0.71559 0.19595 0.36821
 H79 H 0.74896 0.23467 0.33159
 H80 H 0.76058 0.23529 0.18337
 H81 H 0.79596 0.20356 0.14468
 H82 H 0.83469 0.15334 0.24036
 H83 H 0.79895 0.18486 0.27880
 H84 H 0.65824 0.28806 0.29094
 C85 C 0.75035 0.76526 0.75059
 C86 C 0.75080 0.72613 0.75219
 C87 C 0.72892 0.70246 0.73329
 C88 C 0.77287 0.70535 0.77322
 C89 C 0.77044 0.78931 0.77234
 C90 C 0.72946 0.78571 0.72725
 C91 C 0.70014 0.70389 0.74405
 C92 C 0.67936 0.68288 0.72498
 C93 C 0.68707 0.66060 0.69461
 C94 C 0.71596 0.65887 0.68420
 C95 C 0.73679 0.67932 0.70368
 C96 C 0.76484 0.68331 0.80364
 C97 C 0.78564 0.66539 0.82493
 C98 C 0.81472 0.66851 0.81559
 C99 C 0.82266 0.68964 0.78447
 C100 C 0.80188 0.70818 0.76356
 C101 C 0.78805 0.81643 0.75496
 C102 C 0.80756 0.83855 0.77504
 C103 C 0.80995 0.83426 0.81331
 C104 C 0.79138 0.80746 0.83051
 C105 C 0.77187 0.78552 0.81032
 C106 C 0.72881 0.77958 0.68944
 C107 C 0.70842 0.79794 0.66783
 C108 C 0.68837 0.82293 0.68362
 C109 C 0.68948 0.82952 0.72146
 C110 C 0.70994 0.81121 0.74302
 H111 H 0.69380 0.72157 0.76695
 H112 H 0.65718 0.68476 0.73334
 H113 H 0.72236 0.64166 0.66100
 H114 H 0.75895 0.67797 0.69511
 H115 H 0.74253 0.68084 0.81139
 H116 H 0.77907 0.64900 0.84867
 H117 H 0.80836 0.72497 0.74002
 H118 H 0.78720 0.81979 0.72561
 H119 H 0.82162 0.85756 0.75990
 H120 H 0.79093 0.80410 0.85982
 H121 H 0.75773 0.76562 0.82440
 H122 H 0.74409 0.76051 0.67671
 H123 H 0.70851 0.79282 0.63870
 H124 H 0.67415 0.84821 0.73454
 H125 H 0.71016 0.81628 0.77217
 H126 H 0.84498 0.69249 0.77688
 C127 C 0.24977 0.73294 0.74899
 C128 C 0.24698 0.77193 0.74635
 C129 C 0.26798 0.79504 0.72511
 C130 C 0.22350 0.79326 0.76471
 C131 C 0.23153 0.70927 0.77365
 C132 C 0.27096 0.71204 0.72636
 C133 C 0.29691 0.79603 0.73539
 C134 C 0.31690 0.81626 0.71434
 C135 C 0.30830 0.83548 0.68251
 C136 C 0.27924 0.83499 0.67263
 C137 C 0.25917 0.81525 0.69403
 C138 C 0.22974 0.82688 0.78441
 C139 C 0.20818 0.84636 0.80306
 C140 C 0.17970 0.83236 0.80304
 C141 C 0.17350 0.79916 0.78215
 C142 C 0.19498 0.78043 0.76268
 C143 C 0.21627 0.67777 0.75960
 C144 C 0.19761 0.65664 0.78176
 C145 C 0.19369 0.66631 0.81891
 C146 C 0.21005 0.69737 0.83301
 C147 C 0.22883 0.71831 0.81074
 C148 C 0.27027 0.71482 0.68818
 C149 C 0.29066 0.69597 0.66701
 C150 C 0.31201 0.67366 0.68359
 C151 C 0.31224 0.67024 0.72183
 C152 C 0.29182 0.68916 0.74300
 H153 H 0.30398 0.78074 0.75947
 H154 H 0.33921 0.81608 0.72237
 H155 H 0.27211 0.84987 0.64835
 H156 H 0.23689 0.81482 0.68584
 H157 H 0.25154 0.83756 0.78622
 H158 H 0.21441 0.87112 0.81920
 H159 H 0.18933 0.75557 0.74629
 H160 H 0.21802 0.67034 0.73100
 H161 H 0.18518 0.63414 0.76876
 H162 H 0.20920 0.70516 0.86154
 H163 H 0.24106 0.74192 0.82237
 H164 H 0.25391 0.73164 0.67480
 H165 H 0.28957 0.69854 0.63761
 H166 H 0.32855 0.65354 0.73542
 H167 H 0.29259 0.68657 0.77242
 H168 H 0.15185 0.78816 0.77965
 O169 O 1.02464 -0.04718 -0.01268
 O170 O 0.97270 0.00587 0.04333
 O171 O 0.96945 -0.04235 -0.01080
 O172 O 1.02839 0.00069 0.04204
 O173 O 1.03014 0.04985 0.00399
 O174 O 0.97189 0.00577 -0.04998
 O175 O 0.97451 0.05425 0.00440
 O176 O 1.02762 0.00222 -0.05045
 Cu177 Cu 0.99861 -0.02555 0.01943
 Cu178 Cu 1.00119 0.03293 -0.02687
 C179 C 1.03503 -0.03147 -0.04109
 C180 C 0.96459 0.03908 0.03333
 C181 C 0.96074 -0.02592 -0.03964
 C182 C 1.03936 0.03262 0.03217
 O183 O 0.52459 0.44768 0.49540
 O184 O 0.46939 0.50060 0.54624
 O185 O 0.46906 0.45230 0.49217
 O186 O 0.52477 0.49609 0.55016
 O187 O 0.52893 0.54447 0.51141
 O188 O 0.47373 0.50014 0.45294
 O189 O 0.47333 0.54883 0.50737
 O190 O 0.52914 0.49658 0.45732
 Cu191 Cu 0.49659 0.46929 0.52486
 Cu192 Cu 0.50161 0.52740 0.47841
 C193 C 0.53633 0.46313 0.46769
 C194 C 0.46190 0.53380 0.53549
 C195 C 0.46198 0.46860 0.46254
 C196 C 0.53632 0.52782 0.54075
 O197 O -0.02503 0.55326 -0.00212
 O198 O 0.03016 0.50408 0.05152
 O199 O 0.03090 0.55180 -0.00308
 O200 O -0.02549 0.50455 0.05195
 O201 O -0.02781 0.45741 0.01167
 O202 O 0.03077 0.50208 -0.04049
 O203 O 0.02783 0.45429 0.01423
 O204 O -0.02478 0.50594 -0.04227
 Cu205 Cu 0.00272 0.53335 0.02841
 Cu206 Cu 0.00141 0.47506 -0.01810
 C207 C -0.03419 0.53824 -0.03150
 C208 C 0.03823 0.47063 0.04234
 C209 C 0.04075 0.53469 -0.03099
 C210 C -0.03647 0.47303 0.04093
 O211 O 0.47621 1.04541 0.49076
 O212 O 0.53002 0.99254 0.54391
 O213 O 0.53186 1.04268 0.49128
 O214 O 0.47437 0.99527 0.54382
 O215 O 0.47219 0.94881 0.50284
 O216 O 0.53100 0.99485 0.45171
 O217 O 0.52786 0.94478 0.50434
 O218 O 0.47525 0.99861 0.45012
 Cu219 Cu 0.50322 1.02371 0.52148
 Cu220 Cu 0.50143 0.96704 0.47321
 C221 C 0.46658 1.03113 0.46126
 C222 C 0.53812 0.95956 0.53327
 C223 C 0.54145 1.02669 0.46267
 C224 C 0.46333 0.96404 0.53220
 C225 C 1.13169 0.10162 0.11691
 C226 C 1.14236 0.13767 0.10507
 C227 C 1.16402 0.15666 0.12488
 C228 C 1.17563 0.14071 0.15723
 C229 C 1.16490 0.10421 0.16810
 C230 C 1.14352 0.08516 0.14843
 C231 C 1.10808 0.08274 0.09546
 C232 C 1.09570 0.04707 0.10532
 C233 C 1.07353 0.03095 0.08472
 C234 C 1.06304 0.04985 0.05371
 C235 C 1.07529 0.08533 0.04356
 C236 C 1.09757 0.10185 0.06415
 C237 C 1.13107 0.15500 0.07373
 C238 C 1.10922 0.13745 0.05369
 H239 H 1.13919 0.18267 0.06455
 H240 H 1.10121 0.15213 0.02972
 H241 H 1.17018 0.18515 0.11575
 H242 H 1.17368 0.08873 0.19102
 H243 H 1.06453 0.00355 0.09322
 H244 H 1.06740 0.10027 0.01967
 H245 H 1.13671 0.05735 0.15842
 H246 H 1.10268 0.03114 0.12889
 C247 C 0.62230 0.60097 0.63243
 C248 C 0.64200 0.62616 0.61500
 C249 C 0.66337 0.64488 0.63540
 C250 C 0.66493 0.63995 0.67328
 C251 C 0.64496 0.61594 0.69072
 C252 C 0.62399 0.59646 0.67060
 C253 C 0.60016 0.58095 0.60949
 C254 C 0.58098 0.55316 0.62360
 C255 C 0.56053 0.53566 0.60115
 C256 C 0.55847 0.54567 0.56420
 C257 C 0.57771 0.57288 0.54975
 C258 C 0.59873 0.59007 0.57189
 C259 C 0.63992 0.63310 0.57747
 C260 C 0.61849 0.61590 0.55649
 H261 H 0.65486 0.65259 0.56418
 H262 H 0.61755 0.62264 0.52765
 H263 H 0.67844 0.66410 0.62196
 H264 H 0.64578 0.61196 0.72001
 H265 H 0.54601 0.51458 0.61289
 H266 H 0.57661 0.58029 0.52105
 H267 H 0.60916 0.57843 0.68549
 H268 H 0.58152 0.54431 0.65178
 C269 C -0.12548 0.39689 0.12555
 C270 C -0.12567 0.40376 0.16362
 C271 C -0.14572 0.38477 0.18599
 C272 C -0.16623 0.35979 0.17083
 C273 C -0.16667 0.35408 0.13302
 C274 C -0.14654 0.37224 0.11061
 C275 C -0.10296 0.41641 0.10283
 C276 C -0.09937 0.40888 0.06535
 C277 C -0.07781 0.42734 0.04547
 C278 C -0.05947 0.45412 0.06224
 C279 C -0.06283 0.46192 0.09954
 C280 C -0.08404 0.44280 0.12002
 C281 C -0.10605 0.42974 0.17906
 C282 C -0.08597 0.44927 0.15765
 H283 H -0.10635 0.43529 0.20814
 H284 H -0.07139 0.46927 0.17089
 H285 H -0.14563 0.38975 0.21519
 H286 H -0.18236 0.33489 0.12082
 H287 H -0.07558 0.42074 0.01674
 H288 H -0.04843 0.48212 0.11286
 H289 H -0.14794 0.36666 0.08174
 H290 H -0.11267 0.38843 0.05094
 C291 C 0.37207 0.89016 0.61478
 C292 C 0.37075 0.89841 0.65257
 C293 C 0.34992 0.88046 0.67451
 C294 C 0.32976 0.85509 0.65921
 C295 C 0.33044 0.84796 0.62161
 C296 C 0.35135 0.86511 0.59963
 C297 C 0.39535 0.90875 0.59259
 C298 C 0.39997 0.90009 0.55551
 C299 C 0.42209 0.91796 0.53611
 C300 C 0.43999 0.94521 0.55298
 C301 C 0.43567 0.95397 0.58992
 C302 C 0.41386 0.93555 0.60992
 C303 C 0.39004 0.92471 0.66818
 C304 C 0.41086 0.94329 0.64721
 H305 H 0.38889 0.93128 0.69704
 H306 H 0.42514 0.96363 0.66054
 H307 H 0.34914 0.88655 0.70351
 H308 H 0.31505 0.82843 0.60930
 H309 H 0.42504 0.91061 0.50765
 H310 H 0.44969 0.97455 0.60337
 H311 H 0.35084 0.85846 0.57092
 H312 H 0.38699 0.87930 0.54106
 C313 C -0.12145 0.61574 -0.11645
 C314 C -0.12233 0.60793 -0.15435
 C315 C -0.14285 0.62580 -0.17651
 C316 C -0.16328 0.65036 -0.16125
 C317 C -0.16292 0.65725 -0.12361
 C318 C -0.14221 0.64038 -0.10145
 C319 C -0.09883 0.59673 -0.09386
 C320 C -0.09468 0.60496 -0.05659
 C321 C -0.07352 0.58620 -0.03664
 C322 C -0.05613 0.55848 -0.05314
 C323 C -0.05980 0.55040 -0.09036
 C324 C -0.08062 0.56974 -0.11090
 C325 C -0.10311 0.58178 -0.16974
 C326 C -0.08303 0.56263 -0.14839
 H327 H -0.10390 0.57555 -0.19869
 H328 H -0.06893 0.54225 -0.16153
 H329 H -0.14342 0.61992 -0.20556
 H330 H -0.17858 0.67610 -0.11137
 H331 H -0.07100 0.59309 -0.00799
 H332 H -0.04610 0.52951 -0.10350
 H333 H -0.14308 0.64665 -0.07268
 H334 H -0.10735 0.62599 -0.04237
 C335 C 0.38141 1.11356 0.37658
 C336 C 0.36930 1.09394 0.34637
 C337 C 0.34833 1.11182 0.32491
 C338 C 0.33919 1.14930 0.33287
 C339 C 0.35142 1.16879 0.36262
 C340 C 0.37220 1.15126 0.38420
 C341 C 0.40354 1.09326 0.39901
 C342 C 0.41649 1.10988 0.43003
 C343 C 0.43689 1.08970 0.45008
 C344 C 0.44503 1.05247 0.43976
 C345 C 0.43228 1.03566 0.40889
 C346 C 0.41161 1.05560 0.38865
 C347 C 0.37816 1.05662 0.33770
 C348 C 0.39893 1.03793 0.35829
 H349 H 0.36893 1.04161 0.31455
 H350 H 0.40506 1.00907 0.35038
 H351 H 0.33885 1.09629 0.30224
 H352 H 0.34516 1.19799 0.36900
 H353 H 0.44634 1.10341 0.47377
 H354 H 0.43826 1.00683 0.40069
 H355 H 0.38081 1.16784 0.40656
 H356 H 0.41113 1.13834 0.43942
 C357 C 1.11623 -0.11332 -0.13164
 C358 C 1.13829 -0.09126 -0.14803
 C359 C 1.15926 -0.10932 -0.16931
 C360 C 1.15815 -0.14929 -0.17611
 C361 C 1.13514 -0.17058 -0.16121
 C362 C 1.11470 -0.15302 -0.13913
 C363 C 1.09511 -0.09321 -0.10762
 C364 C 1.07444 -0.11306 -0.08665
 C365 C 1.05522 -0.09295 -0.06472
 C366 C 1.05585 -0.05261 -0.06359
 C367 C 1.07654 -0.03257 -0.08396
 C368 C 1.09652 -0.05255 -0.10523
 C369 C 1.13901 -0.05117 -0.14369
 C370 C 1.11822 -0.03216 -0.12339
 H371 H 1.15570 -0.03413 -0.15663
 H372 H 1.11950 -0.00106 -0.12130
 H373 H 1.17573 -0.09164 -0.18188
 H374 H 1.13347 -0.20143 -0.16494
 H375 H 1.03953 -0.10899 -0.04900
 H376 H 1.07752 -0.00139 -0.08256
 H377 H 1.09782 -0.17105 -0.12830
 H378 H 1.07300 -0.14408 -0.08642
 C379 C 0.62195 0.38156 0.38339
 C380 C 0.64100 0.40430 0.36221
 C381 C 0.66230 0.38667 0.34118
 C382 C 0.66450 0.34646 0.34001
 C383 C 0.64516 0.32388 0.36013
 C384 C 0.62421 0.34112 0.38170
 C385 C 0.59993 0.40163 0.40615
 C386 C 0.58129 0.38196 0.43014
 C387 C 0.56094 0.40201 0.45044
 C388 C 0.55847 0.44206 0.44710
 C389 C 0.57720 0.46198 0.42371
 C390 C 0.59806 0.44222 0.40370
 C391 C 0.63844 0.44444 0.36172
 C392 C 0.61719 0.46295 0.38161
 H393 H 0.65289 0.46183 0.34533
 H394 H 0.61589 0.49405 0.37995
 H395 H 0.67691 0.40420 0.32513
 H396 H 0.64653 0.29276 0.35957
 H397 H 0.54682 0.38600 0.46843
 H398 H 0.57577 0.49304 0.42139
 H399 H 0.60993 0.32230 0.39657
 H400 H 0.58216 0.35118 0.43381
 C401 C 0.87234 -0.10164 -0.12604
 C402 C 0.86194 -0.13742 -0.11298
 C403 C 0.84130 -0.15817 -0.13289
 C404 C 0.83047 -0.14418 -0.16628
 C405 C 0.84097 -0.10833 -0.17885
 C406 C 0.86143 -0.08747 -0.15914
 C407 C 0.89472 -0.08071 -0.10413
 C408 C 0.90666 -0.04500 -0.11478
 C409 C 0.92784 -0.02711 -0.09370
 C410 C 0.93768 -0.04425 -0.06145
 C411 C 0.92569 -0.07959 -0.05043
 C412 C 0.90447 -0.09786 -0.07142
 C413 C 0.87240 -0.15265 -0.08025
 C414 C 0.89318 -0.13331 -0.05993
 H415 H 0.86446 -0.18009 -0.07021
 H416 H 0.90063 -0.14642 -0.03487
 H417 H 0.83487 -0.18622 -0.12280
 H418 H 0.83276 -0.09520 -0.20342
 H419 H 0.93667 0.00015 -0.10287
 H420 H 0.93306 -0.09319 -0.02556
 H421 H 0.86829 -0.06020 -0.17032
 H422 H 0.90010 -0.03046 -0.13934
 C423 C 0.37774 0.39326 0.36981
 C424 C 0.35856 0.36710 0.38688
 C425 C 0.33782 0.34751 0.36612
 C426 C 0.33641 0.35262 0.32824
 C427 C 0.35585 0.37772 0.31119
 C428 C 0.37618 0.39799 0.33166
 C429 C 0.39927 0.41405 0.39309
 C430 C 0.41798 0.44259 0.37929
 C431 C 0.43799 0.46063 0.40200
 C432 C 0.44006 0.45047 0.43892
 C433 C 0.42120 0.42260 0.45308
 C434 C 0.40065 0.40479 0.43065
 C435 C 0.36052 0.36007 0.42440
 C436 C 0.38138 0.37808 0.44571
 H437 H 0.34597 0.33986 0.43742
 H438 H 0.38228 0.37123 0.47453
 H439 H 0.32316 0.32751 0.37928
 H440 H 0.35511 0.38193 0.28193
 H441 H 0.45221 0.48220 0.39046
 H442 H 0.42230 0.41501 0.48173
 H443 H 0.39061 0.41682 0.31704
 H444 H 0.41745 0.45156 0.35115
 C445 C 0.13124 0.60596 -0.11726
 C446 C 0.13952 0.64394 -0.10795
 C447 C 0.16044 0.66345 -0.12860
 C448 C 0.17355 0.64591 -0.15904
 C449 C 0.16550 0.60766 -0.16735
 C450 C 0.14484 0.58809 -0.14692
 C451 C 0.10819 0.58657 -0.09525
 C452 C 0.09785 0.54925 -0.10307
 C453 C 0.07609 0.53266 -0.08213
 C454 C 0.06400 0.55266 -0.05276
 C455 C 0.07419 0.58984 -0.04463
 C456 C 0.09600 0.60693 -0.06569
 C457 C 0.12663 0.66249 -0.07831
 C458 C 0.10545 0.64433 -0.05756
 H459 H 0.13297 0.69158 -0.07105
 H460 H 0.09614 0.65998 -0.03496
 H461 H 0.16520 0.69312 -0.12172
 H462 H 0.17574 0.59183 -0.18906
 H463 H 0.06870 0.50394 -0.08908
 H464 H 0.06498 0.60568 -0.02208
 H465 H 0.13996 0.55888 -0.15484
 H466 H 0.10609 0.53238 -0.12533
 C467 C 0.63413 1.10033 0.38225
 C468 C 0.64007 1.13943 0.39044
 C469 C 0.66147 1.15949 0.37119
 C470 C 0.67749 1.14112 0.34395
 C471 C 0.67211 1.10206 0.33666
 C472 C 0.65077 1.08190 0.35546
 C473 C 0.61038 1.08036 0.40251
 C474 C 0.60171 1.04220 0.39500
 C475 C 0.57931 1.02501 0.41443
 C476 C 0.56504 1.04523 0.44200
 C477 C 0.57345 1.08329 0.44963
 C478 C 0.59571 1.10104 0.42994
 C479 C 0.62456 1.15834 0.41768
 C480 C 0.60305 1.13946 0.43724
 H481 H 0.62918 1.18822 0.42408
 H482 H 0.59176 1.15535 0.45814
 H483 H 0.66520 1.18975 0.37690
 H484 H 0.68454 1.08692 0.31635
 H485 H 0.57325 0.99563 0.40794
 H486 H 0.56240 1.09936 0.47064
 H487 H 0.64772 1.05196 0.34861
 H488 H 0.61175 1.02518 0.37408
 C489 C 0.12419 0.39264 0.12909
 C490 C 0.12526 0.35198 0.12645
 C491 C 0.14557 0.33135 0.14669
 C492 C 0.16551 0.35075 0.16875
 C493 C 0.16480 0.39100 0.17079
 C494 C 0.14436 0.41174 0.15141
 C495 C 0.10199 0.41356 0.10738
 C496 C 0.09798 0.45365 0.10990
 C497 C 0.07720 0.47188 0.08890
 C498 C 0.06000 0.45079 0.06462
 C499 C 0.06359 0.41078 0.06212
 C500 C 0.08412 0.39202 0.08364
 C501 C 0.10647 0.33226 0.10312
 C502 C 0.08660 0.35189 0.08182
 H503 H 0.10739 0.30117 0.10091
 H504 H 0.07279 0.33532 0.06387
 H505 H 0.14640 0.30023 0.14454
 H506 H 0.18005 0.40648 0.18767
 H507 H 0.07478 0.50276 0.09147
 H508 H 0.05009 0.39413 0.04384
 H509 H 0.14499 0.44266 0.15397
 H510 H 0.11047 0.47147 0.12807
 C511 C 0.62380 0.87742 0.61732
 C512 C 0.63728 0.89792 0.64603
 C513 C 0.65838 0.88012 0.66730
 C514 C 0.66626 0.84181 0.66076
 C515 C 0.65270 0.82147 0.63247
 C516 C 0.63181 0.83894 0.61101
 C517 C 0.60151 0.89764 0.59507
 C518 C 0.58731 0.88018 0.56537
 C519 C 0.56679 0.90029 0.54546
 C520 C 0.55977 0.93828 0.55464
 C521 C 0.57379 0.95593 0.58417
 C522 C 0.59461 0.93607 0.60421
 C523 C 0.62959 0.93602 0.65346
 C524 C 0.60863 0.95461 0.63313
 H525 H 0.63986 0.95169 0.67548
 H526 H 0.60340 0.98406 0.64008
 H527 H 0.66891 0.89632 0.68880
 H528 H 0.65796 0.79166 0.62722
 H529 H 0.55635 0.88595 0.52280
 H530 H 0.56870 0.98536 0.59143
 H531 H 0.62211 0.82169 0.58985
 H532 H 0.59177 0.85111 0.55691
 C533 C 0.88124 0.12146 0.12091
 C534 C 0.86909 0.10142 0.15086
 C535 C 0.84861 0.11934 0.17302
 C536 C 0.83998 0.15727 0.16603
 C537 C 0.85223 0.17716 0.13652
 C538 C 0.87254 0.15960 0.11425
 C539 C 0.90285 0.10111 0.09772
 C540 C 0.91582 0.11821 0.06694
 C541 C 0.93577 0.09802 0.04619
 C542 C 0.94341 0.06029 0.05553
 C543 C 0.93060 0.04299 0.08612
 C544 C 0.91041 0.06296 0.10710
 C545 C 0.87742 0.06362 0.15854
 C546 C 0.89769 0.04487 0.13722
 H547 H 0.86815 0.04828 0.18149
 H548 H 0.90343 0.01564 0.14438
 H549 H 0.83908 0.10350 0.19549
 H550 H 0.84634 0.20667 0.13087
 H551 H 0.94527 0.11212 0.02273
 H552 H 0.93622 0.01379 0.09358
 H553 H 0.88120 0.17649 0.09212
 H554 H 0.91086 0.14706 0.05829
 C555 C 0.37594 0.61740 0.61774
 C556 C 0.36361 0.59825 0.64809
 C557 C 0.34282 0.61669 0.66938
 C558 C 0.33401 0.65422 0.66104
 C559 C 0.34634 0.67319 0.63105
 C560 C 0.36699 0.65513 0.60967
 C561 C 0.39804 0.59662 0.59568
 C562 C 0.41146 0.61295 0.56482
 C563 C 0.43201 0.59247 0.54532
 C564 C 0.43980 0.55520 0.55599
 C565 C 0.42646 0.53860 0.58658
 C566 C 0.40573 0.55891 0.60636
 C567 C 0.37208 0.56084 0.65706
 C568 C 0.39271 0.54163 0.63671
 H569 H 0.36265 0.54617 0.68029
 H570 H 0.39856 0.51274 0.64486
 H571 H 0.33321 0.60157 0.69223
 H572 H 0.34025 0.70238 0.62435
 H573 H 0.44192 0.60601 0.52183
 H574 H 0.43221 0.50979 0.59511
 H575 H 0.37570 0.67132 0.58711
 H576 H 0.40645 0.64145 0.55523
   
