data_POSCAR
  _audit_creation_date              2014-09-24
  _audit_creation_method            'ToBaCCo'
  _symmetry_space_group_name_H-M    'P1'
  _symmetry_Int_Tables_number       1
  _symmetry_cell_setting            triclinic
  loop_
  _symmetry_equiv_pos_as_xyz
 x,y,z
_cell_length_a 26.3623
_cell_length_b 25.1752
_cell_length_c 64.1119
_cell_angle_alpha 86.386400
_cell_angle_beta 90.208400
_cell_angle_gamma 120.148300
loop_
  _atom_site_label
  _atom_site_type_symbol
  _atom_site_fract_x
  _atom_site_fract_y
  _atom_site_fract_z
Si1 Si -0.00997 0.00466 0.49756
 Si2 Si 1.03920 0.05950 0.16128
 Si3 Si -0.01734 0.94233 0.84271
 O4 O 0.48493 0.05492 0.01783
 O5 O 0.57936 0.04064 -0.02128
 O6 O 0.48332 0.04667 -0.02240
 O7 O 0.58730 0.06190 0.01814
 O8 O 0.54113 -0.03920 0.02431
 O9 O 0.43293 -0.05403 -0.01514
 O10 O 0.52889 -0.06047 -0.01513
 O11 O 0.43910 -0.04577 0.02509
 Cu12 Cu 0.53855 0.06106 -0.00259
 Cu13 Cu 0.48076 -0.05991 0.00544
 C14 C 0.44580 0.00661 0.02810
 C15 C 0.56990 -0.01273 -0.02483
 C16 C 0.43993 -0.00581 -0.02546
 C17 C 0.58268 0.01424 0.02791
 O18 O -0.06391 0.38861 0.69114
 O19 O -0.06332 0.50301 0.65171
 O20 O -0.06982 0.39613 0.65077
 O21 O -0.07167 0.48807 0.69228
 O22 O 0.02525 0.53968 0.69211
 O23 O 0.02715 0.44752 0.64950
 O24 O 0.03362 0.55394 0.65127
 O25 O 0.03305 0.44093 0.69017
 Cu26 Cu -0.07674 0.43892 0.67156
 Cu27 Cu 0.03936 0.50066 0.67069
 C28 C -0.01506 0.39547 0.69722
 C29 C -0.01427 0.54813 0.64484
 C30 C -0.02159 0.40566 0.64305
 C31 C -0.02410 0.52935 0.69932
 O32 O 0.54970 0.61239 0.30915
 O33 O 0.43907 0.49945 0.34823
 O34 O 0.53753 0.60301 0.34958
 O35 O 0.44426 0.51567 0.30768
 O36 O 0.48705 0.45946 0.30762
 O37 O 0.58299 0.54940 0.34962
 O38 O 0.48409 0.44539 0.34851
 O39 O 0.59177 0.55547 0.30904
 Cu40 Cu 0.48822 0.56302 0.32859
 Cu41 Cu 0.54069 0.49681 0.32871
 C42 C 0.58993 0.60305 0.30260
 C43 C 0.44323 0.45326 0.35507
 C44 C 0.57633 0.59178 0.35666
 C45 C 0.44909 0.47253 0.30060
 C46 C -0.03346 0.13533 0.53679
 N47 N 0.01093 0.15658 0.52228
 N48 N 0.01513 0.11819 0.51003
 C49 C -0.02484 0.05716 0.51176
 N50 N -0.06983 0.03572 0.52606
 N51 N -0.07424 0.07427 0.53831
 C52 C -0.03391 0.17726 0.55161
 N53 N -0.08010 0.15898 0.56515
 N54 N -0.07850 0.19642 0.57927
 C55 C -0.03046 0.25316 0.58051
 N56 N 0.01561 0.27143 0.56694
 N57 N 0.01383 0.23421 0.55273
 C58 C -0.02789 0.29356 0.59653
 N59 N 0.02354 0.34475 0.60050
 N60 N 0.02594 0.38069 0.61535
 C61 C -0.02316 0.36684 0.62663
 N62 N -0.07455 0.31584 0.62257
 N63 N -0.07685 0.27972 0.60786
 C64 C 0.91268 0.91469 0.21001
 N65 N 0.92162 0.97273 0.20850
 N66 N 0.96118 1.01524 0.19486
 C67 C 0.99354 1.00156 0.18226
 N68 N 0.98536 0.94373 0.18383
 N69 N 0.94567 0.90099 0.19757
 C70 C 0.86537 0.86740 0.22400
 N71 N 0.85613 0.80922 0.22662
 N72 N 0.81164 0.76648 0.23884
 C73 C 0.77458 0.78027 0.24871
 N74 N 0.78391 0.83841 0.24607
 N75 N 0.82846 0.88112 0.23396
 C76 C 0.72540 0.73347 0.26215
 N77 N 0.68538 0.74599 0.27035
 N78 N 0.64144 0.70410 0.28292
 C79 C 0.63603 0.64820 0.28779
 N80 N 0.67592 0.63564 0.27954
 N81 N 0.71968 0.67740 0.26689
 C82 C 0.13179 -0.02890 -0.11742
 N83 N 0.07715 -0.07803 -0.11380
 N84 N 0.03303 -0.08457 -0.12554
 C85 C 0.04169 -0.04238 -0.14138
 N86 N 0.09622 0.00728 -0.14504
 N87 N 0.14059 0.01402 -0.13317
 C88 C 0.18000 -0.02448 -0.10468
 N89 N 0.23417 0.02667 -0.10600
 N90 N 0.27705 0.02945 -0.09415
 C91 C 0.26736 -0.01897 -0.08071
 N92 N 0.21332 -0.07006 -0.07952
 N93 N 0.17050 -0.07270 -0.09125
 C94 C 0.31364 -0.01607 -0.06719
 N95 N 0.30458 -0.06666 -0.05516
 N96 N 0.34532 -0.06384 -0.04219
 C97 C 0.39657 -0.01020 -0.04072
 N98 N 0.40579 0.04033 -0.05283
 N99 N 0.36515 0.03743 -0.06587
 C100 C 0.00054 0.86938 0.54527
 N101 N -0.04839 0.87394 0.54353
 N102 N -0.04965 0.91511 0.52985
 C103 C -0.00214 0.95335 0.51739
 N104 N 0.04721 0.94939 0.51909
 N105 N 0.04858 0.90810 0.53289
 C106 C -0.00030 0.82169 0.55995
 N107 N 0.04871 0.81801 0.56344
 N108 N 0.04665 0.77393 0.57672
 C109 C -0.00452 0.73185 0.58687
 N110 N -0.05340 0.73557 0.58332
 N111 N -0.05128 0.77968 0.57014
 C112 C -0.00720 0.68333 0.60160
 N113 N -0.05948 0.63836 0.61024
 N114 N -0.06202 0.59478 0.62386
 C115 C -0.01229 0.59479 0.62940
 N116 N 0.03995 0.63971 0.62074
 N117 N 0.04246 0.68310 0.60706
 C118 C 0.17160 0.21968 0.19686
 N119 N 0.11346 0.20042 0.19907
 N120 N 0.07416 0.15607 0.18773
 C121 C 0.09186 0.13007 0.17367
 N122 N 0.14993 0.15033 0.17119
 N123 N 0.18906 0.19429 0.18253
 C124 C 0.21465 0.26254 0.21099
 N125 N 0.26896 0.26907 0.21183
 N126 N 0.30719 0.30418 0.22559
 C127 C 0.29266 0.33440 0.23897
 N128 N 0.23857 0.32852 0.23799
 N129 N 0.20009 0.29293 0.22432
 C130 C 0.33415 0.37124 0.25465
 N131 N 0.32450 0.41001 0.26552
 N132 N 0.36157 0.44257 0.28000
 C133 C 0.40934 0.43716 0.28430
 N134 N 0.41897 0.39827 0.27347
 N135 N 0.38213 0.36608 0.25884
 C136 C 0.84372 -0.05557 -0.11611
 N137 N 0.89739 -0.00502 -0.11990
 N138 N 0.93755 -0.00735 -0.13163
 C139 C 0.92569 -0.06021 -0.14006
 N140 N 0.87210 -0.11121 -0.13631
 N141 N 0.83175 -0.10895 -0.12443
 C142 C 0.80001 -0.05088 -0.10343
 N143 N 0.74788 -0.10123 -0.09721
 N144 N 0.70939 -0.09563 -0.08544
 C145 C 0.72156 -0.03950 -0.07961
 N146 N 0.77349 0.01068 -0.08595
 N147 N 0.81196 0.00506 -0.09760
 C148 C 0.68044 -0.03277 -0.06616
 N149 N 0.69188 0.02409 -0.06157
 N150 N 0.65609 0.03062 -0.04872
 C151 C 0.60760 -0.01955 -0.03993
 N152 N 0.59597 -0.07642 -0.04460
 N153 N 0.63165 -0.08294 -0.05752
 C154 C 0.16072 0.02888 0.11996
 N155 N 0.12877 -0.01406 0.13573
 N156 N 0.09145 -0.00716 0.14775
 C157 C 0.08475 0.04269 0.14423
 N158 N 0.11608 0.08490 0.12838
 N159 N 0.15335 0.07819 0.11648
 C160 C 0.20425 0.02441 0.10711
 N161 N 0.24060 0.07261 0.09364
 N162 N 0.28067 0.07004 0.08188
 C163 C 0.28585 0.01903 0.08308
 N164 N 0.24947 -0.02939 0.09653
 N165 N 0.20948 -0.02668 0.10842
 C166 C 0.32925 0.01629 0.06957
 N167 N 0.32968 -0.03708 0.06831
 N168 N 0.36754 -0.03981 0.05533
 C169 C 0.40657 0.01079 0.04324
 N170 N 0.40652 0.06430 0.04466
 N171 N 0.36848 0.06695 0.05757
 C172 C 0.84936 0.87008 0.45631
 N173 N 0.84030 0.91148 0.46590
 N174 N 0.88097 0.95154 0.47809
 C175 C 0.93198 0.95150 0.48095
 N176 N 0.94092 0.91034 0.47136
 N177 N 0.90039 0.87034 0.45929
 C178 C 0.80569 0.82587 0.44268
 N179 N 0.81500 0.78301 0.43442
 N180 N 0.77674 0.74354 0.42160
 C181 C 0.72771 0.74551 0.41651
 N182 N 0.71818 0.78821 0.42483
 N183 N 0.75644 0.82765 0.43772
 C184 C 0.68692 0.70356 0.40166
 N185 N 0.64068 0.70900 0.39508
 N186 N 0.60512 0.67267 0.38095
 C187 C 0.61433 0.62946 0.37292
 N188 N 0.66030 0.62363 0.37962
 N189 N 0.69600 0.66010 0.39372
 C190 C -0.00264 0.08435 0.79432
 N191 N -0.05118 0.02767 0.79653
 N192 N -0.05358 -0.01483 0.81052
 C193 C -0.00756 -0.00252 0.82280
 N194 N 0.04148 0.05398 0.82056
 N195 N 0.04397 0.09671 0.80647
 C196 C -0.00286 0.13158 0.77971
 N197 N 0.04565 0.18802 0.77608
 N198 N 0.04388 0.23064 0.76313
 C199 C -0.00651 0.21847 0.75351
 N200 N -0.05488 0.16209 0.75717
 N201 N -0.05304 0.11949 0.77001
 C202 C -0.00896 0.26511 0.73927
 N203 N -0.06085 0.25468 0.73139
 N204 N -0.06314 0.29648 0.71820
 C205 C -0.01352 0.35015 0.71238
 N206 N 0.03833 0.36060 0.72029
 N207 N 0.04058 0.31895 0.73354
 C208 C 0.89747 0.05761 0.12021
 N209 N 0.90213 0.00680 0.12427
 N210 N 0.94470 0.00910 0.13601
 C211 C 0.98424 0.06217 0.14418
 N212 N 0.98009 0.11344 0.14017
 N213 N 0.93738 0.11121 0.12828
 C214 C 0.84919 0.05296 0.10744
 N215 N 0.84576 0.10341 0.10091
 N216 N 0.80190 0.09779 0.08900
 C217 C 0.75987 0.04155 0.08335
 N218 N 0.76326 -0.00871 0.09001
 N219 N 0.80709 -0.00308 0.10179
 C220 C 0.71233 0.03473 0.06972
 N221 N 0.66915 -0.02219 0.06519
 N222 N 0.62716 -0.02885 0.05217
 C223 C 0.62691 0.02124 0.04316
 N224 N 0.66991 0.07819 0.04778
 N225 N 0.71181 0.08484 0.06086
 C226 C 0.14049 0.13868 0.45310
 N227 N 0.08656 0.13272 0.45221
 N228 N 0.04313 0.09196 0.46505
 C229 C 0.05183 0.05564 0.47934
 N230 N 0.10562 0.06088 0.48028
 N231 N 0.14931 0.10173 0.46728
 C232 C 0.18789 0.18600 0.43918
 N233 N 0.24061 0.18910 0.43717
 N234 N 0.28257 0.23244 0.42424
 C235 C 0.27338 0.27437 0.41302
 N236 N 0.22083 0.27130 0.41515
 N237 N 0.17891 0.22789 0.42793
 C238 C 0.31866 0.32184 0.39849
 N239 N 0.31109 0.36743 0.38935
 N240 N 0.35108 0.40979 0.37570
 C241 C 0.40000 0.40787 0.37060
 N242 N 0.40767 0.36235 0.37977
 N243 N 0.36780 0.32016 0.39351
 C244 C -0.04372 0.78211 0.80614
 N245 N -0.00036 0.80700 0.82003
 N246 N 0.00426 0.85089 0.83174
 C247 C -0.03427 0.87155 0.83006
 N248 N -0.07844 0.84599 0.81644
 N249 N -0.08327 0.80173 0.80475
 C250 C -0.04370 0.73947 0.79153
 N251 N -0.08866 0.71024 0.77846
 N252 N -0.08616 0.67497 0.76430
 C253 C -0.03836 0.66824 0.76254
 N254 N 0.00644 0.69729 0.77565
 N255 N 0.00374 0.73212 0.78990
 C256 C -0.03448 0.63155 0.74636
 N257 N 0.01732 0.63486 0.74166
 N258 N 0.02102 0.60254 0.72664
 C259 C -0.02711 0.56546 0.71588
 N260 N -0.07889 0.56198 0.72066
 N261 N -0.08247 0.59462 0.73555
   
