data_POSCAR
  _audit_creation_date              2014-09-24
  _audit_creation_method            'ToBaCCo'
  _symmetry_space_group_name_H-M    'P1'
  _symmetry_Int_Tables_number       1
  _symmetry_cell_setting            triclinic
  loop_
  _symmetry_equiv_pos_as_xyz
 x,y,z
_cell_length_a 43.4737
_cell_length_b 21.8577
_cell_length_c 17.2890
_cell_angle_alpha 90.075100
_cell_angle_beta 89.869100
_cell_angle_gamma 90.065000
loop_
  _atom_site_label
  _atom_site_type_symbol
  _atom_site_fract_x
  _atom_site_fract_y
  _atom_site_fract_z
O1 O 0.73123 0.31424 0.57312
 O2 O 0.78699 0.26926 0.42289
 O3 O 0.73131 0.31429 0.42261
 O4 O 0.78686 0.26926 0.57263
 O5 O 0.76763 0.17553 0.57249
 O6 O 0.71207 0.22060 0.42243
 O7 O 0.76776 0.17554 0.42272
 O8 O 0.71199 0.22054 0.57297
 Cu9 Cu 0.76097 0.30126 0.49779
 Cu10 Cu 0.73786 0.18864 0.49760
 C11 C 0.71211 0.27508 0.59815
 C12 C 0.78707 0.21457 0.39822
 C13 C 0.71219 0.27517 0.39753
 C14 C 0.78687 0.21459 0.59719
 O15 O 0.23039 0.81532 0.57651
 O16 O 0.28604 0.76929 0.42641
 O17 O 0.23057 0.81502 0.42598
 O18 O 0.28594 0.76967 0.57611
 O19 O 0.26643 0.67616 0.57629
 O20 O 0.21104 0.72155 0.42613
 O21 O 0.26653 0.67580 0.42656
 O22 O 0.21089 0.72186 0.57669
 Cu23 Cu 0.26013 0.80181 0.50126
 Cu24 Cu 0.23669 0.68946 0.50147
 C25 C 0.21113 0.77646 0.60165
 C26 C 0.28593 0.71457 0.40188
 C27 C 0.21137 0.77603 0.40096
 C28 C 0.28581 0.71503 0.60074
 O29 O 0.26730 0.32413 -0.57889
 O30 O 0.21169 0.27929 -0.42822
 O31 O 0.26729 0.32444 -0.42913
 O32 O 0.21152 0.27908 -0.57878
 O33 O 0.23067 0.18541 -0.57887
 O34 O 0.28645 0.23073 -0.42924
 O35 O 0.23085 0.18561 -0.42834
 O36 O 0.28644 0.23043 -0.57897
 Cu37 Cu 0.23745 0.31114 -0.50383
 Cu38 Cu 0.26047 0.19854 -0.50395
 C39 C 0.28657 0.28510 -0.60351
 C40 C 0.21182 0.22481 -0.40303
 C41 C 0.28650 0.28542 -0.40456
 C42 C 0.21153 0.22446 -0.60372
 O43 O -0.28799 0.77901 -0.42687
 O44 O -0.23225 0.82501 -0.57680
 O45 O -0.28786 0.77935 -0.57737
 O46 O -0.23244 0.82471 -0.42699
 O47 O -0.21305 0.73119 -0.42747
 O48 O -0.26845 0.68587 -0.57782
 O49 O -0.21286 0.73152 -0.57724
 O50 O -0.26859 0.68552 -0.42735
 Cu51 Cu -0.26214 0.81141 -0.50199
 Cu52 Cu -0.23884 0.69905 -0.50255
 C53 C -0.28779 0.72441 -0.40208
 C54 C -0.21288 0.78625 -0.60157
 C55 C -0.28763 0.72484 -0.60263
 C56 C -0.21316 0.78579 -0.40254
 O57 O -0.04275 0.89614 0.14227
 O58 O -0.07638 0.95085 0.06748
 C59 C -0.07039 0.91239 0.12246
 O60 O 0.04380 1.11198 0.13547
 O61 O 0.07767 1.05352 0.06537
 C62 C 0.07151 1.09531 0.11647
 O63 O -0.04264 1.10554 0.14254
 O64 O -0.07632 1.05079 0.06753
 C65 C -0.07029 1.08928 0.12260
 O66 O 0.04358 0.88947 0.13508
 O67 O 0.07751 0.94812 0.06549
 C68 C 0.07129 0.90621 0.11628
 Zr69 Zr 0.00060 0.92317 0.09696
 O70 O 0.00339 0.91819 0.21897
 O71 O -0.00101 0.82687 0.08694
 Zr72 Zr 0.00068 1.07849 0.09721
 O73 O 0.00344 1.08365 0.21923
 O74 O -0.00078 1.17477 0.08736
 O75 O -0.02653 1.00082 0.11258
 O76 O 0.02717 1.00084 0.11151
 O77 O 0.04383 0.88936 -0.13555
 O78 O 0.07763 0.94813 -0.06594
 C79 C 0.07151 0.90616 -0.11679
 O80 O -0.04245 1.10572 -0.14212
 O81 O -0.07625 1.05072 -0.06753
 C82 C -0.07014 1.08931 -0.12239
 O83 O 0.04397 1.11227 -0.13484
 O84 O 0.07777 1.05357 -0.06541
 C85 C 0.07165 1.09553 -0.11611
 O86 O -0.04252 0.89573 -0.14230
 O87 O -0.07627 0.95070 -0.06755
 C88 C -0.07019 0.91206 -0.12246
 Zr89 Zr 0.00074 0.92323 -0.09758
 O90 O 0.00411 0.92089 -0.21969
 O91 O -0.00238 0.82661 -0.09433
 Zr92 Zr 0.00078 1.07843 -0.09727
 O93 O 0.00420 1.08102 -0.21935
 O94 O -0.00231 1.17505 -0.09364
 Zr95 Zr -0.04490 1.00079 -0.00007
 Zr96 Zr 0.04658 1.00085 -0.00011
 O97 O 0.02735 1.00086 -0.11180
 O98 O -0.02643 1.00081 -0.11288
 O99 O 0.02833 0.91151 -0.00027
 O100 O -0.02625 1.08954 0.00009
 O101 O -0.02631 0.91207 -0.00021
 O102 O 0.02840 1.09019 0.00004
 H103 H 0.04069 1.00084 0.15756
 H104 H -0.04049 1.12491 0.00015
 H105 H 0.04104 1.00090 -0.15768
 H106 H -0.04058 0.87667 -0.00020
 H107 H -0.00103 1.19075 0.14101
 H108 H 0.01420 1.18990 -0.05903
 H109 H -0.01144 1.05258 -0.24011
 H110 H -0.01171 0.94891 -0.24029
 H111 H 0.01402 0.81182 -0.05943
 H112 H -0.00137 0.81094 0.14055
 H113 H -0.01086 0.94927 0.24004
 H114 H -0.01079 1.05250 0.24025
 O115 O 0.45705 0.39451 0.14149
 O116 O 0.42339 0.44923 0.06675
 C117 C 0.42940 0.41072 0.12166
 O118 O 0.54357 0.61021 0.13497
 O119 O 0.57736 0.55198 0.06446
 C120 C 0.57125 0.59368 0.11566
 O121 O 0.45707 0.60389 0.14209
 O122 O 0.42337 0.54920 0.06707
 C123 C 0.42941 0.58763 0.12221
 O124 O 0.54348 0.38819 0.13391
 O125 O 0.57731 0.44692 0.06405
 C126 C 0.57118 0.40500 0.11490
 Zr127 Zr 0.50036 0.42166 0.09608
 O128 O 0.50318 0.41641 0.21806
 O129 O 0.49882 0.32538 0.08584
 Zr130 Zr 0.50037 0.57699 0.09671
 O131 O 0.50364 0.58009 0.21876
 O132 O 0.49680 0.67356 0.09296
 O133 O 0.47319 0.49925 0.11194
 O134 O 0.52688 0.49935 0.11069
 O135 O 0.54356 0.38811 -0.13618
 O136 O 0.57735 0.44698 -0.06659
 C137 C 0.57124 0.40496 -0.11738
 O138 O 0.45714 0.60411 -0.14296
 O139 O 0.42342 0.54938 -0.06786
 C140 C 0.42948 0.58789 -0.12282
 O141 O 0.54363 0.61031 -0.13667
 O142 O 0.57740 0.55214 -0.06658
 C143 C 0.57130 0.59379 -0.11768
 O144 O 0.45714 0.39449 -0.14327
 O145 O 0.42341 0.44938 -0.06839
 C146 C 0.42948 0.41085 -0.12344
 Zr147 Zr 0.50040 0.42182 -0.09839
 O148 O 0.50377 0.41914 -0.22048
 O149 O 0.49725 0.32520 -0.09496
 Zr150 Zr 0.50042 0.57711 -0.09811
 O151 O 0.50370 0.58045 -0.22016
 O152 O 0.49689 0.67368 -0.09373
 Zr153 Zr 0.45480 0.49934 -0.00074
 Zr154 Zr 0.54620 0.49960 -0.00108
 O155 O 0.52695 0.49950 -0.11273
 O156 O 0.47322 0.49942 -0.11360
 O157 O 0.52805 0.41017 -0.00121
 O158 O 0.47350 0.58810 -0.00055
 O159 O 0.47339 0.41061 -0.00101
 O160 O 0.52804 0.58904 -0.00078
 H161 H 0.54046 0.49923 0.15663
 H162 H 0.45922 0.62341 -0.00038
 H163 H 0.54060 0.49942 -0.15868
 H164 H 0.45912 0.37522 -0.00106
 H165 H 0.51542 0.68936 0.06669
 H166 H 0.51553 0.68942 -0.06764
 H167 H 0.48852 0.55105 -0.24097
 H168 H 0.48813 0.44752 -0.24116
 H169 H 0.51380 0.31040 -0.06053
 H170 H 0.49857 0.30937 0.13942
 H171 H 0.48916 0.44784 0.23922
 H172 H 0.48822 0.55117 0.23961
 C173 C 0.35358 0.33932 0.25339
 C174 C 0.38350 0.31875 0.26766
 C175 C 0.40812 0.34108 0.22390
 C176 C 0.30849 0.30278 0.34523
 C177 C 0.37285 0.40403 0.15035
 C178 C 0.34827 0.38168 0.19434
 C179 C 0.32870 0.31909 0.30206
 C180 C 0.40313 0.38444 0.16516
 H181 H 0.38787 0.28615 0.31349
 H182 H 0.43108 0.32495 0.23685
 H183 H 0.36816 0.43740 0.10568
 H184 H 0.32521 0.39814 0.18308
 C185 C -0.14609 0.84113 0.25490
 C186 C -0.11618 0.82036 0.26866
 C187 C -0.09161 0.84266 0.22468
 C188 C -0.19102 0.80426 0.34710
 C189 C -0.12692 0.90605 0.15187
 C190 C -0.15145 0.88372 0.19610
 C191 C -0.17090 0.82079 0.30378
 C192 C -0.09664 0.88621 0.16617
 H193 H -0.11176 0.78758 0.31426
 H194 H -0.06866 0.82636 0.23728
 H195 H -0.13164 0.93959 0.10742
 H196 H -0.17451 0.90034 0.18521
 C197 C 0.64607 0.66958 0.24623
 C198 C 0.65172 0.62387 0.19125
 C199 C 0.62756 0.60048 0.14680
 C200 C 0.68984 0.70633 0.34157
 C201 C 0.59212 0.66950 0.21113
 C202 C 0.61632 0.69285 0.25532
 C203 C 0.67024 0.69001 0.29683
 C204 C 0.59736 0.62236 0.15713
 H205 H 0.67465 0.60533 0.18399
 H206 H 0.63241 0.56413 0.10595
 H207 H 0.56922 0.68749 0.22054
 H208 H 0.61167 0.72810 0.29789
 C209 C 0.14625 1.17058 0.24815
 C210 C 0.11648 1.19376 0.25731
 C211 C 0.09232 1.17067 0.21274
 C212 C 0.19007 1.20698 0.34374
 C213 C 0.12782 1.10212 0.14788
 C214 C 0.15195 1.12525 0.19270
 C215 C 0.17043 1.19082 0.29896
 C216 C 0.09760 1.12389 0.15826
 H217 H 0.11180 1.22874 0.30021
 H218 H 0.06940 1.18857 0.22224
 H219 H 0.13272 1.06603 0.10669
 H220 H 0.17489 1.10680 0.18533
 C221 C 0.64594 0.32956 -0.24930
 C222 C 0.61623 0.30584 -0.25750
 C223 C 0.59209 0.32895 -0.21273
 C224 C 0.68958 0.29334 -0.34570
 C225 C 0.62751 0.39858 -0.14957
 C226 C 0.65162 0.37543 -0.19459
 C227 C 0.67003 0.30942 -0.30053
 C228 C 0.59734 0.37630 -0.15907
 H229 H 0.61156 0.27046 -0.29985
 H230 H 0.56920 0.31065 -0.22152
 H231 H 0.63238 0.43512 -0.10902
 H232 H 0.67452 0.39431 -0.18801
 C233 C 0.14617 0.83072 -0.24904
 C234 C 0.11645 0.80700 -0.25709
 C235 C 0.09233 0.83014 -0.21225
 C236 C 0.18979 0.79413 -0.34542
 C237 C 0.12778 0.89983 -0.14932
 C238 C 0.15187 0.87665 -0.19442
 C239 C 0.17026 0.81042 -0.30026
 C240 C 0.09760 0.87752 -0.15864
 H241 H 0.11176 0.77157 -0.29935
 H242 H 0.06944 0.81181 -0.22093
 H243 H 0.13266 0.93640 -0.10883
 H244 H 0.17477 0.89553 -0.18794
 C245 C 0.35381 0.65942 -0.25379
 C246 C 0.34841 0.61708 -0.19467
 C247 C 0.37294 0.59467 -0.15092
 C248 C 0.30884 0.69619 -0.34514
 C249 C 0.40833 0.65753 -0.22486
 C250 C 0.38376 0.67991 -0.26836
 C251 C 0.32899 0.67974 -0.30220
 C252 C 0.40326 0.61419 -0.16605
 H253 H 0.32532 0.60069 -0.18316
 H254 H 0.36819 0.56133 -0.10618
 H255 H 0.43132 0.67359 -0.23806
 H256 H 0.38820 0.71251 -0.31423
 C257 C -0.14549 1.15984 -0.25553
 C258 C -0.11555 1.18079 -0.26915
 C259 C -0.09111 1.15881 -0.22484
 C260 C -0.19019 1.19599 -0.34825
 C261 C -0.12661 1.09545 -0.15194
 C262 C -0.15101 1.11746 -0.19650
 C263 C -0.17016 1.17979 -0.30476
 C264 C -0.09629 1.11540 -0.16616
 H265 H -0.11100 1.21343 -0.31490
 H266 H -0.06812 1.17520 -0.23738
 H267 H -0.13144 1.06203 -0.10735
 H268 H -0.17409 1.10072 -0.18571
 C269 C 0.64600 0.66907 -0.24996
 C270 C 0.65168 0.62334 -0.19525
 C271 C 0.62758 0.60018 -0.15017
 C272 C 0.68967 0.70575 -0.34610
 C273 C 0.59215 0.66950 -0.21333
 C274 C 0.61628 0.69261 -0.25815
 C275 C 0.67011 0.68941 -0.30107
 C276 C 0.59740 0.62233 -0.15960
 H277 H 0.67459 0.60460 -0.18865
 H278 H 0.63245 0.56379 -0.10957
 H279 H 0.56926 0.68770 -0.22207
 H280 H 0.61161 0.72789 -0.30047
 C281 C 0.14611 1.17069 -0.24906
 C282 C 0.11647 1.19478 -0.25625
 C283 C 0.09243 1.17180 -0.21105
 C284 C 0.18945 1.20665 -0.34645
 C285 C 0.12784 1.10160 -0.14936
 C286 C 0.15185 1.12462 -0.19484
 C287 C 0.17004 1.19068 -0.30084
 C288 C 0.09771 1.12421 -0.15794
 H289 H 0.11176 1.23033 -0.29820
 H290 H 0.06958 1.19037 -0.21910
 H291 H 0.13272 1.06487 -0.10926
 H292 H 0.17470 1.10547 -0.18904
 C293 C 0.35412 0.34028 -0.25696
 C294 C 0.34862 0.38283 -0.19800
 C295 C 0.37303 0.40486 -0.15331
 C296 C 0.30945 0.30407 -0.34994
 C297 C 0.40846 0.34118 -0.22594
 C298 C 0.38402 0.31917 -0.27038
 C299 C 0.32946 0.32030 -0.30634
 C300 C 0.40331 0.38475 -0.16732
 H301 H 0.32557 0.39968 -0.18736
 H302 H 0.36822 0.43843 -0.10879
 H303 H 0.43142 0.32466 -0.23832
 H304 H 0.38854 0.28640 -0.31608
 C305 C -0.14559 0.84089 -0.25515
 C306 C -0.15107 0.88349 -0.19626
 C307 C -0.12664 0.90573 -0.15185
 C308 C -0.19026 0.80450 -0.34787
 C309 C -0.09121 0.84212 -0.22460
 C310 C -0.11567 0.81990 -0.26877
 C311 C -0.17026 0.82080 -0.30433
 C312 C -0.09635 0.88577 -0.16609
 H313 H -0.17413 0.90025 -0.18549
 H314 H -0.13144 0.93934 -0.10737
 H315 H -0.06824 0.82571 -0.23713
 H316 H -0.11117 0.78709 -0.31443
 C317 C 0.35382 0.65875 0.25509
 C318 C 0.38376 0.67951 0.26891
 C319 C 0.40828 0.65727 0.22477
 C320 C 0.30894 0.69557 0.34742
 C321 C 0.37289 0.59398 0.15166
 C322 C 0.34839 0.61626 0.19606
 C323 C 0.32905 0.67905 0.30408
 C324 C 0.40319 0.61379 0.16604
 H325 H 0.38823 0.71224 0.31467
 H326 H 0.43126 0.67356 0.23741
 H327 H 0.36812 0.56051 0.10703
 H328 H 0.32532 0.59966 0.18511
 C329 C -0.14603 1.16051 0.25472
 C330 C -0.15138 1.11808 0.19561
 C331 C -0.12683 1.09578 0.15147
 C332 C -0.19103 1.19691 0.34689
 C333 C -0.09152 1.15896 0.22498
 C334 C -0.11610 1.18124 0.26888
 C335 C -0.17086 1.18064 0.30359
 C336 C -0.09654 1.11551 0.16620
 H337 H -0.17445 1.10151 0.18442
 H338 H -0.13155 1.06234 0.10676
 H339 H -0.06855 1.17520 0.23788
 H340 H -0.11170 1.21391 0.31474
 C341 C 0.64591 0.32986 0.24611
 C342 C 0.65160 0.37546 0.19112
 C343 C 0.62748 0.39855 0.14640
 C344 C 0.68964 0.29353 0.34172
 C345 C 0.59202 0.32941 0.21042
 C346 C 0.61617 0.30636 0.25489
 C347 C 0.67005 0.30967 0.29691
 C348 C 0.59728 0.37646 0.15645
 H349 H 0.67452 0.39416 0.18405
 H350 H 0.63237 0.43484 0.10559
 H351 H 0.56911 0.31126 0.21964
 H352 H 0.61149 0.27117 0.29742
 C353 C 0.14564 0.83084 0.24836
 C354 C 0.15146 0.87681 0.19396
 C355 C 0.12747 0.89996 0.14887
 C356 C 0.18900 0.79445 0.34482
 C357 C 0.09190 0.83014 0.21136
 C358 C 0.11592 0.80703 0.25619
 C359 C 0.16958 0.81063 0.29962
 C360 C 0.09729 0.87758 0.15801
 H361 H 0.17437 0.89575 0.18768
 H362 H 0.13243 0.93656 0.10855
 H363 H 0.06901 0.81174 0.21984
 H364 H 0.11114 0.77157 0.29829
   
