data_POSCAR
  _audit_creation_date              2014-09-24
  _audit_creation_method            'ToBaCCo'
  _symmetry_space_group_name_H-M    'P1'
  _symmetry_Int_Tables_number       1
  _symmetry_cell_setting            triclinic
  loop_
  _symmetry_equiv_pos_as_xyz
 x,y,z
_cell_length_a 32.3567
_cell_length_b 32.6297
_cell_length_c 32.9355
_cell_angle_alpha 90.814500
_cell_angle_beta 88.723400
_cell_angle_gamma 91.115600
loop_
  _atom_site_label
  _atom_site_type_symbol
  _atom_site_fract_x
  _atom_site_fract_y
  _atom_site_fract_z
C1 C 0.27444 1.10098 -0.03785
 C2 C 0.27851 1.09498 0.00376
 C3 C 0.26974 1.05599 0.01938
 C4 C 0.25561 1.02312 -0.00570
 C5 C 0.25059 1.03087 -0.04762
 C6 C 0.26012 1.06976 -0.06386
 C7 C 0.24656 0.98129 0.01209
 C8 C 0.24342 0.94551 -0.01282
 C9 C 0.23607 0.90669 0.00419
 C10 C 0.23563 0.90330 0.04669
 C11 C 0.23851 0.93780 0.07226
 C12 C 0.24184 0.97661 0.05472
 H13 H 0.28056 1.13108 -0.05006
 H14 H 0.27554 1.05174 0.05114
 H15 H 0.23802 1.00749 -0.06747
 H16 H 0.24676 0.94711 -0.04542
 H17 H 0.23338 0.87350 0.06032
 H18 H 0.24086 1.00286 0.07480
 C19 C 0.79370 0.58919 0.45998
 C20 C 0.79246 0.57687 0.50025
 C21 C 0.77473 0.53918 0.51058
 C22 C 0.76247 0.51029 0.48079
 C23 C 0.76468 0.52281 0.43976
 C24 C 0.77879 0.56272 0.42950
 C25 C 0.74760 0.46810 0.49348
 C26 C 0.72603 0.44120 0.46701
 C27 C 0.71117 0.40278 0.48031
 C28 C 0.71642 0.39156 0.52099
 C29 C 0.73760 0.41764 0.54780
 C30 C 0.75473 0.45437 0.53325
 H31 H 0.80655 0.61911 0.45241
 H32 H 0.77120 0.53323 0.54260
 H33 H 0.75501 0.50231 0.41568
 H34 H 0.71986 0.44973 0.43622
 H35 H 0.70452 0.36231 0.53175
 H36 H 0.77452 0.47138 0.55354
 C37 C 0.75376 1.03928 1.08858
 C38 C 0.75354 0.99630 1.08612
 C39 C 0.75069 0.97768 1.04724
 C40 C 0.74560 1.00168 1.01189
 C41 C 0.74219 1.04483 1.01708
 C42 C 0.74781 1.06392 1.05498
 C43 C 0.74429 0.98277 0.96959
 C44 C 0.75175 1.00763 0.93505
 C45 C 0.74989 0.99143 0.89563
 C46 C 0.74184 0.94952 0.89010
 C47 C 0.73691 0.92321 0.92306
 C48 C 0.73703 0.94009 0.96283
 H49 H 0.75744 1.05451 1.11742
 H50 H 0.75307 0.94477 1.04498
 H51 H 0.73464 1.06388 0.99197
 H52 H 0.76079 1.03952 0.93801
 H53 H 0.74029 0.93700 0.85956
 H54 H 0.73147 0.91984 0.98802
 C55 C 0.27211 0.53934 0.60079
 C56 C 0.25989 0.49858 0.59411
 C57 C 0.25385 0.48433 0.55441
 C58 C 0.26058 0.51049 0.52080
 C59 C 0.27336 0.55169 0.52869
 C60 C 0.27749 0.56659 0.56868
 C61 C 0.25195 0.49547 0.47824
 C62 C 0.24460 0.52339 0.44678
 C63 C 0.23652 0.50964 0.40718
 C64 C 0.23323 0.46734 0.39941
 C65 C 0.23926 0.43879 0.42981
 C66 C 0.25002 0.45298 0.46873
 H67 H 0.27596 0.55026 0.63173
 H68 H 0.24173 0.45348 0.55060
 H69 H 0.27980 0.57259 0.50421
 H70 H 0.24454 0.55602 0.45255
 H71 H 0.22657 0.45606 0.36927
 H72 H 0.25724 0.43070 0.49119
 C73 C 1.07912 0.24754 -0.01337
 C74 C 1.05720 0.24942 0.02414
 C75 C 1.01672 0.26423 0.02481
 C76 C 0.99803 0.27833 -0.01011
 C77 C 1.01919 0.27417 -0.04739
 C78 C 1.05882 0.25694 -0.04963
 C79 C 0.95435 0.29183 -0.00688
 C80 C 0.92508 0.27719 -0.03485
 C81 C 0.88284 0.27639 -0.02407
 C82 C 0.87005 0.29286 0.01375
 C83 C 0.89850 0.30986 0.04076
 C84 C 0.94042 0.31121 0.02928
 H85 H 1.10982 0.23486 -0.01493
 H86 H 0.99933 0.26504 0.05324
 H87 H 1.00437 0.28321 -0.07495
 H88 H 0.93529 0.26172 -0.06252
 H89 H 0.83764 0.29218 0.02267
 H90 H 0.96289 0.32345 0.05028
 C91 C 0.59789 0.71252 0.48662
 C92 C 0.58255 0.71549 0.52669
 C93 C 0.54389 0.73277 0.53449
 C94 C 0.52028 0.74816 0.50304
 C95 C 0.53549 0.74419 0.46296
 C96 C 0.57370 0.72564 0.45446
 C97 C 0.47877 0.76554 0.51243
 C98 C 0.44547 0.75851 0.48610
 C99 C 0.40514 0.76845 0.49851
 C100 C 0.39810 0.78585 0.53713
 C101 C 0.43065 0.79330 0.56363
 C102 C 0.47109 0.78483 0.55037
 H103 H 0.62723 0.69798 0.48035
 H104 H 0.53186 0.73297 0.56544
 H105 H 0.51778 0.75574 0.43823
 H106 H 0.45014 0.74240 0.45745
 H107 H 0.36670 0.79205 0.54725
 H108 H 0.49637 0.79078 0.57063
 C109 C -0.00241 0.72944 -0.09655
 C110 C 0.03035 0.71601 -0.07313
 C111 C 0.03433 0.73036 -0.03313
 C112 C 0.00849 0.76084 -0.01738
 C113 C -0.02281 0.77546 -0.04178
 C114 C -0.03058 0.75807 -0.08030
 C115 C 0.01366 0.77701 0.02470
 C116 C -0.02066 0.79000 0.04764
 C117 C -0.01702 0.80449 0.08779
 C118 C 0.02180 0.80315 0.10635
 C119 C 0.05699 0.79217 0.08274
 C120 C 0.05262 0.77963 0.04220
 H121 H -0.00576 0.71756 -0.12723
 H122 H 0.05891 0.71898 -0.01489
 H123 H -0.04128 0.80025 -0.03012
 H124 H -0.05115 0.78746 0.03480
 H125 H 0.02531 0.81395 0.13736
 H126 H 0.07999 0.77206 0.02431
 C127 C 0.47064 0.22400 0.39536
 C128 C 0.50264 0.20412 0.41455
 C129 C 0.50717 0.20940 0.45643
 C130 C 0.48407 0.23861 0.47839
 C131 C 0.45154 0.25774 0.45911
 C132 C 0.44391 0.24973 0.41776
 C133 C 0.49843 0.25303 0.51891
 C134 C 0.47104 0.26685 0.54985
 C135 C 0.48638 0.28229 0.58679
 C136 C 0.52937 0.28118 0.59356
 C137 C 0.55687 0.26736 0.56295
 C138 C 0.54117 0.25488 0.52563
 H139 H 0.46710 0.22002 0.36289
 H140 H 0.53168 0.19365 0.47120
 H141 H 0.43321 0.27970 0.47600
 H142 H 0.43804 0.26649 0.54501
 H143 H 0.54151 0.29138 0.62246
 H144 H 0.56271 0.24600 0.50170
 C145 C 1.09477 -0.03380 0.21367
 C146 C 1.08995 0.00902 0.21378
 C147 C 1.05047 0.02475 0.22237
 C148 C 1.01557 -0.00177 0.22666
 C149 C 1.02137 -0.04457 0.22266
 C150 C 1.06102 -0.06058 0.21903
 C151 C 0.97383 0.01449 0.23831
 C152 C 0.94516 -0.01080 0.25945
 C153 C 0.90649 0.00332 0.27222
 C154 C 0.89647 0.04421 0.26476
 C155 C 0.92393 0.07018 0.24328
 C156 C 0.96248 0.05510 0.22988
 H157 H 1.12515 -0.04693 0.21091
 H158 H 1.04720 0.05757 0.22569
 H159 H 0.99548 -0.06592 0.22425
 H160 H 0.95326 -0.04138 0.26807
 H161 H 0.86655 0.05568 0.27416
 H162 H 0.98300 0.07478 0.21224
 C163 C 0.60767 0.44398 0.70928
 C164 C 0.60664 0.48680 0.71457
 C165 C 0.56950 0.50478 0.72750
 C166 C 0.53337 0.48055 0.73321
 C167 C 0.53475 0.43805 0.72487
 C168 C 0.57211 0.41934 0.71501
 C169 C 0.49478 0.49842 0.75052
 C170 C 0.46889 0.47435 0.77560
 C171 C 0.43042 0.48810 0.78908
 C172 C 0.41835 0.52783 0.77982
 C173 C 0.44560 0.55407 0.75794
 C174 C 0.48323 0.53874 0.74240
 H175 H 0.63655 0.42924 0.70192
 H176 H 0.56914 0.53737 0.73406
 H177 H 0.50707 0.41916 0.72787
 H178 H 0.47803 0.44393 0.78408
 H179 H 0.38854 0.53858 0.79064
 H180 H 0.50291 0.55790 0.72329
 C181 C 1.02782 1.10240 0.74746
 C182 C 0.99445 1.08731 0.77126
 C183 C 0.99330 1.04586 0.78130
 C184 C 1.02042 1.01820 0.76286
 C185 C 1.05490 1.03332 0.74088
 C186 C 1.05993 1.07601 0.73484
 C187 C 1.00848 0.97417 0.76436
 C188 C 1.03618 0.94376 0.77536
 C189 C 1.02118 0.90405 0.78476
 C190 C 0.97843 0.89525 0.78129
 C191 C 0.95109 0.92474 0.76813
 C192 C 0.96651 0.96367 0.75895
 H193 H 1.02988 1.13481 0.74066
 H194 H 0.96781 1.03364 0.79961
 H195 H 1.07734 1.01196 0.72880
 H196 H 1.06854 0.95174 0.77929
 H197 H 0.96608 0.86488 0.78746
 H198 H 0.94555 0.98650 0.74839
 C199 C 0.53346 0.61542 0.24176
 C200 C 0.49241 0.60958 0.25516
 C201 C 0.47707 0.56983 0.26076
 C202 C 0.50127 0.53525 0.25126
 C203 C 0.54256 0.54199 0.23726
 C204 C 0.55921 0.58201 0.23362
 C205 C 0.48318 0.49289 0.25732
 C206 C 0.50847 0.45802 0.26082
 C207 C 0.49060 0.41899 0.26706
 C208 C 0.44786 0.41566 0.27399
 C209 C 0.42200 0.44872 0.26843
 C210 C 0.43962 0.48691 0.25914
 H211 H 0.54560 0.64629 0.23795
 H212 H 0.44642 0.56655 0.27409
 H213 H 0.56197 0.51651 0.22931
 H214 H 0.54172 0.46046 0.25805
 H215 H 0.43410 0.38628 0.28188
 H216 H 0.41897 0.51126 0.25207
 O217 O 0.27261 0.16436 0.15142
 O218 O 0.32294 0.15810 0.20498
 O219 O 0.15737 0.15841 0.22125
 O220 O 0.12711 0.19441 0.27167
 O221 O 0.17999 0.24931 0.12826
 O222 O 0.21463 0.31571 0.13136
 O223 O 0.23128 0.27779 0.34833
 O224 O 0.20011 0.21032 0.34511
 O225 O 0.34279 0.27506 0.28736
 O226 O 0.36667 0.24526 0.22567
 O227 O 0.25929 0.36558 0.25682
 O228 O 0.19507 0.36531 0.21804
 O229 O 0.21659 0.33469 0.31263
 O230 O 0.15763 0.34000 0.26234
 O231 O 0.32148 0.33496 0.24788
 O232 O 0.34989 0.29661 0.18777
 O233 O 0.29767 0.24917 0.33494
 O234 O 0.26157 0.18079 0.33447
 O235 O 0.25784 0.22235 0.11742
 O236 O 0.27335 0.29325 0.11896
 O237 O 0.13641 0.22297 0.17679
 O238 O 0.11376 0.25213 0.24251
 O239 O 0.22059 0.13208 0.20568
 O240 O 0.27739 0.13076 0.24948
 Zr241 Zr 0.26233 0.18113 0.21302
 O242 O 0.28934 0.21790 0.25859
 Zr243 Zr 0.17008 0.22178 0.23046
 O244 O 0.19316 0.26086 0.27693
 Zr245 Zr 0.23405 0.26280 0.16143
 O246 O 0.26049 0.30303 0.20448
 Zr247 Zr 0.24433 0.23380 0.30283
 O248 O 0.21829 0.19275 0.25980
 Zr249 Zr 0.30884 0.27371 0.23351
 O250 O 0.28596 0.23542 0.18670
 Zr251 Zr 0.21702 0.31547 0.25123
 O252 O 0.18897 0.27845 0.20555
 O253 O 0.21273 0.20726 0.18463
 O254 O 0.26650 0.28893 0.27925
 C255 C 0.27109 0.18563 0.11897
 C256 C 0.18126 0.12862 0.21119
 C257 C 0.14478 0.23437 0.14028
 C258 C 0.22355 0.31612 0.34590
 C259 C 0.33244 0.26539 0.32392
 C260 C 0.29907 0.36620 0.25541
 H261 H 0.31295 0.20363 0.27016
 H262 H 0.27004 0.32828 0.19063
 H263 H 0.20157 0.18866 0.16337
 H264 H 0.17153 0.26626 0.29788
 H265 H 0.18697 0.18598 0.33206
 H266 H 0.13158 0.20723 0.29864
 H267 H 0.33743 0.32113 0.17611
 H268 H 0.30186 0.28507 0.12487
 H269 H 0.29017 0.17395 0.32607
 H270 H 0.25701 0.12976 0.27232
 H271 H 0.21481 0.37009 0.19517
 H272 H 0.18808 0.32376 0.14443
 H273 H 0.32139 0.13112 0.19070
 H274 H 0.36305 0.22389 0.20436
 H275 H 0.11536 0.27836 0.22778
 H276 H 0.14551 0.32695 0.28689
 O277 O 0.74290 0.88467 0.22168
 O278 O 0.68327 0.86621 0.27141
 O279 O 0.84811 0.85094 0.27714
 O280 O 0.87036 0.79288 0.30963
 O281 O 0.82485 0.80909 0.15725
 O282 O 0.77915 0.75568 0.12857
 O283 O 0.76140 0.69000 0.33809
 O284 O 0.79655 0.74677 0.36703
 O285 O 0.65161 0.73437 0.29410
 O286 O 0.63598 0.79312 0.24494
 O287 O 0.72593 0.65813 0.22312
 O288 O 0.79037 0.67316 0.17823
 O289 O 0.77710 0.65660 0.27880
 O290 O 0.82919 0.66857 0.22553
 O291 O 0.66733 0.69530 0.22872
 O292 O 0.64389 0.75239 0.19720
 O293 O 0.69553 0.73275 0.34705
 O294 O 0.73652 0.78427 0.37437
 O295 O 0.75759 0.85196 0.16184
 O296 O 0.72578 0.79238 0.13223
 O297 O 0.86953 0.80715 0.20961
 O298 O 0.88483 0.75442 0.25428
 O299 O 0.78624 0.88030 0.29162
 O300 O 0.72409 0.87858 0.31614
 Zr301 Zr 0.74268 0.84014 0.26716
 O302 O 0.71121 0.78954 0.29206
 Zr303 Zr 0.83084 0.78997 0.25926
 O304 O 0.80210 0.73575 0.28172
 Zr305 Zr 0.76666 0.79136 0.18137
 O306 O 0.73425 0.73832 0.20143
 Zr307 Zr 0.75250 0.75106 0.32081
 O308 O 0.78339 0.80531 0.30145
 Zr309 Zr 0.68770 0.75434 0.24388
 O310 O 0.71584 0.80763 0.21884
 Zr311 Zr 0.77412 0.70183 0.23427
 O312 O 0.80784 0.75326 0.21100
 O313 O 0.79185 0.82711 0.22769
 O314 O 0.72599 0.71553 0.27493
 C315 C 0.74949 0.88431 0.18301
 C316 C 0.82573 0.88112 0.28984
 C317 C 0.86113 0.81299 0.17223
 C318 C 0.77084 0.65766 0.31741
 C319 C 0.65957 0.72866 0.33161
 C320 C 0.68629 0.66161 0.22308
 H321 H 0.68944 0.79955 0.31107
 H322 H 0.72256 0.72325 0.17796
 H323 H 0.80725 0.85166 0.21788
 H324 H 0.82253 0.71939 0.29596
 H325 H 0.81215 0.77316 0.36759
 H326 H 0.86655 0.76703 0.32470
 H327 H 0.65966 0.75194 0.17115
 H328 H 0.69975 0.80429 0.14295
 H329 H 0.75173 0.81083 0.37296
 H330 H 0.71970 0.86065 0.33987
 H331 H 0.76608 0.67369 0.16054
 H332 H 0.80315 0.73861 0.13461
 H333 H 0.67208 0.86623 0.24366
 H334 H 0.63094 0.80219 0.27339
 H335 H 0.88083 0.73523 0.23110
 H336 H 0.84660 0.67394 0.24942
 O337 O 0.77110 0.10978 0.76462
 O338 O 0.76141 0.10180 0.69874
 O339 O 0.87031 0.20233 0.76605
 O340 O 0.87704 0.26695 0.73932
 O341 O 0.77487 0.20989 0.85507
 O342 O 0.70878 0.22182 0.86185
 O343 O 0.76357 0.30447 0.65201
 O344 O 0.82378 0.26675 0.63989
 O345 O 0.66588 0.22064 0.66088
 O346 O 0.65761 0.15716 0.68989
 O347 O 0.67312 0.31106 0.74076
 O348 O 0.70295 0.32392 0.80302
 O349 O 0.73689 0.33799 0.70742
 O350 O 0.76388 0.34411 0.78041
 O351 O 0.63889 0.25298 0.72047
 O352 O 0.63632 0.18027 0.75181
 O353 O 0.72319 0.24727 0.62892
 O354 O 0.79618 0.20923 0.62425
 O355 O 0.74536 0.13878 0.82273
 O356 O 0.67713 0.17961 0.82746
 O357 O 0.83322 0.23995 0.82840
 O358 O 0.84503 0.30093 0.78428
 O359 O 0.84177 0.14378 0.73944
 O360 O 0.80545 0.13751 0.66898
 Zr361 Zr 0.78000 0.15835 0.72512
 O362 O 0.74017 0.19029 0.68720
 Zr363 Zr 0.82146 0.24303 0.76521
 O364 O 0.78845 0.27884 0.72478
 Zr365 Zr 0.73585 0.20107 0.80655
 O366 O 0.69927 0.24013 0.77261
 Zr367 Zr 0.77090 0.24516 0.67241
 O368 O 0.81177 0.21235 0.70900
 Zr369 Zr 0.68587 0.20841 0.71871
 O370 O 0.72144 0.16843 0.75333
 Zr371 Zr 0.73244 0.29320 0.75381
 O372 O 0.76585 0.25849 0.79519
 O373 O 0.79258 0.18753 0.78007
 O374 O 0.71624 0.26219 0.70123
 C375 C 0.75881 0.10790 0.80174
 C376 C 0.87151 0.16439 0.75612
 C377 C 0.81074 0.22655 0.85839
 C378 C 0.74895 0.33623 0.66980
 C379 C 0.68424 0.23788 0.63078
 C380 C 0.64106 0.29178 0.72806
 H381 H 0.73335 0.17370 0.66280
 H382 H 0.67410 0.24753 0.78846
 H383 H 0.80866 0.17118 0.79900
 H384 H 0.80507 0.30353 0.71757
 H385 H 0.84050 0.28284 0.65943
 H386 H 0.87885 0.25575 0.71126
 H387 H 0.62428 0.20105 0.77051
 H388 H 0.67227 0.15235 0.81466
 H389 H 0.77301 0.19674 0.60900
 H390 H 0.83284 0.15125 0.66552
 H391 H 0.71321 0.31146 0.82798
 H392 H 0.70458 0.25151 0.85877
 H393 H 0.73151 0.10397 0.69388
 H394 H 0.66901 0.13259 0.70248
 H395 H 0.82714 0.31038 0.80717
 H396 H 0.78552 0.35376 0.76092
 O397 O 0.23223 0.83261 0.85576
 O398 O 0.27650 0.86813 0.80594
 O399 O 0.13736 0.78176 0.77727
 O400 O 0.13675 0.74474 0.71879
 O401 O 0.19008 0.70416 0.86321
 O402 O 0.25519 0.67210 0.86943
 O403 O 0.27016 0.72550 0.65374
 O404 O 0.21380 0.77407 0.65646
 O405 O 0.36191 0.78328 0.72737
 O406 O 0.36127 0.81392 0.79089
 O407 O 0.32845 0.65894 0.74706
 O408 O 0.26836 0.62379 0.77929
 O409 O 0.27924 0.66604 0.68732
 O410 O 0.23142 0.62835 0.73234
 O411 O 0.36832 0.71471 0.76342
 O412 O 0.36465 0.75928 0.82660
 O413 O 0.31708 0.78562 0.67527
 O414 O 0.25880 0.82462 0.66908
 O415 O 0.23504 0.77076 0.88657
 O416 O 0.29005 0.72275 0.88604
 O417 O 0.14422 0.71223 0.81263
 O418 O 0.14771 0.68305 0.74441
 O419 O 0.17468 0.83767 0.79870
 O420 O 0.22784 0.87104 0.75876
 Zr421 Zr 0.23659 0.81744 0.79293
 O422 O 0.28396 0.80194 0.75044
 Zr423 Zr 0.18036 0.73609 0.76466
 O424 O 0.22476 0.71761 0.72092
 Zr425 Zr 0.24647 0.72815 0.83962
 O426 O 0.29390 0.70949 0.79950
 Zr427 Zr 0.25943 0.76876 0.70101
 O428 O 0.21128 0.78825 0.74127
 Zr429 Zr 0.32528 0.76129 0.77613
 O430 O 0.28064 0.78026 0.82029
 Zr431 Zr 0.26786 0.68038 0.74867
 O432 O 0.22044 0.69471 0.79125
 O433 O 0.20383 0.76677 0.81513
 O434 O 0.30228 0.72981 0.72562
 C435 C 0.23181 0.80994 0.88743
 C436 C 0.14035 0.81865 0.79111
 C437 C 0.15371 0.70115 0.84834
 C438 C 0.27750 0.68691 0.65475
 C439 C 0.35324 0.78975 0.69018
 C440 C 0.36339 0.67665 0.75360
 H441 H 0.29877 0.82718 0.74155
 H442 H 0.31235 0.69128 0.81415
 H443 H 0.18234 0.77431 0.83559
 H444 H 0.21081 0.70351 0.69812
 H445 H 0.19116 0.79041 0.66880
 H446 H 0.15013 0.73713 0.69254
 H447 H 0.36389 0.73095 0.83692
 H448 H 0.30823 0.74746 0.88462
 H449 H 0.26060 0.84707 0.68940
 H450 H 0.20885 0.86366 0.73652
 H451 H 0.28757 0.62685 0.80213
 H452 H 0.24188 0.65043 0.85261
 H453 H 0.26046 0.88951 0.82072
 H454 H 0.34356 0.83120 0.80870
 H455 H 0.15904 0.65953 0.75889
 H456 H 0.21181 0.63677 0.71155
 O457 O 0.24909 0.38554 0.72910
 O458 O 0.19994 0.37858 0.78251
 O459 O 0.35538 0.33582 0.79244
 O460 O 0.37496 0.27528 0.81417
 O461 O 0.33334 0.30060 0.66343
 O462 O 0.28208 0.25796 0.63243
 O463 O 0.24955 0.18841 0.84112
 O464 O 0.29081 0.24244 0.87254
 O465 O 0.14776 0.24551 0.79568
 O466 O 0.13882 0.30340 0.74631
 O467 O 0.21745 0.16294 0.72128
 O468 O 0.28481 0.16960 0.68379
 O469 O 0.26179 0.15334 0.78200
 O470 O 0.32034 0.16220 0.73262
 O471 O 0.16171 0.20349 0.73111
 O472 O 0.14735 0.26725 0.69723
 O473 O 0.18896 0.24012 0.85034
 O474 O 0.23641 0.28160 0.88122
 O475 O 0.26656 0.35347 0.66961
 O476 O 0.23247 0.29684 0.63748
 O477 O 0.37340 0.29798 0.71925
 O478 O 0.38048 0.23729 0.76142
 O479 O 0.30208 0.37998 0.78892
 O480 O 0.24007 0.37195 0.82966
 Zr481 Zr 0.25213 0.34120 0.77380
 O482 O 0.21334 0.29382 0.79543
 Zr483 Zr 0.33256 0.28048 0.76663
 O484 O 0.29723 0.22983 0.78796
 Zr485 Zr 0.27226 0.29147 0.68707
 O486 O 0.23393 0.24136 0.70517
 Zr487 Zr 0.24847 0.25053 0.82540
 O488 O 0.28680 0.30088 0.80819
 Zr489 Zr 0.18765 0.26115 0.74646
 O490 O 0.22283 0.31199 0.72452
 Zr491 Zr 0.26813 0.20013 0.73873
 O492 O 0.30759 0.24799 0.71682
 O493 O 0.30003 0.32339 0.73459
 O494 O 0.22024 0.21806 0.77821
 C495 C 0.25532 0.38515 0.69056
 C496 C 0.33942 0.37145 0.79707
 C497 C 0.36856 0.30230 0.68098
 C498 C 0.25484 0.15513 0.82050
 C499 C 0.15350 0.24001 0.83374
 C500 C 0.17834 0.16909 0.72197
 H501 H 0.19198 0.30622 0.81339
 H502 H 0.22201 0.22793 0.68091
 H503 H 0.31737 0.34675 0.72486
 H504 H 0.31499 0.21114 0.80284
 H505 H 0.30876 0.26738 0.87343
 H506 H 0.36354 0.25438 0.83299
 H507 H 0.16059 0.25447 0.67299
 H508 H 0.20621 0.30773 0.64877
 H509 H 0.22158 0.30687 0.87503
 H510 H 0.25984 0.36150 0.84939
 H511 H 0.26445 0.17667 0.66317
 H512 H 0.30072 0.23539 0.63891
 H513 H 0.18056 0.37104 0.76070
 H514 H 0.13573 0.31505 0.77409
 H515 H 0.37722 0.22290 0.73499
 H516 H 0.33511 0.16328 0.75859
 O517 O 0.80412 0.63596 0.66025
 O518 O 0.84739 0.62688 0.71867
 O519 O 0.68304 0.63241 0.72754
 O520 O 0.65392 0.67213 0.77704
 O521 O 0.70704 0.71897 0.63085
 O522 O 0.74604 0.78373 0.62941
 O523 O 0.75080 0.75900 0.84810
 O524 O 0.72509 0.68861 0.84816
 O525 O 0.86941 0.75019 0.78976
 O526 O 0.89289 0.71561 0.72462
 O527 O 0.78966 0.83904 0.75268
 O528 O 0.72525 0.83645 0.70842
 O529 O 0.73917 0.81358 0.80798
 O530 O 0.68837 0.82094 0.75704
 O531 O 0.85130 0.80712 0.74515
 O532 O 0.87962 0.76421 0.69007
 O533 O 0.82123 0.73317 0.83830
 O534 O 0.79269 0.66726 0.84395
 O535 O 0.78071 0.68677 0.62050
 O536 O 0.80359 0.75597 0.61856
 O537 O 0.66341 0.69233 0.67923
 O538 O 0.63992 0.72645 0.74244
 O539 O 0.74572 0.60488 0.71252
 O540 O 0.80352 0.60241 0.75563
 Zr541 Zr 0.78828 0.65349 0.72043
 O542 O 0.81468 0.69248 0.76459
 Zr543 Zr 0.69656 0.69588 0.73339
 O544 O 0.71935 0.73845 0.77686
 Zr545 Zr 0.76196 0.73164 0.66275
 O546 O 0.78925 0.77400 0.70335
 Zr547 Zr 0.76929 0.71295 0.80630
 O548 O 0.74385 0.66841 0.76592
 Zr549 Zr 0.83620 0.74566 0.73553
 O550 O 0.81306 0.70522 0.69073
 Zr551 Zr 0.74509 0.79062 0.74803
 O552 O 0.71640 0.75070 0.70503
 O553 O 0.73972 0.67802 0.68927
 O554 O 0.79333 0.76567 0.77927
 C555 C 0.79830 0.65245 0.62565
 C556 C 0.70633 0.60212 0.71783
 C557 C 0.67228 0.70286 0.64256
 C558 C 0.74220 0.79685 0.84288
 C559 C 0.85714 0.74644 0.82683
 C560 C 0.82950 0.83892 0.75124
 H561 H 0.83689 0.67833 0.77866
 H562 H 0.79986 0.79792 0.68797
 H563 H 0.72874 0.65849 0.66874
 H564 H 0.69702 0.74570 0.79649
 H565 H 0.71632 0.66138 0.83739
 H566 H 0.66003 0.68579 0.80326
 H567 H 0.86673 0.78560 0.67385
 H568 H 0.83126 0.74586 0.62516
 H569 H 0.78984 0.64112 0.82874
 H570 H 0.78085 0.59841 0.77595
 H571 H 0.74890 0.84393 0.69028
 H572 H 0.71947 0.79351 0.64106
 H573 H 0.86551 0.64488 0.70179
 H574 H 0.89630 0.69538 0.74633
 H575 H 0.64097 0.75061 0.72457
 H576 H 0.66873 0.80119 0.76985
 O577 O 0.26620 0.63780 0.29137
 O578 O 0.25775 0.63087 0.22600
 O579 O 0.36722 0.73368 0.28733
 O580 O 0.37198 0.80007 0.27206
 O581 O 0.27385 0.73286 0.38293
 O582 O 0.20648 0.75452 0.38879
 O583 O 0.25995 0.83411 0.18166
 O584 O 0.32176 0.79973 0.17413
 O585 O 0.16308 0.74492 0.18730
 O586 O 0.15916 0.68066 0.21938
 O587 O 0.16642 0.83786 0.26821
 O588 O 0.19601 0.85250 0.33101
 O589 O 0.23158 0.86684 0.23684
 O590 O 0.25652 0.87082 0.31259
 O591 O 0.13569 0.77943 0.24390
 O592 O 0.13186 0.71294 0.28135
 O593 O 0.21858 0.77894 0.15933
 O594 O 0.28693 0.73904 0.15065
 O595 O 0.23709 0.66569 0.34867
 O596 O 0.17499 0.70811 0.35941
 O597 O 0.33166 0.76326 0.35570
 O598 O 0.33733 0.82948 0.31705
 O599 O 0.34064 0.67375 0.26221
 O600 O 0.30186 0.66572 0.19636
 Zr601 Zr 0.27725 0.68698 0.25272
 O602 O 0.23772 0.71919 0.21491
 Zr603 Zr 0.31680 0.77188 0.29409
 O604 O 0.28318 0.80801 0.25435
 Zr605 Zr 0.23259 0.72889 0.33501
 O606 O 0.19488 0.76672 0.30047
 Zr607 Zr 0.26716 0.77486 0.20138
 O608 O 0.30795 0.74190 0.23749
 Zr609 Zr 0.18272 0.73547 0.24602
 O610 O 0.21873 0.69677 0.28117
 Zr611 Zr 0.22643 0.82113 0.28279
 O612 O 0.26107 0.78671 0.32401
 O613 O 0.28963 0.71530 0.30812
 O614 O 0.21199 0.79021 0.22984
 C615 C 0.24892 0.63499 0.32661
 C616 C 0.37095 0.69671 0.27451
 C617 C 0.31063 0.74783 0.38558
 C618 C 0.24439 0.86548 0.19934
 C619 C 0.18040 0.76654 0.15945
 C620 C 0.13603 0.81805 0.25232
 H621 H 0.23158 0.70309 0.18999
 H622 H 0.16893 0.77287 0.31562
 H623 H 0.30661 0.69768 0.32512
 H624 H 0.29955 0.83304 0.24768
 H625 H 0.34423 0.78065 0.18001
 H626 H 0.36865 0.80287 0.24247
 H627 H 0.10711 0.71324 0.26415
 H628 H 0.16554 0.68494 0.34201
 H629 H 0.28231 0.75533 0.12604
 H630 H 0.32598 0.68365 0.18951
 H631 H 0.18794 0.83159 0.35124
 H632 H 0.21714 0.78312 0.39063
 H633 H 0.22832 0.63421 0.21947
 H634 H 0.16383 0.65853 0.23894
 H635 H 0.32024 0.83561 0.34162
 H636 H 0.27795 0.88189 0.29361
 O637 O 0.69056 0.33725 0.32809
 O638 O 0.73653 0.37246 0.27878
 O639 O 0.60211 0.28035 0.24636
 O640 O 0.60173 0.23564 0.19524
 O641 O 0.65812 0.20675 0.33996
 O642 O 0.72577 0.18064 0.34812
 O643 O 0.73593 0.22615 0.12946
 O644 O 0.68022 0.26869 0.12902
 O645 O 0.82473 0.29323 0.20197
 O646 O 0.82167 0.32354 0.27132
 O647 O 0.80013 0.16714 0.22566
 O648 O 0.74278 0.12942 0.25926
 O649 O 0.74801 0.16883 0.16555
 O650 O 0.70502 0.12969 0.21323
 O651 O 0.83628 0.22565 0.24065
 O652 O 0.83210 0.27138 0.29986
 O653 O 0.78074 0.28915 0.14911
 O654 O 0.71954 0.32672 0.14585
 O655 O 0.69622 0.27723 0.36179
 O656 O 0.75600 0.23510 0.36333
 O657 O 0.61113 0.21322 0.29024
 O658 O 0.61800 0.17909 0.22358
 O659 O 0.63589 0.33899 0.26555
 O660 O 0.68625 0.37621 0.23664
 Zr661 Zr 0.69836 0.32060 0.26598
 O662 O 0.74650 0.30669 0.22373
 Zr663 Zr 0.64682 0.23533 0.24078
 O664 O 0.69249 0.21805 0.19802
 Zr665 Zr 0.71259 0.23448 0.31628
 O666 O 0.76156 0.21734 0.27692
 Zr667 Zr 0.72414 0.27004 0.17572
 O668 O 0.67483 0.28817 0.21513
 Zr669 Zr 0.79008 0.26972 0.25149
 O670 O 0.74412 0.28728 0.29504
 Zr671 Zr 0.73795 0.18469 0.22693
 O672 O 0.68934 0.19762 0.26892
 O673 O 0.66766 0.26962 0.29010
 O674 O 0.76953 0.23495 0.20192
 C675 C 0.69037 0.31600 0.36072
 C676 C 0.60294 0.31851 0.25627
 C677 C 0.62162 0.20234 0.32575
 C678 C 0.74417 0.18792 0.13205
 C679 C 0.81609 0.29753 0.16444
 C680 C 0.83397 0.18711 0.23198
 H681 H 0.75921 0.33239 0.21335
 H682 H 0.78115 0.20092 0.29218
 H683 H 0.64488 0.27724 0.30915
 H684 H 0.67914 0.20217 0.17598
 H685 H 0.65487 0.28137 0.14042
 H686 H 0.61616 0.23100 0.16886
 H687 H 0.82850 0.24549 0.31490
 H688 H 0.77235 0.26092 0.36064
 H689 H 0.69374 0.33942 0.15609
 H690 H 0.70402 0.37716 0.21186
 H691 H 0.76180 0.13461 0.28196
 H692 H 0.71486 0.15737 0.33171
 H693 H 0.75641 0.36409 0.29938
 H694 H 0.81296 0.34642 0.25428
 H695 H 0.62943 0.15760 0.24079
 H696 H 0.68321 0.13631 0.19393
 C697 C 0.28825 0.12836 0.02962
 C698 C 0.30458 0.16575 0.01679
 C699 C 0.30229 0.19112 0.04961
 C700 C 0.28528 0.16767 0.08031
 O701 O 0.27730 0.12940 0.06870
 H702 H 0.31605 0.17436 -0.01304
 H703 H 0.31047 0.22344 0.05070
 C704 C 0.81138 0.60137 0.53262
 C705 C 0.84846 0.59090 0.54916
 C706 C 0.84914 0.60984 0.58623
 C707 C 0.81245 0.63040 0.58933
 O708 O 0.78929 0.62515 0.55710
 H709 H 0.87056 0.56918 0.53707
 H710 H 0.87261 0.60758 0.60897
 C711 C 0.75514 0.97335 0.12246
 C712 C 0.75873 0.99086 0.16110
 C713 C 0.75609 0.95973 0.18737
 C714 C 0.75149 0.92488 0.16396
 O715 O 0.75129 0.93262 0.12436
 H716 H 0.76286 1.02241 0.17062
 H717 H 0.75810 0.96216 0.22010
 C718 C 0.24973 0.47273 0.62952
 C719 C 0.23026 0.48787 0.66409
 C720 C 0.22941 0.45663 0.69064
 C721 C 0.24837 0.42442 0.67054
 O722 O 0.26053 0.43388 0.63304
 H723 H 0.21855 0.51837 0.66947
 H724 H 0.21689 0.45739 0.72140
 C725 C 0.75875 0.01736 0.85975
 C726 C 0.77643 0.00229 0.82422
 C727 C 0.77841 0.03429 0.79861
 C728 C 0.76196 0.06702 0.82006
 O729 O 0.75019 0.05702 0.85756
 H730 H 0.78703 -0.02840 0.81774
 H731 H 0.79060 0.03382 0.76773
 C732 C 0.23302 0.53930 0.37360
 C733 C 0.22255 0.52843 0.33430
 C734 C 0.22712 0.56309 0.31253
 C735 C 0.23948 0.59299 0.33976
 O736 O 0.24293 0.57896 0.37705
 H737 H 0.21323 0.49887 0.32208
 H738 H 0.22211 0.56630 0.28035
 C739 C 0.22879 0.86944 0.97816
 C740 C 0.21323 0.83265 0.99293
 C741 C 0.21186 0.80654 0.96074
 C742 C 0.22620 0.82885 0.92807
 O743 O 0.23634 0.86729 0.93826
 H744 H 0.20373 0.82512 1.02346
 H745 H 0.20169 0.77474 0.96105
 C746 C 0.69112 0.37378 0.45152
 C747 C 0.66099 0.34539 0.46258
 C748 C 0.65552 0.32098 0.42920
 C749 C 0.68212 0.33673 0.39987
 O750 O 0.70376 0.36889 0.41318
 H751 H 0.64569 0.34238 0.49192
 H752 H 0.63542 0.29417 0.42678
 C753 C 0.07309 0.23523 0.06081
 C754 C 0.04816 0.21834 0.09122
 C755 C 0.07257 0.21436 0.12353
 C756 C 0.11091 0.22919 0.11125
 O757 O 0.11180 0.24129 0.07278
 H758 H 0.01555 0.21041 0.09035
 H759 H 0.06305 0.20348 0.15326
 C760 C 0.60389 0.69732 0.56090
 C761 C 0.58554 0.66733 0.58463
 C762 C 0.60948 0.66496 0.61782
 C763 C 0.64071 0.69380 0.61206
 O764 O 0.63752 0.71361 0.57743
 H765 H 0.55684 0.65076 0.57925
 H766 H 0.60419 0.64536 0.64375
 C767 C 0.06444 0.69257 0.90837
 C768 C 0.08766 0.66490 0.92911
 C769 C 0.12388 0.66183 0.90747
 C770 C 0.11978 0.68745 0.87502
 O771 O 0.08381 0.70582 0.87530
 H772 H 0.08066 0.65171 0.95850
 H773 H 0.15107 0.64539 0.91586
 C774 C 0.53642 0.18509 0.39057
 C775 C 0.56102 0.15442 0.40470
 C776 C 0.59561 0.15506 0.38037
 C777 C 0.58934 0.18561 0.35290
 O778 O 0.55352 0.20376 0.35883
 H779 H 0.55595 0.13619 0.43161
 H780 H 0.62315 0.13723 0.38373
 C781 C 0.94786 0.82161 0.10671
 C782 C 0.92052 0.84498 0.08563
 C783 C 0.88624 0.84775 0.10963
 C784 C 0.89446 0.82559 0.14367
 O785 O 0.93224 0.81008 0.14252
 H786 H 0.92438 0.85672 0.05516
 H787 H 0.85741 0.86171 0.10195
 C788 C 0.45797 0.30072 0.61781
 C789 C 0.46929 0.33281 0.64317
 C790 C 0.43622 0.33883 0.66864
 C791 C 0.40657 0.31059 0.65665
 O792 O 0.41955 0.28733 0.62563
 H793 H 0.49851 0.34948 0.64334
 H794 H 0.43427 0.36046 0.69381
 C795 C 0.85421 0.25580 0.95132
 C796 C 0.81806 0.23749 0.96599
 C797 C 0.79924 0.22153 0.93303
 C798 C 0.82457 0.23175 0.90031
 O799 O 0.85851 0.25193 0.91126
 H800 H 0.80687 0.23507 0.99709
 H801 H 0.76952 0.20570 0.93273
 C802 C 0.36936 0.75563 0.47413
 C803 C 0.33422 0.73764 0.49092
 C804 C 0.30818 0.73164 0.45965
 C805 C 0.32920 0.74655 0.42589
 O806 O 0.36668 0.76092 0.43444
 H807 H 0.32846 0.72996 0.52237
 H808 H 0.27723 0.71849 0.46136
 C809 C 0.12440 0.03522 0.20648
 C810 C 0.16151 0.02224 0.18963
 C811 C 0.18670 0.05573 0.18868
 C812 C 0.16355 0.08721 0.20476
 O813 O 0.12538 0.07518 0.21518
 H814 H 0.16923 -0.00782 0.17817
 H815 H 0.21842 0.05714 0.17761
 C816 C 0.64478 0.51224 0.70843
 C817 C 0.68047 0.49830 0.68960
 C818 C 0.70804 0.53004 0.69118
 C819 C 0.68727 0.56149 0.71046
 O820 O 0.64871 0.55101 0.72080
 H821 H 0.68585 0.46871 0.67577
 H822 H 0.73945 0.53040 0.67916
 C823 C 0.95999 0.11083 0.78187
 C824 C 0.93568 0.10383 0.81638
 C825 C 0.90019 0.12392 0.81070
 C826 C 0.90504 0.14162 0.77330
 O827 O 0.94151 0.13466 0.75572
 H828 H 0.94235 0.08489 0.84206
 H829 H 0.87328 0.12463 0.83083
 C830 C 0.46583 0.64498 0.26502
 C831 C 0.48086 0.68265 0.27788
 C832 C 0.44713 0.70613 0.28380
 C833 C 0.41362 0.68136 0.27398
 O834 O 0.42480 0.64395 0.26269
 H835 H 0.51259 0.69197 0.28268
 H836 H 0.44702 0.73792 0.29367
 C837 C 0.04802 0.87344 0.79732
 C838 C 0.03510 0.83814 0.81723
 C839 C 0.06918 0.81510 0.81991
 C840 C 0.10073 0.83758 0.80175
 O841 O 0.08835 0.87338 0.78841
 H842 H 0.00449 0.82954 0.82837
 H843 H 0.07061 0.78449 0.83203
 C844 C 0.51447 0.38062 0.26227
 C845 C 0.49598 0.34362 0.25132
 C846 C 0.52677 0.31649 0.24824
 C847 C 0.56236 0.33837 0.25708
 O848 O 0.55527 0.37767 0.26539
 H849 H 0.46387 0.33703 0.24492
 H850 H 0.52366 0.28439 0.23987
 C851 C 0.87799 0.97585 0.29035
 C852 C 0.84371 0.98698 0.31336
 C853 C 0.82242 0.95145 0.32036
 C854 C 0.84471 0.92103 0.30077
 O855 O 0.87886 0.93567 0.28312
 H856 H 0.83450 1.01732 0.32309
 H857 H 0.79230 0.94852 0.33513
 C858 C 0.40288 0.45843 0.80989
 C859 C 0.41469 0.43763 0.84386
 C860 C 0.39075 0.40282 0.84482
 C861 C 0.36603 0.40507 0.81152
 O862 O 0.37331 0.43856 0.79019
 H863 H 0.44054 0.44499 0.86313
 H864 H 0.39271 0.37772 0.86577
 C865 C 0.07596 0.24480 0.90989
 C866 C 0.05167 0.23097 0.87829
 C867 C 0.07803 0.22529 0.84611
 C868 C 0.11659 0.23577 0.86027
 O869 O 0.11562 0.24732 0.89912
 H870 H 0.01848 0.22611 0.87853
 H871 H 0.07003 0.21569 0.81563
 C872 C 0.58738 0.71913 0.41186
 C873 C 0.56096 0.71011 0.38045
 C874 C 0.58524 0.71012 0.34621
 C875 C 0.62461 0.71914 0.35918
 O876 O 0.62614 0.72432 0.39904
 H877 H 0.52781 0.70507 0.38221
 H878 H 0.57539 0.70575 0.31528
 C879 C 0.93316 0.76744 0.89901
 C880 C 0.90268 0.79361 0.91365
 C881 C 0.87098 0.78930 0.88769
 C882 C 0.88417 0.76153 0.85879
 O883 O 0.92184 0.74825 0.86508
 H884 H 0.90201 0.81261 0.94075
 H885 H 0.84130 0.80403 0.88992
 C886 C 0.40856 0.26807 0.39745
 C887 C 0.38399 0.29879 0.41361
 C888 C 0.35300 0.30291 0.38682
 C889 C 0.36125 0.27500 0.35617
 O890 O 0.39470 0.25373 0.36239
 H891 H 0.38726 0.31560 0.44191
 H892 H 0.32682 0.32298 0.38975
 C893 C 0.09928 0.79571 0.09817
 C894 C 0.13049 0.81818 0.07916
 C895 C 0.16554 0.80917 0.09905
 C896 C 0.15334 0.78127 0.12798
 O897 O 0.11301 0.77324 0.12789
 H898 H 0.12789 0.83841 0.05361
 H899 H 0.19624 0.82185 0.09395
 C900 C 0.60181 0.26397 0.56988
 C901 C 0.63274 0.26750 0.54033
 C902 C 0.66877 0.25906 0.55911
 C903 C 0.65693 0.24985 0.59833
 O904 O 0.61658 0.25311 0.60502
 H905 H 0.62936 0.27447 0.50863
 H906 H 0.69957 0.25859 0.54566
 C907 C 0.88446 0.31876 0.08305
 C908 C 0.90806 0.33643 0.11338
 C909 C 0.88504 0.33187 0.14834
 C910 C 0.84911 0.31209 0.13672
 O911 O 0.84858 0.30436 0.09734
 H912 H 0.93884 0.34978 0.11086
 H913 H 0.89374 0.34103 0.17872
 C914 C 0.42074 0.80295 0.60679
 C915 C 0.44879 0.81324 0.63656
 C916 C 0.42680 0.81157 0.67242
 C917 C 0.38708 0.80066 0.66182
 O918 O 0.38335 0.79568 0.62228
 H919 H 0.48162 0.81947 0.63304
 H920 H 0.43860 0.81611 0.70267
 C921 C 0.25494 0.07971 0.89509
 C922 C 0.24589 0.05344 0.86293
 C923 C 0.24528 0.07793 0.82934
 C924 C 0.25334 0.11710 0.84375
 O925 O 0.25913 0.11805 0.88307
 H926 H 0.24100 0.02057 0.86342
 H927 H 0.23913 0.06850 0.79839
 C928 C 0.77751 0.57790 0.38747
 C929 C 0.77861 0.55390 0.35260
 C930 C 0.77682 0.58077 0.32133
 C931 C 0.77443 0.61906 0.33944
 O932 O 0.77494 0.61741 0.37946
 H933 H 0.78092 0.52093 0.35013
 H934 H 0.77687 0.57335 0.28919
 C935 C 0.74690 0.10681 0.06152
 C936 C 0.74104 0.13731 0.03343
 C937 C 0.74091 0.17345 0.05553
 C938 C 0.74699 0.16220 0.09515
 O939 O 0.75069 0.12239 0.09849
 H940 H 0.73649 0.13400 0.00111
 H941 H 0.73569 0.20389 0.04434
 C942 C 0.28314 0.61083 0.57897
 C943 C 0.27947 0.64358 0.55311
 C944 C 0.27881 0.67780 0.57782
 C945 C 0.28243 0.66336 0.61666
 O946 O 0.28514 0.62314 0.61725
 H947 H 0.27502 0.64271 0.52066
 H948 H 0.27375 0.70906 0.56893
 C949 C 0.73410 0.87833 0.91396
 C950 C 0.73432 0.84694 0.94171
 C951 C 0.73615 0.81149 0.91893
 C952 C 0.73672 0.82377 0.87900
 O953 O 0.73546 0.86403 0.87606
 H954 H 0.73467 0.84936 0.97448
 H955 H 0.73802 0.78055 0.93007
 C956 C 0.23464 0.39446 0.41924
 C957 C 0.23895 0.36182 0.44506
 C958 C 0.23342 0.32741 0.42141
 C959 C 0.22581 0.34155 0.38307
 O960 O 0.22659 0.38195 0.38178
 H961 H 0.24609 0.36260 0.47698
 H962 H 0.23606 0.29590 0.43067
 C963 C 0.23882 0.93188 0.11710
 C964 C 0.24075 0.96197 0.14710
 C965 C 0.24120 0.94158 0.18329
 C966 C 0.24043 0.90068 0.17253
 O967 O 0.23907 0.89491 0.13278
 H968 H 0.24224 0.99478 0.14335
 H969 H 0.24338 0.95486 0.21347
 C970 C 0.74184 0.40691 0.59117
 C971 C 0.74540 0.43500 0.62283
 C972 C 0.74749 0.41235 0.65726
 C973 C 0.74554 0.37223 0.64403
 O974 O 0.74205 0.36878 0.60409
 H975 H 0.74583 0.46810 0.62113
 H976 H 0.75077 0.42365 0.68809
 C977 C 0.09944 0.09358 0.71847
 C978 C 0.12986 0.07167 0.69813
 C979 C 0.16314 0.09781 0.69504
 C980 C 0.15066 0.13384 0.71341
 O981 O 0.11207 0.13145 0.72748
 H982 H 0.12871 0.03999 0.68804
 H983 H 0.19339 0.09098 0.68229
 C984 C 0.60368 0.59057 0.22377
 C985 C 0.63468 0.56232 0.21751
 C986 C 0.67081 0.58499 0.21437
 C987 C 0.65910 0.62521 0.21880
 O988 O 0.61876 0.62845 0.22437
 H989 H 0.63183 0.52924 0.21686
 H990 H 0.70187 0.57353 0.21093
 C991 C 0.06886 0.89534 0.22489
 C992 C 0.04217 0.86276 0.21687
 C993 C 0.06332 0.82841 0.22678
 C994 C 0.10085 0.84282 0.24073
 O995 O 0.10421 0.88312 0.23937
 H996 H 0.01155 0.86375 0.20442
 H997 H 0.05295 0.79682 0.22363
 C998 C 0.57631 0.37419 0.71504
 C999 C 0.54514 0.34450 0.71703
 C1000 C 0.56484 0.30780 0.72012
 C1001 C 0.60624 0.31828 0.72077
 O1002 O 0.61300 0.35801 0.71750
 H1003 H 0.51214 0.34890 0.71766
 H1004 H 0.55078 0.27765 0.72352
 C1005 C 0.91100 0.11263 0.23495
 C1006 C 0.93714 0.14607 0.22866
 C1007 C 0.91181 0.17905 0.22618
 C1008 C 0.87217 0.16322 0.23058
 O1009 O 0.87166 0.12313 0.23596
 H1010 H 0.97059 0.14668 0.22759
 H1011 H 0.92110 0.21081 0.22221
 C1012 C 0.43484 0.59741 0.75198
 C1013 C 0.46298 0.62940 0.74631
 C1014 C 0.43998 0.66404 0.74587
 C1015 C 0.39964 0.65049 0.75085
 O1016 O 0.39644 0.61028 0.75470
 H1017 H 0.49634 0.62794 0.74420
 H1018 H 0.45120 0.69532 0.74270
 C1019 C 0.90673 0.91388 0.76373
 C1020 C 0.87406 0.94064 0.76241
 C1021 C 0.83936 0.91630 0.75810
 C1022 C 0.85368 0.87682 0.75701
 O1023 O 0.89415 0.87542 0.76052
 H1024 H 0.87514 0.97376 0.76459
 H1025 H 0.80778 0.92608 0.75549
 C1026 C 0.37694 0.44012 0.26791
 C1027 C 0.34475 0.46745 0.27054
 C1028 C 0.30927 0.44370 0.26718
 C1029 C 0.32297 0.40409 0.26246
 O1030 O 0.36344 0.40221 0.26306
 H1031 H 0.34675 0.50041 0.27434
 H1032 H 0.27768 0.45403 0.26749
   
