data_POSCAR
  _audit_creation_date              2014-09-24
  _audit_creation_method            'ToBaCCo'
  _symmetry_space_group_name_H-M    'P1'
  _symmetry_Int_Tables_number       1
  _symmetry_cell_setting            triclinic
  loop_
  _symmetry_equiv_pos_as_xyz
 x,y,z
_cell_length_a 22.1335
_cell_length_b 28.3631
_cell_length_c 12.3404
_cell_angle_alpha 90.225700
_cell_angle_beta 89.999900
_cell_angle_gamma 90.124100
loop_
  _atom_site_label
  _atom_site_type_symbol
  _atom_site_fract_x
  _atom_site_fract_y
  _atom_site_fract_z
O1 O 0.22054 0.29489 0.11965
 O2 O 0.32457 0.20344 0.21831
 O3 O 0.22070 0.20285 0.11978
 O4 O 0.32420 0.29535 0.21851
 O5 O 0.27735 0.29540 0.37661
 O6 O 0.17384 0.20298 0.27777
 O7 O 0.27768 0.20353 0.37636
 O8 O 0.17371 0.29501 0.27776
 Cu9 Cu 0.27716 0.24911 0.15314
 Cu10 Cu 0.22091 0.24922 0.34297
 C11 C 0.17972 0.31074 0.18217
 C12 C 0.31868 0.18782 0.31403
 C13 C 0.17983 0.18693 0.18211
 C14 C 0.31818 0.31125 0.31423
 O15 O 0.82453 0.29548 0.28013
 O16 O 0.72104 0.20334 0.37884
 O17 O 0.82490 0.20353 0.28032
 O18 O 0.72088 0.29531 0.37896
 O19 O 0.67404 0.29489 0.22086
 O20 O 0.77802 0.20307 0.12225
 O21 O 0.67417 0.20291 0.22086
 O22 O 0.77770 0.29500 0.12200
 Cu23 Cu 0.77753 0.24944 0.34545
 Cu24 Cu 0.72127 0.24890 0.15562
 C25 C 0.81849 0.31109 0.18444
 C26 C 0.68014 0.18722 0.31656
 C27 C 0.81898 0.18755 0.18463
 C28 C 0.68003 0.31092 0.31650
 O29 O 0.72269 0.79671 0.62276
 O30 O 0.82579 0.70459 0.72123
 O31 O 0.72214 0.70477 0.62239
 O32 O 0.82653 0.79657 0.72136
 O33 O 0.77968 0.79689 0.87935
 O34 O 0.67530 0.70503 0.78050
 O35 O 0.77896 0.70492 0.87935
 O36 O 0.67581 0.79700 0.78082
 Cu37 Cu 0.77900 0.75065 0.65606
 Cu38 Cu 0.72274 0.75101 0.84590
 C39 C 0.68188 0.81265 0.68516
 C40 C 0.81967 0.68889 0.81684
 C41 C 0.68120 0.68909 0.68479
 C42 C 0.82072 0.81258 0.81709
 O43 O 0.22116 0.70495 0.87937
 O44 O 0.32500 0.79691 0.78086
 O45 O 0.22113 0.79696 0.87937
 O46 O 0.32483 0.70498 0.78053
 O47 O 0.27798 0.70474 0.62242
 O48 O 0.17428 0.79667 0.72137
 O49 O 0.27813 0.79664 0.62279
 O50 O 0.17434 0.70466 0.72125
 Cu51 Cu 0.27771 0.75100 0.84594
 Cu52 Cu 0.22146 0.75067 0.65610
 C53 C 0.18036 0.68894 0.81684
 C54 C 0.31907 0.81254 0.68518
 C55 C 0.18022 0.81271 0.81707
 C56 C 0.31883 0.68905 0.68480
 C57 C 1.03280 0.03893 0.04017
 C58 C 0.96886 0.03878 0.04030
 C59 C 0.93794 -0.00080 0.00002
 C60 C 0.96888 -0.04025 -0.04038
 C61 C 1.03282 -0.04012 -0.04051
 C62 C 1.06375 -0.00052 -0.00024
 H63 H 1.11277 -0.00041 -0.00033
 H64 H 0.88892 -0.00090 0.00011
 C65 C 0.53160 0.53963 0.54060
 C66 C 0.46767 0.53968 0.54034
 C67 C 0.43662 0.50023 0.49965
 C68 C 0.46747 0.46074 0.45927
 C69 C 0.53140 0.46066 0.45968
 C70 C 0.56244 0.50012 0.50030
 H71 H 0.61146 0.50009 0.50054
 H72 H 0.38760 0.50026 0.49941
 C73 C -0.03253 0.46046 0.04033
 C74 C 0.03141 0.46037 0.03990
 C75 C 0.06246 0.49976 -0.00039
 C76 C 0.03160 0.53919 -0.04035
 C77 C -0.03233 0.53924 -0.04008
 C78 C -0.06338 0.49987 0.00029
 H79 H -0.11240 0.49991 0.00054
 H80 H 0.11148 0.49973 -0.00062
 C81 C 0.46889 0.96129 0.54050
 C82 C 0.53282 0.96142 0.54061
 C83 C 0.56375 1.00081 0.50004
 C84 C 0.53280 1.04007 0.45936
 C85 C 0.46887 1.03992 0.45924
 C86 C 0.43795 1.00053 0.49982
 H87 H 0.38893 1.00042 0.49974
 H88 H 0.61277 1.00092 0.50011
 N89 N 1.09851 0.13293 0.21164
 C90 C 1.14175 0.15111 0.14569
 N91 N 1.14818 0.13279 0.04450
 N92 N 1.11274 0.09769 0.01063
 C93 C 1.06915 0.07983 0.07622
 N94 N 1.06311 0.09781 0.17766
 N95 N 0.64713 0.63335 0.54502
 C96 C 0.64078 0.65153 0.64627
 N97 N 0.59773 0.63332 0.71243
 N98 N 0.56223 0.59827 0.67841
 C99 C 0.56807 0.58042 0.57678
 N100 N 0.61160 0.59833 0.51109
 N101 N -0.09859 0.36741 0.21234
 C102 C -0.14137 0.34872 0.14600
 N103 N -0.14764 0.36642 0.04461
 N104 N -0.11225 0.40143 0.01069
 C105 C -0.06897 0.41979 0.07655
 N106 N -0.06325 0.40244 0.17835
 N107 N 0.40266 0.86833 0.71264
 C108 C 0.35952 0.84993 0.64659
 N109 N 0.35323 0.86769 0.54526
 N110 N 0.38888 0.90250 0.51117
 C111 C 0.43247 0.92060 0.57675
 N112 N 0.43827 0.90317 0.67846
 N113 N -0.14693 0.63329 -0.04377
 C114 C -0.14043 0.65121 -0.14493
 N115 N -0.09767 0.63265 -0.21131
 N116 N -0.06257 0.59754 -0.17758
 C117 C -0.06853 0.57997 -0.07602
 N118 N -0.11179 0.59820 -0.01011
 N119 N 0.35296 1.13292 0.45411
 C120 C 0.35924 1.15067 0.35275
 N121 N 0.40249 1.13249 0.28683
 N122 N 0.43820 1.09786 0.32115
 C123 C 0.43239 1.08044 0.42288
 N124 N 0.38870 1.09832 0.48834
 N125 N 1.14840 -0.13342 -0.04514
 C126 C 1.14203 -0.15169 -0.14641
 N127 N 1.09873 -0.13370 -0.21229
 N128 N 1.06323 -0.09879 -0.17818
 C129 C 1.06922 -0.08084 -0.07667
 N130 N 1.11286 -0.09853 -0.01115
 N131 N 0.64641 0.36692 0.45584
 C132 C 0.63984 0.34853 0.35481
 N133 N 0.59682 0.36662 0.28861
 N134 N 0.56156 0.40174 0.32238
 C135 C 0.56764 0.41981 0.42379
 N136 N 0.61112 0.40202 0.48952
 N137 N 0.90259 -0.13389 -0.21217
 C138 C 0.85919 -0.15189 -0.14631
 N139 N 0.85296 -0.13368 -0.04499
 N140 N 0.88872 -0.09881 -0.01094
 C141 C 0.93244 -0.08109 -0.07645
 N142 N 0.93831 -0.09900 -0.17801
 N143 N 0.40130 0.36735 0.28670
 C144 C 0.35840 0.34892 0.35286
 N145 N 0.35214 0.36688 0.45432
 N146 N 0.38762 0.40190 0.48848
 C147 C 0.43100 0.42001 0.42280
 N148 N 0.43674 0.40239 0.32093
 N149 N 0.14663 0.63331 -0.04384
 C150 C 0.14025 0.65125 -0.14500
 N151 N 0.09745 0.63266 -0.21146
 N152 N 0.06219 0.59751 -0.17781
 C153 C 0.06802 0.57994 -0.07625
 N154 N 0.11132 0.59819 -0.01027
 N155 N 0.59864 1.13324 0.28734
 C156 C 0.64197 1.15162 0.35314
 N157 N 0.64838 1.13374 0.45442
 N158 N 0.61285 1.09886 0.48851
 C159 C 0.56917 1.08079 0.42308
 N160 N 0.56314 1.09834 0.32155
 N161 N 0.14622 0.36646 0.04310
 C162 C 0.13962 0.34832 0.14403
 N163 N 0.09669 0.36666 0.21039
 N164 N 0.06154 0.40177 0.17687
 C165 C 0.06762 0.41958 0.07555
 N166 N 0.11102 0.40156 0.00966
 N167 N 0.64828 0.86803 0.54549
 C168 C 0.64172 0.85013 0.64665
 N169 N 0.59857 0.86842 0.71260
 N170 N 0.56317 0.90327 0.67847
 C171 C 0.56921 0.92084 0.57692
 N172 N 0.61285 0.90287 0.51145
 N173 N 0.85317 0.13199 0.04480
 C174 C 0.85946 0.15016 0.14609
 N175 N 0.90260 0.13217 0.21218
 N176 N 0.93821 0.09732 0.17810
 C177 C 0.93242 0.07947 0.07643
 N178 N 0.88882 0.09716 0.01080
 N179 N 0.35257 0.63334 0.54496
 C180 C 0.35904 0.65150 0.64622
 N181 N 0.40204 0.63331 0.71230
 N182 N 0.43737 0.59830 0.67820
 C183 C 0.43141 0.58046 0.57656
 N184 N 0.38794 0.59834 0.51094
   
