data_POSCAR
  _audit_creation_date              2014-09-24
  _audit_creation_method            'ToBaCCo'
  _symmetry_space_group_name_H-M    'P1'
  _symmetry_Int_Tables_number       1
  _symmetry_cell_setting            triclinic
  loop_
  _symmetry_equiv_pos_as_xyz
 x,y,z
_cell_length_a 49.9612
_cell_length_b 49.8172
_cell_length_c 48.3648
_cell_angle_alpha 89.723300
_cell_angle_beta 90.352100
_cell_angle_gamma 87.383900
loop_
  _atom_site_label
  _atom_site_type_symbol
  _atom_site_fract_x
  _atom_site_fract_y
  _atom_site_fract_z
C1 C -0.06772 0.31440 0.02149
 C2 C -0.08152 0.31623 -0.00390
 C3 C -0.06840 0.31417 -0.02945
 C4 C -0.03990 0.31260 -0.02965
 C5 C -0.02535 0.31087 -0.00434
 C6 C -0.03920 0.31205 0.02128
 C7 C -0.02401 0.31318 0.04585
 C8 C 0.00379 0.31071 0.04555
 C9 C 0.01780 0.30810 0.02060
 C10 C 0.00325 0.30891 -0.00466
 C11 C -0.02552 0.31531 -0.05435
 C12 C 0.00230 0.31341 -0.05462
 C13 C 0.01722 0.30861 -0.03021
 C14 C 0.04579 0.30606 -0.03039
 C15 C 0.05955 0.30551 -0.00493
 C16 C 0.04608 0.30604 0.02029
 H17 H -0.03330 0.31682 0.06567
 H18 H 0.01424 0.31172 0.06516
 H19 H -0.03561 0.31991 -0.07376
 H20 H 0.01194 0.31672 -0.07421
 H21 H -0.10323 0.31635 -0.00367
 H22 H 0.08122 0.30283 -0.00449
 C23 C 0.43916 0.79586 0.52951
 C24 C 0.42509 0.79849 0.50449
 C25 C 0.43844 0.79855 0.47916
 C26 C 0.46679 0.79684 0.47871
 C27 C 0.48134 0.79463 0.50396
 C28 C 0.46751 0.79423 0.52946
 C29 C 0.48235 0.79231 0.55423
 C30 C 0.51021 0.79013 0.55397
 C31 C 0.52435 0.79008 0.52892
 C32 C 0.50979 0.79236 0.50368
 C33 C 0.48096 0.79750 0.45371
 C34 C 0.50881 0.79499 0.45342
 C35 C 0.52359 0.79194 0.47815
 C36 C 0.55187 0.78870 0.47802
 C37 C 0.56597 0.78663 0.50306
 C38 C 0.55265 0.78734 0.52841
 H39 H 0.47257 0.79254 0.57413
 H40 H 0.52054 0.78833 0.57366
 H41 H 0.47064 0.80005 0.43407
 H42 H 0.51865 0.79560 0.43357
 H43 H 0.40336 0.79909 0.50467
 H44 H 0.58764 0.78395 0.50282
 C45 C 0.94022 0.71027 -0.01575
 C46 C 0.92914 0.70729 0.01052
 C47 C 0.94501 0.70688 0.03434
 C48 C 0.97311 0.70808 0.03206
 C49 C 0.98496 0.70993 0.00560
 C50 C 0.96836 0.71194 -0.01834
 C51 C 0.98022 0.71716 -0.04390
 C52 C 1.00782 0.71851 -0.04625
 C53 C 1.02502 0.71388 -0.02334
 C54 C 1.01334 0.71083 0.00317
 C55 C 0.98955 0.70823 0.05563
 C56 C 1.01707 0.71007 0.05334
 C57 C 1.02973 0.71000 0.02737
 C58 C 1.05803 0.71143 0.02492
 C59 C 1.06899 0.71418 -0.00154
 C60 C 1.05335 0.71469 -0.02581
 H61 H 0.96826 0.72101 -0.06232
 H62 H 1.01536 0.72413 -0.06625
 H63 H 0.98127 0.70744 0.07622
 H64 H 1.02804 0.71227 0.07242
 H65 H 0.90759 0.70627 0.01256
 H66 H 1.09063 0.71357 -0.00340
 C67 C 0.43756 0.20909 0.52342
 C68 C 0.42295 0.21118 0.49869
 C69 C 0.43545 0.21391 0.47310
 C70 C 0.46374 0.21464 0.47206
 C71 C 0.47903 0.21159 0.49683
 C72 C 0.46592 0.20896 0.52264
 C73 C 0.48150 0.20712 0.54694
 C74 C 0.50932 0.20683 0.54593
 C75 C 0.52273 0.20933 0.52066
 C76 C 0.50748 0.21190 0.49586
 C77 C 0.47709 0.21941 0.44714
 C78 C 0.50490 0.21980 0.44622
 C79 C 0.52058 0.21532 0.47017
 C80 C 0.54896 0.21514 0.46937
 C81 C 0.56363 0.21196 0.49402
 C82 C 0.55100 0.20943 0.51954
 H83 H 0.47243 0.20596 0.56711
 H84 H 0.52022 0.20476 0.56528
 H85 H 0.46619 0.22338 0.42807
 H86 H 0.51388 0.22403 0.42650
 H87 H 0.40127 0.21073 0.49941
 H88 H 0.58534 0.21193 0.49341
 C89 C 0.70808 -0.05603 0.03460
 C90 C 0.70840 -0.06906 0.00892
 C91 C 0.71071 -0.05512 -0.01627
 C92 C 0.71305 -0.02672 -0.01552
 C93 C 0.71030 -0.01284 0.00996
 C94 C 0.70761 -0.02746 0.03500
 C95 C 0.70346 -0.01304 0.05967
 C96 C 0.70465 0.01470 0.06031
 C97 C 0.70841 0.02955 0.03603
 C98 C 0.71094 0.01577 0.01049
 C99 C 0.72039 -0.01203 -0.03900
 C100 C 0.72148 0.01578 -0.03840
 C101 C 0.71516 0.03040 -0.01433
 C102 C 0.71548 0.05902 -0.01374
 C103 C 0.71365 0.07187 0.01203
 C104 C 0.71037 0.05775 0.03668
 H105 H 0.69905 -0.02300 0.07890
 H106 H 0.70263 0.02425 0.08024
 H107 H 0.72637 -0.02190 -0.05797
 H108 H 0.72825 0.02555 -0.05692
 H109 H 0.70739 -0.09073 0.00859
 H110 H 0.71360 0.09362 0.01311
 C111 C 0.20455 0.55570 0.51958
 C112 C 0.20286 0.56953 0.49429
 C113 C 0.20397 0.55596 0.46907
 C114 C 0.20581 0.52757 0.46883
 C115 C 0.20769 0.51316 0.49419
 C116 C 0.20747 0.52723 0.51967
 C117 C 0.21103 0.51247 0.54439
 C118 C 0.21345 0.48453 0.54423
 C119 C 0.21278 0.47017 0.51932
 C120 C 0.21034 0.48462 0.49403
 C121 C 0.20565 0.51322 0.44387
 C122 C 0.20814 0.48530 0.44374
 C123 C 0.21093 0.47062 0.46855
 C124 C 0.21411 0.44225 0.46855
 C125 C 0.21598 0.42824 0.49366
 C126 C 0.21529 0.44175 0.51896
 H127 H 0.21238 0.52230 0.56418
 H128 H 0.21622 0.47432 0.56391
 H129 H 0.20341 0.52345 0.42415
 H130 H 0.20778 0.47534 0.42391
 H131 H 0.20124 0.59132 0.49422
 H132 H 0.21837 0.40649 0.49351
 C133 C 0.31056 0.93753 -0.03307
 C134 C 0.31346 0.92325 -0.00800
 C135 C 0.31502 0.93629 0.01742
 C136 C 0.31457 0.96463 0.01828
 C137 C 0.31257 0.97963 -0.00667
 C138 C 0.31118 0.96612 -0.03246
 C139 C 0.31253 0.98147 -0.05689
 C140 C 0.31275 1.00933 -0.05613
 C141 C 0.31217 1.02313 -0.03088
 C142 C 0.31249 1.00822 -0.00585
 C143 C 0.31722 0.97830 0.04340
 C144 C 0.31684 1.00621 0.04419
 C145 C 0.31329 1.02177 0.01995
 C146 C 0.31258 1.05042 0.02058
 C147 C 0.31307 1.06453 -0.00465
 C148 C 0.31240 1.05143 -0.03009
 H149 H 0.31427 0.97211 -0.07695
 H150 H 0.31391 1.01994 -0.07563
 H151 H 0.32014 0.96751 0.06274
 H152 H 0.32021 1.01536 0.06405
 H153 H 0.31251 0.90153 -0.00787
 H154 H 0.31193 1.08633 -0.00475
 C155 C 0.79805 0.55340 0.48906
 C156 C 0.79808 0.56564 0.51504
 C157 C 0.80004 0.55059 0.53945
 C158 C 0.80272 0.52227 0.53814
 C159 C 0.80298 0.50943 0.51200
 C160 C 0.80056 0.52499 0.48733
 C161 C 0.80009 0.51166 0.46178
 C162 C 0.80289 0.48377 0.46037
 C163 C 0.80530 0.46799 0.48450
 C164 C 0.80520 0.48092 0.51057
 C165 C 0.80540 0.50650 0.56225
 C166 C 0.80744 0.47860 0.56083
 C167 C 0.80699 0.46539 0.53524
 C168 C 0.80858 0.43701 0.53367
 C169 C 0.80968 0.42461 0.50781
 C170 C 0.80785 0.43961 0.48331
 H171 H 0.79749 0.52257 0.44252
 H172 H 0.80302 0.47471 0.44009
 H173 H 0.80608 0.51559 0.58250
 H174 H 0.80966 0.46748 0.58005
 H175 H 0.79591 0.58738 0.51634
 H176 H 0.81068 0.40284 0.50672
 O177 O 0.23956 0.27900 0.20356
 O178 O 0.29288 0.25495 0.25161
 O179 O 0.27739 0.24148 0.20228
 O180 O 0.25464 0.29199 0.25347
 O181 O 0.22725 0.26307 0.27120
 O182 O 0.25024 0.21252 0.22033
 O183 O 0.26543 0.22642 0.26997
 O184 O 0.21222 0.25012 0.22141
 Cu185 Cu 0.26881 0.26977 0.22590
 Cu186 Cu 0.23604 0.23509 0.24743
 C187 C 0.21684 0.26857 0.20407
 C188 C 0.28815 0.23689 0.26931
 C189 C 0.26763 0.21836 0.20248
 C190 C 0.23730 0.28603 0.27136
 O191 O 0.76146 0.71539 0.22277
 O192 O 0.70931 0.73950 0.27137
 O193 O 0.72447 0.75350 0.22183
 O194 O 0.74642 0.70085 0.27173
 O195 O 0.77397 0.72877 0.29105
 O196 O 0.75319 0.78085 0.24003
 O197 O 0.73751 0.76741 0.28953
 O198 O 0.78994 0.74236 0.24203
 Cu199 Cu 0.73249 0.72458 0.24512
 Cu200 Cu 0.76644 0.75766 0.26753
 C201 C 0.78464 0.72482 0.22408
 C202 C 0.71456 0.75748 0.28890
 C203 C 0.73549 0.77599 0.22198
 C204 C 0.76383 0.70586 0.29002
 O205 O 0.78894 0.25314 0.23671
 O206 O 0.73717 0.23662 0.28679
 O207 O 0.75119 0.21900 0.23783
 O208 O 0.77387 0.27147 0.28500
 O209 O 0.74531 0.30084 0.26529
 O210 O 0.72379 0.24902 0.21737
 O211 O 0.70851 0.26550 0.26646
 O212 O 0.76111 0.28322 0.21704
 Cu213 Cu 0.76559 0.24207 0.26356
 Cu214 Cu 0.73180 0.27760 0.23959
 C215 C 0.78392 0.27084 0.21818
 C216 C 0.71413 0.24839 0.28547
 C217 C 0.73406 0.22529 0.21908
 C218 C 0.76315 0.29507 0.28344
 O219 O 0.28671 0.75706 0.20863
 O220 O 0.26743 0.70211 0.25473
 O221 O 0.25278 0.71953 0.20551
 O222 O 0.30218 0.73940 0.25724
 O223 O 0.27166 0.76647 0.27665
 O224 O 0.22201 0.74634 0.22492
 O225 O 0.23704 0.72939 0.27404
 O226 O 0.25618 0.78413 0.22801
 Cu227 Cu 0.28032 0.72676 0.22965
 Cu228 Cu 0.24363 0.75929 0.25281
 C229 C 0.27456 0.77997 0.21030
 C230 C 0.24912 0.70647 0.27252
 C231 C 0.22905 0.72978 0.20611
 C232 C 0.29540 0.75620 0.27588
 O233 O 0.75378 0.26516 0.78672
 O234 O 0.69970 0.24863 0.73869
 O235 O 0.71755 0.22956 0.78628
 O236 O 0.73674 0.28367 0.73927
 O237 O 0.76454 0.25516 0.71791
 O238 O 0.74473 0.20086 0.76438
 O239 O 0.72740 0.22046 0.71678
 O240 O 0.78144 0.23636 0.76557
 Cu241 Cu 0.72408 0.25953 0.76487
 Cu242 Cu 0.75724 0.22527 0.73902
 C243 C 0.77684 0.25359 0.78447
 C244 C 0.70437 0.23211 0.71920
 C245 C 0.72811 0.20604 0.78362
 C246 C 0.75398 0.27868 0.72056
 O247 O 0.28120 0.74268 0.73060
 O248 O 0.23132 0.71968 0.77992
 O249 O 0.24461 0.70711 0.72907
 O250 O 0.26803 0.75452 0.78106
 O251 O 0.23849 0.78544 0.76577
 O252 O 0.21598 0.73841 0.71278
 O253 O 0.20177 0.75015 0.76371
 O254 O 0.25209 0.77394 0.71515
 Cu255 Cu 0.25914 0.72778 0.75667
 Cu256 Cu 0.22405 0.76502 0.73779
 C257 C 0.27523 0.76228 0.71447
 C258 C 0.20818 0.73131 0.78062
 C259 C 0.22674 0.71484 0.71163
 C260 C 0.25716 0.77802 0.78248
 O261 O 0.24680 0.28765 0.73341
 O262 O 0.26733 0.23178 0.78005
 O263 O 0.28175 0.24767 0.73117
 O264 O 0.23228 0.27177 0.78261
 O265 O 0.20212 0.24622 0.76407
 O266 O 0.25101 0.22357 0.71143
 O267 O 0.23758 0.20646 0.76045
 O268 O 0.21579 0.26301 0.71501
 Cu269 Cu 0.26003 0.26224 0.75876
 Cu270 Cu 0.22356 0.23229 0.73591
 C271 C 0.22802 0.28479 0.71597
 C272 C 0.25598 0.20955 0.77826
 C273 C 0.27466 0.23194 0.71214
 C274 C 0.20887 0.26280 0.78244
 O275 O 0.78728 0.75579 0.77055
 O276 O 0.73223 0.77801 0.72372
 O277 O 0.74812 0.79195 0.77310
 O278 O 0.77103 0.74152 0.72186
 O279 O 0.74571 0.71175 0.74144
 O280 O 0.72183 0.76244 0.79160
 O281 O 0.70650 0.74794 0.74211
 O282 O 0.76102 0.72685 0.79015
 Cu283 Cu 0.76219 0.76985 0.74539
 Cu284 Cu 0.73106 0.73434 0.76816
 C285 C 0.78349 0.73771 0.78854
 C286 C 0.71011 0.76645 0.72453
 C287 C 0.73134 0.78565 0.79141
 C288 C 0.76240 0.71793 0.72303
 C289 C 0.29083 0.05907 0.06546
 C290 C 0.28652 0.07542 0.08858
 C291 C 0.30047 0.09900 0.09190
 C292 C 0.31966 0.10540 0.07205
 C293 C 0.32395 0.08912 0.04892
 C294 C 0.30968 0.06562 0.04522
 C295 C 0.29435 0.11635 0.11613
 C296 C 0.29828 0.14285 0.11637
 C297 C 0.29100 0.16097 0.13969
 C298 C 0.30234 0.18622 0.14068
 C299 C 0.29515 0.20464 0.16133
 C300 C 0.27624 0.19830 0.18144
 C301 C 0.26498 0.17296 0.18064
 C302 C 0.27219 0.15451 0.15997
 H303 H 0.27849 0.04194 0.06287
 H304 H 0.27158 0.07004 0.10352
 H305 H 0.33163 0.12281 0.07431
 H306 H 0.33893 0.09471 0.03412
 H307 H 0.28542 0.10693 0.13378
 H308 H 0.30699 0.15213 0.09849
 H309 H 0.31673 0.19182 0.12526
 H310 H 0.30416 0.22400 0.16129
 H311 H 0.25020 0.16754 0.19572
 H312 H 0.26233 0.13566 0.15964
 C313 C 0.77481 0.56299 0.58226
 C314 C 0.77106 0.57907 0.60562
 C315 C 0.78985 0.59803 0.61281
 C316 C 0.81320 0.59965 0.59679
 C317 C 0.81686 0.58363 0.57335
 C318 C 0.79759 0.56538 0.56583
 C319 C 0.78399 0.61587 0.63672
 C320 C 0.79501 0.63972 0.64023
 C321 C 0.78724 0.65893 0.66250
 C322 C 0.79400 0.68584 0.65955
 C323 C 0.78629 0.70495 0.67936
 C324 C 0.77158 0.69755 0.70262
 C325 C 0.76538 0.67051 0.70600
 C326 C 0.77328 0.65135 0.68630
 H327 H 0.75962 0.54917 0.57656
 H328 H 0.75302 0.57723 0.61767
 H329 H 0.82867 0.61324 0.60209
 H330 H 0.83457 0.58566 0.56085
 H331 H 0.76841 0.60986 0.65054
 H332 H 0.80898 0.64661 0.62506
 H333 H 0.80495 0.69224 0.64159
 H334 H 0.79147 0.72561 0.67620
 H335 H 0.75442 0.66410 0.72393
 H336 H 0.76846 0.63073 0.69006
 C337 C 0.72786 0.93328 0.08027
 C338 C 0.73016 0.91678 0.10367
 C339 C 0.71472 0.89410 0.10623
 C340 C 0.69641 0.88855 0.08500
 C341 C 0.69412 0.90504 0.06155
 C342 C 0.70956 0.92790 0.05893
 C343 C 0.71834 0.87698 0.13132
 C344 C 0.71211 0.85107 0.13239
 C345 C 0.71723 0.83331 0.15680
 C346 C 0.70365 0.80931 0.15850
 C347 C 0.70901 0.79105 0.18008
 C348 C 0.72824 0.79631 0.20043
 C349 C 0.74157 0.82051 0.19902
 C350 C 0.73624 0.83878 0.17742
 H351 H 0.74106 0.94985 0.07852
 H352 H 0.74453 0.92145 0.11961
 H353 H 0.68347 0.87181 0.08646
 H354 H 0.67959 0.90031 0.04580
 H355 H 0.72732 0.88612 0.14914
 H356 H 0.70318 0.84197 0.11452
 H357 H 0.68904 0.80449 0.14286
 H358 H 0.69843 0.77256 0.18049
 H359 H 0.75668 0.82506 0.21423
 H360 H 0.74778 0.85658 0.17659
 C361 C 0.24226 0.41157 0.55081
 C362 C 0.24486 0.39593 0.57480
 C363 C 0.22308 0.39351 0.59272
 C364 C 0.19870 0.40762 0.58646
 C365 C 0.19617 0.42342 0.56250
 C366 C 0.21794 0.42545 0.54456
 C367 C 0.22678 0.37649 0.61778
 C368 C 0.20673 0.36426 0.63027
 C369 C 0.21134 0.34534 0.65374
 C370 C 0.19443 0.32382 0.65682
 C371 C 0.19937 0.30450 0.67753
 C372 C 0.22111 0.30657 0.69586
 C373 C 0.23723 0.32888 0.69363
 C374 C 0.23241 0.34807 0.67280
 H375 H 0.25924 0.41296 0.53714
 H376 H 0.26387 0.38541 0.57923
 H377 H 0.18170 0.40683 0.60014
 H378 H 0.17728 0.43410 0.55793
 H379 H 0.24717 0.37228 0.62484
 H380 H 0.18669 0.36616 0.62163
 H381 H 0.17788 0.32146 0.64260
 H382 H 0.18647 0.28765 0.67880
 H383 H 0.25402 0.33118 0.70755
 H384 H 0.24528 0.36492 0.67160
 C385 C 0.89396 0.33086 0.04919
 C386 C 0.87759 0.32901 0.07236
 C387 C 0.88306 0.30937 0.09274
 C388 C 0.90583 0.29192 0.08971
 C389 C 0.92224 0.29376 0.06651
 C390 C 0.91675 0.31343 0.04595
 C391 C 0.86439 0.30790 0.11647
 C392 C 0.86269 0.28626 0.13292
 C393 C 0.84282 0.28429 0.15547
 C394 C 0.84807 0.26550 0.17675
 C395 C 0.82927 0.26168 0.19750
 C396 C 0.80458 0.27641 0.19732
 C397 C 0.79938 0.29543 0.17618
 C398 C 0.81824 0.29931 0.15543
 H399 H 0.88900 0.34633 0.03395
 H400 H 0.86030 0.34281 0.07415
 H401 H 0.91120 0.27676 0.10505
 H402 H 0.93878 0.27912 0.06425
 H403 H 0.85100 0.32523 0.11983
 H404 H 0.87613 0.26892 0.12992
 H405 H 0.86672 0.25353 0.17718
 H406 H 0.83389 0.24678 0.21340
 H407 H 0.78047 0.30693 0.17530
 H408 H 0.81299 0.31340 0.13899
 C409 C 0.42457 0.76781 0.56899
 C410 C 0.40853 0.76394 0.59206
 C411 C 0.39084 0.78460 0.60145
 C412 C 0.39018 0.80964 0.58767
 C413 C 0.40618 0.81343 0.56447
 C414 C 0.42343 0.79254 0.55500
 C415 C 0.37351 0.77890 0.62541
 C416 C 0.35121 0.79355 0.63183
 C417 C 0.33268 0.78615 0.65421
 C418 C 0.30622 0.79689 0.65340
 C419 C 0.28767 0.78955 0.67325
 C420 C 0.29521 0.77127 0.69440
 C421 C 0.32190 0.76115 0.69579
 C422 C 0.34050 0.76865 0.67607
 H423 H 0.43762 0.75139 0.56175
 H424 H 0.40958 0.74452 0.60229
 H425 H 0.37752 0.82640 0.59461
 H426 H 0.40512 0.83265 0.55386
 H427 H 0.37852 0.76066 0.63688
 H428 H 0.34495 0.81057 0.61903
 H429 H 0.29969 0.81062 0.63701
 H430 H 0.26728 0.79779 0.67167
 H431 H 0.32842 0.74736 0.71211
 H432 H 0.36091 0.76071 0.67822
 C433 C 0.07393 0.69034 0.06881
 C434 C 0.09157 0.68950 0.09142
 C435 C 0.11244 0.70731 0.09295
 C436 C 0.11532 0.72610 0.07157
 C437 C 0.09748 0.72726 0.04926
 C438 C 0.07604 0.70984 0.04778
 C439 C 0.13022 0.70690 0.11752
 C440 C 0.15619 0.71225 0.11577
 C441 C 0.17393 0.71430 0.14016
 C442 C 0.20141 0.70813 0.13720
 C443 C 0.21916 0.71216 0.15905
 C444 C 0.20982 0.72308 0.18413
 C445 C 0.18223 0.72897 0.18725
 C446 C 0.16440 0.72448 0.16552
 H447 H 0.05881 0.67548 0.06766
 H448 H 0.08915 0.67469 0.10757
 H449 H 0.13088 0.74051 0.07247
 H450 H 0.09988 0.74261 0.03364
 H451 H 0.12183 0.70154 0.13728
 H452 H 0.16504 0.71486 0.09559
 H453 H 0.20921 0.70049 0.11777
 H454 H 0.24033 0.70762 0.15594
 H455 H 0.17450 0.73748 0.20632
 H456 H 0.14339 0.73004 0.16822
 C457 C 0.58569 0.18534 0.54906
 C458 C 0.60316 0.18449 0.57177
 C459 C 0.60355 0.20606 0.59038
 C460 C 0.58599 0.22862 0.58567
 C461 C 0.56846 0.22937 0.56301
 C462 C 0.56820 0.20775 0.54459
 C463 C 0.62366 0.20488 0.61319
 C464 C 0.62226 0.22075 0.63556
 C465 C 0.64329 0.22128 0.65743
 C466 C 0.63733 0.23521 0.68197
 C467 C 0.65693 0.23812 0.70234
 C468 C 0.68305 0.22712 0.69868
 C469 C 0.68896 0.21265 0.67444
 C470 C 0.66940 0.20988 0.65396
 H471 H 0.58596 0.16863 0.53480
 H472 H 0.61663 0.16703 0.57465
 H473 H 0.58620 0.24611 0.59877
 H474 H 0.55546 0.24707 0.55946
 H475 H 0.63995 0.18998 0.61135
 H476 H 0.60479 0.23405 0.63838
 H477 H 0.61750 0.24431 0.68522
 H478 H 0.65171 0.24939 0.72077
 H479 H 0.70897 0.20414 0.67088
 H480 H 0.67527 0.19955 0.63522
 C481 C 0.73212 0.09861 0.96253
 C482 C 0.73196 0.11613 0.93997
 C483 C 0.71685 0.11103 0.91627
 C484 C 0.70164 0.08799 0.91556
 C485 C 0.70150 0.07053 0.93835
 C486 C 0.71689 0.07543 0.96222
 C487 C 0.71643 0.13099 0.89350
 C488 C 0.71268 0.12484 0.86685
 C489 C 0.71438 0.14534 0.84476
 C490 C 0.72630 0.13827 0.81949
 C491 C 0.73023 0.15785 0.79925
 C492 C 0.72178 0.18479 0.80374
 C493 C 0.70854 0.19154 0.82847
 C494 C 0.70493 0.17205 0.84880
 H495 H 0.74458 0.10310 0.98017
 H496 H 0.74381 0.13379 0.94104
 H497 H 0.68905 0.08397 0.89791
 H498 H 0.68833 0.05386 0.93769
 H499 H 0.72122 0.15133 0.89882
 H500 H 0.71070 0.10410 0.86087
 H501 H 0.73348 0.11775 0.81582
 H502 H 0.74031 0.15199 0.78031
 H503 H 0.70164 0.21206 0.83250
 H504 H 0.69495 0.17795 0.86778
 C505 C 0.18328 0.58971 0.43590
 C506 C 0.18499 0.60635 0.41268
 C507 C 0.20841 0.60605 0.39669
 C508 C 0.23015 0.58853 0.40449
 C509 C 0.22834 0.57181 0.42761
 C510 C 0.20494 0.57230 0.44347
 C511 C 0.20988 0.62554 0.37344
 C512 C 0.22878 0.62424 0.35378
 C513 C 0.23186 0.64518 0.33217
 C514 C 0.24888 0.63931 0.30976
 C515 C 0.25406 0.65897 0.29000
 C516 C 0.24229 0.68501 0.29220
 C517 C 0.22488 0.69080 0.31431
 C518 C 0.21985 0.67124 0.33415
 H519 H 0.16518 0.59056 0.44814
 H520 H 0.16806 0.61981 0.40741
 H521 H 0.24893 0.58815 0.39352
 H522 H 0.24545 0.55886 0.43355
 H523 H 0.19449 0.64149 0.37271
 H524 H 0.24281 0.60709 0.35316
 H525 H 0.25858 0.61952 0.30776
 H526 H 0.26760 0.65386 0.27323
 H527 H 0.21568 0.71075 0.31676
 H528 H 0.20724 0.67709 0.35136
 C529 C 0.28500 0.93112 0.92392
 C530 C 0.27903 0.91557 0.90090
 C531 C 0.29301 0.89099 0.89612
 C532 C 0.31372 0.88263 0.91449
 C533 C 0.31966 0.89812 0.93753
 C534 C 0.30555 0.92275 0.94257
 C535 C 0.28545 0.87481 0.87182
 C536 C 0.28995 0.84807 0.87045
 C537 C 0.28180 0.83131 0.84682
 C538 C 0.29402 0.80554 0.84409
 C539 C 0.28634 0.78845 0.82296
 C540 C 0.26604 0.79666 0.80411
 C541 C 0.25382 0.82250 0.80671
 C542 C 0.26153 0.83964 0.82787
 H543 H 0.27275 0.94922 0.92766
 H544 H 0.26293 0.92245 0.88714
 H545 H 0.32568 0.86433 0.91107
 H546 H 0.33585 0.89108 0.95110
 H547 H 0.27518 0.88543 0.85503
 H548 H 0.30002 0.83758 0.88746
 H549 H 0.30955 0.79852 0.85847
 H550 H 0.29613 0.76865 0.82161
 H551 H 0.23796 0.82935 0.79265
 H552 H 0.25100 0.85898 0.82961
 C553 C 0.82958 0.40870 0.44876
 C554 C 0.82822 0.39259 0.42526
 C555 C 0.80445 0.39199 0.40966
 C556 C 0.78199 0.40802 0.41807
 C557 C 0.78342 0.42417 0.44152
 C558 C 0.80719 0.42458 0.45702
 C559 C 0.80330 0.37295 0.38620
 C560 C 0.78469 0.37491 0.36608
 C561 C 0.78169 0.35454 0.34409
 C562 C 0.76564 0.36145 0.32099
 C563 C 0.76026 0.34236 0.30088
 C564 C 0.77078 0.31582 0.30345
 C565 C 0.78736 0.30897 0.32622
 C566 C 0.79265 0.32804 0.34641
 H567 H 0.84795 0.40849 0.46078
 H568 H 0.84568 0.38023 0.41950
 H569 H 0.76298 0.40748 0.40736
 H570 H 0.76577 0.43583 0.44806
 H571 H 0.81864 0.35694 0.38561
 H572 H 0.77090 0.39228 0.36535
 H573 H 0.75681 0.38161 0.31871
 H574 H 0.74741 0.34829 0.28359
 H575 H 0.79557 0.28863 0.32892
 H576 H 0.80449 0.32152 0.36418
 C577 C 0.05363 0.28479 0.92425
 C578 C 0.06962 0.28051 0.90091
 C579 C 0.09377 0.29352 0.89795
 C580 C 0.10128 0.31153 0.91862
 C581 C 0.08536 0.31576 0.94199
 C582 C 0.06112 0.30267 0.94514
 C583 C 0.11033 0.28786 0.87305
 C584 C 0.13680 0.29145 0.87208
 C585 C 0.15396 0.28486 0.84783
 C586 C 0.17933 0.29581 0.84653
 C587 C 0.19690 0.28915 0.82499
 C588 C 0.18957 0.27121 0.80425
 C589 C 0.16407 0.26043 0.80531
 C590 C 0.14647 0.26709 0.82688
 H591 H 0.03587 0.27330 0.92639
 H592 H 0.06338 0.26646 0.88538
 H593 H 0.11920 0.32275 0.91680
 H594 H 0.09173 0.32995 0.95732
 H595 H 0.10023 0.27977 0.85534
 H596 H 0.14682 0.29936 0.88996
 H597 H 0.18572 0.30942 0.86242
 H598 H 0.21641 0.29776 0.82486
 H599 H 0.15788 0.24637 0.78978
 H600 H 0.12748 0.25756 0.82734
 C601 C 0.56570 0.76282 0.43606
 C602 C 0.58135 0.75954 0.41238
 C603 C 0.59904 0.77927 0.40442
 C604 C 0.60008 0.80287 0.42035
 C605 C 0.58454 0.80601 0.44416
 C606 C 0.56735 0.78599 0.45216
 C607 C 0.61603 0.77409 0.37971
 C608 C 0.63785 0.78772 0.37369
 C609 C 0.65633 0.78073 0.35061
 C610 C 0.68219 0.79058 0.35138
 C611 C 0.70087 0.78353 0.33101
 C612 C 0.69410 0.76644 0.30929
 C613 C 0.66795 0.75728 0.30790
 C614 C 0.64918 0.76447 0.32822
 H615 H 0.55256 0.74713 0.44208
 H616 H 0.57996 0.74127 0.40050
 H617 H 0.61268 0.81903 0.41467
 H618 H 0.58590 0.82407 0.45638
 H619 H 0.61118 0.75704 0.36719
 H620 H 0.64385 0.80352 0.38730
 H621 H 0.68821 0.80335 0.36817
 H622 H 0.72082 0.79103 0.33265
 H623 H 0.66201 0.74436 0.29121
 H624 H 0.62922 0.75721 0.32613
 C625 C 0.90006 0.73212 0.96109
 C626 C 0.88106 0.73364 0.93985
 C627 C 0.88320 0.71619 0.91726
 C628 C 0.90454 0.69679 0.91643
 C629 C 0.92332 0.69491 0.93805
 C630 C 0.92135 0.71274 0.96044
 C631 C 0.86217 0.71806 0.89567
 C632 C 0.86703 0.71348 0.86887
 C633 C 0.84581 0.71782 0.84769
 C634 C 0.85202 0.72972 0.82233
 C635 C 0.83182 0.73593 0.80288
 C636 C 0.80517 0.72972 0.80822
 C637 C 0.79923 0.71665 0.83309
 C638 C 0.81932 0.71088 0.85271
 H639 H 0.89803 0.74593 0.97826
 H640 H 0.86467 0.74860 0.94099
 H641 H 0.90628 0.68262 0.89957
 H642 H 0.93920 0.67937 0.93749
 H643 H 0.84239 0.72551 0.90184
 H644 H 0.88734 0.70890 0.86206
 H645 H 0.87236 0.73503 0.81798
 H646 H 0.83701 0.74579 0.78378
 H647 H 0.77890 0.71152 0.83773
 H648 H 0.81411 0.70111 0.87186
 C649 C 0.39681 0.23582 0.44727
 C650 C 0.37888 0.23698 0.42501
 C651 C 0.38193 0.21891 0.40300
 C652 C 0.40314 0.19934 0.40378
 C653 C 0.42082 0.19786 0.42635
 C654 C 0.41793 0.21625 0.44819
 C655 C 0.36192 0.22028 0.38036
 C656 C 0.36785 0.21437 0.35405
 C657 C 0.34764 0.21799 0.33172
 C658 C 0.35516 0.22865 0.30619
 C659 C 0.33591 0.23432 0.28559
 C660 C 0.30893 0.22875 0.28996
 C661 C 0.30169 0.21676 0.31502
 C662 C 0.32083 0.21158 0.33578
 H663 H 0.39402 0.25003 0.46401
 H664 H 0.36257 0.25208 0.42496
 H665 H 0.40556 0.18467 0.38743
 H666 H 0.43652 0.18214 0.42702
 H667 H 0.34198 0.22830 0.38526
 H668 H 0.38837 0.20914 0.34838
 H669 H 0.37576 0.23351 0.30256
 H670 H 0.34208 0.24339 0.26640
 H671 H 0.28107 0.21221 0.31894
 H672 H 0.31463 0.20275 0.35507
 C673 C 0.69594 0.93894 0.93534
 C674 C 0.69598 0.92382 0.91102
 C675 C 0.70996 0.89882 0.90983
 C676 C 0.72438 0.88942 0.93321
 C677 C 0.72466 0.90462 0.95734
 C678 C 0.71070 0.92984 0.95882
 C679 C 0.71021 0.88330 0.88380
 C680 C 0.71115 0.85637 0.88375
 C681 C 0.71376 0.83994 0.85841
 C682 C 0.72695 0.84895 0.83472
 C683 C 0.73189 0.83159 0.81247
 C684 C 0.72365 0.80499 0.81343
 C685 C 0.70965 0.79639 0.83673
 C686 C 0.70498 0.81361 0.85904
 H687 H 0.68387 0.95755 0.93591
 H688 H 0.68466 0.93143 0.89325
 H689 H 0.73607 0.87059 0.93269
 H690 H 0.73676 0.89697 0.97455
 H691 H 0.70890 0.89433 0.86446
 H692 H 0.70969 0.84568 0.90321
 H693 H 0.73455 0.86892 0.83379
 H694 H 0.74282 0.83878 0.79485
 H695 H 0.70314 0.77600 0.83820
 H696 H 0.69494 0.80616 0.87713
 C697 C 0.23965 0.42781 0.42658
 C698 C 0.24234 0.41251 0.40255
 C699 C 0.22205 0.39559 0.39421
 C700 C 0.19865 0.39477 0.41034
 C701 C 0.19609 0.40998 0.43450
 C702 C 0.21654 0.42658 0.44272
 C703 C 0.22640 0.37934 0.36876
 C704 C 0.21148 0.35874 0.36138
 C705 C 0.21737 0.34133 0.33710
 C706 C 0.20663 0.31579 0.33643
 C707 C 0.21256 0.29811 0.31476
 C708 C 0.22935 0.30560 0.29311
 C709 C 0.23937 0.33151 0.29320
 C710 C 0.23334 0.34926 0.31484
 H711 H 0.25566 0.44051 0.43274
 H712 H 0.26050 0.41370 0.39057
 H713 H 0.18213 0.38271 0.40452
 H714 H 0.17808 0.40894 0.44674
 H715 H 0.24372 0.38376 0.35655
 H716 H 0.19530 0.35294 0.37451
 H717 H 0.19404 0.30923 0.35308
 H718 H 0.20442 0.27834 0.31529
 H719 H 0.25211 0.33800 0.27665
 H720 H 0.24122 0.36909 0.31389
 C721 C 0.33059 0.08507 0.93732
 C722 C 0.32746 0.10247 0.91466
 C723 C 0.30361 0.10361 0.89904
 C724 C 0.28294 0.08671 0.90657
 C725 C 0.28619 0.06921 0.92913
 C726 C 0.30998 0.06834 0.94468
 C727 C 0.30058 0.12391 0.87648
 C728 C 0.28105 0.12423 0.85725
 C729 C 0.27657 0.14597 0.83635
 C730 C 0.25943 0.14150 0.81386
 C731 C 0.25312 0.16193 0.79467
 C732 C 0.26382 0.18737 0.79755
 C733 C 0.28127 0.19178 0.81979
 C734 C 0.28745 0.17143 0.83908
 H735 H 0.34897 0.08486 0.94935
 H736 H 0.34359 0.11540 0.90958
 H737 H 0.26388 0.08739 0.89587
 H738 H 0.26987 0.05679 0.93494
 H739 H 0.31535 0.13909 0.87588
 H740 H 0.26761 0.10786 0.85638
 H741 H 0.25059 0.12221 0.81132
 H742 H 0.23958 0.15789 0.77778
 H743 H 0.28964 0.21124 0.82275
 H744 H 0.30004 0.17622 0.85643
 C745 C 0.77160 0.58925 0.46343
 C746 C 0.76852 0.60784 0.44186
 C747 C 0.78754 0.60849 0.42073
 C748 C 0.80998 0.59039 0.42166
 C749 C 0.81339 0.57215 0.44366
 C750 C 0.79407 0.57129 0.46459
 C751 C 0.78405 0.62921 0.39893
 C752 C 0.79074 0.62489 0.37252
 C753 C 0.78525 0.64564 0.35105
 C754 C 0.77535 0.63816 0.32516
 C755 C 0.76843 0.65772 0.30521
 C756 C 0.77204 0.68503 0.31058
 C757 C 0.78300 0.69236 0.33612
 C758 C 0.78937 0.67288 0.35625
 H759 H 0.75662 0.58914 0.47952
 H760 H 0.75120 0.62175 0.44165
 H761 H 0.82529 0.59095 0.40595
 H762 H 0.83124 0.55899 0.44459
 H763 H 0.77384 0.64806 0.40451
 H764 H 0.79824 0.60514 0.36614
 H765 H 0.77221 0.61724 0.32070
 H766 H 0.76024 0.65151 0.28559
 H767 H 0.78606 0.71325 0.34078
 H768 H 0.79751 0.67910 0.37588
 C769 C 0.05973 0.69829 0.92637
 C770 C 0.07402 0.69805 0.90157
 C771 C 0.09647 0.71363 0.89862
 C772 C 0.10392 0.73016 0.92050
 C773 C 0.08941 0.73082 0.94504
 C774 C 0.06694 0.71500 0.94845
 C775 C 0.11172 0.71293 0.87254
 C776 C 0.13849 0.71350 0.87253
 C777 C 0.15467 0.71511 0.84716
 C778 C 0.18132 0.70503 0.84787
 C779 C 0.19830 0.70906 0.82557
 C780 C 0.18909 0.72380 0.80228
 C781 C 0.16216 0.73325 0.80118
 C782 C 0.14504 0.72885 0.82337
 H783 H 0.04354 0.68471 0.92852
 H784 H 0.06804 0.68506 0.88495
 H785 H 0.12077 0.74294 0.91851
 H786 H 0.09551 0.74429 0.96118
 H787 H 0.10081 0.71110 0.85327
 H788 H 0.14921 0.71255 0.89210
 H789 H 0.18922 0.69455 0.86606
 H790 H 0.21898 0.70166 0.82712
 H791 H 0.15453 0.74475 0.78354
 H792 H 0.12474 0.73738 0.82242
 C793 C 0.56220 0.20110 0.42120
 C794 C 0.57774 0.20423 0.39749
 C795 C 0.59621 0.22457 0.39612
 C796 C 0.59816 0.24243 0.41838
 C797 C 0.58232 0.23961 0.44180
 C798 C 0.56427 0.21889 0.44350
 C799 C 0.61340 0.22687 0.37149
 C800 C 0.63916 0.23292 0.37383
 C801 C 0.65732 0.23512 0.35000
 C802 C 0.68461 0.22823 0.35383
 C803 C 0.70280 0.23168 0.33247
 C804 C 0.69419 0.24276 0.30698
 C805 C 0.66681 0.24958 0.30303
 C806 C 0.64846 0.24559 0.32430
 H807 H 0.54874 0.18470 0.42228
 H808 H 0.57590 0.19029 0.38054
 H809 H 0.61183 0.25866 0.41764
 H810 H 0.58424 0.25354 0.45876
 H811 H 0.60522 0.22186 0.35147
 H812 H 0.64781 0.23506 0.39427
 H813 H 0.69190 0.22032 0.37352
 H814 H 0.72379 0.22646 0.33625
 H815 H 0.65965 0.25824 0.28362
 H816 H 0.62759 0.25158 0.32095
 C817 C 0.89164 0.32745 0.94294
 C818 C 0.87471 0.32359 0.92037
 C819 C 0.88086 0.30358 0.90083
 C820 C 0.90497 0.28808 0.90381
 C821 C 0.92199 0.29198 0.92636
 C822 C 0.91562 0.31174 0.94637
 C823 C 0.86138 0.29951 0.87810
 C824 C 0.85993 0.27656 0.86383
 C825 C 0.83873 0.27195 0.84297
 C826 C 0.84354 0.25240 0.82256
 C827 C 0.82363 0.24663 0.80329
 C828 C 0.79833 0.26014 0.80423
 C829 C 0.79349 0.27965 0.82471
 C830 C 0.81338 0.28545 0.84390
 H831 H 0.88605 0.34308 0.95759
 H832 H 0.85639 0.33599 0.91849
 H833 H 0.91083 0.27281 0.88895
 H834 H 0.93964 0.27869 0.92869
 H835 H 0.84694 0.31590 0.87392
 H836 H 0.87443 0.26015 0.86760
 H837 H 0.86277 0.24150 0.82157
 H838 H 0.82797 0.23140 0.78786
 H839 H 0.77415 0.29026 0.82617
 H840 H 0.80845 0.29994 0.85986
 C841 C 0.40395 0.81958 0.44706
 C842 C 0.38721 0.81826 0.42387
 C843 C 0.38811 0.79539 0.40694
 C844 C 0.40606 0.77372 0.41387
 C845 C 0.42283 0.77512 0.43697
 C846 C 0.42195 0.79807 0.45366
 C847 C 0.36893 0.79419 0.38345
 C848 C 0.37236 0.77729 0.36210
 C849 C 0.35244 0.77411 0.33955
 C850 C 0.36046 0.75947 0.31605
 C851 C 0.34209 0.75414 0.29513
 C852 C 0.31519 0.76336 0.29720
 C853 C 0.30719 0.77844 0.32043
 C854 C 0.32553 0.78365 0.34147
 H855 H 0.40274 0.83728 0.46000
 H856 H 0.37334 0.83506 0.41926
 H857 H 0.40673 0.75527 0.40218
 H858 H 0.43614 0.75806 0.44223
 H859 H 0.35172 0.80813 0.38385
 H860 H 0.39078 0.76512 0.36069
 H861 H 0.38097 0.75174 0.31404
 H862 H 0.34892 0.74247 0.27748
 H863 H 0.28654 0.78564 0.32274
 H864 H 0.31816 0.79440 0.35943
 C865 C 0.33641 0.90081 0.04810
 C866 C 0.33540 0.88326 0.07067
 C867 C 0.31301 0.88382 0.08817
 C868 C 0.29166 0.90264 0.08263
 C869 C 0.29280 0.92027 0.06016
 C870 C 0.31510 0.91940 0.04270
 C871 C 0.31203 0.86328 0.11050
 C872 C 0.29437 0.86441 0.13134
 C873 C 0.29151 0.84270 0.15219
 C874 C 0.27524 0.84811 0.17527
 C875 C 0.27018 0.82793 0.19445
 C876 C 0.28136 0.80178 0.19104
 C877 C 0.29808 0.79639 0.16830
 C878 C 0.30299 0.81653 0.14899
 H879 H 0.35362 0.89964 0.03459
 H880 H 0.35198 0.86886 0.07420
 H881 H 0.27361 0.90334 0.09481
 H882 H 0.27593 0.93413 0.05587
 H883 H 0.32667 0.84669 0.10945
 H884 H 0.28116 0.88204 0.13356
 H885 H 0.26600 0.86798 0.17825
 H886 H 0.25722 0.83275 0.21176
 H887 H 0.30680 0.77638 0.16497
 H888 H 0.31509 0.81104 0.13130
 C889 C 0.82734 0.40047 0.56487
 C890 C 0.82440 0.38240 0.58675
 C891 C 0.80077 0.38293 0.60240
 C892 C 0.78012 0.40215 0.59572
 C893 C 0.78316 0.42027 0.57397
 C894 C 0.80673 0.41952 0.55836
 C895 C 0.79779 0.36198 0.62401
 C896 C 0.77892 0.36332 0.64368
 C897 C 0.77432 0.34139 0.66379
 C898 C 0.75823 0.34720 0.68690
 C899 C 0.75191 0.32696 0.70554
 C900 C 0.76153 0.30035 0.70146
 C901 C 0.77784 0.29449 0.67851
 C902 C 0.78404 0.31471 0.65977
 H903 H 0.84551 0.39936 0.55276
 H904 H 0.84049 0.36767 0.59117
 H905 H 0.76119 0.40280 0.60642
 H906 H 0.76679 0.43443 0.56875
 H907 H 0.81199 0.34496 0.62355
 H908 H 0.76622 0.38136 0.64561
 H909 H 0.75027 0.36749 0.69043
 H910 H 0.73929 0.33214 0.72301
 H911 H 0.78537 0.27413 0.67465
 H912 H 0.79579 0.30901 0.64188
 C913 C 0.68774 0.07507 0.07996
 C914 C 0.68776 0.09107 0.10369
 C915 C 0.70980 0.10654 0.10974
 C916 C 0.73224 0.10500 0.09239
 C917 C 0.73248 0.08857 0.06913
 C918 C 0.71025 0.07351 0.06265
 C919 C 0.70929 0.12442 0.13399
 C920 C 0.71753 0.14953 0.13198
 C921 C 0.71870 0.16804 0.15561
 C922 C 0.71393 0.19560 0.15085
 C923 C 0.71765 0.21404 0.17199
 C924 C 0.72699 0.20531 0.19812
 C925 C 0.73136 0.17763 0.20309
 C926 C 0.72700 0.15908 0.18205
 H927 H 0.67018 0.06403 0.07499
 H928 H 0.67028 0.09204 0.11685
 H929 H 0.74965 0.11645 0.09689
 H930 H 0.74996 0.08777 0.05596
 H931 H 0.70106 0.11729 0.15321
 H932 H 0.72308 0.15720 0.11189
 H933 H 0.70775 0.20291 0.13056
 H934 H 0.71435 0.23526 0.16749
 H935 H 0.73864 0.17039 0.22303
 H936 H 0.73132 0.13793 0.18609
 C937 C 0.18500 0.56835 0.56587
 C938 C 0.18489 0.58400 0.58984
 C939 C 0.20331 0.60420 0.59308
 C940 C 0.22229 0.60808 0.57226
 C941 C 0.22276 0.59208 0.54864
 C942 C 0.20422 0.57199 0.54526
 C943 C 0.20319 0.62039 0.61862
 C944 C 0.20812 0.64660 0.61823
 C945 C 0.21015 0.66301 0.64348
 C946 C 0.20338 0.69060 0.64195
 C947 C 0.20758 0.70723 0.66460
 C948 C 0.21929 0.69666 0.68905
 C949 C 0.22564 0.66892 0.69078
 C950 C 0.22096 0.65220 0.66827
 H951 H 0.17019 0.55331 0.56344
 H952 H 0.17016 0.58064 0.60568
 H953 H 0.23712 0.62311 0.57449
 H954 H 0.23773 0.59527 0.53300
 H955 H 0.19818 0.61072 0.63789
 H956 H 0.21038 0.65667 0.59852
 H957 H 0.19524 0.69940 0.62299
 H958 H 0.20269 0.72855 0.66257
 H959 H 0.23477 0.66025 0.70933
 H960 H 0.22694 0.63109 0.66988
 C961 C 0.93025 0.73034 0.07738
 C962 C 0.91535 0.73142 0.10169
 C963 C 0.90080 0.70937 0.11013
 C964 C 0.90238 0.68571 0.09424
 C965 C 0.91726 0.68470 0.06985
 C966 C 0.93114 0.70704 0.06124
 C967 C 0.88395 0.71230 0.13516
 C968 C 0.86296 0.69719 0.14035
 C969 C 0.84404 0.70273 0.16335
 C970 C 0.81794 0.69362 0.16112
 C971 C 0.79881 0.70015 0.18122
 C972 C 0.80542 0.71590 0.20407
 C973 C 0.83185 0.72400 0.20699
 C974 C 0.85103 0.71734 0.18697
 H975 H 0.94069 0.74784 0.07084
 H976 H 0.91462 0.74981 0.11357
 H977 H 0.89221 0.66798 0.10041
 H978 H 0.91781 0.66657 0.05754
 H979 H 0.88766 0.72921 0.14836
 H980 H 0.85778 0.68176 0.12588
 H981 H 0.81210 0.68208 0.14332
 H982 H 0.77864 0.69347 0.17846
 H983 H 0.83768 0.73577 0.22462
 H984 H 0.87118 0.72379 0.19013
 C985 C 0.42456 0.18655 0.56789
 C986 C 0.40879 0.18598 0.59173
 C987 C 0.38957 0.20675 0.59690
 C988 C 0.38702 0.22858 0.57843
 C989 C 0.40312 0.22943 0.55502
 C990 C 0.42201 0.20845 0.54948
 C991 C 0.37262 0.20582 0.62180
 C992 C 0.34660 0.21355 0.62087
 C993 C 0.32920 0.21507 0.64548
 C994 C 0.30170 0.21151 0.64215
 C995 C 0.28415 0.21572 0.66424
 C996 C 0.29371 0.22427 0.68996
 C997 C 0.32136 0.22733 0.69349
 C998 C 0.33899 0.22260 0.67150
 H999 H 0.43864 0.16991 0.56371
 H1000 H 0.41112 0.16903 0.60578
 H1001 H 0.37275 0.24514 0.58224
 H1002 H 0.40076 0.24645 0.54105
 H1003 H 0.38150 0.19794 0.64083
 H1004 H 0.33742 0.21875 0.60107
 H1005 H 0.29369 0.20594 0.62222
 H1006 H 0.26294 0.21340 0.66084
 H1007 H 0.32926 0.23397 0.71308
 H1008 H 0.36004 0.22606 0.67454
 C1009 C 0.06083 0.27928 0.06193
 C1010 C 0.07755 0.27509 0.08495
 C1011 C 0.09633 0.29403 0.09226
 C1012 C 0.09733 0.31782 0.07643
 C1013 C 0.08068 0.32190 0.05328
 C1014 C 0.06241 0.30263 0.04585
 C1015 C 0.11444 0.28787 0.11621
 C1016 C 0.13725 0.30036 0.12110
 C1017 C 0.15662 0.29266 0.14356
 C1018 C 0.18255 0.30234 0.14217
 C1019 C 0.20192 0.29492 0.16207
 C1020 C 0.19584 0.27759 0.18391
 C1021 C 0.16972 0.26844 0.18582
 C1022 C 0.15025 0.27600 0.16601
 H1023 H 0.04696 0.26409 0.05633
 H1024 H 0.07617 0.25668 0.09677
 H1025 H 0.11077 0.33342 0.08168
 H1026 H 0.08208 0.34007 0.04108
 H1027 H 0.10940 0.27108 0.12909
 H1028 H 0.14321 0.31590 0.10705
 H1029 H 0.18802 0.31537 0.12532
 H1030 H 0.22183 0.30241 0.16002
 H1031 H 0.16432 0.25532 0.20261
 H1032 H 0.13037 0.26875 0.16859
 C1033 C 0.58116 0.75865 0.56019
 C1034 C 0.59675 0.75512 0.58410
 C1035 C 0.60077 0.77680 0.60187
 C1036 C 0.58832 0.80205 0.59556
 C1037 C 0.57258 0.80551 0.57167
 C1038 C 0.56896 0.78382 0.55387
 C1039 C 0.61775 0.77208 0.62680
 C1040 C 0.63132 0.79137 0.63914
 C1041 C 0.65021 0.78569 0.66239
 C1042 C 0.67251 0.80156 0.66538
 C1043 C 0.69169 0.79570 0.68595
 C1044 C 0.68873 0.77404 0.70425
 C1045 C 0.66576 0.75891 0.70207
 C1046 C 0.64667 0.76466 0.68137
 H1047 H 0.57850 0.74172 0.54662
 H1048 H 0.60597 0.73546 0.58857
 H1049 H 0.59034 0.81903 0.60914
 H1050 H 0.56316 0.82504 0.56705
 H1051 H 0.62075 0.75149 0.63385
 H1052 H 0.63054 0.81147 0.63049
 H1053 H 0.67552 0.81805 0.65122
 H1054 H 0.70906 0.80788 0.68721
 H1055 H 0.66277 0.74224 0.71600
 H1056 H 0.62924 0.75259 0.68027
   
