data_POSCAR
  _audit_creation_date              2014-09-24
  _audit_creation_method            'ToBaCCo'
  _symmetry_space_group_name_H-M    'P1'
  _symmetry_Int_Tables_number       1
  _symmetry_cell_setting            triclinic
  loop_
  _symmetry_equiv_pos_as_xyz
 x,y,z
_cell_length_a 30.5864
_cell_length_b 30.4494
_cell_length_c 30.4001
_cell_angle_alpha 90.092800
_cell_angle_beta 90.002100
_cell_angle_gamma 89.912900
loop_
  _atom_site_label
  _atom_site_type_symbol
  _atom_site_fract_x
  _atom_site_fract_y
  _atom_site_fract_z
C1 C 0.18628 1.24191 0.18705
 N2 N 0.16752 1.22399 0.22327
 C3 C 0.18537 1.18778 0.24212
 N4 N 0.22168 1.16917 0.22440
 C5 C 0.24046 1.18707 0.18820
 N6 N 0.22259 1.22327 0.16936
 C7 C 0.81501 0.75743 0.18730
 N8 N 0.77865 0.77537 0.16906
 C9 C 0.76014 0.81159 0.18734
 N10 N 0.77834 0.83022 0.22355
 C11 C 0.81470 0.81230 0.24182
 N12 N 0.83319 0.77608 0.22351
 C13 C 0.81323 1.24174 -0.18635
 N14 N 0.83128 1.22328 -0.22275
 C15 C 0.81286 1.18709 -0.24108
 N16 N 0.77671 1.16902 -0.22264
 C17 C 0.75865 1.18746 -0.18625
 N18 N 0.77709 1.22364 -0.16795
 C19 C 0.18662 0.75925 -0.18913
 N20 N 0.16833 0.77792 -0.22524
 C21 C 0.18657 0.81426 -0.24331
 N22 N 0.22279 0.83226 -0.22491
 C23 C 0.24110 0.81362 -0.18881
 N24 N 0.22284 0.77728 -0.17074
 C25 C 0.56682 1.06019 -0.01153
 H26 H 0.56740 1.05991 0.02405
 C27 C 0.59715 1.08533 -0.03473
 H28 H 0.62111 1.10465 -0.01701
 C29 C 0.53595 1.03405 -0.07820
 H30 H 0.51275 1.01323 -0.09499
 C31 C 0.56577 1.05872 -0.10269
 H32 H 0.56519 1.05713 -0.13829
 N33 N 0.53698 1.03529 -0.03343
 C34 C 0.43343 1.01184 0.06216
 H35 H 0.43291 0.97631 0.06190
 C36 C 0.40299 1.03508 0.08731
 H37 H 0.37902 1.01745 0.10665
 C38 C 0.46418 1.07832 0.03593
 H39 H 0.48736 1.09502 0.01505
 C40 C 0.43426 1.10284 0.06060
 H41 H 0.43473 1.13837 0.05896
 Zn42 Zn 0.50012 0.99922 0.00095
 N43 N 0.46324 1.03363 0.03719
 C44 C 0.53616 0.96434 0.08003
 N45 N 0.53707 0.96306 0.03527
 C46 C 0.56689 0.93811 0.01330
 C47 C 0.59736 0.91299 0.03643
 C48 C 0.56613 0.93970 0.10446
 C49 C 0.43336 0.98686 -0.06015
 C50 C 0.40298 0.96378 -0.08541
 C51 C 0.43432 0.89585 -0.05896
 C52 C 0.46419 0.92023 -0.03416
 N53 N 0.46320 0.96493 -0.03527
 H54 H 0.51297 0.98520 0.09687
 H55 H 0.56737 0.93835 -0.02229
 H56 H 0.62133 0.89366 0.01866
 H57 H 0.56568 0.94135 0.14005
 H58 H 0.43281 1.02239 -0.05976
 H59 H 0.37901 0.98152 -0.10471
 H60 H 0.43486 0.86031 -0.05748
 H61 H 0.48741 0.90342 -0.01336
 C62 C 0.40326 1.08098 0.08632
 C63 C 0.59675 1.08440 -0.08071
 C64 C 0.40333 0.91787 -0.08463
 C65 C 0.59713 0.91399 0.08241
 C66 C -0.01187 0.56670 1.06037
 H67 H 0.02350 0.56728 1.06010
 C68 C -0.03501 0.59723 1.08558
 H69 H -0.01747 0.62135 1.10495
 C70 C -0.07805 0.53563 1.03418
 H71 H -0.09467 0.51227 1.01332
 C72 C -0.10247 0.56564 1.05891
 H73 H -0.13785 0.56506 1.05733
 N74 N -0.03356 0.53667 1.03542
 C75 C 0.06157 0.43246 1.01209
 H76 H 0.06139 0.43178 0.97650
 C77 C 0.08657 0.40199 1.03543
 H78 H 0.10587 0.37783 1.01781
 C79 C 0.03532 0.46365 1.07861
 H80 H 0.01451 0.48702 1.09530
 C81 C 0.05984 0.43371 1.10324
 H82 H 0.05814 0.43437 1.13883
 Zn83 Zn 0.00073 0.49949 0.99933
 N84 N 0.03668 0.46251 1.03386
 C85 C 0.07943 0.53543 0.96444
 N86 N 0.03493 0.53644 0.96315
 C87 C 0.01317 0.56636 0.93815
 C88 C 0.03623 0.59681 0.91296
 C89 C 0.10377 0.56537 0.93973
 C90 C -0.05995 0.43245 0.98683
 C91 C -0.08502 0.40195 0.96363
 C92 C -0.05854 0.43326 0.89567
 C93 C -0.03394 0.46326 0.92016
 N94 N -0.03515 0.46234 0.96492
 H95 H 0.09611 0.51216 0.98534
 H96 H -0.02220 0.56693 0.93839
 H97 H 0.01862 0.62085 0.89357
 H98 H 0.13915 0.56483 0.94137
 H99 H -0.05966 0.43197 1.02241
 H100 H -0.10427 0.37795 0.98136
 H101 H -0.05699 0.43375 0.86008
 H102 H -0.01321 0.48651 0.90337
 C103 C 0.08550 0.40248 1.08140
 C104 C -0.08071 0.59683 1.08466
 C105 C -0.08413 0.40222 0.91766
 C106 C 0.08192 0.59646 0.91395
 C107 C 1.05987 -0.01147 0.56689
 H108 H 1.05956 0.02406 0.56761
 C109 C 1.08499 -0.03475 0.59729
 H110 H 1.10425 -0.01716 0.62146
 C111 C 1.03387 -0.07790 0.53557
 H112 H 1.01313 -0.09457 0.51216
 C113 C 1.05852 -0.10247 0.56546
 H114 H 1.05699 -0.13801 0.56473
 N115 N 1.03506 -0.03322 0.53678
 C116 C 1.01163 0.06239 0.43280
 H117 H 0.97626 0.06220 0.43220
 C118 C 1.03476 0.08753 0.40233
 H119 H 1.01721 0.10693 0.37825
 C120 C 1.07782 0.03602 0.46381
 H121 H 1.09445 0.01511 0.48711
 C122 C 1.10223 0.06068 0.43386
 H123 H 1.13761 0.05899 0.43444
 Zn124 Zn 0.99910 0.00126 0.49976
 N125 N 1.03333 0.03738 0.46276
 C126 C 0.96437 0.08031 0.53612
 N127 N 0.96314 0.03561 0.53699
 C128 C 0.93834 0.01376 0.56695
 C129 C 0.91331 0.03693 0.59760
 C130 C 0.93981 0.10477 0.56626
 C131 C 0.98671 -0.05966 0.43244
 C132 C 0.96368 -0.08489 0.40189
 C133 C 0.89611 -0.05836 0.43356
 C134 C 0.92043 -0.03360 0.46359
 N135 N 0.96492 -0.03478 0.46253
 H136 H 0.98510 0.09706 0.51282
 H137 H 0.93862 -0.02177 0.56741
 H138 H 0.89409 0.01925 0.62167
 H139 H 0.94140 0.14030 0.56582
 H140 H 1.02208 -0.05933 0.43184
 H141 H 0.98131 -0.10422 0.37775
 H142 H 0.86073 -0.05686 0.43418
 H143 H 0.90372 -0.01281 0.48700
 C144 C 1.08046 0.08647 0.40273
 C145 C 1.08413 -0.08066 0.59671
 C146 C 0.91798 -0.08406 0.40233
 C147 C 0.91425 0.08284 0.59739
 C148 C 0.16708 0.27669 1.16684
 C149 C 0.14941 0.30682 1.14826
 C150 C 0.12794 0.34113 1.12573
 C151 C 0.10895 0.36959 1.10586
 C152 C -0.16514 0.72264 1.16764
 C153 C -0.14684 0.69250 1.14959
 C154 C -0.12462 0.65819 1.12771
 C155 C -0.10496 0.62973 1.10842
 C156 C -0.16701 0.27651 0.83334
 C157 C -0.14892 0.30663 0.85154
 C158 C -0.12705 0.34092 0.87371
 C159 C -0.10779 0.36935 0.89336
 C160 C 0.16588 0.72235 0.83142
 C161 C 0.14771 0.69218 0.84934
 C162 C 0.12563 0.65783 0.87109
 C163 C 0.10607 0.62936 0.89028
 C164 C 1.16526 0.16851 0.27691
 C165 C 1.14679 0.15075 0.30704
 C166 C 1.12443 0.12916 0.34136
 C167 C 1.10472 0.11007 0.36982
 C168 C 1.16694 -0.16571 0.72202
 C169 C 1.14891 -0.14727 0.69200
 C170 C 1.12708 -0.12486 0.65782
 C171 C 1.10783 -0.10507 0.62948
 C172 C 0.83426 -0.16773 0.27659
 C173 C 0.85232 -0.14944 0.30671
 C174 C 0.87433 -0.12735 0.34101
 C175 C 0.89384 -0.10792 0.36945
 C176 C 0.83225 0.16726 0.72393
 C177 C 0.85007 0.14899 0.69362
 C178 C 0.87167 0.12677 0.65910
 C179 C 0.89074 0.10711 0.63048
 C180 C 0.27735 1.16593 0.16803
 C181 C 0.30751 1.14748 0.15037
 C182 C 0.34186 1.12509 0.12888
 C183 C 0.37034 1.10533 0.10985
 C184 C 0.72196 1.16690 -0.16532
 C185 C 0.69196 1.14898 -0.14700
 C186 C 0.65780 1.12724 -0.12473
 C187 C 0.62949 1.10805 -0.10503
 C188 C 0.27788 0.83414 -0.16793
 C189 C 0.30795 0.85217 -0.14976
 C190 C 0.34218 0.87417 -0.12779
 C191 C 0.37055 0.89370 -0.10843
 C192 C 0.72320 0.83197 0.16658
 C193 C 0.69299 0.84977 0.14838
 C194 C 0.65859 0.87136 0.12625
 C195 C 0.63007 0.89044 0.10664
   
