data_POSCAR
  _audit_creation_date              2014-09-24
  _audit_creation_method            'ToBaCCo'
  _symmetry_space_group_name_H-M    'P1'
  _symmetry_Int_Tables_number       1
  _symmetry_cell_setting            triclinic
  loop_
  _symmetry_equiv_pos_as_xyz
 x,y,z
_cell_length_a 23.5096
_cell_length_b 23.5702
_cell_length_c 23.5049
_cell_angle_alpha 89.909800
_cell_angle_beta 91.066500
_cell_angle_gamma 89.275500
loop_
  _atom_site_label
  _atom_site_type_symbol
  _atom_site_fract_x
  _atom_site_fract_y
  _atom_site_fract_z
C1 C 0.37732 0.98462 -0.54681
 C2 C 0.35490 0.98770 -0.49191
 C3 C 0.38891 0.97998 -0.44302
 C4 C 0.44810 0.97052 -0.44895
 C5 C 0.47242 0.97192 -0.50371
 C6 C 0.43679 0.97542 -0.55299
 C7 C 0.46239 0.97264 -0.60653
 C8 C 0.52131 0.97008 -0.61128
 C9 C 0.55757 0.97588 -0.56323
 C10 C 0.53272 0.97279 -0.50889
 C11 C 0.48391 0.95977 -0.40163
 C12 C 0.54261 0.96072 -0.40673
 C13 C 0.56767 0.97249 -0.45933
 C14 C 0.62695 0.98199 -0.46327
 C15 C 0.65149 0.98256 -0.51733
 C16 C 0.61781 0.98216 -0.56777
 H17 H 0.43753 0.97296 -0.64560
 H18 H 0.53790 0.96453 -0.65350
 H19 H 0.46699 0.95171 -0.35995
 H20 H 0.56839 0.95320 -0.36876
 H21 H 0.30995 0.99725 -0.48715
 H22 H 0.69649 0.99150 -0.52004
 C23 C -0.61432 1.44234 0.01281
 C24 C -0.64610 1.49125 0.02429
 C25 C -0.62276 1.54587 0.02161
 C26 C -0.56418 1.55118 0.00802
 C27 C -0.53135 1.50162 -0.00383
 C28 C -0.55686 1.44735 -0.00279
 C29 C -0.52408 1.39937 -0.01715
 C30 C -0.46601 1.40352 -0.02542
 C31 C -0.43878 1.45604 -0.02130
 C32 C -0.47205 1.50586 -0.01410
 C33 C -0.53603 1.60356 0.01098
 C34 C -0.47834 1.60770 -0.00063
 C35 C -0.44558 1.55947 -0.01427
 C36 C -0.38640 1.56291 -0.02511
 C37 C -0.35366 1.51273 -0.02767
 C38 C -0.37884 1.45954 -0.02300
 H39 H -0.54274 1.35783 -0.02117
 H40 H -0.44238 1.36505 -0.03486
 H41 H -0.55754 1.64189 0.02432
 H42 H -0.45921 1.64898 0.00378
 H43 H -0.69043 1.48640 0.03517
 H44 H -0.30787 1.51505 -0.03148
 C45 C -0.03190 0.44694 0.37652
 C46 C -0.02951 0.49874 0.34660
 C47 C -0.03207 0.55113 0.37477
 C48 C -0.03891 0.55243 0.43450
 C49 C -0.04037 0.50116 0.46542
 C50 C -0.04164 0.44878 0.43623
 C51 C -0.05536 0.40010 0.46764
 C52 C -0.05410 0.40089 0.52679
 C53 C -0.03973 0.45058 0.55667
 C54 C -0.03900 0.50206 0.52599
 C55 C -0.04511 0.60371 0.46433
 C56 C -0.04418 0.60452 0.52355
 C57 C -0.03550 0.55424 0.55530
 C58 C -0.02647 0.55468 0.61547
 C59 C -0.02612 0.50258 0.64520
 C60 C -0.02901 0.45024 0.61641
 H61 H -0.06604 0.36066 0.44675
 H62 H -0.06349 0.36195 0.54901
 H63 H -0.05037 0.64376 0.44216
 H64 H -0.04985 0.64514 0.54417
 H65 H -0.01980 0.49882 0.30171
 H66 H -0.01559 0.50254 0.69030
 O67 O -0.13781 1.01719 -0.09424
 O68 O 0.15260 0.99272 -0.06942
 O69 O 0.01432 1.07890 -0.15028
 O70 O 0.01092 0.92521 -0.15073
 O71 O 0.00064 0.85560 -0.08265
 O72 O 0.01093 1.14829 -0.08119
 O73 O 0.08833 0.99623 -0.14476
 O74 O -0.06489 1.00937 -0.15828
 Zr75 Zr 0.00847 1.00204 -0.10491
 O76 O 0.05366 0.94647 -0.05277
 O77 O -0.04370 1.05689 -0.06073
 C78 C -0.11797 1.01672 -0.14539
 C79 C 0.13960 0.99411 -0.12327
 C80 C 0.01397 1.13139 -0.13361
 C81 C 0.00779 0.87265 -0.13456
 H82 H 0.08578 1.07288 -0.07305
 O83 O 0.05876 1.04982 -0.05143
 H84 H -0.07261 0.93231 -0.08837
 O85 O -0.04897 0.95436 -0.06135
 O86 O 0.14311 0.99524 0.08325
 O87 O -0.14946 1.00871 0.05904
 O88 O 0.08573 1.14244 0.00462
 O89 O 0.06917 0.85072 0.00183
 O90 O -0.08430 0.86140 -0.01155
 O91 O -0.06780 1.15318 -0.01062
 O92 O -0.00256 1.07680 0.14120
 O93 O -0.00986 0.92460 0.14011
 O94 O 0.00538 1.14709 0.07344
 O95 O -0.01279 0.85543 0.07070
 O96 O 0.15071 1.06834 0.01179
 O97 O -0.14028 1.08799 -0.01500
 O98 O -0.14881 0.93572 -0.01962
 O99 O 0.14310 0.91436 0.00676
 O100 O 0.06892 1.00249 0.14596
 O101 O -0.08507 1.00232 0.13409
 Zr102 Zr 0.10121 0.99470 0.00306
 Zr103 Zr -0.09801 1.00852 -0.01369
 Zr104 Zr 0.00648 1.10178 -0.00443
 Zr105 Zr -0.00453 0.90186 -0.00589
 Zr106 Zr -0.00531 1.00107 0.09412
 O107 O -0.05680 0.95318 0.04165
 O108 O 0.05174 1.04914 0.05035
 C109 C 0.12250 1.00121 0.13366
 C110 C -0.13640 1.00578 0.11291
 C111 C 0.13688 1.12183 0.01172
 C112 C 0.12245 0.86347 0.00763
 C113 C -0.13550 0.88216 -0.01782
 C114 C -0.12102 1.13929 -0.01250
 C115 C 0.00244 1.12929 0.12568
 C116 C -0.01165 0.87225 0.12329
 H117 H -0.07464 1.08098 0.06524
 O118 O -0.05028 1.05593 0.04210
 H119 H 0.06813 0.92256 0.07642
 O120 O 0.04626 0.94717 0.04967
 C121 C 0.29048 0.97931 0.31921
 C122 C 0.26560 1.03239 0.32087
 C123 C 0.27563 1.07072 0.36454
 C124 C 0.31310 1.05384 0.40845
 C125 C 0.34095 0.99998 0.40735
 C126 C 0.32914 0.96201 0.36197
 O127 O 0.27218 0.94841 0.27539
 C128 C 0.23518 0.98295 0.24884
 C129 C 0.23013 1.03498 0.27493
 C130 C 0.19350 1.07761 0.25524
 C131 C 0.15985 1.06584 0.20714
 C132 C 0.16249 1.01203 0.18071
 C133 C 0.20149 0.97016 0.20090
 H134 H 0.25462 1.11184 0.36526
 H135 H 0.32125 1.08315 0.44305
 H136 H 0.34801 0.91987 0.36104
 H137 H 0.19073 1.11835 0.27628
 H138 H 0.13165 1.09856 0.19019
 H139 H 0.20410 0.92876 0.18113
 C140 C -0.27650 0.98455 0.31523
 C141 C -0.30489 1.01869 0.27642
 C142 C -0.35689 1.04439 0.28747
 C143 C -0.38140 1.03336 0.34016
 C144 C -0.35546 0.99475 0.37993
 C145 C -0.30081 0.97177 0.36747
 O146 O -0.22648 0.96597 0.29691
 C147 C -0.22359 0.98863 0.24524
 C148 C -0.27086 1.02070 0.23049
 C149 C -0.27782 1.04665 0.17762
 C150 C -0.23397 1.03974 0.13850
 C151 C -0.18368 1.00876 0.15334
 C152 C -0.17866 0.98259 0.20756
 H153 H -0.37745 1.07277 0.25699
 H154 H -0.42041 1.05580 0.35015
 H155 H -0.27865 0.94306 0.39654
 H156 H -0.31583 1.07100 0.16674
 H157 H -0.23879 1.05944 0.09705
 H158 H -0.14112 0.95808 0.21985
 C159 C -0.25595 0.99743 -0.35457
 C160 C -0.28138 1.03573 -0.31873
 C161 C -0.33487 1.05916 -0.32925
 C162 C -0.36420 1.04159 -0.37821
 C163 C -0.34049 1.00032 -0.41551
 C164 C -0.28423 0.97971 -0.40439
 O165 O -0.20591 0.97838 -0.33452
 C166 C -0.20005 1.00520 -0.28497
 C167 C -0.24523 1.04077 -0.27364
 C168 C -0.25019 1.07054 -0.22303
 C169 C -0.20709 1.06290 -0.18183
 C170 C -0.16004 1.02620 -0.19184
 C171 C -0.15593 0.99759 -0.24467
 H172 H -0.35376 1.08941 -0.30036
 H173 H -0.40565 1.06049 -0.38718
 H174 H -0.26457 0.94839 -0.43162
 H175 H -0.28662 1.09769 -0.21501
 H176 H -0.21063 1.08523 -0.14177
 H177 H -0.12100 0.96857 -0.25297
 C178 C 0.28527 0.97291 -0.32161
 C179 C 0.31073 1.00892 -0.28315
 C180 C 0.36073 1.03733 -0.29435
 C181 C 0.38581 1.02790 -0.34722
 C182 C 0.36200 0.98887 -0.38676
 C183 C 0.31043 0.96159 -0.37380
 O184 O 0.23629 0.95253 -0.30369
 C185 C 0.23098 0.97590 -0.25264
 C186 C 0.27577 1.01023 -0.23787
 C187 C 0.27937 1.03843 -0.18608
 C188 C 0.23481 1.03120 -0.14802
 C189 C 0.18735 0.99727 -0.16279
 C190 C 0.18542 0.96927 -0.21597
 H191 H 0.37915 1.06661 -0.26396
 H192 H 0.42373 1.05111 -0.35751
 H193 H 0.29042 0.93273 -0.40361
 H194 H 0.31514 1.06511 -0.17539
 H195 H 0.23647 1.05331 -0.10766
 H196 H 0.14973 0.94321 -0.22830
 C197 C 0.28059 1.32230 0.00371
 C198 C 0.30601 1.28349 0.04017
 C199 C 0.35679 1.29402 0.06932
 C200 C 0.38255 1.34658 0.06026
 C201 C 0.35814 1.38662 0.02144
 C202 C 0.30599 1.37439 -0.00668
 O203 O 0.23176 1.30449 -0.01872
 C204 C 0.22637 1.25323 0.00387
 C205 C 0.27086 1.23820 0.03989
 C206 C 0.27431 1.18591 0.06732
 C207 C 0.23010 1.14755 0.05716
 C208 C 0.18334 1.16239 0.02082
 C209 C 0.18145 1.21617 -0.00600
 H210 H 0.37558 1.26315 0.09842
 H211 H 0.42156 1.35622 0.08330
 H212 H 0.28595 1.40454 -0.03576
 H213 H 0.30983 1.17497 0.09535
 H214 H 0.23181 1.10666 0.07828
 H215 H 0.14648 1.22845 -0.03424
 C216 C 0.29574 0.68277 0.01108
 C217 C 0.26160 0.67721 0.05752
 C218 C 0.26499 0.63118 0.09426
 C219 C 0.30498 0.58858 0.08255
 C220 C 0.34112 0.59240 0.03475
 C221 C 0.33625 0.64079 -0.00139
 O222 O 0.28307 0.72868 -0.01995
 C223 C 0.23992 0.75235 0.00760
 C224 C 0.22528 0.72217 0.05521
 C225 C 0.17932 0.73667 0.08868
 C226 C 0.14666 0.78407 0.07224
 C227 C 0.16062 0.81612 0.02349
 C228 C 0.20842 0.80069 -0.00905
 H229 H 0.23714 0.62768 0.13022
 H230 H 0.30798 0.55251 0.11113
 H231 H 0.36094 0.64418 -0.03965
 H232 H 0.16826 0.71167 0.12544
 H233 H 0.11009 0.79576 0.09727
 H234 H 0.21916 0.82407 -0.04697
 C235 C -0.28044 0.68222 -0.01256
 C236 C -0.30438 0.72098 -0.04998
 C237 C -0.35386 0.71044 -0.08130
 C238 C -0.38002 0.65793 -0.07336
 C239 C -0.35746 0.61798 -0.03340
 C240 C -0.30643 0.63023 -0.00311
 O241 O -0.23243 0.70003 0.01173
 C242 C -0.22615 0.75130 -0.01062
 C243 C -0.26935 0.76628 -0.04822
 C244 C -0.27195 0.81849 -0.07572
 C245 C -0.22807 0.85679 -0.06422
 C246 C -0.18233 0.84196 -0.02657
 C247 C -0.18137 0.78831 0.00056
 H248 H -0.37138 0.74129 -0.11117
 H249 H -0.41807 0.64839 -0.09801
 H250 H -0.28781 0.60037 0.02717
 H251 H -0.30652 0.82938 -0.10494
 H252 H -0.22905 0.89753 -0.08562
 H253 H -0.14712 0.77600 0.02965
 C254 C -0.26688 1.34224 -0.03071
 C255 C -0.27919 1.31298 0.01813
 C256 C -0.32110 1.33008 0.05540
 C257 C -0.35239 1.37909 0.04148
 C258 C -0.34226 1.40932 -0.00955
 C259 C -0.29802 1.39129 -0.04574
 O260 O -0.22520 1.31800 -0.06001
 C261 C -0.21135 1.27240 -0.02899
 C262 C -0.24355 1.26753 0.01904
 C263 C -0.23795 1.22257 0.05700
 C264 C -0.19742 1.18060 0.04503
 C265 C -0.16336 1.18443 -0.00383
 C266 C -0.16979 1.23126 -0.04129
 H267 H -0.32955 1.30639 0.09375
 H268 H -0.38525 1.39329 0.07007
 H269 H -0.28916 1.41391 -0.08464
 H270 H -0.26399 1.21976 0.09437
 H271 H -0.19168 1.14546 0.07434
 H272 H -0.14409 1.23491 -0.07884
 C273 C -0.01917 1.33429 0.26501
 C274 C 0.00998 1.29335 0.29573
 C275 C 0.02924 1.30145 0.35110
 C276 C 0.01680 1.35353 0.37661
 C277 C -0.01727 1.39569 0.34806
 C278 C -0.03354 1.38616 0.29019
 O279 O -0.03267 1.31772 0.21243
 C280 C -0.01194 1.26500 0.21043
 C281 C 0.01385 1.24807 0.26072
 C282 C 0.03493 1.19354 0.26998
 C283 C 0.02952 1.15471 0.22537
 C284 C 0.00558 1.17142 0.17194
 C285 C -0.01562 1.22755 0.16439
 H286 H 0.05372 1.26906 0.37367
 H287 H 0.03459 1.36100 0.41870
 H288 H -0.05886 1.41683 0.26614
 H289 H 0.05360 1.18092 0.31057
 H290 H 0.04416 1.11155 0.23256
 H291 H -0.03556 1.24104 0.12465
 C292 C -0.01303 1.33742 -0.27191
 C293 C 0.02066 1.29918 -0.30029
 C294 C 0.04082 1.30901 -0.35436
 C295 C 0.02476 1.35996 -0.38098
 C296 C -0.01236 1.39977 -0.35429
 C297 C -0.02974 1.38874 -0.29771
 O298 O -0.02817 1.31883 -0.22098
 C299 C -0.00358 1.26775 -0.21753
 C300 C 0.02664 1.25385 -0.26514
 C301 C 0.05382 1.20171 -0.27204
 C302 C 0.04947 1.16191 -0.22811
 C303 C 0.01879 1.17498 -0.17828
 C304 C -0.00769 1.22901 -0.17270
 H305 H 0.06807 1.27854 -0.37537
 H306 H 0.04213 1.36864 -0.42240
 H307 H -0.05759 1.41777 -0.27547
 H308 H 0.07688 1.19172 -0.31025
 H309 H 0.07016 1.12090 -0.23284
 H310 H -0.03204 1.23982 -0.13550
 C311 C -0.01481 0.66745 -0.27336
 C312 C 0.02112 0.70413 -0.29995
 C313 C 0.04472 0.69284 -0.35238
 C314 C 0.02969 0.64219 -0.37935
 C315 C -0.01004 0.60445 -0.35486
 C316 C -0.03074 0.61669 -0.29966
 O317 O -0.03280 0.68694 -0.22368
 C318 C -0.00782 0.73710 -0.21919
 C319 C 0.02537 0.74956 -0.26499
 C320 C 0.05333 0.80074 -0.27075
 C321 C 0.04682 0.84094 -0.22747
 C322 C 0.01350 0.82913 -0.17924
 C323 C -0.01395 0.77614 -0.17490
 H324 H 0.07382 0.72196 -0.37187
 H325 H 0.04957 0.63223 -0.41937
 H326 H -0.06053 0.58908 -0.27901
 H327 H 0.07862 0.80974 -0.30763
 H328 H 0.06801 0.88120 -0.23141
 H329 H -0.04031 0.76626 -0.13900
 C330 C -0.03301 0.66908 0.26480
 C331 C 0.01015 0.70198 0.28645
 C332 C 0.04223 0.68710 0.33447
 C333 C 0.02869 0.63656 0.36207
 C334 C -0.01744 0.60303 0.34253
 C335 C -0.04794 0.61889 0.29231
 O336 O -0.05753 0.69108 0.21816
 C337 C -0.02944 0.73907 0.21065
 C338 C 0.01200 0.74773 0.25173
 C339 C 0.04529 0.79591 0.25378
 C340 C 0.03563 0.83702 0.21163
 C341 C -0.00600 0.82889 0.16805
 C342 C -0.03883 0.77896 0.16719
 H343 H 0.07651 0.71342 0.35009
 H344 H 0.05351 0.62383 0.39933
 H345 H -0.08268 0.59355 0.27600
 H346 H 0.07732 0.80180 0.28685
 H347 H 0.06147 0.87477 0.21216
 H348 H -0.07089 0.77194 0.13437
   
