data_POSCAR
  _audit_creation_date              2014-09-24
  _audit_creation_method            'ToBaCCo'
  _symmetry_space_group_name_H-M    'P1'
  _symmetry_Int_Tables_number       1
  _symmetry_cell_setting            triclinic
  loop_
  _symmetry_equiv_pos_as_xyz
 x,y,z
_cell_length_a 20.2575
_cell_length_b 21.5053
_cell_length_c 21.5456
_cell_angle_alpha 91.176300
_cell_angle_beta 90.741600
_cell_angle_gamma 91.529800
loop_
  _atom_site_label
  _atom_site_type_symbol
  _atom_site_fract_x
  _atom_site_fract_y
  _atom_site_fract_z
O1 O 0.56860 0.12485 0.06681
 O2 O 0.42655 -0.06293 -0.11485
 O3 O 0.62358 0.00684 -0.08006
 O4 O 0.37167 0.08054 0.00519
 O5 O 0.53318 -0.01166 -0.13174
 O6 O 0.46023 0.13633 0.01826
 O7 O 0.38973 0.02302 -0.08567
 O8 O 0.60720 0.09772 -0.01952
 C9 C 0.60135 0.13851 0.02069
 C10 C 0.39448 -0.01650 -0.12711
 C11 C 0.59173 0.00651 -0.13060
 C12 C 0.40188 0.13192 0.00071
 O13 O 0.40990 0.06260 0.10569
 O14 O 0.58844 -0.09601 -0.06127
 O15 O 0.61616 0.02903 0.08833
 O16 O 0.38449 -0.08688 -0.01817
 O17 O 0.48025 -0.12664 -0.02227
 O18 O 0.52133 0.03098 0.13249
 O19 O 0.38740 -0.02810 0.07311
 O20 O 0.61680 -0.06295 0.02777
 Co21 Co 0.49078 0.08012 0.07204
 Co22 Co 0.50606 -0.06566 -0.07379
 Co23 Co 0.60529 0.01675 0.00358
 Co24 Co 0.39375 -0.00185 -0.00592
 O25 O 0.49904 0.00742 -0.00104
 C26 C 0.38479 0.01065 0.11538
 C27 C 0.61771 -0.10491 -0.01171
 C28 C 0.58139 0.02158 0.13564
 C29 C 0.42104 -0.13218 -0.00979
 O30 O -0.11553 0.45684 -0.04132
 O31 O 0.02012 0.53505 0.12850
 O32 O 0.02637 0.34805 0.04377
 O33 O -0.05446 0.63024 0.02131
 O34 O 0.02662 0.42690 0.10851
 O35 O -0.10377 0.57411 -0.05426
 O36 O 0.04733 0.62053 0.08751
 O37 O -0.06962 0.41882 0.04073
 C38 C -0.12044 0.42634 0.00822
 C39 C 0.02154 0.59237 0.13090
 C40 C 0.03344 0.36889 0.10033
 C41 C -0.10405 0.61803 -0.01333
 O42 O -0.00282 0.55210 -0.13228
 O43 O 0.13776 0.44543 0.04048
 O44 O -0.03037 0.37267 -0.06043
 O45 O 0.11697 0.60728 -0.01385
 O46 O 0.13916 0.55573 0.06892
 O47 O -0.00899 0.44597 -0.11985
 O48 O 0.01707 0.63303 -0.07512
 O49 O 0.08635 0.40918 -0.03997
 Co50 Co -0.05226 0.50703 -0.07927
 Co51 Co 0.07553 0.49284 0.07862
 Co52 Co 0.01037 0.41807 0.00210
 Co53 Co 0.03081 0.61219 0.00466
 O54 O 0.01535 0.51174 -0.00255
 C55 C 0.01048 0.60812 -0.12719
 C56 C 0.13862 0.41463 -0.00949
 C57 C -0.02298 0.39030 -0.11399
 C58 C 0.15791 0.58971 0.02499
 O59 O -0.02048 -0.12110 0.44040
 O60 O 0.11934 0.04829 0.55720
 O61 O 0.06587 -0.04137 0.39601
 O62 O -0.03070 -0.06029 0.64934
 O63 O 0.11569 0.04363 0.43556
 O64 O -0.01591 -0.11704 0.56255
 O65 O 0.07248 -0.03476 0.59823
 O66 O -0.04219 -0.07261 0.35184
 C67 C -0.03616 -0.12466 0.38205
 C68 C 0.12231 0.00132 0.59240
 C69 C 0.11611 -0.00483 0.40018
 C70 C -0.02533 -0.11513 0.62189
 O71 O -0.13130 -0.05849 0.55943
 O72 O 0.01552 0.12174 0.43792
 O73 O -0.09981 0.01963 0.40600
 O74 O 0.01572 0.06217 0.63044
 O75 O 0.01819 0.12632 0.55423
 O76 O -0.13559 -0.06305 0.44635
 O77 O -0.09263 0.02761 0.59344
 O78 O 0.00533 0.05236 0.36346
 Co79 Co -0.06952 -0.08204 0.50187
 Co80 Co 0.06123 0.07821 0.49652
 Co81 Co -0.01929 -0.01401 0.40839
 Co82 Co -0.01288 -0.00722 0.58902
 O83 O -0.00876 0.00338 0.49859
 C84 C -0.14054 -0.00822 0.58768
 C85 C 0.00928 0.10819 0.38108
 C86 C -0.14702 -0.01563 0.41598
 C87 C 0.01309 0.11649 0.61125
 C88 C -0.28189 0.29650 0.02491
 C89 C -0.28377 0.34159 -0.02097
 C90 C -0.23429 0.38825 -0.02285
 C91 C -0.36037 0.19581 0.01971
 C92 C -0.18324 0.34728 0.06946
 C93 C -0.23280 0.30079 0.07130
 C94 C -0.32606 0.24267 0.02153
 C95 C -0.18193 0.39006 0.02089
 H96 H -0.32151 0.33889 -0.05707
 H97 H -0.23463 0.42021 -0.06105
 H98 H -0.14355 0.34702 0.10363
 H99 H -0.23082 0.26624 0.10714
 C100 C 0.32777 0.70807 0.01751
 C101 C 0.30443 0.68958 0.07547
 C102 C 0.25322 0.64463 0.07878
 C103 C 0.39496 0.81362 0.00294
 C104 C 0.25190 0.63402 -0.03344
 C105 C 0.30339 0.67814 -0.03662
 C106 C 0.36707 0.76438 0.01174
 C107 C 0.22441 0.61899 0.02403
 H108 H 0.32245 0.71291 0.11764
 H109 H 0.23210 0.63446 0.12350
 H110 H 0.23018 0.61506 -0.07623
 H111 H 0.32065 0.69232 -0.08172
 C112 C 0.29324 0.28559 -0.03182
 C113 C 0.23858 0.28250 -0.07240
 C114 C 0.19091 0.32850 -0.06973
 C115 C 0.36642 0.18672 -0.01499
 C116 C 0.25472 0.38314 0.01119
 C117 C 0.30235 0.33725 0.00829
 C118 C 0.33442 0.23226 -0.02476
 C119 C 0.19703 0.37784 -0.02587
 H120 H 0.23069 0.24264 -0.10344
 H121 H 0.14688 0.32275 -0.09855
 H122 H 0.26085 0.42041 0.04553
 H123 H 0.34422 0.34016 0.04012
 C124 C -0.26186 0.74653 -0.00050
 C125 C -0.21504 0.74353 0.04748
 C126 C -0.16581 0.69935 0.04476
 C127 C -0.34193 0.84172 -0.00465
 C128 C -0.21169 0.65871 -0.05278
 C129 C -0.26093 0.70321 -0.05002
 C130 C -0.30659 0.79754 -0.00172
 C131 C -0.16250 0.65745 -0.00621
 H132 H -0.21507 0.77682 0.08592
 H133 H -0.12890 0.69952 0.08160
 H134 H -0.21030 0.62735 -0.09269
 H135 H -0.29677 0.70530 -0.08763
 C136 C -0.02851 -0.29086 0.27094
 C137 C -0.06545 -0.24082 0.25122
 C138 C -0.06984 -0.18773 0.28886
 C139 C 0.00111 -0.37340 0.18453
 C140 C -0.00355 -0.23581 0.36822
 C141 C 0.00144 -0.28893 0.32998
 C142 C -0.01362 -0.33871 0.22629
 C143 C -0.03746 -0.18407 0.34689
 H144 H -0.08827 -0.24159 0.20540
 H145 H -0.09697 -0.14874 0.27172
 H146 H 0.02174 -0.23397 0.41283
 H147 H 0.03091 -0.32717 0.34528
 C148 C -0.01405 0.26237 0.74565
 C149 C 0.00013 0.27754 0.68423
 C150 C 0.00831 0.23019 0.63962
 C151 C -0.02166 0.34724 0.83483
 C152 C -0.01244 0.15310 0.71822
 C153 C -0.02076 0.20021 0.76235
 C154 C -0.01890 0.30970 0.79296
 C155 C 0.00277 0.16749 0.65652
 H156 H 0.00564 0.32573 0.67107
 H157 H 0.01988 0.24250 0.59243
 H158 H -0.01757 0.10530 0.73265
 H159 H -0.03159 0.18811 0.80981
 C160 C 0.01753 0.24686 0.24143
 C161 C -0.00031 0.18534 0.22557
 C162 C -0.00488 0.14077 0.27145
 C163 C 0.02947 0.32727 0.15117
 C164 C 0.02459 0.21949 0.34993
 C165 C 0.02928 0.26416 0.30371
 C166 C 0.02449 0.29145 0.19311
 C167 C 0.00832 0.15714 0.33404
 H168 H -0.00978 0.17159 0.17753
 H169 H -0.01770 0.09320 0.25769
 H170 H 0.03525 0.23336 0.39769
 H171 H 0.04295 0.31183 0.31638
 C172 C -0.00003 -0.27081 0.73998
 C173 C 0.01540 -0.27676 0.67691
 C174 C 0.00610 -0.22655 0.63732
 C175 C 0.01164 -0.35704 0.82420
 C176 C -0.03463 -0.16560 0.72396
 C177 C -0.02545 -0.21535 0.76303
 C178 C 0.00855 -0.32039 0.78281
 C179 C -0.01842 -0.17030 0.66087
 H180 H 0.03479 -0.31973 0.65857
 H181 H 0.01897 -0.23132 0.58886
 H182 H -0.05422 -0.12322 0.74346
 H183 H -0.03805 -0.21041 0.81160
 C184 C 0.28126 -0.01426 0.72290
 C185 C 0.23399 -0.06259 0.71576
 C186 C 0.18462 -0.05965 0.67018
 C187 C 0.35976 -0.01406 0.82180
 C188 C 0.23185 0.03850 0.63621
 C189 C 0.28115 0.03552 0.68207
 C190 C 0.32555 -0.01351 0.77564
 C191 C 0.18184 -0.00811 0.63113
 H192 H 0.23358 -0.10130 0.74718
 H193 H 0.14682 -0.09624 0.66756
 H194 H 0.23085 0.07891 0.60708
 H195 H 0.31744 0.07325 0.68731
 C196 C -0.31352 0.00311 0.29587
 C197 C -0.30431 -0.05328 0.32581
 C198 C -0.25328 -0.05821 0.36982
 C199 C -0.38700 0.01146 0.19437
 C200 C -0.22312 0.05046 0.35623
 C201 C -0.27430 0.05540 0.31281
 C202 C -0.35606 0.00614 0.24205
 C203 C -0.21054 -0.00696 0.38341
 H204 H -0.33405 -0.09418 0.31270
 H205 H -0.24427 -0.10313 0.38964
 H206 H -0.19091 0.09064 0.36577
 H207 H -0.28074 0.09918 0.28975
 C208 C 0.27042 -0.01636 0.26735
 C209 C 0.21766 -0.05981 0.26477
 C210 C 0.16963 -0.05940 0.31089
 C211 C 0.34697 -0.00118 0.16997
 C212 C 0.22905 0.02574 0.36408
 C213 C 0.27700 0.02515 0.31803
 C214 C 0.31326 -0.00944 0.21495
 C215 C 0.17364 -0.01511 0.35990
 H216 H 0.21190 -0.09199 0.22560
 H217 H 0.12745 -0.09124 0.30613
 H218 H 0.23362 0.06042 0.40116
 H219 H 0.31748 0.05912 0.32042
 C220 C -0.30109 0.01698 0.71133
 C221 C -0.29924 -0.03697 0.67382
 C222 C -0.24984 -0.04348 0.62949
 C223 C -0.37405 0.01535 0.81220
 C224 C -0.20651 0.05960 0.65747
 C225 C -0.25587 0.06598 0.70169
 C226 C -0.34255 0.01806 0.76515
 C227 C -0.20144 0.00382 0.62260
 H228 H -0.33369 -0.07543 0.68122
 H229 H -0.24703 -0.08699 0.60357
 H230 H -0.16989 0.09687 0.65330
 H231 H -0.25643 0.10772 0.73069
   
