data_POSCAR
  _audit_creation_date              2014-09-24
  _audit_creation_method            'ToBaCCo'
  _symmetry_space_group_name_H-M    'P1'
  _symmetry_Int_Tables_number       1
  _symmetry_cell_setting            triclinic
  loop_
  _symmetry_equiv_pos_as_xyz
 x,y,z
_cell_length_a 56.6678
_cell_length_b 56.6514
_cell_length_c 17.1646
_cell_angle_alpha 89.903700
_cell_angle_beta 89.807500
_cell_angle_gamma 119.795600
loop_
  _atom_site_label
  _atom_site_type_symbol
  _atom_site_fract_x
  _atom_site_fract_y
  _atom_site_fract_z
C1 C 0.24375 0.48760 0.53434
 C2 C 0.24183 0.48815 0.45519
 C3 C 0.21669 0.48512 0.41842
 C4 C 0.26449 0.49190 0.40273
 C5 C 0.26494 0.48374 0.57403
 C6 C 0.22491 0.49191 0.58455
 C7 C 0.19116 0.46306 0.43782
 C8 C 0.16744 0.46025 0.40447
 C9 C 0.16847 0.47941 0.34930
 C10 C 0.19462 0.50126 0.32926
 C11 C 0.21823 0.50400 0.36322
 C12 C 0.25901 0.47644 0.33432
 C13 C 0.28029 0.47918 0.28660
 C14 C 0.30736 0.49712 0.30719
 C15 C 0.31290 0.51314 0.37403
 C16 C 0.29165 0.51105 0.42033
 C17 C 0.27935 0.50034 0.63704
 C18 C 0.29968 0.49731 0.67355
 C19 C 0.30612 0.47753 0.64826
 C20 C 0.29134 0.46067 0.58555
 C21 C 0.27078 0.46352 0.54965
 C22 C 0.22465 0.51652 0.58031
 C23 C 0.20633 0.52040 0.62543
 C24 C 0.18778 0.49957 0.67474
 C25 C 0.18830 0.47507 0.67953
 C26 C 0.20705 0.47143 0.63562
 H27 H 0.18959 0.44782 0.47897
 H28 H 0.14871 0.44269 0.42261
 H29 H 0.19719 0.51669 0.28740
 H30 H 0.23777 0.52111 0.34696
 H31 H 0.23829 0.46180 0.31878
 H32 H 0.27568 0.46658 0.23523
 H33 H 0.29646 0.52405 0.47082
 H34 H 0.27520 0.51601 0.65727
 H35 H 0.31044 0.51064 0.72168
 H36 H 0.29578 0.44555 0.56264
 H37 H 0.25962 0.45013 0.50201
 H38 H 0.23846 0.53257 0.54138
 H39 H 0.20605 0.53930 0.61985
 H40 H 0.17414 0.45875 0.71714
 H41 H 0.20711 0.45238 0.63961
 H42 H 0.33370 0.52728 0.39032
 C43 C 0.47718 -0.26554 0.54567
 C44 C 0.47714 -0.26492 0.46649
 C45 C 0.47748 -0.28670 0.41985
 C46 C 0.47674 -0.24264 0.42236
 C47 C 0.47830 -0.24326 0.59407
 C48 C 0.47614 -0.28885 0.58775
 C49 C 0.50050 -0.28983 0.41890
 C50 C 0.50085 -0.31015 0.37371
 C51 C 0.47823 -0.32767 0.32820
 C52 C 0.45511 -0.32445 0.32989
 C53 C 0.45488 -0.30400 0.37479
 C54 C 0.49860 -0.22609 0.37306
 C55 C 0.49880 -0.20468 0.33208
 C56 C 0.47680 -0.19990 0.33808
 C57 C 0.45469 -0.21679 0.38665
 C58 C 0.45473 -0.23794 0.42877
 C59 C 0.45950 -0.24940 0.65489
 C60 C 0.46036 -0.22875 0.70124
 C61 C 0.47998 -0.20133 0.68748
 C62 C 0.49922 -0.19537 0.62764
 C63 C 0.49851 -0.21610 0.58191
 C64 C 0.45148 -0.31310 0.59727
 C65 C 0.45045 -0.33482 0.63896
 C66 C 0.47432 -0.33291 0.67100
 C67 C 0.49913 -0.30848 0.65893
 C68 C 0.49991 -0.28661 0.61902
 H69 H 0.51826 -0.27637 0.45265
 H70 H 0.51900 -0.31195 0.37385
 H71 H 0.43696 -0.33791 0.29783
 H72 H 0.43693 -0.30185 0.37520
 H73 H 0.51572 -0.22949 0.36739
 H74 H 0.51604 -0.19199 0.29499
 H75 H 0.43764 -0.25064 0.46634
 H76 H 0.44400 -0.27025 0.66638
 H77 H 0.44577 -0.23454 0.74827
 H78 H 0.51482 -0.17460 0.61569
 H79 H 0.51383 -0.21091 0.53713
 H80 H 0.43299 -0.31511 0.57267
 H81 H 0.43097 -0.35322 0.64311
 H82 H 0.51805 -0.30584 0.68203
 H83 H 0.51913 -0.26794 0.61191
 H84 H 0.43765 -0.21332 0.39323
 C85 C 1.24707 0.75666 0.53543
 C86 C 1.24707 0.75296 0.45729
 C87 C 1.27065 0.77120 0.40828
 C88 C 1.22312 0.73086 0.41782
 C89 C 1.22482 0.73624 0.58477
 C90 C 1.26888 0.78120 0.57388
 C91 C 1.26917 0.79013 0.35924
 C92 C 1.29205 0.80888 0.31743
 C93 C 1.31676 0.80848 0.32137
 C94 C 1.31762 0.78855 0.36905
 C95 C 1.29488 0.77036 0.41267
 C96 C 1.19825 0.73058 0.41871
 C97 C 1.17527 0.70918 0.38462
 C98 C 1.17670 0.68755 0.34905
 C99 C 1.20194 0.68838 0.34638
 C100 C 1.22497 0.70990 0.38036
 C101 C 1.22219 0.71059 0.59640
 C102 C 1.19970 0.69032 0.63629
 C103 C 1.17880 0.69496 0.66356
 C104 C 1.18228 0.72132 0.65373
 C105 C 1.20516 0.74173 0.61538
 C106 C 1.28435 0.77866 0.63310
 C107 C 1.30533 0.80181 0.66815
 C108 C 1.31137 0.82827 0.64530
 C109 C 1.29502 0.83038 0.58657
 C110 C 1.27407 0.80716 0.55182
 H111 H 1.25051 0.79095 0.35535
 H112 H 1.29018 0.82356 0.28137
 H113 H 1.33606 0.78763 0.37670
 H114 H 1.29625 0.75584 0.45079
 H115 H 1.19667 0.74697 0.44600
 H116 H 1.15657 0.70993 0.38539
 H117 H 1.24409 0.70992 0.37888
 H118 H 1.23733 0.70613 0.57309
 H119 H 1.19825 0.67062 0.64263
 H120 H 1.16782 0.72673 0.67645
 H121 H 1.20710 0.76158 0.60723
 H122 H 1.28047 0.75873 0.65138
 H123 H 1.31691 0.79871 0.71304
 H124 H 1.29783 0.84963 0.56635
 H125 H 1.26180 0.80946 0.50752
 H126 H 1.20382 0.67218 0.31902
 C127 C 0.76034 0.52319 0.54060
 C128 C 0.76291 0.52573 0.46189
 C129 C 0.78713 0.52808 0.42178
 C130 C 0.74110 0.52515 0.41313
 C131 C 0.73829 0.52480 0.58255
 C132 C 0.77904 0.51784 0.58732
 C133 C 0.81302 0.55025 0.43659
 C134 C 0.83603 0.55195 0.40108
 C135 C 0.83355 0.53140 0.35013
 C136 C 0.80738 0.50956 0.33414
 C137 C 0.78440 0.50797 0.36947
 C138 C 0.74612 0.54778 0.36768
 C139 C 0.72494 0.54797 0.32655
 C140 C 0.69854 0.52529 0.32917
 C141 C 0.69390 0.50225 0.37217
 C142 C 0.71496 0.50225 0.41422
 C143 C 0.72076 0.50376 0.63246
 C144 C 0.69921 0.50468 0.66909
 C145 C 0.69456 0.52675 0.65697
 C146 C 0.71308 0.54829 0.60842
 C147 C 0.73462 0.54728 0.57211
 C148 C 0.77609 0.49181 0.58848
 C149 C 0.79393 0.48666 0.63161
 C150 C 0.81562 0.50774 0.67329
 C151 C 0.81836 0.53394 0.67093
 C152 C 0.79999 0.53877 0.62960
 H153 H 0.81536 0.56626 0.47566
 H154 H 0.85559 0.56955 0.41302
 H155 H 0.80466 0.49342 0.29508
 H156 H 0.76453 0.49077 0.35724
 H157 H 0.76623 0.56555 0.36593
 H158 H 0.72921 0.56580 0.29264
 H159 H 0.71082 0.48453 0.44857
 H160 H 0.72335 0.48627 0.64172
 H161 H 0.68595 0.48764 0.70604
 H162 H 0.71158 0.56624 0.59766
 H163 H 0.74844 0.56408 0.53525
 H164 H 0.76000 0.47549 0.55551
 H165 H 0.79117 0.46641 0.62856
 H166 H 0.83452 0.55081 0.70208
 H167 H 0.80244 0.55899 0.62919
 H168 H 0.67379 0.48450 0.37502
 C169 C 0.52160 0.25760 0.54549
 C170 C 0.52168 0.25684 0.46619
 C171 C 0.52084 0.27820 0.41802
 C172 C 0.52277 0.23471 0.42312
 C173 C 0.52172 0.23588 0.59362
 C174 C 0.52176 0.28043 0.58801
 C175 C 0.49986 0.28432 0.42689
 C176 C 0.49940 0.30449 0.38117
 C177 C 0.51961 0.31868 0.32433
 C178 C 0.54002 0.31163 0.31370
 C179 C 0.54065 0.29172 0.36028
 C180 C 0.50118 0.21774 0.37427
 C181 C 0.50188 0.19691 0.33276
 C182 C 0.52449 0.19307 0.33780
 C183 C 0.54627 0.21030 0.38627
 C184 C 0.54537 0.23091 0.42879
 C185 C 0.54221 0.24256 0.64875
 C186 C 0.54305 0.22230 0.69319
 C187 C 0.52317 0.19459 0.68395
 C188 C 0.50233 0.18830 0.62892
 C189 C 0.50154 0.20865 0.58496
 C190 C 0.54528 0.30598 0.59056
 C191 C 0.54539 0.32736 0.63154
 C192 C 0.52166 0.32380 0.66982
 C193 C 0.49796 0.29802 0.66522
 C194 C 0.49822 0.27649 0.62631
 H195 H 0.48372 0.27337 0.46889
 H196 H 0.48313 0.30897 0.39065
 H197 H 0.55543 0.32105 0.26905
 H198 H 0.55669 0.28686 0.35134
 H199 H 0.48364 0.22047 0.36899
 H200 H 0.48483 0.18397 0.29587
 H201 H 0.56230 0.24398 0.46585
 H202 H 0.55797 0.26353 0.65641
 H203 H 0.55975 0.22894 0.73323
 H204 H 0.48635 0.16755 0.61939
 H205 H 0.48517 0.20310 0.54381
 H206 H 0.56359 0.30932 0.56084
 H207 H 0.56392 0.34679 0.62997
 H208 H 0.47925 0.29413 0.69352
 H209 H 0.47987 0.25681 0.62486
 H210 H 0.56376 0.20755 0.39238
 C211 C 0.74969 0.25108 0.53983
 C212 C 0.74909 0.25164 0.46051
 C213 C 0.72582 0.23077 0.41517
 C214 C 0.77252 0.27271 0.41538
 C215 C 0.77430 0.27052 0.58319
 C216 C 0.72631 0.23077 0.58681
 C217 C 0.71628 0.20300 0.42740
 C218 C 0.69429 0.18351 0.38499
 C219 C 0.68156 0.19124 0.32797
 C220 C 0.69180 0.21921 0.31425
 C221 C 0.71366 0.23871 0.35755
 C222 C 0.78832 0.26528 0.36960
 C223 C 0.81158 0.28518 0.33133
 C224 C 0.81910 0.31278 0.33700
 C225 C 0.80271 0.32005 0.38086
 C226 C 0.77973 0.30020 0.42035
 C227 C 0.77300 0.28871 0.63549
 C228 C 0.79647 0.30830 0.67268
 C229 C 0.82201 0.31024 0.65864
 C230 C 0.82269 0.29086 0.60808
 C231 C 0.79912 0.27128 0.57124
 C232 C 0.70072 0.22897 0.58274
 C233 C 0.67873 0.20908 0.62568
 C234 C 0.68197 0.19056 0.67288
 C235 C 0.70768 0.19263 0.67719
 C236 C 0.72971 0.21275 0.63533
 H237 H 0.72591 0.19637 0.46972
 H238 H 0.68730 0.16228 0.39706
 H239 H 0.68341 0.22631 0.26962
 H240 H 0.72106 0.26009 0.34624
 H241 H 0.78298 0.24413 0.36516
 H242 H 0.82356 0.27895 0.29677
 H243 H 0.76768 0.30623 0.45533
 H244 H 0.75389 0.28821 0.64597
 H245 H 0.79445 0.32228 0.71136
 H246 H 0.84105 0.29030 0.59578
 H247 H 0.80030 0.25684 0.53242
 H248 H 0.69778 0.24281 0.54585
 H249 H 0.65907 0.20774 0.62034
 H250 H 0.71077 0.17869 0.71321
 H251 H 0.74930 0.21385 0.63925
 H252 H 0.80802 0.34118 0.38594
 O253 O 1.04151 0.56080 0.13234
 O254 O 1.06919 0.55179 0.05507
 C255 C 1.06528 0.56513 0.11015
 O256 O 0.95850 0.44060 0.12818
 O257 O 0.93075 0.45180 0.05947
 C258 C 0.93470 0.43703 0.10974
 O259 O 1.03560 0.47665 0.13258
 O260 O 1.06635 0.51152 0.05504
 C261 C 1.06035 0.49396 0.11060
 O262 O 0.96543 0.53021 0.12644
 O263 O 0.93398 0.49398 0.05528
 C264 C 0.94058 0.51327 0.10546
 Zr265 Zr 1.00255 0.53308 0.08795
 O266 O 1.00094 0.53397 0.21097
 O267 O 1.00677 0.57215 0.07677
 Zr268 Zr 0.99774 0.47108 0.08989
 O269 O 0.99758 0.47378 0.21262
 O270 O 0.99355 0.43179 0.09540
 O271 O 1.02432 0.51259 0.10268
 O272 O 0.97658 0.49187 0.10392
 O273 O 0.96543 0.53058 -0.14259
 O274 O 0.93364 0.49323 -0.07459
 C275 C 0.94055 0.51324 -0.12305
 O276 O 1.03373 0.47458 -0.15089
 O277 O 1.06583 0.51049 -0.08000
 C278 C 1.05873 0.49164 -0.13222
 O279 O 0.95758 0.43951 -0.14038
 O280 O 0.93008 0.45082 -0.07046
 C281 C 0.93385 0.43564 -0.11953
 O282 O 1.04110 0.56102 -0.15335
 O283 O 1.06910 0.55095 -0.08166
 C284 C 1.06491 0.56480 -0.13452
 Zr285 Zr 1.00220 0.53274 -0.10818
 O286 O 0.99936 0.53257 -0.23109
 O287 O 1.00663 0.57195 -0.09929
 Zr288 Zr 0.99691 0.47045 -0.10723
 O289 O 0.99358 0.46941 -0.23017
 O290 O 0.99596 0.43266 -0.10751
 Zr291 Zr 1.04012 0.51917 -0.01167
 Zr292 Zr 0.95959 0.48435 -0.00826
 O293 O 0.97601 0.49140 -0.12145
 O294 O 1.02357 0.51191 -0.12450
 O295 O 0.97852 0.52708 -0.00942
 O296 O 1.02056 0.47647 -0.00963
 O297 O 1.02654 0.54757 -0.01102
 O298 O 0.97285 0.45560 -0.00755
 H299 H 0.96449 0.48682 0.15016
 H300 H 1.03197 0.46775 -0.00986
 H301 H 0.96355 0.48591 -0.16660
 H302 H 1.04012 0.56724 -0.01157
 H303 H 1.00882 0.43212 0.06647
 H304 H 0.98511 0.42234 -0.06158
 H305 H 1.01017 0.48531 -0.25111
 H306 H 1.01200 0.52682 -0.25189
 H307 H 1.00708 0.57827 -0.15344
 H308 H 1.00754 0.57877 0.13061
 H309 H 1.00983 0.52390 0.23061
 H310 H 0.99605 0.45667 0.23272
 O311 O 0.43868 0.47350 0.15295
 O312 O 0.44345 0.50891 0.07634
 C313 C 0.43208 0.49156 0.13275
 O314 O 0.56038 0.51858 0.13473
 O315 O 0.55143 0.48009 0.06732
 C316 C 0.56581 0.49960 0.11543
 O317 O 0.51941 0.55376 0.14993
 O318 O 0.48318 0.54832 0.07703
 C319 C 0.50106 0.56013 0.13153
 O320 O 0.47300 0.43178 0.13880
 O321 O 0.51058 0.43956 0.06756
 C322 C 0.49154 0.42588 0.11827
 Zr323 Zr 0.46743 0.46442 0.10282
 O324 O 0.46689 0.46077 0.22557
 O325 O 0.42953 0.42834 0.09197
 Zr326 Zr 0.52688 0.52353 0.10359
 O327 O 0.52429 0.51870 0.22598
 O328 O 0.56316 0.56126 0.11447
 O329 O 0.48514 0.50623 0.11943
 O330 O 0.50907 0.48196 0.11647
 O331 O 0.47281 0.43272 -0.13190
 O332 O 0.51105 0.44058 -0.06488
 C333 C 0.49183 0.42710 -0.11458
 O334 O 0.51953 0.55559 -0.13485
 O335 O 0.48279 0.54870 -0.06115
 C336 C 0.50095 0.56144 -0.11476
 O337 O 0.55895 0.51885 -0.13247
 O338 O 0.55137 0.48098 -0.06373
 C339 C 0.56499 0.50031 -0.11345
 O340 O 0.43699 0.47356 -0.13653
 O341 O 0.44372 0.50976 -0.06093
 C342 C 0.43127 0.49222 -0.11573
 Zr343 Zr 0.46694 0.46500 -0.09235
 O344 O 0.46579 0.46204 -0.21524
 O345 O 0.42933 0.42860 -0.08001
 Zr346 Zr 0.52667 0.52455 -0.09315
 O347 O 0.52738 0.52308 -0.21638
 O348 O 0.56256 0.56305 -0.09358
 Zr349 Zr 0.47684 0.51513 0.00688
 Zr350 Zr 0.51738 0.47407 0.00305
 O351 O 0.50854 0.48300 -0.10848
 O352 O 0.48477 0.50707 -0.10719
 O353 O 0.47493 0.44790 0.00408
 O354 O 0.51935 0.54040 0.00646
 O355 O 0.45100 0.47270 0.00648
 O356 O 0.54358 0.51657 0.00389
 H357 H 0.51534 0.47562 0.16155
 H358 H 0.52706 0.56039 0.00725
 H359 H 0.51453 0.47711 -0.15521
 H360 H 0.43107 0.46541 0.00741
 H361 H 0.56923 0.56820 0.06112
 H362 H 0.57659 0.56125 -0.06421
 H363 H 0.51069 0.52252 -0.23574
 H364 H 0.47273 0.48064 -0.23586
 H365 H 0.42275 0.42247 -0.13364
 H366 H 0.42311 0.42212 0.14586
 H367 H 0.47602 0.47947 0.24664
 H368 H 0.54087 0.53448 0.24709
 O369 O 0.47942 0.03635 0.13890
 O370 O 0.51711 0.06593 0.06791
 C371 C 0.49848 0.06066 0.12013
 O372 O 0.52453 -0.04112 0.14394
 O373 O 0.48691 -0.07098 0.07454
 C374 C 0.50568 -0.06554 0.12573
 O375 O 0.56106 0.03475 0.14826
 O376 O 0.55609 0.06527 0.07178
 C377 C 0.56783 0.05933 0.12720
 O378 O 0.43802 -0.03943 0.13101
 O379 O 0.44672 -0.07025 0.06915
 C380 C 0.43223 -0.06410 0.11445
 Zr381 Zr 0.47154 -0.00184 0.09589
 O382 O 0.46737 -0.00384 0.21864
 O383 O 0.43563 0.00022 0.08005
 Zr384 Zr 0.53037 -0.00299 0.10570
 O385 O 0.52460 -0.00333 0.22745
 O386 O 0.56723 -0.00323 0.12231
 O387 O 0.51326 0.02195 0.11511
 O388 O 0.48865 -0.02611 0.11630
 O389 O 0.44186 -0.04056 -0.13774
 O390 O 0.44820 -0.07049 -0.06277
 C391 C 0.43535 -0.06503 -0.11567
 O392 O 0.56446 0.03388 -0.13450
 O393 O 0.55749 0.06472 -0.06641
 C394 C 0.57044 0.05857 -0.11758
 O395 O 0.52723 -0.04216 -0.12461
 O396 O 0.48852 -0.07151 -0.05726
 C397 C 0.50812 -0.06643 -0.10562
 O398 O 0.48334 0.03544 -0.14782
 O399 O 0.51868 0.06557 -0.07137
 C400 C 0.50153 0.05993 -0.12786
 Zr401 Zr 0.47404 -0.00257 -0.09906
 O402 O 0.47235 -0.00546 -0.22199
 O403 O 0.43778 -0.00065 -0.09293
 Zr404 Zr 0.53313 -0.00369 -0.09042
 O405 O 0.53315 -0.00705 -0.21328
 O406 O 0.57132 -0.00185 -0.08397
 Zr407 Zr 0.52330 0.03809 0.00132
 Zr408 Zr 0.48163 -0.04341 0.00462
 O409 O 0.49171 -0.02676 -0.10833
 O410 O 0.51619 0.02104 -0.11122
 O411 O 0.45586 -0.02658 -0.00131
 O412 O 0.54824 0.02037 0.00726
 O413 O 0.48097 0.02198 -0.00313
 O414 O 0.52402 -0.02769 0.00926
 H415 H 0.48175 -0.03822 0.16252
 H416 H 0.56823 0.03243 0.00835
 H417 H 0.48603 -0.03904 -0.15396
 H418 H 0.47379 0.03473 -0.00545
 H419 H 0.57720 0.00210 0.07227
 H420 H 0.56902 -0.01704 -0.05016
 H421 H 0.53205 0.00847 -0.23568
 H422 H 0.49105 0.00632 -0.24170
 H423 H 0.43233 -0.00036 -0.14756
 H424 H 0.42883 0.00065 0.13299
 H425 H 0.48581 0.00746 0.24032
 H426 H 0.54001 -0.00424 0.25139
 C427 C 1.12752 0.49591 0.22394
 C428 C 1.10102 0.47560 0.24241
 N429 N 1.09724 0.45665 0.29686
 C430 C 1.11869 0.45698 0.33361
 C431 C 1.14575 0.47751 0.31535
 N432 N 1.14885 0.49634 0.26049
 N433 N 1.13164 0.51494 0.16960
 C434 C 1.11037 0.51460 0.13257
 C435 C 1.08355 0.49425 0.15064
 N436 N 1.07954 0.47516 0.20563
 H437 H 1.11400 0.44137 0.37654
 H438 H 1.11449 0.53021 0.08964
 C439 C 0.49828 0.62237 0.26008
 C440 C 0.48132 0.61057 0.19563
 N441 N 0.46380 0.61921 0.17456
 C442 C 0.46230 0.63900 0.21538
 C443 C 0.47902 0.65070 0.28104
 N444 N 0.49672 0.64201 0.30103
 N445 N 0.51602 0.61398 0.28085
 C446 C 0.51754 0.59422 0.24015
 C447 C 0.50042 0.58213 0.17568
 N448 N 0.48269 0.59070 0.15507
 H449 H 0.44851 0.64570 0.19555
 H450 H 0.53182 0.58789 0.25846
 C451 C 0.36231 -0.12790 0.22057
 C452 C 0.38507 -0.13071 0.20514
 N453 N 0.38489 -0.15379 0.22738
 C454 C 0.36307 -0.17413 0.26516
 C455 C 0.33993 -0.17152 0.28088
 N456 N 0.34039 -0.14832 0.25690
 N457 N 0.36269 -0.10451 0.20087
 C458 C 0.38497 -0.08367 0.16657
 C459 C 0.40775 -0.08649 0.15019
 N460 N 0.40719 -0.11010 0.16956
 H461 H 0.36380 -0.19227 0.28014
 H462 H 0.38481 -0.06517 0.15167
 C463 C 0.87513 0.51748 0.20962
 C464 C 0.90128 0.53181 0.24163
 N465 N 0.90512 0.54613 0.30826
 C466 C 0.88401 0.54677 0.34434
 C467 C 0.85766 0.53237 0.31232
 N468 N 0.85413 0.51810 0.24549
 N469 N 0.87099 0.50275 0.14390
 C470 C 0.89182 0.50147 0.10884
 C471 C 0.91810 0.51558 0.14092
 N472 N 0.92222 0.53060 0.20663
 H473 H 0.88781 0.55784 0.39832
 H474 H 0.88778 0.48943 0.05654
 C475 C 0.49373 0.36158 0.23641
 C476 C 0.51625 0.38079 0.19360
 N477 N 0.53952 0.37953 0.19338
 C478 C 0.54136 0.35988 0.23396
 C479 C 0.51873 0.34030 0.27692
 N480 N 0.49549 0.34190 0.27664
 N481 N 0.47066 0.36324 0.23846
 C482 C 0.46915 0.38344 0.19994
 C483 C 0.49174 0.40283 0.15710
 N484 N 0.51475 0.40088 0.15482
 H485 H 0.56057 0.36022 0.23365
 H486 H 0.45057 0.38440 0.20309
 C487 C 0.63318 0.12317 0.24764
 C488 C 0.61579 0.12840 0.20211
 N489 N 0.61985 0.15410 0.19837
 C490 C 0.64061 0.17484 0.23775
 C491 C 0.65842 0.16975 0.28293
 N492 N 0.65391 0.14381 0.28634
 N493 N 0.62903 0.09753 0.25301
 C494 C 0.60816 0.07672 0.21485
 C495 C 0.59065 0.08176 0.16862
 N496 N 0.59497 0.10764 0.16325
 H497 H 0.64267 0.19481 0.23431
 H498 H 0.60542 0.05647 0.22029
 C499 C 0.50371 0.12558 -0.25156
 C500 C 0.52260 0.13027 -0.19287
 N501 N 0.54157 0.15617 -0.17525
 C502 C 0.54259 0.17771 -0.21363
 C503 C 0.52353 0.17327 -0.27318
 N504 N 0.50462 0.14697 -0.28970
 N505 N 0.48467 0.09972 -0.26955
 C506 C 0.48363 0.07823 -0.23114
 C507 C 0.50248 0.08279 -0.17167
 N508 N 0.52158 0.10885 -0.15410
 H509 H 0.55803 0.19773 -0.19609
 H510 H 0.46814 0.05785 -0.24672
 C511 C 0.63369 0.50391 -0.22193
 C512 C 0.62671 0.52401 -0.23580
 N513 N 0.64222 0.54490 -0.28466
 C514 C 0.66450 0.54673 -0.32048
 C515 C 0.67185 0.52651 -0.30706
 N516 N 0.65584 0.50563 -0.25767
 N517 N 0.61821 0.48294 -0.17305
 C518 C 0.59596 0.48120 -0.13727
 C519 C 0.58883 0.50135 -0.15115
 N520 N 0.60450 0.52231 -0.20034
 H521 H 0.67567 0.56369 -0.35932
 H522 H 0.58399 0.46423 -0.09859
 C523 C 0.86480 0.36964 -0.22105
 C524 C 0.89094 0.37416 -0.23715
 N525 N 0.89411 0.35731 -0.28655
 C526 C 0.87234 0.33610 -0.32104
 C527 C 0.84571 0.33138 -0.30581
 N528 N 0.84308 0.34862 -0.25557
 N529 N 0.86151 0.38648 -0.17170
 C530 C 0.88331 0.40778 -0.13778
 C531 C 0.90969 0.41255 -0.15422
 N532 N 0.91278 0.39547 -0.20366
 H533 H 0.87641 0.32376 -0.36039
 H534 H 0.88003 0.42088 -0.09880
 C535 C 0.50602 -0.13289 -0.22344
 C536 C 0.48336 -0.13604 -0.18154
 N537 N 0.45998 -0.16035 -0.18235
 C538 C 0.45819 -0.18175 -0.22306
 C539 C 0.48095 -0.17884 -0.26513
 N540 N 0.50430 -0.15424 -0.26394
 N541 N 0.52922 -0.10839 -0.22432
 C542 C 0.53071 -0.08676 -0.18562
 C543 C 0.50796 -0.08977 -0.14387
 N544 N 0.48482 -0.11451 -0.14269
 H545 H 0.43892 -0.20046 -0.22374
 H546 H 0.54941 -0.06740 -0.18795
 C547 C 0.36749 0.49601 -0.23158
 C548 C 0.37069 0.47313 -0.23920
 N549 N 0.35274 0.45183 -0.28288
 C550 C 0.33178 0.45239 -0.31971
 C551 C 0.32859 0.47550 -0.31308
 N552 N 0.34672 0.49666 -0.26857
 N553 N 0.38507 0.51717 -0.18691
 C554 C 0.40574 0.51647 -0.14913
 C555 C 0.40913 0.49357 -0.15659
 N556 N 0.39145 0.47243 -0.20189
 H557 H 0.31768 0.43471 -0.35235
 H558 H 0.41945 0.53370 -0.11401
 C559 C 1.13378 0.62940 -0.24295
 C560 C 1.10964 0.63025 -0.23429
 N561 N 1.10867 0.65251 -0.25874
 C562 C 1.13078 0.67411 -0.29128
 C563 C 1.15527 0.67345 -0.30104
 N564 N 1.15573 0.65072 -0.27661
 N565 N 1.13502 0.60741 -0.21674
 C566 C 1.11312 0.58622 -0.18192
 C567 C 1.08875 0.58688 -0.17394
 N568 N 1.08763 0.60894 -0.20071
 H569 H 1.12852 0.69091 -0.31164
 H570 H 1.11468 0.56900 -0.16113
 C571 C 0.87901 0.52298 -0.23017
 C572 C 0.87422 0.49707 -0.20889
 N573 N 0.84993 0.47496 -0.22585
 C574 C 0.83027 0.47749 -0.26393
 C575 C 0.83490 0.50358 -0.28571
 N576 N 0.85931 0.52558 -0.26693
 N577 N 0.90354 0.54512 -0.21558
 C578 C 0.92363 0.54250 -0.18089
 C579 C 0.91887 0.51657 -0.15885
 N580 N 0.89411 0.49441 -0.17301
 H581 H 0.81112 0.45925 -0.27443
 H582 H 0.94307 0.56049 -0.17023
 C583 C 0.49480 0.36341 -0.23416
 C584 C 0.51858 0.38615 -0.20784
 N585 N 0.54301 0.38811 -0.22250
 C586 C 0.54489 0.36844 -0.26273
 C587 C 0.52102 0.34517 -0.28895
 N588 N 0.49656 0.34344 -0.27290
 N589 N 0.47038 0.36185 -0.22152
 C590 C 0.46870 0.38207 -0.18360
 C591 C 0.49250 0.40467 -0.15578
 N592 N 0.51689 0.40605 -0.16861
 H593 H 0.56483 0.37077 -0.27084
 H594 H 0.44900 0.38037 -0.17443
 C595 C 0.63612 0.12279 -0.23905
 C596 C 0.61617 0.12687 -0.20305
 N597 N 0.61779 0.15155 -0.20876
 C598 C 0.63847 0.17236 -0.24883
 C599 C 0.65870 0.16844 -0.28431
 N600 N 0.65692 0.14362 -0.27811
 N601 N 0.63431 0.09803 -0.23483
 C602 C 0.61340 0.07706 -0.19623
 C603 C 0.59346 0.08105 -0.15926
 N604 N 0.59542 0.10601 -0.16354
 H605 H 0.63937 0.19187 -0.25165
 H606 H 0.61251 0.05754 -0.19394
 C607 C 1.12066 0.48353 -0.24490
 C608 C 1.12667 0.50783 -0.20710
 N609 N 1.15258 0.52899 -0.20792
 C610 C 1.17275 0.52697 -0.24514
 C611 C 1.16678 0.50256 -0.28262
 N612 N 1.14080 0.48140 -0.28115
 N613 N 1.09472 0.46256 -0.24577
 C614 C 1.07441 0.46475 -0.21051
 C615 C 1.08032 0.48895 -0.17183
 N616 N 1.10645 0.50994 -0.17091
 H617 H 1.19323 0.54413 -0.24488
 H618 H 1.05391 0.44762 -0.21199
 C619 C 0.49921 0.62559 -0.23531
 C620 C 0.47534 0.60404 -0.20398
 N621 N 0.45136 0.60348 -0.21453
 C622 C 0.45006 0.62341 -0.25537
 C623 C 0.47409 0.64545 -0.28676
 N624 N 0.49804 0.64572 -0.27482
 N625 N 0.52315 0.62590 -0.22669
 C626 C 0.52428 0.60551 -0.18813
 C627 C 0.50044 0.58400 -0.15570
 N628 N 0.47647 0.58387 -0.16426
 H629 H 0.43052 0.62222 -0.26020
 H630 H 0.54364 0.60622 -0.18227
 C631 C 0.36889 -0.13156 -0.22529
 C632 C 0.37651 -0.10481 -0.24626
 N633 N 0.36249 -0.10035 -0.30267
 C634 C 0.34116 -0.12138 -0.33932
 C635 C 0.33322 -0.14861 -0.31878
 N636 N 0.34768 -0.15254 -0.26173
 N637 N 0.38284 -0.13620 -0.16902
 C638 C 0.40420 -0.11520 -0.13267
 C639 C 0.41205 -0.08821 -0.15357
 N640 N 0.39788 -0.08374 -0.21014
 H641 H 0.33107 -0.11630 -0.38382
 H642 H 0.41492 -0.11961 -0.08809
 C643 C 0.50299 -0.13166 0.24794
 C644 C 0.47966 -0.13417 0.21200
 N645 N 0.45575 -0.15789 0.21841
 C646 C 0.45409 -0.17928 0.25921
 C647 C 0.47750 -0.17697 0.29469
 N648 N 0.50144 -0.15311 0.28775
 N649 N 0.52677 -0.10775 0.24308
 C650 C 0.52829 -0.08614 0.20396
 C651 C 0.50503 -0.08863 0.16715
 N652 N 0.48124 -0.11272 0.17204
 H653 H 0.43482 -0.19803 0.26266
 H654 H 0.54749 -0.06728 0.20126
 C655 C 0.36893 0.49294 0.25986
 C656 C 0.37202 0.49872 0.17967
 N657 N 0.35388 0.50379 0.14243
 C658 C 0.33275 0.50331 0.18181
 C659 C 0.32991 0.49796 0.26227
 N660 N 0.34819 0.49298 0.29934
 N661 N 0.38637 0.48683 0.29668
 C662 C 0.40681 0.48617 0.25693
 C663 C 0.41025 0.49232 0.17692
 N664 N 0.39278 0.49859 0.14017
 H665 H 0.31847 0.50733 0.15095
 H666 H 0.42043 0.48118 0.28764
 C667 C 1.13401 0.62898 0.21989
 C668 C 1.10761 0.62174 0.24424
 N669 N 1.10407 0.63560 0.30319
 C670 C 1.12574 0.65663 0.33849
 C671 C 1.15236 0.66442 0.31331
 N672 N 1.15567 0.65006 0.25476
 N673 N 1.13758 0.61497 0.16135
 C674 C 1.11588 0.59409 0.12563
 C675 C 1.08932 0.58696 0.14922
 N676 N 1.08593 0.60101 0.20837
 H677 H 1.12206 0.66678 0.38631
 H678 H 1.11939 0.58340 0.07886
 C679 C 0.49992 0.12588 0.24361
 C680 C 0.52373 0.12876 0.20935
 N681 N 0.54751 0.15245 0.21821
 C682 C 0.54855 0.17340 0.25981
 C683 C 0.52464 0.17067 0.29367
 N684 N 0.50088 0.14686 0.28423
 N685 N 0.47622 0.10208 0.23633
 C686 C 0.47522 0.08090 0.19650
 C687 C 0.49896 0.08367 0.16149
 N688 N 0.52272 0.10770 0.16863
 H689 H 0.56774 0.19213 0.26504
 H690 H 0.45603 0.06212 0.19194
 C691 C 0.63417 0.50128 0.21953
 C692 C 0.63143 0.52457 0.21860
 N693 N 0.65091 0.54785 0.25180
 C694 C 0.67300 0.54889 0.28621
 C695 C 0.67564 0.52546 0.28838
 N696 N 0.65599 0.50218 0.25488
 N697 N 0.61488 0.47809 0.18552
 C698 C 0.59287 0.47707 0.15077
 C699 C 0.58977 0.50023 0.15082
 N700 N 0.60924 0.52347 0.18494
 H701 H 0.68794 0.56761 0.31338
 H702 H 0.57776 0.45823 0.12442
 C703 C 0.86505 0.37521 0.22448
 C704 C 0.88936 0.37431 0.22266
 N705 N 0.89029 0.35325 0.25754
 C706 C 0.86800 0.33305 0.29409
 C707 C 0.84366 0.33404 0.29668
 N708 N 0.84294 0.35528 0.26182
 N709 N 0.86386 0.39592 0.18855
 C710 C 0.88590 0.41585 0.15078
 C711 C 0.91047 0.41528 0.14945
 N712 N 0.91158 0.39444 0.18581
 H713 H 0.86943 0.31667 0.32200
 H714 H 0.88431 0.43216 0.12294
   
