data_POSCAR
  _audit_creation_date              2014-09-24
  _audit_creation_method            'ToBaCCo'
  _symmetry_space_group_name_H-M    'P1'
  _symmetry_Int_Tables_number       1
  _symmetry_cell_setting            triclinic
  loop_
  _symmetry_equiv_pos_as_xyz
 x,y,z
_cell_length_a 28.5377
_cell_length_b 28.7865
_cell_length_c 31.4385
_cell_angle_alpha 90.421500
_cell_angle_beta 88.914400
_cell_angle_gamma 119.442800
loop_
  _atom_site_label
  _atom_site_type_symbol
  _atom_site_fract_x
  _atom_site_fract_y
  _atom_site_fract_z
C1 C 0.00410 0.49915 1.36533
 C2 C 0.05265 0.52363 1.34207
 C3 C 0.05113 0.51841 1.29759
 C4 C 0.00171 0.48814 1.27626
 C5 C -0.04544 0.45839 1.30159
 C6 C -0.04500 0.46535 1.34596
 C7 C -0.00139 0.49215 1.22850
 C8 C -0.05113 0.47643 1.20854
 C9 C -0.05323 0.48686 1.16532
 C10 C -0.00549 0.51529 1.14173
 C11 C 0.04395 0.52899 1.15986
 C12 C 0.04570 0.51576 1.20245
 H13 H 0.00500 0.50380 1.39957
 H14 H 0.08848 0.54123 1.28022
 H15 H -0.08324 0.43145 1.28714
 H16 H -0.08887 0.45728 1.22596
 H17 H -0.00706 0.52358 1.10835
 H18 H 0.08444 0.52526 1.21473
 C19 C 0.52917 0.52457 1.36081
 C20 C 0.49045 0.53528 1.34359
 C21 C 0.47290 0.51802 1.30195
 C22 C 0.49626 0.49389 1.27629
 C23 C 0.53085 0.47886 1.29641
 C24 C 0.54625 0.49266 1.33895
 C25 C 0.48792 0.48849 1.22862
 C26 C 0.50633 0.45954 1.20311
 C27 C 0.50903 0.46414 1.15858
 C28 C 0.48960 0.49441 1.13881
 C29 C 0.46698 0.51958 1.16277
 C30 C 0.46679 0.51731 1.20724
 H31 H 0.54186 0.53652 1.39322
 H32 H 0.44198 0.52507 1.28955
 H33 H 0.54801 0.45813 1.27922
 H34 H 0.52111 0.43520 1.21701
 H35 H 0.49140 0.49781 1.10440
 H36 H 0.45273 0.54094 1.22416
 C37 C 0.51595 0.99656 1.36167
 C38 C 0.49245 0.94842 1.33954
 C39 C 0.48602 0.94842 1.29560
 C40 C 0.49961 0.99614 1.27354
 C41 C 0.51821 1.04366 1.29757
 C42 C 0.52837 1.04466 1.34132
 C43 C 0.49417 0.99641 1.22602
 C44 C 0.52250 1.04431 1.20242
 C45 C 0.51487 1.04541 1.15863
 C46 C 0.48146 0.99789 1.13734
 C47 C 0.45657 0.94933 1.15919
 C48 C 0.46154 0.94884 1.20340
 H49 H 0.52093 0.99562 1.39569
 H50 H 0.47092 0.91074 1.27936
 H51 H 0.52556 1.08026 1.28248
 H52 H 0.55040 1.08125 1.21757
 H53 H 0.47723 0.99836 1.10316
 H54 H 0.43899 0.91093 1.21941
 C55 C 0.99313 0.49889 0.63444
 C56 C 0.94633 0.47290 0.65934
 C57 C 0.94956 0.47557 0.70364
 C58 C 0.99950 0.50630 0.72393
 C59 C 1.04565 0.53651 0.69773
 C60 C 1.04333 0.53126 0.65304
 C61 C 1.00375 0.50305 0.77156
 C62 C 1.05375 0.51862 0.79098
 C63 C 1.05643 0.50952 0.83443
 C64 C 1.00900 0.48239 0.85867
 C65 C 0.95944 0.46896 0.84091
 C66 C 0.95722 0.48109 0.79817
 H67 H 0.98970 0.49503 0.60015
 H68 H 0.91282 0.45128 0.72140
 H69 H 1.08404 0.56270 0.71172
 H70 H 1.09110 0.53684 0.77298
 H71 H 1.01097 0.47507 0.89220
 H72 H 0.91850 0.47219 0.78617
 C73 C 0.47210 0.47958 0.63924
 C74 C 0.50955 0.46759 0.65674
 C75 C 0.52554 0.48182 0.69890
 C76 C 0.50156 0.50465 0.72528
 C77 C 0.46564 0.51857 0.70608
 C78 C 0.45212 0.50740 0.66312
 C79 C 0.51159 0.51091 0.77253
 C80 C 0.49498 0.54116 0.79813
 C81 C 0.49487 0.53839 0.84266
 C82 C 0.51543 0.50894 0.86215
 C83 C 0.53621 0.48245 0.83776
 C84 C 0.53346 0.48252 0.79341
 H85 H 0.46169 0.47084 0.60603
 H86 H 0.55630 0.47401 0.71060
 H87 H 0.44687 0.53740 0.72384
 H88 H 0.47966 0.56511 0.78432
 H89 H 0.51556 0.50686 0.89659
 H90 H 0.54599 0.45778 0.77626
 C91 C 0.47938 0.00260 0.63847
 C92 C 0.50341 0.05093 0.66036
 C93 C 0.50983 0.05104 0.70436
 C94 C 0.49580 0.00331 0.72672
 C95 C 0.47651 -0.04445 0.70287
 C96 C 0.46646 -0.04557 0.65903
 C97 C 0.50221 0.00346 0.77430
 C98 C 0.47419 -0.04411 0.79854
 C99 C 0.48346 -0.04502 0.84236
 C100 C 0.51856 0.00326 0.86251
 C101 C 0.54248 0.05146 0.84020
 C102 C 0.53582 0.05128 0.79624
 H103 H 0.47443 0.00339 0.60443
 H104 H 0.52532 0.08887 0.72039
 H105 H 0.46870 -0.08111 0.71814
 H106 H 0.44548 -0.08082 0.78357
 H107 H 0.52466 0.00423 0.89651
 H108 H 0.55794 0.08896 0.77986
 O109 O 0.41740 0.67398 0.95539
 O110 O 0.41460 0.76365 0.96752
 C111 C 0.38426 0.76995 0.94220
 O112 O 0.33381 0.73998 0.94273
 O113 O 0.24398 0.65070 0.95350
 C114 C 0.23675 0.60636 0.93911
 O115 O 0.26090 0.58263 0.95292
 O116 O 0.35394 0.59001 0.97122
 C117 C 0.39561 0.62372 0.95035
 O118 O 0.41449 0.66004 1.03931
 O119 O 0.40178 0.74434 1.05077
 C120 C 0.37492 0.76888 1.05280
 O121 O 0.33673 0.75981 1.02764
 O122 O 0.24688 0.66840 1.03766
 C123 C 0.22588 0.62025 1.04998
 O124 O 0.24035 0.58766 1.03604
 O125 O 0.33205 0.59575 1.05491
 C126 C 0.38208 0.61978 1.06100
 Cr127 Cr 0.40906 0.70890 1.00308
 Cr128 Cr 0.29194 0.70336 0.99073
 Cr129 Cr 0.29822 0.59199 1.00350
 O130 O 0.33256 0.66777 0.99899
 O131 O 0.58889 0.34261 0.96048
 O132 O 0.59941 0.25722 0.94904
 C133 C 0.62587 0.23230 0.94649
 O134 O 0.66432 0.24106 0.97122
 O135 O 0.75483 0.33190 0.96173
 C136 C 0.77667 0.38029 0.94995
 O137 O 0.76272 0.41319 0.96413
 O138 O 0.67164 0.40711 0.94578
 C139 C 0.62168 0.38310 0.93923
 O140 O 0.58543 0.32875 1.04448
 O141 O 0.58673 0.23868 1.03252
 C142 C 0.61682 0.23144 1.05740
 O143 O 0.66748 0.25979 1.05609
 O144 O 0.75796 0.34855 1.04596
 C145 C 0.76604 0.39301 1.06073
 O146 O 0.74251 0.41755 1.04737
 O147 O 0.65026 0.41237 1.02962
 C148 C 0.60812 0.37894 1.05015
 Cr149 Cr 0.59319 0.29340 0.99677
 Cr150 Cr 0.70956 0.29677 1.00841
 Cr151 Cr 0.70530 0.40952 0.99696
 O152 O 0.66981 0.33350 1.00081
 O153 O 0.65174 0.41045 0.53588
 O154 O 0.73386 0.39961 0.55525
 C155 C 0.75999 0.37530 0.56039
 O156 O 0.75230 0.33579 0.53778
 O157 O 0.65499 0.25265 0.54907
 C158 C 0.60376 0.22915 0.55112
 O159 O 0.57521 0.23870 0.52551
 O160 O 0.57721 0.33046 0.53583
 C161 C 0.60422 0.37821 0.54873
 O162 O 0.67902 0.41742 0.45318
 O163 O 0.76308 0.40734 0.47178
 C164 C 0.77039 0.37379 0.44992
 O165 O 0.74123 0.32344 0.45380
 O166 O 0.64882 0.23444 0.46595
 C167 C 0.61313 0.22939 0.44030
 O168 O 0.59361 0.26034 0.44055
 O169 O 0.59397 0.35038 0.45209
 C170 C 0.63162 0.39510 0.43895
 Cr171 Cr 0.70538 0.40580 0.50371
 Cr172 Cr 0.69798 0.28818 0.50149
 Cr173 Cr 0.58789 0.29620 0.48882
 O174 O 0.66349 0.33041 0.49791
 O175 O 0.32088 0.58153 0.54410
 O176 O 0.23562 0.59040 0.52593
 C177 C 0.22743 0.62314 0.54829
 O178 O 0.25616 0.67366 0.54522
 O179 O 0.34750 0.76435 0.53370
 C180 C 0.38319 0.76986 0.55951
 O181 O 0.40335 0.73947 0.55918
 O182 O 0.40473 0.65066 0.54720
 C183 C 0.36771 0.60518 0.55958
 O184 O 0.34898 0.59121 0.46132
 O185 O 0.26639 0.60095 0.44221
 C186 C 0.23879 0.62385 0.43822
 O187 O 0.24539 0.66235 0.46157
 O188 O 0.34203 0.74676 0.45058
 C189 C 0.39328 0.77076 0.44861
 O190 O 0.42223 0.76188 0.47430
 O191 O 0.42284 0.67158 0.46368
 C192 C 0.39665 0.62438 0.44952
 Cr193 Cr 0.29442 0.59388 0.49377
 Cr194 Cr 0.29920 0.71027 0.49788
 Cr195 Cr 0.41041 0.70461 0.51071
 O196 O 0.33499 0.66921 0.50099
 N197 N 0.42190 0.55965 0.35760
 C198 C 0.46854 0.56112 0.36849
 N199 N 0.49245 0.58635 0.40515
 N200 N 0.47062 0.60856 0.42997
 C201 C 0.42353 0.60583 0.41946
 N202 N 0.39943 0.58091 0.38290
 N203 N 0.49643 0.89375 0.39736
 C204 C 0.46982 0.89818 0.36367
 N205 N 0.41860 0.85894 0.35676
 N206 N 0.39450 0.81734 0.38309
 C207 C 0.42097 0.81333 0.41707
 N208 N 0.47261 0.85185 0.42333
 N209 N 0.10021 0.56904 0.40442
 C210 C 0.10122 0.55267 0.36397
 N211 N 0.14938 0.56210 0.34687
 N212 N 0.19404 0.58528 0.36996
 C213 C 0.19221 0.60110 0.41051
 N214 N 0.14472 0.59317 0.42699
 N215 N 0.57573 0.42771 0.34670
 C216 C 0.57509 0.47231 0.36065
 N217 N 0.59781 0.49326 0.39869
 N218 N 0.61900 0.47022 0.42216
 C219 C 0.61777 0.42478 0.40890
 N220 N 0.59591 0.40391 0.37068
 N221 N 0.55272 0.13765 0.34969
 C222 C 0.54992 0.09217 0.36508
 N223 N 0.56846 0.09326 0.40472
 N224 N 0.58897 0.13740 0.42789
 C225 C 0.59114 0.18236 0.41284
 N226 N 0.57246 0.18186 0.37332
 N227 N 0.90848 0.45761 0.41191
 C228 C 0.90769 0.44070 0.37133
 N229 N 0.86049 0.40039 0.35650
 N230 N 0.81645 0.37787 0.38151
 C231 C 0.81789 0.39561 0.42191
 N232 N 0.86455 0.43596 0.43648
 N233 N 0.52549 0.39036 1.13719
 C234 C 0.53607 0.44149 1.13215
 N235 N 0.57105 0.47172 1.10090
 N236 N 0.59460 0.45179 1.07556
 C237 C 0.58359 0.40058 1.08005
 N238 N 0.54858 0.37011 1.11135
 N239 N 0.88412 0.49438 1.11685
 C240 C 0.89498 0.46403 1.14344
 N241 N 0.86082 0.41063 1.14491
 N242 N 0.81811 0.38817 1.11992
 C243 C 0.80746 0.41842 1.09308
 N244 N 0.84087 0.47202 1.09239
 N245 N 0.59290 0.13410 1.14248
 C246 C 0.54148 0.09581 1.13447
 N247 N 0.51506 0.10361 1.10238
 N248 N 0.53906 0.14771 1.07893
 C249 C 0.59060 0.18562 1.08633
 N250 N 0.61724 0.17815 1.11858
 N251 N 0.47752 0.58786 1.11167
 C252 C 0.44596 0.55013 1.14057
 N253 N 0.39348 0.53724 1.14503
 N254 N 0.37309 0.56060 1.12076
 C255 C 0.40472 0.59815 1.09161
 N256 N 0.45737 0.61167 1.08789
 N257 N 0.10272 0.59670 1.10752
 C258 C 0.09346 0.55545 1.13354
 N259 N 0.12918 0.53721 1.13320
 N260 N 0.17204 0.55875 1.10717
 C261 C 0.18128 0.59993 1.08112
 N262 N 0.14607 0.61881 1.08197
 N263 N 0.39899 0.89515 1.10094
 C264 C 0.42929 0.89917 1.13499
 N265 N 0.43944 0.85871 1.14316
 N266 N 0.42087 0.81628 1.11773
 C267 C 0.39092 0.81253 1.08349
 N268 N 0.37979 0.85242 1.07589
 N269 N 0.50283 0.40107 0.60412
 C270 C 0.53372 0.44223 0.63030
 N271 N 0.58758 0.46076 0.63070
 N272 N 0.60989 0.43957 0.60526
 C273 C 0.57903 0.39842 0.57910
 N274 N 0.52506 0.37932 0.57914
 N275 N 0.50015 0.10574 0.60206
 C276 C 0.52646 0.10121 0.63594
 N277 N 0.57762 0.14050 0.64304
 N278 N 0.60191 0.18219 0.61677
 C279 C 0.57572 0.18634 0.58264
 N280 N 0.52415 0.14774 0.57614
 N281 N 0.88750 0.40502 0.60890
 C282 C 0.89431 0.44248 0.63822
 N283 N 0.85503 0.45579 0.64379
 N284 N 0.81094 0.43311 0.62016
 C285 C 0.80440 0.39586 0.59056
 N286 N 0.84322 0.38189 0.58576
 N287 N 0.43896 0.58288 0.64593
 C288 C 0.42263 0.53018 0.64157
 N289 N 0.38464 0.50141 0.61242
 N290 N 0.36423 0.52469 0.58817
 C291 C 0.38175 0.57773 0.59174
 N292 N 0.41925 0.60632 0.62121
 N293 N 0.44233 0.86142 0.65060
 C294 C 0.44485 0.90682 0.63528
 N295 N 0.42635 0.90567 0.59560
 N296 N 0.40623 0.86161 0.57231
 C297 C 0.40444 0.81676 0.58724
 N298 N 0.42300 0.81731 0.62683
 N299 N 0.13809 0.59431 0.64234
 C300 C 0.09006 0.55607 0.62703
 N301 N 0.08825 0.54099 0.58574
 N302 N 0.13221 0.56241 0.56104
 C303 C 0.17979 0.60064 0.57628
 N304 N 0.18204 0.61662 0.61730
 N305 N 0.43524 0.53195 0.90170
 C306 C 0.46860 0.56141 0.86941
 N307 N 0.47741 0.61175 0.86306
 N308 N 0.45417 0.63205 0.88867
 C309 C 0.42071 0.60230 0.92097
 N310 N 0.41152 0.55188 0.92681
 N311 N 0.11968 0.50333 0.88306
 C312 C 0.10847 0.53298 0.85599
 N313 N 0.14212 0.58647 0.85419
 N314 N 0.18468 0.60967 0.87929
 C315 C 0.19565 0.58012 0.90663
 N316 N 0.16278 0.52643 0.90765
 N317 N 0.47556 0.90617 0.90596
 C318 C 0.45801 0.90738 0.86635
 N319 N 0.41555 0.86197 0.85121
 N320 N 0.39134 0.81776 0.87503
 C321 C 0.40956 0.81710 0.91452
 N322 N 0.45220 0.86198 0.92932
 N323 N 0.61098 0.46761 0.85676
 C324 C 0.55775 0.45225 0.85950
 N325 N 0.52567 0.41241 0.88667
 N326 N 0.54604 0.38887 0.91047
 C327 C 0.59937 0.40474 0.90846
 N328 N 0.63154 0.44442 0.88101
 N329 N 0.89981 0.40212 0.89341
 C330 C 0.91020 0.44383 0.86756
 N331 N 0.87535 0.46314 0.86777
 N332 N 0.83219 0.44214 0.89350
 C333 C 0.82175 0.40041 0.91931
 N334 N 0.85616 0.38055 0.91864
 N335 N 0.55907 0.14190 0.85673
 C336 C 0.57041 0.10201 0.86399
 N337 N 0.60217 0.10666 0.89717
 N338 N 0.62162 0.14938 0.92225
 C339 C 0.60931 0.18867 0.91561
 N340 N 0.57794 0.18434 0.88220
   
