data_POSCAR
  _audit_creation_date              2014-09-24
  _audit_creation_method            'ToBaCCo'
  _symmetry_space_group_name_H-M    'P1'
  _symmetry_Int_Tables_number       1
  _symmetry_cell_setting            triclinic
  loop_
  _symmetry_equiv_pos_as_xyz
 x,y,z
_cell_length_a 18.3550
_cell_length_b 18.2810
_cell_length_c 17.6953
_cell_angle_alpha 94.110800
_cell_angle_beta 88.771200
_cell_angle_gamma 84.901600
loop_
  _atom_site_label
  _atom_site_type_symbol
  _atom_site_fract_x
  _atom_site_fract_y
  _atom_site_fract_z
C1 C 0.63174 0.58387 0.00097
 C2 C 0.59921 0.66271 -0.00219
 C3 C 0.52442 0.68315 -0.01106
 C4 C 0.47444 0.62733 -0.01402
 C5 C 0.49903 0.55146 -0.00893
 C6 C 0.57415 0.52896 -0.00425
 C7 C 0.59755 0.45399 -0.00409
 C8 C 0.54811 0.40106 -0.00597
 C9 C 0.47237 0.42085 -0.00567
 C10 C 0.44771 0.49676 -0.00890
 C11 C 0.39910 0.64504 -0.02442
 C12 C 0.34954 0.59258 -0.02170
 C13 C 0.37242 0.51898 -0.01221
 C14 C 0.31468 0.46558 -0.00484
 C15 C 0.34713 0.38666 -0.00010
 C16 C 0.42221 0.36615 -0.00340
 H17 H 0.65517 0.43558 -0.00257
 H18 H 0.57088 0.34446 -0.00726
 H19 H 0.37599 0.69932 -0.03545
 H20 H 0.29223 0.61030 -0.02766
 H21 H 0.63696 0.70410 0.00651
 H22 H 0.30950 0.34521 0.00668
 C23 C 0.01635 0.63658 0.47226
 C24 C -0.00055 0.61883 0.39676
 C25 C -0.00657 0.54587 0.36728
 C26 C -0.00017 0.48867 0.41858
 C27 C 0.01286 0.50641 0.49657
 C28 C 0.02267 0.58007 0.52287
 C29 C 0.03994 0.59506 0.59917
 C30 C 0.04119 0.54071 0.65003
 C31 C 0.02627 0.46872 0.62680
 C32 C 0.01719 0.45011 0.54863
 C33 C -0.00478 0.41387 0.39467
 C34 C 0.00118 0.35901 0.44530
 C35 C 0.01301 0.37540 0.52255
 C36 C 0.02106 0.31928 0.57435
 C37 C 0.02531 0.34023 0.65208
 C38 C 0.02356 0.41395 0.67918
 H39 H 0.05316 0.64887 0.62093
 H40 H 0.05595 0.55550 0.70760
 H41 H -0.01217 0.39515 0.33650
 H42 H -0.00509 0.30355 0.42256
 H43 H -0.01343 0.66410 0.36201
 H44 H 0.03064 0.29920 0.69313
 C45 C 0.58768 -0.02705 0.63764
 C46 C 0.66131 -0.02384 0.61728
 C47 C 0.68860 -0.01663 0.53672
 C48 C 0.62574 -0.00968 0.48200
 C49 C 0.55307 -0.02119 0.50403
 C50 C 0.53568 -0.03510 0.57982
 C51 C 0.46785 -0.06252 0.59453
 C52 C 0.41376 -0.06315 0.54072
 C53 C 0.42531 -0.03729 0.46914
 C54 C 0.49720 -0.02064 0.44885
 C55 C 0.64060 0.00628 0.40738
 C56 C 0.58573 0.01008 0.35449
 C57 C 0.51391 -0.00523 0.37317
 C58 C 0.45875 -0.00616 0.31817
 C59 C 0.38750 -0.01968 0.34061
 C60 C 0.36897 -0.03277 0.41525
 H61 H 0.45653 -0.08592 0.64750
 H62 H 0.36362 -0.08623 0.55542
 H63 H 0.69533 0.01663 0.38967
 H64 H 0.60093 0.02510 0.29877
 H65 H 0.70080 -0.02229 0.66175
 H66 H 0.34523 -0.02185 0.29901
 O67 O 0.42983 0.00050 -0.14402
 O68 O 0.39212 0.01499 0.06097
 O69 O 0.38857 0.10752 -0.04447
 O70 O 0.44846 -0.09007 -0.03664
 O71 O 0.56227 -0.06234 -0.02134
 O72 O 0.50089 0.13419 -0.01894
 O73 O 0.50708 0.03534 0.08194
 O74 O 0.54288 0.02869 -0.12487
 Cu75 Cu 0.40340 0.00554 -0.04286
 Cu76 Cu 0.53915 0.03742 -0.01887
 C77 C 0.49246 0.01200 -0.16950
 C78 C 0.44305 0.02614 0.10637
 C79 C 0.43480 0.15447 -0.03225
 C80 C 0.51609 -0.10967 -0.02868
 O81 O -0.10634 0.62275 1.00920
 O82 O 0.08520 0.54567 1.00225
 O83 O -0.01468 0.56672 0.90329
 O84 O -0.00337 0.60786 1.10826
 O85 O -0.03880 0.49862 1.12935
 O86 O -0.04097 0.45362 0.92235
 O87 O 0.05221 0.43600 1.02623
 O88 O -0.13906 0.51128 1.02494
 Cu89 Cu -0.00658 0.59703 1.00414
 Cu90 Cu -0.04631 0.46410 1.02810
 C91 C -0.15551 0.57907 1.01634
 C92 C 0.10133 0.47812 1.01298
 C93 C -0.02751 0.50271 0.87790
 C94 C -0.01806 0.56038 1.15375
 O95 O 0.03594 -0.10962 0.43100
 O96 O 0.02241 0.08770 0.49402
 O97 O 0.13023 -0.01094 0.44839
 O98 O -0.07108 -0.01228 0.48021
 O99 O -0.05105 -0.04257 0.59713
 O100 O 0.14706 -0.03390 0.56787
 O101 O 0.03532 0.05939 0.61256
 O102 O 0.05439 -0.13772 0.54882
 Cu103 Cu 0.02792 -0.00853 0.45149
 Cu104 Cu 0.04936 -0.04191 0.59308
 C105 C 0.04608 -0.15717 0.47935
 C106 C 0.02489 0.10703 0.56425
 C107 C 0.17262 -0.02104 0.50343
 C108 C -0.09494 -0.02800 0.54470
 C109 C -0.28336 0.55986 1.00983
 C110 C -0.23229 0.60714 1.01248
 H111 H -0.32678 0.57258 1.00529
 H112 H -0.24544 0.66551 1.00804
 C113 C 0.22965 0.49222 0.99839
 C114 C 0.17766 0.44802 1.01001
 H115 H 0.27225 0.47623 0.99699
 H116 H 0.19040 0.39023 1.01840
 C117 C 0.02162 -0.28455 0.49838
 C118 C 0.04696 -0.23555 0.45384
 H119 H 0.00189 -0.26531 0.55504
 H120 H 0.06511 -0.25199 0.39602
 C121 C 0.02888 0.23932 0.54768
 C122 C 0.01402 0.18519 0.59138
 H123 H 0.05059 0.22363 0.49094
 H124 H -0.00655 0.19715 0.64899
 C125 C 0.57071 -0.02014 -0.28345
 C126 C 0.50559 0.00600 -0.25193
 H127 H 0.61507 -0.03073 -0.24495
 H128 H 0.46011 0.02380 -0.28600
 C129 C 0.47590 0.00123 0.23630
 C130 C 0.42664 0.02756 0.18802
 H131 H 0.52969 -0.01927 0.21369
 H132 H 0.37148 0.04676 0.20725
 C133 C 0.49999 -0.24065 -0.01280
 C134 C 0.54318 -0.18782 -0.02906
 H135 H 0.44349 -0.22197 0.00011
 H136 H 0.60036 -0.20032 -0.04467
 C137 C 0.44682 0.28630 -0.00072
 C138 C 0.41078 0.23305 -0.03503
 H139 H 0.49472 0.27049 0.03097
 H140 H 0.36202 0.24691 -0.06634
 C141 C -0.22675 -0.01471 0.51303
 C142 C -0.17370 -0.02980 0.56187
 H143 H -0.27019 -0.01569 0.52515
 H144 H -0.18733 -0.04520 0.61797
 C145 C 0.29001 -0.04273 0.43088
 C146 C 0.25219 -0.01567 0.49396
 H147 H 0.26003 -0.06757 0.38509
 H148 H 0.27950 0.01159 0.54014
 C149 C -0.02044 0.53164 1.28883
 C150 C -0.00821 0.57817 1.23520
 H151 H -0.03998 0.48012 1.26888
 H152 H 0.01529 0.62943 1.24881
 C153 C 0.01836 0.43011 0.76274
 C154 C -0.02589 0.48596 0.79576
 H155 H 0.04827 0.39244 0.79810
 H156 H -0.05727 0.52366 0.76176
   
