data_POSCAR
  _audit_creation_date              2014-09-24
  _audit_creation_method            'ToBaCCo'
  _symmetry_space_group_name_H-M    'P1'
  _symmetry_Int_Tables_number       1
  _symmetry_cell_setting            triclinic
  loop_
  _symmetry_equiv_pos_as_xyz
 x,y,z
_cell_length_a 24.6125
_cell_length_b 24.4882
_cell_length_c 24.6756
_cell_angle_alpha 89.985900
_cell_angle_beta 90.093600
_cell_angle_gamma 89.998600
loop_
  _atom_site_label
  _atom_site_type_symbol
  _atom_site_fract_x
  _atom_site_fract_y
  _atom_site_fract_z
C1 C 0.52658 1.00049 -0.50037
 C2 C 0.47141 0.99926 -0.50054
 C3 C 0.43918 0.99617 -0.55137
 C4 C 0.43904 1.00089 -0.44982
 C5 C 0.55874 0.99980 -0.44939
 C6 C 0.55904 1.00222 -0.55102
 C7 C 0.43928 1.03860 -0.58932
 C8 C 0.40272 1.03819 -0.63297
 C9 C 0.36422 0.99534 -0.63971
 C10 C 0.36709 0.95164 -0.60198
 C11 C 0.40346 0.95246 -0.55861
 C12 C 0.40111 1.04300 -0.44273
 C13 C 0.36572 1.04263 -0.39862
 C14 C 0.36714 0.99981 -0.36071
 C15 C 0.40588 0.95801 -0.36731
 C16 C 0.44157 0.95855 -0.41153
 C17 C 0.59633 0.95757 -0.44109
 C18 C 0.63156 0.95867 -0.39677
 C19 C 0.63034 1.00235 -0.35986
 C20 C 0.59195 1.04429 -0.36766
 C21 C 0.55639 1.04300 -0.41209
 C22 C 0.55853 0.95882 -0.58819
 C23 C 0.59546 0.95795 -0.63141
 C24 C 0.63367 1.00027 -0.63783
 C25 C 0.63244 1.04454 -0.60160
 C26 C 0.59575 1.04532 -0.55860
 H27 H 0.46600 1.07331 -0.58382
 H28 H 0.40292 1.07398 -0.65848
 H29 H 0.34256 0.91530 -0.60580
 H30 H 0.40327 0.91889 -0.52998
 H31 H 0.39812 1.07569 -0.47218
 H32 H 0.33588 1.07494 -0.39530
 H33 H 0.46998 0.92521 -0.41678
 H34 H 0.59916 0.92421 -0.46978
 H35 H 0.66114 0.92622 -0.39251
 H36 H 0.58981 1.07829 -0.33972
 H37 H 0.52822 1.07641 -0.41828
 H38 H 0.53117 0.92469 -0.58246
 H39 H 0.59566 0.92309 -0.65838
 H40 H 0.66051 1.07828 -0.60601
 H41 H 0.59684 1.07910 -0.53027
 H42 H 0.40820 0.92466 -0.33859
 C43 C -0.49987 1.47191 -0.00086
 C44 C -0.50100 1.52713 -0.00042
 C45 C -0.45091 1.56044 -0.00200
 C46 C -0.55237 1.55835 0.00145
 C47 C -0.54995 1.43863 -0.00262
 C48 C -0.44837 1.44086 0.00042
 C49 C -0.41331 1.55957 0.04079
 C50 C -0.37002 1.59661 0.04151
 C51 C -0.36411 1.63516 -0.00037
 C52 C -0.40083 1.63439 -0.04399
 C53 C -0.44392 1.59756 -0.04463
 C54 C -0.56102 1.59428 0.04474
 C55 C -0.60479 1.63026 0.04396
 C56 C -0.64051 1.63140 -0.00048
 C57 C -0.63318 1.59370 -0.04286
 C58 C -0.58921 1.55745 -0.04198
 C59 C -0.55735 1.40223 -0.04561
 C60 C -0.60044 1.36543 -0.04536
 C61 C -0.63726 1.36336 -0.00151
 C62 C -0.63056 1.40202 0.04067
 C63 C -0.58721 1.43897 0.04016
 C64 C -0.41138 1.44323 -0.04269
 C65 C -0.36609 1.40872 -0.04326
 C66 C -0.35728 1.37150 -0.00069
 C67 C -0.39382 1.37041 0.04296
 C68 C -0.43902 1.40459 0.04335
 H69 H -0.41868 1.53172 0.07445
 H70 H -0.34254 1.59661 0.07581
 H71 H -0.39669 1.66289 -0.07729
 H72 H -0.47265 1.59875 -0.07792
 H73 H -0.53285 1.59547 0.07851
 H74 H -0.61006 1.65809 0.07765
 H75 H -0.58256 1.53049 -0.07611
 H76 H -0.52911 1.40184 -0.07925
 H77 H -0.60490 1.33934 -0.08042
 H78 H -0.65634 1.40192 0.07608
 H79 H -0.58144 1.46628 0.07421
 H80 H -0.41849 1.47052 -0.07651
 H81 H -0.33836 1.41057 -0.07724
 H82 H -0.38860 1.34159 0.07586
 H83 H -0.46754 1.40195 0.07666
 H84 H -0.65990 1.59397 -0.07777
 C85 C 0.00020 0.47210 0.50094
 C86 C 0.00022 0.52743 0.49943
 C87 C 0.00282 0.56114 0.54921
 C88 C -0.00205 0.55833 0.44788
 C89 C 0.00343 0.43837 0.45122
 C90 C -0.00281 0.44121 0.55244
 C91 C -0.03952 0.56155 0.58701
 C92 C -0.03885 0.59863 0.63022
 C93 C 0.00410 0.63671 0.63633
 C94 C 0.04737 0.63400 0.59881
 C95 C 0.04644 0.59709 0.55588
 C96 C -0.04564 0.59408 0.43902
 C97 C -0.04620 0.62842 0.39397
 C98 C -0.00287 0.62805 0.35698
 C99 C 0.04036 0.59130 0.36528
 C100 C 0.04076 0.55666 0.41045
 C101 C 0.04711 0.40239 0.44525
 C102 C 0.04865 0.36560 0.40224
 C103 C 0.00595 0.36303 0.36393
 C104 C -0.03709 0.40110 0.36940
 C105 C -0.03837 0.43805 0.41269
 C106 C 0.03975 0.44211 0.59011
 C107 C 0.03889 0.40717 0.63503
 C108 C -0.00470 0.37031 0.64333
 C109 C -0.04807 0.37152 0.60569
 C110 C -0.04682 0.40616 0.56090
 H111 H -0.07408 0.53466 0.58187
 H112 H -0.07394 0.59920 0.65648
 H113 H 0.08297 0.65957 0.60262
 H114 H 0.07976 0.59696 0.52723
 H115 H -0.07872 0.59628 0.46785
 H116 H -0.07961 0.65681 0.38926
 H117 H 0.07512 0.52984 0.41711
 H118 H 0.08002 0.40244 0.47447
 H119 H 0.08429 0.34002 0.39899
 H120 H -0.07179 0.40062 0.34252
 H121 H -0.07298 0.46498 0.41727
 H122 H 0.07429 0.46881 0.58398
 H123 H 0.07230 0.41000 0.66337
 H124 H -0.08175 0.34333 0.60815
 H125 H -0.07971 0.40446 0.53170
 H126 H 0.07413 0.58991 0.33725
 O127 O -0.14070 1.00423 -0.07285
 O128 O 0.13939 0.99778 -0.07360
 O129 O -0.00167 1.07628 -0.13871
 O130 O -0.00014 0.92783 -0.14071
 O131 O -0.00059 0.86060 -0.07503
 O132 O -0.00063 1.14163 -0.07122
 O133 O 0.07304 0.99911 -0.13995
 O134 O -0.07488 1.00479 -0.13952
 Zr135 Zr -0.00074 1.00143 -0.09587
 O136 O 0.04824 0.95091 -0.05016
 O137 O -0.04930 1.05069 -0.04858
 C138 C -0.12491 1.00580 -0.12292
 C139 C 0.12320 0.99749 -0.12361
 C140 C -0.00176 1.12633 -0.12146
 C141 C 0.00014 0.87732 -0.12484
 H142 H 0.07247 1.07288 -0.07138
 O143 O 0.04904 1.04947 -0.04862
 H144 H -0.07375 0.92924 -0.07286
 O145 O -0.05013 0.95208 -0.04967
 O146 O 0.14005 0.99977 0.07278
 O147 O -0.14019 0.99863 0.07340
 O148 O 0.07419 1.13979 0.00383
 O149 O 0.07140 0.85897 -0.00447
 O150 O -0.07480 0.86037 0.00073
 O151 O -0.07196 1.14129 -0.00051
 O152 O 0.00218 1.07234 0.14052
 O153 O -0.00170 0.92397 0.13855
 O154 O 0.00262 1.13958 0.07486
 O155 O -0.00258 0.85862 0.07106
 O156 O 0.14009 1.07271 0.00254
 O157 O -0.13929 1.07564 -0.00111
 O158 O -0.14072 0.92746 0.00163
 O159 O 0.13858 0.92476 -0.00351
 O160 O 0.07414 0.99980 0.13936
 O161 O -0.07376 0.99661 0.13965
 Zr162 Zr 0.09530 0.99918 -0.00031
 Zr163 Zr -0.09600 1.00108 0.00016
 Zr164 Zr 0.00064 1.09588 0.00120
 Zr165 Zr -0.00127 0.90432 -0.00138
 Zr166 Zr 0.00003 0.99878 0.09566
 O167 O -0.04989 0.95050 0.04864
 O168 O 0.04963 1.04837 0.04977
 C169 C 0.12420 1.00045 0.12286
 C170 C -0.12395 0.99652 0.12336
 C171 C 0.12409 1.12312 0.00435
 C172 C 0.12160 0.87468 -0.00532
 C173 C -0.12469 0.87703 0.00221
 C174 C -0.12219 1.12572 -0.00177
 C175 C 0.00322 1.12284 0.12467
 C176 C -0.00277 0.87393 0.12131
 H177 H -0.07181 1.07235 0.07305
 O178 O -0.04878 1.04912 0.04974
 H179 H 0.07171 0.92596 0.07079
 O180 O 0.04848 0.94978 0.04818
 C181 C 0.24310 0.99962 0.23865
 C182 C 0.23742 0.96545 0.28342
 C183 C 0.27754 0.96375 0.32349
 C184 C 0.32523 0.99644 0.32016
 C185 C 0.32984 1.03085 0.27396
 C186 C 0.28939 1.03222 0.23396
 C187 C 0.20127 1.00083 0.19765
 C188 C 0.16599 1.00099 0.16359
 H189 H 0.20141 0.94037 0.28783
 H190 H 0.26853 0.93858 0.35824
 H191 H 0.36548 1.05537 0.26644
 H192 H 0.29453 1.05853 0.19903
 C193 C -0.24216 0.99433 0.23944
 C194 C -0.29516 0.97739 0.22717
 C195 C -0.33565 0.97885 0.26703
 C196 C -0.32363 0.99755 0.31962
 C197 C -0.27007 1.01390 0.33157
 C198 C -0.22976 1.01236 0.29179
 C199 C -0.20053 0.99423 0.19837
 C200 C -0.16544 0.99495 0.16424
 H201 H -0.30529 0.96346 0.18673
 H202 H -0.37651 0.96634 0.25647
 H203 H -0.25917 1.02750 0.37190
 H204 H -0.18890 1.02538 0.30186
 C205 C -0.24641 1.00750 -0.23596
 C206 C -0.27331 0.95853 -0.24759
 C207 C -0.31436 0.95716 -0.28680
 C208 C -0.32918 1.00484 -0.31507
 C209 C -0.30273 1.05417 -0.30227
 C210 C -0.26158 1.05543 -0.26302
 C211 C -0.20298 1.00811 -0.19663
 C212 C -0.16693 1.00755 -0.16340
 H213 H -0.26220 0.92124 -0.22670
 H214 H -0.33438 0.91870 -0.29521
 H215 H -0.31271 1.09141 -0.32375
 H216 H -0.24109 1.09361 -0.25433
 C217 C 0.24388 0.99616 -0.23714
 C218 C 0.25955 0.94781 -0.26309
 C219 C 0.30063 0.94865 -0.30228
 C220 C 0.32653 0.99796 -0.31614
 C221 C 0.31115 1.04612 -0.28905
 C222 C 0.27016 1.04517 -0.24989
 C223 C 0.20070 0.99580 -0.19768
 C224 C 0.16489 0.99626 -0.16430
 H225 H 0.23955 0.90960 -0.25353
 H226 H 0.31102 0.91103 -0.32285
 H227 H 0.33074 1.08460 -0.29828
 H228 H 0.25866 1.08280 -0.22985
 C229 C 0.24072 1.24080 0.00498
 C230 C 0.23339 1.28992 0.03279
 C231 C 0.27336 1.33045 0.03082
 C232 C 0.32158 1.32269 0.00060
 C233 C 0.32800 1.27241 -0.02701
 C234 C 0.28802 1.23214 -0.02479
 C235 C 0.19952 1.19933 0.00603
 C236 C 0.16519 1.16436 0.00578
 H237 H 0.19651 1.29714 0.05562
 H238 H 0.26498 1.36848 0.05142
 H239 H 0.36479 1.26250 -0.04874
 H240 H 0.29424 1.19397 -0.04613
 C241 C 0.23681 0.75562 -0.00782
 C242 C 0.22433 0.70224 -0.02395
 C243 C 0.26424 0.66159 -0.02201
 C244 C 0.31691 0.67402 -0.00361
 C245 C 0.32906 0.72795 0.01188
 C246 C 0.28925 0.76840 0.00984
 C247 C 0.19583 0.79731 -0.00810
 C248 C 0.16193 0.83270 -0.00728
 H249 H 0.18372 0.69198 -0.03757
 H250 H 0.25374 0.62035 -0.03391
 H251 H 0.36954 0.73897 0.02520
 H252 H 0.29932 0.80963 0.02225
 C253 C -0.24117 0.75920 0.00501
 C254 C -0.22837 0.70564 0.02028
 C255 C -0.26839 0.66510 0.01903
 C256 C -0.32152 0.67780 0.00222
 C257 C -0.33399 0.73192 -0.01243
 C258 C -0.29404 0.77229 -0.01109
 C259 C -0.20003 0.80074 0.00478
 C260 C -0.16575 0.83575 0.00385
 H261 H -0.18744 0.69516 0.03271
 H262 H -0.25761 0.62372 0.03019
 H263 H -0.37479 0.74312 -0.02458
 H264 H -0.30435 0.81366 -0.02281
 C265 C -0.23358 1.24842 -0.00414
 C266 C -0.26181 1.26171 -0.05161
 C267 C -0.30088 1.30311 -0.05101
 C268 C -0.31219 1.33153 -0.00279
 C269 C -0.28260 1.31876 0.04434
 C270 C -0.24355 1.27743 0.04363
 C271 C -0.19491 1.20454 -0.00402
 C272 C -0.16217 1.16806 -0.00322
 H273 H -0.25428 1.23947 -0.08881
 H274 H -0.32353 1.31161 -0.08771
 H275 H -0.29006 1.34040 0.08187
 H276 H -0.22163 1.26764 0.08049
 C277 C 0.00490 1.24100 0.24106
 C278 C -0.02377 1.28966 0.23341
 C279 C -0.02347 1.33001 0.27357
 C280 C 0.00584 1.32260 0.32243
 C281 C 0.03456 1.27288 0.32909
 C282 C 0.03401 1.23277 0.28889
 C283 C 0.00436 1.19924 0.20004
 C284 C 0.00400 1.16416 0.16580
 H285 H -0.04621 1.29659 0.19623
 H286 H -0.04478 1.36761 0.26489
 H287 H 0.05577 1.26314 0.36623
 H288 H 0.05593 1.19496 0.29547
 C289 C -0.00297 1.24877 -0.23348
 C290 C 0.04572 1.27176 -0.25144
 C291 C 0.04528 1.31284 -0.29083
 C292 C -0.00417 1.33163 -0.31357
 C293 C -0.05302 1.30879 -0.29347
 C294 C -0.05228 1.26785 -0.25405
 C295 C -0.00246 1.20525 -0.19428
 C296 C -0.00221 1.16889 -0.16135
 H297 H 0.08423 1.25720 -0.23573
 H298 H 0.08418 1.32725 -0.30520
 H299 H -0.09235 1.32309 -0.30688
 H300 H -0.09033 1.25093 -0.23975
 C301 C 0.00145 0.75913 -0.24121
 C302 C 0.03118 0.76720 -0.28860
 C303 C 0.03221 0.72699 -0.32867
 C304 C 0.00338 0.67730 -0.32233
 C305 C -0.02661 0.67008 -0.27396
 C306 C -0.02740 0.71054 -0.23392
 C307 C 0.00073 0.80089 -0.20020
 C308 C 0.00045 0.83599 -0.16597
 H309 H 0.05327 0.80495 -0.29490
 H310 H 0.05393 0.73659 -0.36548
 H311 H -0.04808 0.63253 -0.26553
 H312 H -0.05029 0.70372 -0.19706
 C313 C -0.00194 0.75124 0.23304
 C314 C -0.04966 0.72234 0.24419
 C315 C -0.04963 0.68111 0.28336
 C316 C -0.00178 0.66824 0.31195
 C317 C 0.04630 0.69665 0.29954
 C318 C 0.04616 0.73793 0.26036
 C319 C -0.00251 0.79493 0.19405
 C320 C -0.00288 0.83136 0.16120
 H321 H -0.08704 0.73207 0.22303
 H322 H -0.08712 0.65952 0.29159
 H323 H 0.08358 0.68821 0.32135
 H324 H 0.08335 0.76003 0.25200
   
