data_POSCAR
  _audit_creation_date              2014-09-24
  _audit_creation_method            'ToBaCCo'
  _symmetry_space_group_name_H-M    'P1'
  _symmetry_Int_Tables_number       1
  _symmetry_cell_setting            triclinic
  loop_
  _symmetry_equiv_pos_as_xyz
 x,y,z
_cell_length_a 56.7312
_cell_length_b 58.2030
_cell_length_c 58.0036
_cell_angle_alpha 89.782200
_cell_angle_beta 90.554100
_cell_angle_gamma 88.880600
loop_
  _atom_site_label
  _atom_site_type_symbol
  _atom_site_fract_x
  _atom_site_fract_y
  _atom_site_fract_z
C1 C 0.61238 0.64352 0.61179
 C2 C 0.63261 0.63387 0.60170
 C3 C 0.64413 0.61537 0.61211
 C4 C 0.63548 0.60616 0.63268
 C5 C 0.61554 0.61559 0.64255
 C6 C 0.60393 0.63448 0.63211
 C7 C 0.59764 0.66158 0.60556
 N8 N 0.58044 0.66378 0.62161
 C9 C 0.58419 0.64721 0.63791
 C10 C 0.61113 0.60307 0.66213
 N11 N 0.62792 0.58605 0.66461
 C12 C 0.64289 0.58808 0.64642
 C13 C 0.66312 0.60960 0.59857
 N14 N 0.66336 0.62411 0.58015
 C15 C 0.64471 0.63900 0.58195
 H16 H 0.59956 0.67252 0.59059
 H17 H 0.57322 0.64440 0.65278
 H18 H 0.59665 0.60661 0.67363
 H19 H 0.65796 0.57712 0.64278
 H20 H 0.67562 0.59563 0.60174
 H21 H 0.64039 0.65275 0.56992
 C22 C 0.88892 0.35902 0.11490
 C23 C 0.86777 0.36802 0.10558
 C24 C 0.85751 0.38757 0.11493
 C25 C 0.86834 0.39846 0.13365
 C26 C 0.88921 0.38959 0.14279
 C27 C 0.89963 0.36980 0.13324
 C28 C 0.90277 0.34022 0.10940
 N29 N 0.92190 0.33924 0.12387
 C30 C 0.91992 0.35749 0.13849
 C31 C 0.89557 0.40349 0.16086
 N32 N 0.87911 0.42063 0.16285
 C33 C 0.86241 0.41769 0.14622
 C34 C 0.83720 0.39233 0.10251
 N35 N 0.83493 0.37621 0.08577
 C36 C 0.85359 0.36127 0.08755
 H37 H 0.89918 0.32861 0.09536
 H38 H 0.93187 0.36148 0.15248
 H39 H 0.91119 0.40140 0.17159
 H40 H 0.84687 0.42853 0.14366
 H41 H 0.82517 0.40671 0.10522
 H42 H 0.85654 0.34643 0.07670
 C43 C 0.38853 0.14699 -0.11432
 C44 C 0.36773 0.13804 -0.10536
 C45 C 0.35832 0.11844 -0.11481
 C46 C 0.36951 0.10755 -0.13337
 C47 C 0.38999 0.11629 -0.14213
 C48 C 0.39962 0.13616 -0.13253
 C49 C 0.40172 0.16574 -0.10854
 N50 N 0.42059 0.16653 -0.12277
 C51 C 0.41942 0.14845 -0.13749
 C52 C 0.39692 0.10221 -0.15990
 N53 N 0.38112 0.08493 -0.16237
 C54 C 0.36429 0.08832 -0.14596
 C55 C 0.33834 0.11355 -0.10261
 N56 N 0.33538 0.12970 -0.08594
 C57 C 0.35332 0.14478 -0.08758
 H58 H 0.39800 0.17772 -0.09476
 H59 H 0.43190 0.14465 -0.15102
 H60 H 0.41231 0.10494 -0.17029
 H61 H 0.34928 0.07765 -0.14284
 H62 H 0.32674 0.09935 -0.10580
 H63 H 0.35601 0.15934 -0.07637
 C64 C 0.11408 0.85298 0.38040
 C65 C 0.13431 0.86218 0.39060
 C66 C 0.14350 0.88229 0.38207
 C67 C 0.13266 0.89341 0.36315
 C68 C 0.11286 0.88425 0.35304
 C69 C 0.10335 0.86401 0.36189
 C70 C 0.10103 0.83395 0.38532
 N71 N 0.08231 0.83312 0.37039
 C72 C 0.08383 0.85163 0.35597
 C73 C 0.10630 0.89844 0.33500
 N74 N 0.12157 0.91625 0.33382
 C75 C 0.13770 0.91315 0.35123
 C76 C 0.16287 0.88734 0.39544
 N77 N 0.16569 0.87078 0.41189
 C78 C 0.14825 0.85532 0.40900
 H79 H 0.10470 0.82219 0.39943
 H80 H 0.07197 0.85585 0.34181
 H81 H 0.09105 0.89599 0.32403
 H82 H 0.15261 0.92390 0.35479
 H83 H 0.17418 0.90192 0.39317
 H84 H 0.14558 0.84037 0.41976
 N85 N 0.09803 0.15836 0.11507
 N86 N 0.08785 0.14818 0.13250
 C87 C 0.06865 0.16061 0.13861
 C88 C 0.06677 0.17968 0.12432
 C89 C 0.08579 0.17771 0.10963
 H90 H 0.05690 0.15615 0.15241
 H91 H 0.09001 0.18912 0.09558
 Cu92 Cu 0.10048 0.11947 0.14522
 Cu93 Cu 0.12555 0.14511 0.09984
 Cu94 Cu 0.14750 0.09322 0.12142
 N95 N 0.11344 0.09076 0.15764
 N96 N 0.13145 0.08029 0.14786
 C97 C 0.13655 0.06070 0.15942
 C98 C 0.12101 0.05884 0.17754
 C99 C 0.10661 0.07827 0.17591
 H100 H 0.15080 0.04889 0.15521
 H101 H 0.09207 0.08277 0.18703
 N102 N 0.16137 0.10908 0.09488
 N103 N 0.15317 0.12891 0.08678
 C104 C 0.16639 0.13526 0.06876
 C105 C 0.18382 0.11865 0.06532
 C106 C 0.18004 0.10232 0.08226
 H107 H 0.16358 0.15090 0.05894
 H108 H 0.19000 0.08655 0.08508
 H109 H 0.11870 0.11138 0.10816
 H110 H 0.13863 0.12713 0.12813
 N111 N 0.39708 0.83953 0.62337
 N112 N 0.40586 0.84855 0.64224
 C113 C 0.42462 0.83574 0.64931
 C114 C 0.42778 0.81767 0.63407
 C115 C 0.40990 0.82070 0.61781
 H116 H 0.43507 0.83924 0.66452
 H117 H 0.40653 0.81016 0.60289
 Cu118 Cu 0.39188 0.87616 0.65565
 Cu119 Cu 0.36975 0.85286 0.60730
 Cu120 Cu 0.34451 0.90201 0.63093
 N121 N 0.37756 0.90379 0.66872
 N122 N 0.35898 0.91371 0.65899
 C123 C 0.35254 0.93224 0.67140
 C124 C 0.36792 0.93413 0.68997
 C125 C 0.38360 0.91573 0.68766
 H126 H 0.33785 0.94359 0.66705
 H127 H 0.39817 0.91122 0.69904
 N128 N 0.33243 0.88758 0.60262
 N129 N 0.34203 0.86889 0.59361
 C130 C 0.32990 0.86337 0.57441
 C131 C 0.31173 0.87935 0.57112
 C132 C 0.31395 0.89443 0.58940
 H133 H 0.33392 0.84869 0.56371
 H134 H 0.30304 0.90944 0.59275
 H135 H 0.37461 0.88620 0.61822
 H136 H 0.35483 0.86808 0.63592
 N137 N 0.90698 0.65875 0.38378
 N138 N 0.91605 0.64850 0.36566
 C139 C 0.93533 0.65986 0.35905
 C140 C 0.93839 0.67831 0.37370
 C141 C 0.92002 0.67708 0.38915
 H142 H 0.94623 0.65520 0.34455
 H143 H 0.91668 0.68839 0.40355
 Cu144 Cu 0.90167 0.62144 0.35241
 Cu145 Cu 0.87955 0.64707 0.39959
 Cu146 Cu 0.85453 0.59792 0.37731
 N147 N 0.88750 0.59379 0.34020
 N148 N 0.86926 0.58454 0.35017
 C149 C 0.86322 0.56554 0.33854
 C150 C 0.87844 0.56274 0.32019
 C151 C 0.89361 0.58104 0.32180
 H152 H 0.84865 0.55472 0.34296
 H153 H 0.90821 0.58459 0.31059
 N154 N 0.84218 0.61398 0.40463
 N155 N 0.85177 0.63261 0.41318
 C156 C 0.83970 0.63920 0.43199
 C157 C 0.82155 0.62404 0.43543
 C158 C 0.82366 0.60830 0.41770
 H159 H 0.84373 0.65402 0.44237
 H160 H 0.81277 0.59355 0.41479
 H161 H 0.88464 0.61319 0.38989
 H162 H 0.86461 0.63130 0.37129
 N163 N 0.59577 0.34334 -0.11597
 N164 N 0.58559 0.35333 -0.13391
 C165 C 0.56587 0.34196 -0.13940
 C166 C 0.56361 0.32379 -0.12413
 C167 C 0.58297 0.32523 -0.10950
 H168 H 0.55422 0.34635 -0.15366
 H169 H 0.58735 0.31407 -0.09509
 Cu170 Cu 0.59934 0.37999 -0.14855
 Cu171 Cu 0.62486 0.35450 -0.10230
 Cu172 Cu 0.64947 0.40224 -0.12788
 N173 N 0.61301 0.40711 -0.16237
 N174 N 0.63270 0.41561 -0.15430
 C175 C 0.63830 0.43415 -0.16689
 C176 C 0.62117 0.43756 -0.18383
 C177 C 0.60539 0.42000 -0.18038
 H178 H 0.65359 0.44451 -0.16372
 H179 H 0.58962 0.41674 -0.19034
 N180 N 0.66375 0.38633 -0.10097
 N181 N 0.65422 0.36836 -0.09104
 C182 C 0.66777 0.36177 -0.07291
 C183 C 0.68682 0.37621 -0.07138
 C184 C 0.68367 0.39155 -0.08950
 H185 H 0.66418 0.34737 -0.06175
 H186 H 0.69487 0.40573 -0.09375
 H187 H 0.62015 0.38832 -0.11268
 H188 H 0.63768 0.36912 -0.13203
 C189 C -0.03892 0.32632 0.13600
 C190 C -0.02077 0.30974 0.13581
 C191 C -0.02348 0.28909 0.12388
 C192 C -0.04447 0.28554 0.11151
 C193 C -0.06254 0.30221 0.11138
 C194 C -0.06024 0.32293 0.12377
 C195 C -0.00388 0.27192 0.12408
 C196 C -0.00743 0.24925 0.12293
 C197 C 0.01205 0.23196 0.12354
 C198 C 0.00789 0.21017 0.13286
 C199 C 0.02575 0.19329 0.13341
 C200 C 0.04803 0.19774 0.12420
 C201 C 0.05211 0.21948 0.11457
 C202 C 0.03433 0.23646 0.11430
 H203 H -0.03572 0.34200 0.14532
 H204 H -0.00459 0.31299 0.14522
 H205 H -0.04689 0.27001 0.10163
 H206 H -0.07844 0.29835 0.10191
 H207 H 0.01383 0.27814 0.12662
 H208 H -0.02528 0.24297 0.12283
 H209 H -0.00920 0.20623 0.13986
 H210 H 0.02194 0.17663 0.14066
 H211 H 0.06908 0.22344 0.10735
 H212 H 0.03793 0.25290 0.10643
 C213 C 0.55293 0.68998 0.60049
 C214 C 0.53479 0.70657 0.60031
 C215 C 0.52506 0.71456 0.62100
 C216 C 0.53350 0.70514 0.64197
 C217 C 0.55161 0.68850 0.64215
 C218 C 0.56161 0.68080 0.62142
 C219 C 0.50580 0.73214 0.61993
 C220 C 0.50063 0.74640 0.63737
 C221 C 0.48173 0.76435 0.63606
 C222 C 0.48304 0.78337 0.65075
 C223 C 0.46559 0.80066 0.65013
 C224 C 0.44627 0.79924 0.63486
 C225 C 0.44477 0.77997 0.62040
 C226 C 0.46222 0.76269 0.62103
 H227 H 0.55994 0.68412 0.58421
 H228 H 0.52843 0.71330 0.58391
 H229 H 0.52600 0.71028 0.65827
 H230 H 0.55794 0.68185 0.65856
 H231 H 0.49650 0.73414 0.60364
 H232 H 0.51142 0.74590 0.65286
 H233 H 0.49776 0.78498 0.66264
 H234 H 0.46746 0.81520 0.66151
 H235 H 0.42998 0.77800 0.60872
 H236 H 0.46008 0.74791 0.61001
 C237 C 1.04362 0.82076 0.35788
 C238 C 1.02579 0.80454 0.35818
 C239 C 1.02888 0.78382 0.37025
 C240 C 1.05003 0.77974 0.38248
 C241 C 1.06777 0.79606 0.38253
 C242 C 1.06497 0.81695 0.37019
 C243 C 1.00941 0.76728 0.37055
 C244 C 1.01305 0.74450 0.37207
 C245 C 0.99353 0.72800 0.37230
 C246 C 0.99714 0.70609 0.36285
 C247 C 0.97914 0.69003 0.36304
 C248 C 0.95733 0.69542 0.37316
 C249 C 0.95385 0.71725 0.38297
 C250 C 0.97173 0.73342 0.38248
 H251 H 1.04007 0.83656 0.34855
 H252 H 1.00949 0.80818 0.34885
 H253 H 1.05276 0.76411 0.39241
 H254 H 1.08379 0.79187 0.39197
 H255 H 0.99162 0.77407 0.36826
 H256 H 1.03090 0.73754 0.37191
 H257 H 1.01388 0.70145 0.35514
 H258 H 0.98246 0.67326 0.35560
 H259 H 0.93724 0.72192 0.39088
 H260 H 0.96860 0.74996 0.39047
 C261 C 0.46188 0.17779 -0.12881
 C262 C 0.47947 0.19426 -0.12825
 C263 C 0.47426 0.21689 -0.12148
 C264 C 0.45113 0.22263 -0.11474
 C265 C 0.43357 0.20612 -0.11517
 C266 C 0.43872 0.18354 -0.12229
 C267 C 0.49348 0.23377 -0.12098
 C268 C 0.48974 0.25649 -0.12340
 C269 C 0.50901 0.27331 -0.12337
 C270 C 0.50554 0.29426 -0.13505
 C271 C 0.52326 0.31061 -0.13538
 C272 C 0.54477 0.30648 -0.12373
 C273 C 0.54809 0.28565 -0.11166
 C274 C 0.53042 0.26925 -0.11146
 H275 H 0.46648 0.16045 -0.13401
 H276 H 0.49720 0.18932 -0.13326
 H277 H 0.44658 0.23972 -0.10876
 H278 H 0.41588 0.21109 -0.11012
 H279 H 0.51138 0.22703 -0.11985
 H280 H 0.47206 0.26304 -0.12686
 H281 H 0.48910 0.29793 -0.14413
 H282 H 0.51994 0.32657 -0.14458
 H283 H 0.56441 0.28187 -0.10249
 H284 H 0.53348 0.25360 -0.10166
 C285 C 0.13420 -0.04609 0.32138
 C286 C 0.13362 -0.02826 0.30517
 C287 C 0.12029 -0.03006 0.28485
 C288 C 0.10688 -0.04976 0.28130
 C289 C 0.10711 -0.06749 0.29762
 C290 C 0.12096 -0.06614 0.31795
 C291 C 0.12022 -0.01091 0.26800
 C292 C 0.11820 -0.01422 0.24522
 C293 C 0.11886 0.00481 0.22827
 C294 C 0.12826 0.00059 0.20639
 C295 C 0.12915 0.01818 0.18997
 C296 C 0.12015 0.04024 0.19497
 C297 C 0.11029 0.04436 0.21673
 C298 C 0.10973 0.02685 0.23327
 H299 H 0.14463 -0.04366 0.33681
 H300 H 0.14384 -0.01306 0.30842
 H301 H 0.09594 -0.05143 0.26602
 H302 H 0.09681 -0.08242 0.29377
 H303 H 0.12345 0.00618 0.27449
 H304 H 0.11751 -0.03157 0.23858
 H305 H 0.13518 -0.01632 0.20208
 H306 H 0.13658 0.01440 0.17326
 H307 H 0.10324 0.06119 0.22110
 H308 H 0.10181 0.03051 0.24979
 C309 C 0.64882 0.55434 -0.31621
 C310 C 0.65010 0.53774 -0.29875
 C311 C 0.63199 0.53581 -0.28268
 C312 C 0.61275 0.55131 -0.28402
 C313 C 0.61140 0.56799 -0.30141
 C314 C 0.62935 0.56982 -0.31805
 C315 C 0.63417 0.51790 -0.26447
 C316 C 0.61559 0.50913 -0.25360
 C317 C 0.61768 0.49086 -0.23575
 C318 C 0.59816 0.47709 -0.23155
 C319 C 0.59929 0.45977 -0.21479
 C320 C 0.61996 0.45595 -0.20166
 C321 C 0.63942 0.46998 -0.20565
 C322 C 0.63830 0.48727 -0.22243
 H323 H 0.66344 0.55492 -0.32793
 H324 H 0.66531 0.52621 -0.29792
 H325 H 0.59877 0.55090 -0.27148
 H326 H 0.59600 0.57914 -0.30162
 H327 H 0.65165 0.51091 -0.26094
 H328 H 0.59795 0.51455 -0.25874
 H329 H 0.58197 0.47965 -0.24137
 H330 H 0.58383 0.44957 -0.21208
 H331 H 0.65564 0.46763 -0.19589
 H332 H 0.65350 0.49798 -0.22459
 C333 C 0.40145 1.06457 0.80684
 C334 C 0.40210 1.04702 0.79046
 C335 C 0.38330 1.03197 0.78805
 C336 C 0.36397 1.03442 0.80285
 C337 C 0.36326 1.05190 0.81928
 C338 C 0.38192 1.06753 0.82160
 C339 C 0.38474 1.01364 0.77039
 C340 C 0.36569 1.00399 0.76091
 C341 C 0.36697 0.98606 0.74284
 C342 C 0.34740 0.98318 0.72825
 C343 C 0.34772 0.96641 0.71108
 C344 C 0.36760 0.95192 0.70824
 C345 C 0.38708 0.95457 0.72309
 C346 C 0.38678 0.97141 0.74024
 H347 H 0.41657 1.07547 0.80781
 H348 H 0.41737 1.04531 0.77947
 H349 H 0.34944 1.02268 0.80207
 H350 H 0.34776 1.05299 0.82987
 H351 H 0.40210 1.00898 0.76416
 H352 H 0.34830 1.01028 0.76554
 H353 H 0.33181 0.99405 0.73005
 H354 H 0.33225 0.96472 0.70023
 H355 H 0.40269 0.94374 0.72148
 H356 H 0.40194 0.97258 0.75159
 C357 C 0.86994 0.46062 0.17436
 C358 C 0.87021 0.47818 0.19072
 C359 C 0.87944 0.47410 0.21292
 C360 C 0.88895 0.45220 0.21830
 C361 C 0.88887 0.43471 0.20186
 C362 C 0.87927 0.43870 0.17975
 C363 C 0.87960 0.49318 0.22973
 C364 C 0.87867 0.48985 0.25259
 C365 C 0.87858 0.50892 0.26942
 C366 C 0.86766 0.50578 0.29076
 C367 C 0.86743 0.52331 0.30717
 C368 C 0.87850 0.54423 0.30272
 C369 C 0.88976 0.54725 0.28147
 C370 C 0.88979 0.52980 0.26498
 H371 H 0.86276 0.46428 0.15735
 H372 H 0.86304 0.49497 0.18609
 H373 H 0.89682 0.44861 0.23502
 H374 H 0.89611 0.41797 0.20652
 H375 H 0.87918 0.51053 0.22291
 H376 H 0.87663 0.47262 0.25930
 H377 H 0.85913 0.48976 0.29469
 H378 H 0.85887 0.52029 0.32347
 H379 H 0.89843 0.56315 0.27747
 H380 H 0.89897 0.53259 0.24897
 C381 C 0.30911 0.15152 -0.05977
 C382 C 0.29118 0.15222 -0.04341
 C383 C 0.28063 0.13194 -0.03594
 C384 C 0.28798 0.11090 -0.04566
 C385 C 0.30588 0.11020 -0.06204
 C386 C 0.31674 0.13048 -0.06922
 C387 C 0.26170 0.13347 -0.01852
 C388 C 0.25626 0.11599 -0.00451
 C389 C 0.23762 0.11745 0.01321
 C390 C 0.23860 0.10190 0.03175
 C391 C 0.22126 0.10236 0.04868
 C392 C 0.20235 0.11831 0.04740
 C393 C 0.20124 0.13376 0.02870
 C394 C 0.21861 0.13330 0.01175
 H395 H 0.31680 0.16749 -0.06522
 H396 H 0.28564 0.16868 -0.03644
 H397 H 0.27980 0.09495 -0.04095
 H398 H 0.31139 0.09371 -0.06889
 H399 H 0.25292 0.15000 -0.01645
 H400 H 0.26662 0.10020 -0.00512
 H401 H 0.25295 0.08941 0.03322
 H402 H 0.22286 0.09025 0.06282
 H403 H 0.18679 0.14603 0.02687
 H404 H 0.21673 0.14506 -0.00265
 C405 C 0.67373 0.63038 0.53936
 C406 C 0.69017 0.62985 0.52158
 C407 C 0.71365 0.62301 0.52594
 C408 C 0.72026 0.61615 0.54842
 C409 C 0.70376 0.61651 0.56616
 C410 C 0.68034 0.62371 0.56185
 C411 C 0.73048 0.62248 0.50657
 C412 C 0.75375 0.62512 0.50942
 C413 C 0.77057 0.62485 0.49004
 C414 C 0.79172 0.63675 0.49235
 C415 C 0.80817 0.63667 0.47457
 C416 C 0.80397 0.62437 0.45418
 C417 C 0.78292 0.61219 0.45198
 C418 C 0.76639 0.61241 0.46970
 H419 H 0.65573 0.63565 0.53544
 H420 H 0.68457 0.63495 0.50436
 H421 H 0.73802 0.61013 0.55230
 H422 H 0.70939 0.61134 0.58332
 H423 H 0.72318 0.62112 0.48932
 H424 H 0.76075 0.62883 0.52641
 H425 H 0.79547 0.64625 0.50794
 H426 H 0.82431 0.64599 0.47699
 H427 H 0.77909 0.60255 0.43653
 H428 H 0.75060 0.60247 0.46756
 C429 C 0.79331 0.38313 0.07437
 C430 C 0.77510 0.38228 0.05800
 C431 C 0.77941 0.37391 0.03576
 C432 C 0.80221 0.36577 0.03036
 C433 C 0.82037 0.36646 0.04679
 C434 C 0.81615 0.37527 0.06893
 C435 C 0.75966 0.37334 0.01889
 C436 C 0.76276 0.37477 -0.00396
 C437 C 0.74298 0.37490 -0.02083
 C438 C 0.74581 0.38600 -0.04210
 C439 C 0.72757 0.38651 -0.05847
 C440 C 0.70619 0.37559 -0.05405
 C441 C 0.70352 0.36408 -0.03291
 C442 C 0.72170 0.36374 -0.01646
 H443 H 0.78944 0.38966 0.09139
 H444 H 0.75764 0.38839 0.06266
 H445 H 0.80604 0.35857 0.01361
 H446 H 0.83779 0.36034 0.04208
 H447 H 0.74195 0.37314 0.02568
 H448 H 0.78028 0.37734 -0.01063
 H449 H 0.76213 0.39450 -0.04599
 H450 H 0.73037 0.39525 -0.07468
 H451 H 0.68730 0.35549 -0.02893
 H452 H 0.71914 0.35442 -0.00053
 C453 C 0.19175 0.84874 0.43872
 C454 C 0.20917 0.84792 0.45592
 C455 C 0.21887 0.86820 0.46449
 C456 C 0.21120 0.88940 0.45503
 C457 C 0.19381 0.89022 0.43780
 C458 C 0.18379 0.86991 0.42951
 C459 C 0.23731 0.86652 0.48276
 C460 C 0.24178 0.88357 0.49757
 C461 C 0.25985 0.88183 0.51618
 C462 C 0.25768 0.89631 0.53535
 C463 C 0.27440 0.89545 0.55318
 C464 C 0.29389 0.88019 0.55218
 C465 C 0.29622 0.86587 0.53283
 C466 C 0.27946 0.86671 0.51499
 H467 H 0.18471 0.83277 0.43244
 H468 H 0.21498 0.83135 0.46268
 H469 H 0.21875 0.90539 0.46062
 H470 H 0.18803 0.90680 0.43114
 H471 H 0.24650 0.85015 0.48475
 H472 H 0.23099 0.89911 0.49697
 H473 H 0.24285 0.90824 0.53662
 H474 H 0.27187 0.90671 0.56777
 H475 H 0.31114 0.85416 0.53119
 H476 H 0.28225 0.85583 0.50016
   
