data_POSCAR
  _audit_creation_date              2014-09-24
  _audit_creation_method            'ToBaCCo'
  _symmetry_space_group_name_H-M    'P1'
  _symmetry_Int_Tables_number       1
  _symmetry_cell_setting            triclinic
  loop_
  _symmetry_equiv_pos_as_xyz
 x,y,z
_cell_length_a 23.9247
_cell_length_b 23.9247
_cell_length_c 30.7420
_cell_angle_alpha 89.870300
_cell_angle_beta 90.129700
_cell_angle_gamma 90.079600
loop_
  _atom_site_label
  _atom_site_type_symbol
  _atom_site_fract_x
  _atom_site_fract_y
  _atom_site_fract_z
O1 O 0.04752 0.55485 1.04093
 O2 O 0.04745 0.44688 0.95664
 O3 O 0.04361 0.55606 0.95647
 O4 O 0.04393 0.44570 1.04111
 O5 O -0.04851 0.44647 1.04094
 O6 O -0.04881 0.55481 0.95655
 O7 O -0.04497 0.44563 0.95648
 O8 O -0.04491 0.55561 1.04102
 Cu9 Cu 0.05490 0.50089 0.99878
 Cu10 Cu -0.05607 0.50061 0.99873
 C11 C 0.00166 0.57394 1.05499
 C12 C 0.00159 0.42751 0.94258
 C13 C -0.00300 0.57425 0.94250
 C14 C -0.00259 0.42731 1.05505
 O15 O 0.55478 -0.04877 0.54325
 O16 O 0.44643 -0.04847 0.45886
 O17 O 0.55558 -0.04488 0.45877
 O18 O 0.44560 -0.04494 0.54332
 O19 O 0.44684 0.04749 0.54316
 O20 O 0.55482 0.04755 0.45886
 O21 O 0.44567 0.04396 0.45869
 O22 O 0.55603 0.04364 0.54332
 Cu23 Cu 0.50058 -0.05604 0.50106
 Cu24 Cu 0.50086 0.05493 0.50102
 C25 C 0.57422 -0.00297 0.55729
 C26 C 0.42728 -0.00256 0.44475
 C27 C 0.57390 0.00170 0.44481
 C28 C 0.42748 0.00162 0.55722
 C29 C -0.07356 0.01146 0.26951
 C30 C -0.02171 0.02182 0.24991
 C31 C -0.01147 0.07380 0.23032
 C32 C -0.05299 0.11497 0.22987
 C33 C -0.10459 0.10471 0.24994
 C34 C -0.11473 0.05299 0.27000
 C35 C 0.02178 -0.02167 0.24989
 C36 C 0.01143 -0.07353 0.23029
 C37 C 0.05295 -0.11469 0.22980
 C38 C 0.10468 -0.10455 0.24985
 C39 C 0.11494 -0.05296 0.26993
 C40 C 0.07377 -0.01144 0.26947
 H41 H -0.08139 -0.02849 0.28509
 H42 H 0.02838 0.08172 0.21472
 H43 H -0.02853 -0.08136 0.21470
 H44 H 0.08169 0.02842 0.28507
 H45 H -0.13661 0.13674 0.24996
 H46 H 0.13670 -0.13658 0.24984
 C47 C -0.01177 -0.07408 0.76940
 C48 C -0.02209 -0.02206 0.74990
 C49 C -0.07412 -0.01174 0.73040
 C50 C -0.11534 -0.05331 0.72993
 C51 C -0.10510 -0.10507 0.74990
 C52 C -0.05335 -0.11531 0.76986
 C53 C 0.02147 0.02150 0.74990
 C54 C 0.07351 0.01116 0.73067
 C55 C 0.11474 0.05273 0.73019
 C56 C 0.10448 0.10451 0.74990
 C57 C 0.05270 0.11478 0.76960
 C58 C 0.01112 0.07355 0.76913
 H59 H 0.02820 -0.08199 0.78492
 H60 H -0.08202 0.02823 0.71487
 H61 H 0.08144 -0.02883 0.71534
 H62 H -0.02887 0.08147 0.78445
 H63 H -0.13717 -0.13714 0.74990
 H64 H 0.13655 0.13658 0.74990
 C65 C 0.00331 -0.38170 0.08628
 C66 C 0.00762 -0.34331 0.11139
 C67 C 0.01527 -0.29721 0.13937
 C68 C 0.02330 -0.25691 0.16201
 C69 C 0.03371 -0.20861 0.18707
 C70 C 0.04274 -0.16638 0.20722
 C71 C -0.00410 0.38280 0.08636
 C72 C -0.00829 0.34428 0.11149
 C73 C -0.01581 0.29803 0.13948
 C74 C -0.02372 0.25761 0.16212
 C75 C -0.03400 0.20916 0.18716
 C76 C -0.04292 0.16680 0.20731
 C77 C 0.38298 0.00323 0.58838
 C78 C 0.34443 0.00751 0.61333
 C79 C 0.29811 0.01512 0.64105
 C80 C 0.25761 0.02312 0.66343
 C81 C 0.20907 0.03351 0.68814
 C82 C 0.16664 0.04252 0.70799
 C83 C -0.38356 -0.00454 0.58683
 C84 C -0.34499 -0.00862 0.61194
 C85 C -0.29867 -0.01605 0.63988
 C86 C -0.25817 -0.02392 0.66245
 C87 C -0.20964 -0.03419 0.68741
 C88 C -0.16722 -0.04314 0.70747
 C89 C -0.00457 -0.38352 0.91297
 C90 C -0.00865 -0.34496 0.88786
 C91 C -0.01608 -0.29864 0.85992
 C92 C -0.02395 -0.25814 0.83734
 C93 C -0.03422 -0.20961 0.81239
 C94 C -0.04318 -0.16719 0.79233
 C95 C 0.00320 0.38301 0.91141
 C96 C 0.00747 0.34446 0.88647
 C97 C 0.01509 0.29814 0.85875
 C98 C 0.02309 0.25764 0.83636
 C99 C 0.03347 0.20911 0.81165
 C100 C 0.04249 0.16668 0.79180
 C101 C -0.38173 0.00335 0.41352
 C102 C -0.34334 0.00765 0.38840
 C103 C -0.29724 0.01531 0.36042
 C104 C -0.25694 0.02333 0.33778
 C105 C -0.20864 0.03374 0.31273
 C106 C -0.16641 0.04278 0.29257
 C107 C 0.38277 -0.00407 0.41343
 C108 C 0.34425 -0.00826 0.38830
 C109 C 0.29800 -0.01578 0.36032
 C110 C 0.25757 -0.02369 0.33768
 C111 C 0.20913 -0.03397 0.31263
 C112 C 0.16676 -0.04289 0.29249
   
