data_POSCAR
  _audit_creation_date              2014-09-24
  _audit_creation_method            'ToBaCCo'
  _symmetry_space_group_name_H-M    'P1'
  _symmetry_Int_Tables_number       1
  _symmetry_cell_setting            triclinic
  loop_
  _symmetry_equiv_pos_as_xyz
 x,y,z
_cell_length_a 37.1982
_cell_length_b 38.5922
_cell_length_c 35.8321
_cell_angle_alpha 91.109200
_cell_angle_beta 90.887200
_cell_angle_gamma 89.821500
loop_
  _atom_site_label
  _atom_site_type_symbol
  _atom_site_fract_x
  _atom_site_fract_y
  _atom_site_fract_z
C1 C 0.19875 0.18916 0.23951
 C2 C 0.18539 0.22218 0.23101
 C3 C 0.20251 0.24224 0.20439
 C4 C 0.23304 0.22939 0.18635
 C5 C 0.24645 0.19643 0.19466
 C6 C 0.22935 0.17634 0.22133
 H7 H 0.16135 0.23196 0.24442
 H8 H 0.24572 0.24468 0.16515
 H9 H 0.23936 0.15055 0.22734
 C10 C -0.21768 0.80506 0.23670
 C11 C -0.20247 0.77391 0.22339
 C12 C -0.21628 0.75777 0.19082
 C13 C -0.24532 0.77269 0.17165
 C14 C -0.26052 0.80375 0.18474
 C15 C -0.24677 0.81990 0.21730
 H16 H -0.17952 0.76265 0.23780
 H17 H -0.25553 0.76059 0.14605
 H18 H -0.25818 0.84432 0.22697
 C19 C -0.19562 0.20446 -0.23624
 C20 C -0.17982 0.23371 -0.21879
 C21 C -0.19881 0.25267 -0.19159
 C22 C -0.23349 0.24241 -0.18199
 C23 C -0.24921 0.21325 -0.19927
 C24 C -0.23036 0.19441 -0.22645
 H25 H -0.15267 0.24124 -0.22565
 H26 H -0.24780 0.25648 -0.16030
 H27 H -0.24237 0.17136 -0.23915
 C28 C 0.19448 0.78516 -0.23519
 C29 C 0.18135 0.75488 -0.21920
 C30 C 0.20224 0.73740 -0.19251
 C31 C 0.23619 0.75018 -0.18192
 C32 C 0.24927 0.78038 -0.19787
 C33 C 0.22849 0.79774 -0.22454
 H34 H 0.15477 0.74536 -0.22682
 H35 H 0.25193 0.73723 -0.16058
 H36 H 0.23844 0.82155 -0.23623
 C37 C 0.17772 1.21228 0.75266
 C38 C 0.16808 1.24544 0.76543
 C39 C 0.18530 1.26011 0.79691
 C40 C 0.21240 1.24162 0.81565
 C41 C 0.22217 1.20839 0.80279
 C42 C 0.20485 1.19381 0.77126
 H43 H 0.14658 1.25951 0.75151
 H44 H 0.22528 1.25272 0.84045
 H45 H 0.21205 1.16789 0.76168
 C46 C 0.80504 0.79799 0.74439
 C47 C 0.81968 0.76976 0.76342
 C48 C 0.80638 0.76081 0.79831
 C49 C 0.77818 0.78001 0.81409
 C50 C 0.76345 0.80824 0.79507
 C51 C 0.77683 0.81716 0.76020
 H52 H 0.84218 0.75549 0.75167
 H53 H 0.76834 0.77364 0.84146
 H54 H 0.76601 0.83957 0.74598
 C55 C 0.22721 0.78642 1.26136
 C56 C 0.21303 0.75744 1.24239
 C57 C 0.22673 0.74702 1.20781
 C58 C 0.25517 0.76535 1.19231
 C59 C 0.26967 0.79427 1.21148
 C60 C 0.25570 0.80473 1.24603
 H61 H 0.19012 0.74398 1.25360
 H62 H 0.26501 0.75798 1.16495
 H63 H 0.26595 0.82791 1.26008
 C64 C 0.81350 1.19162 1.24087
 C65 C 0.78096 1.17642 1.22909
 C66 C 0.76167 1.19008 1.19882
 C67 C 0.77491 1.21900 1.18036
 C68 C 0.80742 1.23416 1.19219
 C69 C 0.82658 1.22052 1.22247
 H70 H 0.77107 1.15360 1.24282
 H71 H 0.76040 1.22919 1.15647
 H72 H 0.85208 1.23196 1.23111
 O73 O 0.52713 0.97495 0.91162
 O74 O 0.46875 0.99070 1.07644
 O75 O 0.56354 0.98837 1.01473
 O76 O 0.44922 0.95116 0.96183
 O77 O 0.51566 0.96313 1.03518
 O78 O 0.45907 0.97522 0.90982
 O79 O 0.45072 0.96297 1.02665
 O80 O 0.56823 0.99993 0.94774
 C81 C 0.55923 0.97762 0.92277
 C82 C 0.44673 0.96837 1.06135
 C83 C 0.54885 0.96252 1.02958
 C84 C 0.44875 0.94953 0.92736
 O85 O 0.45990 1.04283 0.91556
 O86 O 0.53062 1.02069 1.06614
 O87 O 0.54201 1.06523 0.96117
 O88 O 0.42533 1.02842 1.01462
 O89 O 0.47291 1.04768 1.04192
 O90 O 0.52707 1.04146 0.90909
 O91 O 0.42038 1.01507 0.94797
 O92 O 0.53782 1.05590 1.02404
 Co93 Co 0.49331 1.00868 0.91812
 Co94 Co 0.49313 1.00518 1.03626
 Co95 Co 0.54855 1.02583 0.98666
 Co96 Co 0.44135 0.99122 0.98717
 O97 O 0.49551 1.00902 0.97970
 C98 C 0.42833 1.03942 0.92639
 C99 C 0.54484 1.04794 1.05659
 C100 C 0.54093 1.06617 0.92681
 C101 C 0.44041 1.05119 1.03459
 O102 O 0.03197 0.46787 0.08988
 O103 O 0.02697 0.53419 -0.05574
 O104 O 0.05164 0.46386 -0.02355
 O105 O 0.01516 0.57465 0.05443
 O106 O 0.01248 0.47207 -0.06462
 O107 O 0.03735 0.53221 0.08591
 O108 O 0.04486 0.55766 -0.00437
 O109 O 0.05881 0.45292 0.03979
 C110 C 0.05762 0.45304 0.07421
 C111 C 0.05015 0.55152 -0.03790
 C112 C 0.04339 0.46244 -0.05670
 C113 C 0.03784 0.56350 0.07752
 O114 O -0.03417 0.53655 0.08385
 O115 O -0.05147 0.48223 -0.03617
 O116 O -0.01041 0.43106 0.04524
 O117 O -0.01316 0.59141 -0.01351
 O118 O -0.04211 0.54600 -0.03660
 O119 O -0.03642 0.47009 0.08203
 O120 O -0.04730 0.55482 0.02884
 O121 O -0.01858 0.43759 -0.02153
 Co122 Co -0.00022 0.50218 0.07897
 Co123 Co -0.01178 0.50822 -0.04206
 Co124 Co 0.01897 0.45064 0.00994
 Co125 Co -0.00094 0.55317 0.01160
 O126 O 0.00278 0.50168 0.01758
 C127 C -0.05448 0.55342 0.06259
 C128 C -0.04805 0.45009 -0.03328
 C129 C -0.03413 0.43953 0.06908
 C130 C -0.03554 0.57843 -0.03885
 O131 O 1.07180 0.02264 0.46854
 O132 O 0.94970 0.03089 0.54242
 O133 O 0.97217 0.01019 0.42617
 O134 O 1.01246 0.03703 0.55322
 O135 O 0.95503 0.04017 0.47501
 O136 O 1.06644 0.02263 0.53891
 O137 O 0.97023 0.00408 0.59176
 O138 O 1.03749 0.00100 0.42282
 C139 C 1.06206 0.02159 0.43462
 C140 C 0.94674 0.02559 0.57731
 C141 C 0.96010 0.03805 0.44058
 C142 C 1.04502 0.04408 0.55303
 O143 O 1.06506 -0.04718 0.53491
 O144 O 0.92746 -0.02079 0.45983
 O145 O 1.02849 -0.06579 0.44147
 O146 O 0.98121 -0.05213 0.55533
 O147 O 0.93300 -0.03656 0.52675
 O148 O 1.07562 -0.04358 0.46752
 O149 O 1.03584 -0.02188 0.57859
 O150 O 0.96661 -0.05840 0.44975
 Co151 Co 1.06360 -0.01132 0.50259
 Co152 Co 0.94751 0.00149 0.50094
 Co153 Co 1.00085 -0.02686 0.44001
 Co154 Co 0.99644 -0.00795 0.55161
 O155 O 1.00506 -0.01252 0.49668
 C156 C 1.05749 -0.04491 0.56855
 C157 C 0.93495 -0.04999 0.44729
 C158 C 1.06125 -0.06685 0.44801
 C159 C 0.94949 -0.05828 0.54631
 C160 C 1.08534 0.06775 0.34549
 C161 C 1.11363 0.08915 0.35786
 C162 C 1.12467 0.08876 0.39535
 C163 C 1.10773 0.06697 0.42033
 C164 C 1.18118 0.16897 0.26418
 C165 C 1.06835 0.04589 0.37043
 C166 C 1.13171 0.11119 0.33211
 C167 C 1.14718 0.12955 0.31073
 C168 C 1.16551 0.15091 0.28571
 C169 C 1.07947 0.04513 0.40815
 H170 H 1.07654 0.06784 0.31653
 H171 H 1.14651 0.10518 0.40527
 H172 H 1.11696 0.06709 0.44915
 H173 H 1.04662 0.02952 0.36016
 C174 C 0.85305 -0.07802 0.39002
 C175 C 0.86426 -0.11058 0.37653
 C176 C 0.89716 -0.12427 0.38874
 C177 C 0.91937 -0.10509 0.41314
 C178 C 0.79708 -0.17809 0.26707
 C179 C 0.87526 -0.05876 0.41462
 C180 C 0.84364 -0.12903 0.34811
 C181 C 0.82786 -0.14461 0.32333
 C182 C 0.81077 -0.16280 0.29336
 C183 C 0.90902 -0.07182 0.42574
 H184 H 0.82769 -0.06708 0.38067
 H185 H 0.90620 -0.14936 0.37847
 H186 H 0.94519 -0.11587 0.42121
 H187 H 0.86666 -0.03318 0.42375
 C188 C 0.88798 0.10062 0.60938
 C189 C 0.88955 0.09717 0.64820
 C190 C 0.90868 0.06951 0.66369
 C191 C 0.92661 0.04572 0.64058
 C192 C 0.82315 0.18443 0.73895
 C193 C 0.90589 0.07683 0.58619
 C194 C 0.87171 0.12200 0.67226
 C195 C 0.85678 0.14239 0.69282
 C196 C 0.83896 0.16557 0.71745
 C197 C 0.92568 0.04931 0.60159
 H198 H 0.87317 0.12185 0.59703
 H199 H 0.91000 0.06648 0.69368
 H200 H 0.94156 0.02480 0.65328
 H201 H 0.90472 0.08030 0.55628
 C202 C 1.08075 -0.09022 0.65894
 C203 C 1.10522 -0.11541 0.64650
 C204 C 1.11391 -0.11753 0.60868
 C205 C 1.09836 -0.09456 0.58341
 C206 C 1.17389 -0.19644 0.74032
 C207 C 1.06513 -0.06716 0.63367
 C208 C 1.12236 -0.13846 0.67251
 C209 C 1.13764 -0.15744 0.69395
 C210 C 1.15665 -0.17898 0.71891
 C211 C 1.07389 -0.06903 0.59562
 H212 H 1.07392 -0.08827 0.68819
 H213 H 1.13289 -0.13682 0.59874
 H214 H 1.10561 -0.09674 0.55429
 H215 H 1.04631 -0.04788 0.64389
 C216 C 0.36058 1.10702 1.05929
 C217 C 0.37327 1.12426 1.09155
 C218 C 0.40939 1.12078 1.10253
 C219 C 0.43226 1.09873 1.08235
 C220 C 0.27458 1.18317 1.17500
 C221 C 0.38328 1.08490 1.03923
 C222 C 0.34821 1.14261 1.11499
 C223 C 0.32598 1.15640 1.13445
 C224 C 0.29874 1.17120 1.15671
 C225 C 0.41904 1.07971 1.05121
 H226 H 0.33269 1.10949 1.05054
 H227 H 0.41946 1.13393 1.12753
 H228 H 0.45962 1.09507 1.09233
 H229 H 0.37237 1.07066 1.01530
 C230 C 0.40517 0.89432 0.85106
 C231 C 0.38965 0.86816 0.87195
 C232 C 0.39664 0.86667 0.91036
 C233 C 0.41765 0.89217 0.92815
 C234 C 0.28246 0.79553 0.81544
 C235 C 0.42625 0.91986 0.86879
 C236 C 0.36306 0.84562 0.85506
 C237 C 0.33904 0.82827 0.84179
 C238 C 0.30920 0.80978 0.82720
 C239 C 0.43179 0.91962 0.90771
 H240 H 0.39970 0.89586 0.82135
 H241 H 0.38454 0.84669 0.92684
 H242 H 0.42147 0.89124 0.95815
 H243 H 0.43679 0.94065 0.85232
 C244 C 0.58032 0.88712 1.08766
 C245 C 0.61728 0.88731 1.08082
 C246 C 0.63105 0.90958 1.05424
 C247 C 0.60830 0.93275 1.03585
 C248 C 0.71138 0.82010 1.16327
 C249 C 0.55745 0.91024 1.06919
 C250 C 0.64161 0.86697 1.10313
 C251 C 0.66284 0.85129 1.12221
 C252 C 0.68861 0.83412 1.14456
 C253 C 0.57142 0.93398 1.04390
 H254 H 0.56940 0.87004 1.10825
 H255 H 0.65960 0.90996 1.04873
 H256 H 0.61982 0.95063 1.01644
 H257 H 0.52920 0.91069 1.07607
 C258 C 0.60065 1.14304 0.90949
 C259 C 0.60509 1.14018 0.87084
 C260 C 0.58532 1.11556 0.85005
 C261 C 0.56254 1.09272 0.86806
 C262 C 0.71678 1.20072 0.81337
 C263 C 0.57794 1.12023 0.92756
 C264 C 0.63315 1.15936 0.85346
 C265 C 0.65826 1.17382 0.83982
 C266 C 0.68923 1.18904 0.82501
 C267 C 0.55952 1.09411 0.90716
 H268 H 0.61602 1.16185 0.92588
 H269 H 0.58875 1.11297 0.82015
 H270 H 0.54873 1.07290 0.85159
 H271 H 0.57619 1.12197 0.95769
 C272 C 0.10062 0.40442 0.15405
 C273 C 0.12668 0.38485 0.13528
 C274 C 0.13263 0.39037 0.09739
 C275 C 0.11149 0.41415 0.07788
 C276 C 0.18734 0.27487 0.19323
 C277 C 0.07945 0.42828 0.13461
 C278 C 0.14469 0.35669 0.15361
 C279 C 0.15879 0.33184 0.16758
 C280 C 0.17443 0.30155 0.18224
 C281 C 0.08398 0.43265 0.09606
 H282 H 0.09566 0.40023 0.18334
 H283 H 0.15263 0.37526 0.08253
 H284 H 0.11563 0.41690 0.04823
 H285 H 0.05846 0.44209 0.14938
 C286 C -0.09474 0.36674 -0.06146
 C287 C -0.11936 0.37820 -0.08845
 C288 C -0.12356 0.41380 -0.09428
 C289 C -0.10198 0.43772 -0.07441
 C290 C -0.18215 0.28121 -0.17143
 C291 C -0.07310 0.39051 -0.04176
 C292 C -0.13816 0.35309 -0.11172
 C293 C -0.15259 0.33115 -0.13112
 C294 C -0.16860 0.30456 -0.15332
 C295 C -0.07576 0.42618 -0.04876
 H296 H -0.09129 0.33929 -0.05662
 H297 H -0.14254 0.42297 -0.11512
 H298 H -0.10449 0.46499 -0.08057
 H299 H -0.05322 0.38081 -0.02216
 C300 C 0.10788 0.58269 -0.11610
 C301 C 0.12731 0.60921 -0.09791
 C302 C 0.12500 0.61360 -0.05914
 C303 C 0.10176 0.59291 -0.03892
 C304 C 0.18791 0.70783 -0.17391
 C305 C 0.08462 0.56198 -0.09595
 C306 C 0.14617 0.63434 -0.11938
 C307 C 0.16036 0.65659 -0.13713
 C308 C 0.17560 0.68379 -0.15737
 C309 C 0.08036 0.56772 -0.05737
 H310 H 0.10937 0.57912 -0.14610
 H311 H 0.13981 0.63413 -0.04479
 H312 H 0.09899 0.59802 -0.00927
 H313 H 0.06853 0.54276 -0.11092
 C314 C -0.11526 0.59689 0.13306
 C315 C -0.13171 0.62242 0.11143
 C316 C -0.12579 0.62296 0.07293
 C317 C -0.10226 0.59903 0.05642
 C318 C -0.19937 0.72715 0.17545
 C319 C -0.09171 0.57300 0.11665
 C320 C -0.15197 0.64981 0.12925
 C321 C -0.16768 0.67352 0.14424
 C322 C -0.18504 0.70211 0.16146
 C323 C -0.08419 0.57440 0.07833
 H324 H -0.11957 0.59627 0.16288
 H325 H -0.13829 0.64268 0.05593
 H326 H -0.09691 0.60091 0.02690
 H327 H -0.07823 0.55437 0.13428
 C328 C 1.11071 0.11041 0.59116
 C329 C 1.09016 0.12719 0.61841
 C330 C 1.05357 0.11943 0.62147
 C331 C 1.03801 0.09370 0.59846
 C332 C 1.15937 0.19723 0.72352
 C333 C 1.09532 0.08464 0.56831
 C334 C 1.10778 0.14912 0.64583
 C335 C 1.12362 0.16567 0.66963
 C336 C 1.14284 0.18328 0.69833
 C337 C 1.05911 0.07531 0.57251
 H338 H 1.13907 0.11612 0.58869
 H339 H 1.03750 0.13215 0.64268
 H340 H 1.01009 0.08694 0.60236
 H341 H 1.11215 0.07102 0.54842
 C342 C 0.92863 -0.13324 0.60826
 C343 C 0.89128 -0.13547 0.60361
 C344 C 0.87385 -0.11586 0.57627
 C345 C 0.89339 -0.09248 0.55528
 C346 C 0.82051 -0.19129 0.71242
 C347 C 0.94821 -0.10985 0.58737
 C348 C 0.87061 -0.15381 0.63042
 C349 C 0.85390 -0.16720 0.65479
 C350 C 0.83533 -0.18090 0.68516
 C351 C 0.93055 -0.08827 0.56172
 H352 H 0.94236 -0.14813 0.62951
 H353 H 0.84492 -0.11723 0.57260
 H354 H 0.87906 -0.07623 0.53569
 H355 H 0.97679 -0.10720 0.59296
 C356 C 1.09174 -0.14043 0.38476
 C357 C 1.12887 -0.14015 0.39176
 C358 C 1.14332 -0.11821 0.41959
 C359 C 1.12093 -0.09550 0.43925
 C360 C 1.21007 -0.20077 0.29191
 C361 C 1.06926 -0.11773 0.40442
 C362 C 1.15241 -0.15919 0.36745
 C363 C 1.17169 -0.17354 0.34534
 C364 C 1.19316 -0.18877 0.31746
 C365 C 1.08380 -0.09434 0.43113
 H366 H 1.08036 -0.15717 0.36305
 H367 H 1.17205 -0.11765 0.42503
 H368 H 1.13292 -0.07791 0.45979
 H369 H 1.04080 -0.11744 0.39758
 C370 C 0.90822 0.11556 0.40551
 C371 C 0.91362 0.11225 0.36704
 C372 C 0.93740 0.08714 0.35323
 C373 C 0.95433 0.06421 0.37756
 C374 C 0.83360 0.17710 0.26854
 C375 C 0.92522 0.09269 0.42995
 C376 C 0.89233 0.13219 0.34138
 C377 C 0.87385 0.14741 0.31915
 C378 C 0.85200 0.16384 0.29228
 C379 C 0.94755 0.06608 0.41605
 H380 H 0.88978 0.13487 0.41645
 H381 H 0.94174 0.08435 0.32348
 H382 H 0.97152 0.04411 0.36605
 H383 H 0.91943 0.09474 0.45944
 C384 C 0.07517 0.41103 -0.14073
 C385 C 0.10983 0.40164 -0.12872
 C386 C 0.12400 0.41565 -0.09540
 C387 C 0.10295 0.43736 -0.07306
 C388 C 0.17279 0.29291 -0.18864
 C389 C 0.05405 0.43294 -0.11843
 C390 C 0.12896 0.37424 -0.14761
 C391 C 0.14411 0.34975 -0.16161
 C392 C 0.16042 0.31963 -0.17651
 C393 C 0.06737 0.44526 -0.08377
 H394 H 0.06386 0.40009 -0.16637
 H395 H 0.15068 0.40840 -0.08574
 H396 H 0.11393 0.44662 -0.04654
 H397 H 0.02670 0.43856 -0.12724
 C398 C -0.10807 0.39600 0.12249
 C399 C -0.10537 0.36178 0.10920
 C400 C -0.08001 0.35313 0.08211
 C401 C -0.05705 0.37849 0.06870
 C402 C -0.17742 0.26254 0.17235
 C403 C -0.08518 0.42141 0.10912
 C404 C -0.12713 0.33520 0.12495
 C405 C -0.14432 0.31265 0.13904
 C406 C -0.16298 0.28585 0.15655
 C407 C -0.05917 0.41287 0.08232
 H408 H -0.12749 0.40293 0.14361
 H409 H -0.07758 0.32666 0.07177
 H410 H -0.03737 0.37106 0.04806
 H411 H -0.08758 0.44764 0.12012
 C412 C -0.07358 0.65927 -0.08263
 C413 C -0.10166 0.64565 -0.10475
 C414 C -0.10783 0.60988 -0.10582
 C415 C -0.08610 0.58782 -0.08460
 C416 C -0.17713 0.73528 -0.18202
 C417 C -0.05187 0.63731 -0.06144
 C418 C -0.12385 0.66864 -0.12631
 C419 C -0.14165 0.68880 -0.14406
 C420 C -0.16138 0.71342 -0.16458
 C421 C -0.05801 0.60139 -0.06208
 H422 H -0.06852 0.68691 -0.08170
 H423 H -0.12945 0.59907 -0.12293
 H424 H -0.09141 0.56024 -0.08563
 H425 H -0.03037 0.64850 -0.04447
 C426 C 0.09409 0.64349 0.09768
 C427 C 0.11926 0.63097 0.12356
 C428 C 0.11745 0.59654 0.13491
 C429 C 0.09065 0.57463 0.12029
 C430 C 0.20838 0.72000 0.18702
 C431 C 0.06727 0.62167 0.08306
 C432 C 0.14596 0.65394 0.13952
 C433 C 0.16727 0.67391 0.15351
 C434 C 0.19051 0.69827 0.17094
 C435 C 0.06525 0.58699 0.09422
 H436 H 0.09514 0.67017 0.08888
 H437 H 0.13667 0.58666 0.15512
 H438 H 0.08991 0.54802 0.12929
 H439 H 0.04827 0.63192 0.06288
 C440 C 0.38236 1.11148 0.87322
 C441 C 0.34678 1.10839 0.88470
 C442 C 0.33778 1.08289 0.91022
 C443 C 0.36427 1.06042 0.92400
 C444 C 0.24901 1.18846 0.82240
 C445 C 0.40882 1.08912 0.88691
 C446 C 0.31955 1.13083 0.86929
 C447 C 0.29718 1.14947 0.85539
 C448 C 0.27122 1.17086 0.83804
 C449 C 0.40007 1.06318 0.91231
 H450 H 0.38964 1.13105 0.85343
 H451 H 0.31029 1.08022 0.91927
 H452 H 0.35671 1.04085 0.94365
 H453 H 0.43613 1.09205 0.87742
 C454 C 0.38505 0.89507 1.08636
 C455 C 0.38292 0.89932 1.12509
 C456 C 0.40168 0.92637 1.14325
 C457 C 0.42256 0.94908 1.12263
 C458 C 0.29624 0.81543 1.19419
 C459 C 0.40579 0.91766 1.06578
 C460 C 0.36068 0.87622 1.14566
 C461 C 0.34124 0.85672 1.16172
 C462 C 0.31748 0.83412 1.17950
 C463 C 0.42476 0.94490 1.08367
 H464 H 0.37056 0.87433 1.07200
 H465 H 0.40008 0.92997 1.17323
 H466 H 0.43685 0.96987 1.13708
 H467 H 0.40699 0.91374 1.03581
 C468 C 0.60599 1.07624 1.13701
 C469 C 0.61964 1.10729 1.12342
 C470 C 0.60704 1.11978 1.08925
 C471 C 0.58173 1.10093 1.06818
 C472 C 0.72954 1.17302 1.18521
 C473 C 0.58048 1.05731 1.11595
 C474 C 0.64833 1.12533 1.14288
 C475 C 0.67323 1.14054 1.15751
 C476 C 0.70325 1.15823 1.17302
 C477 C 0.56862 1.06924 1.08103
 H478 H 0.61571 1.06624 1.16336
 H479 H 0.61751 1.14368 1.07838
 H480 H 0.57310 1.11072 1.04136
 H481 H 0.57092 1.03291 1.12637
 C482 C 0.60337 0.90895 0.86168
 C483 C 0.63898 0.91021 0.87474
 C484 C 0.64859 0.93347 0.90365
 C485 C 0.62270 0.95547 0.91937
 C486 C 0.73616 0.82938 0.81234
 C487 C 0.57746 0.93086 0.87733
 C488 C 0.66562 0.88785 0.85812
 C489 C 0.68777 0.86919 0.84385
 C490 C 0.71374 0.84755 0.82688
 C491 C 0.58683 0.95446 0.90630
 H492 H 0.59564 0.89107 0.83931
 H493 H 0.67609 0.93466 0.91399
 H494 H 0.63074 0.97322 0.94172
 H495 H 0.55010 0.92936 0.86666
   
