data_POSCAR
  _audit_creation_date              2014-09-24
  _audit_creation_method            'ToBaCCo'
  _symmetry_space_group_name_H-M    'P1'
  _symmetry_Int_Tables_number       1
  _symmetry_cell_setting            triclinic
  loop_
  _symmetry_equiv_pos_as_xyz
 x,y,z
_cell_length_a 22.5738
_cell_length_b 21.1727
_cell_length_c 21.2891
_cell_angle_alpha 89.848100
_cell_angle_beta 89.791400
_cell_angle_gamma 90.530800
loop_
  _atom_site_label
  _atom_site_type_symbol
  _atom_site_fract_x
  _atom_site_fract_y
  _atom_site_fract_z
C1 C 0.43139 1.02036 -0.53488
 C2 C 0.42745 1.00448 -0.47018
 C3 C 0.47981 0.99209 -0.43677
 C4 C 0.53764 0.99885 -0.46268
 C5 C 0.54214 1.01668 -0.52753
 C6 C 0.48885 1.02808 -0.56061
 H7 H 0.49229 1.03970 -0.60995
 H8 H 0.47446 0.98054 -0.38742
 C9 C -0.57401 1.47182 -0.00601
 C10 C -0.56854 1.53872 -0.00959
 C11 C -0.51056 1.56445 -0.01031
 C12 C -0.45934 1.52750 -0.00719
 C13 C -0.46520 1.46139 -0.00003
 C14 C -0.52268 1.43515 0.00015
 H15 H -0.52802 1.38428 0.00338
 H16 H -0.50414 1.61515 -0.01333
 C17 C 0.06871 0.53007 0.55314
 C18 C 0.08971 0.46699 0.55958
 C19 C 0.11470 0.43771 0.50600
 C20 C 0.10862 0.46308 0.44538
 C21 C 0.08926 0.52573 0.44006
 C22 C 0.07115 0.55821 0.49331
 H23 H 0.05785 0.60694 0.48691
 H24 H 0.13146 0.39017 0.50981
 O25 O -0.17035 0.99644 -0.07976
 O26 O 0.13529 1.00045 -0.08687
 O27 O -0.01917 1.08289 -0.15902
 O28 O -0.01536 0.91019 -0.15686
 O29 O -0.01265 0.83543 -0.07799
 O30 O -0.02190 1.15957 -0.08227
 O31 O 0.06104 0.99514 -0.16119
 O32 O -0.09853 0.99831 -0.15747
 Zr33 Zr -0.01800 0.99718 -0.10769
 O34 O 0.03751 0.94222 -0.05452
 O35 O -0.07204 1.05339 -0.05342
 C36 C -0.15317 0.99803 -0.13833
 C37 C 0.11629 0.99728 -0.14449
 C38 C -0.02047 1.14115 -0.14011
 C39 C -0.01199 0.85249 -0.13622
 H40 H 0.06033 1.08307 -0.08296
 O41 O 0.03580 1.05562 -0.05548
 H42 H -0.09536 0.91198 -0.07799
 O43 O -0.07033 0.93997 -0.05186
 O44 O 0.13791 1.00611 0.08579
 O45 O -0.16697 0.99431 0.09343
 O46 O 0.06080 1.16253 0.00245
 O47 O 0.06477 0.83780 0.00041
 O48 O -0.09365 0.83439 0.00956
 O49 O -0.09792 1.15857 0.00155
 O50 O -0.00674 1.08477 0.16273
 O51 O -0.01047 0.91320 0.16507
 O52 O -0.01173 1.16066 0.08509
 O53 O -0.01468 0.83687 0.08822
 O54 O 0.13527 1.08853 -0.00061
 O55 O -0.17018 1.08083 0.00468
 O56 O -0.16794 0.90856 0.00805
 O57 O 0.13723 0.91543 -0.00304
 O58 O 0.06616 1.00273 0.16345
 O59 O -0.09247 0.99490 0.16765
 Zr60 Zr 0.08910 1.00087 0.00032
 Zr61 Zr -0.12137 0.99591 0.00570
 Zr62 Zr -0.01786 1.10822 0.00196
 Zr63 Zr -0.01502 0.88845 0.00440
 Zr64 Zr -0.01401 0.99863 0.11356
 O65 O -0.06888 0.94026 0.06229
 O66 O 0.03787 1.05637 0.05765
 C67 C 0.12064 1.00647 0.14434
 C68 C -0.14772 0.99379 0.15112
 C69 C 0.11597 1.14618 0.00121
 C70 C 0.11942 0.85680 -0.00309
 C71 C -0.14875 0.85086 0.00984
 C72 C -0.15261 1.13944 0.00250
 C73 C -0.00425 1.14261 0.14256
 C74 C -0.01113 0.85509 0.14589
 H75 H -0.09374 1.08140 0.08866
 O76 O -0.06963 1.05421 0.06104
 H77 H 0.06614 0.91713 0.08481
 O78 O 0.03970 0.94331 0.05882
 C79 C 0.29367 1.02561 0.33622
 N80 N 0.28231 1.01010 0.39725
 N81 N 0.32576 1.01039 0.43992
 C82 C 0.38231 1.02627 0.42340
 N83 N 0.39234 1.04335 0.36253
 N84 N 0.34941 1.04300 0.32006
 C85 C 0.24802 1.02126 0.28686
 N86 N 0.26363 1.02861 0.22545
 N87 N 0.22345 1.02357 0.17993
 C88 C 0.16589 1.01108 0.19409
 N89 N 0.15022 1.00389 0.25553
 N90 N 0.19048 1.00861 0.30105
 C91 C -0.31561 1.01083 0.34910
 N92 N -0.31385 0.97700 0.40361
 N93 N -0.35791 0.98084 0.44579
 C94 C -0.40504 1.01929 0.43548
 N95 N -0.40477 1.05438 0.38179
 N96 N -0.36148 1.05023 0.33972
 C97 C -0.27164 1.00334 0.29816
 N98 N -0.28646 1.01987 0.23854
 N99 N -0.24760 1.01525 0.19157
 C100 C -0.19195 0.99442 0.20241
 N101 N -0.17696 0.97775 0.26208
 N102 N -0.21619 0.98162 0.30905
 C103 C -0.32706 0.99488 -0.33060
 N104 N -0.31637 1.01813 -0.38928
 N105 N -0.35903 1.01819 -0.43278
 C106 C -0.41397 0.99431 -0.41985
 N107 N -0.42362 0.97055 -0.36110
 N108 N -0.38147 0.97081 -0.31763
 C109 C -0.28160 0.99663 -0.28074
 N110 N -0.29690 0.98404 -0.22008
 N111 N -0.25644 0.98519 -0.17455
 C112 C -0.19885 0.99861 -0.18796
 N113 N -0.18353 1.01117 -0.24865
 N114 N -0.22409 1.01050 -0.29412
 C115 C 0.28607 1.00667 -0.34181
 N116 N 0.28415 0.96689 -0.39193
 N117 N 0.32729 0.96782 -0.43518
 C118 C 0.37310 1.00977 -0.43085
 N119 N 0.37439 1.04968 -0.38098
 N120 N 0.33188 1.04825 -0.33751
 C121 C 0.24162 1.00312 -0.29073
 N122 N 0.25507 1.02574 -0.23275
 N123 N 0.21565 1.02286 -0.18600
 C124 C 0.16085 0.99782 -0.19552
 N125 N 0.14724 0.97537 -0.25359
 N126 N 0.18700 0.97746 -0.30017
 C127 C 0.28236 1.34674 -0.01076
 N128 N 0.28351 1.39389 0.03249
 N129 N 0.32719 1.43688 0.03211
 C130 C 0.37029 1.43519 -0.01260
 N131 N 0.36823 1.38861 -0.05628
 N132 N 0.32519 1.34533 -0.05544
 C133 C 0.23877 1.29497 -0.00698
 N134 N 0.25189 1.23762 -0.03159
 N135 N 0.21329 1.18978 -0.02786
 C136 C 0.15982 1.19777 0.00008
 N137 N 0.14653 1.25521 0.02452
 N138 N 0.18554 1.30282 0.02163
 C139 C 0.29470 0.66814 -0.01450
 N140 N 0.28207 0.60523 -0.01178
 N141 N 0.32563 0.56284 -0.01113
 C142 C 0.38345 0.58162 -0.01292
 N143 N 0.39510 0.64471 -0.01640
 N144 N 0.35202 0.68689 -0.01717
 C145 C 0.24831 0.71637 -0.01285
 N146 N 0.26384 0.77852 -0.01411
 N147 N 0.22288 0.82324 -0.01114
 C148 C 0.16468 0.80748 -0.00672
 N149 N 0.14900 0.74528 -0.00564
 N150 N 0.19006 0.70047 -0.00857
 C151 C -0.31360 0.64966 -0.00632
 N152 N -0.35453 0.65222 -0.05251
 N153 N -0.39798 0.60963 -0.05524
 C154 C -0.40258 0.56271 -0.01185
 N155 N -0.36079 0.55917 0.03384
 N156 N -0.31664 0.60159 0.03615
 C157 C -0.27066 0.70169 -0.00009
 N158 N -0.21768 0.69348 0.02855
 N159 N -0.17909 0.74138 0.03257
 C160 C -0.19266 0.79938 0.00939
 N161 N -0.24596 0.80768 -0.01837
 N162 N -0.28409 0.75963 -0.02325
 C163 C -0.32718 1.32925 0.00534
 N164 N -0.31687 1.38817 -0.01809
 N165 N -0.35988 1.43109 -0.01881
 C166 C -0.41460 1.41687 0.00446
 N167 N -0.42415 1.35811 0.02851
 N168 N -0.38153 1.31523 0.02888
 C169 C -0.28145 1.28028 0.00408
 N170 N -0.29624 1.21921 0.01682
 N171 N -0.25541 1.17420 0.01572
 C172 C -0.19810 1.18867 0.00218
 N173 N -0.18325 1.24978 -0.01049
 N174 N -0.22420 1.29476 -0.00985
 C175 C 0.08472 1.32988 0.30372
 N176 N 0.07526 1.39184 0.29161
 N177 N 0.08784 1.43536 0.33466
 C178 C 0.11070 1.41883 0.39119
 N179 N 0.12308 1.35693 0.40141
 N180 N 0.11036 1.31331 0.35865
 C181 C 0.06159 1.28129 0.26173
 N182 N 0.06053 1.21985 0.28006
 N183 N 0.03697 1.17569 0.24320
 C184 C 0.01306 1.19162 0.18706
 N185 N 0.01390 1.25314 0.16891
 N186 N 0.03718 1.29733 0.20590
 C187 C 0.03937 1.33741 -0.30571
 N188 N 0.08575 1.32625 -0.34424
 N189 N 0.10424 1.37012 -0.38451
 C190 C 0.07722 1.42711 -0.38852
 N191 N 0.03153 1.43868 -0.34839
 N192 N 0.01328 1.39490 -0.30727
 C193 C 0.01744 1.28653 -0.26530
 N194 N -0.01205 1.29881 -0.21119
 N195 N -0.02707 1.25177 -0.17245
 C196 C -0.01424 1.19096 -0.18719
 N197 N 0.01374 1.17873 -0.24214
 N198 N 0.02940 1.22573 -0.28043
 C199 C 0.02001 0.65503 -0.30848
 N200 N 0.05200 0.60312 -0.29324
 N201 N 0.06620 0.56083 -0.33706
 C202 C 0.04849 0.56880 -0.39752
 N203 N 0.01533 0.62024 -0.41154
 N204 N 0.00146 0.66243 -0.36819
 C205 C 0.00923 0.70527 -0.26325
 N206 N -0.00879 0.76289 -0.28353
 N207 N -0.01601 0.81022 -0.24328
 C208 C -0.00585 0.80117 -0.18127
 N209 N 0.01172 0.74341 -0.16099
 N210 N 0.01946 0.69629 -0.20128
 C211 C 0.05453 0.65363 0.29989
 N212 N 0.02101 0.60038 0.30499
 N213 N 0.03550 0.55551 0.34588
 C214 C 0.08503 0.56142 0.38141
 N215 N 0.11927 0.61402 0.37484
 N216 N 0.10444 0.65924 0.33462
 C217 C 0.03460 0.70650 0.26191
 N218 N 0.05367 0.76603 0.27482
 N219 N 0.03584 0.81457 0.24013
 C220 C -0.00175 0.80506 0.19150
 N221 N -0.02123 0.74558 0.17903
 N222 N -0.00405 0.69717 0.21423
   
