data_POSCAR
  _audit_creation_date              2014-09-24
  _audit_creation_method            'ToBaCCo'
  _symmetry_space_group_name_H-M    'P1'
  _symmetry_Int_Tables_number       1
  _symmetry_cell_setting            triclinic
  loop_
  _symmetry_equiv_pos_as_xyz
 x,y,z
_cell_length_a 44.4082
_cell_length_b 42.4733
_cell_length_c 31.2411
_cell_angle_alpha 89.475100
_cell_angle_beta 91.872700
_cell_angle_gamma 90.044700
loop_
  _atom_site_label
  _atom_site_type_symbol
  _atom_site_fract_x
  _atom_site_fract_y
  _atom_site_fract_z
C1 C 1.27747 0.21752 0.26494
 C2 C 1.25286 0.23427 0.24704
 C3 C 1.22865 0.21798 0.22786
 C4 C 1.22856 0.18507 0.22608
 C5 C 1.25340 0.16844 0.24408
 C6 C 1.27791 0.18431 0.26412
 C7 C 1.25178 0.26895 0.24942
 C8 C 1.27471 0.28733 0.23221
 C9 C 1.27340 0.32047 0.23375
 C10 C 1.24918 0.33473 0.25414
 C11 C 1.22585 0.31647 0.27121
 C12 C 1.22739 0.28361 0.26836
 H13 H 1.29558 0.23080 0.28000
 H14 H 1.20971 0.23117 0.21420
 H15 H 1.29349 0.27544 0.21823
 H16 H 1.20964 0.26920 0.28134
 H17 H 1.25386 0.14303 0.24310
 H18 H 1.24816 0.36013 0.25485
 C19 C 0.77416 -0.28036 0.27050
 C20 C 0.74995 -0.26223 0.25390
 C21 C 0.72426 -0.27732 0.23667
 C22 C 0.72230 -0.31022 0.23578
 C23 C 0.74639 -0.32810 0.25350
 C24 C 0.77255 -0.31361 0.27090
 C25 C 0.75049 -0.22741 0.25675
 C26 C 0.77428 -0.20982 0.24001
 C27 C 0.77459 -0.17684 0.24332
 C28 C 0.75116 -0.16169 0.26407
 C29 C 0.72680 -0.17880 0.28013
 C30 C 0.72677 -0.21178 0.27634
 H31 H 0.79341 -0.26806 0.28418
 H32 H 0.70567 -0.26324 0.22379
 H33 H 0.79249 -0.22179 0.22462
 H34 H 0.70869 -0.22578 0.28882
 H35 H 0.74465 -0.35348 0.25494
 H36 H 0.75155 -0.13625 0.26670
 C37 C 0.77197 0.22280 -0.23257
 C38 C 0.74965 0.24159 -0.25289
 C39 C 0.72616 0.22746 -0.27677
 C40 C 0.72459 0.19471 -0.28053
 C41 C 0.74726 0.17606 -0.26046
 C42 C 0.77092 0.18974 -0.23611
 C43 C 0.74998 0.27609 -0.24805
 C44 C 0.77280 0.29426 -0.26591
 C45 C 0.77273 0.32734 -0.26207
 C46 C 0.74989 0.34162 -0.23874
 C47 C 0.72630 0.32362 -0.22184
 C48 C 0.72673 0.29084 -0.22668
 H49 H 0.78936 0.23420 -0.21329
 H50 H 0.70890 0.24209 -0.29218
 H51 H 0.79057 0.28225 -0.28209
 H52 H 0.70886 0.27658 -0.21372
 H53 H 0.74697 0.15076 -0.26422
 H54 H 0.75038 0.36686 -0.23492
 C55 C 1.27232 -0.27340 -0.22212
 C56 C 1.24997 -0.25514 -0.24310
 C57 C 1.22513 -0.26941 -0.26357
 C58 C 1.22135 -0.30440 -0.26488
 C59 C 1.24634 -0.32177 -0.24130
 C60 C 1.27064 -0.30653 -0.22060
 C61 C 1.25217 -0.22040 -0.24349
 C62 C 1.27760 -0.20526 -0.25968
 C63 C 1.27870 -0.17219 -0.26244
 C64 C 1.25432 -0.15455 -0.24803
 C65 C 1.22910 -0.16938 -0.23113
 C66 C 1.22808 -0.20236 -0.22923
 H67 H 1.29075 -0.26103 -0.20639
 H68 H 1.20811 -0.25493 -0.27972
 H69 H 1.29615 -0.21937 -0.27030
 H70 H 1.20836 -0.21414 -0.21728
 H71 H 1.24502 -0.34722 -0.24011
 H72 H 1.25496 -0.12905 -0.24996
 C73 C 0.21576 0.26962 0.74016
 C74 C 0.23394 0.24376 0.75185
 C75 C 0.22073 0.21660 0.76899
 C76 C 0.18974 0.21551 0.77666
 C77 C 0.17178 0.24170 0.76442
 C78 C 0.18447 0.26845 0.74526
 C79 C 0.26692 0.24524 0.74689
 C80 C 0.28371 0.27020 0.76477
 C81 C 0.31532 0.27110 0.76175
 C82 C 0.32955 0.24684 0.73960
 C83 C 0.31295 0.22200 0.72095
 C84 C 0.28168 0.22123 0.72532
 H85 H 0.22622 0.29045 0.72709
 H86 H 0.23496 0.19673 0.77803
 H87 H 0.27179 0.28810 0.78173
 H88 H 0.26866 0.20199 0.71159
 H89 H 0.14762 0.24110 0.76770
 H90 H 0.35387 0.24687 0.73839
 C91 C 0.71522 0.77127 0.72791
 C92 C 0.73398 0.74761 0.74514
 C93 C 0.72247 0.72316 0.76993
 C94 C 0.68961 0.72191 0.78149
 C95 C 0.67166 0.74918 0.76185
 C96 C 0.68426 0.77201 0.73544
 C97 C 0.76653 0.74891 0.73807
 C98 C 0.78375 0.77396 0.75451
 C99 C 0.81502 0.77498 0.74905
 C100 C 0.82853 0.75104 0.72548
 C101 C 0.81137 0.72568 0.70896
 C102 C 0.78037 0.72486 0.71560
 H103 H 0.72546 0.78972 0.70920
 H104 H 0.73748 0.70497 0.78258
 H105 H 0.77244 0.79237 0.77143
 H106 H 0.76688 0.70550 0.70318
 H107 H 0.64775 0.75030 0.76719
 H108 H 0.85240 0.75252 0.71996
 C109 C 0.71491 0.27577 0.23932
 C110 C 0.73056 0.24826 0.25182
 C111 C 0.71456 0.22200 0.26654
 C112 C 0.68311 0.22302 0.26825
 C113 C 0.66771 0.25028 0.25521
 C114 C 0.68334 0.27677 0.24077
 C115 C 0.76358 0.24659 0.24858
 C116 C 0.78208 0.26920 0.26867
 C117 C 0.81357 0.26745 0.26606
 C118 C 0.82620 0.24277 0.24295
 C119 C 0.80787 0.21989 0.22270
 C120 C 0.77656 0.22213 0.22559
 H121 H 0.72736 0.29607 0.22838
 H122 H 0.72653 0.20071 0.27610
 H123 H 0.77171 0.28737 0.28720
 H124 H 0.76219 0.20478 0.20990
 H125 H 0.64332 0.25085 0.25632
 H126 H 0.85041 0.24206 0.24000
 C127 C 0.21514 0.77081 0.23202
 C128 C 0.23265 0.74599 0.24958
 C129 C 0.21857 0.72065 0.27019
 C130 C 0.18710 0.72052 0.27398
 C131 C 0.17005 0.74549 0.25664
 C132 C 0.18356 0.77070 0.23508
 C133 C 0.26572 0.74683 0.24580
 C134 C 0.28206 0.77303 0.26092
 C135 C 0.31302 0.77544 0.25423
 C136 C 0.32749 0.75171 0.23206
 C137 C 0.31183 0.72484 0.21792
 C138 C 0.28075 0.72245 0.22506
 H139 H 0.22656 0.78964 0.21568
 H140 H 0.23211 0.70149 0.28348
 H141 H 0.27055 0.79177 0.27709
 H142 H 0.26788 0.70243 0.21362
 H143 H 0.14573 0.74500 0.25952
 H144 H 0.35141 0.75389 0.22670
 O145 O 1.04192 0.05095 0.07873
 O146 O 1.07411 0.02185 0.03893
 C147 C 1.06871 0.04205 0.06848
 O148 O 0.95430 -0.05970 0.06983
 O149 O 0.92161 -0.02808 0.03058
 C150 C 0.92735 -0.05076 0.05781
 O151 O 1.03842 -0.05906 0.07667
 O152 O 1.07257 -0.03074 0.03830
 C153 C 1.06577 -0.05178 0.06677
 O154 O 0.95826 0.05743 0.06985
 O155 O 0.92302 0.02887 0.03145
 C156 C 0.93069 0.05097 0.05830
 Zr157 Zr 0.99913 0.03699 0.05319
 O158 O 0.99541 0.03357 0.12055
 O159 O 1.00407 0.08638 0.05799
 Zr160 Zr 0.99660 -0.04201 0.05166
 O161 O 0.99348 -0.04182 0.11910
 O162 O 0.99791 -0.09179 0.05151
 O163 O 1.02493 -0.00348 0.06197
 O164 O 0.97131 -0.00172 0.05913
 O165 O 0.95650 0.05837 -0.07623
 O166 O 0.92230 0.02838 -0.04018
 C167 C 0.92914 0.05088 -0.06658
 O168 O 1.03868 -0.05625 -0.07892
 O169 O 1.07251 -0.02963 -0.03552
 C170 C 1.06594 -0.04942 -0.06570
 O171 O 0.95462 -0.05760 -0.07785
 O172 O 0.92147 -0.02765 -0.04077
 C173 C 0.92757 -0.04967 -0.06787
 O174 O 1.04079 0.05335 -0.07729
 O175 O 1.07369 0.02408 -0.03499
 C176 C 1.06775 0.04513 -0.06444
 Zr177 Zr 0.99843 0.03878 -0.05524
 O178 O 0.99435 0.03859 -0.12298
 O179 O 1.00307 0.08839 -0.05618
 Zr180 Zr 0.99675 -0.04028 -0.05635
 O181 O 0.99361 -0.03943 -0.12412
 O182 O 0.99726 -0.09003 -0.05412
 Zr183 Zr 1.04273 -0.00277 0.00022
 Zr184 Zr 0.95244 -0.00019 -0.00351
 O185 O 0.97107 0.00001 -0.06461
 O186 O 1.02467 -0.00129 -0.06305
 O187 O 0.97221 0.04503 -0.00194
 O188 O 1.02272 -0.04768 -0.00131
 O189 O 1.02495 0.04313 0.00009
 O190 O 0.96963 -0.04642 -0.00368
 H191 H 0.95748 -0.00155 0.08340
 H192 H 1.03564 -0.06668 -0.00108
 H193 H 0.95723 0.00058 -0.09013
 H194 H 1.03879 0.06143 0.00106
 H195 H 0.98523 -0.09872 0.02673
 H196 H 0.99709 -0.09707 -0.08429
 H197 H 1.01037 -0.02625 -0.13420
 H198 H 1.01207 0.02748 -0.13386
 H199 H 0.98723 0.09715 -0.03823
 H200 H 0.99294 0.09582 0.03317
 H201 H 1.01367 0.02282 0.13233
 H202 H 1.01176 -0.03131 0.13093
 O203 O 1.04304 0.54971 0.57902
 O204 O 1.07573 0.51954 0.54153
 C205 C 1.06994 0.54051 0.56994
 O206 O 0.95488 0.43957 0.57082
 O207 O 0.92286 0.47076 0.52974
 C208 C 0.92816 0.44851 0.55771
 O209 O 1.03886 0.43906 0.58001
 O210 O 1.07367 0.46637 0.54160
 C211 C 1.06638 0.44587 0.57053
 O212 O 0.95973 0.55706 0.56708
 O213 O 0.92473 0.52784 0.52914
 C214 C 0.93227 0.55071 0.55479
 Zr215 Zr 1.00053 0.53511 0.55367
 O216 O 0.99565 0.53059 0.62069
 O217 O 1.00474 0.58432 0.56119
 Zr218 Zr 0.99763 0.45634 0.55338
 O219 O 0.99379 0.45708 0.62074
 O220 O 0.99857 0.40652 0.55379
 O221 O 1.02614 0.49469 0.56381
 O222 O 0.97230 0.49684 0.55934
 O223 O 0.96029 0.55614 0.42241
 O224 O 0.92548 0.52686 0.45809
 C225 C 0.93279 0.54907 0.43164
 O226 O 1.04141 0.44216 0.42258
 O227 O 1.07484 0.46811 0.46746
 C228 C 1.06858 0.44911 0.43627
 O229 O 0.95698 0.44039 0.42229
 O230 O 0.92367 0.47090 0.45828
 C231 C 0.92987 0.44878 0.43147
 O232 O 1.04445 0.55027 0.42495
 O233 O 1.07647 0.52066 0.46797
 C234 C 1.07122 0.54155 0.43816
 Zr235 Zr 1.00150 0.53608 0.44528
 O236 O 0.99902 0.53579 0.37747
 O237 O 1.00616 0.58571 0.44450
 Zr238 Zr 0.99914 0.45677 0.44565
 O239 O 0.99764 0.45291 0.37822
 O240 O 0.99924 0.40719 0.45216
 Zr241 Zr 1.04464 0.49465 0.50251
 Zr242 Zr 0.95440 0.49793 0.49613
 O243 O 0.97403 0.49737 0.43568
 O244 O 1.02726 0.49563 0.43880
 O245 O 0.97462 0.54292 0.49761
 O246 O 1.02454 0.44981 0.50124
 O247 O 1.02718 0.54069 0.50123
 O248 O 0.97121 0.45149 0.49749
 H249 H 0.95799 0.49753 0.58301
 H250 H 1.03764 0.43092 0.50178
 H251 H 0.96068 0.49796 0.40964
 H252 H 1.04108 0.55894 0.50217
 H253 H 0.98421 0.39938 0.53101
 H254 H 1.00024 0.39881 0.42275
 H255 H 1.00072 0.47433 0.36667
 H256 H 1.01720 0.52498 0.36752
 H257 H 0.98991 0.59453 0.46171
 H258 H 1.00223 0.59372 0.53227
 H259 H 1.01524 0.52367 0.63351
 H260 H 1.01141 0.46862 0.63283
 O261 O 0.55378 -0.04954 0.57407
 O262 O 0.52493 -0.08343 0.53320
 C263 C 0.54537 -0.07755 0.56266
 O264 O 0.45091 0.04354 0.56981
 O265 O 0.47997 0.07713 0.53060
 C266 C 0.45940 0.07151 0.55818
 O267 O 0.44978 -0.04397 0.57423
 O268 O 0.47325 -0.08076 0.53360
 C269 C 0.45482 -0.07278 0.56312
 O270 O 0.56127 0.03727 0.56821
 O271 O 0.53382 0.07451 0.53039
 C272 C 0.55554 0.06615 0.55704
 Zr273 Zr 0.54076 -0.00510 0.54931
 O274 O 0.54234 -0.00224 0.61699
 O275 O 0.58813 -0.00919 0.54691
 Zr276 Zr 0.46530 -0.00109 0.54897
 O277 O 0.46317 -0.00137 0.61659
 O278 O 0.41781 0.00073 0.54267
 O279 O 0.50189 -0.03135 0.55792
 O280 O 0.50463 0.02458 0.55692
 O281 O 0.55842 0.03801 0.42229
 O282 O 0.53196 0.07453 0.45961
 C283 C 0.55258 0.06671 0.43326
 O284 O 0.44537 -0.04426 0.41799
 O285 O 0.47173 -0.08070 0.45899
 C286 C 0.45156 -0.07301 0.42977
 O287 O 0.44619 0.04328 0.42256
 O288 O 0.47753 0.07736 0.45930
 C289 C 0.45491 0.07140 0.43314
 O290 O 0.55094 -0.04888 0.41783
 O291 O 0.52382 -0.08316 0.45878
 C292 C 0.54318 -0.07706 0.42942
 Zr293 Zr 0.53830 -0.00469 0.44128
 O294 O 0.53496 -0.00094 0.37366
 O295 O 0.58561 -0.00975 0.43934
 Zr296 Zr 0.46317 -0.00123 0.44118
 O297 O 0.46584 0.00059 0.37382
 O298 O 0.41554 -0.00152 0.43714
 Zr299 Zr 0.49981 -0.05045 0.49579
 Zr300 Zr 0.50419 0.04434 0.49502
 O301 O 0.50178 0.02504 0.43324
 O302 O 0.49927 -0.03145 0.43317
 O303 O 0.54682 0.02272 0.49520
 O304 O 0.45739 -0.02839 0.49547
 O305 O 0.54397 -0.03256 0.49557
 O306 O 0.45961 0.02719 0.49485
 H307 H 0.50620 0.03899 0.58164
 H308 H 0.43884 -0.04137 0.49562
 H309 H 0.50188 0.03971 0.40838
 H310 H 0.56130 -0.04724 0.49581
 H311 H 0.41025 -0.00078 0.57211
 H312 H 0.40859 0.00851 0.46348
 H313 H 0.44474 0.00022 0.36249
 H314 H 0.52122 -0.01780 0.36332
 H315 H 0.59422 0.00034 0.46540
 H316 H 0.59589 -0.00955 0.57703
 H317 H 0.52791 -0.01793 0.62786
 H318 H 0.48169 0.00868 0.62830
 O319 O 0.53669 0.55249 0.08417
 O320 O 0.57017 0.52627 0.04283
 C321 C 0.56389 0.54545 0.07322
 O322 O 0.45493 0.43763 0.07099
 O323 O 0.42064 0.46767 0.03211
 C324 C 0.42760 0.44513 0.05888
 O325 O 0.53883 0.44320 0.07829
 O326 O 0.57147 0.47370 0.04044
 C327 C 0.56575 0.45216 0.06870
 O328 O 0.45189 0.55303 0.07668
 O329 O 0.41896 0.52356 0.03542
 C330 C 0.42488 0.54484 0.06400
 Zr331 Zr 0.49445 0.53668 0.05809
 O332 O 0.49116 0.53234 0.12536
 O333 O 0.49652 0.58631 0.06322
 Zr334 Zr 0.49633 0.45768 0.05315
 O335 O 0.49319 0.45520 0.12054
 O336 O 0.50061 0.40812 0.05011
 O337 O 0.52244 0.49762 0.06509
 O338 O 0.46895 0.49616 0.06215
 O339 O 0.45175 0.55953 -0.06949
 O340 O 0.41890 0.52688 -0.03548
 C341 C 0.42481 0.55075 -0.06005
 O342 O 0.53891 0.44975 -0.07876
 O343 O 0.57135 0.47715 -0.03406
 C344 C 0.56580 0.45821 -0.06559
 O345 O 0.45469 0.44323 -0.07785
 O346 O 0.42033 0.47054 -0.03928
 C347 C 0.42733 0.44960 -0.06731
 O348 O 0.53514 0.55839 -0.07044
 O349 O 0.56990 0.52991 -0.03056
 C350 C 0.56257 0.55175 -0.05821
 Zr351 Zr 0.49383 0.54060 -0.05016
 O352 O 0.49046 0.54128 -0.11793
 O353 O 0.49573 0.59037 -0.05059
 Zr354 Zr 0.49622 0.46149 -0.05447
 O355 O 0.49561 0.45981 -0.12215
 O356 O 0.49884 0.41186 -0.05045
 Zr357 Zr 0.54017 0.50065 0.00336
 Zr358 Zr 0.44994 0.49799 -0.00049
 O359 O 0.46852 0.50062 -0.06144
 O360 O 0.52189 0.50233 -0.05979
 O361 O 0.46726 0.54419 0.00325
 O362 O 0.52284 0.45461 0.00009
 O363 O 0.51996 0.54539 0.00531
 O364 O 0.46944 0.45276 -0.00223
 H365 H 0.45531 0.49483 0.08658
 H366 H 0.53704 0.43663 -0.00048
 H367 H 0.45449 0.50146 -0.08673
 H368 H 0.53274 0.56450 0.00713
 H369 H 0.48569 0.40065 0.02828
 H370 H 0.49968 0.40436 -0.08032
 H371 H 0.48793 0.48028 -0.13297
 H372 H 0.50872 0.53095 -0.12852
 H373 H 0.48280 0.59775 -0.02757
 H374 H 0.48047 0.59519 0.04404
 H375 H 0.50991 0.52228 0.13662
 H376 H 0.50959 0.46829 0.13308
 C377 C 1.20192 0.16949 0.20537
 C378 C 1.19672 0.13702 0.20514
 C379 C 1.16963 0.12265 0.18434
 C380 C 1.17125 0.09140 0.17050
 C381 C 1.14641 0.07707 0.15016
 C382 C 1.11927 0.09372 0.14346
 C383 C 1.11725 0.12456 0.15877
 C384 C 1.14217 0.13898 0.17893
 C385 C 1.09266 0.07944 0.12141
 C386 C 1.09505 0.05563 0.09124
 H387 H 1.21335 0.12107 0.21892
 H388 H 1.19193 0.07811 0.17510
 H389 H 1.14849 0.05285 0.14026
 H390 H 1.09641 0.13767 0.15471
 H391 H 1.13962 0.16267 0.19067
 H392 H 1.07067 0.08921 0.12736
 H393 H 1.18552 0.18469 0.18929
 H394 H 1.11702 0.04725 0.08260
 C395 C 1.19195 0.67802 0.71002
 C396 C 1.19204 0.64594 0.70183
 C397 C 1.16625 0.62974 0.68079
 C398 C 1.16903 0.59778 0.67080
 C399 C 1.14515 0.58165 0.65082
 C400 C 1.11797 0.59730 0.64038
 C401 C 1.11496 0.62910 0.65118
 C402 C 1.13892 0.64529 0.67098
 C403 C 1.09229 0.58109 0.61897
 C404 C 1.09574 0.55511 0.59258
 H405 H 1.21184 0.63216 0.71052
 H406 H 1.18976 0.58521 0.67851
 H407 H 1.14794 0.55687 0.64429
 H408 H 1.09411 0.64155 0.64382
 H409 H 1.13597 0.66988 0.67863
 H410 H 1.07007 0.59122 0.62198
 H411 H 1.20688 0.68649 0.72278
 H412 H 1.11796 0.54615 0.58643
 C413 C 0.69945 0.18076 0.69365
 C414 C 0.68911 0.15021 0.70081
 C415 C 0.66627 0.13415 0.67331
 C416 C 0.66666 0.10122 0.67298
 C417 C 0.64587 0.08458 0.64779
 C418 C 0.62373 0.10035 0.62271
 C419 C 0.62293 0.13345 0.62315
 C420 C 0.64414 0.15027 0.64827
 C421 C 0.60250 0.08068 0.59715
 C422 C 0.57562 0.09036 0.57623
 H423 H 0.69928 0.13646 0.72677
 H424 H 0.68337 0.08824 0.69202
 H425 H 0.64704 0.05910 0.64816
 H426 H 0.60624 0.14639 0.60417
 H427 H 0.64279 0.17569 0.64852
 H428 H 0.60813 0.05587 0.59635
 H429 H 0.68882 0.19514 0.66870
 H430 H 0.56919 0.11489 0.57437
 C431 C 0.69434 0.67513 0.21752
 C432 C 0.69242 0.64363 0.20494
 C433 C 0.66487 0.62853 0.18622
 C434 C 0.66766 0.59854 0.16829
 C435 C 0.64269 0.58322 0.14982
 C436 C 0.61418 0.59769 0.14848
 C437 C 0.61109 0.62721 0.16766
 C438 C 0.63612 0.64254 0.18635
 C439 C 0.58740 0.58255 0.12764
 C440 C 0.58987 0.56003 0.09569
 H441 H 0.71254 0.62932 0.20673
 H442 H 0.68934 0.58684 0.16846
 H443 H 0.64594 0.55992 0.13713
 H444 H 0.58929 0.63862 0.16775
 H445 H 0.63258 0.66513 0.20095
 H446 H 0.56522 0.59067 0.13587
 H447 H 0.67513 0.69039 0.21199
 H448 H 0.61188 0.55344 0.08498
 C449 C 0.79936 -0.15765 0.22612
 C450 C 0.81116 -0.16303 0.18593
 C451 C 0.83464 -0.14256 0.16760
 C452 C 0.83457 -0.13697 0.12322
 C453 C 0.85675 -0.11799 0.10516
 C454 C 0.87985 -0.10482 0.13114
 C455 C 0.88022 -0.11092 0.17541
 C456 C 0.85769 -0.12930 0.19356
 C457 C 0.90479 -0.08637 0.11283
 C458 C 0.90151 -0.06751 0.07605
 H459 H 0.80121 -0.18127 0.16598
 H460 H 0.81721 -0.14718 0.10249
 H461 H 0.85625 -0.11439 0.07080
 H462 H 0.89800 -0.10139 0.19604
 H463 H 0.85874 -0.13374 0.22775
 H464 H 0.92637 -0.08672 0.13004
 H465 H 0.80627 -0.13680 0.24357
 H466 H 0.87941 -0.06420 0.06102
 C467 C 0.79464 0.34664 0.71940
 C468 C 0.81313 0.33721 0.68645
 C469 C 0.83557 0.35867 0.66813
 C470 C 0.83964 0.35905 0.62378
 C471 C 0.86128 0.37874 0.60597
 C472 C 0.87976 0.39768 0.63249
 C473 C 0.87601 0.39690 0.67689
 C474 C 0.85383 0.37787 0.69456
 C475 C 0.90448 0.41657 0.61501
 C476 C 0.90216 0.43212 0.57553
 H477 H 0.80924 0.31499 0.67056
 H478 H 0.82599 0.34414 0.60293
 H479 H 0.86421 0.37837 0.57170
 H480 H 0.89031 0.41101 0.69791
 H481 H 0.85153 0.37748 0.72896
 H482 H 0.92489 0.41920 0.63466
 H483 H 0.79588 0.37112 0.72889
 H484 H 0.88078 0.43279 0.55783
 C485 C 0.30465 -0.15488 0.72021
 C486 C 0.32485 -0.16730 0.69129
 C487 C 0.34788 -0.14754 0.67045
 C488 C 0.37390 -0.16153 0.65452
 C489 C 0.39595 -0.14309 0.63500
 C490 C 0.39214 -0.11031 0.63107
 C491 C 0.36586 -0.09659 0.64614
 C492 C 0.34387 -0.11491 0.66509
 C493 C 0.41477 -0.08900 0.61265
 C494 C 0.43723 -0.09756 0.58455
 H495 H 0.32377 -0.19197 0.68311
 H496 H 0.37736 -0.18670 0.65777
 H497 H 0.41603 -0.15441 0.62391
 H498 H 0.36214 -0.07145 0.64294
 H499 H 0.32360 -0.10328 0.67482
 H500 H 0.41194 -0.06422 0.61949
 H501 H 0.30690 -0.13047 0.72938
 H502 H 0.44025 -0.12187 0.57563
 C503 C 0.29543 0.33985 0.21573
 C504 C 0.31557 0.32986 0.18516
 C505 C 0.33809 0.35143 0.16743
 C506 C 0.34345 0.35100 0.12345
 C507 C 0.36495 0.37106 0.10616
 C508 C 0.38200 0.39120 0.13288
 C509 C 0.37709 0.39114 0.17699
 C510 C 0.35500 0.37173 0.19410
 C511 C 0.40601 0.41115 0.11571
 C512 C 0.40280 0.42675 0.07641
 H513 H 0.31293 0.30706 0.17038
 H514 H 0.33081 0.33530 0.10246
 H515 H 0.36879 0.37023 0.07214
 H516 H 0.39026 0.40628 0.19813
 H517 H 0.35161 0.37202 0.22827
 H518 H 0.42617 0.41490 0.13550
 H519 H 0.29558 0.36466 0.22365
 H520 H 0.38137 0.42628 0.05883
 C521 C 0.79318 0.16840 -0.21409
 C522 C 0.82049 0.17817 -0.19494
 C523 C 0.84228 0.15621 -0.17330
 C524 C 0.87258 0.16531 -0.16898
 C525 C 0.89392 0.14537 -0.14915
 C526 C 0.88548 0.11598 -0.13243
 C527 C 0.85500 0.10692 -0.13613
 C528 C 0.83362 0.12688 -0.15620
 C529 C 0.90934 0.09567 -0.11237
 C530 C 0.90410 0.06912 -0.08679
 H531 H 0.82730 0.20251 -0.19787
 H532 H 0.87989 0.18783 -0.18146
 H533 H 0.91720 0.15299 -0.14685
 H534 H 0.84748 0.08440 -0.12417
 H535 H 0.81035 0.11934 -0.15773
 H536 H 0.93248 0.10282 -0.11678
 H537 H 0.78812 0.14348 -0.21448
 H538 H 0.88138 0.06208 -0.07983
 C539 C 0.79540 0.66675 0.28886
 C540 C 0.82271 0.67688 0.30790
 C541 C 0.84518 0.65483 0.32783
 C542 C 0.87539 0.66433 0.33191
 C543 C 0.89718 0.64431 0.35062
 C544 C 0.88926 0.61443 0.36630
 C545 C 0.85891 0.60494 0.36255
 C546 C 0.83712 0.62498 0.34382
 C547 C 0.91331 0.59406 0.38576
 C548 C 0.90801 0.56745 0.41117
 H549 H 0.82890 0.70146 0.30706
 H550 H 0.88223 0.68726 0.32026
 H551 H 0.92034 0.65230 0.35308
 H552 H 0.85175 0.58204 0.37361
 H553 H 0.81396 0.61706 0.34261
 H554 H 0.93644 0.60120 0.38130
 H555 H 0.79157 0.64160 0.28741
 H556 H 0.88528 0.56052 0.41822
 C557 C 0.30116 0.16604 0.28360
 C558 C 0.32627 0.17759 0.30707
 C559 C 0.34748 0.15630 0.33096
 C560 C 0.37747 0.16571 0.33927
 C561 C 0.39792 0.14550 0.36097
 C562 C 0.38847 0.11563 0.37498
 C563 C 0.35832 0.10677 0.36777
 C564 C 0.33800 0.12690 0.34652
 C565 C 0.40908 0.09197 0.39483
 C566 C 0.43723 0.09792 0.41456
 H567 H 0.33124 0.20246 0.30789
 H568 H 0.38522 0.18846 0.32815
 H569 H 0.42110 0.15293 0.36558
 H570 H 0.35041 0.08399 0.37855
 H571 H 0.31482 0.11931 0.34275
 H572 H 0.40079 0.06797 0.39500
 H573 H 0.29918 0.14073 0.28069
 H574 H 0.44556 0.12173 0.41816
 C575 C 0.29214 0.67427 -0.19884
 C576 C 0.31783 0.68467 -0.17601
 C577 C 0.33914 0.66232 -0.15454
 C578 C 0.36958 0.67067 -0.15006
 C579 C 0.39048 0.64961 -0.13167
 C580 C 0.38139 0.61987 -0.11683
 C581 C 0.35071 0.61177 -0.12024
 C582 C 0.32978 0.63287 -0.13866
 C583 C 0.40485 0.59822 -0.09903
 C584 C 0.39949 0.56966 -0.07782
 H585 H 0.32400 0.70926 -0.17580
 H586 H 0.37732 0.69330 -0.16163
 H587 H 0.41396 0.65655 -0.12932
 H588 H 0.34266 0.58917 -0.10935
 H589 H 0.30630 0.62605 -0.14013
 H590 H 0.42800 0.60579 -0.10203
 H591 H 0.28872 0.64906 -0.20048
 H592 H 0.37684 0.56167 -0.07223
 C593 C 1.20365 -0.15004 -0.21711
 C594 C 1.18652 -0.15857 -0.18221
 C595 C 1.16157 -0.13895 -0.16733
 C596 C 1.15639 -0.13753 -0.12337
 C597 C 1.13292 -0.11920 -0.10833
 C598 C 1.11374 -0.10255 -0.13717
 C599 C 1.11831 -0.10476 -0.18125
 C600 C 1.14227 -0.12251 -0.19624
 C601 C 1.08844 -0.08364 -0.12174
 C602 C 1.09134 -0.06595 -0.08448
 H603 H 1.19313 -0.17897 -0.16308
 H604 H 1.17072 -0.15041 -0.10060
 H605 H 1.12946 -0.11854 -0.07421
 H606 H 1.10355 -0.09244 -0.20402
 H607 H 1.14530 -0.12390 -0.23042
 H608 H 1.06764 -0.08267 -0.14083
 H609 H 1.19972 -0.12744 -0.23265
 H610 H 1.11319 -0.06426 -0.06820
 C611 C 1.19900 0.33041 0.29095
 C612 C 1.19582 0.36229 0.30054
 C613 C 1.16869 0.37545 0.32020
 C614 C 1.17120 0.40435 0.34136
 C615 C 1.14636 0.41756 0.36072
 C616 C 1.11834 0.40202 0.35945
 C617 C 1.11550 0.37369 0.33700
 C618 C 1.14039 0.36046 0.31755
 C619 C 1.09174 0.41508 0.38049
 C620 C 1.09448 0.43514 0.41547
 H621 H 1.21440 0.37826 0.29599
 H622 H 1.19254 0.41673 0.34317
 H623 H 1.14919 0.44013 0.37606
 H624 H 1.09402 0.36160 0.33481
 H625 H 1.13714 0.33878 0.30013
 H626 H 1.06951 0.40771 0.36926
 H627 H 1.18124 0.31432 0.29950
 H628 H 1.11657 0.44090 0.42879
 C629 C 0.70175 -0.16105 0.29932
 C630 C 0.67530 -0.17442 0.31487
 C631 C 0.64984 -0.15510 0.32964
 C632 C 0.62971 -0.16790 0.35897
 C633 C 0.60576 -0.14989 0.37382
 C634 C 0.60133 -0.11879 0.35901
 C635 C 0.62087 -0.10656 0.32854
 C636 C 0.64473 -0.12440 0.31395
 C637 C 0.57788 -0.09744 0.37507
 C638 C 0.55894 -0.10347 0.40924
 H639 H 0.67298 -0.19967 0.31739
 H640 H 0.63279 -0.19174 0.37091
 H641 H 0.59108 -0.16038 0.39691
 H642 H 0.61791 -0.08279 0.31622
 H643 H 0.65884 -0.11408 0.28999
 H644 H 0.57719 -0.07405 0.36089
 H645 H 0.70433 -0.13574 0.30079
 H646 H 0.55752 -0.12667 0.42355
 C647 C 0.70054 0.33771 -0.19956
 C648 C 0.69419 0.36993 -0.19831
 C649 C 0.66732 0.38280 -0.17768
 C650 C 0.66825 0.41380 -0.16261
 C651 C 0.64330 0.42693 -0.14332
 C652 C 0.61674 0.40929 -0.13887
 C653 C 0.61547 0.37861 -0.15511
 C654 C 0.64051 0.36540 -0.17421
 C655 C 0.58997 0.42241 -0.11829
 C656 C 0.59212 0.44577 -0.08724
 H657 H 0.70949 0.38679 -0.21184
 H658 H 0.68843 0.42791 -0.16558
 H659 H 0.64480 0.45104 -0.13263
 H660 H 0.59510 0.36473 -0.15274
 H661 H 0.63851 0.34185 -0.18690
 H662 H 0.56816 0.41209 -0.12596
 H663 H 0.68545 0.32157 -0.18396
 H664 H 0.61403 0.45451 -0.07685
 C665 C 1.17783 0.18815 -0.20442
 C666 C 1.14944 0.18644 -0.18637
 C667 C 1.13730 0.15699 -0.16814
 C668 C 1.11838 0.15875 -0.13316
 C669 C 1.10469 0.13166 -0.11716
 C670 C 1.10910 0.10247 -0.13659
 C671 C 1.12804 0.10051 -0.17149
 C672 C 1.14241 0.12754 -0.18686
 C673 C 1.09083 0.07529 -0.12384
 C674 C 1.09299 0.06256 -0.08259
 H675 H 1.13640 0.20762 -0.18218
 H676 H 1.11383 0.18125 -0.11864
 H677 H 1.08958 0.13369 -0.09079
 H678 H 1.13129 0.07820 -0.18721
 H679 H 1.15640 0.12561 -0.21446
 H680 H 1.07300 0.06768 -0.14592
 H681 H 1.19213 0.16752 -0.20141
 H682 H 1.11215 0.06830 -0.06173
 C683 C 1.17124 0.69656 0.29405
 C684 C 1.18324 0.66589 0.31648
 C685 C 1.15992 0.64232 0.33564
 C686 C 1.16925 0.61551 0.35919
 C687 C 1.14794 0.59498 0.37645
 C688 C 1.11690 0.60096 0.37025
 C689 C 1.10778 0.62760 0.34637
 C690 C 1.12893 0.64804 0.32944
 C691 C 1.09302 0.58058 0.38763
 C692 C 1.09730 0.55721 0.41903
 H693 H 1.20856 0.65417 0.32385
 H694 H 1.19299 0.61050 0.36438
 H695 H 1.15590 0.57451 0.39420
 H696 H 1.08406 0.63285 0.34103
 H697 H 1.12086 0.66838 0.31141
 H698 H 1.07015 0.58564 0.37651
 H699 H 1.18162 0.68116 0.30505
 H700 H 1.11961 0.55140 0.43159
 C701 C 0.66572 0.19564 0.28233
 C702 C 0.67307 0.17947 0.32012
 C703 C 0.65294 0.15492 0.33644
 C704 C 0.64641 0.15412 0.38002
 C705 C 0.62589 0.13214 0.39545
 C706 C 0.61217 0.11023 0.36754
 C707 C 0.61969 0.11026 0.32432
 C708 C 0.63964 0.13268 0.30873
 C709 C 0.59109 0.08625 0.38303
 C710 C 0.57116 0.09200 0.41562
 H711 H 0.69174 0.18755 0.34036
 H712 H 0.65667 0.17096 0.40188
 H713 H 0.62113 0.13200 0.42922
 H714 H 0.60975 0.09321 0.30249
 H715 H 0.64482 0.13254 0.27510
 H716 H 0.59057 0.06365 0.36719
 H717 H 0.64454 0.19061 0.26554
 H718 H 0.56945 0.11538 0.42888
 C719 C 0.67561 0.69498 -0.18936
 C720 C 0.64637 0.69754 -0.17547
 C721 C 0.63081 0.67251 -0.15205
 C722 C 0.60077 0.67775 -0.14204
 C723 C 0.58435 0.65449 -0.12183
 C724 C 0.59752 0.62536 -0.11103
 C725 C 0.62786 0.62004 -0.12028
 C726 C 0.64445 0.64356 -0.14077
 C727 C 0.57779 0.60145 -0.09214
 C728 C 0.58625 0.57197 -0.07557
 H729 H 0.63362 0.71872 -0.18273
 H730 H 0.58973 0.69980 -0.15049
 H731 H 0.56099 0.65920 -0.11513
 H732 H 0.63863 0.59778 -0.11260
 H733 H 0.66765 0.63895 -0.14825
 H734 H 0.55429 0.60810 -0.09067
 H735 H 0.68264 0.70876 -0.20424
 H736 H 0.60958 0.56470 -0.07285
 C737 C 0.83441 -0.19960 -0.23276
 C738 C 0.82609 -0.17955 -0.19973
 C739 C 0.84720 -0.15672 -0.17914
 C740 C 0.83574 -0.13057 -0.15766
 C741 C 0.85523 -0.10900 -0.13719
 C742 C 0.88660 -0.11347 -0.13761
 C743 C 0.89788 -0.13982 -0.15863
 C744 C 0.87853 -0.16124 -0.17893
 C745 C 0.90876 -0.09170 -0.11724
 C746 C 0.90252 -0.06751 -0.08857
 H747 H 0.80352 -0.18048 -0.18790
 H748 H 0.81165 -0.12670 -0.15705
 H749 H 0.84562 -0.08895 -0.12153
 H750 H 0.92192 -0.14413 -0.15897
 H751 H 0.88834 -0.18163 -0.19352
 H752 H 0.93212 -0.09603 -0.12434
 H753 H 0.85679 -0.19749 -0.24515
 H754 H 0.87967 -0.06245 -0.07992
 C755 C 0.83420 0.29016 0.28782
 C756 C 0.82579 0.32013 0.30151
 C757 C 0.84744 0.34259 0.32182
 C758 C 0.83666 0.36703 0.34720
 C759 C 0.85661 0.38846 0.36697
 C760 C 0.88783 0.38592 0.36134
 C761 C 0.89841 0.36188 0.33521
 C762 C 0.87858 0.34060 0.31556
 C763 C 0.91050 0.40706 0.38194
 C764 C 0.90468 0.43155 0.41026
 H765 H 0.80258 0.32760 0.29770
 H766 H 0.81273 0.36935 0.35215
 H767 H 0.84741 0.40671 0.38655
 H768 H 0.92229 0.35946 0.32992
 H769 H 0.88791 0.32302 0.29502
 H770 H 0.93380 0.40225 0.37502
 H771 H 0.85733 0.28267 0.29273
 H772 H 0.88191 0.43759 0.41818
 C773 C 0.33080 -0.19728 0.26920
 C774 C 0.32839 -0.18530 0.31031
 C775 C 0.34962 -0.16134 0.32724
 C776 C 0.35953 -0.16295 0.37028
 C777 C 0.38049 -0.14118 0.38657
 C778 C 0.39148 -0.11707 0.36014
 C779 C 0.38078 -0.11489 0.31747
 C780 C 0.36025 -0.13697 0.30100
 C781 C 0.41263 -0.09287 0.37677
 C782 C 0.43360 -0.09856 0.41022
 H783 H 0.31296 -0.19634 0.33205
 H784 H 0.35135 -0.18135 0.39116
 H785 H 0.38755 -0.14290 0.41999
 H786 H 0.38849 -0.09615 0.29675
 H787 H 0.35238 -0.13472 0.26795
 H788 H 0.41192 -0.06983 0.36156
 H789 H 0.34902 -0.18927 0.24959
 H790 H 0.43635 -0.12213 0.42324
 C791 C 0.33370 0.29443 -0.21901
 C792 C 0.32392 0.31928 -0.19366
 C793 C 0.34545 0.34098 -0.17162
 C794 C 0.33615 0.37148 -0.16106
 C795 C 0.35635 0.39258 -0.14116
 C796 C 0.38619 0.38334 -0.13124
 C797 C 0.39518 0.35264 -0.14086
 C798 C 0.37504 0.33159 -0.16031
 C799 C 0.40907 0.40485 -0.11227
 C800 C 0.40271 0.43142 -0.08812
 H801 H 0.30022 0.32391 -0.19037
 H802 H 0.31338 0.37918 -0.16897
 H803 H 0.34873 0.41618 -0.13461
 H804 H 0.41793 0.34480 -0.13304
 H805 H 0.38280 0.30790 -0.16592
 H806 H 0.43243 0.39813 -0.11542
 H807 H 0.35764 0.29280 -0.22408
 H808 H 0.37966 0.43771 -0.08192
 C809 C 1.16450 -0.20599 0.21677
 C810 C 1.17349 -0.18005 0.19219
 C811 C 1.15118 -0.15879 0.17048
 C812 C 1.15906 -0.12747 0.16125
 C813 C 1.13800 -0.10686 0.14173
 C814 C 1.10872 -0.11742 0.13091
 C815 C 1.10116 -0.14886 0.13927
 C816 C 1.12218 -0.16943 0.15825
 C817 C 1.08507 -0.09659 0.11195
 C818 C 1.09068 -0.06928 0.08829
 H819 H 1.19703 -0.17438 0.18920
 H820 H 1.18134 -0.11876 0.16997
 H821 H 1.14451 -0.08266 0.13617
 H822 H 1.07887 -0.15768 0.13080
 H823 H 1.11558 -0.19370 0.16287
 H824 H 1.06196 -0.10454 0.11417
 H825 H 1.14062 -0.20861 0.22182
 H826 H 1.11356 -0.06195 0.08267
 C827 C 1.16416 0.29445 0.73091
 C828 C 1.17078 0.31578 0.69811
 C829 C 1.14873 0.33908 0.68036
 C830 C 1.15919 0.36574 0.65844
 C831 C 1.13894 0.38758 0.63988
 C832 C 1.10766 0.38291 0.64250
 C833 C 1.09729 0.35627 0.66451
 C834 C 1.11747 0.33452 0.68299
 C835 C 1.08489 0.40450 0.62253
 C836 C 1.09098 0.42842 0.59297
 H837 H 1.19270 0.31525 0.68403
 H838 H 1.18316 0.36971 0.65571
 H839 H 1.14801 0.40791 0.62376
 H840 H 1.07335 0.35190 0.66677
 H841 H 1.10834 0.31380 0.69816
 H842 H 1.06157 0.40002 0.62981
 H843 H 1.14238 0.29553 0.74534
 H844 H 1.11379 0.43346 0.58404
 C845 C 0.66494 -0.20473 0.71801
 C846 C 0.67127 -0.18536 0.68315
 C847 C 0.64834 -0.16301 0.66654
 C848 C 0.64133 -0.16146 0.62252
 C849 C 0.61834 -0.14157 0.60687
 C850 C 0.60261 -0.12249 0.63509
 C851 C 0.61037 -0.12335 0.67892
 C852 C 0.63282 -0.14372 0.69463
 C853 C 0.58005 -0.09946 0.61931
 C854 C 0.56151 -0.10415 0.58303
 H855 H 0.69105 -0.18920 0.66461
 H856 H 0.65328 -0.17600 0.60040
 H857 H 0.61346 -0.14055 0.57271
 H858 H 0.59896 -0.10831 0.70105
 H859 H 0.63831 -0.14418 0.72867
 H860 H 0.57845 -0.07755 0.63662
 H861 H 0.64243 -0.20311 0.73038
 H862 H 0.56045 -0.12697 0.56786
 C863 C 0.66551 0.30463 0.22746
 C864 C 0.67363 0.32559 0.19517
 C865 C 0.65157 0.34811 0.17596
 C866 C 0.66142 0.37655 0.15793
 C867 C 0.64059 0.39795 0.13963
 C868 C 0.60960 0.39089 0.13880
 C869 C 0.59997 0.36226 0.15623
 C870 C 0.62064 0.34097 0.17415
 C871 C 0.58628 0.41222 0.12041
 C872 C 0.59136 0.43602 0.09040
 H873 H 0.69604 0.32492 0.18261
 H874 H 0.68518 0.38237 0.15854
 H875 H 0.64879 0.41998 0.12688
 H876 H 0.57628 0.35606 0.15545
 H877 H 0.61224 0.31868 0.18581
 H878 H 0.56325 0.40710 0.12860
 H879 H 0.64348 0.30684 0.24097
 H880 H 0.61392 0.44150 0.08059
 C881 C 0.82072 0.19419 0.19712
 C882 C 0.84973 0.18252 0.20519
 C883 C 0.86504 0.15982 0.17755
 C884 C 0.89656 0.15935 0.17963
 C885 C 0.91251 0.13900 0.15416
 C886 C 0.89743 0.11817 0.12618
 C887 C 0.86575 0.11807 0.12426
 C888 C 0.84963 0.13886 0.14972
 C889 C 0.91631 0.09771 0.10001
 C890 C 0.90726 0.07073 0.07741
 H891 H 0.86288 0.19183 0.23198
 H892 H 0.90901 0.17518 0.20070
 H893 H 0.93691 0.13948 0.15660
 H894 H 0.85342 0.10231 0.10308
 H895 H 0.82529 0.13817 0.14779
 H896 H 0.94003 0.10381 0.10058
 H897 H 0.80688 0.18448 0.17132
 H898 H 0.88382 0.06390 0.07458
 C899 C 0.82475 0.70015 0.68373
 C900 C 0.85516 0.69211 0.68720
 C901 C 0.86950 0.66831 0.66024
 C902 C 0.90057 0.67074 0.65495
 C903 C 0.91554 0.64902 0.63032
 C904 C 0.89998 0.62391 0.61077
 C905 C 0.86877 0.62113 0.61606
 C906 C 0.85360 0.64326 0.64059
 C907 C 0.91798 0.60144 0.58637
 C908 C 0.90891 0.57192 0.57087
 H909 H 0.86977 0.70471 0.70951
 H910 H 0.91337 0.68968 0.66981
 H911 H 0.93963 0.65169 0.62705
 H912 H 0.85609 0.60204 0.60156
 H913 H 0.82969 0.64025 0.64474
 H914 H 0.94128 0.60819 0.58242
 H915 H 0.80992 0.68724 0.66204
 H916 H 0.88567 0.56431 0.57117
 C917 C 0.32768 0.19574 0.69866
 C918 C 0.35665 0.19781 0.68258
 C919 C 0.37254 0.17130 0.66261
 C920 C 0.39868 0.17787 0.64012
 C921 C 0.41497 0.15370 0.62159
 C922 C 0.40536 0.12222 0.62511
 C923 C 0.37941 0.11562 0.64807
 C924 C 0.36319 0.13979 0.66674
 C925 C 0.42174 0.09556 0.60624
 C926 C 0.44486 0.09890 0.57724
 H927 H 0.36816 0.22025 0.68318
 H928 H 0.40667 0.20187 0.63703
 H929 H 0.43518 0.16002 0.60523
 H930 H 0.37168 0.09158 0.65174
 H931 H 0.34378 0.13342 0.68490
 H932 H 0.41453 0.07199 0.61469
 H933 H 0.31461 0.17454 0.69354
 H934 H 0.45206 0.12192 0.56678
 C935 C 0.32940 0.70034 0.19637
 C936 C 0.31898 0.67054 0.18438
 C937 C 0.33999 0.64679 0.16797
 C938 C 0.33005 0.62501 0.13708
 C939 C 0.35032 0.60358 0.11988
 C940 C 0.38082 0.60342 0.13389
 C941 C 0.39023 0.62440 0.16603
 C942 C 0.37013 0.64568 0.18302
 C943 C 0.40408 0.58296 0.11562
 C944 C 0.39927 0.56114 0.08292
 H945 H 0.29539 0.66453 0.18591
 H946 H 0.30680 0.62515 0.12546
 H947 H 0.34198 0.58770 0.09542
 H948 H 0.41345 0.62464 0.17783
 H949 H 0.37833 0.66124 0.20805
 H950 H 0.42695 0.58613 0.12805
 H951 H 0.35269 0.70602 0.19041
 H952 H 0.37687 0.55633 0.07009
   
