data_POSCAR
  _audit_creation_date              2014-09-24
  _audit_creation_method            'ToBaCCo'
  _symmetry_space_group_name_H-M    'P1'
  _symmetry_Int_Tables_number       1
  _symmetry_cell_setting            triclinic
  loop_
  _symmetry_equiv_pos_as_xyz
 x,y,z
_cell_length_a 41.7034
_cell_length_b 28.7574
_cell_length_c 30.7279
_cell_angle_alpha 89.925400
_cell_angle_beta 90.048800
_cell_angle_gamma 90.166300
loop_
  _atom_site_label
  _atom_site_type_symbol
  _atom_site_fract_x
  _atom_site_fract_y
  _atom_site_fract_z
C1 C 0.22645 0.22302 0.22654
 C2 C 0.22654 0.27208 0.22642
 C3 C 0.25007 0.29632 0.24980
 C4 C 0.27355 0.27223 0.27330
 C5 C 0.27350 0.22317 0.27345
 C6 C 0.24995 0.19888 0.25005
 H7 H 0.24990 0.16111 0.25016
 H8 H 0.25012 0.33405 0.24970
 C9 C 0.77392 0.27594 0.22607
 C10 C 0.77385 0.22687 0.22624
 C11 C 0.75032 0.20272 0.24972
 C12 C 0.72687 0.22694 0.27303
 C13 C 0.72693 0.27592 0.27290
 C14 C 0.75044 0.30015 0.24943
 H15 H 0.75040 0.33789 0.24940
 H16 H 0.75025 0.16499 0.24985
 C17 C 0.72692 0.72732 0.72685
 C18 C 0.72688 0.77630 0.72703
 C19 C 0.75033 0.80054 0.75057
 C20 C 0.77386 0.77635 0.77398
 C21 C 0.77389 0.72728 0.77379
 C22 C 0.75042 0.70311 0.75022
 H23 H 0.75043 0.66539 0.75006
 H24 H 0.75022 0.83828 0.75063
 C25 C 0.27305 0.77324 0.72696
 C26 C 0.27301 0.72425 0.72687
 C27 C 0.24955 0.69989 0.75030
 C28 C 0.22610 0.72395 0.77386
 C29 C 0.22616 0.77302 0.77393
 C30 C 0.24964 0.79732 0.75048
 H31 H 0.24970 0.83504 0.75053
 H32 H 0.24959 0.66214 0.75015
 O33 O 0.96878 0.00188 0.05598
 O34 O 1.03101 -0.05955 -0.00634
 O35 O 1.03123 0.00147 0.05621
 O36 O 0.96855 -0.05915 -0.00656
 O37 O 0.96890 -0.00234 -0.05514
 O38 O 1.03158 0.05829 0.00764
 O39 O 1.03136 -0.00274 -0.05492
 O40 O 0.96913 0.05870 0.00740
 Cu41 Cu 0.99986 -0.03457 0.02972
 Cu42 Cu 1.00028 0.03371 -0.02866
 C43 C 0.95845 0.04066 0.04221
 C44 C 1.04168 -0.04151 -0.04115
 C45 C 1.04198 0.04012 0.04252
 C46 C 0.95814 -0.04098 -0.04144
 O47 O 0.53143 0.44184 0.49279
 O48 O 0.46890 0.50241 0.55531
 O49 O 0.46899 0.44129 0.49283
 O50 O 0.53136 0.50294 0.55528
 O51 O 0.53120 0.55971 0.50665
 O52 O 0.46882 0.49805 0.44420
 O53 O 0.46874 0.55917 0.50668
 O54 O 0.53126 0.49860 0.44416
 Cu55 Cu 0.50019 0.46640 0.52896
 Cu56 Cu 0.49999 0.53461 0.47052
 C57 C 0.54189 0.45999 0.45791
 C58 C 0.45826 0.54100 0.54154
 C59 C 0.45838 0.45926 0.45797
 C60 C 0.54181 0.54172 0.54150
 O61 O 0.03133 0.50164 -0.05567
 O62 O -0.03129 0.44078 0.00702
 O63 O -0.03112 0.50201 -0.05550
 O64 O 0.03116 0.44040 0.00685
 O65 O 0.03154 0.49705 0.05545
 O66 O -0.03074 0.55867 -0.00690
 O67 O -0.03092 0.49744 0.05562
 O68 O 0.03170 0.55830 -0.00707
 Cu69 Cu -0.00002 0.46549 -0.02923
 Cu70 Cu 0.00044 0.53358 0.02918
 C71 C 0.04208 0.54025 -0.04196
 C72 C -0.04168 0.45884 0.04189
 C73 C -0.04144 0.54074 -0.04173
 C74 C 0.04186 0.45833 0.04168
 O75 O 0.46824 1.05925 0.49257
 O76 O 0.53078 0.99866 0.55533
 O77 O 0.53070 1.05974 0.49268
 O78 O 0.46833 0.99817 0.55522
 O79 O 0.46845 0.94139 0.50675
 O80 O 0.53082 1.00296 0.44421
 O81 O 0.53089 0.94189 0.50686
 O82 O 0.46835 1.00248 0.44409
 Cu83 Cu 0.49950 1.03469 0.52884
 Cu84 Cu 0.49964 0.96645 0.47058
 C85 C 0.45773 1.04109 0.45775
 C86 C 0.54139 0.96005 0.54169
 C87 C 0.54130 1.04173 0.45790
 C88 C 0.45787 0.95938 0.54155
 C89 C 1.20375 0.19855 0.20403
 C90 C 1.18344 0.17776 0.18392
 C91 C 1.15896 0.15374 0.15971
 C92 C 1.13038 0.17660 0.14906
 C93 C 1.10661 0.15348 0.12526
 C94 C 1.11132 0.10739 0.11204
 C95 C 1.13989 0.08452 0.12273
 C96 C 1.16368 0.10766 0.14651
 C97 C 1.08687 0.08362 0.08752
 C98 C 1.06637 0.06374 0.06697
 H99 H 1.12649 0.21224 0.15912
 H100 H 1.08461 0.17150 0.11717
 H101 H 1.14378 0.04889 0.11266
 H102 H 1.18570 0.08969 0.15455
 C103 C 0.70303 0.70150 0.70284
 C104 C 0.68284 0.68073 0.68254
 C105 C 0.65854 0.65658 0.65809
 C106 C 0.64213 0.67959 0.62463
 C107 C 0.61839 0.65628 0.60094
 C108 C 0.61098 0.60985 0.61061
 C109 C 0.62740 0.58684 0.64407
 C110 C 0.65113 0.61017 0.66778
 C111 C 0.58656 0.58584 0.58623
 C112 C 0.56612 0.56570 0.56580
 H113 H 0.64770 0.71548 0.61686
 H114 H 0.60584 0.67440 0.57514
 H115 H 0.62185 0.55094 0.65182
 H116 H 0.66367 0.59207 0.69361
 C117 C -0.20342 0.30035 0.20340
 C118 C -0.18319 0.32110 0.18313
 C119 C -0.15883 0.34509 0.15867
 C120 C -0.15131 0.39149 0.16817
 C121 C -0.12750 0.41463 0.14444
 C122 C -0.11111 0.39145 0.11115
 C123 C -0.11864 0.34504 0.10166
 C124 C -0.14246 0.32191 0.12536
 C125 C -0.08660 0.41525 0.08674
 C126 C -0.06608 0.43516 0.06627
 H127 H -0.16381 0.40971 0.19388
 H128 H -0.12186 0.45051 0.15205
 H129 H -0.10612 0.32678 0.07599
 H130 H -0.14810 0.28603 0.11774
 C131 C 0.29696 0.79917 0.70309
 C132 C 0.31718 0.82004 0.68291
 C133 C 0.34152 0.84427 0.65863
 C134 C 0.37026 0.82178 0.64821
 C135 C 0.39390 0.84517 0.62440
 C136 C 0.38890 0.89115 0.61093
 C137 C 0.36016 0.91365 0.62137
 C138 C 0.33651 0.89025 0.64517
 C139 C 0.41323 0.91521 0.58643
 C140 C 0.43361 0.93538 0.56592
 H141 H 0.37438 0.78624 0.65848
 H142 H 0.41603 0.82744 0.61650
 H143 H 0.35605 0.94919 0.61111
 H144 H 0.31436 0.90794 0.65303
 C145 C -0.20221 0.70125 -0.20246
 C146 C -0.18202 0.68033 -0.18240
 C147 C -0.15770 0.65603 -0.15825
 C148 C -0.12868 0.67831 -0.14833
 C149 C -0.10506 0.65487 -0.12464
 C150 C -0.11036 0.60904 -0.11081
 C151 C -0.13937 0.58676 -0.12075
 C152 C -0.16300 0.61021 -0.14442
 C153 C -0.08605 0.58492 -0.08643
 C154 C -0.06568 0.56474 -0.06601
 H155 H -0.12433 0.71373 -0.15888
 H156 H -0.08272 0.67243 -0.11713
 H157 H -0.14371 0.55133 -0.11020
 H158 H -0.18537 0.59268 -0.15190
 C159 C 0.29612 1.19883 0.29613
 C160 C 0.31633 1.17816 0.31642
 C161 C 0.34067 1.15429 0.34089
 C162 C 0.34804 1.10788 0.33148
 C163 C 0.37183 1.08485 0.35521
 C164 C 0.38836 1.10815 0.38843
 C165 C 0.38099 1.15457 0.39783
 C166 C 0.35719 1.17758 0.37411
 C167 C 0.41285 1.08447 0.41286
 C168 C 0.43335 1.06465 0.43334
 H169 H 0.33543 1.08957 0.30583
 H170 H 0.37735 1.04896 0.34768
 H171 H 0.39362 1.17292 0.42344
 H172 H 0.35166 1.21347 0.38167
 C173 C 1.20236 -0.20106 -0.20213
 C174 C 1.18226 -0.18027 -0.18188
 C175 C 1.15806 -0.15614 -0.15749
 C176 C 1.14201 -0.17888 -0.12350
 C177 C 1.11834 -0.15560 -0.09987
 C178 C 1.11065 -0.10947 -0.11011
 C179 C 1.12671 -0.08672 -0.14409
 C180 C 1.15037 -0.11001 -0.16774
 C181 C 1.08630 -0.08551 -0.08579
 C182 C 1.06592 -0.06543 -0.06540
 H183 H 1.14778 -0.21454 -0.11530
 H184 H 1.10607 -0.17353 -0.07367
 H185 H 1.12095 -0.05105 -0.15228
 H186 H 1.16262 -0.09212 -0.19398
 C187 C 0.70302 0.30170 0.29667
 C188 C 0.68279 0.32240 0.31677
 C189 C 0.65841 0.34638 0.34098
 C190 C 0.62961 0.32367 0.35120
 C191 C 0.60594 0.34678 0.37496
 C192 C 0.61097 0.39271 0.38858
 C193 C 0.63977 0.41543 0.37833
 C194 C 0.66345 0.39230 0.35458
 C195 C 0.58662 0.41649 0.41305
 C196 C 0.56620 0.43637 0.43354
 H197 H 0.62547 0.28816 0.34082
 H198 H 0.58377 0.32888 0.38271
 H199 H 0.64390 0.45094 0.38871
 H200 H 0.68565 0.41016 0.34688
 C201 C 0.79647 -0.19922 -0.20328
 C202 C 0.81667 -0.17847 -0.18295
 C203 C 0.84100 -0.15450 -0.15843
 C204 C 0.84838 -0.10799 -0.16777
 C205 C 0.87218 -0.08488 -0.14399
 C206 C 0.88870 -0.10820 -0.11081
 C207 C 0.88132 -0.15472 -0.10148
 C208 C 0.85751 -0.17782 -0.12523
 C209 C 0.91320 -0.08445 -0.08637
 C210 C 0.93373 -0.06458 -0.06586
 H211 H 0.83577 -0.08967 -0.19339
 H212 H 0.87770 -0.04891 -0.15148
 H213 H 0.89394 -0.17309 -0.07591
 H214 H 0.85198 -0.21378 -0.11774
 C215 C 0.29747 0.29835 0.29705
 C216 C 0.31769 0.31934 0.31712
 C217 C 0.34204 0.34372 0.34127
 C218 C 0.33677 0.38945 0.35513
 C219 C 0.36043 0.41297 0.37882
 C220 C 0.38942 0.39083 0.38876
 C221 C 0.39467 0.34509 0.37488
 C222 C 0.37103 0.32159 0.35117
 C223 C 0.41374 0.41500 0.41317
 C224 C 0.43412 0.43523 0.43363
 H225 H 0.31443 0.40686 0.34767
 H226 H 0.35612 0.44833 0.38940
 H227 H 0.41700 0.32764 0.38239
 H228 H 0.37534 0.28623 0.34059
 C229 C 0.20345 0.69941 -0.20358
 C230 C 0.18321 0.67854 -0.18342
 C231 C 0.15880 0.65442 -0.15916
 C232 C 0.16359 0.60832 -0.14596
 C233 C 0.13987 0.58506 -0.12216
 C234 C 0.11129 0.60785 -0.11145
 C235 C 0.10651 0.65396 -0.12467
 C236 C 0.13022 0.67720 -0.14848
 C237 C 0.08689 0.58395 -0.08693
 C238 C 0.06644 0.56397 -0.06639
 H239 H 0.18562 0.59041 -0.15402
 H240 H 0.14381 0.54941 -0.11209
 H241 H 0.08451 0.67191 -0.11656
 H242 H 0.12628 0.71285 -0.15856
 C243 C 0.70290 1.20115 0.29694
 C244 C 0.68265 1.18041 0.31717
 C245 C 0.65828 1.15632 0.34153
 C246 C 0.65074 1.10998 0.33180
 C247 C 0.62694 1.08671 0.35543
 C248 C 0.61057 1.10970 0.38886
 C249 C 0.61811 1.15606 0.39857
 C250 C 0.64192 1.17932 0.37496
 C251 C 0.58611 1.08575 0.41319
 C252 C 0.56563 1.06566 0.43360
 H253 H 0.66324 1.09190 0.30600
 H254 H 0.62130 1.05087 0.34766
 H255 H 0.60561 1.17417 0.42435
 H256 H 0.64758 1.21515 0.38276
 C257 C 0.20269 0.29806 0.20251
 C258 C 0.18256 0.31894 0.18229
 C259 C 0.15833 0.34318 0.15794
 C260 C 0.14219 0.32057 0.12396
 C261 C 0.11851 0.34397 0.10036
 C262 C 0.11088 0.39009 0.11062
 C263 C 0.12702 0.41270 0.14459
 C264 C 0.15070 0.38929 0.16822
 C265 C 0.08652 0.41417 0.08632
 C266 C 0.06612 0.43434 0.06594
 H267 H 0.14793 0.28493 0.11574
 H268 H 0.10618 0.32615 0.07417
 H269 H 0.12130 0.44835 0.15280
 H270 H 0.16302 0.40707 0.19444
 C271 C 0.70291 0.80205 0.70323
 C272 C 0.68262 0.82271 0.68309
 C273 C 0.65818 0.84664 0.65886
 C274 C 0.66308 0.89265 0.64532
 C275 C 0.63933 0.91572 0.62154
 C276 C 0.61060 0.89287 0.61119
 C277 C 0.60571 0.84685 0.62475
 C278 C 0.62944 0.82379 0.64854
 C279 C 0.58618 0.91659 0.58668
 C280 C 0.56573 0.93644 0.56613
 H281 H 0.68522 0.91061 0.65309
 H282 H 0.64336 0.95130 0.61120
 H283 H 0.58359 0.82885 0.61692
 H284 H 0.62541 0.78822 0.65888
 C285 C 0.79772 0.20082 0.20256
 C286 C 0.81790 0.17991 0.18256
 C287 C 0.84222 0.15566 0.15849
 C288 C 0.87119 0.17802 0.14848
 C289 C 0.89481 0.15463 0.12486
 C290 C 0.88956 0.10877 0.11117
 C291 C 0.86060 0.08641 0.12121
 C292 C 0.83696 0.10981 0.14481
 C293 C 0.91386 0.08472 0.08685
 C294 C 0.93422 0.06458 0.06647
 H295 H 0.87551 0.21346 0.15892
 H296 H 0.91712 0.17226 0.11728
 H297 H 0.85629 0.05096 0.11077
 H298 H 0.81464 0.09222 0.15235
 C299 C 0.29687 0.69862 0.70289
 C300 C 0.31705 0.67804 0.68259
 C301 C 0.34135 0.65419 0.65813
 C302 C 0.34892 0.60790 0.66788
 C303 C 0.37268 0.58488 0.64418
 C304 C 0.38896 0.60806 0.61066
 C305 C 0.38139 0.65436 0.60092
 C306 C 0.35762 0.67737 0.62460
 C307 C 0.41342 0.58439 0.58629
 C308 C 0.43390 0.56457 0.56586
 H309 H 0.33650 0.58967 0.69377
 H310 H 0.37836 0.54908 0.65198
 H311 H 0.39383 0.67263 0.57507
 H312 H 0.35194 0.71316 0.61678
   
