data_POSCAR
  _audit_creation_date              2014-09-24
  _audit_creation_method            'ToBaCCo'
  _symmetry_space_group_name_H-M    'P1'
  _symmetry_Int_Tables_number       1
  _symmetry_cell_setting            triclinic
  loop_
  _symmetry_equiv_pos_as_xyz
 x,y,z
_cell_length_a 33.5760
_cell_length_b 33.6322
_cell_length_c 33.6676
_cell_angle_alpha 91.509700
_cell_angle_beta 91.437100
_cell_angle_gamma 89.921200
loop_
  _atom_site_label
  _atom_site_type_symbol
  _atom_site_fract_x
  _atom_site_fract_y
  _atom_site_fract_z
C1 C 0.02385 0.44966 0.19351
 H2 H 0.04842 0.47024 0.19155
 C3 C 0.02538 0.41247 0.17380
 H4 H 0.05117 0.40516 0.15637
 C5 C -0.03854 0.43380 0.22015
 H6 H -0.06298 0.44142 0.23910
 C7 C -0.03838 0.39660 0.20098
 H8 H -0.06327 0.37685 0.20526
 N9 N -0.00769 0.45946 0.21639
 C10 C -0.01545 0.58743 0.23978
 H11 H -0.02055 0.58574 0.27130
 C12 C -0.01533 0.62428 0.22196
 H13 H -0.02060 0.65070 0.24014
 C14 C -0.00183 0.55459 0.17848
 H15 H 0.00355 0.52727 0.16183
 C16 C -0.00133 0.59110 0.15932
 H17 H 0.00444 0.59150 0.12784
 Zn18 Zn -0.00698 0.50689 0.24839
 N19 N -0.00825 0.55361 0.21817
 C20 C 0.06654 0.53783 0.27647
 N21 N 0.04062 0.50716 0.28016
 C22 C 0.05018 0.47558 0.30299
 C23 C 0.08730 0.47394 0.32288
 C24 C 0.10367 0.53748 0.29584
 C25 C -0.08758 0.51575 0.25782
 C26 C -0.12430 0.51574 0.27608
 C27 C -0.09050 0.50136 0.33827
 C28 C -0.05415 0.50175 0.31869
 N29 N -0.05353 0.50829 0.27901
 H30 H 0.05912 0.56225 0.25752
 H31 H 0.02944 0.45115 0.30485
 H32 H 0.09464 0.44826 0.34037
 H33 H 0.12380 0.56208 0.29181
 H34 H -0.08617 0.52097 0.22632
 H35 H -0.15092 0.52120 0.25823
 H36 H -0.09060 0.49549 0.36973
 H37 H -0.02666 0.49621 0.33502
 C38 C -0.00776 0.62663 0.18128
 C39 C -0.00584 0.38496 0.17786
 C40 C -0.12627 0.50803 0.31675
 C41 C 0.11480 0.50505 0.31903
 C42 C 0.03502 0.55135 0.80529
 H43 H 0.05967 0.53087 0.80865
 C44 C 0.03612 0.58852 0.82513
 H45 H 0.06163 0.59623 0.84407
 C46 C -0.02737 0.56692 0.77517
 H47 H -0.05162 0.55924 0.75481
 C48 C -0.02758 0.60402 0.79441
 H49 H -0.05245 0.62381 0.78887
 N50 N 0.00361 0.54140 0.78072
 C51 C -0.00197 0.41365 0.75727
 H52 H -0.00577 0.41531 0.72535
 C53 C -0.00310 0.37693 0.77515
 H54 H -0.00780 0.35051 0.75656
 C55 C 0.00861 0.44668 0.81971
 H56 H 0.01290 0.47408 0.83678
 C57 C 0.00772 0.41027 0.83900
 H58 H 0.01152 0.40994 0.87102
 Zn59 Zn 0.00409 0.49388 0.74912
 N60 N 0.00415 0.44749 0.77948
 C61 C 0.07746 0.46422 0.72340
 N62 N 0.05044 0.49389 0.71803
 C63 C 0.05811 0.52467 0.69394
 C64 C 0.09438 0.52645 0.67435
 C65 C 0.11375 0.46470 0.70436
 C66 C -0.07620 0.48383 0.73996
 C67 C -0.11395 0.48258 0.72213
 C68 C -0.08419 0.49594 0.65918
 C69 C -0.04670 0.49675 0.67846
 N70 N -0.04364 0.49136 0.71828
 H71 H 0.07162 0.44057 0.74347
 H72 H 0.03653 0.54836 0.69079
 H73 H 0.10025 0.55147 0.65579
 H74 H 0.13481 0.44091 0.70973
 H75 H -0.07279 0.47949 0.77159
 H76 H -0.13904 0.47699 0.74081
 H77 H -0.08585 0.50095 0.62753
 H78 H -0.02028 0.50228 0.66177
 C79 C 0.00189 0.37475 0.81653
 C80 C 0.00464 0.61558 0.81939
 C81 C -0.11881 0.48924 0.68114
 C82 C 0.12294 0.49631 0.67982
 C83 C 0.19413 0.03133 0.44855
 H84 H 0.19165 0.05587 0.46977
 C85 C 0.17451 0.03297 0.41139
 H86 H 0.15662 0.05878 0.40443
 C87 C 0.22202 -0.03125 0.43107
 H88 H 0.24150 -0.05575 0.43797
 C89 C 0.20290 -0.03096 0.39396
 H90 H 0.20764 -0.05569 0.37338
 N91 N 0.21759 -0.00038 0.45751
 C92 C 0.24118 -0.00764 0.58483
 H93 H 0.27311 -0.01132 0.58308
 C94 C 0.22307 -0.00946 0.62141
 H95 H 0.24150 -0.01452 0.64764
 C96 C 0.17892 0.00331 0.55216
 H97 H 0.16200 0.00802 0.52495
 C98 C 0.15943 0.00178 0.58842
 H99 H 0.12741 0.00552 0.58881
 Zn100 Zn 0.24946 -0.00020 0.50481
 N101 N 0.21916 -0.00102 0.55125
 C102 C 0.27715 0.07277 0.53712
 N103 N 0.28132 0.04634 0.50623
 C104 C 0.30477 0.05471 0.47516
 C105 C 0.32484 0.09115 0.47428
 C106 C 0.29671 0.10925 0.53756
 C107 C 0.25788 -0.08050 0.51163
 C108 C 0.27558 -0.11787 0.51119
 C109 C 0.33876 -0.08676 0.49871
 C110 C 0.31969 -0.04967 0.49947
 N111 N 0.27980 -0.04745 0.50528
 H112 H 0.25762 0.06631 0.56107
 H113 H 0.30698 0.03355 0.45054
 H114 H 0.34282 0.09759 0.44899
 H115 H 0.29227 0.12987 0.56229
 H116 H 0.22623 -0.07776 0.51631
 H117 H 0.25717 -0.14366 0.51581
 H118 H 0.37042 -0.08822 0.49350
 H119 H 0.33656 -0.02291 0.49486
 C120 C 0.18168 -0.00459 0.62369
 C121 C 0.17926 0.00168 0.38334
 C122 C 0.31646 -0.12151 0.50426
 C123 C 0.32053 0.11918 0.50564
 C124 C 0.80696 0.02863 0.55138
 H125 H 0.80879 0.05406 0.53248
 C126 C 0.82668 0.02921 0.58860
 H127 H 0.84400 0.05509 0.59789
 C128 C 0.78061 -0.03515 0.56306
 H129 H 0.76181 -0.05984 0.55385
 C130 C 0.79988 -0.03593 0.60014
 H131 H 0.79584 -0.06158 0.61838
 N132 N 0.78415 -0.00314 0.53953
 C133 C 0.76027 -0.00823 0.41148
 H134 H 0.72853 -0.01327 0.41297
 C135 C 0.77818 -0.00754 0.37469
 H136 H 0.75963 -0.01235 0.34823
 C137 C 0.82206 0.00449 0.44487
 H138 H 0.83884 0.00927 0.47240
 C139 C 0.84138 0.00550 0.40847
 H140 H 0.87315 0.01103 0.40859
 Zn141 Zn 0.75189 -0.00160 0.49236
 N142 N 0.78209 -0.00178 0.44556
 C143 C 0.72544 0.07219 0.46472
 N144 N 0.72091 0.04582 0.49424
 C145 C 0.69791 0.05485 0.52596
 C146 C 0.67857 0.09177 0.52883
 C147 C 0.70668 0.10910 0.46631
 C148 C 0.74101 -0.08175 0.47856
 C149 C 0.72264 -0.11882 0.47789
 C150 C 0.66158 -0.08686 0.49791
 C151 C 0.68124 -0.05009 0.49805
 N152 N 0.72047 -0.04841 0.48909
 H153 H 0.74458 0.06530 0.44024
 H154 H 0.69544 0.03382 0.54954
 H155 H 0.66085 0.09865 0.55454
 H156 H 0.71134 0.12952 0.44254
 H157 H 0.77221 -0.07957 0.47168
 H158 H 0.74005 -0.14486 0.47009
 H159 H 0.63056 -0.08785 0.50589
 H160 H 0.66544 -0.02319 0.50619
 C161 C 0.81931 -0.00020 0.37254
 C162 C 0.82277 -0.00324 0.61376
 C163 C 0.68255 -0.12193 0.48822
 C164 C 0.68319 0.11963 0.49883
 C165 C 0.55503 0.19468 0.96684
 H166 H 0.53428 0.19085 0.94193
 C167 C 0.59188 0.17508 0.96663
 H168 H 0.59907 0.15584 0.94153
 C169 C 0.57159 0.22579 1.02899
 H170 H 0.56445 0.24648 1.05277
 C171 C 0.60842 0.20680 1.03008
 H172 H 0.62854 0.21283 1.05514
 N173 N 0.54572 0.21963 0.99770
 C174 C 0.41820 0.24263 0.99907
 H175 H 0.42067 0.27462 1.00238
 C176 C 0.38095 0.22477 0.99944
 H177 H 0.35508 0.24367 1.00304
 C178 C 0.44979 0.18004 0.99068
 H179 H 0.47687 0.16291 0.98762
 C180 C 0.41283 0.16070 0.99086
 H181 H 0.41198 0.12859 0.98769
 Zn182 Zn 0.49874 0.25092 0.99589
 N183 N 0.45159 0.22034 0.99445
 C184 C 0.47047 0.27569 0.92156
 N185 N 0.49964 0.28205 0.94976
 C186 C 0.53045 0.30717 0.94344
 C187 C 0.53267 0.32697 0.90745
 C188 C 0.47143 0.29483 0.88547
 C189 C 0.48893 0.25932 1.07558
 C190 C 0.48748 0.27683 1.11332
 C191 C 0.50080 0.34049 1.08472
 C192 C 0.50186 0.32159 1.04714
 N193 N 0.49651 0.28157 1.04354
 H194 H 0.44686 0.25478 0.92632
 H195 H 0.55377 0.31108 0.96596
 H196 H 0.55765 0.34644 0.90271
 H197 H 0.44798 0.28872 0.86350
 H198 H 0.48465 0.22756 1.07174
 H199 H 0.48188 0.25813 1.13827
 H200 H 0.50565 0.37228 1.08735
 H201 H 0.50744 0.33872 1.02114
 C202 C 0.37760 0.18318 0.99524
 C203 C 0.61932 0.18145 0.99843
 C204 C 0.49383 0.31787 1.11846
 C205 C 0.50299 0.32056 0.87773
 C206 C 0.44425 0.80420 0.97463
 H207 H 0.46538 0.80692 0.95112
 C208 C 0.40729 0.82354 0.97192
 H209 H 0.40070 0.84147 0.94633
 C210 C 0.42677 0.77611 1.03549
 H211 H 0.43364 0.75676 1.05976
 C212 C 0.38979 0.79483 1.03411
 H213 H 0.36948 0.78980 1.05796
 N214 N 0.45322 0.78093 1.00607
 C215 C 0.58096 0.76054 1.02118
 H216 H 0.57868 0.72931 1.02769
 C217 C 0.61814 0.77875 1.02193
 H218 H 0.64418 0.76119 1.02941
 C219 C 0.54940 0.82054 1.00254
 H220 H 0.52249 0.83648 0.99470
 C221 C 0.58629 0.84005 1.00276
 H222 H 0.58738 0.87109 0.99516
 Zn223 Zn 0.50070 0.75000 1.00763
 N224 N 0.54762 0.78127 1.01103
 C225 C 0.53410 0.72191 0.93656
 N226 N 0.50220 0.71803 0.96029
 C227 C 0.47055 0.69495 0.94860
 C228 C 0.47003 0.67519 0.91140
 C229 C 0.53492 0.70264 0.89949
 C230 C 0.50729 0.74118 1.08841
 C231 C 0.50686 0.72299 1.12503
 C232 C 0.49438 0.66002 1.09079
 C233 C 0.49510 0.67956 1.05454
 N234 N 0.50098 0.71956 1.05417
 H235 H 0.55867 0.74095 0.94565
 H236 H 0.44521 0.69285 0.96766
 H237 H 0.44427 0.65759 0.90226
 H238 H 0.56049 0.70691 0.88111
 H239 H 0.51204 0.77293 1.08718
 H240 H 0.51152 0.74114 1.15177
 H241 H 0.48918 0.62825 1.09068
 H242 H 0.49046 0.66294 1.02690
 C243 C 0.62137 0.81888 1.01206
 C244 C 0.37913 0.81864 1.00179
 C245 C 0.50000 0.68192 1.12670
 C246 C 0.50240 0.67937 0.88608
 B247 B 1.00109 1.04294 0.02345
 B248 B 0.99882 1.04051 -0.02671
 B249 B 1.04100 1.02662 -0.00215
 B250 B 1.02770 1.00318 0.03936
 B251 B 0.97740 1.00254 0.04051
 B252 B 0.95934 1.02544 -0.00045
 B253 B 1.00017 0.95900 -0.02515
 B254 B 1.00248 0.96138 0.02511
 B255 B 0.96026 0.97522 0.00047
 B256 B 0.97357 0.99876 -0.04105
 B257 B 1.02385 0.99941 -0.04214
 B258 B 1.04193 0.97642 -0.00121
 B259 B 0.53961 0.49774 0.47575
 B260 B 0.54173 0.50014 0.52596
 B261 B 0.52550 0.53988 0.50028
 B262 B 0.49841 0.52261 0.46018
 B263 B 0.49789 0.47243 0.46137
 B264 B 0.52450 0.45833 0.50201
 B265 B 0.46007 0.50127 0.52732
 B266 B 0.45791 0.49892 0.47711
 B267 B 0.47416 0.45914 0.50277
 B268 B 0.50124 0.47635 0.54286
 B269 B 0.50179 0.52659 0.54174
 B270 B 0.47523 0.54064 0.50102
 N271 N 1.02899 1.29718 0.12360
 C272 C 0.99888 1.27120 0.12907
 N273 N 0.96709 1.28328 0.15019
 N274 N 0.96554 1.32010 0.16560
 C275 C 0.99565 1.34640 0.16048
 N276 N 1.02742 1.33407 0.13904
 C277 C 1.00034 1.23141 0.11254
 C278 C 1.00112 1.19808 0.09843
 C279 C 1.00194 1.15875 0.08076
 N280 N 0.98161 1.12846 0.09673
 N281 N 0.98162 1.09232 0.07941
 C282 C 1.00191 1.08526 0.04554
 N283 N 1.02230 1.11572 0.02987
 N284 N 1.02233 1.15178 0.04711
 N285 N 1.00481 0.70521 0.10747
 C286 C 0.99863 0.73872 0.12979
 N287 N 0.99003 0.73546 0.16864
 N288 N 0.98783 0.69983 0.18474
 C289 C 0.99405 0.66607 0.16265
 N290 N 1.00260 0.66950 0.12362
 C291 C 1.00084 0.77730 0.11272
 C292 C 1.00222 0.81001 0.09898
 C293 C 1.00319 0.84900 0.08268
 N294 N 1.03658 0.86250 0.06572
 N295 N 1.03682 0.89805 0.04917
 C296 C 1.00381 0.92145 0.04918
 N297 N 0.97055 0.90784 0.06647
 N298 N 0.97026 0.87232 0.08303
 N299 N 1.00559 1.29647 -0.10811
 C300 C 0.99972 1.26309 -0.13100
 N301 N 0.99449 1.26633 -0.17076
 N302 N 0.99513 1.30185 -0.18719
 C303 C 1.00102 1.33549 -0.16455
 N304 N 1.00623 1.33208 -0.12461
 C305 C 0.99915 1.22464 -0.11369
 C306 C 0.99860 1.19198 -0.09990
 C307 C 0.99795 1.15306 -0.08363
 N308 N 0.96474 1.13959 -0.06638
 N309 N 0.96459 1.10398 -0.05003
 C310 C 0.99749 1.08047 -0.05057
 N311 N 1.03060 1.09405 -0.06815
 N312 N 1.03081 1.12966 -0.08452
 N313 N 1.03778 0.70596 -0.12378
 C314 C 1.00689 0.73116 -0.13050
 N315 N 0.97528 0.71834 -0.15302
 N316 N 0.97462 0.68156 -0.16857
 C317 C 1.00545 0.65611 -0.16213
 N318 N 1.03711 0.66908 -0.13938
 C319 C 1.00704 0.77078 -0.11365
 C320 C 1.00593 0.80404 -0.09947
 C321 C 1.00355 0.84327 -0.08194
 N322 N 1.02170 0.87448 -0.09863
 N323 N 1.01992 0.91068 -0.08165
 C324 C 0.99985 0.91692 -0.04751
 N325 N 0.98138 0.88559 -0.03126
 N326 N 0.98313 0.84944 -0.04816
 N327 N 1.12639 1.03739 0.29317
 C328 C 1.13182 1.00652 0.26710
 N329 N 1.15199 0.97401 0.27931
 N330 N 1.16655 0.97246 0.31635
 C331 C 1.16144 1.00329 0.34266
 N332 N 1.14099 1.03582 0.33031
 C333 C 1.11643 1.00789 0.22703
 C334 C 1.10352 1.00807 0.19332
 C335 C 1.08751 1.00758 0.15343
 N336 N 1.08690 0.97338 0.13119
 N337 N 1.06975 0.97235 0.09506
 C338 C 1.05279 1.00550 0.07984
 N339 N 1.05379 1.03971 0.10218
 N340 N 1.07090 1.04080 0.13829
 N341 N 1.10595 0.99947 -0.29825
 C342 C 1.12845 0.99281 -0.26505
 N343 N 1.16809 0.98675 -0.26836
 N344 N 1.18477 0.98737 -0.30378
 C345 C 1.16250 0.99410 -0.33721
 N346 N 1.12268 1.00008 -0.33373
 C347 C 1.11087 0.99308 -0.22670
 C348 C 1.09641 0.99375 -0.19431
 C349 C 1.07883 0.99524 -0.15597
 N350 N 1.09637 0.97687 -0.12469
 N351 N 1.07968 0.97836 -0.08916
 C352 C 1.04497 0.99832 -0.08373
 N353 N 1.02774 1.01675 -0.11518
 N354 N 1.04434 1.01529 -0.15065
 N355 N 0.89374 1.01089 0.29696
 C356 C 0.87141 1.00561 0.26310
 N357 N 0.83196 0.99827 0.26574
 N358 N 0.81530 0.99638 0.30110
 C359 C 0.83738 1.00165 0.33529
 N360 N 0.87704 1.00899 0.33239
 C361 C 0.88928 1.00683 0.22485
 C362 C 0.90405 1.00709 0.19258
 C363 C 0.92208 1.00636 0.15435
 N364 N 0.90475 1.02504 0.12312
 N365 N 0.92161 1.02382 0.08765
 C366 C 0.95628 1.00377 0.08219
 N367 N 0.97336 0.98512 0.11359
 N368 N 0.95660 0.98633 0.14899
 N369 N 0.87524 1.03012 -0.29307
 C370 C 0.87057 0.99827 -0.26972
 N371 N 0.85102 0.96585 -0.28477
 N372 N 0.83636 0.96535 -0.32188
 C373 C 0.84072 0.99719 -0.34546
 N374 N 0.86054 1.02961 -0.33027
 C375 C 0.88593 0.99866 -0.22949
 C376 C 0.89878 0.99833 -0.19571
 C377 C 0.91461 0.99763 -0.15569
 N378 N 0.91544 1.03124 -0.13259
 N379 N 0.93219 1.03107 -0.09631
 C380 C 0.94849 0.99731 -0.08168
 N381 N 0.94726 0.96365 -0.10485
 N382 N 0.93052 0.96375 -0.14116
 N383 N 1.29957 1.10824 -0.00826
 C384 C 1.26655 1.13109 -0.00394
 N385 N 1.27057 1.17101 0.00010
 N386 N 1.30648 1.18764 -0.00015
 C387 C 1.33984 1.16508 -0.00446
 N388 N 1.33557 1.12493 -0.00851
 C389 C 1.22767 1.11358 -0.00382
 C390 C 1.19464 1.09968 -0.00372
 C391 C 1.15527 1.08332 -0.00373
 N392 N 1.13416 1.08361 0.03006
 N393 N 1.09805 1.06727 0.03023
 C394 C 1.08168 1.05034 -0.00340
 N395 N 1.10292 1.05039 -0.03718
 N396 N 1.13901 1.06670 -0.03742
 N397 N 0.70852 1.12512 -0.03295
 C398 C 0.73427 1.13239 -0.00192
 N399 N 0.72219 1.15511 0.02930
 N400 N 0.68557 1.17032 0.02942
 C401 C 0.65959 1.16332 -0.00160
 N402 N 0.67183 1.14037 -0.03283
 C403 C 0.77369 1.11594 -0.00182
 C404 C 0.80664 1.10168 -0.00153
 C405 C 0.84528 1.08349 -0.00151
 N406 N 0.87666 1.10052 0.01862
 N407 N 0.91226 1.08286 0.01892
 C408 C 0.91763 1.04762 -0.00087
 N409 N 0.88606 1.03086 -0.02092
 N410 N 0.85056 1.04842 -0.02127
 N411 N 1.27788 0.84599 0.02628
 C412 C 1.26671 0.86827 -0.00498
 N413 N 1.29313 0.87447 -0.03403
 N414 N 1.32955 0.85861 -0.03190
 C415 C 1.34096 0.83607 -0.00059
 N416 N 1.31421 0.83019 0.02839
 C417 C 1.22764 0.88571 -0.00649
 C418 C 1.19486 0.90046 -0.00633
 C419 C 1.15622 0.91873 -0.00476
 N420 N 1.12418 0.90182 -0.02381
 N421 N 1.08850 0.91919 -0.02224
 C422 C 1.08360 0.95397 -0.00149
 N423 N 1.11577 0.97051 0.01776
 N424 N 1.15140 0.95322 0.01622
 N425 N 0.70178 0.89197 -0.00288
 C426 C 0.73481 0.87036 0.00604
 N427 N 0.73062 0.83231 0.01737
 N428 N 0.69455 0.81625 0.01952
 C429 C 0.66127 0.83761 0.01054
 N430 N 0.66563 0.87586 -0.00072
 C431 C 0.77385 0.88741 0.00396
 C432 C 0.80690 0.90124 0.00287
 C433 C 0.84624 0.91783 0.00250
 N434 N 0.86749 0.91708 -0.03124
 N435 N 0.90351 0.93368 -0.03160
 C436 C 0.91963 0.95136 0.00179
 N437 N 0.89824 0.95179 0.03548
 N438 N 0.86228 0.93523 0.03591
 N439 N 0.79585 0.49540 0.39146
 C440 C 0.76207 0.50181 0.36959
 N441 N 0.76492 0.51058 0.33076
 N442 N 0.80042 0.51274 0.31422
 C443 C 0.83445 0.50629 0.33585
 N444 N 0.83142 0.49757 0.37487
 C445 C 0.72363 0.49960 0.38713
 C446 C 0.69102 0.49821 0.40124
 C447 C 0.65213 0.49722 0.41791
 N448 N 0.63901 0.46407 0.43549
 N449 N 0.60347 0.46379 0.45222
 C450 C 0.57970 0.49649 0.45177
 N451 N 0.59295 0.52951 0.43391
 N452 N 0.62845 0.52986 0.41716
 N453 N 0.20443 0.47000 0.37432
 C454 C 0.23032 0.50033 0.36950
 N455 N 0.21821 0.53227 0.34872
 N456 N 0.18144 0.53377 0.33305
 C457 C 0.15532 0.50347 0.33762
 N458 N 0.16760 0.47151 0.35862
 C459 C 0.26999 0.49896 0.38640
 C460 C 0.30322 0.49829 0.40084
 C461 C 0.34241 0.49765 0.41891
 N462 N 0.37310 0.51717 0.40266
 N463 N 0.40913 0.51732 0.42029
 C464 C 0.41568 0.49798 0.45476
 N465 N 0.38481 0.47842 0.47074
 N466 N 0.34886 0.47824 0.45320
 N467 N 0.77501 0.48496 0.66964
 C468 C 0.76983 0.49235 0.63057
 N469 N 0.80223 0.49823 0.60821
 N470 N 0.83877 0.49693 0.62457
 C471 C 0.84430 0.48972 0.66395
 N472 N 0.81147 0.48367 0.68596
 C473 C 0.73042 0.49442 0.61343
 C474 C 0.69713 0.49626 0.59942
 C475 C 0.65771 0.49855 0.58236
 N476 N 0.62690 0.47949 0.59889
 N477 N 0.59057 0.48067 0.58206
 C478 C 0.58385 0.50095 0.54820
 N479 N 0.61478 0.52030 0.53211
 N480 N 0.65105 0.51916 0.54886
 N481 N 0.22577 0.47024 0.65238
 C482 C 0.23643 0.50172 0.63081
 N483 N 0.20971 0.53136 0.62462
 N484 N 0.17345 0.52959 0.63979
 C485 C 0.16265 0.49809 0.66162
 N486 N 0.18959 0.46849 0.66751
 C487 C 0.27559 0.50339 0.61484
 C488 C 0.30858 0.50396 0.60154
 C489 C 0.34766 0.50405 0.58528
 N490 N 0.36139 0.53677 0.56747
 N491 N 0.39687 0.53621 0.55068
 C492 C 0.41999 0.50306 0.55122
 N493 N 0.40616 0.47040 0.56928
 N494 N 0.37065 0.47089 0.58610
 N495 N 0.48996 0.60623 0.20384
 C496 C 0.49508 0.62850 0.23777
 N497 N 0.50193 0.66800 0.23528
 N498 N 0.50351 0.68476 0.19998
 C499 C 0.49840 0.66272 0.16581
 N500 N 0.49154 0.62305 0.16847
 C501 C 0.49412 0.61054 0.27595
 C502 C 0.49399 0.59574 0.30818
 C503 C 0.49479 0.57778 0.34638
 N504 N 0.51471 0.54324 0.35166
 N505 N 0.51588 0.52652 0.38704
 C506 C 0.49731 0.54368 0.41851
 N507 N 0.47740 0.57838 0.41311
 N508 N 0.47620 0.59519 0.37766
 N509 N 0.46942 0.62597 0.79332
 C510 C 0.50120 0.63090 0.76983
 N511 N 0.53344 0.65096 0.78463
 N512 N 0.53382 0.66587 0.82166
 C513 C 0.50207 0.66125 0.84538
 N514 N 0.46982 0.64091 0.83043
 C515 C 0.50095 0.61523 0.72972
 C516 C 0.50143 0.60213 0.69603
 C517 C 0.50236 0.58602 0.65614
 N518 N 0.53620 0.56944 0.64209
 N519 N 0.53649 0.55251 0.60587
 C520 C 0.50306 0.55172 0.58232
 N521 N 0.46934 0.56870 0.59646
 N522 N 0.46899 0.58564 0.63266
 N523 N 0.50201 0.39121 0.20225
 C524 C 0.49495 0.36813 0.23377
 N525 N 0.48718 0.32899 0.22745
 N526 N 0.48662 0.31330 0.19076
 C527 C 0.49375 0.33612 0.15898
 N528 N 0.50145 0.37546 0.16546
 C529 C 0.49561 0.38463 0.27343
 C530 C 0.49586 0.39789 0.30700
 C531 C 0.49576 0.41383 0.34685
 N532 N 0.52952 0.41403 0.36978
 N533 N 0.52976 0.43068 0.40612
 C534 C 0.49624 0.44745 0.42088
 N535 N 0.46244 0.44677 0.39788
 N536 N 0.46214 0.43015 0.36156
 N537 N 0.47779 0.34794 0.77458
 C538 C 0.50864 0.37168 0.76564
 N539 N 0.53768 0.37918 0.79357
 N540 N 0.53594 0.36319 0.82934
 C541 C 0.50503 0.33925 0.83842
 N542 N 0.47606 0.33201 0.81025
 C543 C 0.50980 0.38905 0.72722
 C544 C 0.50930 0.40356 0.69486
 C545 C 0.50728 0.42129 0.65657
 N546 N 0.52510 0.40383 0.62488
 N547 N 0.52285 0.42049 0.58940
 C548 C 0.50260 0.45505 0.58436
 N549 N 0.48461 0.47217 0.61619
 N550 N 0.48684 0.45560 0.65162
 N551 N 0.60920 0.79804 0.50372
 C552 C 0.63062 0.76499 0.49442
 N553 N 0.66862 0.76905 0.48267
 N554 N 0.68482 0.80500 0.48046
 C555 C 0.66366 0.83830 0.48981
 N556 N 0.62545 0.83407 0.50150
 C557 C 0.61342 0.72607 0.49658
 C558 C 0.59949 0.69310 0.49775
 C559 C 0.58283 0.65384 0.49821
 N560 N 0.58274 0.63310 0.53221
 N561 N 0.56615 0.59712 0.53262
 C562 C 0.54933 0.58053 0.49902
 N563 N 0.54970 0.60143 0.46508
 N564 N 0.56625 0.63734 0.46461
 N565 N 0.62715 0.20789 0.53518
 C566 C 0.63307 0.23404 0.50588
 N567 N 0.65497 0.22258 0.47435
 N568 N 0.67062 0.18623 0.47222
 C569 C 0.66493 0.15983 0.50144
 N570 N 0.64286 0.17145 0.53304
 C571 C 0.61570 0.27310 0.50738
 C572 C 0.60094 0.30583 0.50720
 C573 C 0.58257 0.34438 0.50560
 N574 N 0.59963 0.37653 0.52428
 N575 N 0.58214 0.41210 0.52269
 C576 C 0.54709 0.41679 0.50229
 N577 N 0.53041 0.38451 0.48341
 N578 N 0.54781 0.34899 0.48497
 N579 N 0.32865 0.76940 0.50560
 C580 C 0.36793 0.76490 0.49865
 N581 N 0.39065 0.79763 0.49368
 N582 N 0.37445 0.83384 0.49547
 C583 C 0.33499 0.83852 0.50244
 N584 N 0.31250 0.80553 0.50740
 C585 C 0.38528 0.72598 0.49767
 C586 C 0.39981 0.69324 0.49764
 C587 C 0.41787 0.65468 0.49868
 N588 N 0.45236 0.64960 0.51954
 N589 N 0.46958 0.61401 0.52054
 C590 C 0.45298 0.58218 0.50084
 N591 N 0.41823 0.58734 0.48009
 N592 N 0.40091 0.62301 0.47906
 N593 N 0.37554 0.20706 0.47201
 C594 C 0.37048 0.23334 0.50273
 N595 N 0.34977 0.22201 0.53450
 N596 N 0.33437 0.18562 0.53547
 C597 C 0.33912 0.15911 0.50476
 N598 N 0.36010 0.17059 0.47299
 C599 C 0.38664 0.27277 0.50185
 C600 C 0.40008 0.30598 0.50193
 C601 C 0.41643 0.34539 0.50265
 N602 N 0.43294 0.36115 0.53665
 N603 N 0.44960 0.39707 0.53701
 C604 C 0.45017 0.41861 0.50349
 N605 N 0.43337 0.40274 0.46956
 N606 N 0.41668 0.36681 0.46914
   
