data_POSCAR
  _audit_creation_date              2014-09-24
  _audit_creation_method            'ToBaCCo'
  _symmetry_space_group_name_H-M    'P1'
  _symmetry_Int_Tables_number       1
  _symmetry_cell_setting            triclinic
  loop_
  _symmetry_equiv_pos_as_xyz
 x,y,z
_cell_length_a 27.4940
_cell_length_b 27.3413
_cell_length_c 63.8579
_cell_angle_alpha 86.909400
_cell_angle_beta 92.270600
_cell_angle_gamma 120.289700
loop_
  _atom_site_label
  _atom_site_type_symbol
  _atom_site_fract_x
  _atom_site_fract_y
  _atom_site_fract_z
C1 C 0.00700 0.08713 0.52802
 H2 H 0.04567 0.08575 0.52825
 C3 C 0.00110 0.12232 0.54143
 H4 H 0.03521 0.14663 0.55226
 C5 C -0.08468 0.05509 0.51389
 H6 H -0.11768 0.02942 0.50292
 C7 C -0.09237 0.08984 0.52705
 H8 H -0.13160 0.09023 0.52624
 N9 N -0.03563 0.05416 0.51471
 C10 C 0.00105 -0.07934 0.50238
 H11 H 0.00391 -0.07539 0.48547
 C12 C 0.00890 -0.12044 0.51339
 H13 H 0.01808 -0.14799 0.50488
 C14 C -0.01498 -0.04861 0.53404
 H15 H -0.02486 -0.02097 0.54205
 C16 C -0.00784 -0.08935 0.54565
 H17 H -0.01079 -0.09125 0.56254
 Zn18 Zn -0.02113 0.01005 0.49685
 N19 N -0.00995 -0.04399 0.51282
 C20 C 0.09151 0.05667 0.48240
 N21 N 0.04445 0.06120 0.48171
 C22 C 0.04324 0.10458 0.47078
 C23 C 0.09021 0.14523 0.45965
 C24 C 0.13941 0.09615 0.47138
 C25 C -0.13307 -0.06923 0.48639
 C26 C -0.17817 -0.10355 0.47324
 C27 C -0.11797 -0.05805 0.44341
 C28 C -0.07427 -0.02423 0.45713
 N29 N -0.08236 -0.03059 0.47819
 H30 H 0.09230 0.02278 0.49160
 H31 H 0.00547 0.10758 0.47076
 H32 H 0.08658 0.17847 0.45118
 H33 H 0.17627 0.09141 0.47211
 H34 H -0.13815 -0.07407 0.50322
 H35 H -0.21797 -0.13448 0.48020
 H36 H -0.10954 -0.05110 0.42682
 H37 H -0.03346 0.00616 0.45091
 C38 C 0.00399 -0.12614 0.53527
 C39 C -0.04894 0.12452 0.54088
 C40 C -0.17082 -0.09943 0.45142
 C41 C 0.13958 0.14144 0.45974
 C42 C 1.10283 0.01897 0.14001
 H43 H 1.09868 0.05630 0.13985
 C44 C 1.14407 0.01891 0.12805
 H45 H 1.17038 0.05617 0.11835
 C46 C 1.07127 -0.07542 0.15243
 H47 H 1.04298 -0.11186 0.16209
 C48 C 1.11208 -0.07734 0.14065
 H49 H 1.11478 -0.11557 0.14123
 N50 N 1.06737 -0.02772 0.15180
 C51 C 0.92128 -0.00740 0.15782
 H52 H 0.91965 -0.00519 0.17462
 C53 C 0.87985 -0.00597 0.14481
 H54 H 0.84641 -0.00285 0.15184
 C55 C 0.96499 -0.01804 0.12854
 H56 H 0.99724 -0.02429 0.12225
 C57 C 0.92433 -0.01717 0.11501
 H58 H 0.92629 -0.02188 0.09838
 Zn59 Zn 1.01497 -0.02067 0.16771
 N60 N 0.96295 -0.01298 0.14951
 C61 C 1.04850 0.08862 0.18346
 N62 N 1.05743 0.04398 0.18392
 C63 C 1.10002 0.04446 0.19558
 C64 C 1.13465 0.09010 0.20799
 C65 C 1.08231 0.13546 0.19564
 C66 C 0.93547 -0.13489 0.17644
 C67 C 0.89972 -0.18263 0.18886
 C68 C 0.94398 -0.12868 0.21965
 C69 C 0.97819 -0.08191 0.20664
 N70 N 0.97327 -0.08567 0.18545
 H71 H 1.01540 0.08816 0.17363
 H72 H 1.10709 0.00901 0.19519
 H73 H 1.16838 0.08845 0.21659
 H74 H 1.07423 0.17042 0.19515
 H75 H 0.93225 -0.13664 0.15952
 H76 H 0.87034 -0.22081 0.18103
 H77 H 0.94830 -0.12422 0.23650
 H78 H 1.00767 -0.04229 0.21358
 C79 C 0.88120 -0.01093 0.12306
 C80 C 1.14954 -0.02955 0.12845
 C81 C 0.90295 -0.17965 0.21091
 C82 C 1.12572 0.13654 0.20842
 C83 C 0.02190 0.92914 0.86830
 H84 H -0.01607 0.88884 0.86620
 C85 C 0.06349 0.93234 0.88230
 H86 H 0.05644 0.89466 0.89132
 C87 C 0.07880 1.02606 0.85808
 H88 H 0.08512 1.06230 0.84839
 C89 C 0.12190 1.03103 0.87180
 H90 H 0.16015 1.07170 0.87285
 N91 N 0.02970 0.97572 0.85672
 C92 C -0.11893 0.98215 0.84485
 H93 H -0.10526 1.00810 0.83056
 C94 C -0.16167 0.98091 0.85637
 H95 H -0.17946 1.00606 0.85017
 C96 C -0.11244 0.91717 0.86908
 H97 H -0.09320 0.89251 0.87412
 C98 C -0.15515 0.91449 0.88111
 H99 H -0.16772 0.88756 0.89527
 Zn100 Zn -0.02884 0.96452 0.83728
 N101 N -0.09382 0.95214 0.85168
 C102 C -0.09611 0.85578 0.81900
 N103 N -0.04388 0.90137 0.82183
 C104 C 0.00228 0.90448 0.81350
 C105 C -0.00289 0.86157 0.80121
 C106 C -0.10336 0.81152 0.80673
 C107 C 0.00851 1.07978 0.82600
 C108 C 0.01854 1.12544 0.81228
 C109 C -0.00031 1.06504 0.78321
 C110 C -0.00975 1.02078 0.79746
 N111 N -0.00588 1.02853 0.81845
 H112 H -0.13214 0.85410 0.82600
 H113 H 0.04341 0.94089 0.81635
 H114 H 0.03550 0.86594 0.79543
 H115 H -0.14541 0.77587 0.80439
 H116 H 0.00984 1.08454 0.84276
 H117 H 0.02787 1.16471 0.81901
 H118 H -0.00518 1.05715 0.76659
 H119 H -0.02243 0.97960 0.79166
 C120 C -0.17925 0.94821 0.87535
 C121 C 0.11445 0.98348 0.88404
 C122 C 0.01314 1.11811 0.79045
 C123 C -0.05657 0.81444 0.79720
 O124 O 0.56578 0.01490 0.02095
 O125 O 0.46820 0.01890 -0.01954
 O126 O 0.55915 0.01152 -0.01987
 O127 O 0.47270 0.01798 0.02114
 O128 O 0.52296 0.11152 0.01942
 O129 O 0.60986 0.10500 -0.02169
 O130 O 0.51896 0.11241 -0.02129
 O131 O 0.61590 0.10844 0.01916
 Cu132 Cu 0.51150 0.00643 0.00082
 Cu133 Cu 0.57211 0.11871 -0.00130
 C134 C 0.60734 0.06120 0.02701
 C135 C 0.47682 0.06651 -0.02717
 C136 C 0.59918 0.05706 -0.02779
 C137 C 0.48285 0.06575 0.02721
 O138 O -0.04658 0.51844 0.65054
 O139 O -0.01857 0.43549 0.69145
 O140 O -0.03367 0.52278 0.69101
 O141 O -0.03098 0.43167 0.65084
 O142 O 0.06051 0.48996 0.64734
 O143 O 0.05799 0.57994 0.68736
 O144 O 0.07300 0.49328 0.68800
 O145 O 0.04493 0.57647 0.64697
 Cu146 Cu -0.04166 0.47116 0.67134
 Cu147 Cu 0.06828 0.54061 0.66704
 C148 C -0.00565 0.56192 0.64195
 C149 C 0.03189 0.45005 0.69665
 C150 C 0.01191 0.56725 0.69582
 C151 C 0.01545 0.44546 0.64231
 O152 O 0.53028 0.56462 0.30359
 O153 O 0.43435 0.49595 0.34784
 O154 O 0.53311 0.58718 0.34302
 O155 O 0.43309 0.47272 0.30889
 O156 O 0.47646 0.42478 0.31737
 O157 O 0.57469 0.53759 0.35161
 O158 O 0.47550 0.44591 0.35632
 O159 O 0.57360 0.51682 0.31239
 Cu160 Cu 0.47860 0.53520 0.32502
 Cu161 Cu 0.52938 0.47648 0.33536
 C162 C 0.56831 0.55266 0.30046
 C163 C 0.43766 0.45840 0.35931
 C164 C 0.57122 0.58180 0.35299
 C165 C 0.43789 0.42914 0.30743
 C166 C -0.05744 0.16137 0.55472
 C167 C -0.01257 0.21023 0.56312
 C168 C -0.01842 0.24707 0.57783
 C169 C 0.03009 0.28674 0.58851
 C170 C 0.02756 0.32284 0.60250
 C171 C -0.02369 0.32074 0.60595
 C172 C -0.07241 0.28077 0.59544
 C173 C -0.06991 0.24444 0.58143
 C174 C -0.02781 0.35842 0.62076
 C175 C 0.01848 0.40987 0.62656
 H176 H 0.02992 0.22228 0.55897
 H177 H 0.07023 0.28946 0.58619
 H178 H 0.06576 0.35146 0.61080
 H179 H -0.11247 0.27806 0.59791
 H180 H -0.10824 0.21522 0.57335
 H181 H -0.06880 0.34576 0.62697
 H182 H -0.10033 0.14968 0.55794
 H183 H 0.05898 0.42505 0.61950
 C184 C 0.86630 0.77562 0.22455
 C185 C 0.81745 0.72650 0.21833
 C186 C 0.77677 0.68566 0.23383
 C187 C 0.71896 0.65966 0.22914
 C188 C 0.67934 0.62455 0.24413
 C189 C 0.69697 0.61422 0.26401
 C190 C 0.75476 0.63749 0.26825
 C191 C 0.79441 0.67326 0.25336
 C192 C 0.65614 0.58028 0.28064
 C193 C 0.60644 0.58142 0.28279
 H194 H 0.80429 0.72108 0.20204
 H195 H 0.70441 0.66792 0.21408
 H196 H 0.63501 0.60570 0.24016
 H197 H 0.76926 0.62933 0.28334
 H198 H 0.83876 0.69131 0.25717
 H199 H 0.66802 0.55856 0.29264
 H200 H 0.87405 0.78160 0.24125
 H201 H 0.59687 0.60740 0.27197
 C202 C 0.15817 -0.01492 -0.10127
 C203 C 0.21581 0.02282 -0.10371
 C204 C 0.25966 0.02151 -0.08978
 C205 C 0.31362 0.06975 -0.08928
 C206 C 0.35621 0.07034 -0.07638
 C207 C 0.34561 0.02239 -0.06365
 C208 C 0.29214 -0.02638 -0.06463
 C209 C 0.24963 -0.02699 -0.07755
 C210 C 0.38878 0.02104 -0.04933
 C211 C 0.43751 0.06944 -0.04278
 H212 H 0.22982 0.05487 -0.11629
 H213 H 0.32284 0.10729 -0.09886
 H214 H 0.39725 0.10822 -0.07671
 H215 H 0.28307 -0.06422 -0.05528
 H216 H 0.20952 -0.06592 -0.07805
 H217 H 0.38021 -0.01984 -0.04272
 H218 H 0.14394 -0.04671 -0.08861
 H219 H 0.44628 0.11112 -0.04830
 C220 C 0.01262 0.83035 0.54681
 C221 C -0.01198 0.80613 0.56617
 C222 C -0.00288 0.76354 0.57820
 C223 C -0.04276 0.72785 0.59313
 C224 C -0.03484 0.68848 0.60539
 C225 C 0.01352 0.68420 0.60303
 C226 C 0.05381 0.72041 0.58828
 C227 C 0.04569 0.75958 0.57591
 C228 C 0.02470 0.64509 0.61653
 C229 C -0.01784 0.59621 0.62647
 H230 H -0.04154 0.81658 0.57239
 H231 H -0.08007 0.73070 0.59543
 H232 H -0.06590 0.66280 0.61709
 H233 H 0.09187 0.71861 0.58643
 H234 H 0.07823 0.78760 0.56504
 H235 H 0.06803 0.65516 0.61869
 H236 H 0.03633 0.81473 0.53921
 H237 H -0.06160 0.58310 0.62328
 C238 C 0.15883 0.18392 0.22076
 C239 C 0.19859 0.18689 0.23585
 C240 C 0.23539 0.23741 0.24817
 C241 C 0.26158 0.23006 0.26640
 C242 C 0.29923 0.27640 0.27800
 C243 C 0.31221 0.33155 0.27149
 C244 C 0.28499 0.33901 0.25358
 C245 C 0.24723 0.29246 0.24189
 C246 C 0.35359 0.38147 0.28320
 C247 C 0.39827 0.38197 0.29453
 H248 H 0.20197 0.14985 0.23983
 H249 H 0.25302 0.18816 0.27168
 H250 H 0.31772 0.26869 0.29215
 H251 H 0.29408 0.38109 0.24834
 H252 H 0.22882 0.30015 0.22773
 H253 H 0.34999 0.41921 0.28228
 H254 H 0.15159 0.21934 0.21892
 H255 H 0.40471 0.34612 0.29412
 C256 C 0.78335 -0.05125 -0.11159
 C257 C 0.75999 -0.01589 -0.11416
 C258 C 0.72427 -0.01237 -0.09820
 C259 C 0.72265 0.03797 -0.09730
 C260 C 0.69067 0.04378 -0.08220
 C261 C 0.65934 -0.00094 -0.06765
 C262 C 0.65945 -0.05197 -0.06900
 C263 C 0.69156 -0.05774 -0.08408
 C264 C 0.62508 0.00340 -0.05130
 C265 C 0.63389 0.05481 -0.04425
 H266 H 0.77179 0.01457 -0.12718
 H267 H 0.74670 0.07324 -0.10822
 H268 H 0.69018 0.08307 -0.08223
 H269 H 0.63482 -0.08746 -0.05825
 H270 H 0.68994 -0.09797 -0.08476
 H271 H 0.59293 -0.03570 -0.04387
 H272 H 0.77300 -0.07786 -0.09739
 H273 H 0.66772 0.09462 -0.05047
 C274 C 0.19231 -0.03205 0.11586
 C275 C 0.24195 0.01646 0.10928
 C276 C 0.28318 0.01628 0.09508
 C277 C 0.32117 0.06737 0.08464
 C278 C 0.36010 0.06949 0.07069
 C279 C 0.36245 0.02042 0.06706
 C280 C 0.32489 -0.03056 0.07770
 C281 C 0.28580 -0.03271 0.09163
 C282 C 0.40164 0.01997 0.05187
 C283 C 0.44764 0.06870 0.04327
 H284 H 0.25052 0.05741 0.11413
 H285 H 0.32004 0.10574 0.08699
 H286 H 0.38715 0.10944 0.06255
 H287 H 0.32580 -0.06899 0.07523
 H288 H 0.25836 -0.07267 0.09970
 H289 H 0.39387 -0.02098 0.04727
 H290 H 0.18387 -0.07349 0.11177
 H291 H 0.45847 0.11027 0.04815
 C292 C 0.78415 0.86251 0.43871
 C293 C 0.78876 0.85477 0.41752
 C294 C 0.74206 0.80957 0.40552
 C295 C 0.75495 0.78303 0.39026
 C296 C 0.71206 0.73901 0.37902
 C297 C 0.65530 0.72126 0.38260
 C298 C 0.64236 0.74932 0.39724
 C299 C 0.68535 0.79281 0.40879
 C300 C 0.60955 0.67426 0.37095
 C301 C 0.61347 0.62742 0.36589
 H302 H 0.82915 0.87719 0.40996
 H303 H 0.79836 0.79576 0.38726
 H304 H 0.72341 0.71931 0.36737
 H305 H 0.59892 0.73687 0.40000
 H306 H 0.67422 0.81361 0.42006
 H307 H 0.57136 0.67534 0.36712
 H308 H 0.74423 0.83431 0.44618
 H309 H 0.64918 0.62382 0.37164
 C310 C 0.01697 0.15990 0.77565
 C311 C 0.03128 0.21515 0.78018
 C312 C 0.02458 0.25302 0.76437
 C313 C 0.06065 0.31189 0.76497
 C314 C 0.05397 0.34838 0.75045
 C315 C 0.01040 0.32647 0.73527
 C316 C -0.02640 0.26773 0.73504
 C317 C -0.01931 0.23131 0.74934
 C318 C 0.00066 0.36334 0.71998
 C319 C 0.04325 0.41640 0.71276
 H320 H 0.04905 0.23220 0.79528
 H321 H 0.09411 0.32962 0.77666
 H322 H 0.08209 0.39359 0.75146
 H323 H -0.06078 0.24991 0.72370
 H324 H -0.04910 0.18629 0.74892
 H325 H -0.04118 0.34633 0.71311
 H326 H 0.00715 0.14814 0.75942
 H327 H 0.08631 0.43242 0.71810
 C328 C 0.83727 -0.01266 0.10846
 C329 C 0.80373 0.01050 0.11261
 C330 C 0.76129 0.00934 0.09734
 C331 C 0.74859 0.05303 0.09696
 C332 C 0.71003 0.05405 0.08226
 C333 C 0.68300 0.01091 0.06776
 C334 C 0.69390 -0.03405 0.06874
 C335 C 0.73283 -0.03479 0.08331
 C336 C 0.64284 0.01117 0.05170
 C337 C 0.64640 0.06107 0.04338
 H338 H 0.81178 0.03422 0.12661
 H339 H 0.76921 0.08692 0.10787
 H340 H 0.70111 0.08829 0.08246
 H341 H 0.67282 -0.06829 0.05799
 H342 H 0.74012 -0.07020 0.08368
 H343 H 0.61177 -0.02889 0.04527
 H344 H 0.83365 -0.02995 0.09323
 H345 H 0.67990 0.10170 0.04847
 C346 C 0.18870 0.18039 0.44877
 C347 C 0.19548 0.22818 0.43698
 C348 C 0.24647 0.26727 0.42472
 C349 C 0.24213 0.30326 0.40920
 C350 C 0.28835 0.34045 0.39697
 C351 C 0.34053 0.34311 0.40016
 C352 C 0.34513 0.30740 0.41574
 C353 C 0.29881 0.27016 0.42804
 C354 C 0.38960 0.38021 0.38676
 C355 C 0.39534 0.42817 0.37566
 H356 H 0.16151 0.23717 0.43569
 H357 H 0.20242 0.30194 0.40624
 H358 H 0.28232 0.36578 0.38469
 H359 H 0.38481 0.30850 0.41846
 H360 H 0.30470 0.24443 0.44017
 H361 H 0.42164 0.36868 0.38528
 H362 H 0.22315 0.17195 0.44931
 H363 H 0.36575 0.44240 0.37798
 C364 C -0.06482 0.77066 0.78418
 C365 C -0.02293 0.77388 0.77138
 C366 C -0.02994 0.72835 0.75784
 C367 C 0.00916 0.74302 0.74185
 C368 C 0.00695 0.70180 0.72930
 C369 C -0.03411 0.64446 0.73262
 C370 C -0.07432 0.62968 0.74823
 C371 C -0.07210 0.67116 0.76088
 C372 C -0.03594 0.60008 0.71973
 C373 C 0.01259 0.60625 0.71091
 H374 H 0.01682 0.81298 0.76996
 H375 H 0.04181 0.78674 0.73904
 H376 H 0.03728 0.71525 0.71689
 H377 H -0.10666 0.58582 0.75096
 H378 H -0.10245 0.65799 0.77325
 H379 H -0.07595 0.56170 0.71737
 H380 H -0.10659 0.73379 0.78329
 H381 H 0.05319 0.64248 0.71459
   
