data_POSCAR
  _audit_creation_date              2014-09-24
  _audit_creation_method            'ToBaCCo'
  _symmetry_space_group_name_H-M    'P1'
  _symmetry_Int_Tables_number       1
  _symmetry_cell_setting            triclinic
  loop_
  _symmetry_equiv_pos_as_xyz
 x,y,z
_cell_length_a 26.2050
_cell_length_b 26.3652
_cell_length_c 26.4078
_cell_angle_alpha 87.494000
_cell_angle_beta 73.462000
_cell_angle_gamma 79.526500
loop_
  _atom_site_label
  _atom_site_type_symbol
  _atom_site_fract_x
  _atom_site_fract_y
  _atom_site_fract_z
C1 C 0.48667 0.48481 0.01749
 C2 C 0.45043 0.52732 0.01181
 C3 C 0.39476 0.52383 0.01010
 C4 C 0.46323 0.58050 0.00790
 C5 C 0.54289 0.48762 0.01761
 C6 C 0.47308 0.43199 0.02282
 C7 C 0.38544 0.49026 -0.02487
 C8 C 0.33287 0.48987 -0.02748
 C9 C 0.28853 0.52468 0.00355
 C10 C 0.29859 0.55869 0.03776
 C11 C 0.35071 0.55778 0.04146
 C12 C 0.45127 0.61296 -0.03234
 C13 C 0.45533 0.66503 -0.03289
 C14 C 0.47230 0.68578 0.00623
 C15 C 0.48593 0.65309 0.04580
 C16 C 0.48098 0.60095 0.04685
 C17 C 0.56357 0.46154 0.05701
 C18 C 0.61793 0.45790 0.05472
 C19 C 0.65269 0.48096 0.01351
 C20 C 0.63194 0.50820 -0.02544
 C21 C 0.57755 0.51107 -0.02365
 C22 C 0.42989 0.41933 0.06392
 C23 C 0.42076 0.36834 0.07010
 C24 C 0.45538 0.32912 0.03614
 C25 C 0.49762 0.34228 -0.00577
 C26 C 0.50644 0.39305 -0.01213
 H27 H 0.41894 0.46499 -0.05095
 H28 H 0.32816 0.46379 -0.05560
 H29 H 0.26592 0.58614 0.06228
 H30 H 0.35679 0.58435 0.06846
 H31 H 0.43707 0.59824 -0.06254
 H32 H 0.44431 0.68943 -0.06358
 H33 H 0.48898 0.57713 0.07913
 H34 H 0.53779 0.44276 0.08895
 H35 H 0.63309 0.43641 0.08492
 H36 H 0.65812 0.52520 -0.05852
 H37 H 0.56304 0.53001 -0.05539
 H38 H 0.40402 0.44867 0.09173
 H39 H 0.38771 0.35921 0.10240
 H40 H 0.52396 0.31337 -0.03376
 H41 H 0.53978 0.40199 -0.04426
 H42 H 0.49785 0.66819 0.07731
 C43 C -0.01360 0.52050 0.48491
 C44 C -0.01563 0.48613 0.44900
 C45 C -0.01485 0.43092 0.46218
 C46 C -0.01591 0.50055 0.39411
 C47 C -0.00945 0.57512 0.47194
 C48 C -0.01497 0.50476 0.53965
 C49 C 0.03022 0.39460 0.43651
 C50 C 0.03172 0.34223 0.44757
 C51 C -0.01227 0.32524 0.48421
 C52 C -0.05710 0.36180 0.51035
 C53 C -0.05868 0.41427 0.49899
 C54 C 0.02528 0.52356 0.36031
 C55 C 0.02474 0.53523 0.30824
 C56 C -0.01612 0.52291 0.28873
 C57 C -0.05752 0.50021 0.32284
 C58 C -0.05717 0.48894 0.37488
 C59 C -0.04792 0.60749 0.45197
 C60 C -0.04302 0.65897 0.44029
 C61 C -0.00048 0.67909 0.44972
 C62 C 0.03806 0.64651 0.46943
 C63 C 0.03349 0.59514 0.48051
 C64 C -0.06441 0.51247 0.57922
 C65 C -0.06621 0.49939 0.63142
 C66 C -0.01836 0.48045 0.64502
 C67 C 0.03123 0.47262 0.60537
 C68 C 0.03279 0.48406 0.55279
 H69 H 0.06444 0.40694 0.40814
 H70 H 0.06767 0.31534 0.42791
 H71 H -0.09134 0.34963 0.53885
 H72 H -0.09421 0.44177 0.51846
 H73 H 0.05806 0.53198 0.37404
 H74 H 0.05697 0.55285 0.28276
 H75 H -0.08934 0.47127 0.40037
 H76 H -0.08170 0.59295 0.44560
 H77 H -0.07298 0.68338 0.42483
 H78 H 0.07228 0.66040 0.47556
 H79 H 0.06403 0.57086 0.49523
 H80 H -0.10154 0.52852 0.56954
 H81 H -0.10479 0.50546 0.66150
 H82 H 0.06851 0.45734 0.61507
 H83 H 0.07120 0.47767 0.52251
 H84 H -0.09053 0.49157 0.30969
 C85 C 0.53547 0.00046 0.51878
 C86 C 0.49139 -0.00091 0.56097
 C87 C 0.49451 -0.00542 0.61654
 C88 C 0.43672 0.00214 0.55356
 C89 C 0.53005 0.00743 0.46449
 C90 C 0.59131 -0.00347 0.52347
 C91 C 0.46729 -0.04058 0.65026
 C92 C 0.46749 -0.04435 0.70304
 C93 C 0.49595 -0.01391 0.72348
 C94 C 0.52325 0.02162 0.68958
 C95 C 0.52161 0.02639 0.63702
 C96 C 0.42582 -0.03537 0.52389
 C97 C 0.37355 -0.03352 0.51952
 C98 C 0.33109 0.00571 0.54530
 C99 C 0.34207 0.04266 0.57554
 C100 C 0.39436 0.04099 0.57953
 C101 C 0.51180 0.05646 0.44681
 C102 C 0.51314 0.06386 0.39370
 C103 C 0.53101 0.02204 0.35817
 C104 C 0.54773 -0.02731 0.37639
 C105 C 0.54800 -0.03437 0.42902
 C106 C 0.62261 0.03302 0.49802
 C107 C 0.67591 0.02931 0.49942
 C108 C 0.69961 -0.01124 0.52666
 C109 C 0.66760 -0.04707 0.55331
 C110 C 0.61441 -0.04386 0.55087
 H111 H 0.44556 -0.06520 0.63572
 H112 H 0.44566 -0.07178 0.72784
 H113 H 0.54411 0.04738 0.70353
 H114 H 0.54108 0.05535 0.61252
 H115 H 0.45750 -0.06678 0.50515
 H116 H 0.36636 -0.06374 0.49741
 H117 H 0.40180 0.06983 0.60324
 H118 H 0.49854 0.08918 0.47369
 H119 H 0.50057 0.10224 0.38022
 H120 H 0.56269 -0.05995 0.34944
 H121 H 0.56288 -0.07227 0.44206
 H122 H 0.60565 0.06491 0.47712
 H123 H 0.69728 0.05941 0.48016
 H124 H 0.68423 -0.07862 0.57489
 H125 H 0.59145 -0.07305 0.57008
 H126 H 0.31001 0.07291 0.59624
 O127 O 0.49674 0.00306 -0.03141
 O128 O 0.47120 -0.00310 0.11274
 O129 O 0.48250 0.07114 0.04252
 O130 O 0.48930 -0.07032 0.03778
 O131 O 0.57672 -0.08197 0.03045
 O132 O 0.57079 0.05823 0.03081
 O133 O 0.55890 -0.01179 0.10322
 O134 O 0.58478 -0.00973 -0.04173
 Cu135 Cu 0.47607 0.00153 0.04150
 Cu136 Cu 0.58158 -0.01271 0.02975
 C137 C 0.54493 -0.00244 -0.06117
 C138 C 0.51060 -0.00830 0.13253
 C139 C 0.52605 0.08858 0.03659
 C140 C 0.53430 -0.10016 0.03373
 O141 O -0.08414 0.55412 0.97239
 O142 O 0.06041 0.52492 0.96458
 O143 O 0.00560 0.54463 0.89541
 O144 O -0.02719 0.53277 1.04034
 O145 O -0.02530 0.44929 1.03272
 O146 O 0.00135 0.46236 0.88884
 O147 O 0.06181 0.44219 0.95317
 O148 O -0.08504 0.47082 0.96837
 Cu149 Cu -0.01151 0.54755 0.96871
 Cu150 Cu -0.01181 0.44782 0.96000
 C151 C -0.10942 0.51741 0.97230
 C152 C 0.08580 0.47874 0.95788
 C153 C 0.00822 0.50566 0.86758
 C154 C -0.03045 0.48860 1.06101
 O155 O 0.04930 -0.08261 0.43241
 O156 O 0.05246 0.05520 0.40805
 O157 O 0.12246 -0.02400 0.42182
 O158 O -0.01934 -0.00313 0.41842
 O159 O -0.04670 0.00685 0.50520
 O160 O 0.09506 -0.00505 0.50702
 O161 O 0.02099 0.07069 0.49389
 O162 O 0.02688 -0.06840 0.51844
 Cu163 Cu 0.05422 -0.01529 0.41151
 Cu164 Cu 0.02145 0.00257 0.51483
 C165 C 0.03746 -0.09893 0.47955
 C166 C 0.03623 0.08655 0.44677
 C167 C 0.13294 -0.01696 0.46478
 C168 C -0.05708 0.00439 0.46130
 C169 C -0.28910 0.47214 1.01023
 C170 C -0.25656 0.50584 0.98938
 C171 C -0.19869 0.49342 0.98654
 C172 C -0.16752 0.52957 0.97617
 H173 H -0.27257 0.54280 0.97522
 H174 H -0.18149 0.45405 0.99364
 H175 H -0.27275 0.43692 1.02727
 H176 H -0.18519 0.56929 0.97114
 C177 C 0.23719 0.52818 1.00109
 C178 C 0.21836 0.49389 0.97462
 C179 C 0.16482 0.50451 0.97289
 C180 C 0.14024 0.46783 0.95676
 H181 H 0.24355 0.45804 0.95778
 H182 H 0.14073 0.54178 0.98717
 H183 H 0.20710 0.55957 1.02279
 H184 H 0.16256 0.42902 0.94692
 C185 C 0.00357 -0.26623 0.43812
 C186 C 0.02293 -0.23831 0.46704
 C187 C 0.02688 -0.18405 0.45485
 C188 C 0.03524 -0.15372 0.48982
 H189 H 0.03470 -0.25514 0.50110
 H190 H 0.02154 -0.16847 0.41764
 H191 H -0.01186 -0.24795 0.40657
 H192 H 0.03759 -0.16876 0.52812
 C193 C -0.01211 0.26991 0.49629
 C194 C 0.01413 0.23268 0.46069
 C195 C 0.01349 0.17796 0.47359
 C196 C 0.03561 0.14175 0.43607
 H197 H 0.03548 0.24248 0.42099
 H198 H -0.00537 0.16731 0.51379
 H199 H -0.03614 0.25965 0.53477
 H200 H 0.05337 0.15296 0.39579
 C201 C 0.49392 -0.01907 -0.22270
 C202 C 0.52549 0.00028 -0.19929
 C203 C 0.51688 -0.00515 -0.14185
 C204 C 0.55489 0.00050 -0.11890
 H205 H 0.55811 0.01917 -0.22166
 H206 H 0.47859 -0.01420 -0.11789
 H207 H 0.46530 -0.04153 -0.19838
 H208 H 0.59419 0.00696 -0.14294
 C209 C 0.53589 0.03088 0.30158
 C210 C 0.52085 -0.00089 0.27278
 C211 C 0.53033 0.00612 0.21552
 C212 C 0.49982 -0.01174 0.19014
 H213 H 0.50130 -0.03246 0.29161
 H214 H 0.56245 0.02622 0.19397
 H215 H 0.55139 0.06477 0.28349
 H216 H 0.46524 -0.02834 0.21231
 C217 C 0.47089 -0.25781 0.00678
 C218 C 0.50375 -0.23566 0.02576
 C219 C 0.49905 -0.17902 0.02553
 C220 C 0.53802 -0.15663 0.03341
 H221 H 0.53485 -0.25916 0.04044
 H222 H 0.46357 -0.15539 0.01800
 H223 H 0.44251 -0.23354 -0.01084
 H224 H 0.57443 -0.18046 0.03873
 C225 C 0.44737 0.27479 0.04494
 C226 C 0.48931 0.23556 0.03484
 C227 C 0.48275 0.18104 0.04172
 C228 C 0.52673 0.14433 0.03484
 H229 H 0.53008 0.24373 0.02135
 H230 H 0.44280 0.17100 0.05106
 H231 H 0.40673 0.26709 0.06188
 H232 H 0.56612 0.15560 0.02617
 C233 C -0.24638 -0.01692 0.52854
 C234 C -0.20897 0.00726 0.49608
 C235 C -0.15326 -0.00013 0.50019
 C236 C -0.11329 0.01079 0.45926
 H237 H -0.21783 0.03101 0.46418
 H238 H -0.14474 -0.01542 0.53628
 H239 H -0.23353 -0.04428 0.55632
 H240 H -0.12163 0.02294 0.42223
 C241 C 0.27457 0.00802 0.54387
 C242 C 0.26109 -0.01222 0.50491
 C243 C 0.20386 -0.00789 0.50622
 C244 C 0.18985 -0.02242 0.46491
 H245 H 0.29204 -0.03082 0.47124
 H246 H 0.17280 0.00828 0.54116
 H247 H 0.24265 0.02890 0.57554
 H248 H 0.22101 -0.03734 0.42953
 C249 C -0.01461 0.53419 1.23292
 C250 C -0.03434 0.50581 1.20469
 C251 C -0.02940 0.51621 1.14843
 C252 C -0.03930 0.48190 1.11824
 H253 H -0.05201 0.47288 1.22233
 H254 H -0.01536 0.55100 1.13112
 H255 H 0.00631 0.56476 1.21358
 H256 H -0.05090 0.44612 1.13538
 C257 C -0.02115 0.46920 0.70075
 C258 C 0.01062 0.48714 0.72465
 C259 C 0.00349 0.47922 0.78152
 C260 C 0.01867 0.51121 0.81006
 H261 H 0.03978 0.51029 0.70285
 H262 H -0.01721 0.44849 0.80081
 H263 H -0.05343 0.45007 0.72382
 H264 H 0.03606 0.54397 0.79136
   
