data_POSCAR
  _audit_creation_date              2014-09-24
  _audit_creation_method            'ToBaCCo'
  _symmetry_space_group_name_H-M    'P1'
  _symmetry_Int_Tables_number       1
  _symmetry_cell_setting            triclinic
  loop_
  _symmetry_equiv_pos_as_xyz
 x,y,z
_cell_length_a 46.0070
_cell_length_b 44.5100
_cell_length_c 46.4324
_cell_angle_alpha 90.087200
_cell_angle_beta 90.414200
_cell_angle_gamma 90.257600
loop_
  _atom_site_label
  _atom_site_type_symbol
  _atom_site_fract_x
  _atom_site_fract_y
  _atom_site_fract_z
N1 N 0.59148 0.66903 0.59965
 N2 N 0.58097 0.65735 0.62341
 C3 C 0.55496 0.66985 0.62886
 C4 C 0.54874 0.69013 0.60715
 C5 C 0.57234 0.68895 0.58893
 H6 H 0.54136 0.66446 0.64705
 H7 H 0.57562 0.70214 0.56967
 Cu8 Cu 0.60225 0.62673 0.64459
 Cu9 Cu 0.62967 0.65849 0.58501
 Cu10 Cu 0.66798 0.60402 0.62259
 N11 N 0.62354 0.59554 0.66501
 N12 N 0.64975 0.58772 0.65696
 C13 C 0.66027 0.56716 0.67546
 C14 C 0.63935 0.56129 0.69615
 C15 C 0.61623 0.57974 0.68861
 H16 H 0.68137 0.55683 0.67347
 H17 H 0.59593 0.58222 0.69990
 N18 N 0.68271 0.62321 0.58732
 N19 N 0.66861 0.64473 0.57364
 C20 C 0.68479 0.65418 0.55131
 C21 C 0.70999 0.63745 0.55067
 C22 C 0.70793 0.61796 0.57368
 H23 H 0.67857 0.67157 0.53628
 H24 H 0.72395 0.60159 0.58024
 H25 H 0.62991 0.61535 0.60140
 H26 H 0.64749 0.64521 0.62389
 N27 N 0.90199 0.32112 0.10804
 N28 N 0.91534 0.33476 0.12951
 C29 C 0.94147 0.32195 0.13375
 C30 C 0.94496 0.29927 0.11347
 C31 C 0.91932 0.29957 0.09747
 H32 H 0.95697 0.32914 0.14997
 H33 H 0.91312 0.28460 0.08011
 Cu34 Cu 0.89730 0.36827 0.14939
 Cu35 Cu 0.86209 0.33054 0.09721
 Cu36 Cu 0.83815 0.40016 0.12048
 N37 N 0.87603 0.39928 0.16983
 N38 N 0.85244 0.41125 0.15866
 C39 C 0.84223 0.43227 0.17678
 C40 C 0.86056 0.43368 0.20050
 C41 C 0.88182 0.41250 0.19534
 H42 H 0.82336 0.44606 0.17262
 H43 H 0.90009 0.40714 0.20917
 N44 N 0.81918 0.37754 0.08906
 N45 N 0.82736 0.35034 0.08129
 C46 C 0.80908 0.34000 0.06077
 C47 C 0.78852 0.36185 0.05520
 C48 C 0.79563 0.38539 0.07347
 H49 H 0.81087 0.31838 0.05029
 H50 H 0.78400 0.40630 0.07584
 H51 H 0.87206 0.37440 0.10321
 H52 H 0.84838 0.35763 0.13146
 N53 N 0.40210 0.17683 -0.12420
 N54 N 0.40938 0.16834 -0.15028
 C55 C 0.42776 0.18877 -0.16147
 C56 C 0.43252 0.21105 -0.14113
 C57 C 0.41597 0.20266 -0.11767
 H58 H 0.43769 0.18708 -0.18244
 H59 H 0.41404 0.21448 -0.09740
 Cu60 Cu 0.39587 0.13031 -0.16611
 Cu61 Cu 0.37576 0.15325 -0.10051
 Cu62 Cu 0.33811 0.09663 -0.13673
 N63 N 0.38391 0.09012 -0.17778
 N64 N 0.36043 0.07757 -0.16712
 C65 C 0.35562 0.05111 -0.18042
 C66 C 0.37763 0.04659 -0.20008
 C67 C 0.39527 0.07175 -0.19778
 H68 H 0.33766 0.03613 -0.17583
 H69 H 0.41444 0.07667 -0.21030
 N70 N 0.32679 0.11169 -0.09858
 N71 N 0.34096 0.13332 -0.08488
 C72 C 0.32777 0.13867 -0.05961
 C73 C 0.30458 0.11902 -0.05707
 C74 C 0.30465 0.10215 -0.08209
 H75 H 0.33477 0.15526 -0.04397
 H76 H 0.28962 0.08436 -0.08789
 H77 H 0.37668 0.11119 -0.12088
 H78 H 0.35341 0.14135 -0.13656
 N79 N 0.09793 0.82514 0.37130
 N80 N 0.09203 0.83319 0.34471
 C81 C 0.07138 0.81489 0.33377
 C82 C 0.06348 0.79431 0.35482
 C83 C 0.08085 0.80173 0.37843
 H84 H 0.06230 0.81710 0.31235
 H85 H 0.08184 0.79039 0.39897
 Cu86 Cu 0.11067 0.86780 0.32740
 Cu87 Cu 0.12894 0.84414 0.39376
 Cu88 Cu 0.16364 0.90518 0.36225
 N89 N 0.12138 0.90853 0.31677
 N90 N 0.14296 0.92265 0.32971
 C91 C 0.14704 0.94950 0.31705
 C92 C 0.12649 0.95258 0.29537
 C93 C 0.11048 0.92620 0.29585
 H94 H 0.16338 0.96577 0.32348
 H95 H 0.09268 0.92007 0.28164
 N96 N 0.17405 0.88970 0.40064
 N97 N 0.16114 0.86630 0.41254
 C98 C 0.17372 0.86088 0.43829
 C99 C 0.19515 0.88223 0.44299
 C100 C 0.19468 0.90023 0.41877
 H101 H 0.16763 0.84295 0.45275
 H102 H 0.20865 0.91929 0.41451
 H103 H 0.12516 0.88612 0.37466
 H104 H 0.15247 0.85962 0.35973
 C105 C 0.12710 0.17146 0.13921
 N106 N 0.13090 0.14911 0.15872
 C107 C 0.15299 0.12922 0.15571
 N108 N 0.17134 0.13187 0.13306
 C109 C 0.16771 0.15421 0.11347
 N110 N 0.14549 0.17392 0.11659
 C111 C 0.37539 0.83087 0.63938
 N112 N 0.37187 0.85343 0.65877
 C113 C 0.34948 0.87303 0.65600
 N114 N 0.33057 0.86999 0.63357
 C115 C 0.33387 0.84752 0.61406
 N116 N 0.35631 0.82802 0.61705
 C117 C 0.91723 0.62492 0.39059
 N118 N 0.89553 0.62247 0.41014
 C119 C 0.87566 0.59989 0.40801
 N120 N 0.87761 0.57967 0.38617
 C121 C 0.89923 0.58194 0.36650
 N122 N 0.91896 0.60462 0.36881
 C123 C 0.58259 0.37975 -0.10837
 N124 N 0.58059 0.39988 -0.13025
 C125 C 0.60113 0.42161 -0.13347
 N126 N 0.62378 0.42318 -0.11459
 C127 C 0.62595 0.40327 -0.09254
 N128 N 0.60532 0.38158 -0.08959
 C129 C -0.00988 0.27725 0.13201
 C130 C 0.01362 0.25751 0.12892
 C131 C 0.01692 0.24126 0.10299
 C132 C -0.00388 0.24420 0.08104
 C133 C -0.02783 0.26295 0.08470
 C134 C -0.03106 0.28003 0.11006
 C135 C 0.04073 0.22204 0.09956
 C136 C 0.06064 0.21790 0.12220
 C137 C 0.05665 0.23316 0.14863
 C138 C 0.03351 0.25332 0.15161
 C139 C 0.07567 0.22767 0.17176
 C140 C 0.09839 0.20720 0.16877
 C141 C 0.10297 0.19269 0.14237
 C142 C 0.08419 0.19826 0.11907
 H143 H -0.01207 0.28950 0.15204
 H144 H -0.00179 0.23176 0.06108
 H145 H -0.04334 0.26456 0.06715
 H146 H 0.04346 0.20990 0.07949
 H147 H 0.03069 0.26532 0.17174
 H148 H 0.07279 0.23896 0.19223
 H149 H 0.11273 0.20304 0.18692
 H150 H 0.08751 0.18667 0.09880
 C151 C 0.50877 0.72026 0.62894
 C152 C 0.48458 0.73919 0.62630
 C153 C 0.47372 0.74656 0.59863
 C154 C 0.48762 0.73536 0.57410
 C155 C 0.51214 0.71717 0.57693
 C156 C 0.52279 0.70934 0.60430
 C157 C 0.44939 0.76525 0.59591
 C158 C 0.43627 0.77738 0.62048
 C159 C 0.44758 0.77064 0.64812
 C160 C 0.47140 0.75125 0.65087
 C161 C 0.43508 0.78370 0.67255
 C162 C 0.41171 0.80341 0.66964
 C163 C 0.40001 0.80989 0.64234
 C164 C 0.41229 0.79659 0.61782
 H165 H 0.51713 0.71466 0.65014
 H166 H 0.47967 0.74087 0.55274
 H167 H 0.52256 0.70887 0.55767
 H168 H 0.44096 0.77072 0.57469
 H169 H 0.47993 0.74592 0.67209
 H170 H 0.44355 0.77889 0.69387
 H171 H 0.40254 0.81337 0.68882
 H172 H 0.40363 0.80178 0.59663
 C173 C 1.03294 0.75575 0.37737
 C174 C 1.01208 0.73270 0.37521
 C175 C 1.00145 0.72388 0.34784
 C176 C 1.01112 0.73890 0.32322
 C177 C 1.03118 0.76243 0.32559
 C178 C 1.04270 0.77101 0.35262
 C179 C 0.98118 0.70035 0.34553
 C180 C 0.97071 0.68613 0.37033
 C181 C 0.98051 0.69571 0.39781
 C182 C 1.00145 0.71862 0.40005
 C183 C 0.96902 0.68233 0.42260
 C184 C 0.94807 0.65962 0.42021
 C185 C 0.93882 0.64940 0.39302
 C186 C 0.95030 0.66268 0.36813
 H187 H 1.04081 0.76219 0.39853
 H188 H 1.00306 0.73254 0.30207
 H189 H 1.03812 0.77324 0.30595
 H190 H 0.97332 0.69334 0.32447
 H191 H 1.00923 0.72569 0.42112
 H192 H 0.97612 0.68953 0.44382
 H193 H 0.93948 0.64961 0.43964
 H194 H 0.94292 0.65516 0.34708
 C195 C 0.46580 0.24939 -0.11899
 C196 C 0.48521 0.27366 -0.12141
 C197 C 0.49034 0.28663 -0.14870
 C198 C 0.47626 0.27484 -0.17313
 C199 C 0.45750 0.25024 -0.17061
 C200 C 0.45205 0.23736 -0.14358
 C201 C 0.50973 0.31088 -0.15121
 C202 C 0.52464 0.32184 -0.12689
 C203 C 0.51990 0.30852 -0.09968
 C204 C 0.49995 0.28478 -0.09705
 C205 C 0.53554 0.31891 -0.07560
 C206 C 0.55590 0.34206 -0.07847
 C207 C 0.56061 0.35564 -0.10534
 C208 C 0.54466 0.34557 -0.12945
 H209 H 0.46203 0.23934 -0.09809
 H210 H 0.47999 0.28444 -0.19422
 H211 H 0.44701 0.24145 -0.18982
 H212 H 0.51357 0.32088 -0.17214
 H213 H 0.49625 0.27466 -0.07615
 H214 H 0.53225 0.30891 -0.05460
 H215 H 0.56787 0.34950 -0.05957
 H216 H 0.54836 0.35565 -0.15036
 C217 C 0.14698 -0.00562 0.26588
 C218 C 0.14348 0.01845 0.24669
 C219 C 0.11522 0.02723 0.23806
 C220 C 0.09102 0.01126 0.24816
 C221 C 0.09476 -0.01325 0.26656
 C222 C 0.12268 -0.02169 0.27574
 C223 C 0.11162 0.05158 0.21924
 C224 C 0.13594 0.06665 0.20819
 C225 C 0.16422 0.05724 0.21608
 C226 C 0.16781 0.03353 0.23564
 C227 C 0.18848 0.07149 0.20399
 C228 C 0.18477 0.09475 0.18414
 C229 C 0.15680 0.10466 0.17666
 C230 C 0.13244 0.09066 0.18893
 H231 H 0.16861 -0.01235 0.27257
 H232 H 0.06922 0.01755 0.24165
 H233 H 0.07578 -0.02534 0.27402
 H234 H 0.08993 0.05848 0.21285
 H235 H 0.18950 0.02652 0.24191
 H236 H 0.21030 0.06446 0.20965
 H237 H 0.20380 0.10530 0.17491
 H238 H 0.11078 0.09795 0.18289
 C239 C 0.61633 0.53338 -0.26451
 C240 C 0.61818 0.51324 -0.24132
 C241 C 0.64547 0.50154 -0.23304
 C242 C 0.67029 0.50942 -0.24863
 C243 C 0.66817 0.52873 -0.27222
 C244 C 0.64126 0.54130 -0.28037
 C245 C 0.64751 0.48192 -0.20951
 C246 C 0.62243 0.47308 -0.19470
 C247 C 0.59496 0.48395 -0.20362
 C248 C 0.59306 0.50432 -0.22657
 C249 C 0.56981 0.47399 -0.18958
 C250 C 0.57183 0.45342 -0.16696
 C251 C 0.59906 0.44310 -0.15751
 C252 C 0.62432 0.45316 -0.17137
 H253 H 0.59521 0.54207 -0.27054
 H254 H 0.69137 0.50052 -0.24267
 H255 H 0.68796 0.53428 -0.28349
 H256 H 0.66853 0.47322 -0.20297
 H257 H 0.57202 0.51290 -0.23318
 H258 H 0.54857 0.48192 -0.19625
 H259 H 0.55212 0.44591 -0.15651
 H260 H 0.64537 0.44490 -0.16442
 C261 C 0.35665 1.00619 0.76855
 C262 C 0.35992 0.98222 0.74919
 C263 C 0.38810 0.97216 0.74208
 C264 C 0.41250 0.98670 0.75395
 C265 C 0.40904 1.01108 0.77259
 C266 C 0.38116 1.02086 0.78018
 C267 C 0.39145 0.94797 0.72301
 C268 C 0.36701 0.93427 0.71028
 C269 C 0.33886 0.94490 0.71676
 C270 C 0.33548 0.96850 0.73648
 C271 C 0.31457 0.93192 0.70313
 C272 C 0.31809 0.90872 0.68319
 C273 C 0.34589 0.89763 0.67702
 C274 C 0.37028 0.91040 0.69080
 H275 H 0.33506 1.01393 0.77400
 H276 H 0.43425 0.97939 0.74864
 H277 H 0.42819 1.02204 0.78141
 H278 H 0.41306 0.94010 0.71776
 H279 H 0.31388 0.97647 0.74162
 H280 H 0.29286 0.93988 0.70772
 H281 H 0.29901 0.89915 0.67284
 H282 H 0.39184 0.90222 0.68586
 C283 C 0.88383 0.46541 0.23872
 C284 C 0.88200 0.48561 0.26186
 C285 C 0.85443 0.49400 0.27242
 C286 C 0.82920 0.48257 0.25919
 C287 C 0.83123 0.46312 0.23565
 C288 C 0.85850 0.45423 0.22538
 C289 C 0.85252 0.51391 0.29578
 C290 C 0.87780 0.52624 0.30817
 C291 C 0.90533 0.51850 0.29707
 C292 C 0.90727 0.49791 0.27427
 C293 C 0.93048 0.53176 0.30876
 C294 C 0.92841 0.55259 0.33117
 C295 C 0.90123 0.56000 0.34272
 C296 C 0.87599 0.54657 0.33123
 H297 H 0.90496 0.45899 0.23060
 H298 H 0.80789 0.48887 0.26690
 H299 H 0.81146 0.45468 0.22569
 H300 H 0.83138 0.52014 0.30402
 H301 H 0.92841 0.49180 0.26593
 H302 H 0.95173 0.52621 0.30042
 H303 H 0.94813 0.56263 0.33976
 H304 H 0.85490 0.55248 0.33979
 C305 C 0.27532 0.14198 -0.01773
 C306 C 0.25602 0.13944 0.00542
 C307 C 0.24653 0.11069 0.01440
 C308 C 0.25577 0.08507 -0.00052
 C309 C 0.27429 0.08789 -0.02408
 C310 C 0.28445 0.11626 -0.03263
 C311 C 0.22782 0.10801 0.03799
 C312 C 0.21776 0.13376 0.05217
 C313 C 0.22638 0.16256 0.04249
 C314 C 0.24580 0.16520 0.01947
 C315 C 0.21524 0.18826 0.05591
 C316 C 0.19578 0.18548 0.07872
 C317 C 0.18774 0.15700 0.08897
 C318 C 0.19889 0.13119 0.07567
 H319 H 0.28279 0.16396 -0.02455
 H320 H 0.24857 0.06289 0.00595
 H321 H 0.28117 0.06781 -0.03528
 H322 H 0.22085 0.08594 0.04510
 H323 H 0.25270 0.18728 0.01230
 H324 H 0.22145 0.21049 0.04866
 H325 H 0.18742 0.20563 0.08874
 H326 H 0.19242 0.10914 0.08325
 C327 C 0.74852 0.61402 0.52053
 C328 C 0.77109 0.61622 0.50046
 C329 C 0.77992 0.64480 0.49040
 C330 C 0.76542 0.67058 0.49993
 C331 C 0.74238 0.66809 0.51923
 C332 C 0.73398 0.63989 0.52989
 C333 C 0.80289 0.64715 0.47083
 C334 C 0.81656 0.62122 0.46047
 C335 C 0.80704 0.59257 0.46974
 C336 C 0.78468 0.59028 0.49001
 C337 C 0.81989 0.56668 0.45835
 C338 C 0.84197 0.56910 0.43796
 C339 C 0.85206 0.59743 0.42920
 C340 C 0.83936 0.62344 0.44065
 H341 H 0.74180 0.59216 0.52839
 H342 H 0.77176 0.69264 0.49231
 H343 H 0.73146 0.68828 0.52628
 H344 H 0.80987 0.66910 0.46338
 H345 H 0.77762 0.56832 0.49737
 H346 H 0.81274 0.54455 0.46506
 H347 H 0.85152 0.54880 0.42938
 H348 H 0.84680 0.64537 0.43363
 C349 C 0.75346 0.38628 0.02121
 C350 C 0.73024 0.38466 0.00148
 C351 C 0.71683 0.35662 -0.00438
 C352 C 0.72732 0.33063 0.00908
 C353 C 0.75084 0.33235 0.02819
 C354 C 0.76394 0.36015 0.03460
 C355 C 0.69329 0.35499 -0.02369
 C356 C 0.68338 0.38091 -0.03773
 C357 C 0.69728 0.40881 -0.03248
 C358 C 0.72041 0.41057 -0.01267
 C359 C 0.68790 0.43448 -0.04726
 C360 C 0.66492 0.43257 -0.06704
 C361 C 0.65058 0.40509 -0.07198
 C362 C 0.65991 0.37933 -0.05716
 H363 H 0.76371 0.40776 0.02575
 H364 H 0.71739 0.30895 0.00475
 H365 H 0.75848 0.31196 0.03838
 H366 H 0.68286 0.33352 -0.02796
 H367 H 0.73089 0.43203 -0.00846
 H368 H 0.69838 0.45602 -0.04362
 H369 H 0.65807 0.45274 -0.07816
 H370 H 0.64921 0.35794 -0.06108
 C371 C 0.22483 0.85926 0.48240
 C372 C 0.24384 0.86186 0.50606
 C373 C 0.25189 0.89068 0.51634
 C374 C 0.24141 0.91635 0.50230
 C375 C 0.22319 0.91354 0.47824
 C376 C 0.21457 0.88505 0.46828
 C377 C 0.27051 0.89337 0.54027
 C378 C 0.28191 0.86764 0.55351
 C379 C 0.27459 0.83885 0.54267
 C380 C 0.25526 0.83612 0.51930
 C381 C 0.28700 0.81325 0.55523
 C382 C 0.30653 0.81613 0.57826
 C383 C 0.31342 0.84457 0.58957
 C384 C 0.30089 0.87026 0.57719
 H385 H 0.21858 0.83720 0.47452
 H386 H 0.24749 0.93860 0.50977
 H387 H 0.21543 0.93367 0.46767
 H388 H 0.27645 0.91548 0.54831
 H389 H 0.24943 0.81403 0.51117
 H390 H 0.28178 0.79103 0.54709
 H391 H 0.31595 0.79606 0.58754
 H392 H 0.30644 0.89232 0.58557
   
