data_POSCAR
  _audit_creation_date              2014-09-24
  _audit_creation_method            'ToBaCCo'
  _symmetry_space_group_name_H-M    'P1'
  _symmetry_Int_Tables_number       1
  _symmetry_cell_setting            triclinic
  loop_
  _symmetry_equiv_pos_as_xyz
 x,y,z
_cell_length_a 12.4942
_cell_length_b 12.9776
_cell_length_c 17.2023
_cell_angle_alpha 86.321400
_cell_angle_beta 85.144400
_cell_angle_gamma 91.031800
loop_
  _atom_site_label
  _atom_site_type_symbol
  _atom_site_fract_x
  _atom_site_fract_y
  _atom_site_fract_z
O1 O 0.15596 0.02093 0.11643
 O2 O -0.19989 -0.08581 0.07434
 O3 O -0.07538 0.14919 0.10649
 O4 O 0.03321 -0.20298 0.08389
 O5 O -0.20935 0.09611 0.04884
 O6 O 0.19029 -0.13836 0.06217
 O7 O -0.12794 -0.20990 0.01929
 O8 O 0.11556 0.17435 0.08217
 C9 C 0.14829 0.11138 0.13263
 C10 C -0.18050 -0.17857 0.07706
 C11 C -0.17394 0.13662 0.10604
 C12 C 0.12292 -0.19102 0.10638
 O13 O 0.21387 -0.03606 -0.08392
 O14 O -0.15049 0.07492 -0.10546
 O15 O 0.08904 0.19091 -0.07672
 O16 O -0.01497 -0.15352 -0.11786
 O17 O -0.17524 -0.10770 -0.08643
 O18 O 0.21907 0.12247 -0.02472
 O19 O 0.14773 -0.18581 -0.05860
 O20 O -0.10053 0.20270 -0.04450
 Co21 Co 0.17786 -0.00794 0.01569
 Co22 Co -0.16542 -0.00619 -0.01545
 Co23 Co 0.00801 0.16119 0.01500
 Co24 Co 0.00975 -0.17131 -0.01642
 O25 O 0.00738 -0.00603 -0.00027
 C26 C 0.20197 -0.12362 -0.10472
 C27 C -0.13700 0.16923 -0.10353
 C28 C 0.18535 0.17069 -0.08227
 C29 C -0.10804 -0.14405 -0.13529
 O30 O 0.38456 0.32655 0.41697
 O31 O 0.62854 0.70949 0.48099
 O32 O 0.31023 0.63935 0.43785
 O33 O 0.70922 0.40315 0.45182
 O34 O 0.46754 0.70335 0.41631
 O35 O 0.57565 0.35101 0.39337
 O36 O 0.70031 0.58519 0.42606
 O37 O 0.34427 0.48020 0.38307
 C38 C 0.35194 0.38981 0.36665
 C39 C 0.68113 0.67800 0.42328
 C40 C 0.37781 0.69184 0.39373
 C41 C 0.67410 0.36353 0.39422
 O42 O 0.59948 0.29695 0.54469
 O43 O 0.35275 0.68594 0.55881
 O44 O 0.28046 0.37823 0.52375
 O45 O 0.67537 0.60720 0.58674
 O46 O 0.51516 0.65299 0.61810
 O47 O 0.40985 0.30898 0.57603
 O48 O 0.64967 0.42460 0.60579
 O49 O 0.28591 0.53635 0.58359
 Co50 Co 0.49163 0.33893 0.48463
 Co51 Co 0.49072 0.67124 0.51663
 Co52 Co 0.32217 0.50866 0.48390
 Co53 Co 0.66531 0.50568 0.51582
 O54 O 0.49262 0.50608 0.50023
 C55 C 0.63590 0.33031 0.60380
 C56 C 0.29820 0.62371 0.60470
 C57 C 0.31369 0.32956 0.58124
 C58 C 0.60817 0.64348 0.63561
 C59 C 0.19056 0.14237 0.20502
 C60 C 0.22396 0.23857 0.21427
 C61 C 0.27629 0.26294 0.28481
 C62 C 0.30969 0.35911 0.29417
 H63 H 0.21542 0.29889 0.16874
 H64 H 0.28484 0.20256 0.33030
 H65 H 0.20275 0.08188 0.24968
 H66 H 0.29750 0.41970 0.24959
 C67 C 0.78535 0.75093 0.14504
 C68 C 0.76188 0.78573 0.21565
 C69 C 0.73905 0.71357 0.28472
 C70 C 0.71554 0.74842 0.35531
 H71 H 0.76244 0.86816 0.22292
 H72 H 0.73841 0.63114 0.27745
 H73 H 0.78877 0.66853 0.13829
 H74 H 0.71221 0.83082 0.36204
 C75 C 0.82675 0.24199 0.83560
 C76 C 0.76885 0.21169 0.77901
 C77 C 0.72975 0.28765 0.72134
 C78 C 0.67188 0.25743 0.66471
 H79 H 0.74896 0.13048 0.77573
 H80 H 0.74971 0.36885 0.72462
 H81 H 0.84502 0.32345 0.83922
 H82 H 0.65353 0.17600 0.66105
 C83 C 0.25389 0.84761 0.82067
 C84 C 0.22622 0.76136 0.78883
 C85 C 0.27418 0.73839 0.71136
 C86 C 0.24636 0.65228 0.67940
 H87 H 0.16628 0.70846 0.81939
 H88 H 0.33419 0.79126 0.68086
 H89 H 0.31171 0.90169 0.78906
 H90 H 0.18842 0.59823 0.71092
 C91 C 0.25086 0.19748 0.85358
 C92 C 0.21363 0.24127 0.78472
 C93 C 0.28255 0.25905 0.71679
 C94 C 0.24511 0.30158 0.64777
 H95 H 0.12936 0.25944 0.78319
 H96 H 0.36691 0.24129 0.71817
 H97 H 0.33501 0.17821 0.85370
 H98 H 0.16095 0.32043 0.64709
 C99 C 0.86153 0.81158 0.79288
 C100 C 0.76199 0.77725 0.78481
 C101 C 0.73809 0.72212 0.71556
 C102 C 0.63855 0.68780 0.70747
 H103 H 0.69850 0.78701 0.83060
 H104 H 0.80159 0.71237 0.66978
 H105 H 0.92539 0.79793 0.74826
 H106 H 0.57467 0.70145 0.75208
 C107 C 0.14900 0.75660 0.18023
 C108 C 0.24013 0.77605 0.21210
 C109 C 0.26082 0.72515 0.28798
 C110 C 0.35197 0.74442 0.31988
 H111 H 0.29913 0.83073 0.18257
 H112 H 0.20175 0.67051 0.31750
 H113 H 0.08940 0.70332 0.21073
 H114 H 0.41169 0.79760 0.28943
 C115 C 0.75708 0.17255 0.16143
 C116 C 0.78942 0.22848 0.22265
 C117 C 0.71383 0.26966 0.27598
 C118 C 0.74616 0.32614 0.33675
 H119 H 0.87432 0.24171 0.22832
 H120 H 0.62888 0.25650 0.27056
 H121 H 0.67171 0.16082 0.15665
 H122 H 0.83137 0.33826 0.34180
   
