data_POSCAR
  _audit_creation_date              2014-09-24
  _audit_creation_method            'ToBaCCo'
  _symmetry_space_group_name_H-M    'P1'
  _symmetry_Int_Tables_number       1
  _symmetry_cell_setting            triclinic
  loop_
  _symmetry_equiv_pos_as_xyz
 x,y,z
_cell_length_a 49.0040
_cell_length_b 29.5718
_cell_length_c 17.4617
_cell_angle_alpha 90.172000
_cell_angle_beta 89.932500
_cell_angle_gamma 89.849500
loop_
  _atom_site_label
  _atom_site_type_symbol
  _atom_site_fract_x
  _atom_site_fract_y
  _atom_site_fract_z
C1 C 0.76010 0.28447 0.46116
 C2 C 0.76051 0.28493 0.53914
 C3 C 0.73811 0.30476 0.58587
 C4 C 0.78322 0.26318 0.58138
 C5 C 0.78158 0.26032 0.41726
 C6 C 0.73826 0.30689 0.41634
 C7 C 0.74417 0.33536 0.64458
 C8 C 0.72347 0.35348 0.69051
 C9 C 0.69570 0.34140 0.67970
 C10 C 0.69015 0.30994 0.62000
 C11 C 0.71099 0.29180 0.57464
 C12 C 0.80982 0.28022 0.57636
 C13 C 0.83146 0.25734 0.61122
 C14 C 0.82689 0.21680 0.65128
 C15 C 0.80000 0.20046 0.65726
 C16 C 0.77837 0.22367 0.62317
 C17 C 0.78428 0.21320 0.42276
 C18 C 0.80584 0.19095 0.38616
 C19 C 0.82507 0.21548 0.34343
 C20 C 0.82190 0.26257 0.33656
 C21 C 0.80021 0.28476 0.37282
 C22 C 0.72276 0.28138 0.36446
 C23 C 0.70159 0.30156 0.32330
 C24 C 0.69583 0.34783 0.33230
 C25 C 0.71180 0.37363 0.38296
 C26 C 0.73280 0.35327 0.42486
 H27 H 0.76512 0.34514 0.65528
 H28 H 0.73003 0.37517 0.73674
 H29 H 0.66967 0.30023 0.60448
 H30 H 0.70584 0.26754 0.53040
 H31 H 0.81383 0.31090 0.54458
 H32 H 0.85177 0.27141 0.60673
 H33 H 0.75794 0.20995 0.62701
 H34 H 0.76995 0.19385 0.45662
 H35 H 0.80788 0.15470 0.39283
 H36 H 0.83623 0.28218 0.30314
 H37 H 0.79834 0.32115 0.36796
 H38 H 0.72675 0.24560 0.35687
 H39 H 0.68981 0.28107 0.28395
 H40 H 0.70770 0.40932 0.39109
 H41 H 0.74475 0.37358 0.46408
 H42 H 0.79572 0.16902 0.68642
 C43 C 0.25347 0.76491 0.46067
 C44 C 0.25385 0.76564 0.53869
 C45 C 0.23285 0.78938 0.58489
 C46 C 0.27596 0.74253 0.58130
 C47 C 0.27623 0.74348 0.41796
 C48 C 0.23113 0.78529 0.41442
 C49 C 0.22778 0.83575 0.57519
 C50 C 0.20736 0.85728 0.61792
 C51 C 0.19166 0.83272 0.67080
 C52 C 0.19717 0.78652 0.68132
 C53 C 0.21774 0.76514 0.63919
 C54 C 0.29560 0.76808 0.62032
 C55 C 0.31803 0.74677 0.65410
 C56 C 0.32092 0.69951 0.65025
 C57 C 0.30073 0.67392 0.61309
 C58 C 0.27845 0.69529 0.57875
 C59 C 0.27208 0.70257 0.37916
 C60 C 0.29401 0.68025 0.34441
 C61 C 0.32041 0.69886 0.34702
 C62 C 0.32421 0.74071 0.38404
 C63 C 0.30233 0.76274 0.41936
 C64 C 0.20354 0.77709 0.43122
 C65 C 0.18293 0.79728 0.38772
 C66 C 0.18942 0.82497 0.32485
 C67 C 0.21708 0.83162 0.30651
 C68 C 0.23763 0.81222 0.35095
 H69 H 0.23950 0.85509 0.53415
 H70 H 0.20344 0.89290 0.60857
 H71 H 0.18561 0.76698 0.72242
 H72 H 0.22150 0.72941 0.64778
 H73 H 0.29396 0.80460 0.62257
 H74 H 0.33315 0.76719 0.68321
 H75 H 0.26341 0.67514 0.54878
 H76 H 0.25202 0.68726 0.37803
 H77 H 0.29041 0.64784 0.31733
 H78 H 0.34411 0.75648 0.38573
 H79 H 0.30574 0.79454 0.44871
 H80 H 0.19789 0.75520 0.47816
 H81 H 0.16192 0.79160 0.40418
 H82 H 0.22293 0.85166 0.25742
 H83 H 0.25873 0.81854 0.33593
 H84 H 0.30255 0.63749 0.60893
 C85 C 0.24193 0.25425 -0.46371
 C86 C 0.24319 0.25286 -0.54155
 C87 C 0.26662 0.27127 -0.58478
 C88 C 0.22075 0.23296 -0.58686
 C89 C 0.21818 0.23515 -0.42258
 C90 C 0.26370 0.27512 -0.41615
 C91 C 0.27257 0.31752 -0.58301
 C92 C 0.29580 0.33406 -0.61992
 C93 C 0.31392 0.30455 -0.65890
 C94 C 0.30731 0.25807 -0.66107
 C95 C 0.28380 0.24184 -0.62529
 C96 C 0.20144 0.26128 -0.62116
 C97 C 0.17884 0.24297 -0.65861
 C98 C 0.17534 0.19565 -0.66433
 C99 C 0.19553 0.16753 -0.63130
 C100 C 0.21778 0.18605 -0.59237
 C101 C 0.22131 0.19581 -0.37933
 C102 C 0.19889 0.17638 -0.34271
 C103 C 0.17258 0.19610 -0.34785
 C104 C 0.17000 0.23648 -0.39065
 C105 C 0.19249 0.25566 -0.42733
 C106 C 0.29126 0.26333 -0.42571
 C107 C 0.31152 0.28567 -0.38420
 C108 C 0.30463 0.31916 -0.32994
 C109 C 0.27686 0.32912 -0.31772
 C110 C 0.25667 0.30750 -0.36060
 H111 H 0.25949 0.34066 -0.55166
 H112 H 0.30011 0.36975 -0.61406
 H113 H 0.31971 0.23403 -0.69247
 H114 H 0.27936 0.20600 -0.62757
 H115 H 0.20359 0.29767 -0.61742
 H116 H 0.16466 0.26623 -0.68511
 H117 H 0.23246 0.16381 -0.56531
 H118 H 0.24108 0.17946 -0.37555
 H119 H 0.20232 0.14467 -0.31364
 H120 H 0.15088 0.25464 -0.39423
 H121 H 0.18990 0.28668 -0.45936
 H122 H 0.29718 0.23730 -0.46618
 H123 H 0.33261 0.27722 -0.39598
 H124 H 0.27065 0.35367 -0.27502
 H125 H 0.23551 0.31666 -0.35126
 H126 H 0.19357 0.13111 -0.63155
 C127 C -0.24689 0.72325 -0.54015
 C128 C -0.24735 0.72326 -0.46215
 C129 C -0.26844 0.69888 -0.41784
 C130 C -0.22594 0.74682 -0.41745
 C131 C -0.22383 0.74421 -0.58199
 C132 C -0.26883 0.70229 -0.58698
 C133 C -0.28526 0.72285 -0.36719
 C134 C -0.30551 0.70057 -0.32574
 C135 C -0.30913 0.65331 -0.33257
 C136 C -0.29142 0.62936 -0.38235
 C137 C -0.27149 0.65198 -0.42479
 C138 C -0.22252 0.79378 -0.42345
 C139 C -0.20083 0.81512 -0.38621
 C140 C -0.18222 0.78977 -0.34260
 C141 C -0.18623 0.74295 -0.33491
 C142 C -0.20803 0.72171 -0.37163
 C143 C -0.19739 0.72683 -0.57471
 C144 C -0.17538 0.74854 -0.60945
 C145 C -0.17916 0.78855 -0.65258
 C146 C -0.20621 0.80481 -0.66103
 C147 C -0.22818 0.78274 -0.62653
 C148 C -0.26200 0.67257 -0.64660
 C149 C -0.28229 0.65245 -0.69117
 C150 C -0.31027 0.66141 -0.67756
 C151 C -0.31679 0.69216 -0.61789
 C152 C -0.29638 0.71253 -0.57398
 H153 H -0.28288 0.75905 -0.36033
 H154 H -0.31757 0.72056 -0.28619
 H155 H -0.29360 0.59338 -0.39169
 H156 H -0.25847 0.63291 -0.46337
 H157 H -0.23630 0.81366 -0.45828
 H158 H -0.19812 0.85120 -0.39331
 H159 H -0.21046 0.68546 -0.36632
 H160 H -0.19380 0.69651 -0.54150
 H161 H -0.15559 0.73272 -0.60370
 H162 H -0.21067 0.83595 -0.69075
 H163 H -0.24853 0.79672 -0.63221
 H164 H -0.24081 0.66476 -0.65867
 H165 H -0.27559 0.63112 -0.73791
 H166 H -0.33764 0.69963 -0.60213
 H167 H -0.30219 0.73619 -0.52937
 H168 H -0.17238 0.72277 -0.30079
 O169 O -0.04425 0.91595 0.13538
 O170 O -0.07316 0.95915 0.06273
 C171 C -0.06850 0.92903 0.11494
 O172 O 0.03628 1.07211 0.13495
 O173 O 0.06494 1.02640 0.06516
 C174 C 0.06046 1.05800 0.11524
 O175 O -0.04075 1.07282 0.14263
 O176 O -0.07147 1.03424 0.06820
 C177 C -0.06552 1.06256 0.12238
 O178 O 0.03214 0.90604 0.12670
 O179 O 0.06314 0.94907 0.06077
 C180 C 0.05694 0.91701 0.10829
 Zr181 Zr -0.00543 0.93511 0.09265
 O182 O -0.00269 0.93131 0.21343
 O183 O -0.00854 0.86410 0.08200
 Zr184 Zr -0.00274 1.04953 0.09844
 O185 O 0.00004 1.04893 0.21941
 O186 O -0.00241 1.12096 0.09531
 O187 O -0.02834 0.99374 0.11087
 O188 O 0.01952 0.99045 0.10948
 O189 O 0.03208 0.90995 -0.13751
 O190 O 0.06302 0.95113 -0.06790
 C191 C 0.05689 0.92062 -0.11847
 O192 O -0.04063 1.07759 -0.13603
 O193 O -0.07133 1.03794 -0.06340
 C194 C -0.06537 1.06775 -0.11502
 O195 O 0.03617 1.07607 -0.12923
 O196 O 0.06504 1.02942 -0.06255
 C197 C 0.06041 1.06214 -0.11013
 O198 O -0.04444 0.91965 -0.14337
 O199 O -0.07327 0.96254 -0.06910
 C200 C -0.06865 0.93319 -0.12293
 Zr201 Zr -0.00552 0.93812 -0.10054
 O202 O -0.00260 0.94061 -0.22144
 O203 O -0.00962 0.86694 -0.10451
 Zr204 Zr -0.00278 1.05233 -0.09510
 O205 O 0.00014 1.05304 -0.21609
 O206 O -0.00344 1.12385 -0.09235
 Zr207 Zr -0.04459 0.99659 -0.00069
 Zr208 Zr 0.03638 0.99100 -0.00135
 O209 O 0.01956 0.99382 -0.11204
 O210 O -0.02850 0.99717 -0.11268
 O211 O 0.01868 0.92624 -0.00450
 O212 O -0.02626 1.06080 0.00241
 O213 O -0.02941 0.93003 -0.00408
 O214 O 0.02175 1.05798 0.00199
 H215 H 0.03177 0.98886 0.15450
 H216 H -0.03793 1.08821 0.00410
 H217 H 0.03197 0.99373 -0.15689
 H218 H -0.04235 0.90435 -0.00536
 H219 H -0.00210 1.13117 0.14941
 H220 H 0.00867 1.13340 -0.05001
 H221 H -0.01607 1.03724 -0.23656
 H222 H -0.01788 0.95948 -0.24017
 H223 H 0.00221 0.85445 -0.06382
 H224 H -0.00878 0.85208 0.13491
 H225 H -0.01630 0.95266 0.23475
 H226 H -0.01498 1.02977 0.23863
 O227 O 0.45779 0.41834 0.14244
 O228 O 0.42832 0.45690 0.06389
 C229 C 0.43339 0.43014 0.12069
 O230 O 0.53287 0.58059 0.12570
 O231 O 0.56404 0.53546 0.06372
 C232 C 0.55773 0.56841 0.10977
 O233 O 0.45638 0.57346 0.12926
 O234 O 0.42757 0.53032 0.05604
 C235 C 0.43217 0.56078 0.10793
 O236 O 0.53484 0.41498 0.13933
 O237 O 0.56495 0.45803 0.07025
 C238 C 0.55941 0.42761 0.12134
 Zr239 Zr 0.49659 0.43828 0.09869
 O240 O 0.49836 0.43953 0.21977
 O241 O 0.49593 0.36685 0.09653
 Zr242 Zr 0.49534 0.55276 0.08913
 O243 O 0.49707 0.55874 0.20986
 O244 O 0.49312 0.62366 0.07564
 O245 O 0.47170 0.49535 0.10753
 O246 O 0.51947 0.49665 0.10947
 O247 O 0.53697 0.40678 -0.12535
 O248 O 0.56605 0.45388 -0.06038
 C249 C 0.56125 0.42056 -0.10702
 O250 O 0.45847 0.56682 -0.14947
 O251 O 0.42873 0.52586 -0.07597
 C252 C 0.43396 0.55452 -0.12995
 O253 O 0.53486 0.57382 -0.13749
 O254 O 0.56508 0.53164 -0.06684
 C255 C 0.55942 0.56250 -0.11714
 O256 O 0.46074 0.40749 -0.13559
 O257 O 0.42955 0.45080 -0.06976
 C258 C 0.43591 0.41930 -0.11863
 Zr259 Zr 0.49828 0.43255 -0.09376
 O260 O 0.50197 0.42968 -0.21450
 O261 O 0.49688 0.36113 -0.08789
 Zr262 Zr 0.49681 0.54685 -0.10363
 O263 O 0.50084 0.54172 -0.22410
 O264 O 0.49348 0.61803 -0.11132
 Zr265 Zr 0.45630 0.49147 -0.00494
 Zr266 Zr 0.53750 0.49388 0.00009
 O267 O 0.52136 0.49004 -0.11142
 O268 O 0.47337 0.48844 -0.11554
 O269 O 0.52204 0.42752 0.00473
 O270 O 0.47222 0.55736 -0.00916
 O271 O 0.47367 0.42654 0.00189
 O272 O 0.52041 0.55922 -0.00643
 H273 H 0.53121 0.49840 0.15554
 H274 H 0.45957 0.58350 -0.01182
 H275 H 0.53404 0.48917 -0.15564
 H276 H 0.46150 0.39986 0.00408
 H277 H 0.49239 0.63653 0.12807
 H278 H 0.50433 0.63087 -0.06878
 H279 H 0.48505 0.52428 -0.24332
 H280 H 0.48624 0.44619 -0.23639
 H281 H 0.50920 0.35180 -0.04591
 H282 H 0.49540 0.35715 0.15078
 H283 H 0.48440 0.46135 0.23761
 H284 H 0.48328 0.53792 0.23120
 C285 C 0.36141 0.29335 0.29715
 C286 C 0.33798 0.32102 0.30534
 C287 C 0.33918 0.36555 0.27649
 C288 C 0.36270 0.38161 0.23980
 C289 C 0.38597 0.35357 0.23299
 C290 C 0.38511 0.30958 0.26215
 C291 C 0.40949 0.36979 0.19597
 C292 C 0.40956 0.41318 0.16348
 C293 C 0.38621 0.44061 0.17015
 C294 C 0.36310 0.42516 0.20853
 H295 H 0.32141 0.38734 0.27865
 H296 H 0.40275 0.28756 0.25769
 H297 H 0.42735 0.34829 0.19038
 H298 H 0.34543 0.44713 0.21298
 H299 H 0.36205 0.25951 0.32042
 H300 H 0.38588 0.47431 0.14598
 C301 C -0.12990 0.80658 0.34460
 C302 C -0.15654 0.81169 0.31444
 C303 C -0.15987 0.84075 0.25078
 C304 C -0.13754 0.86345 0.21847
 C305 C -0.11118 0.85716 0.24908
 C306 C -0.10763 0.82884 0.31224
 C307 C -0.08876 0.87907 0.21579
 C308 C -0.09232 0.90743 0.15203
 C309 C -0.11875 0.91398 0.12266
 C310 C -0.14112 0.89209 0.15538
 H311 H -0.17953 0.84468 0.22349
 H312 H -0.08758 0.82409 0.33713
 H313 H -0.06856 0.87379 0.23940
 H314 H -0.16120 0.89742 0.13108
 H315 H -0.12599 0.78674 0.39529
 H316 H -0.12215 0.93552 0.07351
 C317 C 0.67388 0.59865 0.23954
 C318 C 0.66896 0.64012 0.27801
 C319 C 0.64259 0.65943 0.27133
 C320 C 0.62193 0.63780 0.22950
 C321 C 0.62740 0.59645 0.19199
 C322 C 0.65346 0.57738 0.19699
 C323 C 0.60661 0.57452 0.15106
 C324 C 0.58016 0.59302 0.14834
 C325 C 0.57502 0.63448 0.18536
 C326 C 0.59574 0.65680 0.22508
 H327 H 0.63796 0.69203 0.29644
 H328 H 0.65798 0.54548 0.16900
 H329 H 0.61091 0.54258 0.12292
 H330 H 0.59115 0.68862 0.25330
 H331 H 0.69312 0.58099 0.24439
 H332 H 0.55490 0.64969 0.18389
 C333 C 0.12693 1.20025 0.29782
 C334 C 0.15216 1.17697 0.29863
 C335 C 0.15361 1.13445 0.26173
 C336 C 0.13073 1.11594 0.22515
 C337 C 0.10556 1.13928 0.22665
 C338 C 0.10392 1.18143 0.26303
 C339 C 0.08253 1.12019 0.19137
 C340 C 0.08455 1.07852 0.15272
 C341 C 0.10996 1.05632 0.14978
 C342 C 0.13273 1.07455 0.18631
 H343 H 0.17281 1.11633 0.25813
 H344 H 0.08479 1.19986 0.26479
 H345 H 0.06318 1.13804 0.19313
 H346 H 0.15193 1.05634 0.18386
 H347 H 0.12437 1.23228 0.32711
 H348 H 0.11224 1.02453 0.11970
 C349 C 0.67896 0.39966 -0.23231
 C350 C 0.67521 0.35928 -0.27539
 C351 C 0.64920 0.33838 -0.27026
 C352 C 0.62797 0.35744 -0.22682
 C353 C 0.63231 0.39785 -0.18570
 C354 C 0.65793 0.41835 -0.18822
 C355 C 0.61079 0.41752 -0.14393
 C356 C 0.58473 0.39765 -0.14414
 C357 C 0.58085 0.35680 -0.18405
 C358 C 0.60228 0.33675 -0.22452
 H359 H 0.64520 0.30614 -0.29719
 H360 H 0.66161 0.44955 -0.15726
 H361 H 0.61416 0.44891 -0.11325
 H362 H 0.59859 0.30551 -0.25536
 H363 H 0.69755 0.41909 -0.23495
 H364 H 0.56110 0.34047 -0.18480
 C365 C 0.17341 0.89711 -0.25051
 C366 C 0.16932 0.85492 -0.28581
 C367 C 0.14372 0.83388 -0.27965
 C368 C 0.12241 0.85475 -0.23899
 C369 C 0.12682 0.89697 -0.20299
 C370 C 0.15239 0.91786 -0.20908
 C371 C 0.10550 0.91782 -0.16229
 C372 C 0.07961 0.89746 -0.15836
 C373 C 0.07542 0.85563 -0.19482
 C374 C 0.09669 0.83430 -0.23432
 H375 H 0.14027 0.80162 -0.30765
 H376 H 0.15610 0.95030 -0.18203
 H377 H 0.10891 0.95037 -0.13522
 H378 H 0.09295 0.80199 -0.26174
 H379 H 0.19303 0.91375 -0.25417
 H380 H 0.05569 0.83927 -0.19252
 C381 C 0.37138 0.69428 -0.32786
 C382 C 0.34505 0.67695 -0.31571
 C383 C 0.34184 0.63791 -0.27103
 C384 C 0.36459 0.61668 -0.23811
 C385 C 0.39101 0.63424 -0.25081
 C386 C 0.39418 0.67299 -0.29602
 C387 C 0.41375 0.61317 -0.21718
 C388 C 0.41035 0.57524 -0.16967
 C389 C 0.38389 0.55828 -0.15741
 C390 C 0.36128 0.57854 -0.19176
 H391 H 0.32158 0.62460 -0.26067
 H392 H 0.41426 0.68698 -0.30639
 H393 H 0.43394 0.62696 -0.22658
 H394 H 0.34117 0.56472 -0.18118
 H395 H 0.37433 0.72407 -0.36282
 H396 H 0.38054 0.52946 -0.12056
 C397 C -0.12450 1.18917 -0.35175
 C398 C -0.14996 1.19121 -0.31445
 C399 C -0.15331 1.16798 -0.24486
 C400 C -0.13177 1.14286 -0.21344
 C401 C -0.10623 1.14149 -0.25106
 C402 C -0.10282 1.16478 -0.32016
 C403 C -0.08457 1.11682 -0.21897
 C404 C -0.08824 1.09296 -0.15018
 C405 C -0.11388 1.09409 -0.11392
 C406 C -0.13539 1.11901 -0.14500
 H407 H -0.17262 1.16968 -0.21464
 H408 H -0.08345 1.16384 -0.35014
 H409 H -0.06496 1.11601 -0.24775
 H410 H -0.15485 1.11961 -0.11547
 H411 H -0.12141 1.20587 -0.40615
 H412 H -0.11724 1.07627 -0.06064
 C413 C 0.67274 0.58504 -0.26932
 C414 C 0.66996 0.63082 -0.29118
 C415 C 0.64555 0.65359 -0.27123
 C416 C 0.62461 0.63142 -0.23163
 C417 C 0.62801 0.58591 -0.20932
 C418 C 0.65216 0.56310 -0.22833
 C419 C 0.60697 0.56379 -0.16966
 C420 C 0.58224 0.58627 -0.15450
 C421 C 0.57897 0.63137 -0.17773
 C422 C 0.60007 0.65391 -0.21525
 H423 H 0.64199 0.68802 -0.28975
 H424 H 0.65512 0.52817 -0.21173
 H425 H 0.60949 0.52880 -0.15283
 H426 H 0.59705 0.68878 -0.23226
 H427 H 0.69126 0.56626 -0.28095
 H428 H 0.56009 0.64933 -0.16642
 C429 C 0.12277 1.18382 -0.33907
 C430 C 0.14955 1.17586 -0.31186
 C431 C 0.15263 1.14677 -0.24814
 C432 C 0.12997 1.12620 -0.21365
 C433 C 0.10353 1.13480 -0.24199
 C434 C 0.10017 1.16368 -0.30454
 C435 C 0.08086 1.11417 -0.20763
 C436 C 0.08428 1.08464 -0.14534
 C437 C 0.11075 1.07638 -0.11749
 C438 C 0.13335 1.09709 -0.15111
 H439 H 0.17246 1.14099 -0.22283
 H440 H 0.08002 1.17029 -0.32755
 H441 H 0.06062 1.12078 -0.23003
 H442 H 0.15350 1.09012 -0.12843
 H443 H 0.11896 1.20410 -0.38934
 H444 H 0.11404 1.05395 -0.06942
 C445 C 0.32272 0.38980 -0.26713
 C446 C 0.32627 0.34397 -0.28717
 C447 C 0.35088 0.32230 -0.26746
 C448 C 0.37171 0.34607 -0.23005
 C449 C 0.36773 0.39189 -0.20954
 C450 C 0.34312 0.41337 -0.22809
 C451 C 0.38857 0.41556 -0.17178
 C452 C 0.41364 0.39435 -0.15639
 C453 C 0.41749 0.34895 -0.17784
 C454 C 0.39661 0.32486 -0.21360
 H455 H 0.35391 0.28687 -0.28097
 H456 H 0.33981 0.44862 -0.21349
 H457 H 0.38555 0.45066 -0.15602
 H458 H 0.40005 0.28980 -0.22911
 H459 H 0.30434 0.40788 -0.28281
 H460 H 0.43661 0.33188 -0.16610
 C461 C -0.13230 0.79176 -0.31347
 C462 C -0.15824 0.81176 -0.30699
 C463 C -0.16109 0.85275 -0.26675
 C464 C -0.13833 0.87322 -0.23250
 C465 C -0.11232 0.85280 -0.23953
 C466 C -0.10952 0.81217 -0.28031
 C467 C -0.08959 0.87303 -0.20497
 C468 C -0.09249 0.91313 -0.16220
 C469 C -0.11846 0.93315 -0.15552
 C470 C -0.14114 0.91351 -0.19068
 H471 H -0.18107 0.86821 -0.26095
 H472 H -0.08974 0.79607 -0.28632
 H473 H -0.06975 0.85700 -0.21012
 H474 H -0.16091 0.92963 -0.18464
 H475 H -0.12959 0.76049 -0.34506
 H476 H -0.12126 0.96412 -0.12313
 C477 C 0.36965 0.67523 0.34827
 C478 C 0.34396 0.67451 0.31234
 C479 C 0.34094 0.65030 0.24338
 C480 C 0.36320 0.62741 0.21065
 C481 C 0.38899 0.62912 0.24668
 C482 C 0.39196 0.65295 0.31559
 C483 C 0.41140 0.60711 0.21311
 C484 C 0.40837 0.58297 0.14419
 C485 C 0.38251 0.58079 0.10954
 C486 C 0.36016 0.60299 0.14228
 H487 H 0.32138 0.64978 0.21448
 H488 H 0.41153 0.65426 0.34435
 H489 H 0.43116 0.60871 0.24081
 H490 H 0.34052 0.60119 0.11400
 H491 H 0.37248 0.69270 0.40225
 H492 H 0.37962 0.56250 0.05633
 C493 C -0.12508 1.21032 0.31219
 C494 C -0.15146 1.19204 0.30703
 C495 C -0.15530 1.15109 0.26749
 C496 C -0.13313 1.12881 0.23307
 C497 C -0.10665 1.14737 0.23885
 C498 C -0.10285 1.18812 0.27866
 C499 C -0.08449 1.12515 0.20406
 C500 C -0.08853 1.08496 0.16238
 C501 C -0.11499 1.06685 0.15711
 C502 C -0.13704 1.08844 0.19242
 H503 H -0.17562 1.13696 0.26248
 H504 H -0.08271 1.20286 0.28371
 H505 H -0.06424 1.13966 0.20809
 H506 H -0.15719 1.07373 0.18743
 H507 H -0.12159 1.24156 0.34316
 H508 H -0.11867 1.03583 0.12568
 C509 C 0.67674 0.41008 0.25094
 C510 C 0.67305 0.36884 0.28929
 C511 C 0.64751 0.34741 0.28600
 C512 C 0.62588 0.36687 0.24498
 C513 C 0.62989 0.40804 0.20569
 C514 C 0.65539 0.42938 0.20907
 C515 C 0.60828 0.42732 0.16421
 C516 C 0.58249 0.40648 0.16279
 C517 C 0.57874 0.36571 0.20261
 C518 C 0.60027 0.34595 0.24291
 H519 H 0.64439 0.31587 0.31627
 H520 H 0.65884 0.46095 0.17936
 H521 H 0.61143 0.45890 0.13421
 H522 H 0.59683 0.31441 0.27283
 H523 H 0.69631 0.42699 0.25234
 H524 H 0.55914 0.34886 0.20230
 C525 C 0.17169 0.89059 0.24800
 C526 C 0.16756 0.84722 0.27903
 C527 C 0.14234 0.82565 0.26671
 C528 C 0.12151 0.84728 0.22545
 C529 C 0.12611 0.89059 0.19411
 C530 C 0.15129 0.91184 0.20541
 C531 C 0.10526 0.91237 0.15336
 C532 C 0.07948 0.89220 0.14568
 C533 C 0.07509 0.84911 0.17708
 C534 C 0.09601 0.82662 0.21589
 H535 H 0.13884 0.79202 0.28901
 H536 H 0.15505 0.94527 0.18245
 H537 H 0.10886 0.94560 0.12968
 H538 H 0.09210 0.79344 0.23959
 H539 H 0.19056 0.90861 0.25770
 H540 H 0.05543 0.83277 0.17167
   
