data_POSCAR
  _audit_creation_date              2014-09-24
  _audit_creation_method            'ToBaCCo'
  _symmetry_space_group_name_H-M    'P1'
  _symmetry_Int_Tables_number       1
  _symmetry_cell_setting            triclinic
  loop_
  _symmetry_equiv_pos_as_xyz
 x,y,z
_cell_length_a 45.5217
_cell_length_b 45.4736
_cell_length_c 45.4280
_cell_angle_alpha 90.590800
_cell_angle_beta 90.694700
_cell_angle_gamma 90.681800
loop_
  _atom_site_label
  _atom_site_type_symbol
  _atom_site_fract_x
  _atom_site_fract_y
  _atom_site_fract_z
C1 C 0.72304 0.66327 0.96228
 H2 H 0.74537 0.66312 0.95440
 C3 C 0.70108 0.67735 0.94599
 H4 H 0.70654 0.68829 0.92567
 C5 C 0.68799 0.64729 0.99703
 H6 H 0.68256 0.63469 1.01623
 C7 C 0.66554 0.66115 0.98159
 H8 H 0.64314 0.65936 0.98923
 N9 N 0.71607 0.64823 0.98706
 C10 C 0.79254 0.62923 1.04212
 H11 H 0.78706 0.60641 1.04609
 C12 C 0.81767 0.64170 1.05506
 H13 H 0.83151 0.62850 1.06916
 C14 C 0.78181 0.67390 1.01792
 H15 H 0.76793 0.68613 1.00308
 C16 C 0.80699 0.68727 1.03040
 H17 H 0.81250 0.70985 1.02521
 Zn18 Zn 0.74447 0.62374 1.00498
 N19 N 0.77545 0.64519 1.02361
 C20 C 0.79004 0.59952 0.97117
 N21 N 0.76043 0.59960 0.97509
 C22 C 0.74199 0.58387 0.95693
 C23 C 0.75328 0.56693 0.93391
 C24 C 0.80219 0.58292 0.94851
 C25 C 0.71758 0.61489 1.05900
 C26 C 0.70311 0.59962 1.08113
 C27 C 0.70753 0.55494 1.05223
 C28 C 0.72194 0.57110 1.03061
 N29 N 0.72623 0.60061 1.03416
 H30 H 0.80434 0.61259 0.98534
 H31 H 0.71851 0.58473 0.96019
 H32 H 0.73851 0.55457 0.91944
 H33 H 0.82576 0.58312 0.94550
 H34 H 0.72157 0.63830 1.06135
 H35 H 0.69599 0.61138 1.10062
 H36 H 0.70391 0.53151 1.04903
 H37 H 0.72944 0.56008 1.01097
 C38 C 0.82523 0.67082 1.04886
 C39 C 0.67198 0.67583 0.95556
 C40 C 0.69781 0.56940 1.07762
 C41 C 0.78367 0.56653 0.92969
 C42 C 0.73095 0.34499 0.52717
 H43 H 0.75341 0.34348 0.53501
 C44 C 0.70841 0.33023 0.54194
 H45 H 0.71353 0.31712 0.56107
 C46 C 0.69635 0.36562 0.49410
 H47 H 0.69139 0.38025 0.47623
 C48 C 0.67332 0.35119 0.50807
 H49 H 0.65092 0.35456 0.50060
 N50 N 0.72451 0.36260 0.50396
 C51 C 0.80326 0.38323 0.45382
 H52 H 0.80060 0.40683 0.45332
 C53 C 0.82670 0.37036 0.43930
 H54 H 0.84216 0.38408 0.42758
 C55 C 0.78649 0.33660 0.47005
 H56 H 0.77073 0.32365 0.48212
 C57 C 0.80979 0.32276 0.45579
 H58 H 0.81205 0.29912 0.45694
 Zn59 Zn 0.75418 0.38748 0.48848
 N60 N 0.78397 0.36639 0.46910
 C61 C 0.80031 0.40826 0.52594
 N62 N 0.77087 0.40923 0.52042
 C63 C 0.75266 0.42445 0.53842
 C64 C 0.76402 0.43992 0.56283
 C65 C 0.81254 0.42341 0.55007
 C66 C 0.72753 0.40021 0.43475
 C67 C 0.71323 0.41698 0.41355
 C68 C 0.72001 0.45983 0.44494
 C69 C 0.73423 0.44223 0.46561
 N70 N 0.73715 0.41287 0.46043
 H71 H 0.81436 0.39549 0.51189
 H72 H 0.72927 0.42438 0.53386
 H73 H 0.74940 0.45196 0.57707
 H74 H 0.83598 0.42247 0.55433
 H75 H 0.73041 0.37688 0.43111
 H76 H 0.70509 0.40658 0.39344
 H77 H 0.71722 0.48307 0.44940
 H78 H 0.74250 0.45198 0.48588
 C79 C 0.83016 0.33991 0.44044
 C80 C 0.67928 0.33378 0.53252
 C81 C 0.70914 0.44697 0.41884
 C82 C 0.79424 0.43937 0.56867
 C83 C 0.23093 -0.15443 0.02682
 H84 H 0.25340 -0.15590 0.03464
 C85 C 0.20844 -0.16925 0.04162
 H86 H 0.21361 -0.18235 0.06073
 C87 C 0.19624 -0.13387 -0.00620
 H88 H 0.19123 -0.11926 -0.02407
 C89 C 0.17326 -0.14836 0.00779
 H90 H 0.15085 -0.14505 0.00033
 N91 N 0.22442 -0.13683 0.00361
 C92 C 0.30300 -0.11633 -0.04683
 H93 H 0.30031 -0.09274 -0.04743
 C94 C 0.32642 -0.12924 -0.06134
 H95 H 0.34184 -0.11556 -0.07317
 C96 C 0.28634 -0.16290 -0.03032
 H97 H 0.27063 -0.17581 -0.01815
 C98 C 0.30963 -0.17677 -0.04458
 H99 H 0.31192 -0.20041 -0.04331
 Zn100 Zn 0.25403 -0.11198 -0.01201
 N101 N 0.28377 -0.13312 -0.03141
 C102 C 0.30028 -0.09108 0.02522
 N103 N 0.27082 -0.09011 0.01980
 C104 C 0.25269 -0.07482 0.03783
 C105 C 0.26415 -0.05928 0.06215
 C106 C 0.31262 -0.07587 0.04926
 C107 C 0.22727 -0.09949 -0.06572
 C108 C 0.21287 -0.08286 -0.08697
 C109 C 0.21958 -0.03984 -0.05571
 C110 C 0.23390 -0.05735 -0.03502
 N111 N 0.23690 -0.08671 -0.04011
 H112 H 0.31427 -0.10391 0.01116
 H113 H 0.22929 -0.07489 0.03336
 H114 H 0.24960 -0.04719 0.07642
 H115 H 0.33607 -0.07682 0.05343
 H116 H 0.23022 -0.12282 -0.06928
 H117 H 0.20478 -0.09349 -0.10700
 H118 H 0.21681 -0.01659 -0.05120
 H119 H 0.24219 -0.04751 -0.01479
 C120 C 0.32993 -0.15968 -0.06006
 C121 C 0.17929 -0.16577 0.03221
 C122 C 0.20867 -0.05282 -0.08178
 C123 C 0.29440 -0.05984 0.06788
 C124 C 0.22356 0.16342 0.46160
 H125 H 0.24589 0.16339 0.45374
 C126 C 0.20155 0.17751 0.44538
 H127 H 0.20699 0.18858 0.42513
 C128 C 0.18854 0.14711 0.49624
 H129 H 0.18314 0.13438 0.51536
 C130 C 0.16605 0.16098 0.48086
 H131 H 0.14365 0.15906 0.48848
 N132 N 0.21662 0.14821 0.48629
 C133 C 0.29322 0.12898 0.54112
 H134 H 0.28783 0.10610 0.54483
 C135 C 0.31830 0.14142 0.55420
 H136 H 0.33218 0.12812 0.56815
 C137 C 0.28229 0.17389 0.51743
 H138 H 0.26834 0.18623 0.50276
 C139 C 0.30741 0.18723 0.53008
 H140 H 0.31281 0.20990 0.52516
 Zn141 Zn 0.24509 0.12369 0.50409
 N142 N 0.27605 0.14509 0.52280
 C143 C 0.29064 0.09971 0.47010
 N144 N 0.26104 0.09967 0.47410
 C145 C 0.24261 0.08389 0.45598
 C146 C 0.25390 0.06700 0.43292
 C147 C 0.30278 0.08316 0.44739
 C148 C 0.21827 0.11467 0.55811
 C149 C 0.20390 0.09932 0.58023
 C150 C 0.20838 0.05472 0.55130
 C151 C 0.22270 0.07093 0.52965
 N152 N 0.22691 0.10045 0.53323
 H153 H 0.30493 0.11283 0.48423
 H154 H 0.21914 0.08465 0.45931
 H155 H 0.23913 0.05458 0.41848
 H156 H 0.32635 0.08345 0.44432
 H157 H 0.22220 0.13809 0.56049
 H158 H 0.19674 0.11090 0.59978
 H159 H 0.20476 0.03130 0.54820
 H160 H 0.23019 0.05995 0.50999
 C161 C 0.32572 0.17064 0.54835
 C162 C 0.17246 0.17583 0.45492
 C163 C 0.19871 0.06913 0.57668
 C164 C 0.28428 0.06671 0.42862
 C165 C 0.16428 0.46159 0.22357
 H166 H 0.16413 0.45385 0.24601
 C167 C 0.17835 0.44522 0.20169
 H168 H 0.18926 0.42497 0.20732
 C169 C 0.14830 0.49608 0.18818
 H170 H 0.13570 0.51519 0.18259
 C171 C 0.16215 0.48054 0.16580
 H172 H 0.16034 0.48804 0.14329
 N173 N 0.14924 0.48627 0.21639
 C174 C 0.12971 0.54139 0.29266
 H175 H 0.10687 0.54505 0.28712
 C176 C 0.14203 0.55461 0.31775
 H177 H 0.12869 0.56860 0.33150
 C178 C 0.17461 0.51773 0.28208
 H179 H 0.18698 0.50301 0.26826
 C180 C 0.18783 0.53051 0.30722
 H181 H 0.21045 0.52565 0.31278
 Zn182 Zn 0.12462 0.50416 0.24467
 N183 N 0.14587 0.52303 0.27566
 C184 C 0.10043 0.47038 0.29041
 N185 N 0.10057 0.47424 0.26073
 C186 C 0.08494 0.45600 0.24228
 C187 C 0.06803 0.43298 0.25362
 C188 C 0.08385 0.44771 0.30262
 C189 C 0.11565 0.55796 0.21736
 C190 C 0.10031 0.57997 0.20282
 C191 C 0.05578 0.55098 0.20743
 C192 C 0.07198 0.52945 0.22193
 N193 N 0.10146 0.53311 0.22616
 H194 H 0.11344 0.48460 0.30473
 H195 H 0.08585 0.45923 0.21874
 H196 H 0.05573 0.41846 0.23884
 H197 H 0.08399 0.44475 0.32626
 H198 H 0.13904 0.56042 0.22133
 H199 H 0.11186 0.59950 0.19555
 H200 H 0.03238 0.54782 0.20382
 H201 H 0.06101 0.50983 0.22955
 C202 C 0.17119 0.54884 0.32537
 C203 C 0.17680 0.45460 0.17246
 C204 C 0.07016 0.57633 0.19761
 C205 C 0.06755 0.42883 0.28409
 C206 C -0.15544 0.02782 0.22984
 H207 H -0.15694 0.03566 0.25233
 C208 C -0.17005 0.04267 0.20721
 H209 H -0.18303 0.06183 0.21236
 C210 C -0.13498 -0.00531 0.19527
 H211 H -0.12048 -0.02322 0.19036
 C212 C -0.14926 0.00871 0.17213
 H213 H -0.14586 0.00116 0.14973
 N214 N -0.13797 0.00456 0.22346
 C215 C -0.11750 -0.04581 0.30231
 H216 H -0.09394 -0.04640 0.29955
 C217 C -0.13033 -0.06035 0.32581
 H218 H -0.11663 -0.07218 0.34123
 C219 C -0.16405 -0.02934 0.28573
 H220 H -0.17699 -0.01716 0.27002
 C221 C -0.17785 -0.04362 0.30911
 H222 H -0.20145 -0.04238 0.31148
 Zn223 Zn -0.11320 -0.01101 0.25322
 N224 N -0.13432 -0.03041 0.28307
 C225 C -0.09229 0.02618 0.29951
 N226 N -0.09135 0.02080 0.27000
 C227 C -0.07606 0.03881 0.25180
 C228 C -0.06044 0.06306 0.26326
 C229 C -0.07700 0.05016 0.31184
 C230 C -0.10064 -0.06468 0.22658
 C231 C -0.08396 -0.08588 0.21228
 C232 C -0.04106 -0.05457 0.21904
 C233 C -0.05858 -0.03390 0.23325
 N234 N -0.08793 -0.03905 0.23618
 H235 H -0.10512 0.01213 0.31356
 H236 H -0.07615 0.03436 0.22836
 H237 H -0.04831 0.07731 0.24865
 H238 H -0.07789 0.05429 0.33535
 H239 H -0.12396 -0.06829 0.22947
 H240 H -0.09440 -0.10595 0.20416
 H241 H -0.01783 -0.05014 0.21624
 H242 H -0.04878 -0.01367 0.24152
 C243 C -0.16072 -0.05910 0.32942
 C244 C -0.16651 0.03325 0.17802
 C245 C -0.05398 -0.08062 0.20818
 C246 C -0.06093 0.06874 0.29357
 C247 C 0.34426 0.52736 0.73118
 H248 H 0.34279 0.53504 0.75372
 C249 C 0.32954 0.54228 0.70868
 H250 H 0.31650 0.56136 0.71391
 C251 C 0.36478 0.49454 0.69634
 H252 H 0.37935 0.47672 0.69127
 C253 C 0.35038 0.50867 0.67334
 H254 H 0.35372 0.50135 0.65086
 N255 N 0.36181 0.50420 0.72460
 C256 C 0.38241 0.45365 0.80328
 H257 H 0.40599 0.45321 0.80062
 C258 C 0.36955 0.43895 0.82667
 H259 H 0.38326 0.42715 0.84210
 C260 C 0.33583 0.46988 0.78652
 H261 H 0.32289 0.48200 0.77078
 C262 C 0.32200 0.45542 0.80979
 H263 H 0.29838 0.45649 0.81203
 Zn264 Zn 0.38666 0.48855 0.75423
 N265 N 0.36559 0.46901 0.78401
 C266 C 0.40759 0.52570 0.80058
 N267 N 0.40848 0.52035 0.77106
 C268 C 0.42369 0.53841 0.75284
 C269 C 0.43924 0.56271 0.76428
 C270 C 0.42282 0.54972 0.81290
 C271 C 0.39924 0.43504 0.72727
 C272 C 0.41595 0.41393 0.71287
 C273 C 0.45883 0.44521 0.71984
 C274 C 0.44129 0.46579 0.73416
 N275 N 0.41194 0.46062 0.73703
 H276 H 0.39482 0.51160 0.81463
 H277 H 0.42356 0.53399 0.72940
 H278 H 0.45129 0.57700 0.74966
 H279 H 0.42195 0.55385 0.83640
 H280 H 0.37592 0.43140 0.73012
 H281 H 0.40552 0.39389 0.70463
 H282 H 0.48207 0.44965 0.71710
 H283 H 0.45108 0.48598 0.74254
 C284 C 0.33913 0.43998 0.83012
 C285 C 0.33305 0.53306 0.67945
 C286 C 0.44593 0.41921 0.70883
 C287 C 0.43878 0.56837 0.79460
 C288 C 0.66467 0.96226 0.72419
 H289 H 0.66458 0.95433 0.74656
 C290 C 0.67867 0.94607 0.70213
 H291 H 0.68961 0.92578 0.70756
 C292 C 0.64856 0.99702 0.68913
 H293 H 0.63593 1.01617 0.68373
 C294 C 0.66235 0.98168 0.66659
 H295 H 0.66047 0.98935 0.64415
 N296 N 0.64958 0.98699 0.71726
 C297 C 0.63007 1.04156 0.79395
 H298 H 0.60722 1.04521 0.78846
 C299 C 0.64239 1.05466 0.81910
 H300 H 0.62897 1.06856 0.83290
 C301 C 0.67499 1.01805 0.78317
 H302 H 0.68737 1.00343 0.76925
 C303 C 0.68824 1.03070 0.80837
 H304 H 0.71090 1.02582 0.81379
 Zn305 Zn 0.62498 1.00461 0.74573
 N306 N 0.64623 1.02333 0.77682
 C307 C 0.60091 0.97048 0.79129
 N308 N 0.60104 0.97450 0.76163
 C309 C 0.58545 0.95634 0.74307
 C310 C 0.56857 0.93323 0.75429
 C311 C 0.58435 0.94772 0.80337
 C312 C 0.61576 1.05858 0.71881
 C313 C 0.60032 1.08056 0.70432
 C314 C 0.55594 1.05131 0.70872
 C315 C 0.57222 1.02981 0.72316
 N316 N 0.60168 1.03361 0.72746
 H317 H 0.61388 0.98465 0.80568
 H318 H 0.58636 0.95970 0.71956
 H319 H 0.55628 0.91878 0.73942
 H320 H 0.58447 0.94464 0.82699
 H321 H 0.63913 1.06114 0.72282
 H322 H 0.61179 1.10018 0.69715
 H323 H 0.53257 1.04803 0.70502
 H324 H 0.56134 1.01009 0.73065
 C325 C 0.67160 1.04891 0.82666
 C326 C 0.67703 0.95568 0.67298
 C327 C 0.57020 1.07677 0.69902
 C328 C 0.56807 0.92892 0.78474
 C329 C 0.02682 0.22997 -0.15419
 H330 H 0.03456 0.25250 -0.15554
 C331 C 0.04176 0.20757 -0.16893
 H332 H 0.06091 0.21285 -0.18187
 C333 C -0.00616 0.19507 -0.13395
 H334 H -0.02406 0.18995 -0.11947
 C335 C 0.00798 0.17216 -0.14838
 H336 H 0.00061 0.14969 -0.14514
 N337 N 0.00357 0.22332 -0.13677
 C338 C -0.04682 0.30186 -0.11603
 H339 H -0.04741 0.29903 -0.09243
 C340 C -0.06132 0.32537 -0.12887
 H341 H -0.07313 0.34072 -0.11513
 C342 C -0.03037 0.28545 -0.16269
 H343 H -0.01822 0.26980 -0.17567
 C344 C -0.04462 0.30884 -0.17650
 H345 H -0.04337 0.31127 -0.20015
 Zn346 Zn -0.01209 0.25280 -0.11182
 N347 N -0.03144 0.28271 -0.13290
 C348 C 0.02510 0.29895 -0.09065
 N349 N 0.01964 0.26947 -0.08979
 C350 C 0.03762 0.25119 -0.07456
 C351 C 0.06196 0.26252 -0.05899
 C352 C 0.04917 0.31116 -0.07540
 C353 C -0.06568 0.22588 -0.09957
 C354 C -0.08693 0.21146 -0.08301
 C355 C -0.05583 0.21809 -0.03983
 C356 C -0.03513 0.23244 -0.05727
 N357 N -0.04015 0.23550 -0.08668
 H358 H 0.01108 0.31306 -0.10344
 H359 H 0.03312 0.22777 -0.07472
 H360 H 0.07620 0.24785 -0.04696
 H361 H 0.05339 0.33463 -0.07628
 H362 H -0.06919 0.22889 -0.12294
 H363 H -0.10691 0.20340 -0.09373
 H364 H -0.05138 0.21529 -0.01653
 H365 H -0.01497 0.24072 -0.04734
 C366 C -0.06007 0.32907 -0.15932
 C367 C 0.03247 0.17834 -0.16557
 C368 C -0.08183 0.20721 -0.05292
 C369 C 0.06775 0.29279 -0.05946
 C370 C 0.46277 0.22367 0.16398
 H371 H 0.45484 0.24600 0.16377
 C372 C 0.44658 0.20165 0.17808
 H373 H 0.42629 0.20706 0.18898
 C374 C 0.49752 0.18867 0.14804
 H375 H 0.51667 0.18328 0.13543
 C376 C 0.48218 0.16616 0.16194
 H377 H 0.48985 0.14375 0.16015
 N378 N 0.48749 0.21675 0.14892
 C379 C 0.54184 0.29353 0.12905
 H380 H 0.54549 0.28803 0.10617
 C381 C 0.55485 0.31874 0.14132
 H382 H 0.56867 0.33261 0.12789
 C383 C 0.51841 0.28272 0.17412
 H384 H 0.50386 0.26877 0.18658
 C385 C 0.53098 0.30798 0.18729
 H386 H 0.52615 0.31347 0.20996
 Zn387 Zn 0.50507 0.24517 0.12415
 N388 N 0.52369 0.27636 0.14532
 C389 C 0.47083 0.29049 0.09987
 N390 N 0.47495 0.26088 0.10008
 C391 C 0.45683 0.24224 0.08455
 C392 C 0.43364 0.25330 0.06768
 C393 C 0.44798 0.30242 0.08332
 C394 C 0.55903 0.21843 0.11510
 C395 C 0.58104 0.20402 0.09973
 C396 C 0.55187 0.20821 0.05518
 C397 C 0.53034 0.22258 0.07141
 N398 N 0.53408 0.22695 0.10092
 H399 H 0.48496 0.30495 0.11279
 H400 H 0.46027 0.21876 0.08553
 H401 H 0.41921 0.23836 0.05548
 H402 H 0.44481 0.32600 0.08341
 H403 H 0.56154 0.22249 0.13851
 H404 H 0.60065 0.19695 0.11128
 H405 H 0.54865 0.20446 0.03177
 H406 H 0.51063 0.22997 0.06045
 C407 C 0.54909 0.32629 0.17054
 C408 C 0.45619 0.17254 0.17658
 C409 C 0.57732 0.19865 0.06956
 C410 C 0.42921 0.28369 0.06714
 C411 C 0.96139 0.72331 0.66451
 H412 H 0.95360 0.74569 0.66454
 C413 C 0.94524 0.70129 0.67866
 H414 H 0.92511 0.70675 0.68983
 C415 C 0.99579 0.68821 0.64800
 H416 H 1.01478 0.68280 0.63518
 C417 C 0.98048 0.66570 0.66193
 H418 H 0.98802 0.64326 0.65995
 N419 N 0.98593 0.71635 0.64918
 C420 C 1.04058 0.79304 0.62987
 H421 H 1.04412 0.78775 0.60692
 C422 C 1.05376 0.81807 0.64233
 H423 H 1.06760 0.83201 0.62898
 C424 C 1.01730 0.78189 0.67492
 H425 H 1.00275 0.76788 0.68732
 C426 C 1.03005 0.80696 0.68830
 H427 H 1.02534 0.81225 0.71104
 Zn428 Zn 1.00364 0.74487 0.62462
 N429 N 1.02242 0.77580 0.64604
 C430 C 0.96967 0.79056 0.60069
 N431 N 0.97366 0.76093 0.60062
 C432 C 0.95557 0.74253 0.58477
 C433 C 0.93257 0.75388 0.56783
 C434 C 0.94702 0.80277 0.58408
 C435 C 1.05747 0.71795 0.61550
 C436 C 1.07951 0.70362 0.60008
 C437 C 1.05056 0.70840 0.55546
 C438 C 1.02901 0.72267 0.57174
 N439 N 1.03263 0.72671 0.60131
 H440 H 0.98377 0.80483 0.61387
 H441 H 0.95889 0.71903 0.58552
 H442 H 0.91818 0.73914 0.55534
 H443 H 0.94396 0.82637 0.58438
 H444 H 1.05990 0.72175 0.63896
 H445 H 1.09904 0.69638 0.61163
 H446 H 1.04744 0.70492 0.53199
 H447 H 1.00938 0.73026 0.56078
 C448 C 1.04817 0.82535 0.67165
 C449 C 0.95470 0.67214 0.67691
 C450 C 1.07591 0.69861 0.56984
 C451 C 0.92830 0.78430 0.56754
 C452 C 0.52740 0.73201 0.34423
 H453 H 0.53517 0.75451 0.34277
 C454 C 0.54220 0.70953 0.32944
 H455 H 0.56127 0.71474 0.31636
 C456 C 0.49450 0.69723 0.36478
 H457 H 0.47669 0.69217 0.37939
 C458 C 0.50850 0.67425 0.35032
 H459 H 0.50110 0.65180 0.35365
 N460 N 0.50426 0.72545 0.36182
 C461 C 0.45399 0.80406 0.38259
 H462 H 0.45350 0.80125 0.40620
 C463 C 0.43941 0.82755 0.36979
 H464 H 0.42766 0.84287 0.38365
 C465 C 0.47026 0.78760 0.33588
 H466 H 0.48236 0.77194 0.32287
 C467 C 0.45594 0.81096 0.32209
 H468 H 0.45711 0.81330 0.29842
 Zn469 Zn 0.48871 0.75502 0.38675
 N470 N 0.46931 0.78490 0.36568
 C471 C 0.52592 0.80121 0.40782
 N472 N 0.52050 0.77172 0.40868
 C473 C 0.53846 0.75348 0.42397
 C474 C 0.56271 0.76487 0.43965
 C475 C 0.54990 0.81347 0.42317
 C476 C 0.43514 0.72817 0.39926
 C477 C 0.41396 0.71384 0.41598
 C478 C 0.44516 0.72065 0.45900
 C479 C 0.46582 0.73491 0.44145
 N480 N 0.46072 0.73783 0.41203
 H481 H 0.51191 0.81530 0.39499
 H482 H 0.53399 0.73006 0.42382
 H483 H 0.57692 0.75023 0.45176
 H484 H 0.55407 0.83695 0.42233
 H485 H 0.43156 0.73106 0.37589
 H486 H 0.39392 0.70568 0.40549
 H487 H 0.44954 0.71788 0.48229
 H488 H 0.48601 0.74322 0.45130
 C489 C 0.44052 0.83122 0.33931
 C490 C 0.53287 0.68033 0.33294
 C491 C 0.41916 0.70976 0.44603
 C492 C 0.56843 0.79515 0.43923
 C493 C 0.35394 -0.00508 0.21284
 C494 C 0.36597 0.00908 0.23786
 C495 C 0.37891 0.03714 0.23523
 C496 C 0.38005 0.05072 0.20771
 C497 C 0.36769 0.03657 0.18290
 C498 C 0.35450 0.00876 0.18548
 C499 C 0.36453 -0.00526 0.26680
 C500 C 0.37680 -0.03316 0.27100
 C501 C 0.37538 -0.04657 0.29861
 C502 C 0.36112 -0.03241 0.32185
 C503 C 0.34860 -0.00479 0.31766
 C504 C 0.35058 0.00889 0.29030
 H505 H 0.34370 -0.02662 0.21479
 H506 H 0.38851 0.04807 0.25442
 H507 H 0.38786 -0.04410 0.25302
 H508 H 0.34093 0.03033 0.28713
 H509 H 0.36849 0.04709 0.16159
 H510 H 0.35996 -0.04278 0.34321
 C511 C 0.12766 1.01469 0.71244
 C512 C 0.11558 1.00060 0.73689
 C513 C 0.10405 0.97190 0.73375
 C514 C 0.10443 0.95759 0.70629
 C515 C 0.11687 0.97170 0.68206
 C516 C 0.12865 1.00014 0.68519
 C517 C 0.11655 1.01535 0.76594
 C518 C 0.10366 1.04299 0.77004
 C519 C 0.10539 1.05713 0.79759
 C520 C 0.12059 1.04395 0.82091
 C521 C 0.13375 1.01657 0.81679
 C522 C 0.13143 1.00218 0.78948
 H523 H 0.13711 1.03660 0.71489
 H524 H 0.09475 0.96086 0.75257
 H525 H 0.09201 1.05323 0.75196
 H526 H 0.14177 0.98104 0.78631
 H527 H 0.11759 0.96048 0.66090
 H528 H 0.12209 1.05492 0.84220
 C529 C 0.62746 0.51626 0.21091
 C530 C 0.61532 0.50214 0.23530
 C531 C 0.60391 0.47340 0.23213
 C532 C 0.60447 0.45907 0.20468
 C533 C 0.61697 0.47321 0.18051
 C534 C 0.62863 0.50170 0.18367
 C535 C 0.61618 0.51688 0.26438
 C536 C 0.60338 0.54458 0.26842
 C537 C 0.60507 0.55871 0.29597
 C538 C 0.62011 0.54547 0.31936
 C539 C 0.63317 0.51803 0.31529
 C540 C 0.63090 0.50366 0.28797
 H541 H 0.63684 0.53819 0.21339
 H542 H 0.59457 0.46233 0.25092
 H543 H 0.59186 0.55488 0.25029
 H544 H 0.64118 0.48247 0.28485
 H545 H 0.61785 0.46198 0.15936
 H546 H 0.62158 0.55644 0.34065
 C547 C 0.85316 0.49433 0.71388
 C548 C 0.86508 0.50860 0.73890
 C549 C 0.87790 0.53671 0.73622
 C550 C 0.87902 0.55025 0.70868
 C551 C 0.86677 0.53599 0.68387
 C552 C 0.85372 0.50812 0.68648
 C553 C 0.86368 0.49430 0.76786
 C554 C 0.87587 0.46636 0.77206
 C555 C 0.87446 0.45298 0.79967
 C556 C 0.86029 0.46719 0.82293
 C557 C 0.84784 0.49485 0.81876
 C558 C 0.84981 0.50850 0.79138
 H559 H 0.84302 0.47275 0.71585
 H560 H 0.88742 0.54773 0.75541
 H561 H 0.88686 0.45538 0.75406
 H562 H 0.84020 0.52997 0.78822
 H563 H 0.86757 0.54646 0.66255
 H564 H 0.85913 0.45684 0.84430
 C565 C 0.21284 0.35173 -0.00477
 C566 C 0.23784 0.36376 0.00939
 C567 C 0.23526 0.37670 0.03746
 C568 C 0.20783 0.37785 0.05106
 C569 C 0.18304 0.36549 0.03692
 C570 C 0.18556 0.35230 0.00909
 C571 C 0.26669 0.36242 -0.00500
 C572 C 0.27074 0.37471 -0.03295
 C573 C 0.29828 0.37348 -0.04636
 C574 C 0.32160 0.35939 -0.03215
 C575 C 0.31757 0.34685 -0.00447
 C576 C 0.29026 0.34864 0.00921
 H577 H 0.21474 0.34152 -0.02633
 H578 H 0.25443 0.38633 0.04839
 H579 H 0.25270 0.38567 -0.04391
 H580 H 0.28722 0.33899 0.03070
 H581 H 0.16180 0.36632 0.04744
 H582 H 0.34292 0.35840 -0.04251
 C583 C 0.71241 0.12716 1.01486
 C584 C 0.73673 0.11501 1.00073
 C585 C 0.73347 0.10354 0.97200
 C586 C 0.70602 0.10405 0.95770
 C587 C 0.68194 0.11656 0.97186
 C588 C 0.68518 0.12828 1.00034
 C589 C 0.76577 0.11586 1.01547
 C590 C 0.76983 0.10308 1.04324
 C591 C 0.79735 0.10475 1.05739
 C592 C 0.82069 0.11975 1.04409
 C593 C 0.81660 0.13279 1.01658
 C594 C 0.78932 0.13054 1.00219
 H595 H 0.71494 0.13656 1.03680
 H596 H 0.75219 0.09419 0.96091
 H597 H 0.75175 0.09159 1.05357
 H598 H 0.78618 0.14080 0.98095
 H599 H 0.66079 0.11738 0.96066
 H600 H 0.84195 0.12121 1.05507
 C601 C 0.21140 0.62803 0.51512
 C602 C 0.23582 0.61603 0.50103
 C603 C 0.23269 0.60458 0.47228
 C604 C 0.20528 0.60495 0.45792
 C605 C 0.18108 0.61731 0.47203
 C606 C 0.18420 0.62901 0.50053
 C607 C 0.26482 0.61696 0.51585
 C608 C 0.26886 0.60414 0.54360
 C609 C 0.29636 0.60581 0.55778
 C610 C 0.31969 0.62087 0.54454
 C611 C 0.31563 0.63395 0.51706
 C612 C 0.28836 0.63170 0.50263
 H613 H 0.21383 0.63741 0.53707
 H614 H 0.25149 0.59533 0.46124
 H615 H 0.25078 0.59259 0.55388
 H616 H 0.28524 0.64198 0.48140
 H617 H 0.15996 0.61802 0.46077
 H618 H 0.34095 0.62232 0.55555
 C619 C 0.71300 0.85411 0.49492
 C620 C 0.73800 0.86600 0.50921
 C621 C 0.73538 0.87879 0.53735
 C622 C 0.70791 0.87992 0.55089
 C623 C 0.68312 0.86771 0.53661
 C624 C 0.68569 0.85468 0.50872
 C625 C 0.76688 0.86458 0.49491
 C626 C 0.77103 0.87677 0.46692
 C627 C 0.79856 0.87534 0.45353
 C628 C 0.82180 0.86115 0.46779
 C629 C 0.81767 0.84870 0.49550
 C630 C 0.79037 0.85069 0.50916
 H631 H 0.71494 0.84399 0.47333
 H632 H 0.75455 0.88829 0.54839
 H633 H 0.75306 0.88778 0.45591
 H634 H 0.78725 0.84108 0.53066
 H635 H 0.66186 0.86852 0.54708
 H636 H 0.84310 0.85998 0.45743
 C637 C -0.00519 0.21312 0.35329
 C638 C 0.00915 0.23802 0.36534
 C639 C 0.03723 0.23522 0.37816
 C640 C 0.05066 0.20768 0.37916
 C641 C 0.03633 0.18299 0.36678
 C642 C 0.00850 0.18573 0.35372
 C643 C -0.00503 0.26699 0.36404
 C644 C -0.03293 0.27118 0.37626
 C645 C -0.04620 0.29880 0.37492
 C646 C -0.03192 0.32208 0.36079
 C647 C -0.00430 0.31791 0.34832
 C648 C 0.00924 0.29052 0.35022
 H649 H -0.02674 0.21520 0.34314
 H650 H 0.04830 0.25432 0.38778
 H651 H -0.04396 0.25317 0.38721
 H652 H 0.03067 0.28737 0.34059
 H653 H 0.04673 0.16167 0.36747
 H654 H -0.04218 0.34345 0.35968
 C655 C 1.01533 0.71172 0.12624
 C656 C 1.00112 0.73612 0.11426
 C657 C 0.97235 0.73293 0.10297
 C658 C 0.95808 0.70546 0.10349
 C659 C 0.97231 0.68128 0.11583
 C660 C 1.00083 0.68446 0.12737
 C661 C 1.01582 0.76520 0.11516
 C662 C 1.04352 0.76932 0.10241
 C663 C 1.05763 0.79687 0.10415
 C664 C 1.04436 0.82017 0.11920
 C665 C 1.01692 0.81603 0.13221
 C666 C 1.00257 0.78872 0.12989
 H667 H 1.03729 0.71420 0.13553
 H668 H 0.96121 0.75172 0.09375
 H669 H 1.05384 0.75127 0.09088
 H670 H 0.98139 0.78553 0.14014
 H671 H 0.96113 0.66012 0.11668
 H672 H 1.05531 0.84146 0.12072
 C673 C 0.51526 0.21176 0.62708
 C674 C 0.50111 0.23610 0.61490
 C675 C 0.47241 0.23284 0.60345
 C676 C 0.45815 0.20537 0.60402
 C677 C 0.47232 0.18125 0.61655
 C678 C 0.50077 0.18450 0.62825
 C679 C 0.51580 0.26518 0.61573
 C680 C 0.54348 0.26928 0.60294
 C681 C 0.55758 0.29684 0.60462
 C682 C 0.54432 0.32016 0.61964
 C683 C 0.51690 0.31603 0.63269
 C684 C 0.50255 0.28871 0.63044
 H685 H 0.53716 0.21430 0.63648
 H686 H 0.46132 0.25158 0.59408
 H687 H 0.55379 0.25120 0.59144
 H688 H 0.48138 0.28554 0.64071
 H689 H 0.46114 0.16009 0.61743
 H690 H 0.55527 0.34145 0.62112
 C691 C 0.49452 0.71310 0.85362
 C692 C 0.50892 0.73803 0.86554
 C693 C 0.53698 0.73523 0.87839
 C694 C 0.55034 0.70766 0.87956
 C695 C 0.53595 0.68294 0.86732
 C696 C 0.50813 0.68567 0.85423
 C697 C 0.49480 0.76703 0.86410
 C698 C 0.46686 0.77130 0.87618
 C699 C 0.45367 0.79896 0.87477
 C700 C 0.46808 0.82220 0.86071
 C701 C 0.49575 0.81795 0.84837
 C702 C 0.50921 0.79052 0.85034
 H703 H 0.47298 0.71516 0.84345
 H704 H 0.54810 0.75435 0.88791
 H705 H 0.45572 0.75333 0.88709
 H706 H 0.53068 0.78732 0.84082
 H707 H 0.54629 0.66159 0.86816
 H708 H 0.45788 0.84360 0.85956
 C709 C 0.42720 -0.14506 0.32710
 C710 C 0.41528 -0.12333 0.31804
 C711 C 0.40128 -0.09716 0.30947
 C712 C 0.38939 -0.07433 0.30373
 C713 C 0.92593 0.35419 0.82781
 C714 C 0.91408 0.37601 0.81889
 C715 C 0.90017 0.40226 0.81044
 C716 C 0.88837 0.42516 0.80477
 C717 C 0.04922 1.15427 0.82286
 C718 C 0.06280 1.13305 0.81495
 C719 C 0.07814 1.10727 0.80749
 C720 C 0.09079 1.08466 0.80240
 C721 C 0.54947 0.65619 0.32128
 C722 C 0.56290 0.63490 0.31332
 C723 C 0.57808 0.60901 0.30583
 C724 C 0.59060 0.58633 0.30074
 C725 C 0.56066 0.35370 0.18217
 C726 C 0.57054 0.37733 0.18983
 C727 C 0.58225 0.40551 0.19669
 C728 C 0.59234 0.42984 0.20103
 C729 C 0.05993 0.85260 0.68348
 C730 C 0.06998 0.87611 0.69129
 C731 C 0.08188 0.90418 0.69825
 C732 C 0.09213 0.92843 0.70264
 C733 C 0.93694 0.64822 0.68766
 C734 C 0.92272 0.62697 0.69482
 C735 C 0.90682 0.60101 0.70127
 C736 C 0.89384 0.57816 0.70534
 C737 C 0.43836 0.14859 0.18716
 C738 C 0.42406 0.12734 0.19416
 C739 C 0.40806 0.10141 0.20046
 C740 C 0.39499 0.07859 0.20443
 C741 C 0.32623 0.42574 -0.14490
 C742 C 0.31731 0.41369 -0.12317
 C743 C 0.30888 0.39956 -0.09699
 C744 C 0.30326 0.38758 -0.07414
 C745 C 0.82643 0.92688 0.35456
 C746 C 0.81757 0.91501 0.37641
 C747 C 0.80920 0.90108 0.40272
 C748 C 0.80359 0.88926 0.42566
 C749 C 0.82263 0.04902 1.15505
 C750 C 0.81467 0.06252 1.13373
 C751 C 0.80720 0.07774 1.10781
 C752 C 0.80212 0.09028 1.08507
 C753 C 0.32148 0.54980 0.65530
 C754 C 0.31358 0.56336 0.63400
 C755 C 0.30616 0.57866 0.60811
 C756 C 0.30111 0.59127 0.58542
 C757 C 0.18285 0.56060 0.35270
 C758 C 0.19052 0.57063 0.37628
 C759 C 0.19736 0.58251 0.40441
 C760 C 0.20167 0.59272 0.42871
 C761 C 0.68272 0.05993 0.85255
 C762 C 0.69065 0.06986 0.87610
 C763 C 0.69776 0.08166 0.90421
 C764 C 0.70226 0.09183 0.92850
 C765 C 0.68754 0.93788 0.64900
 C766 C 0.69450 0.92362 0.62772
 C767 C 0.70073 0.90770 0.60172
 C768 C 0.70466 0.89473 0.57884
 C769 C 0.18738 0.43659 0.14866
 C770 C 0.19438 0.42216 0.12752
 C771 C 0.20065 0.40602 0.10167
 C772 C 0.20460 0.39286 0.07890
 C773 C -0.14480 0.32699 0.42643
 C774 C -0.12304 0.31805 0.41457
 C775 C -0.09684 0.30957 0.40065
 C776 C -0.07397 0.30389 0.38884
 C777 C 0.35498 0.82738 0.92598
 C778 C 0.37675 0.81839 0.91417
 C779 C 0.40297 0.80986 0.90033
 C780 C 0.42586 0.80412 0.88859
 C781 C 1.15515 0.82249 0.04877
 C782 C 1.13384 0.81445 0.06217
 C783 C 1.10795 0.80687 0.07728
 C784 C 1.08526 0.80171 0.08975
 C785 C 0.65509 0.32216 0.54909
 C786 C 0.63378 0.31422 0.56251
 C787 C 0.60788 0.30674 0.57767
 C788 C 0.58519 0.30164 0.59018
 C789 C 0.35303 0.18243 0.55998
 C790 C 0.37658 0.19022 0.56991
 C791 C 0.40469 0.19720 0.58169
 C792 C 0.42897 0.20163 0.59183
 C793 C 0.85263 0.68260 0.06027
 C794 C 0.87626 0.69039 0.07000
 C795 C 0.90446 0.69737 0.08155
 C796 C 0.92881 0.70178 0.09151
 C797 C 0.64811 0.68652 0.93771
 C798 C 0.62691 0.69365 0.92341
 C799 C 0.60101 0.70011 0.90745
 C800 C 0.57820 0.70422 0.89442
 C801 C 0.14855 0.18653 0.43712
 C802 C 0.12732 0.19366 0.42287
 C803 C 0.10138 0.20012 0.40696
 C804 C 0.07855 0.20423 0.39397
 C805 C 0.55420 0.09897 0.68348
 C806 C 0.54133 0.11790 0.67041
 C807 C 0.52681 0.14051 0.65525
 C808 C 0.51477 0.16028 0.64265
 C809 C 1.05422 0.59860 0.18212
 C810 C 1.04140 0.61761 0.16912
 C811 C 1.02691 0.64032 0.15408
 C812 C 1.01488 0.66017 0.14160
 C813 C 0.96309 0.89828 0.19222
 C814 C 0.97657 0.88023 0.17848
 C815 C 0.99145 0.85856 0.16221
 C816 C 1.00343 0.83951 0.14839
 C817 C 0.46302 0.39819 0.69280
 C818 C 0.47653 0.38018 0.67901
 C819 C 0.49143 0.35856 0.66271
 C820 C 0.50342 0.33952 0.64887
 C821 C 0.45415 0.59350 0.80696
 C822 C 0.46676 0.61456 0.81764
 C823 C 0.48129 0.63922 0.83037
 C824 C 0.49356 0.66035 0.84129
 C825 C -0.04549 0.09381 0.30597
 C826 C -0.03284 0.11480 0.31672
 C827 C -0.01829 0.13939 0.32958
 C828 C -0.00602 0.16046 0.34062
 C829 C 0.05109 0.40492 0.29655
 C830 C 0.03782 0.38498 0.30778
 C831 C 0.02280 0.36169 0.32158
 C832 C 0.01031 0.34178 0.33370
 C833 C 0.55156 0.90497 0.79707
 C834 C 0.53823 0.88500 0.80818
 C835 C 0.52310 0.86170 0.82185
 C836 C 0.51051 0.84179 0.83386
 C837 C 0.68373 0.55497 0.09791
 C838 C 0.67069 0.54213 0.11690
 C839 C 0.65557 0.52765 0.13958
 C840 C 0.64300 0.51566 0.15940
 C841 C 0.18333 1.05321 0.59905
 C842 C 0.17039 1.04043 0.61814
 C843 C 0.15539 1.02602 0.64093
 C844 C 0.14291 1.01407 0.66084
 C845 C 0.19407 0.96268 0.89903
 C846 C 0.18028 0.97624 0.88100
 C847 C 0.16394 0.99116 0.85935
 C848 C 0.15004 1.00314 0.84030
 C849 C 0.69316 0.46411 0.39774
 C850 C 0.67942 0.47764 0.37966
 C851 C 0.66316 0.49256 0.35796
 C852 C 0.64934 0.50456 0.33886
 C853 C 0.80653 0.45462 0.59392
 C854 C 0.81716 0.46713 0.61507
 C855 C 0.82986 0.48153 0.63985
 C856 C 0.84077 0.49369 0.66107
 C857 C 0.30680 -0.04455 0.09306
 C858 C 0.31755 -0.03204 0.11415
 C859 C 0.33039 -0.01767 0.13888
 C860 C 0.34142 -0.00557 0.16006
 C861 C 0.29669 0.05028 0.40467
 C862 C 0.30790 0.03706 0.38471
 C863 C 0.32173 0.02212 0.36142
 C864 C 0.33390 0.00971 0.34151
 C865 C 0.79608 0.55007 0.90577
 C866 C 0.80728 0.53682 0.88582
 C867 C 0.82107 0.52184 0.86252
 C868 C 0.83320 0.50939 0.84262
 C869 C 0.09821 0.68331 0.55383
 C870 C 0.11725 0.67045 0.54097
 C871 C 0.13999 0.65555 0.52649
 C872 C 0.15987 0.64316 0.51449
 C873 C 0.59957 0.18321 1.05362
 C874 C 0.61854 0.17021 1.04080
 C875 C 0.64118 0.15514 1.02633
 C876 C 0.66097 0.14260 1.01433
 C877 C 0.89894 0.19266 0.96254
 C878 C 0.88088 0.17894 0.97609
 C879 C 0.85920 0.16271 0.99103
 C880 C 0.84013 0.14892 1.00306
 C881 C 0.39804 0.69381 0.46314
 C882 C 0.37996 0.68010 0.47666
 C883 C 0.35825 0.66388 0.49157
 C884 C 0.33916 0.65009 0.50357
 C885 C 0.59352 0.80746 0.45472
 C886 C 0.61453 0.81812 0.46740
 C887 C 0.63918 0.83084 0.48196
 C888 C 0.66031 0.84175 0.49423
 C889 C 0.09299 0.30504 -0.04418
 C890 C 0.11414 0.31567 -0.03170
 C891 C 0.13893 0.32837 -0.01735
 C892 C 0.16014 0.33931 -0.00526
 C893 C 0.40511 0.29586 0.05073
 C894 C 0.38501 0.30686 0.03751
 C895 C 0.36156 0.32043 0.02255
 C896 C 0.34153 0.33238 0.01010
 C897 C 0.90445 0.79677 0.55100
 C898 C 0.88457 0.80802 0.53768
 C899 C 0.86135 0.82187 0.52261
 C900 C 0.84149 0.83403 0.51010
   
