data_POSCAR
  _audit_creation_date              2014-09-24
  _audit_creation_method            'ToBaCCo'
  _symmetry_space_group_name_H-M    'P1'
  _symmetry_Int_Tables_number       1
  _symmetry_cell_setting            triclinic
  loop_
  _symmetry_equiv_pos_as_xyz
 x,y,z
_cell_length_a 14.7776
_cell_length_b 15.0372
_cell_length_c 15.1341
_cell_angle_alpha 89.020000
_cell_angle_beta 90.210700
_cell_angle_gamma 89.734000
loop_
  _atom_site_label
  _atom_site_type_symbol
  _atom_site_fract_x
  _atom_site_fract_y
  _atom_site_fract_z
C1 C 0.01640 0.47501 0.23326
 C2 C 0.02233 0.50613 0.73660
 C3 C 0.24986 -0.01463 0.49504
 C4 C 0.74672 -0.00089 0.49889
 C5 C 0.47462 0.26349 1.02056
 C6 C 0.47490 0.74278 1.00149
 B7 B 0.97789 1.08585 0.06339
 B8 B 1.04573 0.98877 0.10008
 B9 B 0.92430 0.98710 0.09597
 B10 B 0.88376 1.04987 -0.00355
 B11 B 0.99104 1.10186 -0.05210
 B12 B 1.08521 1.05865 0.00630
 B13 B 0.99574 0.90142 -0.06260
 B14 B 0.93695 1.00095 -0.10084
 B15 B 1.05563 1.00264 -0.09486
 B16 B 1.08985 0.93999 0.00401
 B17 B 0.99203 0.89345 0.05664
 B18 B 0.89072 0.93313 -0.00718
 B19 B 0.61099 0.50909 0.45051
 B20 B 0.60224 0.50799 0.56609
 B21 B 0.55795 0.60644 0.50945
 B22 B 0.50619 0.56426 0.40781
 B23 B 0.50672 0.44808 0.40898
 B24 B 0.56637 0.40731 0.50632
 B25 B 0.40664 0.49847 0.56136
 B26 B 0.40847 0.49844 0.44390
 B27 B 0.44689 0.40285 0.50887
 B28 B 0.50347 0.44593 0.60634
 B29 B 0.49899 0.56399 0.60276
 B30 B 0.44028 0.59801 0.50078
 C31 C 1.00631 1.34270 0.10460
 C32 C 1.00033 1.36965 0.19311
 C33 C 0.95590 1.29755 0.23996
 C34 C 0.92652 1.21245 0.20050
 C35 C 0.95520 1.18349 0.11633
 C36 C 0.93689 1.25865 0.07185
 C37 C 1.01403 1.42988 0.04630
 C38 C 0.89921 1.44278 -0.07769
 C39 C 0.83814 1.34773 -0.08543
 C40 C 0.85709 1.26336 -0.01272
 H41 H 1.07230 1.47010 0.06408
 H42 H 0.83247 1.41680 -0.08678
 H43 H 0.83945 1.31290 -0.15020
 H44 H 0.84773 1.20636 -0.04558
 H45 H 0.93665 1.30953 0.30709
 H46 H 0.88345 1.16768 0.23747
 C47 C 0.92941 0.64495 0.19015
 C48 C 1.00511 0.57944 0.18255
 C49 C 1.07920 0.62555 0.14057
 C50 C 1.07766 0.71776 0.10772
 C51 C 1.00412 0.78131 0.11322
 C52 C 0.93634 0.74011 0.16802
 C53 C 0.83856 0.62025 0.20668
 C54 C 0.77112 0.67861 0.23256
 C55 C 0.78926 0.76643 0.23669
 C56 C 0.86810 0.79406 0.19735
 H57 H 0.81381 0.55962 0.18828
 H58 H 0.70835 0.65693 0.25789
 H59 H 0.73660 0.81256 0.25506
 H60 H 0.85982 0.85088 0.16225
 H61 H 1.14237 0.58969 0.13339
 H62 H 1.14144 0.73935 0.08654
 C63 C 1.04928 1.41978 -0.10658
 C64 C 1.03209 1.41852 -0.19701
 C65 C 1.03800 1.33007 -0.22670
 C66 C 1.04845 1.24978 -0.17112
 C67 C 1.01086 1.23153 -0.08772
 C68 C 0.99282 1.33082 -0.05412
 C69 C 1.03959 1.52584 -0.07512
 C70 C 0.96525 1.57243 -0.00716
 C71 C 0.88227 1.52013 0.05505
 C72 C 0.86931 1.40176 0.05716
 H73 H 1.09522 1.56871 -0.09057
 H74 H 0.91012 1.56333 0.03319
 H75 H 0.86488 1.45498 0.06569
 H76 H 0.81203 1.35518 0.09590
 H77 H 1.03845 1.32435 -0.29727
 H78 H 1.11695 1.23521 -0.15700
 C79 C 0.92579 0.65013 -0.18055
 C80 C 1.00358 0.61234 -0.22511
 C81 C 1.07508 0.67373 -0.21375
 C82 C 1.06870 0.76294 -0.17761
 C83 C 0.99738 0.79773 -0.12619
 C84 C 0.92995 0.73050 -0.12415
 C85 C 0.84716 0.60168 -0.17308
 C86 C 0.78872 0.61426 -0.10439
 C87 C 0.80389 0.67537 -0.04298
 C88 C 0.87418 0.73102 -0.05257
 H89 H 0.82285 0.56341 -0.22305
 H90 H 0.74057 0.56918 -0.08873
 H91 H 0.77238 0.66934 0.01938
 H92 H 0.89133 0.76475 0.00399
 H93 H 1.14084 0.64638 -0.22184
 H94 H 1.12716 0.80069 -0.18100
 C95 C 1.11952 0.99627 0.37109
 C96 C 1.19878 0.96095 0.39552
 C97 C 1.21070 0.89332 0.32579
 C98 C 1.15814 0.89208 0.24039
 C99 C 1.10355 0.96766 0.20762
 C100 C 1.09815 1.02388 0.28097
 C101 C 1.05735 1.00538 0.43389
 C102 C 0.99656 1.06966 0.42147
 C103 C 1.00181 1.12253 0.34655
 C104 C 1.05502 1.10091 0.27523
 H105 H 1.05788 0.96686 0.49302
 H106 H 0.94782 1.07563 0.47198
 H107 H 0.97053 1.18214 0.34707
 H108 H 1.07355 1.14541 0.22236
 H109 H 1.25727 0.83880 0.33460
 H110 H 1.16958 0.83673 0.19793
 C111 C 1.11765 1.04018 -0.36933
 C112 C 1.19606 0.98941 -0.40274
 C113 C 1.23569 0.94728 -0.32469
 C114 C 1.19003 0.93942 -0.23804
 C115 C 1.11654 0.99716 -0.20585
 C116 C 1.11211 1.06180 -0.27522
 C117 C 1.07569 1.10845 -0.41660
 C118 C 1.10122 1.19366 -0.39942
 C119 C 1.15779 1.20561 -0.32908
 C120 C 1.16616 1.13713 -0.26498
 H121 H 1.00328 1.10912 -0.41176
 H122 H 1.06379 1.24987 -0.42519
 H123 H 1.17373 1.27194 -0.31763
 H124 H 1.20791 1.14400 -0.20684
 H125 H 1.29962 0.91275 -0.33128
 H126 H 1.22360 0.89386 -0.19324
 C127 C 0.73703 0.98744 0.31983
 C128 C 0.78950 0.97859 0.39912
 C129 C 0.87423 0.94211 0.37608
 C130 C 0.91302 0.94875 0.28764
 C131 C 0.87139 0.98822 0.20908
 C132 C 0.77603 0.99245 0.23002
 C133 C 0.64311 0.98031 0.32703
 C134 C 0.58793 0.97966 0.25469
 C135 C 0.62369 0.97602 0.17153
 C136 C 0.71574 0.98480 0.16133
 H137 H 0.60896 0.97802 0.38744
 H138 H 0.52144 1.00439 0.26391
 H139 H 0.58121 0.97420 0.11410
 H140 H 0.74038 0.98423 0.09841
 H141 H 0.91381 0.90870 0.42614
 H142 H 0.97260 0.90920 0.28028
 C143 C 0.79308 1.06347 -0.33445
 C144 C 0.81624 1.00973 -0.40787
 C145 C 0.90240 0.96890 -0.38149
 C146 C 0.93386 0.95587 -0.28918
 C147 C 0.89916 1.00353 -0.21453
 C148 C 0.84431 1.06962 -0.25071
 C149 C 0.75561 1.14132 -0.35792
 C150 C 0.81459 1.21154 -0.35802
 C151 C 0.87827 1.21626 -0.29472
 C152 C 0.87521 1.15241 -0.23038
 H153 H 0.68450 1.14881 -0.37244
 H154 H 0.79064 1.27397 -0.37481
 H155 H 0.90140 1.28014 -0.28178
 H156 H 0.89555 1.16723 -0.16819
 H157 H 0.94452 0.93942 -0.42988
 H158 H 0.98890 0.90985 -0.27828
 C159 C 1.36166 1.12058 0.00911
 C160 C 1.37583 1.21196 0.02386
 C161 C 1.29018 1.25624 0.03447
 C162 C 1.20154 1.21217 0.02793
 C163 C 1.18975 1.12255 0.00119
 C164 C 1.27749 1.08997 -0.02645
 C165 C 1.42962 1.05599 0.01846
 C166 C 1.43680 0.99026 -0.04460
 C167 C 1.36753 0.98143 -0.10480
 C168 C 1.28667 1.02424 -0.08678
 H169 H 1.48317 1.06195 0.06379
 H170 H 1.49698 0.95042 -0.04863
 H171 H 1.37177 0.93378 -0.15641
 H172 H 1.22884 0.99561 -0.10336
 H173 H 1.29028 1.32634 0.04866
 H174 H 1.14188 1.24963 0.04329
 C175 C 0.58797 1.13353 -0.04985
 C176 C 0.56793 1.19474 0.01916
 C177 C 0.65053 1.20886 0.06796
 C178 C 0.73216 1.15479 0.06647
 C179 C 0.75985 1.09560 -0.00212
 C180 C 0.67866 1.08887 -0.06148
 C181 C 0.52402 1.13289 -0.12127
 C182 C 0.54375 1.10015 -0.20206
 C183 C 0.62774 1.06619 -0.21409
 C184 C 0.68459 1.04731 -0.14123
 H185 H 0.45885 1.16432 -0.11903
 H186 H 0.49565 1.10528 -0.25615
 H187 H 0.63851 1.04043 -0.27848
 H188 H 0.64779 0.99442 -0.11126
 H189 H 0.65470 1.26748 0.10787
 H190 H 0.78000 1.16792 0.11770
 C191 C 1.35943 0.86382 0.07317
 C192 C 1.38014 0.79857 0.00904
 C193 C 1.29972 0.76778 -0.03237
 C194 C 1.21554 0.81206 -0.02983
 C195 C 1.19709 0.88955 0.01692
 C196 C 1.27398 0.91394 0.07303
 C197 C 1.41914 0.87588 0.14349
 C198 C 1.39268 0.92466 0.21419
 C199 C 1.33062 0.99171 0.20235
 C200 C 1.27274 0.98728 0.13068
 H201 H 1.48089 0.83988 0.15127
 H202 H 1.42415 0.91176 0.27625
 H203 H 1.31970 1.04026 0.25324
 H204 H 1.22241 1.03749 0.12961
 H205 H 1.29831 0.70385 -0.06387
 H206 H 1.15988 0.77429 -0.05077
 C207 C 0.62464 0.82738 -0.08612
 C208 C 0.57416 0.80141 -0.00716
 C209 C 0.63465 0.81226 0.06485
 C210 C 0.72866 0.83554 0.05623
 C211 C 0.77558 0.87925 -0.01368
 C212 C 0.71995 0.86055 -0.08845
 C213 C 0.58596 0.81651 -0.16726
 C214 C 0.61002 0.86753 -0.23852
 C215 C 0.69891 0.89280 -0.24193
 C216 C 0.75624 0.87669 -0.17013
 H217 H 0.59143 0.74814 -0.18492
 H218 H 0.56944 0.86789 -0.29784
 H219 H 0.72373 0.91753 -0.30267
 H220 H 0.82719 0.87252 -0.17711
 H221 H 0.61618 0.78921 0.12985
 H222 H 0.76618 0.78695 0.08589
 C223 C 0.93802 0.49473 0.38671
 C224 C 0.92935 0.47945 0.29595
 C225 C 0.84350 0.44513 0.27847
 C226 C 0.76797 0.44710 0.33407
 C227 C 0.74371 0.50547 0.40457
 C228 C 0.85845 0.54641 0.43586
 C229 C 0.89271 0.54595 0.43825
 C230 C 0.91337 0.66731 0.52021
 C231 C 0.97260 0.72355 0.54995
 C232 C 0.89488 0.65694 0.54356
 H233 H 0.96404 0.47128 0.43051
 H234 H 0.97405 0.74716 0.49638
 H235 H 0.98478 0.74098 0.62072
 H236 H 0.87040 0.64580 0.63895
 H237 H 0.83422 0.40932 0.21970
 H238 H 0.76055 0.37827 0.33910
 C239 C 0.19333 0.40905 0.27400
 C240 C 0.12186 0.47583 0.27944
 C241 C 0.16120 0.55337 0.31570
 C242 C 0.24515 0.55900 0.36370
 C243 C 0.30653 0.48724 0.37840
 C244 C 0.27660 0.41005 0.32830
 C245 C 0.18887 0.34138 0.21177
 C246 C 0.23744 0.26270 0.22162
 C247 C 0.30923 0.25861 0.27789
 C248 C 0.32766 0.33055 0.32950
 H249 H 0.15745 0.35328 0.14999
 H250 H 0.22069 0.20380 0.18634
 H251 H 0.34930 0.19836 0.28415
 H252 H 0.38350 0.32047 0.37133
 H253 H 0.13416 0.61526 0.29464
 H254 H 0.26175 0.62370 0.38798
 C255 C 0.92007 0.51548 0.58603
 C256 C 0.93561 0.48161 0.66965
 C257 C 0.85170 0.44301 0.69811
 C258 C 0.75709 0.45487 0.66785
 C259 C 0.71446 0.51453 0.60542
 C260 C 0.78240 0.56153 0.56228
 C261 C 1.02686 0.56345 0.51009
 C262 C 1.00389 0.64684 0.40191
 C263 C 0.87379 0.69459 0.37827
 C264 C 0.76583 0.66129 0.45707
 H265 H 1.08646 0.52332 0.50410
 H266 H 1.06749 0.68298 0.38172
 H267 H 0.94203 0.68123 0.37448
 H268 H 0.70277 0.67778 0.42565
 H269 H 0.85667 0.41115 0.75958
 H270 H 0.70821 0.42204 0.70564
 C271 C 0.19962 0.45086 0.72911
 C272 C 0.12519 0.50396 0.69685
 C273 C 0.15660 0.56275 0.63364
 C274 C 0.23408 0.54529 0.58200
 C275 C 0.30463 0.48887 0.61073
 C276 C 0.27381 0.42592 0.67582
 C277 C 0.21496 0.43308 0.81755
 C278 C 0.24325 0.34864 0.84030
 C279 C 0.29382 0.30093 0.78048
 C280 C 0.31350 0.34259 0.69940
 H281 H 0.19827 0.47972 0.86750
 H282 H 0.23289 0.32640 0.90553
 H283 H 0.32703 0.23945 0.80044
 H284 H 0.36872 0.31482 0.66840
 H285 H 0.11782 0.62162 0.61998
 H286 H 0.24302 0.58620 0.52517
 C287 C 0.55546 0.63545 0.13304
 C288 C 0.47893 0.68421 0.09930
 C289 C 0.40947 0.68483 0.16672
 C290 C 0.42247 0.65914 0.25922
 C291 C 0.50051 0.61455 0.29585
 C292 C 0.56067 0.59557 0.22252
 C293 C 0.62578 0.61576 0.07521
 C294 C 0.67759 0.53999 0.08864
 C295 C 0.66528 0.48855 0.16192
 C296 C 0.61996 0.52480 0.23121
 H297 H 0.62945 0.64628 0.01078
 H298 H 0.71799 0.51357 0.03723
 H299 H 0.69591 0.42367 0.16756
 H300 H 0.62360 0.49043 0.28936
 H301 H 0.34276 0.70970 0.15043
 H302 H 0.36579 0.67013 0.30106
 C303 C 0.49762 0.60893 0.88370
 C304 C 0.46105 0.69099 0.90435
 C305 C 0.42801 0.73299 0.82332
 C306 C 0.45158 0.70386 0.73457
 C307 C 0.49091 0.61956 0.71273
 C308 C 0.52931 0.58731 0.79524
 C309 C 0.50906 0.54659 0.95006
 C310 C 0.57725 0.48495 0.94202
 C311 C 0.62850 0.48350 0.86559
 C312 C 0.60465 0.53566 0.79473
 H313 H 0.46845 0.54728 1.00876
 H314 H 0.58896 0.43849 0.99572
 H315 H 0.68992 0.44543 0.86113
 H316 H 0.64534 0.53888 0.74091
 H317 H 0.39849 0.79785 0.82671
 H318 H 0.44132 0.75210 0.68297
 C319 C 0.50746 0.27510 0.19805
 C320 C 0.47531 0.31511 0.11656
 C321 C 0.43740 0.40064 0.13406
 C322 C 0.43941 0.44044 0.22156
 C323 C 0.49153 0.40566 0.29707
 C324 C 0.53403 0.32833 0.27089
 C325 C 0.53352 0.18649 0.20829
 C326 C 0.61902 0.17150 0.24648
 C327 C 0.66493 0.23790 0.28598
 C328 C 0.61558 0.31096 0.30678
 H329 H 0.50119 0.13591 0.17218
 H330 H 0.66083 0.12004 0.22822
 H331 H 0.73544 0.23098 0.30274
 H332 H 0.63643 0.35542 0.35282
 H333 H 0.40029 0.43487 0.08228
 H334 H 0.39776 0.49819 0.22843
 C335 C 0.54601 0.31410 0.85917
 C336 C 0.47740 0.32521 0.92329
 C337 C 0.42004 0.39374 0.88653
 C338 C 0.43086 0.43467 0.79581
 C339 C 0.48970 0.40240 0.72366
 C340 C 0.54004 0.33192 0.76281
 C341 C 0.63190 0.29898 0.89078
 C342 C 0.68769 0.25253 0.84056
 C343 C 0.68091 0.26420 0.75468
 C344 C 0.60539 0.29408 0.71257
 H345 H 0.65426 0.31847 0.95479
 H346 H 0.74413 0.21848 0.86598
 H347 H 0.74025 0.29821 0.74190
 H348 H 0.61318 0.31196 0.64632
 H349 H 0.36992 0.42197 0.92973
 H350 H 0.38765 0.49114 0.78164
 C351 C 0.72324 0.82338 0.54982
 C352 C 0.68521 0.90661 0.51925
 C353 C 0.58923 0.89574 0.52363
 C354 C 0.54709 0.80798 0.53248
 C355 C 0.59280 0.72249 0.52752
 C356 C 0.66973 0.74605 0.57400
 C357 C 0.80725 0.82101 0.58331
 C358 C 0.82212 0.78604 0.66813
 C359 C 0.75666 0.73109 0.70445
 C360 C 0.68631 0.70491 0.65381
 H361 H 0.85795 0.84286 0.53982
 H362 H 0.88361 0.79584 0.70432
 H363 H 0.75401 0.71699 0.77280
 H364 H 0.63971 0.66170 0.68088
 H365 H 0.54600 0.95261 0.53017
 H366 H 0.48186 0.81043 0.56187
 C367 C 0.74315 0.18340 0.46639
 C368 C 0.69397 0.10070 0.47880
 C369 C 0.59996 0.12478 0.47415
 C370 C 0.56776 0.21650 0.46625
 C371 C 0.61529 0.29487 0.49395
 C372 C 0.70850 0.27297 0.48544
 C373 C 0.83052 0.17949 0.44074
 C374 C 0.89278 0.24385 0.46629
 C375 C 0.86326 0.32452 0.49081
 C376 C 0.77153 0.33984 0.49350
 H377 H 0.84489 0.12806 0.39649
 H378 H 0.96426 0.23330 0.46965
 H379 H 0.91136 0.36960 0.51704
 H380 H 0.75045 0.39852 0.51739
 H381 H 0.54869 0.07572 0.46596
 H382 H 0.50592 0.22510 0.42939
 C383 C 0.26043 0.81119 0.52098
 C384 C 0.30481 0.89106 0.49493
 C385 C 0.38048 0.86793 0.44177
 C386 C 0.40736 0.77443 0.42722
 C387 C 0.38229 0.70222 0.48822
 C388 C 0.31274 0.73448 0.54424
 C389 C 0.17154 0.81011 0.54991
 C390 C 0.15978 0.78371 0.63663
 C391 C 0.23254 0.74237 0.68067
 C392 C 0.29784 0.70371 0.62937
 H393 H 0.11949 0.84708 0.51705
 H394 H 0.10168 0.80915 0.66976
 H395 H 0.23942 0.73651 0.75118
 H396 H 0.33247 0.64771 0.65596
 H397 H 0.41814 0.92173 0.41225
 H398 H 0.46402 0.76486 0.38370
 C399 C 0.26234 0.17274 0.47133
 C400 C 0.30423 0.08736 0.49645
 C401 C 0.38022 0.10690 0.55311
 C402 C 0.42226 0.19477 0.56854
 C403 C 0.38794 0.28294 0.52413
 C404 C 0.29121 0.26223 0.49894
 C405 C 0.19342 0.17511 0.40981
 C406 C 0.13651 0.24915 0.39924
 C407 C 0.14650 0.32209 0.45080
 C408 C 0.22696 0.33063 0.49507
 H409 H 0.20120 0.13141 0.35620
 H410 H 0.09394 0.25776 0.34276
 H411 H 0.10182 0.37865 0.44214
 H412 H 0.24329 0.39532 0.50979
 H413 H 0.40830 0.05149 0.59074
 H414 H 0.42617 0.25667 0.54568
   
