data_POSCAR
  _audit_creation_date              2014-09-24
  _audit_creation_method            'ToBaCCo'
  _symmetry_space_group_name_H-M    'P1'
  _symmetry_Int_Tables_number       1
  _symmetry_cell_setting            triclinic
  loop_
  _symmetry_equiv_pos_as_xyz
 x,y,z
_cell_length_a 40.3058
_cell_length_b 44.1052
_cell_length_c 41.8625
_cell_angle_alpha 85.247800
_cell_angle_beta 86.256700
_cell_angle_gamma 92.488000
loop_
  _atom_site_label
  _atom_site_type_symbol
  _atom_site_fract_x
  _atom_site_fract_y
  _atom_site_fract_z
C1 C 0.27602 0.30150 0.22910
 C2 C 0.27455 0.28515 0.25917
 C3 C 0.24906 0.28900 0.28182
 C4 C 0.22481 0.30994 0.27463
 C5 C 0.22602 0.32603 0.24468
 C6 C 0.25162 0.32139 0.22137
 C7 C 0.29603 0.29901 0.20191
 N8 N 0.28426 0.31642 0.17743
 C9 C 0.25692 0.33017 0.18885
 C10 C 0.19893 0.34399 0.24444
 N11 N 0.18134 0.33935 0.27350
 C12 C 0.19694 0.31816 0.29184
 C13 C 0.25215 0.26754 0.30726
 N14 N 0.27879 0.25071 0.30020
 C15 C 0.29255 0.26158 0.27079
 H16 H 0.31609 0.28363 0.19940
 H17 H 0.24103 0.34388 0.17427
 H18 H 0.19316 0.35980 0.22467
 H19 H 0.18873 0.30905 0.31597
 H20 H 0.23542 0.26375 0.32864
 H21 H 0.31284 0.25178 0.25763
 C22 C 0.67458 -0.23376 0.26915
 C23 C 0.70019 -0.22152 0.28636
 C24 C 0.72669 -0.23920 0.29400
 C25 C 0.72809 -0.26898 0.28494
 C26 C 0.70282 -0.28101 0.26868
 C27 C 0.67560 -0.26372 0.26160
 C28 C 0.64623 -0.22226 0.25661
 N29 N 0.62968 -0.24519 0.24340
 C30 C 0.64752 -0.27050 0.24653
 C31 C 0.71197 -0.30905 0.26024
 N32 N 0.74244 -0.31459 0.27111
 C33 C 0.75208 -0.29020 0.28692
 C34 C 0.74791 -0.22212 0.31031
 N35 N 0.73493 -0.19461 0.31353
 C36 C 0.70569 -0.19388 0.29903
 H37 H 0.63777 -0.19940 0.25789
 H38 H 0.64104 -0.29211 0.23740
 H39 H 0.69742 -0.32397 0.24670
 H40 H 0.77588 -0.28684 0.29698
 H41 H 0.77082 -0.22945 0.31994
 H42 H 0.68972 -0.17477 0.29787
 C43 C 0.74429 0.19932 0.76472
 C44 C 0.76329 0.19273 0.73711
 C45 C 0.79021 0.21185 0.72533
 C46 C 0.79854 0.23778 0.74096
 C47 C 0.78007 0.24396 0.76838
 C48 C 0.75248 0.22480 0.78011
 C49 C 0.71755 0.18428 0.78219
 N50 N 0.70877 0.20015 0.80783
 C51 C 0.73040 0.22500 0.80654
 C52 C 0.79548 0.26878 0.78003
 N53 N 0.82294 0.27812 0.76028
 C54 C 0.82462 0.25924 0.73609
 C55 C 0.80563 0.19863 0.70012
 N56 N 0.78885 0.17189 0.69634
 C57 C 0.76272 0.16824 0.71875
 H58 H 0.70515 0.16364 0.77580
 H59 H 0.73105 0.24180 0.82391
 H60 H 0.78695 0.27911 0.80143
 H61 H 0.84443 0.25965 0.71730
 H62 H 0.82805 0.20745 0.68619
 H63 H 0.74572 0.14840 0.72263
 C64 C 0.26678 -0.22055 0.76672
 C65 C 0.25832 -0.20059 0.74106
 C66 C 0.23511 -0.20976 0.72035
 C67 C 0.21972 -0.23919 0.72543
 C68 C 0.22806 -0.25866 0.75083
 C69 C 0.25205 -0.24947 0.77125
 C70 C 0.29144 -0.21903 0.78789
 N71 N 0.29261 -0.24669 0.80481
 C72 C 0.26819 -0.26528 0.79472
 C73 C 0.21142 -0.28615 0.74890
 N74 N 0.19272 -0.28435 0.72285
 C75 C 0.19808 -0.25548 0.70825
 C76 C 0.23562 -0.18728 0.69529
 N77 N 0.25879 -0.16510 0.70025
 C78 C 0.27243 -0.17302 0.72836
 H79 H 0.30887 -0.19981 0.78884
 H80 H 0.26262 -0.28889 0.80317
 H81 H 0.21422 -0.30619 0.76497
 H82 H 0.18721 -0.24646 0.68674
 H83 H 0.22213 -0.18821 0.67384
 H84 H 0.29257 -0.16046 0.73807
 C85 C 0.73809 -0.27259 0.79460
 C86 C 0.75404 -0.26032 0.76497
 C87 C 0.77877 -0.27634 0.75009
 C88 C 0.78796 -0.30442 0.76420
 C89 C 0.77245 -0.31609 0.79304
 C90 C 0.74749 -0.30024 0.80815
 C91 C 0.71478 -0.26213 0.81647
 N92 N 0.71026 -0.28278 0.84289
 C93 C 0.73037 -0.30610 0.83737
 C94 C 0.78820 -0.34185 0.80288
 N95 N 0.81336 -0.34647 0.78070
 C96 C 0.81302 -0.32354 0.75669
 C97 C 0.79239 -0.25824 0.72393
 N98 N 0.77693 -0.23149 0.72219
 C99 C 0.75317 -0.23254 0.74700
 H100 H 0.70316 -0.24052 0.81359
 H101 H 0.73254 -0.32656 0.85299
 H102 H 0.78148 -0.35589 0.82494
 H103 H 0.83080 -0.31970 0.73611
 H104 H 0.81321 -0.26362 0.70806
 H105 H 0.73797 -0.21382 0.75271
 C106 C 0.35774 0.28133 0.68447
 C107 C 0.35300 0.27431 0.65320
 C108 C 0.32753 0.28667 0.63691
 C109 C 0.30736 0.30746 0.65153
 C110 C 0.31237 0.31502 0.68247
 C111 C 0.33782 0.30141 0.69946
 C112 C 0.37617 0.26734 0.70694
 N113 N 0.36817 0.27774 0.73595
 C114 C 0.34536 0.29947 0.73150
 C115 C 0.28747 0.33416 0.69067
 N116 N 0.26792 0.33853 0.66544
 C117 C 0.27986 0.32184 0.64173
 C118 C 0.32530 0.27154 0.60943
 N119 N 0.34916 0.25067 0.60889
 C120 C 0.36620 0.25237 0.63555
 H121 H 0.39327 0.24968 0.70243
 H122 H 0.33246 0.31042 0.75058
 H123 H 0.28406 0.34421 0.71330
 H124 H 0.26898 0.31956 0.61905
 H125 H 0.30655 0.27424 0.59217
 H126 H 0.38503 0.23696 0.64289
 C127 C 0.22411 -0.21909 0.25093
 C128 C 0.21662 -0.20630 0.28015
 C129 C 0.19208 -0.22031 0.30193
 C130 C 0.17498 -0.24712 0.29515
 C131 C 0.18223 -0.25931 0.26654
 C132 C 0.20664 -0.24519 0.24434
 C133 C 0.24608 -0.21090 0.22452
 N134 N 0.24189 -0.23129 0.20205
 C135 C 0.21760 -0.25221 0.21440
 C136 C 0.16146 -0.28465 0.26572
 N137 N 0.14136 -0.28853 0.29340
 C138 C 0.14971 -0.26532 0.31151
 C139 C 0.18822 -0.20228 0.32690
 N140 N 0.20954 -0.17748 0.32101
 C141 C 0.22732 -0.17982 0.29264
 H142 H 0.26319 -0.19112 0.22184
 H143 H 0.20899 -0.27209 0.20326
 H144 H 0.16187 -0.29924 0.24623
 H145 H 0.13800 -0.26112 0.33458
 H146 H 0.17041 -0.20645 0.34747
 H147 H 0.24534 -0.16275 0.28115
 C148 C 0.68434 0.20930 0.25673
 C149 C 0.70411 0.20024 0.28202
 C150 C 0.72857 0.22034 0.29073
 C151 C 0.73374 0.24935 0.27455
 C152 C 0.71491 0.25798 0.24939
 C153 C 0.68983 0.23791 0.24060
 C154 C 0.65989 0.19442 0.24159
 N155 N 0.65027 0.21325 0.21667
 C156 C 0.66885 0.23987 0.21605
 C157 C 0.72780 0.28599 0.23613
 N158 N 0.75397 0.29477 0.25292
 C159 C 0.75746 0.27224 0.27660
 C160 C 0.74660 0.20494 0.31286
 N161 N 0.73400 0.17581 0.31792
 C162 C 0.70773 0.17266 0.29946
 H163 H 0.65030 0.17138 0.24839
 H164 H 0.66810 0.25929 0.19867
 H165 H 0.71852 0.29878 0.21571
 H166 H 0.77708 0.27135 0.29304
 H167 H 0.76858 0.21379 0.32321
 H168 H 0.69401 0.15141 0.29708
 O169 O 0.26698 0.06087 0.45048
 O170 O 0.26644 0.00522 0.52183
 O171 O 0.28363 0.06294 0.50808
 O172 O 0.24688 0.00350 0.46345
 O173 O 0.29673 -0.01060 0.44773
 O174 O 0.33395 0.05070 0.49127
 O175 O 0.31716 -0.00663 0.50588
 O176 O 0.31660 0.04641 0.43432
 Cu177 Cu 0.26076 0.03405 0.48756
 Cu178 Cu 0.32101 0.01820 0.46827
 C179 C 0.29266 0.06384 0.43090
 C180 C 0.29233 -0.00963 0.52627
 C181 C 0.31498 0.06787 0.50629
 C182 C 0.26519 -0.01364 0.44787
 O183 O 0.77603 0.00345 0.54772
 O184 O 0.76723 -0.05331 0.48735
 O185 O 0.77338 -0.05680 0.55045
 O186 O 0.76714 0.00566 0.48633
 O187 O 0.82171 0.00706 0.47708
 O188 O 0.82785 -0.05449 0.54057
 O189 O 0.82186 -0.05123 0.47881
 O190 O 0.83045 0.00444 0.53762
 Cu191 Cu 0.76541 -0.02568 0.51920
 Cu192 Cu 0.83081 -0.02356 0.50773
 C193 C 0.80508 0.01398 0.55243
 C194 C 0.79340 -0.06120 0.47210
 C195 C 0.80188 -0.06613 0.55660
 C196 C 0.79352 0.01688 0.47064
 O197 O 0.42922 0.21589 0.01658
 O198 O 0.50325 0.18760 -0.02591
 O199 O 0.48581 0.19396 0.03432
 O200 O 0.44686 0.20537 -0.04150
 O201 O 0.46733 0.25289 -0.04905
 O202 O 0.50973 0.24014 0.02699
 O203 O 0.52486 0.23467 -0.03375
 O204 O 0.45286 0.26231 0.01134
 Cu205 Cu 0.46404 0.19606 -0.00289
 Cu206 Cu 0.49080 0.25228 -0.01153
 C207 C 0.42842 0.24405 0.02090
 C208 C 0.52620 0.20660 -0.03811
 C209 C 0.50515 0.21449 0.04340
 C210 C 0.45083 0.23047 -0.05863
 O211 O 0.48430 0.72696 0.06380
 O212 O 0.45163 0.71904 -0.01396
 O213 O 0.51091 0.71929 0.00682
 O214 O 0.42665 0.72926 0.04161
 O215 O 0.43498 0.77930 0.03391
 O216 O 0.51684 0.76852 -0.00799
 O217 O 0.45447 0.76894 -0.02455
 O218 O 0.49487 0.77629 0.05235
 Cu219 Cu 0.46807 0.71869 0.02563
 Cu220 Cu 0.47650 0.77831 0.01200
 C221 C 0.49455 0.75257 0.07194
 C222 C 0.44586 0.74242 -0.03201
 C223 C 0.52797 0.74198 -0.00725
 C224 C 0.41669 0.75592 0.04428
 O225 O -0.00808 0.47785 0.25898
 O226 O -0.07346 0.53175 0.24351
 O227 O -0.01332 0.53641 0.26294
 O228 O -0.06832 0.47455 0.23967
 O229 O -0.08807 0.46556 0.29018
 O230 O -0.03309 0.52764 0.31341
 O231 O -0.09277 0.52379 0.29431
 O232 O -0.02783 0.46942 0.30949
 Cu233 Cu -0.03849 0.50603 0.24626
 Cu234 Cu -0.06238 0.49561 0.30693
 C235 C -0.00678 0.46438 0.28686
 C236 C -0.09441 0.53669 0.26624
 C237 C -0.01397 0.54284 0.29201
 C238 C -0.08806 0.45987 0.26091
 O239 O 0.04434 0.52162 0.69036
 O240 O -0.00823 0.45116 0.71180
 O241 O -0.01465 0.50910 0.71696
 O242 O 0.05268 0.46371 0.68536
 O243 O 0.07273 0.45875 0.73316
 O244 O 0.00550 0.50431 0.76485
 O245 O 0.01177 0.44736 0.75972
 O246 O 0.06459 0.51696 0.73812
 Cu247 Cu 0.01669 0.48652 0.69621
 Cu248 Cu 0.04100 0.48114 0.75359
 C249 C 0.06286 0.53171 0.71092
 C250 C -0.00812 0.43798 0.73997
 C251 C -0.01598 0.51451 0.74636
 C252 C 0.07446 0.45379 0.70366
 C253 C 0.34240 0.30721 0.10775
 C254 C 0.32213 0.29054 0.08975
 C255 C 0.28792 0.28634 0.09695
 C256 C 0.27443 0.29856 0.12465
 C257 C 0.29533 0.31395 0.14463
 C258 C 0.32951 0.31930 0.13533
 O259 O 0.37446 0.30642 0.09873
 C260 C 0.37461 0.28853 0.07482
 C261 C 0.34330 0.27787 0.06852
 C262 C 0.33821 0.25583 0.04713
 C263 C 0.36650 0.24457 0.03152
 C264 C 0.39887 0.25583 0.03722
 C265 C 0.40288 0.27835 0.05892
 H266 H 0.27251 0.27270 0.08283
 H267 H 0.24840 0.29368 0.13217
 H268 H 0.34607 0.32988 0.15097
 H269 H 0.31346 0.24697 0.04330
 H270 H 0.36325 0.22723 0.01497
 H271 H 0.42739 0.28669 0.06434
 C272 C 0.56951 0.77375 0.18399
 C273 C 0.54682 0.74960 0.19152
 C274 C 0.54913 0.72822 0.21741
 C275 C 0.57657 0.73119 0.23579
 C276 C 0.60046 0.75586 0.22895
 C277 C 0.59603 0.77830 0.20345
 O278 O 0.56583 0.78807 0.15522
 C279 C 0.54033 0.77255 0.14451
 C280 C 0.52771 0.74908 0.16620
 C281 C 0.50341 0.72788 0.15928
 C282 C 0.49190 0.73050 0.12852
 C283 C 0.50504 0.75375 0.10503
 C284 C 0.52906 0.77568 0.11340
 H285 H 0.53170 0.70873 0.22195
 H286 H 0.57982 0.71379 0.25500
 H287 H 0.61481 0.79639 0.19665
 H288 H 0.49440 0.70930 0.17662
 H289 H 0.47332 0.71371 0.12272
 H290 H 0.54007 0.79322 0.09578
 C291 C 0.64423 0.20667 -0.12675
 C292 C 0.62888 0.17811 -0.12471
 C293 C 0.63914 0.15580 -0.14417
 C294 C 0.66623 0.16325 -0.16671
 C295 C 0.68282 0.19275 -0.16952
 C296 C 0.67135 0.21453 -0.14865
 O297 O 0.62973 0.22512 -0.10726
 C298 C 0.60466 0.20780 -0.09254
 C299 C 0.60304 0.17877 -0.10222
 C300 C 0.57792 0.15726 -0.09061
 C301 C 0.55329 0.16622 -0.06846
 C302 C 0.55407 0.19630 -0.05863
 C303 C 0.58051 0.21717 -0.07066
 H304 H 0.62655 0.13348 -0.14229
 H305 H 0.67428 0.14562 -0.18144
 H306 H 0.68199 0.23754 -0.15002
 H307 H 0.57695 0.13462 -0.09879
 H308 H 0.53312 0.15001 -0.05977
 H309 H 0.58176 0.24038 -0.06401
 C310 C 0.35761 0.75790 -0.13730
 C311 C 0.36324 0.72754 -0.13153
 C312 C 0.34595 0.70482 -0.14550
 C313 C 0.32187 0.71368 -0.16657
 C314 C 0.31571 0.74502 -0.17387
 C315 C 0.33430 0.76738 -0.15883
 O316 O 0.37520 0.77557 -0.11967
 C317 C 0.39241 0.75581 -0.10254
 C318 C 0.38613 0.72619 -0.10925
 C319 C 0.40040 0.70162 -0.09359
 C320 C 0.42145 0.70766 -0.06939
 C321 C 0.42761 0.73788 -0.06095
 C322 C 0.41331 0.76242 -0.07831
 H323 H 0.35057 0.68101 -0.14013
 H324 H 0.30896 0.69586 -0.17777
 H325 H 0.32997 0.79139 -0.16261
 H326 H 0.39493 0.67851 -0.09929
 H327 H 0.43208 0.68852 -0.05652
 H328 H 0.41699 0.78562 -0.07217
 C329 C 0.10614 0.38660 0.27144
 C330 C 0.09708 0.38624 0.30369
 C331 C 0.11435 0.37082 0.32710
 C332 C 0.14217 0.35520 0.31687
 C333 C 0.15212 0.35496 0.28361
 C334 C 0.13343 0.37092 0.26068
 O335 O 0.08702 0.40340 0.25316
 C336 C 0.06542 0.41386 0.27437
 C337 C 0.07039 0.40394 0.30562
 C338 C 0.05076 0.41238 0.33165
 C339 C 0.02503 0.43197 0.32521
 C340 C 0.01965 0.44289 0.29316
 C341 C 0.04018 0.43350 0.26741
 H342 H 0.10699 0.37119 0.35240
 H343 H 0.15618 0.34390 0.33509
 H344 H 0.13978 0.37132 0.23516
 H345 H 0.05518 0.40430 0.35606
 H346 H 0.00966 0.43895 0.34522
 H347 H 0.03678 0.44136 0.24270
 C348 C 0.14570 0.64182 0.72317
 C349 C 0.13279 0.64484 0.69362
 C350 C 0.13863 0.67100 0.67276
 C351 C 0.15869 0.69491 0.68272
 C352 C 0.17279 0.69241 0.71321
 C353 C 0.16568 0.66506 0.73354
 O354 O 0.13685 0.61547 0.73979
 C355 C 0.11796 0.60144 0.72025
 C356 C 0.11466 0.61832 0.69161
 C357 C 0.09560 0.60783 0.66787
 C358 C 0.07914 0.57894 0.67405
 C359 C 0.08192 0.56125 0.70364
 C360 C 0.10189 0.57279 0.72690
 H361 H 0.12813 0.67296 0.64958
 H362 H 0.16344 0.71492 0.66612
 H363 H 0.17456 0.66166 0.75727
 H364 H 0.09325 0.62149 0.64550
 H365 H 0.06392 0.57059 0.65597
 H366 H 0.10448 0.56010 0.74980
 C367 C -0.19246 0.62950 0.27610
 C368 C -0.19828 0.61409 0.24966
 C369 C -0.22420 0.62047 0.23030
 C370 C -0.24479 0.64392 0.23830
 C371 C -0.23874 0.66119 0.26489
 C372 C -0.21202 0.65341 0.28406
 O373 O -0.16706 0.61935 0.29183
 C374 C -0.15642 0.59724 0.27471
 C375 C -0.17443 0.59334 0.24841
 C376 C -0.16684 0.57209 0.22661
 C377 C -0.13969 0.55399 0.23230
 C378 C -0.12146 0.55702 0.25978
 C379 C -0.12995 0.57892 0.28130
 H380 H -0.22835 0.60791 0.20965
 H381 H -0.26437 0.64936 0.22266
 H382 H -0.20682 0.66513 0.30501
 H383 H -0.18120 0.56963 0.20593
 H384 H -0.13333 0.53714 0.21580
 H385 H -0.11615 0.58178 0.30229
 C386 C -0.10919 0.33760 0.74476
 C387 C -0.10693 0.34665 0.77516
 C388 C -0.12770 0.33447 0.80124
 C389 C -0.15173 0.31183 0.79588
 C390 C -0.15428 0.30114 0.76486
 C391 C -0.13234 0.31454 0.73896
 O392 O -0.08794 0.35308 0.72306
 C393 C -0.07175 0.37213 0.74030
 C394 C -0.08223 0.36882 0.77238
 C395 C -0.06857 0.38615 0.79492
 C396 C -0.04326 0.40805 0.78394
 C397 C -0.03256 0.41266 0.75082
 C398 C -0.04701 0.39430 0.72868
 H399 H -0.12555 0.34219 0.82493
 H400 H -0.16733 0.30200 0.81643
 H401 H -0.13373 0.30801 0.71473
 H402 H -0.07723 0.38306 0.82005
 H403 H -0.03274 0.42209 0.80114
 H404 H -0.03942 0.39731 0.70328
 C405 C 0.27572 0.17810 0.35376
 C406 C 0.30730 0.16873 0.34704
 C407 C 0.33113 0.18610 0.32723
 C408 C 0.32177 0.21398 0.31299
 C409 C 0.28885 0.22377 0.31823
 C410 C 0.26570 0.20566 0.33953
 O411 O 0.25728 0.15840 0.37402
 C412 C 0.27770 0.13608 0.38000
 C413 C 0.30846 0.14125 0.36378
 C414 C 0.33370 0.12096 0.36627
 C415 C 0.32734 0.09457 0.38709
 C416 C 0.29629 0.08912 0.40527
 C417 C 0.27088 0.11003 0.40114
 H418 H 0.35604 0.17844 0.32286
 H419 H 0.34021 0.22777 0.29762
 H420 H 0.24038 0.21218 0.34408
 H421 H 0.35763 0.12554 0.35307
 H422 H 0.34718 0.07898 0.38990
 H423 H 0.24705 0.10673 0.41477
 C424 C 0.78646 0.10880 0.64169
 C425 C 0.81994 0.10658 0.63431
 C426 C 0.84418 0.12513 0.64610
 C427 C 0.83351 0.14695 0.66647
 C428 C 0.79912 0.14978 0.67473
 C429 C 0.77526 0.13030 0.66210
 O430 O 0.76766 0.08909 0.62751
 C431 C 0.78985 0.07410 0.61087
 C432 C 0.82214 0.08398 0.61438
 C433 C 0.84942 0.07177 0.59916
 C434 C 0.84326 0.04849 0.57926
 C435 C 0.81020 0.03782 0.57481
 C436 C 0.78306 0.05083 0.59106
 H437 H 0.87039 0.12286 0.63990
 H438 H 0.85213 0.16120 0.67630
 H439 H 0.74887 0.13204 0.66775
 H440 H 0.87457 0.08000 0.60235
 H441 H 0.86444 0.03900 0.56710
 H442 H 0.75758 0.04340 0.58811
 C443 C 0.26248 -0.10181 0.63440
 C444 C 0.29593 -0.09376 0.63253
 C445 C 0.31812 -0.10781 0.65225
 C446 C 0.30535 -0.13121 0.67492
 C447 C 0.27094 -0.14026 0.67742
 C448 C 0.24921 -0.12526 0.65673
 O449 O 0.24598 -0.08587 0.61280
 C450 C 0.26963 -0.06751 0.59691
 C451 C 0.30062 -0.07159 0.60806
 C452 C 0.32927 -0.05586 0.59420
 C453 C 0.32595 -0.03522 0.56749
 C454 C 0.29432 -0.03046 0.55540
 C455 C 0.26564 -0.04657 0.57063
 H456 H 0.34441 -0.10123 0.65002
 H457 H 0.32251 -0.14280 0.68996
 H458 H 0.22291 -0.13170 0.65799
 H459 H 0.35340 -0.05972 0.60330
 H460 H 0.34807 -0.02296 0.55614
 H461 H 0.24129 -0.04369 0.56162
 C462 C 0.74788 -0.13729 0.37307
 C463 C 0.78198 -0.13315 0.36937
 C464 C 0.80138 -0.14661 0.34638
 C465 C 0.78509 -0.16585 0.32685
 C466 C 0.75005 -0.17126 0.33054
 C467 C 0.73104 -0.15621 0.35355
 O468 O 0.73452 -0.12320 0.39735
 C469 C 0.76082 -0.11002 0.40922
 C470 C 0.79036 -0.11558 0.39290
 C471 C 0.82110 -0.10513 0.40169
 C472 C 0.82155 -0.08784 0.42820
 C473 C 0.79153 -0.08120 0.44544
 C474 C 0.76063 -0.09263 0.43577
 H475 H 0.82820 -0.14305 0.34411
 H476 H 0.79978 -0.17726 0.30932
 H477 H 0.70437 -0.16051 0.35729
 H478 H 0.84399 -0.11016 0.38863
 H479 H 0.84547 -0.07941 0.43504
 H480 H 0.73729 -0.08807 0.44836
 C481 C 0.64234 0.73920 -0.10074
 C482 C 0.64610 0.71847 -0.07507
 C483 C 0.67112 0.69799 -0.07464
 C484 C 0.69305 0.69843 -0.10195
 C485 C 0.68972 0.71891 -0.12976
 C486 C 0.66408 0.74019 -0.12846
 O487 O 0.61572 0.75567 -0.09647
 C488 C 0.60253 0.74488 -0.06753
 C489 C 0.62028 0.72204 -0.05356
 C490 C 0.61002 0.70595 -0.02439
 C491 C 0.57993 0.71343 -0.00905
 C492 C 0.56095 0.73685 -0.02277
 C493 C 0.57271 0.75320 -0.05225
 H494 H 0.67352 0.68191 -0.05404
 H495 H 0.71272 0.68265 -0.10072
 H496 H 0.65995 0.75605 -0.14873
 H497 H 0.62420 0.68768 -0.01423
 H498 H 0.57113 0.70067 0.01335
 H499 H 0.55830 0.77066 -0.06362
 C500 C 0.39390 0.26780 -0.18081
 C501 C 0.40136 0.23765 -0.17977
 C502 C 0.39776 0.21987 -0.20510
 C503 C 0.38640 0.23371 -0.23316
 C504 C 0.37813 0.26491 -0.23557
 C505 C 0.38115 0.28200 -0.20840
 O506 O 0.40126 0.28062 -0.15423
 C507 C 0.41340 0.25787 -0.13622
 C508 C 0.41348 0.23112 -0.15089
 C509 C 0.42486 0.20426 -0.13705
 C510 C 0.43674 0.20478 -0.10657
 C511 C 0.43758 0.23198 -0.09068
 C512 C 0.42591 0.25911 -0.10580
 H513 H 0.40405 0.19620 -0.20354
 H514 H 0.38321 0.21954 -0.25271
 H515 H 0.37561 0.30583 -0.20935
 H516 H 0.42457 0.18358 -0.14928
 H517 H 0.44582 0.18394 -0.09550
 H518 H 0.42628 0.28014 -0.09418
 C519 C 0.30931 0.77961 0.13747
 C520 C 0.29690 0.76091 0.11596
 C521 C 0.26583 0.74597 0.12071
 C522 C 0.24694 0.74980 0.14918
 C523 C 0.25930 0.76808 0.17283
 C524 C 0.29077 0.78405 0.16601
 O525 O 0.34054 0.78971 0.12937
 C526 C 0.34791 0.77690 0.10230
 C527 C 0.32197 0.75903 0.09315
 C528 C 0.32504 0.74103 0.06747
 C529 C 0.35633 0.74107 0.05079
 C530 C 0.38347 0.75923 0.05973
 C531 C 0.37910 0.77789 0.08544
 H532 H 0.25671 0.73128 0.10341
 H533 H 0.22261 0.73828 0.15244
 H534 H 0.30178 0.79772 0.18319
 H535 H 0.30446 0.72657 0.06131
 H536 H 0.35967 0.72651 0.03134
 H537 H 0.39982 0.79111 0.09335
 C538 C 0.59282 0.22127 0.14939
 C539 C 0.57881 0.19223 0.15079
 C540 C 0.58694 0.16917 0.17315
 C541 C 0.61055 0.17629 0.19496
 C542 C 0.62556 0.20621 0.19430
 C543 C 0.61606 0.22896 0.17099
 O544 O 0.58236 0.23968 0.12577
 C545 C 0.56122 0.22183 0.11193
 C546 C 0.55808 0.19260 0.12644
 C547 C 0.53759 0.17003 0.11570
 C548 C 0.51979 0.17780 0.08877
 C549 C 0.52287 0.20769 0.07292
 C550 C 0.54385 0.23007 0.08494
 H551 H 0.57575 0.14636 0.17360
 H552 H 0.61711 0.15818 0.21198
 H553 H 0.62626 0.25211 0.16930
 H554 H 0.53558 0.14716 0.12746
 H555 H 0.50402 0.16026 0.07999
 H556 H 0.54694 0.25302 0.07343
 C557 C -0.12062 0.60152 0.75967
 C558 C -0.11784 0.58597 0.78910
 C559 C -0.13747 0.59137 0.81627
 C560 C -0.16089 0.61382 0.81313
 C561 C -0.16421 0.63098 0.78311
 C562 C -0.14339 0.62435 0.75599
 O563 O -0.09982 0.59254 0.73678
 C564 C -0.08345 0.57099 0.75223
 C565 C -0.09338 0.56628 0.78437
 C566 C -0.07896 0.54536 0.80527
 C567 C -0.05323 0.52857 0.79251
 C568 C -0.04286 0.53263 0.75932
 C569 C -0.05834 0.55412 0.73889
 H570 H -0.13481 0.57876 0.83920
 H571 H -0.17545 0.61820 0.83467
 H572 H -0.14508 0.63601 0.73246
 H573 H -0.08707 0.54222 0.83054
 H574 H -0.04167 0.51216 0.80839
 H575 H -0.05073 0.55792 0.71354
 C576 C -0.18393 0.35648 0.26258
 C577 C -0.18242 0.37172 0.23253
 C578 C -0.20226 0.36311 0.20859
 C579 C -0.22430 0.33754 0.21580
 C580 C -0.22575 0.32062 0.24647
 C581 C -0.20511 0.33079 0.27014
 O582 O -0.16374 0.36876 0.28228
 C583 C -0.14892 0.39219 0.26417
 C584 C -0.15921 0.39488 0.23341
 C585 C -0.14642 0.41758 0.21031
 C586 C -0.12226 0.43849 0.21942
 C587 C -0.11187 0.43658 0.25126
 C588 C -0.12540 0.41299 0.27388
 H589 H -0.20078 0.37560 0.18512
 H590 H -0.23915 0.33052 0.19690
 H591 H -0.20582 0.31962 0.29416
 H592 H -0.15475 0.41918 0.18620
 H593 H -0.11223 0.45654 0.20188
 H594 H -0.11786 0.41087 0.29830
 C595 C 0.19341 0.38264 0.68833
 C596 C 0.18351 0.39178 0.65838
 C597 C 0.20055 0.38499 0.63019
 C598 C 0.22883 0.36783 0.63291
 C599 C 0.23946 0.35734 0.66349
 C600 C 0.22142 0.36525 0.69165
 O601 O 0.17375 0.39188 0.71200
 C602 C 0.15098 0.40709 0.69656
 C603 C 0.15581 0.40755 0.66372
 C604 C 0.13485 0.42192 0.64283
 C605 C 0.10783 0.43663 0.65632
 C606 C 0.10237 0.43694 0.69017
 C607 C 0.12436 0.42181 0.71054
 H608 H 0.19244 0.39274 0.60689
 H609 H 0.24248 0.36297 0.61098
 H610 H 0.22850 0.35771 0.71537
 H611 H 0.13918 0.42188 0.61705
 H612 H 0.09146 0.44813 0.64031
 H613 H 0.12094 0.42155 0.73643
 C614 C 0.08344 0.64555 0.28670
 C615 C 0.06894 0.64145 0.31743
 C616 C 0.07725 0.66002 0.34121
 C617 C 0.10155 0.68370 0.33300
 C618 C 0.11732 0.68851 0.30129
 C619 C 0.10758 0.66874 0.27798
 O620 O 0.07198 0.62570 0.26747
 C621 C 0.04976 0.60860 0.28652
 C622 C 0.04691 0.61719 0.31737
 C623 C 0.02498 0.60225 0.34118
 C624 C 0.00515 0.57754 0.33274
 C625 C 0.00753 0.56839 0.30093
 C626 C 0.03033 0.58424 0.27760
 H627 H 0.06553 0.65635 0.36531
 H628 H 0.10825 0.69763 0.35182
 H629 H 0.11770 0.67125 0.25336
 H630 H 0.02312 0.60940 0.36532
 H631 H -0.01218 0.56574 0.35094
 H632 H 0.03288 0.57793 0.25315
 C633 C 0.77726 -0.16402 0.66117
 C634 C 0.81103 -0.15856 0.65506
 C635 C 0.83438 -0.17524 0.67088
 C636 C 0.82254 -0.19888 0.69368
 C637 C 0.78787 -0.20548 0.70037
 C638 C 0.76482 -0.18742 0.68419
 O639 O 0.75957 -0.14584 0.64259
 C640 C 0.78277 -0.12865 0.62444
 C641 C 0.81459 -0.13564 0.63125
 C642 C 0.84274 -0.12116 0.61492
 C643 C 0.83804 -0.09840 0.59050
 C644 C 0.80554 -0.09046 0.58270
 C645 C 0.77744 -0.10589 0.60011
 H646 H 0.86082 -0.17049 0.66554
 H647 H 0.84040 -0.21228 0.70608
 H648 H 0.73827 -0.19219 0.68858
 H649 H 0.86751 -0.12725 0.62070
 H650 H 0.85988 -0.08696 0.57769
 H651 H 0.75234 -0.10053 0.59476
 C652 C 0.23949 -0.11248 0.36559
 C653 C 0.20963 -0.10402 0.37909
 C654 C 0.17927 -0.11824 0.37396
 C655 C 0.17965 -0.14242 0.35432
 C656 C 0.21003 -0.15184 0.34011
 C657 C 0.24041 -0.13636 0.34556
 O658 O 0.26548 -0.09630 0.37434
 C659 C 0.25162 -0.07726 0.39373
 C660 C 0.21751 -0.08109 0.39728
 C661 C 0.19784 -0.06392 0.41658
 C662 C 0.21394 -0.04178 0.43299
 C663 C 0.24918 -0.03726 0.43002
 C664 C 0.26827 -0.05538 0.41000
 H665 H 0.15613 -0.11116 0.38493
 H666 H 0.15622 -0.15378 0.35002
 H667 H 0.26394 -0.14326 0.33527
 H668 H 0.17102 -0.06746 0.41898
 H669 H 0.19882 -0.02826 0.44813
 H670 H 0.29515 -0.05255 0.40717
 C671 C 0.74803 0.10938 0.37629
 C672 C 0.78218 0.10903 0.37271
 C673 C 0.80145 0.12902 0.35093
 C674 C 0.78492 0.15064 0.33236
 C675 C 0.74975 0.15186 0.33571
 C676 C 0.73094 0.13056 0.35764
 O677 O 0.73476 0.08894 0.39926
 C678 C 0.76116 0.07552 0.41032
 C679 C 0.79069 0.08703 0.39477
 C680 C 0.82146 0.07694 0.40276
 C681 C 0.82194 0.05388 0.42779
 C682 C 0.79192 0.04140 0.44442
 C683 C 0.76102 0.05250 0.43545
 H684 H 0.82831 0.12833 0.34869
 H685 H 0.79948 0.16665 0.31543
 H686 H 0.70413 0.13130 0.36086
 H687 H 0.84434 0.08656 0.39022
 H688 H 0.84582 0.04583 0.43419
 H689 H 0.73768 0.04362 0.44767
 C690 C 0.32864 0.18372 0.56387
 C691 C 0.36012 0.17469 0.55570
 C692 C 0.38878 0.19109 0.56219
 C693 C 0.38479 0.21738 0.57850
 C694 C 0.35259 0.22683 0.58772
 C695 C 0.32412 0.21005 0.57963
 O696 O 0.30475 0.16421 0.55691
 C697 C 0.32148 0.14240 0.54414
 C698 C 0.35543 0.14766 0.54281
 C699 C 0.37758 0.12726 0.53100
 C700 C 0.36414 0.10056 0.51966
 C701 C 0.32915 0.09475 0.52051
 C702 C 0.30764 0.11603 0.53321
 H703 H 0.41330 0.18343 0.55582
 H704 H 0.40671 0.22998 0.58486
 H705 H 0.29931 0.21622 0.58722
 H706 H 0.40423 0.13179 0.53041
 H707 H 0.38098 0.08462 0.50997
 H708 H 0.28083 0.11245 0.53417
   
