data_POSCAR
  _audit_creation_date              2014-09-24
  _audit_creation_method            'ToBaCCo'
  _symmetry_space_group_name_H-M    'P1'
  _symmetry_Int_Tables_number       1
  _symmetry_cell_setting            triclinic
  loop_
  _symmetry_equiv_pos_as_xyz
 x,y,z
_cell_length_a 46.0909
_cell_length_b 46.1403
_cell_length_c 45.5086
_cell_angle_alpha 90.476000
_cell_angle_beta 89.977000
_cell_angle_gamma 90.128700
loop_
  _atom_site_label
  _atom_site_type_symbol
  _atom_site_fract_x
  _atom_site_fract_y
  _atom_site_fract_z
N1 N 0.19861 1.20029 0.20287
 N2 N 0.79687 0.79736 0.20022
 N3 N 0.79148 1.20718 -0.20665
 N4 N 0.20629 0.79318 -0.19965
 C5 C 0.54697 1.04307 -0.01125
 H6 H 0.55207 1.03903 0.01155
 C7 C 0.56525 1.06048 -0.02801
 H8 H 0.58462 1.06926 -0.01785
 C9 C 0.51628 1.03486 -0.05223
 H10 H 0.49730 1.02459 -0.06161
 C11 C 0.53369 1.05262 -0.06970
 H12 H 0.52748 1.05618 -0.09230
 N13 N 0.52319 1.03047 -0.02357
 C14 C 0.45976 1.01364 0.04508
 H15 H 0.46043 0.99024 0.04613
 C16 C 0.43984 1.02905 0.06221
 H17 H 0.42521 1.01739 0.07654
 C18 C 0.47699 1.05719 0.02389
 H19 H 0.49114 1.06800 0.00851
 C20 C 0.45709 1.07340 0.04028
 H21 H 0.45633 1.09670 0.03771
 Zn22 Zn 0.50133 1.00562 0.00077
 N23 N 0.47777 1.02785 0.02637
 C24 C 0.52903 0.98379 0.05196
 N25 N 0.52808 0.98278 0.02210
 C26 C 0.54751 0.96680 0.00643
 C27 C 0.56840 0.95028 0.02077
 C28 C 0.54984 0.96788 0.06722
 C29 C 0.45218 0.99500 -0.03337
 C30 C 0.43170 0.97884 -0.04910
 C31 C 0.46103 0.93621 -0.04182
 C32 C 0.48066 0.95310 -0.02574
 N33 N 0.47609 0.98201 -0.02204
 H34 H 0.51408 0.99737 0.06404
 H35 H 0.54678 0.96696 -0.01733
 H36 H 0.58313 0.93721 0.00775
 H37 H 0.55059 0.96955 0.09094
 H38 H 0.44877 1.01793 -0.02968
 H39 H 0.41245 0.98962 -0.05705
 H40 H 0.46557 0.91340 -0.04499
 H41 H 0.49942 0.94293 -0.01617
 C42 C 0.43805 1.05926 0.05953
 C43 C 0.55880 1.06552 -0.05774
 C44 C 0.43595 0.94895 -0.05360
 C45 C 0.56991 0.95075 0.05162
 C46 C -0.00894 0.53983 1.04198
 H47 H 0.01437 0.53813 1.04413
 C48 C -0.02406 0.56046 1.05843
 H49 H -0.01218 0.57411 1.07372
 C50 C -0.05245 0.52393 1.01923
 H51 H -0.06327 0.51007 1.00339
 C52 C -0.06842 0.54457 1.03499
 H53 H -0.09149 0.54637 1.03098
 N54 N -0.02323 0.52210 1.02287
 C55 C 0.04102 0.45410 1.00892
 H56 H 0.04364 0.45518 0.98532
 C57 C 0.05704 0.43410 1.02505
 H58 H 0.07198 0.41976 1.01374
 C59 C 0.01748 0.47072 1.05218
 H60 H 0.00162 0.48461 1.06259
 C61 C 0.03274 0.45076 1.06909
 H62 H 0.02888 0.44983 1.09253
 Zn63 Zn -0.00032 0.49740 0.99913
 N64 N 0.02194 0.47212 1.02266
 C65 C 0.05323 0.52204 0.98008
 N66 N 0.02389 0.52191 0.97661
 C67 C 0.01061 0.54098 0.95841
 C68 C 0.02697 0.56050 0.94199
 C69 C 0.07040 0.54159 0.96446
 C70 C -0.04051 0.45354 0.98851
 C71 C -0.05787 0.43446 0.97226
 C72 C -0.04187 0.45801 0.92791
 C73 C -0.02435 0.47626 0.94499
 N74 N -0.02419 0.47391 0.97476
 H75 H 0.06333 0.50747 0.99542
 H76 H -0.01281 0.54111 0.95682
 H77 H 0.01605 0.57558 0.92764
 H78 H 0.09371 0.54155 0.96747
 H79 H -0.03964 0.45184 1.01219
 H80 H -0.06987 0.41789 0.98378
 H81 H -0.04209 0.46083 0.90433
 H82 H -0.01082 0.49212 0.93432
 C83 C 0.05281 0.43216 1.05550
 C84 C -0.05418 0.56344 1.05472
 C85 C -0.05883 0.43653 0.94145
 C86 C 0.05724 0.56100 0.94503
 C87 C 1.04195 -0.01200 0.54853
 H88 H 1.04254 0.01144 0.54803
 C89 C 1.05890 -0.02686 0.56881
 H90 H 1.07302 -0.01457 0.58327
 C91 C 1.02273 -0.05615 0.53003
 H92 H 1.00808 -0.06744 0.51535
 C93 C 1.03895 -0.07189 0.55032
 H94 H 1.03646 -0.09520 0.55093
 N95 N 1.02463 -0.02675 0.52940
 C96 C 1.00945 0.03347 0.45778
 H97 H 0.98611 0.03151 0.45622
 C98 C 1.02461 0.05005 0.43733
 H99 H 1.01261 0.06041 0.41991
 C100 C 1.05327 0.02061 0.48142
 H101 H 1.06449 0.00860 0.49817
 C102 C 1.06926 0.03739 0.46176
 H103 H 1.09257 0.03863 0.46434
 Zn104 Zn 1.00111 -0.00464 0.50399
 N105 N 1.02387 0.01911 0.47922
 C106 C 0.97835 0.04767 0.52807
 N107 N 0.97688 0.01823 0.52825
 C108 C 0.95962 0.00401 0.54761
 C109 C 0.94292 0.01944 0.56792
 C110 C 0.96213 0.06399 0.54818
 C111 C 0.99348 -0.04661 0.46020
 C112 C 0.97852 -0.06334 0.43948
 C113 C 0.93353 -0.04342 0.45783
 C114 C 0.94937 -0.02715 0.47832
 N115 N 0.97881 -0.02898 0.47907
 H116 H 0.99272 0.05852 0.51293
 H117 H 0.95918 -0.01944 0.54748
 H118 H 0.92919 0.00763 0.58299
 H119 H 0.96427 0.08736 0.54829
 H120 H 1.01693 -0.04731 0.46100
 H121 H 0.99065 -0.07731 0.42473
 H122 H 0.91019 -0.04098 0.45699
 H123 H 0.93815 -0.01240 0.49293
 C124 C 1.05500 0.05220 0.43907
 C125 C 1.05740 -0.05726 0.57013
 C126 C 0.94813 -0.06162 0.43784
 C127 C 0.94431 0.04986 0.56868
 C128 C 0.15634 0.27329 1.16461
 C129 C 0.18680 0.27122 1.16450
 C130 C 0.20068 0.24775 1.17768
 C131 C 0.18445 0.22551 1.19082
 C132 C 0.15406 0.22797 1.19159
 C133 C 0.14021 0.25160 1.17882
 C134 C 0.14133 0.29748 1.14939
 C135 C 0.11482 0.29256 1.13482
 C136 C 0.10063 0.31508 1.12047
 C137 C 0.11278 0.34298 1.11995
 C138 C 0.13935 0.34799 1.13421
 C139 C 0.15339 0.32553 1.14894
 C140 C 0.09775 0.36663 1.10431
 C141 C 0.11297 0.38444 1.08471
 C142 C 0.09842 0.40585 1.06892
 C143 C 0.06849 0.41010 1.07281
 C144 C 0.05340 0.39267 1.09286
 C145 C 0.06785 0.37101 1.10831
 H146 H 0.19995 0.28736 1.15361
 H147 H 0.22414 0.24670 1.17721
 H148 H 0.14091 0.21130 1.20163
 H149 H 0.11679 0.25279 1.18001
 H150 H 0.10519 0.27115 1.13404
 H151 H 0.08038 0.31056 1.10925
 H152 H 0.14902 0.36941 1.13431
 H153 H 0.17352 0.33026 1.16028
 H154 H 0.13599 0.38135 1.08111
 H155 H 0.11055 0.41913 1.05370
 H156 H 0.03028 0.39536 1.09609
 H157 H 0.05568 0.35767 1.12345
 C158 C -0.16086 0.72624 1.15824
 C159 C -0.14497 0.75086 1.16700
 C160 C -0.15876 0.77398 1.18118
 C161 C -0.18871 0.77301 1.18664
 C162 C -0.20464 0.74848 1.17787
 C163 C -0.19079 0.72515 1.16401
 C164 C -0.14620 0.70200 1.14276
 C165 C -0.15101 0.67318 1.15122
 C166 C -0.13647 0.65045 1.13704
 C167 C -0.11706 0.65606 1.11387
 C168 C -0.11279 0.68493 1.10512
 C169 C -0.12704 0.70763 1.11952
 C170 C -0.10100 0.63205 1.09911
 C171 C -0.07225 0.63621 1.08967
 C172 C -0.05720 0.61401 1.07534
 C173 C -0.07031 0.58685 1.07039
 C174 C -0.09896 0.58254 1.08009
 C175 C -0.11416 0.60490 1.09419
 H176 H -0.12184 0.75213 1.16299
 H177 H -0.14619 0.79287 1.18752
 H178 H -0.22779 0.74747 1.18183
 H179 H -0.20353 0.70650 1.15725
 H180 H -0.16552 0.66832 1.16925
 H181 H -0.13998 0.62856 1.14465
 H182 H -0.09858 0.69004 1.08693
 H183 H -0.12333 0.72963 1.11227
 H184 H -0.06122 0.65663 1.09349
 H185 H -0.03537 0.61835 1.06776
 H186 H -0.10964 0.56183 1.07695
 H187 H -0.13636 0.60101 1.10087
 C188 C -0.17246 0.28311 0.83070
 C189 C -0.18966 0.26465 0.84774
 C190 C -0.20207 0.23978 0.83530
 C191 C -0.19793 0.23283 0.80524
 C192 C -0.18181 0.25254 0.78803
 C193 C -0.16892 0.27707 0.80070
 C194 C -0.15690 0.30766 0.84465
 C195 C -0.12677 0.31029 0.84132
 C196 C -0.11155 0.33219 0.85608
 C197 C -0.12621 0.35236 0.87409
 C198 C -0.15659 0.35006 0.87670
 C199 C -0.17172 0.32774 0.86239
 C200 C -0.10973 0.37504 0.89072
 C201 C -0.11897 0.38428 0.91873
 C202 C -0.10290 0.40465 0.93481
 C203 C -0.07680 0.41597 0.92362
 C204 C -0.06772 0.40694 0.89549
 C205 C -0.08410 0.38701 0.87916
 H206 H -0.19246 0.26882 0.87103
 H207 H -0.21378 0.22528 0.84967
 H208 H -0.17897 0.24889 0.76467
 H209 H -0.15605 0.29131 0.78707
 H210 H -0.11487 0.29477 0.82804
 H211 H -0.08818 0.33273 0.85397
 H212 H -0.16877 0.36547 0.88980
 H213 H -0.19502 0.32617 0.86509
 H214 H -0.13833 0.37535 0.92865
 H215 H -0.11100 0.41144 0.95610
 H216 H -0.04760 0.41476 0.88617
 H217 H -0.07650 0.38095 0.85747
 C218 C 0.16465 0.72017 0.83903
 C219 C 0.19485 0.72028 0.83427
 C220 C 0.20846 0.74420 0.82155
 C221 C 0.19216 0.76828 0.81289
 C222 C 0.16204 0.76816 0.81724
 C223 C 0.14845 0.74447 0.83035
 C224 C 0.15013 0.69512 0.85339
 C225 C 0.12188 0.68678 0.84522
 C226 C 0.10774 0.66412 0.85954
 C227 C 0.12162 0.64882 0.88213
 C228 C 0.15013 0.65672 0.88985
 C229 C 0.16412 0.67968 0.87581
 C230 C 0.10613 0.62527 0.89799
 C231 C 0.11058 0.62112 0.92828
 C232 C 0.09522 0.59975 0.94339
 C233 C 0.07477 0.58238 0.92867
 C234 C 0.07045 0.58621 0.89844
 C235 C 0.08614 0.60724 0.88321
 H236 H 0.20798 0.70180 0.84016
 H237 H 0.23172 0.74389 0.81821
 H238 H 0.14914 0.78673 0.81109
 H239 H 0.12531 0.74552 0.83422
 H240 H 0.11057 0.69778 0.82772
 H241 H 0.08567 0.65900 0.85322
 H242 H 0.16171 0.64519 0.90680
 H243 H 0.18572 0.68566 0.88299
 H244 H 0.12534 0.63489 0.94056
 H245 H 0.09866 0.59739 0.96679
 H246 H 0.05500 0.57282 0.88659
 H247 H 0.08258 0.60931 0.85981
 C248 C 1.16004 0.15798 0.27611
 C249 C 1.16324 0.14346 0.24895
 C250 C 1.17626 0.15723 0.22512
 C251 C 1.18589 0.18594 0.22774
 C252 C 1.18264 0.20068 0.25457
 C253 C 1.17008 0.18677 0.27863
 C254 C 1.14602 0.14322 0.30147
 C255 C 1.12878 0.15885 0.32157
 C256 C 1.11512 0.14483 0.34494
 C257 C 1.11793 0.11472 0.34860
 C258 C 1.13530 0.09914 0.32857
 C259 C 1.14935 0.11323 0.30553
 C260 C 1.10237 0.09948 0.37273
 C261 C 1.11461 0.07505 0.38619
 C262 C 1.09939 0.05988 0.40773
 C263 C 1.07168 0.06901 0.41686
 C264 C 1.05978 0.09391 0.40397
 C265 C 1.07478 0.10878 0.38204
 H266 H 1.15521 0.12158 0.24585
 H267 H 1.17839 0.14574 0.20439
 H268 H 1.19011 0.22284 0.25685
 H269 H 1.16851 0.19851 0.29925
 H270 H 1.12535 0.18188 0.31902
 H271 H 1.10237 0.15769 0.36015
 H272 H 1.13769 0.07589 0.33030
 H273 H 1.16287 0.10050 0.29090
 H274 H 1.13601 0.06751 0.38007
 H275 H 1.10919 0.04062 0.41675
 H276 H 1.03876 0.10198 0.41074
 H277 H 1.06440 0.12723 0.37200
 C278 C 1.16716 -0.16426 0.72762
 C279 C 1.17620 -0.14841 0.75256
 C280 C 1.18946 -0.16230 0.77612
 C281 C 1.19362 -0.19240 0.77551
 C282 C 1.18465 -0.20836 0.75076
 C283 C 1.17175 -0.19442 0.72695
 C284 C 1.15251 -0.14938 0.70279
 C285 C 1.12994 -0.16312 0.68712
 C286 C 1.11542 -0.14865 0.66462
 C287 C 1.12286 -0.12002 0.65763
 C288 C 1.14558 -0.10637 0.67292
 C289 C 1.16041 -0.12096 0.69507
 C290 C 1.10638 -0.10406 0.63508
 C291 C 1.09557 -0.07631 0.64140
 C292 C 1.07956 -0.06127 0.62044
 C293 C 1.07440 -0.07345 0.59245
 C294 C 1.08547 -0.10124 0.58616
 C295 C 1.10108 -0.11647 0.60735
 H296 H 1.17247 -0.12530 0.75423
 H297 H 1.19586 -0.14967 0.79521
 H298 H 1.18785 -0.23159 0.74988
 H299 H 1.16556 -0.20728 0.70796
 H300 H 1.12290 -0.18477 0.69272
 H301 H 1.09777 -0.15950 0.65328
 H302 H 1.15192 -0.08441 0.66763
 H303 H 1.17810 -0.10992 0.70612
 H304 H 1.09903 -0.06648 0.66281
 H305 H 1.07083 -0.04029 0.62643
 H306 H 1.08239 -0.11113 0.56473
 H307 H 1.10943 -0.13779 0.60194
 C308 C 0.83644 -0.16168 0.27468
 C309 C 0.82205 -0.14512 0.25339
 C310 C 0.80866 -0.15852 0.22933
 C311 C 0.80918 -0.18884 0.22602
 C312 C 0.82290 -0.20545 0.24770
 C313 C 0.83641 -0.19204 0.27173
 C314 C 0.85224 -0.14725 0.29924
 C315 C 0.85200 -0.15899 0.32766
 C316 C 0.86746 -0.14561 0.35049
 C317 C 0.88353 -0.12020 0.34541
 C318 C 0.88355 -0.10836 0.31706
 C319 C 0.86817 -0.12175 0.29426
 C320 C 0.90036 -0.10607 0.36944
 C321 C 0.92783 -0.09406 0.36376
 C322 C 0.94337 -0.07996 0.38600
 C323 C 0.93192 -0.07761 0.41456
 C324 C 0.90462 -0.08997 0.42037
 C325 C 0.88901 -0.10405 0.39807
 H326 H 0.82127 -0.12173 0.25525
 H327 H 0.79846 -0.14508 0.21294
 H328 H 0.82347 -0.22885 0.24579
 H329 H 0.84753 -0.20541 0.28757
 H330 H 0.83971 -0.17846 0.33228
 H331 H 0.86719 -0.15541 0.37203
 H332 H 0.89536 -0.08859 0.31249
 H333 H 0.86915 -0.11233 0.27257
 H334 H 0.93738 -0.09560 0.34207
 H335 H 0.96415 -0.07037 0.38064
 H336 H 0.89532 -0.08880 0.44220
 H337 H 0.86782 -0.11286 0.40311
 C338 C 0.83681 0.16273 0.72610
 C339 C 0.80634 0.16276 0.72674
 C340 C 0.79137 0.17756 0.74891
 C341 C 0.80640 0.19289 0.77121
 C342 C 0.83704 0.19252 0.77052
 C343 C 0.85196 0.17782 0.74823
 C344 C 0.85272 0.14669 0.70266
 C345 C 0.87825 0.13146 0.70924
 C346 C 0.89307 0.11613 0.68733
 C347 C 0.88265 0.11549 0.65829
 C348 C 0.85719 0.13082 0.65166
 C349 C 0.84243 0.14628 0.67357
 C350 C 0.89816 0.09865 0.63515
 C351 C 0.90067 0.10931 0.60640
 C352 C 0.91544 0.09346 0.58477
 C353 C 0.92811 0.06660 0.59141
 C354 C 0.92554 0.05596 0.62016
 C355 C 0.91068 0.07172 0.64170
 H356 H 0.79399 0.15099 0.71028
 H357 H 0.76788 0.17740 0.74838
 H358 H 0.84957 0.20307 0.78766
 H359 H 0.87544 0.17839 0.74831
 H360 H 0.88661 0.13101 0.73146
 H361 H 0.91283 0.10490 0.69313
 H362 H 0.84839 0.13055 0.62960
 H363 H 0.82304 0.15808 0.66766
 H364 H 0.89155 0.13012 0.60068
 H365 H 0.91677 0.10216 0.56279
 H366 H 0.93539 0.03558 0.62619
 H367 H 0.90883 0.06266 0.66350
 C368 C 0.27259 1.16142 0.16216
 C369 C 0.26947 1.16132 0.19284
 C370 C 0.24545 1.17439 0.20612
 C371 C 0.22387 1.18757 0.18899
 C372 C 0.22689 1.18734 0.15823
 C373 C 0.25116 1.17467 0.14498
 C374 C 0.29792 1.14736 0.14806
 C375 C 0.31380 1.16181 0.12630
 C376 C 0.33751 1.14839 0.11277
 C377 C 0.34560 1.12001 0.12037
 C378 C 0.32961 1.10565 0.14225
 C379 C 0.30618 1.11926 0.15608
 C380 C 0.37013 1.10522 0.10511
 C381 C 0.38808 1.08568 0.12020
 C382 C 0.41029 1.07091 0.10549
 C383 C 0.41536 1.07570 0.07552
 C384 C 0.39790 1.09560 0.06053
 C385 C 0.37542 1.11004 0.07508
 H386 H 0.28581 1.15137 0.20655
 H387 H 0.24372 1.17428 0.22984
 H388 H 0.21030 1.19667 0.14442
 H389 H 0.25290 1.17465 0.12125
 H390 H 0.30804 1.18364 0.12001
 H391 H 0.34962 1.16037 0.09649
 H392 H 0.33476 1.08362 0.14830
 H393 H 0.29405 1.10757 0.17259
 H394 H 0.38507 1.08183 0.14343
 H395 H 0.42365 1.05585 0.11757
 H396 H 0.40111 1.09934 0.03728
 H397 H 0.36175 1.12442 0.06256
 C398 C 0.71594 1.16949 -0.17091
 C399 C 0.71713 1.19940 -0.17659
 C400 C 0.74213 1.21196 -0.18844
 C401 C 0.76653 1.19487 -0.19547
 C402 C 0.76497 1.16481 -0.19037
 C403 C 0.74023 1.15241 -0.17800
 C404 C 0.68992 1.15615 -0.15689
 C405 C 0.68181 1.12743 -0.16357
 C406 C 0.65888 1.11412 -0.14878
 C407 C 0.64294 1.12932 -0.12728
 C408 C 0.65028 1.15843 -0.12146
 C409 C 0.67360 1.17157 -0.13585
 C410 C 0.61974 1.11444 -0.11014
 C411 C 0.61508 1.12148 -0.08038
 C412 C 0.59466 1.10634 -0.06375
 C413 C 0.57872 1.08328 -0.07619
 C414 C 0.58289 1.07665 -0.10613
 C415 C 0.60291 1.09219 -0.12292
 H416 H 0.69867 1.21319 -0.17206
 H417 H 0.74227 1.23502 -0.19265
 H418 H 0.78345 1.15101 -0.19488
 H419 H 0.74055 1.12946 -0.17329
 H420 H 0.69337 1.11500 -0.18009
 H421 H 0.65426 1.09160 -0.15370
 H422 H 0.63819 1.17110 -0.10554
 H423 H 0.67926 1.19360 -0.12982
 H424 H 0.62777 1.13817 -0.06954
 H425 H 0.59165 1.11260 -0.04099
 H426 H 0.57131 1.05891 -0.11652
 H427 H 0.60536 1.08649 -0.14590
 C428 C 0.27856 0.83345 -0.15741
 C429 C 0.25346 0.82623 -0.14136
 C430 C 0.23010 0.81232 -0.15506
 C431 C 0.23109 0.80580 -0.18518
 C432 C 0.25600 0.81280 -0.20130
 C433 C 0.27964 0.82621 -0.18752
 C434 C 0.30310 0.84911 -0.14294
 C435 C 0.31956 0.86963 -0.15848
 C436 C 0.34201 0.88493 -0.14468
 C437 C 0.34830 0.88055 -0.11481
 C438 C 0.33195 0.85990 -0.09932
 C439 C 0.30986 0.84422 -0.11326
 C440 C 0.37139 0.89778 -0.09972
 C441 C 0.38797 0.88564 -0.07701
 C442 C 0.40882 0.90216 -0.06211
 C443 C 0.41409 0.93116 -0.06986
 C444 C 0.39793 0.94311 -0.09299
 C445 C 0.37671 0.92676 -0.10751
 H446 H 0.25145 0.83197 -0.11835
 H447 H 0.21084 0.80740 -0.14240
 H448 H 0.25710 0.80776 -0.22456
 H449 H 0.29874 0.83083 -0.20050
 H450 H 0.31481 0.87436 -0.18122
 H451 H 0.35441 0.90021 -0.15754
 H452 H 0.33579 0.85615 -0.07621
 H453 H 0.29808 0.82826 -0.10066
 H454 H 0.38493 0.86328 -0.07067
 H455 H 0.42043 0.89223 -0.04417
 H456 H 0.40165 0.96517 -0.10000
 H457 H 0.36415 0.93709 -0.12455
 C458 C 0.72683 0.83901 0.15678
 C459 C 0.72437 0.83141 0.18652
 C460 C 0.74722 0.81737 0.20072
 C461 C 0.77264 0.81033 0.18529
 C462 C 0.77477 0.81722 0.15539
 C463 C 0.75216 0.83159 0.14131
 C464 C 0.70348 0.85537 0.14204
 C465 C 0.71028 0.87992 0.12538
 C466 C 0.68845 0.89541 0.11123
 C467 C 0.65930 0.88646 0.11306
 C468 C 0.65254 0.86189 0.12990
 C469 C 0.67439 0.84662 0.14440
 C470 C 0.63621 0.90265 0.09729
 C471 C 0.60840 0.90599 0.10959
 C472 C 0.58686 0.92135 0.09474
 C473 C 0.59265 0.93401 0.06733
 C474 C 0.62047 0.93069 0.05509
 C475 C 0.64187 0.91506 0.06975
 H476 H 0.70511 0.83705 0.19893
 H477 H 0.74528 0.81219 0.22380
 H478 H 0.79430 0.81211 0.14319
 H479 H 0.75445 0.83701 0.11831
 H480 H 0.73251 0.88736 0.12362
 H481 H 0.69444 0.91460 0.09911
 H482 H 0.63043 0.85409 0.13145
 H483 H 0.66867 0.82761 0.15697
 H484 H 0.60333 0.89705 0.13090
 H485 H 0.56560 0.92310 0.10469
 H486 H 0.62594 0.94049 0.03428
 H487 H 0.66283 0.91256 0.05932
   
