data_POSCAR
  _audit_creation_date              2014-09-24
  _audit_creation_method            'ToBaCCo'
  _symmetry_space_group_name_H-M    'P1'
  _symmetry_Int_Tables_number       1
  _symmetry_cell_setting            triclinic
  loop_
  _symmetry_equiv_pos_as_xyz
 x,y,z
_cell_length_a 30.7281
_cell_length_b 30.6890
_cell_length_c 30.6421
_cell_angle_alpha 89.049700
_cell_angle_beta 92.762500
_cell_angle_gamma 86.852300
loop_
  _atom_site_label
  _atom_site_type_symbol
  _atom_site_fract_x
  _atom_site_fract_y
  _atom_site_fract_z
C1 C -0.00978 0.49874 0.24891
 C2 C 0.01111 0.50270 0.75164
 C3 C 0.24924 0.01281 0.51209
 C4 C 0.75065 -0.01433 0.49007
 C5 C 0.48723 0.24972 1.00288
 C6 C 0.51224 0.75193 0.99471
 B7 B 0.99847 1.04800 0.02534
 B8 B 1.00216 1.04422 -0.03034
 B9 B 1.04601 1.02597 0.00437
 B10 B 1.02503 1.00199 0.04975
 B11 B 0.96903 1.00481 0.04287
 B12 B 0.95488 1.03119 -0.00632
 B13 B 1.00198 0.95315 -0.02323
 B14 B 0.99836 0.95697 0.03242
 B15 B 0.95443 0.97523 -0.00232
 B16 B 0.97547 0.99925 -0.04765
 B17 B 1.03148 0.99629 -0.04078
 B18 B 1.04561 0.97001 0.00845
 B19 B 0.54430 0.49829 0.47030
 B20 B 0.54728 0.49823 0.52663
 B21 B 0.52730 0.54435 0.49801
 B22 B 0.49675 0.52779 0.45202
 B23 B 0.49854 0.47124 0.45361
 B24 B 0.52987 0.45329 0.49936
 B25 B 0.45561 0.50035 0.52645
 B26 B 0.45326 0.50070 0.47045
 B27 B 0.47387 0.45420 0.49971
 B28 B 0.50349 0.47148 0.54509
 B29 B 0.50062 0.52792 0.54381
 B30 B 0.47047 0.54599 0.49798
 C31 C 0.98077 1.42023 0.15090
 C32 C 0.98727 1.37973 0.17257
 C33 C 0.99307 1.37789 0.21802
 C34 C 0.99352 1.41623 0.24169
 C35 C 0.98932 1.45759 0.22044
 C36 C 0.98119 1.45888 0.17461
 C37 C 0.98811 1.33966 0.14881
 C38 C 0.98942 1.30503 0.13078
 C39 C 0.99138 1.26358 0.11150
 C40 C 0.99312 1.22762 0.09623
 C41 C 0.99500 1.18425 0.07902
 C42 C 1.01450 1.14953 0.10399
 C43 C 1.01498 1.10715 0.08800
 C44 C 0.99637 1.09767 0.04623
 C45 C 0.97591 1.13386 0.02243
 C46 C 0.97548 1.17626 0.03827
 H47 H 0.97524 1.42196 0.11571
 H48 H 0.99744 1.34672 0.23525
 H49 H 0.99806 1.41375 0.27694
 H50 H 0.97458 1.48940 0.15683
 H51 H 1.02872 1.15502 0.13636
 H52 H 1.02792 1.08226 0.11013
 H53 H 0.95793 1.13008 -0.00795
 H54 H 0.95911 1.20271 0.01891
 C55 C 1.02999 0.58832 0.17302
 C56 C 1.00355 0.62467 0.18386
 C57 C 0.97121 0.62014 0.21373
 C58 C 0.96547 0.57969 0.23325
 C59 C 0.99129 0.54211 0.22246
 C60 C 1.02426 0.54758 0.19246
 C61 C 1.00986 0.66726 0.16585
 C62 C 1.01304 0.70380 0.15193
 C63 C 1.01414 0.74709 0.13615
 C64 C 1.01273 0.78408 0.12221
 C65 C 1.00814 0.82767 0.10414
 C66 C 0.97107 0.84011 0.07825
 C67 C 0.96694 0.88126 0.05820
 C68 C 0.99927 0.91196 0.06311
 C69 C 1.03585 0.89869 0.09106
 C70 C 1.04033 0.85732 0.11124
 H71 H 1.05562 0.59163 0.15032
 H72 H 0.95110 0.64829 0.22298
 H73 H 0.94190 0.57887 0.25825
 H74 H 1.04637 0.52036 0.18492
 H75 H 0.94552 0.81756 0.07264
 H76 H 0.93823 0.88758 0.03853
 H77 H 1.06189 0.91947 0.09738
 H78 H 1.06930 0.84830 0.13164
 C79 C 0.97236 1.41267 -0.17223
 C80 C 0.99868 1.37637 -0.18346
 C81 C 1.03062 1.38108 -0.21375
 C82 C 1.03609 1.42164 -0.23324
 C83 C 1.01039 1.45917 -0.22204
 C84 C 0.97781 1.45351 -0.19165
 C85 C 0.99259 1.33368 -0.16537
 C86 C 0.98937 1.29715 -0.15129
 C87 C 0.98798 1.25392 -0.13522
 C88 C 0.98903 1.21700 -0.12101
 C89 C 0.99316 1.17344 -0.10263
 C90 C 1.03048 1.16051 -0.07732
 C91 C 1.03432 1.11942 -0.05709
 C92 C 1.00140 1.08923 -0.06116
 C93 C 0.96453 1.10296 -0.08855
 C94 C 0.96036 1.14428 -0.10892
 H95 H 0.94702 1.40927 -0.14922
 H96 H 1.05065 1.35300 -0.22331
 H97 H 1.05933 1.42261 -0.25853
 H98 H 0.95577 1.48066 -0.18377
 H99 H 1.05653 1.18261 -0.07238
 H100 H 1.06343 1.11271 -0.03814
 H101 H 0.93809 1.08250 -0.09432
 H102 H 0.93118 1.15363 -0.12889
 C103 C 1.00816 0.62350 -0.21699
 C104 C 1.01435 0.62155 -0.17157
 C105 C 1.02124 0.58095 -0.15010
 C106 C 1.02080 0.54237 -0.17396
 C107 C 1.01224 0.54378 -0.21974
 C108 C 1.00768 0.58523 -0.24080
 C109 C 1.01344 0.66158 -0.14764
 C110 C 1.01202 0.69616 -0.12947
 C111 C 1.00989 0.73758 -0.10999
 C112 C 1.00796 0.77349 -0.09453
 C113 C 1.00581 0.81683 -0.07712
 C114 C 1.02569 0.82491 -0.03654
 C115 C 1.02499 0.86728 -0.02054
 C116 C 1.00396 0.90338 -0.04404
 C117 C 0.98481 0.89380 -0.08556
 C118 C 0.98557 0.85145 -0.10171
 H119 H 1.00348 0.65472 -0.23410
 H120 H 1.02708 0.57911 -0.11495
 H121 H 1.02767 0.51180 -0.15633
 H122 H 1.00280 0.58783 -0.27601
 H123 H 1.04251 0.79855 -0.01741
 H124 H 1.04304 0.87112 0.00982
 H125 H 0.97115 0.91867 -0.10735
 H126 H 0.97094 0.84593 -0.13389
 C127 C 1.14946 1.03200 0.42931
 C128 C 1.16965 1.02496 0.38984
 C129 C 1.21472 1.01656 0.39000
 C130 C 1.23939 1.01365 0.42933
 C131 C 1.21954 1.01796 0.46982
 C132 C 1.17425 1.02920 0.46902
 C133 C 1.14487 1.02511 0.34878
 C134 C 1.12662 1.02379 0.31316
 C135 C 1.10773 1.02093 0.27048
 C136 C 1.09321 1.01769 0.23350
 C137 C 1.07726 1.01322 0.18897
 C138 C 1.10048 1.02925 0.15484
 C139 C 1.08551 1.02429 0.11153
 C140 C 1.04638 1.00370 0.10050
 C141 C 1.02514 0.98576 0.13617
 C142 C 1.03991 0.99083 0.17950
 H143 H 1.11461 1.03950 0.42942
 H144 H 1.23084 1.01167 0.35964
 H145 H 1.27428 1.00674 0.42835
 H146 H 1.15772 1.03615 0.49863
 H147 H 1.13058 1.04525 0.16160
 H148 H 1.10635 1.03504 0.08742
 H149 H 0.99754 0.96622 0.13142
 H150 H 1.02233 0.97673 0.20560
 C151 C 1.21881 1.03379 -0.36863
 C152 C 1.18461 1.00635 -0.36394
 C153 C 1.17081 0.98115 -0.39909
 C154 C 1.19099 0.98390 -0.43901
 C155 C 1.22450 1.01291 -0.44500
 C156 C 1.23898 1.03655 -0.40822
 C157 C 1.16528 1.00338 -0.32226
 C158 C 1.15048 1.00197 -0.28660
 C159 C 1.13404 1.00090 -0.24444
 C160 C 1.11998 0.99984 -0.20844
 C161 C 1.10234 0.99772 -0.16589
 C162 C 1.08161 0.96080 -0.15329
 C163 C 1.06185 0.95939 -0.11335
 C164 C 1.06188 0.99447 -0.08410
 C165 C 1.08465 1.03092 -0.09747
 C166 C 1.10452 1.03263 -0.13755
 H167 H 1.23058 1.05252 -0.34125
 H168 H 1.14495 0.95896 -0.39549
 H169 H 1.18064 0.96307 -0.46527
 H170 H 1.26686 1.05646 -0.40907
 H171 H 1.07985 0.93319 -0.17479
 H172 H 1.04656 0.93034 -0.10678
 H173 H 1.08715 1.05889 -0.07767
 H174 H 1.12082 1.06159 -0.14670
 C175 C 0.83733 0.96843 0.40217
 C176 C 0.81686 0.99063 0.36601
 C177 C 0.77595 1.01170 0.36966
 C178 C 0.75536 1.01072 0.40916
 C179 C 0.77547 0.98935 0.44689
 C180 C 0.81681 0.96744 0.44194
 C181 C 0.83660 0.99087 0.32443
 C182 C 0.85163 0.99194 0.28888
 C183 C 0.86812 0.99408 0.24682
 C184 C 0.88202 0.99659 0.21085
 C185 C 0.89914 1.00028 0.16821
 C186 C 0.91912 1.03789 0.15615
 C187 C 0.93844 1.04051 0.11599
 C188 C 0.93868 1.00591 0.08616
 C189 C 0.91644 0.96891 0.09897
 C190 C 0.89705 0.96603 0.13914
 H191 H 0.86873 0.95112 0.39944
 H192 H 0.75944 1.02842 0.34159
 H193 H 0.72324 1.02643 0.40896
 H194 H 0.83275 0.94783 0.46833
 H195 H 0.92074 1.06503 0.17826
 H196 H 0.95350 1.06986 0.10982
 H197 H 0.91403 0.94131 0.07867
 H198 H 0.88124 0.93662 0.14782
 C199 C 0.79508 0.95740 -0.39140
 C200 C 0.83460 0.97756 -0.38932
 C201 C 0.84884 0.99824 -0.42652
 C202 C 0.82308 0.99939 -0.46550
 C203 C 0.78235 0.97960 -0.46846
 C204 C 0.76921 0.95866 -0.43004
 C205 C 0.85809 0.97986 -0.34779
 C206 C 0.87536 0.98199 -0.31183
 C207 C 0.89330 0.98473 -0.26883
 C208 C 0.90731 0.98732 -0.23164
 C209 C 0.92312 0.99076 -0.18699
 C210 C 0.96077 1.01246 -0.17710
 C211 C 0.97569 1.01640 -0.13372
 C212 C 0.95426 0.99806 -0.09841
 C213 C 0.91499 0.97790 -0.10980
 C214 C 0.89985 0.97406 -0.15322
 H215 H 0.78341 0.94180 -0.36254
 H216 H 0.87908 1.01484 -0.42503
 H217 H 0.83406 1.01820 -0.49261
 H218 H 0.73839 0.94394 -0.42847
 H219 H 0.97849 1.02690 -0.20292
 H220 H 1.00355 1.03552 -0.12867
 H221 H 0.89429 0.96652 -0.08584
 H222 H 0.86964 0.95837 -0.16034
 C223 C 1.41161 1.15355 0.01743
 C224 C 1.37055 1.17501 0.00944
 C225 C 1.36751 1.21951 -0.00108
 C226 C 1.40515 1.24250 -0.00383
 C227 C 1.44708 1.22141 0.00284
 C228 C 1.44958 1.17656 0.01466
 C229 C 1.33110 1.15218 0.01263
 C230 C 1.29699 1.13480 0.01461
 C231 C 1.25619 1.11592 0.01595
 C232 C 1.22096 1.10048 0.01606
 C233 C 1.17873 1.08230 0.01476
 C234 C 1.14288 1.10526 0.03113
 C235 C 1.10151 1.08837 0.02761
 C236 C 1.09431 1.04783 0.00765
 C237 C 1.13164 1.02595 -0.00901
 C238 C 1.17293 1.04264 -0.00538
 H239 H 1.41428 1.11919 0.02645
 H240 H 1.33590 1.23665 -0.00675
 H241 H 1.40164 1.27721 -0.01108
 H242 H 1.48050 1.15930 0.02309
 H243 H 1.14666 1.13672 0.04597
 H244 H 1.07547 1.10873 0.03885
 H245 H 1.12959 0.99651 -0.02707
 H246 H 1.20025 1.02484 -0.01922
 C247 C 0.58077 1.16970 -0.03058
 C248 C 0.61578 1.18216 -0.00360
 C249 C 0.60921 1.21527 0.02639
 C250 C 0.56803 1.23601 0.02953
 C251 C 0.53169 1.22327 0.00354
 C252 C 0.53928 1.19041 -0.02745
 C253 C 0.65913 1.16276 -0.00745
 C254 C 0.69612 1.14797 -0.00949
 C255 C 0.73988 1.13164 -0.01086
 C256 C 0.77733 1.11783 -0.01153
 C257 C 0.82186 1.10074 -0.01209
 C258 C 0.85069 1.10550 0.02375
 C259 C 0.89295 1.08607 0.02413
 C260 C 0.90819 1.06114 -0.01108
 C261 C 0.87832 1.05860 -0.04736
 C262 C 0.83610 1.07792 -0.04800
 H263 H 0.58568 1.14463 -0.05461
 H264 H 0.63631 1.22593 0.04671
 H265 H 0.56547 1.26316 0.05145
 H266 H 0.51310 1.18129 -0.04979
 H267 H 0.84030 1.12342 0.05194
 H268 H 0.91290 1.09050 0.05282
 H269 H 0.88618 1.04154 -0.07572
 H270 H 0.81422 1.07414 -0.07634
 C271 C 1.39040 0.78922 -0.02463
 C272 C 1.38471 0.81988 0.00790
 C273 C 1.42015 0.82959 0.03578
 C274 C 1.46128 0.80866 0.03078
 C275 C 1.46803 0.77850 -0.00297
 C276 C 1.43113 0.76830 -0.02963
 C277 C 1.34172 0.83958 0.01290
 C278 C 1.30476 0.85437 0.01505
 C279 C 1.26093 0.87046 0.01588
 C280 C 1.22338 0.88401 0.01587
 C281 C 1.17877 0.90086 0.01573
 C282 C 1.16406 0.92372 0.05138
 C283 C 1.12180 0.94288 0.05020
 C284 C 1.09233 0.94018 0.01363
 C285 C 1.10801 0.91515 -0.02131
 C286 C 1.15036 0.89587 -0.02041
 H287 H 1.36295 0.78061 -0.04568
 H288 H 1.41587 0.85270 0.06177
 H289 H 1.48788 0.81560 0.05362
 H290 H 1.43281 0.74301 -0.05370
 H291 H 1.18559 0.92764 0.07995
 H292 H 1.11366 0.95989 0.07846
 H293 H 1.08830 0.91046 -0.05012
 H294 H 1.16115 0.87785 -0.04840
 C295 C 0.63224 0.78109 -0.00403
 C296 C 0.62936 0.82639 -0.00960
 C297 C 0.58834 0.84868 -0.01353
 C298 C 0.55027 0.82571 -0.01157
 C299 C 0.55266 0.77994 -0.00464
 C300 C 0.59448 0.75814 -0.00210
 C301 C 0.66888 0.84930 -0.01184
 C302 C 0.70300 0.86680 -0.01323
 C303 C 0.74378 0.88581 -0.01413
 C304 C 0.77902 0.90129 -0.01405
 C305 C 0.82130 0.91940 -0.01270
 C306 C 0.82731 0.95893 0.00763
 C307 C 0.86869 0.97547 0.01121
 C308 C 0.90593 0.95358 -0.00569
 C309 C 0.89846 0.91322 -0.02585
 C310 C 0.85702 0.89647 -0.02934
 H311 H 0.66377 0.76337 -0.00153
 H312 H 0.58575 0.88375 -0.01873
 H313 H 0.51931 0.84391 -0.01679
 H314 H 0.59778 0.72292 0.00142
 H315 H 0.80010 0.97672 0.02167
 H316 H 0.87089 1.00476 0.02947
 H317 H 0.92435 0.89281 -0.03724
 H318 H 0.85310 0.86511 -0.04435
 C319 C 0.86798 0.50130 0.27031
 C320 C 0.86773 0.49386 0.31533
 C321 C 0.90724 0.48635 0.33968
 C322 C 0.94698 0.48736 0.31917
 C323 C 0.94780 0.49705 0.27397
 C324 C 0.90741 0.50234 0.24982
 C325 C 0.82662 0.49398 0.33598
 C326 C 0.79153 0.49457 0.35200
 C327 C 0.75007 0.49543 0.37000
 C328 C 0.71470 0.49593 0.38543
 C329 C 0.67288 0.49586 0.40467
 C330 C 0.66811 0.47068 0.44205
 C331 C 0.62796 0.47070 0.46134
 C332 C 0.59093 0.49657 0.44478
 C333 C 0.59658 0.52008 0.40551
 C334 C 0.63685 0.52015 0.38601
 H335 H 0.83762 0.50649 0.25097
 H336 H 0.90735 0.47957 0.37450
 H337 H 0.97668 0.48002 0.33884
 H338 H 0.90655 0.50818 0.21482
 H339 H 0.69555 0.45094 0.45657
 H340 H 0.62700 0.45017 0.48993
 H341 H 0.56975 0.53718 0.38808
 H342 H 0.63966 0.53888 0.35609
 C343 C 0.07735 0.53546 0.33337
 C344 C 0.11412 0.50961 0.32289
 C345 C 0.11039 0.47812 0.29085
 C346 C 0.07047 0.47289 0.26860
 C347 C 0.03255 0.49840 0.27861
 C348 C 0.03709 0.53020 0.31121
 C349 C 0.15649 0.51611 0.34300
 C350 C 0.19304 0.51955 0.35813
 C351 C 0.23658 0.52097 0.37467
 C352 C 0.27397 0.51969 0.38863
 C353 C 0.31837 0.51494 0.40592
 C354 C 0.33272 0.47637 0.42768
 C355 C 0.37516 0.47127 0.44579
 C356 C 0.40540 0.50403 0.44287
 C357 C 0.38988 0.54258 0.41968
 C358 C 0.34722 0.54800 0.40141
 H359 H 0.08000 0.56046 0.35776
 H360 H 0.13886 0.45846 0.28190
 H361 H 0.07044 0.45019 0.24204
 H362 H 0.00963 0.55204 0.31849
 H363 H 0.31082 0.45017 0.43128
 H364 H 0.38294 0.44125 0.46211
 H365 H 0.40999 0.56929 0.41558
 H366 H 0.33669 0.57821 0.38430
 C367 C 0.92366 0.46714 0.66681
 C368 C 0.88704 0.49323 0.67728
 C369 C 0.89079 0.52407 0.70997
 C370 C 0.93066 0.52862 0.73262
 C371 C 0.96850 0.50311 0.72234
 C372 C 0.96382 0.47169 0.68939
 C373 C 0.84488 0.48765 0.65623
 C374 C 0.80868 0.48459 0.64001
 C375 C 0.76567 0.48302 0.62199
 C376 C 0.72876 0.48355 0.60672
 C377 C 0.68485 0.48656 0.58790
 C378 C 0.65527 0.45532 0.59713
 C379 C 0.61290 0.45887 0.57792
 C380 C 0.59736 0.49493 0.55094
 C381 C 0.63014 0.52326 0.53926
 C382 C 0.67231 0.52015 0.55829
 H383 H 0.92098 0.44260 0.64197
 H384 H 0.86242 0.54384 0.71897
 H385 H 0.93080 0.55095 0.75950
 H386 H 0.99119 0.44981 0.68192
 H387 H 0.66510 0.42765 0.61847
 H388 H 0.59326 0.43228 0.58423
 H389 H 0.62591 0.54530 0.51185
 H390 H 0.69576 0.54302 0.54830
 C391 C 0.13299 0.50031 0.72818
 C392 C 0.13248 0.50827 0.68318
 C393 C 0.09258 0.51615 0.65960
 C394 C 0.05325 0.51495 0.68081
 C395 C 0.05316 0.50464 0.72595
 C396 C 0.09393 0.49908 0.74938
 C397 C 0.17314 0.50815 0.66165
 C398 C 0.20782 0.50744 0.64475
 C399 C 0.24885 0.50620 0.62577
 C400 C 0.28398 0.50511 0.60974
 C401 C 0.32577 0.50406 0.59028
 C402 C 0.33032 0.52586 0.55080
 C403 C 0.37066 0.52485 0.53173
 C404 C 0.40843 0.50212 0.55112
 C405 C 0.40227 0.48022 0.59118
 C406 C 0.36188 0.48126 0.61052
 H407 H 0.16366 0.49483 0.74695
 H408 H 0.09185 0.52334 0.62484
 H409 H 0.02327 0.52264 0.66170
 H410 H 0.09538 0.49286 0.78433
 H411 H 0.30271 0.54414 0.53476
 H412 H 0.37179 0.54437 0.50257
 H413 H 0.42735 0.46008 0.60737
 H414 H 0.35878 0.46359 0.64102
 C415 C 0.47894 0.66394 0.07657
 C416 C 0.50489 0.67247 0.11390
 C417 C 0.53489 0.70490 0.11220
 C418 C 0.53871 0.72914 0.07380
 C419 C 0.51336 0.72082 0.03528
 C420 C 0.48280 0.68812 0.03786
 C421 C 0.49935 0.65036 0.15502
 C422 C 0.49573 0.63372 0.19055
 C423 C 0.49255 0.61592 0.23309
 C424 C 0.49065 0.60175 0.26991
 C425 C 0.48929 0.58558 0.31427
 C426 C 0.50524 0.60989 0.34885
 C427 C 0.50490 0.59373 0.39177
 C428 C 0.49083 0.55177 0.40214
 C429 C 0.47022 0.53071 0.36638
 C430 C 0.47047 0.54648 0.32333
 H431 H 0.45491 0.63946 0.07769
 H432 H 0.55444 0.71255 0.14116
 H433 H 0.56034 0.75570 0.07545
 H434 H 0.46096 0.68212 0.01010
 H435 H 0.51733 0.64184 0.34282
 H436 H 0.51296 0.61643 0.41643
 H437 H 0.45165 0.50269 0.37088
 H438 H 0.45538 0.52829 0.29722
 C439 C 0.52378 0.66501 0.90424
 C440 C 0.51544 0.69139 0.86668
 C441 C 0.50891 0.73642 0.87060
 C442 C 0.50904 0.75494 0.91174
 C443 C 0.51468 0.72881 0.95030
 C444 C 0.52404 0.68357 0.94577
 C445 C 0.51218 0.67283 0.82391
 C446 C 0.50829 0.65854 0.78762
 C447 C 0.50296 0.64199 0.74512
 C448 C 0.49830 0.62668 0.70934
 C449 C 0.49320 0.60569 0.66793
 C450 C 0.50047 0.62702 0.62867
 C451 C 0.49939 0.60381 0.58964
 C452 C 0.49553 0.55784 0.58897
 C453 C 0.47987 0.54055 0.62786
 C454 C 0.48059 0.56300 0.66698
 H455 H 0.52977 0.63007 0.90145
 H456 H 0.50298 0.75727 0.84180
 H457 H 0.50324 0.78997 0.91365
 H458 H 0.53159 0.66235 0.97390
 H459 H 0.50676 0.66140 0.62805
 H460 H 0.50093 0.62266 0.55983
 H461 H 0.46790 0.50902 0.62973
 H462 H 0.47164 0.54668 0.69661
 C463 C 0.48389 0.27459 0.12506
 C464 C 0.47254 0.31921 0.12516
 C465 C 0.46469 0.34226 0.08549
 C466 C 0.46908 0.32079 0.04576
 C467 C 0.48264 0.27604 0.04520
 C468 C 0.48836 0.25320 0.08571
 C469 C 0.47024 0.34075 0.16640
 C470 C 0.47008 0.35689 0.20198
 C471 C 0.47197 0.37430 0.24432
 C472 C 0.47540 0.38869 0.28060
 C473 C 0.48171 0.40612 0.32360
 C474 C 0.51959 0.42713 0.33425
 C475 C 0.52571 0.44540 0.37527
 C476 C 0.49473 0.44324 0.40776
 C477 C 0.45689 0.42090 0.39587
 C478 C 0.45049 0.40253 0.35471
 H479 H 0.48959 0.25627 0.15553
 H480 H 0.45511 0.37677 0.08525
 H481 H 0.46124 0.33930 0.01585
 H482 H 0.49702 0.21850 0.08680
 H483 H 0.54434 0.43010 0.31050
 H484 H 0.55502 0.46131 0.38020
 H485 H 0.43138 0.41752 0.41769
 H486 H 0.42083 0.38609 0.34707
 C487 C 0.46949 0.28830 0.88216
 C488 C 0.49781 0.32220 0.88006
 C489 C 0.52132 0.33407 0.91783
 C490 C 0.51657 0.31190 0.95750
 C491 C 0.48737 0.27802 0.96053
 C492 C 0.46475 0.26608 0.92156
 C493 C 0.50378 0.34299 0.83842
 C494 C 0.50770 0.35888 0.80265
 C495 C 0.51103 0.37629 0.76004
 C496 C 0.51279 0.39066 0.72332
 C497 C 0.51354 0.40782 0.67932
 C498 C 0.53654 0.44450 0.67047
 C499 C 0.53458 0.46283 0.62835
 C500 C 0.50881 0.44592 0.59350
 C501 C 0.48833 0.40690 0.60325
 C502 C 0.49021 0.38850 0.64539
 H503 H 0.45187 0.27813 0.85291
 H504 H 0.54403 0.35978 0.91645
 H505 H 0.53647 0.32058 0.98581
 H506 H 0.44450 0.23838 0.92063
 H507 H 0.55522 0.45972 0.69635
 H508 H 0.55185 0.49215 0.62392
 H509 H 0.47176 0.38915 0.57878
 H510 H 0.47317 0.35918 0.65148
 C511 C 0.71834 0.86698 0.47050
 C512 C 0.68043 0.86493 0.49341
 C513 C 0.66272 0.90252 0.51241
 C514 C 0.68365 0.94179 0.50945
 C515 C 0.72284 0.94460 0.48705
 C516 C 0.73940 0.90592 0.46762
 C517 C 0.66164 0.82340 0.49911
 C518 C 0.64767 0.78769 0.50308
 C519 C 0.63244 0.74527 0.50632
 C520 C 0.61943 0.70895 0.50739
 C521 C 0.60295 0.66600 0.50613
 C522 C 0.59475 0.64309 0.54421
 C523 C 0.57479 0.60322 0.54125
 C524 C 0.55772 0.58768 0.50087
 C525 C 0.57606 0.60643 0.46429
 C526 C 0.59600 0.64616 0.46614
 H527 H 0.73258 0.83793 0.45591
 H528 H 0.63363 0.90117 0.53089
 H529 H 0.67061 0.96911 0.52748
 H530 H 0.76954 0.90444 0.45116
 H531 H 0.60400 0.65561 0.57596
 H532 H 0.57376 0.58408 0.57095
 H533 H 0.57580 0.59114 0.43369
 H534 H 0.60615 0.66119 0.43631
 C535 C 0.65717 0.07642 0.47347
 C536 C 0.67644 0.11224 0.49225
 C537 C 0.71772 0.10678 0.51302
 C538 C 0.74039 0.06618 0.51405
 C539 C 0.72228 0.02913 0.49481
 C540 C 0.67976 0.03546 0.47460
 C541 C 0.65556 0.15538 0.48868
 C542 C 0.64029 0.19243 0.48665
 C543 C 0.62412 0.23639 0.48577
 C544 C 0.61086 0.27405 0.48671
 C545 C 0.59478 0.31871 0.49026
 C546 C 0.57889 0.33281 0.52957
 C547 C 0.56135 0.37536 0.53326
 C548 C 0.55859 0.40582 0.49803
 C549 C 0.57702 0.39078 0.45909
 C550 C 0.59468 0.34807 0.45512
 H551 H 0.62533 0.08038 0.45667
 H552 H 0.73313 0.13441 0.52747
 H553 H 0.77273 0.06517 0.52910
 H554 H 0.66482 0.00942 0.45705
 H555 H 0.57940 0.31063 0.55751
 H556 H 0.55016 0.38276 0.56429
 H557 H 0.57798 0.41149 0.43104
 H558 H 0.60764 0.33791 0.42441
 C559 C 0.28178 0.89128 0.49256
 C560 C 0.31705 0.88343 0.52250
 C561 C 0.33101 0.91722 0.54894
 C562 C 0.30985 0.95888 0.54495
 C563 C 0.27518 0.96794 0.51348
 C564 C 0.26069 0.93256 0.48854
 C565 C 0.33773 0.84015 0.52577
 C566 C 0.35327 0.80320 0.52601
 C567 C 0.37015 0.75960 0.52374
 C568 C 0.38421 0.72246 0.51996
 C569 C 0.40142 0.67855 0.51358
 C570 C 0.39945 0.64640 0.54581
 C571 C 0.41846 0.60459 0.53977
 C572 C 0.44110 0.59327 0.50170
 C573 C 0.43910 0.62605 0.46886
 C574 C 0.42031 0.66787 0.47460
 H575 H 0.26998 0.86511 0.47266
 H576 H 0.35782 0.91129 0.57293
 H577 H 0.32034 0.98410 0.56672
 H578 H 0.23210 0.93589 0.46654
 H579 H 0.38421 0.65380 0.57618
 H580 H 0.41714 0.58236 0.56703
 H581 H 0.44983 0.62015 0.43754
 H582 H 0.42053 0.69195 0.44833
 C583 C 0.34594 0.08835 0.50015
 C584 C 0.32465 0.12928 0.50566
 C585 C 0.27985 0.13234 0.51128
 C586 C 0.25654 0.09478 0.51266
 C587 C 0.27757 0.05287 0.50957
 C588 C 0.32254 0.05041 0.50150
 C589 C 0.34796 0.16868 0.50555
 C590 C 0.36533 0.20294 0.50592
 C591 C 0.38386 0.24399 0.50643
 C592 C 0.39890 0.27945 0.50645
 C593 C 0.41667 0.32183 0.50550
 C594 C 0.39581 0.35723 0.52530
 C595 C 0.41263 0.39861 0.52283
 C596 C 0.45113 0.40625 0.50077
 C597 C 0.47033 0.36949 0.48005
 C598 C 0.45381 0.32820 0.48262
 H599 H 0.38055 0.08577 0.49471
 H600 H 0.26284 0.16386 0.51485
 H601 H 0.22178 0.09827 0.51717
 H602 H 0.33981 0.01961 0.49568
 H603 H 0.36605 0.35308 0.54213
 H604 H 0.39355 0.42437 0.53647
 H605 H 0.49714 0.37208 0.45942
 H606 H 0.46968 0.30134 0.46587
   
