data_POSCAR
  _audit_creation_date              2014-09-24
  _audit_creation_method            'ToBaCCo'
  _symmetry_space_group_name_H-M    'P1'
  _symmetry_Int_Tables_number       1
  _symmetry_cell_setting            triclinic
  loop_
  _symmetry_equiv_pos_as_xyz
 x,y,z
_cell_length_a 24.8513
_cell_length_b 25.8206
_cell_length_c 48.3250
_cell_angle_alpha 88.008700
_cell_angle_beta 89.606600
_cell_angle_gamma 120.571500
loop_
  _atom_site_label
  _atom_site_type_symbol
  _atom_site_fract_x
  _atom_site_fract_y
  _atom_site_fract_z
C1 C -0.07671 0.04657 0.53175
 H2 H -0.11313 0.01863 0.51787
 C3 C -0.08302 0.08785 0.54737
 H4 H -0.12473 0.09097 0.54575
 C5 C 0.02402 0.08009 0.54947
 H6 H 0.06631 0.07781 0.54952
 C7 C 0.01963 0.12184 0.56540
 H8 H 0.05864 0.15180 0.57778
 N9 N -0.02363 0.04365 0.53303
 C10 C 0.02440 -0.09237 0.51541
 H11 H 0.03109 -0.08566 0.49315
 C12 C 0.02851 -0.13881 0.52894
 H13 H 0.03916 -0.16748 0.51709
 C14 C -0.00146 -0.06551 0.55781
 H15 H -0.01550 -0.03834 0.56878
 C16 C 0.00175 -0.11175 0.57214
 H17 H -0.00929 -0.11961 0.59416
 Zn18 Zn -0.00731 -0.00365 0.50930
 N19 N 0.00942 -0.05704 0.52992
 C20 C 0.11901 0.05709 0.48829
 N21 N 0.06176 0.05178 0.48667
 C22 C 0.05286 0.09119 0.47081
 C23 C 0.10285 0.13896 0.45606
 C24 C 0.17053 0.10454 0.47389
 C25 C -0.13133 -0.09158 0.50105
 C26 C -0.18214 -0.13392 0.48649
 C27 C -0.11898 -0.09572 0.44436
 C28 C -0.06962 -0.05362 0.45974
 N29 N -0.07661 -0.05238 0.48756
 H30 H 0.12529 0.02612 0.50156
 H31 H 0.00704 0.08644 0.47036
 H32 H 0.09554 0.17095 0.44404
 H33 H 0.21636 0.10965 0.47580
 H34 H -0.13514 -0.09058 0.52331
 H35 H -0.22537 -0.16285 0.49806
 H36 H -0.10951 -0.09844 0.42273
 H37 H -0.02469 -0.02413 0.44962
 C38 C 0.01661 -0.14913 0.55760
 C39 C -0.03429 0.12614 0.56434
 C40 C -0.17717 -0.13710 0.45747
 C41 C 0.16258 0.14658 0.45802
 C42 C 1.11946 0.05659 0.13110
 H43 H 1.12332 0.10022 0.13157
 C44 C 1.16159 0.04932 0.11498
 H45 H 1.19833 0.08765 0.10316
 C46 C 1.06829 -0.04587 0.14693
 H47 H 1.03251 -0.08243 0.15983
 C48 C 1.10921 -0.05534 0.13076
 H49 H 1.10450 -0.09942 0.13107
 N50 N 1.07391 0.00940 0.14656
 C51 C 0.94185 0.07147 0.15442
 H52 H 0.94686 0.08398 0.17579
 C53 C 0.89866 0.07677 0.13802
 H54 H 0.87155 0.09475 0.14669
 C55 C 0.96778 0.02882 0.11772
 H56 H 0.99289 0.00781 0.11028
 C57 C 0.92379 0.03156 0.10095
 H58 H 0.91555 0.01258 0.08071
 Zn59 Zn 1.02295 0.02835 0.16795
 N60 N 0.97559 0.04810 0.14402
 C61 C 1.08734 0.14955 0.18588
 N62 N 1.07834 0.09313 0.18947
 C63 C 1.11416 0.08160 0.20686
 C64 C 1.16146 0.12774 0.22143
 C65 C 1.13434 0.19718 0.20008
 C66 C 0.92102 -0.08710 0.17747
 C67 C 0.87084 -0.13452 0.19236
 C68 C 0.91074 -0.08036 0.23421
 C69 C 0.96026 -0.03383 0.21851
 N70 N 0.96417 -0.03786 0.19063
 H71 H 1.05981 0.15822 0.17130
 H72 H 1.10681 0.03657 0.20886
 H73 H 1.19020 0.11817 0.23496
 H74 H 1.14215 0.24222 0.19673
 H75 H 0.92458 -0.08858 0.15523
 H76 H 0.83611 -0.17307 0.18162
 H77 H 0.90709 -0.07628 0.25628
 H78 H 0.99401 0.00636 0.22847
 C79 C 0.88865 0.05597 0.11098
 C80 C 1.15609 -0.00740 0.11432
 C81 C 0.86473 -0.13065 0.22094
 C82 C 1.17263 0.18645 0.21764
 C83 C 0.05806 0.94048 0.85854
 H84 H 0.01593 0.89780 0.85557
 C85 C 0.10482 0.94270 0.87506
 H86 H 0.09881 0.90149 0.88467
 C87 C 0.11832 1.04572 0.84845
 H88 H 0.12388 1.08545 0.83753
 C89 C 0.16615 1.05009 0.86513
 H90 H 0.20818 1.09340 0.86723
 N91 N 0.06534 0.99147 0.84574
 C92 C -0.12550 0.94792 0.83175
 H93 H -0.12562 0.94998 0.80935
 C94 C -0.17741 0.93960 0.84703
 H95 H -0.21667 0.93641 0.83598
 C96 C -0.07062 0.95711 0.87288
 H97 H -0.02822 0.96583 0.88285
 C98 C -0.12130 0.94925 0.88897
 H99 H -0.11760 0.95019 0.91129
 Zn100 Zn -0.00095 0.97970 0.82285
 N101 N -0.07343 0.95677 0.84480
 C102 C -0.06628 0.86468 0.79881
 N103 N -0.01253 0.91916 0.79872
 C104 C 0.03867 0.93061 0.78333
 C105 C 0.03759 0.88598 0.76752
 C106 C -0.06942 0.81865 0.78321
 C107 C 0.02615 1.09866 0.81713
 C108 C 0.03046 1.14925 0.80351
 C109 C 0.01406 1.09994 0.76018
 C110 C 0.01078 1.05052 0.77458
 N111 N 0.01645 1.05064 0.80257
 H112 H -0.10585 0.85612 0.81176
 H113 H 0.08111 0.97401 0.78411
 H114 H 0.07916 0.89512 0.75590
 H115 H -0.11162 0.77477 0.78403
 H116 H 0.02839 1.09674 0.83946
 H117 H 0.03704 1.18675 0.81539
 H118 H 0.00698 1.09840 0.73807
 H119 H 0.00077 1.01105 0.76354
 C120 C -0.17599 0.94036 0.87618
 C121 C 0.15925 0.99813 0.87885
 C122 C 0.02393 1.15001 0.77472
 C123 C -0.01674 0.82915 0.76758
 C124 C 0.50546 -0.01174 0.01003
 C125 C 0.50379 -0.01397 -0.01808
 C126 C 0.45559 -0.00907 -0.03412
 C127 C 0.55014 -0.02225 -0.03381
 C128 C 0.56219 -0.00097 0.02458
 C129 C 0.45286 -0.01647 0.02698
 C130 C 0.42193 -0.05090 -0.05421
 C131 C 0.37450 -0.04818 -0.06836
 C132 C 0.36026 -0.00358 -0.06261
 C133 C 0.39498 0.03939 -0.04323
 C134 C 0.44277 0.03706 -0.02929
 C135 C 0.55446 -0.07383 -0.02855
 C136 C 0.59744 -0.08230 -0.04349
 C137 C 0.63638 -0.03950 -0.06401
 C138 C 0.63219 0.01209 -0.06933
 C139 C 0.58888 0.02042 -0.05446
 C140 C 0.61642 0.05606 0.02231
 C141 C 0.67055 0.06659 0.03561
 C142 C 0.67197 0.01962 0.05052
 C143 C 0.61714 -0.03726 0.05310
 C144 C 0.56241 -0.04732 0.04042
 C145 C 0.46424 0.02596 0.04696
 C146 C 0.41446 0.02435 0.06140
 C147 C 0.35273 -0.01968 0.05606
 C148 C 0.34123 -0.06362 0.03700
 C149 C 0.39097 -0.06238 0.02275
 H150 H 0.43133 -0.08652 -0.05842
 H151 H 0.34802 -0.08151 -0.08336
 H152 H 0.38459 0.07425 -0.03875
 H153 H 0.46915 0.07070 -0.01440
 H154 H 0.52416 -0.10771 -0.01301
 H155 H 0.60033 -0.12224 -0.03914
 H156 H 0.58589 0.06029 -0.05885
 H157 H 0.61653 0.09244 0.01040
 H158 H 0.71153 0.11132 0.03411
 H159 H 0.61686 -0.07394 0.06481
 H160 H 0.52066 -0.09146 0.04245
 H161 H 0.51148 0.06153 0.05072
 H162 H 0.42390 0.05843 0.07615
 H163 H 0.29373 -0.09812 0.03285
 H164 H 0.38114 -0.09642 0.00793
 H165 H 0.66216 0.04556 -0.08508
 C166 C -0.01157 0.48418 0.68002
 C167 C -0.01417 0.48321 0.65189
 C168 C -0.01492 0.43397 0.63677
 C169 C -0.01479 0.53217 0.63528
 C170 C -0.00826 0.53471 0.69500
 C171 C -0.01052 0.43551 0.69670
 C172 C 0.03480 0.42301 0.63874
 C173 C 0.03014 0.37193 0.62739
 C174 C -0.02435 0.33112 0.61399
 C175 C -0.07265 0.34379 0.61079
 C176 C -0.06791 0.39498 0.62209
 C177 C 0.03631 0.56991 0.61754
 C178 C 0.04077 0.62137 0.60479
 C179 C -0.00609 0.63532 0.60948
 C180 C -0.05873 0.59610 0.62612
 C181 C -0.06310 0.54471 0.63896
 C182 C -0.05866 0.52455 0.71221
 C183 C -0.05969 0.57297 0.72367
 C184 C -0.01006 0.63195 0.71822
 C185 C 0.04166 0.64194 0.70203
 C186 C 0.04256 0.59356 0.69045
 C187 C -0.05964 0.37554 0.69566
 C188 C -0.05417 0.32904 0.70836
 C189 C 0.00040 0.34204 0.72223
 C190 C 0.04808 0.40216 0.72448
 C191 C 0.04259 0.44865 0.71182
 H192 H 0.07634 0.45310 0.64975
 H193 H 0.06841 0.36349 0.62952
 H194 H -0.11465 0.31319 0.60018
 H195 H -0.10658 0.40294 0.62035
 H196 H 0.07399 0.56091 0.61455
 H197 H 0.08145 0.65118 0.59182
 H198 H -0.10301 0.51580 0.65250
 H199 H -0.09820 0.47941 0.71586
 H200 H -0.09964 0.56469 0.73635
 H201 H 0.08047 0.68726 0.69783
 H202 H 0.08195 0.60202 0.67732
 H203 H -0.10118 0.36472 0.68426
 H204 H -0.09160 0.28285 0.70671
 H205 H 0.09011 0.41285 0.73546
 H206 H 0.08085 0.49465 0.71283
 H207 H -0.09536 0.60627 0.62979
 C208 C 0.50743 0.51263 0.35461
 C209 C 0.50882 0.51695 0.32640
 C210 C 0.55831 0.57070 0.31053
 C211 C 0.46109 0.46808 0.30982
 C212 C 0.45723 0.45933 0.37041
 C213 C 0.55467 0.56200 0.37117
 C214 C 0.56824 0.62853 0.31463
 C215 C 0.61669 0.67870 0.30017
 C216 C 0.65494 0.67150 0.28105
 C217 C 0.64448 0.61372 0.27672
 C218 C 0.59628 0.56366 0.29123
 C219 C 0.42573 0.48084 0.29126
 C220 C 0.38028 0.43549 0.27558
 C221 C 0.37015 0.37690 0.27795
 C222 C 0.40558 0.36402 0.29643
 C223 C 0.45110 0.40943 0.31213
 C224 C 0.47299 0.42573 0.38851
 C225 C 0.42633 0.37518 0.40341
 C226 C 0.36331 0.35819 0.40081
 C227 C 0.34748 0.39179 0.38273
 C228 C 0.39416 0.44228 0.36775
 C229 C 0.61900 0.58445 0.36702
 C230 C 0.66271 0.63451 0.38108
 C231 C 0.64256 0.66201 0.39973
 C232 C 0.57844 0.63791 0.40486
 C233 C 0.53479 0.58824 0.39067
 H234 H 0.53891 0.63476 0.32919
 H235 H 0.62447 0.72311 0.30385
 H236 H 0.67367 0.60747 0.26207
 H237 H 0.58920 0.51942 0.28776
 H238 H 0.43293 0.52586 0.28916
 H239 H 0.35323 0.44609 0.26146
 H240 H 0.47852 0.39892 0.32606
 H241 H 0.52143 0.43831 0.39081
 H242 H 0.43926 0.34936 0.41706
 H243 H 0.29904 0.37920 0.38045
 H244 H 0.38120 0.46813 0.35415
 H245 H 0.63524 0.56407 0.35247
 H246 H 0.71217 0.65234 0.37719
 H247 H 0.56230 0.65849 0.41936
 H248 H 0.48542 0.57136 0.39427
 H249 H 0.39804 0.31889 0.29858
 C250 C -0.03834 0.26783 0.57439
 C251 C -0.04143 0.21811 0.56251
 C252 C -0.03675 0.17463 0.57876
 C253 C -0.03131 0.18032 0.60784
 C254 C -0.02841 0.23092 0.61999
 C255 C -0.03053 0.27565 0.60291
 C256 C -0.02487 0.23426 0.64900
 N257 N -0.02342 0.19027 0.66455
 N258 N -0.02585 0.14297 0.65313
 C259 C -0.03001 0.13633 0.62537
 H260 H -0.04053 0.30134 0.56110
 H261 H -0.04562 0.21445 0.54026
 H262 H -0.02408 0.27087 0.65953
 H263 H -0.03319 0.09634 0.61734
 C264 C 0.76803 0.73832 0.27099
 C265 C 0.81871 0.78635 0.25672
 C266 C 0.80952 0.82144 0.23672
 C267 C 0.74799 0.80890 0.23157
 C268 C 0.69633 0.75965 0.24593
 C269 C 0.70673 0.72422 0.26580
 C270 C 0.63578 0.74692 0.23949
 N271 N 0.62801 0.78258 0.22065
 N272 N 0.67657 0.82985 0.20776
 C273 C 0.73620 0.84430 0.21259
 H274 H 0.77664 0.71162 0.28614
 H275 H 0.86547 0.79553 0.26092
 H276 H 0.59455 0.70894 0.24912
 H277 H 0.77373 0.88348 0.20166
 C278 C 0.31741 0.02206 -0.10332
 C279 C 0.26928 0.02370 -0.11716
 C280 C 0.21019 0.00067 -0.10433
 C281 C 0.20015 -0.02311 -0.07659
 C282 C 0.24883 -0.02587 -0.06276
 C283 C 0.30779 -0.00283 -0.07630
 C284 C 0.23660 -0.05231 -0.03579
 N285 N 0.17989 -0.07278 -0.02331
 N286 N 0.13488 -0.06823 -0.03589
 C287 C 0.14315 -0.04381 -0.06198
 H288 H 0.36242 0.03986 -0.11385
 H289 H 0.27777 0.04178 -0.13834
 H290 H 0.27155 -0.05685 -0.02452
 H291 H 0.10524 -0.04044 -0.07092
 C292 C -0.03565 0.68854 0.57502
 C293 C -0.02924 0.74064 0.56229
 C294 C 0.01380 0.79762 0.57171
 C295 C 0.05135 0.80194 0.59450
 C296 C 0.04432 0.74874 0.60762
 C297 C 0.00090 0.69184 0.59750
 C298 C 0.08094 0.75430 0.63065
 N299 N 0.12293 0.80964 0.63934
 N300 N 0.13077 0.85965 0.62656
 C301 C 0.09668 0.85774 0.60441
 H302 H -0.06908 0.64524 0.56713
 H303 H -0.05858 0.73647 0.54502
 H304 H 0.07650 0.71523 0.64184
 H305 H 0.10571 0.89985 0.59470
 C306 C 0.25928 0.31218 0.26617
 C307 C 0.21166 0.26658 0.25152
 C308 C 0.22528 0.23658 0.23155
 C309 C 0.28847 0.25425 0.22560
 C310 C 0.33695 0.30063 0.24055
 C311 C 0.32188 0.32907 0.26128
 C312 C 0.39920 0.31802 0.23372
 N313 N 0.41164 0.29034 0.21342
 N314 N 0.36616 0.24685 0.19936
 C315 C 0.30513 0.22803 0.20465
 H316 H 0.24716 0.33394 0.28178
 H317 H 0.16363 0.25382 0.25613
 H318 H 0.43815 0.35378 0.24406
 H319 H 0.27040 0.19338 0.19217
 C320 C 0.74524 -0.01284 -0.07342
 C321 C 0.79064 -0.01936 -0.08718
 C322 C 0.77482 -0.06121 -0.10805
 C323 C 0.71019 -0.10017 -0.11344
 C324 C 0.66413 -0.09267 -0.09957
 C325 C 0.68221 -0.04834 -0.07961
 C326 C 0.60103 -0.13029 -0.10604
 N327 N 0.58488 -0.17475 -0.12398
 N328 N 0.62750 -0.18422 -0.13577
 C329 C 0.68929 -0.14903 -0.13092
 H330 H 0.75952 0.02075 -0.05792
 H331 H 0.83901 0.01139 -0.08245
 H332 H 0.56433 -0.12511 -0.09685
 H333 H 0.72114 -0.16063 -0.14028
 C334 C 0.28641 -0.03648 0.09764
 C335 C 0.23797 -0.03486 0.11149
 C336 C 0.20178 -0.01506 0.09769
 C337 C 0.21363 0.00165 0.06902
 C338 C 0.26381 0.00123 0.05510
 C339 C 0.30011 -0.01827 0.06962
 C340 C 0.27674 0.02147 0.02712
 N341 N 0.24020 0.03881 0.01383
 N342 N 0.19153 0.03692 0.02657
 C343 C 0.17676 0.01863 0.05361
 H344 H 0.31396 -0.05138 0.10894
 H345 H 0.22983 -0.04750 0.13340
 H346 H 0.31554 0.02382 0.01569
 H347 H 0.13616 0.01721 0.06270
 C348 C 0.69551 0.71127 0.44210
 C349 C 0.73784 0.76076 0.45653
 C350 C 0.77529 0.81825 0.44318
 C351 C 0.76333 0.82512 0.41465
 C352 C 0.72144 0.77373 0.39986
 C353 C 0.68831 0.71652 0.41376
 C354 C 0.71162 0.78166 0.37176
 N355 N 0.73895 0.83774 0.35969
 N356 N 0.77460 0.88633 0.37392
 C357 C 0.78673 0.88207 0.40095
 H358 H 0.66931 0.66779 0.45306
 H359 H 0.74430 0.75182 0.47792
 H360 H 0.68130 0.74400 0.35942
 H361 H 0.81280 0.92343 0.41164
 C362 C -0.03086 0.25850 0.75690
 C363 C -0.02429 0.21306 0.76978
 C364 C 0.02119 0.20038 0.76044
 C365 C 0.06095 0.23456 0.73750
 C366 C 0.05361 0.28034 0.72414
 C367 C 0.00787 0.29275 0.73429
 C368 C 0.09207 0.31186 0.70078
 N369 N 0.13622 0.29957 0.69210
 N370 N 0.14455 0.25806 0.70520
 C371 C 0.10871 0.22537 0.72763
 H372 H -0.06614 0.26741 0.76480
 H373 H -0.05542 0.18714 0.78712
 H374 H 0.08720 0.34580 0.68923
 H375 H 0.11829 0.19291 0.73759
 C376 C 0.72486 0.01545 0.09301
 C377 C 0.77707 0.02561 0.10767
 C378 C 0.83642 0.05260 0.09466
 C379 C 0.84288 0.07050 0.06612
 C380 C 0.78904 0.05729 0.05082
 C381 C 0.72962 0.03061 0.06462
 C382 C 0.79660 0.07022 0.02203
 N383 N 0.85456 0.09861 0.00994
 N384 N 0.90539 0.11453 0.02462
 C385 C 0.90159 0.10171 0.05225
 H386 H 0.68008 -0.00473 0.10399
 H387 H 0.77069 0.01103 0.12934
 H388 H 0.75715 0.05761 0.00892
 H389 H 0.94455 0.11651 0.06310
 C390 C 0.26924 0.25640 0.40189
 C391 C 0.22134 0.20504 0.41565
 C392 C 0.21668 0.20046 0.44461
 C393 C 0.26084 0.24899 0.46007
 C394 C 0.30945 0.30148 0.44605
 C395 C 0.31374 0.30480 0.41669
 C396 C 0.35095 0.34977 0.46199
 N397 N 0.34449 0.34511 0.49000
 N398 N 0.29908 0.29575 0.50314
 C399 C 0.25692 0.24771 0.48917
 H400 H 0.27169 0.25843 0.37945
 H401 H 0.18736 0.16860 0.40360
 H402 H 0.38794 0.39148 0.45251
 H403 H 0.22051 0.20930 0.50097
 C404 C 0.02732 0.71419 0.75071
 C405 C 0.02550 0.76163 0.76258
 C406 C -0.01618 0.77957 0.75337
 C407 C -0.05573 0.74997 0.73117
 C408 C -0.05383 0.70162 0.71907
 C409 C -0.01252 0.68328 0.72930
 C410 C -0.09260 0.67397 0.69666
 N411 N -0.13072 0.69355 0.68721
 N412 N -0.13247 0.73897 0.69856
 C413 C -0.09622 0.76794 0.72014
 H414 H 0.05944 0.70086 0.75857
 H415 H 0.05628 0.78403 0.77943
 H416 H -0.09251 0.63745 0.68640
 H417 H -0.09890 0.80510 0.72822
   
