data_POSCAR
  _audit_creation_date              2014-09-24
  _audit_creation_method            'ToBaCCo'
  _symmetry_space_group_name_H-M    'P1'
  _symmetry_Int_Tables_number       1
  _symmetry_cell_setting            triclinic
  loop_
  _symmetry_equiv_pos_as_xyz
 x,y,z
_cell_length_a 43.4999
_cell_length_b 44.0177
_cell_length_c 43.4280
_cell_angle_alpha 89.990400
_cell_angle_beta 90.001400
_cell_angle_gamma 90.058600
loop_
  _atom_site_label
  _atom_site_type_symbol
  _atom_site_fract_x
  _atom_site_fract_y
  _atom_site_fract_z
C1 C 1.20880 0.26234 0.29720
 H2 H 1.20760 0.23788 0.29928
 C3 C 1.19089 0.28070 0.31635
 H4 H 1.17570 0.27038 0.33314
 C5 C 1.23033 0.30579 0.27311
 H6 H 1.24607 0.31554 0.25663
 C7 C 1.21283 0.32496 0.29181
 H8 H 1.21491 0.34937 0.28939
 N9 N 1.22775 0.27507 0.27584
 C10 C 1.24100 0.20542 0.20527
 H11 H 1.26584 0.20504 0.20423
 C12 C 1.22382 0.18670 0.18580
 H13 H 1.23544 0.17177 0.16975
 C14 C 1.19544 0.22553 0.22724
 H15 H 1.18444 0.24096 0.24311
 C16 C 1.17740 0.20719 0.20816
 H17 H 1.15256 0.20835 0.20961
 Zn18 Zn 1.25188 0.24870 0.25116
 N19 N 1.22666 0.22405 0.22575
 C20 C 1.27409 0.19344 0.27687
 N21 N 1.27560 0.22431 0.27810
 C22 C 1.29392 0.23870 0.29891
 C23 C 1.31260 0.22195 0.31881
 C24 C 1.29235 0.17580 0.29634
 C25 C 1.26470 0.28919 0.20303
 C26 C 1.28288 0.30653 0.18315
 C27 C 1.32816 0.28605 0.20779
 C28 C 1.30916 0.26911 0.22722
 N29 N 1.27802 0.27135 0.22487
 H30 H 1.25886 0.18240 0.26074
 H31 H 1.29432 0.26327 0.29969
 H32 H 1.32746 0.23372 0.33494
 H33 H 1.29122 0.15124 0.29484
 H34 H 1.23991 0.29014 0.20131
 H35 H 1.27210 0.32101 0.16612
 H36 H 1.35291 0.28442 0.21004
 H37 H 1.31937 0.25421 0.24409
 C38 C 1.19173 0.18751 0.18735
 C39 C 1.19288 0.31230 0.31356
 C40 C 1.31489 0.30505 0.18570
 C41 C 1.31200 0.19018 0.31734
 C42 C 0.70728 -0.23944 0.29807
 H43 H 0.70699 -0.26402 0.29859
 C44 C 0.68844 -0.22298 0.31805
 H45 H 0.67354 -0.23485 0.33402
 C46 C 0.72694 -0.19385 0.27654
 H47 H 0.74215 -0.18256 0.26057
 C48 C 0.70850 -0.17654 0.29613
 H49 H 0.70937 -0.15196 0.29498
 N50 N 0.72558 -0.22473 0.27746
 C51 C 0.73662 -0.28873 0.20178
 H52 H 0.76142 -0.28971 0.20011
 C53 C 0.71846 -0.30586 0.18171
 H54 H 0.72925 -0.32023 0.16459
 C55 C 0.69215 -0.26879 0.22605
 H56 H 0.68193 -0.25402 0.24303
 C57 C 0.67317 -0.28551 0.20644
 H58 H 0.64842 -0.28387 0.20867
 Zn59 Zn 0.74935 -0.24875 0.25032
 N60 N 0.72328 -0.27108 0.22375
 C61 C 0.77081 -0.30604 0.27173
 N62 N 0.77341 -0.27535 0.27474
 C63 C 0.79227 -0.26281 0.29628
 C64 C 0.81005 -0.28134 0.31538
 C65 C 0.78818 -0.32538 0.29037
 C66 C 0.76021 -0.20502 0.20494
 C67 C 0.77738 -0.18612 0.18565
 C68 C 0.82382 -0.20678 0.20785
 C69 C 0.80578 -0.22531 0.22675
 N70 N 0.77456 -0.22382 0.22525
 H71 H 0.75512 -0.31564 0.25511
 H72 H 0.79347 -0.23837 0.29858
 H73 H 0.82516 -0.27117 0.33233
 H74 H 0.78608 -0.34977 0.28775
 H75 H 0.73537 -0.20466 0.20388
 H76 H 0.76576 -0.17106 0.16972
 H77 H 0.84865 -0.20795 0.20928
 H78 H 0.81678 -0.24088 0.24247
 C79 C 0.68645 -0.30435 0.18423
 C80 C 0.68890 -0.19125 0.31685
 C81 C 0.80947 -0.18693 0.18722
 C82 C 0.80802 -0.31291 0.31232
 C83 C 0.70783 0.26121 -0.20328
 H84 H 0.70753 0.23665 -0.20253
 C85 C 0.68917 0.27788 -0.18331
 H86 H 0.67438 0.26617 -0.16711
 C87 C 0.72739 0.30658 -0.22535
 H88 H 0.74250 0.31772 -0.24153
 C89 C 0.70911 0.32410 -0.20578
 H90 H 0.71002 0.34866 -0.20715
 N91 N 0.72602 0.27571 -0.22415
 C92 C 0.73667 0.21080 -0.29927
 H93 H 0.76145 0.20979 -0.30108
 C94 C 0.71837 0.19343 -0.31901
 H95 H 0.72904 0.17886 -0.33602
 C96 C 0.69236 0.23104 -0.27496
 H97 H 0.68225 0.24600 -0.25810
 C98 C 0.67324 0.21407 -0.29424
 H99 H 0.64851 0.21575 -0.29188
 Zn100 Zn 0.74972 0.25139 -0.25119
 N101 N 0.72348 0.22874 -0.27743
 C102 C 0.77134 0.19427 -0.22925
 N103 N 0.77391 0.22500 -0.22654
 C104 C 0.79282 0.23774 -0.20516
 C105 C 0.81068 0.21939 -0.18594
 C106 C 0.78879 0.17512 -0.21047
 C107 C 0.76056 0.29482 -0.29700
 C108 C 0.77771 0.31367 -0.31639
 C109 C 0.82418 0.29310 -0.29407
 C110 C 0.80612 0.27465 -0.27510
 N111 N 0.77490 0.27612 -0.27660
 H112 H 0.75562 0.18451 -0.24574
 H113 H 0.79401 0.26221 -0.20310
 H114 H 0.82582 0.22973 -0.16912
 H115 H 0.78670 0.15070 -0.21286
 H116 H 0.73571 0.29519 -0.29804
 H117 H 0.76595 0.32865 -0.33233
 H118 H 0.84902 0.29185 -0.29250
 H119 H 0.81712 0.25916 -0.25929
 C120 C 0.68637 0.19496 -0.31631
 C121 C 0.68965 0.30961 -0.18476
 C122 C 0.80985 0.31292 -0.31482
 C123 C 0.80868 0.18779 -0.18868
 C124 C 1.20808 -0.23704 -0.20396
 H125 H 1.20690 -0.26148 -0.20160
 C126 C 1.19036 -0.21848 -0.18487
 H127 H 1.17531 -0.22861 -0.16784
 C128 C 1.22947 -0.19385 -0.22868
 H129 H 1.24512 -0.18429 -0.24537
 C130 C 1.21215 -0.17448 -0.21004
 H131 H 1.21424 -0.15010 -0.21272
 N132 N 1.22688 -0.22454 -0.22559
 C133 C 1.24004 -0.29510 -0.29506
 H134 H 1.26488 -0.29547 -0.29613
 C135 C 1.22286 -0.31411 -0.31423
 H136 H 1.23446 -0.32925 -0.33008
 C137 C 1.19448 -0.27471 -0.27332
 H138 H 1.18349 -0.25906 -0.25768
 C139 C 1.17644 -0.29334 -0.29211
 H140 H 1.15160 -0.29216 -0.29066
 Zn141 Zn 1.25091 -0.25120 -0.24991
 N142 N 1.22570 -0.27620 -0.27484
 C143 C 1.27319 -0.30598 -0.22338
 N144 N 1.27464 -0.27510 -0.22266
 C145 C 1.29293 -0.26031 -0.20211
 C146 C 1.31165 -0.27670 -0.18196
 C147 C 1.29152 -0.32322 -0.20363
 C148 C 1.26360 -0.21140 -0.29858
 C149 C 1.28174 -0.19432 -0.31870
 C150 C 1.32706 -0.21456 -0.29391
 C151 C 1.30809 -0.23125 -0.27424
 N152 N 1.27696 -0.22898 -0.27656
 H153 H 1.25798 -0.31733 -0.23931
 H154 H 1.29328 -0.23574 -0.20174
 H155 H 1.32654 -0.26478 -0.16602
 H156 H 1.29058 -0.34780 -0.20461
 H157 H 1.23880 -0.21045 -0.30025
 H158 H 1.27095 -0.18000 -0.33586
 H159 H 1.35181 -0.21617 -0.29167
 H160 H 1.31832 -0.24596 -0.25721
 C161 C 1.19078 -0.31329 -0.31263
 C162 C 1.19238 -0.18692 -0.18800
 C163 C 1.31375 -0.19580 -0.31617
 C164 C 1.31110 -0.30843 -0.18294
 C165 C 0.26323 0.21052 0.70206
 H166 H 0.23843 0.20952 0.70043
 C167 C 0.28134 0.19341 0.68197
 H168 H 0.27052 0.17903 0.66487
 C169 C 0.30776 0.23052 0.72626
 H170 H 0.31802 0.24530 0.74322
 C171 C 0.32670 0.21381 0.70662
 H172 H 0.35146 0.21548 0.70880
 N173 N 0.27663 0.22820 0.72400
 C174 C 0.20776 0.23652 0.79664
 H175 H 0.20664 0.26097 0.79890
 C176 C 0.18996 0.21804 0.81578
 H177 H 0.17492 0.22831 0.83273
 C178 C 0.22906 0.19326 0.77209
 H179 H 0.24470 0.18365 0.75544
 C180 C 0.21167 0.17394 0.79077
 H181 H 0.21375 0.14954 0.78810
 Zn182 Zn 0.25061 0.25054 0.75058
 N183 N 0.22655 0.22395 0.77507
 C184 C 0.19415 0.27388 0.72709
 N185 N 0.22537 0.27541 0.72552
 C186 C 0.23968 0.29424 0.70519
 C187 C 0.22248 0.31314 0.68595
 C188 C 0.17608 0.29240 0.70825
 C189 C 0.29275 0.26000 0.79829
 C190 C 0.31151 0.27654 0.81830
 C191 C 0.29135 0.32290 0.79639
 C192 C 0.27298 0.30551 0.77677
 N193 N 0.27442 0.27464 0.77768
 H194 H 0.18317 0.25829 0.74283
 H195 H 0.26453 0.29464 0.70408
 H196 H 0.23407 0.32823 0.67001
 H197 H 0.15125 0.29120 0.70974
 H198 H 0.29309 0.23543 0.79880
 H199 H 0.32642 0.26473 0.83429
 H200 H 0.29041 0.34747 0.79526
 H201 H 0.25775 0.31675 0.76080
 C202 C 0.19187 0.18644 0.81276
 C203 C 0.31336 0.19496 0.68443
 C204 C 0.31096 0.30827 0.81714
 C205 C 0.19040 0.31229 0.68760
 C206 C 0.75901 0.70571 0.70442
 H207 H 0.73416 0.70535 0.70334
 C208 C 0.77615 0.68684 0.68510
 H209 H 0.76451 0.67182 0.66913
 C210 C 0.80461 0.72588 0.72634
 H211 H 0.81564 0.74138 0.74214
 C212 C 0.82261 0.70739 0.70741
 H213 H 0.84745 0.70852 0.70890
 N214 N 0.77338 0.72443 0.72482
 C215 C 0.70620 0.73939 0.79796
 H216 H 0.70587 0.76396 0.79865
 C217 C 0.68750 0.72272 0.81793
 H218 H 0.67268 0.73449 0.83405
 C219 C 0.72587 0.69404 0.77605
 H220 H 0.74105 0.68292 0.75995
 C221 C 0.70758 0.67649 0.79561
 H222 H 0.70858 0.65192 0.79425
 Zn223 Zn 0.74822 0.74919 0.75013
 N224 N 0.72446 0.72491 0.77718
 C225 C 0.69096 0.76951 0.72619
 N226 N 0.72210 0.77177 0.72378
 C227 C 0.73540 0.78960 0.70190
 C228 C 0.71721 0.80691 0.68204
 C229 C 0.67195 0.78641 0.70677
 C230 C 0.79131 0.76294 0.79614
 C231 C 0.80924 0.78133 0.81528
 C232 C 0.78746 0.82555 0.79059
 C233 C 0.76995 0.80635 0.77191
 N234 N 0.77243 0.77563 0.77472
 H235 H 0.68076 0.75462 0.74309
 H236 H 0.76019 0.79058 0.70015
 H237 H 0.72798 0.82139 0.66498
 H238 H 0.64720 0.78476 0.70907
 H239 H 0.79244 0.73848 0.79829
 H240 H 0.82437 0.77104 0.83212
 H241 H 0.78546 0.84996 0.78811
 H242 H 0.75425 0.81607 0.75538
 C243 C 0.68802 0.69096 0.81656
 C244 C 0.80824 0.68759 0.68671
 C245 C 0.80735 0.81293 0.81241
 C246 C 0.68520 0.80542 0.68465
 C247 C 0.75982 0.20510 0.20420
 H248 H 0.73498 0.20471 0.20313
 C249 C 0.77699 0.18622 0.18494
 H250 H 0.76538 0.17113 0.16901
 C251 C 0.80539 0.22546 0.22603
 H252 H 0.81639 0.24106 0.24175
 C253 C 0.82342 0.20696 0.20716
 H254 H 0.84826 0.20816 0.20861
 N255 N 0.77417 0.22393 0.22451
 C256 C 0.70694 0.23950 0.29730
 H257 H 0.70669 0.26407 0.29779
 C258 C 0.68814 0.22304 0.31734
 H259 H 0.67329 0.23491 0.33333
 C260 C 0.72652 0.19390 0.27580
 H261 H 0.74170 0.18261 0.25982
 C262 C 0.70811 0.17659 0.29545
 H263 H 0.70896 0.15201 0.29434
 Zn264 Zn 0.74899 0.24881 0.24955
 N265 N 0.72519 0.22478 0.27668
 C266 C 0.69183 0.26880 0.22529
 N267 N 0.72296 0.27113 0.22299
 C268 C 0.73633 0.28883 0.20105
 C269 C 0.71820 0.30596 0.18101
 C270 C 0.67287 0.28553 0.20569
 C271 C 0.79183 0.26280 0.29557
 C272 C 0.80959 0.28128 0.31474
 C273 C 0.78787 0.32538 0.28975
 C274 C 0.77052 0.30608 0.27103
 N275 N 0.77305 0.27538 0.27400
 H276 H 0.68159 0.25399 0.24224
 H277 H 0.76113 0.28983 0.19940
 H278 H 0.72900 0.32038 0.16392
 H279 H 0.64812 0.28387 0.20792
 H280 H 0.79297 0.23835 0.29783
 H281 H 0.82462 0.27108 0.33173
 H282 H 0.78582 0.34977 0.28718
 H283 H 0.75488 0.31570 0.25439
 C284 C 0.68857 0.19131 0.31619
 C285 C 0.80907 0.18708 0.18653
 C286 C 0.80762 0.31285 0.31174
 C287 C 0.68619 0.30442 0.18352
 C288 C 0.26433 0.71085 0.20273
 H289 H 0.23954 0.70988 0.20098
 C290 C 0.28250 0.69349 0.18289
 H291 H 0.27171 0.67898 0.16588
 C292 C 0.30879 0.73096 0.22694
 H293 H 0.31901 0.74587 0.24381
 C294 C 0.32779 0.71400 0.20756
 H295 H 0.35253 0.71563 0.20985
 N296 N 0.27765 0.72872 0.22456
 C297 C 0.20842 0.73762 0.29692
 H298 H 0.20722 0.76208 0.29901
 C299 C 0.19051 0.71922 0.31609
 H300 H 0.17534 0.72951 0.33288
 C301 C 0.22991 0.69421 0.27282
 H302 H 0.24565 0.68449 0.25633
 C303 C 0.21243 0.67501 0.29153
 H304 H 0.21450 0.65060 0.28911
 Zn305 Zn 0.25152 0.75136 0.25086
 N306 N 0.22735 0.72493 0.27555
 C307 C 0.19507 0.77450 0.22698
 N308 N 0.22630 0.77601 0.22545
 C309 C 0.24063 0.79469 0.20498
 C310 C 0.22345 0.81344 0.18556
 C311 C 0.17703 0.79288 0.20795
 C312 C 0.29357 0.76140 0.29864
 C313 C 0.31224 0.77817 0.31857
 C314 C 0.29203 0.82430 0.29610
 C315 C 0.27378 0.80664 0.27660
 N316 N 0.27527 0.77578 0.27782
 H317 H 0.18407 0.75904 0.24283
 H318 H 0.26547 0.79510 0.20391
 H319 H 0.23506 0.82842 0.16953
 H320 H 0.15219 0.79169 0.20944
 H321 H 0.29396 0.73684 0.29941
 H322 H 0.32707 0.76641 0.33471
 H323 H 0.29090 0.84886 0.29461
 H324 H 0.25856 0.81767 0.26046
 C325 C 0.19248 0.68762 0.31330
 C326 C 0.31451 0.69495 0.18549
 C327 C 0.31164 0.80994 0.31712
 C328 C 0.19135 0.81262 0.18716
 N329 N 0.96802 -0.05361 -0.03432
 N330 N 0.94770 -0.07499 -0.04074
 N331 N 1.03256 -0.03251 -0.05593
 N332 N 1.05292 -0.03889 -0.07753
 N333 N 1.03261 -0.05359 -0.03450
 N334 N 1.05301 -0.07485 -0.04094
 N335 N 0.96796 -0.03253 -0.05575
 N336 N 0.94758 -0.03903 -0.07732
 C337 C 0.93485 -0.06527 -0.06731
 C338 C 1.06576 -0.06505 -0.06753
 N339 N 1.03275 0.05416 -0.03454
 N340 N 1.05314 0.07546 -0.04104
 N341 N 0.96804 0.03312 -0.05578
 N342 N 0.94777 0.03968 -0.07742
 N343 N 0.96816 0.05420 -0.03437
 N344 N 0.94797 0.07565 -0.04087
 N345 N 1.03265 0.03308 -0.05597
 N346 N 1.05297 0.03950 -0.07762
 Mn347 Mn 1.00030 0.00029 -0.05613
 C348 C 1.06584 0.06569 -0.06765
 C349 C 0.93514 0.06596 -0.06747
 N350 N 1.03285 -0.05364 0.03196
 N351 N 1.05299 -0.07513 0.03852
 N352 N 0.96836 -0.03252 0.05356
 N353 N 0.94812 -0.03898 0.07526
 N354 N 0.96826 -0.05360 0.03214
 N355 N 0.94795 -0.07495 0.03871
 N356 N 1.03296 -0.03255 0.05337
 N357 N 1.05318 -0.03915 0.07506
 Mn358 Mn 1.00044 -0.05386 -0.00118
 C359 C 1.06578 -0.06545 0.06514
 C360 C 0.93529 -0.06519 0.06535
 N361 N 0.96839 0.05416 0.03210
 N362 N 0.94804 0.07544 0.03858
 N363 N 1.03304 0.03308 0.05334
 N364 N 1.05330 0.03964 0.07500
 N365 N 1.03298 0.05418 0.03192
 N366 N 1.05320 0.07563 0.03845
 N367 N 0.96844 0.03307 0.05352
 N368 N 0.94812 0.03947 0.07515
 Mn369 Mn 1.00057 0.05442 -0.00122
 Mn370 Mn 1.00071 0.00028 0.05371
 Cl371 Cl 1.00050 0.00028 -0.00121
 C372 C 0.93531 0.06565 0.06518
 C373 C 1.06599 0.06592 0.06505
 N374 N 0.96705 0.55341 0.53250
 N375 N 0.94686 0.57487 0.53896
 N376 N 1.03144 0.53227 0.55435
 N377 N 1.05170 0.53864 0.57607
 N378 N 1.03163 0.55337 0.53295
 N379 N 1.05202 0.57464 0.53952
 N380 N 0.96685 0.53230 0.55390
 N381 N 0.94652 0.53886 0.57548
 C382 C 0.93394 0.56516 0.56550
 C383 C 1.06462 0.56482 0.56616
 N384 N 1.03152 0.44562 0.53286
 N385 N 1.05180 0.42429 0.53944
 N386 N 0.96677 0.46665 0.55385
 N387 N 0.94648 0.46000 0.57546
 N388 N 0.96693 0.44559 0.53241
 N389 N 0.94675 0.42408 0.53887
 N390 N 1.03138 0.46667 0.55431
 N391 N 1.05156 0.46021 0.57605
 Mn392 Mn 0.99910 0.49947 0.55436
 C393 C 1.06440 0.43402 0.56613
 C394 C 0.93388 0.43371 0.56546
 N395 N 1.03215 0.55350 0.46649
 N396 N 1.05241 0.57496 0.46011
 N397 N 0.96771 0.53242 0.44458
 N398 N 0.94747 0.53886 0.42287
 N399 N 0.96756 0.55346 0.46604
 N400 N 0.94722 0.57476 0.45951
 N401 N 1.03231 0.53245 0.44504
 N402 N 1.05269 0.53905 0.42350
 Mn403 Mn 0.99960 0.55368 0.49950
 C404 C 1.06533 0.56531 0.43355
 C405 C 0.93461 0.56503 0.43283
 N406 N 0.96745 0.44573 0.46594
 N407 N 0.94702 0.42449 0.45940
 N408 N 1.03224 0.46680 0.44500
 N409 N 1.05269 0.46031 0.42350
 N410 N 1.03203 0.44569 0.46640
 N411 N 1.05234 0.42431 0.46004
 N412 N 0.96764 0.46683 0.44453
 N413 N 0.94734 0.46049 0.42285
 Mn414 Mn 0.99948 0.44541 0.49940
 Mn415 Mn 0.99998 0.49962 0.44452
 Cl416 Cl 0.99954 0.49955 0.49945
 C417 C 0.93440 0.43432 0.43277
 C418 C 1.06532 0.43405 0.43354
 N419 N 0.55349 0.03203 0.53359
 N420 N 0.57480 0.05255 0.53964
 N421 N 0.53211 -0.03177 0.55514
 N422 N 0.53827 -0.05232 0.57642
 N423 N 0.55342 -0.03180 0.53371
 N424 N 0.57464 -0.05235 0.53980
 N425 N 0.53218 0.03208 0.55503
 N426 N 0.53844 0.05265 0.57627
 C427 C 0.56480 0.06545 0.56603
 C428 C 0.56458 -0.06518 0.56622
 N429 N 0.44452 -0.03179 0.53357
 N430 N 0.42345 -0.05260 0.53943
 N431 N 0.46585 0.03207 0.55493
 N432 N 0.45975 0.05278 0.57605
 N433 N 0.44456 0.03201 0.53348
 N434 N 0.42341 0.05268 0.53940
 N435 N 0.46580 -0.03177 0.55503
 N436 N 0.45979 -0.05257 0.57610
 Mn437 Mn 0.49898 0.00016 0.55534
 C438 C 0.43359 -0.06556 0.56574
 C439 C 0.43350 0.06565 0.56573
 N440 N 0.55341 -0.03189 0.46738
 N441 N 0.57468 -0.05241 0.46138
 N442 N 0.53219 0.03188 0.44579
 N443 N 0.53843 0.05244 0.42454
 N444 N 0.55346 0.03190 0.46727
 N445 N 0.57472 0.05246 0.46124
 N446 N 0.53214 -0.03195 0.44589
 N447 N 0.53840 -0.05252 0.42467
 Mn448 Mn 0.55371 0.00006 0.50048
 C449 C 0.56470 -0.06531 0.43498
 C450 C 0.56473 0.06531 0.43483
 N451 N 0.44454 0.03191 0.46713
 N452 N 0.42323 0.05234 0.46096
 N453 N 0.46578 -0.03196 0.44579
 N454 N 0.45941 -0.05239 0.42444
 N455 N 0.44447 -0.03191 0.46723
 N456 N 0.42305 -0.05228 0.46106
 N457 N 0.46584 0.03189 0.44569
 N458 N 0.45957 0.05233 0.42432
 Mn459 Mn 0.44425 0.00006 0.50036
 Mn460 Mn 0.49899 -0.00004 0.44549
 Cl461 Cl 0.49898 0.00006 0.50041
 C462 C 0.43322 0.06513 0.43450
 C463 C 0.43299 -0.06512 0.43462
 N464 N 0.55493 0.53223 0.03388
 N465 N 0.57606 0.55298 0.03972
 N466 N 0.53378 0.46837 0.05541
 N467 N 0.53987 0.44756 0.07644
 N468 N 0.55499 0.46842 0.03388
 N469 N 0.57609 0.44767 0.03965
 N470 N 0.53372 0.53220 0.05541
 N471 N 0.53985 0.55294 0.07651
 C472 C 0.56604 0.56591 0.06609
 C473 C 0.56605 0.43465 0.06598
 N474 N 0.44609 0.46819 0.03438
 N475 N 0.42490 0.44757 0.04051
 N476 N 0.46740 0.53208 0.05574
 N477 N 0.46125 0.55263 0.07701
 N478 N 0.44601 0.53201 0.03438
 N479 N 0.42475 0.55251 0.04053
 N480 N 0.46747 0.46822 0.05574
 N481 N 0.46140 0.44762 0.07701
 Mn482 Mn 0.50060 0.50022 0.05588
 C483 C 0.43506 0.43471 0.06687
 C484 C 0.43487 0.56541 0.06689
 N485 N 0.55481 0.46842 -0.03245
 N486 N 0.57623 0.44813 -0.03873
 N487 N 0.53336 0.53220 -0.05382
 N488 N 0.53958 0.55265 -0.07520
 N489 N 0.55473 0.53223 -0.03245
 N490 N 0.57605 0.55269 -0.03868
 N491 N 0.53344 0.46835 -0.05382
 N492 N 0.53976 0.44800 -0.07524
 Mn493 Mn 0.55514 0.50033 0.00073
 C494 C 0.56622 0.43533 -0.06518
 C495 C 0.56598 0.56547 -0.06511
 N496 N 0.44581 0.53199 -0.03195
 N497 N 0.42456 0.55256 -0.03785
 N498 N 0.46707 0.46822 -0.05350
 N499 N 0.46078 0.44765 -0.07472
 N500 N 0.44587 0.46819 -0.03196
 N501 N 0.42459 0.44762 -0.03792
 N502 N 0.46702 0.53205 -0.05349
 N503 N 0.46076 0.55267 -0.07466
 Mn504 Mn 0.44567 0.50010 0.00121
 Mn505 Mn 0.50021 0.50020 -0.05396
 Cl506 Cl 0.50041 0.50021 0.00096
 C507 C 0.43450 0.56549 -0.06426
 C508 C 0.43452 0.43477 -0.06436
 C509 C 1.17355 0.16820 0.16770
 C510 C 1.15816 0.15205 0.15138
 C511 C 1.13983 0.13322 0.13248
 C512 C 1.12379 0.11732 0.11656
 C513 C 1.10443 0.09896 0.09821
 C514 C 1.08728 0.08364 0.08286
 C515 C 1.17260 0.66718 0.66800
 C516 C 1.15720 0.65086 0.65190
 C517 C 1.13884 0.63189 0.63322
 C518 C 1.12274 0.61592 0.61745
 C519 C 1.10328 0.59758 0.59925
 C520 C 1.08603 0.58234 0.58397
 C521 C 0.66703 0.17653 0.66434
 C522 C 0.65078 0.16077 0.64850
 C523 C 0.63182 0.14186 0.63037
 C524 C 0.61583 0.12525 0.61519
 C525 C 0.59746 0.10516 0.59776
 C526 C 0.58223 0.08740 0.58314
 C527 C 0.66727 0.67741 0.16460
 C528 C 0.65116 0.66173 0.14857
 C529 C 0.63238 0.64286 0.13027
 C530 C 0.61655 0.62620 0.11501
 C531 C 0.59838 0.60599 0.09757
 C532 C 0.58330 0.58808 0.08302
 C533 C 0.82763 -0.16750 0.16771
 C534 C 0.84301 -0.15125 0.15149
 C535 C 0.86133 -0.13236 0.13267
 C536 C 0.87738 -0.11642 0.11681
 C537 C 0.89677 -0.09808 0.09851
 C538 C 0.91395 -0.08280 0.08318
 C539 C 0.82637 0.33061 0.66746
 C540 C 0.84176 0.34691 0.65125
 C541 C 0.86008 0.36590 0.63249
 C542 C 0.87611 0.38195 0.61668
 C543 C 0.89546 0.40045 0.59846
 C544 C 0.91260 0.41588 0.58320
 C545 C 0.33291 -0.17755 0.66418
 C546 C 0.34898 -0.16184 0.64815
 C547 C 0.36768 -0.14290 0.62985
 C548 C 0.38344 -0.12617 0.61461
 C549 C 0.40150 -0.10585 0.59719
 C550 C 0.41647 -0.08784 0.58265
 C551 C 0.33408 0.32343 0.16616
 C552 C 0.35017 0.33917 0.15014
 C553 C 0.36889 0.35808 0.13178
 C554 C 0.38468 0.37472 0.11643
 C555 C 0.40280 0.39486 0.09881
 C556 C 0.41783 0.41268 0.08406
 C557 C 0.82702 0.16842 -0.16924
 C558 C 0.84253 0.15222 -0.15312
 C559 C 0.86100 0.13334 -0.13442
 C560 C 0.87714 0.11739 -0.11866
 C561 C 0.89660 0.09900 -0.10047
 C562 C 0.91380 0.08367 -0.08522
 C563 C 0.82629 0.66755 0.33160
 C564 C 0.84177 0.65122 0.34759
 C565 C 0.86023 0.63223 0.36615
 C566 C 0.87639 0.61624 0.38180
 C567 C 0.89591 0.59786 0.39989
 C568 C 0.91318 0.58258 0.41509
 C569 C 0.32989 0.17399 0.33509
 C570 C 0.34642 0.15873 0.35113
 C571 C 0.36565 0.14033 0.36947
 C572 C 0.38183 0.12408 0.38481
 C573 C 0.40038 0.10436 0.40243
 C574 C 0.41572 0.08684 0.41721
 C575 C 0.33089 0.67412 -0.16322
 C576 C 0.34750 0.65907 -0.14712
 C577 C 0.36681 0.64083 -0.12876
 C578 C 0.38307 0.62465 -0.11346
 C579 C 0.40165 0.60492 -0.09595
 C580 C 0.41701 0.58734 -0.08132
 C581 C 1.17418 -0.16736 -0.16871
 C582 C 1.15874 -0.15104 -0.15269
 C583 C 1.14031 -0.13208 -0.13411
 C584 C 1.12414 -0.11612 -0.11845
 C585 C 1.10459 -0.09779 -0.10036
 C586 C 1.08726 -0.08256 -0.08520
 C587 C 1.17443 0.33168 0.33285
 C588 C 1.15879 0.34791 0.34883
 C589 C 1.14016 0.36681 0.36732
 C590 C 1.12387 0.38276 0.38291
 C591 C 1.10422 0.40113 0.40089
 C592 C 1.08685 0.41643 0.41597
 C593 C 0.66895 -0.17374 0.33638
 C594 C 0.65222 -0.15866 0.35232
 C595 C 0.63274 -0.14043 0.37053
 C596 C 0.61637 -0.12427 0.38574
 C597 C 0.59766 -0.10460 0.40320
 C598 C 0.58223 -0.08708 0.41784
 C599 C 0.66994 0.32731 -0.16513
 C600 C 0.65339 0.34249 -0.14906
 C601 C 0.63411 0.36076 -0.13064
 C602 C 0.61787 0.37688 -0.11521
 C603 C 0.59925 0.39643 -0.09748
 C604 C 0.58383 0.41379 -0.08260
 C605 C 1.17453 0.16798 -0.16897
 C606 C 1.15901 0.15169 -0.15293
 C607 C 1.14049 0.13275 -0.13434
 C608 C 1.12427 0.11680 -0.11866
 C609 C 1.10468 0.09847 -0.10055
 C610 C 1.08734 0.08323 -0.08536
 C611 C 1.17406 0.66819 0.33262
 C612 C 1.15846 0.65192 0.34862
 C613 C 1.13988 0.63295 0.36716
 C614 C 1.12365 0.61692 0.38278
 C615 C 1.10407 0.59845 0.40081
 C616 C 1.08677 0.58306 0.41593
 C617 C 0.66869 0.17381 0.33581
 C618 C 0.65200 0.15873 0.35184
 C619 C 0.63259 0.14050 0.37014
 C620 C 0.61627 0.12434 0.38543
 C621 C 0.59762 0.10465 0.40296
 C622 C 0.58223 0.08711 0.41765
 C623 C 0.66935 0.67418 -0.16486
 C624 C 0.65280 0.65896 -0.14878
 C625 C 0.63356 0.64060 -0.13038
 C626 C 0.61736 0.62438 -0.11498
 C627 C 0.59881 0.60468 -0.09730
 C628 C 0.58347 0.58718 -0.08246
 C629 C 0.82580 -0.16766 -0.16830
 C630 C 0.84143 -0.15143 -0.15230
 C631 C 0.86006 -0.13252 -0.13376
 C632 C 0.87634 -0.11657 -0.11813
 C633 C 0.89598 -0.09820 -0.10008
 C634 C 0.91334 -0.08290 -0.08495
 C635 C 0.82586 0.33234 0.33111
 C636 C 0.84133 0.34861 0.34720
 C637 C 0.85980 0.36750 0.36586
 C638 C 0.87599 0.38341 0.38160
 C639 C 0.89556 0.40168 0.39976
 C640 C 0.91289 0.41686 0.41501
 C641 C 0.32951 -0.17385 0.33492
 C642 C 0.34601 -0.15858 0.35101
 C643 C 0.36522 -0.14018 0.36943
 C644 C 0.38141 -0.12395 0.38482
 C645 C 0.39999 -0.10426 0.40250
 C646 C 0.41538 -0.08679 0.41731
 C647 C 0.33078 0.32587 -0.16324
 C648 C 0.34740 0.34103 -0.14722
 C649 C 0.36673 0.35936 -0.12892
 C650 C 0.38300 0.37560 -0.11364
 C651 C 0.40161 0.39536 -0.09613
 C652 C 0.41699 0.41294 -0.08147
 C653 C 1.17316 -0.16803 0.16758
 C654 C 1.15777 -0.15183 0.15133
 C655 C 1.13945 -0.13294 0.13249
 C656 C 1.12343 -0.11699 0.11662
 C657 C 1.10410 -0.09858 0.09830
 C658 C 1.08701 -0.08321 0.08297
 C659 C 1.17220 0.33173 0.66816
 C660 C 1.15679 0.34798 0.65202
 C661 C 1.13842 0.36689 0.63329
 C662 C 1.12234 0.38283 0.61749
 C663 C 1.10293 0.40117 0.59925
 C664 C 1.08573 0.41644 0.58395
 C665 C 0.66599 -0.17622 0.66515
 C666 C 0.64986 -0.16050 0.64919
 C667 C 0.63106 -0.14162 0.63091
 C668 C 0.61520 -0.12501 0.61562
 C669 C 0.59699 -0.10492 0.59807
 C670 C 0.58189 -0.08715 0.58337
 C671 C 0.66704 0.32271 0.16395
 C672 C 0.65095 0.33843 0.14798
 C673 C 0.63220 0.35738 0.12976
 C674 C 0.61640 0.37411 0.11459
 C675 C 0.59828 0.39440 0.09726
 C676 C 0.58325 0.41240 0.08280
 C677 C 0.82724 0.16767 0.16707
 C678 C 0.84265 0.15144 0.15090
 C679 C 0.86102 0.13258 0.13216
 C680 C 0.87713 0.11668 0.11636
 C681 C 0.89661 0.09840 0.09816
 C682 C 0.91387 0.08318 0.08291
 C683 C 0.82639 0.66811 0.66725
 C684 C 0.84176 0.65180 0.65111
 C685 C 0.86008 0.63280 0.63240
 C686 C 0.87612 0.61677 0.61664
 C687 C 0.89549 0.59830 0.59846
 C688 C 0.91264 0.58291 0.58323
 C689 C 0.33249 0.17675 0.66474
 C690 C 0.34856 0.16113 0.64864
 C691 C 0.36728 0.14231 0.63025
 C692 C 0.38307 0.12571 0.61491
 C693 C 0.40120 0.10558 0.59738
 C694 C 0.41625 0.08774 0.58274
 C695 C 0.33370 0.67655 0.16600
 C696 C 0.34979 0.66079 0.15003
 C697 C 0.36853 0.64187 0.13172
 C698 C 0.38434 0.62524 0.11640
 C699 C 0.40249 0.60514 0.09881
 C700 C 0.41757 0.58737 0.08408
   
