data_POSCAR
  _audit_creation_date              2014-09-24
  _audit_creation_method            'ToBaCCo'
  _symmetry_space_group_name_H-M    'P1'
  _symmetry_Int_Tables_number       1
  _symmetry_cell_setting            triclinic
  loop_
  _symmetry_equiv_pos_as_xyz
 x,y,z
_cell_length_a 42.2847
_cell_length_b 42.0324
_cell_length_c 36.6278
_cell_angle_alpha 90.026600
_cell_angle_beta 89.743400
_cell_angle_gamma 90.083100
loop_
  _atom_site_label
  _atom_site_type_symbol
  _atom_site_fract_x
  _atom_site_fract_y
  _atom_site_fract_z
O1 O 0.36294 0.39250 0.03269
 O2 O 0.39683 0.34561 -0.04383
 O3 O 0.35867 0.39409 -0.03901
 O4 O 0.40432 0.34663 0.02609
 O5 O 0.36408 0.31338 0.03234
 O6 O 0.31907 0.36015 -0.03488
 O7 O 0.35742 0.31151 -0.03806
 O8 O 0.32249 0.35921 0.03533
 Cu9 Cu 0.38456 0.37328 -0.00642
 Cu10 Cu 0.33683 0.33267 -0.00090
 C11 C 0.33666 0.38386 0.04663
 C12 C 0.38301 0.32005 -0.05344
 C13 C 0.33113 0.38531 -0.04835
 C14 C 0.39214 0.32186 0.04000
 O15 O 0.60417 0.64233 -0.02374
 O16 O 0.65405 0.60902 0.04955
 O17 O 0.61093 0.65284 0.04679
 O18 O 0.64967 0.59865 -0.01845
 O19 O 0.67856 0.63871 -0.03862
 O20 O 0.64763 0.68889 0.03517
 O21 O 0.69185 0.64213 0.03243
 O22 O 0.63820 0.68170 -0.03158
 Cu23 Cu 0.62566 0.62220 0.01447
 Cu24 Cu 0.66850 0.66600 -0.00067
 C25 C 0.61217 0.66827 -0.03923
 C26 C 0.68236 0.61886 0.05174
 C27 C 0.62275 0.68026 0.05202
 C28 C 0.67045 0.60963 -0.04023
 O29 O 0.65525 0.38885 0.95745
 O30 O 0.61291 0.34298 1.02931
 O31 O 0.65172 0.39083 1.02941
 O32 O 0.61446 0.34167 0.95845
 O33 O 0.65501 0.30855 0.95957
 O34 O 0.69228 0.35798 1.03055
 O35 O 0.65282 0.30925 1.03076
 O36 O 0.69479 0.35481 0.96071
 Cu37 Cu 0.62963 0.36957 0.99333
 Cu38 Cu 0.67761 0.32918 0.99595
 C39 C 0.68248 0.37951 0.94699
 C40 C 0.62572 0.31796 1.04190
 C41 C 0.67854 0.38300 1.04202
 C42 C 0.62835 0.31685 0.94697
 O43 O 0.34678 0.59864 0.96811
 O44 O 0.39417 0.64067 1.03740
 O45 O 0.34649 0.60228 1.03921
 O46 O 0.39499 0.63755 0.96587
 O47 O 0.36363 0.67954 0.96543
 O48 O 0.31212 0.64133 1.03357
 O49 O 0.36059 0.68085 1.03563
 O50 O 0.31597 0.64082 0.96267
 Cu51 Cu 0.37392 0.61567 1.00284
 Cu52 Cu 0.33471 0.66470 0.99922
 C53 C 0.32362 0.61278 0.95331
 C54 C 0.38528 0.66788 1.04847
 C55 C 0.32062 0.61542 1.04847
 C56 C 0.38784 0.66489 0.95369
 O57 O 0.03261 0.35593 0.42560
 O58 O -0.02812 0.40449 0.38021
 O59 O -0.02935 0.35586 0.42375
 O60 O 0.03409 0.40338 0.38062
 O61 O 0.03400 0.37087 0.33330
 O62 O -0.02851 0.32290 0.37696
 O63 O -0.02754 0.37178 0.33307
 O64 O 0.03294 0.32323 0.37846
 Cu65 Cu 0.00223 0.38326 0.40721
 Cu66 Cu 0.00273 0.34395 0.35074
 C67 C 0.04327 0.33132 0.40965
 C68 C -0.03838 0.39630 0.34905
 C69 C -0.03986 0.33115 0.40774
 C70 C 0.04509 0.39502 0.34972
 O71 O 0.03726 0.65820 0.60248
 O72 O -0.02568 0.60631 0.63816
 O73 O -0.02371 0.65404 0.59413
 O74 O 0.03540 0.61086 0.64892
 O75 O 0.02639 0.64335 0.69516
 O76 O -0.02936 0.68859 0.63897
 O77 O -0.03391 0.64011 0.68338
 O78 O 0.03099 0.69076 0.64940
 Cu79 Cu 0.00679 0.62893 0.61639
 Cu80 Cu -0.00221 0.66900 0.67136
 C81 C 0.04466 0.68330 0.61970
 C82 C -0.04090 0.61462 0.66654
 C83 C -0.03643 0.67904 0.60711
 C84 C 0.04057 0.61949 0.68165
 O85 O 0.97270 0.65701 0.38579
 O86 O 1.03494 0.60849 0.34207
 O87 O 1.03457 0.65458 0.38915
 O88 O 0.97309 0.60988 0.34035
 O89 O 0.97641 0.64358 0.29419
 O90 O 1.03624 0.68968 0.34449
 O91 O 1.03731 0.64299 0.29664
 O92 O 0.97512 0.69111 0.33989
 Cu93 Cu 1.00362 0.62907 0.36895
 Cu94 Cu 1.00666 0.67034 0.31429
 C95 C 0.96324 0.68215 0.37003
 C96 C 1.04646 0.61743 0.31166
 C97 C 1.04575 0.68001 0.37547
 C98 C 0.96444 0.61895 0.30889
 O99 O 0.95545 0.33735 0.61149
 O100 O 1.02268 0.38769 0.63935
 O101 O 1.01219 0.33413 0.59870
 O102 O 0.95867 0.38788 0.64784
 O103 O 0.96605 0.36026 0.69837
 O104 O 1.02486 0.31074 0.65049
 O105 O 1.02631 0.36103 0.69102
 O106 O 0.96334 0.30739 0.66030
 Cu107 Cu 0.98797 0.36572 0.62002
 Cu108 Cu 0.99567 0.33183 0.68005
 C109 C 0.94875 0.31320 0.63083
 C110 C 1.03543 0.38340 0.67034
 C111 C 1.02735 0.31290 0.61596
 C112 C 0.95253 0.38271 0.68129
 O113 O 0.39478 0.03955 0.35732
 O114 O 0.34875 -0.02111 0.40760
 O115 O 0.39688 -0.02237 0.36358
 O116 O 0.34817 0.04110 0.40350
 O117 O 0.31437 0.03675 0.35789
 O118 O 0.36409 -0.02582 0.31700
 O119 O 0.31567 -0.02443 0.36125
 O120 O 0.36150 0.03556 0.31125
 Cu121 Cu 0.37549 0.00970 0.38765
 Cu122 Cu 0.33564 0.00520 0.33215
 C123 C 0.38593 0.04780 0.32558
 C124 C 0.32425 -0.03303 0.39288
 C125 C 0.38886 -0.03494 0.33349
 C126 C 0.32287 0.04948 0.38774
 O127 O 0.59961 0.02667 0.61897
 O128 O 0.64439 -0.03991 0.57860
 O129 O 0.59652 -0.03632 0.62174
 O130 O 0.64986 0.02085 0.57618
 O131 O 0.67926 0.02310 0.62584
 O132 O 0.62822 -0.03687 0.66945
 O133 O 0.67679 -0.03858 0.62568
 O134 O 0.62951 0.02494 0.66814
 Cu135 Cu 0.61910 -0.00673 0.59425
 Cu136 Cu 0.65647 -0.00680 0.65216
 C137 C 0.60665 0.03694 0.65056
 C138 C 0.66865 -0.05023 0.59507
 C139 C 0.60390 -0.04711 0.65296
 C140 C 0.67385 0.03135 0.59315
 O141 O 0.38689 0.96409 0.65923
 O142 O 0.34131 1.02511 0.61030
 O143 O 0.38707 1.02623 0.65731
 O144 O 0.34155 0.96293 0.61207
 O145 O 0.30599 0.96459 0.65646
 O146 O 0.35244 1.02661 0.70266
 O147 O 0.30625 1.02596 0.65517
 O148 O 0.35197 0.96530 0.70426
 Cu149 Cu 0.36771 0.99452 0.63018
 Cu150 Cu 0.32563 0.99572 0.68415
 C151 C 0.37726 0.95447 0.69021
 C152 C 0.31592 1.03580 0.62430
 C153 C 0.37770 1.03690 0.68794
 C154 C 0.31592 0.95322 0.62642
 O155 O 0.66291 1.03976 0.38553
 O156 O 0.61326 0.97204 0.35730
 O157 O 0.66521 0.97955 0.39693
 O158 O 0.61391 1.03440 0.34591
 O159 O 0.64440 1.02856 0.29727
 O160 O 0.69242 0.96957 0.34659
 O161 O 0.64128 0.96742 0.30660
 O162 O 0.69447 1.03089 0.33854
 Cu163 Cu 0.63545 1.00655 0.37622
 Cu164 Cu 0.67103 0.99830 0.31730
 C165 C 0.68760 1.04658 0.36723
 C166 C 0.61834 0.95869 0.32670
 C167 C 0.68778 0.96554 0.38054
 C168 C 0.62117 1.04175 0.31329
 C169 C 0.84680 0.80017 0.47317
 C170 C 0.84469 0.79838 0.51169
 C171 C 0.82123 0.81602 0.52970
 C172 C 0.80038 0.83589 0.51066
 C173 C 0.80234 0.83752 0.47192
 C174 C 0.82537 0.81913 0.45381
 H175 H 0.82757 0.82057 0.42435
 H176 H 0.81925 0.81443 0.55917
 C177 C 0.15773 0.19945 0.49166
 C178 C 0.15325 0.19521 0.53001
 C179 C 0.17094 0.17153 0.54789
 C180 C 0.19254 0.15226 0.52902
 C181 C 0.19619 0.15614 0.49100
 C182 C 0.17916 0.17976 0.47293
 H183 H 0.18214 0.18235 0.44364
 H184 H 0.16777 0.16776 0.57694
 C185 C 0.15437 0.80460 0.51107
 C186 C 0.15787 0.80477 0.47247
 C187 C 0.17993 0.82561 0.45650
 C188 C 0.19842 0.84611 0.47780
 C189 C 0.19558 0.84502 0.51623
 C190 C 0.17377 0.82423 0.53240
 H191 H 0.17096 0.82431 0.56185
 H192 H 0.18259 0.82622 0.42705
 C193 C 0.83700 0.19998 0.51751
 C194 C 0.83369 0.20624 0.47968
 C195 C 0.80926 0.19117 0.46041
 C196 C 0.78804 0.17032 0.47785
 C197 C 0.79152 0.16401 0.51577
 C198 C 0.81580 0.17931 0.53500
 H199 H 0.81889 0.17438 0.56382
 H200 H 0.80647 0.19598 0.43153
 C201 C 0.48497 0.81669 0.77104
 C202 C 0.51813 0.82017 0.77393
 C203 C 0.53479 0.80031 0.79786
 C204 C 0.51903 0.77847 0.82054
 C205 C 0.48578 0.77571 0.81819
 C206 C 0.46927 0.79424 0.79284
 H207 H 0.44366 0.79290 0.79207
 H208 H 0.56019 0.80314 0.80033
 C209 C 0.48883 0.18901 0.24169
 C210 C 0.52212 0.18908 0.23939
 C211 C 0.53734 0.21064 0.21601
 C212 C 0.52001 0.23183 0.19411
 C213 C 0.48646 0.23138 0.19616
 C214 C 0.47144 0.21027 0.22035
 H215 H 0.44582 0.20932 0.22139
 H216 H 0.56295 0.21047 0.21439
 C217 C 0.52006 0.17038 0.76989
 C218 C 0.48756 0.17564 0.76346
 C219 C 0.47203 0.20072 0.78117
 C220 C 0.48778 0.22006 0.80652
 C221 C 0.52013 0.21410 0.81413
 C222 C 0.53598 0.18991 0.79493
 H223 H 0.56067 0.18529 0.80073
 H224 H 0.44701 0.20435 0.77627
 C225 C 0.51351 0.82909 0.22375
 C226 C 0.48039 0.83179 0.21993
 C227 C 0.46410 0.80942 0.19865
 C228 C 0.48008 0.78478 0.18054
 C229 C 0.51307 0.78138 0.18560
 C230 C 0.52930 0.80351 0.20729
 H231 H 0.55484 0.80197 0.20944
 H232 H 0.43884 0.81209 0.19470
 C233 C 0.76635 0.49044 0.79902
 C234 C 0.77080 0.52345 0.80600
 C235 C 0.79680 0.53895 0.78974
 C236 C 0.81839 0.52282 0.76732
 C237 C 0.81315 0.49040 0.75945
 C238 C 0.78714 0.47475 0.77499
 H239 H 0.78418 0.44946 0.77010
 H240 H 0.80111 0.56384 0.79572
 C241 C 0.22711 0.47620 0.18878
 C242 C 0.23128 0.50931 0.19415
 C243 C 0.21152 0.52536 0.21889
 C244 C 0.18718 0.50944 0.23746
 C245 C 0.18295 0.47636 0.23224
 C246 C 0.20331 0.46010 0.20823
 H247 H 0.19971 0.43491 0.20336
 H248 H 0.21394 0.55090 0.22214
 C249 C 0.78079 0.51031 0.18809
 C250 C 0.78639 0.47738 0.18232
 C251 C 0.81012 0.46238 0.20288
 C252 C 0.82964 0.47951 0.22671
 C253 C 0.82444 0.51243 0.23141
 C254 C 0.79966 0.52724 0.21281
 H255 H 0.79621 0.55266 0.21600
 H256 H 0.81418 0.43708 0.19951
 C257 C 0.21127 0.50903 0.82567
 C258 C 0.20963 0.47528 0.82424
 C259 C 0.18802 0.46083 0.80044
 C260 C 0.16801 0.47890 0.77836
 C261 C 0.17126 0.51228 0.77772
 C262 C 0.19281 0.52702 0.80138
 H263 H 0.19398 0.55278 0.80219
 H264 H 0.18571 0.43514 0.80011
 C265 C 0.33805 0.40904 0.10841
 C266 C 0.32177 0.40250 0.07599
 C267 C 0.29010 0.41189 0.07250
 C268 C 0.27463 0.42766 0.10120
 C269 C 0.29071 0.43306 0.13442
 C270 C 0.32249 0.42385 0.13766
 C271 C 0.27472 0.44770 0.16364
 C272 C 0.24369 0.45891 0.15914
 C273 C 0.22809 0.45376 0.12596
 C274 C 0.24330 0.43794 0.09732
 H275 H 0.27757 0.40694 0.04734
 H276 H 0.33527 0.42806 0.16278
 H277 H 0.28647 0.45082 0.18962
 H278 H 0.23068 0.43407 0.07201
 H279 H 0.36243 0.40166 0.11152
 H280 H 0.20407 0.46206 0.12228
 C281 C 0.73661 0.59866 0.06382
 C282 C 0.70497 0.60173 0.07510
 C283 C 0.69471 0.58618 0.10698
 C284 C 0.71584 0.56751 0.12723
 C285 C 0.74731 0.56350 0.11476
 C286 C 0.75753 0.57943 0.08324
 C287 C 0.76806 0.54380 0.13414
 C288 C 0.75803 0.52886 0.16638
 C289 C 0.72734 0.53427 0.17967
 C290 C 0.70611 0.55282 0.15978
 H291 H 0.67036 0.58861 0.11594
 H292 H 0.78161 0.57684 0.07346
 H293 H 0.79216 0.54047 0.12463
 H294 H 0.68225 0.55599 0.17005
 H295 H 0.74487 0.61020 0.03911
 H296 H 0.71973 0.52367 0.20519
 C297 C 0.73343 0.39086 0.91560
 C298 C 0.70091 0.39726 0.91915
 C299 C 0.68696 0.42007 0.89608
 C300 C 0.70552 0.43630 0.86993
 C301 C 0.73825 0.42974 0.86736
 C302 C 0.75188 0.40696 0.89011
 C303 C 0.75720 0.44660 0.84273
 C304 C 0.74424 0.47034 0.82053
 C305 C 0.71151 0.47602 0.82184
 C306 C 0.69227 0.45918 0.84654
 H307 H 0.66189 0.42507 0.89837
 H308 H 0.77693 0.40173 0.88841
 H309 H 0.78248 0.44224 0.84193
 H310 H 0.66723 0.46450 0.84786
 H311 H 0.74488 0.37354 0.93296
 H312 H 0.70115 0.49427 0.80483
 C313 C 0.30750 0.60611 0.88858
 C314 C 0.30520 0.59645 0.92511
 C315 C 0.28467 0.57163 0.93480
 C316 C 0.26620 0.55661 0.90808
 C317 C 0.26902 0.56599 0.87109
 C318 C 0.28979 0.59075 0.86164
 C319 C 0.25097 0.55049 0.84429
 C320 C 0.22988 0.52603 0.85404
 C321 C 0.22638 0.51786 0.89107
 C322 C 0.24471 0.53264 0.91777
 H323 H 0.28269 0.56449 0.96317
 H324 H 0.29216 0.59837 0.83350
 H325 H 0.25355 0.55718 0.81584
 H326 H 0.24193 0.52545 0.94601
 H327 H 0.32323 0.62538 0.88091
 H328 H 0.20961 0.49971 0.89929
 C329 C 0.08568 0.32388 0.45663
 C330 C 0.06791 0.31181 0.42735
 C331 C 0.07373 0.28073 0.41496
 C332 C 0.09642 0.26167 0.43203
 C333 C 0.11439 0.27402 0.46128
 C334 C 0.10896 0.30526 0.47322
 C335 C 0.13648 0.25447 0.47897
 C336 C 0.13900 0.22214 0.46944
 C337 C 0.12157 0.21045 0.43973
 C338 C 0.10075 0.23011 0.42092
 H339 H 0.06000 0.27104 0.39263
 H340 H 0.12226 0.31505 0.49581
 H341 H 0.15011 0.26370 0.50163
 H342 H 0.08716 0.22028 0.39857
 H343 H 0.08169 0.34781 0.46660
 H344 H 0.12320 0.18564 0.43190
 C345 C 0.10032 0.70197 0.61536
 C346 C 0.06875 0.70448 0.60438
 C347 C 0.06012 0.72702 0.57811
 C348 C 0.08306 0.74700 0.56251
 C349 C 0.11504 0.74416 0.57326
 C350 C 0.12340 0.72168 0.59984
 C351 C 0.13811 0.76356 0.55691
 C352 C 0.12965 0.78556 0.52983
 C353 C 0.09772 0.78888 0.52016
 C354 C 0.07462 0.76960 0.53619
 H355 H 0.03560 0.72884 0.56977
 H356 H 0.14776 0.71922 0.60842
 H357 H 0.16274 0.76105 0.56452
 H358 H 0.05021 0.77221 0.52782
 H359 H 0.10710 0.68456 0.63566
 H360 H 0.09079 0.80608 0.49970
 C361 C 0.90642 0.69133 0.38319
 C362 C 0.93795 0.70110 0.38660
 C363 C 0.94516 0.72943 0.40497
 C364 C 0.92087 0.74788 0.42035
 C365 C 0.88899 0.73818 0.41637
 C366 C 0.88202 0.70987 0.39773
 C367 C 0.86470 0.75652 0.43188
 C368 C 0.87202 0.78354 0.45272
 C369 C 0.90363 0.79312 0.45644
 C370 C 0.92790 0.77560 0.44006
 H371 H 0.96963 0.73683 0.40758
 H372 H 0.85778 0.70198 0.39466
 H373 H 0.84027 0.74899 0.42943
 H374 H 0.95216 0.78330 0.44349
 H375 H 0.90071 0.66951 0.36888
 H376 H 0.90948 0.81387 0.47261
 C377 C 0.89345 0.29326 0.62974
 C378 C 0.92481 0.29101 0.61765
 C379 C 0.93310 0.26892 0.59063
 C380 C 0.90990 0.24957 0.57485
 C381 C 0.87803 0.25251 0.58628
 C382 C 0.87012 0.27406 0.61415
 C383 C 0.85450 0.23480 0.56866
 C384 C 0.86241 0.21464 0.53947
 C385 C 0.89426 0.21058 0.52959
 C386 C 0.91786 0.22805 0.54705
 H387 H 0.95745 0.26745 0.58132
 H388 H 0.84583 0.27658 0.62323
 H389 H 0.82989 0.23786 0.57632
 H390 H 0.94219 0.22538 0.53816
 H391 H 0.88694 0.31045 0.65049
 H392 H 0.90066 0.19481 0.50737
 C393 C 0.40323 0.07188 0.26657
 C394 C 0.40412 0.07179 0.30492
 C395 C 0.42203 0.09498 0.32321
 C396 C 0.43851 0.11833 0.30339
 C397 C 0.43776 0.11793 0.26478
 C398 C 0.42014 0.09457 0.24665
 C399 C 0.45444 0.14104 0.24494
 C400 C 0.47148 0.16482 0.26315
 C401 C 0.47137 0.16571 0.30143
 C402 C 0.45534 0.14238 0.32145
 H403 H 0.42255 0.09527 0.35280
 H404 H 0.41925 0.09399 0.21710
 H405 H 0.45421 0.14064 0.21533
 H406 H 0.45581 0.14335 0.35100
 H407 H 0.38964 0.05415 0.25195
 H408 H 0.48353 0.18456 0.31579
 C409 C 0.57165 0.08473 0.64511
 C410 C 0.58827 0.06318 0.66715
 C411 C 0.58770 0.06714 0.70528
 C412 C 0.57086 0.09235 0.72123
 C413 C 0.55487 0.11436 0.69876
 C414 C 0.55532 0.11028 0.66075
 C415 C 0.53878 0.14009 0.71470
 C416 C 0.53741 0.14345 0.75284
 C417 C 0.55317 0.12129 0.77492
 C418 C 0.56987 0.09604 0.75927
 H419 H 0.60020 0.05046 0.72257
 H420 H 0.54302 0.12681 0.64313
 H421 H 0.52772 0.15770 0.69744
 H422 H 0.58192 0.07934 0.77691
 H423 H 0.57182 0.08219 0.61568
 H424 H 0.55244 0.12352 0.80437
 C425 C 0.39904 0.93349 0.74839
 C426 C 0.39591 0.93083 0.71039
 C427 C 0.41092 0.90577 0.69184
 C428 C 0.42880 0.88334 0.71119
 C429 C 0.43263 0.88678 0.74935
 C430 C 0.41761 0.91187 0.76769
 C431 C 0.45131 0.86499 0.76854
 C432 C 0.46555 0.83943 0.75024
 C433 C 0.46043 0.83520 0.71277
 C434 C 0.44265 0.85736 0.69319
 H435 H 0.40820 0.90345 0.66253
 H436 H 0.42013 0.91471 0.79694
 H437 H 0.45472 0.86774 0.79770
 H438 H 0.43952 0.85403 0.66409
 H439 H 0.38768 0.95276 0.76304
 H440 H 0.47047 0.81493 0.69866
 C441 C 0.58343 0.91158 0.33873
 C442 C 0.59733 0.93296 0.31393
 C443 C 0.59130 0.92956 0.27647
 C444 C 0.57163 0.90509 0.26378
 C445 C 0.55852 0.88299 0.28875
 C446 C 0.56447 0.88653 0.32621
 C447 C 0.53974 0.85781 0.27575
 C448 C 0.53286 0.85546 0.23838
 C449 C 0.54552 0.87782 0.21396
 C450 C 0.56494 0.90232 0.22648
 H451 H 0.60161 0.94626 0.25722
 H452 H 0.55444 0.87001 0.34579
 H453 H 0.53051 0.84016 0.29454
 H454 H 0.57469 0.91912 0.20700
 H455 H 0.58782 0.91384 0.36773
 H456 H 0.54056 0.87604 0.18503
 C457 C 0.38483 0.26857 0.91254
 C458 C 0.39710 0.29932 0.91810
 C459 C 0.42352 0.30925 0.89751
 C460 C 0.43803 0.28835 0.87257
 C461 C 0.42603 0.25716 0.86830
 C462 C 0.39918 0.24770 0.88797
 C463 C 0.44162 0.23556 0.84532
 C464 C 0.46928 0.24454 0.82662
 C465 C 0.48018 0.27605 0.82951
 C466 C 0.46479 0.29774 0.85246
 H467 H 0.43313 0.33293 0.90135
 H468 H 0.38960 0.22393 0.88487
 H469 H 0.43309 0.21128 0.84328
 H470 H 0.47420 0.32162 0.85508
 H471 H 0.36451 0.26027 0.92793
 H472 H 0.50125 0.28351 0.81491
 C473 C 0.57181 0.66540 0.91088
 C474 C 0.59131 0.68353 0.93382
 C475 C 0.59178 0.71680 0.93021
 C476 C 0.57341 0.73187 0.90365
 C477 C 0.55471 0.71346 0.87971
 C478 C 0.55388 0.68024 0.88372
 C479 C 0.53739 0.72862 0.85211
 C480 C 0.53745 0.76197 0.84924
 C481 C 0.55574 0.77998 0.87361
 C482 C 0.57373 0.76508 0.90043
 H483 H 0.60646 0.73098 0.94818
 H484 H 0.53947 0.66576 0.86581
 H485 H 0.52435 0.71450 0.83259
 H486 H 0.58784 0.77953 0.91868
 H487 H 0.57115 0.63973 0.91329
 H488 H 0.55609 0.80571 0.87179
 C489 C 0.41740 0.66815 0.10557
 C490 C 0.40396 0.68479 0.07628
 C491 C 0.40861 0.71777 0.07347
 C492 C 0.42668 0.73403 0.09957
 C493 C 0.43936 0.71730 0.12963
 C494 C 0.43459 0.68434 0.13235
 C495 C 0.45653 0.73384 0.15640
 C496 C 0.46245 0.76655 0.15253
 C497 C 0.45014 0.78280 0.12228
 C498 C 0.43223 0.76676 0.09615
 H499 H 0.39864 0.73063 0.05059
 H500 H 0.44431 0.67107 0.15503
 H501 H 0.46474 0.72141 0.18039
 H502 H 0.42281 0.77994 0.07324
 H503 H 0.41404 0.64269 0.10810
 H504 H 0.45424 0.80809 0.11909
 C505 C 0.61662 0.26589 0.07282
 C506 C 0.60893 0.29826 0.06929
 C507 C 0.58522 0.31130 0.09181
 C508 C 0.56953 0.29219 0.11771
 C509 C 0.57715 0.25954 0.12047
 C510 C 0.60072 0.24666 0.09794
 C511 C 0.56103 0.24021 0.14559
 C512 C 0.53758 0.25304 0.16853
 C513 C 0.53085 0.28574 0.16647
 C514 C 0.54643 0.30509 0.14101
 H515 H 0.57929 0.33630 0.08949
 H516 H 0.60690 0.22170 0.09978
 H517 H 0.56638 0.21502 0.14693
 H518 H 0.54047 0.33011 0.13959
 H519 H 0.63467 0.25526 0.05568
 H520 H 0.51331 0.29626 0.18438
 C521 C 0.31248 0.08155 0.58112
 C522 C 0.29733 0.05977 0.60441
 C523 C 0.26427 0.06082 0.60838
 C524 C 0.24646 0.08329 0.58904
 C525 C 0.26202 0.10560 0.56633
 C526 C 0.29501 0.10456 0.56256
 C527 C 0.24432 0.12848 0.54762
 C528 C 0.21115 0.12844 0.54970
 C529 C 0.19585 0.10610 0.57217
 C530 C 0.21337 0.08382 0.59189
 H531 H 0.25240 0.04378 0.62596
 H532 H 0.30725 0.12135 0.54504
 H533 H 0.25637 0.14647 0.53164
 H534 H 0.20104 0.06684 0.60909
 H535 H 0.33794 0.08109 0.57772
 H536 H 0.17029 0.10585 0.57431
 C537 C 0.73809 0.07486 0.36411
 C538 C 0.70766 0.07104 0.37932
 C539 C 0.69815 0.09147 0.40788
 C540 C 0.71906 0.11422 0.42201
 C541 C 0.75025 0.11615 0.40821
 C542 C 0.75930 0.09689 0.37875
 C543 C 0.77221 0.13632 0.42510
 C544 C 0.76332 0.15458 0.45558
 C545 C 0.73150 0.15485 0.46678
 C546 C 0.70961 0.13444 0.45049
 H547 H 0.67458 0.08951 0.41949
 H548 H 0.78302 0.09837 0.36754
 H549 H 0.79666 0.13635 0.41601
 H550 H 0.68561 0.13373 0.46095
 H551 H 0.74614 0.05982 0.34192
 H552 H 0.72409 0.16939 0.48969
 C553 C 0.67553 0.90515 0.55034
 C554 C 0.68801 0.92452 0.57809
 C555 C 0.71963 0.92053 0.58859
 C556 C 0.73889 0.89818 0.57091
 C557 C 0.72619 0.87873 0.54305
 C558 C 0.69438 0.88221 0.53322
 C559 C 0.74579 0.85692 0.52477
 C560 C 0.77829 0.85571 0.53260
 C561 C 0.79046 0.87481 0.56075
 C562 C 0.77091 0.89563 0.57996
 H563 H 0.72961 0.93559 0.60966
 H564 H 0.68427 0.86768 0.51177
 H565 H 0.73617 0.84195 0.50341
 H566 H 0.78103 0.91042 0.60116
 H567 H 0.65118 0.90779 0.54183
 H568 H 0.81543 0.87425 0.56720
 C569 C 0.31971 0.92148 0.43664
 C570 C 0.30534 0.94288 0.41244
 C571 C 0.27266 0.94073 0.40616
 C572 C 0.25446 0.91738 0.42372
 C573 C 0.26924 0.89526 0.44714
 C574 C 0.30186 0.89759 0.45355
 C575 C 0.25112 0.87129 0.46379
 C576 C 0.21819 0.87028 0.45901
 C577 C 0.20374 0.89249 0.43587
 C578 C 0.22174 0.91571 0.41814
 H579 H 0.26136 0.95743 0.38783
 H580 H 0.31351 0.88101 0.47169
 H581 H 0.26264 0.85337 0.48016
 H582 H 0.21003 0.93253 0.40034
 H583 H 0.34489 0.92277 0.44175
 H584 H 0.17840 0.89189 0.43169
 C585 C 0.08270 0.41840 0.65909
 C586 C 0.06084 0.40456 0.68331
 C587 C 0.06388 0.40993 0.72093
 C588 C 0.08885 0.42819 0.73451
 C589 C 0.11165 0.44101 0.71025
 C590 C 0.10815 0.43627 0.67250
 C591 C 0.13766 0.45784 0.72431
 C592 C 0.14042 0.46263 0.76214
 C593 C 0.11717 0.45047 0.78575
 C594 C 0.09166 0.43330 0.77211
 H595 H 0.04680 0.39969 0.73975
 H596 H 0.12522 0.44610 0.65345
 H597 H 0.15594 0.46653 0.70608
 H598 H 0.07427 0.42376 0.79100
 H599 H 0.08066 0.41455 0.62996
 H600 H 0.11909 0.45397 0.81497
 C601 C 0.06801 0.59260 0.25528
 C602 C 0.07027 0.59770 0.29304
 C603 C 0.09532 0.58404 0.31258
 C604 C 0.11828 0.56578 0.29433
 C605 C 0.11531 0.56008 0.25641
 C606 C 0.09008 0.57355 0.23717
 C607 C 0.13777 0.54126 0.23829
 C608 C 0.16364 0.52885 0.25730
 C609 C 0.16729 0.53568 0.29451
 C610 C 0.14443 0.55351 0.31312
 H611 H 0.09731 0.58831 0.34168
 H612 H 0.08758 0.56959 0.20809
 H613 H 0.13539 0.53647 0.20933
 H614 H 0.14735 0.55799 0.34204
 H615 H 0.04876 0.60293 0.23990
 H616 H 0.18759 0.52676 0.30923
 C617 C 0.91568 0.43357 0.35277
 C618 C 0.93635 0.41500 0.33150
 C619 C 0.93200 0.41352 0.29352
 C620 C 0.90713 0.43013 0.27698
 C621 C 0.88592 0.44799 0.29876
 C622 C 0.89051 0.44971 0.33659
 C623 C 0.86038 0.46366 0.28237
 C624 C 0.85644 0.46277 0.24433
 C625 C 0.87788 0.44528 0.22289
 C626 C 0.90291 0.42896 0.23907
 H627 H 0.94798 0.39947 0.27683
 H628 H 0.87459 0.46344 0.35366
 H629 H 0.84335 0.47611 0.29923
 H630 H 0.91899 0.41549 0.22193
 H631 H 0.91852 0.43497 0.38210
 H632 H 0.87521 0.44430 0.19351
 C633 C 0.91537 0.57591 0.65524
 C634 C 0.93279 0.59463 0.67981
 C635 C 0.92456 0.59454 0.71698
 C636 C 0.89905 0.57611 0.72951
 C637 C 0.88105 0.55810 0.70443
 C638 C 0.88952 0.55802 0.66739
 C639 C 0.85473 0.54075 0.71676
 C640 C 0.84675 0.54030 0.75402
 C641 C 0.86528 0.55769 0.77881
 C642 C 0.89108 0.57559 0.76666
 H643 H 0.93811 0.60866 0.73615
 H644 H 0.87612 0.54420 0.64782
 H645 H 0.84010 0.52819 0.69730
 H646 H 0.90473 0.58907 0.78630
 H647 H 0.92132 0.57571 0.62645
 H648 H 0.85961 0.55756 0.80768
 C649 C 0.68892 0.55693 0.94227
 C650 C 0.68530 0.58954 0.93462
 C651 C 0.69831 0.60197 0.90222
 C652 C 0.71473 0.58218 0.87795
 C653 C 0.72092 0.55031 0.88767
 C654 C 0.70761 0.53776 0.91969
 C655 C 0.74027 0.53156 0.86517
 C656 C 0.75015 0.54276 0.83072
 C657 C 0.74178 0.57390 0.82036
 C658 C 0.72514 0.59372 0.84415
 H659 H 0.69488 0.62684 0.89538
 H660 H 0.71145 0.51311 0.92710
 H661 H 0.74768 0.50847 0.87486
 H662 H 0.72001 0.61792 0.83589
 H663 H 0.67911 0.54668 0.96700
 H664 H 0.74871 0.58323 0.79395
 C665 C 0.32816 0.42946 0.90828
 C666 C 0.31389 0.40360 0.92657
 C667 C 0.28186 0.39671 0.91963
 C668 C 0.26431 0.41560 0.89558
 C669 C 0.27908 0.44108 0.87698
 C670 C 0.31103 0.44773 0.88342
 C671 C 0.26151 0.45980 0.85272
 C672 C 0.22893 0.45442 0.84823
 C673 C 0.21447 0.42914 0.86717
 C674 C 0.23205 0.40970 0.89028
 H675 H 0.27023 0.37716 0.93360
 H676 H 0.32268 0.46733 0.86961
 H677 H 0.27302 0.47891 0.83786
 H678 H 0.22028 0.39041 0.90453
 H679 H 0.35275 0.43548 0.91285
 H680 H 0.18936 0.42469 0.86449
 C681 C 0.26953 0.61052 0.07946
 C682 C 0.30123 0.60097 0.07491
 C683 C 0.31300 0.57619 0.09690
 C684 C 0.29344 0.56105 0.12257
 C685 C 0.26122 0.56960 0.12526
 C686 C 0.24958 0.59457 0.10387
 C687 C 0.24117 0.55285 0.14907
 C688 C 0.25315 0.52830 0.17104
 C689 C 0.28569 0.52189 0.17039
 C690 C 0.30558 0.53753 0.14571
 H691 H 0.33753 0.56892 0.09451
 H692 H 0.22502 0.60171 0.10594
 H693 H 0.21616 0.55848 0.15012
 H694 H 0.33044 0.53135 0.14484
 H695 H 0.25970 0.62955 0.06314
 H696 H 0.29574 0.50466 0.18886
 C697 C 0.67556 0.42490 0.08830
 C698 C 0.69312 0.40216 0.06852
 C699 C 0.72574 0.39928 0.07543
 C700 C 0.74057 0.41908 0.10104
 C701 C 0.72241 0.44065 0.12195
 C702 C 0.68990 0.44335 0.11537
 C703 C 0.73707 0.45919 0.14896
 C704 C 0.77008 0.45825 0.15359
 C705 C 0.78798 0.43761 0.13135
 C706 C 0.77336 0.41783 0.10588
 H707 H 0.73990 0.38246 0.05999
 H708 H 0.67563 0.46006 0.13081
 H709 H 0.72263 0.47367 0.16674
 H710 H 0.78777 0.40180 0.08970
 H711 H 0.65044 0.42780 0.08369
 H712 H 0.81346 0.43654 0.13391
 C713 C 0.92892 0.68330 0.55399
 C714 C 0.94162 0.69622 0.58628
 C715 C 0.93194 0.72683 0.59736
 C716 C 0.91035 0.74428 0.57647
 C717 C 0.89690 0.73052 0.54497
 C718 C 0.90635 0.70004 0.53394
 C719 C 0.87452 0.74763 0.52480
 C720 C 0.86710 0.77926 0.53405
 C721 C 0.88114 0.79287 0.56511
 C722 C 0.90218 0.77540 0.58642
 H723 H 0.94177 0.73755 0.62175
 H724 H 0.89658 0.68931 0.50956
 H725 H 0.86300 0.73632 0.50190
 H726 H 0.91249 0.78644 0.61032
 H727 H 0.93582 0.65986 0.54458
 H728 H 0.87595 0.81719 0.57280
 C729 C 0.92092 0.32335 0.45638
 C730 C 0.93584 0.31300 0.42398
 C731 C 0.92586 0.28406 0.40815
 C732 C 0.90197 0.26569 0.42462
 C733 C 0.88698 0.27668 0.45675
 C734 C 0.89656 0.30556 0.47233
 C735 C 0.86324 0.25820 0.47330
 C736 C 0.85570 0.22785 0.45957
 C737 C 0.87049 0.21735 0.42732
 C738 C 0.89317 0.23622 0.40979
 H739 H 0.93706 0.27539 0.38340
 H740 H 0.88551 0.31419 0.49718
 H741 H 0.85139 0.26695 0.49759
 H742 H 0.90444 0.22737 0.38519
 H743 H 0.92784 0.34543 0.46937
 H744 H 0.86506 0.19411 0.41618
 C745 C 0.03872 0.28304 0.56048
 C746 C 0.04615 0.29119 0.59675
 C747 C 0.07235 0.27677 0.61352
 C748 C 0.09151 0.25556 0.59383
 C749 C 0.08241 0.24575 0.55854
 C750 C 0.05589 0.25954 0.54212
 C751 C 0.10079 0.22339 0.53960
 C752 C 0.13092 0.21482 0.55251
 C753 C 0.14015 0.22562 0.58732
 C754 C 0.12016 0.24482 0.60830
 H755 H 0.07891 0.28347 0.64108
 H756 H 0.04905 0.25291 0.51466
 H757 H 0.09225 0.21404 0.51394
 H758 H 0.12782 0.25250 0.63508
 H759 H 0.01863 0.29366 0.54688
 H760 H 0.16312 0.21964 0.59825
 C761 C 0.08265 0.68485 0.42638
 C762 C 0.06841 0.69761 0.39489
 C763 C 0.07673 0.72864 0.38382
 C764 C 0.09789 0.74692 0.40452
 C765 C 0.11235 0.73357 0.43564
 C766 C 0.10479 0.70244 0.44613
 C767 C 0.13339 0.75189 0.45639
 C768 C 0.13838 0.78420 0.44818
 C769 C 0.12388 0.79722 0.41710
 C770 C 0.10421 0.77864 0.39518
 H771 H 0.06582 0.73915 0.35997
 H772 H 0.11545 0.69194 0.47012
 H773 H 0.14510 0.74127 0.47964
 H774 H 0.09319 0.78935 0.37154
 H775 H 0.07696 0.66105 0.43568
 H776 H 0.12723 0.82205 0.41019
 C777 C 0.56678 0.90667 0.64832
 C778 C 0.58459 0.92759 0.67002
 C779 C 0.58512 0.92320 0.70804
 C780 C 0.56837 0.89803 0.72420
 C781 C 0.55135 0.87648 0.70205
 C782 C 0.55053 0.88114 0.66416
 C783 C 0.53556 0.85061 0.71816
 C784 C 0.53541 0.84681 0.75624
 C785 C 0.55211 0.86857 0.77801
 C786 C 0.56862 0.89384 0.76215
 H787 H 0.59862 0.93936 0.72503
 H788 H 0.53745 0.86499 0.64678
 H789 H 0.52380 0.83328 0.70109
 H790 H 0.58146 0.91017 0.77956
 H791 H 0.56618 0.90952 0.61894
 H792 H 0.55229 0.86599 0.80744
 C793 C 0.42774 0.92082 0.34028
 C794 C 0.40844 0.93947 0.31768
 C795 C 0.40780 0.93337 0.27998
 C796 C 0.42619 0.90884 0.26499
 C797 C 0.44493 0.88970 0.28809
 C798 C 0.44563 0.89595 0.32566
 C799 C 0.46248 0.86450 0.27328
 C800 C 0.46244 0.85884 0.23554
 C801 C 0.44410 0.87822 0.21271
 C802 C 0.42601 0.90296 0.22731
 H803 H 0.39322 0.94786 0.26230
 H804 H 0.46000 0.88162 0.34372
 H805 H 0.47562 0.84892 0.29115
 H806 H 0.41188 0.91744 0.20918
 H807 H 0.42855 0.92510 0.36942
 H808 H 0.44371 0.87406 0.18353
 C809 C 0.59838 0.06458 0.25621
 C810 C 0.60287 0.06639 0.29410
 C811 C 0.59074 0.09253 0.31353
 C812 C 0.57456 0.11685 0.29523
 C813 C 0.56951 0.11449 0.25717
 C814 C 0.58148 0.08824 0.23793
 C815 C 0.55263 0.13843 0.23905
 C816 C 0.54121 0.16485 0.25841
 C817 C 0.54744 0.16771 0.29582
 C818 C 0.56364 0.14368 0.31425
 H819 H 0.59461 0.09431 0.34271
 H820 H 0.57798 0.08614 0.20874
 H821 H 0.54809 0.13647 0.21002
 H822 H 0.56771 0.14612 0.34330
 H823 H 0.60765 0.04464 0.24080
 H824 H 0.53944 0.18841 0.31082
 C825 C 0.39961 0.05968 0.74518
 C826 C 0.39671 0.06100 0.70706
 C827 C 0.41241 0.08506 0.68746
 C828 C 0.43073 0.10781 0.70589
 C829 C 0.43426 0.10567 0.74421
 C830 C 0.41857 0.08159 0.76358
 C831 C 0.45328 0.12777 0.76254
 C832 C 0.46811 0.15245 0.74327
 C833 C 0.46341 0.15539 0.70556
 C834 C 0.44532 0.13284 0.68683
 H835 H 0.40993 0.08634 0.65804
 H836 H 0.42088 0.07976 0.79296
 H837 H 0.45640 0.12603 0.79184
 H838 H 0.44248 0.13515 0.65756
 H839 H 0.38775 0.04118 0.76065
 H840 H 0.47401 0.17494 0.69062
 C841 C 0.60950 0.73583 0.06998
 C842 C 0.60642 0.70300 0.07628
 C843 C 0.58599 0.69223 0.10403
 C844 C 0.56846 0.71404 0.12491
 C845 C 0.57086 0.74696 0.11733
 C846 C 0.59167 0.75762 0.09011
 C847 C 0.55234 0.76866 0.13705
 C848 C 0.53194 0.75800 0.16475
 C849 C 0.53091 0.72553 0.17347
 C850 C 0.54856 0.70359 0.15322
 H851 H 0.58366 0.66694 0.10924
 H852 H 0.59394 0.78277 0.08415
 H853 H 0.55373 0.79388 0.13096
 H854 H 0.54689 0.67854 0.15991
 H855 H 0.62492 0.74464 0.04855
 H856 H 0.51663 0.71718 0.19609
 C857 C 0.43611 0.28413 0.04971
 C858 C 0.41139 0.30235 0.06435
 C859 C 0.40622 0.30291 0.10215
 C860 C 0.42602 0.28548 0.12542
 C861 C 0.45070 0.26678 0.11045
 C862 C 0.45547 0.26619 0.07256
 C863 C 0.47027 0.24911 0.13361
 C864 C 0.46618 0.25059 0.17164
 C865 C 0.44172 0.26932 0.18627
 C866 C 0.42174 0.28657 0.16337
 H867 H 0.38731 0.31738 0.11336
 H868 H 0.47436 0.25214 0.06066
 H869 H 0.48865 0.23415 0.12209
 H870 H 0.40305 0.30083 0.17532
 H871 H 0.44034 0.28379 0.02051
 H872 H 0.43814 0.27060 0.21554
 C873 C 0.62780 0.29294 0.88486
 C874 C 0.61313 0.29739 0.91886
 C875 C 0.58353 0.28361 0.92583
 C876 C 0.56849 0.26545 0.89887
 C877 C 0.58276 0.26201 0.86408
 C878 C 0.61253 0.27569 0.85742
 C879 C 0.56694 0.24512 0.83657
 C880 C 0.53735 0.23109 0.84362
 C881 C 0.52438 0.23302 0.87897
 C882 C 0.53948 0.25058 0.90614
 H883 H 0.57243 0.28681 0.95234
 H884 H 0.62395 0.27309 0.83105
 H885 H 0.57738 0.24324 0.80956
 H886 H 0.52852 0.25243 0.93286
 H887 H 0.65071 0.30348 0.87929
 H888 H 0.50224 0.22131 0.88542
 C889 C 0.42157 0.66238 0.89753
 C890 C 0.40782 0.68022 0.92582
 C891 C 0.41262 0.71322 0.92714
 C892 C 0.43094 0.72842 0.90040
 C893 C 0.44382 0.71055 0.87117
 C894 C 0.43912 0.67750 0.87008
 C895 C 0.46120 0.72608 0.84371
 C896 C 0.46719 0.75884 0.84632
 C897 C 0.45474 0.77626 0.87567
 C898 C 0.43650 0.76124 0.90239
 H899 H 0.40235 0.72699 0.94925
 H900 H 0.44904 0.66340 0.84808
 H901 H 0.47019 0.71280 0.82053
 H902 H 0.42690 0.77523 0.92468
 H903 H 0.41804 0.63688 0.89616
 H904 H 0.45902 0.80162 0.87769
 C905 C 0.72356 0.95733 0.43334
 C906 C 0.70962 0.94540 0.40143
 C907 C 0.71757 0.91481 0.38908
 C908 C 0.73905 0.89606 0.40879
 C909 C 0.75390 0.90873 0.44013
 C910 C 0.74595 0.93936 0.45221
 C911 C 0.77600 0.89033 0.45925
 C912 C 0.78140 0.85836 0.44958
 C913 C 0.76631 0.84599 0.41849
 C914 C 0.74573 0.86479 0.39797
 H915 H 0.70660 0.90548 0.36460
 H916 H 0.75677 0.94928 0.47645
 H917 H 0.78826 0.90061 0.48233
 H918 H 0.73447 0.85461 0.37415
 H919 H 0.71773 0.98096 0.44307
 H920 H 0.77013 0.82152 0.41033
 C921 C 0.31182 0.90100 0.59481
 C922 C 0.29725 0.92880 0.60767
 C923 C 0.26490 0.93372 0.60153
 C924 C 0.24730 0.91131 0.58177
 C925 C 0.26196 0.88296 0.56959
 C926 C 0.29417 0.87793 0.57645
 C927 C 0.24437 0.86055 0.54988
 C928 C 0.21310 0.86719 0.53995
 C929 C 0.19863 0.89527 0.55208
 C930 C 0.21550 0.91705 0.57327
 H931 H 0.25380 0.95548 0.61099
 H932 H 0.30582 0.85651 0.56696
 H933 H 0.25524 0.83847 0.54114
 H934 H 0.20393 0.93868 0.58226
 H935 H 0.33680 0.89703 0.59935
 H936 H 0.17437 0.90040 0.54481
 C937 C 0.31611 0.10275 0.41630
 C938 C 0.30288 0.07386 0.40474
 C939 C 0.27073 0.06767 0.41099
 C940 C 0.25197 0.08992 0.42963
 C941 C 0.26525 0.11934 0.44054
 C942 C 0.29728 0.12561 0.43352
 C943 C 0.24647 0.14158 0.45917
 C944 C 0.21531 0.13390 0.46898
 C945 C 0.20232 0.10465 0.45834
 C946 C 0.22039 0.08294 0.43835
 H947 H 0.26070 0.04507 0.40260
 H948 H 0.30790 0.14788 0.44202
 H949 H 0.25635 0.16430 0.46733
 H950 H 0.20991 0.06046 0.43040
 H951 H 0.34097 0.10767 0.41173
 H952 H 0.17819 0.09866 0.46566
 C953 C 0.70894 0.04374 0.54041
 C954 C 0.69625 0.05258 0.57438
 C955 C 0.70589 0.08114 0.59078
 C956 C 0.72777 0.10106 0.57305
 C957 C 0.74132 0.09147 0.53944
 C958 C 0.73173 0.06278 0.52333
 C959 C 0.76368 0.11107 0.52211
 C960 C 0.77059 0.14148 0.53610
 C961 C 0.75688 0.15078 0.56949
 C962 C 0.73606 0.13057 0.58808
 H963 H 0.69587 0.08808 0.61690
 H964 H 0.74155 0.05527 0.49734
 H965 H 0.77484 0.10313 0.49705
 H966 H 0.72580 0.13839 0.61371
 H967 H 0.70179 0.02167 0.52757
 H968 H 0.76188 0.17401 0.58092
 C969 C 0.94366 0.59535 0.25144
 C970 C 0.94042 0.60049 0.28912
 C971 C 0.91436 0.58759 0.30787
 C972 C 0.89160 0.56970 0.28907
 C973 C 0.89562 0.56372 0.25132
 C974 C 0.92165 0.57674 0.23274
 C975 C 0.87354 0.54485 0.23281
 C976 C 0.84710 0.53264 0.25131
 C977 C 0.84238 0.53988 0.28829
 C978 C 0.86479 0.55783 0.30726
 H979 H 0.91161 0.59190 0.33690
 H980 H 0.92494 0.57258 0.20377
 H981 H 0.87677 0.53964 0.20403
 H982 H 0.86111 0.56253 0.33605
 H983 H 0.96368 0.60513 0.23665
 H984 H 0.82170 0.53101 0.30258
 C985 C 0.93339 0.40937 0.73799
 C986 C 0.92947 0.40291 0.70066
 C987 C 0.90334 0.41562 0.68217
 C988 C 0.88101 0.43420 0.70097
 C989 C 0.88552 0.44105 0.73842
 C990 C 0.91181 0.42861 0.75662
 C991 C 0.86345 0.45991 0.75713
 C992 C 0.83654 0.47124 0.73916
 C993 C 0.83165 0.46365 0.70234
 C994 C 0.85400 0.44565 0.68317
 H995 H 0.90001 0.41039 0.65345
 H996 H 0.91553 0.43351 0.78534
 H997 H 0.86687 0.46548 0.78576
 H998 H 0.85002 0.44043 0.65459
 H999 H 0.95347 0.39985 0.75263
 H1000 H 0.81076 0.47210 0.68839
 C1001 C 0.05982 0.60201 0.74273
 C1002 C 0.06303 0.60157 0.70452
 C1003 C 0.08773 0.58403 0.68854
 C1004 C 0.10905 0.56716 0.71051
 C1005 C 0.10518 0.56724 0.74892
 C1006 C 0.08054 0.58478 0.76472
 C1007 C 0.12592 0.54962 0.77082
 C1008 C 0.15056 0.53218 0.75481
 C1009 C 0.15502 0.53315 0.71686
 C1010 C 0.13424 0.55026 0.69479
 H1011 H 0.09059 0.58385 0.65910
 H1012 H 0.07728 0.58519 0.79408
 H1013 H 0.12270 0.54906 0.80020
 H1014 H 0.13783 0.55024 0.66548
 H1015 H 0.04090 0.61531 0.75562
 H1016 H 0.17445 0.52036 0.70433
 C1017 C 0.09192 0.43114 0.35509
 C1018 C 0.07160 0.41297 0.33309
 C1019 C 0.07754 0.41104 0.29534
 C1020 C 0.10354 0.42693 0.27978
 C1021 C 0.12428 0.44446 0.30232
 C1022 C 0.11819 0.44652 0.33991
 C1023 C 0.15071 0.45967 0.28690
 C1024 C 0.15596 0.45887 0.24900
 C1025 C 0.13512 0.44149 0.22682
 C1026 C 0.10926 0.42548 0.24207
 H1027 H 0.06190 0.39726 0.27807
 H1028 H 0.13375 0.46000 0.35756
 H1029 H 0.16727 0.47199 0.30438
 H1030 H 0.09359 0.41222 0.22435
 H1031 H 0.08793 0.43283 0.38426
 H1032 H 0.13874 0.44057 0.19754
   
