data_POSCAR
  _audit_creation_date              2014-09-24
  _audit_creation_method            'ToBaCCo'
  _symmetry_space_group_name_H-M    'P1'
  _symmetry_Int_Tables_number       1
  _symmetry_cell_setting            triclinic
  loop_
  _symmetry_equiv_pos_as_xyz
 x,y,z
_cell_length_a 35.6178
_cell_length_b 36.9666
_cell_length_c 42.0373
_cell_angle_alpha 90.061400
_cell_angle_beta 89.391400
_cell_angle_gamma 122.437900
loop_
  _atom_site_label
  _atom_site_type_symbol
  _atom_site_fract_x
  _atom_site_fract_y
  _atom_site_fract_z
O1 O 0.05449 0.48783 1.27425
 O2 O -0.04207 0.44209 1.22067
 O3 O -0.03222 0.44210 1.28206
 O4 O 0.04348 0.48450 1.21178
 O5 O 0.03889 0.42269 1.20856
 O6 O -0.02969 0.38379 1.28057
 O7 O -0.04559 0.38071 1.22137
 O8 O 0.05541 0.42888 1.26969
 Cu9 Cu 0.00647 0.47046 1.24758
 Cu10 Cu 0.00523 0.39833 1.24474
 C11 C 0.07142 0.46613 1.28112
 C12 C -0.06115 0.40299 1.21254
 C13 C -0.04424 0.40525 1.29300
 C14 C 0.05243 0.45965 1.19744
 O15 O 0.50548 0.54464 1.29784
 O16 O 0.51410 0.48200 1.23406
 O17 O 0.54257 0.50110 1.29205
 O18 O 0.47676 0.52499 1.24044
 O19 O 0.53799 0.58218 1.22170
 O20 O 0.60444 0.55942 1.27543
 O21 O 0.57669 0.53922 1.21696
 O22 O 0.56594 0.60316 1.27993
 Cu23 Cu 0.50372 0.50737 1.26792
 Cu24 Cu 0.57762 0.57691 1.24680
 C25 C 0.53362 0.58470 1.29968
 C26 C 0.54655 0.49972 1.21449
 C27 C 0.58454 0.52606 1.29289
 C28 C 0.49585 0.55732 1.22203
 O29 O 0.46106 0.96609 1.27476
 O30 O 0.47686 1.04154 1.21300
 O31 O 0.48268 1.04734 1.27711
 O32 O 0.44468 0.96134 1.21623
 O33 O 0.37599 0.94446 1.22521
 O34 O 0.41372 1.03080 1.28256
 O35 O 0.40846 1.02633 1.22040
 O36 O 0.39331 0.95058 1.28556
 Cu37 Cu 0.47322 1.00701 1.24541
 Cu38 Cu 0.39125 0.98667 1.25436
 C39 C 0.42499 0.94463 1.29046
 C40 C 0.44554 1.04636 1.20527
 C41 C 0.45431 1.05392 1.29003
 C42 C 0.40311 0.93786 1.21070
 O43 O 0.94414 0.44336 0.72664
 O44 O 1.04410 0.49747 0.77680
 O45 O 1.02998 0.48642 0.71610
 O46 O 0.95843 0.45464 0.78877
 O47 O 0.96129 0.39665 0.79226
 O48 O 1.02525 0.42452 0.71789
 O49 O 1.04516 0.43828 0.77676
 O50 O 0.94158 0.38270 0.73174
 Cu51 Cu 0.99376 0.47635 0.75189
 Cu52 Cu 0.99277 0.40435 0.75514
 C53 C 0.92617 0.40383 0.72028
 C54 C 1.06247 0.47729 0.78434
 C55 C 1.03982 0.46059 0.70458
 C56 C 0.94903 0.42065 0.80347
 O57 O 0.56770 0.52219 0.71888
 O58 O 0.53219 0.56482 0.78515
 O59 O 0.52444 0.56183 0.72278
 O60 O 0.57050 0.52123 0.78130
 O61 O 0.63513 0.58275 0.77860
 O62 O 0.58901 0.62353 0.72136
 O63 O 0.59744 0.62568 0.78221
 O64 O 0.63172 0.58429 0.71704
 Cu65 Cu 0.54215 0.53631 0.75215
 Cu66 Cu 0.61969 0.61000 0.74932
 C67 C 0.60645 0.54644 0.70688
 C68 C 0.55931 0.60274 0.79506
 C69 C 0.54884 0.60007 0.71253
 C70 C 0.61060 0.54522 0.79015
 O71 O 0.49089 0.03627 0.70704
 O72 O 0.48463 -0.03160 0.77239
 O73 O 0.45539 -0.04529 0.71431
 O74 O 0.51949 0.04917 0.76408
 O75 O 0.45751 0.04196 0.78239
 O76 O 0.39297 -0.05097 0.72927
 O77 O 0.42088 -0.04077 0.78849
 O78 O 0.42984 0.03192 0.72421
 Cu79 Cu 0.49358 0.00242 0.73771
 Cu80 Cu 0.41874 -0.00550 0.75782
 C81 C 0.46245 0.04677 0.70475
 C82 C 0.45215 -0.04740 0.79188
 C83 C 0.41345 -0.06383 0.71245
 C84 C 0.49976 0.06184 0.78179
 O85 O 0.43049 0.70030 0.97791
 O86 O 0.40649 0.75464 0.98613
 C87 C 0.38230 0.75476 0.96404
 O88 O 0.34127 0.72599 0.96133
 O89 O 0.27708 0.64485 0.95669
 C90 C 0.28788 0.62286 0.94012
 O91 O 0.31590 0.61429 0.94949
 O92 O 0.38824 0.62921 0.97607
 C93 C 0.42226 0.66470 0.96737
 O94 O 0.40818 0.67291 1.03918
 O95 O 0.38204 0.72647 1.04663
 C96 C 0.35200 0.73497 1.04664
 O97 O 0.32469 0.72450 1.02402
 O98 O 0.26463 0.64280 1.02063
 C99 C 0.25250 0.60369 1.02162
 O100 O 0.27201 0.58915 1.00559
 O101 O 0.34559 0.60883 1.03290
 C102 C 0.38002 0.63472 1.04845
 Cr103 Cr 0.40472 0.71199 1.01199
 Cr104 Cr 0.30345 0.68406 0.99088
 Cr105 Cr 0.33108 0.61248 0.99130
 O106 O 0.34658 0.66966 0.99812
 O107 O 0.62427 0.35733 0.95726
 O108 O 0.59202 0.27504 0.96184
 C109 C 0.61856 0.26461 0.95131
 O110 O 0.65252 0.27181 0.96625
 O111 O 0.72723 0.32355 0.99396
 C112 C 0.74881 0.35962 0.97968
 O113 O 0.73902 0.38781 0.98267
 O114 O 0.68193 0.41179 0.98204
 C115 C 0.65537 0.39646 0.95872
 O116 O 0.60016 0.35873 1.01813
 O117 O 0.57081 0.27788 1.02364
 C118 C 0.57683 0.24879 1.03287
 O119 O 0.60955 0.24664 1.02322
 O120 O 0.68376 0.30174 1.05040
 C121 C 0.71432 0.33772 1.06071
 O122 O 0.72627 0.37268 1.04627
 O123 O 0.66448 0.39164 1.04447
 C124 C 0.62398 0.38008 1.04172
 Cr125 Cr 0.59886 0.31772 0.99066
 Cr126 Cr 0.66774 0.28743 1.00829
 Cr127 Cr 0.70128 0.38901 1.01360
 O128 O 0.65586 0.33133 1.00417
 O129 O 0.69518 0.41171 0.52380
 O130 O 0.73497 0.37121 0.53575
 C131 C 0.73239 0.33662 0.54301
 O132 O 0.71050 0.30243 0.52681
 O133 O 0.62469 0.25899 0.53280
 C134 C 0.58947 0.25815 0.53926
 O135 O 0.57859 0.28135 0.52491
 O136 O 0.62377 0.36407 0.53426
 C137 C 0.65971 0.39934 0.53962
 O138 O 0.70378 0.40315 0.46128
 O139 O 0.74834 0.36719 0.47292
 C140 C 0.73736 0.33328 0.45779
 O141 O 0.70126 0.29806 0.46291
 O142 O 0.61557 0.25301 0.46903
 C143 C 0.59134 0.26301 0.45435
 O144 O 0.58903 0.29511 0.46163
 O145 O 0.63190 0.37795 0.47053
 C146 C 0.66800 0.40111 0.45483
 Cr147 Cr 0.71836 0.38613 0.49842
 Cr148 Cr 0.66300 0.28020 0.49789
 Cr149 Cr 0.60807 0.32976 0.49782
 O150 O 0.66302 0.33185 0.49794
 O151 O 0.36295 0.62721 0.54292
 O152 O 0.27994 0.58903 0.52478
 C153 C 0.25523 0.60056 0.53716
 O154 O 0.25932 0.63608 0.53067
 O155 O 0.30985 0.71968 0.52469
 C156 C 0.34189 0.73798 0.54426
 O157 O 0.37643 0.73626 0.54184
 O158 O 0.41685 0.69531 0.53523
 C159 C 0.39937 0.66057 0.55094
 O160 O 0.38959 0.63710 0.48112
 O161 O 0.30717 0.60125 0.46363
 C162 C 0.27548 0.60417 0.45345
 O163 O 0.26310 0.62693 0.46705
 O164 O 0.31597 0.70978 0.46068
 C165 C 0.35527 0.74222 0.45813
 O166 O 0.38424 0.75238 0.47933
 O167 O 0.41973 0.70691 0.47204
 C168 C 0.41660 0.67172 0.46626
 Cr169 Cr 0.33505 0.61567 0.50312
 Cr170 Cr 0.28901 0.67312 0.49606
 Cr171 Cr 0.39714 0.72080 0.50696
 O172 O 0.34021 0.66968 0.50219
 C173 C 0.48645 0.61071 0.36829
 C174 C 0.51380 0.65463 0.36889
 C175 C 0.54936 0.67731 0.34772
 C176 C 0.55666 0.65374 0.32490
 C177 C 0.52815 0.60830 0.32343
 C178 C 0.49279 0.58680 0.34587
 O179 O 0.45415 0.59504 0.38997
 C180 C 0.46104 0.62979 0.40459
 C181 C 0.49697 0.66720 0.39263
 C182 C 0.50879 0.70735 0.40396
 C183 C 0.48243 0.70883 0.42848
 C184 C 0.44533 0.67046 0.44123
 C185 C 0.43486 0.63046 0.42903
 H186 H 0.57049 0.71191 0.34854
 H187 H 0.58395 0.67105 0.30809
 H188 H 0.47017 0.55230 0.34580
 H189 H 0.53692 0.73647 0.39404
 H190 H 0.49083 0.73976 0.43742
 H191 H 0.40644 0.60058 0.43775
 C192 C 0.38169 0.85958 0.35361
 C193 C 0.41738 0.85493 0.35528
 C194 C 0.45554 0.87849 0.33688
 C195 C 0.45730 0.90826 0.31558
 C196 C 0.42112 0.91426 0.31270
 C197 C 0.38248 0.88919 0.33217
 O198 O 0.34948 0.83460 0.37447
 C199 C 0.36556 0.81401 0.38948
 C200 C 0.40701 0.82555 0.37836
 C201 C 0.43139 0.80989 0.39100
 C202 C 0.41272 0.78156 0.41668
 C203 C 0.37029 0.76917 0.42920
 C204 C 0.34577 0.78497 0.41506
 H205 H 0.48327 0.87434 0.33901
 H206 H 0.48731 0.92657 0.30127
 H207 H 0.35434 0.89285 0.33094
 H208 H 0.46409 0.81984 0.38184
 H209 H 0.43169 0.76960 0.42718
 H210 H 0.31363 0.77649 0.42449
 C211 C 0.15231 0.53049 0.34648
 C212 C 0.17724 0.51219 0.34714
 C213 C 0.17017 0.47981 0.32641
 C214 C 0.13573 0.46541 0.30433
 C215 C 0.10939 0.48367 0.30316
 C216 C 0.11830 0.51709 0.32442
 O217 O 0.16327 0.55961 0.36904
 C218 C 0.19582 0.55969 0.38424
 C219 C 0.20574 0.53136 0.37171
 C220 C 0.23817 0.52570 0.38436
 C221 C 0.26126 0.55015 0.41106
 C222 C 0.25145 0.57940 0.42475
 C223 C 0.21822 0.58420 0.41087
 H224 H 0.18997 0.46564 0.32755
 H225 H 0.12937 0.43980 0.28832
 H226 H 0.09841 0.53123 0.32451
 H227 H 0.24528 0.50308 0.37417
 H228 H 0.28645 0.54587 0.42121
 H229 H 0.20974 0.60609 0.42061
 C230 C 0.61009 0.47260 0.35756
 C231 C 0.65575 0.49456 0.35573
 C232 C 0.68042 0.52766 0.33394
 C233 C 0.65694 0.53834 0.31324
 C234 C 0.60976 0.51571 0.31468
 C235 C 0.58629 0.48243 0.33728
 O236 O 0.59265 0.44253 0.37988
 C237 C 0.62801 0.44538 0.39250
 C238 C 0.66752 0.47655 0.37863
 C239 C 0.70849 0.48447 0.38835
 C240 C 0.70858 0.45930 0.41339
 C241 C 0.66808 0.42720 0.42819
 C242 C 0.62731 0.42031 0.41736
 H243 H 0.71636 0.54463 0.33292
 H244 H 0.67542 0.56390 0.29605
 H245 H 0.55034 0.46460 0.33923
 H246 H 0.73922 0.50909 0.37710
 H247 H 0.74014 0.46506 0.42136
 H248 H 0.59575 0.39602 0.42787
 C249 C 0.51962 0.13911 0.34995
 C250 C 0.48913 0.14962 0.35805
 C251 C 0.44724 0.12990 0.34469
 C252 C 0.43610 0.09786 0.32213
 C253 C 0.46706 0.08658 0.31262
 C254 C 0.50981 0.10815 0.32668
 O255 O 0.55657 0.16015 0.36696
 C256 C 0.54917 0.18453 0.38600
 C257 C 0.50857 0.17960 0.38118
 C258 C 0.49388 0.20190 0.39847
 C259 C 0.52207 0.23029 0.42191
 C260 C 0.56362 0.23514 0.42808
 C261 C 0.57738 0.21196 0.40969
 H262 H 0.42361 0.13835 0.35180
 H263 H 0.40324 0.08219 0.31188
 H264 H 0.53412 0.10015 0.32057
 H265 H 0.46174 0.19743 0.39418
 H266 H 0.51101 0.24760 0.43586
 H267 H 0.60895 0.21508 0.41379
 C268 C 0.87638 0.38860 0.36022
 C269 C 0.85809 0.34574 0.36639
 C270 C 0.87125 0.32134 0.35053
 C271 C 0.90436 0.34179 0.32704
 C272 C 0.92333 0.38584 0.31959
 C273 C 0.90922 0.40963 0.33667
 O274 O 0.85867 0.40561 0.37796
 C275 C 0.82846 0.37267 0.39554
 C276 C 0.82667 0.33529 0.38917
 C277 C 0.79650 0.29651 0.40393
 C278 C 0.76692 0.29622 0.42631
 C279 C 0.76840 0.33444 0.43373
 C280 C 0.79980 0.37328 0.41813
 H281 H 0.85626 0.28763 0.35584
 H282 H 0.91445 0.32291 0.31420
 H283 H 0.92283 0.44316 0.33152
 H284 H 0.79556 0.26747 0.39827
 H285 H 0.74321 0.26631 0.43813
 H286 H 0.80139 0.40283 0.42305
 C287 C 0.58816 0.46120 1.14757
 C288 C 0.54891 0.42485 1.13879
 C289 C 0.50848 0.41110 1.15383
 C290 C 0.50839 0.43590 1.17899
 C291 C 0.54823 0.47395 1.18835
 C292 C 0.58875 0.48680 1.17229
 O293 O 0.62291 0.46802 1.13032
 C294 C 0.60505 0.43534 1.11017
 C295 C 0.55982 0.40824 1.11432
 C296 C 0.53408 0.37239 1.09561
 C297 C 0.55581 0.36399 1.07156
 C298 C 0.60256 0.39103 1.06687
 C299 C 0.62759 0.42719 1.08663
 H300 H 0.47809 0.38227 1.14649
 H301 H 0.47710 0.42574 1.19089
 H302 H 0.61969 0.51553 1.17899
 H303 H 0.49851 0.35165 1.09936
 H304 H 0.53622 0.33595 1.05689
 H305 H 0.66324 0.44844 1.08355
 C306 C 0.84915 0.38857 1.15905
 C307 C 0.82420 0.34464 1.15704
 C308 C 0.83554 0.31860 1.17232
 C309 C 0.87425 0.33857 1.19054
 C310 C 0.90035 0.38394 1.19392
 C311 C 0.88705 0.40919 1.17804
 O312 O 0.83438 0.40733 1.14043
 C313 C 0.79921 0.37440 1.12654
 C314 C 0.79136 0.33541 1.13632
 C315 C 0.75718 0.29669 1.12443
 C316 C 0.73049 0.29807 1.10089
 C317 C 0.73878 0.33784 1.08912
 C318 C 0.77331 0.37662 1.10269
 H319 H 0.81579 0.28410 1.16976
 H320 H 0.88343 0.31841 1.20232
 H321 H 0.90645 0.44385 1.17940
 H322 H 0.75182 0.26645 1.13250
 H323 H 0.70449 0.26797 1.09094
 H324 H 0.78093 0.40749 1.09412
 C325 C 0.49940 0.11968 1.13428
 C326 C 0.46983 0.13185 1.12830
 C327 C 0.43101 0.11664 1.14632
 C328 C 0.42257 0.08792 1.17148
 C329 C 0.45302 0.07540 1.17826
 C330 C 0.49183 0.09156 1.15909
 O331 O 0.53471 0.13814 1.11507
 C332 C 0.52750 0.16272 1.09649
 C333 C 0.48836 0.16023 1.10354
 C334 C 0.47545 0.18476 1.08760
 C335 C 0.50423 0.21318 1.06377
 C336 C 0.54493 0.21640 1.05619
 C337 C 0.55625 0.19027 1.07274
 H338 H 0.40821 0.12673 1.14134
 H339 H 0.39277 0.07598 1.18588
 H340 H 0.51589 0.08282 1.16344
 H341 H 0.44474 0.18268 1.09366
 H342 H 0.49503 0.23304 1.05155
 H343 H 0.58730 0.19232 1.06809
 C344 C 0.46056 0.60179 1.15602
 C345 C 0.41509 0.57504 1.15853
 C346 C 0.39414 0.54324 1.18160
 C347 C 0.42119 0.53844 1.20285
 C348 C 0.46832 0.56515 1.20060
 C349 C 0.48820 0.59766 1.17698
 O350 O 0.47358 0.62875 1.13152
 C351 C 0.43545 0.61859 1.11826
 C352 C 0.39875 0.58586 1.13392
 C353 C 0.35561 0.56850 1.12335
 C354 C 0.35000 0.58534 1.09530
 C355 C 0.38724 0.61908 1.07856
 C356 C 0.43061 0.63632 1.09049
 H357 H 0.35827 0.52239 1.18289
 H358 H 0.40529 0.51341 1.22073
 H359 H 0.52398 0.61826 1.17438
 H360 H 0.32734 0.54244 1.13595
 H361 H 0.31658 0.57198 1.08656
 H362 H 0.45965 0.66163 1.07800
 C363 C 0.12665 0.52598 1.12825
 C364 C 0.12315 0.49392 1.10937
 C365 C 0.09781 0.45091 1.11783
 C366 C 0.07496 0.44033 1.14700
 C367 C 0.07756 0.47257 1.16702
 C368 C 0.10366 0.51612 1.15734
 O369 O 0.15443 0.56494 1.11629
 C370 C 0.16865 0.55714 1.08931
 C371 C 0.15025 0.51414 1.08402
 C372 C 0.16160 0.49853 1.05807
 C373 C 0.19400 0.52849 1.03693
 C374 C 0.21445 0.57320 1.04205
 C375 C 0.20087 0.58767 1.06838
 H376 H 0.09606 0.42638 1.10267
 H377 H 0.05498 0.40685 1.15386
 H378 H 0.10665 0.54146 1.17221
 H379 H 0.14680 0.46449 1.05463
 H380 H 0.20389 0.51678 1.01696
 H381 H 0.21640 0.62150 1.07329
 C382 C 0.39366 0.85785 1.14938
 C383 C 0.34878 0.83617 1.14355
 C384 C 0.32040 0.84580 1.15863
 C385 C 0.33891 0.87917 1.18073
 C386 C 0.38522 0.90250 1.18731
 C387 C 0.41299 0.89149 1.17133
 O388 O 0.41462 0.84392 1.13178
 C389 C 0.38218 0.81293 1.11449
 C390 C 0.34133 0.80709 1.12084
 C391 C 0.30298 0.77765 1.10477
 C392 C 0.30691 0.75348 1.08080
 C393 C 0.34862 0.75884 1.07354
 C394 C 0.38675 0.78866 1.09099
 H395 H 0.28522 0.82837 1.15345
 H396 H 0.31696 0.88694 1.19253
 H397 H 0.44839 0.90862 1.17567
 H398 H 0.27130 0.77395 1.11010
 H399 H 0.27747 0.73077 1.06773
 H400 H 0.41913 0.79392 1.08564
 C401 C 0.61532 0.47885 0.64252
 C402 C 0.65917 0.50589 0.63370
 C403 C 0.68685 0.54569 0.64738
 C404 C 0.66873 0.55837 0.67125
 C405 C 0.62357 0.53133 0.68119
 C406 C 0.59643 0.49079 0.66652
 O407 O 0.59507 0.44253 0.62601
 C408 C 0.62699 0.44697 0.60647
 C409 C 0.66675 0.48521 0.61042
 C410 C 0.70473 0.49694 0.59271
 C411 C 0.70178 0.46816 0.56976
 C412 C 0.66121 0.42834 0.56473
 C413 C 0.62318 0.41761 0.58357
 H414 H 0.72125 0.56633 0.63990
 H415 H 0.69023 0.58938 0.68208
 H416 H 0.56191 0.46941 0.67346
 H417 H 0.73561 0.52730 0.59638
 H418 H 0.73132 0.47720 0.55581
 H419 H 0.59174 0.38761 0.58042
 C420 C 0.51367 0.12446 0.63655
 C421 C 0.48601 0.13969 0.63451
 C422 C 0.44871 0.12460 0.65418
 C423 C 0.44013 0.09304 0.67698
 C424 C 0.46878 0.07745 0.67956
 C425 C 0.50572 0.09329 0.65866
 O426 O 0.54789 0.14326 0.61653
 C427 C 0.54194 0.17112 0.60143
 C428 C 0.50464 0.17043 0.61135
 C429 C 0.49305 0.19789 0.59863
 C430 C 0.52104 0.22695 0.57477
 C431 C 0.55976 0.22806 0.56436
 C432 C 0.57000 0.19953 0.57809
 H433 H 0.42740 0.13708 0.65236
 H434 H 0.41178 0.08139 0.69289
 H435 H 0.52854 0.08247 0.65995
 H436 H 0.46368 0.19705 0.60680
 H437 H 0.51263 0.24857 0.56456
 H438 H 0.59914 0.19926 0.57089
 C439 C 0.84628 0.38591 0.65485
 C440 C 0.82433 0.34215 0.65158
 C441 C 0.83212 0.31664 0.67116
 C442 C 0.86452 0.33716 0.69467
 C443 C 0.88835 0.38240 0.69818
 C444 C 0.87836 0.40695 0.67826
 O445 O 0.83529 0.40437 0.63294
 C446 C 0.80589 0.37156 0.61542
 C447 C 0.79806 0.33281 0.62580
 C448 C 0.76975 0.29450 0.61023
 C449 C 0.74846 0.29616 0.58288
 C450 C 0.75579 0.33573 0.57163
 C451 C 0.78495 0.37396 0.58836
 H452 H 0.81465 0.28229 0.66796
 H453 H 0.87176 0.31785 0.70962
 H454 H 0.89642 0.44155 0.67989
 H455 H 0.76443 0.26444 0.61871
 H456 H 0.72617 0.26651 0.57059
 H457 H 0.79156 0.40473 0.58043
 C458 C 0.47763 0.61151 0.65163
 C459 C 0.49915 0.65541 0.65043
 C460 C 0.53636 0.68249 0.66845
 C461 C 0.55223 0.66363 0.68865
 C462 C 0.53072 0.61839 0.69075
 C463 C 0.49256 0.59190 0.67204
 O464 O 0.44397 0.59201 0.63136
 C465 C 0.44438 0.62443 0.61716
 C466 C 0.47746 0.66376 0.62822
 C467 C 0.48508 0.70218 0.61640
 C468 C 0.45802 0.70020 0.59173
 C469 C 0.42405 0.66024 0.57908
 C470 C 0.41669 0.62163 0.59245
 H471 H 0.55289 0.71698 0.66678
 H472 H 0.58123 0.68441 0.70282
 H473 H 0.47567 0.55732 0.67287
 H474 H 0.51143 0.73269 0.62553
 H475 H 0.46412 0.73012 0.58216
 H476 H 0.39145 0.59067 0.58321
 C477 C 0.39147 0.85658 0.65025
 C478 C 0.34685 0.83883 0.64519
 C479 C 0.32183 0.85077 0.66272
 C480 C 0.34390 0.88263 0.68601
 C481 C 0.39034 0.90214 0.69106
 C482 C 0.41396 0.88811 0.67297
 O483 O 0.40971 0.84175 0.63095
 C484 C 0.37598 0.81408 0.61313
 C485 C 0.33669 0.81100 0.62067
 C486 C 0.29764 0.78461 0.60400
 C487 C 0.29936 0.76055 0.57867
 C488 C 0.33966 0.76322 0.57070
 C489 C 0.37835 0.79042 0.58841
 H490 H 0.28673 0.83648 0.65837
 H491 H 0.32497 0.89268 0.69947
 H492 H 0.44930 0.90189 0.67586
 H493 H 0.26710 0.78283 0.61012
 H494 H 0.26936 0.73981 0.56542
 H495 H 0.40980 0.79366 0.58294
 C496 C 0.11760 0.52263 0.63754
 C497 C 0.12529 0.49235 0.62601
 C498 C 0.10512 0.45134 0.63863
 C499 C 0.07605 0.44101 0.66453
 C500 C 0.06740 0.47154 0.67746
 C501 C 0.08831 0.51297 0.66327
 O502 O 0.14166 0.56019 0.62256
 C503 C 0.16498 0.55328 0.60121
 C504 C 0.15600 0.51221 0.60246
 C505 C 0.17736 0.49805 0.58315
 C506 C 0.20956 0.52746 0.56165
 C507 C 0.21995 0.57029 0.55972
 C508 C 0.19691 0.58323 0.57975
 H509 H 0.11204 0.42823 0.62917
 H510 H 0.06068 0.40913 0.67463
 H511 H 0.08305 0.53731 0.67247
 H512 H 0.16981 0.46557 0.58480
 H513 H 0.22649 0.51670 0.54656
 H514 H 0.20423 0.61569 0.57912
 C515 C 0.49800 0.61595 0.86401
 C516 C 0.52837 0.65787 0.87199
 C517 C 0.56856 0.68313 0.85594
 C518 C 0.57804 0.66445 0.83067
 C519 C 0.54745 0.62115 0.82176
 C520 C 0.50669 0.59659 0.83879
 O521 O 0.46155 0.59794 0.88221
 C522 C 0.46921 0.62925 0.90199
 C523 C 0.50963 0.66654 0.89668
 C524 C 0.52405 0.70367 0.91410
 C525 C 0.49541 0.70249 0.93782
 C526 C 0.45330 0.66450 0.94377
 C527 C 0.44032 0.62722 0.92565
 H528 H 0.59181 0.71611 0.86260
 H529 H 0.60937 0.68395 0.81803
 H530 H 0.48262 0.56358 0.83267
 H531 H 0.55598 0.73269 0.90932
 H532 H 0.50592 0.73132 0.95130
 H533 H 0.40822 0.59789 0.92922
 C534 C 0.15352 0.54976 0.84107
 C535 C 0.18297 0.53709 0.83566
 C536 C 0.17525 0.50571 0.81374
 C537 C 0.13543 0.48646 0.79677
 C538 C 0.10463 0.49914 0.80175
 C539 C 0.11413 0.53168 0.82394
 O540 O 0.16554 0.57752 0.86475
 C541 C 0.20335 0.58244 0.87447
 C542 C 0.21560 0.55863 0.85726
 C543 C 0.25268 0.55707 0.86444
 C544 C 0.27765 0.58023 0.89090
 C545 C 0.26499 0.60400 0.90978
 C546 C 0.22776 0.60580 0.90088
 H547 H 0.19854 0.49571 0.81035
 H548 H 0.12850 0.46159 0.77981
 H549 H 0.09075 0.54130 0.82865
 H550 H 0.26135 0.53774 0.85071
 H551 H 0.30596 0.57837 0.89724
 H552 H 0.21669 0.62297 0.91498
 C553 C 0.41403 0.87372 0.86017
 C554 C 0.45434 0.88135 0.87008
 C555 C 0.49448 0.91118 0.85551
 C556 C 0.49307 0.93418 0.82961
 C557 C 0.45202 0.92737 0.81904
 C558 C 0.41189 0.89679 0.83472
 O559 O 0.37978 0.84294 0.87678
 C560 C 0.39902 0.83108 0.89763
 C561 C 0.44460 0.85385 0.89461
 C562 C 0.47150 0.84673 0.91384
 C563 C 0.45054 0.81457 0.93710
 C564 C 0.40345 0.79000 0.94048
 C565 C 0.37738 0.79858 0.92041
 H566 H 0.52572 0.91636 0.86365
 H567 H 0.52409 0.95764 0.81799
 H568 H 0.38008 0.89067 0.82702
 H569 H 0.50732 0.86509 0.91091
 H570 H 0.47104 0.80827 0.95201
 H571 H 0.34143 0.78043 0.92234
 C572 C 0.62067 0.47651 0.85215
 C573 C 0.66360 0.50423 0.86200
 C574 C 0.69101 0.54492 0.84897
 C575 C 0.67342 0.55772 0.82494
 C576 C 0.62900 0.53000 0.81447
 C577 C 0.60242 0.48859 0.82827
 O578 O 0.59996 0.43965 0.86816
 C579 C 0.63046 0.44431 0.88859
 C580 C 0.66994 0.48329 0.88583
 C581 C 0.70587 0.49550 0.90559
 C582 C 0.70085 0.46645 0.92930
 C583 C 0.66045 0.42594 0.93276
 C584 C 0.62489 0.41470 0.91180
 H585 H 0.72464 0.56625 0.85722
 H586 H 0.69433 0.58952 0.81482
 H587 H 0.56837 0.46669 0.82106
 H588 H 0.73651 0.52650 0.90309
 H589 H 0.72844 0.47562 0.94501
 H590 H 0.59345 0.38432 0.91398
 C591 C 0.87544 0.41174 0.87306
 C592 C 0.87844 0.38301 0.89188
 C593 C 0.90361 0.36596 0.88345
 C594 C 0.92669 0.37893 0.85435
 C595 C 0.92450 0.40862 0.83426
 C596 C 0.89868 0.42558 0.84398
 O597 O 0.84774 0.42219 0.88501
 C598 C 0.83306 0.39951 0.91190
 C599 C 0.85105 0.37517 0.91712
 C600 C 0.83912 0.34750 0.94291
 C601 C 0.80664 0.34408 0.96397
 C602 C 0.78672 0.36814 0.95906
 C603 C 0.80080 0.39692 0.93285
 H604 H 0.90500 0.34303 0.89857
 H605 H 0.94636 0.36574 0.84751
 H606 H 0.89591 0.44788 0.82907
 H607 H 0.85356 0.32844 0.94628
 H608 H 0.79637 0.32195 0.98382
 H609 H 0.78564 0.41505 0.92808
 C610 C 0.53467 0.14556 0.84583
 C611 C 0.57998 0.16899 0.84088
 C612 C 0.60071 0.16001 0.81682
 C613 C 0.57369 0.12514 0.79712
 C614 C 0.52682 0.09992 0.80183
 C615 C 0.50702 0.11073 0.82637
 O616 O 0.52215 0.15818 0.87120
 C617 C 0.56045 0.19012 0.88252
 C618 C 0.59675 0.19788 0.86475
 C619 C 0.64028 0.22781 0.87327
 C620 C 0.64679 0.25033 0.90155
 C621 C 0.61002 0.24280 0.92051
 C622 C 0.56614 0.21280 0.91054
 H623 H 0.63650 0.17869 0.81369
 H624 H 0.58949 0.11749 0.77846
 H625 H 0.47148 0.09184 0.83086
 H626 H 0.66826 0.23284 0.85909
 H627 H 0.68053 0.27329 0.90893
 H628 H 0.53758 0.20585 0.92491
   
