data_POSCAR
  _audit_creation_date              2014-09-24
  _audit_creation_method            'ToBaCCo'
  _symmetry_space_group_name_H-M    'P1'
  _symmetry_Int_Tables_number       1
  _symmetry_cell_setting            triclinic
  loop_
  _symmetry_equiv_pos_as_xyz
 x,y,z
_cell_length_a 42.8798
_cell_length_b 42.8492
_cell_length_c 41.0886
_cell_angle_alpha 89.890400
_cell_angle_beta 90.024100
_cell_angle_gamma 90.003700
loop_
  _atom_site_label
  _atom_site_type_symbol
  _atom_site_fract_x
  _atom_site_fract_y
  _atom_site_fract_z
C1 C 1.27436 0.21688 0.26670
 C2 C 1.25092 0.23319 0.25016
 C3 C 1.22746 0.21681 0.23383
 C4 C 1.22741 0.18403 0.23341
 C5 C 1.25084 0.16783 0.25052
 C6 C 1.27442 0.18400 0.26759
 C7 C 1.25092 0.26756 0.24995
 C8 C 1.27435 0.28386 0.23343
 C9 C 1.27441 0.31674 0.23251
 C10 C 1.25084 0.33292 0.24957
 C11 C 1.22741 0.31671 0.26667
 C12 C 1.22747 0.28393 0.26626
 H13 H 1.29217 0.23013 0.27931
 H14 H 1.20961 0.22982 0.22098
 H15 H 1.29216 0.27060 0.22082
 H16 H 1.20962 0.27091 0.27910
 H17 H 1.25064 0.14256 0.25052
 H18 H 1.25063 0.35819 0.24956
 C19 C 0.77343 -0.28407 0.26672
 C20 C 0.74982 -0.26776 0.25046
 C21 C 0.72627 -0.28413 0.23427
 C22 C 0.72631 -0.31690 0.23369
 C23 C 0.74991 -0.33312 0.25054
 C24 C 0.77357 -0.31695 0.26748
 C25 C 0.74978 -0.23340 0.25038
 C26 C 0.77338 -0.21702 0.23419
 C27 C 0.77339 -0.18423 0.23354
 C28 C 0.74976 -0.16804 0.25028
 C29 C 0.72614 -0.18426 0.26707
 C30 C 0.72617 -0.21706 0.26652
 H31 H 0.79130 -0.27082 0.27923
 H32 H 0.70831 -0.27110 0.22162
 H33 H 0.79137 -0.23004 0.22162
 H34 H 0.70819 -0.23010 0.27914
 H35 H 0.74978 -0.35839 0.25042
 H36 H 0.74976 -0.14277 0.25024
 C37 C 0.77399 0.21721 -0.23423
 C38 C 0.75039 0.23354 -0.25049
 C39 C 0.72678 0.21715 -0.26661
 C40 C 0.72675 0.18435 -0.26706
 C41 C 0.75036 0.16817 -0.25020
 C42 C 0.77399 0.18441 -0.23348
 C43 C 0.75040 0.26790 -0.25066
 C44 C 0.77398 0.28420 -0.26695
 C45 C 0.77406 0.31708 -0.26782
 C46 C 0.75038 0.33326 -0.25095
 C47 C 0.72680 0.31705 -0.23407
 C48 C 0.72683 0.28427 -0.23454
 H49 H 0.79198 0.23026 -0.22168
 H50 H 0.70880 0.23015 -0.27928
 H51 H 0.79187 0.27095 -0.27942
 H52 H 0.70888 0.27126 -0.22187
 H53 H 0.75035 0.14291 -0.25009
 H54 H 0.75020 0.35853 -0.25093
 C55 C 1.27359 -0.28402 -0.23343
 C56 C 1.24985 -0.26769 -0.24945
 C57 C 1.22615 -0.28404 -0.26542
 C58 C 1.22616 -0.31681 -0.26601
 C59 C 1.24989 -0.33305 -0.24939
 C60 C 1.27370 -0.31690 -0.23267
 C61 C 1.24984 -0.23334 -0.24954
 C62 C 1.27357 -0.21698 -0.26553
 C63 C 1.27358 -0.18419 -0.26619
 C64 C 1.24984 -0.16798 -0.24966
 C65 C 1.22609 -0.18419 -0.23306
 C66 C 1.22610 -0.21698 -0.23361
 H67 H 1.29158 -0.27079 -0.22108
 H68 H 1.20808 -0.27100 -0.27791
 H69 H 1.29165 -0.23000 -0.27794
 H70 H 1.20803 -0.23001 -0.22113
 H71 H 1.24973 -0.35832 -0.24951
 H72 H 1.24984 -0.14271 -0.24971
 C73 C 0.21666 0.27324 0.73457
 C74 C 0.23300 0.24976 0.75098
 C75 C 0.21670 0.22622 0.76736
 C76 C 0.18384 0.22607 0.76801
 C77 C 0.16769 0.24966 0.75085
 C78 C 0.18391 0.27321 0.73389
 C79 C 0.26734 0.24984 0.75103
 C80 C 0.28362 0.27338 0.76736
 C81 C 0.31647 0.27355 0.76809
 C82 C 0.33266 0.24997 0.75106
 C83 C 0.31648 0.22642 0.73415
 C84 C 0.28372 0.22637 0.73475
 H85 H 0.22968 0.29117 0.72184
 H86 H 0.22993 0.20840 0.78004
 H87 H 0.27036 0.29120 0.77995
 H88 H 0.27073 0.20845 0.72205
 H89 H 0.14244 0.24980 0.75066
 H90 H 0.35791 0.24985 0.75093
 C91 C 0.71601 0.77372 0.73361
 C92 C 0.73233 0.75025 0.75006
 C93 C 0.71604 0.72680 0.76655
 C94 C 0.68321 0.72672 0.76733
 C95 C 0.66703 0.75028 0.75016
 C96 C 0.68316 0.77383 0.73294
 C97 C 0.76668 0.75024 0.75000
 C98 C 0.78306 0.77371 0.76635
 C99 C 0.81584 0.77372 0.76688
 C100 C 0.83199 0.75022 0.74989
 C101 C 0.81575 0.72674 0.73295
 C102 C 0.78298 0.72677 0.73359
 H103 H 0.72922 0.79152 0.72088
 H104 H 0.72928 0.70899 0.77925
 H105 H 0.77007 0.79159 0.77911
 H106 H 0.76993 0.70889 0.72088
 H107 H 0.64177 0.75029 0.75020
 H108 H 0.85724 0.75021 0.74984
 C109 C 0.71675 0.27353 0.23372
 C110 C 0.73306 0.24979 0.24980
 C111 C 0.71668 0.22604 0.26578
 C112 C 0.68392 0.22601 0.26629
 C113 C 0.66775 0.24977 0.24960
 C114 C 0.68399 0.27353 0.23302
 C115 C 0.76739 0.24980 0.24991
 C116 C 0.78369 0.27355 0.26589
 C117 C 0.81646 0.27358 0.26659
 C118 C 0.83270 0.24984 0.25009
 C119 C 0.81655 0.22608 0.23350
 C120 C 0.78378 0.22607 0.23402
 H121 H 0.72979 0.29162 0.22127
 H122 H 0.72968 0.20795 0.27832
 H123 H 0.77064 0.29163 0.27828
 H124 H 0.77080 0.20798 0.22156
 H125 H 0.64250 0.24976 0.24952
 H126 H 0.85795 0.24985 0.25016
 C127 C 0.21609 0.77344 0.23364
 C128 C 0.23241 0.74994 0.25003
 C129 C 0.21611 0.72646 0.26648
 C130 C 0.18328 0.72639 0.26726
 C131 C 0.16710 0.74999 0.25013
 C132 C 0.18325 0.77356 0.23296
 C133 C 0.26675 0.74994 0.24999
 C134 C 0.28311 0.77345 0.26627
 C135 C 0.31589 0.77349 0.26680
 C136 C 0.33206 0.74996 0.24987
 C137 C 0.31583 0.72643 0.23300
 C138 C 0.28306 0.72643 0.23365
 H139 H 0.22931 0.79126 0.22095
 H140 H 0.22935 0.70863 0.27914
 H141 H 0.27011 0.79136 0.27897
 H142 H 0.27001 0.70852 0.22099
 H143 H 0.14184 0.75000 0.25017
 H144 H 0.35731 0.74998 0.24982
 O145 O 1.05372 0.01612 0.04071
 O146 O 0.94708 -0.01631 0.04067
 O147 O 0.98426 0.05323 0.04066
 O148 O 1.01654 -0.05347 0.04074
 O149 O 0.94107 0.03614 0.02281
 O150 O 1.05974 -0.03632 0.02294
 O151 O 0.96414 -0.05950 0.02283
 O152 O 1.03665 0.05935 0.02277
 C153 C 1.05091 0.04451 0.04430
 C154 C 0.94992 -0.04469 0.04434
 C155 C 0.95592 0.05029 0.04436
 C156 C 1.04490 -0.05062 0.04442
 O157 O 1.05365 -0.01638 -0.04005
 O158 O 0.94716 0.01638 -0.04014
 O159 O 1.01674 0.05329 -0.04014
 O160 O 0.98402 -0.05331 -0.04009
 O161 O 0.94090 -0.03606 -0.02228
 O162 O 1.05988 0.03601 -0.02229
 O163 O 1.03640 -0.05955 -0.02215
 O164 O 0.96436 0.05951 -0.02227
 Co165 Co 1.05121 -0.00013 0.00032
 Co166 Co 0.94959 0.00003 0.00027
 Co167 Co 1.00049 0.05080 0.00026
 Co168 Co 1.00029 -0.05091 0.00033
 O169 O 1.00039 -0.00006 0.00030
 C170 C 1.05061 -0.04473 -0.04372
 C171 C 0.95010 0.04475 -0.04380
 C172 C 1.04508 0.05037 -0.04379
 C173 C 0.95567 -0.05037 -0.04376
 O174 O 1.05333 0.51634 0.54025
 O175 O 0.94678 0.48393 0.54016
 O176 O 0.98362 0.55345 0.54007
 O177 O 1.01644 0.44686 0.54019
 O178 O 0.94053 0.53635 0.52206
 O179 O 1.05958 0.46397 0.52225
 O180 O 0.96405 0.44073 0.52248
 O181 O 1.03605 0.55958 0.52249
 C182 C 1.05028 0.54468 0.54400
 C183 C 0.94972 0.45556 0.54391
 C184 C 0.95525 0.55061 0.54360
 C185 C 1.04480 0.44968 0.54379
 O186 O 1.05341 0.48409 0.45939
 O187 O 0.94679 0.51638 0.45926
 O188 O 1.01643 0.55357 0.45940
 O189 O 0.98380 0.44694 0.45942
 O190 O 0.94065 0.46395 0.47735
 O191 O 1.05955 0.53649 0.47742
 O192 O 1.03620 0.44083 0.47714
 O193 O 0.96398 0.55960 0.47696
 Co194 Co 1.05091 0.50022 0.49982
 Co195 Co 0.94924 0.50015 0.49971
 Co196 Co 1.00003 0.55102 0.49973
 Co197 Co 1.00012 0.44937 0.49980
 O198 O 1.00007 0.50019 0.49977
 C199 C 1.05054 0.45572 0.45571
 C200 C 0.94969 0.54474 0.45552
 C201 C 1.04480 0.55078 0.45586
 C202 C 0.95545 0.44981 0.45579
 O203 O 0.55317 0.01623 0.54062
 O204 O 0.44659 -0.01632 0.54066
 O205 O 0.48375 0.05329 0.54062
 O206 O 0.51605 -0.05343 0.54077
 O207 O 0.44053 0.03613 0.52288
 O208 O 0.55924 -0.03622 0.52296
 O209 O 0.46365 -0.05949 0.52279
 O210 O 0.53611 0.05941 0.52260
 C211 C 0.55034 0.04461 0.54417
 C212 C 0.44951 -0.04469 0.54434
 C213 C 0.45540 0.05040 0.54434
 C214 C 0.54441 -0.05055 0.54444
 O215 O 0.55310 -0.01642 0.45991
 O216 O 0.44658 0.01641 0.45986
 O217 O 0.51609 0.05328 0.45975
 O218 O 0.48357 -0.05334 0.45992
 O219 O 0.44042 -0.03605 0.47766
 O220 O 0.55925 0.03599 0.47756
 O221 O 0.53596 -0.05958 0.47790
 O222 O 0.46374 0.05954 0.47775
 Co223 Co 0.55066 -0.00010 0.50027
 Co224 Co 0.44906 0.00003 0.50026
 Co225 Co 0.49992 0.05082 0.50019
 Co226 Co 0.49982 -0.05090 0.50034
 O227 O 0.49986 -0.00004 0.50027
 C228 C 0.55020 -0.04479 0.45633
 C229 C 0.44944 0.04479 0.45624
 C230 C 0.54441 0.05023 0.45601
 C231 C 0.45523 -0.05037 0.45621
 O232 O 0.55312 0.51621 0.03986
 O233 O 0.44654 0.48381 0.03989
 O234 O 0.48337 0.55331 0.03978
 O235 O 0.51625 0.44676 0.03975
 O236 O 0.44027 0.53625 0.02178
 O237 O 0.55933 0.46387 0.02171
 O238 O 0.46384 0.44063 0.02218
 O239 O 0.53579 0.55947 0.02222
 C240 C 0.55012 0.54455 0.04365
 C241 C 0.44950 0.45544 0.04362
 C242 C 0.45501 0.55047 0.04333
 C243 C 0.54461 0.44966 0.04332
 O244 O 0.55308 0.48411 -0.04106
 O245 O 0.44646 0.51626 -0.04100
 O246 O 0.51616 0.55352 -0.04091
 O247 O 0.48343 0.44688 -0.04094
 O248 O 0.44030 0.46382 -0.02290
 O249 O 0.55929 0.53647 -0.02290
 O250 O 0.53586 0.44081 -0.02338
 O251 O 0.46373 0.55948 -0.02333
 Co252 Co 0.55064 0.50016 -0.00060
 Co253 Co 0.44896 0.50004 -0.00056
 Co254 Co 0.49977 0.55093 -0.00056
 Co255 Co 0.49984 0.44929 -0.00059
 O256 O 0.49980 0.50011 -0.00058
 C257 C 0.55015 0.45575 -0.04482
 C258 C 0.44946 0.54461 -0.04479
 C259 C 0.54453 0.55079 -0.04444
 C260 C 0.45505 0.44961 -0.04445
 N261 N 1.18283 0.12004 0.19469
 C262 C 1.16061 0.13594 0.17806
 N263 N 1.15992 0.16749 0.17998
 N264 N 1.18087 0.18268 0.19791
 C265 C 1.20333 0.16692 0.21455
 N266 N 1.20378 0.13524 0.21264
 C267 C 1.13914 0.11976 0.15726
 C268 C 1.12168 0.10635 0.13902
 C269 C 1.10176 0.09046 0.11638
 N270 N 1.08387 0.10690 0.09520
 N271 N 1.06701 0.09221 0.07268
 C272 C 1.06751 0.06059 0.07059
 N273 N 1.08525 0.04419 0.09202
 N274 N 1.10211 0.05888 0.11452
 N275 N 1.15808 0.66689 0.68136
 C276 C 1.15893 0.63538 0.67902
 N277 N 1.18144 0.61940 0.69515
 N278 N 1.20250 0.63451 0.71303
 C279 C 1.20189 0.66615 0.71535
 N280 N 1.17914 0.68198 0.69923
 C281 C 1.13746 0.61935 0.65813
 C282 C 1.12006 0.60606 0.63974
 C283 C 1.10030 0.59030 0.61690
 N284 N 1.08256 0.60684 0.59566
 N285 N 1.06594 0.59226 0.57287
 C286 C 1.06657 0.56066 0.57055
 N287 N 1.08417 0.54416 0.59203
 N288 N 1.10077 0.55874 0.61480
 N289 N 0.65895 0.16773 0.68000
 C290 C 0.65971 0.13619 0.67802
 N291 N 0.68208 0.12031 0.69447
 N292 N 0.70309 0.13554 0.71231
 C293 C 0.70257 0.16721 0.71427
 N294 N 0.67996 0.18295 0.69783
 C295 C 0.63823 0.11999 0.65727
 C296 C 0.62079 0.10656 0.63903
 C297 C 0.60091 0.09064 0.61639
 N298 N 0.58308 0.10706 0.59513
 N299 N 0.56630 0.09234 0.57257
 C300 C 0.56685 0.06072 0.57050
 N301 N 0.58454 0.04435 0.59199
 N302 N 0.60131 0.05906 0.61454
 N303 N 0.65855 0.66674 0.18059
 C304 C 0.65940 0.63522 0.17830
 N305 N 0.68181 0.61926 0.19460
 N306 N 0.70279 0.63439 0.21259
 C307 C 0.70218 0.66603 0.21486
 N308 N 0.67952 0.68185 0.19856
 C309 C 0.63795 0.61917 0.15739
 C310 C 0.62052 0.60587 0.13902
 C311 C 0.60065 0.59012 0.11624
 N312 N 0.58278 0.60667 0.09513
 N313 N 0.56601 0.59211 0.07245
 C314 C 0.56659 0.56051 0.07012
 N315 N 0.58432 0.54399 0.09146
 N316 N 0.60108 0.55856 0.11413
 N317 N 0.84124 -0.16769 0.18064
 C318 C 0.84046 -0.13615 0.17846
 N319 N 0.81807 -0.12025 0.19477
 N320 N 0.79704 -0.13545 0.21265
 C321 C 0.79758 -0.16712 0.21481
 N322 N 0.82021 -0.18287 0.19851
 C323 C 0.86197 -0.11999 0.15766
 C324 C 0.87942 -0.10658 0.13939
 C325 C 0.89932 -0.09069 0.11669
 N326 N 0.89896 -0.05911 0.11473
 N327 N 0.91574 -0.04441 0.09214
 C328 C 0.93341 -0.06080 0.07072
 N329 N 0.93392 -0.09242 0.07290
 N330 N 0.91712 -0.10712 0.09551
 N331 N 0.84049 0.33270 0.67977
 C332 C 0.84003 0.36426 0.67797
 N333 N 0.81793 0.38020 0.69465
 N334 N 0.79687 0.36502 0.71251
 C335 C 0.79701 0.33329 0.71430
 N336 N 0.81943 0.31754 0.69762
 C337 C 0.86157 0.38041 0.65719
 C338 C 0.87906 0.39380 0.63893
 C339 C 0.89901 0.40965 0.61626
 N340 N 0.89863 0.44123 0.61422
 N341 N 0.91545 0.45590 0.59163
 C342 C 0.93320 0.43948 0.57031
 N343 N 0.93374 0.40786 0.57257
 N344 N 0.91690 0.39319 0.59517
 N345 N 0.34168 -0.16767 0.68128
 C346 C 0.34087 -0.13614 0.67904
 N347 N 0.31839 -0.12023 0.69521
 N348 N 0.29731 -0.13543 0.71303
 C349 C 0.29787 -0.16709 0.71524
 N350 N 0.32059 -0.18285 0.69908
 C351 C 0.36235 -0.12000 0.65823
 C352 C 0.37974 -0.10659 0.63989
 C353 C 0.39950 -0.09070 0.61710
 N354 N 0.39904 -0.05912 0.61509
 N355 N 0.41564 -0.04441 0.59235
 C356 C 0.43320 -0.06080 0.57084
 N357 N 0.43382 -0.09241 0.57307
 N358 N 0.41721 -0.10712 0.59582
 N359 N 0.34047 0.33238 0.17960
 C360 C 0.33999 0.36394 0.17781
 N361 N 0.31799 0.37987 0.19464
 N362 N 0.29705 0.36468 0.21266
 C363 C 0.29721 0.33296 0.21445
 N364 N 0.31953 0.31721 0.19760
 C365 C 0.36144 0.38012 0.15693
 C366 C 0.37888 0.39353 0.13863
 C367 C 0.39878 0.40943 0.11592
 N368 N 0.39837 0.44101 0.11390
 N369 N 0.41519 0.45571 0.09133
 C370 C 0.43296 0.43932 0.07000
 N371 N 0.43353 0.40771 0.07225
 N372 N 0.41670 0.39301 0.09483
 N373 N 0.84175 0.16797 -0.18037
 C374 C 0.84099 0.13643 -0.17817
 N375 N 0.81864 0.12050 -0.19452
 N376 N 0.79763 0.13568 -0.21248
 C377 C 0.79816 0.16734 -0.21467
 N378 N 0.82075 0.18313 -0.19832
 C379 C 0.86246 0.12029 -0.15729
 C380 C 0.87988 0.10686 -0.13897
 C381 C 0.89970 0.09092 -0.11624
 N382 N 0.89925 0.05934 -0.11428
 N383 N 0.91597 0.04459 -0.09166
 C384 C 0.93366 0.06092 -0.07020
 N385 N 0.93426 0.09254 -0.07237
 N386 N 0.91754 0.10730 -0.09501
 N387 N 0.84006 0.66744 0.31984
 C388 C 0.83967 0.63588 0.32154
 N389 N 0.81760 0.61993 0.30482
 N390 N 0.79649 0.63511 0.28700
 C391 C 0.79656 0.66684 0.28531
 N392 N 0.81896 0.68260 0.30204
 C393 C 0.86127 0.61972 0.34228
 C394 C 0.87882 0.60636 0.36051
 C395 C 0.89883 0.59054 0.38317
 N396 N 0.89852 0.55897 0.38520
 N397 N 0.91540 0.54433 0.40778
 C398 C 0.93312 0.56079 0.42911
 N399 N 0.93359 0.59241 0.42686
 N400 N 0.91670 0.60704 0.40427
 N401 N 0.34049 0.16827 0.32052
 C402 C 0.34000 0.13671 0.32226
 N403 N 0.31799 0.12081 0.30538
 N404 N 0.29705 0.13604 0.28738
 C405 C 0.29722 0.16776 0.28565
 N406 N 0.31955 0.18348 0.30254
 C407 C 0.36144 0.12049 0.34311
 C408 C 0.37886 0.10701 0.36139
 C409 C 0.39873 0.09103 0.38407
 N410 N 0.39832 0.05945 0.38597
 N411 N 0.41513 0.04467 0.40851
 C412 C 0.43288 0.06098 0.42993
 N413 N 0.43345 0.09261 0.42780
 N414 N 0.41663 0.10739 0.40526
 N415 N 0.34051 0.66740 -0.18081
 C416 C 0.34006 0.63585 -0.17908
 N417 N 0.31785 0.61993 -0.19564
 N418 N 0.29667 0.63514 -0.21333
 C419 C 0.29679 0.66686 -0.21504
 N420 N 0.31933 0.68259 -0.19849
 C421 C 0.36166 0.61967 -0.15839
 C422 C 0.37917 0.60629 -0.14015
 C423 C 0.39908 0.59044 -0.11744
 N424 N 0.39864 0.55888 -0.11534
 N425 N 0.41537 0.54423 -0.09266
 C426 C 0.43306 0.56066 -0.07128
 N427 N 0.43366 0.59227 -0.07361
 N428 N 0.41692 0.60692 -0.09630
 N429 N 1.15806 -0.16768 -0.18050
 C430 C 1.15889 -0.13615 -0.17838
 N431 N 1.18134 -0.12024 -0.19464
 N432 N 1.20240 -0.13544 -0.21244
 C433 C 1.20182 -0.16710 -0.21454
 N434 N 1.17912 -0.18286 -0.19829
 C435 C 1.13745 -0.12002 -0.15757
 C436 C 1.12011 -0.10661 -0.13925
 C437 C 1.10042 -0.09071 -0.11646
 N438 N 1.10100 -0.05914 -0.11447
 N439 N 1.08447 -0.04444 -0.09173
 C440 C 1.06685 -0.06082 -0.07021
 N441 N 1.06610 -0.09242 -0.07243
 N442 N 1.08264 -0.10712 -0.09517
 N443 N 1.18281 0.38064 0.30547
 C444 C 1.16055 0.36469 0.32200
 N445 N 1.15986 0.33315 0.31999
 N446 N 1.18082 0.31800 0.30207
 C447 C 1.20332 0.33380 0.28553
 N448 N 1.20378 0.36547 0.28752
 C449 C 1.13904 0.38082 0.34278
 C450 C 1.12154 0.39417 0.36102
 C451 C 1.10155 0.40998 0.38364
 N452 N 1.08362 0.39347 0.40472
 N453 N 1.06669 0.40808 0.42722
 C454 C 1.06718 0.43970 0.42940
 N455 N 1.08496 0.45617 0.40809
 N456 N 1.10188 0.44155 0.38560
 N457 N 0.65840 -0.16780 0.32008
 C458 C 0.65918 -0.13626 0.32217
 N459 N 0.68153 -0.12034 0.30576
 N460 N 0.70252 -0.13552 0.28786
 C461 C 0.70198 -0.16718 0.28579
 N462 N 0.67938 -0.18296 0.30219
 C463 C 0.63774 -0.12013 0.34300
 C464 C 0.62035 -0.10672 0.36129
 C465 C 0.60054 -0.09082 0.38399
 N466 N 0.60098 -0.05924 0.38587
 N467 N 0.58428 -0.04453 0.40847
 C468 C 0.56663 -0.06091 0.42997
 N469 N 0.56604 -0.09253 0.42788
 N470 N 0.58275 -0.10724 0.40527
 N471 N 0.68214 0.38095 -0.19533
 C472 C 0.65975 0.36500 -0.17900
 N473 N 0.65898 0.33346 -0.18115
 N474 N 0.67999 0.31833 -0.19902
 C475 C 0.70262 0.33413 -0.21535
 N476 N 0.70316 0.36579 -0.21321
 C477 C 0.63824 0.38109 -0.15821
 C478 C 0.62076 0.39441 -0.13993
 C479 C 0.60082 0.41017 -0.11723
 N480 N 0.58295 0.39362 -0.09614
 N481 N 0.56612 0.40818 -0.07352
 C482 C 0.56666 0.43979 -0.07124
 N483 N 0.58439 0.45630 -0.09257
 N484 N 0.60120 0.44173 -0.11518
 N485 N 1.12069 0.18219 -0.19464
 C486 C 1.13659 0.16017 -0.17770
 N487 N 1.16813 0.15978 -0.17925
 N488 N 1.18332 0.18081 -0.19713
 C489 C 1.16761 0.20315 -0.21408
 N490 N 1.13590 0.20323 -0.21253
 C491 C 1.12039 0.13864 -0.15693
 C492 C 1.10696 0.12114 -0.13868
 C493 C 1.09107 0.10119 -0.11602
 N494 N 1.10748 0.08324 -0.09486
 N495 N 1.09278 0.06638 -0.07229
 C496 C 1.06119 0.06694 -0.07014
 N497 N 1.04482 0.08474 -0.09154
 N498 N 1.05952 0.10160 -0.11409
 N499 N 1.12022 0.68263 0.30497
 C500 C 1.13617 0.66061 0.32187
 N501 N 1.16770 0.66018 0.32017
 N502 N 1.18284 0.68118 0.30220
 C503 C 1.16709 0.70352 0.28529
 N504 N 1.13539 0.70363 0.28699
 C505 C 1.12003 0.63910 0.34271
 C506 C 1.10665 0.62162 0.36101
 C507 C 1.09078 0.60167 0.38369
 N508 N 1.10721 0.58385 0.40496
 N509 N 1.09252 0.56697 0.42751
 C510 C 1.06092 0.56740 0.42956
 N511 N 1.04453 0.58508 0.40806
 N512 N 1.05922 0.60195 0.38552
 N513 N 0.61993 0.18122 0.30476
 C514 C 0.63579 0.15874 0.32108
 N515 N 0.66731 0.15792 0.31898
 N516 N 0.68251 0.17900 0.30116
 C517 C 0.66679 0.20172 0.28486
 N518 N 0.63515 0.20230 0.28693
 C519 C 0.61963 0.13727 0.34192
 C520 C 0.60621 0.11990 0.36027
 C521 C 0.59032 0.10016 0.38311
 N522 N 0.60673 0.08232 0.40436
 N523 N 0.59205 0.06574 0.42715
 C524 C 0.56047 0.06650 0.42946
 N525 N 0.54409 0.08418 0.40796
 N526 N 0.55878 0.10076 0.38518
 N527 N 0.62012 0.68296 -0.19500
 C528 C 0.63606 0.66096 -0.17806
 N529 N 0.66759 0.66054 -0.17971
 N530 N 0.68275 0.68154 -0.19767
 C531 C 0.66701 0.70386 -0.21462
 N532 N 0.63530 0.70396 -0.21297
 C533 C 0.61988 0.63943 -0.15726
 C534 C 0.60647 0.62192 -0.13902
 C535 C 0.59058 0.60192 -0.11640
 N536 N 0.60698 0.58403 -0.09518
 N537 N 0.59227 0.56708 -0.07269
 C538 C 0.56066 0.56750 -0.07068
 N539 N 0.54430 0.58525 -0.09213
 N540 N 0.55901 0.60219 -0.11460
 N541 N 0.87986 -0.18185 -0.19429
 C542 C 0.86400 -0.15959 -0.17774
 N543 N 0.83248 -0.15883 -0.17975
 N544 N 0.81726 -0.17974 -0.19770
 C545 C 0.83298 -0.20224 -0.21426
 N546 N 0.86463 -0.20276 -0.21226
 C547 C 0.88021 -0.13817 -0.15691
 C548 C 0.89365 -0.12078 -0.13863
 C549 C 0.90959 -0.10093 -0.11596
 N550 N 0.89322 -0.08302 -0.09482
 N551 N 0.90795 -0.06624 -0.07227
 C552 C 0.93954 -0.06686 -0.07009
 N553 N 0.95587 -0.08464 -0.09146
 N554 N 0.94114 -0.10140 -0.11401
 N555 N 0.88025 0.31845 0.30522
 C556 C 0.86430 0.34092 0.32135
 N557 N 0.83279 0.34171 0.31908
 N558 N 0.81768 0.32061 0.30128
 C559 C 0.83349 0.29789 0.28516
 N560 N 0.86512 0.29735 0.28741
 C561 C 0.88036 0.36244 0.34215
 C562 C 0.89372 0.37986 0.36045
 C563 C 0.90956 0.39966 0.38320
 N564 N 0.94111 0.39928 0.38515
 N565 N 0.95578 0.41592 0.40783
 C566 C 0.93938 0.43346 0.42935
 N567 N 0.90778 0.43400 0.42718
 N568 N 0.89312 0.41734 0.40448
 N569 N 0.37982 -0.18196 0.30563
 C570 C 0.36392 -0.15965 0.32207
 N571 N 0.33241 -0.15890 0.31997
 N572 N 0.31724 -0.17986 0.30204
 C573 C 0.33299 -0.20241 0.28560
 N574 N 0.36463 -0.20293 0.28769
 C575 C 0.38007 -0.13820 0.34290
 C576 C 0.39345 -0.12077 0.36119
 C577 C 0.40932 -0.10091 0.38389
 N578 N 0.44087 -0.10134 0.38589
 N579 N 0.45554 -0.08458 0.40848
 C580 C 0.43915 -0.06684 0.42984
 N581 N 0.40756 -0.06625 0.42761
 N582 N 0.39289 -0.08303 0.40501
 N583 N 0.37954 0.31749 -0.19460
 C584 C 0.36361 0.33950 -0.17779
 N585 N 0.33206 0.33987 -0.17941
 N586 N 0.31692 0.31881 -0.19723
 C587 C 0.33267 0.29648 -0.21404
 N588 N 0.36437 0.29642 -0.21242
 C589 C 0.37976 0.36107 -0.15709
 C590 C 0.39316 0.37860 -0.13892
 C591 C 0.40903 0.39861 -0.11636
 N592 N 0.44059 0.39842 -0.11459
 N593 N 0.45529 0.41533 -0.09214
 C594 C 0.43891 0.43297 -0.07069
 N595 N 0.40730 0.43331 -0.07268
 N596 N 0.39261 0.41639 -0.09514
 N597 N 1.12013 -0.18257 0.19545
 C598 C 1.13606 -0.16057 0.17852
 N599 N 1.16760 -0.16018 0.18013
 N600 N 1.18276 -0.18121 0.19805
 C601 C 1.16703 -0.20354 0.21499
 N602 N 1.13532 -0.20361 0.21338
 C603 C 1.11989 -0.13903 0.15772
 C604 C 1.10651 -0.12152 0.13944
 C605 C 1.09069 -0.10154 0.11674
 N606 N 1.10716 -0.08365 0.09559
 N607 N 1.09253 -0.06676 0.07300
 C608 C 1.06094 -0.06724 0.07080
 N609 N 1.04450 -0.08498 0.09218
 N610 N 1.05914 -0.10187 0.11476
 N611 N 1.12008 0.31769 0.69460
 C612 C 1.13602 0.34003 0.67815
 N613 N 1.16753 0.34082 0.68039
 N614 N 1.18265 0.31987 0.69845
 C615 C 1.16685 0.29729 0.71490
 N616 N 1.13522 0.29674 0.71267
 C617 C 1.11993 0.36150 0.65721
 C618 C 1.10658 0.37895 0.63885
 C619 C 1.09073 0.39887 0.61610
 N620 N 1.10717 0.41668 0.59486
 N621 N 1.09250 0.43354 0.57226
 C622 C 1.06090 0.43309 0.57014
 N623 N 1.04450 0.41541 0.59162
 N624 N 1.05918 0.39857 0.61420
 N625 N 0.61999 -0.18239 0.69542
 C626 C 0.63589 -0.16041 0.67843
 N627 N 0.66743 -0.16000 0.68000
 N628 N 0.68263 -0.18100 0.69793
 C629 C 0.66692 -0.20330 0.71493
 N630 N 0.63521 -0.20339 0.71336
 C631 C 0.61967 -0.13890 0.65762
 C632 C 0.60624 -0.12141 0.63936
 C633 C 0.59035 -0.10145 0.61669
 N634 N 0.60677 -0.08349 0.59555
 N635 N 0.59209 -0.06661 0.57299
 C636 C 0.56049 -0.06715 0.57080
 N637 N 0.54411 -0.08497 0.59217
 N638 N 0.55880 -0.10184 0.61473
 N639 N 0.62016 0.31834 0.19423
 C640 C 0.63608 0.34081 0.17799
 N641 N 0.66759 0.34162 0.18023
 N642 N 0.68272 0.32054 0.19812
 C643 C 0.66694 0.29781 0.21435
 N644 N 0.63531 0.29725 0.21213
 C645 C 0.61999 0.36231 0.15712
 C646 C 0.60660 0.37972 0.13876
 C647 C 0.59069 0.39950 0.11596
 N648 N 0.60707 0.41723 0.09460
 N649 N 0.59235 0.43388 0.07188
 C650 C 0.56075 0.43328 0.06976
 N651 N 0.54441 0.41570 0.09136
 N652 N 0.55914 0.39906 0.11407
 N653 N 0.88054 0.18135 0.19512
 C654 C 0.86468 0.15885 0.17892
 N655 N 0.83317 0.15799 0.18107
 N656 N 0.81797 0.17905 0.19882
 C657 C 0.83368 0.20180 0.21501
 N658 N 0.86532 0.20242 0.21288
 C659 C 0.88083 0.13740 0.15814
 C660 C 0.89423 0.12002 0.13984
 C661 C 0.91008 0.10027 0.11707
 N662 N 0.89364 0.08253 0.09582
 N663 N 0.90829 0.06593 0.07309
 C664 C 0.93988 0.06658 0.07085
 N665 N 0.95629 0.08417 0.09233
 N666 N 0.94163 0.10076 0.11505
 N667 N 0.87959 0.68224 0.69394
 C668 C 0.86366 0.66001 0.67742
 N669 N 0.83214 0.65929 0.67950
 N670 N 0.81701 0.68021 0.69749
 C671 C 0.83280 0.70268 0.71403
 N672 N 0.86444 0.70316 0.71195
 C673 C 0.87978 0.63857 0.65656
 C674 C 0.89319 0.62116 0.63828
 C675 C 0.90911 0.60129 0.61563
 N676 N 0.89274 0.58348 0.59439
 N677 N 0.90748 0.56667 0.57188
 C678 C 0.93908 0.56716 0.56986
 N679 N 0.95541 0.58484 0.59134
 N680 N 0.94067 0.60164 0.61383
 N681 N 0.33294 0.15885 0.68090
 C682 C 0.36444 0.15969 0.67868
 N683 N 0.38036 0.18204 0.69506
 N684 N 0.36520 0.20296 0.71306
 C685 C 0.33356 0.20236 0.71527
 N686 N 0.31780 0.17977 0.69889
 C687 C 0.38055 0.13827 0.65779
 C688 C 0.39389 0.12086 0.63946
 C689 C 0.40969 0.10099 0.61672
 N690 N 0.44124 0.10137 0.61469
 N691 N 0.45585 0.08459 0.59209
 C692 C 0.43939 0.06690 0.57073
 N693 N 0.40780 0.06637 0.57297
 N694 N 0.39320 0.08316 0.59559
 N695 N 0.37964 0.68196 0.19392
 C696 C 0.36370 0.65966 0.17749
 N697 N 0.33219 0.65889 0.17968
 N698 N 0.31708 0.67981 0.19769
 C699 C 0.33288 0.70235 0.21411
 N700 N 0.36451 0.70289 0.21193
 C701 C 0.37979 0.63824 0.15660
 C702 C 0.39315 0.62084 0.13827
 C703 C 0.40901 0.60101 0.11556
 N704 N 0.39259 0.58327 0.09429
 N705 N 0.40728 0.56650 0.07171
 C706 C 0.43889 0.56697 0.06965
 N707 N 0.45527 0.58457 0.09115
 N708 N 0.44057 0.60132 0.11372
   
