data_POSCAR
  _audit_creation_date              2014-09-24
  _audit_creation_method            'ToBaCCo'
  _symmetry_space_group_name_H-M    'P1'
  _symmetry_Int_Tables_number       1
  _symmetry_cell_setting            triclinic
  loop_
  _symmetry_equiv_pos_as_xyz
 x,y,z
_cell_length_a 63.9895
_cell_length_b 64.1056
_cell_length_c 46.6071
_cell_angle_alpha 90.100600
_cell_angle_beta 89.994100
_cell_angle_gamma 120.692200
loop_
  _atom_site_label
  _atom_site_type_symbol
  _atom_site_fract_x
  _atom_site_fract_y
  _atom_site_fract_z
C1 C 0.06448 0.54194 0.04612
 C2 C 0.06489 0.52078 0.04653
 C3 C 0.04297 0.50300 0.03501
 N4 N 0.02918 0.51255 0.02756
 C5 C 0.04231 0.53636 0.03435
 C6 C 0.03507 0.47805 0.03410
 C7 C 0.01388 0.46083 0.01949
 C8 C 0.00207 0.43601 0.02389
 C9 C -0.01720 0.42566 0.00509
 C10 C -0.01635 0.44444 -0.01068
 N11 N 0.00262 0.46584 -0.00163
 C12 C -0.03242 0.44172 -0.03324
 C13 C -0.03403 0.46174 -0.04317
 C14 C -0.04260 0.46313 -0.07000
 C15 C -0.04297 0.48426 -0.07044
 C16 C -0.03465 0.49514 -0.04386
 N17 N -0.02882 0.48152 -0.02727
 C18 C -0.03385 0.51665 -0.03476
 C19 C -0.01801 0.53119 -0.01244
 C20 C -0.01955 0.54911 0.00254
 C21 C -0.00028 0.55938 0.02136
 C22 C 0.01221 0.54717 0.01776
 N23 N 0.00137 0.53008 -0.00289
 C24 C 0.03361 0.55259 0.03263
 H25 H 0.07865 0.55935 0.05410
 H26 H 0.07946 0.51862 0.05488
 H27 H 0.00810 0.51978 -0.01186
 H28 H 0.00669 0.42637 0.03928
 H29 H -0.03041 0.40648 0.00345
 H30 H -0.04796 0.45025 -0.08748
 H31 H -0.04868 0.49092 -0.08834
 H32 H 0.00389 0.57399 0.03623
 H33 H 0.00884 0.48268 -0.01117
 H34 H -0.03320 0.55419 0.00037
 C35 C 0.45524 0.51925 0.04821
 C36 C 0.47671 0.54104 0.04855
 C37 C 0.49415 0.53682 0.03690
 N38 N 0.48409 0.51322 0.02949
 C39 C 0.46030 0.50247 0.03635
 C40 C 0.51920 0.55418 0.03540
 C41 C 0.53607 0.55012 0.02065
 C42 C 0.56111 0.56418 0.02355
 C43 C 0.57092 0.55489 0.00477
 C44 C 0.55158 0.53553 -0.00917
 N45 N 0.53043 0.53282 0.00055
 C46 C 0.55368 0.52186 -0.03157
 C47 C 0.53380 0.49977 -0.04143
 C48 C 0.53339 0.48865 -0.06709
 C49 C 0.51191 0.46694 -0.06767
 C50 C 0.50002 0.46528 -0.04211
 N51 N 0.51336 0.48554 -0.02618
 C52 C 0.47782 0.44477 -0.03318
 C53 C 0.46355 0.44646 -0.01096
 C54 C 0.44530 0.42693 0.00404
 C55 C 0.43557 0.43616 0.02294
 C56 C 0.44839 0.46110 0.01940
 N57 N 0.46536 0.46726 -0.00134
 C58 C 0.44358 0.47732 0.03447
 H59 H 0.43796 0.51605 0.05620
 H60 H 0.47926 0.55798 0.05684
 H61 H 0.47598 0.48442 -0.01026
 H62 H 0.57125 0.57956 0.03769
 H63 H 0.59010 0.56175 0.00158
 H64 H 0.54713 0.49552 -0.08369
 H65 H 0.50577 0.45384 -0.08498
 H66 H 0.42091 0.42572 0.03786
 H67 H 0.51333 0.52150 -0.00826
 H68 H 0.43967 0.40796 0.00188
 C69 C 0.52025 1.05852 -0.05751
 C70 C 0.54097 1.05729 -0.05794
 C71 C 0.53499 1.03511 -0.04615
 N72 N 0.51119 1.02257 -0.03882
 C73 C 0.50207 1.03683 -0.04595
 C74 C 0.55125 1.02643 -0.04379
 C75 C 0.54690 1.00667 -0.02627
 C76 C 0.56077 0.99568 -0.02631
 C77 C 0.55179 0.97861 -0.00480
 C78 C 0.53257 0.97953 0.00761
 N79 N 0.52988 0.99684 -0.00546
 C80 C 0.51899 0.96554 0.03141
 C81 C 0.49672 0.96319 0.04015
 C82 C 0.48341 0.95008 0.06384
 C83 C 0.46223 0.95053 0.06353
 C84 C 0.46327 0.96396 0.03970
 N85 N 0.48427 0.97149 0.02533
 C86 C 0.44407 0.96710 0.03027
 C87 C 0.44599 0.98212 0.00701
 C88 C 0.42638 0.98164 -0.00630
 C89 C 0.43570 0.99935 -0.02697
 C90 C 0.46084 1.01053 -0.02548
 N91 N 0.46695 0.99989 -0.00466
 C92 C 0.47737 1.03029 -0.04289
 H93 H 0.51884 1.07379 -0.06472
 H94 H 0.55854 1.07127 -0.06574
 H95 H 0.48439 1.00602 0.00303
 H96 H 0.57601 0.99978 -0.04009
 H97 H 0.55880 0.96702 0.00112
 H98 H 0.48812 0.94063 0.07938
 H99 H 0.44754 0.94150 0.07879
 H100 H 0.42509 1.00339 -0.04156
 H101 H 0.51896 1.00348 0.00148
 H102 H 0.40727 0.96971 -0.00173
 C103 C 1.06561 0.55073 0.45783
 C104 C 1.06656 0.52992 0.45650
 C105 C 1.04415 0.51118 0.46567
 N106 N 1.02969 0.52002 0.47305
 C107 C 1.04281 0.54425 0.46838
 C108 C 1.03709 0.48627 0.46578
 C109 C 1.01666 0.46862 0.48153
 C110 C 1.00576 0.44368 0.47803
 C111 C 0.98717 0.43305 0.49762
 C112 C 0.98678 0.45171 0.51216
 N113 N 1.00491 0.47333 0.50243
 C114 C 0.97051 0.44836 0.53460
 C115 C 0.96591 0.46658 0.54410
 C116 C 0.95091 0.46412 0.56692
 C117 C 0.94937 0.48467 0.56738
 C118 C 0.96348 0.49904 0.54484
 N119 N 0.97341 0.48785 0.53051
 C120 C 0.96544 0.52118 0.53660
 C121 C 0.98106 0.53624 0.51463
 C122 C 0.98061 0.55589 0.50295
 C123 C 0.99979 0.56685 0.48412
 C124 C 1.01144 0.55358 0.48477
 N125 N 0.99996 0.53507 0.50355
 C126 C 1.03361 0.56016 0.47082
 H127 H 1.08004 0.56851 0.45137
 H128 H 1.08203 0.52874 0.44939
 H129 H 1.00656 0.52430 0.51112
 H130 H 1.01053 0.43403 0.46281
 H131 H 0.97513 0.41374 0.50053
 H132 H 0.94156 0.44888 0.58136
 H133 H 0.93865 0.48833 0.58228
 H134 H 1.00496 0.58317 0.47201
 H135 H 1.01037 0.49021 0.51144
 H136 H 0.96814 0.56207 0.50795
 C137 C 0.52221 0.46430 0.55967
 C138 C 0.54318 0.48646 0.56048
 C139 C 0.53977 0.50156 0.54224
 N140 N 0.51736 0.48925 0.53042
 C141 C 0.50652 0.46648 0.54106
 C142 C 0.55772 0.52591 0.53620
 C143 C 0.55494 0.54105 0.51635
 C144 C 0.57374 0.56348 0.50742
 C145 C 0.56409 0.57223 0.48781
 C146 C 0.53958 0.55500 0.48531
 N147 N 0.53408 0.53624 0.50317
 C148 C 0.52329 0.55722 0.46672
 C149 C 0.49915 0.53848 0.46095
 C150 C 0.48318 0.54091 0.44311
 C151 C 0.46215 0.51879 0.44241
 C152 C 0.46581 0.50347 0.45995
 N153 N 0.48844 0.51560 0.47122
 C154 C 0.44793 0.47903 0.46577
 C155 C 0.45087 0.46367 0.48511
 C156 C 0.43224 0.44092 0.49345
 C157 C 0.44195 0.43213 0.51293
 C158 C 0.46631 0.44965 0.51599
 N159 N 0.47168 0.46861 0.49854
 C160 C 0.48252 0.44760 0.53490
 H161 H 0.51895 0.44839 0.57148
 H162 H 0.55922 0.49081 0.57285
 H163 H 0.48882 0.48330 0.49464
 H164 H 0.59259 0.57254 0.51401
 H165 H 0.57411 0.58926 0.47645
 H166 H 0.48627 0.55696 0.43176
 H167 H 0.44591 0.51460 0.43057
 H168 H 0.43204 0.41489 0.52390
 H169 H 0.51683 0.52194 0.50769
 H170 H 0.41346 0.43170 0.48657
 C171 C 0.45169 -0.06326 0.45496
 C172 C 0.47272 -0.06390 0.45396
 C173 C 0.49123 -0.04142 0.46335
 N174 N 0.48204 -0.02723 0.47050
 C175 C 0.45781 -0.04058 0.46550
 C176 C 0.51626 -0.03409 0.46390
 C177 C 0.53359 -0.01383 0.48020
 C178 C 0.55866 -0.00289 0.47756
 C179 C 0.56885 0.01543 0.49758
 C180 C 0.54983 0.01564 0.51147
 N181 N 0.52840 -0.00235 0.50096
 C182 C 0.55263 0.03157 0.53408
 C183 C 0.53424 0.03625 0.54268
 C184 C 0.53618 0.05104 0.56551
 C185 C 0.51563 0.05265 0.56512
 C186 C 0.50176 0.03875 0.54210
 N187 N 0.51329 0.02892 0.52827
 C188 C 0.47971 0.03674 0.53313
 C189 C 0.46493 0.02103 0.51100
 C190 C 0.44526 0.02125 0.49885
 C191 C 0.43449 0.00195 0.48014
 C192 C 0.44793 -0.00952 0.48130
 N193 N 0.46633 0.00218 0.50028
 C194 C 0.44161 -0.03171 0.46763
 H195 H 0.43401 -0.07782 0.44827
 H196 H 0.47420 -0.07920 0.44694
 H197 H 0.47713 -0.00427 0.50824
 H198 H 0.56867 -0.00746 0.46266
 H199 H 0.58812 0.02743 0.50119
 H200 H 0.55107 0.06019 0.58054
 H201 H 0.51161 0.06321 0.57983
 H202 H 0.41821 -0.00340 0.46778
 H203 H 0.51132 -0.00791 0.50943
 H204 H 0.43891 0.03364 0.50351
 O205 O 0.19149 0.42383 0.22527
 O206 O 0.23278 0.42456 0.28108
 O207 O 0.19248 0.42584 0.28097
 O208 O 0.23182 0.42266 0.22520
 O209 O 0.25272 0.46263 0.22309
 O210 O 0.21433 0.46581 0.27936
 O211 O 0.25424 0.46449 0.27872
 O212 O 0.21283 0.46381 0.22367
 Cu213 Cu 0.21001 0.42019 0.25333
 Cu214 Cu 0.23566 0.46816 0.25105
 C215 C 0.19504 0.44377 0.21507
 C216 C 0.25071 0.44470 0.28929
 C217 C 0.19670 0.44646 0.28959
 C218 C 0.24901 0.44218 0.21460
 O219 O 0.57261 0.80858 0.27779
 O220 O 0.57357 0.76837 0.22163
 O221 O 0.57227 0.80857 0.22194
 O222 O 0.57376 0.76829 0.27750
 O223 O 0.53370 0.74675 0.27697
 O224 O 0.53219 0.78770 0.22319
 O225 O 0.53348 0.74771 0.22126
 O226 O 0.53256 0.78654 0.27864
 Cu227 Cu 0.57710 0.79059 0.24967
 Cu228 Cu 0.52900 0.76502 0.24997
 C229 C 0.55234 0.80438 0.28780
 C230 C 0.55363 0.75113 0.21187
 C231 C 0.55189 0.80523 0.21348
 C232 C 0.55391 0.75050 0.28658
 O233 O 0.23065 0.80953 0.22098
 O234 O 0.18932 0.76884 0.27731
 O235 O 0.23067 0.80992 0.27700
 O236 O 0.18906 0.76842 0.22138
 O237 O 0.20915 0.74888 0.22123
 O238 O 0.25003 0.78967 0.27718
 O239 O 0.20887 0.74877 0.27692
 O240 O 0.25032 0.78959 0.22172
 Cu241 Cu 0.20794 0.79120 0.24912
 Cu242 Cu 0.23152 0.76721 0.24929
 C243 C 0.24772 0.80659 0.21192
 C244 C 0.19201 0.75173 0.28661
 C245 C 0.24754 0.80689 0.28655
 C246 C 0.19201 0.75151 0.21183
 O247 O 0.76885 0.57768 0.78298
 O248 O 0.80804 0.57488 0.72678
 O249 O 0.76831 0.57692 0.72708
 O250 O 0.80885 0.57563 0.78269
 O251 O 0.78665 0.53567 0.78321
 O252 O 0.74654 0.53695 0.72802
 O253 O 0.78610 0.53492 0.72772
 O254 O 0.74727 0.53768 0.78378
 Cu255 Cu 0.79071 0.58032 0.75486
 Cu256 Cu 0.76443 0.53233 0.75573
 C257 C 0.75130 0.55808 0.79293
 C258 C 0.80382 0.55436 0.71777
 C259 C 0.75044 0.55706 0.71808
 C260 C 0.80471 0.55530 0.79227
 O261 O 0.42508 0.23435 0.72412
 O262 O 0.42229 0.19100 0.77815
 O263 O 0.42240 0.23200 0.77993
 O264 O 0.42516 0.19368 0.72248
 O265 O 0.46514 0.21387 0.72582
 O266 O 0.46243 0.25219 0.78250
 O267 O 0.46230 0.21171 0.78134
 O268 O 0.46509 0.25444 0.72687
 Cu269 Cu 0.41969 0.21073 0.75093
 Cu270 Cu 0.46773 0.23510 0.75439
 C271 C 0.44561 0.25183 0.71625
 C272 C 0.44187 0.19391 0.78888
 C273 C 0.44205 0.24876 0.79093
 C274 C 0.44569 0.19715 0.71451
 O275 O 0.81146 0.23040 0.77555
 O276 O 0.76959 0.19113 0.71858
 O277 O 0.81120 0.23211 0.71950
 O278 O 0.76956 0.18950 0.77431
 O279 O 0.75057 0.21011 0.77609
 O280 O 0.79174 0.25222 0.72166
 O281 O 0.75026 0.21139 0.72090
 O282 O 0.79190 0.25043 0.77737
 Cu283 Cu 0.79248 0.20881 0.74679
 Cu284 Cu 0.76929 0.23315 0.74912
 C285 C 0.80876 0.24713 0.78623
 C286 C 0.75247 0.19433 0.71039
 C287 C 0.80855 0.24953 0.71127
 C288 C 0.75272 0.19243 0.78431
 C289 C 0.07782 0.45640 0.08283
 C290 C 0.06301 0.46357 0.09678
 C291 C 0.04872 0.47009 0.08091
 C292 C 0.04888 0.46942 0.05085
 C293 C 0.06304 0.46157 0.03681
 C294 C 0.07750 0.45521 0.05268
 C295 C 0.09448 0.45149 0.09974
 C296 C 0.11877 0.46131 0.09117
 C297 C 0.13510 0.45860 0.10840
 C298 C 0.12744 0.44586 0.13443
 C299 C 0.10294 0.43530 0.14250
 C300 C 0.08665 0.43817 0.12538
 C301 C 0.14520 0.44478 0.15389
 C302 C 0.13946 0.42317 0.16807
 C303 C 0.15586 0.42265 0.18749
 C304 C 0.17820 0.44380 0.19333
 C305 C 0.18403 0.46531 0.17883
 C306 C 0.16776 0.46577 0.15926
 H307 H 0.06311 0.46494 0.11994
 H308 H 0.03788 0.47615 0.09200
 H309 H 0.06330 0.46095 0.01359
 H310 H 0.08858 0.44955 0.04141
 H311 H 0.12537 0.47183 0.07165
 H312 H 0.15384 0.46674 0.10154
 H313 H 0.09658 0.42554 0.16255
 H314 H 0.06797 0.43024 0.13237
 H315 H 0.12226 0.40669 0.16416
 H316 H 0.15084 0.40580 0.19834
 H317 H 0.20111 0.48191 0.18282
 H318 H 0.17255 0.48274 0.14890
 C319 C 0.54157 0.62030 0.08170
 C320 C 0.54164 0.62019 0.05151
 C321 C 0.53513 0.59884 0.03641
 C322 C 0.52827 0.57729 0.05125
 C323 C 0.52875 0.57745 0.08132
 C324 C 0.53542 0.59878 0.09643
 C325 C 0.54647 0.64229 0.09788
 C326 C 0.56068 0.64920 0.12294
 C327 C 0.56350 0.66867 0.13953
 C328 C 0.55199 0.68148 0.13151
 C329 C 0.53838 0.67502 0.10600
 C330 C 0.53572 0.65569 0.08930
 C331 C 0.55295 0.70049 0.15060
 C332 C 0.53166 0.70091 0.15658
 C333 C 0.53201 0.71765 0.17607
 C334 C 0.55371 0.73449 0.18988
 C335 C 0.57517 0.73451 0.18332
 C336 C 0.57477 0.71758 0.16399
 H337 H 0.54649 0.63655 0.03964
 H338 H 0.53482 0.59895 0.01317
 H339 H 0.52342 0.56089 0.09303
 H340 H 0.53491 0.59825 0.11965
 H341 H 0.56933 0.63932 0.12992
 H342 H 0.57394 0.67313 0.15920
 H343 H 0.52950 0.68473 0.09919
 H344 H 0.52451 0.65065 0.07022
 H345 H 0.51453 0.68777 0.14685
 H346 H 0.51517 0.71718 0.18062
 H347 H 0.59218 0.74725 0.19362
 H348 H 0.59148 0.71777 0.15959
 C349 C 0.37686 0.92197 0.07459
 C350 C 0.39442 0.94452 0.08618
 C351 C 0.41585 0.95968 0.07119
 C352 C 0.42016 0.95250 0.04451
 C353 C 0.40244 0.93045 0.03241
 C354 C 0.38090 0.91540 0.04720
 C355 C 0.35536 0.90468 0.09186
 C356 C 0.34710 0.87972 0.09107
 C357 C 0.32826 0.86358 0.10893
 C358 C 0.31734 0.87196 0.12832
 C359 C 0.32502 0.89679 0.12851
 C360 C 0.34379 0.91296 0.11044
 C361 C 0.29898 0.85500 0.14923
 C362 C 0.27879 0.85698 0.15688
 C363 C 0.26198 0.84121 0.17713
 C364 C 0.26502 0.82313 0.19006
 C365 C 0.28514 0.82113 0.18228
 C366 C 0.30193 0.83690 0.16222
 H367 H 0.39212 0.95002 0.10735
 H368 H 0.42950 0.97660 0.08086
 H369 H 0.40557 0.92470 0.01179
 H370 H 0.36759 0.89841 0.03740
 H371 H 0.35573 0.87268 0.07733
 H372 H 0.32250 0.84451 0.10786
 H373 H 0.31709 0.90387 0.14329
 H374 H 0.34947 0.93201 0.11132
 H375 H 0.27589 0.87059 0.14707
 H376 H 0.24663 0.84317 0.18264
 H377 H 0.28815 0.80754 0.19197
 H378 H 0.31752 0.83518 0.15733
 C379 C 0.91837 0.53924 0.58215
 C380 C 0.91212 0.52892 0.55452
 C381 C 0.92768 0.52356 0.53940
 C382 C 0.94984 0.52865 0.55150
 C383 C 0.95652 0.53958 0.57862
 C384 C 0.94091 0.54477 0.59386
 C385 C 0.90100 0.54306 0.59933
 C386 C 0.90933 0.56318 0.61774
 C387 C 0.89314 0.56571 0.63548
 C388 C 0.86819 0.54824 0.63514
 C389 C 0.85977 0.52856 0.61605
 C390 C 0.87596 0.52595 0.59846
 C391 C 0.85119 0.54993 0.65548
 C392 C 0.83253 0.52890 0.66860
 C393 C 0.81699 0.53037 0.68844
 C394 C 0.81980 0.55292 0.69584
 C395 C 0.83831 0.57397 0.68261
 C396 C 0.85381 0.57249 0.66259
 H397 H 0.89510 0.52479 0.54468
 H398 H 0.92232 0.51511 0.51844
 H399 H 0.97353 0.54343 0.58828
 H400 H 0.94615 0.55233 0.61523
 H401 H 0.92844 0.57688 0.61866
 H402 H 0.90028 0.58099 0.65008
 H403 H 0.84063 0.51498 0.61489
 H404 H 0.86891 0.51009 0.58479
 H405 H 0.83026 0.51129 0.66406
 H406 H 0.80300 0.51382 0.69836
 H407 H 0.84089 0.59161 0.68777
 H408 H 0.86780 0.58900 0.65261
 C409 C 0.46111 0.38205 0.58172
 C410 C 0.46733 0.38379 0.55249
 C411 C 0.47348 0.40480 0.53698
 C412 C 0.47349 0.42437 0.55042
 C413 C 0.46652 0.42245 0.57925
 C414 C 0.46038 0.40147 0.59478
 C415 C 0.45683 0.36077 0.59900
 C416 C 0.43866 0.35105 0.62017
 C417 C 0.43595 0.33224 0.63788
 C418 C 0.45140 0.32278 0.63484
 C419 C 0.46913 0.33206 0.61316
 C420 C 0.47181 0.35083 0.59544
 C421 C 0.44974 0.30405 0.65496
 C422 C 0.47098 0.30565 0.66591
 C423 C 0.46960 0.28858 0.68558
 C424 C 0.44694 0.26947 0.69477
 C425 C 0.42567 0.26770 0.68361
 C426 C 0.42706 0.28484 0.66396
 H427 H 0.46775 0.36902 0.54175
 H428 H 0.47883 0.40608 0.51470
 H429 H 0.46659 0.43752 0.58990
 H430 H 0.45598 0.40084 0.61731
 H431 H 0.42668 0.35816 0.62324
 H432 H 0.42224 0.32559 0.65452
 H433 H 0.48110 0.32495 0.61005
 H434 H 0.48615 0.35807 0.57955
 H435 H 0.48872 0.32044 0.65975
 H436 H 0.48633 0.29052 0.69379
 H437 H 0.40793 0.25317 0.69022
 H438 H 0.41039 0.28299 0.65568
 C439 C 0.61890 0.07429 0.58089
 C440 C 0.60081 0.05161 0.59138
 C441 C 0.57978 0.03712 0.57537
 C442 C 0.57646 0.04516 0.54876
 C443 C 0.59482 0.06736 0.53772
 C444 C 0.61599 0.08176 0.55358
 C445 C 0.63963 0.09096 0.59938
 C446 C 0.66343 0.10392 0.58848
 C447 C 0.68262 0.12064 0.60580
 C448 C 0.67821 0.12497 0.63408
 C449 C 0.65448 0.11180 0.64502
 C450 C 0.63543 0.09489 0.62791
 C451 C 0.69802 0.14360 0.65212
 C452 C 0.69449 0.16053 0.66720
 C453 C 0.71252 0.17744 0.68540
 C454 C 0.73440 0.17762 0.68922
 C455 C 0.73815 0.16097 0.67370
 C456 C 0.72017 0.14422 0.65512
 H457 H 0.60270 0.04539 0.61227
 H458 H 0.56566 0.02009 0.58421
 H459 H 0.59234 0.07386 0.51731
 H460 H 0.62954 0.09926 0.54516
 H461 H 0.66712 0.10115 0.56656
 H462 H 0.70077 0.13065 0.59689
 H463 H 0.65067 0.11467 0.66685
 H464 H 0.61723 0.08535 0.63674
 H465 H 0.67766 0.16058 0.66499
 H466 H 0.70903 0.18998 0.69705
 H467 H 0.75484 0.16070 0.67617
 H468 H 0.72326 0.13129 0.64375
 C469 C 0.45435 0.07244 0.91170
 C470 C 0.44875 0.06727 0.94090
 C471 C 0.45569 0.05279 0.95571
 C472 C 0.46887 0.04361 0.94175
 C473 C 0.47393 0.04844 0.91229
 C474 C 0.46667 0.06257 0.89745
 C475 C 0.44857 0.08907 0.89630
 C476 C 0.43844 0.08332 0.86863
 C477 C 0.43511 0.10001 0.85305
 C478 C 0.44214 0.12289 0.86471
 C479 C 0.45163 0.12838 0.89269
 C480 C 0.45466 0.11156 0.90842
 C481 C 0.44116 0.14152 0.84696
 C482 C 0.46150 0.16505 0.84534
 C483 C 0.46153 0.18218 0.82685
 C484 C 0.44109 0.17624 0.80985
 C485 C 0.42042 0.15294 0.81215
 C486 C 0.42053 0.13567 0.83037
 H487 H 0.43917 0.07460 0.95231
 H488 H 0.45164 0.04962 0.97840
 H489 H 0.48351 0.04119 0.90068
 H490 H 0.47131 0.06639 0.87496
 H491 H 0.43347 0.06603 0.85890
 H492 H 0.42793 0.09540 0.83145
 H493 H 0.45706 0.14586 0.90221
 H494 H 0.46266 0.11650 0.92963
 H495 H 0.47772 0.16996 0.85768
 H496 H 0.47770 0.20001 0.82560
 H497 H 0.40443 0.14783 0.79926
 H498 H 0.40459 0.11767 0.83136
 C499 C 0.62203 0.54460 0.92655
 C500 C 0.61219 0.55987 0.92680
 C501 C 0.59026 0.55280 0.94092
 C502 C 0.57786 0.53043 0.95517
 C503 C 0.58799 0.51551 0.95569
 C504 C 0.60975 0.52245 0.94144
 C505 C 0.64423 0.55093 0.90965
 C506 C 0.66090 0.54441 0.91951
 C507 C 0.68015 0.54771 0.90216
 C508 C 0.68338 0.55789 0.87472
 C509 C 0.66753 0.56558 0.86538
 C510 C 0.64808 0.56203 0.88260
 C511 C 0.70201 0.55877 0.85509
 C512 C 0.71702 0.57962 0.83885
 C513 C 0.73360 0.57971 0.81918
 C514 C 0.73512 0.55880 0.81505
 C515 C 0.72029 0.53808 0.83157
 C516 C 0.70404 0.53812 0.85149
 H517 H 0.62133 0.57718 0.91588
 H518 H 0.58271 0.56455 0.94029
 H519 H 0.57868 0.49818 0.96657
 H520 H 0.61649 0.51002 0.94130
 H521 H 0.65882 0.53634 0.94048
 H522 H 0.69234 0.54195 0.91001
 H523 H 0.66950 0.57327 0.84418
 H524 H 0.63546 0.56699 0.87414
 H525 H 0.71583 0.59579 0.84132
 H526 H 0.74477 0.59591 0.80668
 H527 H 0.72111 0.52172 0.82892
 H528 H 0.69249 0.52173 0.86351
 C529 C 0.92197 0.37393 0.92567
 C530 C 0.91280 0.38867 0.93447
 C531 C 0.92770 0.41063 0.94845
 C532 C 0.95229 0.41859 0.95411
 C533 C 0.96128 0.40342 0.94601
 C534 C 0.94632 0.38142 0.93179
 C535 C 0.90631 0.35158 0.90881
 C536 C 0.91530 0.34615 0.88415
 C537 C 0.89964 0.32706 0.86605
 C538 C 0.87469 0.31307 0.87226
 C539 C 0.86600 0.31766 0.89776
 C540 C 0.88163 0.33667 0.91584
 C541 C 0.85746 0.29518 0.85119
 C542 C 0.83573 0.29462 0.84479
 C543 C 0.81991 0.27885 0.82392
 C544 C 0.82534 0.26313 0.80902
 C545 C 0.84688 0.26335 0.81571
 C546 C 0.86288 0.27935 0.83649
 H547 H 0.89421 0.38358 0.92981
 H548 H 0.91989 0.42145 0.95492
 H549 H 0.98018 0.40904 0.94950
 H550 H 0.95385 0.37037 0.92533
 H551 H 0.93418 0.35745 0.87804
 H552 H 0.90681 0.32404 0.84644
 H553 H 0.84694 0.30686 0.90337
 H554 H 0.87427 0.34010 0.93501
 H555 H 0.83124 0.30686 0.85542
 H556 H 0.80346 0.27912 0.81932
 H557 H 0.85156 0.25146 0.80457
 H558 H 0.87946 0.27935 0.84110
 C559 C 0.53528 0.92264 0.41392
 C560 C 0.54366 0.92877 0.44232
 C561 C 0.53820 0.94377 0.45861
 C562 C 0.52403 0.95275 0.44690
 C563 C 0.51670 0.94745 0.41802
 C564 C 0.52233 0.93271 0.40177
 C565 C 0.53883 0.90487 0.39729
 C566 C 0.52001 0.88772 0.37973
 C567 C 0.52302 0.87104 0.36377
 C568 C 0.54485 0.87083 0.36512
 C569 C 0.56369 0.88786 0.38282
 C570 C 0.56069 0.90469 0.39880
 C571 C 0.54780 0.85311 0.34756
 C572 C 0.56978 0.86002 0.33334
 C573 C 0.57162 0.84389 0.31467
 C574 C 0.55147 0.82063 0.30972
 C575 C 0.52984 0.81344 0.32479
 C576 C 0.52807 0.82942 0.34360
 H577 H 0.55355 0.92118 0.45236
 H578 H 0.54395 0.94727 0.48083
 H579 H 0.50643 0.95467 0.40803
 H580 H 0.51626 0.92897 0.37968
 H581 H 0.50278 0.88704 0.37844
 H582 H 0.50828 0.85847 0.35001
 H583 H 0.58066 0.88806 0.38449
 H584 H 0.57557 0.91775 0.41202
 H585 H 0.58526 0.87818 0.33575
 H586 H 0.58852 0.84995 0.30330
 H587 H 0.51408 0.79552 0.32173
 H588 H 0.51108 0.82331 0.35475
 C589 C 0.38061 0.45671 0.42217
 C590 C 0.38355 0.46390 0.45114
 C591 C 0.40511 0.47028 0.46569
 C592 C 0.42399 0.46941 0.45158
 C593 C 0.42085 0.46141 0.42306
 C594 C 0.39934 0.45509 0.40846
 C595 C 0.35893 0.45257 0.40568
 C596 C 0.34829 0.43415 0.38484
 C597 C 0.32929 0.43177 0.36761
 C598 C 0.32056 0.44780 0.37081
 C599 C 0.33065 0.46568 0.39230
 C600 C 0.34962 0.46806 0.40950
 C601 C 0.30195 0.44677 0.35085
 C602 C 0.30432 0.46831 0.34000
 C603 C 0.28750 0.46757 0.32035
 C604 C 0.26788 0.44527 0.31102
 C605 C 0.26530 0.42369 0.32210
 C606 C 0.28220 0.42443 0.34178
 H607 H 0.36935 0.46502 0.46240
 H608 H 0.40737 0.47651 0.48771
 H609 H 0.43541 0.46089 0.41185
 H610 H 0.39781 0.44997 0.38607
 H611 H 0.35488 0.42176 0.38160
 H612 H 0.32202 0.41791 0.35112
 H613 H 0.32409 0.47809 0.39556
 H614 H 0.35755 0.48261 0.42512
 H615 H 0.31954 0.48579 0.34617
 H616 H 0.29008 0.48454 0.31219
 H617 H 0.25037 0.40621 0.31537
 H618 H 0.27977 0.40754 0.34997
 C619 C 0.07662 0.62625 0.42720
 C620 C 0.05416 0.60834 0.41575
 C621 C 0.03930 0.58697 0.43090
 C622 C 0.04668 0.58303 0.45770
 C623 C 0.06851 0.60131 0.46980
 C624 C 0.08325 0.62277 0.45479
 C625 C 0.09389 0.64738 0.40947
 C626 C 0.11889 0.65559 0.41028
 C627 C 0.13501 0.67386 0.39181
 C628 C 0.12657 0.68428 0.37185
 C629 C 0.10171 0.67671 0.37167
 C630 C 0.08556 0.65848 0.39030
 C631 C 0.14348 0.70201 0.35040
 C632 C 0.14164 0.72208 0.34202
 C633 C 0.15742 0.73835 0.32138
 C634 C 0.17537 0.73487 0.30873
 C635 C 0.17721 0.71484 0.31718
 C636 C 0.16143 0.69860 0.33767
 H637 H 0.04861 0.61025 0.39444
 H638 H 0.02260 0.57299 0.42110
 H639 H 0.07447 0.59863 0.49051
 H640 H 0.10016 0.63639 0.46449
 H641 H 0.12596 0.64729 0.42446
 H642 H 0.15410 0.67957 0.39287
 H643 H 0.09459 0.68428 0.35645
 H644 H 0.06647 0.65281 0.38938
 H645 H 0.12814 0.72532 0.35161
 H646 H 0.15558 0.75364 0.31536
 H647 H 0.19071 0.71152 0.30775
 H648 H 0.16304 0.68307 0.34314
 C649 C 0.91937 0.53451 0.92085
 C650 C 0.94325 0.55274 0.92755
 C651 C 0.95858 0.54716 0.94294
 C652 C 0.95033 0.52318 0.95190
 C653 C 0.92598 0.50532 0.94625
 C654 C 0.91077 0.51090 0.93098
 C655 C 0.90359 0.53949 0.90226
 C656 C 0.88953 0.52278 0.88079
 C657 C 0.87380 0.52652 0.86387
 C658 C 0.87167 0.54707 0.86796
 C659 C 0.88627 0.56424 0.88885
 C660 C 0.90212 0.56048 0.90587
 C661 C 0.85395 0.55007 0.85056
 C662 C 0.86005 0.57263 0.83869
 C663 C 0.84379 0.57464 0.82037
 C664 C 0.82118 0.55411 0.81364
 C665 C 0.81480 0.53182 0.82645
 C666 C 0.83094 0.52984 0.84472
 H667 H 0.95038 0.57108 0.91987
 H668 H 0.97726 0.56136 0.94645
 H669 H 0.91866 0.48685 0.95364
 H670 H 0.89224 0.49661 0.92685
 H671 H 0.89074 0.50676 0.87698
 H672 H 0.86331 0.51330 0.84743
 H673 H 0.88495 0.58022 0.89252
 H674 H 0.91273 0.57364 0.92231
 H675 H 0.87769 0.58851 0.84274
 H676 H 0.84921 0.59206 0.81081
 H677 H 0.79742 0.51570 0.82202
 H678 H 0.82549 0.51234 0.85408
 C679 C 0.45633 0.37740 0.92586
 C680 C 0.48022 0.39228 0.93580
 C681 C 0.48710 0.41416 0.94961
 C682 C 0.47032 0.42193 0.95387
 C683 C 0.44618 0.40666 0.94452
 C684 C 0.43932 0.38473 0.93055
 C685 C 0.44977 0.35496 0.90951
 C686 C 0.43572 0.34914 0.88436
 C687 C 0.43213 0.32972 0.86707
 C688 C 0.44257 0.31579 0.87455
 C689 C 0.45555 0.32085 0.90043
 C690 C 0.45908 0.34019 0.91773
 C691 C 0.44166 0.29740 0.85440
 C692 C 0.46282 0.29656 0.84901
 C693 C 0.46274 0.28049 0.82875
 C694 C 0.44147 0.26475 0.81347
 C695 C 0.42011 0.26515 0.81928
 C696 C 0.42025 0.28144 0.83946
 H697 H 0.49384 0.38730 0.93227
 H698 H 0.50566 0.42504 0.95715
 H699 H 0.43281 0.41211 0.94705
 H700 H 0.42074 0.37356 0.92326
 H701 H 0.42851 0.36031 0.87732
 H702 H 0.42223 0.32637 0.84712
 H703 H 0.46341 0.31013 0.90699
 H704 H 0.46955 0.34391 0.93729
 H705 H 0.47968 0.30887 0.85988
 H706 H 0.47949 0.28062 0.82482
 H707 H 0.40345 0.25324 0.80783
 H708 H 0.40366 0.28163 0.84332
 C709 C 0.61577 0.06748 0.90581
 C710 C 0.61727 0.06766 0.93594
 C711 C 0.59647 0.05342 0.95244
 C712 C 0.57392 0.03880 0.93904
 C713 C 0.57260 0.03765 0.90902
 C714 C 0.59334 0.05181 0.89255
 C715 C 0.63689 0.08497 0.88834
 C716 C 0.63344 0.09737 0.86574
 C717 C 0.65317 0.11478 0.85000
 C718 C 0.67689 0.12028 0.85645
 C719 C 0.68041 0.10760 0.87868
 C720 C 0.66059 0.09018 0.89461
 C721 C 0.69769 0.13950 0.84009
 C722 C 0.71638 0.13604 0.82989
 C723 C 0.73479 0.15354 0.81241
 C724 C 0.73485 0.17483 0.80496
 C725 C 0.71667 0.17862 0.81619
 C726 C 0.69834 0.16119 0.83352
 H727 H 0.63425 0.07968 0.94676
 H728 H 0.59772 0.05457 0.97562
 H729 H 0.55532 0.02638 0.89839
 H730 H 0.59171 0.05098 0.86939
 H731 H 0.61548 0.09404 0.86062
 H732 H 0.64985 0.12401 0.83272
 H733 H 0.69853 0.11154 0.88414
 H734 H 0.66376 0.08081 0.91182
 H735 H 0.71627 0.11944 0.83457
 H736 H 0.74856 0.15010 0.80410
 H737 H 0.71627 0.19489 0.81111
 H738 H 0.68445 0.16456 0.84156
 C739 C 0.08066 0.46758 0.41572
 C740 C 0.07081 0.48079 0.40375
 C741 C 0.05609 0.48644 0.42005
 C742 C 0.05058 0.47886 0.44879
 C743 C 0.05946 0.46458 0.46036
 C744 C 0.07445 0.45912 0.44405
 C745 C 0.09812 0.46362 0.39893
 C746 C 0.09802 0.44167 0.40060
 C747 C 0.11453 0.43823 0.38452
 C748 C 0.13149 0.45669 0.36644
 C749 C 0.13155 0.47861 0.36489
 C750 C 0.11521 0.48208 0.38101
 C751 C 0.14884 0.45321 0.34876
 C752 C 0.17256 0.47270 0.34404
 C753 C 0.18823 0.47027 0.32536
 C754 C 0.18072 0.44820 0.31121
 C755 C 0.15743 0.42834 0.31684
 C756 C 0.14160 0.43084 0.33534
 H757 H 0.07460 0.48694 0.38172
 H758 H 0.04895 0.49680 0.41014
 H759 H 0.05579 0.45863 0.48249
 H760 H 0.08188 0.44906 0.45400
 H761 H 0.08499 0.42703 0.41405
 H762 H 0.11413 0.42120 0.38639
 H763 H 0.14404 0.49308 0.35085
 H764 H 0.11612 0.49938 0.37956
 H765 H 0.17896 0.48999 0.35458
 H766 H 0.20618 0.48582 0.32174
 H767 H 0.15112 0.41111 0.30616
 H768 H 0.12341 0.41552 0.33829
 C769 C 0.54498 0.62318 0.42064
 C770 C 0.54413 0.60325 0.40677
 C771 C 0.53788 0.58210 0.42199
 C772 C 0.53236 0.58050 0.45130
 C773 C 0.53401 0.60058 0.46549
 C774 C 0.54028 0.62177 0.45029
 C775 C 0.54908 0.64461 0.40381
 C776 C 0.53495 0.65526 0.40913
 C777 C 0.53706 0.67393 0.39167
 C778 C 0.55335 0.68238 0.36847
 C779 C 0.56813 0.67236 0.36376
 C780 C 0.56599 0.65364 0.38121
 C781 C 0.55385 0.70055 0.34833
 C782 C 0.57590 0.71938 0.33726
 C783 C 0.57604 0.73586 0.31749
 C784 C 0.55411 0.73374 0.30827
 C785 C 0.53211 0.71502 0.31955
 C786 C 0.53199 0.69866 0.33933
 H787 H 0.54733 0.60364 0.38392
 H788 H 0.53660 0.56667 0.41077
 H789 H 0.52984 0.59958 0.48814
 H790 H 0.54110 0.63692 0.46164
 H791 H 0.52158 0.64858 0.42616
 H792 H 0.52566 0.68151 0.39606
 H793 H 0.58074 0.67839 0.34594
 H794 H 0.57731 0.64597 0.37678
 H795 H 0.59304 0.72139 0.34397
 H796 H 0.59328 0.75010 0.30921
 H797 H 0.51489 0.71284 0.31289
 H798 H 0.51469 0.68413 0.34710
 C799 C 0.37525 0.92412 0.42451
 C800 C 0.39291 0.94650 0.41277
 C801 C 0.41437 0.96174 0.42772
 C802 C 0.41865 0.95481 0.45461
 C803 C 0.40065 0.93302 0.46696
 C804 C 0.37910 0.91792 0.45216
 C805 C 0.35395 0.90654 0.40711
 C806 C 0.34586 0.88163 0.40828
 C807 C 0.32729 0.86521 0.39025
 C808 C 0.31645 0.87325 0.37034
 C809 C 0.32397 0.89804 0.36974
 C810 C 0.34248 0.91450 0.38795
 C811 C 0.29828 0.85598 0.34941
 C812 C 0.27811 0.85780 0.34122
 C813 C 0.26149 0.84179 0.32094
 C814 C 0.26467 0.82360 0.30849
 C815 C 0.28474 0.82172 0.31683
 C816 C 0.30136 0.83774 0.33694
 H817 H 0.39072 0.95173 0.39141
 H818 H 0.42814 0.97838 0.41772
 H819 H 0.40361 0.92740 0.48775
 H820 H 0.36569 0.90108 0.46209
 H821 H 0.35444 0.87485 0.42245
 H822 H 0.32165 0.84619 0.39163
 H823 H 0.31610 0.90487 0.35455
 H824 H 0.34804 0.93350 0.38675
 H825 H 0.27509 0.87149 0.35063
 H826 H 0.24617 0.84367 0.31501
 H827 H 0.28783 0.80804 0.30753
 H828 H 0.31693 0.83612 0.34228
 C829 C 0.53993 0.92307 0.08155
 C830 C 0.52963 0.91507 0.05419
 C831 C 0.52352 0.92925 0.03741
 C832 C 0.52796 0.95175 0.04758
 C833 C 0.53913 0.96023 0.07435
 C834 C 0.54498 0.94596 0.09127
 C835 C 0.54371 0.90687 0.10072
 C836 C 0.53547 0.90347 0.12921
 C837 C 0.53749 0.88708 0.14697
 C838 C 0.54803 0.87393 0.13673
 C839 C 0.55686 0.87775 0.10847
 C840 C 0.55452 0.89393 0.09052
 C841 C 0.54904 0.85580 0.15539
 C842 C 0.57066 0.85537 0.15854
 C843 C 0.57164 0.83882 0.17724
 C844 C 0.55091 0.82215 0.19272
 C845 C 0.52917 0.82226 0.18895
 C846 C 0.52830 0.83899 0.17063
 H847 H 0.52534 0.89740 0.04634
 H848 H 0.51472 0.92241 0.01686
 H849 H 0.54256 0.97754 0.08249
 H850 H 0.55306 0.95259 0.11219
 H851 H 0.52685 0.91302 0.13752
 H852 H 0.53072 0.88459 0.16875
 H853 H 0.56497 0.86774 0.10008
 H854 H 0.56108 0.89632 0.06866
 H855 H 0.58690 0.86822 0.14706
 H856 H 0.58863 0.83913 0.17969
 H857 H 0.51290 0.80970 0.20059
 H858 H 0.51136 0.83879 0.16832
 C859 C 0.37741 0.45245 0.08179
 C860 C 0.39946 0.45999 0.09619
 C861 C 0.42082 0.46744 0.08077
 C862 C 0.42051 0.46735 0.05069
 C863 C 0.39845 0.45904 0.03618
 C864 C 0.37705 0.45173 0.05161
 C865 C 0.35536 0.44702 0.09827
 C866 C 0.34094 0.45657 0.08942
 C867 C 0.32178 0.45385 0.10654
 C868 C 0.31655 0.44141 0.13277
 C869 C 0.33027 0.43093 0.14102
 C870 C 0.34956 0.43379 0.12399
 C871 C 0.29806 0.44091 0.15241
 C872 C 0.28176 0.41969 0.16731
 C873 C 0.26535 0.41986 0.18705
 C874 C 0.26516 0.44134 0.19248
 C875 C 0.28124 0.46243 0.17724
 C876 C 0.29742 0.46219 0.15737
 H877 H 0.40036 0.46105 0.11939
 H878 H 0.43776 0.47385 0.09223
 H879 H 0.39795 0.45885 0.01295
 H880 H 0.36029 0.44580 0.03999
 H881 H 0.34510 0.46702 0.06984
 H882 H 0.31134 0.46191 0.09953
 H883 H 0.32674 0.42138 0.16122
 H884 H 0.36024 0.42606 0.13119
 H885 H 0.28179 0.40300 0.16376
 H886 H 0.25319 0.40332 0.19848
 H887 H 0.28152 0.47926 0.18089
 H888 H 0.30998 0.47890 0.14649
 C889 C 0.07508 0.61900 0.07984
 C890 C 0.06029 0.59700 0.09427
 C891 C 0.04634 0.57553 0.07886
 C892 C 0.04680 0.57571 0.04879
 C893 C 0.06086 0.59770 0.03425
 C894 C 0.07500 0.61919 0.04966
 C895 C 0.09163 0.64123 0.09634
 C896 C 0.11600 0.65592 0.08792
 C897 C 0.13231 0.67546 0.10498
 C898 C 0.12455 0.68082 0.13070
 C899 C 0.09996 0.66673 0.13854
 C900 C 0.08369 0.64706 0.12159
 C901 C 0.14232 0.69999 0.15020
 C902 C 0.13684 0.71615 0.16395
 C903 C 0.15322 0.73333 0.18350
 C904 C 0.17524 0.73444 0.18991
 C905 C 0.18081 0.71847 0.17583
 C906 C 0.16458 0.70152 0.15612
 H907 H 0.06023 0.59624 0.11748
 H908 H 0.03559 0.55864 0.09035
 H909 H 0.06136 0.59808 0.01102
 H910 H 0.08608 0.63592 0.03802
 H911 H 0.12268 0.65174 0.06871
 H912 H 0.15111 0.68616 0.09832
 H913 H 0.09353 0.67035 0.15835
 H914 H 0.06496 0.63615 0.12844
 H915 H 0.11987 0.71545 0.15962
 H916 H 0.14843 0.74538 0.19402
 H917 H 0.19763 0.71890 0.18026
 H918 H 0.16914 0.68910 0.14612
 C919 C 0.46087 0.08360 0.57762
 C920 C 0.47192 0.09005 0.55041
 C921 C 0.47751 0.07454 0.53558
 C922 C 0.47192 0.05226 0.54757
 C923 C 0.46022 0.04536 0.57421
 C924 C 0.45479 0.06091 0.58916
 C925 C 0.45695 0.10096 0.59465
 C926 C 0.43640 0.09272 0.61231
 C927 C 0.43383 0.10885 0.63012
 C928 C 0.45171 0.13362 0.63061
 C929 C 0.47181 0.14198 0.61219
 C930 C 0.47445 0.12586 0.59452
 C931 C 0.45007 0.15046 0.65121
 C932 C 0.47104 0.16839 0.66530
 C933 C 0.46959 0.18371 0.68547
 C934 C 0.44712 0.18143 0.69222
 C935 C 0.42613 0.16367 0.67800
 C936 C 0.42760 0.14836 0.65767
 H937 H 0.47649 0.10719 0.54070
 H938 H 0.48654 0.08005 0.51499
 H939 H 0.45597 0.02825 0.58378
 H940 H 0.44665 0.05553 0.61022
 H941 H 0.42241 0.07372 0.61263
 H942 H 0.41821 0.10176 0.64418
 H943 H 0.48572 0.16101 0.61168
 H944 H 0.49063 0.13283 0.58145
 H945 H 0.48856 0.17022 0.66128
 H946 H 0.48610 0.19711 0.69614
 H947 H 0.40855 0.16151 0.68265
 H948 H 0.41115 0.13494 0.64695
 C949 C 0.62452 0.54836 0.58106
 C950 C 0.62190 0.54103 0.55215
 C951 C 0.60053 0.53464 0.53716
 C952 C 0.58154 0.53566 0.55074
 C953 C 0.58439 0.54387 0.57915
 C954 C 0.60570 0.55017 0.59420
 C955 C 0.64585 0.55227 0.59812
 C956 C 0.65621 0.57056 0.61915
 C957 C 0.67469 0.57256 0.63707
 C958 C 0.68317 0.55629 0.63435
 C959 C 0.67346 0.53862 0.61260
 C960 C 0.65500 0.53660 0.59475
 C961 C 0.70104 0.55678 0.65510
 C962 C 0.69798 0.53495 0.66591
 C963 C 0.71415 0.53513 0.68611
 C964 C 0.73380 0.55715 0.69607
 C965 C 0.73702 0.57903 0.68514
 C966 C 0.72077 0.57885 0.66488
 H967 H 0.63618 0.53977 0.54130
 H968 H 0.59849 0.52825 0.51523
 H969 H 0.56973 0.54450 0.58995
 H970 H 0.60696 0.55538 0.61652
 H971 H 0.64976 0.58309 0.62206
 H972 H 0.68171 0.58628 0.65372
 H973 H 0.67986 0.52605 0.60969
 H974 H 0.64727 0.52214 0.57900
 H975 H 0.68274 0.51766 0.65922
 H976 H 0.71108 0.51794 0.69414
 H977 H 0.75200 0.59629 0.69235
 H978 H 0.72370 0.59595 0.65676
 C979 C 0.92533 0.38011 0.57645
 C980 C 0.91913 0.38456 0.54908
 C981 C 0.93431 0.40640 0.53495
 C982 C 0.95610 0.42400 0.54772
 C983 C 0.96295 0.41925 0.57434
 C984 C 0.94768 0.39752 0.58864
 C985 C 0.90779 0.35837 0.59316
 C986 C 0.91587 0.34654 0.61154
 C987 C 0.89948 0.32759 0.62923
 C988 C 0.87462 0.32001 0.62888
 C989 C 0.86645 0.33121 0.60969
 C990 C 0.88281 0.35020 0.59217
 C991 C 0.85744 0.30144 0.64943
 C992 C 0.83930 0.30430 0.66260
 C993 C 0.82337 0.28732 0.68240
 C994 C 0.82524 0.26707 0.68970
 C995 C 0.84333 0.26411 0.67654
 C996 C 0.85927 0.28112 0.65659
 H997 H 0.90229 0.37139 0.53885
 H998 H 0.92880 0.40989 0.51440
 H999 H 0.97963 0.43283 0.58455
 H1000 H 0.95287 0.39489 0.60983
 H1001 H 0.93494 0.35216 0.61256
 H1002 H 0.90640 0.31944 0.64387
 H1003 H 0.84737 0.32554 0.60852
 H1004 H 0.87593 0.35903 0.57857
 H1005 H 0.83768 0.31997 0.65806
 H1006 H 0.80976 0.29026 0.69225
 H1007 H 0.84520 0.24867 0.68167
 H1008 H 0.87290 0.27827 0.64662
   
