data_POSCAR
  _audit_creation_date              2014-09-24
  _audit_creation_method            'ToBaCCo'
  _symmetry_space_group_name_H-M    'P1'
  _symmetry_Int_Tables_number       1
  _symmetry_cell_setting            triclinic
  loop_
  _symmetry_equiv_pos_as_xyz
 x,y,z
_cell_length_a 63.6599
_cell_length_b 63.6526
_cell_length_c 63.9802
_cell_angle_alpha 90.025100
_cell_angle_beta 90.020900
_cell_angle_gamma 90.002100
loop_
  _atom_site_label
  _atom_site_type_symbol
  _atom_site_fract_x
  _atom_site_fract_y
  _atom_site_fract_z
N1 N 0.17195 0.22443 0.22462
 N2 N 0.17713 0.20865 0.23684
 C3 C 0.16279 0.20699 0.25225
 C4 C 0.14783 0.22245 0.24937
 C5 C 0.15410 0.23322 0.23171
 H6 H 0.16290 0.19516 0.26437
 H7 H 0.14615 0.24637 0.22450
 Cu8 Cu 0.20146 0.19115 0.23086
 Cu9 Cu 0.18853 0.23230 0.20033
 Cu10 Cu 0.23145 0.20103 0.18859
 N11 N 0.22505 0.17322 0.22331
 N12 N 0.23700 0.17745 0.20709
 C13 C 0.25207 0.16269 0.20551
 C14 C 0.24925 0.14836 0.22146
 C15 C 0.23196 0.15545 0.23245
 H16 H 0.26389 0.16212 0.19339
 H17 H 0.22493 0.14811 0.24598
 N18 N 0.22332 0.22558 0.17172
 N19 N 0.20720 0.23774 0.17640
 C20 C 0.20571 0.25310 0.16198
 C21 C 0.22151 0.25030 0.14748
 C22 C 0.23236 0.23273 0.15407
 H23 H 0.19376 0.26517 0.16172
 H24 H 0.24577 0.22566 0.14645
 H25 H 0.19948 0.20226 0.19444
 H26 H 0.21667 0.21978 0.21049
 N27 N 0.67226 0.72484 0.72511
 N28 N 0.67748 0.70911 0.73737
 C29 C 0.66317 0.70746 0.75280
 C30 C 0.64818 0.72288 0.74990
 C31 C 0.65440 0.73361 0.73220
 H32 H 0.66332 0.69566 0.76496
 H33 H 0.64641 0.74672 0.72495
 Cu34 Cu 0.70184 0.69162 0.73141
 Cu35 Cu 0.68878 0.73263 0.70075
 Cu36 Cu 0.73170 0.70138 0.68901
 N37 N 0.72543 0.67370 0.72386
 N38 N 0.73733 0.67787 0.70759
 C39 C 0.75239 0.66311 0.70602
 C40 C 0.74963 0.64883 0.72203
 C41 C 0.73238 0.65596 0.73304
 H42 H 0.76417 0.66249 0.69386
 H43 H 0.72538 0.64867 0.74662
 N44 N 0.72350 0.72586 0.67207
 N45 N 0.70738 0.73803 0.67676
 C46 C 0.70584 0.75334 0.66230
 C47 C 0.72160 0.75051 0.64777
 C48 C 0.73249 0.73297 0.65438
 H49 H 0.69389 0.76541 0.66205
 H50 H 0.74588 0.72589 0.64674
 H51 H 0.69975 0.70259 0.69495
 H52 H 0.71696 0.72019 0.71088
 N53 N 0.32764 0.77593 0.72488
 N54 N 0.32304 0.79233 0.73652
 C55 C 0.33739 0.79399 0.75194
 C56 C 0.35177 0.77790 0.74964
 C57 C 0.34515 0.76675 0.73233
 H58 H 0.33769 0.80622 0.76368
 H59 H 0.35261 0.75307 0.72559
 Cu60 Cu 0.29934 0.81037 0.72968
 Cu61 Cu 0.31081 0.76780 0.70077
 Cu62 Cu 0.26785 0.79917 0.68902
 N63 N 0.27520 0.82786 0.72293
 N64 N 0.26261 0.82304 0.70735
 C65 C 0.24720 0.83746 0.70611
 C66 C 0.25046 0.85225 0.72161
 C67 C 0.26836 0.84570 0.73200
 H68 H 0.23484 0.83749 0.69451
 H69 H 0.27583 0.85342 0.74510
 N70 N 0.27575 0.77436 0.67235
 N71 N 0.29188 0.76219 0.67703
 C72 C 0.29327 0.74675 0.66267
 C73 C 0.27742 0.74950 0.64822
 C74 C 0.26662 0.76712 0.65477
 H75 H 0.30524 0.73469 0.66239
 H76 H 0.25324 0.77421 0.64712
 H77 H 0.29994 0.79758 0.69374
 H78 H 0.28312 0.78111 0.71113
 N79 N 0.82826 0.27516 0.22497
 N80 N 0.82282 0.29063 0.23748
 C81 C 0.83706 0.29220 0.25300
 C82 C 0.85229 0.27702 0.24986
 C83 C 0.84622 0.26650 0.23195
 H84 H 0.83668 0.30378 0.26537
 H85 H 0.85432 0.25356 0.22451
 Cu86 Cu 0.79829 0.30796 0.23173
 Cu87 Cu 0.81177 0.26742 0.20057
 Cu88 Cu 0.76861 0.29840 0.18910
 N89 N 0.77465 0.32583 0.22421
 N90 N 0.76283 0.32174 0.20785
 C91 C 0.74774 0.33648 0.20631
 C92 C 0.75041 0.35065 0.22244
 C93 C 0.76763 0.34349 0.23348
 H94 H 0.73602 0.33716 0.19409
 H95 H 0.77456 0.35072 0.24714
 N96 N 0.77695 0.27409 0.17198
 N97 N 0.79318 0.26203 0.17656
 C98 C 0.79477 0.24678 0.16203
 C99 C 0.77892 0.24955 0.14757
 C100 C 0.76794 0.26698 0.15429
 H101 H 0.80679 0.23478 0.16170
 H102 H 0.75444 0.27397 0.14675
 H103 H 0.80054 0.29745 0.19515
 H104 H 0.78346 0.27949 0.21082
 N105 N 0.82795 0.72486 0.27511
 N106 N 0.82323 0.70859 0.26332
 C107 C 0.83754 0.70697 0.24788
 C108 C 0.85203 0.72296 0.25031
 C109 C 0.84550 0.73399 0.26773
 H110 H 0.83777 0.69484 0.23606
 H111 H 0.85308 0.74755 0.27459
 Cu112 Cu 0.79948 0.69062 0.27011
 Cu113 Cu 0.81124 0.73284 0.29936
 Cu114 Cu 0.76836 0.70134 0.31111
 N115 N 0.77543 0.67300 0.27684
 N116 N 0.76305 0.67759 0.29264
 C117 C 0.74774 0.66305 0.29393
 C118 C 0.75084 0.64850 0.27822
 C119 C 0.76854 0.65523 0.26767
 H120 H 0.73557 0.66278 0.30571
 H121 H 0.77586 0.64763 0.25443
 N122 N 0.77634 0.72606 0.32790
 N123 N 0.79243 0.73829 0.32322
 C124 C 0.79383 0.75368 0.33763
 C125 C 0.77802 0.75083 0.35211
 C126 C 0.76725 0.73321 0.34553
 H127 H 0.80575 0.76578 0.33791
 H128 H 0.75389 0.72608 0.35317
 H129 H 0.80042 0.70301 0.30616
 H130 H 0.78345 0.71968 0.28911
 N131 N 0.32901 0.22396 -0.22454
 N132 N 0.32403 0.20796 -0.23658
 C133 C 0.33830 0.20636 -0.25206
 C134 C 0.35309 0.22206 -0.24937
 C135 C 0.34672 0.23293 -0.23176
 H136 H 0.33826 0.19443 -0.26410
 H137 H 0.35443 0.24631 -0.22471
 Cu138 Cu 0.30001 0.19026 -0.23000
 Cu139 Cu 0.31229 0.23199 -0.20032
 Cu140 Cu 0.26895 0.20095 -0.18897
 N141 N 0.27581 0.17280 -0.22345
 N142 N 0.26346 0.17738 -0.20762
 C143 C 0.24806 0.16293 -0.20641
 C144 C 0.25107 0.14844 -0.22220
 C145 C 0.26881 0.15512 -0.23271
 H146 H 0.23590 0.16264 -0.19461
 H147 H 0.27611 0.14752 -0.24597
 N148 N 0.27714 0.22548 -0.17200
 N149 N 0.29341 0.23753 -0.17652
 C150 C 0.29487 0.25287 -0.16207
 C151 C 0.27890 0.25017 -0.14772
 C152 C 0.26798 0.23269 -0.15443
 H153 H 0.30690 0.26485 -0.16168
 H154 H 0.25445 0.22572 -0.14694
 H155 H 0.30102 0.20226 -0.19382
 H156 H 0.28432 0.21933 -0.21074
 N157 N 0.67096 0.27565 -0.22451
 N158 N 0.67599 0.29161 -0.23658
 C159 C 0.66173 0.29322 -0.25208
 C160 C 0.64689 0.27758 -0.24938
 C161 C 0.65322 0.26673 -0.23175
 H162 H 0.66182 0.30513 -0.26413
 H163 H 0.64546 0.25339 -0.22467
 Cu164 Cu 0.70006 0.30925 -0.22998
 Cu165 Cu 0.68765 0.26764 -0.20025
 Cu166 Cu 0.73104 0.29864 -0.18887
 N167 N 0.72426 0.32672 -0.22342
 N168 N 0.73658 0.32218 -0.20754
 C169 C 0.75197 0.33663 -0.20631
 C170 C 0.74899 0.35109 -0.22212
 C171 C 0.73128 0.34438 -0.23268
 H172 H 0.76410 0.33695 -0.19447
 H173 H 0.72400 0.35195 -0.24596
 N174 N 0.72280 0.27416 -0.17189
 N175 N 0.70651 0.26213 -0.17641
 C176 C 0.70503 0.24681 -0.16195
 C177 C 0.72100 0.24950 -0.14760
 C178 C 0.73194 0.26695 -0.15431
 H179 H 0.69299 0.23483 -0.16157
 H180 H 0.74549 0.27391 -0.14682
 H181 H 0.69896 0.29736 -0.19378
 H182 H 0.71565 0.28021 -0.21062
 N183 N 0.17252 0.77572 0.27540
 N184 N 0.17732 0.79190 0.26355
 C185 C 0.16299 0.79355 0.24812
 C186 C 0.14840 0.77767 0.25062
 C187 C 0.15489 0.76667 0.26807
 H188 H 0.16284 0.80562 0.23624
 H189 H 0.14725 0.75318 0.27497
 Cu190 Cu 0.20124 0.80975 0.27014
 Cu191 Cu 0.18927 0.76771 0.29959
 Cu192 Cu 0.23232 0.79900 0.31125
 N193 N 0.22525 0.82736 0.27704
 N194 N 0.23768 0.82272 0.29281
 C195 C 0.25301 0.83724 0.29412
 C196 C 0.24985 0.85189 0.27848
 C197 C 0.23210 0.84517 0.26793
 H198 H 0.26523 0.83743 0.30587
 H199 H 0.22473 0.85276 0.25471
 N200 N 0.22429 0.77432 0.32804
 N201 N 0.20812 0.76218 0.32340
 C202 C 0.20668 0.74681 0.33780
 C203 C 0.22255 0.74957 0.35226
 C204 C 0.23340 0.76713 0.34565
 H205 H 0.19470 0.73477 0.33811
 H206 H 0.24682 0.77420 0.35327
 H207 H 0.20025 0.79755 0.30625
 H208 H 0.21713 0.78069 0.28928
 N209 N 0.47482 0.42212 0.47507
 N210 N 0.45863 0.42695 0.48689
 C211 C 0.45703 0.41273 0.50242
 C212 C 0.47295 0.39817 0.50000
 C213 C 0.48392 0.40457 0.48251
 H214 H 0.44495 0.41261 0.51429
 H215 H 0.49742 0.39691 0.47563
 Cu216 Cu 0.44070 0.45073 0.48005
 Cu217 Cu 0.48275 0.43869 0.45072
 Cu218 Cu 0.45134 0.48162 0.43887
 N219 N 0.42313 0.47478 0.47327
 N220 N 0.42767 0.48707 0.45738
 C221 C 0.41316 0.50240 0.45607
 C222 C 0.39867 0.49941 0.47185
 C223 C 0.40541 0.48176 0.48246
 H224 H 0.41285 0.51452 0.44423
 H225 H 0.39786 0.47452 0.49577
 N226 N 0.47597 0.47350 0.42205
 N227 N 0.48817 0.45739 0.42677
 C228 C 0.50353 0.45591 0.41235
 C229 C 0.50071 0.47169 0.39783
 C230 C 0.48312 0.48252 0.40440
 H231 H 0.51562 0.44398 0.41211
 H232 H 0.47603 0.49590 0.39674
 H233 H 0.46972 0.46659 0.46088
 H234 H 0.45293 0.44958 0.44396
 N235 N -0.02468 -0.07747 0.97496
 N236 N -0.04046 -0.07231 0.98718
 C237 C -0.04208 -0.08661 1.00263
 C238 C -0.02658 -0.10153 0.99978
 C239 C -0.01584 -0.09529 0.98209
 H240 H -0.05390 -0.08650 1.01476
 H241 H -0.00268 -0.10322 0.97489
 Cu242 Cu -0.05804 -0.04803 0.98115
 Cu243 Cu -0.01690 -0.06094 0.95061
 Cu244 Cu -0.04829 -0.01813 0.93880
 N245 N -0.07603 -0.02451 0.97358
 N246 N -0.07185 -0.01258 0.95733
 C247 C -0.08664 0.00246 0.95575
 C248 C -0.10094 -0.00035 0.97173
 C249 C -0.09379 -0.01760 0.98274
 H250 H -0.08725 0.01426 0.94361
 H251 H -0.10109 -0.02462 0.99630
 N252 N -0.02374 -0.02624 0.92191
 N253 N -0.01153 -0.04232 0.92662
 C254 C 0.00380 -0.04382 0.91217
 C255 C 0.00094 -0.02807 0.89763
 C256 C -0.01664 -0.01723 0.90422
 H257 H 0.01589 -0.05575 0.91193
 H258 H -0.02375 -0.00386 0.89658
 H259 H -0.02948 -0.03280 0.96071
 H260 H -0.04696 -0.05008 0.94472
 N261 N 1.02497 0.57764 0.97503
 N262 N 1.04118 0.57285 0.98686
 C263 C 1.04280 0.58715 1.00233
 C264 C 1.02689 0.60170 0.99988
 C265 C 1.01588 0.59523 0.98242
 H266 H 1.05491 0.58732 1.01418
 H267 H 1.00238 0.60287 0.97552
 Cu268 Cu 1.05911 0.54906 0.98006
 Cu269 Cu 1.01702 0.56099 0.95072
 Cu270 Cu 1.04846 0.51806 0.93893
 N271 N 1.07670 0.52500 0.97331
 N272 N 1.07214 0.51266 0.95745
 C273 C 1.08667 0.49734 0.95615
 C274 C 1.10117 0.50038 0.97192
 C275 C 1.09443 0.51806 0.98251
 H276 H 1.08697 0.48520 0.94433
 H277 H 1.10200 0.52535 0.99579
 N278 N 1.02380 0.52612 0.92210
 N279 N 1.01160 0.54222 0.92679
 C280 C 0.99623 0.54366 0.91237
 C281 C 0.99906 0.52786 0.89786
 C282 C 1.01666 0.51705 0.90445
 H283 H 0.98414 0.55559 0.91210
 H284 H 1.02377 0.50367 0.89680
 H285 H 1.03008 0.53314 0.96092
 H286 H 1.04684 0.55011 0.94397
 N287 N 0.52511 0.07813 0.47484
 N288 N 0.54149 0.07352 0.48651
 C289 C 0.54311 0.08784 0.50195
 C290 C 0.52702 0.10222 0.49965
 C291 C 0.51592 0.09562 0.48230
 H292 H 0.55531 0.08812 0.51372
 H293 H 0.50224 0.10309 0.47555
 Cu294 Cu 0.55956 0.04985 0.47965
 Cu295 Cu 0.51703 0.06129 0.45070
 Cu296 Cu 0.54860 0.01848 0.43886
 N297 N 0.57717 0.02581 0.47287
 N298 N 0.57250 0.01333 0.45716
 C299 C 0.58702 -0.00199 0.45588
 C300 C 0.60164 0.00119 0.47151
 C301 C 0.59498 0.01896 0.48199
 H302 H 0.58720 -0.01426 0.44419
 H303 H 0.60262 0.02633 0.49519
 N304 N 0.52373 0.02629 0.42223
 N305 N 0.51148 0.04236 0.42694
 C306 C 0.49600 0.04364 0.41262
 C307 C 0.49881 0.02778 0.39817
 C308 C 0.51650 0.01710 0.40468
 H309 H 0.48386 0.05553 0.41237
 H310 H 0.52364 0.00374 0.39703
 H311 H 0.53041 0.03361 0.46097
 H312 H 0.54685 0.05056 0.44369
 N313 N -0.02504 0.07780 0.52472
 N314 N -0.04082 0.07260 0.51249
 C315 C -0.04248 0.08691 0.49705
 C316 C -0.02703 0.10188 0.49992
 C317 C -0.01627 0.09566 0.51760
 H318 H -0.05430 0.08677 0.48491
 H319 H -0.00313 0.10362 0.52482
 Cu320 Cu -0.05830 0.04826 0.51848
 Cu321 Cu -0.01720 0.06128 0.54907
 Cu322 Cu -0.04845 0.01835 0.56081
 N323 N -0.07620 0.02464 0.52600
 N324 N -0.07199 0.01273 0.54225
 C325 C -0.08671 -0.00238 0.54381
 C326 C -0.10100 0.00038 0.52781
 C327 C -0.09393 0.01766 0.51682
 H328 H -0.08728 -0.01418 0.55595
 H329 H -0.10125 0.02465 0.50325
 N330 N -0.02395 0.02654 0.57774
 N331 N -0.01178 0.04266 0.57305
 C332 C 0.00356 0.04418 0.58750
 C333 C 0.00074 0.02840 0.60202
 C334 C -0.01681 0.01753 0.59541
 H335 H 0.01563 0.05613 0.58775
 H336 H -0.02388 0.00413 0.60303
 H337 H -0.02969 0.03311 0.53893
 H338 H -0.04723 0.05031 0.55492
 N339 N 0.47505 0.57752 0.02498
 N340 N 0.45897 0.57263 0.01303
 C341 C 0.45737 0.58693 -0.00243
 C342 C 0.47317 0.60158 0.00016
 C343 C 0.48409 0.59516 0.01768
 H344 H 0.44534 0.58703 -0.01437
 H345 H 0.49749 0.60288 0.02469
 Cu346 Cu 0.44110 0.54873 0.01960
 Cu347 Cu 0.48292 0.56092 0.04931
 Cu348 Cu 0.45152 0.51798 0.06103
 N349 N 0.42347 0.52473 0.02648
 N350 N 0.42792 0.51250 0.04244
 C351 C 0.41335 0.49723 0.04377
 C352 C 0.39891 0.50019 0.02793
 C353 C 0.40575 0.51778 0.01726
 H354 H 0.41296 0.48517 0.05567
 H355 H 0.39825 0.52499 0.00390
 N356 N 0.47610 0.52610 0.07794
 N357 N 0.48830 0.54221 0.07326
 C358 C 0.50364 0.54369 0.08771
 C359 C 0.50079 0.52791 0.10222
 C360 C 0.48322 0.51707 0.09561
 H361 H 0.51572 0.55562 0.08799
 H362 H 0.47611 0.50369 0.10324
 H363 H 0.47000 0.53298 0.03909
 H364 H 0.45303 0.55001 0.05580
 N365 N 0.52493 -0.07739 0.02504
 N366 N 0.54068 -0.07221 0.01279
 C367 C 0.54230 -0.08653 -0.00265
 C368 C 0.52685 -0.10149 0.00024
 C369 C 0.51612 -0.09524 0.01794
 H370 H 0.55411 -0.08642 -0.01479
 H371 H 0.50300 -0.10320 0.02518
 Cu372 Cu 0.55824 -0.04790 0.01879
 Cu373 Cu 0.51717 -0.06085 0.04941
 Cu374 Cu 0.54854 -0.01801 0.06120
 N375 N 0.57621 -0.02435 0.02634
 N376 N 0.57207 -0.01244 0.04262
 C377 C 0.58686 0.00260 0.04420
 C378 C 0.60112 -0.00020 0.02819
 C379 C 0.59396 -0.01744 0.01717
 H380 H 0.58750 0.01439 0.05636
 H381 H 0.60124 -0.02445 0.00358
 N382 N 0.52404 -0.02615 0.07813
 N383 N 0.51183 -0.04224 0.07342
 C384 C 0.49650 -0.04374 0.08786
 C385 C 0.49937 -0.02798 0.10242
 C386 C 0.51694 -0.01715 0.09583
 H387 H 0.48441 -0.05566 0.08810
 H388 H 0.52405 -0.00377 0.10348
 H389 H 0.52971 -0.03269 0.03931
 H390 H 0.54725 -0.04995 0.05524
 N391 N 1.02477 0.42267 0.52458
 N392 N 1.04088 0.42754 0.51266
 C393 C 1.04247 0.41327 0.49717
 C394 C 1.02662 0.39865 0.49969
 C395 C 1.01571 0.40505 0.51722
 H396 H 1.05450 0.41316 0.48525
 H397 H 1.00229 0.39734 0.52419
 Cu398 Cu 1.05879 0.45140 0.51933
 Cu399 Cu 1.01693 0.43922 0.54895
 Cu400 Cu 1.04840 0.48206 0.56085
 N401 N 1.07646 0.47534 0.52632
 N402 N 1.07202 0.48754 0.54231
 C403 C 1.08661 0.50279 0.54371
 C404 C 1.10105 0.49983 0.52788
 C405 C 1.09419 0.48229 0.51715
 H406 H 1.08701 0.51481 0.55565
 H407 H 1.10169 0.47509 0.50378
 N408 N 1.02380 0.47394 0.57770
 N409 N 1.01157 0.45787 0.57296
 C410 C 0.99623 0.45637 0.58739
 C411 C 0.99911 0.47211 0.60196
 C412 C 1.01670 0.48293 0.59540
 H413 H 0.98413 0.44446 0.58762
 H414 H 1.02383 0.49628 0.60309
 H415 H 1.02991 0.46716 0.53883
 H416 H 1.04684 0.45005 0.55552
 C417 C 0.35141 -0.01901 0.25399
 C418 C 0.36238 -0.00037 0.24997
 C419 C 0.35134 0.01821 0.24584
 C420 C 0.32927 0.01833 0.24590
 C421 C 0.31843 -0.00052 0.24968
 C422 C 0.32936 -0.01928 0.25364
 C423 C 0.38548 -0.00031 0.25006
 C424 C 0.39655 -0.00414 0.23152
 C425 C 0.41861 -0.00395 0.23141
 C426 C 0.42942 -0.00027 0.25022
 C427 C 0.41847 0.00339 0.26894
 C428 C 0.39641 0.00354 0.26867
 H429 H 0.36011 -0.03333 0.25702
 H430 H 0.35998 0.03258 0.24292
 H431 H 0.38792 -0.00696 0.21718
 H432 H 0.38769 0.00633 0.28295
 H433 H 0.30141 -0.00060 0.24957
 H434 H 0.44644 -0.00026 0.25028
 C435 C 0.14851 -0.01885 0.74588
 C436 C 0.13754 -0.00016 0.74972
 C437 C 0.14858 0.01848 0.75360
 C438 C 0.17064 0.01862 0.75349
 C439 C 0.18149 -0.00026 0.74988
 C440 C 0.17057 -0.01908 0.74615
 C441 C 0.11444 -0.00012 0.74973
 C442 C 0.10344 -0.00410 0.76828
 C443 C 0.08138 -0.00386 0.76848
 C444 C 0.07050 -0.00000 0.74976
 C445 C 0.08137 0.00379 0.73102
 C446 C 0.10343 0.00392 0.73119
 H447 H 0.13983 -0.03322 0.74305
 H448 H 0.13992 0.03287 0.75638
 H449 H 0.11213 -0.00705 0.78255
 H450 H 0.11210 0.00682 0.71691
 H451 H 0.19851 -0.00032 0.74993
 H452 H 0.05348 0.00005 0.74977
 C453 C 0.64847 0.48107 0.24632
 C454 C 0.63749 0.49976 0.25011
 C455 C 0.64853 0.51841 0.25395
 C456 C 0.67059 0.51856 0.25384
 C457 C 0.68145 0.49967 0.25024
 C458 C 0.67053 0.48084 0.24656
 C459 C 0.61440 0.49979 0.25010
 C460 C 0.60339 0.49582 0.26864
 C461 C 0.58133 0.49603 0.26883
 C462 C 0.57045 0.49983 0.25009
 C463 C 0.58133 0.50361 0.23135
 C464 C 0.60339 0.50379 0.23155
 H465 H 0.63978 0.46670 0.24351
 H466 H 0.63987 0.53281 0.25671
 H467 H 0.61206 0.49291 0.28293
 H468 H 0.61207 0.50668 0.21727
 H469 H 0.69847 0.49963 0.25029
 H470 H 0.55344 0.49985 0.25008
 C471 C 0.85144 0.48107 0.75369
 C472 C 0.86246 0.49972 0.74986
 C473 C 0.85147 0.51839 0.74600
 C474 C 0.82941 0.51860 0.74616
 C475 C 0.81851 0.49977 0.74983
 C476 C 0.82937 0.48090 0.75350
 C477 C 0.88556 0.49971 0.74989
 C478 C 0.89658 0.49578 0.73134
 C479 C 0.91864 0.49598 0.73117
 C480 C 0.92950 0.49974 0.74994
 C481 C 0.91861 0.50348 0.76867
 C482 C 0.89655 0.50365 0.76846
 H483 H 0.86010 0.46669 0.75651
 H484 H 0.86017 0.53276 0.74320
 H485 H 0.88791 0.49292 0.71704
 H486 H 0.88786 0.50652 0.78274
 H487 H 0.80149 0.49979 0.74983
 H488 H 0.94652 0.49975 0.74995
 C489 C 0.25403 0.35302 -0.01870
 C490 C 0.24995 0.36403 -0.00016
 C491 C 0.24588 0.35302 0.01836
 C492 C 0.24606 0.33095 0.01854
 C493 C 0.24993 0.32008 -0.00019
 C494 C 0.25382 0.33096 -0.01890
 C495 C 0.24997 0.38712 -0.00015
 C496 C 0.23131 0.39815 -0.00395
 C497 C 0.23114 0.42021 -0.00378
 C498 C 0.25001 0.43108 -0.00014
 C499 C 0.26886 0.42018 0.00350
 C500 C 0.26865 0.39812 0.00366
 H501 H 0.25701 0.36170 -0.03296
 H502 H 0.24292 0.36169 0.03264
 H503 H 0.21692 0.38948 -0.00674
 H504 H 0.28302 0.38942 0.00644
 H505 H 0.24992 0.30306 -0.00020
 H506 H 0.25003 0.44810 -0.00014
 C507 C 0.74605 0.14672 -0.01860
 C508 C 0.75015 0.13573 -0.00007
 C509 C 0.75427 0.14675 0.01845
 C510 C 0.75410 0.16882 0.01862
 C511 C 0.75019 0.17968 -0.00009
 C512 C 0.74626 0.16879 -0.01880
 C513 C 0.75014 0.11263 -0.00006
 C514 C 0.76878 0.10161 -0.00400
 C515 C 0.76896 0.07955 -0.00380
 C516 C 0.75013 0.06867 -0.00004
 C517 C 0.73130 0.07957 0.00372
 C518 C 0.73150 0.10163 0.00388
 H519 H 0.74304 0.13804 -0.03287
 H520 H 0.75727 0.13809 0.03272
 H521 H 0.78314 0.11029 -0.00688
 H522 H 0.71714 0.11032 0.00675
 H523 H 0.75020 0.19670 -0.00010
 H524 H 0.75012 0.05165 -0.00003
 C525 C 0.24626 0.64695 0.48157
 C526 C 0.25008 0.63593 0.50014
 C527 C 0.25390 0.64693 0.51873
 C528 C 0.25372 0.66899 0.51894
 C529 C 0.25009 0.67989 0.50018
 C530 C 0.24645 0.66901 0.48140
 C531 C 0.25006 0.61284 0.50012
 C532 C 0.26870 0.60181 0.49623
 C533 C 0.26886 0.57975 0.49638
 C534 C 0.25000 0.56888 0.50005
 C535 C 0.23117 0.57979 0.50376
 C536 C 0.23139 0.60185 0.50397
 H537 H 0.24347 0.63828 0.46725
 H538 H 0.25668 0.63825 0.53303
 H539 H 0.28308 0.61047 0.49342
 H540 H 0.21703 0.61054 0.50681
 H541 H 0.25009 0.69690 0.50019
 H542 H 0.24997 0.55186 0.50003
 C543 C 0.75382 0.85329 0.48155
 C544 C 0.74984 0.86427 0.50012
 C545 C 0.74582 0.85324 0.51864
 C546 C 0.74595 0.83118 0.51878
 C547 C 0.74974 0.82032 0.50002
 C548 C 0.75358 0.83123 0.48131
 C549 C 0.74990 0.88737 0.50015
 C550 C 0.73128 0.89844 0.49629
 C551 C 0.73117 0.92050 0.49640
 C552 C 0.75006 0.93133 0.50005
 C553 C 0.76887 0.92039 0.50375
 C554 C 0.76861 0.89833 0.50398
 H555 H 0.75676 0.86198 0.46729
 H556 H 0.74292 0.86190 0.53294
 H557 H 0.71687 0.88980 0.49348
 H558 H 0.78296 0.88961 0.50679
 H559 H 0.74969 0.80330 0.49998
 H560 H 0.75013 0.94835 0.50000
 C561 C -0.01907 0.25393 0.35213
 C562 C -0.00038 0.25006 0.36307
 C563 C 0.01825 0.24606 0.35210
 C564 C 0.01837 0.24610 0.33014
 C565 C -0.00051 0.24973 0.31935
 C566 C -0.01931 0.25356 0.33019
 C567 C -0.00034 0.25013 0.38605
 C568 C -0.00407 0.23146 0.39704
 C569 C -0.00389 0.23134 0.41899
 C570 C -0.00035 0.25025 0.42977
 C571 C 0.00320 0.26910 0.41891
 C572 C 0.00339 0.26886 0.39696
 H573 H -0.03342 0.25685 0.36076
 H574 H 0.03264 0.24325 0.36071
 H575 H -0.00679 0.21704 0.38844
 H576 H 0.00610 0.28324 0.38830
 H577 H -0.00057 0.24961 0.30242
 H578 H -0.00035 0.25030 0.44670
 C579 C -0.01839 0.74641 0.14752
 C580 C 0.00030 0.75023 0.13659
 C581 C 0.01896 0.75409 0.14757
 C582 C 0.01912 0.75394 0.16952
 C583 C 0.00025 0.75032 0.18031
 C584 C -0.01860 0.74665 0.16947
 C585 C 0.00031 0.75020 0.11361
 C586 C -0.00342 0.76889 0.10264
 C587 C -0.00329 0.76903 0.08069
 C588 C 0.00021 0.75011 0.06989
 C589 C 0.00376 0.73125 0.08073
 C590 C 0.00400 0.73148 0.10268
 H591 H -0.03276 0.74359 0.13888
 H592 H 0.03336 0.75686 0.13896
 H593 H -0.00610 0.78330 0.11125
 H594 H 0.00670 0.71709 0.11132
 H595 H 0.00023 0.75037 0.19724
 H596 H 0.00017 0.75008 0.05296
 C597 C 0.48126 0.24598 0.64807
 C598 C 0.49988 0.25006 0.63711
 C599 C 0.51852 0.25410 0.64806
 C600 C 0.51873 0.25383 0.67000
 C601 C 0.49993 0.25000 0.68083
 C602 C 0.48110 0.24619 0.67002
 C603 C 0.49984 0.25007 0.61413
 C604 C 0.49618 0.26880 0.60319
 C605 C 0.49631 0.26898 0.58124
 C606 C 0.49973 0.25009 0.57041
 C607 C 0.50323 0.23119 0.58120
 C608 C 0.50346 0.23136 0.60315
 H609 H 0.46688 0.24304 0.63947
 H610 H 0.53288 0.25705 0.63944
 H611 H 0.49356 0.28321 0.61183
 H612 H 0.50613 0.21694 0.61175
 H613 H 0.49994 0.24998 0.69777
 H614 H 0.49969 0.25009 0.55348
 C615 C 0.48118 0.75393 0.85265
 C616 C 0.49987 0.75004 0.86358
 C617 C 0.51851 0.74614 0.85261
 C618 C 0.51867 0.74629 0.83066
 C619 C 0.49980 0.74996 0.81987
 C620 C 0.48097 0.75369 0.83070
 C621 C 0.49990 0.75004 0.88656
 C622 C 0.49619 0.73133 0.89750
 C623 C 0.49644 0.73113 0.91945
 C624 C 0.50004 0.75000 0.93029
 C625 C 0.50356 0.76889 0.91948
 C626 C 0.50367 0.76873 0.89753
 H627 H 0.46682 0.75678 0.86128
 H628 H 0.53290 0.74332 0.86123
 H629 H 0.49345 0.71694 0.88886
 H630 H 0.50637 0.78313 0.88891
 H631 H 0.49976 0.74993 0.80293
 H632 H 0.50009 0.74998 0.94722
 C633 C 0.09346 0.23286 0.28453
 N634 N 0.09629 0.24260 0.26587
 N635 N 0.11369 0.23939 0.25478
 C636 C 0.12885 0.22620 0.26186
 N637 N 0.12603 0.21642 0.28051
 N638 N 0.10867 0.21975 0.29169
 C639 C 0.07411 0.23631 0.29653
 N640 N 0.07239 0.22955 0.31658
 N641 N 0.05474 0.23272 0.32734
 C642 C 0.03809 0.24262 0.31839
 N643 N 0.03988 0.24932 0.29832
 N644 N 0.05756 0.24630 0.28762
 C645 C 0.59381 0.73325 0.78507
 N646 N 0.59662 0.74299 0.76641
 N647 N 0.61403 0.73980 0.75532
 C648 C 0.62920 0.72663 0.76240
 N649 N 0.62640 0.71684 0.78105
 N650 N 0.60904 0.72016 0.79223
 C651 C 0.57445 0.73666 0.79707
 N652 N 0.57272 0.72985 0.81711
 N653 N 0.55505 0.73298 0.82786
 C654 C 0.53840 0.74287 0.81892
 N655 N 0.54020 0.74963 0.79886
 N656 N 0.55789 0.74665 0.78818
 C657 C 0.40586 0.76698 0.78511
 N658 N 0.40272 0.75676 0.76675
 N659 N 0.38539 0.76011 0.75558
 C660 C 0.37062 0.77393 0.76227
 N661 N 0.37375 0.78419 0.78063
 N662 N 0.39103 0.78072 0.79189
 C663 C 0.42518 0.76344 0.79714
 N664 N 0.42711 0.77065 0.81703
 N665 N 0.44476 0.76746 0.82778
 C666 C 0.46121 0.75710 0.81899
 N667 N 0.45922 0.74994 0.79909
 N668 N 0.44153 0.75298 0.78840
 C669 C -0.09448 0.26660 0.28466
 N670 N -0.09806 0.25561 0.26683
 N671 N -0.11542 0.25887 0.25568
 C672 C -0.12978 0.27339 0.26182
 N673 N -0.12619 0.28440 0.27967
 N674 N -0.10889 0.28101 0.29093
 C675 C -0.07514 0.26314 0.29668
 N676 N -0.07297 0.27092 0.31633
 N677 N -0.05530 0.26778 0.32707
 C678 C -0.03907 0.25692 0.31850
 N679 N -0.04129 0.24920 0.29883
 N680 N -0.05900 0.25217 0.28816
 C681 C -0.09379 0.73369 0.21497
 N682 N -0.10873 0.72011 0.20808
 N683 N -0.12604 0.71670 0.21931
 C684 C -0.12909 0.72687 0.23772
 N685 N -0.11422 0.74054 0.24451
 N686 N -0.09686 0.74383 0.23338
 C687 C -0.07444 0.73714 0.20297
 N688 N -0.05802 0.74746 0.21176
 N689 N -0.04032 0.75042 0.20110
 C690 C -0.03837 0.74331 0.18117
 N691 N -0.05488 0.73309 0.17233
 N692 N -0.07256 0.72998 0.18306
 C693 C 0.40611 0.23279 0.71567
 N694 N 0.39204 0.21790 0.70975
 N695 N 0.37481 0.21442 0.72106
 C696 C 0.37093 0.22582 0.73860
 N697 N 0.38494 0.24082 0.74439
 N698 N 0.40225 0.24417 0.73319
 C699 C 0.42541 0.23634 0.70362
 N700 N 0.44141 0.24762 0.71201
 N701 N 0.45909 0.25067 0.70132
 C702 C 0.46140 0.24271 0.68175
 N703 N 0.44530 0.23154 0.67330
 N704 N 0.42768 0.22831 0.68408
 C705 C 0.59383 0.26697 0.71563
 N706 N 0.59765 0.25561 0.73316
 N707 N 0.61497 0.25891 0.74437
 C708 C 0.62903 0.27386 0.73858
 N709 N 0.62520 0.28524 0.72103
 N710 N 0.60795 0.28180 0.70971
 C711 C 0.57450 0.26349 0.70358
 N712 N 0.57224 0.27153 0.68406
 N713 N 0.55458 0.26837 0.67328
 C714 C 0.53847 0.25723 0.68172
 N715 N 0.54079 0.24926 0.70127
 N716 N 0.55848 0.25225 0.71196
 C717 C 0.09422 0.76699 0.21521
 N718 N 0.09721 0.75694 0.23368
 N719 N 0.11457 0.76022 0.24484
 C720 C 0.12951 0.77378 0.23802
 N721 N 0.12653 0.78386 0.21955
 N722 N 0.10923 0.78046 0.20830
 C723 C 0.07490 0.76352 0.20316
 N724 N 0.07308 0.77057 0.18322
 N725 N 0.05542 0.76744 0.17244
 C726 C 0.03886 0.75731 0.18127
 N727 N 0.04074 0.75031 0.20124
 N728 N 0.05843 0.75329 0.21194
 C729 C 0.28385 0.09360 0.23229
 N730 N 0.29102 0.10843 0.21881
 N731 N 0.28001 0.12589 0.21537
 C732 C 0.26152 0.12923 0.22541
 N733 N 0.25442 0.11447 0.23898
 N734 N 0.26535 0.09694 0.24230
 C735 C 0.29574 0.07417 0.23584
 N736 N 0.28677 0.05781 0.24608
 N737 N 0.29742 0.04007 0.24918
 C738 C 0.31750 0.03805 0.24229
 N739 N 0.32650 0.05449 0.23213
 N740 N 0.31579 0.07218 0.22889
 C741 C 0.78419 0.59406 0.73288
 N742 N 0.79134 0.60884 0.71935
 N743 N 0.78035 0.62632 0.71591
 C744 C 0.76190 0.62971 0.72600
 N745 N 0.75481 0.61499 0.73962
 N746 N 0.76572 0.59744 0.74294
 C747 C 0.79604 0.57459 0.73640
 N748 N 0.78706 0.55825 0.74666
 N749 N 0.79766 0.54047 0.74968
 C750 C 0.81771 0.53839 0.74271
 N751 N 0.82672 0.55482 0.73255
 N752 N 0.81606 0.57255 0.72937
 C753 C 0.78392 0.40558 0.76677
 N754 N 0.76522 0.40246 0.75704
 N755 N 0.75421 0.38499 0.76042
 C756 C 0.76141 0.37009 0.77378
 N757 N 0.78010 0.37321 0.78354
 N758 N 0.79120 0.39061 0.78003
 C759 C 0.79585 0.42499 0.76322
 N760 N 0.81595 0.42689 0.77007
 N761 N 0.82666 0.44460 0.76690
 C762 C 0.81762 0.46114 0.75693
 N763 N 0.79750 0.45919 0.75014
 N764 N 0.78684 0.44145 0.75316
 C765 C 0.28414 -0.09461 0.26737
 N766 N 0.26645 -0.09872 0.25623
 N767 N 0.25546 -0.11618 0.25969
 C768 C 0.26162 -0.13009 0.27457
 N769 N 0.27932 -0.12596 0.28572
 N770 N 0.29042 -0.10858 0.28212
 C771 C 0.29602 -0.07520 0.26370
 N772 N 0.31568 -0.07274 0.27159
 N773 N 0.32635 -0.05504 0.26830
 C774 C 0.31769 -0.03904 0.25719
 N775 N 0.29800 -0.04153 0.24937
 N776 N 0.28741 -0.05929 0.25249
 C777 C 0.21598 -0.09437 0.73272
 N778 N 0.23380 -0.09828 0.74370
 N779 N 0.24486 -0.11570 0.74024
 C780 C 0.23862 -0.12977 0.72553
 N781 N 0.22078 -0.12583 0.71455
 N782 N 0.20962 -0.10850 0.71814
 C783 C 0.20402 -0.07499 0.73635
 N784 N 0.18430 -0.07268 0.72860
 N785 N 0.17358 -0.05498 0.73181
 C786 C 0.18227 -0.03885 0.74273
 N787 N 0.20202 -0.04120 0.75042
 N788 N 0.21266 -0.05895 0.74737
 C789 C 0.71576 0.40537 0.23338
 N790 N 0.73419 0.40195 0.24352
 N791 N 0.74512 0.38442 0.24017
 C792 C 0.73810 0.36975 0.22646
 N793 N 0.71969 0.37317 0.21629
 N794 N 0.70867 0.39062 0.21976
 C795 C 0.70390 0.42482 0.23691
 N796 N 0.68391 0.42688 0.22978
 N797 N 0.67325 0.44462 0.23293
 C798 C 0.68223 0.46104 0.24316
 N799 N 0.70224 0.45894 0.25023
 N800 N 0.71284 0.44116 0.24724
 C801 C 0.71604 0.59389 0.26717
 N802 N 0.70869 0.60892 0.28034
 N803 N 0.71976 0.62634 0.28383
 C804 C 0.73848 0.62944 0.27415
 N805 N 0.74575 0.61448 0.26088
 N806 N 0.73477 0.59699 0.25751
 C807 C 0.70412 0.57447 0.26362
 N808 N 0.71316 0.55798 0.25364
 N809 N 0.70251 0.54023 0.25061
 C810 C 0.68235 0.53832 0.25730
 N811 N 0.67328 0.55489 0.26719
 N812 N 0.68399 0.57260 0.27037
 C813 C 0.21615 0.09393 0.76672
 N814 N 0.20885 0.10895 0.77992
 N815 N 0.21994 0.12635 0.78341
 C816 C 0.23865 0.12943 0.77370
 N817 N 0.24588 0.11448 0.76040
 N818 N 0.23487 0.09701 0.75703
 C819 C 0.20421 0.07452 0.76318
 N820 N 0.21322 0.05802 0.75320
 N821 N 0.20256 0.04028 0.75019
 C822 C 0.18241 0.03838 0.75693
 N823 N 0.17336 0.05496 0.76683
 N824 N 0.18409 0.07266 0.76998
 C825 C 0.23239 0.28537 0.09331
 N826 N 0.21898 0.29253 0.10820
 N827 N 0.21551 0.28138 0.12549
 C828 C 0.22546 0.26276 0.12858
 N829 N 0.23896 0.25569 0.11375
 N830 N 0.24230 0.26675 0.09641
 C831 C 0.23597 0.29735 0.07404
 N832 N 0.24623 0.28840 0.05773
 N833 N 0.24935 0.29908 0.04012
 C834 C 0.24247 0.31919 0.03816
 N835 N 0.23229 0.32817 0.05455
 N836 N 0.22902 0.31742 0.07213
 C837 C 0.73237 0.78554 0.59355
 N838 N 0.74227 0.76691 0.59662
 N839 N 0.73896 0.75586 0.61398
 C840 C 0.72551 0.76295 0.62884
 N841 N 0.71557 0.78158 0.62577
 N842 N 0.71900 0.79272 0.60847
 C843 C 0.73592 0.79753 0.57427
 N844 N 0.72901 0.81762 0.57240
 N845 N 0.73226 0.82838 0.55482
 C846 C 0.74238 0.81939 0.53840
 N847 N 0.74922 0.79927 0.54032
 N848 N 0.74612 0.78858 0.55792
 C849 C 0.76710 0.78581 0.40636
 N850 N 0.75723 0.76717 0.40324
 N851 N 0.76057 0.75614 0.38586
 C852 C 0.77404 0.76327 0.37104
 N853 N 0.78395 0.78190 0.37416
 N854 N 0.78048 0.79302 0.39148
 C855 C 0.76354 0.79774 0.42568
 N856 N 0.77048 0.81782 0.42763
 N857 N 0.76725 0.82853 0.44525
 C858 C 0.75711 0.81950 0.46164
 N859 N 0.75023 0.79940 0.45964
 N860 N 0.75331 0.78876 0.44198
 C861 C 0.26772 0.28534 -0.09365
 N862 N 0.28131 0.29242 -0.10841
 N863 N 0.28487 0.28124 -0.12567
 C864 C 0.27485 0.26267 -0.12885
 N865 N 0.26118 0.25567 -0.11415
 N866 N 0.25775 0.26676 -0.09683
 C867 C 0.26405 0.29734 -0.07439
 N868 N 0.25366 0.28843 -0.05815
 N869 N 0.25049 0.29912 -0.04055
 C870 C 0.25743 0.31920 -0.03853
 N871 N 0.26773 0.32815 -0.05486
 N872 N 0.27106 0.31739 -0.07243
 C873 C 0.73221 0.21438 -0.09352
 N874 N 0.71860 0.20729 -0.10827
 N875 N 0.71503 0.21846 -0.12554
 C876 C 0.72506 0.23701 -0.12872
 N877 N 0.73875 0.24402 -0.11402
 N878 N 0.74220 0.23294 -0.09670
 C879 C 0.73591 0.20238 -0.07427
 N880 N 0.74634 0.21130 -0.05804
 N881 N 0.74955 0.20061 -0.04044
 C882 C 0.74260 0.18054 -0.03842
 N883 N 0.73226 0.17158 -0.05474
 N884 N 0.72890 0.18233 -0.07230
 C885 C 0.23332 0.71454 0.40648
 N886 N 0.24326 0.73315 0.40340
 N887 N 0.23997 0.74419 0.38602
 C888 C 0.22649 0.73711 0.37117
 N889 N 0.21652 0.71851 0.37425
 N890 N 0.21993 0.70738 0.39156
 C891 C 0.23680 0.70258 0.42579
 N892 N 0.22983 0.68251 0.42766
 N893 N 0.23298 0.67177 0.44527
 C894 C 0.24304 0.68077 0.46174
 N895 N 0.24995 0.70087 0.45981
 N896 N 0.24696 0.71154 0.44217
 C897 C 0.26669 0.71445 0.59397
 N898 N 0.25676 0.73307 0.59705
 N899 N 0.26003 0.74411 0.61443
 C900 C 0.27347 0.73702 0.62931
 N901 N 0.28343 0.71841 0.62623
 N902 N 0.28004 0.70728 0.60891
 C903 C 0.26324 0.70250 0.57463
 N904 N 0.27022 0.68244 0.57274
 N905 N 0.26712 0.67172 0.55510
 C906 C 0.25709 0.68073 0.53863
 N907 N 0.25017 0.70082 0.54058
 N908 N 0.25312 0.71147 0.55825
 C909 C 0.76799 0.21449 0.09336
 N910 N 0.78151 0.20739 0.10818
 N911 N 0.78500 0.21854 0.12548
 C912 C 0.77497 0.23710 0.12863
 N913 N 0.76138 0.24413 0.11387
 N914 N 0.75801 0.23307 0.09652
 C915 C 0.76436 0.20249 0.07409
 N916 N 0.75401 0.21140 0.05782
 N917 N 0.75083 0.20069 0.04022
 C918 C 0.75774 0.18060 0.03824
 N919 N 0.76801 0.17165 0.05460
 N920 N 0.77134 0.18242 0.07216
 C921 C 0.48363 0.34413 0.53558
 N922 N 0.47015 0.35916 0.54244
 N923 N 0.46676 0.37643 0.53115
 C924 C 0.47686 0.37934 0.51268
 N925 N 0.49042 0.36438 0.50590
 N926 N 0.49368 0.34706 0.51711
 C927 C 0.48705 0.32482 0.54765
 N928 N 0.49723 0.30830 0.53887
 N929 N 0.50012 0.29061 0.54957
 C930 C 0.49309 0.28876 0.56953
 N931 N 0.48301 0.30537 0.57836
 N932 N 0.47997 0.32303 0.56759
 C933 C -0.01611 0.84418 0.03504
 N934 N -0.00635 0.84698 0.01639
 N935 N -0.00957 0.86437 0.00527
 C936 C -0.02278 0.87952 0.01232
 N937 N -0.03258 0.87673 0.03096
 N938 N -0.02924 0.85939 0.04217
 C939 C -0.01271 0.82483 0.04707
 N940 N -0.01953 0.82313 0.06710
 N941 N -0.01645 0.80546 0.07786
 C942 C -0.00659 0.78878 0.06894
 N943 N 0.00018 0.79054 0.04888
 N944 N -0.00275 0.80824 0.03819
 C945 C 0.01635 0.65594 0.03524
 N946 N 0.00625 0.65293 0.01679
 N947 N 0.00947 0.63555 0.00566
 C948 C 0.02303 0.62060 0.01247
 N949 N 0.03317 0.62360 0.03092
 N950 N 0.02983 0.64094 0.04214
 C951 C 0.01297 0.67532 0.04724
 N952 N 0.02011 0.67717 0.06716
 N953 N 0.01709 0.69488 0.07789
 C954 C 0.00699 0.71145 0.06903
 N955 N -0.00010 0.70953 0.04910
 N956 N 0.00277 0.69180 0.03844
 C957 C 0.51607 0.15615 0.53535
 N958 N 0.52978 0.14127 0.54209
 N959 N 0.53325 0.12404 0.53075
 C960 C 0.52303 0.12102 0.51235
 N961 N 0.50924 0.13583 0.50571
 N962 N 0.50589 0.15312 0.51695
 C963 C 0.51257 0.17543 0.54747
 N964 N 0.50219 0.19186 0.53880
 N965 N 0.49925 0.20953 0.54954
 C966 C 0.50644 0.21142 0.56945
 N967 N 0.51670 0.19489 0.57818
 N968 N 0.51979 0.17725 0.56737
 C969 C -0.01668 0.15620 0.46467
 N970 N -0.02980 0.14097 0.45754
 N971 N -0.03310 0.12363 0.46875
 C972 C -0.02329 0.12085 0.48739
 N973 N -0.01010 0.13602 0.49444
 N974 N -0.00691 0.15341 0.48332
 C975 C -0.01329 0.17555 0.45264
 N976 N -0.00332 0.19215 0.46151
 N977 N -0.00040 0.20983 0.45080
 C978 C -0.00719 0.21159 0.43075
 N979 N -0.01706 0.19490 0.42184
 N980 N -0.02013 0.17724 0.43261
 C981 C 0.48372 0.65586 0.96491
 N982 N 0.49373 0.65288 0.98341
 N983 N 0.49050 0.63549 0.99451
 C984 C 0.47702 0.62050 0.98760
 N985 N 0.46698 0.62346 0.96911
 N986 N 0.47033 0.64081 0.95792
 C987 C 0.48711 0.67523 0.95293
 N988 N 0.48005 0.67706 0.93298
 N989 N 0.48310 0.69476 0.92226
 C990 C 0.49317 0.71134 0.93115
 N991 N 0.50019 0.70945 0.95111
 N992 N 0.49728 0.69173 0.96177
 C993 C 0.51644 0.84411 0.96507
 N994 N 0.52953 0.85933 0.95791
 N995 N 0.53285 0.87670 0.96909
 C996 C 0.52308 0.87952 0.98774
 N997 N 0.50990 0.86436 0.99482
 N998 N 0.50670 0.84694 0.98373
 C999 C 0.51303 0.82474 0.95307
 N1000 N 0.50308 0.80816 0.96197
 N1001 N 0.50013 0.79045 0.95128
 C1002 C 0.50689 0.78866 0.93122
 N1003 N 0.51674 0.80532 0.92228
 N1004 N 0.51983 0.82301 0.93303
 C1005 C 0.01601 0.34440 0.46437
 N1006 N 0.00599 0.34739 0.48285
 N1007 N 0.00924 0.36477 0.49398
 C1008 C 0.02275 0.37974 0.48711
 N1009 N 0.03280 0.37676 0.46862
 N1010 N 0.02943 0.35943 0.45741
 C1011 C 0.01259 0.32503 0.45237
 N1012 N 0.01965 0.32317 0.43243
 N1013 N 0.01657 0.30547 0.42171
 C1014 C 0.00649 0.28890 0.43059
 N1015 N -0.00051 0.29082 0.45055
 N1016 N 0.00242 0.30855 0.46121
 C1017 C 0.34413 0.53428 0.48294
 N1018 N 0.34728 0.51559 0.49268
 N1019 N 0.36475 0.50459 0.48929
 C1020 C 0.37964 0.51180 0.47592
 N1021 N 0.37650 0.53048 0.46616
 N1022 N 0.35909 0.54156 0.46967
 C1023 C 0.32473 0.54621 0.48652
 N1024 N 0.32283 0.56631 0.47970
 N1025 N 0.30513 0.57703 0.48291
 C1026 C 0.28861 0.56799 0.49290
 N1027 N 0.29056 0.54786 0.49966
 N1028 N 0.30829 0.53720 0.49660
 C1029 C 0.84432 0.03423 -0.01732
 N1030 N 0.85909 0.04139 -0.03087
 N1031 N 0.87655 0.03038 -0.03435
 C1032 C 0.87994 0.01191 -0.02428
 N1033 N 0.86523 0.00482 -0.01065
 N1034 N 0.84770 0.01574 -0.00730
 C1035 C 0.82488 0.04611 -0.01374
 N1036 N 0.80856 0.03715 -0.00343
 N1037 N 0.79080 0.04777 -0.00035
 C1038 C 0.78872 0.06782 -0.00733
 N1039 N 0.80513 0.07681 -0.01755
 N1040 N 0.82284 0.06613 -0.02078
 C1041 C 0.65591 0.03432 0.01727
 N1042 N 0.64115 0.04149 0.03082
 N1043 N 0.62368 0.03051 0.03429
 C1044 C 0.62026 0.01205 0.02421
 N1045 N 0.63496 0.00494 0.01057
 N1046 N 0.65250 0.01584 0.00723
 C1047 C 0.67537 0.04617 0.01370
 N1048 N 0.69169 0.03718 0.00341
 N1049 N 0.70945 0.04779 0.00032
 C1050 C 0.71154 0.06785 0.00726
 N1051 N 0.69513 0.07688 0.01746
 N1052 N 0.67742 0.06621 0.02070
 C1053 C 0.15574 0.53452 0.51697
 N1054 N 0.15250 0.51591 0.50711
 N1055 N 0.13498 0.50496 0.51044
 C1056 C 0.12013 0.51216 0.52387
 N1057 N 0.12337 0.53076 0.53376
 N1058 N 0.14082 0.54179 0.53031
 C1059 C 0.17519 0.54639 0.51345
 N1060 N 0.17716 0.56646 0.52039
 N1061 N 0.19490 0.57713 0.51724
 C1062 C 0.21138 0.56808 0.50719
 N1063 N 0.20936 0.54798 0.50032
 N1064 N 0.19159 0.53737 0.50332
 C1065 C 0.15579 0.46561 -0.01706
 N1066 N 0.15264 0.48431 -0.00732
 N1067 N 0.13514 0.49528 -0.01068
 C1068 C 0.12022 0.48803 -0.02402
 N1069 N 0.12337 0.46934 -0.03378
 N1070 N 0.14080 0.45829 -0.03030
 C1071 C 0.17522 0.45371 -0.01352
 N1072 N 0.17712 0.43360 -0.02035
 N1073 N 0.19483 0.42290 -0.01718
 C1074 C 0.21138 0.43196 -0.00722
 N1075 N 0.20943 0.45210 -0.00045
 N1076 N 0.19168 0.46274 -0.00347
 C1077 C 0.65608 0.96622 0.48275
 N1078 N 0.65305 0.98502 0.49232
 N1079 N 0.63562 0.99606 0.48888
 C1080 C 0.62065 0.98878 0.47562
 N1081 N 0.62368 0.97000 0.46602
 N1082 N 0.64105 0.95888 0.46958
 C1083 C 0.67543 0.95422 0.48640
 N1084 N 0.67723 0.93406 0.47969
 N1085 N 0.69488 0.92328 0.48295
 C1086 C 0.71145 0.93231 0.49289
 N1087 N 0.70960 0.95250 0.49955
 N1088 N 0.69191 0.96322 0.49643
 C1089 C 0.84432 0.96566 0.51691
 N1090 N 0.84766 0.98413 0.50685
 N1091 N 0.86518 0.99509 0.51018
 C1092 C 0.87991 0.98805 0.52382
 N1093 N 0.87656 0.96959 0.53391
 N1094 N 0.85912 0.95855 0.53046
 C1095 C 0.82487 0.95377 0.51339
 N1096 N 0.82284 0.93377 0.52049
 N1097 N 0.80510 0.92309 0.51734
 C1098 C 0.78867 0.93208 0.50715
 N1099 N 0.79076 0.95210 0.50011
 N1100 N 0.80853 0.96271 0.50310
 C1101 C 0.34427 0.46547 0.01685
 N1102 N 0.35919 0.45819 0.03018
 N1103 N 0.37663 0.46923 0.03368
 C1104 C 0.37985 0.48785 0.02386
 N1105 N 0.36500 0.49506 0.01043
 N1106 N 0.34750 0.48411 0.00705
 C1107 C 0.32483 0.45359 0.01328
 N1108 N 0.30842 0.46262 0.00317
 N1109 N 0.29065 0.45200 0.00013
 C1110 C 0.28864 0.43189 0.00695
 N1111 N 0.30514 0.42283 0.01697
 N1112 N 0.32287 0.43350 0.02015
 C1113 C 0.53576 0.48254 0.34365
 N1114 N 0.54293 0.46915 0.35855
 N1115 N 0.53179 0.46570 0.37585
 C1116 C 0.51317 0.47563 0.37892
 N1117 N 0.50608 0.48911 0.36408
 N1118 N 0.51713 0.49243 0.34673
 C1119 C 0.54774 0.48609 0.32436
 N1120 N 0.53879 0.49631 0.30803
 N1121 N 0.54947 0.49940 0.29041
 C1122 C 0.56957 0.49251 0.28846
 N1123 N 0.57856 0.48238 0.30488
 N1124 N 0.56782 0.47915 0.32247
 C1125 C 0.03590 -0.01730 0.84337
 N1126 N 0.01728 -0.00739 0.84647
 N1127 N 0.00625 -0.01069 0.86384
 C1128 C 0.01337 -0.02415 0.87869
 N1129 N 0.03198 -0.03409 0.87560
 N1130 N 0.04310 -0.03066 0.85828
 C1131 C 0.04785 -0.01377 0.82406
 N1132 N 0.06792 -0.02073 0.82215
 N1133 N 0.07865 -0.01751 0.80454
 C1134 C 0.06964 -0.00738 0.78813
 N1135 N 0.04954 -0.00049 0.79010
 N1136 N 0.03888 -0.00356 0.80773
 C1137 C 0.03578 0.01752 0.65623
 N1138 N 0.01714 0.00763 0.65313
 N1139 N 0.00609 0.01098 0.63577
 C1140 C 0.01319 0.02446 0.62094
 N1141 N 0.03181 0.03438 0.62404
 N1142 N 0.04295 0.03091 0.64134
 C1143 C 0.04775 0.01392 0.67551
 N1144 N 0.06785 0.02081 0.67741
 N1145 N 0.07860 0.01752 0.69499
 C1146 C 0.06960 0.00738 0.71139
 N1147 N 0.04948 0.00055 0.70944
 N1148 N 0.03879 0.00369 0.69182
 C1149 C 0.53579 0.51710 0.15648
 N1150 N 0.51715 0.50721 0.15339
 N1151 N 0.50611 0.51053 0.13601
 C1152 C 0.51323 0.52397 0.12116
 N1153 N 0.53185 0.53390 0.12426
 N1154 N 0.54298 0.53046 0.14157
 C1155 C 0.54775 0.51355 0.17578
 N1156 N 0.56784 0.52047 0.17768
 N1157 N 0.57858 0.51725 0.19528
 C1158 C 0.56958 0.50714 0.21170
 N1159 N 0.54946 0.50028 0.20975
 N1160 N 0.53879 0.50336 0.19212
 C1161 C 0.46433 -0.01723 0.15664
 N1162 N 0.45714 -0.03056 0.14168
 N1163 N 0.46829 -0.03398 0.12438
 C1164 C 0.48693 -0.02406 0.12134
 N1165 N 0.49404 -0.01065 0.13624
 N1166 N 0.48298 -0.00736 0.15361
 C1167 C 0.45233 -0.01372 0.17592
 N1168 N 0.46126 -0.00358 0.19232
 N1169 N 0.45054 -0.00055 0.20993
 C1170 C 0.43042 -0.00740 0.21179
 N1171 N 0.42146 -0.01746 0.19530
 N1172 N 0.43224 -0.02064 0.17773
 C1173 C 0.96416 0.48276 0.65627
 N1174 N 0.95695 0.46945 0.64130
 N1175 N 0.96806 0.46607 0.62397
 C1176 C 0.98669 0.47600 0.62091
 N1177 N 0.99382 0.48939 0.63582
 N1178 N 0.98280 0.49265 0.65321
 C1179 C 0.95221 0.48623 0.67558
 N1180 N 0.96118 0.49637 0.69197
 N1181 N 0.95051 0.49938 0.70961
 C1182 C 0.93040 0.49252 0.71152
 N1183 N 0.92139 0.48247 0.69506
 N1184 N 0.93213 0.47931 0.67745
 C1185 C 0.96407 0.51697 0.84360
 N1186 N 0.95687 0.53035 0.85850
 N1187 N 0.96799 0.53381 0.87583
 C1188 C 0.98662 0.52389 0.87893
 N1189 N 0.99374 0.51042 0.86409
 N1190 N 0.98271 0.50709 0.84671
 C1191 C 0.95213 0.51342 0.82429
 N1192 N 0.96111 0.50322 0.80795
 N1193 N 0.95045 0.50014 0.79031
 C1194 C 0.93034 0.50700 0.78834
 N1195 N 0.92132 0.51710 0.80476
 N1196 N 0.93204 0.52033 0.82237
 C1197 C 0.46376 0.01670 0.34400
 N1198 N 0.48242 0.00686 0.34710
 N1199 N 0.49346 0.01025 0.36447
 C1200 C 0.48632 0.02372 0.37930
 N1201 N 0.46766 0.03358 0.37620
 N1202 N 0.45654 0.03008 0.35889
 C1203 C 0.45184 0.01315 0.32467
 N1204 N 0.43176 0.02007 0.32272
 N1205 N 0.42109 0.01688 0.30508
 C1206 C 0.43015 0.00682 0.28865
 N1207 N 0.45026 -0.00004 0.29065
 N1208 N 0.46087 0.00300 0.30833
   
