data_POSCAR
  _audit_creation_date              2014-09-24
  _audit_creation_method            'ToBaCCo'
  _symmetry_space_group_name_H-M    'P1'
  _symmetry_Int_Tables_number       1
  _symmetry_cell_setting            triclinic
  loop_
  _symmetry_equiv_pos_as_xyz
 x,y,z
_cell_length_a 16.0223
_cell_length_b 27.1177
_cell_length_c 16.2507
_cell_angle_alpha 90.161500
_cell_angle_beta 89.784800
_cell_angle_gamma 89.875100
loop_
  _atom_site_label
  _atom_site_type_symbol
  _atom_site_fract_x
  _atom_site_fract_y
  _atom_site_fract_z
N1 N 0.14529 0.05276 0.08761
 N2 N 0.19313 0.09211 0.09461
 N3 N 0.08781 -0.05084 0.14611
 N4 N 0.09449 -0.08995 0.19383
 N5 N 0.14629 -0.05116 0.08929
 N6 N 0.19425 -0.09052 0.09686
 N7 N 0.08692 0.05297 0.14449
 N8 N 0.09345 0.09242 0.19169
 C9 C 0.16024 0.11640 0.16011
 C10 C 0.16149 -0.11425 0.16268
 N11 N -0.14915 -0.05164 0.08804
 N12 N -0.19640 -0.09121 0.09524
 N13 N -0.09239 0.05294 0.14356
 N14 N -0.09859 0.09331 0.18884
 N15 N -0.15015 0.05212 0.08661
 N16 N -0.19933 0.09443 0.09278
 N17 N -0.09169 -0.05098 0.14540
 N18 N -0.09830 -0.09006 0.19312
 Mn19 Mn -0.00237 0.00102 0.14595
 C20 C -0.16421 -0.11469 0.16142
 C21 C -0.16455 0.11846 0.15745
 N22 N 0.14816 -0.05229 -0.08785
 N23 N 0.19763 -0.09446 -0.09377
 N24 N 0.08937 0.05066 -0.14703
 N25 N 0.09615 0.08977 -0.19481
 N26 N 0.14667 0.05141 -0.08949
 N27 N 0.19394 0.09098 -0.09666
 N28 N 0.09030 -0.05340 -0.14470
 N29 N 0.09675 -0.09387 -0.18971
 Mn30 Mn 0.14766 0.00018 -0.00007
 C31 C 0.16294 -0.11874 -0.15819
 C32 C 0.16202 0.11447 -0.16295
 N33 N -0.14840 0.05084 -0.09064
 N34 N -0.19595 0.09036 -0.09807
 N35 N -0.08943 -0.05387 -0.14543
 N36 N -0.09497 -0.09428 -0.19072
 N37 N -0.14817 -0.05285 -0.08902
 N38 N -0.19728 -0.09499 -0.09553
 N39 N -0.09021 0.05020 -0.14774
 N40 N -0.09660 0.08931 -0.19546
 Mn41 Mn -0.14998 -0.00036 -0.00127
 Mn42 Mn 0.00002 -0.00164 -0.14736
 Cl43 Cl -0.00116 -0.00020 -0.00072
 C44 C -0.16319 0.11389 -0.16407
 C45 C -0.16152 -0.11921 -0.15979
 N46 N 0.64897 0.55196 0.58853
 N47 N 0.69869 0.59042 0.59676
 N48 N 0.59079 0.44829 0.64564
 N49 N 0.59875 0.40952 0.69394
 N50 N 0.64870 0.44810 0.58821
 N51 N 0.69769 0.40918 0.59582
 N52 N 0.59101 0.55216 0.64593
 N53 N 0.59972 0.59078 0.69483
 C54 C 0.66734 0.61397 0.66351
 C55 C 0.66593 0.38584 0.66228
 N56 N 0.35304 0.44853 0.58948
 N57 N 0.30401 0.40973 0.59737
 N58 N 0.41115 0.55235 0.64681
 N59 N 0.40256 0.59088 0.69599
 N60 N 0.35308 0.55239 0.58995
 N61 N 0.30337 0.59094 0.59884
 N62 N 0.41104 0.44846 0.64642
 N63 N 0.40306 0.40961 0.69461
 Mn64 Mn 0.50100 0.50033 0.64723
 C65 C 0.33579 0.38615 0.66344
 C66 C 0.33490 0.61425 0.66541
 N67 N 0.64852 0.44793 0.41097
 N68 N 0.69796 0.40922 0.40215
 N69 N 0.59062 0.55184 0.35450
 N70 N 0.59862 0.59052 0.30605
 N71 N 0.64871 0.55180 0.41133
 N72 N 0.69786 0.59050 0.40314
 N73 N 0.59047 0.44806 0.35410
 N74 N 0.59878 0.40947 0.30501
 Mn75 Mn 0.64978 0.49994 0.49976
 C76 C 0.66627 0.38593 0.33561
 C77 C 0.66598 0.61392 0.33697
 N78 N 0.35305 0.55247 0.41275
 N79 N 0.30392 0.59134 0.40501
 N80 N 0.41085 0.44853 0.35489
 N81 N 0.40245 0.40997 0.30591
 N82 N 0.35289 0.44860 0.41226
 N83 N 0.30340 0.41006 0.40393
 N84 N 0.41101 0.55232 0.35535
 N85 N 0.40291 0.59106 0.30697
 Mn86 Mn 0.35197 0.50050 0.50112
 Mn87 Mn 0.50074 0.50019 0.35372
 Cl88 Cl 0.50087 0.50024 0.50048
 C89 C 0.33565 0.61470 0.33854
 C90 C 0.33498 0.38668 0.33713
 C91 C 0.24816 0.25566 0.24937
 C92 C 0.28814 0.23276 0.18269
 C93 C 0.25965 0.18728 0.15357
 C94 C 0.19087 0.16423 0.19102
 C95 C 0.15095 0.18754 0.25784
 C96 C 0.17953 0.23300 0.28684
 C97 C 0.27806 0.30215 0.27988
 C98 C 0.30362 0.34091 0.30582
 H99 H 0.34136 0.25001 0.15330
 H100 H 0.29136 0.17022 0.10183
 H101 H 0.09764 0.17069 0.28765
 H102 H 0.14819 0.25043 0.33851
 C103 C 0.75037 0.74562 0.25046
 C104 C 0.81745 0.76925 0.28870
 C105 C 0.84512 0.81490 0.25986
 C106 C 0.80585 0.83741 0.19243
 C107 C 0.73856 0.81342 0.15429
 C108 C 0.71097 0.76776 0.18325
 C109 C 0.72148 0.69889 0.28065
 C110 C 0.69666 0.65993 0.30622
 H111 H 0.84832 0.75242 0.34080
 H112 H 0.89729 0.83248 0.29021
 H113 H 0.70738 0.82986 0.10207
 H114 H 0.65895 0.74976 0.15327
 C115 C 0.75072 0.25375 0.74752
 C116 C 0.71083 0.23132 0.81437
 C117 C 0.73864 0.18562 0.84304
 C118 C 0.80668 0.16183 0.80499
 C119 C 0.84645 0.18461 0.73790
 C120 C 0.81854 0.23032 0.70933
 C121 C 0.72162 0.30060 0.71775
 C122 C 0.69664 0.33967 0.69261
 H123 H 0.65825 0.24914 0.84432
 H124 H 0.70705 0.16899 0.89501
 H125 H 0.89919 0.16720 0.70764
 H126 H 0.84981 0.24737 0.65751
 C127 C 0.24696 0.74520 0.75442
 C128 C 0.17842 0.76818 0.71762
 C129 C 0.15000 0.81378 0.74684
 C130 C 0.18998 0.83721 0.81357
 C131 C 0.25881 0.81340 0.85031
 C132 C 0.28693 0.76783 0.82082
 C133 C 0.27708 0.69870 0.72341
 C134 C 0.30306 0.65999 0.69716
 H135 H 0.14706 0.75092 0.66611
 H136 H 0.09676 0.83052 0.71684
 H137 H 0.29137 0.82985 0.90184
 H138 H 0.34010 0.75032 0.84970
 C139 C 0.24965 0.25417 0.74870
 C140 C 0.18233 0.23087 0.71015
 C141 C 0.15386 0.18526 0.73869
 C142 C 0.19254 0.16240 0.80615
 C143 C 0.26005 0.18606 0.84457
 C144 C 0.28841 0.23166 0.81594
 C145 C 0.27938 0.30097 0.71899
 C146 C 0.30480 0.33999 0.69389
 H147 H 0.15187 0.24795 0.65805
 H148 H 0.10156 0.16796 0.70810
 H149 H 0.29086 0.16940 0.89681
 H150 H 0.34057 0.24933 0.84623
 C151 C 0.75539 0.74490 0.75192
 C152 C 0.82444 0.76774 0.71552
 C153 C 0.85261 0.81327 0.74500
 C154 C 0.81186 0.83679 0.81161
 C155 C 0.74254 0.81312 0.84791
 C156 C 0.71469 0.76765 0.81819
 C157 C 0.72543 0.69842 0.72083
 C158 C 0.69936 0.65972 0.69482
 H159 H 0.85642 0.75042 0.66412
 H160 H 0.90625 0.82990 0.71532
 H161 H 0.70933 0.82959 0.89933
 H162 H 0.66115 0.75029 0.84683
 C163 C 0.24944 0.74639 0.25218
 C164 C 0.28920 0.76892 0.18532
 C165 C 0.26076 0.81443 0.15626
 C166 C 0.19221 0.83794 0.19390
 C167 C 0.15256 0.81505 0.26097
 C168 C 0.18110 0.76954 0.28993
 C169 C 0.27915 0.69970 0.28236
 C170 C 0.30454 0.66077 0.30785
 H171 H 0.34217 0.75133 0.15566
 H172 H 0.29230 0.83113 0.10432
 H173 H 0.09944 0.83223 0.29096
 H174 H 0.14988 0.75243 0.34172
 C175 C 0.75274 0.25463 0.24604
 C176 C 0.82098 0.23125 0.28266
 C177 C 0.84892 0.18562 0.25305
 C178 C 0.80876 0.16253 0.18607
 C179 C 0.74020 0.18672 0.14954
 C180 C 0.71255 0.23233 0.17943
 C181 C 0.72321 0.30123 0.27740
 C182 C 0.69771 0.34005 0.30384
 H183 H 0.85253 0.24822 0.33432
 H184 H 0.90197 0.16859 0.28295
 H185 H 0.70751 0.17055 0.09785
 H186 H 0.65960 0.25014 0.15065
   
