data_POSCAR
  _audit_creation_date              2014-09-24
  _audit_creation_method            'ToBaCCo'
  _symmetry_space_group_name_H-M    'P1'
  _symmetry_Int_Tables_number       1
  _symmetry_cell_setting            triclinic
  loop_
  _symmetry_equiv_pos_as_xyz
 x,y,z
_cell_length_a 17.5806
_cell_length_b 18.4901
_cell_length_c 40.2598
_cell_angle_alpha 95.978700
_cell_angle_beta 84.396700
_cell_angle_gamma 121.012100
loop_
  _atom_site_label
  _atom_site_type_symbol
  _atom_site_fract_x
  _atom_site_fract_y
  _atom_site_fract_z
C1 C -0.11131 0.10517 0.54412
 H2 H -0.04919 0.12007 0.53076
 C3 C -0.11527 0.16743 0.56561
 H4 H -0.05617 0.22941 0.56820
 C5 C -0.26170 0.00602 0.55830
 H6 H -0.31810 -0.05764 0.55590
 C7 C -0.26834 0.06637 0.58039
 H8 H -0.33065 0.04855 0.59431
 N9 N -0.18297 0.02536 0.54160
 C10 C -0.13349 -0.18358 0.53951
 H11 H -0.10024 -0.17904 0.51512
 C12 C -0.13956 -0.24072 0.56131
 H13 H -0.11115 -0.28002 0.55346
 C14 C -0.20878 -0.13689 0.57987
 H15 H -0.23505 -0.09619 0.58748
 C16 C -0.21768 -0.19397 0.60214
 H17 H -0.24980 -0.19511 0.62658
 Zn18 Zn -0.16448 -0.05985 0.51799
 N19 N -0.16824 -0.13318 0.54898
 C20 C 0.02182 0.00977 0.50953
 N21 N -0.05185 -0.00436 0.49513
 C22 C -0.04567 0.03061 0.46618
 C23 C 0.03733 0.08300 0.45069
 C24 C 0.10619 0.06160 0.49482
 C25 C -0.24615 -0.19113 0.46917
 C26 C -0.31144 -0.24727 0.44736
 C27 C -0.38522 -0.16707 0.45985
 C28 C -0.31833 -0.11258 0.48152
 N29 N -0.25166 -0.12658 0.48635
 H30 H 0.01541 -0.01633 0.53315
 H31 H -0.10527 0.01995 0.45573
 H32 H 0.04089 0.11129 0.42792
 H33 H 0.16363 0.07324 0.50722
 H34 H -0.19145 -0.19993 0.47271
 H35 H -0.30551 -0.29888 0.43463
 H36 H -0.43752 -0.15406 0.45721
 H37 H -0.32037 -0.05959 0.49467
 C38 C -0.18325 -0.24713 0.59288
 C39 C -0.19339 0.14760 0.58501
 C40 C -0.38370 -0.23713 0.44274
 C41 C 0.11475 0.09990 0.46518
 C42 C 1.08189 -0.10086 0.10661
 H43 H 1.09113 -0.04092 0.11736
 C44 C 1.14308 -0.10240 0.08234
 H45 H 1.19907 -0.04311 0.07439
 C46 C 0.99863 -0.25063 0.10511
 H47 H 0.94312 -0.30787 0.11472
 C48 C 1.05859 -0.25516 0.08057
 H49 H 1.04815 -0.31653 0.07143
 N50 N 1.01195 -0.17404 0.11766
 C51 C 0.83739 -0.08540 0.16220
 H52 H 0.83580 -0.09603 0.18825
 C53 C 0.78508 -0.05576 0.15214
 H54 H 0.74422 -0.04286 0.17078
 C55 C 0.88847 -0.09487 0.10613
 H56 H 0.92662 -0.11273 0.08814
 C57 C 0.83634 -0.06638 0.09493
 H58 H 0.83663 -0.06056 0.06842
 Zn59 Zn 0.94454 -0.15774 0.15369
 N60 N 0.88804 -0.10384 0.13927
 C61 C 1.04118 -0.01301 0.19814
 N62 N 1.02671 -0.09066 0.18668
 C63 C 1.07700 -0.12069 0.19614
 C64 C 1.14559 -0.07183 0.21779
 C65 C 1.10863 0.03769 0.22006
 C66 C 0.78121 -0.30730 0.15164
 C67 C 0.70020 -0.36872 0.16575
 C68 C 0.76827 -0.33492 0.21881
 C69 C 0.84768 -0.27333 0.20380
 N70 N 0.85188 -0.25922 0.17100
 H71 H 1.00212 0.01068 0.18968
 H72 H 1.06484 -0.18220 0.18621
 H73 H 1.18482 -0.09706 0.22478
 H74 H 1.11989 0.09978 0.22864
 H75 H 0.78595 -0.29363 0.12578
 H76 H 0.64371 -0.40371 0.15022
 H77 H 0.76484 -0.34249 0.24533
 H78 H 0.90379 -0.23313 0.21898
 C79 C 0.78363 -0.04668 0.11803
 C80 C 1.13273 -0.18004 0.06927
 C81 C 0.69230 -0.38080 0.20007
 C82 C 1.16264 0.00892 0.22978
 C83 C 0.31441 1.21070 0.87482
 H84 H 0.26966 1.22013 0.89257
 C85 C 0.37027 1.18665 0.88614
 H86 H 0.36915 1.18003 0.91262
 C87 C 0.36337 1.19880 0.81865
 H88 H 0.35667 1.19915 0.79225
 C89 C 0.41936 1.17345 0.82887
 H90 H 0.45776 1.15760 0.81011
 N91 N 0.30957 1.21322 0.84149
 C92 C 0.04541 1.12767 0.86607
 H93 H 0.02627 1.07090 0.85005
 C94 C -0.01509 1.13036 0.89069
 H95 H -0.08032 1.07449 0.89349
 C96 C 0.15229 1.27011 0.88077
 H97 H 0.21736 1.32480 0.87621
 C98 C 0.09395 1.27588 0.90547
 H99 H 0.11624 1.33537 0.91988
 Zn100 Zn 0.20704 1.20358 0.82542
 N101 N 0.12698 1.19729 0.86146
 C102 C 0.14683 1.03162 0.80738
 N103 N 0.16093 1.10485 0.79626
 C104 C 0.16289 1.11427 0.76308
 C105 C 0.15738 1.05125 0.73950
 C106 C 0.13950 0.96611 0.78452
 C107 C 0.15437 1.29767 0.79716
 C108 C 0.15662 1.35469 0.77659
 C109 C 0.31269 1.40605 0.76373
 C110 C 0.30768 1.34821 0.78507
 N111 N 0.22875 1.29473 0.80083
 H112 H 0.14798 1.02660 0.83384
 H113 H 0.17548 1.17315 0.75459
 H114 H 0.16313 1.06159 0.71317
 H115 H 0.13285 0.90985 0.79355
 H116 H 0.09205 1.25339 0.80942
 H117 H 0.09578 1.35415 0.77357
 H118 H 0.37542 1.44688 0.75079
 H119 H 0.36573 1.34406 0.78810
 C120 C 0.00801 1.20579 0.91041
 C121 C 0.41999 1.16331 0.86293
 C122 C 0.23576 1.40854 0.75892
 C123 C 0.14900 0.97753 0.75015
 O124 O 0.54411 -0.00845 -0.06104
 O125 O 0.61684 -0.03708 0.01734
 O126 O 0.46178 -0.10406 -0.00988
 O127 O 0.69348 0.03919 -0.03660
 O128 O 0.68699 0.14809 -0.01133
 O129 O 0.45208 0.00338 0.01494
 O130 O 0.60377 0.06872 0.04205
 O131 O 0.53412 0.09840 -0.03564
 Cu132 Cu 0.57860 -0.03919 -0.02488
 Cu133 Cu 0.56793 0.09017 0.00489
 C134 C 0.52898 0.05170 -0.06169
 C135 C 0.62389 0.01232 0.04290
 C136 C 0.41746 -0.07537 0.00717
 C137 C 0.72987 0.11757 -0.02857
 O138 O 0.11047 0.68643 0.66353
 O139 O -0.02396 0.46244 0.63454
 O140 O -0.03336 0.59850 0.63320
 O141 O 0.12811 0.55467 0.66410
 O142 O 0.05188 0.52367 0.71265
 O143 O -0.10792 0.57099 0.68224
 O144 O -0.10047 0.43540 0.68310
 O145 O 0.03647 0.65865 0.71263
 Cu146 Cu 0.05316 0.57742 0.64396
 Cu147 Cu -0.03683 0.54361 0.70277
 C148 C 0.09369 0.71112 0.69247
 C149 C -0.08681 0.41132 0.65361
 C150 C -0.09622 0.59492 0.65276
 C151 C 0.11769 0.53201 0.69367
 O152 O 0.39126 0.43440 0.29580
 O153 O 0.29226 0.31638 0.37205
 O154 O 0.37319 0.47766 0.35922
 O155 O 0.30007 0.27848 0.30904
 O156 O 0.42661 0.28513 0.31635
 O157 O 0.50047 0.48689 0.36720
 O158 O 0.42048 0.32706 0.37972
 O159 O 0.51892 0.44462 0.30413
 Cu160 Cu 0.32686 0.37704 0.33360
 Cu161 Cu 0.47947 0.38717 0.34271
 C162 C 0.47156 0.45775 0.28665
 C163 C 0.33936 0.29981 0.38832
 C164 C 0.44881 0.51650 0.37169
 C165 C 0.35042 0.24785 0.30405
 C166 C -0.19280 0.21043 0.61119
 C167 C -0.25530 0.19314 0.63750
 C168 C -0.22382 0.26659 0.65708
 C169 C -0.14482 0.32328 0.64128
 O170 O -0.12583 0.28959 0.61353
 H171 H -0.31513 0.13372 0.64258
 H172 H -0.25437 0.27739 0.68024
 C173 C 0.60483 0.56494 0.21718
 C174 C 0.52361 0.54277 0.20557
 C175 C 0.46222 0.50022 0.23039
 C176 C 0.51032 0.49921 0.25518
 O177 O 0.59662 0.53840 0.24733
 H178 H 0.51059 0.55796 0.18233
 H179 H 0.39102 0.47312 0.23041
 C180 C 0.46402 0.12092 -0.12559
 C181 C 0.48896 0.07032 -0.14562
 C182 C 0.51630 0.03649 -0.12427
 C183 C 0.50635 0.06909 -0.09289
 O184 O 0.47476 0.12009 -0.09359
 H185 H 0.48484 0.05694 -0.17239
 H186 H 0.54025 -0.00688 -0.13074
 C187 C -0.18889 0.69392 0.61645
 C188 C -0.24966 0.66397 0.64336
 C189 C -0.22568 0.61864 0.65988
 C190 C -0.15248 0.62398 0.64176
 O191 O -0.13027 0.66913 0.61537
 H192 H -0.30375 0.67525 0.65060
 H193 H -0.25581 0.58806 0.68299
 C194 C 0.23669 0.06461 0.25178
 C195 C 0.30662 0.05398 0.25749
 C196 C 0.36003 0.12192 0.27811
 C197 C 0.31851 0.16844 0.28347
 O198 O 0.24422 0.13407 0.26758
 H199 H 0.31861 0.00397 0.24745
 H200 H 0.42169 0.13598 0.28793
 C201 C 0.94466 0.21014 -0.06654
 C202 C 0.95534 0.28125 -0.04726
 C203 C 0.87558 0.25642 -0.03016
 C204 C 0.82256 0.17237 -0.04000
 O205 O 0.86393 0.14427 -0.06187
 H206 H 1.01305 0.34422 -0.04596
 H207 H 0.85813 0.29490 -0.01273
 C208 C 0.20258 -0.17991 0.04545
 C209 C 0.19965 -0.25007 0.02835
 C210 C 0.27978 -0.22007 0.01099
 C211 C 0.32549 -0.13405 0.01872
 O212 O 0.27894 -0.10962 0.03947
 H213 H 0.14642 -0.31532 0.02864
 H214 H 0.30268 -0.25662 -0.00498
 C215 C 0.55071 0.70552 0.42285
 C216 C 0.47505 0.70653 0.41648
 C217 C 0.42716 0.63586 0.39629
 C218 C 0.47638 0.59667 0.39160
 O219 O 0.55108 0.63850 0.40750
 H220 H 0.45537 0.75198 0.42542
 H221 H 0.36359 0.61508 0.38630
 C222 C 0.23384 0.46213 0.73446
 C223 C 0.29798 0.50206 0.70939
 C224 C 0.26363 0.53520 0.69078
 C225 C 0.18156 0.51360 0.70598
 O226 O 0.16344 0.46953 0.73238
 H227 H 0.36059 0.50411 0.70433
 H228 H 0.29396 0.56955 0.66846
 C229 C 0.72672 -0.01843 0.10615
 C230 C 0.69332 0.02606 0.12562
 C231 C 0.64878 0.04228 0.10446
 C232 C 0.65749 0.00589 0.07376
 O233 O 0.70486 -0.03075 0.07463
 H234 H 0.70238 0.04657 0.15183
 H235 H 0.61506 0.07749 0.11053
 C236 C 0.20298 0.15889 0.44956
 C237 C 0.28375 0.17411 0.45905
 C238 C 0.34607 0.23068 0.43771
 C239 C 0.29915 0.24625 0.41686
 O240 O 0.21254 0.20287 0.42390
 H241 H 0.29641 0.14658 0.47869
 H242 H 0.41714 0.25648 0.43705
 C243 C 0.15650 0.91610 0.72558
 C244 C 0.20821 0.93775 0.69611
 C245 C 0.19528 0.86358 0.68063
 C246 C 0.13667 0.80207 0.70173
 O247 O 0.11330 0.83368 0.72916
 H248 H 0.24990 1.00014 0.68688
 H249 H 0.22265 0.85497 0.65629
   
