data_POSCAR
  _audit_creation_date              2014-09-24
  _audit_creation_method            'ToBaCCo'
  _symmetry_space_group_name_H-M    'P1'
  _symmetry_Int_Tables_number       1
  _symmetry_cell_setting            triclinic
  loop_
  _symmetry_equiv_pos_as_xyz
 x,y,z
_cell_length_a 36.0533
_cell_length_b 35.6198
_cell_length_c 21.8057
_cell_angle_alpha 90.461500
_cell_angle_beta 89.822800
_cell_angle_gamma 121.089300
loop_
  _atom_site_label
  _atom_site_type_symbol
  _atom_site_fract_x
  _atom_site_fract_y
  _atom_site_fract_z
O1 O -0.03855 0.49134 -0.07322
 O2 O 0.05325 0.47689 -0.03909
 O3 O -0.02798 0.42467 -0.07536
 O4 O 0.04170 0.54198 -0.03973
 O5 O 0.01913 0.52915 0.05639
 O6 O -0.04445 0.41053 0.02264
 O7 O 0.03388 0.46568 0.05843
 O8 O -0.06136 0.47389 0.02226
 Cu9 Cu 0.00891 0.48468 -0.06676
 Cu10 Cu -0.01564 0.46841 0.04957
 C11 C -0.06596 0.48436 -0.03148
 C12 C 0.06014 0.47062 0.01595
 C13 C -0.04786 0.39754 -0.03258
 C14 C 0.04272 0.55544 0.01461
 O15 O 0.58350 0.53174 0.03301
 O16 O 0.47069 0.49957 0.06648
 O17 O 0.50773 0.45777 0.03083
 O18 O 0.54415 0.57251 0.06870
 O19 O 0.53638 0.58457 -0.02833
 O20 O 0.50088 0.46981 -0.06652
 O21 O 0.46099 0.50981 -0.03067
 O22 O 0.57367 0.54194 -0.06408
 Cu23 Cu 0.52772 0.51436 0.05945
 Cu24 Cu 0.51697 0.52802 -0.05705
 C25 C 0.59749 0.54186 -0.02149
 C26 C 0.44663 0.49870 0.02351
 C27 C 0.49799 0.44415 -0.02418
 C28 C 0.54634 0.59800 0.02669
 O29 O 0.53354 1.02829 -0.06484
 O30 O 0.41897 0.94851 -0.03243
 O31 O 0.46250 1.03072 -0.06818
 O32 O 0.48887 0.94724 -0.02540
 O33 O 0.50469 0.97515 0.06840
 O34 O 0.46510 1.04881 0.02947
 O35 O 0.42956 0.96880 0.06509
 O36 O 0.54071 1.05679 0.02786
 Cu37 Cu 0.47531 0.98668 -0.05759
 Cu38 Cu 0.48650 1.01486 0.05747
 C39 C 0.55587 1.05745 -0.02501
 C40 C 0.40527 0.94384 0.02232
 C41 C 0.45829 1.05331 -0.02628
 C42 C 0.50074 0.94679 0.02916
 O43 O 1.04010 0.54222 0.52940
 O44 O 0.97297 0.42563 0.56672
 O45 O 1.05279 0.47807 0.52780
 O46 O 0.96029 0.49108 0.56397
 O47 O 0.93735 0.47370 0.46830
 O48 O 1.03119 0.46279 0.43136
 O49 O 0.95255 0.40967 0.46988
 O50 O 1.01773 0.52747 0.43316
 Cu51 Cu 1.00844 0.48543 0.55680
 Cu52 Cu 0.98230 0.46683 0.44104
 C53 C 1.04117 0.55459 0.47476
 C54 C 0.95125 0.39785 0.52501
 C55 C 1.05861 0.46974 0.47302
 C56 C 0.93283 0.48414 0.52240
 O57 O 0.45873 0.51354 0.53179
 O58 O 0.56909 0.53856 0.56599
 O59 O 0.53514 0.58389 0.52910
 O60 O 0.49308 0.46863 0.56977
 O61 O 0.50158 0.45412 0.47379
 O62 O 0.53948 0.56840 0.43197
 O63 O 0.57813 0.52734 0.46867
 O64 O 0.46552 0.49646 0.43643
 Cu65 Cu 0.51329 0.52760 0.55888
 Cu66 Cu 0.52226 0.51002 0.44312
 C67 C 0.44339 0.50081 0.47821
 C68 C 0.59248 0.53772 0.52309
 C69 C 0.54345 0.59549 0.47342
 C70 C 0.49021 0.44183 0.52869
 O71 O 0.53978 0.04776 0.46961
 O72 O 0.42538 -0.03388 0.43774
 O73 O 0.46640 0.04754 0.47287
 O74 O 0.49624 -0.03449 0.43521
 O75 O 0.49391 -0.05002 0.53349
 O76 O 0.45550 0.02537 0.56909
 O77 O 0.41774 -0.05723 0.53312
 O78 O 0.52933 0.03059 0.56787
 Cu79 Cu 0.48304 0.00919 0.44418
 Cu80 Cu 0.47274 -0.01510 0.56067
 C81 C 0.55389 0.05322 0.52425
 C82 C 0.40259 -0.06048 0.47952
 C83 C 0.45542 0.04998 0.52743
 C84 C 0.50104 -0.05558 0.47807
 C85 C 0.15285 0.50362 0.21306
 C86 C 0.15185 0.50293 0.27606
 C87 C 0.17334 0.48195 0.29425
 N88 N 0.18770 0.47018 0.24461
 C89 C 0.17499 0.48311 0.19491
 C90 C 0.17826 0.47195 0.35517
 C91 C 0.21021 0.46182 0.37010
 C92 C 0.21102 0.44074 0.42285
 C93 C 0.25056 0.44358 0.42407
 C94 C 0.27250 0.46586 0.37169
 N95 N 0.24744 0.47620 0.33856
 C96 C 0.31599 0.47982 0.35806
 C97 C 0.33175 0.48926 0.29723
 C98 C 0.37475 0.50904 0.27964
 C99 C 0.37504 0.50702 0.21685
 C100 C 0.33232 0.48774 0.19777
 N101 N 0.30600 0.47668 0.24709
 C102 C 0.31715 0.47660 0.13673
 C103 C 0.27477 0.46553 0.11988
 C104 C 0.25470 0.44664 0.06446
 C105 C 0.21597 0.44551 0.06396
 C106 C 0.21370 0.46443 0.11856
 N107 N 0.24945 0.47618 0.15256
 C108 C 0.18146 0.47428 0.13375
 H109 H 0.13954 0.51836 0.18417
 H110 H 0.13777 0.51719 0.30486
 H111 H 0.25843 0.49534 0.19226
 H112 H 0.18616 0.42572 0.45760
 H113 H 0.26211 0.43126 0.45985
 H114 H 0.40325 0.52359 0.30842
 H115 H 0.40384 0.51872 0.18945
 H116 H 0.19262 0.43294 0.02693
 H117 H 0.25763 0.49726 0.30114
 H118 H 0.26690 0.43573 0.02735
 C119 C 0.60347 0.70767 0.28151
 C120 C 0.60530 0.70922 0.21863
 C121 C 0.58297 0.72931 0.20030
 N122 N 0.56783 0.74032 0.24974
 C123 C 0.58004 0.72681 0.29938
 C124 C 0.57270 0.73303 0.13908
 C125 C 0.55746 0.76108 0.12244
 C126 C 0.53705 0.75884 0.06761
 C127 C 0.52907 0.79258 0.06836
 C128 C 0.54376 0.81408 0.12437
 N129 N 0.56177 0.79507 0.15657
 C130 C 0.54246 0.85163 0.14316
 C131 C 0.55217 0.86784 0.20398
 C132 C 0.56301 0.90943 0.22351
 C133 C 0.56454 0.90943 0.28633
 C134 C 0.55284 0.86738 0.30344
 N135 N 0.54603 0.84227 0.25302
 C136 C 0.54359 0.85076 0.36379
 C137 C 0.53926 0.80994 0.37743
 C138 C 0.51715 0.78379 0.42718
 C139 C 0.52388 0.74913 0.42616
 C140 C 0.54969 0.75494 0.37562
 N141 N 0.55849 0.79178 0.34574
 C142 C 0.56651 0.72808 0.35972
 H143 H 0.61747 0.69369 0.31058
 H144 H 0.62086 0.69656 0.18970
 H145 H 0.58029 0.80626 0.30963
 H146 H 0.52845 0.73533 0.03066
 H147 H 0.51458 0.80037 0.03105
 H148 H 0.56960 0.93735 0.19642
 H149 H 0.57292 0.93731 0.31572
 H150 H 0.51092 0.72255 0.45872
 H151 H 0.57912 0.80671 0.19737
 H152 H 0.49787 0.78885 0.46059
 C153 C 0.33223 0.85545 0.28118
 C154 C 0.33272 0.85591 0.21816
 C155 C 0.28995 0.83632 0.19934
 N156 N 0.26346 0.82369 0.24855
 C157 C 0.28918 0.83560 0.29862
 C158 C 0.27507 0.83103 0.13825
 C159 C 0.23185 0.79903 0.12343
 C160 C 0.21001 0.79769 0.07045
 C161 C 0.17185 0.75762 0.06957
 C162 C 0.17160 0.73573 0.12203
 N163 N 0.20771 0.76164 0.15524
 C164 C 0.14217 0.69111 0.13496
 C165 C 0.13729 0.67555 0.19554
 C166 C 0.12135 0.63251 0.21291
 C167 C 0.12077 0.63220 0.27593
 C168 C 0.13640 0.67507 0.29479
 N169 N 0.14678 0.70148 0.24563
 C170 C 0.14044 0.69014 0.35587
 C171 C 0.16946 0.73469 0.37041
 C172 C 0.16905 0.75607 0.42363
 C173 C 0.20742 0.79592 0.42487
 C174 C 0.22987 0.79769 0.37220
 N175 N 0.20606 0.76079 0.33863
 C176 C 0.27336 0.82945 0.35929
 H177 H 0.36033 0.86712 0.31038
 H178 H 0.36126 0.86794 0.18981
 H179 H 0.21721 0.75109 0.30111
 H180 H 0.22100 0.82239 0.03520
 H181 H 0.14776 0.74545 0.03350
 H182 H 0.11259 0.60446 0.18366
 H183 H 0.11151 0.60389 0.30418
 H184 H 0.21818 0.82014 0.46131
 H185 H 0.21831 0.75166 0.19272
 H186 H 0.14449 0.74359 0.45899
 C187 C 0.67845 0.56606 0.71846
 C188 C 0.67929 0.56684 0.78112
 C189 C 0.71091 0.55799 0.79881
 N190 N 0.73011 0.55292 0.74856
 C191 C 0.70958 0.55676 0.69926
 C192 C 0.72267 0.55688 0.86051
 C193 C 0.75658 0.54999 0.87741
 C194 C 0.77585 0.55889 0.93489
 C195 C 0.80530 0.54539 0.93358
 C196 C 0.80247 0.52737 0.87596
 N197 N 0.77286 0.53053 0.84195
 C198 C 0.82450 0.50578 0.85769
 C199 C 0.82601 0.49399 0.79610
 C200 C 0.83846 0.46483 0.77735
 C201 C 0.83809 0.46460 0.71454
 C202 C 0.82537 0.49359 0.69686
 N203 N 0.81788 0.51145 0.74680
 C204 C 0.82305 0.50483 0.63558
 C205 C 0.80017 0.52560 0.61830
 C206 C 0.80172 0.54257 0.56074
 C207 C 0.77175 0.55540 0.56055
 C208 C 0.75353 0.54732 0.61867
 N209 N 0.77087 0.52883 0.65339
 C210 C 0.71980 0.55427 0.63705
 H211 H 0.65802 0.57308 0.69061
 H212 H 0.65961 0.57453 0.80995
 H213 H 0.75950 0.51427 0.69578
 H214 H 0.76950 0.57329 0.97427
 H215 H 0.82587 0.54799 0.97139
 H216 H 0.84651 0.44530 0.80584
 H217 H 0.84578 0.44485 0.68532
 H218 H 0.76445 0.56889 0.52147
 H219 H 0.76055 0.51526 0.79993
 H220 H 0.82176 0.54491 0.52223
 C221 C 0.39780 0.10082 0.71913
 C222 C 0.39906 0.10125 0.78214
 C223 C 0.42261 0.14492 0.79998
 N224 N 0.43522 0.17107 0.75031
 C225 C 0.42048 0.14424 0.70087
 C226 C 0.43623 0.16080 0.86014
 C227 C 0.45292 0.20545 0.87463
 C228 C 0.48031 0.22816 0.92327
 C229 C 0.48576 0.26936 0.92377
 C230 C 0.46136 0.27055 0.87561
 N231 N 0.44214 0.23176 0.84518
 C232 C 0.45455 0.30537 0.86259
 C233 C 0.44281 0.31048 0.80289
 C234 C 0.42629 0.33654 0.78651
 C235 C 0.42469 0.33603 0.72350
 C236 C 0.44000 0.30944 0.70371
 N237 N 0.45061 0.29355 0.75225
 C238 C 0.44808 0.30302 0.64234
 C239 C 0.45367 0.26780 0.62589
 C240 C 0.47438 0.26548 0.57357
 C241 C 0.46963 0.22457 0.57288
 C242 C 0.44613 0.20307 0.62479
 N243 N 0.43703 0.22985 0.65724
 C244 C 0.43161 0.15911 0.64007
 H245 H 0.38227 0.07188 0.69017
 H246 H 0.38459 0.07269 0.81125
 H247 H 0.41672 0.22109 0.69534
 H248 H 0.49507 0.21644 0.95494
 H249 H 0.50563 0.29543 0.95585
 H250 H 0.41640 0.35409 0.81658
 H251 H 0.41352 0.35323 0.69558
 H252 H 0.48240 0.21236 0.53828
 H253 H 0.41905 0.22211 0.81045
 H254 H 0.49146 0.29067 0.53960
 C255 C 0.65010 0.09277 0.71659
 C256 C 0.64892 0.09428 0.77932
 C257 C 0.68373 0.13457 0.79743
 N258 N 0.70534 0.15803 0.74744
 C259 C 0.68446 0.13281 0.69794
 C260 C 0.69253 0.15186 0.85783
 C261 C 0.73330 0.18846 0.87465
 C262 C 0.74205 0.21206 0.92907
 C263 C 0.78527 0.24355 0.92859
 C264 C 0.80238 0.23775 0.87481
 N265 N 0.77048 0.20403 0.84220
 C266 C 0.84667 0.26227 0.85792
 C267 C 0.86030 0.26369 0.79681
 C268 C 0.90291 0.28167 0.77806
 C269 C 0.90253 0.28200 0.71512
 C270 C 0.85969 0.26408 0.69767
 N271 N 0.83392 0.25265 0.74760
 C272 C 0.84519 0.26278 0.63728
 C273 C 0.80089 0.23763 0.62133
 C274 C 0.78247 0.24359 0.56934
 C275 C 0.73953 0.21097 0.56916
 C276 C 0.73287 0.18610 0.62112
 N277 N 0.77033 0.20273 0.65295
 C278 C 0.69361 0.14780 0.63676
 H279 H 0.62766 0.06529 0.68829
 H280 H 0.62473 0.06829 0.80722
 H281 H 0.77566 0.18833 0.69069
 H282 H 0.72007 0.20723 0.96610
 H283 H 0.80184 0.26800 0.96408
 H284 H 0.93139 0.29405 0.80672
 H285 H 0.93062 0.29466 0.68565
 H286 H 0.71586 0.20642 0.53492
 H287 H 0.77465 0.18992 0.80277
 H288 H 0.79809 0.26897 0.53524
 N289 N 0.16821 0.49211 0.02768
 N290 N 0.13587 0.48975 -0.00400
 C291 C 0.10022 0.47161 0.03147
 C292 C 0.11012 0.46145 0.08789
 C293 C 0.15375 0.47525 0.08392
 H294 H 0.08894 0.44766 0.12712
 H295 H 0.20000 0.50678 0.01167
 H296 H 0.13891 0.50249 -0.04794
 N297 N 0.58658 0.71334 0.03355
 N298 N 0.57845 0.67744 0.00352
 C299 C 0.56031 0.64351 0.04262
 C300 C 0.55652 0.65823 0.09973
 C301 C 0.57326 0.70273 0.09213
 H302 H 0.54199 0.63892 0.14048
 H303 H 0.60071 0.74440 0.01394
 H304 H 0.58537 0.67640 -0.04279
 N305 N 0.30516 0.84182 0.03153
 N306 N 0.33887 0.87197 0.00056
 C307 C 0.36162 0.90739 0.03687
 C308 C 0.34105 0.89983 0.09301
 C309 C 0.30550 0.85750 0.08821
 H310 H 0.35189 0.92127 0.13278
 H311 H 0.28385 0.81020 0.01498
 H312 H 0.34744 0.86715 -0.04333
 N313 N 0.82971 0.47589 0.53298
 N314 N 0.85897 0.47122 0.50279
 C315 C 0.89477 0.48715 0.53782
 C316 C 0.88823 0.50297 0.59234
 C317 C 0.84649 0.49515 0.58762
 H318 H 0.91036 0.51725 0.63067
 H319 H 0.79846 0.46495 0.51693
 H320 H 0.85386 0.45615 0.45983
 N321 N 0.44144 0.32530 0.53558
 N322 N 0.45357 0.36191 0.50542
 C323 C 0.47323 0.39589 0.54493
 C324 C 0.47398 0.38043 0.60258
 C325 C 0.45364 0.33534 0.59480
 H326 H 0.48839 0.39949 0.64390
 H327 H 0.42487 0.29405 0.51573
 H328 H 0.44788 0.36337 0.45881
 N329 N 0.66935 0.11804 0.52984
 N330 N 0.63257 0.09440 0.49948
 C331 C 0.59952 0.08502 0.53763
 C332 C 0.61586 0.10413 0.59417
 C333 C 0.66042 0.12438 0.58785
 H334 H 0.59759 0.10223 0.63470
 H335 H 0.69988 0.12807 0.51160
 H336 H 0.63025 0.08301 0.45454
 N337 N 0.42877 0.13434 0.96830
 N338 N 0.43614 0.10500 1.00009
 C339 C 0.44680 0.08391 0.95866
 C340 C 0.44683 0.09924 0.90034
 C341 C 0.43594 0.13119 0.90826
 H342 H 0.45622 0.09023 0.85809
 H343 H 0.42001 0.15530 0.98860
 H344 H 0.43394 0.10098 1.04763
 N345 N 0.71113 0.59330 0.95232
 N346 N 0.67785 0.58826 0.98495
 C347 C 0.64152 0.55297 0.96330
 C348 C 0.65197 0.53450 0.91558
 C349 C 0.69643 0.56096 0.90989
 H350 H 0.62999 0.50726 0.88645
 H351 H 0.74280 0.61976 0.95702
 H352 H 0.67976 0.61021 1.01862
 N353 N 0.87896 0.28214 0.96384
 N354 N 0.90746 0.32091 0.99498
 C355 C 0.92525 0.35324 0.95331
 C356 C 0.90889 0.33625 0.89558
 C357 C 0.87920 0.29196 0.90418
 H358 H 0.91452 0.35459 0.85373
 H359 H 0.85922 0.25183 0.98465
 H360 H 0.91228 0.32382 1.04240
 N361 N 0.54482 0.87496 0.47305
 N362 N 0.53123 0.89976 0.50523
 C363 C 0.51492 0.91542 0.46410
 C364 C 0.51630 0.90007 0.40606
 C365 C 0.53536 0.87494 0.41319
 H366 H 0.50407 0.90591 0.36420
 H367 H 0.56077 0.86050 0.49271
 H368 H 0.53553 0.90653 0.55224
 N369 N 0.34648 0.50395 0.46393
 N370 N 0.37962 0.50876 0.49631
 C371 C 0.40035 0.49311 0.46319
 C372 C 0.37892 0.47666 0.40807
 C373 C 0.34543 0.48509 0.40953
 H374 H 0.38821 0.46308 0.37065
 H375 H 0.32655 0.51576 0.47762
 H376 H 0.38929 0.52498 0.53860
 N377 N 0.13377 0.66194 0.46273
 N378 N 0.10690 0.62686 0.49455
 C379 C 0.07248 0.60032 0.45920
 C380 C 0.07713 0.61978 0.40278
 C381 C 0.11688 0.65877 0.40646
 H382 H 0.05584 0.60612 0.36350
 H383 H 0.16435 0.68610 0.47837
 H384 H 0.11362 0.62001 0.53822
 N385 N 0.83136 0.47716 0.95958
 N386 N 0.86052 0.47222 0.98915
 C387 C 0.89604 0.48749 0.95371
 C388 C 0.88941 0.50314 0.89957
 C389 C 0.84791 0.49589 0.90492
 H390 H 0.91135 0.51703 0.86112
 H391 H 0.80033 0.46683 0.97610
 H392 H 0.85557 0.45752 1.03203
 N393 N 0.45626 0.32926 0.97205
 N394 N 0.47022 0.36853 1.00372
 C395 C 0.48349 0.40049 0.96183
 C396 C 0.47935 0.38292 0.90349
 C397 C 0.46247 0.33827 0.91158
 H398 H 0.48890 0.40081 0.86082
 H399 H 0.44271 0.29858 0.99265
 H400 H 0.46879 0.37149 1.05124
 N401 N 0.64228 0.16090 0.92710
 N402 N 0.60751 0.13630 0.96058
 C403 C 0.59813 0.09457 0.95747
 C404 C 0.62876 0.09258 0.92140
 C405 C 0.65626 0.13550 0.90265
 H406 H 0.62959 0.06360 0.90877
 H407 H 0.65468 0.19411 0.91849
 H408 H 0.58867 0.14742 0.98107
 N409 N 0.16471 0.48724 0.46289
 N410 N 0.13063 0.48503 0.49630
 C411 C 0.09655 0.47043 0.45812
 C412 C 0.10750 0.46184 0.40072
 C413 C 0.15055 0.47313 0.40527
 H414 H 0.08704 0.45006 0.36040
 H415 H 0.19615 0.50026 0.47963
 H416 H 0.13297 0.49614 0.54142
 N417 N 0.57780 0.70937 0.46630
 N418 N 0.57135 0.67439 0.49631
 C419 C 0.55689 0.64060 0.45649
 C420 C 0.55382 0.65454 0.39869
 C421 C 0.56720 0.69842 0.40684
 H422 H 0.54153 0.63497 0.35726
 H423 H 0.58878 0.74002 0.48656
 H424 H 0.57635 0.67372 0.54335
 N425 N 0.30255 0.83765 0.46612
 N426 N 0.33623 0.86703 0.49843
 C427 C 0.35891 0.90331 0.46437
 C428 C 0.33837 0.89714 0.40853
 C429 C 0.30305 0.85472 0.41086
 H430 H 0.34929 0.91943 0.37016
 H431 H 0.28120 0.80562 0.48057
 H432 H 0.34481 0.86117 0.54145
 N433 N 0.48235 0.84358 0.07722
 N434 N 0.47222 0.86828 0.04518
 C435 C 0.50515 0.91009 0.04873
 C436 C 0.53812 0.91215 0.08387
 C437 C 0.52235 0.86895 0.10112
 H438 H 0.56871 0.94115 0.09544
 H439 H 0.46126 0.81013 0.08473
 H440 H 0.44210 0.85701 0.02460
 N441 N 0.33588 0.43419 0.06437
 N442 N 0.36981 0.44042 0.03250
 C443 C 0.40119 0.48291 0.03705
 C444 C 0.38658 0.50478 0.07308
 C445 C 0.34505 0.47258 0.09007
 H446 H 0.40492 0.53851 0.08869
 H447 H 0.30811 0.40357 0.07165
 H448 H 0.37254 0.41534 0.01204
 N449 N 0.13553 0.66287 0.02732
 N450 N 0.10863 0.62764 -0.00494
 C451 C 0.07400 0.60144 0.02997
 C452 C 0.07855 0.62134 0.08646
 C453 C 0.11848 0.66009 0.08347
 H454 H 0.05717 0.60792 0.12554
 H455 H 0.16627 0.68679 0.01217
 H456 H 0.11551 0.62037 -0.04849
 N457 N 0.42123 0.12815 0.53296
 N458 N 0.42831 0.10000 0.50306
 C459 C 0.44301 0.08210 0.54314
 C460 C 0.44572 0.09971 0.60077
 C461 C 0.43180 0.12903 0.59249
 H462 H 0.45780 0.09332 0.64235
 H463 H 0.40948 0.14644 0.51266
 H464 H 0.42304 0.09322 0.45614
 N465 N 0.70652 0.58891 0.54572
 N466 N 0.67269 0.58340 0.51428
 C467 C 0.63665 0.54887 0.53745
 C468 C 0.64787 0.53133 0.58499
 C469 C 0.69251 0.55755 0.58887
 H470 H 0.62636 0.50479 0.61497
 H471 H 0.73815 0.61511 0.53974
 H472 H 0.67412 0.60460 0.48028
 N473 N 0.87710 0.28204 0.53131
 N474 N 0.90480 0.31796 0.50143
 C475 C 0.92288 0.35171 0.54155
 C476 C 0.90611 0.33677 0.59931
 C477 C 0.87680 0.29245 0.59085
 H478 H 0.91180 0.35605 0.64065
 H479 H 0.85774 0.25132 0.51072
 H480 H 0.91014 0.31940 0.45417
   
