data_POSCAR
  _audit_creation_date              2014-09-24
  _audit_creation_method            'ToBaCCo'
  _symmetry_space_group_name_H-M    'P1'
  _symmetry_Int_Tables_number       1
  _symmetry_cell_setting            triclinic
  loop_
  _symmetry_equiv_pos_as_xyz
 x,y,z
_cell_length_a 45.9167
_cell_length_b 45.9167
_cell_length_c 44.3608
_cell_angle_alpha 90.000000
_cell_angle_beta 90.000000
_cell_angle_gamma 90.000000
loop_
  _atom_site_label
  _atom_site_type_symbol
  _atom_site_fract_x
  _atom_site_fract_y
  _atom_site_fract_z
C1 C 0.29737 0.29028 0.23865
 H2 H 0.29926 0.28815 0.26281
 C3 C 0.31738 0.30822 0.22317
 H4 H 0.33339 0.31989 0.23637
 C5 C 0.27453 0.27767 0.19303
 H6 H 0.25797 0.26565 0.18097
 C7 C 0.29446 0.29538 0.17652
 H8 H 0.29279 0.29621 0.15220
 N9 N 0.27621 0.27514 0.22379
 C10 C 0.19610 0.27644 0.27565
 H11 H 0.18443 0.26253 0.26017
 C12 C 0.18004 0.29616 0.29402
 H13 H 0.15659 0.29711 0.29174
 C14 C 0.24018 0.29248 0.29694
 H15 H 0.26358 0.29115 0.29871
 C16 C 0.22505 0.31241 0.31550
 H17 H 0.23753 0.32575 0.33092
 Zn18 Zn 0.24976 0.24958 0.24882
 N19 N 0.22593 0.27514 0.27673
 C20 C 0.27395 0.21984 0.30365
 N21 N 0.27520 0.22234 0.27288
 C22 C 0.29490 0.20580 0.25746
 C23 C 0.31331 0.18578 0.27241
 C24 C 0.29217 0.19999 0.31958
 C25 C 0.20256 0.24007 0.20486
 C26 C 0.18203 0.22437 0.18742
 C27 C 0.20437 0.17976 0.20331
 C28 C 0.22416 0.19629 0.22108
 N29 N 0.22298 0.22611 0.22199
 H30 H 0.25851 0.23295 0.31609
 H31 H 0.29630 0.20795 0.23322
 H32 H 0.32848 0.17324 0.25900
 H33 H 0.28999 0.19818 0.34380
 H34 H 0.20158 0.26360 0.20525
 H35 H 0.16568 0.23634 0.17493
 H36 H 0.20557 0.15622 0.20380
 H37 H 0.24018 0.18498 0.23456
 C38 C 0.19441 0.31523 0.31405
 C39 C 0.31684 0.31089 0.19140
 C40 C 0.18236 0.19362 0.18643
 C41 C 0.31212 0.18201 0.30405
 C42 C 0.80291 0.77607 0.21919
 H43 H 0.81525 0.76089 0.23271
 C44 C 0.81817 0.79613 0.20044
 H45 H 0.84170 0.79549 0.20064
 C46 C 0.75796 0.79563 0.20409
 H47 H 0.73445 0.79577 0.20528
 C48 C 0.77223 0.81606 0.18539
 H49 H 0.75839 0.83006 0.17210
 N50 N 0.77311 0.77600 0.22095
 C51 C 0.69613 0.77439 0.27638
 H52 H 0.68451 0.75906 0.26232
 C53 C 0.68002 0.79419 0.29464
 H54 H 0.65647 0.79367 0.29385
 C55 C 0.74037 0.79427 0.29352
 H56 H 0.76393 0.79465 0.29317
 C57 C 0.72521 0.81423 0.31202
 H58 H 0.73783 0.82908 0.32574
 Zn59 Zn 0.75001 0.74944 0.24827
 N60 N 0.72597 0.77483 0.27568
 C61 C 0.77660 0.72268 0.30356
 N62 N 0.77740 0.72431 0.27271
 C63 C 0.79683 0.70724 0.25751
 C64 C 0.81531 0.68753 0.27275
 C65 C 0.79488 0.70311 0.31978
 C66 C 0.70286 0.73278 0.20420
 C67 C 0.68452 0.71317 0.18802
 C68 C 0.70977 0.67344 0.21124
 C69 C 0.72734 0.69356 0.22700
 N70 N 0.72389 0.72292 0.22367
 H71 H 0.76124 0.73603 0.31582
 H72 H 0.79762 0.70837 0.23316
 H73 H 0.83013 0.67444 0.25948
 H74 H 0.79292 0.70185 0.34406
 H75 H 0.69977 0.75595 0.20141
 H76 H 0.66772 0.72190 0.17349
 H77 H 0.71387 0.65047 0.21469
 H78 H 0.74366 0.68533 0.24229
 C79 C 0.69439 0.81514 0.31262
 C80 C 0.80314 0.81745 0.18329
 C81 C 0.68735 0.68272 0.19160
 C82 C 0.81441 0.68450 0.30447
 C83 C 0.80582 0.27102 0.72593
 H84 H 0.81388 0.25634 0.74302
 C85 C 0.82605 0.28662 0.70816
 H86 H 0.84904 0.28323 0.71225
 C87 C 0.76672 0.29352 0.70077
 H88 H 0.74354 0.29639 0.69768
 C89 C 0.78640 0.30978 0.68250
 H90 H 0.77779 0.32438 0.66554
 N91 N 0.77648 0.27405 0.72193
 C92 C 0.69543 0.27615 0.77513
 H93 H 0.68386 0.25956 0.76266
 C94 C 0.67929 0.29626 0.79296
 H95 H 0.65577 0.29485 0.79320
 C96 C 0.73953 0.29822 0.78955
 H97 H 0.76305 0.29919 0.78849
 C98 C 0.72432 0.31858 0.80756
 H99 H 0.73689 0.33442 0.82008
 Zn100 Zn 0.74922 0.25011 0.74773
 N101 N 0.72521 0.27744 0.77330
 C102 C 0.76954 0.22656 0.80556
 N103 N 0.77288 0.22390 0.77510
 C104 C 0.79233 0.20374 0.76435
 C105 C 0.80871 0.18559 0.78412
 C106 C 0.78530 0.20888 0.82594
 C107 C 0.70188 0.23981 0.70451
 C108 C 0.68148 0.22402 0.68704
 C109 C 0.70444 0.17956 0.70244
 C110 C 0.72413 0.19620 0.72025
 N111 N 0.72263 0.22600 0.72136
 H112 H 0.75437 0.24239 0.81439
 H113 H 0.79522 0.20151 0.74026
 H114 H 0.82342 0.16960 0.77466
 H115 H 0.78178 0.21204 0.84984
 H116 H 0.70049 0.26331 0.70523
 H117 H 0.66490 0.23589 0.67478
 H118 H 0.70593 0.15603 0.70270
 H119 H 0.74038 0.18499 0.73352
 C120 C 0.69353 0.31844 0.80938
 C121 C 0.81681 0.30622 0.68552
 C122 C 0.68220 0.19329 0.68574
 C123 C 0.80520 0.18755 0.81568
 C124 C 0.30030 0.78687 0.73843
 H125 H 0.30379 0.78067 0.76168
 C126 C 0.32068 0.80522 0.72410
 H127 H 0.33948 0.81098 0.73736
 C128 C 0.27246 0.78411 0.69413
 H129 H 0.25354 0.77603 0.68225
 C130 C 0.29236 0.80289 0.67885
 H131 H 0.28753 0.80861 0.65576
 N132 N 0.27640 0.77662 0.72373
 C133 C 0.20603 0.76901 0.79632
 H134 H 0.20288 0.74582 0.79911
 C135 C 0.18971 0.78870 0.81452
 H136 H 0.17481 0.78008 0.83119
 C137 C 0.22922 0.80809 0.77180
 H138 H 0.24429 0.81611 0.75502
 C139 C 0.21348 0.82833 0.78942
 H140 H 0.21705 0.85129 0.78538
 Zn141 Zn 0.24917 0.75198 0.74857
 N142 N 0.22574 0.77877 0.77540
 C143 C 0.27292 0.72279 0.80415
 N144 N 0.27386 0.72453 0.77330
 C145 C 0.29312 0.70727 0.75812
 C146 C 0.31118 0.68715 0.77334
 C147 C 0.29083 0.70285 0.82036
 C148 C 0.19258 0.73479 0.72396
 C149 C 0.17180 0.71815 0.70797
 C150 C 0.21042 0.68925 0.68740
 C151 C 0.23067 0.70663 0.70379
 N152 N 0.22165 0.72877 0.72232
 H153 H 0.25809 0.73668 0.81646
 H154 H 0.29469 0.70911 0.73389
 H155 H 0.32600 0.67402 0.76009
 H156 H 0.28892 0.70164 0.84464
 H157 H 0.18517 0.75251 0.73803
 H158 H 0.14908 0.72403 0.71018
 H159 H 0.21845 0.67138 0.67384
 H160 H 0.25363 0.70180 0.70202
 C161 C 0.19344 0.81912 0.81168
 C162 C 0.31714 0.81468 0.69373
 C163 C 0.18016 0.69431 0.68969
 C164 C 0.31020 0.68406 0.80504
 C165 C 0.04462 0.04313 0.01655
 H166 H 0.04990 0.04200 -0.00719
 C167 C 0.06114 0.06176 0.03559
 H168 H 0.07853 0.07470 0.02598
 C169 C 0.01532 0.02859 0.05742
 H170 H -0.00265 0.01602 0.06626
 C171 C 0.03080 0.04744 0.07699
 H172 H 0.02425 0.04876 0.10040
 N173 N 0.02211 0.02662 0.02749
 C174 C 0.01676 -0.04091 -0.04885
 H175 H -0.00607 -0.04108 -0.05488
 C176 C 0.03685 -0.05748 -0.06635
 H177 H 0.02897 -0.06957 -0.08564
 C178 C 0.05454 -0.02485 -0.01714
 H179 H 0.06184 -0.01274 0.00231
 C180 C 0.07514 -0.04100 -0.03387
 H181 H 0.09762 -0.04056 -0.02658
 Zn182 Zn -0.00146 0.00078 -0.00020
 N183 N 0.02577 -0.02429 -0.02492
 C184 C -0.02687 0.02674 -0.05718
 N185 N -0.02626 0.02695 -0.02628
 C186 C -0.04431 0.04558 -0.01127
 C187 C -0.06427 0.06361 -0.02674
 C188 C -0.04664 0.04465 -0.07365
 C189 C -0.01938 -0.04200 0.04757
 C190 C -0.03946 -0.05861 0.06507
 C191 C -0.07794 -0.04112 0.03339
 C192 C -0.05737 -0.02488 0.01672
 N193 N -0.02850 -0.02488 0.02406
 H194 H -0.01248 0.01229 -0.06934
 H195 H -0.04374 0.04608 0.01311
 H196 H -0.07824 0.07772 -0.01360
 H197 H -0.04711 0.04318 -0.09800
 H198 H 0.00349 -0.04236 0.05340
 H199 H -0.03148 -0.07106 0.08406
 H200 H -0.10050 -0.04025 0.02641
 H201 H -0.06480 -0.01210 -0.00223
 C202 C 0.06690 -0.05738 -0.05948
 C203 C 0.05424 0.06456 0.06642
 C204 C -0.06960 -0.05803 0.05861
 C205 C -0.06640 0.06318 -0.05853
 C206 C 0.04188 0.54757 0.51596
 H207 H 0.04433 0.55020 0.49185
 C208 C 0.05795 0.56598 0.53574
 H209 H 0.07201 0.58254 0.52628
 C210 C 0.02035 0.52356 0.55717
 H211 H 0.00575 0.50722 0.56600
 C212 C 0.03590 0.54139 0.57756
 H213 H 0.03287 0.53770 0.60144
 N214 N 0.02327 0.52666 0.52671
 C215 C 0.01872 0.45585 0.45370
 H216 H -0.00444 0.45279 0.45052
 C217 C 0.03861 0.43941 0.43589
 H218 H 0.03018 0.42442 0.41921
 C219 C 0.05746 0.47926 0.47855
 H220 H 0.06526 0.49446 0.49529
 C221 C 0.07792 0.46335 0.46136
 H222 H 0.10083 0.46691 0.46572
 Zn223 Zn 0.00034 0.50026 0.49904
 N224 N 0.02820 0.47592 0.47438
 C225 C -0.02032 0.52309 0.44111
 N226 N -0.02470 0.52472 0.47151
 C227 C -0.04587 0.54309 0.48217
 C228 C -0.06380 0.55960 0.46229
 C229 C -0.03768 0.53904 0.42063
 C230 C -0.01028 0.45336 0.54174
 C231 C -0.02571 0.43306 0.55959
 C232 C -0.07062 0.45297 0.54133
 C233 C -0.05426 0.47305 0.52365
 N234 N -0.02440 0.47303 0.52390
 H235 H -0.00328 0.50922 0.43241
 H236 H -0.04928 0.54477 0.50623
 H237 H -0.08078 0.57324 0.47160
 H238 H -0.03326 0.53682 0.39678
 H239 H 0.01328 0.45327 0.54213
 H240 H -0.01332 0.41813 0.57343
 H241 H -0.09416 0.45333 0.54001
 H242 H -0.06567 0.48845 0.50951
 C243 C 0.06899 0.44325 0.43902
 C244 C 0.05499 0.56347 0.56733
 C245 C -0.05651 0.43206 0.55956
 C246 C -0.06035 0.55747 0.43073
 C247 C 0.54470 0.04394 0.51408
 H248 H 0.54955 0.04323 0.49023
 C249 C 0.56113 0.06276 0.53305
 H250 H 0.57797 0.07628 0.52326
 C251 C 0.51668 0.02812 0.55539
 H252 H 0.49928 0.01493 0.56449
 C253 C 0.53205 0.04710 0.57489
 H254 H 0.52596 0.04793 0.59845
 N255 N 0.52293 0.02661 0.52530
 C256 C 0.51789 -0.04530 0.45313
 H257 H 0.49471 -0.04762 0.44947
 C258 C 0.53759 -0.06191 0.43523
 H259 H 0.52903 -0.07631 0.41806
 C260 C 0.55690 -0.02354 0.47908
 H261 H 0.56493 -0.00911 0.49639
 C262 C 0.57717 -0.03952 0.46171
 H263 H 0.60014 -0.03658 0.46627
 Zn264 Zn 0.49992 -0.00063 0.49846
 N265 N 0.52760 -0.02585 0.47432
 C266 C 0.47938 0.02177 0.44008
 N267 N 0.47484 0.02332 0.47045
 C268 C 0.45337 0.04140 0.48100
 C269 C 0.43533 0.05770 0.46105
 C270 C 0.46192 0.03754 0.41951
 C271 C 0.48861 -0.04322 0.54572
 C272 C 0.47271 -0.06089 0.56598
 C273 C 0.42848 -0.04633 0.54153
 C274 C 0.44527 -0.02850 0.52182
 N275 N 0.47498 -0.02675 0.52434
 H276 H 0.49667 0.00815 0.43146
 H277 H 0.44981 0.04300 0.50505
 H278 H 0.41813 0.07111 0.47031
 H279 H 0.46655 0.03544 0.39569
 H280 H 0.51208 -0.04216 0.54765
 H281 H 0.48451 -0.07299 0.58299
 H282 H 0.40499 -0.04649 0.53939
 H283 H 0.43428 -0.01576 0.50477
 C284 C 0.56799 -0.05884 0.43879
 C285 C 0.55486 0.06490 0.56409
 C286 C 0.44200 -0.06259 0.56462
 C287 C 0.43896 0.05569 0.42950
 C288 C 0.54217 0.54593 0.01519
 H289 H 0.54541 0.54846 -0.00882
 C290 C 0.55968 0.56241 0.03551
 H291 H 0.57608 0.57690 0.02649
 C292 C 0.51784 0.52352 0.05567
 H293 H 0.50159 0.50851 0.06400
 C294 C 0.53452 0.53969 0.07657
 H295 H 0.52998 0.53670 0.10029
 N296 N 0.52201 0.52620 0.02534
 C297 C 0.51673 0.45561 -0.04799
 H298 H 0.49355 0.45224 -0.05060
 C299 C 0.53643 0.43932 -0.06621
 H300 H 0.52784 0.42414 -0.08261
 C301 C 0.55575 0.47959 -0.02422
 H302 H 0.56380 0.49488 -0.00772
 C303 C 0.57600 0.46399 -0.04197
 H304 H 0.59898 0.46800 -0.03846
 Zn305 Zn 0.49877 0.50022 -0.00250
 N306 N 0.52641 0.47590 -0.02764
 C307 C 0.47714 0.52290 -0.06011
 N308 N 0.47342 0.52486 -0.02964
 C309 C 0.45265 0.54354 -0.01871
 C310 C 0.43442 0.55998 -0.03837
 C311 C 0.45947 0.53879 -0.08037
 C312 C 0.48871 0.45137 0.03766
 C313 C 0.47392 0.43192 0.05703
 C314 C 0.42909 0.45634 0.04581
 C315 C 0.44478 0.47531 0.02624
 N316 N 0.47436 0.47302 0.02274
 H317 H 0.49385 0.50878 -0.06905
 H318 H 0.44978 0.54553 0.00540
 H319 H 0.41774 0.57385 -0.02882
 H320 H 0.46338 0.53628 -0.10429
 H321 H 0.51200 0.44921 0.03474
 H322 H 0.48654 0.41504 0.06790
 H323 H 0.40590 0.45953 0.04864
 H324 H 0.43313 0.49226 0.01438
 C325 C 0.56679 0.44367 -0.06393
 C326 C 0.55662 0.55914 0.06703
 C327 C 0.44358 0.43430 0.06225
 C328 C 0.43714 0.55749 -0.06998
 C329 C 0.13691 -0.13888 -0.13822
 C330 C 0.15326 -0.11487 -0.13089
 C331 C 0.18189 -0.11147 -0.14059
 C332 C 0.19432 -0.13335 -0.15879
 C333 C 0.17847 -0.15862 -0.16762
 C334 C 0.14910 -0.16140 -0.15659
 O335 O 0.10998 -0.13748 -0.12633
 C336 C 0.10951 -0.11205 -0.11125
 C337 C 0.13558 -0.09756 -0.11347
 C338 C 0.14028 -0.07070 -0.09976
 C339 C 0.11754 -0.05819 -0.08281
 C340 C 0.09008 -0.07222 -0.07918
 C341 C 0.08608 -0.09972 -0.09422
 H342 H 0.19443 -0.09246 -0.13429
 H343 H 0.21673 -0.13055 -0.16574
 H344 H 0.13603 -0.18015 -0.16256
 H345 H 0.16094 -0.05957 -0.10206
 H346 H 0.12143 -0.03710 -0.07270
 H347 H 0.06568 -0.11136 -0.09230
 C348 C 0.13793 0.35942 0.36202
 C349 C 0.15271 0.38529 0.36471
 C350 C 0.17990 0.38970 0.35159
 C351 C 0.19267 0.36670 0.33521
 C352 C 0.17866 0.33923 0.33176
 C353 C 0.15038 0.33585 0.34534
 O354 O 0.11230 0.36005 0.37670
 C355 C 0.11102 0.38689 0.38880
 C356 C 0.13531 0.40304 0.38198
 C357 C 0.13893 0.43150 0.39213
 C358 C 0.11698 0.44396 0.41021
 C359 C 0.09142 0.42829 0.41852
 C360 C 0.08845 0.39910 0.40707
 H361 H 0.19107 0.41034 0.35391
 H362 H 0.21364 0.37061 0.32482
 H363 H 0.13874 0.31544 0.34347
 H364 H 0.15818 0.44388 0.38627
 H365 H 0.11994 0.46626 0.41747
 H366 H 0.06951 0.38615 0.41264
 C367 C 0.63761 -0.14167 0.36134
 C368 C 0.65156 -0.11528 0.36317
 C369 C 0.67819 -0.11015 0.34913
 C370 C 0.69128 -0.13295 0.33273
 C371 C 0.67824 -0.16103 0.33030
 C372 C 0.65047 -0.16512 0.34480
 O373 O 0.61232 -0.14162 0.37667
 C374 C 0.61044 -0.11464 0.38833
 C375 C 0.63404 -0.09783 0.38063
 C376 C 0.63706 -0.06916 0.39036
 C377 C 0.61522 -0.05716 0.40891
 C378 C 0.59030 -0.07344 0.41794
 C379 C 0.58790 -0.10284 0.40694
 H380 H 0.68866 -0.08909 0.35069
 H381 H 0.71169 -0.12837 0.32152
 H382 H 0.63952 -0.18595 0.34372
 H383 H 0.65581 -0.05630 0.38391
 H384 H 0.61772 -0.03476 0.41604
 H385 H 0.56945 -0.11622 0.41314
 C386 C 0.63688 0.36110 -0.14124
 C387 C 0.64986 0.38804 -0.14082
 C388 C 0.67578 0.39368 -0.15602
 C389 C 0.68917 0.37086 -0.17214
 C390 C 0.67713 0.34227 -0.17315
 C391 C 0.65006 0.33763 -0.15747
 O392 O 0.61215 0.36070 -0.12498
 C393 C 0.60962 0.38796 -0.11415
 C394 C 0.63228 0.40538 -0.12329
 C395 C 0.63452 0.43444 -0.11462
 C396 C 0.61286 0.44619 -0.09565
 C397 C 0.58892 0.42928 -0.08516
 C398 C 0.58729 0.39948 -0.09510
 H399 H 0.68549 0.41516 -0.15555
 H400 H 0.70901 0.37582 -0.18426
 H401 H 0.63987 0.31638 -0.15742
 H402 H 0.65252 0.44778 -0.12219
 H403 H 0.61473 0.46889 -0.08935
 H404 H 0.56960 0.38562 -0.08777
 C405 C -0.13824 0.13777 -0.14263
 C406 C -0.15464 0.12966 -0.11814
 C407 C -0.18330 0.13884 -0.11432
 C408 C -0.19572 0.15726 -0.13625
 C409 C -0.17984 0.16679 -0.16202
 C410 C -0.15044 0.15634 -0.16524
 O411 O -0.11119 0.12653 -0.14145
 C412 C -0.11068 0.11107 -0.11568
 C413 C -0.13684 0.11243 -0.10074
 C414 C -0.14145 0.09831 -0.07338
 C415 C -0.11835 0.08234 -0.06056
 C416 C -0.09054 0.08031 -0.07465
 C417 C -0.08697 0.09486 -0.10316
 H418 H -0.19585 0.13203 -0.09490
 H419 H -0.21814 0.16387 -0.13314
 H420 H -0.13733 0.16290 -0.18434
 H421 H -0.16232 0.09957 -0.06210
 H422 H -0.12241 0.07120 -0.03947
 H423 H -0.06631 0.09408 -0.11487
 C424 C -0.13776 0.64048 0.36185
 C425 C -0.13465 0.61494 0.34607
 C426 C -0.14751 0.61065 0.31800
 C427 C -0.16405 0.63343 0.30534
 C428 C -0.16786 0.66062 0.32031
 C429 C -0.15455 0.66386 0.34951
 O430 O -0.12332 0.63977 0.38823
 C431 C -0.11093 0.61322 0.38895
 C432 C -0.11732 0.59734 0.36357
 C433 C -0.10672 0.56925 0.35914
 C434 C -0.08863 0.55691 0.38140
 C435 C -0.08086 0.57229 0.40810
 C436 C -0.09274 0.60108 0.41191
 H437 H -0.14489 0.59025 0.30607
 H438 H -0.17423 0.62957 0.28372
 H439 H -0.15671 0.68404 0.36190
 H440 H -0.11219 0.55710 0.33901
 H441 H -0.08088 0.53493 0.37779
 H442 H -0.08754 0.61378 0.43174
 C443 C 0.36040 0.13807 0.36110
 C444 C 0.36431 0.11290 0.34487
 C445 C 0.35187 0.10883 0.31655
 C446 C 0.33491 0.13145 0.30414
 C447 C 0.33025 0.15824 0.31960
 C448 C 0.34317 0.16125 0.34901
 O449 O 0.37458 0.13723 0.38763
 C450 C 0.38761 0.11098 0.38800
 C451 C 0.38188 0.09541 0.36225
 C452 C 0.39320 0.06766 0.35745
 C453 C 0.41131 0.05534 0.37972
 C454 C 0.41843 0.07043 0.40681
 C455 C 0.40582 0.09887 0.41096
 H456 H 0.35513 0.08874 0.30425
 H457 H 0.32508 0.12776 0.28231
 H458 H 0.34039 0.18114 0.36178
 H459 H 0.38825 0.05573 0.33704
 H460 H 0.41957 0.03360 0.37581
 H461 H 0.41048 0.11135 0.43108
 C462 C 0.35865 0.64023 -0.13799
 C463 C 0.36139 0.61455 -0.15362
 C464 C 0.34804 0.61010 -0.18142
 C465 C 0.33139 0.63287 -0.19397
 C466 C 0.32793 0.66018 -0.17915
 C467 C 0.34174 0.66358 -0.15022
 O468 O 0.37359 0.63967 -0.11190
 C469 C 0.38592 0.61308 -0.11120
 C470 C 0.37899 0.59702 -0.13631
 C471 C 0.38943 0.56887 -0.14072
 C472 C 0.40790 0.55664 -0.11872
 C473 C 0.41624 0.57221 -0.09231
 C474 C 0.40451 0.60106 -0.08851
 H475 H 0.35039 0.58962 -0.19324
 H476 H 0.32088 0.62894 -0.21542
 H477 H 0.33989 0.68387 -0.13797
 H478 H 0.38354 0.55658 -0.16062
 H479 H 0.41550 0.53461 -0.12230
 H480 H 0.41014 0.61391 -0.06891
 C481 C -0.13979 -0.13957 0.13727
 C482 C -0.15600 -0.11552 0.12997
 C483 C -0.18461 -0.11212 0.13947
 C484 C -0.19744 -0.13425 0.15698
 C485 C -0.18215 -0.16024 0.16531
 C486 C -0.15223 -0.16229 0.15523
 O487 O -0.11283 -0.13822 0.12541
 C488 C -0.11222 -0.11270 0.11046
 C489 C -0.13822 -0.09812 0.11277
 C490 C -0.14285 -0.07120 0.09919
 C491 C -0.12010 -0.05870 0.08226
 C492 C -0.09273 -0.07285 0.07842
 C493 C -0.08879 -0.10043 0.09338
 H494 H -0.19683 -0.09274 0.13372
 H495 H -0.21925 -0.12997 0.16485
 H496 H -0.13912 -0.18122 0.16027
 H497 H -0.16347 -0.06001 0.10157
 H498 H -0.12395 -0.03753 0.07232
 H499 H -0.06845 -0.11216 0.09131
 C500 C -0.14070 0.36192 0.63499
 C501 C -0.11734 0.34494 0.62692
 C502 C -0.11453 0.31616 0.63636
 C503 C -0.13633 0.30423 0.65502
 C504 C -0.16098 0.32071 0.66447
 C505 C -0.16318 0.35021 0.65374
 O506 O -0.13864 0.38899 0.62357
 C507 C -0.11349 0.38892 0.60801
 C508 C -0.09978 0.36237 0.60947
 C509 C -0.07328 0.35713 0.59521
 C510 C -0.06006 0.37998 0.57899
 C511 C -0.07287 0.40817 0.57691
 C512 C -0.10051 0.41239 0.59161
 H513 H -0.09598 0.30317 0.62961
 H514 H -0.13400 0.28175 0.66192
 H515 H -0.18141 0.36375 0.66027
 H516 H -0.06299 0.33596 0.59652
 H517 H -0.03969 0.37538 0.56768
 H518 H -0.11125 0.43335 0.59081
 C519 C 0.35994 -0.13916 0.63566
 C520 C 0.37898 -0.12531 0.65465
 C521 C 0.37839 -0.12948 0.68561
 C522 C 0.35773 -0.14879 0.69785
 C523 C 0.33755 -0.16485 0.67958
 C524 C 0.33886 -0.15911 0.64749
 O525 O 0.36440 -0.13154 0.60671
 C526 C 0.38674 -0.11256 0.60774
 C527 C 0.39636 -0.10824 0.63669
 C528 C 0.41960 -0.08985 0.64341
 C529 C 0.43378 -0.07537 0.61956
 C530 C 0.42492 -0.07885 0.58904
 C531 C 0.40054 -0.09775 0.58321
 H532 H 0.39330 -0.11784 0.70018
 H533 H 0.35745 -0.14995 0.72210
 H534 H 0.32457 -0.17013 0.63188
 H535 H 0.42678 -0.08682 0.66643
 H536 H 0.45174 -0.06104 0.62504
 H537 H 0.39300 -0.10123 0.56038
 C538 C 0.35953 0.36025 0.13412
 C539 C 0.38630 0.36065 0.14790
 C540 C 0.39190 0.34528 0.17430
 C541 C 0.36916 0.32905 0.18744
 C542 C 0.34063 0.32821 0.17480
 C543 C 0.33607 0.34402 0.14713
 O544 O 0.35932 0.37645 0.10883
 C545 C 0.38653 0.38721 0.10681
 C546 C 0.40369 0.37810 0.13033
 C547 C 0.43260 0.38670 0.13330
 C548 C 0.44467 0.40515 0.11122
 C549 C 0.42837 0.41492 0.08579
 C550 C 0.39836 0.40583 0.08402
 H551 H 0.41330 0.34562 0.18451
 H552 H 0.37419 0.31677 0.20758
 H553 H 0.31491 0.34412 0.13641
 H554 H 0.44556 0.37956 0.15229
 H555 H 0.46694 0.41213 0.11444
 H556 H 0.38482 0.41262 0.06534
 C557 C 0.13915 0.13869 0.13607
 C558 C 0.11116 0.14734 0.14242
 C559 C 0.10519 0.17025 0.16211
 C560 C 0.12873 0.18494 0.17582
 C561 C 0.15815 0.17672 0.17046
 C562 C 0.16326 0.15283 0.15021
 O563 O 0.13981 0.11669 0.11608
 C564 C 0.11165 0.11134 0.10989
 C565 C 0.09334 0.12943 0.12570
 C566 C 0.06312 0.12741 0.12334
 C567 C 0.05112 0.10604 0.10412
 C568 C 0.06896 0.08698 0.08687
 C569 C 0.09998 0.09001 0.08981
 H570 H 0.08298 0.17678 0.16671
 H571 H 0.12395 0.20268 0.19112
 H572 H 0.18526 0.14585 0.14528
 H573 H 0.04909 0.14180 0.13609
 H574 H 0.02764 0.10460 0.10237
 H575 H 0.11447 0.07591 0.07728
 C576 C 0.13766 0.64235 0.63492
 C577 C 0.11227 0.63910 0.65092
 C578 C 0.10798 0.65229 0.67882
 C579 C 0.13041 0.66973 0.69083
 C580 C 0.15714 0.67443 0.67523
 C581 C 0.16073 0.65994 0.64667
 O582 O 0.13697 0.62755 0.60874
 C583 C 0.11059 0.61479 0.60840
 C584 C 0.09479 0.62131 0.63380
 C585 C 0.06678 0.61061 0.63845
 C586 C 0.05443 0.59228 0.61641
 C587 C 0.06976 0.58427 0.58974
 C588 C 0.09847 0.59627 0.58570
 H589 H 0.08788 0.64915 0.69116
 H590 H 0.12686 0.67930 0.71280
 H591 H 0.18058 0.66263 0.63382
 H592 H 0.05465 0.61627 0.65853
 H593 H 0.03245 0.58459 0.62017
 H594 H 0.11114 0.59098 0.56588
 C595 C 0.63938 0.13872 0.63459
 C596 C 0.61133 0.14699 0.64121
 C597 C 0.60520 0.16944 0.66141
 C598 C 0.62864 0.18410 0.67533
 C599 C 0.65812 0.17630 0.66967
 C600 C 0.66340 0.15285 0.64892
 O601 O 0.64017 0.11711 0.61416
 C602 C 0.61204 0.11162 0.60795
 C603 C 0.59362 0.12924 0.62419
 C604 C 0.56341 0.12700 0.62190
 C605 C 0.55153 0.10586 0.60232
 C606 C 0.56948 0.08727 0.58466
 C607 C 0.60048 0.09052 0.58752
 H608 H 0.58295 0.17566 0.66622
 H609 H 0.62373 0.20150 0.69099
 H610 H 0.68545 0.14620 0.64374
 H611 H 0.54930 0.14102 0.63499
 H612 H 0.52806 0.10420 0.60067
 H613 H 0.61505 0.07675 0.57471
 C614 C 0.63546 0.64114 0.13589
 C615 C 0.63025 0.61652 0.15261
 C616 C 0.64180 0.61264 0.18132
 C617 C 0.65971 0.63463 0.19342
 C618 C 0.66661 0.66046 0.17708
 C619 C 0.65367 0.66374 0.14769
 O620 O 0.62190 0.64015 0.10901
 C621 C 0.60796 0.61436 0.10894
 C622 C 0.61257 0.59922 0.13519
 C623 C 0.60065 0.57179 0.14021
 C624 C 0.58303 0.55933 0.11763
 C625 C 0.57676 0.57405 0.09008
 C626 C 0.59003 0.60220 0.08574
 H627 H 0.63707 0.59319 0.19421
 H628 H 0.66797 0.63143 0.21602
 H629 H 0.65803 0.68291 0.13425
 H630 H 0.60494 0.56011 0.16093
 H631 H 0.57463 0.53769 0.12173
 H632 H 0.58621 0.61440 0.06526
   
