data_POSCAR
  _audit_creation_date              2014-09-24
  _audit_creation_method            'ToBaCCo'
  _symmetry_space_group_name_H-M    'P1'
  _symmetry_Int_Tables_number       1
  _symmetry_cell_setting            triclinic
  loop_
  _symmetry_equiv_pos_as_xyz
 x,y,z
_cell_length_a 33.4063
_cell_length_b 34.5857
_cell_length_c 32.0776
_cell_angle_alpha 90.908000
_cell_angle_beta 90.160900
_cell_angle_gamma 91.228300
loop_
  _atom_site_label
  _atom_site_type_symbol
  _atom_site_fract_x
  _atom_site_fract_y
  _atom_site_fract_z
C1 C 0.19471 0.54565 1.07267
 H2 H 0.19477 0.56913 1.05078
 C3 C 0.16506 0.54337 1.10313
 H4 H 0.14258 0.56546 1.10457
 C5 C 0.22208 0.48673 1.09488
 H6 H 0.24374 0.46425 1.09097
 C7 C 0.19256 0.48294 1.12525
 H8 H 0.19254 0.45801 1.14528
 N9 N 0.22201 0.51723 1.06868
 C10 C 0.31975 0.56029 0.99128
 H11 H 0.32211 0.53581 0.97008
 C12 C 0.34761 0.59084 0.98945
 H13 H 0.37170 0.58970 0.96696
 C14 C 0.28626 0.59103 1.04737
 H15 H 0.26276 0.59076 1.07037
 C16 C 0.31315 0.62254 1.04614
 H17 H 0.31006 0.64645 1.06803
 Zn18 Zn 0.25497 0.51687 1.02106
 N19 N 0.29000 0.56073 1.02012
 C20 C 0.22536 0.54203 0.94283
 N21 N 0.22024 0.51670 0.97450
 C22 C 0.18910 0.49070 0.97457
 C23 C 0.16219 0.48868 0.94127
 C24 C 0.19919 0.54087 0.90876
 C25 C 0.31602 0.46814 1.04831
 C26 C 0.34064 0.43594 1.04730
 C27 C 0.30259 0.41067 0.98840
 C28 C 0.27893 0.44344 0.99027
 N29 N 0.28605 0.47145 1.01983
 H30 H 0.24982 0.56297 0.94377
 H31 H 0.18537 0.47136 1.00052
 H32 H 0.13761 0.46774 0.94152
 H33 H 0.20374 0.56075 0.88338
 H34 H 0.32116 0.49088 1.07137
 H35 H 0.36505 0.43403 1.06942
 H36 H 0.29710 0.38888 0.96431
 H37 H 0.25533 0.44663 0.96763
 C38 C 0.34478 0.62214 1.01752
 C39 C 0.16239 0.51056 1.12839
 C40 C 0.33434 0.40714 1.01662
 C41 C 0.16760 0.51353 0.90759
 C42 C 0.81640 0.51289 -0.05743
 H43 H 0.81026 0.53726 -0.03705
 C44 C 0.84650 0.51600 -0.08725
 H45 H 0.86328 0.54296 -0.09021
 C46 C 0.80278 0.44770 -0.07766
 H47 H 0.78686 0.42069 -0.07276
 C48 C 0.83280 0.44951 -0.10786
 H49 H 0.83918 0.42417 -0.12676
 N50 N 0.79445 0.47951 -0.05395
 C51 C 0.69363 0.52767 0.01383
 H52 H 0.69280 0.50860 0.04024
 C53 C 0.66771 0.55871 0.01219
 H54 H 0.64667 0.56351 0.03728
 C55 C 0.72186 0.54466 -0.05130
 H56 H 0.74252 0.53873 -0.07631
 C57 C 0.69640 0.57603 -0.05422
 H58 H 0.69779 0.59439 -0.08124
 Zn59 Zn 0.75528 0.47952 -0.01140
 N60 N 0.72044 0.52158 -0.01730
 C61 C 0.78479 0.51791 0.06211
 N62 N 0.78432 0.48468 0.03876
 C63 C 0.80871 0.45497 0.04770
 C64 C 0.83577 0.45835 0.08070
 C65 C 0.81149 0.52250 0.09554
 C66 C 0.70945 0.41792 -0.04778
 C67 C 0.68368 0.38560 -0.04775
 C68 C 0.68502 0.38742 0.02750
 C69 C 0.71213 0.41867 0.02601
 N70 N 0.72366 0.43337 -0.01127
 H71 H 0.76596 0.54158 0.05370
 H72 H 0.80810 0.42922 0.02811
 H73 H 0.85603 0.43505 0.08678
 H74 H 0.81287 0.54949 0.11312
 H75 H 0.71742 0.43119 -0.07698
 H76 H 0.67273 0.37375 -0.07719
 H77 H 0.67422 0.37788 0.05750
 H78 H 0.72247 0.43241 0.05469
 C79 C 0.66903 0.58318 -0.02216
 C80 C 0.85443 0.48424 -0.11328
 C81 C 0.67056 0.37021 -0.00972
 C82 C 0.83787 0.49277 0.10426
 C83 C -0.05748 0.29003 0.45114
 H84 H -0.08587 0.27977 0.46331
 C85 C -0.05646 0.31960 0.42201
 H86 H -0.08442 0.33167 0.41181
 C87 C 0.01345 0.28887 0.45258
 H88 H 0.04060 0.27756 0.46562
 C89 C 0.01585 0.31834 0.42362
 H90 H 0.04507 0.32820 0.41311
 N91 N -0.02278 0.27611 0.46648
 C92 C -0.09690 0.21676 0.54777
 H93 H -0.09059 0.23624 0.57369
 C94 C -0.13122 0.19294 0.54856
 H95 H -0.15078 0.19373 0.57541
 C96 C -0.07922 0.19138 0.48146
 H97 H -0.05913 0.19110 0.45520
 C98 C -0.11308 0.16714 0.48097
 H99 H -0.11807 0.14737 0.45485
 Zn100 Zn -0.02339 0.24538 0.51424
 N101 N -0.07123 0.21493 0.51492
 C102 C -0.01829 0.26608 0.60124
 N103 N -0.02015 0.27930 0.56146
 C104 C -0.01703 0.31777 0.55354
 C105 C -0.00923 0.34425 0.58562
 C106 C -0.01032 0.29183 0.63454
 C107 C 0.02937 0.19309 0.47631
 C108 C 0.06391 0.17135 0.47218
 C109 C 0.08413 0.19270 0.54127
 C110 C 0.04947 0.21436 0.54393
 N111 N 0.02253 0.21380 0.51196
 H112 H -0.02123 0.23539 0.60689
 H113 H -0.01922 0.32816 0.52213
 H114 H -0.00549 0.37466 0.57859
 H115 H -0.00718 0.28110 0.66588
 H116 H 0.00858 0.19419 0.45058
 H117 H 0.06898 0.15478 0.44382
 H118 H 0.10508 0.19291 0.56711
 H119 H 0.04458 0.23182 0.57146
 C120 C -0.13939 0.16755 0.51495
 C121 C -0.01933 0.33569 0.40962
 C122 C 0.09153 0.17107 0.50502
 C123 C -0.00452 0.33118 0.62632
 C124 C 0.98049 0.70227 0.54145
 H125 H 0.95369 0.70833 0.52393
 C126 C 0.97923 0.67415 0.57215
 H127 H 0.95135 0.65891 0.57870
 C128 C 1.05004 0.71257 0.55244
 H129 H 1.07813 0.72548 0.54278
 C130 C 1.05012 0.68483 0.58354
 H131 H 1.07795 0.67765 0.59870
 N132 N 1.01515 0.72220 0.53352
 C133 C 0.96288 0.81917 0.46703
 H134 H 0.98317 0.82096 0.44091
 C135 C 0.93035 0.84378 0.46930
 H136 H 0.92571 0.86463 0.44501
 C137 C 0.94470 0.79091 0.53126
 H138 H 0.95109 0.77146 0.55625
 C139 C 0.91164 0.81485 0.53463
 H140 H 0.89248 0.81321 0.56175
 Zn141 Zn 1.01390 0.75998 0.49091
 N142 N 0.96901 0.79273 0.49726
 C143 C 0.97911 0.73412 0.41327
 N144 N 1.01033 0.73121 0.44036
 C145 C 1.03794 0.70321 0.43551
 C146 C 1.03314 0.67493 0.40433
 C147 C 0.97387 0.70702 0.38082
 C148 C 1.07907 0.80118 0.52866
 C149 C 1.11081 0.82795 0.53041
 C150 C 1.10139 0.83962 0.45711
 C151 C 1.07157 0.81057 0.45613
 N152 N 1.06051 0.79246 0.49178
 H153 H 0.95703 0.75607 0.41788
 H154 H 1.06230 0.70142 0.45762
 H155 H 1.05400 0.65141 0.40248
 H156 H 0.94830 0.70887 0.36016
 H157 H 1.06834 0.78864 0.55724
 H158 H 1.12557 0.83397 0.55998
 H159 H 1.10821 0.85535 0.42900
 H160 H 1.05584 0.80382 0.42732
 C161 C 0.90413 0.84130 0.50314
 C162 C 1.01423 0.66591 0.59409
 C163 C 1.12053 0.84944 0.49499
 C164 C 0.99987 0.67581 0.37765
 C165 C 0.45910 -0.01243 0.31496
 H166 H 0.48825 -0.01450 0.32908
 C167 C 0.42581 -0.00992 0.34082
 H168 H 0.42975 -0.01030 0.37435
 C169 C 0.41831 -0.00626 0.25502
 H170 H 0.41564 -0.00301 0.22171
 C171 C 0.38408 -0.00331 0.27993
 H172 H 0.35528 0.00171 0.26566
 N173 N 0.45514 -0.01003 0.27281
 C174 C 0.54239 -0.06754 0.19806
 H175 H 0.56758 -0.05816 0.21706
 C176 C 0.54743 -0.09735 0.16889
 H177 H 0.57595 -0.11163 0.16759
 C178 C 0.47503 -0.06064 0.17711
 H179 H 0.44705 -0.04586 0.17975
 C180 C 0.47878 -0.09038 0.14738
 H181 H 0.45340 -0.09769 0.12748
 Zn182 Zn 0.50296 -0.00700 0.23995
 N183 N 0.50662 -0.04973 0.20179
 C184 C 0.55524 -0.04003 0.29759
 N185 N 0.54796 -0.00696 0.27666
 C186 C 0.57074 0.02566 0.28340
 C187 C 0.60189 0.02590 0.31271
 C188 C 0.58614 -0.04111 0.32685
 C189 C 0.53119 0.04303 0.17781
 C190 C 0.53173 0.07561 0.15249
 C191 C 0.47570 0.10025 0.19135
 C192 C 0.47631 0.06731 0.21604
 N193 N 0.50353 0.03929 0.20863
 H194 H 0.53641 -0.06544 0.29205
 H195 H 0.56413 0.05177 0.26686
 H196 H 0.61921 0.05225 0.31866
 H197 H 0.59124 -0.06751 0.34361
 H198 H 0.55251 0.02038 0.17252
 H199 H 0.55361 0.07802 0.12777
 H200 H 0.45334 0.12192 0.19702
 H201 H 0.45489 0.06414 0.24096
 C202 C 0.51583 -0.10850 0.14190
 C203 C 0.38802 -0.00427 0.32336
 C204 C 0.50374 0.10472 0.15921
 C205 C 0.60981 -0.00786 0.33474
 C206 C 0.53272 -0.02982 0.69287
 H207 H 0.50713 -0.04881 0.68744
 C208 C 0.56539 -0.03178 0.66600
 H209 H 0.56520 -0.05316 0.64095
 C210 C 0.56286 0.02308 0.72974
 H211 H 0.56143 0.04517 0.75377
 C212 C 0.59598 0.02246 0.70312
 H213 H 0.61980 0.04395 0.70707
 N214 N 0.53225 -0.00326 0.72463
 C215 C 0.47734 -0.04469 0.83271
 H216 H 0.47365 -0.01661 0.84715
 C217 C 0.47994 -0.07710 0.85788
 H218 H 0.47913 -0.07367 0.89149
 C219 C 0.48410 -0.08370 0.77189
 H220 H 0.48579 -0.08637 0.73845
 C221 C 0.48683 -0.11690 0.79594
 H222 H 0.49146 -0.14471 0.78092
 Zn223 Zn 0.48512 -0.00225 0.75818
 N224 N 0.48097 -0.04820 0.79053
 C225 C 0.41112 -0.02573 0.71900
 N226 N 0.44176 0.00086 0.72055
 C227 C 0.44453 0.02986 0.69253
 C228 C 0.41633 0.03251 0.66071
 C229 C 0.38217 -0.02419 0.68743
 C230 C 0.51662 0.04600 0.82309
 C231 C 0.51793 0.07753 0.85088
 C232 C 0.45684 0.10016 0.82014
 C233 C 0.45661 0.06815 0.79299
 N234 N 0.48638 0.04194 0.79467
 H235 H 0.40966 -0.04861 0.74155
 H236 H 0.46937 0.05042 0.69440
 H237 H 0.41927 0.05536 0.63814
 H238 H 0.35836 -0.04592 0.68568
 H239 H 0.53955 0.02442 0.82443
 H240 H 0.54195 0.08026 0.87355
 H241 H 0.43299 0.12082 0.81848
 H242 H 0.43237 0.06412 0.77089
 C243 C 0.48584 -0.11345 0.83942
 C244 C 0.59773 -0.00568 0.67120
 C245 C 0.48797 0.10524 0.84923
 C246 C 0.38530 0.00472 0.65737
 C247 C 0.21769 0.05856 0.48902
 C248 C 0.24977 0.05709 0.52336
 C249 C 0.27358 0.02560 0.52146
 C250 C 0.26318 -0.00219 0.48494
 C251 C 0.24036 0.05434 0.44762
 C252 C 0.26522 0.02357 0.44604
 C253 C 0.19511 0.01963 0.49108
 C254 C 0.21850 -0.01188 0.49082
 H255 H 0.25261 0.07891 0.54785
 H256 H 0.28211 -0.02818 0.48325
 H257 H 0.23723 0.07342 0.42149
 H258 H 0.16275 0.01689 0.49214
 C259 C 0.77941 -0.04240 0.50938
 C260 C 0.75006 -0.04341 0.54609
 C261 C 0.72266 -0.01477 0.54629
 C262 C 0.72584 0.01187 0.50848
 C263 C 0.75298 -0.04303 0.47016
 C264 C 0.72480 -0.01522 0.46976
 C265 C 0.79682 -0.00070 0.51007
 C266 C 0.76910 0.02745 0.51026
 H267 H 0.75122 -0.06502 0.57012
 H268 H 0.70319 0.03490 0.50810
 H269 H 0.75686 -0.06319 0.44437
 H270 H 0.82820 0.00706 0.50787
 C271 C 0.45147 0.28320 1.01001
 C272 C 0.45083 0.25540 0.97212
 C273 C 0.48287 0.23189 0.96952
 C274 C 0.51251 0.23704 1.00595
 C275 C 0.45450 0.25550 1.04726
 C276 C 0.48649 0.23153 1.04502
 C277 C 0.49246 0.30372 1.00983
 C278 C 0.52429 0.28025 1.00690
 H279 H 0.42609 0.25342 0.95022
 H280 H 0.53824 0.21730 1.00381
 H281 H 0.43277 0.25263 1.07190
 H282 H 0.49590 0.33496 1.01104
 C283 C 0.55538 0.70946 -0.01483
 C284 C 0.54967 0.73445 -0.05353
 C285 C 0.52011 0.76077 -0.05001
 C286 C 0.49754 0.75907 -0.00846
 C287 C 0.56068 0.73942 0.02153
 C288 C 0.53081 0.76574 0.02408
 C289 C 0.51433 0.69128 -0.00607
 C290 C 0.48420 0.71667 -0.00312
 H291 H 0.56915 0.73288 -0.08043
 H292 H 0.47274 0.77985 -0.00588
 H293 H 0.58459 0.74004 0.04419
 H294 H 0.50972 0.66061 -0.00087
 C295 C 0.98859 0.46231 0.29299
 C296 C 0.95711 0.46179 0.25741
 C297 C 0.96080 0.49181 0.23049
 C298 C 0.99554 0.52004 0.24144
 C299 C 1.02877 0.46461 0.27028
 C300 C 1.03237 0.49408 0.24305
 C301 C 0.98339 0.50218 0.31328
 C302 C 0.98732 0.53228 0.28683
 H303 H 0.93218 0.44165 0.25437
 H304 H 0.99854 0.54483 0.22000
 H305 H 1.05133 0.44275 0.27323
 H306 H 0.97725 0.50623 0.34620
 C307 C 0.01807 0.53915 0.71272
 C308 C -0.01893 0.53602 0.74074
 C309 C -0.01839 0.50617 0.76771
 C310 C 0.01922 0.48186 0.76509
 C311 C 0.05415 0.54030 0.74266
 C312 C 0.05447 0.51089 0.77047
 C313 C 0.02097 0.49875 0.69202
 C314 C 0.02114 0.46913 0.71927
 H315 H -0.04377 0.55557 0.73893
 H316 H 0.01931 0.45759 0.78738
 H317 H 0.07729 0.56271 0.74214
 H318 H 0.02474 0.49311 0.65910
 C319 C 0.15820 0.08782 0.52462
 C320 C 0.12717 0.11370 0.52742
 C321 C 0.12687 0.14633 0.50254
 C322 C 0.16058 0.15519 0.47758
 C323 C 0.19314 0.12934 0.47588
 C324 C 0.18968 0.09286 0.49581
 C325 C 0.22848 0.14228 0.45640
 N326 N 0.22956 0.17659 0.43649
 N327 N 0.19799 0.19941 0.43560
 C328 C 0.16358 0.18998 0.45565
 H329 H 0.15666 0.06274 0.54436
 H330 H 0.10255 0.10761 0.54843
 H331 H 0.25582 0.12656 0.45848
 H332 H 0.13931 0.21019 0.45519
 C333 C 0.62143 0.67784 0.00423
 C334 C 0.64775 0.64723 0.00291
 C335 C 0.64142 0.61593 -0.02442
 C336 C 0.60858 0.61596 -0.05226
 C337 C 0.58152 0.64718 -0.05129
 C338 C 0.58699 0.67811 -0.02127
 C339 C 0.54946 0.64569 -0.08017
 N340 N 0.54480 0.61519 -0.10692
 N341 N 0.56981 0.58580 -0.10704
 C342 C 0.60140 0.58507 -0.08058
 H343 H 0.62864 0.70087 0.02607
 H344 H 0.67325 0.64776 0.02390
 H345 H 0.52779 0.66817 -0.08215
 H346 H 0.62049 0.56025 -0.08194
 C347 C 0.85025 -0.06629 0.52224
 C348 C 0.87987 -0.09372 0.51937
 C349 C 0.87068 -0.13161 0.50692
 C350 C 0.83032 -0.14273 0.49934
 C351 C 0.79972 -0.11477 0.50240
 C352 C 0.81010 -0.07509 0.51109
 C353 C 0.75977 -0.12794 0.49712
 N354 N 0.75157 -0.16563 0.48755
 N355 N 0.78044 -0.19129 0.48320
 C356 C 0.81950 -0.18115 0.48875
 H357 H 0.85971 -0.03820 0.53394
 H358 H 0.91046 -0.08526 0.52710
 H359 H 0.73475 -0.10908 0.50115
 H360 H 0.84170 -0.20325 0.48515
 C361 C 0.39118 0.31738 1.04187
 C362 C 0.36408 0.34745 1.04365
 C363 C 0.36262 0.37486 1.01222
 C364 C 0.38874 0.37174 0.97777
 C365 C 0.41629 0.34096 0.97541
 C366 C 0.41826 0.31349 1.00851
 C367 C 0.44180 0.33972 0.94027
 N368 N 0.43989 0.36711 0.91065
 N369 N 0.41448 0.39606 0.91345
 C370 C 0.38908 0.39944 0.94600
 H371 H 0.39096 0.29790 1.06771
 H372 H 0.34422 0.34961 1.07020
 H373 H 0.46373 0.31776 0.93569
 H374 H 0.36972 0.42406 0.94680
 C375 C 0.80598 0.07827 0.54953
 C376 C 0.82872 0.11238 0.55069
 C377 C 0.82800 0.13790 0.51727
 C378 C 0.80025 0.13090 0.48434
 C379 C 0.77706 0.09601 0.48309
 C380 C 0.78180 0.06858 0.51496
 C381 C 0.75108 0.08940 0.44913
 N382 N 0.74803 0.11626 0.41901
 N383 N 0.76936 0.14923 0.42049
 C384 C 0.79533 0.15748 0.45212
 H385 H 0.80962 0.05781 0.57444
 H386 H 0.84948 0.11728 0.57635
 H387 H 0.73272 0.06356 0.44651
 H388 H 0.81157 0.18488 0.45206
 C389 C 0.41523 0.69864 -0.02389
 C390 C 0.38189 0.67414 -0.01920
 C391 C 0.37612 0.65317 0.01750
 C392 C 0.40313 0.65924 0.05134
 C393 C 0.43660 0.68468 0.04668
 C394 C 0.44362 0.70285 0.00805
 C395 C 0.46329 0.68983 0.08041
 N396 N 0.45709 0.67021 0.11613
 N397 N 0.42625 0.64557 0.12021
 C398 C 0.39929 0.63917 0.08904
 H399 H 0.42056 0.71189 -0.05381
 H400 H 0.36158 0.66977 -0.04534
 H401 H 0.48897 0.70931 0.07866
 H402 H 0.37546 0.61825 0.09413
 C403 C 0.20440 -0.07983 0.46813
 C404 C 0.17917 -0.11258 0.46839
 C405 C 0.14846 -0.11642 0.49807
 C406 C 0.14472 -0.08722 0.52954
 C407 C 0.17268 -0.05591 0.53125
 C408 C 0.20054 -0.05067 0.49844
 C409 C 0.17092 -0.02962 0.56516
 N410 N 0.14079 -0.03251 0.59316
 N411 N 0.11234 -0.05985 0.58947
 C412 C 0.11294 -0.08692 0.55845
 H413 H 0.22556 -0.07631 0.44289
 H414 H 0.18270 -0.13448 0.44425
 H415 H 0.19316 -0.00669 0.56947
 H416 H 0.08808 -0.10726 0.55649
 C417 C 0.56889 0.32534 0.96968
 C418 C 0.60390 0.34716 0.96558
 C419 C 0.63718 0.34082 0.99108
 C420 C 0.63547 0.30959 1.01940
 C421 C 0.59889 0.28842 1.02501
 C422 C 0.56507 0.29700 1.00029
 C423 C 0.59737 0.26033 1.05619
 N424 N 0.63086 0.25219 1.07807
 N425 N 0.66563 0.27046 1.07115
 C426 C 0.66911 0.29877 1.04253
 H427 H 0.54369 0.33200 0.94988
 H428 H 0.60404 0.37062 0.94362
 H429 H 0.57006 0.24482 1.06358
 H430 H 0.69820 0.31227 1.03786
 C431 C 0.49246 0.16222 1.06098
 C432 C 0.49669 0.13172 1.08844
 C433 C 0.50236 0.13863 1.13128
 C434 C 0.50547 0.17741 1.14633
 C435 C 0.50082 0.20848 1.11836
 C436 C 0.49343 0.20062 1.07550
 C437 C 0.50485 0.24654 1.13417
 N438 N 0.51287 0.25288 1.17519
 N439 N 0.51742 0.22380 1.20137
 C440 C 0.51419 0.18636 1.18836
 H441 H 0.48729 0.15575 1.02822
 H442 H 0.49453 0.10235 1.07625
 H443 H 0.50234 0.27130 1.11426
 H444 H 0.51913 0.16405 1.21089
 C445 C 0.00681 0.56748 0.64075
 C446 C 0.00638 0.59760 0.61273
 C447 C 0.01386 0.63559 0.62598
 C448 C 0.01970 0.64381 0.66891
 C449 C 0.01946 0.61313 0.69799
 C450 C 0.01558 0.57387 0.68342
 C451 C 0.02210 0.62326 0.74071
 N452 N 0.02645 0.66084 0.75285
 N453 N 0.02781 0.68927 0.72540
 C454 C 0.02443 0.68207 0.68391
 H455 H -0.00080 0.53928 0.62806
 H456 H 0.00032 0.59111 0.58012
 H457 H 0.01988 0.60207 0.76490
 H458 H 0.02483 0.70639 0.66313
 C459 C 0.47482 0.79739 -0.09514
 C460 C 0.46621 0.82759 -0.12185
 C461 C 0.49637 0.85353 -0.13433
 C462 C 0.53608 0.84881 -0.12011
 C463 C 0.54495 0.81828 -0.09274
 C464 C 0.51385 0.79211 -0.08035
 C465 C 0.58454 0.81605 -0.07783
 N466 N 0.61303 0.84176 -0.09045
 N467 N 0.60476 0.86983 -0.11678
 C468 C 0.56732 0.87426 -0.13202
 H469 H 0.45069 0.77805 -0.08569
 H470 H 0.43568 0.83112 -0.13238
 H471 H 0.59344 0.79447 -0.05615
 H472 H 0.56234 0.89773 -0.15318
 C473 C 0.95999 0.39830 0.32000
 C474 C 0.95737 0.36880 0.34872
 C475 C 0.98250 0.36834 0.38368
 C476 C 1.00966 0.40013 0.39070
 C477 C 1.01346 0.42975 0.36055
 C478 C 0.98745 0.42952 0.32492
 C479 C 1.04296 0.45905 0.36780
 N480 N 1.06421 0.46027 0.40382
 N481 N 1.05818 0.43436 0.43339
 C482 C 1.03140 0.40474 0.42833
 H483 H 0.94051 0.39517 0.29340
 H484 H 0.93659 0.34496 0.34218
 H485 H 1.04951 0.48139 0.34571
 H486 H 1.02680 0.38570 0.45432
 C487 C 0.49471 0.80283 0.07784
 C488 C 0.49025 0.83397 0.10532
 C489 C 0.52081 0.86224 0.11090
 C490 C 0.55581 0.85959 0.08557
 C491 C 0.56081 0.82702 0.05850
 C492 C 0.52986 0.79832 0.05483
 C493 C 0.59589 0.82547 0.03433
 N494 N 0.62303 0.85511 0.03568
 N495 N 0.61734 0.88653 0.05914
 C496 C 0.58458 0.89002 0.08357
 H497 H 0.47042 0.78168 0.07486
 H498 H 0.46310 0.83490 0.12367
 H499 H 0.60205 0.80142 0.01391
 H500 H 0.58087 0.91718 0.09999
 C501 C -0.01318 0.40569 0.71128
 C502 C -0.01971 0.37148 0.68841
 C503 C 0.00832 0.35940 0.65885
 C504 C 0.04537 0.37974 0.65543
 C505 C 0.05170 0.41473 0.67801
 C506 C 0.02121 0.42859 0.70451
 C507 C 0.08811 0.43522 0.67251
 N508 N 0.11629 0.42099 0.64644
 N509 N 0.11043 0.38785 0.62539
 C510 C 0.07593 0.36678 0.62892
 H511 H -0.03667 0.41603 0.73156
 H512 H -0.04816 0.35613 0.69129
 H513 H 0.09458 0.46217 0.68899
 H514 H 0.07281 0.33993 0.61130
 C515 C 0.45485 0.17268 0.93527
 C516 C 0.45607 0.14223 0.90639
 C517 C 0.48826 0.13871 0.87878
 C518 C 0.51954 0.16712 0.87987
 C519 C 0.51828 0.19817 0.90936
 C520 C 0.48575 0.20068 0.93750
 C521 C 0.54914 0.22641 0.90868
 N522 N 0.57932 0.22346 0.88072
 N523 N 0.58052 0.19438 0.85310
 C524 C 0.55162 0.16626 0.85155
 H525 H 0.42974 0.17414 0.95652
 H526 H 0.43184 0.12088 0.90590
 H527 H 0.54926 0.25110 0.92954
 H528 H 0.55378 0.14389 0.82782
 C529 C 1.01789 0.59736 0.29770
 C530 C 1.02120 0.63183 0.32064
 C531 C 0.99136 0.64251 0.34899
 C532 C 0.95608 0.61899 0.35210
 C533 C 0.95221 0.58472 0.32743
 C534 C 0.98449 0.57273 0.30212
 C535 C 0.91634 0.56278 0.32966
 N536 N 0.88724 0.57344 0.35657
 N537 N 0.89167 0.60444 0.38139
 C538 C 0.92509 0.62735 0.38036
 H539 H 1.04283 0.58869 0.27860
 H540 H 1.04829 0.64938 0.31787
 H541 H 0.91115 0.53736 0.31014
 H542 H 0.92698 0.65153 0.40196
 C543 C 1.08717 0.53141 0.20993
 C544 C 1.11824 0.53577 0.18151
 C545 C 1.12942 0.50501 0.15518
 C546 C 1.10626 0.46987 0.15563
 C547 C 1.07432 0.46565 0.18448
 C548 C 1.06564 0.49649 0.21268
 C549 C 1.05032 0.43159 0.18214
 N550 N 1.05804 0.40379 0.15326
 N551 N 1.08754 0.40791 0.12588
 C552 C 1.11145 0.44003 0.12566
 H553 H 1.08023 0.55550 0.23032
 H554 H 1.13476 0.56308 0.18133
 H555 H 1.02458 0.42710 0.20180
 H556 H 1.13317 0.44227 0.10095
 C557 C 0.65284 -0.00439 0.56892
 C558 C 0.62281 -0.00295 0.59883
 C559 C 0.63164 -0.00644 0.64131
 C560 C 0.67212 -0.01038 0.65382
 C561 C 0.70294 -0.01060 0.62331
 C562 C 0.69286 -0.00947 0.58023
 C563 C 0.74293 -0.01110 0.63723
 N564 N 0.75113 -0.01411 0.67844
 N565 N 0.72214 -0.01632 0.70674
 C566 C 0.68298 -0.01469 0.69587
 H567 H 0.64444 -0.00220 0.53656
 H568 H 0.59218 0.00068 0.58863
 H569 H 0.76781 -0.00847 0.61596
 H570 H 0.66085 -0.01688 0.72024
 C571 C -0.04377 0.49971 0.83927
 C572 C -0.07455 0.49485 0.86799
 C573 C -0.11401 0.48744 0.85465
 C574 C -0.12249 0.48431 0.81138
 C575 C -0.09102 0.48882 0.78217
 C576 C -0.05163 0.49759 0.79645
 C577 C -0.10008 0.48409 0.73949
 N578 N -0.13839 0.47687 0.72711
 N579 N -0.16816 0.47398 0.75446
 C580 C -0.16159 0.47758 0.79609
 H581 H -0.01370 0.50616 0.85054
 H582 H -0.06763 0.49724 0.90096
 H583 H -0.07712 0.48575 0.71587
 H584 H -0.18702 0.47526 0.81670
 C585 C 0.29527 -0.01579 0.38922
 C586 C 0.32441 -0.02234 0.35889
 C587 C 0.35433 0.00561 0.35114
 C588 C 0.35435 0.04120 0.37356
 C589 C 0.32557 0.04743 0.40517
 C590 C 0.29538 0.01878 0.41260
 C591 C 0.32944 0.08144 0.42976
 N592 N 0.35829 0.10827 0.42114
 N593 N 0.38396 0.10325 0.38998
 C594 C 0.38306 0.07065 0.36598
 H595 H 0.27280 -0.03810 0.39493
 H596 H 0.32434 -0.04982 0.34220
 H597 H 0.31067 0.08659 0.45645
 H598 H 0.40483 0.06805 0.34126
 C599 C 0.08953 0.54254 0.83009
 C600 C 0.11683 0.54341 0.86295
 C601 C 0.13996 0.51122 0.87146
 C602 C 0.13610 0.47766 0.84568
 C603 C 0.10808 0.47666 0.81227
 C604 C 0.08442 0.50945 0.80463
 C605 C 0.10580 0.44316 0.78691
 N606 N 0.12972 0.41290 0.79462
 N607 N 0.15608 0.41394 0.82581
 C608 C 0.16024 0.44529 0.85145
 H609 H 0.07177 0.56788 0.82481
 H610 H 0.11956 0.56931 0.88230
 H611 H 0.08572 0.44075 0.76079
 H612 H 0.18277 0.44473 0.87565
 C613 C 0.65615 -0.01841 0.44102
 C614 C 0.62860 -0.01687 0.40850
 C615 C 0.64089 -0.00813 0.36792
 C616 C 0.68213 -0.00084 0.36012
 C617 C 0.71018 -0.00200 0.39345
 C618 C 0.69689 -0.01103 0.43423
 C619 C 0.75073 0.00608 0.38476
 N620 N 0.76234 0.01377 0.34523
 N621 N 0.73620 0.01385 0.31382
 C622 C 0.69659 0.00669 0.31985
 H623 H 0.64562 -0.02662 0.47149
 H624 H 0.59728 -0.02287 0.41500
 H625 H 0.77329 0.00670 0.40900
 H626 H 0.67694 0.00668 0.29304
 C627 C 0.89023 0.49668 0.20794
 C628 C 0.86026 0.49698 0.17771
 C629 C 0.87005 0.49840 0.13546
 C630 C 0.91066 0.50191 0.12343
 C631 C 0.94129 0.50127 0.15410
 C632 C 0.93090 0.49768 0.19684
 C633 C 0.98117 0.50296 0.14044
 N634 N 0.98967 0.50619 0.09933
 N635 N 0.96087 0.50763 0.07070
 C636 C 0.92168 0.50561 0.08131
 H637 H 0.88158 0.49446 0.24036
 H638 H 0.82923 0.49455 0.18725
 H639 H 1.00567 0.50182 0.16177
 H640 H 0.89953 0.50709 0.05676
 C641 C 0.29057 0.01950 0.59635
 C642 C 0.31705 0.01378 0.62923
 C643 C 0.35722 0.00567 0.62160
 C644 C 0.37059 0.00166 0.57991
 C645 C 0.34388 0.00822 0.54636
 C646 C 0.30338 0.01745 0.55470
 C647 C 0.35926 0.00639 0.50568
 N648 N 0.39790 -0.00313 0.49904
 N649 N 0.42246 -0.01073 0.53044
 C650 C 0.41015 -0.00870 0.57060
 H651 H 0.25976 0.02605 0.60355
 H652 H 0.30636 0.01680 0.66095
 H653 H 0.34124 0.01269 0.47916
 H654 H 0.43136 -0.01543 0.59482
   
