data_POSCAR
  _audit_creation_date              2014-09-24
  _audit_creation_method            'ToBaCCo'
  _symmetry_space_group_name_H-M    'P1'
  _symmetry_Int_Tables_number       1
  _symmetry_cell_setting            triclinic
  loop_
  _symmetry_equiv_pos_as_xyz
 x,y,z
_cell_length_a 83.0407
_cell_length_b 83.0635
_cell_length_c 24.3431
_cell_angle_alpha 89.974300
_cell_angle_beta 90.058700
_cell_angle_gamma 120.012700
loop_
  _atom_site_label
  _atom_site_type_symbol
  _atom_site_fract_x
  _atom_site_fract_y
  _atom_site_fract_z
C1 C 0.24825 0.49761 0.52411
 C2 C 0.24802 0.49754 0.46808
 C3 C 0.23224 0.49664 0.43665
 C4 C 0.26355 0.49840 0.43551
 C5 C 0.26283 0.49621 0.55573
 C6 C 0.23387 0.49905 0.55651
 C7 C 0.21390 0.48230 0.44602
 C8 C 0.19910 0.48192 0.41739
 C9 C 0.20251 0.49576 0.37862
 C10 C 0.22082 0.50984 0.36822
 C11 C 0.23560 0.51023 0.39692
 C12 C 0.25986 0.48485 0.39536
 C13 C 0.27441 0.48525 0.36545
 C14 C 0.29277 0.49928 0.37506
 C15 C 0.29651 0.51308 0.41419
 C16 C 0.28197 0.51271 0.44408
 C17 C 0.27316 0.50958 0.59591
 C18 C 0.28714 0.50860 0.62521
 C19 C 0.29082 0.49417 0.61497
 C20 C 0.28033 0.48058 0.57573
 C21 C 0.26633 0.48153 0.54644
 C22 C 0.23040 0.51377 0.54782
 C23 C 0.21633 0.51456 0.57704
 C24 C 0.20575 0.50077 0.61563
 C25 C 0.20948 0.48634 0.62550
 C26 C 0.22353 0.48553 0.59626
 H27 H 0.21105 0.47150 0.47576
 H28 H 0.18504 0.47086 0.42578
 H29 H 0.22372 0.52063 0.33829
 H30 H 0.24965 0.52132 0.38889
 H31 H 0.24575 0.47378 0.38792
 H32 H 0.27137 0.47453 0.33518
 H33 H 0.28506 0.52349 0.47410
 H34 H 0.27060 0.52093 0.60392
 H35 H 0.29514 0.51917 0.65555
 H36 H 0.28301 0.46931 0.56765
 H37 H 0.25827 0.47088 0.51640
 H38 H 0.23846 0.52452 0.51806
 H39 H 0.21360 0.52582 0.56925
 H40 H 0.20140 0.47562 0.65534
 H41 H 0.22608 0.47414 0.60376
 H42 H 0.31066 0.52405 0.42176
 C43 C 0.50527 -0.24776 0.52861
 C44 C 0.50518 -0.24770 0.47258
 C45 C 0.50613 -0.26235 0.44010
 C46 C 0.50405 -0.23300 0.44092
 C47 C 0.50633 -0.23209 0.56103
 C48 C 0.50425 -0.26353 0.56027
 C49 C 0.52059 -0.26625 0.44831
 C50 C 0.52114 -0.28027 0.41799
 C51 C 0.50736 -0.29038 0.37882
 C52 C 0.49312 -0.28631 0.36974
 C53 C 0.49255 -0.27232 0.40005
 C54 C 0.51752 -0.22281 0.40090
 C55 C 0.51681 -0.20872 0.37155
 C56 C 0.50254 -0.20478 0.38159
 C57 C 0.48885 -0.21513 0.42067
 C58 C 0.48953 -0.22925 0.45001
 C59 C 0.49284 -0.23561 0.60124
 C60 C 0.49343 -0.22097 0.63116
 C61 C 0.50760 -0.20267 0.62153
 C62 C 0.52131 -0.19909 0.58227
 C63 C 0.52074 -0.21373 0.55235
 C64 C 0.48971 -0.28181 0.55149
 C65 C 0.48916 -0.29659 0.58061
 C66 C 0.50304 -0.29320 0.61921
 C67 C 0.51733 -0.27496 0.62899
 C68 C 0.51789 -0.26019 0.59983
 H69 H 0.53140 -0.25848 0.47824
 H70 H 0.53226 -0.28325 0.42516
 H71 H 0.48241 -0.29401 0.33946
 H72 H 0.48136 -0.26944 0.39288
 H73 H 0.52875 -0.22558 0.39307
 H74 H 0.52745 -0.20082 0.34132
 H75 H 0.47880 -0.23720 0.47994
 H76 H 0.48169 -0.24967 0.60876
 H77 H 0.48278 -0.22390 0.66151
 H78 H 0.53238 -0.18500 0.57466
 H79 H 0.53148 -0.21076 0.52228
 H80 H 0.47886 -0.28463 0.52190
 H81 H 0.47797 -0.31062 0.57281
 H82 H 0.52813 -0.27213 0.65881
 H83 H 0.52914 -0.24618 0.60741
 H84 H 0.47770 -0.21224 0.42857
 C85 C 1.24847 0.75107 0.52966
 C86 C 1.24855 0.75125 0.47363
 C87 C 1.26420 0.76616 0.44189
 C88 C 1.23295 0.73653 0.44135
 C89 C 1.23384 0.73513 0.56121
 C90 C 1.26290 0.76682 0.56218
 C91 C 1.26060 0.77614 0.40188
 C92 C 1.27521 0.79045 0.37253
 C93 C 1.29358 0.79484 0.38255
 C94 C 1.29724 0.78469 0.42164
 C95 C 1.28262 0.77036 0.45096
 C96 C 1.21457 0.73254 0.44989
 C97 C 1.19993 0.71817 0.42076
 C98 C 1.20352 0.70780 0.38242
 C99 C 1.22184 0.71203 0.37274
 C100 C 1.23650 0.72638 0.40189
 C101 C 1.23028 0.71692 0.55205
 C102 C 1.21605 0.70199 0.58069
 C103 C 1.20538 0.70512 0.61921
 C104 C 1.20919 0.72329 0.62945
 C105 C 1.22339 0.73822 0.60077
 C106 C 1.27306 0.76352 0.60230
 C107 C 1.28692 0.77826 0.63247
 C108 C 1.29065 0.79645 0.62315
 C109 C 1.28031 0.79981 0.58394
 C110 C 1.26643 0.78505 0.55381
 H111 H 1.24649 0.77304 0.39405
 H112 H 1.27215 0.79814 0.34233
 H113 H 1.31138 0.78787 0.42965
 H114 H 1.28566 0.76258 0.48087
 H115 H 1.21159 0.74044 0.47944
 H116 H 1.18581 0.71507 0.42838
 H117 H 1.25058 0.72932 0.39454
 H118 H 1.23842 0.71429 0.52246
 H119 H 1.21333 0.68802 0.57251
 H120 H 1.20109 0.72594 0.65920
 H121 H 1.22600 0.75216 0.60864
 H122 H 1.27045 0.74955 0.60958
 H123 H 1.29478 0.77545 0.66275
 H124 H 1.28300 0.81380 0.57647
 H125 H 1.25850 0.78784 0.52381
 H126 H 1.22478 0.70411 0.34309
 C127 C 0.75053 0.50146 0.53030
 C128 C 0.75065 0.50168 0.47427
 C129 C 0.76547 0.50092 0.44222
 C130 C 0.73593 0.50271 0.44232
 C131 C 0.73458 0.49999 0.56209
 C132 C 0.76637 0.50281 0.56253
 C133 C 0.77545 0.51454 0.40234
 C134 C 0.78969 0.51421 0.37273
 C135 C 0.79399 0.50016 0.38235
 C136 C 0.78385 0.48632 0.42128
 C137 C 0.76960 0.48663 0.45088
 C138 C 0.73198 0.51708 0.45159
 C139 C 0.71770 0.51756 0.42250
 C140 C 0.70739 0.50382 0.38347
 C141 C 0.71156 0.48973 0.37313
 C142 C 0.72582 0.48921 0.40223
 C143 C 0.71639 0.48533 0.55265
 C144 C 0.70142 0.48450 0.58134
 C145 C 0.70451 0.49820 0.62018
 C146 C 0.72266 0.51257 0.63075
 C147 C 0.73762 0.51341 0.60202
 C148 C 0.76317 0.48937 0.60258
 C149 C 0.77799 0.49032 0.63253
 C150 C 0.79616 0.50482 0.62308
 C151 C 0.79941 0.51849 0.58391
 C152 C 0.78458 0.51755 0.55400
 H153 H 0.77242 0.52561 0.39484
 H154 H 0.79743 0.52496 0.34264
 H155 H 0.78702 0.47535 0.42888
 H156 H 0.76182 0.47579 0.48070
 H157 H 0.73986 0.52782 0.48160
 H158 H 0.71465 0.52858 0.43064
 H159 H 0.72874 0.47810 0.39427
 H160 H 0.71381 0.47465 0.52274
 H161 H 0.68746 0.47326 0.57289
 H162 H 0.72526 0.52325 0.66074
 H163 H 0.75155 0.52475 0.61008
 H164 H 0.74922 0.47798 0.61001
 H165 H 0.77526 0.47967 0.66278
 H166 H 0.81338 0.52984 0.57634
 H167 H 0.78729 0.52827 0.52408
 H168 H 0.70370 0.47905 0.34292
 C169 C 0.50146 0.25059 0.53064
 C170 C 0.50142 0.25070 0.47461
 C171 C 0.50021 0.26538 0.44305
 C172 C 0.50239 0.23605 0.44222
 C173 C 0.50019 0.23468 0.56220
 C174 C 0.50259 0.26628 0.56305
 C175 C 0.48565 0.26906 0.45239
 C176 C 0.48498 0.28328 0.42364
 C177 C 0.49871 0.29382 0.38489
 C178 C 0.51300 0.28992 0.37446
 C179 C 0.51370 0.27572 0.40323
 C180 C 0.48872 0.22591 0.40258
 C181 C 0.48906 0.21160 0.37341
 C182 C 0.50317 0.20739 0.38324
 C183 C 0.51711 0.21775 0.42173
 C184 C 0.51679 0.23209 0.45088
 C185 C 0.51374 0.23777 0.60183
 C186 C 0.51299 0.22285 0.63059
 C187 C 0.49859 0.20468 0.62034
 C188 C 0.48480 0.20155 0.58173
 C189 C 0.48553 0.21648 0.55302
 C190 C 0.51705 0.28460 0.55425
 C191 C 0.51755 0.29933 0.58352
 C192 C 0.50373 0.29586 0.62232
 C193 C 0.48956 0.27757 0.63225
 C194 C 0.48904 0.26285 0.60294
 H195 H 0.47491 0.26100 0.48217
 H196 H 0.47381 0.28612 0.43183
 H197 H 0.52367 0.29797 0.34446
 H198 H 0.52495 0.27301 0.39521
 H199 H 0.47756 0.22882 0.39511
 H200 H 0.47823 0.20368 0.34366
 H201 H 0.52765 0.23997 0.48057
 H202 H 0.52507 0.25172 0.60972
 H203 H 0.52373 0.22549 0.66045
 H204 H 0.47352 0.18758 0.57357
 H205 H 0.47475 0.21385 0.52338
 H206 H 0.52782 0.28750 0.52439
 H207 H 0.52865 0.31340 0.57557
 H208 H 0.47879 0.27467 0.66221
 H209 H 0.47785 0.24882 0.61051
 H210 H 0.52813 0.21466 0.42949
 C211 C 0.75049 0.24923 0.52896
 C212 C 0.75039 0.24923 0.47293
 C213 C 0.73448 0.23467 0.44113
 C214 C 0.76621 0.26370 0.44069
 C215 C 0.76531 0.26487 0.56093
 C216 C 0.73577 0.23353 0.56097
 C217 C 0.73759 0.22425 0.40148
 C218 C 0.72266 0.21008 0.37268
 C219 C 0.70450 0.20629 0.38287
 C220 C 0.70134 0.21691 0.42142
 C221 C 0.71627 0.23111 0.45022
 C222 C 0.78444 0.26724 0.44938
 C223 C 0.79924 0.28115 0.41952
 C224 C 0.79595 0.29151 0.38032
 C225 C 0.77777 0.28778 0.37066
 C226 C 0.76297 0.27389 0.40052
 C227 C 0.76942 0.28326 0.55198
 C228 C 0.78375 0.29791 0.58125
 C229 C 0.79399 0.29430 0.62018
 C230 C 0.78966 0.27595 0.63016
 C231 C 0.77535 0.26131 0.60086
 C232 C 0.72560 0.23696 0.60067
 C233 C 0.71129 0.22223 0.62965
 C234 C 0.70712 0.20395 0.61957
 C235 C 0.71751 0.20047 0.58098
 C236 C 0.73183 0.21519 0.55202
 H237 H 0.75153 0.22686 0.39369
 H238 H 0.72526 0.20197 0.34287
 H239 H 0.68735 0.21414 0.42947
 H240 H 0.71362 0.23922 0.47991
 H241 H 0.78718 0.25928 0.47940
 H242 H 0.81324 0.28387 0.42715
 H243 H 0.74901 0.27129 0.39298
 H244 H 0.76159 0.28626 0.52212
 H245 H 0.78688 0.31202 0.57326
 H246 H 0.79744 0.27294 0.66023
 H247 H 0.77232 0.24722 0.60857
 H248 H 0.72850 0.25101 0.60837
 H249 H 0.70336 0.22507 0.65952
 H250 H 0.71445 0.18639 0.57306
 H251 H 0.73976 0.21230 0.52231
 H252 H 0.77507 0.29569 0.34035
 O253 O 1.02544 0.54027 0.10202
 O254 O 1.04605 0.53644 0.04844
 C255 C 1.04213 0.54457 0.08732
 O256 O 0.97362 0.45695 0.09313
 O257 O 0.95315 0.46238 0.04418
 C258 C 0.95697 0.45296 0.07898
 O259 O 1.02552 0.48449 0.09934
 O260 O 1.04606 0.50935 0.04708
 C261 C 1.04219 0.49701 0.08501
 O262 O 0.97339 0.51580 0.09558
 O263 O 0.95293 0.49029 0.04505
 C264 C 0.95673 0.50320 0.08102
 Zr265 Zr 0.99952 0.51994 0.06910
 O266 O 0.99795 0.51947 0.15588
 O267 O 1.00038 0.54576 0.06440
 Zr268 Zr 0.99963 0.47938 0.06776
 O269 O 0.99864 0.48030 0.15440
 O270 O 1.00150 0.45489 0.06900
 O271 O 1.01619 0.50793 0.07915
 O272 O 0.98333 0.49148 0.07829
 O273 O 0.97389 0.51713 -0.09511
 O274 O 0.95329 0.49107 -0.04702
 C275 C 0.95720 0.50442 -0.08147
 O276 O 1.02565 0.48532 -0.10291
 O277 O 1.04614 0.50982 -0.04923
 C278 C 1.04231 0.49778 -0.08805
 O279 O 0.97352 0.45790 -0.09820
 O280 O 0.95301 0.46285 -0.04782
 C281 C 0.95685 0.45380 -0.08383
 O282 O 1.02599 0.54137 -0.09975
 O283 O 1.04645 0.53680 -0.04754
 C284 C 1.04265 0.54536 -0.08537
 Zr285 Zr 0.99979 0.52057 -0.06932
 O286 O 0.99777 0.51978 -0.15610
 O287 O 1.00163 0.54691 -0.06777
 Zr288 Zr 0.99964 0.47980 -0.07101
 O289 O 0.99762 0.47885 -0.15777
 O290 O 1.00172 0.45541 -0.07041
 Zr291 Zr 1.02745 0.51381 -0.00069
 Zr292 Zr 0.97187 0.48602 -0.00122
 O293 O 0.98355 0.49218 -0.08045
 O294 O 1.01631 0.50850 -0.08087
 O295 O 0.98302 0.51504 -0.00015
 O296 O 1.01584 0.48475 -0.00163
 O297 O 1.01593 0.53133 0.00030
 O298 O 0.98303 0.46812 -0.00190
 H299 H 0.97493 0.48716 0.11053
 H300 H 1.02422 0.47947 -0.00188
 H301 H 0.97520 0.48817 -0.11284
 H302 H 1.02437 0.54498 0.00083
 H303 H 0.99219 0.44608 0.04267
 H304 H 0.99070 0.44564 -0.05094
 H305 H 1.00751 0.49096 -0.17187
 H306 H 1.00835 0.51877 -0.17069
 H307 H 0.99290 0.54638 -0.03921
 H308 H 1.00027 0.54963 0.10284
 H309 H 1.00541 0.51400 0.16929
 H310 H 0.99859 0.46902 0.16790
 O311 O 0.54078 0.51536 0.09889
 O312 O 0.53654 0.49034 0.04750
 C313 C 0.54495 0.50280 0.08521
 O314 O 0.45712 0.48350 0.09346
 O315 O 0.46234 0.50906 0.04314
 C316 C 0.45309 0.49608 0.07875
 O317 O 0.48463 0.45912 0.10093
 O318 O 0.50944 0.46321 0.04878
 C319 C 0.49717 0.45495 0.08704
 O320 O 0.51647 0.54291 0.09092
 O321 O 0.49057 0.53733 0.04162
 C322 C 0.50381 0.54686 0.07636
 Zr323 Zr 0.52015 0.52054 0.06605
 O324 O 0.52022 0.52260 0.15271
 O325 O 0.54596 0.54543 0.05872
 Zr326 Zr 0.47965 0.47997 0.06906
 O327 O 0.48228 0.48359 0.15516
 O328 O 0.45446 0.45450 0.07814
 O329 O 0.50826 0.49201 0.07881
 O330 O 0.49173 0.50844 0.07689
 O331 O 0.51604 0.54159 -0.09977
 O332 O 0.49031 0.53661 -0.05076
 C333 C 0.50341 0.54568 -0.08622
 O334 O 0.48432 0.45796 -0.10022
 O335 O 0.50923 0.46261 -0.04751
 C336 C 0.49694 0.45399 -0.08546
 O337 O 0.45685 0.48246 -0.09703
 O338 O 0.46211 0.50847 -0.04918
 C339 C 0.45280 0.49514 -0.08378
 O340 O 0.54037 0.51378 -0.10261
 O341 O 0.53623 0.48934 -0.04832
 C342 C 0.54451 0.50131 -0.08726
 Zr343 Zr 0.51974 0.51944 -0.07229
 O344 O 0.51827 0.51968 -0.15912
 O345 O 0.54606 0.54399 -0.07342
 Zr346 Zr 0.47906 0.47880 -0.06981
 O347 O 0.47769 0.47913 -0.15663
 O348 O 0.45455 0.45245 -0.06710
 Zr349 Zr 0.51354 0.48577 -0.00077
 Zr350 Zr 0.48565 0.51353 -0.00297
 O351 O 0.49127 0.50714 -0.08179
 O352 O 0.50767 0.49076 -0.08126
 O353 O 0.51470 0.53139 -0.00397
 O354 O 0.48449 0.46832 0.00037
 O355 O 0.53103 0.51481 -0.00255
 O356 O 0.46787 0.48444 -0.00087
 H357 H 0.48762 0.51288 0.10877
 H358 H 0.47931 0.45468 0.00096
 H359 H 0.48702 0.51111 -0.11447
 H360 H 0.54469 0.52005 -0.00270
 H361 H 0.45185 0.44790 0.04265
 H362 H 0.44533 0.45376 -0.04470
 H363 H 0.48961 0.48093 -0.17104
 H364 H 0.51733 0.50803 -0.17274
 H365 H 0.54576 0.55246 -0.04539
 H366 H 0.55019 0.54977 0.09672
 H367 H 0.51586 0.50999 0.16753
 H368 H 0.47107 0.47285 0.17107
 O369 O 0.53986 0.02540 -0.10101
 O370 O 0.53578 0.04595 -0.04801
 C371 C 0.54407 0.04207 -0.08643
 O372 O 0.45647 -0.02655 -0.09522
 O373 O 0.46168 -0.04705 -0.04564
 C374 C 0.45240 -0.04321 -0.08088
 O375 O 0.48405 0.02536 -0.10130
 O376 O 0.50867 0.04592 -0.04815
 C377 C 0.49650 0.04203 -0.08665
 O378 O 0.51572 -0.02647 -0.09475
 O379 O 0.48997 -0.04701 -0.04543
 C380 C 0.50315 -0.04314 -0.08051
 Zr381 Zr 0.51941 -0.00053 -0.06851
 O382 O 0.51927 -0.00212 -0.15528
 O383 O 0.54527 0.00043 -0.06238
 Zr384 Zr 0.47881 -0.00054 -0.06943
 O385 O 0.48013 -0.00154 -0.15598
 O386 O 0.45431 0.00132 -0.07224
 O387 O 0.50740 0.01608 -0.07962
 O388 O 0.49097 -0.01681 -0.07891
 O389 O 0.51577 -0.02629 0.09603
 O390 O 0.48994 -0.04691 0.04696
 C391 C 0.50312 -0.04298 0.08213
 O392 O 0.48399 0.02548 0.10112
 O393 O 0.50869 0.04598 0.04822
 C394 C 0.49651 0.04214 0.08660
 O395 O 0.45659 -0.02653 0.09630
 O396 O 0.46177 -0.04703 0.04682
 C397 C 0.45256 -0.04319 0.08223
 O398 O 0.54004 0.02584 0.10077
 O399 O 0.53570 0.04631 0.04787
 C400 C 0.54410 0.04250 0.08623
 Zr401 Zr 0.51938 -0.00036 0.06983
 O402 O 0.51823 -0.00238 0.15661
 O403 O 0.54573 0.00147 0.06961
 Zr404 Zr 0.47863 -0.00050 0.06929
 O405 O 0.47728 -0.00252 0.15603
 O406 O 0.45424 0.00159 0.06715
 Zr407 Zr 0.51292 0.02732 0.00027
 Zr408 Zr 0.48513 -0.02833 0.00050
 O409 O 0.49094 -0.01660 0.07975
 O410 O 0.50727 0.01616 0.08038
 O411 O 0.51418 -0.01709 0.00077
 O412 O 0.48385 0.01569 -0.00016
 O413 O 0.53046 0.01583 0.00051
 O414 O 0.46724 -0.01714 -0.00001
 H415 H 0.48682 -0.02521 -0.11118
 H416 H 0.47857 0.02406 -0.00035
 H417 H 0.48682 -0.02492 0.11219
 H418 H 0.54412 0.02428 0.00050
 H419 H 0.44542 -0.00790 -0.04590
 H420 H 0.44453 -0.00946 0.04759
 H421 H 0.48935 0.00730 0.17057
 H422 H 0.51718 0.00820 0.17093
 H423 H 0.54531 -0.00729 0.04133
 H424 H 0.54940 0.00047 -0.10058
 H425 H 0.51393 0.00542 -0.16914
 H426 H 0.46890 -0.00161 -0.17011
 C427 C 1.18866 0.49568 0.35276
 C428 C 1.17591 0.49573 0.32912
 C429 C 1.16072 0.49592 0.30117
 C430 C 1.15450 0.50791 0.31880
 C431 C 1.13976 0.50814 0.29173
 C432 C 1.13102 0.49635 0.24659
 C433 C 1.13739 0.48435 0.22918
 C434 C 1.15215 0.48415 0.25630
 C435 C 1.11532 0.49655 0.21790
 C436 C 1.09980 0.47985 0.20030
 C437 C 1.08500 0.48004 0.17342
 C438 C 1.08552 0.49690 0.16373
 C439 C 1.10089 0.51359 0.18103
 C440 C 1.11570 0.51343 0.20796
 C441 C 1.07027 0.49704 0.13603
 C442 C 1.05746 0.49707 0.11277
 H443 H 1.16101 0.51704 0.35358
 H444 H 1.13503 0.51736 0.30658
 H445 H 1.13113 0.47529 0.19415
 H446 H 1.15689 0.47486 0.24220
 H447 H 1.09897 0.46662 0.20799
 H448 H 1.07314 0.46703 0.16034
 H449 H 1.10146 0.52672 0.17360
 H450 H 1.12755 0.52654 0.22036
 C451 C 0.50766 0.69495 0.34826
 C452 C 0.50769 0.68253 0.32272
 C453 C 0.50749 0.66757 0.29236
 C454 C 0.52234 0.66418 0.29688
 C455 C 0.52198 0.64943 0.26808
 C456 C 0.50672 0.63786 0.23441
 C457 C 0.49191 0.64145 0.22994
 C458 C 0.49231 0.65621 0.25873
 C459 C 0.50615 0.62196 0.20466
 C460 C 0.48951 0.60477 0.20147
 C461 C 0.48903 0.58971 0.17429
 C462 C 0.50515 0.59163 0.14987
 C463 C 0.52174 0.60870 0.15251
 C464 C 0.52226 0.62377 0.17972
 C465 C 0.50472 0.57597 0.12313
 C466 C 0.50432 0.56274 0.10138
 H467 H 0.53413 0.67284 0.32296
 H468 H 0.53348 0.64688 0.27295
 H469 H 0.48009 0.63295 0.20382
 H470 H 0.48076 0.65873 0.25484
 H471 H 0.47694 0.60285 0.22088
 H472 H 0.47613 0.57653 0.17273
 H473 H 0.53430 0.61034 0.13370
 H474 H 0.53522 0.63689 0.18086
 C475 C 0.30783 -0.19092 0.35476
 C476 C 0.32038 -0.17821 0.33029
 C477 C 0.33528 -0.16293 0.30125
 C478 C 0.34248 -0.16615 0.25322
 C479 C 0.35689 -0.15127 0.22489
 C480 C 0.36428 -0.13295 0.24424
 C481 C 0.35694 -0.12987 0.29260
 C482 C 0.34255 -0.14476 0.32088
 C483 C 0.37963 -0.11712 0.21429
 C484 C 0.37975 -0.10020 0.20828
 C485 C 0.39431 -0.08524 0.18067
 C486 C 0.40894 -0.08697 0.15871
 C487 C 0.40891 -0.10376 0.16424
 C488 C 0.39436 -0.11874 0.19179
 C489 C 0.42414 -0.07146 0.13127
 C490 C 0.43702 -0.05851 0.10866
 H491 H 0.33692 -0.18015 0.23756
 H492 H 0.36208 -0.15408 0.18745
 H493 H 0.36250 -0.11596 0.30899
 H494 H 0.33711 -0.14211 0.35810
 H495 H 0.36850 -0.09859 0.22449
 H496 H 0.39418 -0.07232 0.17655
 H497 H 0.42020 -0.10523 0.14759
 H498 H 0.39479 -0.13148 0.19633
 C499 C 0.80899 0.50015 0.35286
 C500 C 0.82170 0.50031 0.32844
 C501 C 0.83701 0.50069 0.29968
 C502 C 0.83432 0.49258 0.24765
 C503 C 0.84925 0.49302 0.21972
 C504 C 0.86708 0.50160 0.24357
 C505 C 0.86963 0.50973 0.29589
 C506 C 0.85470 0.50928 0.32370
 C507 C 0.88295 0.50200 0.21418
 C508 C 0.89596 0.49905 0.24290
 C509 C 0.91092 0.49947 0.21533
 C510 C 0.91309 0.50285 0.15876
 C511 C 0.90023 0.50579 0.12977
 C512 C 0.88524 0.50537 0.15726
 C513 C 0.92848 0.50318 0.13061
 C514 C 0.94139 0.50330 0.10762
 H515 H 0.82067 0.48586 0.22872
 H516 H 0.84679 0.48644 0.17983
 H517 H 0.88323 0.51666 0.31502
 H518 H 0.85695 0.51567 0.36387
 H519 H 0.89444 0.49617 0.28655
 H520 H 0.92075 0.49709 0.23813
 H521 H 0.90180 0.50844 0.08596
 H522 H 0.87559 0.50791 0.13414
 C523 C 0.49832 0.30880 0.35641
 C524 C 0.49811 0.32146 0.33284
 C525 C 0.49798 0.33668 0.30499
 C526 C 0.48826 0.33362 0.25556
 C527 C 0.48816 0.34842 0.22847
 C528 C 0.49782 0.36650 0.25051
 C529 C 0.50756 0.36942 0.30024
 C530 C 0.50762 0.35460 0.32727
 C531 C 0.49773 0.38224 0.22180
 C532 C 0.51401 0.39974 0.21878
 C533 C 0.51391 0.41454 0.19169
 C534 C 0.49754 0.41205 0.16733
 C535 C 0.48128 0.39470 0.17013
 C536 C 0.48135 0.37989 0.19716
 C537 C 0.49745 0.42724 0.13925
 C538 C 0.49733 0.43993 0.11553
 H539 H 0.48079 0.31981 0.23787
 H540 H 0.48074 0.34577 0.18992
 H541 H 0.51493 0.38312 0.31862
 H542 H 0.51516 0.35711 0.36560
 H543 H 0.52689 0.40193 0.23671
 H544 H 0.52660 0.42789 0.18959
 H545 H 0.46852 0.39264 0.15151
 H546 H 0.46854 0.36666 0.19939
 C547 C 0.68913 0.19126 0.35454
 C548 C 0.67634 0.17848 0.33104
 C549 C 0.66119 0.16305 0.30322
 C550 C 0.64707 0.16509 0.27863
 C551 C 0.63238 0.15005 0.25161
 C552 C 0.63165 0.13276 0.24880
 C553 C 0.64591 0.13087 0.27372
 C554 C 0.66057 0.14592 0.30073
 C555 C 0.61610 0.11678 0.21999
 C556 C 0.61950 0.10487 0.18705
 C557 C 0.60487 0.08978 0.16011
 C558 C 0.58666 0.08637 0.16572
 C559 C 0.58312 0.09813 0.19831
 C560 C 0.59774 0.11325 0.22527
 C561 C 0.57163 0.07083 0.13789
 C562 C 0.55906 0.05785 0.11440
 H563 H 0.64745 0.17830 0.28021
 H564 H 0.62174 0.15201 0.23225
 H565 H 0.64561 0.11769 0.27293
 H566 H 0.67140 0.14417 0.31978
 H567 H 0.63350 0.10737 0.18155
 H568 H 0.60777 0.08080 0.13481
 H569 H 0.56906 0.09559 0.20299
 H570 H 0.59465 0.12202 0.25085
 C571 C 0.49816 0.19010 -0.35269
 C572 C 0.49788 0.17720 -0.32908
 C573 C 0.49767 0.16183 -0.30116
 C574 C 0.48148 0.14438 -0.30071
 C575 C 0.48132 0.12940 -0.27397
 C576 C 0.49738 0.13168 -0.24735
 C577 C 0.51358 0.14928 -0.24801
 C578 C 0.51371 0.16425 -0.27474
 C579 C 0.49724 0.11576 -0.21908
 C580 C 0.51261 0.11301 -0.22299
 C581 C 0.51245 0.09802 -0.19638
 C582 C 0.49696 0.08558 -0.16551
 C583 C 0.48162 0.08819 -0.16134
 C584 C 0.48174 0.10317 -0.18794
 C585 C 0.49683 0.07019 -0.13795
 C586 C 0.49668 0.05731 -0.11467
 H587 H 0.46901 0.14234 -0.32123
 H588 H 0.46871 0.11597 -0.27481
 H589 H 0.52609 0.15154 -0.22730
 H590 H 0.52630 0.17770 -0.27476
 H591 H 0.52465 0.12232 -0.24722
 H592 H 0.52439 0.09610 -0.19997
 H593 H 0.46958 0.07869 -0.13738
 H594 H 0.46980 0.10505 -0.18354
 C595 C 0.68990 0.49781 -0.35319
 C596 C 0.67705 0.49772 -0.32988
 C597 C 0.66183 0.49793 -0.30234
 C598 C 0.64845 0.48213 -0.27449
 C599 C 0.63371 0.48242 -0.24767
 C600 C 0.63219 0.49856 -0.24834
 C601 C 0.64571 0.51435 -0.27655
 C602 C 0.66042 0.51402 -0.30334
 C603 C 0.61662 0.49896 -0.21969
 C604 C 0.61975 0.51482 -0.19005
 C605 C 0.60509 0.51525 -0.16334
 C606 C 0.58710 0.49987 -0.16587
 C607 C 0.58383 0.48401 -0.19513
 C608 C 0.59849 0.48354 -0.22186
 C609 C 0.57204 0.50038 -0.13835
 C610 C 0.55946 0.50083 -0.11513
 H611 H 0.64944 0.46961 -0.27335
 H612 H 0.62366 0.47012 -0.22576
 H613 H 0.64479 0.52689 -0.27847
 H614 H 0.67067 0.52631 -0.32493
 H615 H 0.63359 0.52680 -0.18696
 H616 H 0.60778 0.52757 -0.14062
 H617 H 0.56995 0.47204 -0.19741
 H618 H 0.59559 0.47122 -0.24488
 C619 C 0.80830 0.30858 -0.35237
 C620 C 0.82110 0.32119 -0.32836
 C621 C 0.83653 0.33620 -0.30009
 C622 C 0.83402 0.34180 -0.24813
 C623 C 0.84906 0.35635 -0.22066
 C624 C 0.86682 0.36548 -0.24490
 C625 C 0.86919 0.35972 -0.29715
 C626 C 0.85414 0.34518 -0.32450
 C627 C 0.88281 0.38099 -0.21595
 C628 C 0.89579 0.39686 -0.24507
 C629 C 0.91084 0.41145 -0.21788
 C630 C 0.91315 0.41040 -0.16130
 C631 C 0.90033 0.39469 -0.13193
 C632 C 0.88525 0.38007 -0.15904
 C633 C 0.92860 0.42553 -0.13346
 C634 C 0.94153 0.43835 -0.11056
 H635 H 0.82044 0.33497 -0.22891
 H636 H 0.84675 0.36061 -0.18082
 H637 H 0.88273 0.36630 -0.31657
 H638 H 0.85625 0.34090 -0.36463
 H639 H 0.89416 0.39810 -0.28873
 H640 H 0.92064 0.42359 -0.24097
 H641 H 0.90200 0.39373 -0.08812
 H642 H 0.87563 0.36795 -0.13561
 C643 C 0.50788 -0.18759 -0.34856
 C644 C 0.50791 -0.17502 -0.32368
 C645 C 0.50775 -0.16008 -0.29419
 C646 C 0.51945 -0.14164 -0.31041
 C647 C 0.51905 -0.12715 -0.28240
 C648 C 0.50690 -0.13092 -0.23778
 C649 C 0.49526 -0.14952 -0.22165
 C650 C 0.49569 -0.16398 -0.24970
 C651 C 0.50626 -0.11555 -0.20856
 C652 C 0.48915 -0.11748 -0.19197
 C653 C 0.48852 -0.10291 -0.16520
 C654 C 0.50497 -0.08624 -0.15457
 C655 C 0.52207 -0.08421 -0.17065
 C656 C 0.52273 -0.09875 -0.19747
 C657 C 0.50429 -0.07112 -0.12792
 C658 C 0.50375 -0.05839 -0.10602
 H659 H 0.52879 -0.13846 -0.34495
 H660 H 0.52801 -0.11301 -0.29628
 H661 H 0.48593 -0.15286 -0.18705
 H662 H 0.48659 -0.17821 -0.23674
 H663 H 0.47621 -0.13014 -0.20056
 H664 H 0.47520 -0.10461 -0.15314
 H665 H 0.53489 -0.07136 -0.16256
 H666 H 0.53613 -0.09692 -0.20908
 C667 C 0.30554 0.49348 -0.35577
 C668 C 0.31801 0.49311 -0.33147
 C669 C 0.33306 0.49289 -0.30276
 C670 C 0.33175 0.48928 -0.24628
 C671 C 0.34652 0.48937 -0.21830
 C672 C 0.36283 0.49312 -0.24648
 C673 C 0.36396 0.49666 -0.30331
 C674 C 0.34918 0.49654 -0.33120
 C675 C 0.37863 0.49346 -0.21676
 C676 C 0.39707 0.50707 -0.22906
 C677 C 0.41195 0.50735 -0.20136
 C678 C 0.40865 0.49404 -0.16101
 C679 C 0.39037 0.48047 -0.14831
 C680 C 0.37545 0.48018 -0.17595
 C681 C 0.42405 0.49427 -0.13308
 C682 C 0.43709 0.49459 -0.11024
 H683 H 0.31937 0.48651 -0.22382
 H684 H 0.34531 0.48683 -0.17446
 H685 H 0.37621 0.49933 -0.32631
 H686 H 0.35033 0.49932 -0.37494
 H687 H 0.39997 0.51764 -0.25968
 H688 H 0.42605 0.51794 -0.21142
 H689 H 0.38765 0.47007 -0.11726
 H690 H 0.36144 0.46940 -0.16599
 C691 C 1.19115 0.69056 -0.35402
 C692 C 1.17839 0.67776 -0.33047
 C693 C 1.16300 0.66262 -0.30252
 C694 C 1.14612 0.66242 -0.29748
 C695 C 1.13113 0.64778 -0.27027
 C696 C 1.13283 0.63309 -0.24770
 C697 C 1.14985 0.63339 -0.25308
 C698 C 1.16484 0.64807 -0.28030
 C699 C 1.11689 0.61755 -0.21870
 C700 C 1.11287 0.59909 -0.22600
 C701 C 1.09779 0.58448 -0.19896
 C702 C 1.08654 0.58810 -0.16427
 C703 C 1.09045 0.60640 -0.15660
 C704 C 1.10552 0.62103 -0.18362
 C705 C 1.07100 0.57304 -0.13651
 C706 C 1.05802 0.56042 -0.11321
 H707 H 1.14453 0.67358 -0.31468
 H708 H 1.11814 0.64783 -0.26752
 H709 H 1.15167 0.62242 -0.23559
 H710 H 1.17786 0.64810 -0.28386
 H711 H 1.12122 0.59593 -0.25324
 H712 H 1.09487 0.57035 -0.20525
 H713 H 1.08188 0.60936 -0.12967
 H714 H 1.10840 0.63510 -0.17654
 C715 C 0.81062 0.50548 -0.34853
 C716 C 0.82336 0.50588 -0.32355
 C717 C 0.83850 0.50614 -0.29396
 C718 C 0.85673 0.52065 -0.30198
 C719 C 0.87147 0.52069 -0.27402
 C720 C 0.86814 0.50615 -0.23771
 C721 C 0.84974 0.49168 -0.22970
 C722 C 0.83504 0.49169 -0.25766
 C723 C 0.88382 0.50595 -0.20888
 C724 C 0.88413 0.48925 -0.20305
 C725 C 0.89898 0.48908 -0.17653
 C726 C 0.91370 0.50556 -0.15544
 C727 C 0.91350 0.52224 -0.16082
 C728 C 0.89866 0.52245 -0.18738
 C729 C 0.92908 0.50535 -0.12887
 C730 C 0.94194 0.50501 -0.10701
 H731 H 0.85957 0.53187 -0.33015
 H732 H 0.88549 0.53189 -0.28160
 H733 H 0.84671 0.48043 -0.20149
 H734 H 0.82097 0.48040 -0.25107
 H735 H 0.87305 0.47638 -0.21983
 H736 H 0.89903 0.47611 -0.17278
 H737 H 0.92481 0.53507 -0.14455
 H738 H 0.89872 0.53547 -0.19063
 C739 C 0.50383 0.31023 -0.35045
 C740 C 0.50370 0.32288 -0.32661
 C741 C 0.50329 0.33790 -0.29845
 C742 C 0.51274 0.35590 -0.32022
 C743 C 0.51202 0.37042 -0.29349
 C744 C 0.50179 0.36711 -0.24460
 C745 C 0.49241 0.34897 -0.22294
 C746 C 0.49316 0.33448 -0.24972
 C747 C 0.50082 0.38247 -0.21653
 C748 C 0.48399 0.37949 -0.19355
 C749 C 0.48307 0.39396 -0.16721
 C750 C 0.49892 0.41159 -0.16346
 C751 C 0.51572 0.41471 -0.18617
 C752 C 0.51668 0.40026 -0.21256
 C753 C 0.49800 0.42646 -0.13610
 C754 C 0.49739 0.43898 -0.11305
 H755 H 0.52055 0.35869 -0.35807
 H756 H 0.51919 0.38417 -0.31156
 H757 H 0.48463 0.34603 -0.18501
 H758 H 0.48581 0.32060 -0.23249
 H759 H 0.47148 0.36603 -0.19657
 H760 H 0.46998 0.39140 -0.14987
 H761 H 0.52810 0.42830 -0.18333
 H762 H 0.52988 0.40295 -0.22922
 C763 C 0.69200 0.18875 -0.35183
 C764 C 0.67922 0.17602 -0.32820
 C765 C 0.66387 0.16084 -0.30030
 C766 C 0.65015 0.16346 -0.27551
 C767 C 0.63513 0.14867 -0.24882
 C768 C 0.63364 0.13104 -0.24656
 C769 C 0.64753 0.12857 -0.27156
 C770 C 0.66253 0.14337 -0.29826
 C771 C 0.61768 0.11531 -0.21830
 C772 C 0.62039 0.10287 -0.18569
 C773 C 0.60537 0.08804 -0.15918
 C774 C 0.58745 0.08543 -0.16490
 C775 C 0.58459 0.09773 -0.19719
 C776 C 0.59961 0.11258 -0.22372
 C777 C 0.57202 0.07015 -0.13753
 C778 C 0.55920 0.05733 -0.11436
 H779 H 0.65107 0.17693 -0.27678
 H780 H 0.62480 0.15108 -0.22938
 H781 H 0.64665 0.11512 -0.27116
 H782 H 0.67303 0.14117 -0.31751
 H783 H 0.63416 0.10474 -0.18010
 H784 H 0.60773 0.07864 -0.13411
 H785 H 0.57077 0.09581 -0.20198
 H786 H 0.59704 0.12178 -0.24908
 C787 C 1.19079 0.50114 -0.35581
 C788 C 1.17806 0.50118 -0.33221
 C789 C 1.16268 0.50094 -0.30435
 C790 C 1.16457 0.51730 -0.28185
 C791 C 1.14956 0.51701 -0.25489
 C792 C 1.13247 0.50032 -0.25007
 C793 C 1.13073 0.48397 -0.27292
 C794 C 1.14574 0.48430 -0.29987
 C795 C 1.11652 0.49995 -0.22135
 C796 C 1.10505 0.48503 -0.18654
 C797 C 1.08996 0.48461 -0.15975
 C798 C 1.08614 0.49906 -0.16737
 C799 C 1.09748 0.51398 -0.20179
 C800 C 1.11259 0.51444 -0.22862
 C801 C 1.07061 0.49859 -0.13970
 C802 C 1.05764 0.49819 -0.11628
 H803 H 1.17764 0.53026 -0.28502
 H804 H 1.15140 0.52978 -0.23716
 H805 H 1.11769 0.47097 -0.27059
 H806 H 1.14411 0.47157 -0.31734
 H807 H 1.10787 0.47380 -0.17950
 H808 H 1.08132 0.47303 -0.13299
 H809 H 1.09462 0.52523 -0.20801
 H810 H 1.12102 0.52599 -0.25565
 C811 C 0.50279 0.69239 -0.35334
 C812 C 0.50275 0.67969 -0.32924
 C813 C 0.50288 0.66458 -0.30073
 C814 C 0.48670 0.65081 -0.27539
 C815 C 0.48682 0.63608 -0.24798
 C816 C 0.50317 0.63495 -0.24555
 C817 C 0.51937 0.64890 -0.27107
 C818 C 0.51921 0.66360 -0.29847
 C819 C 0.50330 0.61924 -0.21680
 C820 C 0.51860 0.62229 -0.18429
 C821 C 0.51875 0.60747 -0.15756
 C822 C 0.50364 0.58942 -0.16300
 C823 C 0.48835 0.58624 -0.19514
 C824 C 0.48816 0.60104 -0.22188
 C825 C 0.50379 0.57414 -0.13570
 C826 C 0.50375 0.56122 -0.11301
 H827 H 0.47400 0.65146 -0.27678
 H828 H 0.47420 0.62568 -0.22815
 H829 H 0.53209 0.64829 -0.27056
 H830 H 0.53179 0.67417 -0.31810
 H831 H 0.53036 0.63617 -0.17902
 H832 H 0.53064 0.61009 -0.13262
 H833 H 0.47659 0.57231 -0.19972
 H834 H 0.47629 0.59820 -0.24717
 C835 C 0.30447 -0.18916 -0.34832
 C836 C 0.31683 -0.17649 -0.32323
 C837 C 0.33174 -0.16143 -0.29356
 C838 C 0.33609 -0.14309 -0.30337
 C839 C 0.35085 -0.12843 -0.27538
 C840 C 0.36146 -0.13195 -0.23723
 C841 C 0.35689 -0.15046 -0.22742
 C842 C 0.34212 -0.16509 -0.25543
 C843 C 0.37738 -0.11637 -0.20833
 C844 C 0.39407 -0.11657 -0.20039
 C845 C 0.40915 -0.10180 -0.17385
 C846 C 0.40776 -0.08665 -0.15485
 C847 C 0.39120 -0.08634 -0.16231
 C848 C 0.37611 -0.10109 -0.18889
 C849 C 0.42340 -0.07133 -0.12831
 C850 C 0.43660 -0.05849 -0.10645
 H851 H 0.32818 -0.14011 -0.33298
 H852 H 0.35417 -0.11433 -0.28434
 H853 H 0.36464 -0.15363 -0.19778
 H854 H 0.33885 -0.17924 -0.24746
 H855 H 0.39558 -0.12800 -0.21554
 H856 H 0.42193 -0.10214 -0.16847
 H857 H 0.38998 -0.07468 -0.14767
 H858 H 0.36338 -0.10064 -0.19378
 C859 C 0.50214 -0.18995 0.35230
 C860 C 0.50200 -0.17738 0.32796
 C861 C 0.50204 -0.16224 0.29918
 C862 C 0.50369 -0.14700 0.32849
 C863 C 0.50402 -0.13212 0.30062
 C864 C 0.50270 -0.13231 0.24296
 C865 C 0.50097 -0.14773 0.21387
 C866 C 0.50066 -0.16259 0.24185
 C867 C 0.50314 -0.11646 0.21336
 C868 C 0.49121 -0.11960 0.16851
 C869 C 0.49149 -0.10466 0.14115
 C870 C 0.50369 -0.08642 0.15815
 C871 C 0.51568 -0.08314 0.20249
 C872 C 0.51542 -0.09805 0.22994
 C873 C 0.50368 -0.07107 0.13079
 C874 C 0.50353 -0.05822 0.10832
 H875 H 0.50473 -0.14661 0.37290
 H876 H 0.50509 -0.12058 0.32421
 H877 H 0.50015 -0.14818 0.16945
 H878 H 0.49945 -0.17429 0.21875
 H879 H 0.48145 -0.13361 0.15521
 H880 H 0.48209 -0.10735 0.10701
 H881 H 0.52520 -0.06907 0.21594
 H882 H 0.52494 -0.09518 0.26382
 C883 C 0.30778 0.49935 0.34541
 C884 C 0.32034 0.49927 0.32093
 C885 C 0.33536 0.49907 0.29216
 C886 C 0.35282 0.50637 0.31713
 C887 C 0.36737 0.50598 0.28958
 C888 C 0.36465 0.49825 0.23661
 C889 C 0.34705 0.49097 0.21182
 C890 C 0.33251 0.49139 0.23945
 C891 C 0.38010 0.49774 0.20752
 C892 C 0.37680 0.48196 0.17717
 C893 C 0.39142 0.48142 0.15042
 C894 C 0.40949 0.49664 0.15360
 C895 C 0.41289 0.51243 0.18344
 C896 C 0.39831 0.51299 0.21024
 C897 C 0.42461 0.49607 0.12666
 C898 C 0.43749 0.49589 0.10454
 H899 H 0.35515 0.51227 0.35803
 H900 H 0.38068 0.51146 0.31006
 H901 H 0.34459 0.48514 0.17084
 H902 H 0.31905 0.48572 0.21973
 H903 H 0.36298 0.46991 0.17488
 H904 H 0.38864 0.46910 0.12754
 H905 H 0.42682 0.52431 0.18601
 H906 H 0.40125 0.52543 0.23263
 C907 C 1.18840 0.69261 0.35379
 C908 C 1.17574 0.67975 0.33020
 C909 C 1.16062 0.66429 0.30244
 C910 C 1.15158 0.66737 0.25862
 C911 C 1.13682 0.65233 0.23186
 C912 C 1.13092 0.63399 0.24861
 C913 C 1.14014 0.63104 0.29264
 C914 C 1.15488 0.64610 0.31936
 C915 C 1.11519 0.61801 0.22041
 C916 C 1.11586 0.60174 0.20908
 C917 C 1.10104 0.58672 0.18245
 C918 C 1.08535 0.58775 0.16688
 C919 C 1.08453 0.60385 0.17805
 C920 C 1.09933 0.61888 0.20463
 C921 C 1.07014 0.57237 0.13913
 C922 C 1.05736 0.55960 0.11564
 H923 H 1.15595 0.68140 0.24510
 H924 H 1.13017 0.65504 0.19765
 H925 H 1.13577 0.61711 0.30695
 H926 H 1.16176 0.64356 0.35335
 H927 H 1.12796 0.60073 0.22011
 H928 H 1.10184 0.57434 0.17383
 H929 H 1.07243 0.60477 0.16627
 H930 H 1.09828 0.63110 0.21345
 C931 C 0.50306 0.19218 0.35467
 C932 C 0.50272 0.17925 0.33104
 C933 C 0.50204 0.16366 0.30314
 C934 C 0.51816 0.16519 0.27992
 C935 C 0.51746 0.14998 0.25299
 C936 C 0.50059 0.13303 0.24892
 C937 C 0.48447 0.13164 0.27242
 C938 C 0.48521 0.14686 0.29934
 C939 C 0.49980 0.11685 0.22033
 C940 C 0.48463 0.10539 0.18624
 C941 C 0.48386 0.09014 0.15943
 C942 C 0.49822 0.08613 0.16633
 C943 C 0.51337 0.09743 0.20012
 C944 C 0.51417 0.11270 0.22696
 C945 C 0.49746 0.07049 0.13845
 C946 C 0.49693 0.05747 0.11490
 H947 H 0.53126 0.17815 0.28252
 H948 H 0.53005 0.15156 0.23473
 H949 H 0.47134 0.11872 0.27065
 H950 H 0.47266 0.14550 0.31734
 H951 H 0.47347 0.10836 0.17971
 H952 H 0.47211 0.08152 0.13317
 H953 H 0.52455 0.09443 0.20580
 H954 H 0.52591 0.12111 0.25346
 C955 C 0.69236 0.50401 0.35461
 C956 C 0.67966 0.50404 0.33070
 C957 C 0.66439 0.50396 0.30241
 C958 C 0.66136 0.51901 0.30788
 C959 C 0.64643 0.51886 0.28079
 C960 C 0.63431 0.50362 0.24790
 C961 C 0.63750 0.48857 0.24265
 C962 C 0.65244 0.48876 0.26973
 C963 C 0.61841 0.50342 0.21924
 C964 C 0.60099 0.48702 0.21668
 C965 C 0.58604 0.48686 0.18971
 C966 C 0.58829 0.50306 0.16493
 C967 C 0.60555 0.51944 0.16723
 C968 C 0.62052 0.51964 0.19421
 C969 C 0.57293 0.50289 0.13702
 C970 C 0.56011 0.50282 0.11347
 H971 H 0.67048 0.53082 0.33326
 H972 H 0.64421 0.53054 0.28623
 H973 H 0.62857 0.47676 0.21707
 H974 H 0.65469 0.47705 0.26515
 H975 H 0.59886 0.47438 0.23615
 H976 H 0.57272 0.47411 0.18828
 H977 H 0.60746 0.53205 0.14802
 H978 H 0.63381 0.53242 0.19484
 C979 C 0.81121 0.30617 0.35056
 C980 C 0.82393 0.31860 0.32588
 C981 C 0.83905 0.33363 0.29675
 C982 C 0.84571 0.33019 0.24793
 C983 C 0.86030 0.34486 0.21949
 C984 C 0.86841 0.36317 0.23952
 C985 C 0.86163 0.36646 0.28871
 C986 C 0.84705 0.35178 0.31708
 C987 C 0.88386 0.37880 0.20936
 C988 C 0.88455 0.39602 0.20457
 C989 C 0.89925 0.41083 0.17700
 C990 C 0.91346 0.40866 0.15384
 C991 C 0.91286 0.39156 0.15803
 C992 C 0.89815 0.37671 0.18556
 C993 C 0.92880 0.42409 0.12668
 C994 C 0.94166 0.43719 0.10455
 H995 H 0.83957 0.31620 0.23174
 H996 H 0.86507 0.34191 0.18143
 H997 H 0.86775 0.38035 0.30561
 H998 H 0.84204 0.35459 0.35491
 H999 H 0.87363 0.39799 0.22176
 H1000 H 0.89957 0.42400 0.17391
 H1001 H 0.92383 0.38975 0.14042
 H1002 H 0.89813 0.36371 0.18911
   
