data_POSCAR
  _audit_creation_date              2014-09-24
  _audit_creation_method            'ToBaCCo'
  _symmetry_space_group_name_H-M    'P1'
  _symmetry_Int_Tables_number       1
  _symmetry_cell_setting            triclinic
  loop_
  _symmetry_equiv_pos_as_xyz
 x,y,z
_cell_length_a 18.1822
_cell_length_b 18.2159
_cell_length_c 9.2089
_cell_angle_alpha 90.000200
_cell_angle_beta 89.834200
_cell_angle_gamma 119.986300
loop_
  _atom_site_label
  _atom_site_type_symbol
  _atom_site_fract_x
  _atom_site_fract_y
  _atom_site_fract_z
O1 O 0.39709 0.91752 0.63596
 O2 O 0.48125 1.08508 0.35774
 O3 O 0.40077 0.92018 0.35317
 O4 O 0.48231 1.08205 0.64107
 O5 O 0.60471 1.08388 0.63617
 O6 O 0.52102 0.91771 0.35636
 O7 O 0.60123 1.08226 0.35208
 O8 O 0.51941 0.91916 0.63905
 Cu9 Cu 0.42823 1.00133 0.49699
 Cu10 Cu 0.57385 1.00087 0.49583
 C11 C 0.44415 0.89049 0.68609
 C12 C 0.55504 1.11140 0.30568
 C13 C 0.44705 0.89122 0.30613
 C14 C 0.55738 1.11033 0.68789
 O15 O 0.08441 0.48041 0.64254
 O16 O -0.08323 0.39614 0.36514
 O17 O 0.08131 0.48166 0.35945
 O18 O -0.08078 0.40016 0.64903
 O19 O -0.08431 0.51954 0.64376
 O20 O 0.08322 0.60386 0.36414
 O21 O -0.08138 0.51831 0.36058
 O22 O 0.08089 0.59980 0.64814
 Cu23 Cu 0.00045 0.42746 0.50425
 Cu24 Cu -0.00041 0.57252 0.50437
 C25 C 0.11049 0.55395 0.69428
 C26 C -0.10971 0.44334 0.31365
 C27 C 0.10964 0.55663 0.31223
 C28 C -0.11037 0.44597 0.69568
 O29 O 0.39556 0.47963 0.36197
 O30 O 0.47935 0.39708 0.64183
 O31 O 0.39845 0.48106 0.64608
 O32 O 0.48020 0.39949 0.35916
 O33 O 0.60251 0.51992 0.36201
 O34 O 0.51844 0.60358 0.64029
 O35 O 0.59962 0.51950 0.64478
 O36 O 0.51796 0.59993 0.35695
 Cu37 Cu 0.42613 0.42720 0.50245
 Cu38 Cu 0.57176 0.57297 0.50109
 C39 C 0.44292 0.55326 0.31009
 C40 C 0.55340 0.44438 0.69183
 C41 C 0.44461 0.55632 0.69232
 C42 C 0.55540 0.44593 0.31192
 O43 O 0.46097 0.66293 -0.15658
 O44 O 0.46237 0.80609 -0.14135
 C45 C 0.41177 0.82672 -0.19774
 O46 O 0.33535 0.79657 -0.15759
 O47 O 0.19203 0.65529 -0.13953
 C48 C 0.17097 0.58393 -0.19565
 O49 O 0.20123 0.53797 -0.15520
 O50 O 0.34308 0.53661 -0.14058
 C51 C 0.41468 0.58682 -0.19711
 O52 O 0.46201 0.65522 0.13545
 O53 O 0.46113 0.79687 0.15057
 C54 C 0.41530 0.82748 0.19030
 O55 O 0.34413 0.80708 0.13407
 O56 O 0.20231 0.66435 0.15284
 C57 C 0.17234 0.58831 0.19394
 O58 O 0.19237 0.53739 0.13692
 O59 O 0.33503 0.53808 0.15198
 C60 C 0.41117 0.58425 0.19244
 Cr61 Cr 0.45583 0.72739 -0.00304
 Cr62 Cr 0.27129 0.72789 -0.00257
 Cr63 Cr 0.27085 0.54328 -0.00180
 O64 O 0.33267 0.66619 -0.00258
 O65 O 0.53906 0.33608 -0.15217
 O66 O 0.53827 0.19344 -0.13796
 C67 C 0.58913 0.17308 -0.19456
 O68 O 0.66523 0.20278 -0.15373
 O69 O 0.80807 0.34441 -0.13761
 C70 C 0.82916 0.41589 -0.19354
 O71 O 0.79893 0.46183 -0.15236
 O72 O 0.65667 0.46271 -0.13685
 C73 C 0.58521 0.41227 -0.19246
 O74 O 0.53732 0.34320 0.13974
 O75 O 0.53869 0.20154 0.15415
 C76 C 0.58496 0.17167 0.19499
 O77 O 0.65660 0.19293 0.13874
 O78 O 0.79809 0.33570 0.15489
 C79 C 0.82757 0.41159 0.19610
 O80 O 0.80708 0.46224 0.13974
 O81 O 0.66397 0.46086 0.15501
 C82 C 0.58772 0.41450 0.19564
 Cr83 Cr 0.54415 0.27145 0.00095
 Cr84 Cr 0.72910 0.27184 0.00057
 Cr85 Cr 0.72879 0.45611 0.00132
 O86 O 0.66733 0.33314 0.00090
   
