data_POSCAR
  _audit_creation_date              2014-09-24
  _audit_creation_method            'ToBaCCo'
  _symmetry_space_group_name_H-M    'P1'
  _symmetry_Int_Tables_number       1
  _symmetry_cell_setting            triclinic
  loop_
  _symmetry_equiv_pos_as_xyz
 x,y,z
_cell_length_a 42.6713
_cell_length_b 31.2844
_cell_length_c 31.4174
_cell_angle_alpha 90.012800
_cell_angle_beta 89.963400
_cell_angle_gamma 90.041700
loop_
  _atom_site_label
  _atom_site_type_symbol
  _atom_site_fract_x
  _atom_site_fract_y
  _atom_site_fract_z
Si1 Si 1.24973 0.25007 0.25003
 Si2 Si 0.74992 -0.25021 0.25019
 Si3 Si 0.74991 0.25016 -0.24989
 Si4 Si 1.25001 -0.25000 -0.24982
 Si5 Si 0.24981 0.25054 0.74976
 Si6 Si 0.74972 0.75035 0.74962
 Si7 Si 0.74998 0.25068 0.24964
 Si8 Si 0.24981 0.75045 0.24961
 O9 O 1.04421 0.07242 0.07934
 O10 O 1.07885 0.03446 0.03789
 C11 C 1.07231 0.06149 0.06786
 O12 O 0.95630 -0.07934 0.07393
 O13 O 0.92179 -0.03810 0.03576
 C14 C 0.92825 -0.06794 0.06291
 O15 O 1.04405 -0.07521 0.07830
 O16 O 1.07881 -0.03680 0.03751
 C17 C 1.07223 -0.06433 0.06705
 O18 O 0.95656 0.07747 0.07511
 O19 O 0.92195 0.03687 0.03627
 C20 C 0.92847 0.06634 0.06389
 Zr21 Zr 1.00026 0.05328 0.05434
 O22 O 0.99779 0.05552 0.12154
 O23 O 1.00173 0.12059 0.04897
 Zr24 Zr 1.00017 -0.05462 0.05420
 O25 O 0.99851 -0.05026 0.12130
 O26 O 1.00315 -0.12212 0.05612
 O27 O 1.02813 -0.00082 0.06265
 O28 O 0.97280 -0.00071 0.06189
 O29 O 0.95695 0.07817 -0.07364
 O30 O 0.92210 0.03712 -0.03564
 C31 C 0.92877 0.06686 -0.06291
 O32 O 1.04435 -0.07451 -0.07735
 O33 O 1.07890 -0.03627 -0.03613
 C34 C 1.07241 -0.06352 -0.06587
 O35 O 0.95630 -0.07808 -0.07400
 O36 O 0.92159 -0.03726 -0.03553
 C37 C 0.92817 -0.06676 -0.06306
 O38 O 1.04461 0.07340 -0.07713
 O39 O 1.07903 0.03480 -0.03609
 C40 C 1.07266 0.06223 -0.06576
 Zr41 Zr 1.00057 0.05384 -0.05266
 O42 O 0.99793 0.05767 -0.11980
 O43 O 1.00200 0.12104 -0.04604
 Zr44 Zr 1.00033 -0.05433 -0.05346
 O45 O 0.99701 -0.05400 -0.12070
 O46 O 1.00369 -0.12185 -0.05354
 Zr47 Zr 1.04696 -0.00081 0.00070
 Zr48 Zr 0.95344 -0.00057 0.00031
 O49 O 0.97327 -0.00014 -0.06105
 O50 O 1.02833 -0.00032 -0.06143
 O51 O 0.97227 0.06172 0.00074
 O52 O 1.02740 -0.06251 0.00043
 O53 O 1.02797 0.06115 0.00098
 O54 O 0.97229 -0.06289 0.00022
 H55 H 0.95865 -0.00076 0.08691
 H56 H 1.04147 -0.08769 0.00044
 H57 H 0.95932 0.00008 -0.08625
 H58 H 1.04239 0.08600 0.00117
 H59 H 0.98780 -0.13334 0.03537
 H60 H 0.98575 -0.13310 -0.03702
 H61 H 1.01480 -0.03701 -0.13176
 H62 H 1.01206 0.03548 -0.13132
 H63 H 1.00268 0.13270 -0.07535
 H64 H 1.00234 0.13170 0.07850
 H65 H 1.00948 0.03043 0.13223
 H66 H 0.99860 -0.08006 0.13199
 O67 O 1.04436 0.57449 0.57773
 O68 O 1.07894 0.53677 0.53596
 C69 C 1.07244 0.56369 0.56605
 O70 O 0.95676 0.42238 0.57323
 O71 O 0.92200 0.46332 0.53514
 C72 C 0.92861 0.43359 0.56241
 O73 O 1.04472 0.42716 0.57677
 O74 O 1.07912 0.46575 0.53553
 C75 C 1.07276 0.43829 0.56520
 O76 O 0.95643 0.57867 0.57390
 O77 O 0.92182 0.53746 0.53557
 C78 C 0.92832 0.56711 0.56302
 Zr79 Zr 1.00038 0.55516 0.55300
 O80 O 0.99828 0.55781 0.62021
 O81 O 1.00153 0.62247 0.54752
 Zr82 Zr 1.00063 0.44708 0.55306
 O83 O 0.99929 0.45109 0.62018
 O84 O 1.00393 0.37960 0.55467
 O85 O 1.02841 0.50119 0.56111
 O86 O 0.97325 0.50091 0.56102
 O87 O 0.95602 0.57915 0.42596
 O88 O 0.92163 0.53767 0.46439
 C89 C 0.92799 0.56747 0.43708
 O90 O 1.04434 0.42734 0.42116
 O91 O 1.07889 0.46607 0.46190
 C92 C 1.07240 0.43860 0.43236
 O93 O 0.95651 0.42309 0.42500
 O94 O 0.92198 0.46403 0.46349
 C95 C 0.92844 0.43443 0.43605
 O96 O 1.04401 0.57564 0.42110
 O97 O 1.07877 0.53728 0.46183
 C98 C 1.07219 0.56473 0.43221
 Zr99 Zr 1.00014 0.55560 0.44599
 O100 O 0.99706 0.55929 0.37889
 O101 O 1.00129 0.62284 0.45232
 Zr102 Zr 1.00037 0.44729 0.44534
 O103 O 0.99676 0.44768 0.37812
 O104 O 1.00402 0.37980 0.44539
 Zr105 Zr 1.04699 0.50135 0.49899
 Zr106 Zr 0.95371 0.50080 0.49961
 O107 O 0.97310 0.50134 0.43799
 O108 O 1.02808 0.50159 0.43703
 O109 O 0.97213 0.56332 0.49969
 O110 O 1.02770 0.43945 0.49903
 O111 O 1.02779 0.56318 0.49939
 O112 O 0.97259 0.43856 0.49931
 H113 H 0.95920 0.50077 0.58614
 H114 H 1.04189 0.41440 0.49895
 H115 H 0.95902 0.50144 0.41292
 H116 H 1.04213 0.58811 0.49945
 H117 H 0.98796 0.36827 0.53485
 H118 H 0.98633 0.36848 0.46235
 H119 H 1.01447 0.46475 0.36694
 H120 H 1.01133 0.53732 0.36725
 H121 H 1.00143 0.63437 0.42295
 H122 H 1.00204 0.63362 0.57703
 H123 H 1.00938 0.53220 0.63086
 H124 H 0.99949 0.42124 0.63072
 O125 O 0.54312 0.07312 0.57784
 O126 O 0.57809 0.03558 0.53645
 C127 C 0.57135 0.06256 0.56644
 O128 O 0.45580 -0.07940 0.57244
 O129 O 0.42109 -0.03853 0.53421
 C130 C 0.42771 -0.06826 0.56142
 O131 O 0.54355 -0.07432 0.57671
 O132 O 0.57827 -0.03568 0.53599
 C133 C 0.57169 -0.06320 0.56550
 O134 O 0.45538 0.07733 0.57359
 O135 O 0.42091 0.03646 0.53477
 C136 C 0.42733 0.06599 0.56240
 Zr137 Zr 0.49919 0.05351 0.55282
 O138 O 0.49672 0.05575 0.62003
 O139 O 0.50030 0.12084 0.54747
 Zr140 Zr 0.49954 -0.05428 0.55264
 O141 O 0.49783 -0.05007 0.61974
 O142 O 0.50288 -0.12175 0.55459
 O143 O 0.52730 -0.00030 0.56120
 O144 O 0.47194 -0.00066 0.56037
 O145 O 0.45580 0.07809 0.42514
 O146 O 0.42113 0.03667 0.46302
 C147 C 0.42771 0.06653 0.43590
 O148 O 0.54353 -0.07432 0.42092
 O149 O 0.57793 -0.03582 0.46203
 C150 C 0.57154 -0.06317 0.43234
 O151 O 0.45577 -0.07815 0.42429
 O152 O 0.42086 -0.03773 0.46280
 C153 C 0.42756 -0.06713 0.43517
 O154 O 0.54317 0.07434 0.42104
 O155 O 0.57776 0.03611 0.46202
 C156 C 0.57125 0.06344 0.43235
 Zr157 Zr 0.49951 0.05406 0.44591
 O158 O 0.49675 0.05780 0.37877
 O159 O 0.50061 0.12127 0.45266
 Zr160 Zr 0.49971 -0.05405 0.44506
 O161 O 0.49641 -0.05359 0.37781
 O162 O 0.50330 -0.12156 0.44527
 Zr163 Zr 0.54630 -0.00009 0.49932
 Zr164 Zr 0.45259 -0.00075 0.49882
 O165 O 0.47242 -0.00010 0.43747
 O166 O 0.52757 0.00017 0.43721
 O167 O 0.47116 0.06169 0.49926
 O168 O 0.52687 -0.06192 0.49895
 O169 O 0.52692 0.06164 0.49953
 O170 O 0.47169 -0.06288 0.49870
 H171 H 0.45781 -0.00085 0.58541
 H172 H 0.54100 -0.08704 0.49900
 H173 H 0.45847 0.00002 0.41227
 H174 H 0.54118 0.08665 0.49972
 H175 H 0.48756 -0.13314 0.53389
 H176 H 0.48524 -0.13289 0.46148
 H177 H 0.51416 -0.03653 0.36678
 H178 H 0.51096 0.03572 0.36722
 H179 H 0.50102 0.13302 0.42338
 H180 H 0.50091 0.13195 0.57699
 H181 H 0.50853 0.03077 0.63072
 H182 H 0.49817 -0.07988 0.63039
 O183 O 0.54376 0.57389 0.07922
 O184 O 0.57818 0.53591 0.03741
 C185 C 0.57180 0.56290 0.06750
 O186 O 0.45580 0.42211 0.07451
 O187 O 0.42127 0.46359 0.03672
 C188 C 0.42776 0.43362 0.06371
 O189 O 0.54350 0.42649 0.07810
 O190 O 0.57806 0.46486 0.03696
 C191 C 0.57158 0.43742 0.06657
 O192 O 0.45579 0.57881 0.07559
 O193 O 0.42099 0.53812 0.03705
 C194 C 0.42760 0.56762 0.06467
 Zr195 Zr 0.49967 0.55489 0.05459
 O196 O 0.49753 0.55726 0.12181
 O197 O 0.50114 0.62220 0.04929
 Zr198 Zr 0.49951 0.44690 0.05440
 O199 O 0.49815 0.45120 0.12151
 O200 O 0.50252 0.37940 0.05622
 O201 O 0.52752 0.50070 0.06258
 O202 O 0.47228 0.50090 0.06240
 O203 O 0.45555 0.57941 -0.07261
 O204 O 0.42087 0.53822 -0.03434
 C205 C 0.42745 0.56796 -0.06162
 O206 O 0.54311 0.42671 -0.07753
 O207 O 0.57786 0.46502 -0.03671
 C208 C 0.57126 0.43761 -0.06632
 O209 O 0.45511 0.42351 -0.07351
 O210 O 0.42071 0.46439 -0.03464
 C211 C 0.42708 0.43488 -0.06227
 O212 O 0.54344 0.57494 -0.07735
 O213 O 0.57800 0.53623 -0.03663
 C214 C 0.57152 0.56369 -0.06622
 Zr215 Zr 0.49952 0.55545 -0.05244
 O216 O 0.49653 0.55952 -0.11952
 O217 O 0.50105 0.62266 -0.04593
 Zr218 Zr 0.49921 0.44718 -0.05332
 O219 O 0.49562 0.44771 -0.12054
 O220 O 0.50246 0.37964 -0.05339
 Zr221 Zr 0.54609 0.50070 0.00045
 Zr222 Zr 0.45275 0.50114 0.00096
 O223 O 0.47220 0.50148 -0.06063
 O224 O 0.52719 0.50120 -0.06151
 O225 O 0.47151 0.56345 0.00123
 O226 O 0.52650 0.43899 0.00037
 O227 O 0.52716 0.56269 0.00098
 O228 O 0.47140 0.43873 0.00063
 H229 H 0.45821 0.50083 0.08750
 H230 H 0.54056 0.41381 0.00028
 H231 H 0.45811 0.50171 -0.08568
 H232 H 0.54161 0.58751 0.00104
 H233 H 0.48707 0.36818 0.03560
 H234 H 0.48459 0.36845 -0.03671
 H235 H 0.51351 0.46444 -0.13169
 H236 H 0.51028 0.53698 -0.13123
 H237 H 0.50126 0.63427 -0.07527
 H238 H 0.50168 0.63327 0.07884
 H239 H 0.50905 0.53198 0.13241
 H240 H 0.49836 0.42139 0.13218
 C241 C 1.18619 0.16736 0.17408
 N242 N 1.17046 0.13498 0.19326
 N243 N 1.14921 0.11246 0.17174
 C244 C 1.14309 0.12166 0.13040
 N245 N 1.15889 0.15396 0.11119
 N246 N 1.18013 0.17648 0.13271
 C247 C 1.20761 0.19320 0.19794
 C248 C 1.22492 0.21554 0.21842
 C249 C 1.11886 0.09929 0.10807
 C250 C 1.09788 0.08148 0.08959
 C251 C 1.18647 0.66803 0.67346
 N252 N 1.18029 0.67795 0.63231
 N253 N 1.15901 0.65582 0.61045
 C254 C 1.14330 0.62312 0.62911
 N255 N 1.14955 0.61311 0.67023
 N256 N 1.17082 0.63525 0.69209
 C257 C 1.20789 0.69348 0.69772
 C258 C 1.22520 0.71559 0.71844
 C259 C 1.11904 0.60113 0.60647
 C260 C 1.09805 0.58355 0.58782
 C261 C 0.68546 0.16853 0.67344
 N262 N 0.67045 0.13508 0.69191
 N263 N 0.64905 0.11286 0.67029
 C264 C 0.64199 0.12342 0.62953
 N265 N 0.65705 0.15681 0.61104
 N266 N 0.67844 0.17902 0.63266
 C267 C 0.70723 0.19391 0.69751
 C268 C 0.72482 0.21588 0.71814
 C269 C 0.61774 0.10096 0.60699
 C270 C 0.59684 0.08294 0.58834
 C271 C 0.68627 0.66754 0.17384
 N272 N 0.67072 0.63480 0.19270
 N273 N 0.64937 0.61256 0.17108
 C274 C 0.64294 0.62241 0.12998
 N275 N 0.65855 0.65508 0.11109
 N276 N 0.67990 0.67732 0.13270
 C277 C 0.70776 0.69313 0.19786
 C278 C 0.72511 0.71532 0.21846
 C279 C 0.61859 0.60033 0.10760
 C280 C 0.59751 0.58272 0.08912
 C281 C 0.81379 -0.17396 0.16813
 N282 N 0.82903 -0.19300 0.13533
 N283 N 0.85043 -0.17149 0.11304
 C284 C 0.85720 -0.13031 0.12290
 N285 N 0.84190 -0.11124 0.15563
 N286 N 0.82050 -0.13274 0.17791
 C287 C 0.79222 -0.19789 0.19371
 C288 C 0.77480 -0.21844 0.21585
 C289 C 0.88156 -0.10803 0.10068
 C290 C 0.90262 -0.08959 0.08293
 C291 C 0.81428 0.32706 0.66854
 N292 N 0.82176 0.36782 0.67924
 N293 N 0.84318 0.38938 0.65700
 C294 C 0.85779 0.37086 0.62336
 N295 N 0.85026 0.33013 0.61260
 N296 N 0.82884 0.30857 0.63485
 C297 C 0.79250 0.30300 0.69395
 C298 C 0.77493 0.28232 0.71590
 C299 C 0.88209 0.39329 0.60087
 C300 C 0.90304 0.41184 0.58281
 C301 C 0.31371 -0.17407 0.66766
 N302 N 0.32019 -0.13267 0.67689
 N303 N 0.34150 -0.11126 0.65436
 C304 C 0.35695 -0.13064 0.62194
 N305 N 0.35041 -0.17202 0.61263
 N306 N 0.32909 -0.19342 0.63516
 C307 C 0.29222 -0.19784 0.69347
 C308 C 0.27485 -0.21830 0.71577
 C309 C 0.38121 -0.10844 0.59948
 C310 C 0.40218 -0.09000 0.58157
 C311 C 0.31339 0.32681 0.16822
 N312 N 0.32859 0.30810 0.13521
 N313 N 0.34997 0.32982 0.11311
 C314 C 0.35677 0.37089 0.12337
 N315 N 0.34150 0.38964 0.15631
 N316 N 0.32013 0.36792 0.17841
 C317 C 0.29188 0.30264 0.19363
 C318 C 0.27452 0.28193 0.21570
 C319 C 0.38111 0.39337 0.10134
 C320 C 0.40215 0.41192 0.08370
 C321 C 0.81444 0.17323 -0.16883
 N322 N 0.82854 0.19134 -0.13458
 N323 N 0.84999 0.16977 -0.11247
 C324 C 0.85801 0.12942 -0.12392
 N325 N 0.84387 0.11128 -0.15811
 N326 N 0.82242 0.13284 -0.18022
 C327 C 0.79263 0.19732 -0.19405
 C328 C 0.77501 0.21802 -0.21586
 C329 C 0.88231 0.10701 -0.10148
 C330 C 0.90325 0.08852 -0.08342
 C331 C 0.81350 0.67318 0.33209
 N332 N 0.82078 0.63237 0.32146
 N333 N 0.84214 0.61079 0.34367
 C334 C 0.85683 0.62939 0.37715
 N335 N 0.84949 0.67016 0.38786
 N336 N 0.82813 0.69174 0.36565
 C337 C 0.79201 0.69726 0.30661
 C338 C 0.77468 0.71793 0.28451
 C339 C 0.88119 0.60713 0.39930
 C340 C 0.90228 0.58883 0.41703
 C341 C 0.31347 0.17318 0.33136
 N342 N 0.32807 0.19145 0.36510
 N343 N 0.34945 0.16970 0.38711
 C344 C 0.35684 0.12906 0.37601
 N345 N 0.34218 0.11074 0.34235
 N346 N 0.32081 0.13249 0.32033
 C347 C 0.29195 0.19743 0.30612
 C348 C 0.27457 0.21819 0.28419
 C349 C 0.38115 0.10660 0.39804
 C350 C 0.40215 0.08811 0.41575
 C351 C 0.31348 0.67360 -0.16764
 N352 N 0.32806 0.69232 -0.13413
 N353 N 0.34934 0.67082 -0.11171
 C354 C 0.35664 0.62997 -0.12215
 N355 N 0.34199 0.61120 -0.15558
 N356 N 0.32072 0.63270 -0.17800
 C357 C 0.29206 0.69756 -0.19331
 C358 C 0.27476 0.71816 -0.21550
 C359 C 0.38090 0.60777 -0.09976
 C360 C 0.40188 0.58944 -0.08184
 C361 C 1.18652 -0.16808 -0.17296
 N362 N 1.17130 -0.13485 -0.19136
 N363 N 1.15001 -0.11275 -0.16951
 C364 C 1.14331 -0.12324 -0.12863
 N365 N 1.15859 -0.15640 -0.11019
 N366 N 1.17989 -0.17850 -0.13204
 C367 C 1.20795 -0.19349 -0.19725
 C368 C 1.22526 -0.21557 -0.21801
 C369 C 1.11903 -0.10122 -0.10604
 C370 C 1.09803 -0.08357 -0.08748
 C371 C 1.18635 0.33260 0.32641
 N372 N 1.17139 0.36588 0.30770
 N373 N 1.15015 0.38836 0.32926
 C374 C 1.14325 0.37821 0.37016
 N375 N 1.15827 0.34500 0.38891
 N376 N 1.17951 0.32252 0.36735
 C377 C 1.20773 0.30683 0.30242
 C378 C 1.22500 0.28455 0.28182
 C379 C 1.11900 0.40059 0.39244
 C380 C 1.09801 0.41847 0.41083
 C381 C 0.68613 -0.16811 0.32647
 N382 N 0.67927 -0.17836 0.36736
 N383 N 0.65786 -0.15616 0.38892
 C384 C 0.64269 -0.12306 0.37021
 N385 N 0.64961 -0.11273 0.32936
 N386 N 0.67102 -0.13493 0.30780
 C387 C 0.70768 -0.19362 0.30247
 C388 C 0.72508 -0.21576 0.28189
 C389 C 0.61831 -0.10093 0.39250
 C390 C 0.59722 -0.08321 0.41087
 C391 C 0.68556 0.33165 -0.17292
 N392 N 0.67797 0.32051 -0.13247
 N393 N 0.65656 0.34269 -0.11085
 C394 C 0.64207 0.37669 -0.12899
 N395 N 0.64971 0.38789 -0.16940
 N396 N 0.67112 0.36571 -0.19103
 C397 C 0.70732 0.30632 -0.19705
 C398 C 0.72488 0.28439 -0.21776
 C399 C 0.61778 0.39913 -0.10651
 C400 C 0.59683 0.41717 -0.08798
 C401 C 1.18622 0.16857 -0.17292
 N402 N 1.17183 0.13439 -0.19093
 N403 N 1.15073 0.11191 -0.16906
 C404 C 1.14339 0.12290 -0.12850
 N405 N 1.15784 0.15702 -0.11045
 N406 N 1.17894 0.17950 -0.13233
 C407 C 1.20760 0.19420 -0.19727
 C408 C 1.22492 0.21630 -0.21812
 C409 C 1.11927 0.10038 -0.10589
 C410 C 1.09833 0.08240 -0.08733
 C411 C 1.18657 0.67099 0.32524
 N412 N 1.17217 0.63679 0.30723
 N413 N 1.15075 0.61460 0.32888
 C414 C 1.14302 0.62590 0.36925
 N415 N 1.15747 0.66005 0.38729
 N416 N 1.17889 0.68224 0.36563
 C417 C 1.20842 0.69632 0.30104
 C418 C 1.22603 0.71820 0.28023
 C419 C 1.11873 0.60334 0.39182
 C420 C 1.09779 0.58522 0.41043
 C421 C 0.68574 0.16912 0.32631
 N422 N 0.67103 0.13541 0.30790
 N423 N 0.64960 0.11319 0.32943
 C424 C 0.64221 0.12402 0.37002
 N425 N 0.65697 0.15767 0.38846
 N426 N 0.67841 0.17989 0.36693
 C427 C 0.70744 0.19454 0.30229
 C428 C 0.72497 0.21652 0.28165
 C429 C 0.61787 0.10167 0.39235
 C430 C 0.59686 0.08374 0.41077
 C431 C 0.68575 0.66876 -0.17333
 N432 N 0.67053 0.63553 -0.19182
 N433 N 0.64919 0.61335 -0.17007
 C434 C 0.64244 0.62373 -0.12917
 N435 N 0.65772 0.65690 -0.11064
 N436 N 0.67905 0.67908 -0.13240
 C437 C 0.70735 0.69418 -0.19753
 C438 C 0.72479 0.71617 -0.21829
 C439 C 0.61815 0.60152 -0.10659
 C440 C 0.59716 0.58374 -0.08797
 C441 C 0.81381 -0.17259 -0.16909
 N442 N 0.82783 -0.19075 -0.13485
 N443 N 0.84925 -0.16920 -0.11264
 C444 C 0.85729 -0.12884 -0.12400
 N445 N 0.84321 -0.11063 -0.15817
 N446 N 0.82180 -0.13218 -0.18039
 C447 C 0.79214 -0.19669 -0.19444
 C448 C 0.77465 -0.21743 -0.21635
 C449 C 0.88160 -0.10655 -0.10159
 C450 C 0.90259 -0.08820 -0.08355
 C451 C 0.81399 0.32800 0.33082
 N452 N 0.82834 0.30981 0.36478
 N453 N 0.84975 0.33151 0.38688
 C454 C 0.85744 0.37205 0.37566
 N455 N 0.84302 0.39027 0.34176
 N456 N 0.82162 0.36857 0.31966
 C457 C 0.79234 0.30376 0.30555
 C458 C 0.77488 0.28293 0.28368
 C459 C 0.88177 0.39448 0.39789
 C460 C 0.90280 0.41293 0.41576
 C461 C 0.31312 -0.17373 0.32869
 N462 N 0.32684 -0.19151 0.36338
 N463 N 0.34832 -0.16991 0.38549
 C464 C 0.35679 -0.12983 0.37362
 N465 N 0.34303 -0.11202 0.33897
 N466 N 0.32155 -0.13362 0.31686
 C467 C 0.29122 -0.19794 0.30349
 C468 C 0.27359 -0.21880 0.28171
 C469 C 0.38110 -0.10733 0.39620
 C470 C 0.40202 -0.08880 0.41442
 C471 C 0.31335 0.32815 -0.16858
 N472 N 0.32728 0.31020 -0.13416
 N473 N 0.34843 0.33204 -0.11175
 C474 C 0.35627 0.37249 -0.12307
 N475 N 0.34228 0.39048 -0.15743
 N476 N 0.32113 0.36864 -0.17984
 C477 C 0.29195 0.30377 -0.19412
 C478 C 0.27464 0.28285 -0.21614
 C479 C 0.38043 0.39502 -0.10057
 C480 C 0.40139 0.41348 -0.08256
 C481 C 1.18665 -0.17038 0.17380
 N482 N 1.17267 -0.13568 0.19144
 N483 N 1.15124 -0.11361 0.16976
 C484 C 1.14308 -0.12552 0.12974
 N485 N 1.15710 -0.16017 0.11207
 N486 N 1.17853 -0.18224 0.13374
 C487 C 1.20849 -0.19557 0.19807
 C488 C 1.22608 -0.21736 0.21894
 C489 C 1.11878 -0.10304 0.10718
 C490 C 1.09784 -0.08492 0.08865
 C491 C 1.18635 0.33222 0.67218
 N492 N 1.17214 0.36663 0.69001
 N493 N 1.15104 0.38901 0.66810
 C494 C 1.14352 0.37768 0.62770
 N495 N 1.15779 0.34334 0.60984
 N496 N 1.17889 0.32096 0.63175
 C497 C 1.20770 0.30670 0.69660
 C498 C 1.22499 0.28468 0.71752
 C499 C 1.11940 0.40012 0.60510
 C500 C 1.09846 0.41807 0.58660
 C501 C 0.68579 -0.16837 0.67241
 N502 N 0.67862 -0.17933 0.63180
 N503 N 0.65728 -0.15724 0.61003
 C504 C 0.64247 -0.12351 0.62823
 N505 N 0.64970 -0.11248 0.66880
 N506 N 0.67104 -0.13457 0.69056
 C507 C 0.70739 -0.19365 0.69666
 C508 C 0.72482 -0.21555 0.71747
 C509 C 0.61822 -0.10130 0.60567
 C510 C 0.59726 -0.08345 0.58712
 C511 C 0.68603 0.33198 0.17250
 N512 N 0.67823 0.32047 0.13226
 N513 N 0.65683 0.34259 0.11064
 C514 C 0.64258 0.37688 0.12861
 N515 N 0.65045 0.38846 0.16881
 N516 N 0.67185 0.36634 0.19043
 C517 C 0.70766 0.30668 0.19668
 C518 C 0.72511 0.28478 0.21746
 C519 C 0.61825 0.39915 0.10627
 C520 C 0.59723 0.41706 0.08793
 C521 C 0.81410 0.17320 0.16880
 N522 N 0.82844 0.19121 0.13468
 N523 N 0.84984 0.16943 0.11268
 C524 C 0.85755 0.12899 0.12413
 N525 N 0.84315 0.11094 0.15818
 N526 N 0.82175 0.13272 0.18019
 C527 C 0.79244 0.19752 0.19395
 C528 C 0.77495 0.21840 0.21573
 C529 C 0.88186 0.10645 0.10197
 C530 C 0.90286 0.08793 0.08414
 C531 C 0.81383 0.67307 0.66859
 N532 N 0.82768 0.69094 0.63403
 N533 N 0.84911 0.66929 0.61193
 C534 C 0.85732 0.62914 0.62372
 N535 N 0.84341 0.61123 0.65822
 N536 N 0.82199 0.63288 0.68032
 C537 C 0.79216 0.69730 0.69382
 C538 C 0.77468 0.71812 0.71565
 C539 C 0.88166 0.60680 0.60143
 C540 C 0.90269 0.58846 0.58347
 C541 C 0.31357 0.17289 0.66847
 N542 N 0.32159 0.13263 0.68016
 N543 N 0.34277 0.11075 0.65786
 C544 C 0.35656 0.12845 0.62317
 N545 N 0.34848 0.16868 0.61142
 N546 N 0.32730 0.19056 0.63372
 C547 C 0.29211 0.19732 0.69386
 C548 C 0.27475 0.21826 0.71578
 C549 C 0.38072 0.10589 0.60073
 C550 C 0.40167 0.08741 0.58273
 C551 C 0.31309 0.67441 0.17072
 N552 N 0.32157 0.63443 0.18283
 N553 N 0.34303 0.61273 0.16080
 C554 C 0.35673 0.63031 0.12596
 N555 N 0.34820 0.67026 0.11380
 N556 N 0.32674 0.69196 0.13583
 C557 C 0.29121 0.69874 0.19584
 C558 C 0.27359 0.71967 0.21755
 C559 C 0.38105 0.60775 0.10348
 C560 C 0.40200 0.58922 0.08534
   
