data_POSCAR
  _audit_creation_date              2014-09-24
  _audit_creation_method            'ToBaCCo'
  _symmetry_space_group_name_H-M    'P1'
  _symmetry_Int_Tables_number       1
  _symmetry_cell_setting            triclinic
  loop_
  _symmetry_equiv_pos_as_xyz
 x,y,z
_cell_length_a 30.0809
_cell_length_b 31.0275
_cell_length_c 30.3082
_cell_angle_alpha 89.695900
_cell_angle_beta 89.048700
_cell_angle_gamma 88.241900
loop_
  _atom_site_label
  _atom_site_type_symbol
  _atom_site_fract_x
  _atom_site_fract_y
  _atom_site_fract_z
C1 C 0.20501 0.57257 1.02660
 H2 H 0.20767 0.59754 1.00173
 C3 C 0.17463 0.57780 1.06160
 H4 H 0.15450 0.60732 1.06355
 C5 C 0.22674 0.50313 1.05259
 H6 H 0.24618 0.47357 1.04825
 C7 C 0.19658 0.50683 1.08802
 H8 H 0.19491 0.47994 1.11063
 N9 N 0.23017 0.53564 1.02264
 C10 C 0.33495 0.56773 0.92760
 H11 H 0.33000 0.54274 0.90358
 C12 C 0.37046 0.59533 0.92241
 H13 H 0.39266 0.59152 0.89409
 C14 C 0.31284 0.60182 0.99454
 H15 H 0.29082 0.60369 1.02303
 C16 C 0.34782 0.63027 0.99054
 H17 H 0.35099 0.65449 1.01567
 Zn18 Zn 0.26428 0.52838 0.97010
 N19 N 0.30727 0.57117 0.96341
 C20 C 0.22307 0.56388 0.89379
 N21 N 0.22312 0.53132 0.92398
 C22 C 0.19053 0.50193 0.92516
 C23 C 0.15596 0.50450 0.89510
 C24 C 0.18885 0.56790 0.86331
 C25 C 0.32606 0.46724 1.00186
 C26 C 0.35367 0.43025 1.00072
 C27 C 0.31909 0.40988 0.93283
 C28 C 0.29186 0.44703 0.93551
 N29 N 0.29587 0.47485 0.96963
 H30 H 0.24864 0.58758 0.89427
 H31 H 0.19084 0.47710 0.95037
 H32 H 0.12967 0.48157 0.89776
 H33 H 0.18858 0.59452 0.84004
 H34 H 0.32945 0.49060 1.02788
 H35 H 0.37839 0.42567 1.02597
 H36 H 0.31625 0.38852 0.90493
 H37 H 0.26874 0.45435 0.90944
 C38 C 0.37793 0.62652 0.95453
 C39 C 0.16920 0.54439 1.09256
 C40 C 0.35048 0.40115 0.96561
 C41 C 0.15475 0.53805 0.86378
 C42 C 0.82384 0.50058 -0.03753
 H43 H 0.82804 0.52592 -0.01371
 C44 C 0.85055 0.49889 -0.07567
 H45 H 0.87531 0.52309 -0.08062
 C46 C 0.78893 0.43629 -0.05761
 H47 H 0.76603 0.41113 -0.04974
 C48 C 0.81522 0.43313 -0.09590
 H49 H 0.81182 0.40580 -0.11755
 N50 N 0.79380 0.46956 -0.02924
 C51 C 0.70539 0.52421 0.07313
 H52 H 0.70831 0.49876 0.09755
 C53 C 0.67516 0.55864 0.07999
 H54 H 0.65519 0.55963 0.11007
 C55 C 0.72657 0.55257 0.00347
 H56 H 0.74582 0.54952 -0.02681
 C57 C 0.69680 0.58770 0.00902
 H58 H 0.69500 0.61164 -0.01692
 Zn59 Zn 0.76428 0.47002 0.02636
 N60 N 0.73011 0.52160 0.03524
 C61 C 0.81605 0.49337 0.10020
 N62 N 0.80924 0.46307 0.06899
 C63 C 0.83686 0.42778 0.06474
 C64 C 0.87343 0.42214 0.09215
 C65 C 0.85224 0.48897 0.12843
 C66 C 0.69002 0.42544 0.00099
 C67 C 0.65608 0.39590 0.00475
 C68 C 0.69153 0.36618 0.06960
 C69 C 0.72513 0.39596 0.06427
 N70 N 0.72363 0.42493 0.03047
 H71 H 0.79399 0.52142 0.10271
 H72 H 0.83092 0.40441 0.03930
 H73 H 0.89541 0.39412 0.08779
 H74 H 0.85644 0.51341 0.15314
 H75 H 0.68904 0.44965 -0.02482
 H76 H 0.62898 0.39790 -0.01827
 H77 H 0.69248 0.34399 0.09730
 H78 H 0.75144 0.39693 0.08806
 C79 C 0.66980 0.59059 0.04743
 C80 C 0.84663 0.46451 -0.10524
 C81 C 0.65646 0.36595 0.03968
 C82 C 0.88211 0.45329 0.12398
 C83 C -0.04869 0.29494 0.42195
 H84 H -0.07710 0.27606 0.43087
 C85 C -0.05205 0.32554 0.38796
 H86 H -0.08315 0.32936 0.37061
 C87 C 0.02545 0.31419 0.43509
 H88 H 0.05519 0.31023 0.45448
 C89 C 0.02375 0.34479 0.40129
 H90 H 0.05282 0.36377 0.39600
 N91 N -0.01025 0.28989 0.44463
 C92 C -0.07797 0.22353 0.54483
 H93 H -0.06741 0.24529 0.57002
 C94 C -0.11246 0.19561 0.55420
 H95 H -0.12866 0.19671 0.58638
 C96 C -0.06794 0.19353 0.47351
 H97 H -0.04934 0.19208 0.44266
 C98 C -0.10219 0.16501 0.48147
 H99 H -0.10920 0.14175 0.45631
 Zn100 Zn -0.00454 0.25339 0.49448
 N101 N -0.05638 0.22184 0.50507
 C102 C -0.02532 0.32138 0.55073
 N103 N 0.00618 0.28999 0.54250
 C104 C 0.04480 0.28784 0.56523
 C105 C 0.05272 0.31817 0.59792
 C106 C -0.01891 0.35213 0.58320
 C107 C 0.06424 0.20839 0.44643
 C108 C 0.09550 0.17484 0.43924
 C109 C 0.08148 0.14943 0.51349
 C110 C 0.05042 0.18343 0.51922
 N111 N 0.04245 0.21208 0.48597
 H112 H -0.05517 0.32297 0.53127
 H113 H 0.06995 0.26337 0.55730
 H114 H 0.08386 0.31651 0.61538
 H115 H -0.04400 0.37746 0.58799
 H116 H 0.05646 0.23060 0.41990
 H117 H 0.11208 0.17202 0.40734
 H118 H 0.08596 0.12645 0.54009
 H119 H 0.03168 0.18639 0.54989
 C120 C -0.12481 0.16562 0.52252
 C121 C -0.01557 0.35112 0.37701
 C122 C 0.10449 0.14477 0.47290
 C123 C 0.02060 0.35073 0.60737
 C124 C 0.93330 0.71860 0.56943
 H125 H 0.90899 0.74398 0.56247
 C126 C 0.92461 0.68839 0.60267
 H127 H 0.89383 0.69112 0.62164
 C128 C 1.00186 0.68255 0.55183
 H129 H 1.03131 0.67991 0.53092
 C130 C 0.99457 0.65180 0.58455
 H131 H 1.01865 0.62545 0.58797
 N132 N 0.97153 0.71511 0.54493
 C133 C 0.91573 0.79484 0.44784
 H134 H 0.92322 0.77179 0.42198
 C135 C 0.88467 0.82833 0.44043
 H136 H 0.86793 0.83032 0.40908
 C137 C 0.92998 0.82175 0.51908
 H138 H 0.94876 0.81946 0.54919
 C139 C 0.89917 0.85575 0.51309
 H140 H 0.89495 0.87951 0.53889
 Zn141 Zn 0.98342 0.75024 0.49544
 N142 N 0.93751 0.79209 0.48676
 C143 C 0.95073 0.68822 0.44215
 N144 N 0.98741 0.71202 0.44726
 C145 C 1.02479 0.70478 0.42219
 C146 C 1.02621 0.67186 0.39064
 C147 C 0.95062 0.65536 0.41116
 C148 C 1.05610 0.77976 0.54356
 C149 C 1.09004 0.80799 0.55242
 C150 C 1.08307 0.83698 0.47864
 C151 C 1.04921 0.80815 0.47119
 N152 N 1.03611 0.78068 0.50363
 H153 H 0.92176 0.69424 0.46312
 H154 H 1.05386 0.72361 0.42750
 H155 H 1.05649 0.66647 0.37155
 H156 H 0.92113 0.63646 0.40822
 H157 H 1.04433 0.75868 0.56940
 H158 H 1.10464 0.80770 0.58486
 H159 H 1.09120 0.85977 0.45289
 H160 H 1.03185 0.80906 0.44021
 C161 C 0.87595 0.85928 0.47324
 C162 C 0.95551 0.65454 0.61066
 C163 C 1.10356 0.83752 0.52008
 C164 C 0.98877 0.64622 0.38532
 C165 C 0.45227 -0.05655 0.30888
 H166 H 0.48253 -0.07606 0.30546
 C167 C 0.42059 -0.06723 0.34101
 H168 H 0.42616 -0.09565 0.36133
 C169 C 0.40977 0.00594 0.28910
 H170 H 0.40614 0.03508 0.26968
 C171 C 0.37742 -0.00341 0.32101
 H172 H 0.34854 0.01802 0.32446
 N173 N 0.44675 -0.02008 0.28414
 C174 C 0.54015 -0.02781 0.17214
 H175 H 0.54968 0.00547 0.17176
 C176 C 0.55336 -0.05458 0.13723
 H177 H 0.57377 -0.04155 0.11085
 C178 C 0.49943 -0.08375 0.20530
 H179 H 0.47709 -0.09467 0.23091
 C180 C 0.51235 -0.11196 0.17123
 H181 H 0.49937 -0.14401 0.17209
 Zn182 Zn 0.49447 -0.00076 0.24776
 N183 N 0.51370 -0.04258 0.20537
 C184 C 0.58162 0.02715 0.26724
 N185 N 0.54254 0.01331 0.28477
 C186 C 0.53671 0.00940 0.32925
 C187 C 0.57114 0.01806 0.35773
 C188 C 0.61670 0.03719 0.29474
 C189 C 0.44362 0.04144 0.18423
 C190 C 0.43137 0.07428 0.15485
 C191 C 0.48365 0.12039 0.18967
 C192 C 0.49448 0.08681 0.21883
 N193 N 0.47516 0.04799 0.21491
 H194 H 0.58555 0.03094 0.23201
 H195 H 0.50522 -0.00002 0.34307
 H196 H 0.56562 0.01495 0.39299
 H197 H 0.64751 0.04845 0.28047
 H198 H 0.42898 0.01014 0.18180
 H199 H 0.40703 0.06824 0.12986
 H200 H 0.49979 0.15089 0.19282
 H201 H 0.51914 0.09144 0.24373
 C202 C 0.53954 -0.09734 0.13615
 C203 C 0.38334 -0.03979 0.34835
 C204 C 0.45251 0.11380 0.15646
 C205 C 0.61182 0.03182 0.34045
 C206 C 0.55998 -0.04688 0.72130
 H207 H 0.55360 -0.07255 0.74455
 C208 C 0.59399 -0.05212 0.68963
 H209 H 0.61390 -0.08181 0.68902
 C210 C 0.54066 0.02212 0.69224
 H211 H 0.51901 0.05061 0.69304
 C212 C 0.57439 0.01834 0.66023
 H213 H 0.57785 0.04400 0.63626
 N214 N 0.53430 -0.01006 0.72210
 C215 C 0.44296 -0.07248 0.80448
 H216 H 0.41517 -0.06507 0.78331
 C217 C 0.43944 -0.10479 0.83663
 H218 H 0.40906 -0.12252 0.83958
 C219 C 0.51547 -0.05714 0.82806
 H220 H 0.54454 -0.03756 0.82520
 C221 C 0.51347 -0.08919 0.86042
 H222 H 0.54119 -0.09355 0.88245
 Zn223 Zn 0.48557 -0.00214 0.76165
 N224 N 0.48069 -0.04955 0.80076
 C225 C 0.42689 -0.02837 0.69802
 N226 N 0.43482 0.00459 0.72593
 C227 C 0.41097 0.04245 0.72386
 C228 C 0.37809 0.04843 0.69214
 C229 C 0.39431 -0.02382 0.66590
 C230 C 0.53419 0.06617 0.79629
 C231 C 0.54313 0.09832 0.82663
 C232 C 0.46955 0.09050 0.85821
 C233 C 0.46209 0.05828 0.82736
 N234 N 0.49425 0.04675 0.79726
 H235 H 0.44723 -0.05769 0.69962
 H236 H 0.41865 0.06868 0.74548
 H237 H 0.36019 0.07919 0.69012
 H238 H 0.39024 -0.05001 0.64309
 H239 H 0.55996 0.05559 0.77323
 H240 H 0.57549 0.11273 0.82601
 H241 H 0.44399 0.09789 0.88276
 H242 H 0.43115 0.04138 0.82831
 C243 C 0.47506 -0.11367 0.86493
 C244 C 0.60169 -0.01921 0.65874
 C245 C 0.51077 0.11075 0.85823
 C246 C 0.36967 0.01527 0.66232
 C247 C 0.24080 -0.01225 0.50212
 C248 C 0.73908 0.01547 0.50357
 C249 C 0.48995 0.25133 1.00834
 C250 C 0.53453 0.74697 0.00802
 C251 C 1.04166 0.49877 0.24869
 C252 C -0.01046 0.50128 0.74539
 C253 C 0.13592 0.10802 0.46345
 C254 C 0.15584 0.08393 0.49460
 C255 C 0.18634 0.04766 0.48246
 C256 C 0.20943 0.02582 0.51318
 H257 H 0.15064 0.09125 0.52919
 H258 H 0.19033 0.03886 0.44802
 H259 H 0.14368 0.10102 0.42910
 H260 H 0.20384 0.03419 0.54759
 C261 C 0.63517 0.62522 0.05474
 C262 C 0.62104 0.65289 0.02356
 C263 C 0.58470 0.68477 0.03270
 C264 C 0.57303 0.71427 0.00221
 H265 H 0.63530 0.65191 -0.00938
 H266 H 0.56722 0.68394 0.06422
 H267 H 0.61927 0.62696 0.08710
 H268 H 0.59070 0.71327 -0.02932
 C269 C 0.84431 -0.10443 0.46374
 C270 C 0.82412 -0.08026 0.49499
 C271 C 0.79317 -0.04460 0.48310
 C272 C 0.77065 -0.02220 0.51427
 H273 H 0.82941 -0.08712 0.52957
 H274 H 0.78844 -0.03663 0.44858
 H275 H 0.83649 -0.09800 0.42948
 H276 H 0.77706 -0.02961 0.54866
 C277 C 0.38167 0.36373 0.96007
 C278 C 0.40242 0.34388 0.99354
 C279 C 0.43539 0.30890 0.98470
 C280 C 0.45303 0.28490 1.01722
 H281 H 0.39532 0.35330 1.02734
 H282 H 0.44608 0.30300 0.95086
 H283 H 0.38759 0.35184 0.92682
 H284 H 0.44310 0.29181 1.05109
 C285 C 0.84121 0.13379 0.53479
 C286 C 0.81995 0.11009 0.50555
 C287 C 0.78893 0.07690 0.52021
 C288 C 0.76789 0.05320 0.49075
 H289 H 0.82530 0.11477 0.47049
 H290 H 0.78408 0.07102 0.55521
 H291 H 0.83353 0.12955 0.56961
 H292 H 0.77581 0.05792 0.45604
 C293 C 0.41771 0.65350 -0.05045
 C294 C 0.43502 0.67529 -0.01722
 C295 C 0.47625 0.69932 -0.02299
 C296 C 0.49117 0.72277 0.01028
 H297 H 0.41976 0.67462 0.01531
 H298 H 0.49464 0.69770 -0.05403
 H299 H 0.43477 0.65367 -0.08226
 H300 H 0.47171 0.72368 0.04080
 C301 C 0.13604 -0.12967 0.53224
 C302 C 0.15848 -0.10584 0.50302
 C303 C 0.18785 -0.07184 0.51791
 C304 C 0.21233 -0.04967 0.48892
 H305 H 0.15546 -0.11113 0.46797
 H306 H 0.18912 -0.06441 0.55277
 H307 H 0.14156 -0.12476 0.56711
 H308 H 0.20929 -0.05661 0.45405
 C309 C 0.61907 0.33696 1.04804
 C310 C 0.59294 0.32266 1.01631
 C311 C 0.55434 0.29659 1.02776
 C312 C 0.53189 0.27572 0.99705
 H313 H 0.59989 0.33002 0.98196
 H314 H 0.54377 0.29472 1.06208
 H315 H 0.61300 0.32677 1.08185
 H316 H 0.54195 0.27897 0.96268
 C317 C 0.44256 0.14668 1.12226
 C318 C 0.47362 0.17255 1.10602
 C319 C 0.46429 0.20171 1.06865
 C320 C 0.49721 0.22284 1.04873
 H321 H 0.50707 0.17064 1.11878
 H322 H 0.43065 0.20527 1.05657
 H323 H 0.41010 0.14688 1.10720
 H324 H 0.53091 0.21712 1.06011
 C325 C -0.05489 0.62137 0.64436
 C326 C -0.02343 0.59694 0.66386
 C327 C -0.03464 0.56239 0.69518
 C328 C -0.00219 0.53936 0.71488
 H329 H 0.01138 0.60237 0.65694
 H330 H -0.06920 0.55533 0.70171
 H331 H -0.08947 0.61715 0.65361
 H332 H 0.03206 0.54596 0.70601
 C333 C 0.47040 0.85321 -0.09991
 C334 C 0.50531 0.83198 -0.08241
 C335 C 0.50001 0.80057 -0.04616
 C336 C 0.53541 0.77774 -0.03160
 H337 H 0.53854 0.83740 -0.09510
 H338 H 0.46752 0.79666 -0.03097
 H339 H 0.43714 0.84552 -0.08869
 H340 H 0.56762 0.78401 -0.04660
 C341 C 0.97979 0.38261 0.34348
 C342 C 1.01458 0.40730 0.32693
 C343 C 1.00752 0.44005 0.29586
 C344 C 1.04369 0.46300 0.27941
 H345 H 1.04825 0.40100 0.33751
 H346 H 0.97401 0.44779 0.28524
 H347 H 0.94721 0.38790 0.32921
 H348 H 1.07614 0.45491 0.29303
 C349 C 0.55142 0.87742 0.09904
 C350 C 0.54273 0.83370 0.09446
 C351 C 0.54873 0.81322 0.05383
 C352 C 0.53899 0.76962 0.04927
 H353 H 0.53014 0.81526 0.12206
 H354 H 0.55913 0.83203 0.02550
 H355 H 0.56795 0.89320 0.07153
 H356 H 0.53183 0.75189 0.07944
 C357 C 0.03046 0.38412 0.64030
 C358 C -0.00110 0.40743 0.66181
 C359 C 0.01065 0.44191 0.69229
 C360 C -0.02070 0.46322 0.71619
 H361 H -0.03592 0.40115 0.65723
 H362 H 0.04518 0.45046 0.69478
 H363 H 0.06509 0.38940 0.64739
 H364 H -0.05525 0.45531 0.71190
 C365 C 0.52252 0.14236 0.89230
 C366 C 0.49255 0.16597 0.91551
 C367 C 0.50676 0.19558 0.95002
 C368 C 0.47741 0.22224 0.97048
 H369 H 0.45741 0.16399 0.90892
 H370 H 0.54147 0.19545 0.95910
 H371 H 0.55758 0.14682 0.89807
 H372 H 0.44259 0.22078 0.96196
 C373 C 0.98753 0.60900 0.35485
 C374 C 1.02180 0.59348 0.33040
 C375 C 1.01607 0.55472 0.30346
 C376 C 1.04786 0.53946 0.27574
 H377 H 1.05377 0.60844 0.33028
 H378 H 0.98491 0.53812 0.30613
 H379 H 0.95631 0.59247 0.35334
 H380 H 1.07939 0.55554 0.27408
 C381 C 1.13604 0.54965 0.12568
 C382 C 1.12420 0.51799 0.15636
 C383 C 1.08959 0.52540 0.18681
 C384 C 1.07775 0.49337 0.21707
 H385 H 1.14117 0.48682 0.15675
 H386 H 1.07164 0.55625 0.18712
 H387 H 1.11725 0.58007 0.12671
 H388 H 1.09525 0.46224 0.21448
 C389 C 0.63620 -0.02639 0.62390
 C390 C 0.65542 0.00540 0.60123
 C391 C 0.68741 -0.00480 0.56527
 C392 C 0.70913 0.02598 0.54331
 H393 H 0.64775 0.03887 0.60890
 H394 H 0.69273 -0.03825 0.55585
 H395 H 0.64645 -0.05949 0.61683
 H396 H 0.70224 0.05948 0.55173
 C397 C -0.12265 0.45804 0.85655
 C398 C -0.10114 0.48989 0.83636
 C399 C -0.06795 0.47995 0.80137
 C400 C -0.04877 0.51104 0.77761
 H401 H -0.10744 0.52316 0.84580
 H402 H -0.05798 0.44652 0.79573
 H403 H -0.11739 0.42534 0.84462
 H404 H -0.05775 0.54444 0.78474
 C405 C 0.35208 -0.04964 0.38507
 C406 C 0.32745 -0.01936 0.40631
 C407 C 0.29809 -0.03082 0.44363
 C408 C 0.27214 -0.00097 0.46409
 H409 H 0.32931 0.01424 0.39682
 H410 H 0.29696 -0.06423 0.45416
 H411 H 0.35114 -0.08275 0.39664
 H412 H 0.27454 0.03251 0.45405
 C413 C 0.11688 0.54476 0.83378
 C414 C 0.09114 0.51302 0.82062
 C415 C 0.05258 0.52275 0.79273
 C416 C 0.03048 0.49153 0.77305
 H417 H 0.09859 0.47986 0.82987
 H418 H 0.04212 0.55618 0.78801
 H419 H 0.11021 0.57724 0.82166
 H420 H 0.04035 0.45815 0.77922
 C421 C 0.64841 0.04240 0.36995
 C422 C 0.65782 0.01852 0.40561
 C423 C 0.69167 0.03148 0.43687
 C424 C 0.70824 0.00335 0.46652
 H425 H 0.64007 -0.01082 0.41206
 H426 H 0.70178 0.06467 0.43634
 H427 H 0.66841 0.06989 0.36175
 H428 H 0.69630 -0.02931 0.46662
 C429 C 0.92258 0.44734 0.15113
 C430 C 0.94082 0.47905 0.17374
 C431 C 0.98218 0.47162 0.19851
 C432 C 0.99814 0.50302 0.22335
 H433 H 0.92602 0.51124 0.17351
 H434 H 0.99960 0.44055 0.19680
 H435 H 0.93919 0.41581 0.15099
 H436 H 0.98037 0.53400 0.22361
 C437 C 0.33793 0.02404 0.62611
 C438 C 0.31991 -0.00650 0.60158
 C439 C 0.29101 0.00549 0.56439
 C440 C 0.26925 -0.02412 0.54182
 H441 H 0.32607 -0.04034 0.60871
 H442 H 0.28749 0.03920 0.55509
 H443 H 0.32911 0.05753 0.61919
 H444 H 0.27414 -0.05788 0.55048
   
