data_POSCAR
  _audit_creation_date              2014-09-24
  _audit_creation_method            'ToBaCCo'
  _symmetry_space_group_name_H-M    'P1'
  _symmetry_Int_Tables_number       1
  _symmetry_cell_setting            triclinic
  loop_
  _symmetry_equiv_pos_as_xyz
 x,y,z
_cell_length_a 41.7919
_cell_length_b 43.3737
_cell_length_c 34.4979
_cell_angle_alpha 89.849500
_cell_angle_beta 90.992200
_cell_angle_gamma 89.899400
loop_
  _atom_site_label
  _atom_site_type_symbol
  _atom_site_fract_x
  _atom_site_fract_y
  _atom_site_fract_z
C1 C 1.27899 0.22029 0.26545
 C2 C 1.25279 0.23576 0.24850
 C3 C 1.22874 0.21896 0.22933
 C4 C 1.23182 0.18703 0.22477
 C5 C 1.25890 0.17187 0.24022
 C6 C 1.28221 0.18813 0.26190
 C7 C 1.25131 0.26966 0.24940
 C8 C 1.27646 0.28704 0.23409
 C9 C 1.27488 0.31945 0.23310
 C10 C 1.24848 0.33406 0.25003
 C11 C 1.22383 0.31686 0.26660
 C12 C 1.22481 0.28464 0.26511
 H13 H 1.29701 0.23360 0.28095
 H14 H 1.20836 0.23095 0.21651
 H15 H 1.29653 0.27505 0.22148
 H16 H 1.20580 0.27119 0.27781
 H17 H 1.26084 0.14711 0.23686
 H18 H 1.24708 0.35901 0.25090
 C19 C 0.77787 -0.28009 0.26542
 C20 C 0.75157 -0.26462 0.24880
 C21 C 0.72766 -0.28130 0.22926
 C22 C 0.73101 -0.31315 0.22402
 C23 C 0.75819 -0.32832 0.23921
 C24 C 0.78134 -0.31217 0.26123
 C25 C 0.75002 -0.23078 0.25031
 C26 C 0.77496 -0.21327 0.23477
 C27 C 0.77351 -0.18102 0.23509
 C28 C 0.74774 -0.16638 0.25289
 C29 C 0.72313 -0.18370 0.26939
 C30 C 0.72386 -0.21593 0.26704
 H31 H 0.79579 -0.26683 0.28115
 H32 H 0.70722 -0.26927 0.21665
 H33 H 0.79480 -0.22483 0.22108
 H34 H 0.70495 -0.22949 0.27977
 H35 H 0.76034 -0.35302 0.23535
 H36 H 0.74688 -0.14141 0.25407
 C37 C 0.77853 0.22250 -0.23576
 C38 C 0.75208 0.23741 -0.25289
 C39 C 0.72796 0.21998 -0.27111
 C40 C 0.73111 0.18789 -0.27417
 C41 C 0.75826 0.17328 -0.25807
 C42 C 0.78159 0.19040 -0.23792
 C43 C 0.75024 0.27129 -0.25279
 C44 C 0.77541 0.28868 -0.26799
 C45 C 0.77374 0.32107 -0.26914
 C46 C 0.74716 0.33568 -0.25261
 C47 C 0.72249 0.31845 -0.23613
 C48 C 0.72359 0.28623 -0.23741
 H49 H 0.79676 0.23594 -0.22083
 H50 H 0.70746 0.23155 -0.28426
 H51 H 0.79564 0.27671 -0.28024
 H52 H 0.70463 0.27278 -0.22464
 H53 H 0.76055 0.14842 -0.25978
 H54 H 0.74571 0.36063 -0.25185
 C55 C 1.27820 -0.27964 -0.23427
 C56 C 1.25188 -0.26421 -0.25087
 C57 C 1.22801 -0.28089 -0.27045
 C58 C 1.23142 -0.31270 -0.27574
 C59 C 1.25861 -0.32786 -0.26061
 C60 C 1.28172 -0.31170 -0.23853
 C61 C 1.25025 -0.23040 -0.24939
 C62 C 1.27519 -0.21285 -0.26481
 C63 C 1.27355 -0.18061 -0.26472
 C64 C 1.24761 -0.16602 -0.24724
 C65 C 1.22299 -0.18339 -0.23088
 C66 C 1.22391 -0.21562 -0.23299
 H67 H 1.29609 -0.26637 -0.21849
 H68 H 1.20756 -0.26888 -0.28306
 H69 H 1.29516 -0.22436 -0.27830
 H70 H 1.20498 -0.22921 -0.22036
 H71 H 1.26079 -0.35255 -0.26453
 H72 H 1.24660 -0.14105 -0.24623
 C73 C 0.21316 0.26868 0.73116
 C74 C 0.23034 0.24644 0.75242
 C75 C 0.21394 0.22397 0.77346
 C76 C 0.18019 0.22333 0.77341
 C77 C 0.16326 0.24589 0.75163
 C78 C 0.17953 0.26866 0.73055
 C79 C 0.26564 0.24695 0.75302
 C80 C 0.28204 0.26881 0.77558
 C81 C 0.31576 0.26992 0.77630
 C82 C 0.33268 0.24840 0.75372
 C83 C 0.31645 0.22627 0.73096
 C84 C 0.28281 0.22577 0.73090
 H85 H 0.22616 0.28609 0.71529
 H86 H 0.22777 0.20704 0.78975
 H87 H 0.26821 0.28501 0.79236
 H88 H 0.26982 0.20892 0.71369
 H89 H 0.13734 0.24588 0.75105
 H90 H 0.35859 0.24884 0.75366
 C91 C 0.71296 0.76879 0.73052
 C92 C 0.73008 0.74623 0.75129
 C93 C 0.71366 0.72373 0.77219
 C94 C 0.67993 0.72339 0.77260
 C95 C 0.66301 0.74638 0.75153
 C96 C 0.67922 0.76930 0.73037
 C97 C 0.76541 0.74657 0.75182
 C98 C 0.78192 0.76855 0.77410
 C99 C 0.81555 0.76924 0.77500
 C100 C 0.83248 0.74752 0.75297
 C101 C 0.81621 0.72537 0.73029
 C102 C 0.78254 0.72507 0.73006
 H103 H 0.72625 0.78607 0.71478
 H104 H 0.72746 0.70653 0.78807
 H105 H 0.76838 0.78514 0.79063
 H106 H 0.76950 0.70816 0.71298
 H107 H 0.63710 0.74646 0.75165
 H108 H 0.85839 0.74793 0.75335
 C109 C 0.71364 0.26925 0.23075
 C110 C 0.73083 0.24673 0.25157
 C111 C 0.71443 0.22425 0.27256
 C112 C 0.68080 0.22410 0.27302
 C113 C 0.66378 0.24681 0.25191
 C114 C 0.67999 0.26948 0.23064
 C115 C 0.76609 0.24706 0.25202
 C116 C 0.78262 0.26893 0.27437
 C117 C 0.81625 0.26950 0.27531
 C118 C 0.83312 0.24779 0.25323
 C119 C 0.81678 0.22575 0.23047
 C120 C 0.78313 0.22555 0.23020
 H121 H 0.72662 0.28664 0.21484
 H122 H 0.72801 0.20695 0.28854
 H123 H 0.76912 0.28551 0.29096
 H124 H 0.77003 0.20870 0.21310
 H125 H 0.63786 0.24686 0.25206
 H126 H 0.85903 0.24811 0.25364
 C127 C 0.21350 0.76919 0.22985
 C128 C 0.23064 0.74687 0.25101
 C129 C 0.21425 0.72458 0.27227
 C130 C 0.18053 0.72419 0.27266
 C131 C 0.16358 0.74694 0.25123
 C132 C 0.17976 0.76967 0.22971
 C133 C 0.26594 0.74722 0.25153
 C134 C 0.28245 0.76901 0.27408
 C135 C 0.31608 0.76963 0.27507
 C136 C 0.33300 0.74801 0.25286
 C137 C 0.31671 0.72605 0.22991
 C138 C 0.28304 0.72584 0.22958
 H139 H 0.22677 0.78632 0.21383
 H140 H 0.22808 0.70756 0.28842
 H141 H 0.26891 0.78549 0.29076
 H142 H 0.26997 0.70906 0.21233
 H143 H 0.13766 0.74698 0.25133
 H144 H 0.35891 0.74835 0.25331
 N145 N 1.05734 0.03062 0.04116
 N146 N 1.08136 0.04937 0.04855
 N147 N 1.03278 -0.03269 0.07111
 N148 N 1.03784 -0.05418 0.09779
 N149 N 1.05495 -0.03383 0.04464
 N150 N 1.07580 -0.05592 0.05269
 N151 N 1.03584 0.03230 0.06841
 N152 N 1.04476 0.05259 0.09508
 C153 C 1.07303 0.06328 0.08180
 C154 C 1.06468 -0.06857 0.08570
 N155 N 0.94132 -0.02902 0.04275
 N156 N 0.91730 -0.04714 0.05168
 N157 N 0.96667 0.03519 0.06740
 N158 N 0.96134 0.05690 0.09327
 N159 N 0.94423 0.03542 0.04022
 N160 N 0.92291 0.05718 0.04712
 N161 N 0.96357 -0.02965 0.07015
 N162 N 0.95524 -0.04857 0.09836
 Mn163 Mn 0.99971 0.00127 0.06972
 C164 C 0.92651 -0.05956 0.08601
 C165 C 0.93414 0.07061 0.08003
 N166 N 1.05430 -0.03608 -0.03843
 N167 N 1.07683 -0.05642 -0.04536
 N168 N 1.03434 0.02857 -0.06934
 N169 N 1.03994 0.05006 -0.09553
 N170 N 1.05680 0.02849 -0.04227
 N171 N 1.07854 0.04973 -0.04953
 N172 N 1.03232 -0.03633 -0.06608
 N173 N 1.03944 -0.05705 -0.09266
 Mn174 Mn 1.05604 -0.00267 0.00127
 C175 C 1.06703 -0.06970 -0.07880
 C176 C 1.06754 0.06310 -0.08271
 N177 N 0.94410 0.03312 -0.04345
 N178 N 0.92303 0.05482 -0.05223
 N179 N 0.96340 -0.03379 -0.06695
 N180 N 0.95736 -0.05643 -0.09143
 N181 N 0.94092 -0.03181 -0.04093
 N182 N 0.91880 -0.05310 -0.04721
 N183 N 0.96551 0.03074 -0.07070
 N184 N 0.95928 0.05045 -0.09907
 Mn185 Mn 0.94235 0.00198 -0.00039
 Mn186 Mn 0.99888 -0.00275 -0.06864
 Cl187 Cl 0.99921 -0.00054 0.00055
 C188 C 0.93304 0.06560 -0.08675
 C189 C 0.92958 -0.06838 -0.07869
 N190 N 1.05822 0.53084 0.53950
 N191 N 1.08219 0.54970 0.54663
 N192 N 1.03326 0.46789 0.56980
 N193 N 1.03813 0.44647 0.59661
 N194 N 1.05536 0.46640 0.54327
 N195 N 1.07591 0.44405 0.55134
 N196 N 1.03666 0.53280 0.56664
 N197 N 1.04546 0.55337 0.59298
 C198 C 1.07373 0.56394 0.57962
 C199 C 1.06473 0.43168 0.58449
 N200 N 0.94168 0.47225 0.54150
 N201 N 0.91743 0.45451 0.55075
 N202 N 0.96755 0.53624 0.56575
 N203 N 0.96206 0.55774 0.59188
 N204 N 0.94516 0.53662 0.53852
 N205 N 0.92372 0.55822 0.54565
 N206 N 0.96409 0.47136 0.56870
 N207 N 0.95575 0.45251 0.59696
 Mn208 Mn 1.00039 0.50205 0.56817
 C209 C 0.92679 0.44191 0.58494
 C210 C 0.93484 0.57147 0.57874
 N211 N 1.05491 0.46387 0.46020
 N212 N 1.07762 0.44377 0.45295
 N213 N 1.03534 0.52855 0.42901
 N214 N 1.04091 0.55012 0.40292
 N215 N 1.05779 0.52843 0.45610
 N216 N 1.07950 0.54971 0.44894
 N217 N 1.03289 0.46365 0.43260
 N218 N 1.04017 0.44319 0.40575
 Mn219 Mn 1.05677 0.49741 0.49978
 C220 C 1.06789 0.43064 0.41938
 C221 C 1.06850 0.56314 0.41579
 N222 N 0.94519 0.53398 0.45479
 N223 N 0.92409 0.55554 0.44548
 N224 N 0.96398 0.46675 0.43187
 N225 N 0.95795 0.44386 0.40779
 N226 N 0.94146 0.46906 0.45781
 N227 N 0.91932 0.44774 0.45187
 N228 N 0.96655 0.53115 0.42755
 N229 N 0.96021 0.55031 0.39864
 Mn230 Mn 0.94308 0.50304 0.49810
 Mn231 Mn 0.99967 0.49747 0.42990
 Cl232 Cl 0.99994 0.50000 0.49905
 C233 C 0.93406 0.56573 0.41065
 C234 C 0.93013 0.43213 0.42067
 N235 N 0.55745 0.03072 0.54204
 N236 N 0.58160 0.04928 0.54966
 N237 N 0.53255 -0.03240 0.57218
 N238 N 0.53748 -0.05380 0.59902
 N239 N 0.55482 -0.03369 0.54584
 N240 N 0.57560 -0.05578 0.55413
 N241 N 0.53582 0.03257 0.56912
 N242 N 0.54473 0.05280 0.59584
 C243 C 0.57316 0.06327 0.58282
 C244 C 0.56435 -0.06830 0.58715
 N245 N 0.44113 -0.02831 0.54327
 N246 N 0.41710 -0.04647 0.55205
 N247 N 0.46670 0.03581 0.56772
 N248 N 0.46128 0.05752 0.59358
 N249 N 0.44438 0.03611 0.54039
 N250 N 0.42306 0.05790 0.54721
 N251 N 0.46333 -0.02902 0.57073
 N252 N 0.45497 -0.04801 0.59884
 Mn253 Mn 0.49959 0.00171 0.57038
 C254 C 0.42627 -0.05896 0.58636
 C255 C 0.43417 0.07130 0.58020
 N256 N 0.55455 -0.03632 0.46279
 N257 N 0.57725 -0.05650 0.45583
 N258 N 0.53486 0.02811 0.43133
 N259 N 0.54051 0.04951 0.40507
 N260 N 0.55715 0.02824 0.45862
 N261 N 0.57878 0.04961 0.45149
 N262 N 0.53258 -0.03671 0.43513
 N263 N 0.53989 -0.05736 0.40853
 Mn264 Mn 0.55619 -0.00272 0.50232
 C265 C 0.56756 -0.06984 0.42237
 C266 C 0.56793 0.06275 0.41810
 N267 N 0.44462 0.03344 0.45663
 N268 N 0.42357 0.05502 0.44725
 N269 N 0.46366 -0.03384 0.43389
 N270 N 0.45766 -0.05663 0.40963
 N271 N 0.44102 -0.03152 0.45966
 N272 N 0.41882 -0.05276 0.45342
 N273 N 0.46607 0.03061 0.42948
 N274 N 0.45984 0.04981 0.40057
 Mn275 Mn 0.44248 0.00249 0.49995
 Mn276 Mn 0.49929 -0.00302 0.43211
 Cl277 Cl 0.49935 -0.00037 0.50125
 C278 C 0.43365 0.06524 0.41247
 C279 C 0.42974 -0.06833 0.42223
 N280 N 0.55727 0.53048 0.03932
 N281 N 0.58134 0.54924 0.04648
 N282 N 0.53242 0.46757 0.06986
 N283 N 0.53744 0.44627 0.09678
 N284 N 0.55446 0.46605 0.04325
 N285 N 0.57511 0.44382 0.05136
 N286 N 0.53576 0.53246 0.06653
 N287 N 0.54470 0.55295 0.09292
 C288 C 0.57299 0.56346 0.07953
 C289 C 0.56406 0.43155 0.08462
 N290 N 0.44074 0.47170 0.04191
 N291 N 0.41662 0.45381 0.05126
 N292 N 0.46665 0.53579 0.06581
 N293 N 0.46135 0.55748 0.09174
 N294 N 0.44418 0.53609 0.03867
 N295 N 0.42287 0.55784 0.04568
 N296 N 0.46325 0.47090 0.06900
 N297 N 0.45512 0.45196 0.09726
 Mn298 Mn 0.49952 0.50166 0.06824
 C299 C 0.42616 0.44122 0.08538
 C300 C 0.43415 0.57124 0.07859
 N301 N 0.55384 0.46332 -0.03980
 N302 N 0.57665 0.44336 -0.04725
 N303 N 0.53413 0.52789 -0.07113
 N304 N 0.53972 0.54933 -0.09740
 N305 N 0.55663 0.52786 -0.04410
 N306 N 0.57837 0.54906 -0.05147
 N307 N 0.53171 0.46299 -0.06727
 N308 N 0.53899 0.44261 -0.09419
 Mn309 Mn 0.55574 0.49695 -0.00032
 C310 C 0.56682 0.43020 -0.08077
 C311 C 0.56736 0.56236 -0.08468
 N312 N 0.44402 0.53326 -0.04504
 N313 N 0.42311 0.55502 -0.05421
 N314 N 0.46280 0.46594 -0.06778
 N315 N 0.45672 0.44301 -0.09179
 N316 N 0.44028 0.46836 -0.04185
 N317 N 0.41805 0.44711 -0.04781
 N318 N 0.46537 0.53039 -0.07230
 N319 N 0.45923 0.54972 -0.10106
 Mn320 Mn 0.44200 0.50241 -0.00163
 Mn321 Mn 0.49848 0.49674 -0.06997
 Cl322 Cl 0.49890 0.49944 -0.00086
 C323 C 0.43319 0.56526 -0.08897
 C324 C 0.42884 0.43138 -0.07894
 C325 C 1.16186 0.13652 0.16451
 N326 N 1.15336 0.16093 0.18664
 N327 N 1.17563 0.17723 0.20563
 C328 C 1.20708 0.16943 0.20352
 N329 N 1.21544 0.14490 0.18158
 N330 N 1.19327 0.12890 0.16224
 C331 C 1.13794 0.11861 0.14279
 N332 N 1.14728 0.10126 0.11240
 N333 N 1.12621 0.08419 0.09281
 C334 C 1.09506 0.08351 0.10309
 N335 N 1.08554 0.10082 0.13356
 N336 N 1.10665 0.11827 0.15296
 C337 C 1.16200 0.63733 0.66259
 N338 N 1.15329 0.66130 0.68532
 N339 N 1.17540 0.67742 0.70478
 C340 C 1.20689 0.66986 0.70254
 N341 N 1.21548 0.64578 0.67999
 N342 N 1.19346 0.62994 0.66019
 C343 C 1.13823 0.61954 0.64059
 N344 N 1.14768 0.60244 0.61004
 N345 N 1.12672 0.58533 0.59035
 C346 C 1.09560 0.58438 0.60070
 N347 N 1.08597 0.60149 0.63130
 N348 N 1.10696 0.61897 0.65080
 C349 C 0.66159 0.13616 0.66659
 N350 N 0.65297 0.16124 0.68743
 N351 N 0.67509 0.17783 0.70626
 C352 C 0.70649 0.16967 0.70527
 N353 N 0.71496 0.14444 0.68468
 N354 N 0.69294 0.12812 0.66550
 C355 C 0.63786 0.11814 0.64472
 N356 N 0.64752 0.10029 0.61494
 N357 N 0.62654 0.08334 0.59504
 C358 C 0.59518 0.08329 0.60441
 N359 N 0.58536 0.10108 0.63429
 N360 N 0.60637 0.11842 0.65398
 C361 C 0.66151 0.63679 0.16246
 N362 N 0.65283 0.66089 0.18501
 N363 N 0.67496 0.67704 0.20442
 C364 C 0.70644 0.66940 0.20231
 N365 N 0.71499 0.64519 0.17993
 N366 N 0.69296 0.62932 0.16018
 C367 C 0.63769 0.61895 0.14050
 N368 N 0.64712 0.60171 0.11005
 N369 N 0.62611 0.58462 0.09038
 C370 C 0.59496 0.58383 0.10065
 N371 N 0.58537 0.60106 0.13115
 N372 N 0.60640 0.61852 0.15063
 C373 C 0.84141 -0.12945 0.17544
 N374 N 0.81043 -0.12021 0.17658
 N375 N 0.78908 -0.13634 0.19629
 C376 C 0.79782 -0.16257 0.21519
 N377 N 0.82885 -0.17190 0.21403
 N378 N 0.85036 -0.15549 0.19471
 C379 C 0.86417 -0.11198 0.15230
 N380 N 0.89615 -0.11290 0.16011
 N381 N 0.91635 -0.09625 0.13905
 C382 C 0.90520 -0.07861 0.10915
 N383 N 0.87333 -0.07802 0.10121
 N384 N 0.85317 -0.09424 0.12253
 C385 C 0.84216 0.37212 0.67496
 N386 N 0.81448 0.38534 0.68634
 N387 N 0.79282 0.36898 0.70526
 C388 C 0.79762 0.33855 0.71289
 N389 N 0.82550 0.32539 0.70147
 N390 N 0.84747 0.34191 0.68310
 C391 C 0.86470 0.38991 0.65197
 N392 N 0.89678 0.38511 0.65500
 N393 N 0.91689 0.40180 0.63388
 C394 C 0.90544 0.42331 0.60854
 N395 N 0.87340 0.42782 0.60533
 N396 N 0.85341 0.41161 0.62689
 C397 C 0.34131 -0.12902 0.67558
 N398 N 0.31028 -0.11992 0.67650
 N399 N 0.28897 -0.13605 0.69625
 C400 C 0.29781 -0.16214 0.71541
 N401 N 0.32890 -0.17132 0.71447
 N402 N 0.35036 -0.15490 0.69510
 C403 C 0.36403 -0.11156 0.65243
 N404 N 0.39599 -0.11232 0.66039
 N405 N 0.41616 -0.09563 0.63936
 C406 C 0.40499 -0.07811 0.60936
 N407 N 0.37315 -0.07767 0.60127
 N408 N 0.35302 -0.09394 0.62256
 C409 C 0.34258 0.37063 0.17603
 N410 N 0.31504 0.38380 0.18796
 N411 N 0.29365 0.36740 0.20726
 C412 C 0.29856 0.33697 0.21476
 N413 N 0.32630 0.32384 0.20278
 N414 N 0.34802 0.34041 0.18403
 C415 C 0.36484 0.38853 0.15273
 N416 N 0.39698 0.38401 0.15551
 N417 N 0.41683 0.40090 0.13427
 C418 C 0.40507 0.42235 0.10904
 N419 N 0.37298 0.42656 0.10605
 N420 N 0.35324 0.41015 0.12774
 C421 C 0.85417 0.14366 -0.17704
 N422 N 0.84054 0.16929 -0.16201
 N423 N 0.81811 0.18467 -0.18199
 C424 C 0.80814 0.17469 -0.21745
 N425 N 0.82185 0.14909 -0.23253
 N426 N 0.84463 0.13395 -0.21277
 C427 C 0.87683 0.12536 -0.15375
 N428 N 0.89743 0.10560 -0.17088
 N429 N 0.91633 0.08732 -0.14942
 C430 C 0.91491 0.08789 -0.11016
 N431 N 0.89442 0.10771 -0.09305
 N432 N 0.87588 0.12631 -0.11447
 C433 C 0.85375 0.64098 0.31870
 N434 N 0.84752 0.67086 0.32721
 N435 N 0.82477 0.68625 0.30777
 C436 C 0.80685 0.67218 0.27970
 N437 N 0.81330 0.64223 0.27126
 N438 N 0.83646 0.62700 0.29018
 C439 C 0.87690 0.62333 0.34195
 N440 N 0.89433 0.60051 0.32565
 N441 N 0.91363 0.58291 0.34746
 C442 C 0.91567 0.58718 0.38637
 N443 N 0.89824 0.60998 0.40268
 N444 N 0.87941 0.62796 0.38077
 C445 C 0.35409 0.14106 0.32015
 N446 N 0.34810 0.17105 0.32833
 N447 N 0.32555 0.18653 0.30864
 C448 C 0.30756 0.17243 0.28064
 N449 N 0.31378 0.14236 0.27254
 N450 N 0.33675 0.12706 0.29169
 C451 C 0.37708 0.12330 0.34356
 N452 N 0.39453 0.10047 0.32731
 N453 N 0.41362 0.08272 0.34920
 C454 C 0.41541 0.08683 0.38815
 N455 N 0.39796 0.10963 0.40442
 N456 N 0.37934 0.12777 0.38243
 C457 C 0.35393 0.64135 -0.18096
 N458 N 0.34766 0.67119 -0.17233
 N459 N 0.32500 0.68664 -0.19183
 C460 C 0.30720 0.67265 -0.22007
 N461 N 0.31371 0.64274 -0.22865
 N462 N 0.33679 0.62746 -0.20968
 C463 C 0.37689 0.62357 -0.15765
 N464 N 0.39440 0.60085 -0.17399
 N465 N 0.41343 0.58302 -0.15214
 C466 C 0.41507 0.58695 -0.11316
 N467 N 0.39756 0.60966 -0.09679
 N468 N 0.37901 0.62788 -0.11874
 C469 C 1.15281 -0.13915 -0.16671
 N470 N 1.14468 -0.16310 -0.19014
 N471 N 1.16696 -0.17735 -0.21080
 C472 C 1.19789 -0.16772 -0.20916
 N473 N 1.20579 -0.14363 -0.18600
 N474 N 1.18371 -0.12974 -0.16500
 C475 C 1.12927 -0.12352 -0.14290
 N476 N 1.13934 -0.10882 -0.11034
 N477 N 1.11895 -0.09264 -0.08942
 C478 C 1.08779 -0.09024 -0.10049
 N479 N 1.07747 -0.10509 -0.13298
 N480 N 1.09790 -0.12170 -0.15375
 C481 C 1.15373 0.36170 0.33051
 N482 N 1.14559 0.33739 0.30767
 N483 N 1.16781 0.32298 0.28706
 C484 C 1.19870 0.33278 0.28815
 N485 N 1.20660 0.35723 0.31071
 N486 N 1.18458 0.37129 0.33167
 C487 C 1.13027 0.37743 0.35445
 N488 N 1.14051 0.39252 0.38666
 N489 N 1.12013 0.40855 0.40780
 C490 C 1.08880 0.41043 0.39732
 N491 N 1.07833 0.39523 0.36514
 N492 N 1.09875 0.37876 0.34416
 C493 C 0.65337 -0.13922 0.33414
 N494 N 0.64509 -0.16324 0.31088
 N495 N 0.66723 -0.17756 0.29008
 C496 C 0.69818 -0.16796 0.29138
 N497 N 0.70623 -0.14381 0.31438
 N498 N 0.68429 -0.12984 0.33554
 C499 C 0.62991 -0.12347 0.35803
 N500 N 0.64011 -0.10842 0.39029
 N501 N 0.61973 -0.09227 0.41128
 C502 C 0.58845 -0.09025 0.40059
 N503 N 0.57803 -0.10542 0.36838
 N504 N 0.59844 -0.12199 0.34755
 C505 C 0.65252 0.36271 -0.17143
 N506 N 0.64444 0.33828 -0.19409
 N507 N 0.66659 0.32412 -0.21506
 C508 C 0.69735 0.33431 -0.21454
 N509 N 0.70517 0.35891 -0.19219
 N510 N 0.68323 0.37272 -0.17087
 C511 C 0.62917 0.37805 -0.14699
 N512 N 0.63958 0.39315 -0.11487
 N513 N 0.61923 0.40881 -0.09326
 C514 C 0.58776 0.41028 -0.10318
 N515 N 0.57713 0.39506 -0.13526
 N516 N 0.59752 0.37897 -0.15670
 C517 C 1.13220 0.15676 -0.16436
 N518 N 1.16451 0.15925 -0.16147
 N519 N 1.17996 0.18064 -0.18164
 C520 C 1.16377 0.20065 -0.20531
 N521 N 1.13135 0.19813 -0.20790
 N522 N 1.11591 0.17656 -0.18801
 C523 C 1.11521 0.13279 -0.14260
 N524 N 1.08436 0.12567 -0.15171
 N525 N 1.06916 0.10353 -0.13253
 C526 C 1.08414 0.08790 -0.10328
 N527 N 1.11490 0.09515 -0.09395
 N528 N 1.13020 0.11711 -0.11337
 C529 C 1.13275 0.65745 0.33486
 N530 N 1.16507 0.65986 0.33748
 N531 N 1.18044 0.68133 0.31736
 C532 C 1.16417 0.70151 0.29401
 N533 N 1.13173 0.69909 0.29172
 N534 N 1.11636 0.67743 0.31155
 C535 C 1.11585 0.63333 0.35646
 N536 N 1.08500 0.62620 0.34739
 N537 N 1.06991 0.60390 0.36638
 C538 C 1.08500 0.58810 0.39541
 N539 N 1.11577 0.59537 0.40471
 N540 N 1.13096 0.61748 0.38547
 C541 C 0.63216 0.15657 0.33652
 N542 N 0.66363 0.16225 0.34368
 N543 N 0.67905 0.18365 0.32350
 C544 C 0.66358 0.20034 0.29551
 N545 N 0.63203 0.19471 0.28854
 N546 N 0.61665 0.17318 0.30855
 C547 C 0.61526 0.13259 0.35828
 N548 N 0.58533 0.12372 0.34726
 N549 N 0.57023 0.10156 0.36647
 C550 C 0.58440 0.08760 0.39757
 N551 N 0.61425 0.09656 0.40878
 N552 N 0.62945 0.11860 0.38941
 C553 C 0.63195 0.65637 -0.16584
 N554 N 0.66429 0.65866 -0.16325
 N555 N 0.67973 0.68020 -0.18319
 C556 C 0.66351 0.70057 -0.20632
 N557 N 0.63106 0.69826 -0.20860
 N558 N 0.61562 0.67653 -0.18896
 C559 C 0.61498 0.63226 -0.14429
 N560 N 0.58409 0.62524 -0.15333
 N561 N 0.56891 0.60300 -0.13429
 C562 C 0.58395 0.58719 -0.10524
 N563 N 0.61475 0.59434 -0.09599
 N564 N 0.63003 0.61638 -0.11528
 C565 C 0.86444 -0.16359 -0.15920
 N566 N 0.83285 -0.16893 -0.15372
 N567 N 0.81738 -0.19028 -0.17448
 C568 C 0.83289 -0.20724 -0.20146
 N569 N 0.86456 -0.20195 -0.20671
 N570 N 0.87999 -0.18051 -0.18609
 C571 C 0.88148 -0.13941 -0.13721
 N572 N 0.91178 -0.13151 -0.14663
 N573 N 0.92706 -0.10908 -0.12764
 C574 C 0.91274 -0.09381 -0.09834
 N575 N 0.88250 -0.10181 -0.08865
 N576 N 0.86712 -0.12417 -0.10781
 C577 C 0.86518 0.33646 0.34120
 N578 N 0.83355 0.33126 0.34657
 N579 N 0.81807 0.30993 0.32579
 C580 C 0.83360 0.29289 0.29891
 N581 N 0.86531 0.29805 0.29380
 N582 N 0.88076 0.31945 0.31444
 C583 C 0.88218 0.36067 0.36305
 N584 N 0.91253 0.36842 0.35369
 N585 N 0.92777 0.39097 0.37245
 C586 C 0.91335 0.40653 0.40143
 N587 N 0.88307 0.39867 0.41109
 N588 N 0.86773 0.37618 0.39216
 C589 C 0.36485 -0.16358 0.34158
 N590 N 0.33319 -0.16879 0.34673
 N591 N 0.31778 -0.19005 0.32576
 C592 C 0.33339 -0.20703 0.29889
 N593 N 0.36513 -0.20187 0.29399
 N594 N 0.38051 -0.18053 0.31482
 C595 C 0.38182 -0.13945 0.36371
 N596 N 0.41224 -0.13173 0.35464
 N597 N 0.42746 -0.10929 0.37367
 C598 C 0.41295 -0.09382 0.40266
 N599 N 0.38258 -0.10164 0.41202
 N600 N 0.36727 -0.12402 0.39282
 C601 C 0.36364 0.33580 -0.15855
 N602 N 0.33137 0.33301 -0.15668
 N603 N 0.31596 0.31173 -0.17762
 C604 C 0.33214 0.29221 -0.20117
 N605 N 0.36452 0.29499 -0.20265
 N606 N 0.37991 0.31640 -0.18194
 C607 C 0.38068 0.35999 -0.13661
 N608 N 0.41167 0.36648 -0.14437
 N609 N 0.42696 0.38902 -0.12561
 C610 C 0.41196 0.40577 -0.09813
 N611 N 0.38104 0.39915 -0.09004
 N612 N 0.36564 0.37672 -0.10905
 C613 C 1.12996 -0.16309 0.16831
 N614 N 1.16217 -0.16577 0.16533
 N615 N 1.17817 -0.18739 0.18520
 C616 C 1.16266 -0.20749 0.20865
 N617 N 1.13031 -0.20481 0.21134
 N618 N 1.11431 -0.18299 0.19175
 C619 C 1.11253 -0.13892 0.14656
 N620 N 1.08205 -0.13113 0.15565
 N621 N 1.06668 -0.10875 0.13629
 C622 C 1.08114 -0.09358 0.10690
 N623 N 1.11148 -0.10152 0.09767
 N624 N 1.12694 -0.12367 0.11723
 C625 C 1.12909 0.33672 0.66740
 N626 N 1.16021 0.33054 0.65987
 N627 N 1.17614 0.30896 0.67988
 C628 C 1.16156 0.29250 0.70809
 N629 N 1.13032 0.29860 0.71545
 N630 N 1.11442 0.32035 0.69559
 C631 C 1.11182 0.36096 0.64554
 N632 N 1.08246 0.37076 0.65658
 N633 N 1.06729 0.39321 0.63711
 C634 C 1.08087 0.40651 0.60574
 N635 N 1.11011 0.39657 0.59459
 N636 N 1.12533 0.37429 0.61418
 C637 C 0.62948 -0.16293 0.66979
 N638 N 0.66170 -0.16560 0.66684
 N639 N 0.67768 -0.18736 0.68647
 C640 C 0.66214 -0.20765 0.70963
 N641 N 0.62978 -0.20498 0.71232
 N642 N 0.61380 -0.18300 0.69297
 C643 C 0.61209 -0.13866 0.64815
 N644 N 0.58159 -0.13089 0.65717
 N645 N 0.56625 -0.10847 0.63782
 C646 C 0.58076 -0.09326 0.60850
 N647 N 0.61113 -0.10119 0.59935
 N648 N 0.62655 -0.12336 0.61891
 C649 C 0.62920 0.33740 0.16785
 N650 N 0.66031 0.33130 0.16012
 N651 N 0.67638 0.30979 0.18008
 C652 C 0.66196 0.29337 0.20844
 N653 N 0.63075 0.29942 0.21602
 N654 N 0.61471 0.32109 0.19621
 C655 C 0.61176 0.36145 0.14596
 N656 N 0.58238 0.37114 0.15709
 N657 N 0.56701 0.39340 0.13752
 C658 C 0.58039 0.40658 0.10596
 N659 N 0.60964 0.39676 0.09472
 N660 N 0.62507 0.37468 0.11441
 C661 C 0.86765 0.16147 0.16425
 N662 N 0.88254 0.17746 0.19312
 N663 N 0.86645 0.19793 0.21399
 C664 C 0.83477 0.20309 0.20704
 N665 N 0.81993 0.18701 0.17816
 N666 N 0.83605 0.16667 0.15713
 C667 C 0.88531 0.13852 0.14157
 N668 N 0.87153 0.12504 0.10996
 N669 N 0.88728 0.10377 0.08994
 C670 C 0.91734 0.09511 0.10091
 N671 N 0.93114 0.10861 0.13245
 N672 N 0.91547 0.13001 0.15233
 C673 C 0.86748 0.66135 0.66393
 N674 N 0.88225 0.67738 0.69285
 N675 N 0.86604 0.69774 0.71377
 C676 C 0.83432 0.70275 0.70685
 N677 N 0.81958 0.68661 0.67793
 N678 N 0.83583 0.66639 0.65684
 C679 C 0.88534 0.63860 0.64107
 N680 N 0.87171 0.62523 0.60927
 N681 N 0.88767 0.60422 0.58904
 C682 C 0.91779 0.59569 0.59994
 N683 N 0.93143 0.60908 0.63168
 N684 N 0.91556 0.63022 0.65177
 C685 C 0.36751 0.16222 0.66442
 N686 N 0.38237 0.17823 0.69331
 N687 N 0.36624 0.19865 0.71423
 C688 C 0.33454 0.20376 0.70733
 N689 N 0.31974 0.18767 0.67841
 N690 N 0.33589 0.16738 0.65733
 C691 C 0.38522 0.13927 0.64172
 N692 N 0.37149 0.12579 0.61006
 N693 N 0.38726 0.10452 0.59006
 C694 C 0.41731 0.09583 0.60107
 N695 N 0.43106 0.10933 0.63266
 N696 N 0.41537 0.13073 0.65252
 C697 C 0.36764 0.66193 0.16336
 N698 N 0.38253 0.67788 0.19227
 N699 N 0.36643 0.69830 0.21323
 C700 C 0.33474 0.70346 0.20634
 N701 N 0.31990 0.68742 0.17741
 N702 N 0.33602 0.66713 0.15629
 C703 C 0.38531 0.63902 0.14055
 N704 N 0.37151 0.62560 0.10890
 N705 N 0.38726 0.60438 0.08877
 C706 C 0.41734 0.59570 0.09963
 N707 N 0.43116 0.60915 0.13121
 N708 N 0.41549 0.63049 0.15121
   
