data_POSCAR
  _audit_creation_date              2014-09-24
  _audit_creation_method            'ToBaCCo'
  _symmetry_space_group_name_H-M    'P1'
  _symmetry_Int_Tables_number       1
  _symmetry_cell_setting            triclinic
  loop_
  _symmetry_equiv_pos_as_xyz
 x,y,z
_cell_length_a 23.7048
_cell_length_b 26.4165
_cell_length_c 13.6090
_cell_angle_alpha 89.959800
_cell_angle_beta 89.934400
_cell_angle_gamma 90.076300
loop_
  _atom_site_label
  _atom_site_type_symbol
  _atom_site_fract_x
  _atom_site_fract_y
  _atom_site_fract_z
O1 O 0.71736 0.19373 0.59205
 O2 O 0.69078 0.28904 0.40021
 O3 O 0.71758 0.19343 0.40092
 O4 O 0.69086 0.28940 0.59154
 O5 O 0.78131 0.30966 0.59150
 O6 O 0.80811 0.21332 0.40176
 O7 O 0.78132 0.30901 0.39904
 O8 O 0.80782 0.21407 0.59153
 Cu9 Cu 0.69503 0.23943 0.49618
 Cu10 Cu 0.80369 0.26379 0.49587
 C11 C 0.76720 0.18752 0.62395
 C12 C 0.73153 0.31508 0.36677
 C13 C 0.76752 0.18671 0.36954
 C14 C 0.73157 0.31571 0.62415
 O15 O 0.18985 0.78827 0.40437
 O16 O 0.21625 0.69231 0.59543
 O17 O 0.18992 0.78803 0.59582
 O18 O 0.21597 0.69246 0.40426
 O19 O 0.30650 0.71253 0.40424
 O20 O 0.28054 0.80768 0.59636
 O21 O 0.30686 0.71195 0.59401
 O22 O 0.28039 0.80821 0.40385
 Cu23 Cu 0.19387 0.73834 0.50001
 Cu24 Cu 0.30262 0.76233 0.49961
 C25 C 0.23066 0.81441 0.37139
 C26 C 0.26619 0.68550 0.62664
 C27 C 0.23081 0.81392 0.62897
 C28 C 0.26578 0.68607 0.37217
 O29 O 0.21757 0.31101 -0.60154
 O30 O 0.19120 0.21562 -0.40926
 O31 O 0.21686 0.31143 -0.41058
 O32 O 0.19098 0.21511 -0.60066
 O33 O 0.28164 0.19602 -0.60191
 O34 O 0.30740 0.29156 -0.41034
 O35 O 0.28171 0.19578 -0.40915
 O36 O 0.30824 0.29185 -0.59987
 Cu37 Cu 0.19503 0.26516 -0.50567
 Cu38 Cu 0.30379 0.24154 -0.50539
 C39 C 0.26757 0.31814 -0.63251
 C40 C 0.23202 0.18968 -0.37615
 C41 C 0.26663 0.31801 -0.37856
 C42 C 0.23187 0.18930 -0.63401
 O43 O -0.19309 0.79348 -0.40854
 O44 O -0.21966 0.69839 -0.60066
 O45 O -0.19302 0.79425 -0.59827
 O46 O -0.21964 0.69797 -0.40821
 O47 O -0.31011 0.71799 -0.40822
 O48 O -0.28355 0.81393 -0.59920
 O49 O -0.31021 0.71809 -0.59960
 O50 O -0.28354 0.81364 -0.40805
 Cu51 Cu -0.19731 0.74377 -0.50410
 Cu52 Cu -0.30597 0.76785 -0.50384
 C53 C -0.23369 0.81991 -0.37610
 C54 C -0.26945 0.69210 -0.63286
 C55 C -0.23359 0.82080 -0.63048
 C56 C -0.26936 0.69186 -0.37542
 O57 O -0.07965 0.91587 0.17928
 O58 O -0.14134 0.96210 0.08527
 C59 C -0.13017 0.92944 0.15361
 O60 O 0.07968 1.09556 0.17037
 O61 O 0.14169 1.04689 0.08159
 C62 C 0.13029 1.08179 0.14555
 O63 O -0.07892 1.09170 0.17833
 O64 O -0.14099 1.04551 0.08484
 C65 C -0.12955 1.07825 0.15288
 O66 O 0.07845 0.91077 0.17155
 O67 O 0.14083 0.95924 0.08283
 C68 C 0.12914 0.92434 0.14683
 Zr69 Zr -0.00017 0.93936 0.12344
 O70 O 0.00492 0.93700 0.27865
 O71 O -0.00300 0.85958 0.11310
 Zr72 Zr 0.00034 1.06759 0.12305
 O73 O 0.00625 1.06816 0.27826
 O74 O -0.00545 1.14756 0.12097
 O75 O -0.05004 1.00359 0.14281
 O76 O 0.04895 1.00339 0.14129
 O77 O 0.07850 0.91007 -0.17118
 O78 O 0.14081 0.95900 -0.08366
 C79 C 0.12918 0.92379 -0.14687
 O80 O -0.07888 1.09116 -0.18035
 O81 O -0.14097 1.04536 -0.08583
 C82 C -0.12952 1.07787 -0.15436
 O83 O 0.07967 1.09508 -0.17315
 O84 O 0.14170 1.04679 -0.08371
 C85 C 0.13028 1.08144 -0.14827
 O86 O -0.07958 0.91536 -0.17910
 O87 O -0.14132 0.96188 -0.08563
 C88 C -0.13011 0.92907 -0.15365
 Zr89 Zr -0.00016 0.93921 -0.12420
 O90 O 0.00585 0.93910 -0.27944
 O91 O -0.00570 0.85924 -0.12230
 Zr92 Zr 0.00038 1.06733 -0.12492
 O93 O 0.00633 1.06777 -0.28014
 O94 O -0.00542 1.14731 -0.12331
 Zr95 Zr -0.08367 1.00357 -0.00047
 Zr96 Zr 0.08430 1.00331 -0.00066
 O97 O 0.04906 1.00313 -0.14262
 O98 O -0.05007 1.00335 -0.14393
 O99 O 0.05040 0.92954 -0.00029
 O100 O -0.04869 1.07679 -0.00091
 O101 O -0.04947 0.93018 -0.00018
 O102 O 0.05093 1.07729 -0.00105
 H103 H 0.07409 1.00333 0.19940
 H104 H -0.07426 1.10643 -0.00103
 H105 H 0.07434 1.00291 -0.20065
 H106 H -0.07531 0.90066 -0.00002
 H107 H 0.02699 1.16054 0.08271
 H108 H 0.02732 1.16036 -0.08606
 H109 H -0.02444 1.04617 -0.30567
 H110 H -0.02562 0.95976 -0.30510
 H111 H 0.02135 0.84698 -0.07235
 H112 H -0.00353 0.84679 0.18156
 H113 H -0.02357 0.96086 0.30445
 H114 H -0.02493 1.04709 0.30409
 O115 O 0.42112 0.41453 0.17741
 O116 O 0.35901 0.45970 0.08271
 C117 C 0.37049 0.42742 0.15153
 O118 O 0.57786 0.59485 0.16937
 O119 O 0.64014 0.54702 0.07966
 C120 C 0.62853 0.58162 0.14410
 O121 O 0.41955 0.59000 0.17599
 O122 O 0.35770 0.54379 0.08215
 C123 C 0.36899 0.57639 0.15046
 O124 O 0.57844 0.41050 0.16762
 O125 O 0.64044 0.45921 0.07868
 C126 C 0.62904 0.42427 0.14267
 Zr127 Zr 0.49952 0.43799 0.11837
 O128 O 0.50215 0.43031 0.27289
 O129 O 0.49770 0.35856 0.10052
 Zr130 Zr 0.49908 0.56636 0.12105
 O131 O 0.50459 0.56596 0.27637
 O132 O 0.49284 0.64631 0.12073
 O133 O 0.44927 0.50196 0.13947
 O134 O 0.54814 0.50229 0.13793
 O135 O 0.57875 0.41139 -0.17608
 O136 O 0.64093 0.46011 -0.08740
 C137 C 0.62942 0.42524 -0.15148
 O138 O 0.41960 0.59101 -0.18162
 O139 O 0.35760 0.54445 -0.08816
 C140 C 0.36898 0.57735 -0.15610
 O141 O 0.57802 0.59590 -0.17494
 O142 O 0.64028 0.54741 -0.08662
 C143 C 0.62869 0.58237 -0.15034
 O144 O 0.42006 0.41533 -0.18391
 O145 O 0.35794 0.46106 -0.08957
 C146 C 0.36941 0.42860 -0.15808
 Zr147 Zr 0.49938 0.43923 -0.12863
 O148 O 0.50525 0.43939 -0.28387
 O149 O 0.49423 0.35922 -0.12790
 Zr150 Zr 0.49913 0.56730 -0.12684
 O151 O 0.50496 0.56850 -0.28206
 O152 O 0.49280 0.64724 -0.12392
 Zr153 Zr 0.41531 0.50261 -0.00375
 Zr154 Zr 0.58353 0.50313 -0.00400
 O155 O 0.54817 0.50348 -0.14589
 O156 O 0.44906 0.50322 -0.14715
 O157 O 0.55021 0.42909 -0.00525
 O158 O 0.44999 0.57596 -0.00272
 O159 O 0.44995 0.42935 -0.00493
 O160 O 0.54964 0.57691 -0.00286
 H161 H 0.57330 0.50221 0.19601
 H162 H 0.42429 0.60551 -0.00243
 H163 H 0.57335 0.50374 -0.20403
 H164 H 0.42419 0.39977 -0.00505
 H165 H 0.52486 0.65965 0.08186
 H166 H 0.52542 0.66031 -0.08639
 H167 H 0.47417 0.54705 -0.30795
 H168 H 0.47418 0.46065 -0.30917
 H169 H 0.52385 0.34664 -0.08291
 H170 H 0.49709 0.34410 0.16771
 H171 H 0.50128 0.46490 0.30020
 H172 H 0.47193 0.54658 0.30185
 C173 C 0.27845 0.35544 0.29773
 C174 C 0.23809 0.38577 0.25436
 C175 C 0.26728 0.41696 0.19251
 C176 C 0.32314 0.40347 0.20336
 O177 O 0.33003 0.36617 0.26694
 H178 H 0.19295 0.38526 0.26646
 H179 H 0.25005 0.44627 0.14576
 C180 C -0.22262 0.85806 0.29980
 C181 C -0.26280 0.88868 0.25673
 C182 C -0.23346 0.91969 0.19474
 C183 C -0.17771 0.90577 0.20526
 O184 O -0.17102 0.86841 0.26873
 H185 H -0.30792 0.88848 0.26913
 H186 H -0.25051 0.94916 0.14817
 C187 C 0.71956 0.65412 0.29073
 C188 C 0.76051 0.62616 0.24345
 C189 C 0.73188 0.59541 0.18017
 C190 C 0.67567 0.60693 0.19397
 O191 O 0.66809 0.64254 0.26089
 H192 H 0.80570 0.62785 0.25425
 H193 H 0.74969 0.56752 0.13089
 C194 C 0.22154 1.15316 0.29378
 C195 C 0.26226 1.12371 0.24908
 C196 C 0.23354 1.09341 0.18508
 C197 C 0.17757 1.10659 0.19591
 O198 O 0.17020 1.14283 0.26158
 H199 H 0.30730 1.12404 0.26203
 H200 H 0.25109 1.06459 0.13757
 C201 C 0.72056 0.35370 -0.29950
 C202 C 0.76144 0.38207 -0.25290
 C203 C 0.73278 0.41251 -0.18911
 C204 C 0.67663 0.40039 -0.20193
 O205 O 0.66912 0.36472 -0.26875
 H206 H 0.80660 0.38083 -0.26444
 H207 H 0.75052 0.44059 -0.14014
 C208 C 0.22002 0.85165 -0.29419
 C209 C 0.26106 0.87957 -0.24697
 C210 C 0.23251 0.91011 -0.18320
 C211 C 0.17629 0.89848 -0.19667
 O212 O 0.16861 0.86303 -0.26383
 H213 H 0.30623 0.87802 -0.25820
 H214 H 0.25039 0.93796 -0.13391
 C215 C 0.27698 0.64845 -0.30315
 C216 C 0.23663 0.61800 -0.25965
 C217 C 0.26576 0.58721 -0.19720
 C218 C 0.32158 0.60107 -0.20780
 O219 O 0.32850 0.63819 -0.27184
 H220 H 0.19154 0.61816 -0.27210
 H221 H 0.24854 0.55787 -0.15034
 C222 C -0.22142 1.14892 -0.30124
 C223 C -0.26197 1.11982 -0.25526
 C224 C -0.23289 1.08902 -0.19277
 C225 C -0.17688 1.10166 -0.20591
 O226 O -0.16982 1.13796 -0.27158
 H227 H -0.30717 1.12091 -0.26614
 H228 H -0.25028 1.06061 -0.14401
 C229 C 0.71970 0.65408 -0.29863
 C230 C 0.76064 0.62606 -0.25154
 C231 C 0.73201 0.59567 -0.18742
 C232 C 0.67584 0.60749 -0.20059
 O233 O 0.66827 0.64292 -0.26789
 H234 H 0.80580 0.62746 -0.26302
 H235 H 0.74979 0.56779 -0.13809
 C236 C 0.22121 1.15216 -0.29868
 C237 C 0.26218 1.12424 -0.25144
 C238 C 0.23363 1.09421 -0.18652
 C239 C 0.17747 1.10613 -0.19935
 O240 O 0.16984 1.14127 -0.26724
 H241 H 0.30731 1.12549 -0.26330
 H242 H 0.25146 1.06651 -0.13686
 C243 C 0.27777 0.35694 -0.30437
 C244 C 0.23711 0.38604 -0.25899
 C245 C 0.26607 0.41714 -0.19683
 C246 C 0.32211 0.40467 -0.20960
 O247 O 0.32931 0.36819 -0.27469
 H248 H 0.19193 0.38471 -0.26998
 H249 H 0.24858 0.44561 -0.14848
 C250 C -0.22226 0.85843 -0.30114
 C251 C -0.26271 0.88758 -0.25530
 C252 C -0.23355 0.91822 -0.19254
 C253 C -0.17759 0.90543 -0.20533
 O254 O -0.17065 0.86921 -0.27108
 H255 H -0.30789 0.88662 -0.26646
 H256 H -0.25085 0.94663 -0.14385
 C257 C 0.27706 0.64737 0.29755
 C258 C 0.23651 0.61816 0.25206
 C259 C 0.26558 0.58733 0.18955
 C260 C 0.32158 0.60006 0.20220
 O261 O 0.32864 0.63644 0.26758
 H262 H 0.19132 0.61922 0.26324
 H263 H 0.24819 0.55884 0.14109
 C264 C -0.22159 1.14956 0.29963
 C265 C -0.26191 1.11903 0.25652
 C266 C -0.23274 1.08815 0.19427
 C267 C -0.17693 1.10203 0.20462
 O268 O -0.17005 1.13927 0.26829
 H269 H -0.30701 1.11919 0.26907
 H270 H -0.24994 1.05875 0.14769
 C271 C 0.72045 0.35282 0.29002
 C272 C 0.76127 0.38104 0.24265
 C273 C 0.73247 0.41142 0.17898
 C274 C 0.67633 0.39941 0.19267
 O275 O 0.66895 0.36388 0.25988
 H276 H 0.80645 0.37977 0.25368
 H277 H 0.75011 0.43940 0.12954
 C278 C 0.21984 0.85237 0.29481
 C279 C 0.26089 0.88048 0.24782
 C280 C 0.23241 0.91102 0.18397
 C281 C 0.17620 0.89921 0.19713
 O282 O 0.16846 0.86364 0.26422
 H283 H 0.30604 0.87903 0.25916
 H284 H 0.25033 0.93897 0.13476
   
