data_POSCAR
  _audit_creation_date              2014-09-24
  _audit_creation_method            'ToBaCCo'
  _symmetry_space_group_name_H-M    'P1'
  _symmetry_Int_Tables_number       1
  _symmetry_cell_setting            triclinic
  loop_
  _symmetry_equiv_pos_as_xyz
 x,y,z
_cell_length_a 41.1536
_cell_length_b 41.0620
_cell_length_c 41.1670
_cell_angle_alpha 90.089100
_cell_angle_beta 90.107400
_cell_angle_gamma 89.913300
loop_
  _atom_site_label
  _atom_site_type_symbol
  _atom_site_fract_x
  _atom_site_fract_y
  _atom_site_fract_z
N1 N 0.18308 0.18461 0.18186
 N2 N -0.18054 0.81805 0.18436
 N3 N -0.18546 0.18061 -0.18300
 N4 N 0.18265 0.81678 -0.18268
 N5 N 0.18360 1.18165 0.82009
 N6 N 0.81741 0.81971 0.81500
 N7 N 0.18120 0.81584 1.18258
 N8 N 0.81751 1.18258 1.18260
 O9 O 0.45416 1.05744 1.05856
 O10 O 0.41863 1.02551 1.02979
 C11 C 0.42496 1.04852 1.05043
 O12 O 0.54516 1.05363 0.94245
 O13 O 0.58084 1.02449 0.97390
 C14 C 0.57441 1.04525 0.95107
 O15 O 0.45373 1.05669 0.94554
 O16 O 0.41840 1.02518 0.97478
 C17 C 0.42458 1.04792 0.95387
 O18 O 0.54561 1.05444 1.06141
 O19 O 0.58105 1.02468 1.03032
 C20 C 0.57480 1.04583 1.05288
 Zr21 Zr 0.49984 1.03919 1.04307
 O22 O 0.50344 1.09062 1.04220
 O23 O 0.49641 1.03999 1.09436
 Zr24 Zr 0.49952 1.03853 0.96094
 O25 O 0.50310 1.08996 0.96086
 O26 O 0.49571 1.03825 0.90965
 O27 O 0.47064 1.04525 1.00203
 O28 O 0.52790 1.04485 1.00194
 O29 O 0.54577 0.94149 1.06186
 O30 O 0.58106 0.97031 1.02992
 C31 C 0.57491 0.94971 1.05292
 O32 O 0.45399 0.93784 0.94614
 O33 O 0.41854 0.96975 0.97503
 C34 C 0.42481 0.94676 0.95433
 O35 O 0.54552 0.94106 0.94295
 O36 O 0.58102 0.97084 0.97402
 C37 C 0.57473 0.94975 0.95139
 O38 O 0.45423 0.93842 1.05889
 O39 O 0.41862 0.96949 1.02926
 C40 C 0.42499 0.94694 1.05034
 Zr41 Zr 0.49997 0.95660 1.04347
 O42 O 0.50376 0.90518 1.04329
 O43 O 0.49649 0.95665 1.09477
 Zr44 Zr 0.49975 0.95608 0.96148
 O45 O 0.50361 0.90466 0.96242
 O46 O 0.49597 0.95512 0.91020
 Zr47 Zr 0.45154 0.99764 1.00236
 Zr48 Zr 0.54795 0.99771 1.00222
 O49 O 0.52813 0.95049 1.00245
 O50 O 0.47083 0.95002 1.00253
 O51 O 0.52881 0.99795 1.04967
 O52 O 0.47151 0.99725 0.95531
 O53 O 0.47182 0.99792 1.04932
 O54 O 0.52851 0.99730 0.95480
 H55 H 0.54271 1.06386 1.00184
 H56 H 0.45685 0.99714 0.93619
 H57 H 0.54296 0.93145 1.00242
 H58 H 0.45719 0.99795 1.06841
 H59 H 0.51379 1.02483 0.90117
 H60 H 0.51332 0.96928 0.90152
 H61 H 0.48484 0.89624 0.97479
 H62 H 0.48527 0.89661 1.03051
 H63 H 0.51436 0.97034 1.10323
 H64 H 0.51397 1.02595 1.10295
 H65 H 0.48468 1.09900 1.02968
 H66 H 0.48487 1.09855 0.97396
 O67 O -0.06206 0.45416 0.05344
 O68 O -0.03030 0.41851 0.02462
 C69 C -0.05317 0.42487 0.04531
 O70 O -0.05870 0.54562 -0.06257
 O71 O -0.02937 0.58116 -0.03113
 C72 C -0.05025 0.57488 -0.05391
 O73 O -0.06184 0.45387 -0.05931
 O74 O -0.03078 0.41832 -0.02956
 C75 C -0.05336 0.42461 -0.05064
 O76 O -0.05905 0.54584 0.05634
 O77 O -0.02945 0.58130 0.02528
 C78 C -0.05047 0.57507 0.04784
 Zr79 Zr -0.04395 0.49995 0.03796
 O80 O -0.09526 0.50372 0.03699
 O81 O -0.04469 0.49646 0.08925
 Zr82 Zr -0.04346 0.49975 -0.04421
 O83 O -0.09476 0.50350 -0.04479
 O84 O -0.04287 0.49592 -0.09550
 O85 O -0.05006 0.47082 -0.00312
 O86 O -0.04966 0.52814 -0.00316
 O87 O 0.05365 0.54560 0.05686
 O88 O 0.02482 0.58115 0.02500
 C89 C 0.04548 0.57486 0.04797
 O90 O 0.05699 0.45372 -0.05889
 O91 O 0.02517 0.41830 -0.03008
 C92 C 0.04810 0.42449 -0.05071
 O93 O 0.05392 0.54543 -0.06188
 O94 O 0.02428 0.58112 -0.03087
 C95 C 0.04535 0.57472 -0.05339
 O96 O 0.05658 0.45396 0.05387
 O97 O 0.02558 0.41834 0.02417
 C98 C 0.04808 0.42470 0.04532
 Zr99 Zr 0.03836 0.49979 0.03853
 O100 O 0.08967 0.50337 0.03880
 O101 O 0.03805 0.49623 0.08983
 Zr102 Zr 0.03876 0.49962 -0.04358
 O103 O 0.09008 0.50322 -0.04287
 O104 O 0.03924 0.49590 -0.09487
 Zr105 Zr -0.00258 0.45147 -0.00276
 Zr106 Zr -0.00260 0.54808 -0.00279
 O107 O 0.04447 0.52796 -0.00251
 O108 O 0.04492 0.47064 -0.00247
 O109 O -0.00281 0.52887 0.04466
 O110 O -0.00235 0.47143 -0.04981
 O111 O -0.00280 0.47169 0.04424
 O112 O -0.00232 0.52867 -0.05024
 H113 H -0.06862 0.54303 -0.00326
 H114 H -0.00236 0.45661 -0.06883
 H115 H 0.06351 0.54269 -0.00248
 H116 H -0.00279 0.45701 0.06332
 H117 H -0.03007 0.51444 -0.10392
 H118 H 0.02551 0.51370 -0.10348
 H119 H 0.09849 0.48465 -0.03009
 H120 H 0.09822 0.48519 0.02554
 H121 H 0.02496 0.51460 0.09825
 H122 H -0.03056 0.51392 0.09788
 H123 H -0.10366 0.48480 0.02469
 H124 H -0.10335 0.48585 -0.03094
 O125 O 1.06275 -0.05338 0.54603
 O126 O 1.03074 -0.02461 0.58145
 C127 C 1.05375 -0.04527 0.57520
 O128 O 1.05925 0.06277 0.45494
 O129 O 1.03054 0.03089 0.41931
 C130 C 1.05116 0.05386 0.42571
 O131 O 1.06203 0.05957 0.54646
 O132 O 1.03103 0.02967 0.58171
 C133 C 1.05353 0.05084 0.57560
 O134 O 1.05991 -0.05623 0.45453
 O135 O 1.03020 -0.02513 0.41903
 C136 C 1.05135 -0.04769 0.42533
 Zr137 Zr 1.04449 -0.03802 0.50030
 O138 O 1.09581 -0.03762 0.49686
 O139 O 1.04483 -0.08946 0.50378
 Zr140 Zr 1.04377 0.04448 0.50056
 O141 O 1.09507 0.04527 0.49719
 O142 O 1.04277 0.09590 0.50437
 O143 O 1.05047 0.00322 0.52936
 O144 O 1.05018 0.00328 0.47233
 O145 O 0.94715 -0.05683 0.45426
 O146 O 0.97594 -0.02488 0.41895
 C147 C 0.95532 -0.04789 0.42513
 O148 O 0.94314 0.05903 0.54586
 O149 O 0.97512 0.03031 0.58138
 C150 C 0.95205 0.05089 0.57506
 O151 O 0.94609 0.06195 0.45447
 O152 O 0.97549 0.03050 0.41906
 C153 C 0.95445 0.05317 0.42530
 O154 O 0.94395 -0.05383 0.54571
 O155 O 0.97479 -0.02403 0.58138
 C156 C 0.95232 -0.04520 0.57495
 Zr157 Zr 0.96241 -0.03865 0.50007
 O158 O 0.91112 -0.03960 0.49627
 O159 O 0.96350 -0.09008 0.50365
 Zr160 Zr 0.96160 0.04379 0.50020
 O161 O 0.91029 0.04338 0.49644
 O162 O 0.96129 0.09522 0.50391
 Zr163 Zr 1.00298 0.00286 0.54846
 Zr164 Zr 1.00320 0.00299 0.45207
 O165 O 0.95612 0.00255 0.47201
 O166 O 0.95555 0.00252 0.52903
 O167 O 1.00354 -0.04464 0.47116
 O168 O 1.00260 0.05005 0.52858
 O169 O 1.00343 -0.04429 0.52838
 O170 O 1.00269 0.05057 0.47137
 H171 H 1.06927 0.00333 0.45770
 H172 H 1.00252 0.06910 0.54338
 H173 H 0.93699 0.00243 0.45737
 H174 H 1.00344 -0.06338 0.54308
 H175 H 1.03017 0.10429 0.48568
 H176 H 0.97442 0.10381 0.48574
 H177 H 0.90188 0.03012 0.51461
 H178 H 0.90239 -0.02549 0.51369
 H179 H 0.97592 -0.09846 0.48485
 H180 H 1.03161 -0.09802 0.48559
 H181 H 1.10419 -0.02453 0.51524
 H182 H 1.10367 0.03113 0.51464
 C183 C 1.14059 0.14281 0.26623
 C184 C 1.14338 0.17667 0.26355
 C185 C 1.15755 0.19041 0.23595
 C186 C 1.16907 0.17042 0.21069
 C187 C 1.16631 0.13643 0.21368
 C188 C 1.15215 0.12273 0.24128
 C189 C 1.12539 0.12859 0.29426
 C190 C 1.11247 0.11630 0.31745
 C191 C 1.09682 0.10113 0.34472
 C192 C 1.10522 0.11001 0.37648
 C193 C 1.09026 0.09482 0.40291
 C194 C 1.06670 0.07050 0.39786
 C195 C 1.05832 0.06193 0.36578
 C196 C 1.07330 0.07714 0.33945
 H197 H 1.13450 0.19243 0.28272
 H198 H 1.15960 0.21663 0.23425
 H199 H 1.17472 0.12056 0.19442
 H200 H 1.15001 0.09650 0.24306
 H201 H 1.12342 0.12856 0.38081
 H202 H 1.09729 0.10202 0.42724
 H203 H 1.04028 0.04336 0.36095
 H204 H 1.06661 0.07009 0.31497
 C205 C 0.86562 -0.13908 0.26649
 C206 C 0.88429 -0.15044 0.24044
 C207 C 0.86916 -0.16465 0.21352
 C208 C 0.83514 -0.16766 0.21236
 C209 C 0.81658 -0.15628 0.23868
 C210 C 0.83175 -0.14206 0.26559
 C211 C 0.88121 -0.12402 0.29395
 C212 C 0.89431 -0.11122 0.31684
 C213 C 0.90993 -0.09571 0.34403
 C214 C 0.93328 -0.07158 0.33878
 C215 C 0.94818 -0.05613 0.36514
 C216 C 0.93988 -0.06463 0.39719
 C217 C 0.91648 -0.08908 0.40220
 C218 C 0.90161 -0.10448 0.37577
 H219 H 0.91051 -0.14816 0.24085
 H220 H 0.88392 -0.17298 0.19341
 H221 H 0.79037 -0.15852 0.23838
 H222 H 0.81709 -0.13334 0.28564
 H223 H 0.93990 -0.06461 0.31429
 H224 H 0.96611 -0.03746 0.36036
 H225 H 0.90951 -0.09624 0.42651
 H226 H 0.88355 -0.12314 0.38009
 C227 C 0.85956 0.13862 0.73389
 C228 C 0.82567 0.14098 0.73550
 C229 C 0.81087 0.15497 0.76270
 C230 C 0.82983 0.16676 0.78861
 C231 C 0.86387 0.16443 0.78671
 C232 C 0.87862 0.15044 0.75950
 C233 C 0.87482 0.12370 0.70619
 C234 C 0.88783 0.11105 0.68319
 C235 C 0.90365 0.09580 0.65599
 C236 C 0.89496 0.10427 0.62423
 C237 C 0.91059 0.08961 0.59783
 C238 C 0.93516 0.06626 0.60291
 C239 C 0.94359 0.05785 0.63500
 C240 C 0.92793 0.07253 0.66131
 H241 H 0.81070 0.13191 0.71580
 H242 H 0.78463 0.15668 0.76358
 H243 H 0.87894 0.17307 0.80649
 H244 H 0.90487 0.14865 0.75854
 H245 H 0.87618 0.12226 0.61986
 H246 H 0.90348 0.09666 0.57350
 H247 H 0.96234 0.03995 0.63984
 H248 H 0.93482 0.06579 0.68581
 C249 C 1.14270 -0.13636 0.73417
 C250 C 1.14487 -0.17037 0.73522
 C251 C 1.15816 -0.18577 0.76244
 C252 C 1.16942 -0.16731 0.78895
 C253 C 1.16730 -0.13315 0.78761
 C254 C 1.15401 -0.11779 0.76038
 C255 C 1.12834 -0.12053 0.70650
 C256 C 1.11601 -0.10722 0.68349
 C257 C 1.10090 -0.09129 0.65627
 C258 C 1.10970 -0.09972 0.62453
 C259 C 1.09456 -0.08461 0.59809
 C260 C 1.07035 -0.06088 0.60310
 C261 C 1.06186 -0.05245 0.63516
 C262 C 1.07704 -0.06758 0.66152
 H263 H 1.13617 -0.18497 0.71507
 H264 H 1.15975 -0.21209 0.76287
 H265 H 1.17556 -0.11845 0.80785
 H266 H 1.15234 -0.09146 0.75986
 H267 H 1.12814 -0.11807 0.62021
 H268 H 1.10169 -0.09169 0.57378
 H269 H 1.04338 -0.03427 0.63995
 H270 H 1.07005 -0.06088 0.68600
 C271 C 0.26604 1.14080 1.13827
 C272 C 0.24020 1.15154 1.11888
 C273 C 0.21301 1.16602 1.13318
 C274 C 0.21134 1.16994 1.16707
 C275 C 0.23743 1.15915 1.18637
 C276 C 0.26463 1.14465 1.17203
 C277 C 0.29377 1.12549 1.12347
 C278 C 0.31679 1.11247 1.11086
 C279 C 0.34400 1.09668 1.09559
 C280 C 0.33868 1.07250 1.07222
 C281 C 0.36500 1.05691 1.05746
 C282 C 0.39709 1.06532 1.06590
 C283 C 0.40217 1.08979 1.08935
 C284 C 0.37577 1.10534 1.10409
 H285 H 0.24101 1.14857 1.09274
 H286 H 0.19308 1.17387 1.11786
 H287 H 0.23673 1.16210 1.21250
 H288 H 0.28450 1.13641 1.18725
 H289 H 0.31417 1.06564 1.06544
 H290 H 0.36016 1.03825 1.03948
 H291 H 0.42652 1.09689 1.09641
 H292 H 0.38014 1.12406 1.12215
 C293 C 0.26584 0.85688 0.86400
 C294 C 0.23969 0.84568 0.88254
 C295 C 0.21245 0.83229 0.86724
 C296 C 0.21107 0.82997 0.83319
 C297 C 0.23754 0.84110 0.81476
 C298 C 0.26476 0.85449 0.83009
 C299 C 0.29350 0.87141 0.87974
 C300 C 0.31650 0.88389 0.89295
 C301 C 0.34373 0.89917 0.90872
 C302 C 0.33846 0.92315 0.93231
 C303 C 0.36482 0.93849 0.94729
 C304 C 0.39690 0.93005 0.93883
 C305 C 0.40192 0.90573 0.91521
 C306 C 0.37548 0.89043 0.90026
 H307 H 0.24023 0.84752 0.90880
 H308 H 0.19224 0.82414 0.88191
 H309 H 0.23707 0.83937 0.78852
 H310 H 0.28488 0.86310 0.81552
 H311 H 0.31397 0.93010 0.93903
 H312 H 0.36002 0.95704 0.96539
 H313 H 0.42625 0.89863 0.90812
 H314 H 0.37981 0.87191 0.88199
 C315 C 0.73514 0.86212 1.14350
 C316 C 0.73703 0.82821 1.14637
 C317 C 0.76464 0.81372 1.15997
 C318 C 0.79069 0.83302 1.17084
 C319 C 0.78850 0.86707 1.16801
 C320 C 0.76089 0.88152 1.15441
 C321 C 0.70710 0.87703 1.12881
 C322 C 0.68385 0.88968 1.11619
 C323 C 0.65642 0.90496 1.10072
 C324 C 0.62475 0.89616 1.10932
 C325 C 0.59815 0.91079 1.09393
 C326 C 0.60295 0.93442 1.06966
 C327 C 0.63494 0.94318 1.06134
 C328 C 0.66144 0.92853 1.07677
 H329 H 0.71724 0.81297 1.13798
 H330 H 0.76571 0.78747 1.16210
 H331 H 0.80838 0.88241 1.17594
 H332 H 0.75973 0.90778 1.15219
 H333 H 0.62061 0.87792 1.12784
 H334 H 0.57390 0.90347 1.10094
 H335 H 0.63957 0.96131 1.04284
 H336 H 0.68586 0.93553 1.06994
 C337 C 0.73232 1.13457 0.85930
 C338 C 0.75834 1.11578 0.84795
 C339 C 0.78527 1.13087 0.83390
 C340 C 0.78648 1.16497 0.83105
 C341 C 0.76018 1.18365 0.84239
 C342 C 0.73325 1.16852 0.85644
 C343 C 0.70491 1.11903 0.87432
 C344 C 0.68209 1.10596 0.88713
 C345 C 0.65503 1.09037 0.90273
 C346 C 0.66052 1.06660 0.92642
 C347 C 0.63431 1.05178 0.94202
 C348 C 0.60216 1.06056 0.93410
 C349 C 0.59692 1.08435 0.91006
 C350 C 0.62320 1.09916 0.89451
 H351 H 0.75790 1.08950 0.85014
 H352 H 0.80537 1.11602 0.82560
 H353 H 0.76052 1.20993 0.84025
 H354 H 0.71324 1.18329 0.86516
 H355 H 0.68508 1.05962 0.93295
 H356 H 0.63927 1.03353 0.96034
 H357 H 0.57253 1.09170 0.90336
 H358 H 0.61870 1.11755 0.87620
 C359 C 0.13870 0.26652 0.13664
 C360 C 0.17254 0.26498 0.13973
 C361 C 0.18712 0.23819 0.15480
 C362 C 0.16798 0.21263 0.16694
 C363 C 0.13400 0.21446 0.16387
 C364 C 0.11946 0.24127 0.14880
 C365 C 0.12370 0.29387 0.12075
 C366 C 0.11098 0.31668 0.10740
 C367 C 0.09561 0.34379 0.09147
 C368 C 0.10405 0.37568 0.09997
 C369 C 0.08878 0.40204 0.08483
 C370 C 0.06479 0.39682 0.06095
 C371 C 0.05664 0.36461 0.05245
 C372 C 0.07196 0.33831 0.06764
 H373 H 0.18765 0.28442 0.13043
 H374 H 0.21332 0.23735 0.15707
 H375 H 0.11880 0.19493 0.17276
 H376 H 0.09325 0.24220 0.14646
 H377 H 0.12234 0.38017 0.11840
 H378 H 0.09565 0.42648 0.09197
 H379 H 0.03833 0.35967 0.03418
 H380 H 0.06526 0.31371 0.06088
 C381 C -0.14449 0.26473 -0.13850
 C382 C -0.14737 0.26301 -0.17235
 C383 C -0.16102 0.23547 -0.18697
 C384 C -0.17193 0.20933 -0.16788
 C385 C -0.16911 0.21136 -0.13389
 C386 C -0.15547 0.23889 -0.11931
 C387 C -0.12971 0.29268 -0.12346
 C388 C -0.11702 0.31587 -0.11074
 C389 C -0.10147 0.34325 -0.09542
 C390 C -0.07792 0.33807 -0.07143
 C391 C -0.06240 0.36452 -0.05676
 C392 C -0.07023 0.39663 -0.06592
 C393 C -0.09410 0.40158 -0.08996
 C394 C -0.10958 0.37504 -0.10461
 H395 H -0.13893 0.28286 -0.18743
 H396 H -0.16314 0.23452 -0.21317
 H397 H -0.17709 0.19141 -0.11871
 H398 H -0.15325 0.23993 -0.09310
 H399 H -0.07146 0.31355 -0.06413
 H400 H -0.04420 0.35976 -0.03832
 H401 H -0.10072 0.42593 -0.09759
 H402 H -0.12778 0.37931 -0.12318
 C403 C 0.13584 0.73367 -0.14272
 C404 C 0.16977 0.73464 -0.14488
 C405 C 0.18515 0.76185 -0.15819
 C406 C 0.16675 0.78841 -0.16947
 C407 C 0.13267 0.78715 -0.16736
 C408 C 0.11733 0.75993 -0.15406
 C409 C 0.12004 0.70601 -0.12833
 C410 C 0.10678 0.68301 -0.11596
 C411 C 0.09096 0.65578 -0.10082
 C412 C 0.09987 0.62392 -0.10903
 C413 C 0.08489 0.59749 -0.09381
 C414 C 0.06080 0.60262 -0.07010
 C415 C 0.05188 0.63480 -0.06221
 C416 C 0.06688 0.66115 -0.07747
 H417 H 0.18432 0.71445 -0.13616
 H418 H 0.21140 0.76222 -0.15976
 H419 H 0.11802 0.80743 -0.17564
 H420 H 0.09106 0.75947 -0.15240
 H421 H 0.11851 0.61951 -0.12706
 H422 H 0.09235 0.57308 -0.10048
 H423 H 0.03341 0.63968 -0.04413
 H424 H 0.05980 0.68573 -0.07093
 C425 C -0.13843 0.73464 0.13955
 C426 C -0.14068 0.73645 0.17343
 C427 C -0.15472 0.76374 0.18815
 C428 C -0.16668 0.78954 0.16913
 C429 C -0.16448 0.78743 0.13512
 C430 C -0.15044 0.76014 0.12043
 C431 C -0.12343 0.70687 0.12439
 C432 C -0.11071 0.68378 0.11150
 C433 C -0.09539 0.65644 0.09587
 C434 C -0.07162 0.66165 0.07220
 C435 C -0.05690 0.63519 0.05669
 C436 C -0.06579 0.60307 0.06466
 C437 C -0.08961 0.59811 0.08864
 C438 C -0.10430 0.62464 0.10411
 H439 H -0.13147 0.71684 0.18845
 H440 H -0.15634 0.76477 0.21438
 H441 H -0.17325 0.80714 0.12000
 H442 H -0.14874 0.75902 0.09419
 H443 H -0.06453 0.68617 0.06565
 H444 H -0.03863 0.63995 0.03840
 H445 H -0.09702 0.57375 0.09539
 H446 H -0.12267 0.62036 0.12243
 C447 C 1.14340 0.13858 0.73630
 C448 C 1.14361 0.17246 0.73969
 C449 C 1.15707 0.18684 0.76742
 C450 C 1.17065 0.16753 0.79244
 C451 C 1.17034 0.13331 0.78843
 C452 C 1.15684 0.11907 0.76068
 C453 C 1.12886 0.12373 0.70811
 C454 C 1.11638 0.11108 0.68476
 C455 C 1.10106 0.09574 0.65725
 C456 C 1.10924 0.10504 0.62562
 C457 C 1.09397 0.09035 0.59897
 C458 C 1.07024 0.06615 0.60367
 C459 C 1.06235 0.05688 0.63562
 C460 C 1.07766 0.07158 0.66217
 H461 H 1.13334 0.18780 0.72089
 H462 H 1.15738 0.21315 0.76905
 H463 H 1.17975 0.11747 0.80724
 H464 H 1.15660 0.09278 0.75840
 H465 H 1.12733 0.12373 0.62154
 H466 H 1.10063 0.09808 0.57475
 H467 H 1.04427 0.03831 0.64020
 H468 H 1.07115 0.06418 0.68655
 C469 C 0.86136 -0.13537 0.73299
 C470 C 0.88071 -0.14738 0.75829
 C471 C 0.86631 -0.16229 0.78514
 C472 C 0.83234 -0.16537 0.78700
 C473 C 0.81308 -0.15334 0.76143
 C474 C 0.82752 -0.13843 0.73459
 C475 C 0.87627 -0.11972 0.70555
 C476 C 0.88898 -0.10656 0.68271
 C477 C 0.90444 -0.09084 0.65562
 C478 C 0.92798 -0.06689 0.66108
 C479 C 0.94341 -0.05190 0.63486
 C480 C 0.93550 -0.06070 0.60272
 C481 C 0.91164 -0.08469 0.59750
 C482 C 0.89625 -0.09965 0.62380
 H483 H 0.90691 -0.14507 0.75733
 H484 H 0.88161 -0.17109 0.80467
 H485 H 0.78689 -0.15561 0.76228
 H486 H 0.81232 -0.12924 0.71513
 H487 H 0.93451 -0.05989 0.68563
 H488 H 0.96162 -0.03353 0.63982
 H489 H 0.90495 -0.09206 0.57313
 H490 H 0.87806 -0.11817 0.61931
 C491 C 1.13946 -0.13943 0.26608
 C492 C 1.15136 -0.12020 0.24070
 C493 C 1.16527 -0.13486 0.21339
 C494 C 1.16746 -0.16896 0.21112
 C495 C 1.15562 -0.18809 0.23680
 C496 C 1.14170 -0.17340 0.26411
 C497 C 1.12455 -0.12428 0.29387
 C498 C 1.11187 -0.11138 0.31694
 C499 C 1.09654 -0.09571 0.34422
 C500 C 1.07275 -0.07190 0.33899
 C501 C 1.05797 -0.05639 0.36536
 C502 C 1.06680 -0.06448 0.39742
 C503 C 1.09067 -0.08858 0.40242
 C504 C 1.10542 -0.10406 0.37597
 H505 H 1.14966 -0.09389 0.24193
 H506 H 1.17395 -0.11964 0.19379
 H507 H 1.15722 -0.21439 0.23566
 H508 H 1.13258 -0.18851 0.28361
 H509 H 1.06567 -0.06526 0.31452
 H510 H 1.03969 -0.03801 0.36056
 H511 H 1.09805 -0.09542 0.42673
 H512 H 1.12380 -0.12247 0.38029
 C513 C 0.86381 0.14231 0.26597
 C514 C 0.82990 0.14470 0.26471
 C515 C 0.81468 0.15811 0.23742
 C516 C 0.83324 0.16928 0.21105
 C517 C 0.86730 0.16694 0.21261
 C518 C 0.88248 0.15353 0.23991
 C519 C 0.87945 0.12784 0.29374
 C520 C 0.89261 0.11542 0.31681
 C521 C 0.90840 0.10023 0.34410
 C522 C 0.89980 0.10890 0.37583
 C523 C 0.91486 0.09376 0.40231
 C524 C 0.93875 0.06968 0.39736
 C525 C 0.94731 0.06128 0.36531
 C526 C 0.93222 0.07646 0.33891
 H527 H 0.81521 0.13608 0.28474
 H528 H 0.78844 0.15986 0.23684
 H529 H 0.88208 0.17511 0.19249
 H530 H 0.90874 0.15170 0.24058
 H531 H 0.88136 0.12727 0.38012
 H532 H 0.90767 0.10082 0.42661
 H533 H 0.96560 0.04290 0.36055
 H534 H 0.93906 0.06956 0.31445
 C535 C 0.13967 0.26448 -0.13840
 C536 C 0.17348 0.26116 -0.13805
 C537 C 0.18814 0.23378 -0.15198
 C538 C 0.16920 0.20903 -0.16660
 C539 C 0.13505 0.21298 -0.16687
 C540 C 0.12053 0.24039 -0.15289
 C541 C 0.12455 0.29238 -0.12351
 C542 C 0.11167 0.31555 -0.11088
 C543 C 0.09600 0.34296 -0.09564
 C544 C 0.10472 0.37475 -0.10412
 C545 C 0.08927 0.40133 -0.08946
 C546 C 0.06483 0.39643 -0.06609
 C547 C 0.05635 0.36432 -0.05767
 C548 C 0.07184 0.33782 -0.07235
 H549 H 0.18856 0.27975 -0.12699
 H550 H 0.21441 0.23220 -0.15182
 H551 H 0.11947 0.19436 -0.17709
 H552 H 0.09429 0.24264 -0.15313
 H553 H 0.12341 0.37900 -0.12213
 H554 H 0.09641 0.42568 -0.09653
 H555 H 0.03770 0.35959 -0.03976
 H556 H 0.06491 0.31330 -0.06559
 C557 C -0.14213 0.26573 0.13609
 C558 C -0.15351 0.23953 0.11750
 C559 C -0.16693 0.21230 0.13274
 C560 C -0.16912 0.21095 0.16680
 C561 C -0.15777 0.23743 0.18528
 C562 C -0.14435 0.26465 0.17000
 C563 C -0.12770 0.29344 0.12037
 C564 C -0.11533 0.31647 0.10714
 C565 C -0.10021 0.34373 0.09128
 C566 C -0.10893 0.37559 0.09969
 C567 C -0.09383 0.40205 0.08462
 C568 C -0.06972 0.39694 0.06092
 C569 C -0.06129 0.36476 0.05252
 C570 C -0.07643 0.33838 0.06761
 H571 H -0.15181 0.24006 0.09125
 H572 H -0.17524 0.19209 0.11802
 H573 H -0.15940 0.23700 0.21152
 H574 H -0.13561 0.28479 0.18462
 H575 H -0.12731 0.38000 0.11800
 H576 H -0.10092 0.42645 0.09168
 H577 H -0.04289 0.35988 0.03437
 H578 H -0.06950 0.31381 0.06091
 C579 C -0.13943 0.73531 -0.14305
 C580 C -0.14235 0.73791 -0.17683
 C581 C -0.15672 0.76552 -0.19062
 C582 C -0.16833 0.79088 -0.17075
 C583 C -0.16542 0.78798 -0.13684
 C584 C -0.15106 0.76037 -0.12310
 C585 C -0.12413 0.70719 -0.12879
 C586 C -0.11118 0.68389 -0.11649
 C587 C -0.09555 0.65643 -0.10135
 C588 C -0.07159 0.66153 -0.07774
 C589 C -0.05671 0.63502 -0.06250
 C590 C -0.06561 0.60292 -0.07066
 C591 C -0.08958 0.59804 -0.09462
 C592 C -0.10444 0.62464 -0.10983
 H593 H -0.13344 0.71866 -0.19251
 H594 H -0.15887 0.76715 -0.21678
 H595 H -0.17389 0.80731 -0.12106
 H596 H -0.14883 0.75865 -0.09693
 H597 H -0.06452 0.68603 -0.07098
 H598 H -0.03834 0.63974 -0.04422
 H599 H -0.09702 0.57370 -0.10150
 H600 H -0.12297 0.62042 -0.12808
 C601 C 0.13510 0.73360 0.13958
 C602 C 0.11640 0.75967 0.15108
 C603 C 0.13151 0.78660 0.16535
 C604 C 0.16554 0.78779 0.16828
 C605 C 0.18413 0.76145 0.15678
 C606 C 0.16898 0.73452 0.14251
 C607 C 0.11953 0.70611 0.12444
 C608 C 0.10647 0.68320 0.11157
 C609 C 0.09088 0.65599 0.09597
 C610 C 0.06741 0.66135 0.07193
 C611 C 0.05253 0.63498 0.05642
 C612 C 0.06095 0.60280 0.06476
 C613 C 0.08448 0.59769 0.08911
 C614 C 0.09933 0.62412 0.10457
 H615 H 0.09016 0.75925 0.14885
 H616 H 0.11671 0.80673 0.17377
 H617 H 0.21035 0.76175 0.15896
 H618 H 0.18368 0.71447 0.13369
 H619 H 0.06067 0.68593 0.06509
 H620 H 0.03450 0.63986 0.03785
 H621 H 0.09154 0.57328 0.09614
 H622 H 0.11748 0.61971 0.12315
 C623 C 0.26548 1.13937 0.86482
 C624 C 0.24093 1.15323 0.88377
 C625 C 0.21381 1.16744 0.86898
 C626 C 0.21065 1.16805 0.83477
 C627 C 0.23585 1.15404 0.81604
 C628 C 0.26293 1.13988 0.83096
 C629 C 0.29309 1.12424 0.88015
 C630 C 0.31607 1.11136 0.89306
 C631 C 0.34334 1.09574 0.90852
 C632 C 0.33814 1.07176 0.93205
 C633 C 0.36454 1.05629 0.94688
 C634 C 0.39660 1.06459 0.93835
 C635 C 0.40156 1.08885 0.91475
 C636 C 0.37509 1.10428 0.89994
 H637 H 0.24258 1.15279 0.91004
 H638 H 0.19482 1.17718 0.88438
 H639 H 0.23485 1.15456 0.78976
 H640 H 0.28188 1.12931 0.81604
 H641 H 0.31366 1.06497 0.93888
 H642 H 0.35978 1.03778 0.96497
 H643 H 0.42587 1.09586 0.90760
 H644 H 0.37938 1.12281 0.88175
 C645 C 0.26529 0.85671 1.13848
 C646 C 0.23942 0.84587 1.11918
 C647 C 0.21188 0.83230 1.13364
 C648 C 0.20987 0.82942 1.16761
 C649 C 0.23602 0.84024 1.18681
 C650 C 0.26356 0.85381 1.17232
 C651 C 0.29329 0.87133 1.12354
 C652 C 0.31649 0.88388 1.11084
 C653 C 0.34383 0.89927 1.09545
 C654 C 0.33864 0.92278 1.07144
 C655 C 0.36502 0.93814 1.05667
 C656 C 0.39709 0.93020 1.06574
 C657 C 0.40206 0.90637 1.08980
 C658 C 0.37558 0.89104 1.10456
 H659 H 0.24044 0.84810 1.09299
 H660 H 0.19194 0.82441 1.11837
 H661 H 0.23509 0.83808 1.21300
 H662 H 0.28343 0.86214 1.18748
 H663 H 0.31416 0.92933 1.06419
 H664 H 0.36024 0.95631 1.03821
 H665 H 0.42637 0.89965 1.09737
 H666 H 0.37987 0.87286 1.12313
 C667 C 0.73416 1.13619 1.14231
 C668 C 0.76025 1.11748 1.15369
 C669 C 0.78754 1.13268 1.16708
 C670 C 0.78907 1.16683 1.16926
 C671 C 0.76268 1.18544 1.15793
 C672 C 0.73540 1.17020 1.14453
 C673 C 0.70639 1.12052 1.12786
 C674 C 0.68332 1.10733 1.11546
 C675 C 0.65602 1.09154 1.10028
 C676 C 0.66120 1.06728 1.07695
 C677 C 0.63480 1.05226 1.06171
 C678 C 0.60274 1.06133 1.06959
 C679 C 0.59779 1.08561 1.09327
 C680 C 0.62428 1.10060 1.10847
 H681 H 0.75959 1.09115 1.15199
 H682 H 0.80768 1.11786 1.17539
 H683 H 0.76324 1.21175 1.15956
 H684 H 0.71535 1.18492 1.13580
 H685 H 0.68568 1.06007 1.07042
 H686 H 0.63956 1.03365 1.04365
 H687 H 0.57349 1.09319 1.09993
 H688 H 0.62000 1.11938 1.12649
 C689 C 0.73409 0.86304 0.85856
 C690 C 0.73588 0.82918 0.85488
 C691 C 0.76318 0.81494 0.84046
 C692 C 0.78901 0.83441 0.82954
 C693 C 0.78695 0.86841 0.83325
 C694 C 0.75966 0.88261 0.84767
 C695 C 0.70627 0.87773 0.87387
 C696 C 0.68318 0.89022 0.88692
 C697 C 0.65588 0.90531 0.90278
 C698 C 0.62415 0.89604 0.89477
 C699 C 0.59768 0.91055 0.91045
 C700 C 0.60264 0.93455 0.93441
 C701 C 0.63469 0.94378 0.94215
 C702 C 0.66107 0.92925 0.92644
 H703 H 0.71624 0.81380 0.86323
 H704 H 0.76416 0.78873 0.83768
 H705 H 0.80667 0.88388 0.82531
 H706 H 0.75858 0.90883 0.85049
 H707 H 0.61986 0.87753 0.87648
 H708 H 0.57338 0.90287 0.90387
 H709 H 0.63946 0.96219 0.96040
 H710 H 0.68554 0.93663 0.93281
   
