data_POSCAR
  _audit_creation_date              2014-09-24
  _audit_creation_method            'ToBaCCo'
  _symmetry_space_group_name_H-M    'P1'
  _symmetry_Int_Tables_number       1
  _symmetry_cell_setting            triclinic
  loop_
  _symmetry_equiv_pos_as_xyz
 x,y,z
_cell_length_a 23.6346
_cell_length_b 22.1509
_cell_length_c 23.3965
_cell_angle_alpha 92.511800
_cell_angle_beta 93.040000
_cell_angle_gamma 92.856500
loop_
  _atom_site_label
  _atom_site_type_symbol
  _atom_site_fract_x
  _atom_site_fract_y
  _atom_site_fract_z
N1 N 0.22904 0.20896 0.23502
 N2 N 0.78576 -0.24658 0.24808
 N3 N 0.70308 0.26928 0.75217
 N4 N 0.25497 -0.24879 0.76514
 N5 N 0.77014 -0.22574 0.76784
 N6 N 0.21028 0.22462 0.75146
 N7 N 0.28740 -0.29307 0.24495
 N8 N 0.70720 0.27152 0.27409
 O9 O 0.20539 0.01752 0.42807
 O10 O 0.20714 -0.08423 0.54782
 O11 O 0.19711 0.03087 0.53708
 O12 O 0.21710 -0.09781 0.43645
 O13 O 0.30986 -0.08029 0.44692
 O14 O 0.28976 0.04303 0.55285
 O15 O 0.30049 -0.07176 0.55838
 O16 O 0.29796 0.03612 0.44292
 Cu17 Cu 0.19734 -0.03564 0.48603
 Cu18 Cu 0.30896 -0.01711 0.50122
 C19 C 0.25118 0.04532 0.41629
 C20 C 0.25376 -0.09417 0.57437
 C21 C 0.24020 0.05925 0.56212
 C22 C 0.26692 -0.11044 0.42386
 O23 O 0.76645 0.08126 0.56163
 O24 O 0.79881 -0.03829 0.45635
 O25 O 0.77390 0.07451 0.45332
 O26 O 0.79610 -0.03032 0.56888
 O27 O 0.70569 -0.06165 0.55902
 O28 O 0.68283 0.04617 0.44566
 O29 O 0.70791 -0.06642 0.44624
 O30 O 0.67595 0.04987 0.55528
 Cu31 Cu 0.79318 0.02394 0.51110
 Cu32 Cu 0.68409 -0.01181 0.50071
 C33 C 0.71560 0.08677 0.57532
 C34 C 0.75844 -0.07098 0.43134
 C35 C 0.72421 0.08013 0.43151
 C36 C 0.75455 -0.06308 0.58410
 O37 O 0.41978 0.18466 0.04840
 O38 O 0.53235 0.20363 -0.05301
 O39 O 0.52828 0.20437 0.06042
 O40 O 0.42187 0.18690 -0.06089
 O41 O 0.40691 0.28372 -0.05112
 O42 O 0.52464 0.30310 0.05771
 O43 O 0.51688 0.30102 -0.05525
 O44 O 0.41550 0.28413 0.05792
 Cu45 Cu 0.47757 0.18502 -0.00195
 Cu46 Cu 0.46595 0.30316 0.00239
 C47 C 0.39873 0.23123 0.07053
 C48 C 0.54177 0.25506 -0.07344
 C49 C 0.54366 0.25709 0.08094
 C50 C 0.39323 0.23167 -0.07414
 O51 O 0.57934 0.78912 0.06465
 O52 O 0.46797 0.79134 -0.05104
 O53 O 0.47088 0.77843 0.06146
 O54 O 0.57850 0.79962 -0.04542
 O55 O 0.57820 0.70039 -0.06081
 O56 O 0.47314 0.67998 0.04744
 O57 O 0.46809 0.69235 -0.06235
 O58 O 0.58332 0.69063 0.04960
 Cu59 Cu 0.52344 0.79968 0.00839
 Cu60 Cu 0.52578 0.68096 -0.00796
 C61 C 0.60007 0.73934 0.07744
 C62 C 0.44941 0.74229 -0.07732
 C63 C 0.45529 0.72524 0.07463
 C64 C 0.59643 0.75335 -0.07123
 O65 O 0.03965 0.40530 0.19648
 O66 O -0.04533 0.53900 0.19811
 O67 O 0.06179 0.52072 0.19209
 O68 O -0.06877 0.42565 0.20767
 O69 O -0.05333 0.43339 0.30130
 O70 O 0.07323 0.53190 0.28597
 O71 O -0.03244 0.54942 0.29197
 O72 O 0.05467 0.41580 0.29055
 Cu73 Cu -0.00446 0.47100 0.18914
 Cu74 Cu 0.01166 0.48287 0.30198
 C75 C 0.06283 0.38885 0.24291
 C76 C -0.05264 0.56804 0.24480
 C77 C 0.08891 0.54424 0.23659
 C78 C -0.08444 0.41515 0.25760
 O79 O 0.05222 0.55074 0.81784
 O80 O -0.07290 0.44549 0.81534
 O81 O 0.03638 0.43356 0.81205
 O82 O -0.05639 0.56251 0.81590
 O83 O -0.06546 0.55748 0.72120
 O84 O 0.03358 0.43475 0.71778
 O85 O -0.07630 0.44083 0.72062
 O86 O 0.04348 0.55470 0.72418
 Cu87 Cu -0.00950 0.49797 0.82472
 Cu88 Cu -0.01616 0.49637 0.71136
 C89 C 0.06750 0.57358 0.77208
 C90 C -0.09567 0.42507 0.76765
 C91 C 0.05057 0.41187 0.76406
 C92 C -0.07688 0.58157 0.76910
 C93 C 0.25736 0.19163 0.13493
 C94 C 0.27076 0.21171 0.19245
 C95 C 0.32512 0.23683 0.20849
 C96 C 0.36595 0.24330 0.16819
 C97 C 0.35377 0.22374 0.11103
 C98 C 0.29921 0.19766 0.09373
 C99 C 0.20330 0.16527 0.11765
 C100 C 0.19037 0.14630 0.06060
 C101 C 0.23095 0.15308 0.01999
 C102 C 0.28491 0.17846 0.03623
 H103 H 0.17082 0.15893 0.14800
 H104 H 0.14865 0.12630 0.04781
 H105 H 0.22061 0.13856 -0.02430
 H106 H 0.31506 0.18317 0.00342
 H107 H 0.33543 0.25256 0.25246
 H108 H 0.40752 0.26339 0.18175
 C109 C 0.70105 0.69349 0.20157
 C110 C 0.73700 0.74693 0.20788
 C111 C 0.72365 0.79671 0.17601
 C112 C 0.67945 0.79275 0.13441
 C113 C 0.64508 0.73948 0.12439
 C114 C 0.65430 0.68976 0.15989
 C115 C 0.70868 0.64494 0.23779
 C116 C 0.67218 0.59342 0.23276
 C117 C 0.62642 0.58988 0.19279
 C118 C 0.61696 0.63763 0.15725
 H119 H 0.74149 0.64679 0.27157
 H120 H 0.67870 0.55664 0.26098
 H121 H 0.59734 0.55040 0.19006
 H122 H 0.57905 0.63337 0.12949
 H123 H 0.74951 0.83850 0.18190
 H124 H 0.67274 0.83182 0.10908
 C125 C 0.60576 0.28729 -0.21651
 C126 C 0.66165 0.26920 -0.20473
 C127 C 0.67676 0.24813 -0.15078
 C128 C 0.63727 0.24378 -0.10886
 C129 C 0.58169 0.26115 -0.11943
 C130 C 0.56521 0.28274 -0.17374
 C131 C 0.58942 0.31003 -0.26991
 C132 C 0.53381 0.32599 -0.28174
 C133 C 0.49366 0.31980 -0.24067
 C134 C 0.50897 0.29843 -0.18714
 H135 H 0.61934 0.31590 -0.30280
 H136 H 0.52175 0.34305 -0.32305
 H137 H 0.45044 0.33175 -0.25027
 H138 H 0.47623 0.29389 -0.15683
 H139 H 0.71931 0.23381 -0.14164
 H140 H 0.65025 0.22685 -0.06769
 C141 C 0.34107 0.69675 -0.20304
 C142 C 0.30732 0.74784 -0.20052
 C143 C 0.32649 0.79836 -0.16563
 C144 C 0.37303 0.79583 -0.12717
 C145 C 0.40456 0.74384 -0.12457
 C146 C 0.39111 0.69530 -0.16605
 C147 C 0.32783 0.64851 -0.24364
 C148 C 0.36280 0.60000 -0.24833
 C149 C 0.41243 0.59933 -0.21389
 C150 C 0.42701 0.64663 -0.17376
 H151 H 0.29171 0.64859 -0.27359
 H152 H 0.35215 0.56356 -0.28001
 H153 H 0.44043 0.56250 -0.21908
 H154 H 0.46786 0.64520 -0.15131
 H155 H 0.30272 0.83893 -0.16564
 H156 H 0.38335 0.83462 -0.09801
 C157 C 0.12756 0.23445 0.24930
 C158 C 0.18362 0.25076 0.23380
 C159 C 0.19631 0.31053 0.21902
 C160 C 0.15636 0.35417 0.22222
 C161 C 0.10236 0.33993 0.24071
 C162 C 0.08715 0.27995 0.25418
 C163 C 0.10982 0.17394 0.25801
 C164 C 0.05514 0.15923 0.27446
 C165 C 0.01664 0.20414 0.28150
 C166 C 0.03215 0.26399 0.27102
 H167 H 0.13694 0.13712 0.25049
 H168 H 0.04237 0.11257 0.28119
 H169 H -0.02576 0.19237 0.29414
 H170 H 0.00064 0.29747 0.27562
 H171 H 0.23834 0.32424 0.20667
 H172 H 0.16807 0.39997 0.21114
 C173 C 0.17955 0.70124 0.82239
 C174 C 0.20688 0.70868 0.77019
 C175 C 0.18502 0.67559 0.72086
 C176 C 0.14056 0.63251 0.72294
 C177 C 0.11367 0.62244 0.77393
 C178 C 0.13134 0.65956 0.82391
 C179 C 0.19691 0.73678 0.87242
 C180 C 0.16773 0.73276 0.92227
 C181 C 0.11966 0.69447 0.92318
 C182 C 0.10113 0.65883 0.87470
 H183 H 0.23156 0.76993 0.87347
 H184 H 0.18149 0.76100 0.95986
 H185 H 0.09581 0.69326 0.96136
 H186 H 0.06159 0.63339 0.87786
 H187 H 0.20416 0.68164 0.68033
 H188 H 0.12741 0.60637 0.68385
 C189 C -0.13854 0.70140 0.19574
 C190 C -0.16823 0.71267 0.24611
 C191 C -0.15279 0.68298 0.29580
 C192 C -0.11402 0.63792 0.29482
 C193 C -0.08707 0.62251 0.24468
 C194 C -0.09634 0.65739 0.19558
 C195 C -0.14786 0.73473 0.14632
 C196 C -0.11643 0.72579 0.09829
 C197 C -0.07401 0.68469 0.09883
 C198 C -0.06347 0.65137 0.14701
 H199 H -0.17767 0.76972 0.14461
 H200 H -0.12395 0.75219 0.06103
 H201 H -0.04840 0.67933 0.06210
 H202 H -0.02785 0.62300 0.14600
 H203 H -0.17387 0.69198 0.33501
 H204 H -0.10679 0.61331 0.33331
 C205 C -0.19037 0.27994 0.75825
 C206 C -0.24419 0.30491 0.76362
 C207 C -0.24676 0.36726 0.77552
 C208 C -0.19798 0.40539 0.77745
 C209 C -0.14532 0.38233 0.76698
 C210 C -0.14085 0.31925 0.75777
 C211 C -0.18436 0.21686 0.75470
 C212 C -0.13154 0.19321 0.74704
 C213 C -0.08366 0.23180 0.74352
 C214 C -0.08803 0.29429 0.74905
 H215 H -0.21984 0.18527 0.75953
 H216 H -0.12771 0.14469 0.74413
 H217 H -0.04277 0.21324 0.73743
 H218 H -0.04978 0.32276 0.74684
 H219 H -0.28739 0.38682 0.78054
 H220 H -0.20160 0.45357 0.78542
 C221 C 0.24469 0.19374 0.34020
 C222 C 0.23959 0.17081 0.28248
 C223 C 0.24346 0.10862 0.27053
 C224 C 0.24787 0.06861 0.31451
 C225 C 0.24949 0.08982 0.37169
 C226 C 0.24826 0.15264 0.38519
 C227 C 0.24766 0.25642 0.35434
 C228 C 0.25069 0.27793 0.41141
 C229 C 0.25137 0.23759 0.45537
 C230 C 0.25033 0.17549 0.44255
 H231 H 0.24908 0.28941 0.32182
 H232 H 0.25270 0.32617 0.42158
 H233 H 0.25340 0.25447 0.49961
 H234 H 0.25126 0.14562 0.47776
 H235 H 0.24058 0.09080 0.22657
 H236 H 0.24909 0.02059 0.30387
 C237 C 0.71252 0.24407 0.64753
 C238 C 0.69498 0.22794 0.70223
 C239 C 0.67472 0.16819 0.70942
 C240 C 0.67838 0.12349 0.66630
 C241 C 0.70302 0.13705 0.61508
 C242 C 0.71779 0.19803 0.60405
 C243 C 0.72398 0.30498 0.63470
 C244 C 0.74222 0.31997 0.58114
 C245 C 0.74871 0.27481 0.53914
 C246 C 0.73643 0.21439 0.55020
 H247 H 0.71721 0.34166 0.66504
 H248 H 0.75074 0.36693 0.57197
 H249 H 0.76244 0.28669 0.49748
 H250 H 0.74046 0.18096 0.51583
 H251 H 0.65985 0.15500 0.75026
 H252 H 0.66515 0.07729 0.67444
 C253 C 0.21887 -0.15781 0.71861
 C254 C 0.25428 -0.20754 0.71906
 C255 C 0.28999 -0.21696 0.67394
 C256 C 0.28957 -0.17949 0.62769
 C257 C 0.25351 -0.13132 0.62521
 C258 C 0.21879 -0.11900 0.67160
 C259 C 0.18489 -0.14466 0.76480
 C260 C 0.15179 -0.09430 0.76509
 C261 C 0.15234 -0.05579 0.71973
 C262 C 0.18555 -0.06768 0.67347
 H263 H 0.18427 -0.17232 0.80145
 H264 H 0.12617 -0.08468 0.80107
 H265 H 0.12731 -0.01616 0.72061
 H266 H 0.18564 -0.03558 0.64004
 H267 H 0.31771 -0.25439 0.67417
 H268 H 0.31696 -0.18881 0.59300
 C269 C 0.81731 -0.14786 0.29801
 C270 C 0.78388 -0.20283 0.29531
 C271 C 0.74450 -0.21318 0.33674
 C272 C 0.73792 -0.17035 0.38076
 C273 C 0.76974 -0.11502 0.38429
 C274 C 0.80925 -0.10272 0.34183
 C275 C 0.85705 -0.13594 0.25659
 C276 C 0.88732 -0.08033 0.25708
 C277 C 0.87794 -0.03527 0.29821
 C278 C 0.83909 -0.04589 0.33990
 H279 H 0.86486 -0.16911 0.22331
 H280 H 0.91754 -0.07181 0.22481
 H281 H 0.90059 0.00838 0.29756
 H282 H 0.83216 -0.00841 0.36921
 H283 H 0.71843 -0.25491 0.33461
 H284 H 0.70723 -0.18043 0.41226
 C285 C 0.66655 0.75900 -0.21409
 C286 C 0.72419 0.76914 -0.19400
 C287 C 0.73784 0.77213 -0.13485
 C288 C 0.69573 0.76870 -0.09566
 C289 C 0.63868 0.76081 -0.11446
 C290 C 0.62342 0.75583 -0.17384
 C291 C 0.65075 0.74939 -0.27290
 C292 C 0.59385 0.74009 -0.29174
 C293 C 0.55165 0.73935 -0.25247
 C294 C 0.56611 0.74683 -0.19400
 H295 H 0.68182 0.74724 -0.30481
 H296 H 0.58249 0.73298 -0.33705
 H297 H 0.50755 0.73213 -0.26732
 H298 H 0.53216 0.74528 -0.16482
 H299 H 0.78176 0.77828 -0.11907
 H300 H 0.70779 0.77144 -0.05023
 C301 C 0.26918 0.16764 -0.17819
 C302 C 0.25274 0.22268 -0.20167
 C303 C 0.27893 0.27725 -0.17938
 C304 C 0.32401 0.27820 -0.13900
 C305 C 0.34355 0.22474 -0.11663
 C306 C 0.31405 0.16848 -0.13444
 C307 C 0.23995 0.11205 -0.19514
 C308 C 0.25428 0.05844 -0.17062
 C309 C 0.29683 0.05913 -0.12744
 C310 C 0.32587 0.11329 -0.10886
 H311 H 0.20422 0.10932 -0.22566
 H312 H 0.23115 0.01637 -0.18410
 H313 H 0.30666 0.01753 -0.10732
 H314 H 0.35567 0.11033 -0.07294
 H315 H 0.26619 0.31978 -0.19575
 H316 H 0.34426 0.32189 -0.12574
 C317 C 0.36299 0.65691 0.19038
 C318 C 0.33228 0.70848 0.20501
 C319 C 0.34653 0.76349 0.18086
 C320 C 0.38611 0.76728 0.13928
 C321 C 0.41559 0.71684 0.12172
 C322 C 0.40621 0.66138 0.14984
 C323 C 0.35393 0.60180 0.21750
 C324 C 0.38599 0.55229 0.20560
 C325 C 0.42903 0.55696 0.16783
 C326 C 0.43982 0.61086 0.14098
 H327 H 0.32378 0.59659 0.24984
 H328 H 0.37847 0.51059 0.22712
 H329 H 0.45505 0.51891 0.16006
 H330 H 0.47625 0.61184 0.11546
 H331 H 0.32453 0.80361 0.19238
 H332 H 0.39302 0.81047 0.12010
 C333 C 0.63179 0.32066 0.21610
 C334 C 0.66567 0.27074 0.22632
 C335 C 0.65845 0.21904 0.18971
 C336 C 0.61926 0.21623 0.14312
 C337 C 0.58418 0.26425 0.13220
 C338 C 0.58875 0.31647 0.17063
 C339 C 0.63805 0.37367 0.25207
 C340 C 0.60174 0.42066 0.24529
 C341 C 0.55762 0.41527 0.20355
 C342 C 0.55057 0.36371 0.16705
 H343 H 0.66993 0.37886 0.28670
 H344 H 0.60684 0.46071 0.27367
 H345 H 0.52819 0.45097 0.19988
 H346 H 0.51356 0.36135 0.13806
 H347 H 0.68443 0.18086 0.19671
 H348 H 0.61654 0.17577 0.11516
 C349 C -0.13165 0.74033 0.78586
 C350 C -0.18950 0.72760 0.76865
 C351 C -0.20865 0.66808 0.75270
 C352 C -0.17141 0.62138 0.75296
 C353 C -0.11415 0.63274 0.77008
 C354 C -0.09356 0.69250 0.78643
 C355 C -0.11096 0.79944 0.80313
 C356 C -0.05371 0.81146 0.81940
 C357 C -0.01619 0.76493 0.81886
 C358 C -0.03577 0.70594 0.80255
 H359 H -0.13865 0.83670 0.80436
 H360 H -0.03835 0.85712 0.83238
 H361 H 0.02826 0.77456 0.83120
 H362 H -0.00533 0.67117 0.80237
 H363 H -0.25284 0.65802 0.73949
 H364 H -0.18747 0.57585 0.74008
 C365 C -0.22162 0.34945 0.31868
 C366 C -0.24130 0.30932 0.27216
 C367 C -0.21016 0.30594 0.22302
 C368 C -0.15983 0.34045 0.21957
 C369 C -0.13937 0.38110 0.26447
 C370 C -0.17183 0.38773 0.31394
 C371 C -0.25192 0.35416 0.36894
 C372 C -0.23508 0.39671 0.41283
 C373 C -0.18869 0.43647 0.40698
 C374 C -0.15778 0.43280 0.35796
 H375 H -0.28971 0.32634 0.37436
 H376 H -0.25909 0.39993 0.45089
 H377 H -0.17697 0.47093 0.44034
 H378 H -0.12438 0.46721 0.35492
 H379 H -0.22435 0.27502 0.18745
 H380 H -0.13637 0.33480 0.18131
 C381 C 0.12447 0.26475 0.79475
 C382 C 0.16688 0.26811 0.75428
 C383 C 0.16786 0.31562 0.71685
 C384 C 0.12933 0.36089 0.72045
 C385 C 0.08821 0.36025 0.76153
 C386 C 0.08443 0.31080 0.79828
 C387 C 0.12006 0.21548 0.83067
 C388 C 0.07732 0.21126 0.86929
 C389 C 0.03774 0.25549 0.87230
 C390 C 0.04085 0.30459 0.83711
 H391 H 0.14877 0.17928 0.82862
 H392 H 0.07444 0.17302 0.89645
 H393 H 0.00402 0.25142 0.90168
 H394 H 0.00783 0.33629 0.84004
 H395 H 0.19986 0.31846 0.68551
 H396 H 0.13262 0.39772 0.69161
 C397 C 0.19871 0.66518 0.18959
 C398 C 0.23843 0.66503 0.23731
 C399 C 0.22713 0.62749 0.28218
 C400 C 0.17983 0.58786 0.27940
 C401 C 0.13998 0.58569 0.23263
 C402 C 0.14885 0.62540 0.18711
 C403 C 0.20568 0.70644 0.14593
 C404 C 0.16558 0.70818 0.10034
 C405 C 0.11716 0.66985 0.09782
 C406 C 0.10847 0.62930 0.14072
 H407 H 0.24103 0.73899 0.14707
 H408 H 0.17159 0.74031 0.06737
 H409 H 0.08551 0.67224 0.06295
 H410 H 0.06910 0.60272 0.13690
 H411 H 0.25605 0.62857 0.31976
 H412 H 0.17413 0.55889 0.31501
 C413 C 0.76418 -0.11898 0.73613
 C414 C 0.77141 -0.18152 0.72396
 C415 C 0.77808 -0.20162 0.66700
 C416 C 0.77285 -0.16262 0.62220
 C417 C 0.76258 -0.10180 0.63304
 C418 C 0.75957 -0.07899 0.69019
 C419 C 0.76329 -0.09466 0.79283
 C420 C 0.75602 -0.03323 0.80392
 C421 C 0.75033 0.00544 0.75896
 C422 C 0.75240 -0.01699 0.70259
 H423 H 0.76996 -0.12201 0.82922
 H424 H 0.75548 -0.01541 0.84771
 H425 H 0.74508 0.05316 0.76781
 H426 H 0.74913 0.01469 0.66892
 H427 H 0.78446 -0.24885 0.65680
 H428 H 0.77601 -0.18024 0.57861
 C429 C 0.32364 -0.24523 0.33949
 C430 C 0.28622 -0.24661 0.29004
 C431 C 0.24364 -0.20506 0.28666
 C432 C 0.23799 -0.16202 0.33074
 C433 C 0.27453 -0.15921 0.38005
 C434 C 0.31738 -0.20176 0.38530
 C435 C 0.36592 -0.28756 0.34522
 C436 C 0.40110 -0.28760 0.39494
 C437 C 0.39429 -0.24620 0.44016
 C438 C 0.35268 -0.20393 0.43580
 H439 H 0.37194 -0.32123 0.31180
 H440 H 0.43332 -0.32048 0.39869
 H441 H 0.42106 -0.24719 0.47908
 H442 H 0.34790 -0.17425 0.47290
 H443 H 0.21445 -0.20617 0.24933
 H444 H 0.20499 -0.13007 0.32596
 C445 C 0.66374 0.21214 0.35093
 C446 C 0.70697 0.22151 0.31187
 C447 C 0.75236 0.18321 0.31184
 C448 C 0.75614 0.13700 0.34992
 C449 C 0.71499 0.12768 0.39000
 C450 C 0.66852 0.16607 0.39146
 C451 C 0.61734 0.24975 0.35263
 C452 C 0.57722 0.24329 0.39371
 C453 C 0.58291 0.20001 0.43452
 C454 C 0.62817 0.16207 0.43391
 H455 H 0.61211 0.28533 0.32332
 H456 H 0.54213 0.27286 0.39456
 H457 H 0.55237 0.19616 0.46723
 H458 H 0.63139 0.13101 0.46800
 H459 H 0.78543 0.18942 0.28201
 H460 H 0.79204 0.10849 0.34842
 C461 C 0.26601 0.19836 0.66634
 C462 C 0.21661 0.19156 0.69776
 C463 C 0.17300 0.15002 0.67738
 C464 C 0.18089 0.10924 0.63206
 C465 C 0.23205 0.11000 0.60413
 C466 C 0.27393 0.15748 0.61890
 C467 C 0.30655 0.24649 0.67965
 C468 C 0.35460 0.25366 0.64818
 C469 C 0.36252 0.21408 0.60195
 C470 C 0.32250 0.16696 0.58686
 H471 H 0.30053 0.28047 0.71277
 H472 H 0.38518 0.29099 0.65887
 H473 H 0.39930 0.22070 0.57681
 H474 H 0.32962 0.14011 0.54865
 H475 H 0.13411 0.14618 0.69977
 H476 H 0.14751 0.07486 0.62066
   
