data_POSCAR
  _audit_creation_date              2014-09-24
  _audit_creation_method            'ToBaCCo'
  _symmetry_space_group_name_H-M    'P1'
  _symmetry_Int_Tables_number       1
  _symmetry_cell_setting            triclinic
  loop_
  _symmetry_equiv_pos_as_xyz
 x,y,z
_cell_length_a 49.1263
_cell_length_b 28.5268
_cell_length_c 21.4177
_cell_angle_alpha 90.055400
_cell_angle_beta 89.889000
_cell_angle_gamma 90.056900
loop_
  _atom_site_label
  _atom_site_type_symbol
  _atom_site_fract_x
  _atom_site_fract_y
  _atom_site_fract_z
C1 C 0.70126 0.30152 0.55733
 C2 C 0.68952 0.31385 0.50033
 C3 C 0.70156 0.30119 0.44373
 C4 C 0.72611 0.27548 0.44340
 C5 C 0.73831 0.26269 0.50098
 C6 C 0.72585 0.27576 0.55831
 C7 C 0.73830 0.26270 0.61478
 C8 C 0.76249 0.23730 0.61502
 C9 C 0.77518 0.22395 0.55880
 C10 C 0.76297 0.23675 0.50121
 C11 C 0.73873 0.26219 0.38719
 C12 C 0.76292 0.23680 0.38738
 C13 C 0.77539 0.22370 0.44383
 C14 C 0.79998 0.19795 0.44468
 C15 C 0.81176 0.18556 0.50161
 C16 C 0.79977 0.19817 0.55836
 H17 H 0.72940 0.27206 0.65936
 H18 H 0.77121 0.22817 0.65978
 H19 H 0.72998 0.27136 0.34248
 H20 H 0.77180 0.22746 0.34276
 H21 H 0.67060 0.33354 0.49988
 H22 H 0.83070 0.16584 0.50174
 C23 C 0.29970 0.70158 0.44375
 C24 C 0.31185 0.68964 0.50043
 C25 C 0.29974 0.70145 0.55735
 C26 C 0.27474 0.72586 0.55824
 C27 C 0.26218 0.73820 0.50095
 C28 C 0.27470 0.72601 0.44339
 C29 C 0.26193 0.73858 0.38718
 C30 C 0.23730 0.76270 0.38743
 C31 C 0.22455 0.77514 0.44389
 C32 C 0.23707 0.76280 0.50122
 C33 C 0.26201 0.73826 0.61471
 C34 C 0.23737 0.76237 0.61500
 C35 C 0.22454 0.77501 0.55879
 C36 C 0.19950 0.79952 0.55834
 C37 C 0.18742 0.81144 0.50151
 C38 C 0.19957 0.79960 0.44467
 H39 H 0.27090 0.72985 0.34245
 H40 H 0.22832 0.77155 0.34285
 H41 H 0.27101 0.72940 0.65926
 H42 H 0.22843 0.77107 0.65979
 H43 H 0.33108 0.67092 0.50024
 H44 H 0.16819 0.83023 0.50138
 C45 C 0.29943 0.29825 -0.55682
 C46 C 0.31156 0.31008 -0.50005
 C47 C 0.29940 0.29824 -0.44323
 C48 C 0.27435 0.27389 -0.44260
 C49 C 0.26179 0.26165 -0.50000
 C50 C 0.27438 0.27389 -0.55742
 C51 C 0.26164 0.26146 -0.61376
 C52 C 0.23695 0.23743 -0.61379
 C53 C 0.22407 0.22491 -0.55745
 C54 C 0.23661 0.23713 -0.49999
 C55 C 0.26156 0.26145 -0.38625
 C56 C 0.23687 0.23743 -0.38618
 C57 C 0.22403 0.22492 -0.44250
 C58 C 0.19894 0.20053 -0.44308
 C59 C 0.18681 0.18869 -0.49993
 C60 C 0.19898 0.20052 -0.55682
 H61 H 0.27067 0.27024 -0.65840
 H62 H 0.22801 0.22871 -0.65849
 H63 H 0.27056 0.27021 -0.34163
 H64 H 0.22790 0.22871 -0.34145
 H65 H 0.33083 0.32876 -0.50008
 H66 H 0.16751 0.16999 -0.49989
 C67 C -0.29961 0.69786 -0.44437
 C68 C -0.31153 0.68542 -0.50118
 C69 C -0.29967 0.69807 -0.55805
 C70 C -0.27508 0.72392 -0.55877
 C71 C -0.26273 0.73678 -0.50134
 C72 C -0.27502 0.72372 -0.44381
 C73 C -0.26241 0.73689 -0.38751
 C74 C -0.23823 0.76237 -0.38762
 C75 C -0.22574 0.77566 -0.44398
 C76 C -0.23807 0.76281 -0.50141
 C77 C -0.26253 0.73729 -0.61515
 C78 C -0.23834 0.76276 -0.61520
 C79 C -0.22575 0.77589 -0.55889
 C80 C -0.20114 0.80173 -0.55820
 C81 C -0.18928 0.81412 -0.50131
 C82 C -0.20120 0.80145 -0.44460
 H83 H -0.27118 0.72755 -0.34279
 H84 H -0.22937 0.77160 -0.34301
 H85 H -0.27135 0.72809 -0.65981
 H86 H -0.22954 0.77212 -0.65988
 H87 H -0.33046 0.66564 -0.50113
 H88 H -0.17035 0.83387 -0.50103
 O89 O -0.03757 0.92073 0.11681
 O90 O -0.06770 0.96154 0.05573
 C91 C -0.06198 0.93265 0.10044
 O92 O 0.03843 1.08542 0.11043
 O93 O 0.06858 1.04119 0.05329
 C94 C 0.06286 1.07284 0.09471
 O95 O -0.03757 1.08147 0.11571
 O96 O -0.06771 1.03964 0.05563
 C97 C -0.06197 1.06905 0.09980
 O98 O 0.03833 0.91599 0.11022
 O99 O 0.06853 0.96009 0.05291
 C100 C 0.06277 0.92852 0.09438
 Zr101 Zr 0.00028 0.94099 0.07813
 O102 O 0.00095 0.93348 0.17633
 O103 O -0.00076 0.86745 0.06654
 Zr104 Zr 0.00038 1.05986 0.07881
 O105 O 0.00284 1.06111 0.17747
 O106 O -0.00253 1.13390 0.07594
 O107 O -0.02377 1.00044 0.09088
 O108 O 0.02386 1.00045 0.09016
 O109 O 0.03862 0.91578 -0.10959
 O110 O 0.06872 0.96059 -0.05309
 C111 C 0.06304 0.92867 -0.09417
 O112 O -0.03793 1.08091 -0.11431
 O113 O -0.06821 1.03909 -0.05406
 C114 C -0.06240 1.06854 -0.09817
 O115 O 0.03854 1.08562 -0.10950
 O116 O 0.06866 1.04140 -0.05253
 C117 C 0.06296 1.07307 -0.09381
 O118 O -0.03742 0.91986 -0.11569
 O119 O -0.06764 0.96157 -0.05550
 C120 C -0.06184 0.93219 -0.09971
 Zr121 Zr 0.00046 0.94130 -0.07839
 O122 O 0.00344 0.93905 -0.17693
 O123 O -0.00229 0.86726 -0.07477
 Zr124 Zr 0.00039 1.06006 -0.07815
 O125 O 0.00332 1.06244 -0.17670
 O126 O -0.00271 1.13406 -0.07475
 Zr127 Zr -0.04039 1.00061 0.00010
 Zr128 Zr 0.04108 1.00073 0.00015
 O129 O 0.02395 1.00075 -0.08991
 O130 O -0.02372 1.00066 -0.09076
 O131 O 0.02495 0.93220 -0.00007
 O132 O -0.02350 1.06843 0.00040
 O133 O -0.02371 0.93271 -0.00007
 O134 O 0.02488 1.06917 0.00032
 H135 H 0.03593 1.00054 0.12715
 H136 H -0.03598 1.09570 0.00048
 H137 H 0.03596 1.00079 -0.12710
 H138 H -0.03630 0.90554 -0.00003
 H139 H 0.01386 1.14588 0.05427
 H140 H 0.01378 1.14613 -0.05370
 H141 H -0.01061 1.04087 -0.19359
 H142 H -0.00980 0.96186 -0.19364
 H143 H 0.01330 0.85581 -0.04989
 H144 H -0.00118 0.85410 0.10921
 H145 H 0.00513 0.96465 0.19395
 H146 H -0.01115 1.03925 0.19364
 O147 O 0.53762 0.41986 -0.11725
 O148 O 0.56789 0.46085 -0.05646
 C149 C 0.56207 0.43185 -0.10107
 O150 O 0.46184 0.58437 -0.11045
 O151 O 0.43164 0.53996 -0.05350
 C152 C 0.43740 0.57170 -0.09474
 O153 O 0.53834 0.58007 -0.11525
 O154 O 0.56853 0.53829 -0.05515
 C155 C 0.56278 0.56770 -0.09927
 O156 O 0.46171 0.41493 -0.11018
 O157 O 0.43159 0.45942 -0.05322
 C158 C 0.43729 0.42764 -0.09451
 Zr159 Zr 0.49981 0.44007 -0.07829
 O160 O 0.49854 0.43242 -0.17641
 O161 O 0.50090 0.36655 -0.06684
 Zr162 Zr 0.49997 0.55895 -0.07921
 O163 O 0.49740 0.56037 -0.17786
 O164 O 0.50299 0.63299 -0.07687
 O165 O 0.52396 0.49949 -0.09141
 O166 O 0.47640 0.49950 -0.09045
 O167 O 0.46178 0.41492 0.10951
 O168 O 0.43169 0.45967 0.05320
 C169 C 0.43738 0.42776 0.09418
 O170 O 0.53776 0.58076 0.11488
 O171 O 0.56794 0.53906 0.05460
 C172 C 0.56218 0.56845 0.09881
 O173 O 0.46174 0.58488 0.10930
 O174 O 0.43163 0.54042 0.05249
 C175 C 0.43732 0.57221 0.09370
 O176 O 0.53779 0.41913 0.11511
 O177 O 0.56792 0.46088 0.05478
 C178 C 0.56220 0.43153 0.09902
 Zr179 Zr 0.49989 0.44060 0.07820
 O180 O 0.49696 0.43903 0.17679
 O181 O 0.50260 0.36656 0.07489
 Zr182 Zr 0.49985 0.55946 0.07765
 O183 O 0.49690 0.56252 0.17615
 O184 O 0.50296 0.63345 0.07306
 Zr185 Zr 0.54065 0.49987 -0.00070
 Zr186 Zr 0.45918 0.49986 -0.00040
 O187 O 0.47637 0.50004 0.08962
 O188 O 0.52403 0.50011 0.09022
 O189 O 0.47526 0.43136 0.00001
 O190 O 0.52382 0.56769 -0.00085
 O191 O 0.52392 0.43195 -0.00030
 O192 O 0.47540 0.56836 -0.00077
 H193 H 0.46440 0.49944 -0.12758
 H194 H 0.53634 0.59496 -0.00090
 H195 H 0.46438 0.50012 0.12686
 H196 H 0.53649 0.40480 -0.00047
 H197 H 0.48675 0.64505 -0.05473
 H198 H 0.48614 0.64541 0.05341
 H199 H 0.50997 0.53953 0.19314
 H200 H 0.51090 0.46071 0.19341
 H201 H 0.48715 0.35503 0.04956
 H202 H 0.50122 0.35317 -0.10954
 H203 H 0.49792 0.46437 -0.19400
 H204 H 0.51199 0.53990 -0.19438
 C205 C 0.34265 0.33909 0.28965
 N206 N 0.34030 0.38350 0.26779
 N207 N 0.35732 0.39937 0.22410
 C208 C 0.37718 0.37130 0.20089
 N209 N 0.37944 0.32681 0.22253
 N210 N 0.36242 0.31094 0.26622
 C211 C 0.32631 0.32376 0.34134
 C212 C 0.31356 0.31171 0.38672
 C213 C 0.39742 0.39009 0.15951
 C214 C 0.41526 0.40678 0.12785
 C215 C -0.15829 0.84433 0.29319
 N216 N -0.15942 0.88983 0.27503
 N217 N -0.14189 0.90637 0.23286
 C218 C -0.12268 0.87793 0.20763
 N219 N -0.12164 0.83238 0.22556
 N220 N -0.13916 0.81585 0.26773
 C221 C -0.17501 0.82801 0.34369
 C222 C -0.18788 0.81519 0.38854
 C223 C -0.10212 0.89681 0.16715
 C224 C -0.08412 0.91302 0.13547
 C225 C 0.65782 0.65623 0.29276
 N226 N 0.65921 0.61097 0.27359
 N227 N 0.64187 0.59467 0.23097
 C228 C 0.62261 0.62313 0.20627
 N229 N 0.62130 0.66845 0.22522
 N230 N 0.63863 0.68475 0.26783
 C231 C 0.67435 0.67224 0.34362
 C232 C 0.68711 0.68482 0.38866
 C233 C 0.60218 0.60438 0.16549
 C234 C 0.58427 0.58819 0.13370
 C235 C 0.15692 1.16069 0.29206
 N236 N 0.15930 1.11631 0.26992
 N237 N 0.14247 1.10064 0.22582
 C238 C 0.12277 1.12886 0.20244
 N239 N 0.12048 1.17331 0.22436
 N240 N 0.13731 1.18899 0.26846
 C241 C 0.17307 1.17587 0.34408
 C242 C 0.18567 1.18781 0.38969
 C243 C 0.10268 1.11025 0.16060
 C244 C 0.08493 1.09369 0.12861
 C245 C 0.65825 0.34387 -0.29422
 N246 N 0.63905 0.31533 -0.26908
 N247 N 0.62153 0.33176 -0.22684
 C248 C 0.62265 0.37725 -0.20854
 N249 N 0.64193 0.40573 -0.23345
 N250 N 0.65945 0.38930 -0.27568
 C251 C 0.67498 0.32767 -0.34473
 C252 C 0.68789 0.31493 -0.38954
 C253 C 0.60210 0.39604 -0.16800
 C254 C 0.58414 0.41222 -0.13624
 C255 C 0.15737 0.83977 -0.29058
 N256 N 0.13754 0.81172 -0.26707
 N257 N 0.12066 0.82765 -0.22315
 C258 C 0.12308 0.87211 -0.20134
 N259 N 0.14300 0.90008 -0.22463
 N260 N 0.15989 0.88415 -0.26855
 C261 C 0.17357 0.82437 -0.34251
 C262 C 0.18620 0.81230 -0.38811
 C263 C 0.10294 0.89100 -0.15974
 C264 C 0.08515 0.90772 -0.12793
 C265 C 0.34289 0.66051 -0.28954
 N266 N 0.34036 0.61620 -0.26737
 N267 N 0.35733 0.60031 -0.22380
 C268 C 0.37734 0.62826 -0.20102
 N269 N 0.37979 0.67265 -0.22297
 N270 N 0.36282 0.68854 -0.26654
 C271 C 0.32659 0.67586 -0.34109
 C272 C 0.31385 0.68794 -0.38635
 C273 C 0.39753 0.60941 -0.15980
 C274 C 0.41533 0.59269 -0.12827
 C275 C -0.15789 1.15635 -0.29223
 N276 N -0.15935 1.11109 -0.27315
 N277 N -0.14206 1.09477 -0.23054
 C278 C -0.12275 1.12321 -0.20573
 N279 N -0.12137 1.16853 -0.22460
 N280 N -0.13867 1.18484 -0.26722
 C281 C -0.17439 1.17237 -0.34312
 C282 C -0.18710 1.18495 -0.38820
 C283 C -0.10237 1.10446 -0.16489
 C284 C -0.08448 1.08827 -0.13306
 C285 C 0.65809 0.65558 -0.29470
 N286 N 0.65941 0.61022 -0.27606
 N287 N 0.64219 0.59387 -0.23311
 C288 C 0.62311 0.62239 -0.20751
 N289 N 0.62188 0.66781 -0.22594
 N290 N 0.63909 0.68415 -0.26889
 C291 C 0.67452 0.67171 -0.34581
 C292 C 0.68722 0.68443 -0.39097
 C293 C 0.60277 0.60362 -0.16636
 C294 C 0.58489 0.58742 -0.13432
 C295 C 0.15695 1.16092 -0.29157
 N296 N 0.15944 1.11665 -0.26928
 N297 N 0.14265 1.10103 -0.22497
 C298 C 0.12290 1.12923 -0.20151
 N299 N 0.12051 1.17358 -0.22357
 N300 N 0.13729 1.18920 -0.26789
 C301 C 0.17304 1.17600 -0.34380
 C302 C 0.18562 1.18787 -0.38954
 C303 C 0.10282 1.11061 -0.15958
 C304 C 0.08505 1.09401 -0.12760
 C305 C 0.34262 0.33915 -0.28992
 N306 N 0.36234 0.31095 -0.26657
 N307 N 0.37935 0.32681 -0.22296
 C308 C 0.37714 0.37135 -0.20132
 N309 N 0.35734 0.39948 -0.22445
 N310 N 0.34034 0.38362 -0.26806
 C311 C 0.32628 0.32378 -0.34151
 C312 C 0.31352 0.31170 -0.38681
 C313 C 0.39736 0.39010 -0.15993
 C314 C 0.41518 0.40674 -0.12822
 C315 C -0.15772 0.84417 -0.29286
 N316 N -0.13847 0.81570 -0.26810
 N317 N -0.12105 0.83206 -0.22571
 C318 C -0.12233 0.87740 -0.20685
 N319 N -0.14166 0.90582 -0.23138
 N320 N -0.15908 0.88946 -0.27377
 C321 C -0.17436 0.82810 -0.34348
 C322 C -0.18721 0.81545 -0.38831
 C323 C -0.10186 0.89619 -0.16627
 C324 C -0.08392 0.91242 -0.13459
 C325 C 0.34278 0.66075 0.28986
 N326 N 0.34041 0.61632 0.26795
 N327 N 0.35736 0.60048 0.22410
 C328 C 0.37719 0.62861 0.20076
 N329 N 0.37947 0.67312 0.22245
 N330 N 0.36252 0.68896 0.26630
 C331 C 0.32649 0.67610 0.34168
 C332 C 0.31377 0.68815 0.38715
 C333 C 0.39739 0.60985 0.15921
 C334 C 0.41521 0.59318 0.12744
 C335 C -0.15746 1.15609 0.29523
 N336 N -0.15868 1.11073 0.27643
 N337 N -0.14140 1.09458 0.23348
 C338 C -0.12237 1.12330 0.20804
 N339 N -0.12124 1.16872 0.22662
 N340 N -0.13852 1.18487 0.26958
 C341 C -0.17395 1.17203 0.34631
 C342 C -0.18672 1.18461 0.39141
 C343 C -0.10198 1.10474 0.16690
 C344 C -0.08408 1.08868 0.13487
 C345 C 0.65820 0.34385 0.29187
 N346 N 0.63903 0.31527 0.26680
 N347 N 0.62159 0.33159 0.22449
 C348 C 0.62278 0.37701 0.20599
 N349 N 0.64203 0.40554 0.23084
 N350 N 0.65946 0.38921 0.27316
 C351 C 0.67484 0.32777 0.34246
 C352 C 0.68767 0.31513 0.38730
 C353 C 0.60228 0.39573 0.16544
 C354 C 0.58432 0.41187 0.13380
 C355 C 0.15687 0.84081 0.29100
 N356 N 0.13793 0.81197 0.26551
 N357 N 0.12110 0.82773 0.22155
 C358 C 0.12273 0.87277 0.20167
 N359 N 0.14176 0.90153 0.22694
 N360 N 0.15858 0.88578 0.27090
 C361 C 0.17297 0.82537 0.34284
 C362 C 0.18556 0.81321 0.38826
 C363 C 0.10259 0.89125 0.16002
 C364 C 0.08482 0.90773 0.12816
   
