data_POSCAR
  _audit_creation_date              2014-09-24
  _audit_creation_method            'ToBaCCo'
  _symmetry_space_group_name_H-M    'P1'
  _symmetry_Int_Tables_number       1
  _symmetry_cell_setting            triclinic
  loop_
  _symmetry_equiv_pos_as_xyz
 x,y,z
_cell_length_a 39.4008
_cell_length_b 39.5773
_cell_length_c 39.3985
_cell_angle_alpha 89.959500
_cell_angle_beta 89.949200
_cell_angle_gamma 89.970400
loop_
  _atom_site_label
  _atom_site_type_symbol
  _atom_site_fract_x
  _atom_site_fract_y
  _atom_site_fract_z
N1 N 0.14647 0.16936 0.24034
 N2 N 0.17003 0.14578 0.23981
 C3 C 0.16504 0.12459 0.26617
 C4 C 0.13693 0.13566 0.28386
 C5 C 0.12568 0.16402 0.26697
 H6 H 0.18059 0.10284 0.27210
 H7 H 0.10410 0.17960 0.27357
 Cu8 Cu 0.20484 0.14523 0.20461
 Cu9 Cu 0.14452 0.20535 0.20662
 Cu10 Cu 0.20679 0.20541 0.14434
 N11 N 0.24004 0.14584 0.16980
 N12 N 0.24056 0.16944 0.14625
 C13 C 0.26720 0.16412 0.12546
 C14 C 0.28409 0.13574 0.13669
 C15 C 0.26640 0.12465 0.16479
 H16 H 0.27379 0.17971 0.10388
 H17 H 0.27232 0.10289 0.18033
 N18 N 0.17050 0.23969 0.14664
 N19 N 0.14678 0.23966 0.17037
 C20 C 0.12585 0.26612 0.16520
 C21 C 0.13704 0.28342 0.13700
 C22 C 0.16527 0.26619 0.12576
 H23 H 0.10413 0.27244 0.18075
 H24 H 0.18079 0.27257 0.10404
 H25 H 0.16816 0.17902 0.16799
 H26 H 0.19581 0.20556 0.19566
 N27 N -0.14678 0.83041 0.23945
 N28 N -0.17037 0.85396 0.23898
 C29 C -0.16530 0.87518 0.26526
 C30 C -0.13714 0.86419 0.28286
 C31 C -0.12594 0.83582 0.26597
 H32 H -0.18088 0.89687 0.27127
 H33 H -0.10435 0.82026 0.27256
 Cu34 Cu -0.20548 0.85419 0.20417
 Cu35 Cu -0.14491 0.79436 0.20586
 Cu36 Cu -0.20719 0.79433 0.14369
 N37 N -0.24035 0.85395 0.16913
 N38 N -0.24086 0.83040 0.14556
 C39 C -0.26743 0.83582 0.12475
 C40 C -0.28427 0.86422 0.13599
 C41 C -0.26664 0.87521 0.16411
 H42 H -0.27403 0.82025 0.10319
 H43 H -0.27260 0.89691 0.17969
 N44 N -0.17096 0.75997 0.14604
 N45 N -0.14724 0.76001 0.16974
 C46 C -0.12634 0.73353 0.16460
 C47 C -0.13752 0.71622 0.13645
 C48 C -0.16575 0.73345 0.12522
 H49 H -0.10461 0.72722 0.18011
 H50 H -0.18126 0.72707 0.10352
 H51 H -0.16870 0.82076 0.16735
 H52 H -0.19622 0.79394 0.19497
 N53 N -0.14683 0.17004 -0.23951
 N54 N -0.17033 0.14643 -0.23898
 C55 C -0.16529 0.12532 -0.26537
 C56 C -0.13722 0.13643 -0.28308
 C57 C -0.12606 0.16476 -0.26615
 H58 H -0.18079 0.10359 -0.27134
 H59 H -0.10450 0.18035 -0.27275
 Cu60 Cu -0.20513 0.14578 -0.20380
 Cu61 Cu -0.14493 0.20594 -0.20578
 Cu62 Cu -0.20720 0.20588 -0.14351
 N63 N -0.24033 0.14633 -0.16901
 N64 N -0.24091 0.16990 -0.14546
 C65 C -0.26757 0.16454 -0.12471
 C66 C -0.28442 0.13618 -0.13597
 C67 C -0.26668 0.12514 -0.16405
 H68 H -0.27421 0.18011 -0.10314
 H69 H -0.27257 0.10342 -0.17961
 N70 N -0.17094 0.24016 -0.14579
 N71 N -0.14722 0.24016 -0.16953
 C72 C -0.12632 0.26661 -0.16437
 C73 C -0.13752 0.28387 -0.13617
 C74 C -0.16573 0.26663 -0.12492
 H75 H -0.10462 0.27295 -0.17993
 H76 H -0.18126 0.27299 -0.10320
 H77 H -0.16855 0.17954 -0.16714
 H78 H -0.19626 0.20609 -0.19483
 N79 N 0.14705 0.83033 -0.23945
 N80 N 0.17064 0.85385 -0.23898
 C81 C 0.16567 0.87500 -0.26537
 C82 C 0.13758 0.86400 -0.28304
 C83 C 0.12632 0.83568 -0.26608
 H84 H 0.18121 0.89673 -0.27134
 H85 H 0.10475 0.82013 -0.27267
 Cu86 Cu 0.20540 0.85440 -0.20383
 Cu87 Cu 0.14504 0.79440 -0.20568
 Cu88 Cu 0.20722 0.79435 -0.14343
 N89 N 0.24052 0.85383 -0.16904
 N90 N 0.24100 0.83029 -0.14542
 C91 C 0.26762 0.83563 -0.12466
 C92 C 0.28453 0.86396 -0.13598
 C93 C 0.26688 0.87499 -0.16410
 H94 H 0.27420 0.82006 -0.10307
 H95 H 0.27280 0.89672 -0.17968
 N96 N 0.17092 0.76010 -0.14567
 N97 N 0.14724 0.76014 -0.16940
 C98 C 0.12633 0.73367 -0.16423
 C99 C 0.13748 0.71637 -0.13602
 C100 C 0.16568 0.73360 -0.12479
 H101 H 0.10465 0.72735 -0.17978
 H102 H 0.18118 0.72720 -0.10308
 H103 H 0.16863 0.82074 -0.16709
 H104 H 0.19628 0.79410 -0.19470
 N105 N 0.16951 1.14654 0.76003
 N106 N 0.14591 1.17006 0.76041
 C107 C 0.12466 1.16503 0.73410
 C108 C 0.13574 1.13696 0.71661
 C109 C 0.16414 1.12577 0.73355
 H110 H 0.10294 1.18059 0.72798
 H111 H 0.17976 1.10426 0.72700
 Cu112 Cu 0.14564 1.20506 0.79506
 Cu113 Cu 0.20562 1.14462 0.79356
 Cu114 Cu 0.20578 1.20671 0.85556
 N115 N 0.14604 1.23973 0.83004
 N116 N 0.16970 1.24020 0.85357
 C117 C 0.16436 1.26667 0.87433
 C118 C 0.13592 1.28350 0.86311
 C119 C 0.12479 1.26596 0.83505
 H120 H 0.18002 1.27325 0.89587
 H121 H 0.10300 1.27197 0.81950
 N122 N 0.24010 1.17062 0.85328
 N123 N 0.24001 1.14695 0.82965
 C124 C 0.26651 1.12607 0.83486
 C125 C 0.28384 1.13725 0.86299
 C126 C 0.26666 1.16542 0.87415
 H127 H 0.27279 1.10436 0.81943
 H128 H 0.27308 1.18088 0.89583
 H129 H 0.17905 1.16847 0.83197
 H130 H 0.20610 1.19576 0.80428
 N131 N 0.83076 0.85353 0.76030
 N132 N 0.85436 0.82999 0.76067
 C133 C 0.87567 0.83509 0.73438
 C134 C 0.86465 0.86321 0.71693
 C135 C 0.83621 0.87437 0.73385
 H136 H 0.89740 0.81953 0.72825
 H137 H 0.82060 0.89590 0.72732
 Cu138 Cu 0.85430 0.79486 0.79520
 Cu139 Cu 0.79458 0.85541 0.79385
 Cu140 Cu 0.79453 0.79337 0.85606
 N141 N 0.85432 0.76039 0.83040
 N142 N 0.83073 0.75995 0.85406
 C143 C 0.83617 0.73352 0.87488
 C144 C 0.86460 0.71670 0.86356
 C145 C 0.87561 0.73419 0.83538
 H146 H 0.82056 0.72692 0.89648
 H147 H 0.89730 0.72813 0.81969
 N148 N 0.76013 0.82940 0.85371
 N149 N 0.76016 0.85302 0.83000
 C150 C 0.73363 0.87387 0.83518
 C151 C 0.71632 0.86272 0.86337
 C152 C 0.73355 0.83461 0.87462
 H153 H 0.72731 0.89553 0.81968
 H154 H 0.72716 0.81919 0.89637
 H155 H 0.82116 0.83153 0.83221
 H156 H 0.79390 0.80430 0.80480
 N157 N 0.16924 0.85315 1.23937
 N158 N 0.14565 0.82963 1.23902
 C159 C 0.12433 0.83472 1.26530
 C160 C 0.13535 0.86283 1.28273
 C161 C 0.16379 0.87397 1.26580
 H162 H 0.10262 0.81917 1.27144
 H163 H 0.17940 0.89547 1.27232
 Cu164 Cu 0.14575 0.79451 1.20450
 Cu165 Cu 0.20543 0.85503 1.20585
 Cu166 Cu 0.20555 0.79304 1.14368
 N167 N 0.14577 0.76007 1.16933
 N168 N 0.16938 0.75964 1.14567
 C169 C 0.16398 0.73322 1.12488
 C170 C 0.13557 0.71639 1.13619
 C171 C 0.12452 0.73387 1.16435
 H172 H 0.17962 0.72663 1.10330
 H173 H 0.10282 0.72779 1.18004
 N174 N 0.23993 0.82906 1.14603
 N175 N 0.23987 0.85265 1.16974
 C176 C 0.26639 0.87348 1.16458
 C177 C 0.28373 0.86235 1.13640
 C178 C 0.26652 0.83426 1.12515
 H179 H 0.27269 0.89513 1.18007
 H180 H 0.27294 0.81887 1.10341
 H181 H 0.17889 0.83119 1.16749
 H182 H 0.20615 0.80393 1.19494
 N183 N 0.83010 1.14673 1.23971
 N184 N 0.85378 1.17015 1.23917
 C185 C 0.87497 1.16521 1.26556
 C186 C 0.86380 1.13729 1.28324
 C187 C 0.83539 1.12610 1.26635
 H188 H 0.89679 1.18066 1.27153
 H189 H 0.81976 1.10462 1.27297
 Cu190 Cu 0.85450 1.20471 1.20406
 Cu191 Cu 0.79414 1.14470 1.20604
 Cu192 Cu 0.79396 1.20673 1.14392
 N193 N 0.85360 1.23979 1.16949
 N194 N 0.82988 1.24035 1.14601
 C195 C 0.83507 1.26699 1.12539
 C196 C 0.86345 1.28384 1.13666
 C197 C 0.87471 1.26614 1.16460
 H198 H 0.81938 1.27364 1.10388
 H199 H 0.89654 1.27207 1.18011
 N200 N 0.75979 1.17053 1.14613
 N201 N 0.75987 1.14689 1.16982
 C202 C 0.73341 1.12599 1.16463
 C203 C 0.71610 1.13713 1.13645
 C204 C 0.73326 1.16529 1.12523
 H205 H 0.72710 1.10434 1.18015
 H206 H 0.72682 1.18075 1.10353
 H207 H 0.82061 1.16833 1.16741
 H208 H 0.79395 1.19585 1.19523
 N209 N 0.53565 1.05997 0.96352
 N210 N 0.56140 1.08089 0.95922
 N211 N 0.46428 1.03644 0.93991
 N212 N 0.43866 1.04082 0.91880
 N213 N 0.46422 1.05988 0.96349
 N214 N 0.43856 1.08088 0.95912
 N215 N 0.53572 1.03650 0.93995
 N216 N 0.56152 1.04081 0.91896
 C217 C 0.57719 1.06857 0.93136
 C218 C 0.42299 1.06859 0.93118
 N219 N 0.46426 0.94015 0.96346
 N220 N 0.43850 0.91924 0.95915
 N221 N 0.53570 0.96370 0.93994
 N222 N 0.56140 0.95935 0.91886
 N223 N 0.53569 0.94024 0.96353
 N224 N 0.56136 0.91924 0.95919
 N225 N 0.46425 0.96365 0.93989
 N226 N 0.43850 0.95938 0.91889
 Mn227 Mn 0.49999 1.00007 0.93952
 C228 C 0.42279 0.93161 0.93128
 C229 C 0.57702 0.93155 0.93128
 N230 N 0.46392 1.05982 1.03664
 N231 N 0.43812 1.08071 1.04099
 N232 N 0.53540 1.03646 1.06023
 N233 N 0.56107 1.04083 1.08128
 N234 N 0.53536 1.05994 1.03665
 N235 N 0.56100 1.08094 1.04096
 N236 N 0.46395 1.03632 1.06021
 N237 N 0.43818 1.04056 1.08125
 Mn238 Mn 0.49978 1.06030 1.00007
 C239 C 0.42241 1.06831 1.06888
 C240 C 0.57665 1.06864 1.06886
 N241 N 0.53577 0.94021 1.03664
 N242 N 0.56158 0.91933 1.04096
 N243 N 0.46425 0.96353 1.06017
 N244 N 0.43854 0.95911 1.08121
 N245 N 0.46435 0.94010 1.03658
 N246 N 0.43873 0.91906 1.04088
 N247 N 0.53569 0.96366 1.06021
 N248 N 0.56144 0.95940 1.08124
 Mn249 Mn 0.50002 0.93977 1.00005
 Mn250 Mn 0.49982 0.99999 1.06061
 Cl251 Cl 0.49990 1.00004 1.00006
 C252 C 0.57723 0.93168 1.06885
 C253 C 0.42302 0.93131 1.06877
 N254 N -0.03650 0.46440 -0.06009
 N255 N -0.04087 0.43877 -0.08109
 N256 N -0.05993 0.53558 -0.03658
 N257 N -0.08082 0.56131 -0.04089
 N258 N -0.03630 0.53550 -0.06012
 N259 N -0.04043 0.56117 -0.08112
 N260 N -0.06010 0.46447 -0.03651
 N261 N -0.08118 0.43891 -0.04080
 C262 C -0.06881 0.42323 -0.06867
 C263 C -0.06827 0.57688 -0.06875
 N264 N -0.03653 0.53556 0.06015
 N265 N -0.04089 0.56118 0.08118
 N266 N -0.06019 0.46451 0.03660
 N267 N -0.08121 0.43889 0.04090
 N268 N -0.03663 0.46445 0.06018
 N269 N -0.04094 0.43882 0.08118
 N270 N -0.06006 0.53562 0.03654
 N271 N -0.08108 0.56126 0.04084
 Mn272 Mn -0.06047 0.50004 0.00001
 C273 C -0.06874 0.57685 0.06874
 C274 C -0.06881 0.42326 0.06878
 N275 N 0.03681 0.53542 -0.06007
 N276 N 0.04120 0.56109 -0.08106
 N277 N 0.06017 0.46421 -0.03649
 N278 N 0.08108 0.43849 -0.04080
 N279 N 0.03661 0.46432 -0.06006
 N280 N 0.04081 0.43870 -0.08107
 N281 N 0.06034 0.53533 -0.03647
 N282 N 0.08141 0.56093 -0.04073
 Mn283 Mn 0.00015 0.49991 -0.06048
 C284 C 0.06910 0.57664 -0.06862
 C285 C 0.06861 0.42297 -0.06869
 N286 N 0.03647 0.46416 0.06023
 N287 N 0.04077 0.43855 0.08131
 N288 N 0.06021 0.53523 0.03667
 N289 N 0.08115 0.56090 0.04092
 N290 N 0.03657 0.53526 0.06020
 N291 N 0.04075 0.56093 0.08114
 N292 N 0.06008 0.46411 0.03666
 N293 N 0.08109 0.43847 0.04103
 Mn294 Mn -0.00003 0.49986 0.06059
 Mn295 Mn 0.06061 0.49972 0.00009
 Cl296 Cl 0.00007 0.49988 0.00005
 C297 C 0.06867 0.42288 0.06894
 C298 C 0.06863 0.57654 0.06874
 N299 N 0.94008 -0.03612 0.46418
 N300 N 0.91903 -0.04037 0.43848
 N301 N 0.96379 -0.05956 0.53558
 N302 N 0.95957 -0.08052 0.56129
 N303 N 0.94019 -0.03611 0.53562
 N304 N 0.91922 -0.04045 0.56142
 N305 N 0.96363 -0.05962 0.46416
 N306 N 0.95926 -0.08053 0.43841
 C307 C 0.93137 -0.06814 0.42276
 C308 C 0.93171 -0.06822 0.57704
 N309 N 1.06046 -0.03613 0.53547
 N310 N 1.08151 -0.04035 0.56119
 N311 N 1.03672 -0.05970 0.46417
 N312 N 1.04088 -0.08069 0.43849
 N313 N 1.06034 -0.03629 0.46401
 N314 N 1.08126 -0.04070 0.43819
 N315 N 1.03689 -0.05960 0.53558
 N316 N 1.04124 -0.08045 0.56140
 Mn317 Mn 1.00026 -0.06002 0.49987
 C318 C 1.06914 -0.06807 0.57702
 C319 C 1.06872 -0.06847 0.42267
 N320 N 0.94019 0.03669 0.53557
 N321 N 0.91919 0.04097 0.56134
 N322 N 0.96373 0.06009 0.46407
 N323 N 0.95944 0.08105 0.43836
 N324 N 0.94012 0.03668 0.46413
 N325 N 0.91907 0.04104 0.43844
 N326 N 0.96375 0.06017 0.53550
 N327 N 0.95942 0.08109 0.56125
 Mn328 Mn 0.93974 0.00029 0.49988
 C329 C 0.93155 0.06873 0.57701
 C330 C 0.93153 0.06878 0.42275
 N331 N 1.06040 0.03652 0.46377
 N332 N 1.08142 0.04074 0.43799
 N333 N 1.03686 0.06013 0.53518
 N334 N 1.04106 0.08107 0.56089
 N335 N 1.06046 0.03668 0.53523
 N336 N 1.08141 0.04099 0.56100
 N337 N 1.03685 0.06002 0.46375
 N338 N 1.04119 0.08091 0.43794
 Mn339 Mn 1.06083 0.00019 0.49962
 Mn340 Mn 1.00030 0.06050 0.49962
 Cl341 Cl 1.00028 0.00024 0.49975
 C342 C 1.06907 0.06849 0.42223
 C343 C 1.06892 0.06876 0.57660
 C344 C 1.12314 0.12164 0.31225
 C345 C 1.11079 0.10937 0.33744
 C346 C 1.09623 0.09512 0.36696
 C347 C 1.08380 0.08299 0.39218
 C348 C 0.87742 -0.12106 0.31284
 C349 C 0.88975 -0.10886 0.33802
 C350 C 0.90428 -0.09469 0.36754
 C351 C 0.91667 -0.08261 0.39274
 C352 C 0.87740 0.12170 0.68692
 C353 C 0.88981 0.10952 0.66175
 C354 C 0.90441 0.09535 0.63223
 C355 C 0.91685 0.08325 0.60703
 C356 C 1.12306 -0.12120 0.68695
 C357 C 1.11076 -0.10894 0.66176
 C358 C 1.09626 -0.09469 0.63224
 C359 C 1.08387 -0.08255 0.60704
 C360 C 0.31248 1.12170 1.12289
 C361 C 0.33766 1.10937 1.11056
 C362 C 0.36717 1.09504 1.09603
 C363 C 0.39237 1.08285 1.08362
 C364 C 0.31292 0.87802 0.87773
 C365 C 0.33809 0.89038 0.88994
 C366 C 0.36760 0.90478 0.90431
 C367 C 0.39279 0.91703 0.91661
 C368 C 0.68731 0.87826 1.12230
 C369 C 0.66210 0.89060 1.11010
 C370 C 0.63254 0.90495 1.09576
 C371 C 0.60729 0.91715 1.08349
 C372 C 0.68719 1.12212 0.87776
 C373 C 0.66199 1.10976 0.89001
 C374 C 0.63246 1.09538 0.90442
 C375 C 0.60724 1.08315 0.91672
 C376 C 0.12235 0.31335 0.12239
 C377 C 0.11001 0.33845 0.11017
 C378 C 0.09558 0.36788 0.09586
 C379 C 0.08329 0.39299 0.08361
 C380 C -0.12283 0.31378 -0.12162
 C381 C -0.11044 0.33888 -0.10950
 C382 C -0.09591 0.36828 -0.09533
 C383 C -0.08352 0.39337 -0.08321
 C384 C 0.12282 0.68641 -0.12149
 C385 C 0.11050 0.66125 -0.10936
 C386 C 0.09606 0.63177 -0.09521
 C387 C 0.08375 0.60660 -0.08310
 C388 C -0.12279 0.68631 0.12188
 C389 C -0.11038 0.66122 0.10972
 C390 C -0.09583 0.63182 0.09550
 C391 C -0.08343 0.60673 0.08333
 C392 C 1.12111 0.12250 0.68662
 C393 C 1.10910 0.11019 0.66141
 C394 C 1.09518 0.09569 0.63187
 C395 C 1.08327 0.08334 0.60663
 C396 C 0.87933 -0.12227 0.68696
 C397 C 0.89139 -0.10989 0.66177
 C398 C 0.90535 -0.09530 0.63225
 C399 C 0.91730 -0.08286 0.60704
 C400 C 1.12071 -0.12266 0.31271
 C401 C 1.10873 -0.11026 0.33791
 C402 C 1.09488 -0.09562 0.36743
 C403 C 1.08303 -0.08315 0.39266
 C404 C 0.87856 0.12278 0.31315
 C405 C 0.89075 0.11043 0.33828
 C406 C 0.90490 0.09586 0.36770
 C407 C 0.91699 0.08344 0.39284
 C408 C 0.12122 0.31338 -0.12242
 C409 C 0.10908 0.33849 -0.11013
 C410 C 0.09502 0.36792 -0.09567
 C411 C 0.08301 0.39306 -0.08331
 C412 C -0.12185 0.31375 0.12225
 C413 C -0.10965 0.33886 0.11003
 C414 C -0.09547 0.36827 0.09565
 C415 C -0.08334 0.39338 0.08336
 C416 C -0.12072 0.68675 -0.12209
 C417 C -0.10861 0.66156 -0.10992
 C418 C -0.09457 0.63206 -0.09559
 C419 C -0.08260 0.60686 -0.08333
 C420 C 0.12096 0.68643 0.12187
 C421 C 0.10890 0.66124 0.10973
 C422 C 0.09491 0.63173 0.09544
 C423 C 0.08297 0.60652 0.08323
 C424 C 0.31369 1.12253 0.87764
 C425 C 0.33876 1.11014 0.88989
 C426 C 0.36810 1.09563 0.90423
 C427 C 0.39316 1.08325 0.91650
 C428 C 0.31361 0.87708 1.12180
 C429 C 0.33869 0.88953 1.10965
 C430 C 0.36806 0.90414 1.09547
 C431 C 0.39316 0.91659 1.08333
 C432 C 0.68619 1.12246 1.12190
 C433 C 0.66107 1.11010 1.10976
 C434 C 0.63166 1.09562 1.09557
 C435 C 0.60654 1.08327 1.08342
 C436 C 0.68644 0.87745 0.87801
 C437 C 0.66136 0.88989 0.89021
 C438 C 0.63199 0.90447 0.90446
 C439 C 0.60689 0.91688 0.91666
   
