data_POSCAR
  _audit_creation_date              2014-09-24
  _audit_creation_method            'ToBaCCo'
  _symmetry_space_group_name_H-M    'P1'
  _symmetry_Int_Tables_number       1
  _symmetry_cell_setting            triclinic
  loop_
  _symmetry_equiv_pos_as_xyz
 x,y,z
_cell_length_a 6.4047
_cell_length_b 6.3178
_cell_length_c 11.2577
_cell_angle_alpha 90.000700
_cell_angle_beta 90.347600
_cell_angle_gamma 89.998900
loop_
  _atom_site_label
  _atom_site_type_symbol
  _atom_site_fract_x
  _atom_site_fract_y
  _atom_site_fract_z
O1 O 0.16923 0.29881 0.88443
 O2 O 0.17153 0.71122 1.11437
 O3 O 0.17164 0.29884 1.11358
 O4 O 0.16907 0.71120 0.88363
 O5 O -0.17626 0.71148 0.88366
 O6 O -0.17396 0.29879 1.11357
 O7 O -0.17383 0.71124 1.11439
 O8 O -0.17635 0.29865 0.88442
 Cu9 Cu 0.20529 0.50564 0.99900
 Cu10 Cu -0.21005 0.50566 0.99899
 C11 C -0.00390 0.22676 0.84713
 C12 C -0.00072 0.78180 1.15265
 C13 C -0.00075 0.22690 1.15085
 C14 C -0.00394 0.78196 0.84536
 O15 O 0.29781 0.17032 0.61503
 O16 O 0.70534 0.17032 0.38688
 O17 O 0.29916 0.17035 0.38621
 O18 O 0.70766 0.17025 0.61661
 O19 O 0.70805 -0.18005 0.61655
 O20 O 0.29884 -0.18025 0.38622
 O21 O 0.70553 -0.18019 0.38681
 O22 O 0.29746 -0.18016 0.61498
 Cu23 Cu 0.50287 0.20703 0.50160
 Cu24 Cu 0.50286 -0.21976 0.50160
 C25 C 0.22541 -0.00480 0.65136
 C26 C 0.77553 -0.00482 0.34928
 C27 C 0.22807 -0.00483 0.34870
 C28 C 0.77965 -0.00478 0.65384
 Si29 Si 0.00042 -0.00396 0.24906
 Si30 Si -0.00434 -0.00398 0.74857
   
