data_POSCAR
  _audit_creation_date              2014-09-24
  _audit_creation_method            'ToBaCCo'
  _symmetry_space_group_name_H-M    'P1'
  _symmetry_Int_Tables_number       1
  _symmetry_cell_setting            triclinic
  loop_
  _symmetry_equiv_pos_as_xyz
 x,y,z
_cell_length_a 38.4724
_cell_length_b 35.4843
_cell_length_c 38.2976
_cell_angle_alpha 90.567400
_cell_angle_beta 90.002500
_cell_angle_gamma 89.612700
loop_
  _atom_site_label
  _atom_site_type_symbol
  _atom_site_fract_x
  _atom_site_fract_y
  _atom_site_fract_z
C1 C 0.31867 0.31527 -0.01410
 C2 C 0.31609 0.30972 0.02101
 C3 C 0.29031 0.33036 0.04289
 C4 C 0.34083 0.28530 0.03995
 C5 C 0.34565 0.29579 -0.03571
 C6 C 0.29527 0.34205 -0.03272
 C7 C 0.30207 0.35467 0.06939
 C8 C 0.27880 0.37815 0.08730
 C9 C 0.24307 0.37740 0.07936
 C10 C 0.23120 0.35184 0.05383
 C11 C 0.25456 0.32826 0.03594
 C12 C 0.37478 0.29747 0.04681
 C13 C 0.39740 0.27504 0.06636
 C14 C 0.38651 0.23983 0.07862
 C15 C 0.35280 0.22742 0.07111
 C16 C 0.32983 0.25039 0.05255
 C17 C 0.34970 0.25644 -0.03558
 C18 C 0.37505 0.23877 -0.05636
 C19 C 0.39645 0.26014 -0.07864
 C20 C 0.39134 0.29950 -0.07930
 C21 C 0.36653 0.31703 -0.05800
 C22 C 0.27706 0.32976 -0.06246
 C23 C 0.25434 0.35413 -0.07979
 C24 C 0.24921 0.39116 -0.06743
 C25 C 0.26773 0.40366 -0.03805
 C26 C 0.29124 0.37965 -0.02138
 H27 H 0.32957 0.35692 0.07500
 H28 H 0.28931 0.39798 0.10603
 H29 H 0.20386 0.35074 0.04714
 H30 H 0.24497 0.30944 0.01575
 H31 H 0.38350 0.32449 0.03739
 H32 H 0.42354 0.28484 0.07140
 H33 H 0.30361 0.24080 0.04758
 H34 H 0.33286 0.23924 -0.01979
 H35 H 0.37667 0.20842 -0.05532
 H36 H 0.40690 0.31711 -0.09611
 H37 H 0.36364 0.34740 -0.05889
 H38 H 0.28003 0.30104 -0.07191
 H39 H 0.24009 0.34377 -0.10226
 H40 H 0.26432 0.43222 -0.02832
 H41 H 0.30594 0.39027 0.00067
 H42 H 0.34408 0.20025 0.08015
 C43 C 0.68423 0.69493 -0.01735
 C44 C 0.68505 0.69053 0.01808
 C45 C 0.70893 0.66307 0.03514
 C46 C 0.66162 0.71233 0.04168
 C47 C 0.65725 0.71832 -0.03512
 C48 C 0.70953 0.67485 -0.04038
 C49 C 0.71107 0.62535 0.02365
 C50 C 0.73430 0.60027 0.03934
 C51 C 0.75441 0.61193 0.06791
 C52 C 0.75149 0.64921 0.08024
 C53 C 0.72907 0.67461 0.06385
 C54 C 0.64028 0.69317 0.06521
 C55 C 0.61648 0.71295 0.08606
 C56 C 0.61392 0.75246 0.08404
 C57 C 0.63604 0.77162 0.06117
 C58 C 0.65992 0.75180 0.04041
 C59 C 0.66704 0.74265 -0.06207
 C60 C 0.64201 0.76350 -0.08009
 C61 C 0.60676 0.76086 -0.07109
 C62 C 0.59686 0.73700 -0.04398
 C63 C 0.62176 0.71517 -0.02674
 C64 C 0.74550 0.67836 -0.03524
 C65 C 0.76875 0.65587 -0.05442
 C66 C 0.75654 0.62997 -0.07946
 C67 C 0.72047 0.62777 -0.08555
 C68 C 0.69730 0.65023 -0.06637
 H69 H 0.69489 0.61532 0.00243
 H70 H 0.73602 0.57152 0.02969
 H71 H 0.76701 0.65884 0.10212
 H72 H 0.72765 0.70341 0.07339
 H73 H 0.64122 0.66270 0.06654
 H74 H 0.59938 0.69698 0.10263
 H75 H 0.67656 0.76715 0.02280
 H76 H 0.69412 0.74535 -0.06931
 H77 H 0.65011 0.78180 -0.10101
 H78 H 0.56970 0.73423 -0.03707
 H79 H 0.61321 0.69552 -0.00714
 H80 H 0.75545 0.69756 -0.01554
 H81 H 0.79632 0.65810 -0.04911
 H82 H 0.70969 0.60764 -0.10384
 H83 H 0.66963 0.64706 -0.07063
 H84 H 0.63454 0.80201 0.05906
 C85 C 0.67823 0.32289 1.02645
 C86 C 0.67609 0.32476 0.99111
 C87 C 0.69728 0.35126 0.97039
 C88 C 0.64973 0.30301 0.97149
 C89 C 0.65623 0.29651 1.04656
 C90 C 0.69978 0.34986 1.04649
 C91 C 0.68066 0.37701 0.94827
 C92 C 0.70004 0.40013 0.92652
 C93 C 0.73646 0.39831 0.92666
 C94 C 0.75323 0.37265 0.94895
 C95 C 0.73373 0.34914 0.97047
 C96 C 0.61461 0.31362 0.97324
 C97 C 0.59011 0.29543 0.95224
 C98 C 0.60026 0.26574 0.92997
 C99 C 0.63537 0.25456 0.92883
 C100 C 0.66002 0.27345 0.94916
 C101 C 0.65732 0.25755 1.03968
 C102 C 0.63468 0.23325 1.05688
 C103 C 0.61100 0.24730 1.08175
 C104 C 0.61034 0.28630 1.08896
 C105 C 0.63285 0.31055 1.07167
 C106 C 0.73307 0.33954 1.05786
 C107 C 0.75353 0.36524 1.07650
 C108 C 0.74042 0.40142 1.08522
 C109 C 0.70650 0.41096 1.07455
 C110 C 0.68671 0.38577 1.05474
 H111 H 0.65257 0.37896 0.94755
 H112 H 0.68653 0.41945 0.90941
 H113 H 0.78124 0.36968 0.94891
 H114 H 0.74706 0.32853 0.98634
 H115 H 0.60642 0.33673 0.99008
 H116 H 0.56322 0.30464 0.95324
 H117 H 0.68715 0.26531 0.94731
 H118 H 0.67539 0.24606 1.02062
 H119 H 0.63561 0.20340 1.05070
 H120 H 0.59173 0.29850 1.10703
 H121 H 0.63112 0.34047 1.07714
 H122 H 0.74328 0.31166 1.05203
 H123 H 0.77893 0.35594 1.08505
 H124 H 0.69547 0.43838 1.08087
 H125 H 0.66098 0.39410 1.04615
 H126 H 0.64391 0.23223 0.91130
 C127 C 0.32288 0.67423 1.00737
 C128 C 0.32431 0.67542 0.97178
 C129 C 0.30014 0.65392 0.94885
 C130 C 0.35223 0.69593 0.95345
 C131 C 0.34626 0.69807 1.02933
 C132 C 0.29885 0.64842 1.02616
 C133 C 0.31386 0.63100 0.92205
 C134 C 0.29200 0.60988 0.90064
 C135 C 0.25594 0.61078 0.90570
 C136 C 0.24191 0.63451 0.93189
 C137 C 0.26389 0.65617 0.95310
 C138 C 0.38670 0.68287 0.95487
 C139 C 0.41214 0.69904 0.93379
 C140 C 0.40363 0.72906 0.91175
 C141 C 0.36923 0.74266 0.91100
 C142 C 0.34365 0.72587 0.93139
 C143 C 0.34898 0.73704 1.02398
 C144 C 0.37117 0.75892 1.04468
 C145 C 0.39038 0.74272 1.07205
 C146 C 0.38718 0.70352 1.07752
 C147 C 0.36543 0.68165 1.05640
 C148 C 0.27950 0.66196 1.05478
 C149 C 0.25728 0.63814 1.07304
 C150 C 0.25346 0.60005 1.06276
 C151 C 0.27272 0.58673 1.03391
 C152 C 0.29588 0.61025 1.01654
 H153 H 0.34167 0.62887 0.91806
 H154 H 0.30341 0.59205 0.88050
 H155 H 0.21412 0.63669 0.93579
 H156 H 0.25267 0.67442 0.97300
 H157 H 0.39354 0.65927 0.97128
 H158 H 0.43844 0.68798 0.93452
 H159 H 0.31703 0.73578 0.92959
 H160 H 0.33377 0.75062 1.00386
 H161 H 0.37280 0.78885 1.03959
 H162 H 0.40192 0.68892 1.09725
 H163 H 0.36385 0.65163 1.06098
 H164 H 0.28138 0.69122 1.06285
 H165 H 0.24239 0.65028 1.09433
 H166 H 0.27070 0.55762 1.02535
 H167 H 0.31144 0.59854 0.99548
 H168 H 0.36186 0.76528 0.89367
 C169 C -0.01575 0.32399 0.32160
 C170 C 0.01945 0.32567 0.32340
 C171 C 0.03914 0.30512 0.35039
 C172 C 0.03983 0.35168 0.30146
 C173 C -0.03543 0.35156 0.30047
 C174 C -0.03605 0.29755 0.34356
 C175 C 0.03728 0.31698 0.38537
 C176 C 0.05863 0.30032 0.41041
 C177 C 0.08136 0.27090 0.40097
 C178 C 0.08263 0.25844 0.36604
 C179 C 0.06197 0.27587 0.34080
 C180 C 0.05990 0.37988 0.31734
 C181 C 0.08081 0.40316 0.29719
 C182 C 0.08209 0.39883 0.26074
 C183 C 0.06202 0.37036 0.24481
 C184 C 0.04111 0.34699 0.26507
 C185 C -0.04656 0.34227 0.26669
 C186 C -0.06547 0.36837 0.24704
 C187 C -0.07463 0.40390 0.26145
 C188 C -0.06380 0.41256 0.29567
 C189 C -0.04372 0.38703 0.31463
 C190 C -0.02837 0.25880 0.34381
 C191 C -0.04686 0.23446 0.36543
 C192 C -0.07400 0.24804 0.38691
 C193 C -0.08186 0.28704 0.38603
 C194 C -0.06319 0.31123 0.36464
 H195 H 0.02010 0.33995 0.39298
 H196 H 0.05752 0.31046 0.43716
 H197 H 0.10048 0.23624 0.35808
 H198 H 0.06397 0.26684 0.31377
 H199 H 0.05948 0.38379 0.34541
 H200 H 0.09610 0.42466 0.31017
 H201 H 0.02657 0.32466 0.25247
 H202 H -0.04056 0.31480 0.25558
 H203 H -0.07403 0.35975 0.22130
 H204 H -0.07035 0.43949 0.30764
 H205 H -0.03516 0.39463 0.34070
 H206 H -0.00798 0.24736 0.32726
 H207 H -0.03996 0.20480 0.36518
 H208 H -0.10168 0.29989 0.40219
 H209 H -0.06962 0.34094 0.36529
 H210 H 0.06302 0.36526 0.21696
 C211 C -0.02179 0.68144 0.68307
 C212 C 0.01324 0.67789 0.67967
 C213 C 0.03253 0.69778 0.65214
 C214 C 0.03401 0.65121 0.70105
 C215 C -0.04091 0.65839 0.70852
 C216 C -0.04295 0.70533 0.65927
 C217 C 0.03160 0.68475 0.61746
 C218 C 0.05321 0.70076 0.59239
 C219 C 0.07517 0.73069 0.60148
 C220 C 0.07535 0.74434 0.63605
 C221 C 0.05449 0.72761 0.66130
 C222 C 0.05383 0.62306 0.68427
 C223 C 0.07507 0.59897 0.70351
 C224 C 0.07667 0.60213 0.73998
 C225 C 0.05679 0.63029 0.75695
 C226 C 0.03584 0.65482 0.73756
 C227 C -0.05066 0.67376 0.74091
 C228 C -0.06871 0.65193 0.76500
 C229 C -0.07890 0.61497 0.75640
 C230 C -0.06879 0.59973 0.72368
 C231 C -0.04960 0.62114 0.70026
 C232 C -0.03594 0.74378 0.65506
 C233 C -0.05542 0.76539 0.63165
 C234 C -0.08286 0.74936 0.61230
 C235 C -0.09023 0.71083 0.61736
 C236 C -0.07052 0.68930 0.64049
 H237 H 0.01506 0.66136 0.61019
 H238 H 0.05294 0.68971 0.56592
 H239 H 0.09258 0.76692 0.64381
 H240 H 0.05578 0.73754 0.68811
 H241 H 0.05302 0.61980 0.65615
 H242 H 0.09030 0.57770 0.68982
 H243 H 0.02172 0.67713 0.75095
 H244 H -0.04391 0.70252 0.74764
 H245 H -0.07566 0.66442 0.79000
 H246 H -0.07444 0.57092 0.71633
 H247 H -0.04172 0.60877 0.67550
 H248 H -0.01533 0.75708 0.66985
 H249 H -0.04894 0.79487 0.62873
 H250 H -0.11045 0.69636 0.60319
 H251 H -0.07647 0.65970 0.64308
 H252 H 0.05824 0.63421 0.78497
 C253 C 1.02299 0.70779 0.30007
 C254 C 0.98754 0.70973 0.29990
 C255 C 0.96872 0.73082 0.32768
 C256 C 0.96581 0.68654 0.27597
 C257 C 1.04332 0.68275 0.27594
 C258 C 1.04336 0.72810 0.32734
 C259 C 0.96745 0.71656 0.36168
 C260 C 0.94896 0.73583 0.38771
 C261 C 0.93193 0.76996 0.38020
 C262 C 0.93409 0.78474 0.34643
 C263 C 0.95188 0.76493 0.32014
 C264 C 0.94283 0.66041 0.29036
 C265 C 0.92514 0.63493 0.26905
 C266 C 0.92936 0.63542 0.23253
 C267 C 0.95167 0.66234 0.21802
 C268 C 0.96958 0.68789 0.23952
 C269 C 1.07399 0.69623 0.26073
 C270 C 1.09487 0.67257 0.24009
 C271 C 1.08484 0.63530 0.23288
 C272 C 1.05406 0.62177 0.24818
 C273 C 1.03433 0.64484 0.27039
 C274 C 1.04128 0.76738 0.33149
 C275 C 1.05965 0.78547 0.35831
 C276 C 1.08111 0.76485 0.38114
 C277 C 1.08325 0.72530 0.37637
 C278 C 1.06467 0.70738 0.34980
 H279 H 0.98047 0.69030 0.36786
 H280 H 0.94805 0.72420 0.41373
 H281 H 0.92119 0.81106 0.34023
 H282 H 0.95279 0.77626 0.29400
 H283 H 0.93985 0.65835 0.31838
 H284 H 0.90938 0.61399 0.28169
 H285 H 0.98718 0.70786 0.22786
 H286 H 1.08208 0.72504 0.26528
 H287 H 1.11868 0.68369 0.22927
 H288 H 1.04624 0.59271 0.24507
 H289 H 1.01241 0.63264 0.28374
 H290 H 1.02531 0.78398 0.31408
 H291 H 1.05724 0.81581 0.36099
 H292 H 1.09831 0.70738 0.39328
 H293 H 1.06642 0.67699 0.34716
 H294 H 0.95560 0.66324 0.19004
 C295 C 1.00969 0.29804 0.69398
 C296 C 0.97475 0.30348 0.69220
 C297 C 0.95290 0.28503 0.66504
 C298 C 0.95741 0.33227 0.71448
 C299 C 1.03123 0.32052 0.71851
 C300 C 1.02852 0.27527 0.66739
 C301 C 0.93121 0.30715 0.64386
 C302 C 0.91007 0.29043 0.61863
 C303 C 0.91042 0.25129 0.61364
 C304 C 0.93177 0.22892 0.63508
 C305 C 0.95269 0.24568 0.66070
 C306 C 0.95912 0.37040 0.70546
 C307 C 0.93977 0.39726 0.72403
 C308 C 0.91950 0.38656 0.75263
 C309 C 0.91895 0.34858 0.76263
 C310 C 0.93745 0.32147 0.74328
 C311 C 1.02707 0.31765 0.75481
 C312 C 1.04545 0.34154 0.77741
 C313 C 1.06854 0.36834 0.76413
 C314 C 1.07275 0.37083 0.72768
 C315 C 1.05448 0.34701 0.70523
 C316 C 1.04222 0.23981 0.67572
 C317 C 1.06211 0.21957 0.65122
 C318 C 1.07017 0.23533 0.61864
 C319 C 1.05540 0.27067 0.61021
 C320 C 1.03454 0.29014 0.63424
 H321 H 0.93074 0.33752 0.64657
 H322 H 0.89368 0.30822 0.60263
 H323 H 0.93180 0.19851 0.63268
 H324 H 0.96834 0.22794 0.67741
 H325 H 0.97440 0.37905 0.68321
 H326 H 0.94029 0.42640 0.71586
 H327 H 0.93584 0.29206 0.75039
 H328 H 1.00917 0.29740 0.76554
 H329 H 1.04144 0.33929 0.80531
 H330 H 1.08910 0.39201 0.71615
 H331 H 1.05757 0.35031 0.67734
 H332 H 1.03765 0.22794 0.70125
 H333 H 1.07257 0.19230 0.65844
 H334 H 1.05915 0.28326 0.58491
 H335 H 1.02373 0.31733 0.62732
 H336 H 0.90302 0.33974 0.78433
 C337 C 0.32697 -0.02153 0.33427
 C338 C 0.32539 0.01662 0.33040
 C339 C 0.35130 0.03659 0.30885
 C340 C 0.30012 0.04044 0.35025
 C341 C 0.30555 -0.04155 0.36056
 C342 C 0.35053 -0.04544 0.31254
 C343 C 0.38606 0.03839 0.31970
 C344 C 0.41013 0.05922 0.30071
 C345 C 0.40006 0.07769 0.27007
 C346 C 0.36532 0.07536 0.25887
 C347 C 0.34100 0.05536 0.27845
 C348 C 0.31227 0.06970 0.37182
 C349 C 0.28945 0.08954 0.39373
 C350 C 0.25378 0.08084 0.39418
 C351 C 0.24152 0.05236 0.37173
 C352 C 0.26438 0.03260 0.34969
 C353 C 0.28695 -0.07386 0.35059
 C354 C 0.26676 -0.09300 0.37490
 C355 C 0.26455 -0.07983 0.40952
 C356 C 0.28341 -0.04789 0.41965
 C357 C 0.30445 -0.02947 0.39561
 C358 C 0.34930 -0.04409 0.27598
 C359 C 0.37012 -0.06821 0.25574
 C360 C 0.39247 -0.09470 0.27176
 C361 C 0.39300 -0.09622 0.30846
 C362 C 0.37240 -0.07184 0.32857
 H363 H 0.39430 0.02440 0.34334
 H364 H 0.43669 0.06096 0.30995
 H365 H 0.35676 0.09001 0.23571
 H366 H 0.31416 0.05450 0.26996
 H367 H 0.33974 0.07606 0.37292
 H368 H 0.30022 0.11049 0.41125
 H369 H 0.25439 0.01037 0.33299
 H370 H 0.28768 -0.08397 0.32381
 H371 H 0.25202 -0.11731 0.36640
 H372 H 0.28205 -0.03742 0.44629
 H373 H 0.31957 -0.00554 0.40431
 H374 H 0.33165 -0.02485 0.26306
 H375 H 0.36768 -0.06619 0.22775
 H376 H 0.40964 -0.11620 0.32181
 H377 H 0.37342 -0.07369 0.35677
 H378 H 0.21423 0.04504 0.37158
 C379 C 0.67435 -0.01660 0.67009
 C380 C 0.67677 0.02168 0.67269
 C381 C 0.65726 0.04415 0.69930
 C382 C 0.69694 0.04280 0.64654
 C383 C 0.69857 -0.03814 0.64697
 C384 C 0.64753 -0.03842 0.68934
 C385 C 0.63632 0.07463 0.68899
 C386 C 0.61517 0.09352 0.71322
 C387 C 0.61489 0.08260 0.74847
 C388 C 0.63686 0.05302 0.75893
 C389 C 0.65810 0.03421 0.73469
 C390 C 0.68379 0.04679 0.61262
 C391 C 0.70237 0.06688 0.58775
 C392 C 0.73487 0.08211 0.59610
 C393 C 0.74822 0.07784 0.63001
 C394 C 0.72905 0.05877 0.65527
 C395 C 0.73464 -0.03562 0.65186
 C396 C 0.75747 -0.05503 0.62964
 C397 C 0.74471 -0.07804 0.60261
 C398 C 0.70847 -0.08089 0.59799
 C399 C 0.68564 -0.06123 0.62013
 C400 C 0.65639 -0.07283 0.70491
 C401 C 0.63162 -0.09324 0.72346
 C402 C 0.59740 -0.07922 0.72744
 C403 C 0.58858 -0.04503 0.71138
 C404 C 0.61296 -0.02557 0.69164
 H405 H 0.63510 0.08276 0.66184
 H406 H 0.59810 0.11550 0.70379
 H407 H 0.63716 0.04398 0.78587
 H408 H 0.67442 0.01113 0.74334
 H409 H 0.65892 0.03472 0.60564
 H410 H 0.69155 0.07026 0.56184
 H411 H 0.73937 0.05603 0.68144
 H412 H 0.74512 -0.01853 0.67289
 H413 H 0.78521 -0.05229 0.63373
 H414 H 0.69760 -0.09746 0.57686
 H415 H 0.65788 -0.06346 0.61594
 H416 H 0.68274 -0.08363 0.70330
 H417 H 0.64008 -0.11892 0.73592
 H418 H 0.56246 -0.03359 0.71350
 H419 H 0.60480 -0.00015 0.67848
 H420 H 0.77298 0.09006 0.63714
 C421 C 0.32352 1.02307 0.67934
 C422 C 0.32140 0.98458 0.67793
 C423 C 0.34284 0.96042 0.70124
 C424 C 0.29828 0.96482 0.65252
 C425 C 0.29879 1.04743 0.65978
 C426 C 0.35095 1.04254 0.70013
 C427 C 0.36434 0.93221 0.68684
 C428 C 0.38694 0.91165 0.70810
 C429 C 0.38816 0.91870 0.74434
 C430 C 0.36577 0.94610 0.75878
 C431 C 0.34303 0.96646 0.73753
 C432 C 0.29788 0.97470 0.61705
 C433 C 0.27528 0.95687 0.59373
 C434 C 0.25381 0.92766 0.60502
 C435 C 0.25489 0.91689 0.64022
 C436 C 0.27686 0.93541 0.66377
 C437 C 0.26273 1.04239 0.66263
 C438 C 0.23991 1.06298 0.64166
 C439 C 0.25258 1.08964 0.61809
 C440 C 0.28866 1.09581 0.61636
 C441 C 0.31148 1.07500 0.63716
 C442 C 0.34194 1.07240 0.72278
 C443 C 0.36723 1.08965 0.74360
 C444 C 0.40192 1.07706 0.74227
 C445 C 0.41108 1.04782 0.71913
 C446 C 0.38601 1.03133 0.69762
 H447 H 0.36462 0.92715 0.65890
 H448 H 0.40431 0.89146 0.69579
 H449 H 0.36620 0.95211 0.78656
 H450 H 0.32625 0.98770 0.74926
 H451 H 0.31494 0.99640 0.60741
 H452 H 0.27502 0.96539 0.56664
 H453 H 0.27684 0.92711 0.69091
 H454 H 0.25234 1.02173 0.68038
 H455 H 0.21228 1.05764 0.64347
 H456 H 0.29955 1.11541 0.59796
 H457 H 0.33920 1.07934 0.63458
 H458 H 0.31516 1.08175 0.72497
 H459 H 0.35946 1.11190 0.76157
 H460 H 0.43773 1.03789 0.71759
 H461 H 0.39387 1.00928 0.67949
 H462 H 0.23827 0.89470 0.64967
 C463 C 0.67883 1.01042 0.32130
 C464 C 0.67859 0.97246 0.31518
 C465 C 0.65342 0.95568 0.29028
 C466 C 0.70056 0.94545 0.33494
 C467 C 0.70168 1.02895 0.34773
 C468 C 0.65484 1.03577 0.30203
 C469 C 0.61798 0.95448 0.29866
 C470 C 0.59447 0.93747 0.27574
 C471 C 0.60605 0.92179 0.24390
 C472 C 0.64134 0.92410 0.23508
 C473 C 0.66500 0.94039 0.25840
 C474 C 0.68461 0.91548 0.35228
 C475 C 0.70405 0.89143 0.37335
 C476 C 0.73981 0.89696 0.37786
 C477 C 0.75624 0.92580 0.35911
 C478 C 0.73676 0.94966 0.33758
 C479 C 0.71940 1.06191 0.33869
 C480 C 0.74000 1.08088 0.36308
 C481 C 0.74398 1.06686 0.39718
 C482 C 0.72646 1.03362 0.40607
 C483 C 0.70467 1.01559 0.38203
 C484 C 0.65624 1.03829 0.26552
 C485 C 0.63293 1.06159 0.24775
 C486 C 0.60796 1.08298 0.26631
 C487 C 0.60756 1.08141 0.30290
 C488 C 0.63072 1.05794 0.32061
 H489 H 0.60869 0.96625 0.32317
 H490 H 0.56725 0.93651 0.28287
 H491 H 0.65072 0.91225 0.21064
 H492 H 0.69231 0.94125 0.25160
 H493 H 0.65680 0.91139 0.35047
 H494 H 0.69085 0.86919 0.38715
 H495 H 0.74975 0.97197 0.32369
 H496 H 0.71743 1.07296 0.31249
 H497 H 0.75370 1.10560 0.35445
 H498 H 0.72873 1.02214 0.43210
 H499 H 0.69017 0.99123 0.39031
 H500 H 0.67541 1.02224 0.25083
 H501 H 0.63492 1.06317 0.21963
 H502 H 0.58888 1.09794 0.31780
 H503 H 0.62955 1.05666 0.34883
 H504 H 0.78400 0.93003 0.36099
 O505 O 0.87562 0.82130 0.46725
 O506 O 0.81703 0.86676 0.53175
 O507 O 0.86770 0.81687 0.53506
 O508 O 0.82809 0.87334 0.46509
 O509 O 0.78997 0.82818 0.45537
 O510 O 0.82833 0.77271 0.52671
 O511 O 0.77815 0.82240 0.52198
 O512 O 0.83738 0.77570 0.45994
 Cu513 Cu 0.85105 0.84899 0.50088
 Cu514 Cu 0.80455 0.79533 0.49017
 C515 C 0.86630 0.79061 0.45271
 C516 C 0.78731 0.85251 0.53737
 C517 C 0.85491 0.78508 0.54268
 C518 C 0.80242 0.86032 0.44819
 O519 O 0.18486 0.13605 0.54018
 O520 O 0.12893 0.17152 0.46970
 O521 O 0.18590 0.13202 0.47202
 O522 O 0.12858 0.17780 0.53776
 O523 O 0.16016 0.22943 0.53452
 O524 O 0.21724 0.18386 0.46977
 O525 O 0.16007 0.22358 0.46782
 O526 O 0.21658 0.18757 0.53776
 Cu527 Cu 0.15395 0.14911 0.50531
 Cu528 Cu 0.19183 0.21119 0.50233
 C529 C 0.21042 0.15552 0.55077
 C530 C 0.13476 0.20378 0.45707
 C531 C 0.21128 0.15040 0.45961
 C532 C 0.13439 0.21181 0.54670
 O533 O 0.18553 0.86724 0.46988
 O534 O 0.12451 0.82954 0.53399
 O535 O 0.18050 0.87073 0.53666
 O536 O 0.13204 0.82251 0.46591
 O537 O 0.16610 0.77263 0.47191
 O538 O 0.21252 0.81942 0.54357
 O539 O 0.15675 0.77805 0.53852
 O540 O 0.21925 0.81701 0.47557
 Cu541 Cu 0.15207 0.85245 0.50103
 Cu542 Cu 0.19203 0.79177 0.50809
 C543 C 0.21297 0.84897 0.46218
 C544 C 0.13003 0.79734 0.54697
 C545 C 0.20499 0.85315 0.55192
 C546 C 0.14118 0.78929 0.45676
 O547 O 0.88294 0.15985 0.52373
 O548 O 0.82618 0.11977 0.45590
 O549 O 0.87515 0.17179 0.45701
 O550 O 0.83265 0.11190 0.52312
 O551 O 0.79233 0.15592 0.53034
 O552 O 0.83709 0.21703 0.46879
 O553 O 0.78881 0.16674 0.46338
 O554 O 0.84331 0.20366 0.53490
 Cu555 Cu 0.85813 0.13629 0.48866
 Cu556 Cu 0.81150 0.19030 0.50035
 C557 C 0.87255 0.18821 0.54129
 C558 C 0.79798 0.13639 0.44806
 C559 C 0.86354 0.20507 0.45230
 C560 C 0.80493 0.12382 0.53766
 O561 O 0.53761 0.82718 0.86225
 O562 O 0.46860 0.86939 0.80789
 O563 O 0.46990 0.82989 0.86429
 O564 O 0.53603 0.86960 0.80632
 O565 O 0.53563 0.81781 0.77377
 O566 O 0.47039 0.77729 0.83292
 O567 O 0.46755 0.81754 0.77556
 O568 O 0.53781 0.77647 0.82825
 Cu569 Cu 0.50326 0.85420 0.83848
 Cu570 Cu 0.50245 0.79211 0.79929
 C571 C 0.54958 0.79472 0.85422
 C572 C 0.45629 0.85049 0.78244
 C573 C 0.45909 0.79674 0.85865
 C574 C 0.54702 0.85063 0.78023
 O575 O 0.53412 0.17461 0.12911
 O576 O 0.46537 0.11720 0.16977
 O577 O 0.46647 0.17384 0.12708
 O578 O 0.53333 0.11583 0.16952
 O579 O 0.53295 0.15436 0.21517
 O580 O 0.46623 0.21294 0.17233
 O581 O 0.46557 0.15557 0.21553
 O582 O 0.53339 0.21279 0.17501
 Cu583 Cu 0.49986 0.14146 0.14432
 Cu584 Cu 0.49930 0.18772 0.19912
 C585 C 0.54528 0.20364 0.14523
 C586 C 0.45414 0.12649 0.19988
 C587 C 0.45527 0.20349 0.14221
 C588 C 0.54454 0.12512 0.19951
 O589 O 0.46923 0.16039 0.87991
 O590 O 0.53794 0.12583 0.82031
 O591 O 0.53728 0.16246 0.87936
 O592 O 0.47057 0.12382 0.82025
 O593 O 0.46717 0.17842 0.79320
 O594 O 0.53503 0.21636 0.85102
 O595 O 0.53521 0.17937 0.79150
 O596 O 0.46825 0.21474 0.85241
 Cu597 Cu 0.50389 0.13772 0.85284
 Cu598 Cu 0.50130 0.20256 0.81905
 C599 C 0.45732 0.19366 0.87663
 C600 C 0.54809 0.14665 0.79557
 C601 C 0.54733 0.19613 0.87530
 C602 C 0.45748 0.14457 0.79673
 O603 O 0.46315 0.81051 0.12915
 O604 O 0.52660 0.86653 0.18045
 O605 O 0.53075 0.81341 0.13340
 O606 O 0.45925 0.86763 0.17285
 O607 O 0.45656 0.82694 0.21602
 O608 O 0.52845 0.77221 0.17615
 O609 O 0.52282 0.82535 0.22319
 O610 O 0.46093 0.76956 0.17213
 Cu611 Cu 0.49512 0.84359 0.14963
 Cu612 Cu 0.49172 0.79425 0.20100
 C613 C 0.45158 0.78012 0.14203
 C614 C 0.53517 0.85538 0.21079
 C615 C 0.54195 0.78375 0.14795
 C616 C 0.44631 0.85716 0.20155
 O617 O 0.83321 0.47579 0.89162
 O618 O 0.87604 0.53932 0.82949
 O619 O 0.82694 0.54693 0.87641
 O620 O 0.88178 0.46797 0.84470
 O621 O 0.84222 0.45490 0.80459
 O622 O 0.78801 0.53375 0.83578
 O623 O 0.83709 0.52455 0.78929
 O624 O 0.79343 0.46290 0.85176
 Cu625 Cu 0.85845 0.50898 0.86460
 Cu626 Cu 0.81106 0.49265 0.81650
 C627 C 0.80578 0.45877 0.88227
 C628 C 0.86422 0.54205 0.79861
 C629 C 0.79801 0.55358 0.86157
 C630 C 0.87147 0.44850 0.81875
 O631 O 0.11526 0.53792 0.15237
 O632 O 0.17405 0.46352 0.11917
 O633 O 0.11829 0.46568 0.15710
 O634 O 0.17206 0.53666 0.11303
 O635 O 0.20376 0.54346 0.16077
 O636 O 0.15043 0.47238 0.20453
 O637 O 0.20667 0.46996 0.16627
 O638 O 0.14854 0.54498 0.19901
 Cu639 Cu 0.14181 0.50061 0.13047
 Cu640 Cu 0.18076 0.50819 0.18729
 C641 C 0.12163 0.55359 0.18160
 C642 C 0.20023 0.45385 0.13727
 C643 C 0.12501 0.45732 0.18854
 C644 C 0.19703 0.55207 0.12942
 O645 O 0.83118 0.54374 0.12138
 O646 O 0.88791 0.47406 0.16417
 O647 O 0.83912 0.47103 0.11802
 O648 O 0.88088 0.54791 0.16825
 O649 O 0.84219 0.54098 0.21027
 O650 O 0.79895 0.46687 0.15904
 O651 O 0.84896 0.46820 0.20614
 O652 O 0.79330 0.53951 0.16452
 Cu653 Cu 0.86381 0.50997 0.13883
 Cu654 Cu 0.81701 0.50300 0.18925
 C655 C 0.80265 0.55347 0.13569
 C656 C 0.87791 0.45912 0.19236
 C657 C 0.81155 0.45642 0.12982
 C658 C 0.86851 0.55748 0.19787
 O659 O 0.15948 0.52701 0.88359
 O660 O 0.11920 0.45033 0.83197
 O661 O 0.16903 0.45482 0.87885
 O662 O 0.11002 0.52330 0.83710
 O663 O 0.14864 0.53114 0.79519
 O664 O 0.20680 0.46162 0.83594
 O665 O 0.15769 0.45892 0.79004
 O666 O 0.19824 0.53414 0.84170
 Cu667 Cu 0.13547 0.48795 0.86205
 Cu668 Cu 0.18168 0.49743 0.81154
 C669 C 0.18614 0.54323 0.87150
 C670 C 0.13158 0.44179 0.80210
 C671 C 0.19798 0.44671 0.86455
 C672 C 0.11932 0.53881 0.80890
 C673 C 0.21808 0.40479 0.09490
 C674 C 0.22406 0.42418 0.12451
 H675 H 0.19393 0.40950 0.08097
 H676 H 0.24703 0.41866 0.13995
 C677 C 0.77844 0.58497 0.08442
 C678 C 0.77995 0.58140 0.11908
 H679 H 0.79326 0.56593 0.06775
 H680 H 0.76255 0.59781 0.13560
 C681 C 0.75573 0.42205 0.90183
 C682 C 0.78815 0.43424 0.90739
 H683 H 0.74194 0.43125 0.87870
 H684 H 0.80155 0.42760 0.93144
 C685 C 0.23431 0.58643 0.88308
 C686 C 0.20380 0.57200 0.89293
 H687 H 0.24562 0.57730 0.85846
 H688 H 0.19281 0.57907 0.91819
 C689 C 0.10501 0.25530 0.42746
 C690 C 0.11166 0.21840 0.42984
 H691 H 0.11573 0.27456 0.44674
 H692 H 0.09837 0.19853 0.41292
 C693 C 0.09932 0.74574 0.57528
 C694 C 0.10521 0.78265 0.57243
 H695 H 0.11155 0.72610 0.55714
 H696 H 0.09053 0.80265 0.58822
 C697 C 0.91129 0.78995 0.40712
 C698 C 0.88902 0.77139 0.42735
 H699 H 0.91224 0.82046 0.40831
 H700 H 0.88560 0.74132 0.42357
 C701 C 0.88751 0.23497 0.58651
 C702 C 0.89500 0.20297 0.56927
 H703 H 0.86468 0.25110 0.57914
 H704 H 0.91878 0.18769 0.57483
 C705 C 0.42566 0.10122 0.25174
 C706 C 0.42773 0.10307 0.21689
 H707 H 0.44466 0.11599 0.26758
 H708 H 0.41105 0.08571 0.20068
 C709 C 0.59036 0.09921 0.77437
 C710 C 0.57456 0.13276 0.77068
 H711 H 0.58495 0.08279 0.79744
 H712 H 0.58075 0.15064 0.74887
 C713 C 0.41394 0.90013 0.76739
 C714 C 0.42907 0.86684 0.76003
 H715 H 0.42054 0.91454 0.79157
 H716 H 0.42147 0.85089 0.73709
 C717 C 0.58177 0.90193 0.22030
 C718 C 0.55892 0.87734 0.23289
 H719 H 0.58454 0.90529 0.19234
 H720 H 0.55865 0.87161 0.26065
 C721 C 0.42116 0.24485 0.90028
 C722 C 0.43211 0.20697 0.90002
 H723 H 0.43449 0.26366 0.88263
 H724 H 0.42249 0.18732 0.91904
 C725 C 0.58000 0.78157 0.90920
 C726 C 0.57778 0.77766 0.87457
 H727 H 0.56006 0.79701 0.92345
 H728 H 0.59561 0.75879 0.86102
 C729 C 0.41230 0.76613 0.09230
 C730 C 0.42773 0.75565 0.12217
 H731 H 0.41627 0.79478 0.08358
 H732 H 0.42262 0.72855 0.13358
 C733 C 0.58622 0.22107 0.09836
 C734 C 0.57174 0.22803 0.12959
 H735 H 0.58001 0.19518 0.08454
 H736 H 0.57920 0.25272 0.14454
 C737 C 0.22781 0.10792 0.59381
 C738 C 0.23401 0.14055 0.57767
 H739 H 0.20352 0.09352 0.58882
 H740 H 0.25715 0.15653 0.58366
 C741 C 0.76529 0.08437 0.42233
 C742 C 0.77560 0.12037 0.42085
 H743 H 0.77241 0.06837 0.44529
 H744 H 0.76546 0.13941 0.40140
 C745 C 0.76989 0.90259 0.57912
 C746 C 0.76249 0.87088 0.56147
 H747 H 0.79571 0.91442 0.57705
 H748 H 0.73746 0.85760 0.56463
 C749 C 0.24102 0.90253 0.43477
 C750 C 0.23775 0.86516 0.43746
 H751 H 0.22682 0.92098 0.45254
 H752 H 0.25418 0.84635 0.42217
 C753 C 0.08624 0.39474 0.78850
 C754 C 0.11568 0.41243 0.78012
 H755 H 0.07448 0.39996 0.81382
 H756 H 0.12861 0.40610 0.75565
 C757 C 0.10701 0.61193 0.21297
 C758 C 0.09656 0.58047 0.19656
 H759 H 0.13399 0.62015 0.21021
 H760 H 0.06925 0.57382 0.19406
 C761 C 0.90493 0.43053 0.24357
 C762 C 0.90009 0.43058 0.20890
 H763 H 0.89363 0.45362 0.25863
 H764 H 0.91431 0.41147 0.19189
 C765 C 0.90193 0.59432 0.78089
 C766 C 0.88269 0.56422 0.77243
 H767 H 0.90121 0.60440 0.80773
 H768 H 0.87877 0.55609 0.74543
 C769 C 0.78174 0.60364 0.90372
 C770 C 0.77477 0.58361 0.87473
 H771 H 0.80665 0.59978 0.91647
 H772 H 0.75073 0.58796 0.86068
 C773 C 0.22405 0.41678 0.91576
 C774 C 0.22188 0.41980 0.88105
 H775 H 0.20868 0.43541 0.93233
 H776 H 0.23969 0.40404 0.86445
 C777 C 0.23111 0.57493 0.07994
 C778 C 0.21860 0.58047 0.11231
 H779 H 0.22541 0.54825 0.06713
 H780 H 0.22704 0.60400 0.12825
 C781 C 0.75938 0.42800 0.10485
 C782 C 0.79398 0.42708 0.10922
 H783 H 0.74532 0.45204 0.11568
 H784 H 0.81012 0.40686 0.09533
 C785 C 0.89903 0.77219 0.58820
 C786 C 0.87110 0.76129 0.56960
 H787 H 0.90854 0.80054 0.58429
 H788 H 0.85939 0.73408 0.57325
 C789 C 0.90847 0.22241 0.40873
 C790 C 0.88046 0.23128 0.42817
 H791 H 0.91817 0.19367 0.40975
 H792 H 0.86861 0.25887 0.42706
 C793 C 0.09268 0.21556 0.59576
 C794 C 0.11058 0.23230 0.57023
 H795 H 0.09778 0.18595 0.60057
 H796 H 0.11000 0.26262 0.56754
 C797 C 0.09905 0.78442 0.40788
 C798 C 0.12308 0.76869 0.42873
 H799 H 0.09357 0.81425 0.41137
 H800 H 0.13119 0.73975 0.42521
 C801 C 0.57213 0.90280 0.74782
 C802 C 0.57370 0.86660 0.75745
 H803 H 0.54914 0.91891 0.75519
 H804 H 0.59336 0.84761 0.74715
 C805 C 0.41442 0.88040 0.25299
 C806 C 0.41997 0.88141 0.21840
 H807 H 0.42925 0.86001 0.26792
 H808 H 0.40789 0.90245 0.20217
 C809 C 0.58240 0.10761 0.24861
 C810 C 0.57115 0.10125 0.21600
 H811 H 0.57110 0.13061 0.26372
 H812 H 0.58063 0.07718 0.20119
 C813 C 0.42858 0.09271 0.76590
 C814 C 0.43060 0.12954 0.77328
 H815 H 0.44812 0.07358 0.77606
 H816 H 0.41317 0.14928 0.76067
 C817 C 0.58700 0.77433 0.10324
 C818 C 0.57046 0.76198 0.13171
 H819 H 0.58049 0.80196 0.09321
 H820 H 0.57762 0.73545 0.14347
 C821 C 0.41045 0.21507 0.09797
 C822 C 0.43006 0.22790 0.12431
 H823 H 0.41091 0.18535 0.09116
 H824 H 0.42748 0.25694 0.13302
 C825 C 0.57429 0.24877 0.90640
 C826 C 0.57353 0.21185 0.89912
 H827 H 0.55426 0.26709 0.89592
 H828 H 0.59133 0.19272 0.91200
 C829 C 0.43038 0.74444 0.88832
 C830 C 0.43274 0.78134 0.88217
 H831 H 0.44940 0.72517 0.87710
 H832 H 0.41590 0.80105 0.89596
 C833 C 0.75859 0.87243 0.40273
 C834 C 0.78683 0.88345 0.42046
 H835 H 0.74695 0.84554 0.40881
 H836 H 0.79786 0.91097 0.41607
 C837 C 0.23042 0.90912 0.57967
 C838 C 0.22547 0.87185 0.57936
 H839 H 0.21946 0.92607 0.55894
 H840 H 0.23915 0.85425 0.59788
 C841 C 0.22924 0.09919 0.41911
 C842 C 0.23477 0.13320 0.43350
 H843 H 0.20566 0.08421 0.42553
 H844 H 0.25708 0.14957 0.42584
 C845 C 0.75330 0.10440 0.56979
 C846 C 0.78734 0.10036 0.56358
 H847 H 0.73796 0.12347 0.55398
 H848 H 0.80225 0.07896 0.57707
 C849 C 0.91249 0.60699 0.20940
 C850 C 0.88427 0.58769 0.21905
 H851 H 0.92370 0.60179 0.18383
 H852 H 0.87164 0.59397 0.24365
 C853 C 0.89666 0.41477 0.76940
 C854 C 0.89410 0.41894 0.80402
 H855 H 0.88295 0.43423 0.75252
 H856 H 0.91038 0.40244 0.82127
 C857 C 0.10062 0.57674 0.75897
 C858 C 0.09552 0.56569 0.79190
 H859 H 0.12240 0.56506 0.74440
 H860 H 0.07265 0.57493 0.80615
 C861 C 0.10544 0.42383 0.24082
 C862 C 0.10244 0.43033 0.20654
 H863 H 0.12509 0.43891 0.25556
 H864 H 0.08199 0.41725 0.19141
   
