data_POSCAR
  _audit_creation_date              2014-09-24
  _audit_creation_method            'ToBaCCo'
  _symmetry_space_group_name_H-M    'P1'
  _symmetry_Int_Tables_number       1
  _symmetry_cell_setting            triclinic
  loop_
  _symmetry_equiv_pos_as_xyz
 x,y,z
_cell_length_a 63.2609
_cell_length_b 63.6078
_cell_length_c 63.7176
_cell_angle_alpha 89.992800
_cell_angle_beta 90.007100
_cell_angle_gamma 90.007800
loop_
  _atom_site_label
  _atom_site_type_symbol
  _atom_site_fract_x
  _atom_site_fract_y
  _atom_site_fract_z
N1 N 0.28346 0.24090 0.22514
 N2 N 0.27454 0.25755 0.21666
 C3 C 0.28576 0.26337 0.19963
 C4 C 0.30245 0.24962 0.19746
 C5 C 0.30061 0.23556 0.21381
 H6 H 0.28212 0.27657 0.18956
 H7 H 0.31097 0.22246 0.21720
 Cu8 Cu 0.24918 0.26996 0.22872
 Cu9 Cu 0.27219 0.22741 0.25019
 Cu10 Cu 0.22747 0.24968 0.27245
 N11 N 0.22435 0.28255 0.24165
 N12 N 0.21594 0.27454 0.25876
 C13 C 0.19906 0.28615 0.26438
 C14 C 0.19689 0.30221 0.25003
 C15 C 0.21310 0.29958 0.23582
 H16 H 0.18912 0.28315 0.27786
 H17 H 0.21639 0.30933 0.22230
 N18 N 0.24143 0.22451 0.28402
 N19 N 0.25847 0.21603 0.27554
 C20 C 0.26418 0.19910 0.28694
 C21 C 0.25006 0.19696 0.30325
 C22 C 0.23585 0.21321 0.30103
 H23 H 0.27756 0.18905 0.28366
 H24 H 0.22247 0.21648 0.31107
 H25 H 0.24116 0.23668 0.24602
 H26 H 0.25823 0.25413 0.26240
 N27 N 0.71627 -0.24107 0.22466
 N28 N 0.72519 -0.25771 0.21618
 C29 C 0.71401 -0.26352 0.19912
 C30 C 0.69734 -0.24974 0.19696
 C31 C 0.69913 -0.23569 0.21332
 H32 H 0.71766 -0.27672 0.18906
 H33 H 0.68879 -0.22258 0.21670
 Cu34 Cu 0.75053 -0.27015 0.22828
 Cu35 Cu 0.72751 -0.22761 0.24975
 Cu36 Cu 0.77220 -0.24992 0.27206
 N37 N 0.77536 -0.28275 0.24121
 N38 N 0.78376 -0.27475 0.25834
 C39 C 0.80065 -0.28635 0.26398
 C40 C 0.80282 -0.30237 0.24959
 C41 C 0.78663 -0.29976 0.23536
 H42 H 0.81057 -0.28335 0.27747
 H43 H 0.78335 -0.30948 0.22182
 N44 N 0.75822 -0.22478 0.28364
 N45 N 0.74119 -0.21627 0.27513
 C46 C 0.73547 -0.19937 0.28655
 C47 C 0.74956 -0.19725 0.30289
 C48 C 0.76376 -0.21350 0.30068
 H49 H 0.72209 -0.18931 0.28326
 H50 H 0.77713 -0.21679 0.31074
 H51 H 0.75854 -0.23688 0.24562
 H52 H 0.74145 -0.25435 0.26196
 N53 N 0.71653 0.24166 0.77435
 N54 N 0.72495 0.25879 0.78236
 C55 C 0.71371 0.26460 0.79937
 C56 C 0.69751 0.25035 0.80200
 C57 C 0.69967 0.23600 0.78595
 H58 H 0.71700 0.27813 0.80912
 H59 H 0.68973 0.22249 0.78295
 Cu60 Cu 0.74976 0.27177 0.76977
 Cu61 Cu 0.72804 0.22798 0.74951
 Cu62 Cu 0.77270 0.25036 0.72722
 N63 N 0.77508 0.28392 0.75734
 N64 N 0.78397 0.27546 0.74069
 C65 C 0.80110 0.28683 0.73532
 C66 C 0.80292 0.30317 0.74939
 C67 C 0.78628 0.30098 0.76317
 H68 H 0.81142 0.28347 0.72221
 H69 H 0.78265 0.31103 0.77637
 N70 N 0.75898 0.22497 0.71585
 N71 N 0.74196 0.21644 0.72435
 C72 C 0.73638 0.19940 0.71306
 C73 C 0.75057 0.19722 0.69681
 C74 C 0.76467 0.21357 0.69894
 H75 H 0.72302 0.18933 0.71634
 H76 H 0.77803 0.21688 0.68889
 H77 H 0.75879 0.23807 0.75390
 H78 H 0.74169 0.25449 0.73653
 N79 N 0.28344 -0.24158 0.77527
 N80 N 0.27451 -0.25823 0.78375
 C81 C 0.28574 -0.26407 0.80077
 C82 C 0.30244 -0.25033 0.80293
 C83 C 0.30061 -0.23626 0.78659
 H84 H 0.28209 -0.27727 0.81084
 H85 H 0.31097 -0.22316 0.78321
 Cu86 Cu 0.24911 -0.27060 0.77171
 Cu87 Cu 0.27216 -0.22806 0.75024
 Cu88 Cu 0.22736 -0.25026 0.72803
 N89 N 0.22423 -0.28314 0.75882
 N90 N 0.21579 -0.27509 0.74173
 C91 C 0.19887 -0.28665 0.73613
 C92 C 0.19671 -0.30270 0.75049
 C93 C 0.21295 -0.30014 0.76468
 H94 H 0.18891 -0.28362 0.72266
 H95 H 0.21625 -0.30990 0.77819
 N96 N 0.24135 -0.22511 0.71645
 N97 N 0.25842 -0.21665 0.72492
 C98 C 0.26414 -0.19973 0.71352
 C99 C 0.25001 -0.19756 0.69722
 C100 C 0.23577 -0.21379 0.69945
 H101 H 0.27755 -0.18970 0.71678
 H102 H 0.22238 -0.21704 0.68942
 H103 H 0.24112 -0.23729 0.75445
 H104 H 0.25812 -0.25475 0.73803
 N105 N 0.71674 -0.24147 0.77487
 N106 N 0.72544 -0.25835 0.78310
 C107 C 0.71424 -0.26419 0.80013
 C108 C 0.69780 -0.25020 0.80254
 C109 C 0.69975 -0.23598 0.78635
 H110 H 0.71773 -0.27756 0.81003
 H111 H 0.68958 -0.22269 0.78318
 Cu112 Cu 0.75050 -0.27098 0.77073
 Cu113 Cu 0.72807 -0.22785 0.74992
 Cu114 Cu 0.77277 -0.25014 0.72760
 N115 N 0.77557 -0.28333 0.75808
 N116 N 0.78420 -0.27508 0.74119
 C117 C 0.80122 -0.28653 0.73569
 C118 C 0.80322 -0.30272 0.74991
 C119 C 0.78681 -0.30036 0.76392
 H120 H 0.81135 -0.28333 0.72238
 H121 H 0.78337 -0.31026 0.77729
 N122 N 0.75889 -0.22489 0.71616
 N123 N 0.74186 -0.21640 0.72466
 C124 C 0.73618 -0.19943 0.71332
 C125 C 0.75031 -0.19727 0.69704
 C126 C 0.76449 -0.21355 0.69918
 H127 H 0.72280 -0.18938 0.71661
 H128 H 0.77784 -0.21682 0.68912
 H129 H 0.74189 -0.25443 0.73728
 H130 H 0.75898 -0.23748 0.75414
 N131 N 0.28391 0.24137 0.77442
 N132 N 0.27555 0.25855 0.78238
 C133 C 0.28680 0.26438 0.79936
 C134 C 0.30295 0.25009 0.80203
 C135 C 0.30075 0.23570 0.78603
 H136 H 0.28355 0.27794 0.80908
 H137 H 0.31064 0.22215 0.78309
 Cu138 Cu 0.25078 0.27157 0.76980
 Cu139 Cu 0.27236 0.22764 0.74965
 Cu140 Cu 0.22767 0.24996 0.72741
 N141 N 0.22541 0.28359 0.75742
 N142 N 0.21645 0.27506 0.74085
 C143 C 0.19928 0.28638 0.73554
 C144 C 0.19749 0.30277 0.74955
 C145 C 0.21421 0.30064 0.76324
 H146 H 0.18889 0.28296 0.72250
 H147 H 0.21787 0.31074 0.77640
 N148 N 0.24135 0.22457 0.71609
 N149 N 0.25839 0.21607 0.72457
 C150 C 0.26394 0.19901 0.71330
 C151 C 0.24973 0.19682 0.69709
 C152 C 0.23563 0.21316 0.69920
 H153 H 0.27732 0.18895 0.71657
 H154 H 0.22225 0.21645 0.68916
 H155 H 0.25872 0.25413 0.73662
 H156 H 0.24164 0.23781 0.75413
 N157 N 0.28381 -0.24070 0.22499
 N158 N 0.27479 -0.25725 0.21642
 C159 C 0.28599 -0.26308 0.19940
 C160 C 0.30277 -0.24943 0.19733
 C161 C 0.30102 -0.23542 0.21372
 H162 H 0.28229 -0.27622 0.18928
 H163 H 0.31146 -0.22241 0.21718
 Cu164 Cu 0.24935 -0.26957 0.22836
 Cu165 Cu 0.27262 -0.22726 0.25006
 Cu166 Cu 0.22780 -0.24940 0.27223
 N167 N 0.22451 -0.28210 0.24129
 N168 N 0.21616 -0.27413 0.25845
 C169 C 0.19926 -0.28570 0.26405
 C170 C 0.19702 -0.30169 0.24964
 C171 C 0.21320 -0.29905 0.23541
 H172 H 0.18936 -0.28274 0.27757
 H173 H 0.21644 -0.30877 0.22186
 N174 N 0.24186 -0.22436 0.28387
 N175 N 0.25895 -0.21592 0.27542
 C176 C 0.26472 -0.19906 0.28686
 C177 C 0.25061 -0.19692 0.30316
 C178 C 0.23633 -0.21309 0.30091
 H179 H 0.27814 -0.18904 0.28362
 H180 H 0.22292 -0.21634 0.31093
 H181 H 0.25851 -0.25399 0.26211
 H182 H 0.24153 -0.23634 0.24584
 N183 N 0.71616 0.24077 0.22534
 N184 N 0.72482 0.25769 0.21712
 C185 C 0.71362 0.26350 0.20008
 C186 C 0.69722 0.24946 0.19765
 C187 C 0.69919 0.23525 0.21384
 H188 H 0.71709 0.27688 0.19019
 H189 H 0.68906 0.22192 0.21700
 Cu190 Cu 0.74984 0.27038 0.22952
 Cu191 Cu 0.72750 0.22719 0.25030
 Cu192 Cu 0.77214 0.24959 0.27267
 N193 N 0.77486 0.28280 0.24220
 N194 N 0.78350 0.27457 0.25909
 C195 C 0.80048 0.28608 0.26461
 C196 C 0.80247 0.30229 0.25041
 C197 C 0.78607 0.29985 0.23639
 H198 H 0.81060 0.28292 0.27792
 H199 H 0.78262 0.30976 0.22303
 N200 N 0.75831 0.22430 0.28408
 N201 N 0.74131 0.21576 0.27556
 C202 C 0.73567 0.19878 0.28689
 C203 C 0.74979 0.19665 0.30319
 C204 C 0.76393 0.21296 0.30106
 H205 H 0.72232 0.18869 0.28359
 H206 H 0.77728 0.21627 0.31113
 H207 H 0.74126 0.25380 0.26295
 H208 H 0.75840 0.23690 0.24610
 O209 O 0.26764 0.02032 0.47992
 O210 O 0.26764 -0.02070 0.52077
 O211 O 0.26774 -0.02063 0.47989
 O212 O 0.26754 0.02025 0.52080
 O213 O 0.23258 0.02016 0.52071
 O214 O 0.23278 -0.02071 0.47981
 O215 O 0.23268 -0.02078 0.52068
 O216 O 0.23268 0.02023 0.47984
 Cu217 Cu 0.27117 -0.00018 0.50036
 Cu218 Cu 0.22915 -0.00028 0.50025
 C219 C 0.25016 0.02720 0.47298
 C220 C 0.25016 -0.02766 0.52762
 C221 C 0.25029 -0.02757 0.47295
 C222 C 0.25002 0.02710 0.52766
 O223 O 0.73252 0.02022 0.52061
 O224 O 0.73233 -0.02076 0.47974
 O225 O 0.73245 -0.02073 0.52062
 O226 O 0.73239 0.02019 0.47974
 O227 O 0.76735 0.02014 0.47964
 O228 O 0.76741 -0.02078 0.52051
 O229 O 0.76729 -0.02081 0.47964
 O230 O 0.76748 0.02017 0.52051
 Cu231 Cu 0.72889 -0.00027 0.50019
 Cu232 Cu 0.77091 -0.00032 0.50007
 C233 C 0.75003 0.02711 0.52746
 C234 C 0.74978 -0.02770 0.47279
 C235 C 0.74994 -0.02766 0.52746
 C236 C 0.74986 0.02707 0.47279
 O237 O 0.47951 0.26822 0.02030
 O238 O 0.52069 0.26822 -0.02060
 O239 O 0.47952 0.26824 -0.02059
 O240 O 0.52068 0.26819 0.02028
 O241 O 0.52065 0.23342 0.02026
 O242 O 0.47950 0.23347 -0.02060
 O243 O 0.52067 0.23345 -0.02061
 O244 O 0.47948 0.23345 0.02028
 Cu245 Cu 0.50010 0.27172 -0.00015
 Cu246 Cu 0.50007 0.22994 -0.00017
 C247 C 0.47255 0.25083 0.02719
 C248 C 0.52763 0.25083 -0.02751
 C249 C 0.47257 0.25086 -0.02750
 C250 C 0.52760 0.25079 0.02717
 O251 O 0.52114 0.73147 0.02066
 O252 O 0.47994 0.73133 -0.02022
 O253 O 0.52111 0.73137 -0.02022
 O254 O 0.47997 0.73143 0.02066
 O255 O 0.47994 0.76620 0.02057
 O256 O 0.52107 0.76614 -0.02031
 O257 O 0.47990 0.76610 -0.02031
 O258 O 0.52110 0.76624 0.02057
 Cu259 Cu 0.50054 0.72789 0.00023
 Cu260 Cu 0.50050 0.76968 0.00012
 C261 C 0.52807 0.74888 0.02752
 C262 C 0.47297 0.74869 -0.02717
 C263 C 0.52803 0.74875 -0.02716
 C264 C 0.47302 0.74882 0.02751
 O265 O 0.02016 0.48003 0.26638
 O266 O -0.02101 0.52101 0.26630
 O267 O -0.02101 0.48006 0.26642
 O268 O 0.02016 0.52098 0.26628
 O269 O 0.02013 0.52090 0.23157
 O270 O -0.02103 0.47997 0.23171
 O271 O -0.02104 0.52092 0.23160
 O272 O 0.02013 0.47995 0.23168
 Cu273 Cu -0.00042 0.50053 0.26985
 Cu274 Cu -0.00046 0.50043 0.22813
 C275 C 0.02709 0.47307 0.24904
 C276 C -0.02797 0.52788 0.24894
 C277 C -0.02796 0.47310 0.24909
 C278 C 0.02709 0.52785 0.24891
 O279 O 0.02039 0.52081 0.73379
 O280 O -0.02080 0.47984 0.73362
 O281 O -0.02078 0.52079 0.73371
 O282 O 0.02037 0.47986 0.73370
 O283 O 0.02031 0.47978 0.76841
 O284 O -0.02084 0.52072 0.76842
 O285 O -0.02086 0.47976 0.76833
 O286 O 0.02033 0.52073 0.76850
 Cu287 Cu -0.00020 0.50033 0.73020
 Cu288 Cu -0.00028 0.50024 0.77192
 C289 C 0.02731 0.52768 0.75117
 C290 C -0.02778 0.47288 0.75094
 C291 C -0.02775 0.52767 0.75106
 C292 C 0.02728 0.47291 0.75105
 C293 C 0.31843 0.24986 0.18145
 C294 C 0.33185 0.25004 0.16801
 C295 C 0.34787 0.25023 0.15197
 C296 C 0.36831 0.24315 0.15650
 C297 C 0.38388 0.24329 0.14092
 C298 C 0.37920 0.25051 0.12056
 C299 C 0.35859 0.25760 0.11617
 C300 C 0.34305 0.25746 0.13178
 C301 C 0.39572 0.25063 0.10399
 C302 C 0.39078 0.24469 0.08328
 C303 C 0.40636 0.24476 0.06771
 C304 C 0.42706 0.25078 0.07259
 C305 C 0.43214 0.25674 0.09313
 C306 C 0.41659 0.25667 0.10873
 C307 C 0.44309 0.25082 0.05656
 C308 C 0.45654 0.25083 0.04314
 H309 H 0.37221 0.23746 0.17205
 H310 H 0.39951 0.23748 0.14472
 H311 H 0.35456 0.26351 0.10075
 H312 H 0.32729 0.26303 0.12811
 H313 H 0.37494 0.23971 0.07919
 H314 H 0.40226 0.24006 0.05188
 H315 H 0.44810 0.26148 0.09707
 H316 H 0.42084 0.26159 0.12444
 C317 C 0.68223 0.75006 0.18178
 C318 C 0.66883 0.74991 0.16832
 C319 C 0.65282 0.74976 0.15226
 C320 C 0.64546 0.73067 0.14414
 C321 C 0.62991 0.73052 0.12854
 C322 C 0.62148 0.74950 0.12086
 C323 C 0.62899 0.76861 0.12913
 C324 C 0.64456 0.76872 0.14471
 C325 C 0.60493 0.74937 0.10430
 C326 C 0.58782 0.76347 0.10523
 C327 C 0.57225 0.76334 0.08965
 C328 C 0.57357 0.74913 0.07293
 C329 C 0.59052 0.73504 0.07185
 C330 C 0.60610 0.73514 0.08743
 C331 C 0.55753 0.74902 0.05689
 C332 C 0.54409 0.74895 0.04347
 H333 H 0.65171 0.71590 0.14991
 H334 H 0.62427 0.71555 0.12270
 H335 H 0.62304 0.78348 0.12335
 H336 H 0.65018 0.78360 0.15084
 H337 H 0.58631 0.77442 0.11815
 H338 H 0.55916 0.77427 0.09067
 H339 H 0.59173 0.72401 0.05895
 H340 H 0.61921 0.72427 0.08612
 C341 C 0.68162 0.25045 -0.18189
 C342 C 0.66827 0.25050 -0.16839
 C343 C 0.65229 0.25054 -0.15230
 C344 C 0.63680 0.23484 -0.15196
 C345 C 0.62125 0.23487 -0.13637
 C346 C 0.62099 0.25064 -0.12087
 C347 C 0.63665 0.26635 -0.12135
 C348 C 0.65218 0.26630 -0.13697
 C349 C 0.60445 0.25070 -0.10431
 C350 C 0.60961 0.25577 -0.08342
 C351 C 0.59404 0.25580 -0.06785
 C352 C 0.57311 0.25079 -0.07292
 C353 C 0.56781 0.24574 -0.09364
 C354 C 0.58335 0.24568 -0.10924
 C355 C 0.55708 0.25082 -0.05688
 C356 C 0.54364 0.25083 -0.04346
 H357 H 0.63677 0.22253 -0.16372
 H358 H 0.60959 0.22240 -0.13627
 H359 H 0.63672 0.27886 -0.10982
 H360 H 0.66405 0.27857 -0.13712
 H361 H 0.62574 0.25943 -0.07907
 H362 H 0.59833 0.25967 -0.05185
 H363 H 0.55164 0.24189 -0.09775
 H364 H 0.57882 0.24199 -0.12520
 C365 C 0.31844 0.74942 -0.18106
 C366 C 0.33186 0.74925 -0.16762
 C367 C 0.34790 0.74909 -0.15158
 C368 C 0.34780 0.76440 -0.13581
 C369 C 0.36337 0.76428 -0.12024
 C370 C 0.37930 0.74883 -0.12025
 C371 C 0.37925 0.73350 -0.13618
 C372 C 0.36365 0.73364 -0.15172
 C373 C 0.39589 0.74873 -0.10374
 C374 C 0.41706 0.74424 -0.10886
 C375 C 0.43267 0.74420 -0.09331
 C376 C 0.42735 0.74862 -0.07246
 C377 C 0.40635 0.75308 -0.06719
 C378 C 0.39072 0.75314 -0.08271
 C379 C 0.44344 0.74862 -0.05647
 C380 C 0.45692 0.74864 -0.04309
 H381 H 0.33571 0.77647 -0.13559
 H382 H 0.36313 0.77646 -0.10837
 H383 H 0.39112 0.72125 -0.13646
 H384 H 0.36384 0.72168 -0.16382
 H385 H 0.42160 0.74105 -0.12493
 H386 H 0.44889 0.74079 -0.09758
 H387 H 0.40205 0.75647 -0.05108
 H388 H 0.37453 0.75638 -0.07822
 C389 C 0.18099 0.31833 0.24989
 C390 C 0.16763 0.33185 0.24979
 C391 C 0.15165 0.34796 0.24969
 C392 C 0.15520 0.36689 0.23906
 C393 C 0.13968 0.38255 0.23895
 C394 C 0.12036 0.37946 0.24947
 C395 C 0.11695 0.36036 0.26011
 C396 C 0.13250 0.34474 0.26021
 C397 C 0.10385 0.39608 0.24935
 C398 C 0.08237 0.39076 0.24712
 C399 C 0.06684 0.40640 0.24703
 C400 C 0.07254 0.42755 0.24918
 C401 C 0.09385 0.43301 0.25140
 C402 C 0.10942 0.41740 0.25148
 C403 C 0.05652 0.44363 0.24912
 C404 C 0.04309 0.45708 0.24908
 H405 H 0.16994 0.36953 0.23081
 H406 H 0.14268 0.39696 0.23040
 H407 H 0.10238 0.35762 0.26858
 H408 H 0.12961 0.33017 0.26854
 H409 H 0.07759 0.37453 0.24518
 H410 H 0.05039 0.40200 0.24524
 H411 H 0.09844 0.44933 0.25313
 H412 H 0.12577 0.42198 0.25350
 C413 C 0.18161 0.68208 0.75064
 C414 C 0.16820 0.66860 0.75076
 C415 C 0.15217 0.65253 0.75089
 C416 C 0.13170 0.65714 0.74395
 C417 C 0.11611 0.64155 0.74406
 C418 C 0.12081 0.62110 0.75110
 C419 C 0.14145 0.61663 0.75804
 C420 C 0.15701 0.63225 0.75793
 C421 C 0.10425 0.60452 0.75119
 C422 C 0.10913 0.58381 0.74509
 C423 C 0.09353 0.56823 0.74512
 C424 C 0.07287 0.57311 0.75127
 C425 C 0.06786 0.59365 0.75738
 C426 C 0.08343 0.60926 0.75734
 C427 C 0.05680 0.55707 0.75125
 C428 C 0.04334 0.54365 0.75123
 H429 H 0.12780 0.67277 0.73841
 H430 H 0.10046 0.64542 0.73836
 H431 H 0.14549 0.60113 0.76380
 H432 H 0.17279 0.62852 0.76339
 H433 H 0.12494 0.57973 0.74000
 H434 H 0.09757 0.55240 0.74030
 H435 H 0.05192 0.59759 0.76222
 H436 H 0.07923 0.62497 0.76238
 C437 C -0.18211 0.68239 0.24945
 C438 C -0.16872 0.66890 0.24934
 C439 C -0.15271 0.65282 0.24924
 C440 C -0.15757 0.63254 0.24222
 C441 C -0.14202 0.61690 0.24213
 C442 C -0.12137 0.62137 0.24905
 C443 C -0.11665 0.64182 0.25606
 C444 C -0.13222 0.65742 0.25615
 C445 C -0.10484 0.60477 0.24897
 C446 C -0.08401 0.60949 0.24279
 C447 C -0.06846 0.59387 0.24275
 C448 C -0.07348 0.57334 0.24889
 C449 C -0.09415 0.56848 0.25506
 C450 C -0.10973 0.58407 0.25510
 C451 C -0.05744 0.55729 0.24889
 C452 C -0.04399 0.54385 0.24891
 H453 H -0.17336 0.62882 0.23678
 H454 H -0.14609 0.60140 0.23639
 H455 H -0.10100 0.64568 0.26175
 H456 H -0.12830 0.67305 0.26167
 H457 H -0.07981 0.62519 0.23773
 H458 H -0.05253 0.59779 0.23789
 H459 H -0.09820 0.55266 0.25990
 H460 H -0.12554 0.58000 0.26020
 C461 C -0.18196 0.31838 0.74960
 C462 C -0.16856 0.33186 0.74977
 C463 C -0.15255 0.34795 0.74993
 C464 C -0.14535 0.35658 0.73103
 C465 C -0.12978 0.37219 0.73116
 C466 C -0.12120 0.37939 0.75023
 C467 C -0.12856 0.37062 0.76915
 C468 C -0.14412 0.35500 0.76898
 C469 C -0.10464 0.39597 0.75039
 C470 C -0.10498 0.41204 0.76557
 C471 C -0.08940 0.42764 0.76568
 C472 C -0.07327 0.42739 0.75066
 C473 C -0.07278 0.41148 0.73550
 C474 C -0.08835 0.39587 0.73535
 C475 C -0.05723 0.44346 0.75079
 C476 C -0.04379 0.45690 0.75087
 H477 H -0.15181 0.35128 0.71620
 H478 H -0.12466 0.37882 0.71636
 H479 H -0.12208 0.37562 0.78407
 H480 H -0.14953 0.34838 0.78370
 H481 H -0.11746 0.41271 0.77718
 H482 H -0.08998 0.43992 0.77745
 H483 H -0.06033 0.41110 0.72383
 H484 H -0.08748 0.38357 0.72363
 C485 C 0.25010 0.18102 0.31923
 C486 C 0.25012 0.16764 0.33264
 C487 C 0.25014 0.15166 0.34864
 C488 C 0.23105 0.14467 0.35727
 C489 C 0.23104 0.12915 0.37281
 C490 C 0.25017 0.12039 0.37994
 C491 C 0.26929 0.12753 0.37116
 C492 C 0.26925 0.14306 0.35562
 C493 C 0.25018 0.10389 0.39645
 C494 C 0.26400 0.08660 0.39509
 C495 C 0.26398 0.07106 0.41062
 C496 C 0.25018 0.07259 0.42772
 C497 C 0.23639 0.08972 0.42923
 C498 C 0.23637 0.10527 0.41371
 C499 C 0.25017 0.05658 0.44370
 C500 C 0.25016 0.04317 0.45708
 H501 H 0.21616 0.15118 0.35193
 H502 H 0.21606 0.12381 0.37905
 H503 H 0.28428 0.12130 0.37650
 H504 H 0.28413 0.14840 0.34910
 H505 H 0.27462 0.08494 0.38187
 H506 H 0.27468 0.05784 0.40926
 H507 H 0.22568 0.09109 0.44243
 H508 H 0.22574 0.11851 0.41536
 C509 C 0.75058 0.18123 0.68089
 C510 C 0.75057 0.16781 0.66752
 C511 C 0.75053 0.15178 0.65157
 C512 C 0.73137 0.14367 0.64414
 C513 C 0.73130 0.12811 0.62864
 C514 C 0.75043 0.12043 0.62035
 C515 C 0.76960 0.12869 0.62794
 C516 C 0.76963 0.14426 0.64343
 C517 C 0.75037 0.10389 0.60388
 C518 C 0.76522 0.08743 0.60440
 C519 C 0.76514 0.07186 0.58891
 C520 C 0.75024 0.07254 0.57268
 C521 C 0.73541 0.08885 0.57201
 C522 C 0.73546 0.10442 0.58750
 C523 C 0.75016 0.05650 0.55673
 C524 C 0.75010 0.04307 0.54337
 H525 H 0.71649 0.14933 0.65037
 H526 H 0.71629 0.12188 0.62333
 H527 H 0.78458 0.12332 0.62170
 H528 H 0.78455 0.15047 0.64903
 H529 H 0.77673 0.08642 0.61695
 H530 H 0.77665 0.05927 0.58961
 H531 H 0.72384 0.08956 0.55949
 H532 H 0.72400 0.11703 0.58650
 C533 C 0.25006 -0.18161 0.68125
 C534 C 0.25010 -0.16822 0.66786
 C535 C 0.25014 -0.15222 0.65187
 C536 C 0.24268 -0.15680 0.63170
 C537 C 0.24271 -0.14127 0.61616
 C538 C 0.25018 -0.12091 0.62061
 C539 C 0.25764 -0.11647 0.64094
 C540 C 0.25762 -0.13203 0.65645
 C541 C 0.25019 -0.10439 0.60412
 C542 C 0.24445 -0.08358 0.60901
 C543 C 0.24445 -0.06804 0.59348
 C544 C 0.25018 -0.07307 0.57287
 C545 C 0.25591 -0.09371 0.56784
 C546 C 0.25592 -0.10927 0.58334
 C547 C 0.25016 -0.05705 0.55690
 C548 C 0.25016 -0.04364 0.54352
 H549 H 0.23680 -0.17237 0.62800
 H550 H 0.23661 -0.14511 0.60076
 H551 H 0.26376 -0.10104 0.64478
 H552 H 0.26349 -0.12833 0.67199
 H553 H 0.23970 -0.07937 0.62479
 H554 H 0.23992 -0.05212 0.59754
 H555 H 0.26044 -0.09776 0.55195
 H556 H 0.26067 -0.12507 0.57913
 C557 C 0.74950 -0.18134 0.31889
 C558 C 0.74946 -0.16797 0.33231
 C559 C 0.74943 -0.15201 0.34833
 C560 C 0.74234 -0.13170 0.34369
 C561 C 0.74234 -0.11617 0.35922
 C562 C 0.74945 -0.12077 0.37965
 C563 C 0.75654 -0.14126 0.38415
 C564 C 0.75653 -0.15675 0.36859
 C565 C 0.74949 -0.10428 0.39616
 C566 C 0.74340 -0.10911 0.41685
 C567 C 0.74344 -0.09357 0.43238
 C568 C 0.74959 -0.07302 0.42746
 C569 C 0.75568 -0.06805 0.40694
 C570 C 0.75563 -0.08355 0.39138
 C571 C 0.74965 -0.05704 0.44347
 C572 C 0.74970 -0.04364 0.45686
 H573 H 0.73675 -0.12787 0.32807
 H574 H 0.73653 -0.10065 0.35533
 H575 H 0.76236 -0.14522 0.39964
 H576 H 0.76212 -0.17241 0.37234
 H577 H 0.73832 -0.12484 0.42097
 H578 H 0.73864 -0.09758 0.44821
 H579 H 0.76052 -0.05220 0.40297
 H580 H 0.76067 -0.07939 0.37568
 C581 C 0.68190 0.74960 -0.18140
 C582 C 0.66854 0.74945 -0.16792
 C583 C 0.65259 0.74929 -0.15183
 C584 C 0.63719 0.73349 -0.15159
 C585 C 0.62165 0.73335 -0.13600
 C586 C 0.62133 0.74902 -0.12042
 C587 C 0.63690 0.76482 -0.12079
 C588 C 0.65241 0.76494 -0.13641
 C589 C 0.60481 0.74890 -0.10387
 C590 C 0.60998 0.75380 -0.08295
 C591 C 0.59441 0.75372 -0.06739
 C592 C 0.57348 0.74877 -0.07252
 C593 C 0.56817 0.74387 -0.09327
 C594 C 0.58372 0.74393 -0.10885
 C595 C 0.55746 0.74874 -0.05650
 C596 C 0.54402 0.74874 -0.04310
 H597 H 0.63722 0.72126 -0.16343
 H598 H 0.61005 0.72083 -0.13597
 H599 H 0.63690 0.77725 -0.10918
 H600 H 0.66422 0.77728 -0.13649
 H601 H 0.62611 0.75743 -0.07857
 H602 H 0.59869 0.75748 -0.05136
 H603 H 0.55201 0.74008 -0.09741
 H604 H 0.57920 0.74036 -0.12485
 C605 C 0.31882 0.25020 -0.18187
 C606 C 0.33216 0.25028 -0.16837
 C607 C 0.34811 0.25036 -0.15228
 C608 C 0.34792 0.26588 -0.13673
 C609 C 0.36344 0.26598 -0.12110
 C610 C 0.37936 0.25054 -0.12086
 C611 C 0.37940 0.23500 -0.13657
 C612 C 0.36386 0.23492 -0.15217
 C613 C 0.39587 0.25065 -0.10429
 C614 C 0.41706 0.24617 -0.10930
 C615 C 0.43259 0.24626 -0.09370
 C616 C 0.42716 0.25081 -0.07290
 C617 C 0.40614 0.25528 -0.06775
 C618 C 0.39058 0.25522 -0.08333
 C619 C 0.44316 0.25085 -0.05686
 C620 C 0.45658 0.25087 -0.04344
 H621 H 0.33583 0.27794 -0.13671
 H622 H 0.36314 0.27831 -0.10938
 H623 H 0.39128 0.22275 -0.13665
 H624 H 0.36411 0.22280 -0.16411
 H625 H 0.42167 0.24287 -0.12533
 H626 H 0.44884 0.24283 -0.09786
 H627 H 0.40176 0.25877 -0.05168
 H628 H 0.37438 0.25846 -0.07894
 C629 C 0.31878 0.75028 0.18137
 C630 C 0.33221 0.75005 0.16797
 C631 C 0.34825 0.74980 0.15197
 C632 C 0.36867 0.75692 0.15652
 C633 C 0.38427 0.75672 0.14098
 C634 C 0.37962 0.74939 0.12066
 C635 C 0.35903 0.74226 0.11625
 C636 C 0.34346 0.74246 0.13182
 C637 C 0.39615 0.74921 0.10413
 C638 C 0.39125 0.75514 0.08342
 C639 C 0.40685 0.75502 0.06788
 C640 C 0.42752 0.74897 0.07282
 C641 C 0.43256 0.74302 0.09336
 C642 C 0.41699 0.74314 0.10893
 C643 C 0.44356 0.74889 0.05683
 C644 C 0.45701 0.74885 0.04343
 H645 H 0.37253 0.76269 0.17205
 H646 H 0.39988 0.76256 0.14478
 H647 H 0.35503 0.73627 0.10085
 H648 H 0.32772 0.73686 0.12816
 H649 H 0.37543 0.76015 0.07929
 H650 H 0.40280 0.75971 0.05203
 H651 H 0.44850 0.73825 0.09734
 H652 H 0.42119 0.73824 0.12466
 C653 C 0.68133 0.24963 0.18157
 C654 C 0.66799 0.24977 0.16807
 C655 C 0.65206 0.24993 0.15197
 C656 C 0.64382 0.23097 0.14439
 C657 C 0.62833 0.23111 0.12875
 C658 C 0.62085 0.25023 0.12049
 C659 C 0.62923 0.26920 0.12823
 C660 C 0.64474 0.26903 0.14386
 C661 C 0.60437 0.25039 0.10391
 C662 C 0.58788 0.26523 0.10444
 C663 C 0.57234 0.26533 0.08884
 C664 C 0.57307 0.25063 0.07252
 C665 C 0.58941 0.23583 0.07183
 C666 C 0.60497 0.23569 0.08742
 C667 C 0.55704 0.25072 0.05651
 C668 C 0.54360 0.25076 0.04310
 H669 H 0.64934 0.21610 0.15060
 H670 H 0.62199 0.21626 0.12331
 H671 H 0.62400 0.28416 0.12201
 H672 H 0.65105 0.28379 0.14959
 H673 H 0.58683 0.27657 0.11707
 H674 H 0.55971 0.27682 0.08955
 H675 H 0.59016 0.22442 0.05923
 H676 H 0.61760 0.22425 0.08643
 C677 C -0.18168 0.68210 0.75009
 C678 C -0.16829 0.66863 0.75024
 C679 C -0.15229 0.65256 0.75040
 C680 C -0.15705 0.63243 0.75790
 C681 C -0.14152 0.61680 0.75805
 C682 C -0.12100 0.62112 0.75069
 C683 C -0.11638 0.64142 0.74319
 C684 C -0.13194 0.65702 0.74305
 C685 C -0.10449 0.60453 0.75082
 C686 C -0.08358 0.60934 0.75665
 C687 C -0.06805 0.59372 0.75674
 C688 C -0.07319 0.57311 0.75100
 C689 C -0.09393 0.56816 0.74518
 C690 C -0.10950 0.58375 0.74510
 C691 C -0.05717 0.55706 0.75104
 C692 C -0.04374 0.54363 0.75106
 H693 H -0.17274 0.62884 0.76369
 H694 H -0.14548 0.60142 0.76417
 H695 H -0.10082 0.64515 0.73717
 H696 H -0.12811 0.67254 0.73715
 H697 H -0.07930 0.62512 0.76139
 H698 H -0.05205 0.59770 0.76132
 H699 H -0.09806 0.55226 0.74065
 H700 H -0.12537 0.57962 0.74028
 C701 C -0.18164 0.31839 0.25024
 C702 C -0.16829 0.33191 0.25011
 C703 C -0.15236 0.34804 0.24997
 C704 C -0.14615 0.35726 0.23101
 C705 C -0.13064 0.37292 0.23085
 C706 C -0.12116 0.37957 0.24969
 C707 C -0.12753 0.37021 0.26867
 C708 C -0.14302 0.35454 0.26879
 C709 C -0.10468 0.39620 0.24954
 C710 C -0.10440 0.41184 0.26515
 C711 C -0.08886 0.42747 0.26501
 C712 C -0.07341 0.42766 0.24930
 C713 C -0.07355 0.41218 0.23370
 C714 C -0.08908 0.39655 0.23380
 C715 C -0.05739 0.44371 0.24921
 C716 C -0.04396 0.45714 0.24914
 H717 H -0.15332 0.35238 0.21635
 H718 H -0.12627 0.38001 0.21602
 H719 H -0.12033 0.37480 0.28339
 H720 H -0.14768 0.34746 0.28355
 H721 H -0.11635 0.41215 0.27731
 H722 H -0.08892 0.43942 0.27713
 H723 H -0.06162 0.41215 0.22150
 H724 H -0.08872 0.38457 0.22173
 C725 C 0.18151 0.31878 0.74982
 C726 C 0.16809 0.33222 0.75002
 C727 C 0.15207 0.34827 0.75024
 C728 C 0.15575 0.36756 0.74035
 C729 C 0.14018 0.38316 0.74052
 C730 C 0.12071 0.37964 0.75061
 C731 C 0.11718 0.36018 0.76052
 C732 C 0.13277 0.34461 0.76033
 C733 C 0.10415 0.39617 0.75076
 C734 C 0.08275 0.39086 0.74786
 C735 C 0.06718 0.40645 0.74795
 C736 C 0.07277 0.42752 0.75096
 C737 C 0.09400 0.43297 0.75388
 C738 C 0.10960 0.41741 0.75377
 C739 C 0.05673 0.44354 0.75102
 C740 C 0.04328 0.45696 0.75104
 H741 H 0.17061 0.37053 0.73244
 H742 H 0.14327 0.39786 0.73253
 H743 H 0.10247 0.35709 0.76864
 H744 H 0.12979 0.32974 0.76809
 H745 H 0.07809 0.37470 0.74523
 H746 H 0.05079 0.40207 0.74562
 H747 H 0.09848 0.44923 0.75627
 H748 H 0.12589 0.42196 0.75632
 C749 C 0.18109 0.68224 0.24948
 C750 C 0.16771 0.66876 0.24936
 C751 C 0.15171 0.65269 0.24924
 C752 C 0.13136 0.65717 0.25659
 C753 C 0.11580 0.64157 0.25649
 C754 C 0.12041 0.62126 0.24903
 C755 C 0.14092 0.61692 0.24167
 C756 C 0.15646 0.63255 0.24177
 C757 C 0.10389 0.60468 0.24893
 C758 C 0.10888 0.58390 0.25469
 C759 C 0.09331 0.56831 0.25465
 C760 C 0.07257 0.57326 0.24884
 C761 C 0.06744 0.59386 0.24306
 C762 C 0.08299 0.60948 0.24310
 C763 C 0.05654 0.55722 0.24884
 C764 C 0.04309 0.54380 0.24886
 H765 H 0.12754 0.67270 0.26246
 H766 H 0.10024 0.64531 0.26251
 H767 H 0.14488 0.60153 0.23558
 H768 H 0.17215 0.62895 0.23599
 H769 H 0.12476 0.57977 0.25951
 H770 H 0.09742 0.55242 0.25921
 H771 H 0.05144 0.59785 0.23848
 H772 H 0.07871 0.62526 0.23833
 C773 C 0.75026 -0.18134 0.68109
 C774 C 0.75023 -0.16795 0.66770
 C775 C 0.75021 -0.15197 0.65173
 C776 C 0.75719 -0.15672 0.63144
 C777 C 0.75716 -0.14121 0.61589
 C778 C 0.75016 -0.12072 0.62047
 C779 C 0.74317 -0.11611 0.64093
 C780 C 0.74320 -0.13165 0.65644
 C781 C 0.75012 -0.10423 0.60398
 C782 C 0.75642 -0.08355 0.60872
 C783 C 0.75639 -0.06803 0.59318
 C784 C 0.75005 -0.07297 0.57273
 C785 C 0.74375 -0.09348 0.56785
 C786 C 0.74379 -0.10902 0.58335
 C787 C 0.75000 -0.05698 0.55675
 C788 C 0.74997 -0.04359 0.54337
 H789 H 0.76270 -0.17239 0.62764
 H790 H 0.76289 -0.14516 0.60038
 H791 H 0.73743 -0.10057 0.64486
 H792 H 0.73770 -0.12784 0.67209
 H793 H 0.76164 -0.07943 0.62437
 H794 H 0.76135 -0.05221 0.59711
 H795 H 0.73876 -0.09745 0.55207
 H796 H 0.73860 -0.12472 0.57928
 C797 C 0.25068 -0.18103 0.31915
 C798 C 0.25073 -0.16768 0.33257
 C799 C 0.25076 -0.15174 0.34858
 C800 C 0.25814 -0.13152 0.34401
 C801 C 0.25813 -0.11600 0.35954
 C802 C 0.25073 -0.12053 0.37987
 C803 C 0.24336 -0.14092 0.38430
 C804 C 0.24337 -0.15641 0.36874
 C805 C 0.25068 -0.10405 0.39637
 C806 C 0.25656 -0.10894 0.41710
 C807 C 0.25649 -0.09341 0.43262
 C808 C 0.25053 -0.07282 0.42764
 C809 C 0.24466 -0.06779 0.40708
 C810 C 0.24473 -0.08329 0.39152
 C811 C 0.25044 -0.05686 0.44363
 C812 C 0.25037 -0.04348 0.45702
 H813 H 0.26395 -0.12775 0.32846
 H814 H 0.26416 -0.10053 0.35572
 H815 H 0.23731 -0.14482 0.39971
 H816 H 0.23756 -0.17201 0.37242
 H817 H 0.26148 -0.12470 0.42125
 H818 H 0.26113 -0.09745 0.44849
 H819 H 0.23996 -0.05191 0.40307
 H820 H 0.23986 -0.07910 0.37578
 C821 C 0.74978 0.18071 0.31913
 C822 C 0.74978 0.16732 0.33252
 C823 C 0.74979 0.15135 0.34850
 C824 C 0.73065 0.14368 0.35642
 C825 C 0.73064 0.12817 0.37196
 C826 C 0.74980 0.12010 0.37976
 C827 C 0.76896 0.12791 0.37168
 C828 C 0.76893 0.14344 0.35616
 C829 C 0.74981 0.10361 0.39626
 C830 C 0.76422 0.08678 0.39534
 C831 C 0.76420 0.07126 0.41087
 C832 C 0.74982 0.07236 0.42751
 C833 C 0.73543 0.08903 0.42858
 C834 C 0.73541 0.10456 0.41306
 C835 C 0.74982 0.05638 0.44349
 C836 C 0.74983 0.04299 0.45687
 H837 H 0.71574 0.14966 0.35055
 H838 H 0.71564 0.12228 0.37766
 H839 H 0.78396 0.12222 0.37756
 H840 H 0.78383 0.14932 0.35017
 H841 H 0.77531 0.08547 0.38246
 H842 H 0.77537 0.05839 0.40987
 H843 H 0.72427 0.09006 0.44144
 H844 H 0.72432 0.11746 0.41435
 C845 C 0.24969 0.18083 0.68119
 C846 C 0.24967 0.16741 0.66785
 C847 C 0.24966 0.15140 0.65191
 C848 C 0.23517 0.15237 0.63535
 C849 C 0.23517 0.13683 0.61984
 C850 C 0.24971 0.12011 0.62069
 C851 C 0.26421 0.11928 0.63742
 C852 C 0.26417 0.13483 0.65292
 C853 C 0.24975 0.10362 0.60421
 C854 C 0.26894 0.09569 0.59632
 C855 C 0.26896 0.08017 0.58079
 C856 C 0.24984 0.07236 0.57295
 C857 C 0.23068 0.08013 0.58070
 C858 C 0.23062 0.09566 0.59622
 C859 C 0.24989 0.05639 0.55697
 C860 C 0.24995 0.04302 0.54359
 H861 H 0.22391 0.16517 0.63439
 H862 H 0.22400 0.13805 0.60702
 H863 H 0.27541 0.10647 0.63866
 H864 H 0.27542 0.13390 0.66571
 H865 H 0.28392 0.10168 0.60195
 H866 H 0.28389 0.07430 0.57485
 H867 H 0.21579 0.07415 0.57478
 H868 H 0.21560 0.10125 0.60217
   
