data_POSCAR
  _audit_creation_date              2014-09-24
  _audit_creation_method            'ToBaCCo'
  _symmetry_space_group_name_H-M    'P1'
  _symmetry_Int_Tables_number       1
  _symmetry_cell_setting            triclinic
  loop_
  _symmetry_equiv_pos_as_xyz
 x,y,z
_cell_length_a 32.3968
_cell_length_b 32.6115
_cell_length_c 29.8363
_cell_angle_alpha 89.621400
_cell_angle_beta 89.876200
_cell_angle_gamma 89.825700
loop_
  _atom_site_label
  _atom_site_type_symbol
  _atom_site_fract_x
  _atom_site_fract_y
  _atom_site_fract_z
Zr1 Zr 0.24674 0.24759 0.32886
 O2 O 0.27602 0.27888 0.38200
 O3 O 0.20680 0.20814 0.36419
 O4 O 0.20557 0.28555 0.36466
 O5 O 0.32628 0.17812 0.31287
 O6 O 0.17234 0.32233 0.31021
 O7 O 0.28701 0.20938 0.36632
 O8 O 0.17219 0.17516 0.30864
 O9 O 0.19353 0.24881 0.28901
 O10 O 0.24924 0.19501 0.28926
 O11 O 0.24970 0.30279 0.29191
 O12 O 0.30307 0.25136 0.29330
 Zr13 Zr 0.25439 0.25446 0.17241
 Zr14 Zr 0.19815 0.30216 0.24963
 Zr15 Zr 0.30309 0.19997 0.25134
 Zr16 Zr 0.19771 0.19732 0.24807
 O17 O 0.36816 0.20545 0.25277
 O18 O 0.13301 0.20702 0.24501
 O19 O 0.25168 0.19861 0.20866
 O20 O 0.19865 0.25047 0.20847
 O21 O 0.25203 0.30760 0.21132
 O22 O 0.30704 0.25339 0.21289
 C23 C 0.17980 0.18239 0.35020
 C24 C 0.31618 0.18493 0.35396
 C25 C 0.17962 0.31304 0.35143
 O26 O 0.13328 0.29640 0.24492
 O27 O 0.17839 0.32780 0.18817
 O28 O 0.21522 0.29355 0.13487
 C29 C 0.18781 0.31993 0.14711
 O30 O 0.32865 0.32593 0.31464
 Zr31 Zr 0.30346 0.30472 0.25331
 O32 O 0.29265 0.29540 0.13708
 O33 O 0.20250 0.36676 0.25356
 O34 O 0.29245 0.36881 0.25587
 O35 O 0.36857 0.29765 0.25283
 O36 O 0.32525 0.33025 0.19271
 C37 C 0.31789 0.32278 0.15117
 O38 O 0.22459 0.22310 0.11968
 O39 O 0.29863 0.13525 0.25055
 O40 O 0.29547 0.21683 0.13626
 O41 O 0.32641 0.17764 0.19034
 O42 O 0.20631 0.13281 0.24918
 O43 O 0.17708 0.17146 0.18688
 C44 C 0.32062 0.18855 0.14925
 H45 H 0.24949 0.16929 0.30705
 H46 H 0.17453 0.25013 0.18817
 H47 H 0.33315 0.25392 0.19561
 H48 H 0.24948 0.32692 0.31186
 H49 H 0.11947 0.18049 0.25181
 H50 H 0.12170 0.32453 0.24628
 H51 H 0.17400 0.37773 0.25149
 H52 H 0.31889 0.38275 0.24908
 H53 H 0.17910 0.12013 0.25533
 H54 H 0.32718 0.12442 0.25260
 H55 H 0.37959 0.17727 0.25124
 H56 H 0.38071 0.32496 0.24652
 H57 H 0.15363 0.15282 0.19295
 H58 H 0.23557 0.23428 0.09104
 H59 H 0.26476 0.26767 0.41051
 H60 H 0.34713 0.34946 0.30860
 Zr61 Zr 0.77214 0.76855 0.32246
 O62 O 0.76060 0.74755 0.38864
 O63 O 0.81401 0.81639 0.33551
 O64 O 0.82373 0.73960 0.35334
 O65 O 0.68142 0.82536 0.31386
 O66 O 0.84702 0.69446 0.30082
 O67 O 0.73397 0.80825 0.36123
 O68 O 0.83249 0.83952 0.26599
 O69 O 0.81519 0.76300 0.27025
 O70 O 0.75551 0.81231 0.27414
 O71 O 0.76727 0.70766 0.29976
 O72 O 0.71075 0.75477 0.30407
 Zr73 Zr 0.73273 0.73145 0.17642
 Zr74 Zr 0.80826 0.70333 0.24554
 Zr75 Zr 0.69624 0.79688 0.25299
 Zr76 Zr 0.79681 0.80524 0.22120
 O77 O 0.63331 0.78736 0.26915
 O78 O 0.85965 0.79944 0.20204
 O79 O 0.73696 0.79287 0.19843
 O80 O 0.79351 0.74598 0.19535
 O81 O 0.74885 0.68726 0.22458
 O82 O 0.68995 0.73740 0.22867
 C83 C 0.83484 0.83986 0.30890
 C84 C 0.69930 0.82631 0.35232
 C85 C 0.84789 0.71052 0.34000
 O86 O 0.86996 0.71279 0.22460
 O87 O 0.81991 0.66965 0.18693
 O88 O 0.76924 0.68976 0.13857
 C89 C 0.80231 0.66937 0.14832
 O90 O 0.69824 0.68531 0.34761
 Zr91 Zr 0.70752 0.69536 0.27783
 O92 O 0.69173 0.68270 0.16369
 O93 O 0.81070 0.64025 0.26246
 O94 O 0.72544 0.63403 0.29209
 O95 O 0.64364 0.69948 0.29299
 O96 O 0.67657 0.65699 0.23309
 C97 C 0.67356 0.65708 0.19027
 O98 O 0.74581 0.75079 0.10995
 O99 O 0.69379 0.86088 0.24083
 O100 O 0.68360 0.76250 0.14390
 O101 O 0.66181 0.80965 0.19499
 O102 O 0.78061 0.86771 0.21124
 O103 O 0.80063 0.82030 0.15188
 C104 C 0.66104 0.79317 0.15594
 H105 H 0.75588 0.84057 0.28605
 H106 H 0.81283 0.74440 0.16968
 H107 H 0.66124 0.73264 0.21872
 H108 H 0.77398 0.68773 0.32383
 H109 H 0.87096 0.82745 0.19820
 H110 H 0.88460 0.68625 0.22832
 H111 H 0.83913 0.63068 0.25587
 H112 H 0.69996 0.61782 0.29689
 H113 H 0.80654 0.88328 0.20678
 H114 H 0.66518 0.86987 0.24745
 H115 H 0.61905 0.81404 0.26498
 H116 H 0.63313 0.67117 0.29694
 H117 H 0.82161 0.84194 0.14727
 H118 H 0.72962 0.73325 0.08938
 H119 H 0.77634 0.76544 0.40925
 H120 H 0.68076 0.66078 0.35217
 Zr121 Zr 0.74913 0.25081 -0.32731
 O122 O 0.71540 0.28423 -0.37619
 O123 O 0.78764 0.21430 -0.36748
 O124 O 0.78732 0.29076 -0.36433
 O125 O 0.67350 0.17777 -0.30946
 O126 O 0.82293 0.32562 -0.31081
 O127 O 0.70841 0.21312 -0.36376
 O128 O 0.82769 0.18143 -0.31570
 O129 O 0.80450 0.25190 -0.29111
 O130 O 0.75098 0.19637 -0.29000
 O131 O 0.74663 0.30419 -0.28804
 O132 O 0.69491 0.25106 -0.28799
 Zr133 Zr 0.75076 0.25026 -0.17059
 Zr134 Zr 0.80054 0.30321 -0.24936
 Zr135 Zr 0.69928 0.19776 -0.24846
 Zr136 Zr 0.80471 0.19855 -0.25231
 O137 O 0.63409 0.20117 -0.24545
 O138 O 0.86912 0.20998 -0.25256
 O139 O 0.75315 0.19623 -0.20936
 O140 O 0.80436 0.24974 -0.21045
 O141 O 0.74885 0.30516 -0.20730
 O142 O 0.69590 0.24927 -0.20757
 C143 C 0.81708 0.18980 -0.35637
 C144 C 0.68106 0.18697 -0.35079
 C145 C 0.81384 0.31761 -0.35179
 O146 O 0.86575 0.29941 -0.24841
 O147 O 0.82264 0.32725 -0.18850
 O148 O 0.79058 0.28924 -0.13428
 C149 C 0.81601 0.31730 -0.14724
 O150 O 0.66580 0.32616 -0.30416
 Zr151 Zr 0.69521 0.30250 -0.24581
 O152 O 0.71353 0.28814 -0.13056
 O153 O 0.79362 0.36773 -0.25129
 O154 O 0.70379 0.36694 -0.24578
 O155 O 0.63050 0.29355 -0.24148
 O156 O 0.67606 0.32368 -0.18257
 C157 C 0.68611 0.31477 -0.14188
 O158 O 0.78493 0.21729 -0.12174
 O159 O 0.70627 0.13327 -0.25044
 O160 O 0.71305 0.20988 -0.13341
 O161 O 0.68022 0.17229 -0.18688
 O162 O 0.79889 0.13393 -0.25664
 O163 O 0.82939 0.17001 -0.19393
 C164 C 0.68793 0.18165 -0.14586
 H165 H 0.75072 0.17152 -0.30886
 H166 H 0.82961 0.24928 -0.19182
 H167 H 0.67081 0.24820 -0.18863
 H168 H 0.74500 0.32916 -0.30702
 H169 H 0.88315 0.18432 -0.26176
 H170 H 0.87622 0.32791 -0.24983
 H171 H 0.82180 0.37949 -0.25082
 H172 H 0.67739 0.37960 -0.23619
 H173 H 0.82619 0.12282 -0.26552
 H174 H 0.67808 0.12159 -0.25107
 H175 H 0.62382 0.17258 -0.24442
 H176 H 0.61786 0.32012 -0.23300
 H177 H 0.85314 0.15248 -0.20235
 H178 H 0.77546 0.22682 -0.09191
 H179 H 0.72506 0.27496 -0.40605
 H180 H 0.64707 0.34891 -0.29574
 Zr181 Zr 0.24609 0.75196 -0.32947
 O182 O 0.27756 0.71938 -0.38041
 O183 O 0.20687 0.79010 -0.36752
 O184 O 0.20626 0.71313 -0.36545
 O185 O 0.32445 0.82248 -0.31308
 O186 O 0.17119 0.67780 -0.31117
 O187 O 0.28714 0.78973 -0.36666
 O188 O 0.17071 0.82434 -0.31394
 O189 O 0.19166 0.75115 -0.29129
 O190 O 0.24665 0.80548 -0.29133
 O191 O 0.24844 0.69763 -0.29088
 O192 O 0.30127 0.74949 -0.29197
 Zr193 Zr 0.24842 0.74891 -0.17263
 Zr194 Zr 0.19556 0.69869 -0.25027
 Zr195 Zr 0.29932 0.80191 -0.25157
 Zr196 Zr 0.19382 0.80363 -0.25182
 O197 O 0.36444 0.79663 -0.25047
 O198 O 0.12918 0.79356 -0.25134
 O199 O 0.24645 0.80381 -0.21067
 O200 O 0.19390 0.75143 -0.21070
 O201 O 0.24821 0.69479 -0.21003
 O202 O 0.30242 0.74943 -0.21136
 C203 C 0.17947 0.81638 -0.35516
 C204 C 0.31579 0.81471 -0.35439
 C205 C 0.17966 0.68629 -0.35237
 O206 O 0.13055 0.70393 -0.24642
 O207 O 0.17559 0.67272 -0.18875
 O208 O 0.20747 0.71106 -0.13553
 C209 C 0.18217 0.68267 -0.14756
 O210 O 0.32859 0.67469 -0.31009
 Zr211 Zr 0.30088 0.69713 -0.25040
 O212 O 0.28568 0.70896 -0.13461
 O213 O 0.20091 0.63410 -0.25382
 O214 O 0.29089 0.63291 -0.25167
 O215 O 0.36586 0.70451 -0.24752
 O216 O 0.32051 0.67329 -0.18827
 C217 C 0.31166 0.68144 -0.14717
 O218 O 0.21691 0.78153 -0.12176
 O219 O 0.29398 0.86659 -0.25293
 O220 O 0.28794 0.78784 -0.13642
 O221 O 0.32029 0.82600 -0.19044
 O222 O 0.20130 0.86820 -0.25414
 O223 O 0.17065 0.83063 -0.19215
 C224 C 0.31322 0.81599 -0.14929
 H225 H 0.24719 0.83078 -0.30982
 H226 H 0.16907 0.75201 -0.19133
 H227 H 0.32791 0.74945 -0.19314
 H228 H 0.24912 0.67309 -0.31021
 H229 H 0.11562 0.81986 -0.25944
 H230 H 0.11945 0.67568 -0.24764
 H231 H 0.17254 0.62289 -0.25206
 H232 H 0.31721 0.61937 -0.24330
 H233 H 0.17411 0.88043 -0.26160
 H234 H 0.32244 0.87757 -0.25432
 H235 H 0.37553 0.82489 -0.24950
 H236 H 0.37800 0.67743 -0.23988
 H237 H 0.14686 0.84856 -0.19949
 H238 H 0.22699 0.77093 -0.09249
 H239 H 0.26719 0.72981 -0.40963
 H240 H 0.34718 0.65147 -0.30269
 Zr241 Zr 1.25011 1.24927 0.82710
 O242 O 1.21830 1.21410 0.87603
 O243 O 1.28513 1.28879 0.86725
 O244 O 1.29058 1.21128 0.86405
 O245 O 1.17155 1.31922 0.80941
 O246 O 1.32777 1.17770 0.81050
 O247 O 1.20740 1.28475 0.86366
 O248 O 1.32414 1.32347 0.81584
 O249 O 1.30574 1.25068 0.79114
 O250 O 1.24926 1.30366 0.78964
 O251 O 1.25029 1.19590 0.78782
 O252 O 1.19603 1.24670 0.78782
 Zr253 Zr 1.25214 1.25020 0.67048
 Zr254 Zr 1.30427 1.19930 0.74922
 Zr255 Zr 1.19781 1.30008 0.74822
 Zr256 Zr 1.30336 1.30400 0.75230
 O257 O 1.13290 1.29351 0.74570
 O258 O 1.36816 1.29476 0.75381
 O259 O 1.25182 1.30415 0.70933
 O260 O 1.30560 1.25289 0.71029
 O261 O 1.25286 1.19533 0.70728
 O262 O 1.19706 1.24855 0.70722
 C263 C 1.31284 1.31519 0.85639
 C264 C 1.17941 1.31026 0.85070
 C265 C 1.31825 1.18534 0.85150
 O266 O 1.36920 1.20584 0.74728
 O267 O 1.32636 1.17543 0.68815
 O268 O 1.29362 1.21300 0.63400
 C269 C 1.31936 1.18516 0.64692
 O270 O 1.17025 1.17085 0.80397
 Zr271 Zr 1.19894 1.19537 0.74557
 O272 O 1.21824 1.20961 0.63057
 O273 O 1.30076 1.13453 0.75179
 O274 O 1.21070 1.13136 0.74606
 O275 O 1.13390 1.20155 0.74075
 O276 O 1.18163 1.17275 0.68229
 C277 C 1.19232 1.18159 0.64174
 O278 O 1.28468 1.28485 0.62172
 O279 O 1.20120 1.36485 0.74993
 O280 O 1.21222 1.28876 0.63330
 O281 O 1.17750 1.32492 0.68684
 O282 O 1.29428 1.36836 0.75538
 O283 O 1.32777 1.33302 0.69405
 C284 C 1.18574 1.31599 0.64578
 H285 H 1.24750 1.32863 0.80823
 H286 H 1.33084 1.25429 0.69159
 H287 H 1.17210 1.24842 0.68815
 H288 H 1.24988 1.17092 0.80684
 H289 H 1.38092 1.32091 0.76317
 H290 H 1.38102 1.17780 0.74859
 H291 H 1.32948 1.12401 0.75073
 H292 H 1.18498 1.11750 0.73666
 H293 H 1.32090 1.38081 0.76421
 H294 H 1.17242 1.37517 0.75096
 H295 H 1.12109 1.32157 0.74483
 H296 H 1.12270 1.17446 0.73224
 H297 H 1.35093 1.35107 0.70262
 H298 H 1.27582 1.27498 0.59187
 H299 H 1.22736 1.22381 0.90588
 H300 H 1.15258 1.14740 0.79560
 Zr301 Zr 0.74507 0.74641 0.82834
 O302 O 0.77339 0.77758 0.88221
 O303 O 0.70564 0.70563 0.86243
 O304 O 0.70301 0.78292 0.86417
 O305 O 0.82457 0.67770 0.81306
 O306 O 0.67084 0.82089 0.80997
 O307 O 0.78460 0.70840 0.86624
 O308 O 0.67031 0.67495 0.80580
 O309 O 0.69241 0.74829 0.78776
 O310 O 0.74800 0.69438 0.78797
 O311 O 0.74873 0.80215 0.79260
 O312 O 0.80197 0.75053 0.79400
 Zr313 Zr 0.75505 0.75562 0.67246
 Zr314 Zr 0.69781 0.80215 0.74950
 Zr315 Zr 0.80239 0.69980 0.75119
 Zr316 Zr 0.69703 0.69745 0.74600
 O317 O 0.86746 0.70490 0.75312
 O318 O 0.63244 0.70741 0.74167
 O319 O 0.75159 0.69926 0.70765
 O320 O 0.69875 0.75115 0.70740
 O321 O 0.75227 0.80812 0.71230
 O322 O 0.80716 0.75374 0.71369
 C323 C 0.67820 0.68079 0.84757
 C324 C 0.81390 0.68423 0.85405
 C325 C 0.67726 0.81051 0.85104
 O326 O 0.63300 0.79694 0.74320
 O327 O 0.67926 0.82863 0.68821
 O328 O 0.71644 0.79491 0.63482
 C329 C 0.68905 0.82117 0.64718
 O330 O 0.82729 0.82480 0.81719
 Zr331 Zr 0.80314 0.80446 0.75502
 O332 O 0.79309 0.79785 0.63860
 O333 O 0.70215 0.86665 0.75500
 O334 O 0.79232 0.86854 0.75829
 O335 O 0.86819 0.79692 0.75586
 O336 O 0.82631 0.83060 0.69536
 C337 C 0.81873 0.82446 0.65360
 O338 O 0.72617 0.72503 0.61857
 O339 O 0.79810 0.63508 0.74996
 O340 O 0.79648 0.71850 0.63640
 O341 O 0.82561 0.67764 0.69021
 O342 O 0.70537 0.63292 0.74644
 O343 O 0.67739 0.67241 0.68403
 C344 C 0.82055 0.68931 0.64928
 H345 H 0.74804 0.66841 0.80531
 H346 H 0.67493 0.75116 0.68668
 H347 H 0.83346 0.75437 0.69676
 H348 H 0.74813 0.82592 0.81306
 H349 H 0.61869 0.68086 0.74783
 H350 H 0.62155 0.82510 0.74499
 H351 H 0.67370 0.87768 0.75253
 H352 H 0.81895 0.88245 0.75232
 H353 H 0.67802 0.62031 0.75203
 H354 H 0.82664 0.62428 0.75246
 H355 H 0.87871 0.67665 0.75173
 H356 H 0.88065 0.82421 0.75034
 H357 H 0.65386 0.65368 0.68936
 H358 H 0.73759 0.73660 0.59031
 H359 H 0.76189 0.76615 0.91050
 H360 H 0.84602 0.84829 0.81187
 Zr361 Zr 1.25032 0.74918 0.17277
 O362 O 1.21920 0.78280 0.12201
 O363 O 1.28760 0.70939 0.13468
 O364 O 1.29044 0.78701 0.13569
 O365 O 1.17156 0.67976 0.19045
 O366 O 1.32540 0.82231 0.18932
 O367 O 1.20873 0.71275 0.13620
 O368 O 1.32599 0.67607 0.18768
 O369 O 1.30510 0.74890 0.21002
 O370 O 1.24927 0.69552 0.21130
 O371 O 1.24895 0.80334 0.21094
 O372 O 1.19537 0.75258 0.21078
 Zr373 Zr 1.24886 0.75179 0.32939
 Zr374 Zr 1.30212 0.80106 0.25074
 Zr375 Zr 1.19689 0.69997 0.25152
 Zr376 Zr 1.30246 0.69627 0.24997
 O377 O 1.13184 0.70595 0.25282
 O378 O 1.36722 0.70555 0.25059
 O379 O 1.24996 0.69700 0.29178
 O380 O 1.30315 0.74821 0.29077
 O381 O 1.24979 0.80599 0.29153
 O382 O 1.19464 0.75228 0.29135
 C383 C 1.31577 0.68368 0.14671
 C384 C 1.18024 0.68789 0.14912
 C385 C 1.31676 0.81395 0.14833
 O386 O 1.36713 0.79484 0.25243
 O387 O 1.32444 0.82485 0.31166
 O388 O 1.28988 0.78912 0.36588
 C389 C 1.31674 0.81576 0.35295
 O390 O 1.16949 0.82851 0.19242
 Zr391 Zr 1.19667 0.80475 0.25199
 O392 O 1.21325 0.79312 0.36726
 O393 O 1.29794 0.86580 0.24807
 O394 O 1.20796 0.86876 0.25078
 O395 O 1.13162 0.79785 0.25466
 O396 O 1.17654 0.82820 0.31417
 C397 C 1.18664 0.82034 0.35509
 O398 O 1.28019 0.71821 0.37998
 O399 O 1.20106 0.63521 0.25132
 O400 O 1.20866 0.71407 0.36666
 O401 O 1.17585 0.67662 0.31311
 O402 O 1.29382 0.63187 0.24763
 O403 O 1.32513 0.66825 0.30959
 C404 C 1.18285 0.68656 0.35408
 H405 H 1.24821 0.67027 0.19311
 H406 H 1.32804 0.74710 0.30993
 H407 H 1.16920 0.75264 0.30977
 H408 H 1.24854 0.82800 0.19143
 H409 H 1.38052 0.67917 0.24261
 H410 H 1.37867 0.82291 0.25069
 H411 H 1.32656 0.87641 0.24888
 H412 H 1.18189 0.88272 0.25919
 H413 H 1.32079 0.61930 0.23991
 H414 H 1.17240 0.62473 0.25022
 H415 H 1.12042 0.67782 0.25447
 H416 H 1.11961 0.82494 0.26220
 H417 H 1.34842 0.64977 0.30212
 H418 H 1.27063 0.72883 0.40934
 H419 H 1.22899 0.77238 0.09266
 H420 H 1.15127 0.85192 0.19997
 Zr421 Zr 0.74795 1.25000 0.17014
 O422 O 0.77780 1.21671 0.11860
 O423 O 0.71100 1.29109 0.13278
 O424 O 0.70672 1.21278 0.13399
 O425 O 0.82824 1.31767 0.18678
 O426 O 0.67192 1.17727 0.18826
 O427 O 0.78992 1.28626 0.13297
 O428 O 0.67497 1.32530 0.18667
 O429 O 0.69361 1.25073 0.20840
 O430 O 0.75051 1.30306 0.20889
 O431 O 0.74902 1.19541 0.20835
 O432 O 0.80327 1.24530 0.20733
 Zr433 Zr 0.75132 1.24556 0.32695
 Zr434 Zr 0.69632 1.19799 0.24907
 Zr435 Zr 0.80323 1.29735 0.24824
 Zr436 Zr 0.69774 1.30277 0.24846
 O437 O 0.86814 1.28998 0.24869
 O438 O 0.63285 1.29437 0.24910
 O439 O 0.75064 1.30074 0.28936
 O440 O 0.69665 1.25032 0.28923
 O441 O 0.74901 1.19189 0.28897
 O442 O 0.80514 1.24458 0.28808
 C443 C 0.68428 1.31795 0.14546
 C444 C 0.81900 1.31041 0.14558
 C445 C 0.68025 1.18582 0.14707
 O446 O 0.63148 1.20534 0.25214
 O447 O 0.67485 1.17345 0.31043
 O448 O 0.71032 1.20817 0.36411
 C449 C 0.68322 1.18182 0.35158
 O450 O 0.82824 1.16965 0.18855
 Zr451 Zr 0.80168 1.19269 0.24857
 O452 O 0.78672 1.20334 0.36427
 O453 O 0.69950 1.13322 0.24628
 O454 O 0.78948 1.12886 0.24686
 O455 O 0.86684 1.19843 0.25081
 O456 O 0.82122 1.16751 0.31041
 C457 C 0.81205 1.17525 0.35157
 O458 O 0.72087 1.27875 0.37814
 O459 O 0.80033 1.36219 0.24762
 O460 O 0.79234 1.28279 0.36337
 O461 O 0.82510 1.32044 0.30928
 O462 O 0.70761 1.36704 0.24714
 O463 O 0.67537 1.32989 0.30842
 C464 C 0.81813 1.31044 0.35041
 H465 H 0.75190 1.32858 0.19081
 H466 H 0.67198 1.25152 0.30882
 H467 H 0.83068 1.24365 0.30620
 H468 H 0.74887 1.17097 0.18885
 H469 H 0.61996 1.32106 0.24127
 H470 H 0.61944 1.17747 0.25088
 H471 H 0.67076 1.12296 0.24795
 H472 H 0.81542 1.11437 0.25478
 H473 H 0.68088 1.38036 0.23990
 H474 H 0.82916 1.37216 0.24591
 H475 H 0.88016 1.31786 0.24990
 H476 H 0.87836 1.17105 0.25828
 H477 H 0.65218 1.34864 0.30123
 H478 H 0.73078 1.26773 0.40730
 H479 H 0.76767 1.22773 0.08953
 H480 H 0.84633 1.14599 0.19575
 O481 O 0.45497 1.07830 0.03135
 O482 O 0.54424 0.91550 0.02907
 O483 O 0.42002 0.95448 0.03284
 O484 O 0.57986 1.03955 0.03491
 O485 O 0.47634 0.92844 0.05625
 O486 O 0.52342 1.06582 0.05814
 O487 O 0.56825 0.97007 0.05659
 O488 O 0.43080 1.02241 0.05643
 C489 C 0.43511 1.05955 0.06083
 C490 C 0.56362 0.93270 0.05967
 C491 C 0.43928 0.93447 0.06193
 C492 C 0.56062 1.05999 0.06356
 O493 O 0.55260 1.07410 -0.02678
 O494 O 0.44716 0.92210 -0.02907
 O495 O 0.42461 1.04903 -0.03090
 O496 O 0.57488 0.94729 -0.03176
 O497 O 0.51631 0.92810 -0.05607
 O498 O 0.48316 1.06988 -0.05413
 O499 O 0.57174 1.01695 -0.05320
 O500 O 0.42937 0.98004 -0.05485
 Co501 Co 0.50316 1.06462 0.00201
 Co502 Co 0.49638 0.93104 0.00013
 Co503 Co 0.43322 1.00110 0.00086
 Co504 Co 0.56666 0.99385 0.00164
 O505 O 0.49988 0.99770 0.00113
 C506 C 0.57078 1.05448 -0.05667
 C507 C 0.42951 0.94257 -0.05884
 C508 C 0.44554 1.06800 -0.05949
 C509 C 0.55389 0.93017 -0.06133
 O510 O 0.94675 0.57701 0.52898
 O511 O 1.04825 0.42300 0.52666
 O512 O 0.92098 0.45068 0.52865
 O513 O 1.07433 0.54912 0.53056
 O514 O 0.97915 0.42973 0.55272
 O515 O 1.01654 0.57008 0.55552
 O516 O 1.06688 0.47975 0.55369
 O517 O 0.92497 0.51946 0.55265
 C518 C 0.92769 0.55671 0.55782
 C519 C 1.06608 0.44221 0.55695
 C520 C 0.94154 0.43214 0.55785
 C521 C 1.05419 0.56752 0.56006
 O522 O 1.04362 0.58066 0.46945
 O523 O 0.95177 0.42113 0.46693
 O524 O 0.91783 0.54558 0.46554
 O525 O 1.07692 0.45584 0.46576
 O526 O 1.02004 0.43372 0.44066
 O527 O 0.97412 0.57363 0.44408
 O528 O 1.06687 0.52472 0.44326
 O529 O 0.92860 0.47728 0.44131
 Co530 Co 0.99559 0.56804 0.49950
 Co531 Co 0.99962 0.43435 0.49677
 Co532 Co 0.93029 0.49844 0.49707
 Co533 Co 1.06405 0.50213 0.49833
 O534 O 0.99730 0.50085 0.49782
 C535 C 1.06278 0.56203 0.43946
 C536 C 0.93225 0.44000 0.43729
 C537 C 0.93683 0.56809 0.43846
 C538 C 1.05754 0.43724 0.43607
 O539 O 1.05398 0.48508 0.07575
 O540 O 1.05284 0.51792 -0.07863
 O541 O 1.04985 0.43178 -0.03218
 O542 O 1.04772 0.57056 0.03125
 O543 O 1.01870 0.45072 -0.08956
 O544 O 1.01680 0.55058 0.08831
 O545 O 1.03820 0.57552 -0.04584
 O546 O 1.04035 0.42693 0.04442
 C547 C 1.06401 0.44899 0.06789
 C548 C 1.06172 0.55443 -0.07103
 C549 C 1.04857 0.43282 -0.07325
 C550 C 1.04621 0.56938 0.07233
 O551 O 0.94682 0.51372 0.07667
 O552 O 0.94697 0.48489 -0.07786
 O553 O 0.95291 0.42999 0.02989
 O554 O 0.95073 0.57039 -0.03046
 O555 O 0.98159 0.55232 -0.08807
 O556 O 0.98379 0.44778 0.08742
 O557 O 0.95996 0.57287 0.04613
 O558 O 0.96283 0.42665 -0.04682
 Co559 Co 1.00038 0.49938 0.07306
 Co560 Co 1.00000 0.50130 -0.07474
 Co561 Co 1.00138 0.43494 -0.00109
 Co562 Co 0.99930 0.56618 0.00019
 O563 O 1.00031 0.50043 -0.00072
 C564 C 0.93658 0.55005 0.06969
 C565 C 0.93836 0.44829 -0.07026
 C566 C 0.95437 0.42963 0.07097
 C567 C 0.95148 0.56930 -0.07148
 O568 O 0.55214 0.98389 0.57993
 O569 O 0.55454 1.01384 0.42496
 O570 O 0.55114 0.92827 0.47280
 O571 O 0.54803 1.06835 0.53174
 O572 O 0.52103 0.94650 0.41457
 O573 O 0.51653 1.05011 0.58929
 O574 O 0.53815 1.07204 0.45464
 O575 O 0.53894 0.92514 0.54954
 C576 C 0.56229 0.94775 0.57270
 C577 C 0.56289 1.05043 0.43183
 C578 C 0.55102 0.92919 0.43164
 C579 C 0.54636 1.06809 0.57289
 O580 O 0.44543 1.01401 0.57719
 O581 O 0.44882 0.98096 0.42369
 O582 O 0.45222 0.92713 0.53281
 O583 O 0.45130 1.06690 0.46955
 O584 O 0.48245 1.04812 0.41215
 O585 O 0.48131 0.94777 0.59053
 O586 O 0.46089 1.07204 0.54588
 O587 O 0.46412 0.92303 0.45583
 Co588 Co 0.49894 0.99887 0.57531
 Co589 Co 0.50159 0.99748 0.42766
 Co590 Co 0.50149 0.93215 0.50261
 Co591 Co 0.49969 1.06364 0.50053
 O592 O 0.50038 0.99805 0.50152
 C593 C 0.43637 1.05041 0.56909
 C594 C 0.44015 0.94445 0.43148
 C595 C 0.45254 0.92847 0.57401
 C596 C 0.45259 1.06611 0.42848
 O597 O 1.07063 1.04653 0.46687
 O598 O 0.93379 1.05433 0.53226
 O599 O 0.97931 1.04543 0.42347
 O600 O 1.02253 1.05933 0.57436
 O601 O 0.92298 1.03231 0.45862
 O602 O 1.07967 1.03976 0.54410
 O603 O 0.95576 1.03029 0.59277
 O604 O 1.04650 1.01403 0.41243
 C605 C 1.06575 1.04418 0.42616
 C606 C 0.93812 1.05856 0.57286
 C607 C 0.94305 1.05446 0.43170
 C608 C 1.05900 1.06645 0.56490
 O609 O 1.07362 0.95375 0.53460
 O610 O 0.93010 0.95097 0.48943
 O611 O 1.01499 0.94146 0.43338
 O612 O 0.98789 0.95563 0.58842
 O613 O 0.92837 0.97187 0.56202
 O614 O 1.07470 0.96124 0.45659
 O615 O 1.05612 0.98728 0.59096
 O616 O 0.94572 0.97103 0.42490
 Co617 Co 1.06806 1.00036 0.50107
 Co618 Co 0.93532 1.00243 0.51009
 Co619 Co 0.99700 0.99379 0.43202
 Co620 Co 1.00510 1.00733 0.57829
 O621 O 1.00138 1.00099 0.50528
 C622 C 1.07249 0.95619 0.57563
 C623 C 0.92868 0.94507 0.44913
 C624 C 1.05250 0.93473 0.43773
 C625 C 0.95081 0.94753 0.58404
 O626 O 0.57123 0.53155 -0.06035
 O627 O 0.42650 0.54046 0.04479
 O628 O 0.44366 0.51284 -0.08944
 O629 O 0.55589 0.52973 0.07659
 O630 O 0.42666 0.54654 -0.03313
 O631 O 0.56986 0.55096 0.01227
 O632 O 0.48639 0.55999 0.06830
 O633 O 0.51130 0.54635 -0.08699
 C634 C 0.54820 0.55531 -0.08256
 C635 C 0.44884 0.56682 0.06398
 C636 C 0.42671 0.54353 -0.07404
 C637 C 0.57251 0.55604 0.05254
 O638 O 0.57776 0.46853 0.04179
 O639 O 0.42177 0.46001 -0.04174
 O640 O 0.54518 0.47279 -0.09210
 O641 O 0.45473 0.48799 0.08963
 O642 O 0.43099 0.45477 0.03558
 O643 O 0.56704 0.44828 -0.03189
 O644 O 0.52168 0.45591 0.07782
 O645 O 0.47908 0.44194 -0.07308
 Co646 Co 0.56514 0.49973 -0.00900
 Co647 Co 0.43295 0.50045 0.00082
 Co648 Co 0.49534 0.49428 -0.07693
 Co649 Co 0.50426 0.50763 0.06950
 O650 O 0.49940 0.50048 -0.00382
 C651 C 0.55772 0.44643 0.06894
 C652 C 0.44276 0.43404 -0.06349
 C653 C 0.56334 0.44467 -0.07256
 C654 C 0.43525 0.45790 0.07625
 C655 C 0.34555 1.16832 0.11456
 C656 C 0.37082 1.13707 0.12428
 C657 C 0.39639 1.11796 0.08955
 C658 C 0.41283 1.08093 0.09641
 H659 H 0.37223 1.12482 0.15812
 H660 H 0.40017 1.13329 0.05743
 H661 H 0.34342 1.17960 0.08037
 H662 H 0.40648 1.06438 0.12729
 C663 C 0.84492 0.66869 0.61465
 C664 C 0.86636 0.63462 0.62356
 C665 C 0.89157 0.61535 0.58886
 C666 C 0.90456 0.57677 0.59360
 H667 H 0.86494 0.62043 0.65650
 H668 H 0.89830 0.63238 0.55836
 H669 H 0.84529 0.68176 0.58114
 H670 H 0.89570 0.55887 0.62280
 C671 C 0.63304 0.81140 0.12223
 C672 C 0.61608 0.84850 0.12823
 C673 C 0.59194 0.86925 0.09293
 C674 C 0.58423 0.90951 0.09565
 H675 H 0.62202 0.86514 0.15889
 H676 H 0.58236 0.85218 0.06370
 H677 H 0.62857 0.79549 0.09084
 H678 H 0.59575 0.92664 0.12401
 C679 C 1.16191 0.33709 0.61044
 C680 C 1.13506 0.36711 0.61983
 C681 C 1.10942 0.38605 0.58471
 C682 C 1.08979 0.42143 0.59222
 H683 H 1.13182 0.37804 0.65391
 H684 H 1.10760 0.37172 0.55207
 H685 H 1.16576 0.32707 0.57611
 H686 H 1.09398 0.43715 0.62378
 C687 C 0.66493 1.15996 -0.11045
 C688 C 0.63898 1.12944 -0.11977
 C689 C 0.61353 1.11050 -0.08463
 C690 C 0.59468 1.07489 -0.09191
 H691 H 0.63615 1.11830 -0.15379
 H692 H 0.61108 1.12516 -0.05219
 H693 H 0.66831 1.17022 -0.07616
 H694 H 0.59945 1.05888 -0.12324
 C695 C 1.15823 0.66625 0.38899
 C696 C 1.13050 0.63771 0.37860
 C697 C 1.10455 0.61871 0.41297
 C698 C 1.08517 0.58374 0.40431
 H699 H 1.12706 0.62764 0.34424
 H700 H 1.10290 0.63214 0.44611
 H701 H 1.16214 0.67558 0.42353
 H702 H 1.08948 0.56868 0.37233
 C703 C 0.33694 0.83689 -0.11420
 C704 C 0.36193 0.86844 -0.12332
 C705 C 0.38755 0.88673 -0.08815
 C706 C 0.40540 0.92318 -0.09439
 H707 H 0.36369 0.88095 -0.15703
 H708 H 0.39093 0.87076 -0.05636
 H709 H 0.33453 0.82542 -0.08010
 H710 H 0.39985 0.94038 -0.12501
 C711 C 0.84242 0.33112 0.38514
 C712 C 0.86747 0.36241 0.37519
 C713 C 0.89284 0.38188 0.40966
 C714 C 0.90957 0.41863 0.40218
 H715 H 0.86904 0.37432 0.34121
 H716 H 0.89649 0.36689 0.44199
 H717 H 0.84003 0.32018 0.41945
 H718 H 0.90342 0.43486 0.37106
 C719 C 1.16415 0.34110 0.11145
 C720 C 1.14335 0.37586 0.11919
 C721 C 1.11407 0.39358 0.08638
 C722 C 1.09966 0.43165 0.09220
 H723 H 1.14657 0.39085 0.15134
 H724 H 1.10237 0.37472 0.05948
 H725 H 1.16263 0.32706 0.07868
 H726 H 1.11278 0.45031 0.11852
 C727 C 0.66571 0.84272 0.61181
 C728 C 0.64424 0.87672 0.62068
 C729 C 0.61435 0.89425 0.58877
 C730 C 0.59813 0.93113 0.59676
 H731 H 0.64706 0.89092 0.65331
 H732 H 0.60372 0.87613 0.56075
 H733 H 0.66452 0.82936 0.57867
 H734 H 0.61025 0.94931 0.62404
 C735 C 1.16076 0.66324 -0.11484
 C736 C 1.13690 0.62804 -0.12225
 C737 C 1.11027 0.61136 -0.08968
 C738 C 1.09462 0.57171 -0.09516
 H739 H 1.13976 0.61243 -0.15412
 H740 H 1.10196 0.62901 -0.06034
 H741 H 1.16279 0.67478 -0.08089
 H742 H 1.10829 0.55288 -0.12117
 C743 C 0.65891 1.16100 0.38695
 C744 C 0.63959 1.12549 0.37954
 C745 C 0.61049 1.10734 0.41226
 C746 C 0.59790 1.06864 0.40721
 H747 H 0.64419 1.10997 0.34786
 H748 H 0.59763 1.12624 0.43861
 H749 H 0.65616 1.17558 0.41937
 H750 H 0.61217 1.04996 0.38149
 C751 C 0.82346 0.64645 0.11200
 C752 C 0.85269 0.61836 0.12109
 C753 C 0.88103 0.60129 0.08678
 C754 C 0.90141 0.56642 0.09576
 H755 H 0.85745 0.60880 0.15559
 H756 H 0.88700 0.61820 0.05608
 H757 H 0.81699 0.65478 0.07750
 H758 H 0.89303 0.54922 0.12566
 C759 C 0.34348 1.16386 0.61200
 C760 C 0.36020 1.12683 0.61926
 C761 C 0.38927 1.10790 0.58725
 C762 C 0.40092 1.06879 0.59270
 H763 H 0.35367 1.11073 0.65040
 H764 H 0.40320 1.12669 0.56124
 H765 H 0.34817 1.17919 0.58006
 H766 H 0.38593 1.05022 0.61822
 C767 C 0.84061 0.33820 -0.11237
 C768 C 0.86014 0.37369 -0.12041
 C769 C 0.88982 0.39166 -0.08839
 C770 C 0.90317 0.43014 -0.09446
 H771 H 0.85539 0.38931 -0.15221
 H772 H 0.90238 0.37280 -0.06163
 H773 H 0.84376 0.32344 -0.07990
 H774 H 0.88919 0.44879 -0.12060
 C775 C 0.34162 0.83590 0.38799
 C776 C 0.36247 0.87054 0.37991
 C777 C 0.39174 0.88806 0.41253
 C778 C 0.40556 0.92630 0.40650
 H779 H 0.35885 0.88593 0.34781
 H780 H 0.40344 0.86921 0.43976
 H781 H 0.34356 0.82145 0.42074
 H782 H 0.39230 0.94491 0.37988
 C783 C 1.15681 1.15877 0.38439
 C784 C 1.12966 1.12977 0.37317
 C785 C 1.10929 1.10379 0.40715
 C786 C 1.08477 1.07313 0.39438
 H787 H 1.12323 1.12399 0.33813
 H788 H 1.11537 1.10884 0.44241
 H789 H 1.16342 1.16429 0.41943
 H790 H 1.07929 1.06817 0.35899
 C791 C 0.65562 0.65581 -0.11926
 C792 C 0.62110 0.63582 -0.12997
 C793 C 0.60244 0.60561 -0.09930
 C794 C 0.56529 0.59000 -0.10804
 H795 H 0.60730 0.64037 -0.16272
 H796 H 0.61995 0.59469 -0.07065
 H797 H 0.66846 0.65254 -0.08590
 H798 H 0.54726 0.60222 -0.13568
 C799 C 0.83932 1.16847 0.60738
 C800 C 0.87348 1.14689 0.61620
 C801 C 0.89241 1.11866 0.58378
 C802 C 0.92148 1.09291 0.59857
 H803 H 0.88637 1.14764 0.64972
 H804 H 0.88063 1.11652 0.54990
 H805 H 0.82636 1.16861 0.57392
 H806 H 0.93151 1.09479 0.63317
 C807 C 0.33634 0.65982 0.11108
 C808 C 0.37329 0.64224 0.11724
 C809 C 0.39104 0.61304 0.08475
 C810 C 0.43076 0.60208 0.08778
 H811 H 0.39023 0.64817 0.14783
 H812 H 0.37109 0.59863 0.06039
 H813 H 0.32027 0.65572 0.07961
 H814 H 0.45048 0.61783 0.11139
 C815 C 1.15950 0.83750 0.61265
 C816 C 1.13143 0.86875 0.62298
 C817 C 1.11351 0.89395 0.59051
 C818 C 1.09019 0.92756 0.60439
 H819 H 1.12457 0.87521 0.65786
 H820 H 1.11913 0.88857 0.55519
 H821 H 1.16665 0.83143 0.57777
 H822 H 1.08650 0.93293 0.64005
 C823 C 0.66423 0.34335 0.11036
 C824 C 0.63148 0.36702 0.11951
 C825 C 0.61363 0.39627 0.08675
 C826 C 0.57689 0.41325 0.09547
 H827 H 0.61769 0.36554 0.15264
 H828 H 0.63073 0.40477 0.05686
 H829 H 0.67725 0.34345 0.07687
 H830 H 0.55985 0.40289 0.12475
 C831 C 0.86330 0.87016 0.32771
 C832 C 0.87029 0.87385 0.37148
 C833 C 0.89792 0.90613 0.38781
 C834 C 0.90393 0.91124 0.43153
 H835 H 0.85507 0.85366 0.39529
 H836 H 0.91255 0.92668 0.36390
 H837 H 0.87890 0.89058 0.30440
 H838 H 0.88906 0.89083 0.45539
 C839 C 0.33159 0.33915 -0.10724
 C840 C 0.36827 0.35702 -0.11268
 C841 C 0.38500 0.38685 -0.08062
 C842 C 0.42448 0.39779 -0.08450
 H843 H 0.38594 0.35085 -0.14285
 H844 H 0.36473 0.40196 -0.05692
 H845 H 0.31451 0.34324 -0.07631
 H846 H 0.44406 0.38132 -0.10788
 C847 C 1.15526 0.33115 -0.11409
 C848 C 1.12995 0.36236 -0.12391
 C849 C 1.10489 0.38340 -0.08968
 C850 C 1.07822 0.41230 -0.10288
 H851 H 1.12706 0.37252 -0.15845
 H852 H 1.10693 0.37441 -0.05471
 H853 H 1.15880 0.32117 -0.07958
 H854 H 1.07599 0.41984 -0.13827
 C855 C 0.67766 0.84906 0.38871
 C856 C 0.64184 0.86883 0.38074
 C857 C 0.61623 0.88931 0.41549
 C858 C 0.58166 0.90879 0.40243
 H859 H 0.62997 0.86937 0.34679
 H860 H 0.62480 0.88784 0.45054
 H861 H 0.69033 0.84840 0.42227
 H862 H 0.57457 0.90987 0.36691
 C863 C 0.83690 0.66250 -0.11038
 C864 C 0.86497 0.63399 -0.12057
 C865 C 0.89105 0.61380 -0.08668
 C866 C 0.92079 0.58861 -0.10070
 H867 H 0.86999 0.62604 -0.15542
 H868 H 0.88731 0.62063 -0.05139
 H869 H 0.83126 0.67043 -0.07568
 H870 H 0.92433 0.58304 -0.13633
 C871 C 0.33960 1.16291 0.38934
 C872 C 0.36820 1.13473 0.37896
 C873 C 0.39368 1.11328 0.41285
 C874 C 0.42294 1.08722 0.39898
 H875 H 0.37376 1.12756 0.34402
 H876 H 0.38957 1.11957 0.44821
 H877 H 0.33352 1.17010 0.42415
 H878 H 0.42677 1.08209 0.36332
 C879 C 1.15631 0.66702 0.11383
 C880 C 1.12853 0.63808 0.12376
 C881 C 1.10362 0.61736 0.08927
 C882 C 1.07515 0.59024 0.10236
 H883 H 1.12351 0.62958 0.15855
 H884 H 1.10759 0.62490 0.05409
 H885 H 1.16176 0.67545 0.07912
 H886 H 1.07138 0.58392 0.13787
 C887 C 0.65707 1.16592 0.61394
 C888 C 0.62959 1.13661 0.62383
 C889 C 0.60436 1.11593 0.58941
 C890 C 0.57571 1.08898 0.60262
 H891 H 0.62492 1.12785 0.65860
 H892 H 0.60822 1.12344 0.55421
 H893 H 0.66203 1.17475 0.57926
 H894 H 0.57201 1.08284 0.63819
 C895 C 0.84307 0.33168 0.11024
 C896 C 0.87124 0.36002 0.12052
 C897 C 0.89648 0.38153 0.08651
 C898 C 0.92521 0.40786 0.10036
 H899 H 0.87635 0.36752 0.15543
 H900 H 0.89248 0.37528 0.05116
 H901 H 0.83741 0.32420 0.07546
 H902 H 0.92895 0.41287 0.13603
 C903 C 0.33769 0.83392 0.61307
 C904 C 0.36938 0.86193 0.62242
 C905 C 0.39305 0.88164 0.58917
 C906 C 0.42478 0.90802 0.60230
 H907 H 0.37638 0.86854 0.65718
 H908 H 0.38743 0.87591 0.55398
 H909 H 0.33063 0.82744 0.57831
 H910 H 0.42948 0.91239 0.63797
 C911 C 0.33952 1.16170 -0.11333
 C912 C 0.37084 1.13642 -0.12284
 C913 C 0.38950 1.11047 -0.08805
 C914 C 0.42589 1.09228 -0.09491
 H915 H 0.38286 1.13458 -0.15673
 H916 H 0.37391 1.10707 -0.05603
 H917 H 0.32852 1.16427 -0.07911
 H918 H 0.44290 1.09795 -0.12565
 C919 C 0.87722 0.69230 0.37236
 C920 C 0.88941 0.65316 0.36772
 C921 C 0.91520 0.63166 0.40097
 C922 C 0.91412 0.59068 0.40377
 H923 H 0.87800 0.63535 0.33980
 H924 H 0.93350 0.64916 0.42442
 H925 H 0.88598 0.70949 0.40178
 H926 H 0.89296 0.57360 0.38294
 C927 C 0.65933 1.16177 0.11238
 C928 C 0.63303 1.13173 0.12316
 C929 C 0.61458 1.10566 0.08882
 C930 C 0.58209 1.08226 0.09871
 H931 H 0.62485 1.12608 0.15792
 H932 H 0.62634 1.10693 0.05475
 H933 H 0.66692 1.16764 0.07752
 H934 H 0.56814 1.08354 0.13173
 C935 C 1.15853 0.66258 0.61275
 C936 C 1.12884 0.63559 0.62273
 C937 C 1.11011 0.61010 0.58792
 C938 C 1.07463 0.59056 0.59558
 H939 H 1.11805 0.63216 0.65698
 H940 H 1.12466 0.60844 0.55519
 H941 H 1.16829 0.66663 0.57823
 H942 H 1.05848 0.59466 0.62711
 C943 C 0.65496 0.83300 -0.11418
 C944 C 0.62656 0.86117 -0.12450
 C945 C 0.60801 0.88638 -0.08958
 C946 C 0.57346 0.90735 -0.09740
 H947 H 0.61715 0.86609 -0.15899
 H948 H 0.62200 0.88678 -0.05656
 H949 H 0.66326 0.82757 -0.07944
 H950 H 0.55757 0.90460 -0.12918
 C951 C 1.15806 0.33678 0.38611
 C952 C 1.13089 0.36620 0.37547
 C953 C 1.11209 0.39205 0.41000
 C954 C 1.07869 0.41452 0.40076
 H955 H 1.12233 0.37152 0.34079
 H956 H 1.12458 0.39148 0.44372
 H957 H 1.16581 0.33111 0.42094
 H958 H 1.06418 0.41259 0.36814
 C959 C 0.33729 0.83810 0.11334
 C960 C 0.36464 0.86694 0.12378
 C961 C 0.38331 0.89264 0.08917
 C962 C 0.41793 0.91286 0.09776
 H963 H 0.37388 0.87154 0.15831
 H964 H 0.37005 0.89333 0.05580
 H965 H 0.32892 0.83306 0.07864
 H966 H 0.43316 0.90943 0.12990
 C967 C 0.83442 0.34166 0.61305
 C968 C 0.86570 0.36671 0.62243
 C969 C 0.88454 0.39212 0.58745
 C970 C 0.92149 0.40893 0.59373
 H971 H 0.87788 0.36835 0.65620
 H972 H 0.86877 0.39589 0.55563
 H973 H 0.82341 0.33909 0.57889
 H974 H 0.93859 0.40280 0.62426
 C975 C 1.17360 1.15739 0.60578
 C976 C 1.13573 1.14219 0.61101
 C977 C 1.11776 1.11232 0.58006
 C978 C 1.07803 1.10268 0.58480
 H979 H 1.11793 1.15058 0.64045
 H980 H 1.13734 1.09597 0.55667
 H981 H 1.19108 1.15143 0.57550
 H982 H 1.05905 1.12017 0.60787
 C983 C 0.64663 0.62539 0.17170
 C984 C 0.63582 0.62415 0.12874
 C985 C 0.60796 0.59185 0.11303
 C986 C 0.59795 0.58938 0.06994
 H987 H 0.64740 0.64689 0.10523
 H988 H 0.59627 0.56931 0.13672
 H989 H 0.63435 0.60263 0.19479
 H990 H 0.61021 0.61155 0.04619
 C991 C 1.16676 0.84477 0.39051
 C992 C 1.12899 0.86059 0.38498
 C993 C 1.11081 0.88963 0.41715
 C994 C 1.07082 0.89949 0.41434
 H995 H 1.11155 0.85315 0.35513
 H996 H 1.13063 0.90493 0.44098
 H997 H 1.18347 0.85007 0.42135
 H998 H 1.05123 0.88303 0.39120
 C999 C 0.66454 0.33703 -0.10595
 C1000 C 0.63010 0.35800 -0.11510
 C1001 C 0.61049 0.38601 -0.08313
 C1002 C 0.58112 0.41112 -0.09841
 H1003 H 0.61709 0.35652 -0.14853
 H1004 H 0.62177 0.38833 -0.04906
 H1005 H 0.67753 0.33729 -0.07252
 H1006 H 0.57157 0.40920 -0.13318
 C1007 C 0.83168 1.14983 0.38668
 C1008 C 0.86653 1.12910 0.37859
 C1009 C 0.88521 1.10095 0.41170
 C1010 C 0.92348 1.08699 0.40477
 H1011 H 0.88165 1.13254 0.34631
 H1012 H 0.86743 1.09059 0.44041
 H1013 H 0.81745 1.14824 0.41955
 H1014 H 0.94108 1.09886 0.37659
 C1015 C 0.33296 0.65744 -0.11212
 C1016 C 0.36085 0.62894 -0.12309
 C1017 C 0.38161 0.60293 -0.08967
 C1018 C 0.40590 0.57258 -0.10395
 H1019 H 0.36817 0.62378 -0.15810
 H1020 H 0.37640 0.60772 -0.05418
 H1021 H 0.32537 0.66278 -0.07724
 H1022 H 0.40997 0.56785 -0.13965
 C1023 C 0.84056 0.85026 0.62069
 C1024 C 0.87577 0.86911 0.63119
 C1025 C 0.89504 0.89909 0.60083
 C1026 C 0.93285 0.91321 0.60932
 H1027 H 0.89004 0.86339 0.66350
 H1028 H 0.87759 0.91097 0.57259
 H1029 H 0.82725 0.85431 0.58764
 H1030 H 0.95074 0.90005 0.63654
 C1031 C 0.34006 0.34719 0.11718
 C1032 C 0.36806 0.37518 0.12874
 C1033 C 0.38928 0.40055 0.09507
 C1034 C 0.41521 0.42989 0.10808
 H1035 H 0.37511 0.38011 0.16381
 H1036 H 0.38289 0.39602 0.05979
 H1037 H 0.33310 0.34225 0.08210
 H1038 H 0.42093 0.43454 0.14347
   
