data_POSCAR
  _audit_creation_date              2014-09-24
  _audit_creation_method            'ToBaCCo'
  _symmetry_space_group_name_H-M    'P1'
  _symmetry_Int_Tables_number       1
  _symmetry_cell_setting            triclinic
  loop_
  _symmetry_equiv_pos_as_xyz
 x,y,z
_cell_length_a 37.1703
_cell_length_b 37.2779
_cell_length_c 37.3343
_cell_angle_alpha 89.971800
_cell_angle_beta 90.038900
_cell_angle_gamma 90.055100
loop_
  _atom_site_label
  _atom_site_type_symbol
  _atom_site_fract_x
  _atom_site_fract_y
  _atom_site_fract_z
N1 N 0.30632 0.24162 0.20426
 N2 N 0.28931 0.27011 0.19224
 C3 C 0.30557 0.28158 0.16210
 C4 C 0.33423 0.25910 0.15499
 C5 C 0.33401 0.23407 0.18227
 H6 H 0.29693 0.30417 0.14609
 H7 H 0.35216 0.21161 0.18541
 Cu8 Cu 0.24677 0.28843 0.21641
 Cu9 Cu 0.29037 0.21547 0.24653
 Cu10 Cu 0.21459 0.24761 0.29009
 N11 N 0.20430 0.30629 0.24102
 N12 N 0.19191 0.29015 0.26982
 C13 C 0.16186 0.30694 0.28083
 C14 C 0.15503 0.33503 0.25768
 C15 C 0.18246 0.33393 0.23274
 H16 H 0.14570 0.29889 0.30356
 H17 H 0.18571 0.35149 0.20990
 N18 N 0.24135 0.20495 0.30637
 N19 N 0.27013 0.19270 0.28966
 C20 C 0.28151 0.16271 0.30627
 C21 C 0.25887 0.15581 0.33473
 C22 C 0.23374 0.18307 0.33412
 H23 H 0.30420 0.14661 0.29795
 H24 H 0.21119 0.18621 0.35213
 H25 H 0.23650 0.22937 0.24262
 H26 H 0.26559 0.25850 0.27131
 N27 N 0.69335 -0.24145 0.20329
 N28 N 0.71045 -0.26991 0.19135
 C29 C 0.69440 -0.28134 0.16106
 C30 C 0.66575 -0.25881 0.15373
 C31 C 0.66578 -0.23385 0.18112
 H32 H 0.70318 -0.30394 0.14514
 H33 H 0.64759 -0.21145 0.18429
 Cu34 Cu 0.75289 -0.28797 0.21598
 Cu35 Cu 0.70909 -0.21536 0.24579
 Cu36 Cu 0.78528 -0.24734 0.28929
 N37 N 0.79566 -0.30592 0.24012
 N38 N 0.80830 -0.28960 0.26872
 C39 C 0.83865 -0.30608 0.27944
 C40 C 0.84544 -0.33421 0.25628
 C41 C 0.81758 -0.33346 0.23168
 H42 H 0.85492 -0.29784 0.30202
 H43 H 0.81406 -0.35115 0.20898
 N44 N 0.75814 -0.20500 0.30581
 N45 N 0.72927 -0.19278 0.28916
 C46 C 0.71773 -0.16299 0.30599
 C47 C 0.74036 -0.15620 0.33453
 C48 C 0.76562 -0.18331 0.33373
 H49 H 0.69497 -0.14692 0.29775
 H50 H 0.78821 -0.18645 0.35172
 H51 H 0.76301 -0.22880 0.24197
 H52 H 0.73418 -0.25789 0.27072
 N53 N 0.69407 0.24160 0.79500
 N54 N 0.71050 0.27070 0.80642
 C55 C 0.69421 0.28221 0.83650
 C56 C 0.66611 0.25917 0.84422
 C57 C 0.66674 0.23373 0.81733
 H58 H 0.70247 0.30525 0.85207
 H59 H 0.64905 0.21083 0.81469
 Cu60 Cu 0.75234 0.29015 0.78174
 Cu61 Cu 0.71039 0.21525 0.75309
 Cu62 Cu 0.78629 0.24720 0.70980
 N63 N 0.79578 0.30674 0.75776
 N64 N 0.80889 0.28987 0.72973
 C65 C 0.83938 0.30626 0.71918
 C66 C 0.84574 0.33489 0.74186
 C67 C 0.81753 0.33448 0.76599
 H68 H 0.85601 0.29767 0.69703
 H69 H 0.81360 0.35262 0.78824
 N70 N 0.75972 0.20439 0.69361
 N71 N 0.73087 0.19218 0.71025
 C72 C 0.71958 0.16208 0.69375
 C73 C 0.74238 0.15506 0.66544
 C74 C 0.76750 0.18237 0.66604
 H75 H 0.69683 0.14599 0.70201
 H76 H 0.79014 0.18547 0.64813
 H77 H 0.76387 0.23041 0.75766
 H78 H 0.73483 0.25798 0.72747
 N79 N 0.30655 -0.24243 0.79535
 N80 N 0.28961 -0.27108 0.80716
 C81 C 0.30602 -0.28283 0.83714
 C82 C 0.33472 -0.26035 0.84437
 C83 C 0.33435 -0.23506 0.81731
 H84 H 0.29744 -0.30556 0.85301
 H85 H 0.35242 -0.21250 0.81435
 Cu86 Cu 0.24667 -0.28880 0.78304
 Cu87 Cu 0.29029 -0.21574 0.75345
 Cu88 Cu 0.21374 -0.24730 0.71035
 N89 N 0.20378 -0.30654 0.75885
 N90 N 0.19097 -0.28993 0.73049
 C91 C 0.16055 -0.30636 0.71980
 C92 C 0.15387 -0.33472 0.74277
 C93 C 0.18189 -0.33417 0.76719
 H94 H 0.14410 -0.29788 0.69744
 H95 H 0.18555 -0.35210 0.78969
 N96 N 0.24059 -0.20461 0.69411
 N97 N 0.26960 -0.19254 0.71065
 C98 C 0.28096 -0.16249 0.69411
 C99 C 0.25806 -0.15536 0.66587
 C100 C 0.23282 -0.18255 0.66654
 H101 H 0.30383 -0.14652 0.70229
 H102 H 0.21011 -0.18553 0.64868
 H103 H 0.23669 -0.22945 0.75754
 H104 H 0.26525 -0.25829 0.72829
 N105 N 0.69432 -0.24155 0.79613
 N106 N 0.71074 -0.27062 0.80751
 C107 C 0.69463 -0.28213 0.83770
 C108 C 0.66663 -0.25910 0.84548
 C109 C 0.66712 -0.23366 0.81858
 H110 H 0.70292 -0.30517 0.85324
 H111 H 0.64946 -0.21077 0.81598
 Cu112 Cu 0.75235 -0.29019 0.78279
 Cu113 Cu 0.71041 -0.21529 0.75412
 Cu114 Cu 0.78646 -0.24691 0.71105
 N115 N 0.79581 -0.30654 0.75889
 N116 N 0.80908 -0.28943 0.73106
 C117 C 0.83972 -0.30555 0.72070
 C118 C 0.84603 -0.33423 0.74333
 C119 C 0.81760 -0.33419 0.76721
 H120 H 0.85652 -0.29671 0.69875
 H121 H 0.81356 -0.35247 0.78936
 N122 N 0.75978 -0.20432 0.69477
 N123 N 0.73075 -0.19233 0.71120
 C124 C 0.71932 -0.16239 0.69455
 C125 C 0.74225 -0.15525 0.66638
 C126 C 0.76756 -0.18231 0.66718
 H127 H 0.69641 -0.14649 0.70264
 H128 H 0.79033 -0.18524 0.64941
 H129 H 0.73499 -0.25790 0.72859
 H130 H 0.76389 -0.23031 0.75897
 N131 N 0.30597 0.24148 0.79563
 N132 N 0.28962 0.27060 0.80695
 C133 C 0.30594 0.28221 0.83701
 C134 C 0.33396 0.25915 0.84477
 C135 C 0.33329 0.23365 0.81798
 H136 H 0.29775 0.30530 0.85251
 H137 H 0.35091 0.21072 0.81541
 Cu138 Cu 0.24777 0.28992 0.78231
 Cu139 Cu 0.28966 0.21508 0.75379
 Cu140 Cu 0.21384 0.24695 0.71032
 N141 N 0.20430 0.30632 0.75838
 N142 N 0.19126 0.28950 0.73027
 C143 C 0.16073 0.30576 0.71975
 C144 C 0.15429 0.33422 0.74251
 C145 C 0.18241 0.33388 0.76672
 H146 H 0.14405 0.29717 0.69760
 H147 H 0.18618 0.35193 0.78907
 N148 N 0.24044 0.20426 0.69422
 N149 N 0.26919 0.19202 0.71099
 C150 C 0.28044 0.16190 0.69459
 C151 C 0.25771 0.15494 0.66620
 C152 C 0.23270 0.18228 0.66661
 H153 H 0.30311 0.14578 0.70297
 H154 H 0.21015 0.18542 0.64857
 H155 H 0.26525 0.25777 0.72812
 H156 H 0.23614 0.23018 0.75827
 N157 N 0.30747 -0.24120 0.20481
 N158 N 0.29066 -0.27007 0.19334
 C159 C 0.30676 -0.28181 0.16324
 C160 C 0.33513 -0.25910 0.15555
 C161 C 0.33489 -0.23367 0.18247
 H162 H 0.29810 -0.30462 0.14756
 H163 H 0.35277 -0.21092 0.18509
 Cu164 Cu 0.24827 -0.28788 0.21809
 Cu165 Cu 0.29128 -0.21435 0.24668
 Cu166 Cu 0.21473 -0.24598 0.28994
 N167 N 0.20514 -0.30548 0.24169
 N168 N 0.19220 -0.28879 0.26993
 C169 C 0.16167 -0.30512 0.28040
 C170 C 0.15512 -0.33346 0.25747
 C171 C 0.18319 -0.33299 0.23322
 H172 H 0.14502 -0.29657 0.30254
 H173 H 0.18675 -0.35084 0.21068
 N174 N 0.24149 -0.20318 0.30595
 N175 N 0.27055 -0.19114 0.28947
 C176 C 0.28190 -0.16111 0.30604
 C177 C 0.25892 -0.15397 0.33417
 C178 C 0.23366 -0.18111 0.33343
 H179 H 0.30484 -0.14519 0.29799
 H180 H 0.21091 -0.18409 0.35123
 H181 H 0.26640 -0.25659 0.27254
 H182 H 0.23774 -0.22842 0.24276
 N183 N 0.69339 0.24034 0.20429
 N184 N 0.71037 0.26899 0.19256
 C185 C 0.69426 0.28062 0.16240
 C186 C 0.66573 0.25805 0.15495
 C187 C 0.66586 0.23282 0.18206
 H188 H 0.70296 0.30332 0.14657
 H189 H 0.64780 0.21024 0.18490
 Cu190 Cu 0.75276 0.28710 0.21716
 Cu191 Cu 0.70937 0.21379 0.24636
 Cu192 Cu 0.78527 0.24601 0.29018
 N193 N 0.79519 0.30519 0.24169
 N194 N 0.80774 0.28891 0.27033
 C195 C 0.83777 0.30579 0.28140
 C196 C 0.84437 0.33409 0.25841
 C197 C 0.81686 0.33302 0.23354
 H198 H 0.85404 0.29768 0.30402
 H199 H 0.81347 0.35069 0.21080
 N200 N 0.75869 0.20306 0.30608
 N201 N 0.72984 0.19084 0.28937
 C202 C 0.71857 0.16071 0.30582
 C203 C 0.74139 0.15369 0.33413
 C204 C 0.76647 0.18102 0.33364
 H205 H 0.69583 0.14462 0.29753
 H206 H 0.78906 0.18413 0.35163
 H207 H 0.73380 0.25655 0.27176
 H208 H 0.76285 0.22791 0.24281
 C209 C 0.26058 0.03268 0.57656
 C210 C 0.26144 -0.00016 0.59464
 C211 C 0.26073 -0.03282 0.57630
 C212 C 0.25999 -0.03288 0.53836
 C213 C 0.25950 0.00023 0.51948
 C214 C 0.25994 0.03314 0.53863
 C215 C 0.26151 0.06549 0.51933
 C216 C 0.26180 0.06569 0.48209
 C217 C 0.26052 0.03355 0.46248
 C218 C 0.25977 0.00044 0.48135
 C219 C 0.26148 -0.06502 0.51877
 C220 C 0.26170 -0.06482 0.48152
 C221 C 0.26046 -0.03247 0.46220
 C222 C 0.26164 -0.03202 0.42429
 C223 C 0.26275 0.00082 0.40623
 C224 C 0.26173 0.03349 0.42455
 H225 H 0.26355 0.09111 0.53271
 H226 H 0.26402 0.09144 0.46896
 H227 H 0.26345 -0.09077 0.53194
 H228 H 0.26385 -0.09043 0.46814
 H229 H 0.26180 -0.00030 0.62370
 H230 H 0.26346 0.00094 0.37717
 C231 C 0.73963 0.03239 0.57611
 C232 C 0.73870 -0.00027 0.59448
 C233 C 0.73955 -0.03311 0.57645
 C234 C 0.74034 -0.03358 0.53853
 C235 C 0.74085 -0.00068 0.51933
 C236 C 0.74043 0.03244 0.53816
 C237 C 0.73902 0.06457 0.51852
 C238 C 0.73876 0.06435 0.48127
 C239 C 0.73992 0.03199 0.46199
 C240 C 0.74056 -0.00091 0.48119
 C241 C 0.73884 -0.06595 0.51928
 C242 C 0.73852 -0.06617 0.48204
 C243 C 0.73972 -0.03404 0.46237
 C244 C 0.73834 -0.03400 0.42444
 C245 C 0.73741 -0.00133 0.40607
 C246 C 0.73869 0.03151 0.42407
 H247 H 0.73709 0.09033 0.53164
 H248 H 0.73660 0.08997 0.46789
 H249 H 0.73689 -0.09156 0.53272
 H250 H 0.73633 -0.09193 0.46895
 H251 H 0.73820 -0.00015 0.62355
 H252 H 0.73661 -0.00148 0.37701
 C253 C 0.42387 0.26198 0.03255
 C254 C 0.40550 0.26303 -0.00012
 C255 C 0.42370 0.26210 -0.03285
 C256 C 0.46179 0.26108 -0.03321
 C257 C 0.48098 0.26039 -0.00031
 C258 C 0.46198 0.26094 0.03271
 C259 C 0.48164 0.26217 0.06485
 C260 C 0.51904 0.26207 0.06474
 C261 C 0.53848 0.26075 0.03248
 C262 C 0.51929 0.26032 -0.00042
 C263 C 0.48123 0.26244 -0.06547
 C264 C 0.51865 0.26237 -0.06558
 C265 C 0.53829 0.26096 -0.03344
 C266 C 0.57641 0.26191 -0.03328
 C267 C 0.59479 0.26270 -0.00060
 C268 C 0.57657 0.26160 0.03213
 H269 H 0.46843 0.26421 0.09054
 H270 H 0.53244 0.26404 0.09036
 H271 H 0.46782 0.26456 -0.09107
 H272 H 0.53189 0.26440 -0.09126
 H273 H 0.37631 0.26362 -0.00008
 H274 H 0.62398 0.26319 -0.00066
 C275 C 0.57678 0.73745 0.03312
 C276 C 0.59512 0.73640 0.00047
 C277 C 0.57690 0.73728 -0.03227
 C278 C 0.53881 0.73817 -0.03267
 C279 C 0.51963 0.73881 0.00022
 C280 C 0.53866 0.73840 0.03325
 C281 C 0.51904 0.73723 0.06538
 C282 C 0.48162 0.73715 0.06524
 C283 C 0.46215 0.73829 0.03296
 C284 C 0.48133 0.73875 0.00007
 C285 C 0.51936 0.73674 -0.06494
 C286 C 0.48195 0.73670 -0.06509
 C287 C 0.46230 0.73805 -0.03296
 C288 C 0.42419 0.73698 -0.03284
 C289 C 0.40582 0.73609 -0.00018
 C290 C 0.42405 0.73727 0.03258
 H291 H 0.53231 0.73540 0.09108
 H292 H 0.46824 0.73522 0.09085
 H293 H 0.53277 0.73465 -0.09053
 H294 H 0.46871 0.73462 -0.09078
 H295 H 0.62431 0.73589 0.00054
 H296 H 0.37663 0.73549 -0.00025
 C297 C -0.03362 0.57692 0.25661
 C298 C -0.00079 0.59520 0.25750
 C299 C 0.03208 0.57705 0.25662
 C300 C 0.03240 0.53906 0.25566
 C301 C -0.00069 0.51994 0.25518
 C302 C -0.03383 0.53892 0.25568
 C303 C -0.06614 0.51939 0.25711
 C304 C -0.06609 0.48208 0.25757
 C305 C -0.03372 0.46264 0.25654
 C306 C -0.00064 0.48174 0.25558
 C307 C 0.06477 0.51963 0.25701
 C308 C 0.06482 0.48234 0.25731
 C309 C 0.03251 0.46277 0.25635
 C310 C 0.03231 0.42480 0.25797
 C311 C -0.00051 0.40653 0.25938
 C312 C -0.03339 0.42466 0.25824
 H313 H -0.09192 0.53266 0.25890
 H314 H -0.09184 0.46879 0.25976
 H315 H 0.09054 0.53294 0.25885
 H316 H 0.09062 0.46915 0.25936
 H317 H -0.00083 0.62430 0.25821
 H318 H -0.00047 0.37745 0.26057
 C319 C -0.03317 0.57684 0.74319
 C320 C -0.00025 0.59498 0.74234
 C321 C 0.03253 0.57668 0.74308
 C322 C 0.03264 0.53868 0.74404
 C323 C -0.00055 0.51971 0.74454
 C324 C -0.03359 0.53884 0.74400
 C325 C -0.06601 0.51944 0.74243
 C326 C -0.06615 0.48213 0.74204
 C327 C -0.03388 0.46255 0.74326
 C328 C -0.00070 0.48152 0.74421
 C329 C 0.06491 0.51913 0.74267
 C330 C 0.06477 0.48183 0.74241
 C331 C 0.03235 0.46240 0.74350
 C332 C 0.03195 0.42443 0.74209
 C333 C -0.00095 0.40631 0.74082
 C334 C -0.03375 0.42457 0.74176
 H335 H -0.09172 0.53280 0.74046
 H336 H -0.09194 0.46893 0.73978
 H337 H 0.09072 0.53235 0.74080
 H338 H 0.09049 0.46852 0.74032
 H339 H -0.00014 0.62408 0.74174
 H340 H -0.00104 0.37721 0.73986
 N341 N 0.35350 0.28548 0.09798
 C342 C 0.35839 0.26044 0.12391
 N343 N 0.38532 0.23616 0.12011
 N344 N 0.40660 0.23692 0.09140
 C345 C 0.40187 0.26216 0.06556
 N346 N 0.37473 0.28623 0.06929
 N347 N 0.61586 0.76409 0.12023
 C348 C 0.64272 0.73972 0.12429
 N349 N 0.64722 0.71425 0.09872
 N350 N 0.62582 0.71325 0.07012
 C351 C 0.59883 0.73745 0.06614
 N352 N 0.59439 0.76304 0.09164
 N353 N 0.61521 0.23595 -0.12065
 C354 C 0.64197 0.26046 -0.12464
 N355 N 0.64662 0.28575 -0.09891
 N356 N 0.62536 0.28647 -0.07022
 C357 C 0.59841 0.26216 -0.06632
 N358 N 0.59388 0.23672 -0.09196
 N359 N 0.38559 0.76286 -0.12041
 C360 C 0.35891 0.73828 -0.12449
 N361 N 0.35419 0.71302 -0.09873
 N362 N 0.37535 0.71235 -0.06993
 C363 C 0.40222 0.73673 -0.06593
 N364 N 0.40680 0.76216 -0.09161
 N365 N 0.09788 0.35516 0.28341
 C366 C 0.12394 0.35932 0.25833
 N367 N 0.12020 0.38556 0.23335
 N368 N 0.09142 0.40686 0.23350
 C369 C 0.06544 0.40283 0.25877
 N370 N 0.06912 0.37641 0.28354
 N371 N 0.12070 0.61591 0.76720
 C372 C 0.12430 0.64226 0.74229
 N373 N 0.09803 0.64639 0.71735
 N374 N 0.06923 0.62512 0.71737
 C375 C 0.06571 0.59866 0.74212
 N376 N 0.09189 0.59457 0.76719
 N377 N -0.09907 0.64658 0.28211
 C378 C -0.12509 0.64269 0.25689
 N379 N -0.12140 0.61646 0.23190
 N380 N -0.09270 0.59503 0.23210
 C381 C -0.06674 0.59891 0.25743
 N382 N -0.07038 0.62522 0.28227
 N383 N -0.12166 0.38485 0.76588
 C384 C -0.12493 0.35822 0.74123
 N385 N -0.09863 0.35417 0.71637
 N386 N -0.07009 0.37578 0.71622
 C387 C -0.06686 0.40250 0.74071
 N388 N -0.09309 0.40650 0.76570
 N389 N 0.23589 0.12110 0.38590
 C390 C 0.26023 0.12484 0.35905
 N391 N 0.28539 0.09893 0.35434
 N392 N 0.28617 0.07028 0.37563
 C393 C 0.26202 0.06659 0.40266
 N394 N 0.23669 0.09243 0.40725
 N395 N 0.71598 0.09799 0.64609
 C396 C 0.74112 0.12395 0.64128
 N397 N 0.76552 0.12015 0.61450
 N398 N 0.76475 0.09140 0.59327
 C399 C 0.73941 0.06553 0.59795
 N400 N 0.71524 0.06926 0.62493
 N401 N 0.28458 -0.09840 0.64631
 C402 C 0.25935 -0.12430 0.64164
 N403 N 0.23486 -0.12048 0.61490
 N404 N 0.23561 -0.09176 0.59361
 C405 C 0.26101 -0.06594 0.59817
 N406 N 0.28530 -0.06970 0.62508
 N407 N 0.71389 -0.09940 0.35445
 C408 C 0.73907 -0.12534 0.35897
 N409 N 0.76364 -0.12165 0.38565
 N410 N 0.76305 -0.09301 0.40701
 C411 C 0.73773 -0.06712 0.40259
 N412 N 0.71333 -0.07077 0.37576
 N413 N 0.61584 0.76392 -0.11932
 C414 C 0.64258 0.73947 -0.12338
 N415 N 0.64725 0.71406 -0.09778
 N416 N 0.62596 0.71311 -0.06912
 C417 C 0.59901 0.73733 -0.06517
 N418 N 0.59450 0.76293 -0.09067
 N419 N 0.35353 0.28587 -0.09847
 C420 C 0.35806 0.26047 -0.12408
 N421 N 0.38462 0.23584 -0.11996
 N422 N 0.40595 0.23663 -0.09127
 C423 C 0.40158 0.26222 -0.06576
 N424 N 0.37479 0.28663 -0.06977
 N425 N 0.38548 0.76413 0.11973
 C426 C 0.35897 0.73946 0.12421
 N427 N 0.35424 0.71389 0.09877
 N428 N 0.37526 0.71300 0.06991
 C429 C 0.40199 0.73745 0.06555
 N430 N 0.40655 0.76321 0.09087
 N431 N 0.64668 0.28483 0.09805
 C432 C 0.64179 0.25948 0.12369
 N433 N 0.61507 0.23500 0.11945
 N434 N 0.59393 0.23590 0.09062
 C435 C 0.59865 0.26144 0.06509
 N436 N 0.62559 0.28570 0.06922
 N437 N -0.09802 0.64723 0.71822
 C438 C -0.12448 0.64276 0.74286
 N439 N -0.12120 0.61601 0.76738
 N440 N -0.09250 0.59459 0.76725
 C441 C -0.06616 0.59898 0.74243
 N442 N -0.06936 0.62586 0.71811
 N443 N -0.12130 0.38499 0.23417
 C444 C -0.12467 0.35859 0.25903
 N445 N -0.09838 0.35449 0.28391
 N446 N -0.06974 0.37597 0.28394
 C447 C -0.06643 0.40254 0.25927
 N448 N -0.09264 0.40650 0.23421
 N449 N 0.11987 0.38509 0.76654
 C450 C 0.12319 0.35847 0.74195
 N451 N 0.09682 0.35404 0.71721
 N452 N 0.06818 0.37545 0.71701
 C453 C 0.06494 0.40228 0.74136
 N454 N 0.09120 0.40654 0.76633
 N455 N 0.09731 0.64701 0.28223
 C456 C 0.12381 0.64250 0.25769
 N457 N 0.12041 0.61605 0.23292
 N458 N 0.09153 0.59481 0.23278
 C459 C 0.06515 0.59914 0.25755
 N460 N 0.06846 0.62582 0.28208
 N461 N 0.76563 -0.12035 0.61558
 C462 C 0.74099 -0.12425 0.64213
 N463 N 0.71565 -0.09848 0.64660
 N464 N 0.71495 -0.06982 0.62532
 C465 C 0.73938 -0.06601 0.59857
 N466 N 0.76490 -0.09169 0.59424
 N467 N 0.23550 -0.11919 0.38498
 C468 C 0.26017 -0.12300 0.35845
 N469 N 0.28557 -0.09722 0.35408
 N470 N 0.28629 -0.06864 0.37543
 C471 C 0.26185 -0.06491 0.40217
 N472 N 0.23626 -0.09060 0.40640
 N473 N 0.76470 0.11889 0.38504
 C474 C 0.74019 0.12264 0.35831
 N475 N 0.71499 0.09670 0.35367
 N476 N 0.71428 0.06806 0.37497
 C477 C 0.73855 0.06441 0.40191
 N478 N 0.76397 0.09023 0.40638
 N479 N 0.28390 0.09782 0.64706
 C480 C 0.25893 0.12387 0.64209
 N481 N 0.23468 0.12021 0.61512
 N482 N 0.23545 0.09152 0.59385
 C483 C 0.26064 0.06557 0.59867
 N484 N 0.28465 0.06915 0.62585
   
