data_POSCAR
  _audit_creation_date              2014-09-24
  _audit_creation_method            'ToBaCCo'
  _symmetry_space_group_name_H-M    'P1'
  _symmetry_Int_Tables_number       1
  _symmetry_cell_setting            triclinic
  loop_
  _symmetry_equiv_pos_as_xyz
 x,y,z
_cell_length_a 41.2621
_cell_length_b 42.9198
_cell_length_c 39.6674
_cell_angle_alpha 90.691400
_cell_angle_beta 91.055900
_cell_angle_gamma 90.223100
loop_
  _atom_site_label
  _atom_site_type_symbol
  _atom_site_fract_x
  _atom_site_fract_y
  _atom_site_fract_z
C1 C 0.20581 0.22624 0.27343
 C2 C 0.20957 0.25246 0.25313
 C3 C 0.23352 0.25298 0.22914
 C4 C 0.25402 0.22727 0.22514
 C5 C 0.25034 0.20126 0.24517
 C6 C 0.22602 0.20074 0.26953
 C7 C 0.18292 0.21849 0.29675
 N8 N 0.18887 0.18908 0.30708
 C9 C 0.21499 0.17784 0.29067
 C10 C 0.27183 0.17907 0.23382
 N11 N 0.28822 0.19121 0.20768
 C12 C 0.27755 0.22051 0.20201
 C13 C 0.22927 0.27971 0.21074
 N14 N 0.20348 0.29523 0.22313
 C15 C 0.19116 0.27887 0.24893
 H16 H 0.16281 0.23276 0.30475
 H17 H 0.22454 0.15449 0.29307
 H18 H 0.27455 0.15558 0.24311
 H19 H 0.28556 0.23539 0.18191
 H20 H 0.24261 0.28640 0.18869
 H21 H 0.16927 0.28478 0.26220
 C22 C -0.17834 0.79137 0.19909
 C23 C -0.17746 0.77030 0.17190
 C24 C -0.20054 0.77177 0.14616
 C25 C -0.22493 0.79447 0.14740
 C26 C -0.22581 0.81539 0.17433
 C27 C -0.20232 0.81384 0.20037
 C28 C -0.15825 0.79582 0.22683
 N29 N -0.16952 0.82037 0.24479
 C30 C -0.19635 0.83170 0.22901
 C31 C -0.25139 0.83527 0.16836
 N32 N -0.26584 0.82677 0.13867
 C33 C -0.24998 0.80198 0.12553
 C34 C -0.19301 0.74899 0.12275
 N35 N -0.16608 0.73404 0.13395
 C36 C -0.15634 0.74678 0.16383
 H37 H -0.13671 0.78260 0.23313
 H38 H -0.21009 0.85172 0.23739
 H39 H -0.25865 0.85470 0.18414
 H40 H -0.25592 0.79060 0.10168
 H41 H -0.20584 0.74389 0.09927
 H42 H -0.13524 0.73965 0.17839
 C43 C -0.21212 0.22335 -0.24476
 C44 C -0.20942 0.24324 -0.21658
 C45 C -0.23423 0.24471 -0.19360
 C46 C -0.26207 0.22632 -0.19855
 C47 C -0.26474 0.20644 -0.22630
 C48 C -0.23954 0.20493 -0.24960
 C49 C -0.19057 0.21542 -0.26945
 N50 N -0.20430 0.19277 -0.28906
 C51 C -0.23411 0.18597 -0.27726
 C52 C -0.29285 0.18937 -0.22276
 N53 N -0.30702 0.19871 -0.19379
 C54 C -0.28849 0.22112 -0.17871
 C55 C -0.22400 0.26401 -0.16750
 N56 N -0.19374 0.27412 -0.17434
 C57 C -0.18448 0.26167 -0.20414
 H58 H -0.16622 0.22447 -0.27209
 H59 H -0.25003 0.16780 -0.28718
 H60 H -0.30151 0.17062 -0.23913
 H61 H -0.29306 0.23172 -0.15434
 H62 H -0.23712 0.26960 -0.14484
 H63 H -0.16103 0.26508 -0.21538
 C64 C 0.17851 0.77238 -0.23833
 C65 C 0.18499 0.74536 -0.21986
 C66 C 0.21091 0.74481 -0.19717
 C67 C 0.23065 0.77123 -0.19260
 C68 C 0.22432 0.79794 -0.21085
 C69 C 0.19807 0.79852 -0.23389
 C70 C 0.15415 0.77999 -0.26098
 N71 N 0.15866 0.80994 -0.27028
 C72 C 0.18529 0.82160 -0.25397
 C73 C 0.24638 0.82030 -0.20003
 N74 N 0.26567 0.80761 -0.17585
 C75 C 0.25636 0.77774 -0.17098
 C76 C 0.21004 0.71657 -0.18112
 N77 N 0.18436 0.70014 -0.19363
 C78 C 0.16878 0.71739 -0.21722
 H79 H 0.13444 0.76503 -0.26970
 H80 H 0.19437 0.84518 -0.25619
 H81 H 0.24784 0.84414 -0.20855
 H82 H 0.26706 0.76216 -0.15264
 H83 H 0.22598 0.70907 -0.16082
 H84 H 0.14653 0.71064 -0.23032
 C85 C 0.23214 1.21082 0.71663
 C86 C 0.25158 1.20910 0.74581
 C87 C 0.24915 1.23158 0.77093
 C88 C 0.22726 1.25623 0.76699
 C89 C 0.20770 1.25787 0.73821
 C90 C 0.21011 1.23489 0.71284
 C91 C 0.22647 1.18974 0.69085
 N92 N 0.20163 1.20038 0.67155
 C93 C 0.19122 1.22783 0.68465
 C94 C 0.18626 1.28204 0.74314
 N95 N 0.19274 1.29496 0.77390
 C96 C 0.21750 1.27937 0.78878
 C97 C 0.26766 1.22170 0.79805
 N98 N 0.28102 1.19396 0.78965
 C99 C 0.27143 1.18598 0.75792
 H100 H 0.23785 1.16719 0.68789
 H101 H 0.17008 1.24047 0.67587
 H102 H 0.16658 1.28878 0.72636
 H103 H 0.22666 1.28359 0.81420
 H104 H 0.26980 1.23291 0.82259
 H105 H 0.27705 1.16417 0.74536
 C106 C 0.81599 0.82512 0.81153
 C107 C 0.79262 0.82682 0.83659
 C108 C 0.79238 0.80512 0.86214
 C109 C 0.81562 0.78140 0.86285
 C110 C 0.83882 0.77974 0.83802
 C111 C 0.83903 0.80175 0.81218
 C112 C 0.82240 0.84372 0.78448
 N113 N 0.84869 0.83213 0.76886
 C114 C 0.85923 0.80654 0.78540
 C115 C 0.85865 0.75497 0.84550
 N116 N 0.84789 0.74179 0.87407
 C117 C 0.82171 0.75761 0.88504
 C118 C 0.76753 0.81302 0.88331
 N119 N 0.75301 0.83884 0.87096
 C120 C 0.76802 0.84753 0.84252
 H121 H 0.80931 0.86445 0.77706
 H122 H 0.88024 0.79285 0.77880
 H123 H 0.87949 0.74729 0.83145
 H124 H 0.80838 0.75239 0.90757
 H125 H 0.76069 0.80116 0.90606
 H126 H 0.76166 0.86759 0.82752
 C127 C 0.21871 0.78895 1.24769
 C128 C 0.24273 0.78891 1.22333
 C129 C 0.24779 0.76266 1.20353
 C130 C 0.22890 0.73582 1.20835
 C131 C 0.20506 0.73587 1.23263
 C132 C 0.19977 0.76271 1.25229
 C133 C 0.20641 0.81250 1.26732
 N134 N 0.18052 0.80116 1.28365
 C135 C 0.17600 0.77083 1.27478
 C136 C 0.18855 0.70803 1.22956
 N137 N 0.20188 0.69122 1.20430
 C138 C 0.22638 0.70789 1.19097
 C139 C 0.27009 0.77078 1.17955
 N140 N 0.27836 0.80108 1.18483
 C141 C 0.26185 0.81238 1.21137
 H142 H 0.21464 0.83650 1.26832
 H143 H 0.15610 0.75631 1.28277
 H144 H 0.16746 0.70110 1.24354
 H145 H 0.24025 0.70082 1.16929
 H146 H 0.27849 0.75628 1.15899
 H147 H 0.26256 0.83634 1.22024
 C148 C 0.76941 1.20012 1.23739
 C149 C 0.74154 1.20318 1.21713
 C150 C 0.74107 1.22387 1.19056
 C151 C 0.76869 1.24203 1.18421
 C152 C 0.79625 1.23902 1.20449
 C153 C 0.79667 1.21787 1.23114
 C154 C 0.77748 1.17952 1.26242
 N155 N 0.80887 1.18448 1.27142
 C156 C 0.82102 1.20776 1.25259
 C157 C 0.81983 1.25788 1.19150
 N158 N 0.80727 1.27223 1.16406
 C159 C 0.77613 1.26276 1.15913
 C160 C 0.71211 1.21921 1.17319
 N161 N 0.69541 1.19645 1.18886
 C162 C 0.71311 1.18646 1.21560
 H163 H 0.76215 1.16132 1.27222
 H164 H 0.84599 1.21566 1.25330
 H165 H 0.84449 1.26060 1.20094
 H166 H 0.76035 1.27004 1.13861
 H167 H 0.70460 1.23020 1.14992
 H168 H 0.70658 1.16718 1.23152
 O169 O 0.52191 0.97413 0.94109
 O170 O 0.45031 0.96737 1.04232
 O171 O 0.54912 0.99745 1.02946
 O172 O 0.43599 0.96526 0.98366
 O173 O 0.51104 0.96425 1.04106
 O174 O 0.45950 0.97081 0.93565
 O175 O 0.40530 0.99175 1.02677
 O176 O 0.55468 1.00509 0.97020
 C177 C 0.54968 0.98049 0.95275
 C178 C 0.41969 0.97098 1.04620
 C179 C 0.54051 0.97016 1.03732
 C180 C 0.44018 0.95647 0.95393
 O181 O 0.45742 1.03121 0.93010
 O182 O 0.51527 1.02042 1.06916
 O183 O 0.52515 1.06153 0.97490
 O184 O 0.43453 1.04435 1.01964
 O185 O 0.45626 1.02663 1.06423
 O186 O 0.51803 1.03348 0.93040
 O187 O 0.41817 1.01965 0.96463
 O188 O 0.51620 1.05481 1.03259
 Co189 Co 0.48892 1.00279 0.94012
 Co190 Co 0.48342 0.99600 1.04882
 Co191 Co 0.53261 1.02831 1.00191
 Co192 Co 0.43900 1.00491 1.00234
 O193 O 0.48715 1.00908 0.99520
 C194 C 0.42836 1.03343 0.93892
 C195 C 0.52026 1.04813 1.06231
 C196 C 0.52610 1.05891 0.94379
 C197 C 0.44005 1.04746 1.05018
 O198 O 0.03235 0.45698 0.07529
 O199 O 0.03488 0.51645 -0.06298
 O200 O 0.05848 0.43169 -0.02812
 O201 O 0.07076 0.51638 0.03654
 O202 O 0.03221 0.45884 -0.06624
 O203 O 0.03628 0.51303 0.07548
 O204 O 0.07082 0.52148 -0.02394
 O205 O 0.06345 0.44037 0.03560
 C206 C 0.05894 0.44542 0.06616
 C207 C 0.06345 0.52286 -0.05426
 C208 C 0.05401 0.43955 -0.05815
 C209 C 0.06488 0.51801 0.06695
 O210 O -0.02389 0.51646 0.04586
 O211 O -0.02864 0.45935 -0.04865
 O212 O 0.00175 0.42282 0.03989
 O213 O 0.01276 0.55091 -0.02200
 O214 O -0.02486 0.51865 -0.03884
 O215 O -0.02937 0.46108 0.04864
 O216 O 0.01413 0.54912 0.03856
 O217 O -0.00383 0.42133 -0.02215
 Co218 Co 0.00525 0.48673 0.05674
 Co219 Co 0.00481 0.48828 -0.04831
 Co220 Co 0.02918 0.43445 0.00653
 Co221 Co 0.04031 0.53038 0.00729
 O222 O 0.01981 0.48473 0.00517
 C223 C -0.01510 0.54398 0.04418
 C224 C -0.02691 0.43128 -0.04045
 C225 C -0.02582 0.43257 0.04659
 C226 C -0.01594 0.54588 -0.03222
 O227 O 1.05137 0.01761 0.47058
 O228 O 0.92253 0.02232 0.53344
 O229 O 0.95636 0.00873 0.42969
 O230 O 1.02067 0.04299 0.53676
 O231 O 0.92533 0.02446 0.47047
 O232 O 1.05621 0.00892 0.53145
 O233 O 0.96539 0.04846 0.54557
 O234 O 1.00808 0.03426 0.44739
 C235 C 1.03722 0.03823 0.45395
 C236 C 0.93547 0.04651 0.54509
 C237 C 0.93361 0.02548 0.44021
 C238 C 1.04956 0.03654 0.53743
 O239 O 1.03046 -0.04731 0.52368
 O240 O 0.92863 -0.03666 0.46813
 O241 O 1.01617 -0.01748 0.41560
 O242 O 0.96091 -0.01040 0.57037
 O243 O 0.93087 -0.03688 0.53331
 O244 O 1.03233 -0.04202 0.46149
 O245 O 1.01869 -0.01659 0.56561
 O246 O 0.97616 -0.04544 0.44843
 Co247 Co 1.03740 -0.01434 0.49707
 Co248 Co 0.93251 -0.00643 0.50106
 Co249 Co 0.99274 -0.00543 0.45140
 Co250 Co 0.99152 0.01477 0.55053
 O251 O 0.98578 -0.00164 0.50149
 C252 C 1.02752 -0.04302 0.55471
 C253 C 0.94691 -0.05248 0.44986
 C254 C 1.03601 -0.03764 0.42989
 C255 C 0.94184 -0.03292 0.56290
 C256 C 1.06132 0.10424 0.39704
 C257 C 1.09429 0.10754 0.40547
 C258 C 1.10760 0.09038 0.43208
 C259 C 1.08845 0.06901 0.44917
 C260 C 1.17033 0.17312 0.32780
 C261 C 1.04207 0.08290 0.41417
 C262 C 1.11500 0.12659 0.38523
 C263 C 1.13256 0.14168 0.36763
 C264 C 1.15310 0.15872 0.34639
 C265 C 1.05570 0.06445 0.43980
 H266 H 1.05075 0.11736 0.37645
 H267 H 1.13306 0.09273 0.43886
 H268 H 1.09960 0.05522 0.46889
 H269 H 1.01697 0.07982 0.40633
 C270 C 0.88530 -0.10393 0.40437
 C271 C 0.90364 -0.11584 0.37788
 C272 C 0.93705 -0.10999 0.37732
 C273 C 0.95176 -0.09104 0.40222
 C274 C 0.84471 -0.16764 0.27233
 C275 C 0.89992 -0.08496 0.42924
 C276 C 0.88766 -0.13155 0.34982
 C277 C 0.87401 -0.14356 0.32580
 C278 C 0.85803 -0.15674 0.29715
 C279 C 0.93313 -0.07754 0.42789
 H280 H 0.85944 -0.10824 0.40506
 H281 H 0.95149 -0.11901 0.35688
 H282 H 0.97733 -0.08564 0.40033
 H283 H 0.88488 -0.07490 0.44860
 C284 C 0.86265 0.08848 0.57995
 C285 C 0.87749 0.11244 0.59890
 C286 C 0.91117 0.11637 0.59804
 C287 C 0.93007 0.09574 0.57926
 C288 C 0.81078 0.17737 0.68669
 C289 C 0.88147 0.06783 0.56119
 C290 C 0.85847 0.13135 0.62125
 C291 C 0.84284 0.14637 0.64098
 C292 C 0.82514 0.16327 0.66517
 C293 C 0.91546 0.07082 0.56124
 H294 H 0.83662 0.08516 0.58050
 H295 H 0.92292 0.13478 0.61272
 H296 H 0.95616 0.09863 0.57984
 H297 H 0.86949 0.04892 0.54754
 C298 C 1.06891 -0.11470 0.58973
 C299 C 1.06834 -0.10841 0.62443
 C300 C 1.05188 -0.08216 0.63636
 C301 C 1.03719 -0.06162 0.61368
 C302 C 1.13965 -0.17441 0.70858
 C303 C 1.05418 -0.09422 0.56699
 C304 C 1.08663 -0.12750 0.64756
 C305 C 1.10281 -0.14278 0.66684
 C306 C 1.12248 -0.16004 0.68937
 C307 C 1.03885 -0.06703 0.57869
 H308 H 1.08161 -0.13492 0.58018
 H309 H 1.05128 -0.07702 0.66315
 H310 H 1.02555 -0.04095 0.62352
 H311 H 1.05592 -0.09906 0.54022
 C312 C 0.38308 1.11206 1.07606
 C313 C 0.38918 1.11375 1.11090
 C314 C 0.41414 1.09596 1.12516
 C315 C 0.43198 1.07559 1.10498
 C316 C 0.30942 1.17609 1.18879
 C317 C 0.40093 1.09172 1.05580
 C318 C 0.36835 1.13188 1.13231
 C319 C 0.35026 1.14622 1.15031
 C320 C 0.32846 1.16243 1.17126
 C321 C 0.42500 1.07267 1.07023
 H322 H 0.36379 1.12568 1.06473
 H323 H 0.41911 1.09705 1.15207
 H324 H 0.45041 1.06128 1.11680
 H325 H 0.39491 1.08990 1.02915
 C326 C 0.37474 0.89496 0.94224
 C327 C 0.37890 0.88631 0.90844
 C328 C 0.40516 0.89820 0.89077
 C329 C 0.42631 0.91972 0.90628
 C330 C 0.28895 0.82248 0.84147
 C331 C 0.39593 0.91647 0.95785
 C332 C 0.35487 0.86739 0.89096
 C333 C 0.33436 0.85258 0.87567
 C334 C 0.30999 0.83611 0.85729
 C335 C 0.42145 0.92972 0.93972
 H336 H 0.35445 0.88597 0.95614
 H337 H 0.40859 0.89173 0.86460
 H338 H 0.44567 0.92948 0.89160
 H339 H 0.39142 0.92377 0.98357
 C340 C 0.58152 0.89790 1.07207
 C341 C 0.61429 0.90584 1.06888
 C342 C 0.62271 0.93375 1.05337
 C343 C 0.59861 0.95412 1.04214
 C344 C 0.70933 0.84131 1.12411
 C345 C 0.55729 0.91824 1.06066
 C346 C 0.63943 0.88654 1.08324
 C347 C 0.66105 0.87148 1.09579
 C348 C 0.68692 0.85485 1.11094
 C349 C 0.56562 0.94687 1.04614
 H350 H 0.57470 0.87638 1.08410
 H351 H 0.64795 0.94019 1.05076
 H352 H 0.60588 0.97596 1.03113
 H353 H 0.53213 0.91200 1.06415
 C354 C 0.57452 1.12999 0.91955
 C355 C 0.57720 1.12516 0.88474
 C356 C 0.56034 1.10056 0.86891
 C357 C 0.54210 1.07997 0.88799
 C358 C 0.66772 1.18515 0.82021
 C359 C 0.55624 1.10943 0.93871
 C360 C 0.59992 1.14324 0.86595
 C361 C 0.62024 1.15724 0.85071
 C362 C 0.64532 1.17261 0.83373
 C363 C 0.54064 1.08366 0.92323
 H364 H 0.58762 1.14888 0.93209
 H365 H 0.56235 1.09652 0.84201
 H366 H 0.53028 1.06040 0.87532
 H367 H 0.55561 1.11286 0.96579
 C368 C 0.13305 0.40636 0.10334
 C369 C 0.12444 0.40360 0.13711
 C370 C 0.09586 0.41741 0.14842
 C371 C 0.07523 0.43269 0.12566
 C372 C 0.18833 0.32064 0.20764
 C373 C 0.11246 0.42148 0.08058
 C374 C 0.14303 0.38353 0.15882
 C375 C 0.15800 0.36504 0.17554
 C376 C 0.17475 0.34174 0.19352
 C377 C 0.08285 0.43397 0.09128
 H378 H 0.15503 0.39565 0.09428
 H379 H 0.08887 0.41526 0.17448
 H380 H 0.05264 0.44216 0.13465
 H381 H 0.11913 0.42227 0.05432
 C382 C -0.07331 0.35663 -0.06034
 C383 C -0.09778 0.36760 -0.08200
 C384 C -0.10011 0.39947 -0.08843
 C385 C -0.07757 0.42025 -0.07410
 C386 C -0.17435 0.29315 -0.15325
 C387 C -0.05068 0.37742 -0.04589
 C388 C -0.11931 0.34627 -0.09951
 C389 C -0.13704 0.32907 -0.11552
 C390 C -0.15737 0.30955 -0.13547
 C391 C -0.05225 0.40941 -0.05313
 H392 H -0.07128 0.33196 -0.05526
 H393 H -0.11892 0.40819 -0.10521
 H394 H -0.07958 0.44472 -0.08011
 H395 H -0.03156 0.36838 -0.02974
 C396 C 0.09393 0.56209 -0.13235
 C397 C 0.12275 0.57566 -0.12004
 C398 C 0.13417 0.56857 -0.08759
 C399 C 0.11591 0.54945 -0.06682
 C400 C 0.17304 0.67198 -0.18063
 C401 C 0.07563 0.54295 -0.11163
 C402 C 0.13826 0.59987 -0.13876
 C403 C 0.15012 0.62156 -0.15318
 C404 C 0.16289 0.64827 -0.16862
 C405 C 0.08586 0.53737 -0.07822
 H406 H 0.08478 0.56755 -0.15736
 H407 H 0.15636 0.57908 -0.07773
 H408 H 0.12446 0.54557 -0.04124
 H409 H 0.05264 0.53394 -0.12116
 C410 C -0.04762 0.62514 0.05999
 C411 C -0.08001 0.61882 0.06734
 C412 C -0.09153 0.58811 0.06578
 C413 C -0.07057 0.56372 0.05762
 C414 C -0.15003 0.70973 0.11735
 C415 C -0.02662 0.60081 0.05192
 C416 C -0.10066 0.64360 0.07882
 C417 C -0.11715 0.66441 0.08973
 C418 C -0.13542 0.68884 0.10396
 C419 C -0.03776 0.56980 0.05109
 H420 H -0.03841 0.64881 0.06121
 H421 H -0.11653 0.58293 0.07155
 H422 H -0.07988 0.54010 0.05699
 H423 H -0.00154 0.60624 0.04682
 C424 C 1.12794 0.07432 0.56825
 C425 C 1.11797 0.10527 0.57266
 C426 C 1.08659 0.11396 0.56299
 C427 C 1.06478 0.09166 0.55030
 C428 C 1.18596 0.18320 0.64849
 C429 C 1.10611 0.05190 0.55536
 C430 C 1.13840 0.12742 0.59045
 C431 C 1.15420 0.14579 0.60711
 C432 C 1.17160 0.16656 0.62856
 C433 C 1.07407 0.06028 0.54714
 H434 H 1.15215 0.06731 0.57589
 H435 H 1.07857 0.13778 0.56645
 H436 H 1.04031 0.09883 0.54390
 H437 H 1.11387 0.02790 0.55309
 C438 C 0.89834 -0.09728 0.60880
 C439 C 0.91106 -0.09345 0.64154
 C440 C 0.93437 -0.07037 0.64838
 C441 C 0.94461 -0.05086 0.62271
 C442 C 0.86261 -0.15497 0.74259
 C443 C 0.90859 -0.07783 0.58304
 C444 C 0.89893 -0.11196 0.66853
 C445 C 0.88815 -0.12656 0.69154
 C446 C 0.87477 -0.14247 0.71890
 C447 C 0.93160 -0.05418 0.58981
 H448 H 0.88017 -0.11500 0.60329
 H449 H 0.94428 -0.06714 0.67367
 H450 H 0.96246 -0.03299 0.62873
 H451 H 0.89819 -0.08104 0.55797
 C452 C 1.09049 -0.10486 0.40696
 C453 C 1.09021 -0.10335 0.37178
 C454 C 1.07270 -0.07986 0.35545
 C455 C 1.05530 -0.05806 0.37429
 C456 C 1.16089 -0.18154 0.30207
 C457 C 1.07315 -0.08315 0.42580
 C458 C 1.10843 -0.12562 0.35263
 C459 C 1.12427 -0.14403 0.33686
 C460 C 1.14359 -0.16484 0.31834
 C461 C 1.05528 -0.05961 0.40966
 H462 H 1.10409 -0.12285 0.41984
 H463 H 1.07247 -0.07843 0.32819
 H464 H 1.04173 -0.04020 0.36122
 H465 H 1.07358 -0.08494 0.45301
 C466 C 0.87626 0.08701 0.40688
 C467 C 0.88639 0.08969 0.37359
 C468 C 0.91155 0.07095 0.36181
 C469 C 0.92670 0.04971 0.38334
 C470 C 0.82573 0.16670 0.29238
 C471 C 0.89135 0.06582 0.42845
 C472 C 0.87068 0.11144 0.35146
 C473 C 0.85709 0.12942 0.33297
 C474 C 0.84054 0.14991 0.31121
 C475 C 0.91681 0.04698 0.41694
 H476 H 0.85674 0.10136 0.41620
 H477 H 0.91951 0.07280 0.33603
 H478 H 0.94629 0.03564 0.37375
 H479 H 0.88323 0.06435 0.45419
 C480 C 0.11822 0.39007 -0.09924
 C481 C 0.11035 0.39320 -0.13346
 C482 C 0.08512 0.41304 -0.14335
 C483 C 0.06731 0.42910 -0.11894
 C484 C 0.17530 0.31669 -0.21087
 C485 C 0.10047 0.40592 -0.07491
 C486 C 0.12730 0.37445 -0.15774
 C487 C 0.14199 0.35734 -0.17627
 C488 C 0.15972 0.33593 -0.19588
 C489 C 0.07447 0.42524 -0.08440
 H490 H 0.13766 0.37477 -0.09129
 H491 H 0.07878 0.41558 -0.16979
 H492 H 0.04743 0.44379 -0.12704
 H493 H 0.10675 0.40250 -0.04859
 C494 C -0.07113 0.35809 0.06550
 C495 C -0.09966 0.36974 0.07937
 C496 C -0.10493 0.40194 0.08047
 C497 C -0.08136 0.42244 0.06872
 C498 C -0.17553 0.29293 0.14389
 C499 C -0.04751 0.37854 0.05380
 C500 C -0.12217 0.34884 0.09491
 C501 C -0.14006 0.33129 0.10920
 C502 C -0.15981 0.31065 0.12731
 C503 C -0.05209 0.41095 0.05593
 H504 H -0.06674 0.33322 0.06460
 H505 H -0.12685 0.41124 0.09126
 H506 H -0.08562 0.44728 0.07059
 H507 H -0.02533 0.36900 0.04386
 C508 C -0.04631 0.62820 -0.04327
 C509 C -0.07709 0.62288 -0.05758
 C510 C -0.08870 0.59237 -0.06178
 C511 C -0.06918 0.56720 -0.05261
 C512 C -0.13853 0.71769 -0.11073
 C513 C -0.02673 0.60310 -0.03421
 C514 C -0.09551 0.64862 -0.07042
 C515 C -0.10994 0.67032 -0.08229
 C516 C -0.12577 0.69583 -0.09725
 C517 C -0.03773 0.57232 -0.03934
 H518 H -0.03708 0.65173 -0.03999
 H519 H -0.11247 0.58803 -0.07295
 H520 H -0.07837 0.54376 -0.05670
 H521 H -0.00271 0.60781 -0.02387
 C522 C 0.10108 0.55723 0.14466
 C523 C 0.13074 0.56771 0.13236
 C524 C 0.14062 0.55815 0.10032
 C525 C 0.12007 0.53983 0.07981
 C526 C 0.18922 0.66322 0.19100
 C527 C 0.08049 0.53886 0.12419
 C528 C 0.14875 0.59158 0.15041
 C529 C 0.16265 0.61309 0.16422
 C530 C 0.17757 0.63964 0.17912
 C531 C 0.08925 0.53104 0.09106
 H532 H 0.09311 0.56462 0.16935
 H533 H 0.16344 0.56624 0.09047
 H534 H 0.12754 0.53411 0.05445
 H535 H 0.05694 0.53240 0.13356
 C536 C 0.39786 1.08915 0.87247
 C537 C 0.36673 1.09579 0.88374
 C538 C 0.35511 1.08117 0.91252
 C539 C 0.37483 1.06027 0.93025
 C540 C 0.29865 1.17455 0.81133
 C541 C 0.41756 1.06836 0.89008
 C542 C 0.34706 1.11772 0.86554
 C543 C 0.33140 1.13607 0.84936
 C544 C 0.31367 1.15718 0.82934
 C545 C 0.40639 1.05382 0.91931
 H546 H 0.40705 1.10026 0.85017
 H547 H 0.33098 1.08613 0.92141
 H548 H 0.36559 1.04957 0.95273
 H549 H 0.44172 1.06397 0.88096
 C550 C 0.39912 0.90051 1.09803
 C551 C 0.36524 0.90121 1.09721
 C552 C 0.34905 0.92526 1.08041
 C553 C 0.36670 0.94841 1.06421
 C554 C 0.29780 0.81949 1.16436
 C555 C 0.41679 0.92358 1.08187
 C556 C 0.34718 0.87761 1.11426
 C557 C 0.33202 0.85829 1.12917
 C558 C 0.31390 0.83664 1.14759
 C559 C 0.40076 0.94767 1.06465
 H560 H 0.41189 0.88211 1.11112
 H561 H 0.32281 0.92610 1.07980
 H562 H 0.35371 0.96665 1.05113
 H563 H 0.44300 0.92239 1.08263
 C564 C 0.56889 1.08216 1.13565
 C565 C 0.57260 1.11303 1.12516
 C566 C 0.55600 1.12327 1.09636
 C567 C 0.53722 1.10240 1.07705
 C568 C 0.66734 1.18146 1.17646
 C569 C 0.54993 1.06120 1.11638
 C570 C 0.59639 1.13309 1.14124
 C571 C 0.61764 1.14937 1.15315
 C572 C 0.64388 1.16737 1.16592
 C573 C 0.53486 1.07093 1.08627
 H574 H 0.58183 1.07394 1.15781
 H575 H 0.55881 1.14703 1.08792
 H576 H 0.52574 1.11055 1.05403
 H577 H 0.54859 1.03707 1.12395
 C578 C 0.59768 0.91245 0.91868
 C579 C 0.62926 0.92086 0.92857
 C580 C 0.63484 0.94857 0.94673
 C581 C 0.60893 0.96801 0.95467
 C582 C 0.72697 0.85467 0.88527
 C583 C 0.57174 0.93181 0.92665
 C584 C 0.65603 0.90183 0.91854
 C585 C 0.67843 0.88634 0.90910
 C586 C 0.70460 0.86888 0.89682
 C587 C 0.57712 0.95992 0.94454
 H588 H 0.59315 0.89110 0.90449
 H589 H 0.65924 0.95533 0.95436
 H590 H 0.61385 0.98948 0.96849
 H591 H 0.54752 0.92485 0.91864
   
