data_POSCAR
  _audit_creation_date              2014-09-24
  _audit_creation_method            'ToBaCCo'
  _symmetry_space_group_name_H-M    'P1'
  _symmetry_Int_Tables_number       1
  _symmetry_cell_setting            triclinic
  loop_
  _symmetry_equiv_pos_as_xyz
 x,y,z
_cell_length_a 29.8192
_cell_length_b 27.9437
_cell_length_c 26.6595
_cell_angle_alpha 93.632600
_cell_angle_beta 87.297600
_cell_angle_gamma 86.055500
loop_
  _atom_site_label
  _atom_site_type_symbol
  _atom_site_fract_x
  _atom_site_fract_y
  _atom_site_fract_z
C1 C 0.11165 1.28414 0.18503
 C2 C 0.15279 1.25776 0.19011
 C3 C 0.15692 1.22516 0.22718
 C4 C 0.11992 1.21945 0.26054
 C5 C 0.08003 1.24674 0.25614
 C6 C 0.07579 1.27876 0.21824
 C7 C 0.09673 1.31609 0.15088
 N8 N 0.05267 1.32983 0.16293
 C9 C 0.03990 1.30747 0.20452
 C10 C 0.05006 1.23531 0.29315
 N11 N 0.07031 1.20124 0.32030
 C12 C 0.11312 1.19106 0.30056
 C13 C 0.20086 1.20562 0.22345
 N14 N 0.22328 1.22640 0.18602
 C15 C 0.19418 1.25803 0.16530
 H16 H 0.11614 1.32748 0.11898
 H17 H 0.00652 1.31022 0.22267
 H18 H 0.01574 1.25054 0.29916
 H19 H 0.13755 1.16532 0.31446
 H20 H 0.21591 1.17986 0.24751
 H21 H 0.20277 1.28031 0.13499
 C22 C 0.81350 0.80437 0.13244
 C23 C 0.79018 0.84007 0.16473
 C24 C 0.80756 0.85432 0.21005
 C25 C 0.84879 0.83272 0.22362
 C26 C 0.87167 0.79708 0.19184
 C27 C 0.85395 0.78294 0.14582
 C28 C 0.80448 0.78417 0.08598
 N29 N 0.83857 0.75086 0.07068
 C30 C 0.86899 0.74988 0.10708
 C31 C 0.91054 0.78283 0.21434
 N32 N 0.91203 0.80921 0.25883
 C33 C 0.87438 0.83977 0.26476
 C34 C 0.77761 0.88971 0.23323
 N35 N 0.74272 0.89690 0.20287
 C36 C 0.75023 0.86676 0.16098
 H37 H 0.77518 0.79325 0.06510
 H38 H 0.89982 0.72683 0.10552
 H39 H 0.93604 0.75580 0.19887
 H40 H 0.86629 0.86549 0.29656
 H41 H 0.78103 0.90871 0.26934
 H42 H 0.72815 0.86447 0.12994
 C43 C 0.74856 1.22903 -0.22402
 C44 C 0.71332 1.20239 -0.20698
 C45 C 0.72056 1.15324 -0.20406
 C46 C 0.76251 1.12991 -0.21917
 C47 C 0.79734 1.15611 -0.23564
 C48 C 0.79063 1.20624 -0.23695
 C49 C 0.75193 1.27748 -0.22835
 N50 N 0.79537 1.28479 -0.24182
 C51 C 0.81926 1.24143 -0.24715
 C52 C 0.83310 1.12368 -0.25062
 N53 N 0.82045 1.07853 -0.24418
 C54 C 0.77757 1.08217 -0.22388
 C55 C 0.68213 1.13710 -0.18261
 N56 N 0.65175 1.17520 -0.17230
 C57 C 0.67025 1.21534 -0.18738
 H58 H 0.72534 1.30544 -0.21914
 H59 H 0.85501 1.23598 -0.25682
 H60 H 0.86510 1.13219 -0.26747
 H61 H 0.75764 1.05237 -0.21586
 H62 H 0.67724 1.10062 -0.17321
 H63 H 0.65458 1.25152 -0.18185
 C64 C 0.29544 0.70233 -0.17101
 C65 C 0.32539 0.73464 -0.15208
 C66 C 0.32808 0.77870 -0.17228
 C67 C 0.30104 0.79098 -0.21169
 C68 C 0.27023 0.75994 -0.22930
 C69 C 0.26705 0.71528 -0.20833
 C70 C 0.28448 0.65810 -0.15666
 N71 N 0.24935 0.64417 -0.18335
 C72 C 0.23814 0.67909 -0.21475
 C73 C 0.24690 0.78301 -0.26544
 N74 N 0.26337 0.82679 -0.27037
 C75 C 0.29630 0.83193 -0.23730
 C76 C 0.35497 0.80524 -0.14251
 N77 N 0.36807 0.77864 -0.10425
 C78 C 0.35063 0.73509 -0.11011
 H79 H 0.29953 0.63882 -0.12698
 H80 H 0.21082 0.67839 -0.24008
 H81 H 0.22001 0.76895 -0.28658
 H82 H 0.31519 0.86333 -0.23150
 H83 H 0.36158 0.84253 -0.14612
 H84 H 0.35310 0.70724 -0.08377
 C85 C 0.55317 1.06693 0.01228
 H86 H 0.57556 1.04520 0.03365
 C87 C 0.57110 1.09244 -0.02626
 H88 H 0.60718 1.08988 -0.03411
 C89 C 0.47934 1.09742 -0.00318
 H90 H 0.44353 1.09904 0.00612
 C91 C 0.49596 1.12428 -0.04155
 H92 H 0.47267 1.14624 -0.06186
 N93 N 0.50799 1.06962 0.02297
 C94 C 0.39586 1.06530 0.11790
 H95 H 0.38765 1.02925 0.10665
 C96 C 0.36155 1.09967 0.13578
 H97 H 0.32712 1.08965 0.13840
 C98 C 0.45011 1.12317 0.12491
 H99 H 0.48456 1.13233 0.11916
 C100 C 0.41687 1.15868 0.14240
 H101 H 0.42635 1.19486 0.15102
 Zn102 Zn 0.48381 1.03594 0.07637
 N103 N 0.43899 1.07786 0.11190
 C104 C 0.53597 1.03793 0.16424
 N105 N 0.53046 1.01626 0.11800
 C106 C 0.55891 0.97884 0.09872
 C107 C 0.59548 0.96277 0.12529
 C108 C 0.57232 1.02293 0.19228
 C109 C 0.44861 0.94586 0.08193
 C110 C 0.43430 0.90189 0.06340
 C111 C 0.44029 0.92934 -0.02064
 C112 C 0.45503 0.97251 -0.00059
 N113 N 0.45897 0.97989 0.04986
 H114 H 0.51263 1.06725 0.17915
 H115 H 0.55353 0.96195 0.06206
 H116 H 0.61800 0.93335 0.10867
 H117 H 0.57648 1.04116 0.22857
 H118 H 0.45244 0.95257 0.12186
 H119 H 0.42637 0.87529 0.08959
 H120 H 0.43761 0.92395 -0.06095
 H121 H 0.46391 0.99978 -0.02549
 C122 C 0.37171 1.14741 0.14653
 C123 C 0.54247 1.12191 -0.05336
 C124 C 0.43036 0.89311 0.01138
 C125 C 0.60295 0.98512 0.17247
 C126 C -0.03282 0.58257 0.93686
 H127 H 0.00098 0.57506 0.94879
 C128 C -0.05959 0.62166 0.95959
 H129 H -0.04597 0.64448 0.98862
 C130 C -0.09230 0.56045 0.88637
 H131 H -0.10592 0.53542 0.85976
 C132 C -0.12007 0.59942 0.90773
 H133 H -0.15435 0.60395 0.89632
 N134 N -0.04938 0.55291 0.90089
 C135 C 0.03731 0.45449 0.95792
 H136 H 0.06780 0.46441 0.93911
 C137 C 0.03974 0.43225 1.00343
 H138 H 0.07223 0.42462 1.01883
 C139 C -0.04219 0.45382 0.96233
 H140 H -0.07406 0.46262 0.94611
 C141 C -0.04134 0.43206 1.00783
 H142 H -0.07286 0.42360 1.02569
 Zn143 Zn -0.01192 0.49709 0.87884
 N144 N -0.00333 0.46441 0.93819
 C145 C 0.07768 0.47970 0.84079
 N146 N 0.04352 0.51436 0.85026
 C147 C 0.04973 0.56131 0.84327
 C148 C 0.09261 0.57549 0.83070
 C149 C 0.12128 0.49239 0.82919
 C150 C -0.04579 0.41061 0.84223
 C151 C -0.07547 0.38337 0.81569
 C152 C -0.09214 0.45101 0.76589
 C153 C -0.06107 0.47651 0.79247
 N154 N -0.04110 0.45718 0.83212
 H155 H 0.07160 0.44249 0.84553
 H156 H 0.02185 0.58816 0.84959
 H157 H 0.09748 0.61333 0.82816
 H158 H 0.14865 0.46468 0.82485
 H159 H -0.02846 0.39530 0.87279
 H160 H -0.08111 0.34749 0.82659
 H161 H -0.11068 0.46823 0.73720
 H162 H -0.05588 0.51322 0.78432
 C163 C 0.00000 0.42122 1.02916
 C164 C -0.10387 0.63038 0.94518
 C165 C -0.10095 0.40459 0.77908
 C166 C 0.12928 0.54107 0.82596
 C167 C 1.13301 -0.04172 0.55776
 H168 H 1.13096 -0.00881 0.53857
 C169 C 1.17116 -0.05364 0.58401
 H170 H 1.19831 -0.02995 0.58344
 C171 C 1.09908 -0.11103 0.58340
 H172 H 1.07021 -0.13245 0.58399
 C173 C 1.13658 -0.12428 0.61025
 H174 H 1.13645 -0.15627 0.63113
 N175 N 1.09774 -0.07002 0.55847
 C176 C 1.01717 0.04798 0.51735
 H177 H 0.99324 0.04533 0.54844
 C178 C 1.01573 0.08985 0.49166
 H179 H 0.99159 0.11910 0.50487
 C180 C 1.07566 0.01233 0.46108
 H181 H 1.09811 -0.01867 0.44868
 C182 C 1.07525 0.05370 0.43406
 H183 H 1.09762 0.05440 0.40095
 Zn184 Zn 1.04273 -0.04936 0.53188
 N185 N 1.04664 0.01009 0.50172
 C186 C 1.00455 -0.00875 0.62409
 N187 N 0.99899 -0.04240 0.58615
 C188 C 0.96272 -0.06937 0.58658
 C189 C 0.92872 -0.06066 0.62455
 C190 C 0.97081 0.00206 0.66197
 C191 C 1.05057 -0.13372 0.46407
 C192 C 1.03742 -0.16223 0.42300
 C193 C 0.97217 -0.10679 0.41799
 C194 C 0.98660 -0.07941 0.45882
 N195 N 1.02515 -0.09310 0.48089
 H196 H 1.03423 0.01145 0.62336
 H197 H 0.95954 -0.09690 0.55690
 H198 H 0.89919 -0.08108 0.62316
 H199 H 0.97452 0.03073 0.69043
 H200 H 1.08152 -0.14345 0.48168
 H201 H 1.05838 -0.19409 0.40994
 H202 H 0.94162 -0.09476 0.40068
 H203 H 0.96743 -0.04652 0.47256
 C204 C 1.04420 0.09268 0.44864
 C205 C 1.17280 -0.09480 0.61181
 C206 C 0.99791 -0.14848 0.39906
 C207 C 0.93206 -0.02356 0.66194
 C208 C 0.02532 0.35860 1.13626
 C209 C -0.01928 0.37197 1.14993
 C210 C -0.03454 0.39792 1.11201
 C211 C 0.00169 0.39847 1.07777
 O212 O 0.03828 0.37491 1.09271
 H213 H -0.03872 0.36378 1.18316
 H214 H -0.06822 0.41441 1.10991
 C215 C -0.15805 0.72275 1.02690
 C216 C -0.18946 0.72347 0.99041
 C217 C -0.17326 0.68915 0.95425
 C218 C -0.13318 0.67009 0.97126
 O219 O -0.12388 0.69064 1.01529
 H220 H -0.22050 0.74584 0.99002
 H221 H -0.18894 0.67947 0.91965
 C222 C -0.18693 0.32815 0.75527
 C223 C -0.21189 0.37118 0.75168
 C224 C -0.18158 0.40547 0.75485
 C225 C -0.14060 0.38097 0.76117
 O226 O -0.14376 0.33393 0.76095
 H227 H -0.24784 0.37708 0.74846
 H228 H -0.18913 0.44399 0.75653
 C229 C 0.22742 0.60365 0.82269
 C230 C 0.24413 0.56484 0.84747
 C231 C 0.21057 0.53422 0.84806
 C232 C 0.17558 0.55687 0.82442
 O233 O 0.18589 0.59896 0.80860
 H234 H 0.27646 0.55967 0.86388
 H235 H 0.21057 0.50087 0.86660
 C236 C 1.05059 0.18088 0.36003
 C237 C 1.00834 0.19562 0.38131
 C238 C 1.00107 0.16553 0.41835
 C239 C 1.03921 0.13433 0.41712
 O240 O 1.06947 0.14366 0.38161
 H241 H 0.98521 0.22451 0.37119
 H242 H 0.97065 0.16558 0.44210
 C243 C 1.24897 -0.14009 0.69752
 C244 C 1.26813 -0.09709 0.69126
 C245 C 1.24308 -0.07485 0.65701
 C246 C 1.21031 -0.10571 0.64486
 O247 O 1.21400 -0.14547 0.66944
 H248 H 1.29661 -0.08316 0.70947
 H249 H 1.24776 -0.03964 0.64388
 C250 C 0.94556 -0.19307 0.29171
 C251 C 0.98339 -0.22477 0.28640
 C252 C 1.00809 -0.21335 0.32672
 C253 C 0.98360 -0.17547 0.35356
 O254 O 0.94560 -0.16335 0.33228
 H255 H 0.99230 -0.25251 0.25678
 H256 H 1.04050 -0.23018 0.33464
 C257 C 0.84485 0.03719 0.73899
 C258 C 0.83029 -0.00853 0.74200
 C259 C 0.86215 -0.03815 0.71494
 C260 C 0.89383 -0.00843 0.69784
 O261 O 0.88357 0.03723 0.71270
 H262 H 0.79954 -0.01909 0.75992
 H263 H 0.86169 -0.07662 0.70746
 C264 C 0.27053 1.21920 0.17285
 C265 C 0.29626 1.25490 0.15679
 C266 C 0.33828 1.23320 0.14704
 C267 C 0.33499 1.18565 0.15743
 O268 O 0.29365 1.17709 0.17326
 H269 H 0.28553 1.29211 0.15236
 H270 H 0.36732 1.24977 0.13203
 C271 C 0.60991 1.17324 -0.14412
 C272 C 0.57407 1.20721 -0.14337
 C273 C 0.54263 1.19184 -0.11023
 C274 C 0.56207 1.14999 -0.09302
 O275 O 0.60285 1.13874 -0.11375
 H276 H 0.57137 1.23931 -0.16399
 H277 H 0.51017 1.20991 -0.09880
 C278 C 0.39000 0.79716 -0.06113
 C279 C 0.39929 0.77194 -0.01956
 C280 C 0.41609 0.80441 0.01369
 C281 C 0.41574 0.84697 -0.01015
 O282 O 0.40003 0.84244 -0.05563
 H283 H 0.39381 0.73480 -0.01369
 H284 H 0.42721 0.79765 0.05079
 C285 C 0.70404 0.93037 0.21177
 C286 C 0.69519 0.96119 0.25407
 C287 C 0.65547 0.98627 0.24582
 C288 C 0.64322 0.96874 0.19907
 O289 O 0.67279 0.93484 0.17862
 H290 H 0.71512 0.96510 0.28675
 H291 H 0.63796 1.01402 0.27096
   
