data_POSCAR
  _audit_creation_date              2014-09-24
  _audit_creation_method            'ToBaCCo'
  _symmetry_space_group_name_H-M    'P1'
  _symmetry_Int_Tables_number       1
  _symmetry_cell_setting            triclinic
  loop_
  _symmetry_equiv_pos_as_xyz
 x,y,z
_cell_length_a 28.9510
_cell_length_b 20.7720
_cell_length_c 20.7162
_cell_angle_alpha 90.126300
_cell_angle_beta 89.897100
_cell_angle_gamma 89.777400
loop_
  _atom_site_label
  _atom_site_type_symbol
  _atom_site_fract_x
  _atom_site_fract_y
  _atom_site_fract_z
Si1 Si 1.25492 0.25062 0.25166
 Si2 Si 0.75541 -0.25137 0.25027
 Si3 Si 0.75591 0.24594 -0.24655
 Si4 Si 1.25381 -0.24999 -0.25215
 Si5 Si 0.25447 0.24141 0.75309
 Si6 Si 0.75532 0.75994 0.74840
 Si7 Si 0.75351 0.25329 0.24585
 Si8 Si 0.25392 0.74079 0.25336
 O9 O 1.07081 0.09519 0.13649
 O10 O 1.12136 0.04223 0.06931
 C11 C 1.11216 0.08009 0.11751
 O12 O 0.93839 -0.12935 0.10293
 O13 O 0.88942 -0.05833 0.05237
 C14 C 0.89754 -0.10771 0.08859
 O15 O 1.06812 -0.12952 0.11136
 O16 O 1.12050 -0.06499 0.05936
 C17 C 1.11009 -0.11157 0.09833
 O18 O 0.94142 0.10217 0.13161
 O19 O 0.89087 0.05234 0.06262
 C20 C 0.90011 0.08981 0.11069
 Zr21 Zr 1.00622 0.06829 0.09736
 O22 O 1.00216 0.05148 0.19804
 O23 O 1.00617 0.16863 0.11547
 Zr24 Zr 1.00407 -0.09345 0.07664
 O25 O 1.00199 -0.11503 0.17636
 O26 O 1.00391 -0.19258 0.05358
 O27 O 1.04607 -0.01554 0.10050
 O28 O 0.96492 -0.01229 0.09812
 O29 O 0.94465 0.13055 -0.09210
 O30 O 0.89217 0.06405 -0.04318
 C31 C 0.90261 0.11304 -0.07904
 O32 O 1.06990 -0.09894 -0.12609
 O33 O 1.12089 -0.05436 -0.05422
 C34 C 1.11141 -0.08737 -0.10569
 O35 O 0.93992 -0.10305 -0.12004
 O36 O 0.88990 -0.04724 -0.05406
 C37 C 0.89874 -0.08696 -0.10066
 O38 O 1.07469 0.11730 -0.09744
 O39 O 1.12358 0.05024 -0.04151
 C40 C 1.11545 0.09590 -0.08217
 Zr41 Zr 1.00844 0.08781 -0.06506
 O42 O 1.00429 0.10090 -0.16621
 O43 O 1.01513 0.18841 -0.05197
 Zr44 Zr 1.00541 -0.07388 -0.08443
 O45 O 1.00077 -0.06589 -0.18603
 O46 O 1.00878 -0.17542 -0.09273
 Zr47 Zr 1.07475 -0.00526 0.00749
 Zr48 Zr 0.93743 0.00060 0.00510
 O49 O 0.96700 0.01009 -0.08732
 O50 O 1.04803 0.00671 -0.08653
 O51 O 0.96664 0.09263 0.01697
 O52 O 1.04519 -0.09681 -0.00466
 O53 O 1.04759 0.08829 0.01801
 O54 O 0.96311 -0.09398 -0.00578
 H55 H 0.94354 -0.01559 0.13534
 H56 H 1.06602 -0.13456 -0.00888
 H57 H 0.94660 0.01526 -0.12535
 H58 H 1.06940 0.12473 0.02166
 H59 H 1.00410 -0.21568 0.09537
 H60 H 0.98231 -0.19329 -0.06841
 H61 H 1.02351 -0.03324 -0.19969
 H62 H 1.02900 0.07444 -0.18606
 H63 H 0.99084 0.20200 -0.02106
 H64 H 1.02474 0.18941 0.08139
 H65 H 1.02942 0.02547 0.21063
 H66 H 0.99368 -0.07486 0.19922
 O67 O 1.06817 0.59220 0.63781
 O68 O 1.11975 0.54209 0.56977
 C69 C 1.10986 0.57810 0.61909
 O70 O 0.93715 0.36633 0.59646
 O71 O 0.88725 0.43789 0.54892
 C72 C 0.89592 0.38694 0.58298
 O73 O 1.06582 0.36943 0.60846
 O74 O 1.11859 0.43529 0.55898
 C75 C 1.10771 0.38815 0.59700
 O76 O 0.93931 0.60569 0.62504
 O77 O 0.88822 0.54953 0.56201
 C78 C 0.89787 0.59179 0.60595
 Zr79 Zr 1.00372 0.56676 0.59656
 O80 O 0.99552 0.54847 0.69647
 O81 O 1.00982 0.66612 0.61705
 Zr82 Zr 1.00244 0.40628 0.57431
 O83 O 0.99518 0.39345 0.67519
 O84 O 1.00725 0.30537 0.56087
 O85 O 1.04425 0.48401 0.59920
 O86 O 0.96238 0.48600 0.59619
 O87 O 0.94229 0.62850 0.40670
 O88 O 0.88959 0.56157 0.45439
 C89 C 0.90029 0.61024 0.41829
 O90 O 1.07073 0.40357 0.37282
 O91 O 1.12083 0.44826 0.44596
 C92 C 1.11195 0.41523 0.39429
 O93 O 0.94161 0.39585 0.37687
 O94 O 0.88948 0.44846 0.44194
 C95 C 0.89981 0.40929 0.39527
 O96 O 1.07113 0.62374 0.40462
 O97 O 1.12094 0.55582 0.45765
 C98 C 1.11230 0.60354 0.41913
 Zr99 Zr 1.00615 0.58842 0.43506
 O100 O 1.00379 0.60110 0.33378
 O101 O 1.01101 0.68921 0.44915
 Zr102 Zr 1.00570 0.42802 0.41306
 O103 O 1.00435 0.44781 0.31303
 O104 O 1.01109 0.32753 0.39690
 Zr105 Zr 1.07358 0.49620 0.50674
 Zr106 Zr 0.93520 0.49871 0.50293
 O107 O 0.96556 0.51023 0.41129
 O108 O 1.04747 0.50913 0.41289
 O109 O 0.96387 0.59115 0.51621
 O110 O 1.04434 0.40456 0.49333
 O111 O 1.04511 0.58883 0.51842
 O112 O 0.96282 0.40533 0.49073
 H113 H 0.94050 0.48203 0.63279
 H114 H 1.06511 0.36681 0.48875
 H115 H 0.94530 0.51492 0.37307
 H116 H 1.06586 0.62631 0.52379
 H117 H 0.98321 0.29302 0.52940
 H118 H 0.98549 0.30673 0.42053
 H119 H 1.00381 0.40547 0.29094
 H120 H 1.02646 0.57086 0.31453
 H121 H 0.98339 0.70341 0.47363
 H122 H 0.99572 0.68931 0.58042
 H123 H 1.02429 0.52798 0.71209
 H124 H 1.01999 0.41842 0.69623
 O125 O 0.56463 0.09536 0.63284
 O126 O 0.61758 0.05263 0.56205
 C127 C 0.60681 0.08538 0.61350
 O128 O 0.44301 -0.13646 0.59360
 O129 O 0.39020 -0.06969 0.54492
 C130 C 0.40091 -0.11886 0.58036
 O131 O 0.57329 -0.12258 0.59922
 O132 O 0.62179 -0.05198 0.54734
 C133 C 0.61392 -0.09974 0.58556
 O134 O 0.43472 0.09548 0.62467
 O135 O 0.38563 0.04117 0.55664
 C136 C 0.39378 0.07947 0.60464
 Zr137 Zr 0.50105 0.06912 0.58944
 O138 O 0.49663 0.06192 0.69106
 O139 O 0.50016 0.17069 0.59462
 Zr140 Zr 0.50656 -0.09205 0.56824
 O141 O 0.50237 -0.10671 0.66923
 O142 O 0.51218 -0.19196 0.55039
 O143 O 0.54490 -0.01063 0.59153
 O144 O 0.46369 -0.01536 0.59048
 O145 O 0.43533 0.12783 0.40489
 O146 O 0.38623 0.05441 0.45085
 C147 C 0.39445 0.10586 0.41749
 O148 O 0.57167 -0.09442 0.36784
 O149 O 0.62114 -0.04266 0.43698
 C150 C 0.61273 -0.07955 0.38781
 O151 O 0.44342 -0.10940 0.37256
 O152 O 0.39016 -0.05838 0.43689
 C153 C 0.40125 -0.09814 0.39089
 O154 O 0.56310 0.12777 0.39399
 O155 O 0.61691 0.06609 0.44650
 C156 C 0.60532 0.11128 0.40627
 Zr157 Zr 0.50074 0.08988 0.42868
 O158 O 0.49437 0.10389 0.32796
 O159 O 0.50273 0.19067 0.44384
 Zr160 Zr 0.50620 -0.07094 0.40692
 O161 O 0.50070 -0.05531 0.30623
 O162 O 0.51374 -0.17124 0.39213
 Zr163 Zr 0.57278 0.00332 0.49839
 Zr164 Zr 0.43468 -0.00516 0.49791
 O165 O 0.46318 0.00857 0.40565
 O166 O 0.54470 0.01347 0.40512
 O167 O 0.45920 0.08942 0.51066
 O168 O 0.54700 -0.09068 0.48629
 O169 O 0.54124 0.09380 0.51071
 O170 O 0.46558 -0.09631 0.48591
 H171 H 0.44317 -0.02150 0.62827
 H172 H 0.56880 -0.12733 0.48173
 H173 H 0.44205 0.01202 0.36827
 H174 H 0.56133 0.13204 0.51551
 H175 H 0.51367 -0.21290 0.59328
 H176 H 0.49578 -0.19277 0.42648
 H177 H 0.52836 -0.03124 0.29214
 H178 H 0.51823 0.07707 0.30664
 H179 H 0.47925 0.20124 0.47705
 H180 H 0.49964 0.18156 0.64120
 H181 H 0.51404 0.02284 0.70337
 H182 H 0.52860 -0.08389 0.68938
 O183 O 0.56463 0.60396 0.12665
 O184 O 0.61800 0.55760 0.05889
 C185 C 0.60677 0.59324 0.10799
 O186 O 0.44275 0.37164 0.09653
 O187 O 0.38946 0.43511 0.04465
 C188 C 0.40055 0.38797 0.08287
 O189 O 0.57130 0.38183 0.10282
 O190 O 0.62079 0.45026 0.05023
 C191 C 0.61217 0.40330 0.08937
 O192 O 0.43540 0.60257 0.12240
 O193 O 0.38640 0.54719 0.05541
 C194 C 0.39445 0.58618 0.10298
 Zr195 Zr 0.50103 0.57521 0.08602
 O196 O 0.49738 0.56868 0.18783
 O197 O 0.49474 0.67685 0.09139
 Zr198 Zr 0.50617 0.41375 0.06942
 O199 O 0.50113 0.40371 0.17090
 O200 O 0.51393 0.31286 0.05854
 O201 O 0.54483 0.49543 0.09086
 O202 O 0.46346 0.49104 0.08923
 O203 O 0.43672 0.63036 -0.09922
 O204 O 0.38690 0.55862 -0.05188
 C205 C 0.39562 0.60945 -0.08619
 O206 O 0.57213 0.40612 -0.13086
 O207 O 0.62187 0.45893 -0.06290
 C208 C 0.61328 0.42106 -0.11140
 O209 O 0.44399 0.39229 -0.12583
 O210 O 0.39029 0.44531 -0.06375
 C211 C 0.40179 0.40455 -0.10853
 O212 O 0.56508 0.62943 -0.10770
 O213 O 0.61823 0.56759 -0.05401
 C214 C 0.60723 0.61316 -0.09399
 Zr215 Zr 0.50173 0.59121 -0.07544
 O216 O 0.49621 0.59864 -0.17708
 O217 O 0.50341 0.69269 -0.06697
 Zr218 Zr 0.50680 0.43060 -0.09241
 O219 O 0.50141 0.44381 -0.19349
 O220 O 0.51514 0.33022 -0.10612
 Zr221 Zr 0.57331 0.50623 -0.00236
 Zr222 Zr 0.43472 0.49869 -0.00369
 O223 O 0.46371 0.50994 -0.09616
 O224 O 0.54581 0.51437 -0.09622
 O225 O 0.45975 0.59329 0.00624
 O226 O 0.54703 0.41239 -0.01226
 O227 O 0.54157 0.59718 0.00694
 O228 O 0.46564 0.40703 -0.01319
 H229 H 0.44294 0.48607 0.12720
 H230 H 0.56871 0.37552 -0.01582
 H231 H 0.44262 0.51286 -0.13369
 H232 H 0.56141 0.63573 0.01054
 H233 H 0.48800 0.29732 0.03174
 H234 H 0.49297 0.30848 -0.07718
 H235 H 0.52869 0.46855 -0.20782
 H236 H 0.52410 0.57852 -0.19616
 H237 H 0.48495 0.70418 -0.02837
 H238 H 0.52565 0.69634 0.08639
 H239 H 0.52037 0.53619 0.20153
 H240 H 0.52686 0.42809 0.19042
 C241 C 1.18356 0.15819 0.24732
 C242 C 1.21689 0.19139 0.21185
 C243 C 1.22147 0.17590 0.14590
 C244 C 1.18897 0.13529 0.11558
 C245 C 1.15115 0.11058 0.15075
 C246 C 1.15130 0.11979 0.21755
 C247 C 1.11498 0.13509 0.26648
 C248 C 1.15100 0.17671 0.30026
 H249 H 1.24851 0.19750 0.11716
 H250 H 1.19139 0.12745 0.06398
 H251 H 1.10484 0.09213 0.29498
 H252 H 1.08587 0.16365 0.24623
 H253 H 1.16208 0.15691 0.34759
 H254 H 1.14183 0.22860 0.30093
 C255 C 1.22074 0.66658 0.64915
 C256 C 1.21498 0.68878 0.71237
 C257 C 1.17866 0.66282 0.74925
 C258 C 1.14531 0.62310 0.72009
 C259 C 1.14856 0.60753 0.65402
 C260 C 1.18839 0.62637 0.62078
 C261 C 1.19273 0.65885 0.55687
 C262 C 1.22804 0.70299 0.58792
 H263 H 1.17429 0.67667 0.79931
 H264 H 1.11580 0.60760 0.74815
 H265 H 1.16049 0.68419 0.54227
 H266 H 1.20787 0.62649 0.51957
 H267 H 1.21623 0.75388 0.59136
 H268 H 1.26348 0.69609 0.56830
 C269 C 0.72249 0.16126 0.65452
 C270 C 0.71524 0.18610 0.71676
 C271 C 0.67131 0.17734 0.74482
 C272 C 0.63627 0.14377 0.71210
 C273 C 0.64457 0.11582 0.65112
 C274 C 0.68838 0.12464 0.62391
 C275 C 0.72213 0.07429 0.60327
 C276 C 0.75945 0.11563 0.63264
 H277 H 0.66347 0.19792 0.79163
 H278 H 0.60270 0.13966 0.73476
 H279 H 0.72507 0.06949 0.55042
 H280 H 0.71729 0.02799 0.62908
 H281 H 0.78205 0.13771 0.59542
 H282 H 0.77825 0.09160 0.67245
 C283 C 0.72502 0.65384 0.15928
 C284 C 0.71434 0.68865 0.21543
 C285 C 0.66818 0.68968 0.23670
 C286 C 0.63339 0.65955 0.20133
 C287 C 0.64374 0.62592 0.14415
 C288 C 0.68983 0.62442 0.12313
 C289 C 0.71715 0.56526 0.11041
 C290 C 0.75300 0.59269 0.15506
 H291 H 0.65836 0.71492 0.28032
 H292 H 0.59832 0.66221 0.21947
 H293 H 0.72868 0.56265 0.05922
 H294 H 0.70078 0.52090 0.12833
 H295 H 0.78645 0.59707 0.13046
 H296 H 0.75492 0.56704 0.20213
 C297 C 0.81917 -0.24054 0.14273
 C298 C 0.78943 -0.20889 0.18648
 C299 C 0.78946 -0.14073 0.18507
 C300 C 0.82279 -0.10683 0.14910
 C301 C 0.85767 -0.14059 0.11590
 C302 C 0.85339 -0.20685 0.11124
 C303 C 0.88755 -0.26003 0.11187
 C304 C 0.84969 -0.29946 0.14341
 H305 H 0.76663 -0.11305 0.21575
 H306 H 0.82391 -0.05481 0.15244
 H307 H 0.91702 -0.25043 0.14483
 H308 H 0.89698 -0.27663 0.06252
 H309 H 0.85909 -0.31805 0.19155
 H310 H 0.83800 -0.33639 0.10880
 C311 C 0.82581 0.25180 0.65479
 C312 C 0.79142 0.28518 0.68914
 C313 C 0.78569 0.35119 0.67473
 C314 C 0.81763 0.38363 0.63491
 C315 C 0.85654 0.35106 0.60997
 C316 C 0.85767 0.28413 0.61706
 C317 C 0.89564 0.23791 0.63166
 C318 C 0.86090 0.20175 0.67299
 H319 H 0.75864 0.37916 0.69745
 H320 H 0.81419 0.43513 0.62867
 H321 H 0.92393 0.25974 0.66046
 H322 H 0.90688 0.21057 0.58819
 H323 H 0.87056 0.20188 0.72453
 H324 H 0.85288 0.15340 0.65324
 C325 C 0.28642 -0.15384 0.65986
 C326 C 0.29317 -0.21526 0.68587
 C327 C 0.33261 -0.24997 0.66576
 C328 C 0.36720 -0.22008 0.62840
 C329 C 0.36235 -0.15536 0.60912
 C330 C 0.32003 -0.12496 0.62183
 C331 C 0.31078 -0.05996 0.64986
 C332 C 0.27414 -0.09138 0.69160
 H333 H 0.33832 -0.29861 0.68275
 H334 H 0.39862 -0.24646 0.61767
 H335 H 0.29627 -0.02603 0.61366
 H336 H 0.34053 -0.04115 0.67795
 H337 H 0.23862 -0.07507 0.67930
 H338 H 0.28271 -0.09054 0.74390
 C339 C 0.34275 0.27275 0.19771
 C340 C 0.29612 0.28947 0.19477
 C341 C 0.28360 0.34182 0.15522
 C342 C 0.31702 0.37330 0.11685
 C343 C 0.36362 0.35287 0.11740
 C344 C 0.37555 0.30360 0.16034
 C345 C 0.40153 0.24253 0.14812
 C346 C 0.36534 0.20861 0.18870
 H347 H 0.24825 0.35852 0.15383
 H348 H 0.30641 0.41355 0.08718
 H349 H 0.43623 0.24291 0.17104
 H350 H 0.40114 0.22790 0.09647
 H351 H 0.37935 0.18903 0.23460
 H352 H 0.34365 0.17461 0.16054
 C353 C 0.78596 0.15527 -0.15032
 C354 C 0.79525 0.21202 -0.18402
 C355 C 0.83666 0.24418 -0.16883
 C356 C 0.87126 0.21332 -0.13213
 C357 C 0.86429 0.15068 -0.10781
 C358 C 0.81959 0.12555 -0.11316
 C359 C 0.80264 0.05987 -0.12927
 C360 C 0.76541 0.09236 -0.16974
 H361 H 0.84417 0.29047 -0.19029
 H362 H 0.90425 0.23696 -0.12613
 H363 H 0.78872 0.03439 -0.08636
 H364 H 0.82811 0.03230 -0.15843
 H365 H 0.73003 0.08593 -0.14990
 H366 H 0.76901 0.08192 -0.22185
 C367 C 0.84283 0.72507 0.30378
 C368 C 0.79621 0.70935 0.30654
 C369 C 0.78337 0.65679 0.34553
 C370 C 0.81666 0.62477 0.38404
 C371 C 0.86330 0.64490 0.38370
 C372 C 0.87526 0.69364 0.34055
 C373 C 0.90371 0.75285 0.34858
 C374 C 0.86797 0.78752 0.30733
 H375 H 0.74786 0.64064 0.34628
 H376 H 0.80594 0.58463 0.41367
 H377 H 0.93794 0.74829 0.32456
 H378 H 0.90459 0.77004 0.39946
 H379 H 0.88176 0.80255 0.25963
 H380 H 0.84869 0.82530 0.33404
 C381 C 0.28569 0.14185 0.32566
 C382 C 0.29020 0.20786 0.31329
 C383 C 0.32429 0.24197 0.34742
 C384 C 0.35676 0.20914 0.38545
 C385 C 0.35518 0.14167 0.39091
 C386 C 0.31735 0.10958 0.36437
 C387 C 0.31677 0.05086 0.32290
 C388 C 0.28244 0.08595 0.28020
 H389 H 0.32797 0.29339 0.34082
 H390 H 0.38481 0.23593 0.40704
 H391 H 0.30157 0.00887 0.34831
 H392 H 0.35051 0.04146 0.29885
 H393 H 0.24775 0.06324 0.28080
 H394 H 0.29626 0.09700 0.23139
 C395 C 0.28488 0.64614 -0.17315
 C396 C 0.29118 0.71034 -0.19142
 C397 C 0.32792 0.74453 -0.16348
 C398 C 0.36057 0.71258 -0.12486
 C399 C 0.35669 0.64600 -0.11307
 C400 C 0.31672 0.61487 -0.13398
 C401 C 0.31233 0.55315 -0.17024
 C402 C 0.27812 0.58728 -0.21375
 H403 H 0.33307 0.79485 -0.17494
 H404 H 0.39033 0.73900 -0.10774
 H405 H 0.29603 0.51524 -0.14039
 H406 H 0.34481 0.53866 -0.19519
 H407 H 0.24263 0.56752 -0.20961
 H408 H 0.29098 0.59341 -0.26397
 C409 C 1.18236 -0.15485 -0.24331
 C410 C 1.21759 -0.18793 -0.21112
 C411 C 1.22297 -0.17494 -0.14464
 C412 C 1.18997 -0.13782 -0.11084
 C413 C 1.15043 -0.11418 -0.14266
 C414 C 1.14963 -0.11934 -0.20999
 C415 C 1.11261 -0.13413 -0.25764
 C416 C 1.14876 -0.17299 -0.29483
 H417 H 1.25058 -0.19682 -0.11736
 H418 H 1.19340 -0.13258 -0.05904
 H419 H 1.10081 -0.09041 -0.28380
 H420 H 1.08466 -0.16444 -0.23711
 H421 H 1.15785 -0.15131 -0.34217
 H422 H 1.14081 -0.22513 -0.29634
 C423 C 1.18637 0.35006 0.25892
 C424 C 1.21887 0.31299 0.29259
 C425 C 1.22135 0.32181 0.36008
 C426 C 1.18834 0.35958 0.39280
 C427 C 1.15132 0.38758 0.35895
 C428 C 1.15299 0.38547 0.29146
 C429 C 1.11704 0.37255 0.24171
 C430 C 1.15380 0.33452 0.20509
 H431 H 1.24627 0.29587 0.38880
 H432 H 1.18937 0.36173 0.44504
 H433 H 1.10587 0.41711 0.21640
 H434 H 1.08859 0.34176 0.26005
 H435 H 1.16397 0.35796 0.15909
 H436 H 1.14565 0.28256 0.20068
 C437 C 0.71837 -0.18281 0.35910
 C438 C 0.71814 -0.19062 0.29203
 C439 C 0.68299 -0.15988 0.25655
 C440 C 0.64976 -0.12131 0.28748
 C441 C 0.65164 -0.11091 0.35447
 C442 C 0.68571 -0.14350 0.38974
 C443 C 0.72072 -0.11602 0.43458
 C444 C 0.75633 -0.15802 0.40091
 H445 H 0.68044 -0.16721 0.20492
 H446 H 0.62240 -0.09978 0.25911
 H447 H 0.71444 -0.13036 0.48545
 H448 H 0.72627 -0.06360 0.42708
 H449 H 0.77103 -0.19617 0.43241
 H450 H 0.78206 -0.12947 0.37348
 C451 C 0.71936 0.31846 -0.14036
 C452 C 0.71769 0.30697 -0.20695
 C453 C 0.68066 0.33369 -0.24181
 C454 C 0.64794 0.37354 -0.21120
 C455 C 0.65184 0.38874 -0.14509
 C456 C 0.68720 0.35869 -0.11013
 C457 C 0.72291 0.38791 -0.06749
 C458 C 0.75801 0.34431 -0.10045
 H459 H 0.67655 0.32280 -0.29262
 H460 H 0.61935 0.39223 -0.23919
 H461 H 0.71726 0.37568 -0.01586
 H462 H 0.72839 0.43992 -0.07741
 H463 H 0.77265 0.30718 -0.06766
 H464 H 0.78389 0.37095 -0.12966
 C465 C 1.20825 0.21308 -0.12668
 C466 C 1.22041 0.19228 -0.18894
 C467 C 1.20420 0.13148 -0.20923
 C468 C 1.17186 0.09754 -0.17211
 C469 C 1.15520 0.12402 -0.11426
 C470 C 1.17625 0.17921 -0.09017
 C471 C 1.15486 0.23821 -0.06245
 C472 C 1.18935 0.27589 -0.10245
 H473 H 1.21382 0.11202 -0.25587
 H474 H 1.15747 0.05318 -0.19081
 H475 H 1.16089 0.24205 -0.00959
 H476 H 1.11844 0.24523 -0.07797
 H477 H 1.21447 0.30195 -0.07155
 H478 H 1.17290 0.30496 -0.14120
 C479 C 1.18810 0.73527 0.35193
 C480 C 1.21921 0.70121 0.31225
 C481 C 1.21987 0.63333 0.31929
 C482 C 1.18712 0.60158 0.35834
 C483 C 1.15185 0.63663 0.38946
 C484 C 1.15509 0.70368 0.38846
 C485 C 1.11986 0.75528 0.38002
 C486 C 1.15596 0.79098 0.34046
 H487 H 1.24328 0.60355 0.29166
 H488 H 1.18702 0.54940 0.35946
 H489 H 1.11113 0.77951 0.42639
 H490 H 1.08982 0.73937 0.35076
 H491 H 1.16757 0.83580 0.36471
 H492 H 1.14575 0.79727 0.28928
 C493 C 0.72200 0.16163 0.33882
 C494 C 0.71005 0.21245 0.29771
 C495 C 0.66279 0.22615 0.28940
 C496 C 0.62910 0.19305 0.32443
 C497 C 0.64150 0.14519 0.36935
 C498 C 0.68828 0.12853 0.37357
 C499 C 0.71770 0.12395 0.43201
 C500 C 0.75421 0.16093 0.39524
 H501 H 0.65119 0.26328 0.25678
 H502 H 0.59328 0.20620 0.31695
 H503 H 0.72790 0.07323 0.44147
 H504 H 0.70313 0.15101 0.47378
 H505 H 0.78572 0.13155 0.38667
 H506 H 0.76061 0.20961 0.41559
 C507 C 0.66626 0.73726 -0.19808
 C508 C 0.71197 0.71537 -0.20179
 C509 C 0.72457 0.66323 -0.16194
 C510 C 0.69121 0.63104 -0.12407
 C511 C 0.64441 0.65021 -0.12579
 C512 C 0.63356 0.70564 -0.16096
 C513 C 0.59594 0.71653 -0.20873
 C514 C 0.63158 0.74983 -0.25023
 H515 H 0.75970 0.64542 -0.16213
 H516 H 0.70169 0.58937 -0.09632
 H517 H 0.56884 0.74970 -0.18989
 H518 H 0.58292 0.67111 -0.23048
 H519 H 0.62403 0.80184 -0.25675
 H520 H 0.63898 0.72260 -0.29529
 C521 C 0.80124 -0.19988 -0.13661
 C522 C 0.79043 -0.18505 -0.20062
 C523 C 0.81035 -0.12924 -0.22745
 C524 C 0.84510 -0.09566 -0.19429
 C525 C 0.85918 -0.11604 -0.13289
 C526 C 0.83451 -0.16531 -0.10310
 C527 C 0.85256 -0.22385 -0.07021
 C528 C 0.81670 -0.26191 -0.10721
 H529 H 0.80241 -0.11484 -0.27634
 H530 H 0.86264 -0.05630 -0.21804
 H531 H 0.84564 -0.22246 -0.01765
 H532 H 0.88873 -0.23570 -0.08408
 H533 H 0.78997 -0.28305 -0.07516
 H534 H 0.83213 -0.29549 -0.14324
 C535 C 0.83695 0.32029 0.26518
 C536 C 0.79391 0.30538 0.29090
 C537 C 0.78416 0.33026 0.35312
 C538 C 0.81785 0.36652 0.38742
 C539 C 0.86216 0.37741 0.36032
 C540 C 0.86936 0.35330 0.29858
 C541 C 0.90543 0.34581 0.24795
 C542 C 0.86876 0.30892 0.20935
 H543 H 0.75098 0.32131 0.37541
 H544 H 0.80972 0.38391 0.43544
 H545 H 0.93463 0.31489 0.26415
 H546 H 0.91531 0.39261 0.22611
 H547 H 0.87785 0.25745 0.20217
 H548 H 0.85762 0.33510 0.16538
 C549 C 0.34184 -0.21292 0.27613
 C550 C 0.29493 -0.20822 0.29217
 C551 C 0.28330 -0.16806 0.34491
 C552 C 0.31747 -0.13200 0.37760
 C553 C 0.36419 -0.13488 0.35801
 C554 C 0.37538 -0.17786 0.30831
 C555 C 0.40248 -0.16649 0.24816
 C556 C 0.36557 -0.20409 0.21255
 H557 H 0.24798 -0.16366 0.36080
 H558 H 0.30718 -0.10131 0.41747
 H559 H 0.43648 -0.19153 0.24916
 H560 H 0.40378 -0.11479 0.23451
 H561 H 0.37878 -0.25010 0.19206
 H562 H 0.34518 -0.17400 0.17859
 C563 C 0.34437 0.28355 -0.21712
 C564 C 0.29729 0.29488 -0.20735
 C565 C 0.28430 0.34303 -0.16303
 C566 C 0.31793 0.37791 -0.12874
 C567 C 0.36526 0.36789 -0.14132
 C568 C 0.37746 0.31939 -0.18503
 C569 C 0.40759 0.32430 -0.24322
 C570 C 0.37141 0.28574 -0.27883
 H571 H 0.24841 0.35520 -0.15632
 H572 H 0.30686 0.41371 -0.09395
 H573 H 0.44077 0.29795 -0.23691
 H574 H 0.41093 0.37455 -0.26101
 H575 H 0.38438 0.23769 -0.29407
 H576 H 0.35360 0.31357 -0.31727
 C577 C 1.18148 -0.24781 0.16703
 C578 C 1.21673 -0.21633 0.20084
 C579 C 1.22115 -0.14938 0.19035
 C580 C 1.18756 -0.11517 0.15422
 C581 C 1.14849 -0.14706 0.12905
 C582 C 1.14830 -0.21413 0.13313
 C583 C 1.11163 -0.26236 0.14662
 C584 C 1.14834 -0.30053 0.18318
 H585 H 1.24912 -0.12273 0.21222
 H586 H 1.19061 -0.06342 0.14965
 H587 H 1.09954 -0.28679 0.10200
 H588 H 1.08392 -0.24297 0.17852
 H589 H 1.15775 -0.34654 0.15895
 H590 H 1.14057 -0.30485 0.23542
 C591 C 1.21274 0.35323 0.69930
 C592 C 1.21246 0.28601 0.70299
 C593 C 1.17538 0.25293 0.67468
 C594 C 1.14151 0.28629 0.63955
 C595 C 1.14466 0.35331 0.63071
 C596 C 1.17971 0.38615 0.66339
 C597 C 1.21409 0.43353 0.63896
 C598 C 1.25023 0.39775 0.67832
 H599 H 1.17272 0.20119 0.67903
 H600 H 1.11348 0.25948 0.61792
 H601 H 1.20713 0.48298 0.65719
 H602 H 1.21965 0.42972 0.58595
 H603 H 1.26394 0.42673 0.71913
 H604 H 1.27695 0.37355 0.64822
 C605 C 0.71120 -0.12698 0.70062
 C606 C 0.72305 -0.19135 0.68880
 C607 C 0.70496 -0.22097 0.63312
 C608 C 0.67011 -0.19018 0.59718
 C609 C 0.65403 -0.12903 0.61591
 C610 C 0.67773 -0.09621 0.66432
 C611 C 0.65963 -0.05968 0.72118
 C612 C 0.69668 -0.09296 0.76108
 H613 H 0.71430 -0.27006 0.62108
 H614 H 0.65386 -0.21553 0.55759
 H615 H 0.62391 -0.07390 0.73468
 H616 H 0.66513 -0.00700 0.71669
 H617 H 0.72349 -0.05910 0.77877
 H618 H 0.68257 -0.12588 0.79835
 C619 C 0.71306 0.36851 0.19836
 C620 C 0.72050 0.30272 0.18745
 C621 C 0.69453 0.27214 0.13892
 C622 C 0.66099 0.30620 0.10405
 C623 C 0.65144 0.37076 0.11902
 C624 C 0.67873 0.40177 0.16504
 C625 C 0.66327 0.43679 0.22449
 C626 C 0.70132 0.40181 0.26038
 H627 H 0.69782 0.22083 0.13094
 H628 H 0.64052 0.28112 0.06829
 H629 H 0.62805 0.42238 0.24025
 H630 H 0.66875 0.48958 0.22237
 H631 H 0.68805 0.36859 0.29804
 H632 H 0.72950 0.43421 0.27664
 C633 C 0.79147 0.18553 0.13715
 C634 C 0.78995 0.19201 0.20448
 C635 C 0.82118 0.15495 0.24115
 C636 C 0.85649 0.11927 0.21088
 C637 C 0.86071 0.11972 0.14336
 C638 C 0.82601 0.14955 0.10749
 C639 C 0.83079 0.19588 0.05319
 C640 C 0.79292 0.23525 0.08483
 H641 H 0.82125 0.15837 0.29308
 H642 H 0.88181 0.09436 0.24016
 H643 H 0.81973 0.17448 0.00684
 H644 H 0.86487 0.22042 0.05245
 H645 H 0.76112 0.23614 0.05494
 H646 H 0.80443 0.28318 0.10190
 C647 C 0.83036 0.73479 0.66403
 C648 C 0.79504 0.70746 0.70102
 C649 C 0.78839 0.64039 0.69557
 C650 C 0.82065 0.60171 0.66166
 C651 C 0.85988 0.62988 0.63316
 C652 C 0.86191 0.69685 0.63124
 C653 C 0.90092 0.74187 0.64244
 C654 C 0.86682 0.78336 0.67963
 H655 H 0.75940 0.61753 0.71903
 H656 H 0.81644 0.54999 0.66125
 H657 H 0.91307 0.76445 0.59690
 H658 H 0.92847 0.72135 0.67361
 H659 H 0.86037 0.83052 0.65600
 H660 H 0.87517 0.78541 0.73193
 C661 C 0.28511 0.17275 0.64046
 C662 C 0.28825 0.18065 0.70727
 C663 C 0.31979 0.14152 0.74106
 C664 C 0.35314 0.10543 0.70744
 C665 C 0.35405 0.10596 0.63961
 C666 C 0.31725 0.13546 0.60721
 C667 C 0.31767 0.18058 0.55124
 C668 C 0.28254 0.22135 0.58771
 H669 H 0.32163 0.14374 0.79323
 H670 H 0.37989 0.08068 0.73431
 H671 H 0.30314 0.15809 0.50708
 H672 H 0.35158 0.20477 0.54474
 H673 H 0.24801 0.22233 0.56433
 H674 H 0.29611 0.26907 0.60243
 C675 C 0.28390 0.67556 0.14167
 C676 C 0.28667 0.68286 0.20903
 C677 C 0.32050 0.64587 0.24142
 C678 C 0.35436 0.61145 0.20676
 C679 C 0.35460 0.61194 0.13892
 C680 C 0.31686 0.64012 0.10757
 C681 C 0.31600 0.68519 0.05167
 C682 C 0.28005 0.72407 0.08859
 H683 H 0.32337 0.64800 0.29352
 H684 H 0.38193 0.58777 0.23296
 H685 H 0.30198 0.66214 0.00742
 H686 H 0.34923 0.71106 0.04505
 H687 H 0.24559 0.72332 0.06502
 H688 H 0.29232 0.77262 0.10299
   
