data_POSCAR
  _audit_creation_date              2014-09-24
  _audit_creation_method            'ToBaCCo'
  _symmetry_space_group_name_H-M    'P1'
  _symmetry_Int_Tables_number       1
  _symmetry_cell_setting            triclinic
  loop_
  _symmetry_equiv_pos_as_xyz
 x,y,z
_cell_length_a 53.0746
_cell_length_b 53.0354
_cell_length_c 19.7241
_cell_angle_alpha 89.956000
_cell_angle_beta 90.019600
_cell_angle_gamma 119.969100
loop_
  _atom_site_label
  _atom_site_type_symbol
  _atom_site_fract_x
  _atom_site_fract_y
  _atom_site_fract_z
O1 O 0.25075 0.45325 0.56356
 O2 O 0.20122 0.45330 0.43256
 O3 O 0.25048 0.45334 0.43190
 O4 O 0.20155 0.45332 0.56424
 O5 O 0.22561 0.50146 0.56419
 O6 O 0.27450 0.50147 0.43190
 O7 O 0.22526 0.50142 0.43256
 O8 O 0.27478 0.50139 0.56352
 Cu9 Cu 0.22357 0.44844 0.49806
 Cu10 Cu 0.25246 0.50629 0.49803
 C11 C 0.27127 0.47732 0.58524
 C12 C 0.20473 0.47737 0.41085
 C13 C 0.27091 0.47742 0.41001
 C14 C 0.20518 0.47740 0.58614
 O15 O 0.54672 -0.25237 0.43432
 O16 O 0.54680 -0.20288 0.56554
 O17 O 0.54666 -0.25223 0.56603
 O18 O 0.54674 -0.20309 0.43388
 O19 O 0.49863 -0.22710 0.43392
 O20 O 0.49856 -0.27619 0.56601
 O21 O 0.49870 -0.22687 0.56553
 O22 O 0.49862 -0.27635 0.43436
 Cu23 Cu 0.55158 -0.22522 0.49995
 Cu24 Cu 0.49378 -0.25405 0.49997
 C25 C 0.52265 -0.27286 0.41257
 C26 C 0.52276 -0.20636 0.58725
 C27 C 0.52259 -0.27266 0.58791
 C28 C 0.52269 -0.20666 0.41203
 O29 O 1.20249 0.74916 0.56394
 O30 O 1.25211 0.79862 0.43293
 O31 O 1.20284 0.74942 0.43227
 O32 O 1.25181 0.79829 0.56462
 O33 O 1.27572 0.77407 0.56473
 O34 O 1.22680 0.72524 0.43244
 O35 O 1.27605 0.77442 0.43310
 O36 O 1.22642 0.72496 0.56405
 Cu37 Cu 1.22490 0.77631 0.49842
 Cu38 Cu 1.25366 0.74723 0.49859
 C39 C 1.20593 0.72856 0.58570
 C40 C 1.27261 0.79502 0.41131
 C41 C 1.20640 0.72892 0.41047
 C42 C 1.27218 0.79456 0.58659
 O43 O 0.74790 0.54695 0.56655
 O44 O 0.79762 0.54700 0.43600
 O45 O 0.74835 0.54693 0.43486
 O46 O 0.79713 0.54694 0.56766
 O47 O 0.77310 0.49880 0.56766
 O48 O 0.72436 0.49880 0.43492
 O49 O 0.77361 0.49887 0.43605
 O50 O 0.72390 0.49882 0.56655
 Cu51 Cu 0.77517 0.55181 0.50127
 Cu52 Cu 0.74632 0.49397 0.50130
 C53 C 0.72735 0.52287 0.58818
 C54 C 0.79415 0.52294 0.41439
 C55 C 0.72797 0.52286 0.41289
 C56 C 0.79350 0.52286 0.58962
 O57 O 0.45342 0.25098 0.43620
 O58 O 0.45354 0.20134 0.56696
 O59 O 0.45355 0.25062 0.56786
 O60 O 0.45350 0.20176 0.43528
 O61 O 0.50160 0.22585 0.43513
 O62 O 0.50165 0.27468 0.56766
 O63 O 0.50163 0.22541 0.56677
 O64 O 0.50152 0.27505 0.43605
 Cu65 Cu 0.44865 0.22374 0.50160
 Cu66 Cu 0.50645 0.25267 0.50140
 C67 C 0.47745 0.27154 0.41445
 C68 C 0.47761 0.20484 0.58853
 C69 C 0.47762 0.27106 0.58968
 C70 C 0.47755 0.20542 0.41324
 O71 O 0.79866 0.25207 0.56717
 O72 O 0.74906 0.20231 0.43663
 O73 O 0.79820 0.25161 0.43549
 O74 O 0.74947 0.20280 0.56829
 O75 O 0.72536 0.22684 0.56812
 O76 O 0.77407 0.27562 0.43538
 O77 O 0.72494 0.22633 0.43651
 O78 O 0.77454 0.27608 0.56701
 Cu79 Cu 0.77628 0.22477 0.50192
 Cu80 Cu 0.74730 0.25364 0.50175
 C81 C 0.79513 0.27263 0.58872
 C82 C 0.72848 0.20578 0.41494
 C83 C 0.79450 0.27200 0.41344
 C84 C 0.72903 0.20642 0.59017
 N85 N 0.96940 0.52977 0.07346
 N86 N 0.94855 0.53592 0.08532
 N87 N 1.03063 0.54271 0.11968
 N88 N 1.05163 0.55716 0.16398
 N89 N 1.03060 0.56032 0.07286
 N90 N 1.05162 0.58729 0.08401
 N91 N 0.96949 0.51217 0.12021
 N92 N 0.94874 0.50584 0.16513
 C93 C 0.93580 0.52062 0.14231
 C94 C 1.06458 0.58480 0.14067
 N95 N 1.03057 0.47079 0.07277
 N96 N 1.05143 0.46461 0.08431
 N97 N 0.96947 0.45786 0.11999
 N98 N 0.94858 0.44342 0.16457
 N99 N 0.96937 0.44024 0.07308
 N100 N 0.94838 0.41327 0.08447
 N101 N 1.03060 0.48840 0.11961
 N102 N 1.05144 0.49470 0.16426
 Mn103 Mn 1.00005 0.50028 0.12055
 C104 C 1.06431 0.47990 0.14119
 C105 C 0.93557 0.41577 0.14135
 N106 N 1.03043 0.56034 -0.07339
 N107 N 1.05134 0.58733 -0.08510
 N108 N 0.96918 0.51216 -0.11969
 N109 N 0.94815 0.50566 -0.16392
 N110 N 0.96922 0.52975 -0.07278
 N111 N 0.94821 0.53573 -0.08381
 N112 N 1.03031 0.54269 -0.12023
 N113 N 1.05110 0.55713 -0.16507
 Mn114 Mn 0.99991 0.54534 0.00003
 C115 C 1.06408 0.58481 -0.14211
 C116 C 0.93523 0.52035 -0.14047
 N117 N 0.96914 0.44019 -0.07318
 N118 N 0.94830 0.41317 -0.08486
 N119 N 1.03026 0.48836 -0.12031
 N120 N 1.05112 0.49481 -0.16497
 N121 N 1.03035 0.47078 -0.07349
 N122 N 1.05129 0.46476 -0.08501
 N123 N 0.96912 0.45783 -0.11993
 N124 N 0.94831 0.44336 -0.16466
 Mn125 Mn 0.99986 0.45520 -0.00020
 Mn126 Mn 0.99972 0.50026 -0.12072
 Cl127 Cl 0.99989 0.50027 -0.00008
 C128 C 0.93544 0.41566 -0.14173
 C129 C 1.06410 0.48010 -0.14188
 N130 N 0.45729 0.48815 0.11923
 N131 N 0.44280 0.49466 0.16355
 N132 N 0.47037 0.43992 0.07293
 N133 N 0.46427 0.41292 0.08481
 N134 N 0.48793 0.45760 0.11968
 N135 N 0.49428 0.44317 0.16460
 N136 N 0.43972 0.47054 0.07241
 N137 N 0.41274 0.46455 0.08359
 C138 C 0.41518 0.47996 0.14025
 C139 C 0.47956 0.41546 0.14179
 N140 N 0.48797 0.45745 -0.12022
 N141 N 0.49453 0.44297 -0.16445
 N142 N 0.43972 0.47043 -0.07383
 N143 N 0.41272 0.46431 -0.08554
 N144 N 0.45733 0.48801 -0.12068
 N145 N 0.44287 0.49433 -0.16552
 N146 N 0.47041 0.43987 -0.07330
 N147 N 0.46452 0.41290 -0.08432
 Mn148 Mn 0.45476 0.45490 -0.00045
 C149 C 0.47992 0.41535 -0.14099
 C150 C 0.41520 0.47959 -0.14255
 N151 N 0.54212 0.51192 0.11943
 N152 N 0.55659 0.50547 0.16400
 N153 N 0.52906 0.56008 0.07231
 N154 N 0.53524 0.58711 0.08401
 N155 N 0.51148 0.54246 0.11915
 N156 N 0.50519 0.55695 0.16395
 N157 N 0.55971 0.52947 0.07252
 N158 N 0.58668 0.53548 0.08389
 Mn159 Mn 0.49970 0.50003 0.12005
 C160 C 0.58421 0.52015 0.14076
 C161 C 0.51996 0.58464 0.14097
 N162 N 0.51155 0.54231 -0.12079
 N163 N 0.50510 0.55674 -0.16548
 N164 N 0.55978 0.52940 -0.07374
 N165 N 0.58680 0.53558 -0.08543
 N166 N 0.54218 0.51175 -0.12048
 N167 N 0.55668 0.50544 -0.16521
 N168 N 0.52908 0.55996 -0.07397
 N169 N 0.53508 0.58693 -0.08553
 Mn170 Mn 0.49976 0.49988 -0.12122
 Mn171 Mn 0.54470 0.54502 -0.00072
 Cl172 Cl 0.49973 0.49996 -0.00059
 C173 C 0.51975 0.58441 -0.14241
 C174 C 0.58435 0.52026 -0.14229
 N175 N 0.44020 -0.03087 0.07317
 N176 N 0.41319 -0.05174 0.08470
 N177 N 0.48832 0.03028 0.12030
 N178 N 0.49475 0.05119 0.16483
 N179 N 0.47082 0.03038 0.07333
 N180 N 0.46484 0.05138 0.08461
 N181 N 0.45777 -0.03090 0.12008
 N182 N 0.44324 -0.05174 0.16477
 C183 C 0.41560 -0.06462 0.14165
 C184 C 0.48012 0.06420 0.14149
 N185 N 0.56027 0.03037 0.07405
 N186 N 0.58724 0.05124 0.08593
 N187 N 0.51202 -0.03091 0.12037
 N188 N 0.50550 -0.05190 0.16478
 N189 N 0.52965 -0.03089 0.07362
 N190 N 0.53563 -0.05189 0.08494
 N191 N 0.54258 0.03028 0.12074
 N192 N 0.55698 0.05105 0.16563
 Mn193 Mn 0.50017 -0.00031 0.12105
 C194 C 0.58468 0.06400 0.14286
 C195 C 0.52021 -0.06485 0.14160
 N196 N 0.47101 0.03058 -0.07294
 N197 N 0.46485 0.05145 -0.08472
 N198 N 0.45809 -0.03060 -0.11984
 N199 N 0.44368 -0.05147 -0.16448
 N200 N 0.44043 -0.03067 -0.07309
 N201 N 0.41348 -0.05162 -0.08464
 N202 N 0.48865 0.03059 -0.11962
 N203 N 0.49500 0.05142 -0.16441
 Mn204 Mn 0.45532 -0.00015 0.00012
 C205 C 0.48019 0.06431 -0.14157
 C206 C 0.41602 -0.06444 -0.14145
 N207 N 0.52985 -0.03074 -0.07262
 N208 N 0.53593 -0.05167 -0.08420
 N209 N 0.54289 0.03054 -0.11917
 N210 N 0.55740 0.05158 -0.16342
 N211 N 0.56042 0.03051 -0.07219
 N212 N 0.58739 0.05155 -0.08318
 N213 N 0.51233 -0.03064 -0.11954
 N214 N 0.50599 -0.05146 -0.16429
 Mn215 Mn 0.54534 -0.00019 0.00071
 Mn216 Mn 0.50049 -0.00003 -0.12022
 Cl217 Cl 0.50033 -0.00017 0.00042
 C218 C 0.52069 -0.06444 -0.14120
 C219 C 0.58498 0.06453 -0.13991
 C220 C 1.18563 0.47740 0.36504
 C221 C 1.16819 0.47751 0.32599
 C222 C 1.14720 0.47773 0.28233
 C223 C 1.12883 0.47802 0.24690
 C224 C 1.10682 0.47851 0.20763
 C225 C 1.08762 0.47906 0.17613
 C226 C 0.52260 0.70808 0.36655
 C227 C 0.52249 0.69061 0.32726
 C228 C 0.52225 0.66949 0.28327
 C229 C 0.52194 0.65089 0.24755
 C230 C 0.52143 0.62847 0.20794
 C231 C 0.52085 0.60877 0.17617
 C232 C 0.29177 -0.18591 0.36551
 C233 C 0.30932 -0.16848 0.32646
 C234 C 0.33055 -0.14751 0.28281
 C235 C 0.34922 -0.12914 0.24739
 C236 C 0.37172 -0.10713 0.20812
 C237 C 0.39146 -0.08794 0.17661
 C238 C 0.81438 0.52294 0.36610
 C239 C 0.83188 0.52285 0.32726
 C240 C 0.85292 0.52265 0.28377
 C241 C 0.87131 0.52238 0.24840
 C242 C 0.89333 0.52192 0.20912
 C243 C 0.91251 0.52141 0.17751
 C244 C 0.47743 0.29176 0.36606
 C245 C 0.47749 0.30933 0.32712
 C246 C 0.47766 0.33056 0.28352
 C247 C 0.47790 0.34922 0.24807
 C248 C 0.47832 0.37168 0.20870
 C249 C 0.47880 0.39138 0.17703
 C250 C 0.70827 0.18553 0.36665
 C251 C 0.69070 0.16802 0.32781
 C252 C 0.66949 0.14696 0.28431
 C253 C 0.65084 0.12855 0.24895
 C254 C 0.62840 0.10650 0.20966
 C255 C 0.60873 0.08730 0.17805
 C256 C 0.47767 0.18571 -0.36576
 C257 C 0.47780 0.16824 -0.32676
 C258 C 0.47804 0.14722 -0.28313
 C259 C 0.47835 0.12884 -0.24769
 C260 C 0.47884 0.10682 -0.20835
 C261 C 0.47938 0.08762 -0.17672
 C262 C 0.70818 0.52283 -0.36616
 C263 C 0.69061 0.52271 -0.32720
 C264 C 0.66937 0.52247 -0.28362
 C265 C 0.65070 0.52217 -0.24822
 C266 C 0.62821 0.52167 -0.20893
 C267 C 0.60848 0.52111 -0.17736
 C268 C 0.81424 0.29182 -0.36562
 C269 C 0.83168 0.30940 -0.32667
 C270 C 0.85266 0.33065 -0.28308
 C271 C 0.87101 0.34932 -0.24768
 C272 C 0.89300 0.37182 -0.20839
 C273 C 0.91216 0.39154 -0.17681
 C274 C 0.52277 -0.18617 -0.36431
 C275 C 0.52271 -0.16866 -0.32542
 C276 C 0.52255 -0.14759 -0.28195
 C277 C 0.52231 -0.12915 -0.24667
 C278 C 0.52191 -0.10706 -0.20755
 C279 C 0.52143 -0.08781 -0.17613
 C280 C 0.29147 0.47732 -0.36632
 C281 C 0.30903 0.47741 -0.32738
 C282 C 0.33025 0.47760 -0.28382
 C283 C 0.34891 0.47786 -0.24844
 C284 C 0.37139 0.47830 -0.20918
 C285 C 0.39110 0.47880 -0.17763
 C286 C 1.18572 0.70840 -0.36586
 C287 C 1.16822 0.69086 -0.32691
 C288 C 1.14715 0.66967 -0.28335
 C289 C 1.12873 0.65103 -0.24797
 C290 C 1.10666 0.62858 -0.20871
 C291 C 1.08743 0.60889 -0.17717
 C292 C 0.81348 0.52281 -0.36153
 C293 C 0.83085 0.52265 -0.32248
 C294 C 0.85183 0.52235 -0.27911
 C295 C 0.87026 0.52200 -0.24414
 C296 C 0.89240 0.52150 -0.20560
 C297 C 0.91173 0.52101 -0.17475
 C298 C 0.47768 0.29112 -0.36158
 C299 C 0.47784 0.30868 -0.32263
 C300 C 0.47812 0.32999 -0.27939
 C301 C 0.47844 0.34878 -0.24450
 C302 C 0.47890 0.37141 -0.20605
 C303 C 0.47934 0.39123 -0.17525
 C304 C 0.70903 0.18644 -0.36097
 C305 C 0.69152 0.16904 -0.32191
 C306 C 0.67026 0.14804 -0.27854
 C307 C 0.65152 0.12959 -0.24356
 C308 C 0.62891 0.10742 -0.20503
 C309 C 0.60911 0.08806 -0.17418
 C310 C 1.18522 0.47744 -0.36501
 C311 C 1.16789 0.47761 -0.32584
 C312 C 1.14699 0.47793 -0.28223
 C313 C 1.12866 0.47830 -0.24695
 C314 C 1.10666 0.47884 -0.20798
 C315 C 1.08744 0.47938 -0.17670
 C316 C 0.52251 0.70832 -0.36597
 C317 C 0.52232 0.69080 -0.32673
 C318 C 0.52197 0.66956 -0.28304
 C319 C 0.52158 0.65084 -0.24769
 C320 C 0.52102 0.62827 -0.20864
 C321 C 0.52048 0.60850 -0.17730
 C322 C 0.29221 -0.18549 -0.36457
 C323 C 0.30973 -0.16818 -0.32542
 C324 C 0.33096 -0.14730 -0.28182
 C325 C 0.34967 -0.12899 -0.24655
 C326 C 0.37222 -0.10699 -0.20757
 C327 C 0.39197 -0.08779 -0.17629
 C328 C 0.52266 -0.18660 0.36334
 C329 C 0.52251 -0.16918 0.32434
 C330 C 0.52222 -0.14817 0.28097
 C331 C 0.52187 -0.12974 0.24591
 C332 C 0.52137 -0.10762 0.20721
 C333 C 0.52087 -0.08831 0.17616
 C334 C 0.29099 0.47748 0.36132
 C335 C 0.30855 0.47764 0.32237
 C336 C 0.32985 0.47795 0.27909
 C337 C 0.34863 0.47831 0.24414
 C338 C 0.37125 0.47881 0.20558
 C339 C 0.39106 0.47930 0.17466
 C340 C 1.18638 0.70888 0.36177
 C341 C 1.16897 0.69134 0.32281
 C342 C 1.14796 0.67006 0.27952
 C343 C 1.12952 0.65130 0.24455
 C344 C 1.10739 0.62870 0.20599
 C345 C 1.08806 0.60891 0.17507
 C346 C 0.47758 0.18548 0.36429
 C347 C 0.47773 0.16815 0.32507
 C348 C 0.47802 0.14725 0.28143
 C349 C 0.47837 0.12890 0.24617
 C350 C 0.47889 0.10686 0.20727
 C351 C 0.47941 0.08760 0.17611
 C352 C 0.70800 0.52280 0.36389
 C353 C 0.69053 0.52264 0.32462
 C354 C 0.66934 0.52232 0.28093
 C355 C 0.65063 0.52195 0.24563
 C356 C 0.62808 0.52141 0.20668
 C357 C 0.60831 0.52088 0.17546
 C358 C 0.81441 0.29199 0.36444
 C359 C 0.83171 0.30947 0.32518
 C360 C 0.85259 0.33067 0.28150
 C361 C 0.87092 0.34937 0.24621
 C362 C 0.89294 0.37192 0.20726
 C363 C 0.91219 0.39169 0.17605
   
