data_POSCAR
  _audit_creation_date              2014-09-24
  _audit_creation_method            'ToBaCCo'
  _symmetry_space_group_name_H-M    'P1'
  _symmetry_Int_Tables_number       1
  _symmetry_cell_setting            triclinic
  loop_
  _symmetry_equiv_pos_as_xyz
 x,y,z
_cell_length_a 43.8443
_cell_length_b 43.2635
_cell_length_c 43.8645
_cell_angle_alpha 89.916900
_cell_angle_beta 89.987900
_cell_angle_gamma 89.994600
loop_
  _atom_site_label
  _atom_site_type_symbol
  _atom_site_fract_x
  _atom_site_fract_y
  _atom_site_fract_z
N1 N 0.59033 0.67394 0.61211
 N2 N 0.57879 0.66171 0.63706
 C3 C 0.55402 0.67806 0.64545
 C4 C 0.55004 0.70162 0.62465
 C5 C 0.57333 0.69848 0.60380
 H6 H 0.53991 0.67327 0.66512
 H7 H 0.57757 0.71293 0.58411
 Cu8 Cu 0.59725 0.62561 0.65607
 Cu9 Cu 0.62644 0.65719 0.59229
 Cu10 Cu 0.65911 0.59212 0.62498
 N11 N 0.61544 0.58868 0.67373
 N12 N 0.63964 0.57569 0.66146
 C13 C 0.64750 0.55067 0.67799
 C14 C 0.62709 0.54801 0.70173
 C15 C 0.60703 0.57232 0.69853
 H16 H 0.66655 0.53557 0.67310
 H17 H 0.58782 0.57760 0.71310
 N18 N 0.67550 0.61211 0.58806
 N19 N 0.66304 0.63691 0.57561
 C20 C 0.67939 0.64505 0.55084
 C21 C 0.70307 0.62439 0.54774
 C22 C 0.70009 0.60383 0.57155
 H23 H 0.67453 0.66452 0.53615
 H24 H 0.71478 0.58437 0.57642
 H25 H 0.62021 0.61226 0.60720
 H26 H 0.64544 0.63745 0.63080
 N27 N 0.91146 0.32607 0.11066
 N28 N 0.92377 0.33907 0.13481
 C29 C 0.94853 0.32269 0.14325
 C30 C 0.95167 0.29835 0.12326
 C31 C 0.92793 0.30102 0.10286
 H32 H 0.96313 0.32798 0.16242
 H33 H 0.92300 0.28591 0.08386
 Cu34 Cu 0.90620 0.37605 0.15290
 Cu35 Cu 0.87502 0.34253 0.09116
 Cu36 Cu 0.84248 0.40769 0.12364
 N37 N 0.88725 0.41218 0.17126
 N38 N 0.86234 0.42444 0.15970
 C39 C 0.85406 0.44899 0.17664
 C40 C 0.87491 0.45212 0.19992
 C41 C 0.89567 0.42854 0.19600
 H42 H 0.83439 0.46345 0.17238
 H43 H 0.91532 0.42372 0.21013
 N44 N 0.82575 0.38739 0.08711
 N45 N 0.83815 0.36256 0.07473
 C46 C 0.82161 0.35427 0.05017
 C47 C 0.79786 0.37486 0.04713
 C48 C 0.80100 0.39555 0.07075
 H49 H 0.82643 0.33478 0.03554
 H50 H 0.78635 0.41505 0.07555
 H51 H 0.88095 0.38787 0.10470
 H52 H 0.85727 0.36275 0.13000
 N53 N 0.40962 0.17465 -0.11190
 N54 N 0.42119 0.16238 -0.13677
 C55 C 0.44598 0.17872 -0.14520
 C56 C 0.44992 0.20231 -0.12450
 C57 C 0.42660 0.19920 -0.10367
 H58 H 0.46012 0.17390 -0.16483
 H59 H 0.42234 0.21367 -0.08404
 Cu60 Cu 0.40278 0.12625 -0.15565
 Cu61 Cu 0.37349 0.15791 -0.09205
 Cu62 Cu 0.34091 0.09277 -0.12448
 N63 N 0.38463 0.08928 -0.17317
 N64 N 0.36043 0.07630 -0.16086
 C65 C 0.35260 0.05127 -0.17731
 C66 C 0.37301 0.04856 -0.20104
 C67 C 0.39304 0.07289 -0.19789
 H68 H 0.33355 0.03618 -0.17240
 H69 H 0.41223 0.07816 -0.21249
 N70 N 0.32447 0.11281 -0.08766
 N71 N 0.33689 0.13764 -0.07531
 C72 C 0.32052 0.14580 -0.05059
 C73 C 0.29685 0.12512 -0.04742
 C74 C 0.29988 0.10453 -0.07113
 H75 H 0.32535 0.16530 -0.03597
 H76 H 0.28521 0.08504 -0.07592
 H77 H 0.37978 0.11297 -0.10675
 H78 H 0.35455 0.13810 -0.13048
 N79 N 0.08879 0.82508 0.38893
 N80 N 0.07683 0.83779 0.36442
 C81 C 0.05206 0.82144 0.35599
 C82 C 0.04856 0.79742 0.37635
 C83 C 0.07209 0.80024 0.39697
 H84 H 0.03768 0.82655 0.33659
 H85 H 0.07672 0.78540 0.41629
 Cu86 Cu 0.09487 0.87441 0.34600
 Cu87 Cu 0.12509 0.84164 0.40860
 Cu88 Cu 0.15761 0.90694 0.37610
 N89 N 0.11329 0.91104 0.32796
 N90 N 0.13786 0.92364 0.33988
 C91 C 0.14587 0.94849 0.32317
 C92 C 0.12522 0.95146 0.29969
 C93 C 0.10484 0.92747 0.30324
 H94 H 0.16523 0.96327 0.32774
 H95 H 0.08542 0.92246 0.28889
 N96 N 0.17423 0.88666 0.41276
 N97 N 0.16184 0.86178 0.42515
 C98 C 0.17832 0.85351 0.44978
 C99 C 0.20201 0.87414 0.45286
 C100 C 0.19890 0.89484 0.42919
 H101 H 0.17351 0.83397 0.46441
 H102 H 0.21354 0.91437 0.42438
 H103 H 0.11901 0.88683 0.39454
 H104 H 0.14347 0.86179 0.37001
 C105 C 0.10131 0.14803 0.12515
 C106 C 0.12393 0.14796 0.10258
 C107 C 0.14665 0.12519 0.10278
 C108 C 0.14674 0.10247 0.12558
 C109 C 0.12413 0.10251 0.14816
 C110 C 0.10142 0.12530 0.14793
 H111 H 0.12386 0.16555 0.08494
 H112 H 0.16432 0.08483 0.12575
 H113 H 0.08391 0.12534 0.16540
 C114 C 0.39775 0.85174 0.62537
 C115 C 0.39750 0.87450 0.64807
 C116 C 0.37466 0.89715 0.64822
 C117 C 0.35206 0.89703 0.62564
 C118 C 0.35228 0.87430 0.60293
 C119 C 0.37514 0.85166 0.60281
 H120 H 0.41500 0.87458 0.66554
 H121 H 0.33437 0.91457 0.62575
 H122 H 0.37532 0.83405 0.58523
 C123 C 0.89847 0.64760 0.37500
 C124 C 0.87587 0.64746 0.39759
 C125 C 0.85314 0.62470 0.39740
 C126 C 0.85301 0.60207 0.37459
 C127 C 0.87559 0.60218 0.35198
 C128 C 0.89831 0.62495 0.35220
 H129 H 0.87598 0.66499 0.41524
 H130 H 0.83542 0.58445 0.37443
 H131 H 0.91580 0.62505 0.33470
 C132 C 0.60217 0.35245 -0.12540
 C133 C 0.62476 0.35237 -0.10280
 C134 C 0.64759 0.37502 -0.10295
 C135 C 0.64783 0.39777 -0.12572
 C136 C 0.62526 0.39787 -0.14833
 C137 C 0.60244 0.37521 -0.14815
 H138 H 0.62456 0.33476 -0.08518
 H139 H 0.66550 0.41531 -0.12585
 H140 H 0.58496 0.37528 -0.16564
 C141 C -0.02632 0.27623 0.12360
 C142 C -0.00680 0.25661 0.12389
 C143 C 0.01606 0.23363 0.12420
 C144 C 0.03558 0.21402 0.12444
 C145 C 0.05844 0.19105 0.12471
 C146 C 0.07798 0.17144 0.12492
 C147 C 0.52651 0.72472 0.62473
 C148 C 0.50678 0.74412 0.62481
 C149 C 0.48368 0.76685 0.62490
 C150 C 0.46398 0.78627 0.62500
 C151 C 0.44092 0.80904 0.62512
 C152 C 0.42124 0.82850 0.62523
 C153 C 1.02644 0.77541 0.37614
 C154 C 1.00683 0.75589 0.37596
 C155 C 0.98388 0.73301 0.37575
 C156 C 0.96430 0.71346 0.37557
 C157 C 0.94138 0.69056 0.37537
 C158 C 0.92181 0.67099 0.37520
 C159 C 0.47346 0.22540 -0.12462
 C160 C 0.49319 0.24479 -0.12472
 C161 C 0.51628 0.26752 -0.12485
 C162 C 0.53598 0.28695 -0.12496
 C163 C 0.55903 0.30972 -0.12510
 C164 C 0.57870 0.32918 -0.12523
 C165 C 0.12499 -0.02526 0.27631
 C166 C 0.12482 -0.00571 0.25671
 C167 C 0.12463 0.01718 0.23374
 C168 C 0.12449 0.03672 0.21414
 C169 C 0.12435 0.05962 0.19118
 C170 C 0.12424 0.07917 0.17158
 C171 C 0.62677 0.52590 -0.27622
 C172 C 0.62650 0.50631 -0.25667
 C173 C 0.62621 0.48336 -0.23376
 C174 C 0.62597 0.46378 -0.21419
 C175 C 0.62571 0.44084 -0.19128
 C176 C 0.62551 0.42126 -0.17171
 C177 C 0.37332 1.02520 0.77572
 C178 C 0.37355 1.00560 0.75623
 C179 C 0.37380 0.98265 0.73340
 C180 C 0.37400 0.96305 0.71390
 C181 C 0.37422 0.94011 0.69106
 C182 C 0.37442 0.92052 0.67154
 C183 C 0.87500 0.47520 0.22342
 C184 C 0.87507 0.49459 0.24313
 C185 C 0.87516 0.51731 0.26619
 C186 C 0.87524 0.53673 0.28586
 C187 C 0.87535 0.55948 0.30889
 C188 C 0.87545 0.57893 0.32854
 C189 C 0.27372 0.12510 -0.02423
 C190 C 0.25430 0.12509 -0.00478
 C191 C 0.23155 0.12508 0.01799
 C192 C 0.21211 0.12508 0.03743
 C193 C 0.18934 0.12510 0.06017
 C194 C 0.16989 0.12513 0.07960
 C195 C 0.72619 0.62437 0.52454
 C196 C 0.74560 0.62437 0.50507
 C197 C 0.76833 0.62440 0.48229
 C198 C 0.78775 0.62444 0.46283
 C199 C 0.81050 0.62451 0.44006
 C200 C 0.82993 0.62459 0.42061
 C201 C 0.77465 0.37484 0.02402
 C202 C 0.75519 0.37483 0.00462
 C203 C 0.73241 0.37483 -0.01811
 C204 C 0.71297 0.37485 -0.03753
 C205 C 0.69021 0.37489 -0.06029
 C206 C 0.67079 0.37494 -0.07973
 C207 C 0.22518 0.87411 0.47600
 C208 C 0.24463 0.87409 0.49542
 C209 C 0.26740 0.87410 0.51816
 C210 C 0.28684 0.87412 0.53758
 C211 C 0.30962 0.87416 0.56032
 C212 C 0.32906 0.87421 0.57974
   
