data_POSCAR
  _audit_creation_date              2014-09-24
  _audit_creation_method            'ToBaCCo'
  _symmetry_space_group_name_H-M    'P1'
  _symmetry_Int_Tables_number       1
  _symmetry_cell_setting            triclinic
  loop_
  _symmetry_equiv_pos_as_xyz
 x,y,z
_cell_length_a 55.8806
_cell_length_b 39.8953
_cell_length_c 39.4861
_cell_angle_alpha 89.823900
_cell_angle_beta 89.926400
_cell_angle_gamma 89.951100
loop_
  _atom_site_label
  _atom_site_type_symbol
  _atom_site_fract_x
  _atom_site_fract_y
  _atom_site_fract_z
Si1 Si 1.24904 0.24927 0.24917
 Si2 Si 0.74950 -0.24807 0.24890
 Si3 Si 0.74936 0.24851 -0.24986
 Si4 Si 1.24972 -0.25295 -0.25128
 Si5 Si 0.25045 0.25234 0.75010
 Si6 Si 0.74981 0.75030 0.75105
 Si7 Si 0.75079 0.24872 0.24999
 Si8 Si 0.25036 0.75007 0.25087
 O9 O 1.03484 0.05506 0.06250
 O10 O 1.06099 0.02545 0.02924
 C11 C 1.05634 0.04650 0.05334
 O12 O 0.96681 -0.06314 0.05674
 O13 O 0.94072 -0.03003 0.02677
 C14 C 0.94532 -0.05398 0.04807
 O15 O 1.03418 -0.06042 0.06052
 O16 O 1.06075 -0.03027 0.02822
 C17 C 1.05581 -0.05205 0.05172
 O18 O 0.96791 0.05979 0.05924
 O19 O 0.94143 0.02847 0.02844
 C20 C 0.94635 0.05150 0.05046
 Zr21 Zr 1.00117 0.04015 0.04313
 O22 O 0.99984 0.03526 0.09641
 O23 O 1.00391 0.09296 0.04608
 Zr24 Zr 1.00067 -0.04432 0.04132
 O25 O 0.99825 -0.04555 0.09479
 O26 O 1.00319 -0.09727 0.04016
 O27 O 1.02228 -0.00245 0.04877
 O28 O 0.97998 -0.00194 0.04839
 O29 O 0.96787 0.06218 -0.05833
 O30 O 0.94145 0.02952 -0.02862
 C31 C 0.94629 0.05341 -0.04986
 O32 O 1.03432 -0.05791 -0.06373
 O33 O 1.06072 -0.02881 -0.03059
 C34 C 1.05589 -0.04972 -0.05469
 O35 O 0.96696 -0.06053 -0.06020
 O36 O 0.94073 -0.02870 -0.02916
 C37 C 0.94543 -0.05173 -0.05131
 O38 O 1.03489 0.05801 -0.06126
 O39 O 1.06106 0.02688 -0.02940
 C40 C 1.05639 0.04904 -0.05259
 Zr41 Zr 1.00120 0.04226 -0.04252
 O42 O 0.99849 0.04331 -0.09599
 O43 O 1.00429 0.09513 -0.04131
 Zr44 Zr 1.00077 -0.04241 -0.04417
 O45 O 0.99806 -0.04139 -0.09763
 O46 O 1.00327 -0.09536 -0.04504
 Zr47 Zr 1.03652 -0.00144 -0.00062
 Zr48 Zr 0.96527 -0.00066 -0.00060
 O49 O 0.98018 0.00028 -0.04957
 O50 O 1.02232 -0.00015 -0.05004
 O51 O 0.97988 0.04804 0.00044
 O52 O 1.02151 -0.04977 -0.00154
 O53 O 1.02198 0.04718 0.00043
 O54 O 0.97935 -0.04973 -0.00156
 H55 H 0.96907 -0.00224 0.06819
 H56 H 1.03231 -0.06948 -0.00189
 H57 H 0.96937 0.00082 -0.06943
 H58 H 1.03290 0.06673 0.00088
 H59 H 0.98966 -0.10567 0.02649
 H60 H 0.98982 -0.10431 -0.03145
 H61 H 1.01123 -0.02717 -0.10627
 H62 H 1.01195 0.03001 -0.10517
 H63 H 0.99075 0.10386 -0.02779
 H64 H 0.99235 0.10241 0.02969
 H65 H 1.00028 0.05836 0.10552
 H66 H 1.00939 -0.02835 0.10349
 O67 O 1.03286 0.55868 0.56073
 O68 O 1.05921 0.52872 0.52804
 C69 C 1.05442 0.55010 0.55178
 O70 O 0.96575 0.43957 0.55835
 O71 O 0.93938 0.47155 0.52774
 C72 C 0.94418 0.44826 0.54970
 O73 O 1.03306 0.44316 0.56105
 O74 O 1.05936 0.47324 0.52827
 C75 C 1.05460 0.45172 0.55205
 O76 O 0.96550 0.56224 0.55737
 O77 O 0.93922 0.52966 0.52741
 C78 C 0.94396 0.55328 0.54891
 Zr79 Zr 0.99913 0.54332 0.54155
 O80 O 0.99674 0.54520 0.59501
 O81 O 1.00033 0.59615 0.53795
 Zr82 Zr 0.99932 0.45861 0.54213
 O83 O 0.99669 0.45876 0.59562
 O84 O 1.00219 0.40569 0.54241
 O85 O 1.02055 0.50104 0.54842
 O86 O 0.97846 0.50092 0.54822
 O87 O 0.96526 0.56221 0.44084
 O88 O 0.93913 0.52956 0.47125
 C89 C 0.94376 0.55316 0.44956
 O90 O 1.03263 0.44254 0.43705
 O91 O 1.05887 0.47270 0.46936
 C92 C 1.05414 0.45116 0.44579
 O93 O 0.96564 0.43927 0.44110
 O94 O 0.93929 0.47140 0.47153
 C95 C 0.94410 0.44794 0.44989
 O96 O 1.03232 0.55943 0.43669
 O97 O 1.05878 0.52932 0.46899
 C98 C 1.05390 0.55094 0.44536
 Zr99 Zr 0.99898 0.54310 0.45614
 O100 O 0.99612 0.54255 0.40268
 O101 O 1.00106 0.59606 0.45594
 Zr102 Zr 0.99921 0.45842 0.45654
 O103 O 0.99628 0.45854 0.40309
 O104 O 1.00211 0.40550 0.45682
 Zr105 Zr 1.03486 0.50096 0.49896
 Zr106 Zr 0.96361 0.50066 0.49932
 O107 O 0.97827 0.50067 0.45022
 O108 O 1.02048 0.50084 0.44960
 O109 O 0.97769 0.54959 0.49897
 O110 O 1.02009 0.45244 0.49928
 O111 O 1.01996 0.54939 0.49876
 O112 O 0.97797 0.45179 0.49948
 H113 H 0.96766 0.50098 0.56814
 H114 H 1.03096 0.43280 0.49932
 H115 H 0.96732 0.50062 0.43050
 H116 H 1.03077 0.56906 0.49868
 H117 H 0.98884 0.39681 0.52869
 H118 H 0.98886 0.39666 0.47085
 H119 H 1.00959 0.47222 0.39405
 H120 H 1.00979 0.52948 0.39380
 H121 H 0.99017 0.60422 0.47390
 H122 H 1.00033 0.60455 0.56154
 H123 H 1.00872 0.52929 0.60410
 H124 H 1.01014 0.47227 0.60439
 O125 O 0.53317 0.05839 0.56089
 O126 O 0.55943 0.02809 0.52848
 C127 C 0.55472 0.04979 0.55195
 O128 O 0.46617 -0.06113 0.55911
 O129 O 0.43964 -0.02939 0.52841
 C130 C 0.44456 -0.05261 0.55038
 O131 O 0.53348 -0.05745 0.56207
 O132 O 0.55961 -0.02740 0.52906
 C133 C 0.55498 -0.04877 0.55300
 O134 O 0.46610 0.06179 0.55786
 O135 O 0.43978 0.02906 0.52827
 C136 C 0.44457 0.05282 0.54957
 Zr137 Zr 0.49949 0.04257 0.54192
 O138 O 0.49712 0.04430 0.59539
 O139 O 0.50063 0.09540 0.53812
 Zr140 Zr 0.49976 -0.04215 0.54296
 O141 O 0.49710 -0.04164 0.59645
 O142 O 0.50270 -0.09505 0.54365
 O143 O 0.52094 0.00037 0.54902
 O144 O 0.47881 0.00014 0.54878
 O145 O 0.46586 0.06122 0.44088
 O146 O 0.43971 0.02867 0.47127
 C147 C 0.44437 0.05228 0.44960
 O148 O 0.53332 -0.05840 0.43824
 O149 O 0.55950 -0.02780 0.47036
 C150 C 0.55483 -0.04953 0.44694
 O151 O 0.46601 -0.06212 0.44204
 O152 O 0.43951 -0.02990 0.47217
 C153 C 0.44441 -0.05348 0.45065
 O154 O 0.53286 0.05766 0.43716
 O155 O 0.55930 0.02770 0.46972
 C156 C 0.55443 0.04913 0.44594
 Zr157 Zr 0.49931 0.04181 0.45650
 O158 O 0.49645 0.04093 0.40304
 O159 O 0.50145 0.09476 0.45590
 Zr160 Zr 0.49962 -0.04285 0.45742
 O161 O 0.49676 -0.04325 0.40397
 O162 O 0.50260 -0.09575 0.45797
 Zr163 Zr 0.53510 0.00002 0.49952
 Zr164 Zr 0.46384 -0.00048 0.49991
 O165 O 0.47860 -0.00069 0.45086
 O166 O 0.52079 -0.00044 0.45016
 O167 O 0.47798 0.04845 0.49930
 O168 O 0.52050 -0.04856 0.50015
 O169 O 0.52026 0.04846 0.49905
 O170 O 0.47837 -0.04928 0.50038
 H171 H 0.46804 0.00028 0.56873
 H172 H 0.53145 -0.06811 0.50031
 H173 H 0.46769 -0.00084 0.43111
 H174 H 0.53109 0.06812 0.49880
 H175 H 0.48942 -0.10406 0.52988
 H176 H 0.48936 -0.10455 0.47205
 H177 H 0.50995 -0.02939 0.39485
 H178 H 0.51018 0.02795 0.39423
 H179 H 0.49075 0.10305 0.47403
 H180 H 0.50068 0.10389 0.56168
 H181 H 0.50956 0.02910 0.60447
 H182 H 0.51052 -0.02802 0.60513
 O183 O 0.53442 0.55616 0.06490
 O184 O 0.56046 0.52650 0.03152
 C185 C 0.55589 0.54743 0.05575
 O186 O 0.46619 0.43844 0.05905
 O187 O 0.44016 0.47155 0.02901
 C188 C 0.44472 0.44765 0.05040
 O189 O 0.53347 0.44088 0.06259
 O190 O 0.56004 0.47098 0.03025
 C191 C 0.55508 0.44921 0.05371
 O192 O 0.46746 0.56138 0.06154
 O193 O 0.44092 0.53020 0.03071
 C194 C 0.44586 0.55321 0.05278
 Zr195 Zr 0.50069 0.54160 0.04537
 O196 O 0.49930 0.53681 0.09865
 O197 O 0.50364 0.59440 0.04821
 Zr198 Zr 0.49999 0.45708 0.04347
 O199 O 0.49765 0.45575 0.09694
 O200 O 0.50235 0.40413 0.04201
 O201 O 0.52168 0.49888 0.05093
 O202 O 0.47942 0.49957 0.05058
 O203 O 0.46715 0.56340 -0.05586
 O204 O 0.44064 0.53095 -0.02590
 C205 C 0.44555 0.55469 -0.04730
 O206 O 0.53371 0.44355 -0.06174
 O207 O 0.56012 0.47259 -0.02857
 C208 C 0.55529 0.45175 -0.05275
 O209 O 0.46639 0.44111 -0.05816
 O210 O 0.44016 0.47299 -0.02717
 C211 C 0.44487 0.44996 -0.04936
 O212 O 0.53446 0.55934 -0.05914
 O213 O 0.56048 0.52804 -0.02720
 C214 C 0.55592 0.55017 -0.05044
 Zr215 Zr 0.50069 0.54384 -0.04026
 O216 O 0.49807 0.54555 -0.09371
 O217 O 0.50380 0.59670 -0.03862
 Zr218 Zr 0.50016 0.45910 -0.04205
 O219 O 0.49740 0.46015 -0.09551
 O220 O 0.50262 0.40615 -0.04290
 Zr221 Zr 0.53592 0.49990 0.00154
 Zr222 Zr 0.46474 0.50094 0.00157
 O223 O 0.47965 0.50190 -0.04740
 O224 O 0.52172 0.50133 -0.04787
 O225 O 0.47940 0.54961 0.00270
 O226 O 0.52085 0.45162 0.00059
 O227 O 0.52151 0.54859 0.00268
 O228 O 0.47868 0.45181 0.00054
 H229 H 0.46851 0.49930 0.07039
 H230 H 0.53164 0.43190 0.00016
 H231 H 0.46884 0.50249 -0.06725
 H232 H 0.53252 0.56805 0.00318
 H233 H 0.48868 0.39587 0.02853
 H234 H 0.48908 0.39722 -0.02950
 H235 H 0.51068 0.47412 -0.10421
 H236 H 0.51098 0.53127 -0.10294
 H237 H 0.48997 0.60537 -0.02566
 H238 H 0.49202 0.60394 0.03196
 H239 H 0.49983 0.55993 0.10771
 H240 H 0.50873 0.47303 0.10563
 C241 C 1.20396 0.17246 0.22041
 C242 C 1.20073 0.17813 0.18572
 C243 C 1.21296 0.20438 0.16965
 C244 C 1.22804 0.22524 0.18834
 C245 C 1.23095 0.21999 0.22323
 C246 C 1.21903 0.19330 0.23910
 C247 C 1.18375 0.15834 0.16714
 C248 C 1.16893 0.14238 0.15204
 C249 C 1.15093 0.12444 0.13490
 C250 C 1.13502 0.10979 0.12068
 C251 C 1.11544 0.09315 0.10417
 C252 C 1.11971 0.06978 0.07850
 C253 C 1.10051 0.05432 0.06211
 C254 C 1.07676 0.06212 0.07119
 C255 C 1.07272 0.08545 0.09725
 C256 C 1.09193 0.10083 0.11358
 H257 H 1.19446 0.15238 0.23315
 H258 H 1.21043 0.20915 0.14287
 H259 H 1.23687 0.24590 0.17567
 H260 H 1.22097 0.18906 0.26606
 H261 H 1.13786 0.06366 0.07104
 H262 H 1.10428 0.03645 0.04220
 H263 H 1.05472 0.09202 0.10495
 H264 H 1.08844 0.11889 0.13343
 C265 C 1.21295 0.70317 0.66937
 C266 C 1.20051 0.67712 0.68541
 C267 C 1.20401 0.67100 0.71999
 C268 C 1.21947 0.69134 0.73861
 C269 C 1.23152 0.71794 0.72279
 C270 C 1.22842 0.72352 0.68799
 C271 C 1.18298 0.65814 0.66700
 C272 C 1.16773 0.64295 0.65197
 C273 C 1.14930 0.62595 0.63476
 C274 C 1.13315 0.61204 0.62032
 C275 C 1.11348 0.59609 0.60334
 C276 C 1.08997 0.60481 0.61179
 C277 C 1.07075 0.58981 0.59510
 C278 C 1.07480 0.56584 0.56965
 C279 C 1.09854 0.55714 0.56142
 C280 C 1.11774 0.57220 0.57818
 H281 H 1.21024 0.70826 0.64268
 H282 H 1.19436 0.65105 0.73269
 H283 H 1.22154 0.68686 0.76552
 H284 H 1.23734 0.74414 0.67537
 H285 H 1.08649 0.62329 0.63124
 H286 H 1.05274 0.59710 0.60209
 H287 H 1.10232 0.53875 0.54201
 H288 H 1.13588 0.56527 0.57146
 C289 C 0.71492 0.20377 0.66857
 C290 C 0.70042 0.17972 0.68438
 C291 C 0.70182 0.17512 0.71948
 C292 C 0.71712 0.19504 0.73877
 C293 C 0.73113 0.21991 0.72323
 C294 C 0.73029 0.22373 0.68791
 C295 C 0.68313 0.16104 0.66511
 C296 C 0.66801 0.14584 0.64972
 C297 C 0.64969 0.12855 0.63243
 C298 C 0.63360 0.11424 0.61818
 C299 C 0.61392 0.09770 0.60169
 C300 C 0.59039 0.10591 0.61060
 C301 C 0.57115 0.09022 0.59458
 C302 C 0.57516 0.06603 0.56931
 C303 C 0.59891 0.05781 0.56063
 C304 C 0.61814 0.07357 0.57672
 H305 H 0.71398 0.20757 0.64142
 H306 H 0.69067 0.15665 0.73202
 H307 H 0.71757 0.19167 0.76599
 H308 H 0.74100 0.24256 0.67528
 H309 H 0.58691 0.12453 0.62991
 H310 H 0.55314 0.09715 0.60194
 H311 H 0.60268 0.03928 0.54135
 H312 H 0.63628 0.06699 0.56963
 C313 C 0.72386 0.67561 0.18762
 C314 C 0.69899 0.67970 0.18966
 C315 C 0.68938 0.70509 0.20988
 C316 C 0.70445 0.72654 0.22774
 C317 C 0.72938 0.72308 0.22531
 C318 C 0.73900 0.69719 0.20551
 C319 C 0.68302 0.65838 0.17096
 C320 C 0.66867 0.64166 0.15575
 C321 C 0.65089 0.62337 0.13847
 C322 C 0.63500 0.60877 0.12412
 C323 C 0.61531 0.59249 0.10744
 C324 C 0.59184 0.60048 0.11679
 C325 C 0.57252 0.58564 0.10019
 C326 C 0.57641 0.56256 0.07387
 C327 C 0.60011 0.55442 0.06484
 C328 C 0.61942 0.56934 0.08152
 H329 H 0.73150 0.65591 0.17219
 H330 H 0.67017 0.70838 0.21180
 H331 H 0.69645 0.74573 0.24332
 H332 H 0.75820 0.69379 0.20379
 H333 H 0.58845 0.61842 0.13680
 H334 H 0.55455 0.59245 0.10785
 H335 H 0.60377 0.53671 0.04474
 H336 H 0.63752 0.56301 0.07403
 C337 C 0.78471 -0.20932 0.16471
 C338 C 0.79861 -0.18374 0.17886
 C339 C 0.79652 -0.17642 0.21338
 C340 C 0.78105 -0.19508 0.23382
 C341 C 0.76768 -0.22144 0.22001
 C342 C 0.76921 -0.22804 0.18520
 C343 C 0.81601 -0.16620 0.15863
 C344 C 0.83124 -0.15181 0.14258
 C345 C 0.84973 -0.13531 0.12479
 C346 C 0.86597 -0.12141 0.11040
 C347 C 0.88579 -0.10495 0.09407
 C348 C 0.88176 -0.07953 0.07027
 C349 C 0.90111 -0.06302 0.05515
 C350 C 0.92478 -0.07177 0.06367
 C351 C 0.92860 -0.09759 0.08743
 C352 C 0.90923 -0.11404 0.10248
 H353 H 0.78623 -0.21522 0.13803
 H354 H 0.80724 -0.15679 0.22463
 H355 H 0.78002 -0.18957 0.26063
 H356 H 0.75896 -0.24805 0.17391
 H357 H 0.86367 -0.07239 0.06349
 H358 H 0.89748 -0.04333 0.03692
 H359 H 0.94655 -0.10502 0.09455
 H360 H 0.91256 -0.13378 0.12080
 C361 C 0.81001 0.28720 0.70385
 C362 C 0.80110 0.31364 0.68421
 C363 C 0.77649 0.32049 0.68424
 C364 C 0.76092 0.30094 0.70392
 C365 C 0.76986 0.27446 0.72366
 C366 C 0.79451 0.26772 0.72345
 C367 C 0.81748 0.33350 0.66431
 C368 C 0.83201 0.34932 0.64828
 C369 C 0.84986 0.36700 0.63021
 C370 C 0.86570 0.38147 0.61539
 C371 C 0.88525 0.39811 0.59845
 C372 C 0.88087 0.42294 0.57409
 C373 C 0.90001 0.43918 0.55806
 C374 C 0.92382 0.43078 0.56622
 C375 C 0.92797 0.40566 0.59063
 C376 C 0.90883 0.38949 0.60658
 H377 H 0.82899 0.28162 0.70402
 H378 H 0.76937 0.34090 0.66914
 H379 H 0.74194 0.30648 0.70377
 H380 H 0.80190 0.24734 0.73823
 H381 H 0.86269 0.42981 0.56756
 H382 H 0.89612 0.45837 0.53940
 H383 H 0.94602 0.39853 0.59755
 H384 H 0.91245 0.37030 0.62537
 C385 C 0.30250 -0.22412 0.68084
 C386 C 0.30061 -0.18916 0.68021
 C387 C 0.28267 -0.17327 0.69903
 C388 C 0.26701 -0.19225 0.71899
 C389 C 0.26933 -0.22728 0.72057
 C390 C 0.28688 -0.24307 0.70079
 C391 C 0.31769 -0.16972 0.66128
 C392 C 0.33257 -0.15394 0.64595
 C393 C 0.35059 -0.13603 0.62865
 C394 C 0.36646 -0.12119 0.61440
 C395 C 0.38593 -0.10400 0.59805
 C396 C 0.38145 -0.07924 0.57370
 C397 C 0.40050 -0.06251 0.55809
 C398 C 0.42432 -0.07038 0.56669
 C399 C 0.42858 -0.09542 0.59114
 C400 C 0.40952 -0.11207 0.60668
 H401 H 0.31623 -0.23671 0.66621
 H402 H 0.28096 -0.14622 0.69858
 H403 H 0.25327 -0.17939 0.73315
 H404 H 0.28869 -0.27002 0.70079
 H405 H 0.36324 -0.07283 0.56682
 H406 H 0.39656 -0.04343 0.53934
 H407 H 0.44665 -0.10215 0.59836
 H408 H 0.41318 -0.13123 0.62549
 C409 C 0.28209 0.32908 0.19969
 C410 C 0.29985 0.31317 0.18055
 C411 C 0.30160 0.27819 0.18097
 C412 C 0.28601 0.25924 0.20098
 C413 C 0.26862 0.27504 0.22102
 C414 C 0.26645 0.31009 0.21971
 C415 C 0.31690 0.33255 0.16145
 C416 C 0.33178 0.34819 0.14593
 C417 C 0.34984 0.36582 0.12838
 C418 C 0.36579 0.38035 0.11395
 C419 C 0.38544 0.39708 0.09748
 C420 C 0.40893 0.38785 0.10540
 C421 C 0.42819 0.40415 0.08996
 C422 C 0.42423 0.43003 0.06630
 C423 C 0.40050 0.43901 0.05831
 C424 C 0.38125 0.42263 0.07384
 H425 H 0.28048 0.35615 0.19942
 H426 H 0.31518 0.26557 0.16611
 H427 H 0.28770 0.23229 0.20078
 H428 H 0.25284 0.32297 0.23414
 H429 H 0.41237 0.36808 0.12364
 H430 H 0.44617 0.39653 0.09669
 H431 H 0.39679 0.45877 0.04019
 H432 H 0.36312 0.42995 0.06750
 C433 C 0.78899 0.17092 -0.20755
 C434 C 0.80012 0.18614 -0.17983
 C435 C 0.79494 0.21959 -0.17208
 C436 C 0.77904 0.23789 -0.19228
 C437 C 0.76802 0.22289 -0.22031
 C438 C 0.77308 0.18922 -0.22775
 C439 C 0.81789 0.16810 -0.16062
 C440 C 0.83323 0.15330 -0.14514
 C441 C 0.85166 0.13628 -0.12767
 C442 C 0.86776 0.12196 -0.11330
 C443 C 0.88737 0.10509 -0.09680
 C444 C 0.91095 0.11387 -0.10485
 C445 C 0.93010 0.09723 -0.08947
 C446 C 0.92596 0.07146 -0.06575
 C447 C 0.90216 0.06294 -0.05765
 C448 C 0.88302 0.07965 -0.07310
 H449 H 0.79304 0.14517 -0.21404
 H450 H 0.80362 0.23175 -0.15090
 H451 H 0.77588 0.26392 -0.18634
 H452 H 0.76542 0.17727 -0.24976
 H453 H 0.91453 0.13352 -0.12318
 H454 H 0.94815 0.10447 -0.09630
 H455 H 0.89829 0.04328 -0.03948
 H456 H 0.86484 0.07263 -0.06667
 C457 C 0.81003 0.71016 0.29269
 C458 C 0.80063 0.68642 0.31517
 C459 C 0.77580 0.68211 0.31756
 C460 C 0.76047 0.70173 0.29763
 C461 C 0.76987 0.72589 0.27541
 C462 C 0.79477 0.72970 0.27285
 C463 C 0.81675 0.66676 0.33553
 C464 C 0.83117 0.65112 0.35186
 C465 C 0.84896 0.63367 0.37012
 C466 C 0.86483 0.61939 0.38496
 C467 C 0.88447 0.60301 0.40177
 C468 C 0.88028 0.57795 0.42593
 C469 C 0.89955 0.56185 0.44171
 C470 C 0.92327 0.57062 0.43346
 C471 C 0.92723 0.59602 0.40928
 C472 C 0.90796 0.61204 0.39358
 H473 H 0.82920 0.71357 0.29047
 H474 H 0.76833 0.66366 0.33475
 H475 H 0.74131 0.69813 0.29959
 H476 H 0.80262 0.74765 0.25559
 H477 H 0.86216 0.57074 0.43244
 H478 H 0.89583 0.54244 0.46022
 H479 H 0.94521 0.60343 0.40231
 H480 H 0.91140 0.63139 0.37488
 C481 C 0.29665 0.17722 0.28344
 C482 C 0.29957 0.18500 0.31770
 C483 C 0.28639 0.21124 0.33201
 C484 C 0.27076 0.23014 0.31192
 C485 C 0.26842 0.22321 0.27724
 C486 C 0.28106 0.19610 0.26338
 C487 C 0.31677 0.16681 0.33768
 C488 C 0.33171 0.15183 0.35369
 C489 C 0.34980 0.13461 0.37159
 C490 C 0.36573 0.12021 0.38615
 C491 C 0.38531 0.10341 0.40266
 C492 C 0.40884 0.11197 0.39419
 C493 C 0.42803 0.09544 0.40953
 C494 C 0.42396 0.07000 0.43363
 C495 C 0.40020 0.06166 0.44214
 C496 C 0.38101 0.07828 0.42671
 H497 H 0.30659 0.15677 0.27214
 H498 H 0.28840 0.21736 0.35857
 H499 H 0.26084 0.25023 0.32361
 H500 H 0.27890 0.18939 0.23704
 H501 H 0.41236 0.13137 0.37558
 H502 H 0.44604 0.10254 0.40238
 H503 H 0.39641 0.04225 0.46061
 H504 H 0.36286 0.07143 0.43344
 C505 C 0.29756 0.67558 -0.21641
 C506 C 0.30044 0.68372 -0.18222
 C507 C 0.28701 0.70981 -0.16811
 C508 C 0.27125 0.72830 -0.18834
 C509 C 0.26902 0.72113 -0.22298
 C510 C 0.28183 0.69407 -0.23663
 C511 C 0.31789 0.66618 -0.16211
 C512 C 0.33302 0.65186 -0.14586
 C513 C 0.35128 0.63546 -0.12755
 C514 C 0.36727 0.62169 -0.11253
 C515 C 0.38680 0.60545 -0.09534
 C516 C 0.38238 0.58016 -0.07152
 C517 C 0.40147 0.56383 -0.05561
 C518 C 0.42527 0.57259 -0.06338
 C519 C 0.42948 0.59829 -0.08715
 C520 C 0.41037 0.61456 -0.10300
 H521 H 0.30768 0.65521 -0.22754
 H522 H 0.28898 0.71618 -0.14160
 H523 H 0.26118 0.74832 -0.17680
 H524 H 0.27973 0.68715 -0.26292
 H525 H 0.36419 0.57290 -0.06543
 H526 H 0.39756 0.54418 -0.03744
 H527 H 0.44754 0.60569 -0.09375
 H528 H 0.41398 0.63409 -0.12143
 C529 C 1.18873 -0.20882 -0.21107
 C530 C 1.19790 -0.18414 -0.18962
 C531 C 1.22268 -0.17991 -0.18676
 C532 C 1.23821 -0.20047 -0.20523
 C533 C 1.22909 -0.22551 -0.22654
 C534 C 1.20421 -0.22933 -0.22948
 C535 C 1.18165 -0.16343 -0.17069
 C536 C 1.16729 -0.14687 -0.15530
 C537 C 1.14966 -0.12845 -0.13781
 C538 C 1.13397 -0.11354 -0.12330
 C539 C 1.11456 -0.09674 -0.10648
 C540 C 1.11905 -0.07377 -0.08055
 C541 C 1.09998 -0.05822 -0.06380
 C542 C 1.07617 -0.06554 -0.07280
 C543 C 1.07192 -0.08850 -0.09910
 C544 C 1.09099 -0.10395 -0.11577
 H545 H 1.16958 -0.21221 -0.21357
 H546 H 1.22998 -0.16078 -0.17034
 H547 H 1.25734 -0.19675 -0.20299
 H548 H 1.19657 -0.24802 -0.24599
 H549 H 1.13725 -0.06804 -0.07314
 H550 H 1.10391 -0.04067 -0.04369
 H551 H 1.05385 -0.09471 -0.10672
 H552 H 1.08733 -0.12172 -0.13581
 C553 C 1.18780 0.29271 0.28952
 C554 C 1.19682 0.31731 0.31118
 C555 C 1.22159 0.32173 0.31412
 C556 C 1.23723 0.30142 0.29554
 C557 C 1.22826 0.27646 0.27403
 C558 C 1.20340 0.27247 0.27099
 C559 C 1.18045 0.33774 0.33027
 C560 C 1.16601 0.35409 0.34579
 C561 C 1.14831 0.37232 0.36340
 C562 C 1.13256 0.38711 0.37795
 C563 C 1.11306 0.40381 0.39475
 C564 C 1.11744 0.42740 0.42015
 C565 C 1.09830 0.44300 0.43670
 C566 C 1.07451 0.43513 0.42802
 C567 C 1.07037 0.41148 0.40231
 C568 C 1.08951 0.39598 0.38584
 H569 H 1.16866 0.28916 0.28694
 H570 H 1.22878 0.34081 0.33069
 H571 H 1.25634 0.30529 0.29786
 H572 H 1.19585 0.25384 0.25431
 H573 H 1.13562 0.43363 0.42726
 H574 H 1.10214 0.46107 0.45636
 H575 H 1.05233 0.40481 0.39496
 H576 H 1.08593 0.37773 0.36622
 C577 C 0.71535 -0.20110 0.32932
 C578 C 0.70064 -0.17773 0.31290
 C579 C 0.70181 -0.17425 0.27765
 C580 C 0.71712 -0.19470 0.25882
 C581 C 0.73125 -0.21898 0.27504
 C582 C 0.73071 -0.22154 0.31048
 C583 C 0.68334 -0.15874 0.33184
 C584 C 0.66823 -0.14346 0.34721
 C585 C 0.64994 -0.12628 0.36466
 C586 C 0.63384 -0.11219 0.37915
 C587 C 0.61413 -0.09607 0.39601
 C588 C 0.59065 -0.10473 0.38748
 C589 C 0.57136 -0.08954 0.40395
 C590 C 0.57530 -0.06540 0.42924
 C591 C 0.59901 -0.05674 0.43755
 C592 C 0.61828 -0.07200 0.42102
 H593 H 0.71458 -0.20401 0.35659
 H594 H 0.69051 -0.15627 0.26467
 H595 H 0.71745 -0.19222 0.23150
 H596 H 0.74166 -0.23972 0.32362
 H597 H 0.58724 -0.12333 0.36814
 H598 H 0.55338 -0.09682 0.39691
 H599 H 0.60271 -0.03826 0.45688
 H600 H 0.63640 -0.06510 0.42780
 C601 C 0.72244 0.32583 -0.19032
 C602 C 0.69780 0.31932 -0.18966
 C603 C 0.68867 0.29203 -0.20760
 C604 C 0.70401 0.27106 -0.22573
 C605 C 0.72880 0.27687 -0.22591
 C606 C 0.73785 0.30478 -0.20852
 C607 C 0.68162 0.34024 -0.17068
 C608 C 0.66720 0.35667 -0.15515
 C609 C 0.64945 0.37475 -0.13739
 C610 C 0.63366 0.38930 -0.12260
 C611 C 0.61415 0.40567 -0.10540
 C612 C 0.59056 0.39792 -0.11424
 C613 C 0.57144 0.41302 -0.09726
 C614 C 0.57563 0.43614 -0.07108
 C615 C 0.59945 0.44397 -0.06251
 C616 C 0.61856 0.42879 -0.07956
 H617 H 0.72970 0.34712 -0.17683
 H618 H 0.66963 0.28689 -0.20754
 H619 H 0.69627 0.25042 -0.23946
 H620 H 0.75676 0.31052 -0.20926
 H621 H 0.58692 0.38004 -0.13419
 H622 H 0.55338 0.40642 -0.10460
 H623 H 0.60335 0.46169 -0.04255
 H624 H 0.63675 0.43498 -0.07249
 C625 C 1.21552 0.17081 -0.20681
 C626 C 1.19889 0.18609 -0.18524
 C627 C 1.19812 0.22109 -0.18283
 C628 C 1.21386 0.24071 -0.20197
 C629 C 1.23060 0.22551 -0.22351
 C630 C 1.23128 0.19044 -0.22595
 C631 C 1.18203 0.16601 -0.16653
 C632 C 1.16748 0.14958 -0.15123
 C633 C 1.14989 0.13091 -0.13379
 C634 C 1.13432 0.11560 -0.11936
 C635 C 1.11500 0.09822 -0.10278
 C636 C 1.09139 0.10591 -0.11156
 C637 C 1.07239 0.08974 -0.09539
 C638 C 1.07671 0.06557 -0.07007
 C639 C 1.10055 0.05780 -0.06153
 C640 C 1.11957 0.07408 -0.07780
 H641 H 1.21611 0.14377 -0.20914
 H642 H 1.18520 0.23320 -0.16645
 H643 H 1.21288 0.26776 -0.20012
 H644 H 1.24366 0.17813 -0.24290
 H645 H 1.08764 0.12456 -0.13085
 H646 H 1.05431 0.09635 -0.10266
 H647 H 1.10452 0.03932 -0.04218
 H648 H 1.13780 0.06795 -0.07079
 C649 C 1.21394 0.70550 0.32843
 C650 C 1.19775 0.68494 0.31121
 C651 C 1.19802 0.68411 0.27578
 C652 C 1.21435 0.70374 0.25766
 C653 C 1.23082 0.72423 0.27475
 C654 C 1.23032 0.72516 0.31035
 C655 C 1.18030 0.66560 0.32974
 C656 C 1.16534 0.64976 0.34496
 C657 C 1.14739 0.63170 0.36243
 C658 C 1.13165 0.61679 0.37700
 C659 C 1.11231 0.59969 0.39395
 C660 C 1.08864 0.60720 0.38524
 C661 C 1.06969 0.59120 0.40180
 C662 C 1.07412 0.56737 0.42743
 C663 C 1.09801 0.55982 0.43590
 C664 C 1.11696 0.57590 0.41926
 H665 H 1.21371 0.70665 0.35584
 H666 H 1.18543 0.66856 0.26214
 H667 H 1.21402 0.70299 0.23023
 H668 H 1.24218 0.74134 0.32441
 H669 H 1.08481 0.62557 0.36572
 H670 H 1.05158 0.59767 0.39458
 H671 H 1.10209 0.54162 0.45547
 H672 H 1.13522 0.56990 0.42623
 C673 C 0.71497 0.16744 0.29184
 C674 C 0.69828 0.18287 0.31320
 C675 C 0.69783 0.21783 0.31599
 C676 C 0.71391 0.23731 0.29734
 C677 C 0.73066 0.22199 0.27592
 C678 C 0.73108 0.18694 0.27318
 C679 C 0.68101 0.16304 0.33133
 C680 C 0.66612 0.14694 0.34625
 C681 C 0.64817 0.12878 0.36339
 C682 C 0.63238 0.11390 0.37776
 C683 C 0.61299 0.09696 0.39453
 C684 C 0.58940 0.10459 0.38559
 C685 C 0.57037 0.08885 0.40214
 C686 C 0.57468 0.06523 0.42797
 C687 C 0.59851 0.05753 0.43664
 C688 C 0.61754 0.07335 0.42001
 H689 H 0.71532 0.14042 0.28927
 H690 H 0.68488 0.23003 0.33226
 H691 H 0.71317 0.26436 0.29945
 H692 H 0.74351 0.17455 0.25635
 H693 H 0.58570 0.12286 0.36592
 H694 H 0.55229 0.09537 0.39478
 H695 H 0.60248 0.03947 0.45638
 H696 H 0.63575 0.06731 0.42715
 C697 C 0.70442 0.67415 -0.21875
 C698 C 0.70116 0.68026 -0.18416
 C699 C 0.71348 0.70658 -0.16859
 C700 C 0.72868 0.72710 -0.18767
 C701 C 0.73163 0.72141 -0.22246
 C702 C 0.71960 0.69465 -0.23783
 C703 C 0.68405 0.66086 -0.16520
 C704 C 0.66912 0.64525 -0.14978
 C705 C 0.65098 0.62773 -0.13226
 C706 C 0.63497 0.61343 -0.11775
 C707 C 0.61528 0.59716 -0.10095
 C708 C 0.61941 0.57260 -0.07626
 C709 C 0.60012 0.55718 -0.05985
 C710 C 0.57642 0.56619 -0.06795
 C711 C 0.57251 0.59085 -0.09291
 C712 C 0.59181 0.60619 -0.10924
 H713 H 0.69485 0.65401 -0.23112
 H714 H 0.71093 0.71170 -0.14189
 H715 H 0.73756 0.74787 -0.17539
 H716 H 0.72154 0.69010 -0.26472
 H717 H 0.63752 0.56543 -0.06964
 H718 H 0.60379 0.53828 -0.04080
 H719 H 0.55455 0.59841 -0.09981
 H720 H 0.58842 0.62519 -0.12832
 C721 C 0.80258 -0.22071 -0.18144
 C722 C 0.80100 -0.18572 -0.18154
 C723 C 0.78332 -0.16980 -0.20087
 C724 C 0.76759 -0.18881 -0.22054
 C725 C 0.76958 -0.22390 -0.22133
 C726 C 0.78690 -0.23968 -0.20111
 C727 C 0.81807 -0.16632 -0.16271
 C728 C 0.83293 -0.15065 -0.14736
 C729 C 0.85095 -0.13296 -0.12996
 C730 C 0.86684 -0.11839 -0.11561
 C731 C 0.88641 -0.10163 -0.09917
 C732 C 0.88210 -0.07732 -0.07442
 C733 C 0.90127 -0.06105 -0.05875
 C734 C 0.92503 -0.06896 -0.06768
 C735 C 0.92912 -0.09354 -0.09252
 C736 C 0.90994 -0.10972 -0.10812
 H737 H 0.81610 -0.23332 -0.16642
 H738 H 0.78185 -0.14272 -0.20100
 H739 H 0.75404 -0.17592 -0.23509
 H740 H 0.78844 -0.26665 -0.20048
 H741 H 0.86394 -0.07091 -0.06726
 H742 H 0.89748 -0.04232 -0.03969
 H743 H 0.94713 -0.10029 -0.10002
 H744 H 0.91346 -0.12855 -0.12721
 C745 C 0.80261 0.31547 0.28118
 C746 C 0.80194 0.31290 0.31653
 C747 C 0.78560 0.29117 0.33212
 C748 C 0.77000 0.27205 0.31240
 C749 C 0.77056 0.27470 0.27698
 C750 C 0.78704 0.29635 0.26148
 C751 C 0.81864 0.33165 0.33660
 C752 C 0.83313 0.34707 0.35284
 C753 C 0.85072 0.36474 0.37106
 C754 C 0.86631 0.37944 0.38588
 C755 C 0.88563 0.39643 0.40259
 C756 C 0.88102 0.42155 0.42639
 C757 C 0.90002 0.43829 0.44200
 C758 C 0.92386 0.43006 0.43391
 C759 C 0.92823 0.40461 0.41007
 C760 C 0.90924 0.38796 0.39456
 H761 H 0.81533 0.33198 0.26886
 H762 H 0.78512 0.28872 0.35944
 H763 H 0.75781 0.25500 0.32492
 H764 H 0.78792 0.29836 0.23414
 H765 H 0.86277 0.42829 0.43277
 H766 H 0.89601 0.45772 0.46026
 H767 H 0.94631 0.39759 0.40324
 H768 H 0.91299 0.36855 0.37616
 C769 C 0.30182 -0.22444 0.31837
 C770 C 0.30178 -0.18937 0.31726
 C771 C 0.28561 -0.17261 0.29608
 C772 C 0.26958 -0.19079 0.27608
 C773 C 0.26942 -0.22603 0.27725
 C774 C 0.28583 -0.24266 0.29840
 C775 C 0.31892 -0.17069 0.33686
 C776 C 0.33364 -0.15528 0.35284
 C777 C 0.35134 -0.13752 0.37096
 C778 C 0.36692 -0.12270 0.38583
 C779 C 0.38616 -0.10550 0.40274
 C780 C 0.38141 -0.08036 0.42652
 C781 C 0.40030 -0.06348 0.44233
 C782 C 0.42422 -0.07153 0.43449
 C783 C 0.42874 -0.09699 0.41069
 C784 C 0.40987 -0.11378 0.39498
 H785 H 0.31440 -0.23772 0.33440
 H786 H 0.28561 -0.14549 0.29469
 H787 H 0.25776 -0.17706 0.25942
 H788 H 0.28640 -0.26980 0.29937
 H789 H 0.36312 -0.07374 0.43274
 H790 H 0.39615 -0.04407 0.46054
 H791 H 0.44688 -0.10391 0.40403
 H792 H 0.41378 -0.13318 0.37664
 C793 C 0.28581 0.29533 -0.16841
 C794 C 0.30221 0.31674 -0.18430
 C795 C 0.30273 0.31901 -0.21968
 C796 C 0.28695 0.29989 -0.23909
 C797 C 0.27043 0.27851 -0.22329
 C798 C 0.27000 0.27620 -0.18783
 C799 C 0.31909 0.33554 -0.16449
 C800 C 0.33367 0.35097 -0.14837
 C801 C 0.35130 0.36861 -0.13013
 C802 C 0.36691 0.38321 -0.11518
 C803 C 0.38625 0.39999 -0.09821
 C804 C 0.38169 0.42452 -0.07375
 C805 C 0.40071 0.44081 -0.05770
 C806 C 0.42455 0.43273 -0.06598
 C807 C 0.42887 0.40794 -0.09054
 C808 C 0.40986 0.39174 -0.10650
 H809 H 0.28541 0.29313 -0.14106
 H810 H 0.31547 0.33528 -0.23227
 H811 H 0.28772 0.30166 -0.26645
 H812 H 0.25778 0.25940 -0.17506
 H813 H 0.36346 0.43109 -0.06715
 H814 H 0.39675 0.45973 -0.03889
 H815 H 0.44694 0.40103 -0.09757
 H816 H 0.41359 0.37280 -0.12540
 C817 C 1.21528 -0.20551 0.17208
 C818 C 1.19878 -0.18488 0.18873
 C819 C 1.19846 -0.18390 0.22415
 C820 C 1.21451 -0.20346 0.24284
 C821 C 1.23126 -0.22406 0.22633
 C822 C 1.23136 -0.22511 0.19073
 C823 C 1.18157 -0.16571 0.16959
 C824 C 1.16678 -0.15006 0.15386
 C825 C 1.14899 -0.13225 0.13582
 C826 C 1.13334 -0.11758 0.12082
 C827 C 1.11407 -0.10076 0.10346
 C828 C 1.09037 -0.10890 0.11141
 C829 C 1.07148 -0.09301 0.09465
 C830 C 1.07599 -0.06864 0.06957
 C831 C 1.09991 -0.06052 0.06178
 C832 C 1.11881 -0.07650 0.07864
 H833 H 1.21549 -0.20680 0.14468
 H834 H 1.18563 -0.16829 0.23735
 H835 H 1.21372 -0.20259 0.27025
 H836 H 1.24345 -0.24136 0.17709
 H837 H 1.08648 -0.12763 0.13056
 H838 H 1.05335 -0.09992 0.10135
 H839 H 1.10404 -0.04187 0.04267
 H840 H 1.13709 -0.06997 0.07227
 C841 C 1.21434 0.33306 0.70733
 C842 C 1.19780 0.31738 0.68603
 C843 C 1.19742 0.28237 0.68373
 C844 C 1.21347 0.26313 0.70271
 C845 C 1.23015 0.27872 0.72397
 C846 C 1.23042 0.31381 0.72632
 C847 C 1.18067 0.33704 0.66738
 C848 C 1.16593 0.35313 0.65207
 C849 C 1.14818 0.37140 0.63456
 C850 C 1.13252 0.38641 0.62001
 C851 C 1.11318 0.40348 0.60318
 C852 C 1.11775 0.42712 0.57771
 C853 C 1.09874 0.44307 0.56114
 C854 C 1.07489 0.43549 0.56986
 C855 C 1.07057 0.41183 0.59567
 C856 C 1.08956 0.39598 0.61215
 H857 H 1.21464 0.36012 0.70956
 H858 H 1.18456 0.26994 0.66755
 H859 H 1.21279 0.23605 0.70095
 H860 H 1.24274 0.32642 0.74307
 H861 H 1.13599 0.43311 0.57057
 H862 H 1.10273 0.46116 0.54142
 H863 H 1.05248 0.40538 0.60309
 H864 H 1.08582 0.37773 0.63183
 C865 C 0.72256 -0.17747 0.68533
 C866 C 0.69778 -0.18163 0.68854
 C867 C 0.68869 -0.20595 0.71066
 C868 C 0.70424 -0.22617 0.72937
 C869 C 0.72911 -0.22246 0.72604
 C870 C 0.73815 -0.19776 0.70407
 C871 C 0.68145 -0.16125 0.66926
 C872 C 0.66701 -0.14496 0.65363
 C873 C 0.64931 -0.12680 0.63592
 C874 C 0.63355 -0.11208 0.62130
 C875 C 0.61402 -0.09550 0.60443
 C876 C 0.59048 -0.10350 0.61340
 C877 C 0.57131 -0.08817 0.59681
 C878 C 0.57540 -0.06454 0.57091
 C879 C 0.59916 -0.05645 0.56219
 C880 C 0.61834 -0.07188 0.57887
 H881 H 0.72980 -0.15861 0.66839
 H882 H 0.66955 -0.20929 0.71345
 H883 H 0.69665 -0.24458 0.74639
 H884 H 0.75727 -0.19412 0.70151
 H885 H 0.58693 -0.12177 0.63314
 H886 H 0.55329 -0.09499 0.60421
 H887 H 0.60297 -0.03835 0.54241
 H888 H 0.63651 -0.06551 0.57172
 C889 C 0.71472 0.32960 0.20775
 C890 C 0.69844 0.31402 0.18597
 C891 C 0.69833 0.27906 0.18305
 C892 C 0.71436 0.25975 0.20195
 C893 C 0.73073 0.27523 0.22375
 C894 C 0.73078 0.31027 0.22666
 C895 C 0.68123 0.33371 0.16757
 C896 C 0.66640 0.34977 0.15249
 C897 C 0.64852 0.36796 0.13524
 C898 C 0.63279 0.38293 0.12087
 C899 C 0.61345 0.40008 0.10421
 C900 C 0.58982 0.39205 0.11262
 C901 C 0.57085 0.40815 0.09631
 C902 C 0.57527 0.43257 0.07128
 C903 C 0.59913 0.44064 0.06313
 C904 C 0.61809 0.42446 0.07952
 H905 H 0.71478 0.35661 0.21046
 H906 H 0.68567 0.26672 0.16649
 H907 H 0.71388 0.23270 0.19976
 H908 H 0.74286 0.32279 0.24382
 H909 H 0.58604 0.37322 0.13172
 H910 H 0.55275 0.40132 0.10325
 H911 H 0.60317 0.45935 0.04403
 H912 H 0.63634 0.43087 0.07286
 C913 C 0.80367 0.18289 0.21988
 C914 C 0.80350 0.18561 0.18453
 C915 C 0.78714 0.20707 0.16860
 C916 C 0.77103 0.22579 0.18798
 C917 C 0.77112 0.22303 0.22341
 C918 C 0.78760 0.20162 0.23924
 C919 C 0.82063 0.16713 0.16481
 C920 C 0.83538 0.15187 0.14878
 C921 C 0.85314 0.13433 0.13067
 C922 C 0.86880 0.11971 0.11581
 C923 C 0.88808 0.10275 0.09887
 C924 C 0.88339 0.07818 0.07457
 C925 C 0.90232 0.06152 0.05862
 C926 C 0.92619 0.06928 0.06688
 C927 C 0.93065 0.09417 0.09125
 C928 C 0.91172 0.11074 0.10710
 H929 H 0.81636 0.16654 0.23247
 H930 H 0.78703 0.20958 0.14127
 H931 H 0.75884 0.24266 0.17523
 H932 H 0.78810 0.19955 0.26659
 H933 H 0.86513 0.07182 0.06804
 H934 H 0.89825 0.04255 0.03993
 H935 H 0.94877 0.10082 0.09820
 H936 H 0.91554 0.12972 0.12591
 C937 C 0.79713 0.67786 0.71696
 C938 C 0.79973 0.68529 0.68250
 C939 C 0.78638 0.71133 0.66804
 C940 C 0.77092 0.73041 0.68816
 C941 C 0.76893 0.72389 0.72301
 C942 C 0.78172 0.69694 0.73705
 C943 C 0.81681 0.66701 0.66244
 C944 C 0.83167 0.65204 0.64630
 C945 C 0.84968 0.63492 0.62818
 C946 C 0.86555 0.62064 0.61339
 C947 C 0.88507 0.60401 0.59659
 C948 C 0.88069 0.57888 0.57274
 C949 C 0.89982 0.56243 0.55703
 C950 C 0.92361 0.57093 0.56506
 C951 C 0.92776 0.59639 0.58893
 C952 C 0.90863 0.61276 0.60455
 H953 H 0.80720 0.65755 0.72838
 H954 H 0.78813 0.71717 0.64134
 H955 H 0.76086 0.75034 0.67633
 H956 H 0.77980 0.69050 0.76354
 H957 H 0.86251 0.57190 0.56638
 H958 H 0.89596 0.54300 0.53874
 H959 H 0.94580 0.60363 0.59570
 H960 H 0.91222 0.63218 0.62299
 C961 C 0.30329 0.18655 0.71935
 C962 C 0.30253 0.18862 0.68397
 C963 C 0.28585 0.20973 0.66824
 C964 C 0.26998 0.22870 0.68782
 C965 C 0.27063 0.22654 0.72328
 C966 C 0.28746 0.20551 0.73892
 C967 C 0.31936 0.16982 0.66397
 C968 C 0.33386 0.15429 0.64772
 C969 C 0.35139 0.13646 0.62938
 C970 C 0.36692 0.12161 0.61440
 C971 C 0.38618 0.10448 0.59749
 C972 C 0.38150 0.07935 0.57373
 C973 C 0.40046 0.06254 0.55793
 C974 C 0.42433 0.07070 0.56578
 C975 C 0.42876 0.09615 0.58958
 C976 C 0.40982 0.11285 0.60528
 H977 H 0.31624 0.17050 0.73181
 H978 H 0.28525 0.21176 0.64088
 H979 H 0.25750 0.24521 0.67516
 H980 H 0.28839 0.20386 0.76627
 H981 H 0.36324 0.07266 0.56752
 H982 H 0.39641 0.04311 0.53972
 H983 H 0.44687 0.10312 0.59627
 H984 H 0.41364 0.13224 0.62365
 C985 C 0.30294 0.72444 0.18493
 C986 C 0.30284 0.68937 0.18599
 C987 C 0.28632 0.67265 0.20667
 C988 C 0.27000 0.69087 0.22624
 C989 C 0.26987 0.72611 0.22511
 C990 C 0.28665 0.74270 0.20447
 C991 C 0.32020 0.67063 0.16675
 C992 C 0.33506 0.65516 0.15102
 C993 C 0.35289 0.63735 0.13310
 C994 C 0.36852 0.62246 0.11831
 C995 C 0.38775 0.60516 0.10137
 C996 C 0.38295 0.58074 0.07690
 C997 C 0.40180 0.56384 0.06092
 C998 C 0.42573 0.57117 0.06928
 C999 C 0.43030 0.59588 0.09382
 C1000 C 0.41145 0.61269 0.10971
 H1001 H 0.31578 0.73769 0.16926
 H1002 H 0.28626 0.64552 0.20801
 H1003 H 0.25788 0.67717 0.24252
 H1004 H 0.28725 0.76984 0.20353
 H1005 H 0.36465 0.57470 0.07024
 H1006 H 0.39762 0.54503 0.04212
 H1007 H 0.44845 0.60222 0.10090
 H1008 H 0.41540 0.63152 0.12860
   
