data_POSCAR
  _audit_creation_date              2014-09-24
  _audit_creation_method            'ToBaCCo'
  _symmetry_space_group_name_H-M    'P1'
  _symmetry_Int_Tables_number       1
  _symmetry_cell_setting            triclinic
  loop_
  _symmetry_equiv_pos_as_xyz
 x,y,z
_cell_length_a 29.3558
_cell_length_b 29.3987
_cell_length_c 29.4360
_cell_angle_alpha 104.836400
_cell_angle_beta 74.716400
_cell_angle_gamma 74.278900
loop_
  _atom_site_label
  _atom_site_type_symbol
  _atom_site_fract_x
  _atom_site_fract_y
  _atom_site_fract_z
C1 C 0.54380 0.50911 0.00485
 C2 C 0.50882 0.54433 -0.00600
 C3 C 0.46536 0.53583 -0.01107
 C4 C 0.45626 0.49277 -0.00557
 C5 C 0.49119 0.45764 0.00525
 C6 C 0.53462 0.46608 0.01033
 H7 H 0.56150 0.43881 0.01850
 H8 H 0.43834 0.56299 -0.01925
 C9 C -0.00554 0.45742 0.50895
 C10 C 0.00597 0.49145 0.54326
 C11 C 0.01136 0.53465 0.53440
 C12 C 0.00550 0.54432 0.49165
 C13 C -0.00601 0.51021 0.45729
 C14 C -0.01139 0.46704 0.46622
 H15 H -0.02007 0.44068 0.43968
 H16 H 0.02005 0.56090 0.56108
 C17 C 0.49246 0.00468 0.45696
 C18 C 0.45774 -0.00651 0.49135
 C19 C 0.46615 -0.01145 0.53482
 C20 C 0.50886 -0.00545 0.54449
 C21 C 0.54370 0.00577 0.50996
 C22 C 0.53516 0.01069 0.46648
 H23 H 0.56194 0.01914 0.43974
 H24 H 0.43913 -0.01990 0.56132
 O25 O 0.46642 -0.00041 -0.05672
 O26 O 0.45146 0.01979 0.07600
 O27 O 0.45089 0.07638 0.02037
 O28 O 0.46697 -0.05698 -0.00111
 O29 O 0.54980 -0.07726 -0.02131
 O30 O 0.53371 0.05611 0.00016
 O31 O 0.53429 -0.00046 0.05577
 O32 O 0.54925 -0.02066 -0.07695
 Cu33 Cu 0.45059 0.01170 0.01164
 Cu34 Cu 0.55011 -0.01258 -0.01259
 C35 C 0.51023 -0.01340 -0.08912
 C36 C 0.49048 0.01253 0.08817
 C37 C 0.48972 0.08865 0.01335
 C38 C 0.51096 -0.08952 -0.01428
 O39 O -0.07692 0.54924 1.01960
 O40 O 0.05648 0.53415 0.99911
 O41 O 0.00108 0.53299 0.94262
 O42 O -0.02150 0.55038 1.07613
 O43 O -0.00098 0.46796 1.05763
 O44 O 0.02160 0.45057 0.92412
 O45 O 0.07702 0.45173 0.98064
 O46 O -0.05638 0.46682 1.00113
 Cu47 Cu -0.01225 0.55000 1.01120
 Cu48 Cu 0.01235 0.45096 0.98905
 C49 C -0.08905 0.51044 1.01326
 C50 C 0.08915 0.49054 0.98695
 C51 C 0.01459 0.48898 0.91095
 C52 C -0.01450 0.51196 1.08930
 O53 O 0.01970 -0.07649 0.45114
 O54 O -0.00175 0.05699 0.46734
 O55 O 0.07609 -0.02118 0.45054
 O56 O -0.05813 0.00170 0.46797
 O57 O -0.07700 0.02055 0.55003
 O58 O 0.05720 -0.00233 0.53260
 O59 O -0.02061 0.07586 0.54940
 O60 O 0.00085 -0.05762 0.53320
 Cu61 Cu 0.01084 -0.01161 0.45097
 Cu62 Cu -0.01176 0.01098 0.54958
 C63 C 0.01334 -0.08947 0.48958
 C64 C -0.01423 0.08883 0.51096
 C65 C 0.08918 -0.01506 0.48878
 C66 C -0.09009 0.01442 0.51179
 C67 C -0.41301 0.51526 1.00979
 C68 C -0.37433 0.51913 1.01397
 C69 C -0.32738 0.52168 1.01848
 C70 C -0.30639 0.55389 1.00033
 C71 C -0.25922 0.55389 1.00214
 C72 C -0.23292 0.52171 1.02214
 C73 C -0.25433 0.49014 1.04101
 C74 C -0.30144 0.49013 1.03919
 C75 C -0.18286 0.51903 1.02082
 C76 C -0.14033 0.51563 1.01829
 H77 H -0.32606 0.57832 0.98409
 H78 H -0.24288 0.57826 0.98719
 H79 H -0.23423 0.46492 1.05629
 H80 H -0.31724 0.46494 1.05315
 C81 C 0.41316 0.48641 0.98960
 C82 C 0.37450 0.48236 0.98550
 C83 C 0.32757 0.47962 0.98112
 C84 C 0.30176 0.51061 0.95987
 C85 C 0.25463 0.51049 0.95820
 C86 C 0.23308 0.47936 0.97776
 C87 C 0.25925 0.44772 0.99829
 C88 C 0.30644 0.44783 0.99995
 C89 C 0.18300 0.48197 0.97922
 C90 C 0.14045 0.48535 0.98185
 H91 H 0.31766 0.53548 0.94538
 H92 H 0.23463 0.53530 0.94250
 H93 H 0.24280 0.42369 1.01377
 H94 H 0.32601 0.42384 1.01661
 C95 C 0.01063 -0.41283 0.48487
 C96 C 0.01496 -0.37438 0.48053
 C97 C 0.01961 -0.32767 0.47753
 C98 C -0.00117 -0.30489 0.44757
 C99 C 0.00055 -0.25779 0.44751
 C100 C 0.02308 -0.23337 0.47736
 C101 C 0.04463 -0.25661 0.50659
 C102 C 0.04291 -0.30365 0.50667
 C103 C 0.02152 -0.18332 0.48029
 C104 C 0.01873 -0.14077 0.48398
 H105 H -0.01944 -0.32307 0.42504
 H106 H -0.01649 -0.24002 0.42498
 H107 H 0.06188 -0.23796 0.53003
 H108 H 0.05889 -0.32084 0.53014
 C109 C -0.01102 0.41217 0.51612
 C110 C -0.01540 0.37371 0.52033
 C111 C -0.02010 0.32699 0.52322
 C112 C 0.00075 0.30404 0.55304
 C113 C -0.00105 0.25695 0.55303
 C114 C -0.02374 0.23270 0.52325
 C115 C -0.04537 0.25610 0.49415
 C116 C -0.04356 0.30313 0.49415
 C117 C -0.02229 0.18266 0.52026
 C118 C -0.01956 0.14013 0.51656
 H119 H 0.01914 0.32208 0.57551
 H120 H 0.01605 0.23905 0.57545
 H121 H -0.06274 0.23758 0.47077
 H122 H -0.05960 0.32045 0.47079
 C123 C 0.51503 -0.01026 -0.41231
 C124 C 0.51890 -0.01433 -0.37363
 C125 C 0.52146 -0.01873 -0.32672
 C126 C 0.49028 -0.03962 -0.30105
 C127 C 0.49028 -0.04136 -0.25403
 C128 C 0.52148 -0.02223 -0.23244
 C129 C 0.55328 -0.00205 -0.25846
 C130 C 0.55330 -0.00033 -0.30554
 C131 C 0.51880 -0.02090 -0.18255
 C132 C 0.51540 -0.01837 -0.14018
 H133 H 0.46538 -0.05378 -0.31700
 H134 H 0.46535 -0.05679 -0.23415
 H135 H 0.57737 0.01309 -0.24199
 H136 H 0.57744 0.01605 -0.32501
 C137 C 0.48571 0.00972 0.41142
 C138 C 0.48181 0.01375 0.37276
 C139 C 0.47920 0.01809 0.32583
 C140 C 0.44789 -0.00099 0.30437
 C141 C 0.44790 0.00068 0.25726
 C142 C 0.47919 0.02147 0.23152
 C143 C 0.50985 0.04127 0.25340
 C144 C 0.50985 0.03959 0.30043
 C145 C 0.48189 0.02009 0.18161
 C146 C 0.48530 0.01753 0.13923
 H147 H 0.42417 -0.01785 0.32361
 H148 H 0.42423 -0.01499 0.24057
 H149 H 0.53438 0.05718 0.23373
 H150 H 0.53435 0.05428 0.31661
 C151 C 0.51557 -0.41283 -0.01128
 C152 C 0.51990 -0.37442 -0.01572
 C153 C 0.52289 -0.32772 -0.02045
 C154 C 0.49261 -0.30234 -0.04253
 C155 C 0.49272 -0.25531 -0.04432
 C156 C 0.52312 -0.23344 -0.02405
 C157 C 0.55411 -0.25922 -0.00274
 C158 C 0.55402 -0.30631 -0.00096
 C159 C 0.52023 -0.18338 -0.02249
 C160 C 0.51656 -0.14082 -0.01969
 H161 H 0.46824 -0.31847 -0.05750
 H162 H 0.46840 -0.23559 -0.06061
 H163 H 0.57755 -0.24251 0.01330
 H164 H 0.57743 -0.32555 0.01636
 C165 C 0.48410 0.41236 0.01080
 C166 C 0.47996 0.37388 0.01518
 C167 C 0.47718 0.32708 0.01981
 C168 C 0.50762 0.30170 0.04177
 C169 C 0.50771 0.25459 0.04347
 C170 C 0.47733 0.23265 0.02324
 C171 C 0.44618 0.25842 0.00206
 C172 C 0.44609 0.30559 0.00037
 C173 C 0.48036 0.18254 0.02163
 C174 C 0.48410 0.13996 0.01878
 H175 H 0.53197 0.31789 0.05672
 H176 H 0.53214 0.23489 0.05967
 H177 H 0.42275 0.24166 -0.01395
 H178 H 0.42255 0.32482 -0.01686
 C179 C -0.41374 0.01147 0.51713
 C180 C -0.37553 0.01625 0.52176
 C181 C -0.32901 0.02131 0.52501
 C182 C -0.30500 0.04498 0.49601
 C183 C -0.25794 0.04683 0.49606
 C184 C -0.23467 0.02503 0.52513
 C185 C -0.25913 0.00220 0.55491
 C186 C -0.30626 0.00036 0.55488
 C187 C -0.18443 0.02330 0.52189
 C188 C -0.14168 0.02024 0.51786
 H189 H -0.32217 0.06108 0.47259
 H190 H -0.23923 0.06429 0.47266
 H191 H -0.24132 -0.01506 0.57730
 H192 H -0.32442 -0.01822 0.57727
 C193 C 0.41290 -0.01250 0.48356
 C194 C 0.37469 -0.01722 0.47890
 C195 C 0.32816 -0.02219 0.47560
 C196 C 0.30517 -0.00068 0.44617
 C197 C 0.25803 -0.00245 0.44612
 C198 C 0.23378 -0.02577 0.47544
 C199 C 0.25727 -0.04813 0.50406
 C200 C 0.30435 -0.04635 0.50413
 C201 C 0.18353 -0.02400 0.47869
 C202 C 0.14076 -0.02091 0.48271
 H203 H 0.32317 0.01827 0.42415
 H204 H 0.24005 0.01523 0.42409
 H205 H 0.23872 -0.06598 0.52710
 H206 H 0.32169 -0.06289 0.52720
 C207 C -0.01192 0.51784 1.41233
 C208 C -0.01657 0.52237 1.37408
 C209 C -0.02149 0.52552 1.32754
 C210 C -0.04561 0.49713 1.30394
 C211 C -0.04737 0.49708 1.25694
 C212 C -0.02503 0.52543 1.23332
 C213 C -0.00174 0.55461 1.25734
 C214 C 0.00002 0.55467 1.30440
 C215 C -0.02330 0.52211 1.18323
 C216 C -0.02026 0.51805 1.14065
 H217 H -0.06214 0.47427 1.32142
 H218 H -0.06521 0.47415 1.23858
 H219 H 0.01593 0.57644 1.23925
 H220 H 0.01895 0.57659 1.32224
 C221 C 0.01186 0.48359 0.58810
 C222 C 0.01652 0.47890 0.62630
 C223 C 0.02146 0.47559 0.67278
 C224 C -0.00077 0.44706 0.69625
 C225 C 0.00101 0.44705 0.74328
 C226 C 0.02505 0.47553 0.76695
 C227 C 0.04812 0.50324 0.74300
 C228 C 0.04633 0.50327 0.69602
 C229 C 0.02335 0.47884 0.81702
 C230 C 0.02034 0.48290 0.85961
 H231 H -0.02028 0.42570 0.67869
 H232 H -0.01722 0.42572 0.76163
 H233 H 0.06654 0.52563 0.76108
 H234 H 0.06343 0.52565 0.67830
   
