data_POSCAR
  _audit_creation_date              2014-09-24
  _audit_creation_method            'ToBaCCo'
  _symmetry_space_group_name_H-M    'P1'
  _symmetry_Int_Tables_number       1
  _symmetry_cell_setting            triclinic
  loop_
  _symmetry_equiv_pos_as_xyz
 x,y,z
_cell_length_a 53.9983
_cell_length_b 54.4460
_cell_length_c 56.7472
_cell_angle_alpha 89.947600
_cell_angle_beta 90.103100
_cell_angle_gamma 89.915100
loop_
  _atom_site_label
  _atom_site_type_symbol
  _atom_site_fract_x
  _atom_site_fract_y
  _atom_site_fract_z
N1 N 0.18401 1.23508 0.17331
 N2 N 0.16753 1.23538 0.19038
 C3 C 0.15145 1.25393 0.18657
 C4 C 0.15842 1.26574 0.16614
 C5 C 0.17902 1.25341 0.15807
 H6 H 0.13561 1.25821 0.19747
 H7 H 0.18925 1.25713 0.14209
 Cu8 Cu 0.16826 1.21073 0.21520
 Cu9 Cu 0.21003 1.21028 0.17150
 Cu10 Cu 0.21136 1.16631 0.21585
 N11 N 0.16903 1.18609 0.24003
 N12 N 0.18603 1.16874 0.24017
 C13 C 0.18198 1.15358 0.25852
 C14 C 0.16143 1.16201 0.27040
 C15 C 0.15353 1.18255 0.25832
 H16 H 0.19275 1.13734 0.26254
 H17 H 0.13740 1.19362 0.26221
 N18 N 0.23537 1.16697 0.18972
 N19 N 0.23485 1.18370 0.17283
 C20 C 0.25300 1.17877 0.15726
 C21 C 0.26539 1.15809 0.16481
 C22 C 0.25385 1.15097 0.18532
 H23 H 0.25665 1.18910 0.14136
 H24 H 0.25829 1.13504 0.19591
 H25 H 0.19114 1.18309 0.18934
 H26 H 0.21191 1.20318 0.20716
 N27 N 0.81627 0.76325 0.17487
 N28 N 0.83285 0.76295 0.19188
 C29 C 0.84901 0.74452 0.18794
 C30 C 0.84198 0.73274 0.16751
 C31 C 0.82125 0.74500 0.15958
 H32 H 0.86495 0.74027 0.19878
 H33 H 0.81090 0.74124 0.14366
 Cu34 Cu 0.83223 0.78716 0.21706
 Cu35 Cu 0.79021 0.78792 0.17318
 Cu36 Cu 0.78926 0.83206 0.21713
 N37 N 0.83180 0.81249 0.24121
 N38 N 0.81486 0.82990 0.24124
 C39 C 0.81919 0.84527 0.25937
 C40 C 0.83987 0.83694 0.27118
 C41 C 0.84756 0.81624 0.25930
 H42 H 0.80848 0.86156 0.26331
 H43 H 0.86369 0.80515 0.26321
 N44 N 0.76491 0.83116 0.19124
 N45 N 0.76529 0.81433 0.17449
 C46 C 0.74702 0.81914 0.15895
 C47 C 0.73468 0.83987 0.16638
 C48 C 0.74639 0.84713 0.18679
 H49 H 0.74330 0.80875 0.14311
 H50 H 0.74208 0.86317 0.19724
 H51 H 0.80957 0.81492 0.19103
 H52 H 0.78852 0.79514 0.20890
 N53 N 0.81555 1.23645 -0.17384
 N54 N 0.83228 1.23689 -0.19067
 C55 C 0.84814 1.25551 -0.18660
 C56 C 0.84079 1.26723 -0.16624
 C57 C 0.82016 1.25476 -0.15852
 H58 H 0.86411 1.25992 -0.19725
 H59 H 0.80967 1.25838 -0.14268
 Cu60 Cu 0.83214 1.21234 -0.21556
 Cu61 Cu 0.78972 1.21153 -0.17241
 Cu62 Cu 0.78934 1.16773 -0.21684
 N63 N 0.83183 1.18785 -0.24048
 N64 N 0.81495 1.17042 -0.24087
 C65 C 0.81933 1.15540 -0.25924
 C66 C 0.83995 1.16400 -0.27088
 C67 C 0.84756 1.18449 -0.25861
 H68 H 0.80873 1.13914 -0.26344
 H69 H 0.86365 1.19566 -0.26230
 N70 N 0.76498 1.16816 -0.19099
 N71 N 0.76513 1.18484 -0.17409
 C72 C 0.74683 1.17976 -0.15873
 C73 C 0.73471 1.15903 -0.16643
 C74 C 0.74658 1.15204 -0.18681
 H75 H 0.74290 1.19001 -0.14286
 H76 H 0.74241 1.13611 -0.19747
 H77 H 0.80909 1.18449 -0.19009
 H78 H 0.78841 1.20455 -0.20815
 N79 N 0.18135 0.76555 -0.17341
 N80 N 0.16326 0.76738 -0.18887
 C81 C 0.14667 0.74940 -0.18486
 C82 C 0.15493 0.73573 -0.16596
 C83 C 0.17688 0.74638 -0.15902
 H84 H 0.12965 0.74674 -0.19459
 H85 H 0.18838 0.74097 -0.14427
 Cu86 Cu 0.16227 0.79353 -0.21224
 Cu87 Cu 0.20841 0.78900 -0.17218
 Cu88 Cu 0.21023 0.83310 -0.21602
 N89 N 0.16537 0.81677 -0.23814
 N90 N 0.18414 0.83208 -0.23963
 C91 C 0.18115 0.84646 -0.25876
 C92 C 0.15945 0.83962 -0.26973
 C93 C 0.14979 0.82085 -0.25631
 H94 H 0.19348 0.86112 -0.26396
 H95 H 0.13253 0.81127 -0.25928
 N96 N 0.23497 0.83122 -0.19058
 N97 N 0.23430 0.81434 -0.17386
 C98 C 0.25290 0.81850 -0.15851
 C99 C 0.26576 0.83886 -0.16606
 C100 C 0.25401 0.84657 -0.18632
 H101 H 0.25641 0.80802 -0.14266
 H102 H 0.25857 0.86258 -0.19673
 H103 H 0.19047 0.81816 -0.18825
 H104 H 0.20706 0.79611 -0.20801
 C105 C 0.47401 0.98507 -0.01767
 C106 C 0.48683 0.99922 -0.00098
 C107 C 0.47362 1.01325 0.01549
 C108 C 0.44769 1.01325 0.01519
 C109 C 0.43496 0.99897 -0.00137
 C110 C 0.44807 0.98483 -0.01775
 C111 C 0.51405 0.99937 -0.00076
 C112 C 0.52709 1.01349 -0.01728
 C113 C 0.55302 1.01383 -0.01689
 C114 C 0.56592 0.99981 -0.00020
 C115 C 0.55298 0.98556 0.01621
 C116 C 0.52705 0.98546 0.01604
 H117 H 0.48420 0.97416 -0.03036
 H118 H 0.48351 1.02428 0.02832
 H119 H 0.51707 1.02433 -0.03021
 H120 H 0.51700 0.97447 0.02876
 H121 H 0.41487 0.99888 -0.00152
 H122 H 0.58601 0.99999 0.00002
 C123 C -0.01281 0.47314 0.98336
 C124 C 0.00068 0.48597 1.00055
 C125 C 0.01432 0.47294 1.01755
 C126 C 0.01463 0.44722 1.01721
 C127 C 0.00096 0.43451 1.00018
 C128 C -0.01284 0.44741 0.98332
 C129 C 0.00055 0.51299 1.00072
 C130 C -0.01265 0.52575 1.01815
 C131 C -0.01296 0.55147 1.01814
 C132 C 0.00026 0.56444 1.00099
 C133 C 0.01361 0.55181 0.98370
 C134 C 0.01359 0.52609 0.98342
 H135 H -0.02346 0.48316 0.97028
 H136 H 0.02489 0.48281 1.03075
 H137 H -0.02286 0.51568 1.03144
 H138 H 0.02390 0.51627 0.97001
 H139 H 0.00106 0.41458 1.00003
 H140 H 0.00015 0.58437 1.00109
 C141 C 0.98438 -0.01508 0.47437
 C142 C 0.99950 0.00146 0.48674
 C143 C 1.01449 0.01805 0.47432
 C144 C 1.01439 0.01803 0.44964
 C145 C 0.99922 0.00158 0.43738
 C146 C 0.98420 -0.01494 0.44969
 C147 C 0.99969 0.00136 0.51264
 C148 C 1.01492 -0.01522 0.52490
 C149 C 1.01516 -0.01523 0.54958
 C150 C 1.00009 0.00119 0.56199
 C151 C 0.98482 0.01771 0.54984
 C152 C 0.98467 0.01786 0.52516
 H153 H 0.97280 -0.02791 0.48394
 H154 H 1.02625 0.03076 0.48384
 H155 H 1.02658 -0.02793 0.51526
 H156 H 0.97287 0.03066 0.51571
 H157 H 0.99914 0.00161 0.41827
 H158 H 1.00025 0.00111 0.58111
 C159 C 0.14631 0.28444 1.15517
 C160 C 0.13547 0.30079 1.14516
 C161 C 0.12238 0.31994 1.13282
 C162 C 0.13549 0.33776 1.12019
 C163 C 0.12275 0.35566 1.10729
 C164 C 0.09668 0.35595 1.10682
 C165 C 0.08369 0.33817 1.11988
 C166 C 0.09647 0.32029 1.13276
 C167 C 0.08309 0.37407 1.09207
 C168 C 0.06104 0.38496 1.10020
 C169 C 0.04762 0.40101 1.08574
 C170 C 0.05607 0.40640 1.06302
 C171 C 0.07818 0.39600 1.05493
 C172 C 0.09162 0.37997 1.06935
 C173 C 0.04151 0.42158 1.04750
 C174 C 0.02927 0.43365 1.03398
 H175 H 0.15556 0.33766 1.12012
 H176 H 0.13327 0.36927 1.09765
 H177 H 0.06365 0.33766 1.11960
 H178 H 0.08614 0.30650 1.14238
 H179 H 0.05415 0.38102 1.11770
 H180 H 0.03051 0.40895 1.09216
 H181 H 0.08479 0.39990 1.03731
 H182 H 0.10831 0.37163 1.06244
 C183 C -0.14537 0.71296 1.15589
 C184 C -0.13470 0.69663 1.14576
 C185 C -0.12186 0.67752 1.13322
 C186 C -0.10161 0.66557 1.14357
 C187 C -0.08848 0.64778 1.13093
 C188 C -0.09548 0.64171 1.10775
 C189 C -0.11608 0.65361 1.09764
 C190 C -0.12914 0.67140 1.11030
 C191 C -0.08092 0.62369 1.09382
 C192 C -0.09288 0.60692 1.07877
 C193 C -0.07909 0.59104 1.06455
 C194 C -0.05319 0.59165 1.06522
 C195 C -0.04112 0.60789 1.08049
 C196 C -0.05487 0.62378 1.09474
 C197 C -0.03902 0.57668 1.04927
 C198 C -0.02714 0.56480 1.03537
 H199 H -0.09583 0.67017 1.16131
 H200 H -0.07287 0.63877 1.13927
 H201 H -0.12170 0.64964 1.07972
 H202 H -0.14471 0.68063 1.10207
 H203 H -0.11290 0.60618 1.07791
 H204 H -0.08862 0.57858 1.05276
 H205 H -0.02108 0.60864 1.08103
 H206 H -0.04511 0.63666 1.10591
 C207 C -0.14673 0.28697 0.84559
 C208 C -0.13611 0.30324 0.85584
 C209 C -0.12324 0.32226 0.86848
 C210 C -0.13023 0.32806 0.89154
 C211 C -0.11709 0.34574 0.90428
 C212 C -0.09671 0.35783 0.89411
 C213 C -0.09004 0.35210 0.87079
 C214 C -0.10323 0.33442 0.85807
 C215 C -0.08198 0.37564 0.90813
 C216 C -0.05595 0.37556 0.90689
 C217 C -0.04200 0.39128 0.92113
 C218 C -0.05384 0.40733 0.93673
 C219 C -0.07973 0.40791 0.93776
 C220 C -0.09373 0.39219 0.92354
 C221 C -0.03942 0.42220 0.95257
 C222 C -0.02731 0.43404 0.96632
 H223 H -0.14560 0.31865 0.89982
 H224 H -0.12246 0.34945 0.92230
 H225 H -0.07462 0.36129 0.86240
 H226 H -0.09766 0.33007 0.84022
 H227 H -0.04635 0.36282 0.89546
 H228 H -0.02196 0.39056 0.92032
 H229 H -0.08908 0.42023 0.94980
 H230 H -0.11373 0.39290 0.92468
 C231 C 0.14218 0.71591 0.84548
 C232 C 0.13132 0.69957 0.85538
 C233 C 0.11818 0.68044 0.86759
 C234 C 0.13099 0.66013 0.87661
 C235 C 0.11836 0.64211 0.88939
 C236 C 0.09271 0.64421 0.89332
 C237 C 0.07996 0.66454 0.88389
 C238 C 0.09263 0.68252 0.87113
 C239 C 0.07943 0.62579 0.90790
 C240 C 0.05541 0.61807 0.90176
 C241 C 0.04242 0.60179 0.91625
 C242 C 0.05327 0.59299 0.93702
 C243 C 0.07732 0.60021 0.94306
 C244 C 0.09034 0.61646 0.92860
 C245 C 0.03933 0.57766 0.95282
 C246 C 0.02762 0.56548 0.96660
 H247 H 0.15078 0.65834 0.87396
 H248 H 0.12864 0.62655 0.89618
 H249 H 0.06030 0.66688 0.88691
 H250 H 0.08255 0.69823 0.86433
 H251 H 0.04663 0.62470 0.88580
 H252 H 0.02379 0.59637 0.91143
 H253 H 0.08582 0.59366 0.95920
 H254 H 0.10864 0.62232 0.93401
 C255 C 1.14998 0.15101 0.28891
 C256 C 1.13964 0.14098 0.30508
 C257 C 1.12706 0.12864 0.32403
 C258 C 1.11074 0.14161 0.33857
 C259 C 1.09776 0.12935 0.35635
 C260 C 1.10096 0.10394 0.35979
 C261 C 1.11766 0.09115 0.34524
 C262 C 1.13059 0.10343 0.32748
 C263 C 1.08636 0.09059 0.37787
 C264 C 1.09726 0.07172 0.39132
 C265 C 1.08307 0.05813 0.40726
 C266 C 1.05783 0.06325 0.40999
 C267 C 1.04693 0.08232 0.39706
 C268 C 1.06109 0.09595 0.38114
 C269 C 1.04280 0.04794 0.42487
 C270 C 1.02997 0.03459 0.43660
 H271 H 1.10787 0.16113 0.33605
 H272 H 1.08524 0.13974 0.36742
 H273 H 1.12024 0.07153 0.34718
 H274 H 1.14307 0.09319 0.31622
 H275 H 1.11672 0.06736 0.38942
 H276 H 1.09168 0.04337 0.41714
 H277 H 1.02736 0.08629 0.39889
 H278 H 1.05208 0.11013 0.37083
 C279 C 1.14866 -0.14937 0.71134
 C280 C 1.13887 -0.13933 0.69482
 C281 C 1.12687 -0.12697 0.67549
 C282 C 1.11086 -0.13985 0.66055
 C283 C 1.09824 -0.12752 0.64252
 C284 C 1.10149 -0.10210 0.63923
 C285 C 1.11795 -0.08941 0.65412
 C286 C 1.13052 -0.10178 0.67213
 C287 C 1.08706 -0.08861 0.62104
 C288 C 1.09803 -0.06958 0.60792
 C289 C 1.08393 -0.05577 0.59200
 C290 C 1.05874 -0.06085 0.58892
 C291 C 1.04778 -0.08009 0.60150
 C292 C 1.06184 -0.09391 0.61743
 C293 C 1.04375 -0.04535 0.57410
 C294 C 1.03088 -0.03188 0.56246
 H295 H 1.10790 -0.15937 0.66301
 H296 H 1.08592 -0.13783 0.63119
 H297 H 1.12058 -0.06979 0.65228
 H298 H 1.14277 -0.09160 0.68367
 H299 H 1.11746 -0.06525 0.61010
 H300 H 1.09257 -0.04085 0.58242
 H301 H 1.02824 -0.08402 0.59942
 H302 H 1.05276 -0.10818 0.62750
 C303 C 0.85149 -0.15198 0.28958
 C304 C 0.86204 -0.14195 0.30564
 C305 C 0.87500 -0.12969 0.32442
 C306 C 0.86183 -0.11784 0.34235
 C307 C 0.87451 -0.10510 0.36002
 C308 C 0.90056 -0.10403 0.35997
 C309 C 0.91361 -0.11627 0.34202
 C310 C 0.90090 -0.12898 0.32438
 C311 C 0.91409 -0.08953 0.37802
 C312 C 0.93650 -0.09823 0.38763
 C313 C 0.94994 -0.08386 0.40355
 C314 C 0.94116 -0.06067 0.41011
 C315 C 0.91867 -0.05205 0.40101
 C316 C 0.90518 -0.06638 0.38510
 C317 C 0.95594 -0.04508 0.42498
 C318 C 0.96865 -0.03158 0.43670
 H319 H 0.84177 -0.11828 0.34255
 H320 H 0.86396 -0.09608 0.37374
 H321 H 0.93362 -0.11549 0.34126
 H322 H 0.91127 -0.13797 0.31051
 H323 H 0.94369 -0.11608 0.38273
 H324 H 0.96738 -0.09068 0.41043
 H325 H 0.91181 -0.03403 0.40580
 H326 H 0.88820 -0.05902 0.37778
 C327 C 0.85165 0.15324 0.71063
 C328 C 0.86226 0.14347 0.69447
 C329 C 0.87526 0.13150 0.67556
 C330 C 0.90116 0.13111 0.67548
 C331 C 0.91391 0.11859 0.65775
 C332 C 0.90088 0.10622 0.63984
 C333 C 0.87483 0.10701 0.63989
 C334 C 0.86211 0.11957 0.65765
 C335 C 0.91446 0.09184 0.62174
 C336 C 0.90579 0.06861 0.61469
 C337 C 0.91934 0.05440 0.59875
 C338 C 0.94168 0.06320 0.58960
 C339 C 0.95020 0.08650 0.59610
 C340 C 0.93668 0.10075 0.61205
 C341 C 0.95656 0.04770 0.57472
 C342 C 0.96930 0.03427 0.56296
 H343 H 0.91151 0.14020 0.68932
 H344 H 0.93394 0.11803 0.65843
 H345 H 0.86429 0.09792 0.62620
 H346 H 0.84205 0.11978 0.65753
 H347 H 0.88895 0.06109 0.62206
 H348 H 0.91266 0.03632 0.59397
 H349 H 0.96748 0.09349 0.58914
 H350 H 0.94367 0.11868 0.61690
 C351 C 0.28506 1.14549 0.15282
 C352 C 0.30130 1.13474 0.14254
 C353 C 0.32034 1.12171 0.12997
 C354 C 0.33751 1.13458 0.11627
 C355 C 0.35533 1.12182 0.10324
 C356 C 0.35617 1.09599 0.10375
 C357 C 0.33905 1.08325 0.11786
 C358 C 0.32126 1.09604 0.13086
 C359 C 0.37424 1.08232 0.08901
 C360 C 0.38601 1.06106 0.09768
 C361 C 0.40204 1.04755 0.08331
 C362 C 0.40652 1.05511 0.06013
 C363 C 0.39521 1.07643 0.05148
 C364 C 0.37920 1.08997 0.06580
 C365 C 0.42176 1.04045 0.04483
 C366 C 0.43392 1.02809 0.03156
 H367 H 0.33698 1.15446 0.11547
 H368 H 0.36844 1.13216 0.09278
 H369 H 0.33898 1.06337 0.11836
 H370 H 0.30798 1.08590 0.14133
 H371 H 0.38280 1.05487 0.11555
 H372 H 0.41069 1.03106 0.09019
 H373 H 0.39842 1.08236 0.03351
 H374 H 0.37017 1.10603 0.05848
 C375 C 0.71502 1.14630 -0.15464
 C376 C 0.69875 1.13549 -0.14447
 C377 C 0.67970 1.12241 -0.13199
 C378 C 0.66173 1.13529 -0.11922
 C379 C 0.64390 1.12252 -0.10625
 C380 C 0.64384 1.09667 -0.10586
 C381 C 0.66176 1.08391 -0.11904
 C382 C 0.67957 1.09671 -0.13199
 C383 C 0.62577 1.08303 -0.09112
 C384 C 0.61493 1.06116 -0.09935
 C385 C 0.59900 1.04765 -0.08491
 C386 C 0.59366 1.05584 -0.06211
 C387 C 0.60400 1.07778 -0.05392
 C388 C 0.61993 1.09132 -0.06831
 C389 C 0.57860 1.04117 -0.04667
 C390 C 0.56659 1.02876 -0.03333
 H391 H 0.66165 1.15519 -0.11912
 H392 H 0.63017 1.13286 -0.09651
 H393 H 0.66244 1.06404 -0.11884
 H394 H 0.69346 1.08656 -0.14172
 H395 H 0.61884 1.05446 -0.11692
 H396 H 0.59112 1.03066 -0.09141
 H397 H 0.60013 1.08419 -0.03623
 H398 H 0.62824 1.10787 -0.06133
 C399 C 0.28567 0.85099 -0.15398
 C400 C 0.30206 0.86137 -0.14357
 C401 C 0.32123 0.87400 -0.13078
 C402 C 0.33603 0.89145 -0.14214
 C403 C 0.35392 0.90446 -0.12942
 C404 C 0.35725 0.90014 -0.10516
 C405 C 0.34248 0.88233 -0.09400
 C406 C 0.32458 0.86938 -0.10673
 C407 C 0.37542 0.91468 -0.09132
 C408 C 0.38971 0.90349 -0.07353
 C409 C 0.40571 0.91748 -0.05958
 C410 C 0.40771 0.94282 -0.06326
 C411 C 0.39396 0.95405 -0.08121
 C412 C 0.37794 0.94009 -0.09518
 C413 C 0.42275 0.95749 -0.04777
 C414 C 0.43468 0.96990 -0.03433
 H415 H 0.33358 0.89516 -0.16076
 H416 H 0.36518 0.91786 -0.13856
 H417 H 0.34431 0.87884 -0.07529
 H418 H 0.31313 0.85602 -0.09774
 H419 H 0.38842 0.88392 -0.07033
 H420 H 0.41624 0.90861 -0.04570
 H421 H 0.39523 0.97369 -0.08410
 H422 H 0.36696 0.94931 -0.10851
 C423 C 0.71498 0.85240 0.15428
 C424 C 0.69870 0.86298 0.14382
 C425 C 0.67961 0.87570 0.13092
 C426 C 0.66578 0.89427 0.14176
 C427 C 0.64795 0.90726 0.12888
 C428 C 0.64371 0.90182 0.10497
 C429 C 0.65749 0.88288 0.09435
 C430 C 0.67531 0.86994 0.10724
 C431 C 0.62564 0.91632 0.09091
 C432 C 0.61038 0.90479 0.07412
 C433 C 0.59443 0.91867 0.05993
 C434 C 0.59349 0.94423 0.06235
 C435 C 0.60821 0.95582 0.07932
 C436 C 0.62416 0.94199 0.09353
 C437 C 0.57848 0.95868 0.04659
 C438 C 0.56652 0.97089 0.03296
 H439 H 0.66892 0.89884 0.16010
 H440 H 0.63744 0.92154 0.13763
 H441 H 0.65493 0.87847 0.07590
 H442 H 0.68598 0.85566 0.09865
 H443 H 0.61086 0.88504 0.07189
 H444 H 0.58312 0.90950 0.04684
 H445 H 0.60773 0.97562 0.08125
 H446 H 0.63590 0.95145 0.10606
   
