data_POSCAR
  _audit_creation_date              2014-09-24
  _audit_creation_method            'ToBaCCo'
  _symmetry_space_group_name_H-M    'P1'
  _symmetry_Int_Tables_number       1
  _symmetry_cell_setting            triclinic
  loop_
  _symmetry_equiv_pos_as_xyz
 x,y,z
_cell_length_a 21.7298
_cell_length_b 21.8045
_cell_length_c 22.1097
_cell_angle_alpha 90.083800
_cell_angle_beta 90.027500
_cell_angle_gamma 90.016300
loop_
  _atom_site_label
  _atom_site_type_symbol
  _atom_site_fract_x
  _atom_site_fract_y
  _atom_site_fract_z
O1 O 0.31615 0.40489 0.05422
 O2 O 0.40411 0.31710 -0.05733
 O3 O 0.32128 0.39893 -0.06533
 O4 O 0.40220 0.32052 0.05884
 O5 O 0.33323 0.24604 0.05651
 O6 O 0.24258 0.33610 -0.05344
 O7 O 0.32968 0.24789 -0.06013
 O8 O 0.24686 0.33088 0.06103
 Cu9 Cu 0.36759 0.36802 -0.00182
 Cu10 Cu 0.28084 0.28263 0.00056
 C11 C 0.26679 0.38335 0.07633
 C12 C 0.38199 0.26734 -0.07739
 C13 C 0.26670 0.38287 -0.07815
 C14 C 0.38329 0.26842 0.07634
 O15 O 0.68387 0.59515 0.05337
 O16 O 0.59582 0.68319 -0.05761
 O17 O 0.67864 0.60101 -0.06598
 O18 O 0.59833 0.67955 0.05868
 O19 O 0.66746 0.75389 0.05642
 O20 O 0.75737 0.66388 -0.05423
 O21 O 0.67031 0.75232 -0.06031
 O22 O 0.75343 0.66896 0.06018
 Cu23 Cu 0.63243 0.63214 -0.00244
 Cu24 Cu 0.71940 0.71737 0.00002
 C25 C 0.73333 0.61659 0.07543
 C26 C 0.61789 0.73296 -0.07748
 C27 C 0.73319 0.61705 -0.07889
 C28 C 0.61752 0.73153 0.07643
 O29 O 0.59635 0.31715 1.05710
 O30 O 0.68389 0.40558 0.94602
 O31 O 0.59825 0.32114 0.94095
 O32 O 0.67863 0.39966 1.06543
 O33 O 0.75753 0.33709 1.05341
 O34 O 0.66749 0.24692 0.94305
 O35 O 0.75348 0.33186 0.93900
 O36 O 0.67108 0.24829 1.05965
 Cu37 Cu 0.63254 0.36850 1.00189
 Cu38 Cu 0.71969 0.28346 0.99921
 C39 C 0.61868 0.26747 1.07694
 C40 C 0.73330 0.38422 0.92384
 C41 C 0.61743 0.26919 0.92323
 C42 C 0.73324 0.38378 1.07820
 O43 O 0.40420 0.68261 1.05797
 O44 O 0.31630 0.59436 0.94653
 O45 O 0.40173 0.67912 0.94166
 O46 O 0.32145 0.60027 1.06597
 O47 O 0.24272 0.66312 1.05447
 O48 O 0.33245 0.75328 0.94408
 O49 O 0.24660 0.66799 0.94002
 O50 O 0.32966 0.75164 1.06075
 Cu51 Cu 0.36765 0.63152 1.00253
 Cu52 Cu 0.28059 0.71658 1.00031
 C53 C 0.38208 0.73238 1.07795
 C54 C 0.26675 0.61565 0.92459
 C55 C 0.38248 0.73107 0.92409
 C56 C 0.26691 0.61629 1.07896
 O57 O -0.06046 0.40534 0.31791
 O58 O 0.05322 0.31923 0.40570
 O59 O 0.05736 0.40439 0.32037
 O60 O -0.06901 0.32383 0.39874
 O61 O -0.05501 0.24464 0.33801
 O62 O 0.05593 0.33452 0.24787
 O63 O 0.06128 0.24974 0.33317
 O64 O -0.06252 0.33007 0.25066
 Cu65 Cu -0.00385 0.36977 0.36837
 Cu66 Cu -0.00034 0.28243 0.28508
 C67 C -0.08048 0.38235 0.26911
 C68 C 0.07610 0.26995 0.38500
 C69 C 0.07536 0.38508 0.26909
 C70 C -0.08098 0.26897 0.38357
 O71 O 0.05497 0.68037 0.59434
 O72 O -0.05925 0.59484 0.68194
 O73 O -0.06688 0.67644 0.60108
 O74 O 0.05869 0.59554 0.67990
 O75 O 0.05716 0.66544 0.75236
 O76 O -0.05329 0.75573 0.66179
 O77 O -0.06132 0.67028 0.74900
 O78 O 0.06290 0.75012 0.66666
 Cu79 Cu -0.00227 0.63014 0.63169
 Cu80 Cu 0.00121 0.71770 0.71481
 C81 C 0.07770 0.72980 0.61488
 C82 C -0.07943 0.61802 0.73056
 C83 C -0.07898 0.73130 0.61610
 C84 C 0.07650 0.61479 0.73126
 O85 O 0.94556 0.68109 0.40533
 O86 O 1.05961 0.59539 0.31771
 O87 O 1.06729 0.67734 0.39858
 O88 O 0.94165 0.59651 0.31973
 O89 O 0.94331 0.66632 0.24737
 O90 O 1.05391 0.75656 0.33796
 O91 O 1.06183 0.67068 0.25071
 O92 O 0.93775 0.75085 0.33320
 Cu93 Cu 1.00276 0.63091 0.36792
 Cu94 Cu 0.99944 0.71841 0.28493
 C95 C 0.92283 0.73047 0.38487
 C96 C 1.07980 0.61840 0.26909
 C97 C 1.07947 0.73217 0.38364
 C98 C 0.92381 0.61580 0.26846
 O99 O 0.94515 0.31820 0.59430
 O100 O 1.05910 0.40420 0.68230
 O101 O 1.06701 0.32269 0.60124
 O102 O 0.94123 0.40348 0.67972
 O103 O 0.94266 0.33365 0.75204
 O104 O 1.05342 0.24332 0.66161
 O105 O 1.06126 0.32884 0.74921
 O106 O 0.93734 0.24842 0.66638
 Cu107 Cu 1.00225 0.36875 0.63177
 Cu108 Cu 0.99884 0.28129 0.71470
 C109 C 0.92255 0.26867 0.61462
 C110 C 1.07930 0.38113 0.73093
 C111 C 1.07909 0.26782 0.61605
 C112 C 0.92335 0.38428 0.73098
 O113 O 0.32111 -0.05920 0.40306
 O114 O 0.40379 0.06049 0.31920
 O115 O 0.31980 0.06002 0.40316
 O116 O 0.40412 -0.05840 0.31908
 O117 O 0.33250 -0.05790 0.24794
 O118 O 0.24597 0.05877 0.33433
 O119 O 0.33196 0.05959 0.24831
 O120 O 0.24768 -0.05911 0.33376
 Cu121 Cu 0.36935 0.00090 0.36809
 Cu122 Cu 0.28205 0.00043 0.28401
 C123 C 0.26978 -0.07840 0.38339
 C124 C 0.38311 0.07881 0.26871
 C125 C 0.26785 0.07813 0.38410
 C126 C 0.38353 -0.07699 0.26860
 O127 O 0.67891 -0.06110 0.59798
 O128 O 0.59716 0.06003 0.68079
 O129 O 0.68061 0.05787 0.59630
 O130 O 0.59562 -0.05886 0.68155
 O131 O 0.66730 -0.05790 0.75262
 O132 O 0.75458 0.05738 0.66500
 O133 O 0.66915 0.05965 0.75153
 O134 O 0.75250 -0.06037 0.66714
 Cu135 Cu 0.63090 -0.00038 0.63222
 Cu136 Cu 0.71835 -0.00019 0.71617
 C137 C 0.73026 -0.08009 0.61770
 C138 C 0.61809 0.07885 0.73107
 C139 C 0.73267 0.07609 0.61504
 C140 C 0.61614 -0.07702 0.73214
 O141 O 0.32084 1.05982 0.59691
 O142 O 0.40271 0.93997 0.68132
 O143 O 0.31968 0.94063 0.59667
 O144 O 0.40398 1.05884 0.68096
 O145 O 0.33221 1.05853 0.75187
 O146 O 0.24550 0.94219 0.66507
 O147 O 0.33054 0.94102 0.75181
 O148 O 0.24726 1.06003 0.66599
 Cu149 Cu 0.36898 0.99966 0.63203
 Cu150 Cu 0.28137 1.00044 0.71574
 C151 C 0.26950 1.07914 0.61637
 C152 C 0.38165 0.92159 0.73164
 C153 C 0.26762 0.92264 0.61549
 C154 C 0.38337 1.07745 0.73138
 O155 O 0.67684 1.06681 0.39900
 O156 O 0.59809 0.93998 0.32036
 O157 O 0.68223 0.94507 0.40601
 O158 O 0.59521 1.05747 0.31718
 O159 O 0.67050 1.05962 0.24987
 O160 O 0.75304 0.93851 0.33450
 O161 O 0.66868 0.94168 0.24841
 O162 O 0.75620 1.05472 0.33788
 Cu163 Cu 0.63142 1.00166 0.36818
 Cu164 Cu 0.71955 0.99896 0.28542
 C165 C 0.73147 1.07997 0.38359
 C166 C 0.61811 0.92192 0.26942
 C167 C 0.73225 0.92298 0.38590
 C168 C 0.61784 1.07718 0.26813
 O169 O 0.90533 0.81587 0.44690
 O170 O 0.81756 0.90300 0.55898
 O171 O 0.89959 0.82067 0.56655
 O172 O 0.82084 0.90197 0.44312
 O173 O 0.74610 0.83319 0.44449
 O174 O 0.83654 0.74231 0.55396
 O175 O 0.74788 0.82901 0.56105
 O176 O 0.83093 0.74698 0.43954
 Cu177 Cu 0.86859 0.86697 0.50330
 Cu178 Cu 0.78272 0.78064 0.50018
 C179 C 0.88359 0.76683 0.42444
 C180 C 0.76753 0.88102 0.57867
 C181 C 0.88350 0.76620 0.57888
 C182 C 0.76861 0.88324 0.42527
 O183 O 0.18240 0.09610 0.55709
 O184 O 0.09395 0.18416 0.44624
 O185 O 0.17876 0.09868 0.44087
 O186 O 0.10032 0.17874 0.56561
 O187 O 0.16353 0.25711 0.55403
 O188 O 0.25350 0.16742 0.44336
 O189 O 0.16816 0.25328 0.43959
 O190 O 0.25190 0.17021 0.56002
 Cu191 Cu 0.13121 0.13274 0.50190
 Cu192 Cu 0.21691 0.21923 0.49968
 C193 C 0.23237 0.11803 0.57713
 C194 C 0.11548 0.23347 0.42434
 C195 C 0.23099 0.11764 0.42333
 C196 C 0.11656 0.23306 0.57862
 O197 O 0.09480 0.81550 0.55333
 O198 O 0.18259 0.90420 0.44245
 O199 O 0.10060 0.82133 0.43391
 O200 O 0.17866 0.90171 0.55866
 O201 O 0.25376 0.83341 0.55609
 O202 O 0.16397 0.74315 0.44564
 O203 O 0.25231 0.83033 0.43940
 O204 O 0.16944 0.74685 0.56001
 Cu205 Cu 0.13147 0.86731 0.49760
 Cu206 Cu 0.21757 0.78126 0.49975
 C207 C 0.11672 0.76639 0.57534
 C208 C 0.23263 0.88249 0.42240
 C209 C 0.11692 0.76703 0.42101
 C210 C 0.23097 0.88301 0.57619
 O211 O 0.90403 0.18216 0.55394
 O212 O 0.81958 0.09875 0.43592
 O213 O 0.90133 0.18073 0.43565
 O214 O 0.81973 0.09573 0.55467
 O215 O 0.74730 0.16682 0.55863
 O216 O 0.83293 0.25524 0.44351
 O217 O 0.74404 0.16609 0.44337
 O218 O 0.83133 0.25299 0.55859
 Cu219 Cu 0.86831 0.13221 0.49556
 Cu220 Cu 0.78135 0.21761 0.50036
 C221 C 0.88322 0.23225 0.57498
 C222 C 0.76648 0.11722 0.42094
 C223 C 0.88217 0.23350 0.42090
 C224 C 0.76908 0.11566 0.57553
 O225 O 0.55956 0.82122 0.90329
 O226 O 0.43905 0.90322 0.81958
 O227 O 0.43996 0.81984 0.90384
 O228 O 0.55837 0.90435 0.81973
 O229 O 0.55776 0.83299 0.74851
 O230 O 0.44125 0.74622 0.83499
 O231 O 0.43987 0.83154 0.74871
 O232 O 0.55945 0.74810 0.83385
 Cu233 Cu 0.49905 0.86929 0.86858
 Cu234 Cu 0.49950 0.78228 0.78442
 C235 C 0.57884 0.77012 0.88352
 C236 C 0.42056 0.88248 0.76911
 C237 C 0.42191 0.76796 0.88481
 C238 C 0.57690 0.88391 0.76920
 O239 O 0.56087 0.17896 0.09661
 O240 O 0.44085 0.09680 0.18087
 O241 O 0.44127 0.17986 0.09636
 O242 O 0.56039 0.09564 0.18014
 O243 O 0.56012 0.16734 0.25101
 O244 O 0.44265 0.25353 0.16517
 O245 O 0.44197 0.16854 0.25166
 O246 O 0.56077 0.25229 0.16583
 Cu247 Cu 0.50068 0.13066 0.13156
 Cu248 Cu 0.50134 0.21782 0.21553
 C249 C 0.57998 0.23024 0.11615
 C250 C 0.42244 0.11765 0.23132
 C251 C 0.42310 0.23167 0.11544
 C252 C 0.57926 0.11637 0.23046
 O253 O 0.56052 0.09725 0.81880
 O254 O 0.44021 0.17911 0.90287
 O255 O 0.44125 0.09618 0.81886
 O256 O 0.55975 0.18058 0.90303
 O257 O 0.55838 0.25414 0.83431
 O258 O 0.44159 0.16754 0.74785
 O259 O 0.44017 0.25228 0.83369
 O260 O 0.55950 0.16879 0.74800
 Cu261 Cu 0.50059 0.13114 0.86784
 Cu262 Cu 0.49994 0.21814 0.78388
 C263 C 0.57895 0.11795 0.76838
 C264 C 0.42092 0.23025 0.88334
 C265 C 0.42259 0.11661 0.76842
 C266 C 0.57785 0.23237 0.88401
 O267 O 0.44026 0.82082 0.09746
 O268 O 0.56034 0.90333 0.18165
 O269 O 0.55987 0.82011 0.09696
 O270 O 0.44116 0.90414 0.18107
 O271 O 0.44184 0.83294 0.25224
 O272 O 0.55873 0.74653 0.16563
 O273 O 0.55964 0.83179 0.25244
 O274 O 0.44045 0.74779 0.16677
 Cu275 Cu 0.50058 0.86921 0.13233
 Cu276 Cu 0.50027 0.78231 0.21633
 C277 C 0.42107 0.76967 0.11710
 C278 C 0.57879 0.88279 0.23216
 C279 C 0.57804 0.76831 0.11586
 C280 C 0.42269 0.88379 0.23159
 O281 O 0.90516 0.55963 0.81734
 O282 O 0.81930 0.44600 0.90488
 O283 O 0.90362 0.44187 0.81922
 O284 O 0.82299 0.56723 0.89854
 O285 O 0.74339 0.55430 0.83781
 O286 O 0.83337 0.44373 0.74693
 O287 O 0.74897 0.43853 0.83288
 O288 O 0.82943 0.56195 0.75040
 Cu289 Cu 0.86952 0.50301 0.86749
 Cu290 Cu 0.78145 0.49993 0.78464
 C291 C 0.88199 0.57976 0.76874
 C292 C 0.76963 0.42348 0.88444
 C293 C 0.88402 0.42404 0.76799
 C294 C 0.76799 0.57960 0.88362
 O295 O 0.18074 0.44523 0.09518
 O296 O 0.09499 0.55955 0.18239
 O297 O 0.17700 0.56676 0.10155
 O298 O 0.09574 0.44206 0.18079
 O299 O 0.16585 0.44391 0.25320
 O300 O 0.25669 0.55344 0.16203
 O301 O 0.17073 0.56201 0.24933
 O302 O 0.25073 0.43765 0.16744
 Cu303 Cu 0.13047 0.50254 0.13235
 Cu304 Cu 0.21834 0.49950 0.21535
 C305 C 0.23026 0.42258 0.11576
 C306 C 0.11825 0.57991 0.23092
 C307 C 0.23210 0.57887 0.11636
 C308 C 0.11505 0.42450 0.23216
 O309 O 0.81926 0.55470 0.09452
 O310 O 0.90469 0.44093 0.18236
 O311 O 0.82308 0.43335 0.10097
 O312 O 0.90385 0.55848 0.18022
 O313 O 0.83354 0.55686 0.25240
 O314 O 0.74327 0.44676 0.16127
 O315 O 0.82875 0.43876 0.24901
 O316 O 0.74902 0.56253 0.16649
 Cu317 Cu 0.86945 0.49762 0.13195
 Cu318 Cu 0.78127 0.50099 0.21464
 C319 C 0.76969 0.57742 0.11492
 C320 C 0.88128 0.42080 0.23084
 C321 C 0.76799 0.42123 0.11568
 C322 C 0.88432 0.57629 0.23144
 O323 O 0.18058 0.55389 0.90545
 O324 O 0.09470 0.43980 0.81780
 O325 O 0.17685 0.43256 0.89917
 O326 O 0.09622 0.55755 0.81956
 O327 O 0.16651 0.55546 0.74739
 O328 O 0.25645 0.44527 0.83852
 O329 O 0.17045 0.43728 0.75097
 O330 O 0.25094 0.56107 0.83355
 Cu331 Cu 0.13035 0.49667 0.86799
 Cu332 Cu 0.21843 0.49946 0.78527
 C333 C 0.23029 0.57632 0.88509
 C334 C 0.11788 0.41951 0.76922
 C335 C 0.23186 0.42015 0.88433
 C336 C 0.11582 0.57516 0.76833
   
