data_POSCAR
  _audit_creation_date              2014-09-24
  _audit_creation_method            'ToBaCCo'
  _symmetry_space_group_name_H-M    'P1'
  _symmetry_Int_Tables_number       1
  _symmetry_cell_setting            triclinic
  loop_
  _symmetry_equiv_pos_as_xyz
 x,y,z
_cell_length_a 15.2428
_cell_length_b 22.0973
_cell_length_c 18.1440
_cell_angle_alpha 90.737400
_cell_angle_beta 90.378500
_cell_angle_gamma 89.835800
loop_
  _atom_site_label
  _atom_site_type_symbol
  _atom_site_fract_x
  _atom_site_fract_y
  _atom_site_fract_z
B1 B -0.05273 -0.04603 0.03281
 B2 B 0.05156 -0.03009 0.05695
 B3 B 0.02796 -0.05421 -0.02927
 B4 B -0.06885 -0.02552 -0.05578
 B5 B -0.10666 0.01871 0.01499
 B6 B -0.03171 0.01503 0.08519
 B7 B 0.04751 0.06586 -0.03394
 B8 B -0.05719 0.05030 -0.05823
 B9 B -0.03372 0.07424 0.02793
 B10 B 0.06301 0.04496 0.05412
 B11 B 0.10057 0.00103 -0.01636
 B12 B 0.02590 0.00492 -0.08669
 B13 B 0.54472 0.48863 0.57929
 B14 B 0.43713 0.47962 0.55759
 B15 B 0.47785 0.54987 0.57600
 B16 B 0.57975 0.55373 0.54123
 B17 B 0.60185 0.48531 0.50124
 B18 B 0.51377 0.43977 0.51176
 B19 B 0.46407 0.53758 0.42922
 B20 B 0.57026 0.54504 0.45064
 B21 B 0.53000 0.47576 0.43278
 B22 B 0.42888 0.47228 0.46477
 B23 B 0.40546 0.53996 0.50683
 B24 B 0.49442 0.58558 0.49642
 B25 B 0.53759 0.06373 0.54911
 B26 B 0.43237 0.04144 0.54811
 B27 B 0.47689 0.07205 0.47187
 B28 B 0.58391 0.05035 0.46727
 B29 B 0.60454 0.00394 0.53971
 B30 B 0.51008 -0.00128 0.58953
 B31 B 0.47727 -0.04715 0.45146
 B32 B 0.58322 -0.02511 0.45539
 B33 B 0.53776 -0.05642 0.52931
 B34 B 0.43112 -0.03459 0.53496
 B35 B 0.41044 0.01245 0.46319
 B36 B 0.50557 0.01805 0.41354
 B37 B -0.03607 0.52992 0.07002
 B38 B 0.07271 0.53694 0.06637
 B39 B 0.02955 0.46715 0.06404
 B40 B -0.06515 0.47036 0.01659
 B41 B -0.07773 0.54292 -0.01249
 B42 B 0.00852 0.58418 0.01850
 B43 B 0.07157 0.49624 -0.07426
 B44 B -0.03713 0.48912 -0.06891
 B45 B 0.00607 0.55881 -0.06837
 B46 B 0.10212 0.55593 -0.02017
 B47 B 0.11496 0.48336 0.00947
 B48 B 0.02785 0.44200 -0.02219
 B49 B 0.06689 0.46639 0.45856
 B50 B -0.04166 0.47860 0.45056
 B51 B -0.00275 0.44308 0.52560
 B52 B 0.09618 0.47355 0.54785
 B53 B 0.11607 0.53048 0.48892
 B54 B 0.03046 0.53306 0.42770
 B55 B -0.02941 0.55948 0.56601
 B56 B 0.07886 0.54662 0.57257
 B57 B 0.03866 0.58296 0.49828
 B58 B -0.06053 0.55245 0.47582
 B59 B -0.08047 0.49621 0.53530
 B60 B 0.00705 0.49245 0.59513
 B61 B 0.45630 0.00014 -0.08018
 B62 B 0.56455 -0.00993 -0.06644
 B63 B 0.52285 0.06067 -0.06661
 B64 B 0.42191 0.05795 -0.02710
 B65 B 0.40390 -0.01498 -0.00181
 B66 B 0.49314 -0.05635 -0.02804
 B67 B 0.54792 0.02689 0.07431
 B68 B 0.43956 0.03571 0.05998
 B69 B 0.48084 -0.03602 0.05999
 B70 B 0.58236 -0.03153 0.02095
 B71 B 0.60042 0.04138 -0.00476
 B72 B 0.51098 0.08325 0.02047
 B73 B 0.46733 0.56829 -0.02674
 B74 B 0.57350 0.55305 -0.03736
 B75 B 0.53284 0.56323 0.04796
 B76 B 0.43195 0.53444 0.04896
 B77 B 0.40894 0.50437 -0.03567
 B78 B 0.49801 0.51724 -0.08994
 B79 B 0.55037 0.44388 0.02192
 B80 B 0.44240 0.45919 0.03476
 B81 B 0.48288 0.44917 -0.05161
 B82 B 0.58488 0.47972 -0.05408
 B83 B 0.60667 0.50852 0.03185
 B84 B 0.51853 0.49551 0.08583
 B85 B 0.05070 0.03159 0.42777
 B86 B -0.05834 0.03943 0.43669
 B87 B -0.01406 -0.03049 0.42667
 B88 B 0.08341 -0.03167 0.47153
 B89 B 0.09773 0.03826 0.51081
 B90 B 0.00935 0.08228 0.48772
 B91 B -0.05018 -0.01154 0.56832
 B92 B 0.05862 -0.01957 0.56021
 B93 B 0.01454 0.05043 0.56965
 B94 B -0.08268 0.05153 0.52502
 B95 B -0.09706 -0.01842 0.48570
 B96 B -0.00867 -0.06237 0.50871
 B97 B 0.78885 0.32168 0.27397
 B98 B 0.68178 0.30804 0.28233
 B99 B 0.72128 0.31423 0.19635
 B100 B 0.82191 0.28715 0.19545
 B101 B 0.84624 0.25698 0.27896
 B102 B 0.75835 0.26941 0.33516
 B103 B 0.70369 0.19601 0.22122
 B104 B 0.81150 0.21340 0.20698
 B105 B 0.77411 0.20061 0.29180
 B106 B 0.67065 0.23204 0.29924
 B107 B 0.64660 0.26049 0.21455
 B108 B 0.73413 0.24644 0.15910
 B109 B 0.73163 0.83215 0.78719
 B110 B 0.69691 0.80166 0.70681
 B111 B 0.80136 0.82730 0.71766
 B112 B 0.83809 0.80995 0.80266
 B113 B 0.75567 0.77669 0.84686
 B114 B 0.66661 0.77109 0.78858
 B115 B 0.80050 0.70671 0.72764
 B116 B 0.83843 0.73433 0.80678
 B117 B 0.73385 0.71148 0.80276
 B118 B 0.69615 0.72587 0.71600
 B119 B 0.77927 0.76274 0.66953
 B120 B 0.86673 0.76742 0.72762
 B121 B 0.27322 0.19636 0.72134
 B122 B 0.16736 0.21662 0.71731
 B123 B 0.21443 0.20790 0.79961
 B124 B 0.31847 0.23190 0.79558
 B125 B 0.33553 0.25762 0.70882
 B126 B 0.24077 0.24791 0.65952
 B127 B 0.20685 0.32724 0.77270
 B128 B 0.31223 0.30591 0.77965
 B129 B 0.26689 0.31587 0.69718
 B130 B 0.16108 0.29108 0.69937
 B131 B 0.14415 0.26612 0.78654
 B132 B 0.23841 0.27629 0.83566
 B133 B 0.21620 0.81757 0.22558
 B134 B 0.30886 0.78735 0.19462
 B135 B 0.30489 0.81132 0.28262
 B136 B 0.20421 0.79964 0.31570
 B137 B 0.14536 0.76250 0.24795
 B138 B 0.21116 0.75508 0.17208
 B139 B 0.28567 0.69144 0.28491
 B140 B 0.19239 0.72407 0.31833
 B141 B 0.19789 0.69686 0.23096
 B142 B 0.29808 0.71110 0.19523
 B143 B 0.35559 0.74614 0.26321
 B144 B 0.29059 0.75344 0.33937
 B145 B 0.32891 0.72052 0.80027
 B146 B 0.34486 0.73111 0.71012
 B147 B 0.24812 0.70374 0.73582
 B148 B 0.22456 0.73410 0.81779
 B149 B 0.30421 0.78575 0.84049
 B150 B 0.37995 0.78326 0.77153
 B151 B 0.22571 0.82407 0.71627
 B152 B 0.20976 0.80791 0.80641
 B153 B 0.30617 0.83795 0.77578
 B154 B 0.33144 0.80623 0.69282
 B155 B 0.24954 0.75775 0.67072
 B156 B 0.17387 0.75997 0.73978
 B157 B 0.20929 0.19244 0.28311
 B158 B 0.31480 0.21462 0.29583
 B159 B 0.27884 0.19140 0.21277
 B160 B 0.17425 0.21677 0.20013
 B161 B 0.14685 0.25415 0.27973
 B162 B 0.23437 0.25226 0.33819
 B163 B 0.28303 0.31284 0.21265
 B164 B 0.17733 0.29256 0.20428
 B165 B 0.21566 0.31306 0.28698
 B166 B 0.31926 0.29017 0.29634
 B167 B 0.34689 0.25094 0.21835
 B168 B 0.25828 0.25267 0.15942
 B169 B 0.79817 0.68866 0.22363
 B170 B 0.69220 0.71032 0.22172
 B171 B 0.74219 0.69788 0.30202
 B172 B 0.84811 0.72227 0.29681
 B173 B 0.86007 0.75028 0.21031
 B174 B 0.76295 0.74155 0.16472
 B175 B 0.73505 0.81786 0.28366
 B176 B 0.84060 0.79759 0.28254
 B177 B 0.78906 0.80879 0.20226
 B178 B 0.68491 0.78507 0.20955
 B179 B 0.67258 0.75646 0.29550
 B180 B 0.77045 0.76428 0.34172
 B181 B 0.70391 0.21766 0.70992
 B182 B 0.68390 0.23641 0.79785
 B183 B 0.78184 0.20723 0.77797
 B184 B 0.81130 0.22980 0.69354
 B185 B 0.73280 0.27813 0.66247
 B186 B 0.65390 0.28314 0.72950
 B187 B 0.80114 0.32871 0.78661
 B188 B 0.82512 0.30516 0.69892
 B189 B 0.72664 0.33641 0.72019
 B190 B 0.69547 0.31244 0.80589
 B191 B 0.77612 0.26659 0.83721
 B192 B 0.85669 0.26325 0.77158
 C193 C 0.12007 0.46712 0.85663
 C194 C 0.09319 0.47685 0.78547
 C195 C 0.12386 0.42861 0.74574
 C196 C 0.17016 0.39316 0.79424
 O197 O 0.16658 0.41598 0.86213
 H198 H 0.04960 0.51194 0.76633
 H199 H 0.10979 0.41830 0.68869
 C200 C 0.41367 0.56746 0.36239
 C201 C 0.38756 0.53803 0.29888
 C202 C 0.33223 0.57709 0.26446
 C203 C 0.32870 0.62852 0.30866
 O204 O 0.37840 0.62246 0.36815
 H205 H 0.40592 0.49340 0.27972
 H206 H 0.30201 0.56971 0.21109
 C207 C 0.90055 0.95920 0.63351
 C208 C 0.91673 0.97397 0.70575
 C209 C 0.88265 0.92851 0.74394
 C210 C 0.84474 0.88902 0.69314
 O211 O 0.85658 0.90748 0.62527
 H212 H 0.95563 1.00980 0.72918
 H213 H 0.88831 0.92377 0.80288
 C214 C 0.59657 0.05839 0.14347
 C215 C 0.57684 0.04955 0.21623
 C216 C 0.61251 0.09772 0.25353
 C217 C 0.65396 0.13284 0.20176
 O218 O 0.64394 0.10890 0.13492
 H219 H 0.53676 0.01450 0.23904
 H220 H 0.60780 0.10677 0.31200
 C221 C 0.88450 0.07168 0.37716
 C222 C 0.86911 0.04641 0.30938
 C223 C 0.82127 0.08740 0.27336
 C224 C 0.81031 0.13678 0.32083
 O225 O 0.85074 0.12721 0.38448
 H226 H 0.89053 0.00341 0.28737
 H227 H 0.80143 0.08175 0.21662
 C228 C 0.36130 0.44071 0.59499
 C229 C 0.28553 0.42978 0.55543
 C230 C 0.24433 0.38342 0.58673
 C231 C 0.29488 0.36924 0.64605
 O232 O 0.36824 0.40232 0.65057
 H233 H 0.26542 0.45098 0.50545
 H234 H 0.18486 0.36173 0.56759
 C235 C 0.62271 0.96149 0.87185
 C236 C 0.63350 0.98607 0.80373
 C237 C 0.67836 0.94400 0.76454
 C238 C 0.69163 0.89577 0.81136
 O239 O 0.65660 0.90634 0.87660
 H240 H 0.60993 1.02905 0.78414
 H241 H 0.69822 0.94901 0.70813
 C242 C 0.11571 0.56545 0.13631
 C243 C 0.10349 0.54453 0.20674
 C244 C 0.12705 0.59100 0.25177
 C245 C 0.15188 0.63703 0.20583
 O246 O 0.14507 0.62150 0.13578
 H247 H 0.07618 0.50202 0.22392
 H248 H 0.12931 0.58973 0.31081
 C249 C 0.45231 0.89965 0.10041
 C250 C 0.49617 0.84579 0.08451
 C251 C 0.44445 0.79924 0.10664
 C252 C 0.37139 0.82544 0.13772
 O253 O 0.37513 0.88655 0.13232
 H254 H 0.55672 0.84052 0.05480
 H255 H 0.46098 0.75170 0.10445
 C256 C 0.55965 0.43597 0.36644
 C257 C 0.57588 0.46189 0.30069
 C258 C 0.61792 0.41921 0.26253
 C259 C 0.62366 0.36736 0.30555
 O260 O 0.58853 0.37880 0.37088
 H261 H 0.56764 0.50870 0.28503
 H262 H 0.65024 0.43137 0.21321
 C263 C 0.98490 0.61304 0.87652
 C264 C 1.04745 0.65220 0.85227
 C265 C 1.00293 0.70305 0.83082
 C266 C 0.91583 0.69261 0.84264
 O267 O 0.90514 0.63746 0.87021
 H268 H 1.11737 0.64511 0.85487
 H269 H 1.02874 0.74377 0.80826
 C270 C 0.03300 0.09895 0.63236
 C271 C -0.02624 0.11815 0.68429
 C272 C 0.01588 0.16196 0.72405
 C273 C 0.09556 0.16955 0.69059
 O274 O 0.10634 0.13114 0.63496
 H275 H -0.09262 0.10260 0.69115
 H276 H -0.00790 0.18581 0.77202
 C277 C 0.12902 0.43322 0.40084
 C278 C 0.20499 0.46065 0.37556
 C279 C 0.24563 0.41941 0.33407
 C280 C 0.18947 0.37151 0.32985
 O281 O 0.11890 0.37846 0.37190
 H282 H 0.23171 0.50479 0.38876
 H283 H 0.31002 0.42305 0.31055
 C284 C 0.43253 0.62874 0.94226
 C285 C 0.47762 0.68145 0.95506
 C286 C 0.45202 0.71800 0.90108
 C287 C 0.38827 0.68680 0.86008
 O288 O 0.37695 0.63173 0.88544
 H289 H 0.52988 0.69065 0.99413
 H290 H 0.47610 0.76361 0.89413
 C291 C 0.56592 0.11983 0.59420
 C292 C 0.52127 0.17288 0.58591
 C293 C 0.56402 0.21232 0.62636
 C294 C 0.63437 0.18168 0.65946
 O295 O 0.63589 0.12427 0.63831
 H296 H 0.46382 0.18348 0.55371
 H297 H 0.54481 0.25948 0.62875
 C298 C 0.88507 0.90413 0.06413
 C299 C 0.81047 0.88659 0.02634
 C300 C 0.76190 0.85659 0.07535
 C301 C 0.81025 0.85600 0.14006
 O302 O 0.88552 0.88537 0.13334
 H303 H 0.79199 0.89623 -0.02996
 H304 H 0.70156 0.83313 0.06307
 C305 C 0.88024 0.08309 0.88188
 C306 C 0.82003 0.05101 0.83994
 C307 C 0.78015 0.09090 0.79448
 C308 C 0.81506 0.14579 0.81308
 O309 O 0.87634 0.14167 0.86620
 H310 H 0.80574 0.00355 0.84313
 H311 H 0.73107 0.08164 0.75279
 C312 C 0.14396 0.57695 0.63471
 C313 C 0.20817 0.54508 0.67196
 C314 C 0.24985 0.58494 0.71819
 C315 C 0.21112 0.63992 0.70522
 O316 O 0.14666 0.63523 0.65457
 H317 H 0.22404 0.49794 0.66589
 H318 H 0.30532 0.57558 0.75384
 C319 C 0.65777 0.94341 0.40379
 C320 C 0.70087 0.97652 0.35158
 C321 C 0.73179 0.93646 0.30003
 C322 C 0.70806 0.88034 0.32430
 O323 O 0.66338 0.88426 0.38770
 H324 H 0.70155 1.02504 0.34813
 H325 H 0.76559 0.94696 0.24961
 C326 C 0.37088 0.42387 0.08328
 C327 C 0.29861 0.45516 0.10953
 C328 C 0.26651 0.42302 0.16526
 C329 C 0.31580 0.37104 0.16823
 O330 O 0.38147 0.37193 0.11932
 H331 H 0.27467 0.49920 0.09354
 H332 H 0.20954 0.43543 0.19692
 C333 C 0.55136 0.61588 0.10702
 C334 C 0.49073 0.63323 0.15913
 C335 C 0.53460 0.66685 0.21039
 C336 C 0.61864 0.66999 0.18495
 O337 O 0.62935 0.63900 0.12242
 H338 H 0.42274 0.62094 0.16004
 H339 H 0.50938 0.68653 0.26067
 C340 C 0.06459 0.88630 0.93693
 C341 C 0.06538 0.83188 0.97181
 C342 C 0.11697 0.79632 0.92904
 C343 C 0.14314 0.83123 0.86935
 O344 O 0.11091 0.88622 0.87527
 H345 H 0.03592 0.82043 1.02390
 H346 H 0.13505 0.75026 0.94190
 C347 C 0.44891 0.13141 0.42900
 C348 C 0.50772 0.17640 0.41235
 C349 C 0.46729 0.21069 0.36092
 C350 C 0.38675 0.18425 0.34789
 O351 O 0.37503 0.13617 0.38980
 H352 H 0.57394 0.18208 0.43316
 H353 H 0.49308 0.25109 0.33610
 C354 C 0.96294 0.38170 0.56061
 C355 C 1.00197 0.32587 0.55559
 C356 C 0.95952 0.29142 0.60635
 C357 C 0.89752 0.32844 0.64033
 O358 O 0.89931 0.38293 0.61136
 H359 H 1.05583 0.31219 0.52055
 H360 H 0.97177 0.24412 0.61629
 C361 C 0.90156 0.55610 0.13352
 C362 C 0.82102 0.53136 0.14749
 C363 C 0.77679 0.57278 0.18924
 C364 C 0.82997 0.62315 0.19334
 O365 O 0.90594 0.61297 0.15926
 H366 H 0.79474 0.48971 0.12449
 H367 H 0.71095 0.56769 0.20996
 C368 C 0.60482 0.46431 0.64458
 C369 C 0.68371 0.49295 0.66039
 C370 C 0.73898 0.44920 0.68309
 C371 C 0.68995 0.39800 0.68797
 O372 O 0.60898 0.40612 0.66195
 H373 H 0.70343 0.53830 0.64632
 H374 H 0.80763 0.45333 0.69475
 C375 C 0.09979 0.06166 0.36206
 C376 C 0.07955 0.05086 0.28936
 C377 C 0.11885 0.09549 0.25243
 C378 C 0.16210 0.13093 0.30443
 O379 O 0.14966 0.11066 0.37164
 H380 H 0.03595 0.01784 0.26532
 H381 H 0.11297 0.10280 0.19388
 C382 C 0.40584 0.97421 0.85067
 C383 C 0.42540 0.98461 0.77823
 C384 C 0.38864 0.93730 0.74041
 C385 C 0.34572 0.90299 0.79174
 O386 O 0.35665 0.92519 0.85855
 H387 H 0.46645 1.01951 0.75596
 H388 H 0.39664 0.92668 0.68266
 C389 C 0.11159 0.94837 0.62342
 C390 C 0.12209 0.97448 0.69160
 C391 C 0.16453 0.93354 0.73195
 C392 C 0.17644 0.88317 0.68710
 O393 O 0.14381 0.89217 0.62010
 H394 H 0.10167 1.01831 0.71118
 H395 H 0.18667 0.94181 0.78756
 C396 C 0.64450 0.57672 0.40489
 C397 C 0.73163 0.56121 0.41297
 C398 C 0.77726 0.60431 0.37773
 C399 C 0.71588 0.64232 0.34918
 O400 O 0.63448 0.62664 0.36605
 H401 H 0.75879 0.52421 0.44412
 H402 H 0.84736 0.60898 0.37313
 C403 C 0.38064 0.06285 0.12147
 C404 C 0.36899 0.03624 0.18831
 C405 C 0.32680 0.07820 0.22961
 C406 C 0.31483 0.12793 0.18474
 O407 O 0.34904 0.11873 0.11904
 H408 H 0.39267 -0.00732 0.20618
 H409 H 0.31014 0.07306 0.28685
 C410 C 0.90283 0.46173 0.87068
 C411 C 0.81897 0.48340 0.86446
 C412 C 0.77315 0.43701 0.83764
 C413 C 0.83191 0.39067 0.82317
 O414 O 0.91170 0.40521 0.84538
 H415 H 0.79147 0.52498 0.88622
 H416 H 0.70368 0.43789 0.82948
 C417 C 0.54681 0.11528 0.87876
 C418 C 0.48522 0.14199 0.83448
 C419 C 0.52451 0.19214 0.80706
 C420 C 0.60894 0.19356 0.83458
 O421 O 0.62260 0.14632 0.87886
 H422 H 0.41888 0.12670 0.82421
 H423 H 0.49681 0.22251 0.76729
 C424 C 0.45672 0.59756 0.63847
 C425 C 0.51734 0.61409 0.69137
 C426 C 0.49029 0.66886 0.71667
 C427 C 0.41356 0.68248 0.67918
 O428 O 0.39361 0.63898 0.63102
 H429 H 0.57720 0.59101 0.70668
 H430 H 0.52080 0.69453 0.76068
 C431 C 0.04616 0.41342 0.11944
 C432 C -0.00905 0.40020 0.17518
 C433 C 0.02738 0.35230 0.21015
 C434 C 0.10256 0.33717 0.17137
 O435 O 0.11279 0.37418 0.11491
 H436 H -0.06763 0.42439 0.18801
 H437 H 0.00398 0.33271 0.26058
 C438 C 0.96791 0.92065 0.36415
 C439 C 1.02511 0.90513 0.30927
 C440 C 0.98635 0.85857 0.27165
 C441 C 0.91078 0.84612 0.30889
 O442 O 0.89906 0.88401 0.36508
 H443 H 1.08824 0.92490 0.29969
 H444 H 1.00880 0.83645 0.22203
 C445 C 0.91778 0.59106 0.63117
 C446 C 0.89343 0.55961 0.69367
 C447 C 0.83761 0.59500 0.73077
 C448 C 0.83734 0.64790 0.69330
 O449 O 0.88409 0.64596 0.63162
 H450 H 0.91338 0.51523 0.71107
 H451 H 0.80494 0.58466 0.78143
 C452 C 0.60911 0.38877 0.04623
 C453 C 0.68840 0.37745 0.01183
 C454 C 0.74376 0.35765 0.06467
 C455 C 0.69350 0.35360 0.12755
 O456 O 0.61131 0.37123 0.11546
 H457 H 0.70716 0.38876 -0.04337
 H458 H 0.81158 0.34447 0.05702
 C459 C 0.44774 0.90784 0.38886
 C460 C 0.49422 0.90350 0.32444
 C461 C 0.44969 0.86794 0.28031
 C462 C 0.37086 0.85875 0.31399
 O463 O 0.36978 0.88187 0.38200
 H464 H 0.55068 0.92708 0.30605
 H465 H 0.47892 0.84740 0.23303
 C466 C 0.11300 0.11458 0.93605
 C467 C 0.19122 0.12685 0.97226
 C468 C 0.24149 0.15581 0.92345
 C469 C 0.19043 0.16117 0.86077
 O470 O 0.11226 0.13570 0.86804
 H471 H 0.21130 0.11350 1.02699
 H472 H 0.30630 0.17397 0.93408
 C473 C 0.11540 0.93863 0.11737
 C474 C 0.17627 0.97193 0.15741
 C475 C 0.21615 0.93350 0.20449
 C476 C 0.18082 0.87800 0.18882
 O477 O 0.11945 0.88057 0.13564
 H478 H 0.19122 1.01923 0.15218
 H479 H 0.26593 0.94437 0.24508
 C480 C 0.90070 0.44540 0.38417
 C481 C 0.86957 0.47758 0.32511
 C482 C 0.82219 0.43825 0.28286
 C483 C 0.83218 0.38255 0.31256
 O484 O 0.87896 0.38651 0.37607
 H485 H 0.88257 0.52413 0.31236
 H486 H 0.78869 0.44741 0.23265
 C487 C 0.36095 0.07256 0.60411
 C488 C 0.30340 0.03950 0.64551
 C489 C 0.27067 0.07798 0.69847
 C490 C 0.30575 0.13350 0.68411
 O491 O 0.36075 0.13016 0.62714
 H492 H 0.28936 -0.00803 0.63902
 H493 H 0.22548 0.06759 0.74200
 C494 C 0.64198 0.59867 0.92942
 C495 C 0.71005 0.61946 0.97219
 C496 C 0.74820 0.66218 0.93245
 C497 C 0.70704 0.66218 0.86382
 O498 O 0.63931 0.62422 0.86289
 H499 H 0.72925 0.60618 1.02703
 H500 H 0.80018 0.69116 0.95304
 C501 C 0.46001 0.39856 0.88902
 C502 C 0.51167 0.38913 0.82790
 C503 C 0.46460 0.35492 0.78036
 C504 C 0.38582 0.34653 0.81427
 O505 O 0.38206 0.37296 0.88043
 H506 H 0.57321 0.40961 0.81582
 H507 H 0.48420 0.33942 0.72617
 C508 C 0.93873 0.13399 0.06793
 C509 C 1.00104 0.17489 0.09112
 C510 C 0.96568 0.20267 0.15039
 C511 C 0.88241 0.17981 0.15786
 O512 O 0.86553 0.13785 0.10721
 H513 H 1.06775 0.17946 0.07220
 H514 H 0.99550 0.23753 0.18345
 C515 C 0.56876 0.88310 0.56712
 C516 C 0.52896 0.82785 0.55803
 C517 C 0.56789 0.79158 0.60898
 C518 C 0.62796 0.82727 0.64718
 O519 O 0.62899 0.88271 0.62054
 H520 H 0.47700 0.81572 0.51973
 H521 H 0.55564 0.74393 0.61549
 C522 C 0.06956 0.64658 0.46621
 C523 C 0.01648 0.69669 0.46014
 C524 C 0.05513 0.73185 0.40801
 C525 C 0.12922 0.70096 0.38426
 O526 O 0.13858 0.64978 0.42093
 H527 H -0.04659 0.70429 0.48578
 H528 H 0.02999 0.77417 0.38746
   
