data_POSCAR
  _audit_creation_date              2014-09-24
  _audit_creation_method            'ToBaCCo'
  _symmetry_space_group_name_H-M    'P1'
  _symmetry_Int_Tables_number       1
  _symmetry_cell_setting            triclinic
  loop_
  _symmetry_equiv_pos_as_xyz
 x,y,z
_cell_length_a 20.6594
_cell_length_b 22.9768
_cell_length_c 24.6990
_cell_angle_alpha 91.957400
_cell_angle_beta 90.192900
_cell_angle_gamma 87.397800
loop_
  _atom_site_label
  _atom_site_type_symbol
  _atom_site_fract_x
  _atom_site_fract_y
  _atom_site_fract_z
C1 C 0.35784 0.39359 1.37097
 N2 N 0.36866 0.33475 1.37614
 C3 C 0.41771 0.30637 1.34741
 N4 N 0.45377 0.33654 1.31369
 C5 C 0.44334 0.39415 1.30820
 N6 N 0.39553 0.42288 1.33693
 C7 C 1.13814 0.58764 0.89984
 N8 N 1.12397 0.55327 0.85610
 C9 C 1.09992 0.57690 0.81023
 N10 N 1.08643 0.63528 0.80918
 C11 C 1.09884 0.67000 0.85343
 N12 N 1.12666 0.64616 0.89796
 C13 C 0.66811 -0.08766 0.10137
 N14 N 0.61893 -0.11928 0.08219
 C15 C 0.57998 -0.14671 0.11601
 N16 N 0.58776 -0.13945 0.17053
 C17 C 0.63421 -0.10416 0.19048
 N18 N 0.67568 -0.07992 0.15578
 C19 C -0.17721 1.12103 -0.36192
 N20 N -0.14749 1.14801 -0.40276
 C21 C -0.08343 1.15935 -0.39856
 N22 N -0.05035 1.14544 -0.35292
 C23 C -0.08044 1.12156 -0.31100
 N24 N -0.14370 1.10882 -0.31583
 C25 C 0.67829 0.61217 0.66426
 N26 N 0.65151 0.61760 0.71429
 C27 C 0.60542 0.66037 0.72543
 N28 N 0.58684 0.69812 0.68646
 C29 C 0.61346 0.69239 0.63624
 N30 N 0.65863 0.64914 0.62544
 C31 C 0.82646 0.38440 0.10034
 N32 N 0.86565 0.33536 0.09216
 C33 C 0.90581 0.31649 0.13246
 N34 N 0.90664 0.34694 0.18025
 C35 C 0.86815 0.39543 0.18878
 N36 N 0.82770 0.41400 0.14899
 C37 C 0.35527 0.13057 0.87886
 N38 N 0.36698 0.18747 0.89124
 C39 C 0.38117 0.22381 0.85096
 N40 N 0.38065 0.20362 0.79880
 C41 C 0.36919 0.14725 0.78631
 N42 N 0.35687 0.11056 0.82640
 C43 C 0.15729 0.84220 0.37900
 N44 N 0.15613 0.85857 0.32672
 C45 C 0.11139 0.83800 0.29150
 N46 N 0.06859 0.79905 0.30836
 C47 C 0.07119 0.78040 0.36027
 N48 N 0.11536 0.80251 0.39532
 Zn49 Zn 0.05546 1.07006 -0.02339
 Zn50 Zn -0.02731 0.97392 -0.05756
 Zn51 Zn 0.09981 0.94734 -0.00245
 Zn52 Zn -0.01002 1.00319 0.06099
 O53 O 0.02953 0.99840 -0.00552
 O54 O 0.02883 1.09097 -0.08906
 O55 O -0.00128 0.90570 -0.08881
 O56 O 0.17458 0.98098 -0.01732
 O57 O -0.03669 1.02149 -0.11366
 O58 O 0.14152 1.07319 -0.02675
 O59 O 0.09335 0.88612 -0.04924
 O60 O 0.02878 0.95709 0.11082
 O61 O -0.10628 0.96491 -0.03054
 O62 O 0.11061 0.91693 0.06307
 O63 O -0.09292 0.98356 0.05740
 O64 O -0.01351 1.07628 0.08888
 O65 O 0.02688 1.12689 0.02291
 C66 C -0.00864 1.06788 -0.12344
 C67 C 0.04941 0.87326 -0.08311
 C68 C 0.18638 1.03365 -0.02602
 C69 C 0.07896 0.92312 0.10702
 C70 C -0.12834 0.96942 0.01743
 C71 C 0.00019 1.12438 0.06886
 Zn72 Zn 0.47829 -0.06973 0.45346
 Zn73 Zn 0.55285 0.03091 0.46681
 Zn74 Zn 0.41283 0.03749 0.49313
 Zn75 Zn 0.50158 -0.02192 0.56477
 O76 O 0.48679 -0.00550 0.49501
 O77 O 0.51626 -0.06533 0.38808
 O78 O 0.52124 0.09098 0.42924
 O79 O 0.34473 -0.00690 0.47885
 O80 O 0.59836 -0.01549 0.41877
 O81 O 0.39539 -0.08683 0.44393
 O82 O 0.41500 0.09349 0.44499
 O83 O 0.43625 0.00418 0.60961
 O84 O 0.60904 0.05701 0.51750
 O85 O 0.39860 0.07364 0.55665
 O86 O 0.57114 0.01473 0.58966
 O87 O 0.51936 -0.09857 0.57225
 O88 O 0.51622 -0.13007 0.48594
 C89 C 0.57313 -0.04757 0.38220
 C90 C 0.46411 0.11230 0.42156
 C91 C 0.34385 -0.05836 0.45831
 C92 C 0.40450 0.05224 0.60312
 C93 C 0.61168 0.04667 0.56779
 C94 C 0.52825 -0.13851 0.53562
 Zn95 Zn 1.02251 0.41968 0.44782
 Zn96 Zn 1.05342 0.52499 0.51621
 Zn97 Zn 0.92298 0.50997 0.47536
 Zn98 Zn 0.97749 0.43572 0.55898
 O99 O 0.99441 0.47230 0.49883
 O100 O 1.10887 0.42276 0.43778
 O101 O 1.03825 0.59366 0.48290
 O102 O 0.88810 0.47090 0.42005
 O103 O 1.13163 0.49872 0.49199
 O104 O 0.98047 0.43360 0.38508
 O105 O 0.94111 0.57878 0.44828
 O106 O 0.90556 0.46470 0.59067
 O107 O 1.05749 0.53689 0.58952
 O108 O 0.86373 0.52231 0.52793
 O109 O 1.04022 0.44521 0.60751
 O110 O 0.96789 0.35973 0.54823
 O111 O 1.00683 0.34550 0.46510
 C112 C 1.14922 0.45722 0.45897
 C113 C 0.99083 0.60913 0.45274
 C114 C 0.92091 0.44978 0.38005
 C115 C 0.86239 0.50122 0.57488
 C116 C 1.05865 0.49522 0.62239
 C117 C 0.98257 0.32627 0.50787
 Zn118 Zn 0.43687 0.53526 0.95178
 Zn119 Zn 0.55276 0.56952 1.00355
 Zn120 Zn 0.43249 0.56316 1.06720
 Zn121 Zn 0.50339 0.45898 1.02143
 O122 O 0.48037 0.53254 1.01236
 O123 O 0.46068 0.59422 0.91260
 O124 O 0.54422 0.64068 1.03570
 O125 O 0.34672 0.55846 1.05353
 O126 O 0.56490 0.58275 0.93237
 O127 O 0.35284 0.54350 0.96425
 O128 O 0.44938 0.63870 1.07853
 O129 O 0.50312 0.44537 1.09214
 O130 O 0.62283 0.52760 1.02871
 O131 O 0.45151 0.52523 1.12747
 O132 O 0.58521 0.44375 0.99909
 O133 O 0.45237 0.41039 0.98348
 O134 O 0.44807 0.46780 0.91335
 C135 C 0.51949 0.60309 0.90246
 C136 C 0.49771 0.66590 1.06254
 C137 C 0.32012 0.55034 1.00753
 C138 C 0.48290 0.47681 1.13264
 C139 C 0.63204 0.47370 1.01551
 C140 C 0.44181 0.41800 0.93334
 N141 N 1.25064 0.50116 0.43330
 N142 N 1.30754 0.48363 0.40624
 C143 C 1.30882 0.42512 0.39958
 C144 C 1.25268 0.40404 0.42146
 C145 C 1.21717 0.45334 0.44118
 H146 H 1.23749 0.35954 0.41966
 H147 H 1.23483 0.54447 0.44102
 H148 H 1.34192 0.51195 0.39309
 N149 N 0.22416 0.49576 0.98939
 N150 N 0.17400 0.50561 0.95253
 C151 C 0.16945 0.56319 0.94417
 C152 C 0.21422 0.59121 0.97651
 C153 C 0.25005 0.54733 1.00193
 H154 H 0.22902 0.63540 0.97186
 H155 H 0.24693 0.45484 0.99483
 H156 H 0.15126 0.47284 0.93030
 N157 N -0.23711 0.94147 -0.01347
 N158 N -0.29436 0.92569 0.01041
 C159 C -0.28743 0.93207 0.06459
 C160 C -0.22666 0.95284 0.07648
 C161 C -0.19641 0.95691 0.02657
 H162 H -0.20526 0.95944 0.11617
 H163 H -0.22721 0.93811 -0.05493
 H164 H -0.33349 0.90872 -0.01079
 N165 N 0.66595 0.06463 0.65624
 N166 N 0.72112 0.08434 0.67471
 C167 C 0.75522 0.10327 0.63292
 C168 C 0.71968 0.09561 0.58544
 C169 C 0.66349 0.07033 0.60217
 H170 H 0.73447 0.10347 0.54444
 H171 H 0.63155 0.04589 0.68029
 H172 H 0.73584 0.08300 0.71517
 N173 N 0.49617 0.16600 0.34272
 N174 N 0.48278 0.22065 0.32212
 C175 C 0.43507 0.24744 0.35231
 C176 C 0.41533 0.20998 0.39146
 C177 C 0.45600 0.16020 0.38456
 H178 H 0.38119 0.21981 0.42401
 H179 H 0.53393 0.13709 0.32983
 H180 H 0.50917 0.23817 0.29105
 N181 N 1.03075 0.22884 0.52222
 N182 N 1.01274 0.18262 0.55310
 C183 C 0.94836 0.18852 0.56149
 C184 C 0.92404 0.23825 0.53660
 C185 C 0.97750 0.26340 0.51415
 H186 H 0.87659 0.25926 0.54310
 H187 H 1.07861 0.24021 0.51672
 H188 H 1.04523 0.15283 0.57100
 N189 N 0.02913 0.81214 -0.16591
 N190 N 0.04459 0.75517 -0.18438
 C191 C 0.08063 0.72918 -0.14572
 C192 C 0.09047 0.76880 -0.10300
 C193 C 0.05714 0.81975 -0.11703
 H194 H 0.11575 0.76080 -0.06532
 H195 H -0.00011 0.84244 -0.18645
 H196 H 0.02731 0.73608 -0.22027
 N197 N 0.49304 0.76328 1.02626
 N198 N 0.51823 0.81659 1.04094
 C199 C 0.53706 0.81442 1.09314
 C200 C 0.52321 0.76044 1.11327
 C201 C 0.49754 0.72932 1.06947
 H202 H 0.54024 0.74271 1.15107
 H203 H 0.48245 0.74978 0.98652
 H204 H 0.52726 0.84917 1.01382
 N205 N 0.54582 0.41893 1.19849
 N206 N 0.53634 0.39865 1.24695
 C207 C 0.47984 0.42205 1.26666
 C208 C 0.45290 0.46016 1.22980
 C209 C 0.49561 0.45562 1.18672
 H210 H 0.40461 0.48056 1.23038
 H211 H 0.58375 0.40479 1.17270
 H212 H 0.56517 0.36543 1.26390
 N213 N 0.67009 -0.04527 0.32275
 N214 N 0.68645 -0.06062 0.27242
 C215 C 0.63738 -0.08882 0.24888
 C216 C 0.58749 -0.09174 0.28613
 C217 C 0.61004 -0.06299 0.33234
 H218 H 0.53987 -0.10841 0.27931
 H219 H 0.69878 -0.02110 0.34927
 H220 H 0.72960 -0.04992 0.25405
 N221 N 0.02475 1.13206 -0.19605
 N222 N 0.00743 1.14434 -0.24600
 C223 C -0.04579 1.11518 -0.25924
 C224 C -0.06306 1.08246 -0.21574
 C225 C -0.01675 1.09446 -0.17650
 H226 H -0.10311 1.05392 -0.21314
 H227 H 0.06512 1.14848 -0.17620
 H228 H 0.03142 1.17285 -0.27023
 N229 N 1.09177 0.45936 0.71213
 N230 N 1.10075 0.48059 0.76173
 C231 C 1.09245 0.53905 0.76161
 C232 C 1.07837 0.55603 0.70923
 C233 C 1.07839 0.50386 0.67917
 H234 H 1.06790 0.59964 0.69539
 H235 H 1.09383 0.41495 0.70139
 H236 H 1.11171 0.45515 0.79508
 N237 N 0.80388 0.50006 0.66280
 N238 N 0.75496 0.52953 0.68681
 C239 C 0.72955 0.56794 0.65174
 C240 C 0.76311 0.56260 0.60342
 C241 C 0.81001 0.51945 0.61223
 H242 H 0.75637 0.58844 0.56782
 H243 H 0.83344 0.46845 0.68136
 H244 H 0.74064 0.52435 0.72681
 N245 N 0.71687 0.39794 0.98954
 N246 N 0.77152 0.37218 1.01394
 C247 C 0.78199 0.40221 1.06072
 C248 C 0.73629 0.44858 1.06612
 C249 C 0.69610 0.44388 1.02122
 H250 H 0.72905 0.47813 1.10087
 H251 H 0.69366 0.38100 0.95524
 H252 H 0.79558 0.33360 1.00005
 N253 N 0.30135 1.00966 -0.05130
 N254 N 0.34747 1.03609 -0.07656
 C255 C 0.32984 1.09301 -0.08020
 C256 C 0.26981 1.10316 -0.05619
 C257 C 0.25274 1.04901 -0.03933
 H258 H 0.23855 1.14209 -0.05879
 H259 H 0.30068 0.96460 -0.04717
 H260 H 0.38748 1.01447 -0.09518
 N261 N 0.25281 -0.11319 0.49202
 N262 N 0.20192 -0.14355 0.46919
 C263 C 0.20143 -0.13431 0.41558
 C264 C 0.25145 -0.09863 0.40303
 C265 C 0.28215 -0.08653 0.45180
 H266 H 0.26535 -0.08503 0.36334
 H267 H 0.26736 -0.11448 0.53252
 H268 H 0.17077 -0.16890 0.49063
 N269 N 0.58795 -0.23192 0.51463
 N270 N 0.61358 -0.27863 0.54337
 C271 C 0.59521 -0.27006 0.59546
 C272 C 0.55838 -0.21822 0.60140
 C273 C 0.55573 -0.19559 0.55006
 H274 H 0.53833 -0.19843 0.63845
 H275 H 0.59602 -0.22549 0.47358
 H276 H 0.64215 -0.31331 0.52660
 N277 N 0.95799 0.66927 0.37464
 N278 N 0.98201 0.71592 0.34740
 C279 C 1.03163 0.73638 0.37675
 C280 C 1.04040 0.70344 0.42292
 C281 C 0.99408 0.66136 0.41961
 H282 H 1.07860 0.70682 0.45283
 H283 H 0.92207 0.64250 0.35961
 H284 H 0.96514 0.73028 0.31001
 N285 N 0.00107 1.18616 0.15252
 N286 N -0.02447 1.24074 0.16971
 C287 C -0.05697 1.26433 0.12765
 C288 C -0.05132 1.22653 0.08259
 C289 C -0.01494 1.17833 0.10014
 H290 H -0.07328 1.23197 0.04312
 H291 H 0.02679 1.15681 0.17682
 H292 H -0.02132 1.25784 0.20932
 N293 N 0.41423 0.37481 0.84350
 N294 N 0.39808 0.32415 0.82212
 C295 C 0.39505 0.28548 0.86174
 C296 C 0.41014 0.31289 0.91093
 C297 C 0.42231 0.36963 0.89723
 H298 H 0.41314 0.29411 0.95050
 H299 H 0.42020 0.41209 0.82131
 H300 H 0.38972 0.31635 0.78082
 N301 N 0.49309 0.67764 0.83463
 N302 N 0.51638 0.69364 0.78799
 C303 C 0.57213 0.66260 0.77781
 C304 C 0.58575 0.62616 0.82036
 C305 C 0.53405 0.63674 0.85516
 H306 H 0.62444 0.59300 0.82319
 H307 H 0.44871 0.69296 0.85098
 H308 H 0.49246 0.72282 0.76236
 N309 N 0.34500 0.13849 0.64359
 N310 N 0.33715 0.16422 0.69175
 C311 C 0.36303 0.12897 0.72924
 C312 C 0.38841 0.07808 0.70401
 C313 C 0.37665 0.08648 0.64934
 H314 H 0.41642 0.04287 0.72218
 H315 H 0.33182 0.15782 0.60725
 H316 H 0.31624 0.20609 0.69848
 N317 N 0.16207 0.86417 0.15662
 N318 N 0.17039 0.84186 0.20482
 C319 C 0.11602 0.85237 0.23406
 C320 C 0.07097 0.88372 0.20327
 C321 C 0.10254 0.89047 0.15425
 H322 H 0.02343 0.90099 0.21544
 H323 H 0.19748 0.86269 0.12646
 H324 H 0.21314 0.82051 0.21771
 N325 N 0.83358 0.47379 0.31354
 N326 N 0.82051 0.46112 0.26216
 C327 C 0.86801 0.42443 0.24240
 C328 C 0.91338 0.41357 0.28250
 C329 C 0.88967 0.44549 0.32690
 H330 H 0.95680 0.38540 0.28003
 H331 H 0.80454 0.50136 0.33879
 H332 H 0.77908 0.47623 0.24168
   
