data_POSCAR
  _audit_creation_date              2014-09-24
  _audit_creation_method            'ToBaCCo'
  _symmetry_space_group_name_H-M    'P1'
  _symmetry_Int_Tables_number       1
  _symmetry_cell_setting            triclinic
  loop_
  _symmetry_equiv_pos_as_xyz
 x,y,z
_cell_length_a 25.3115
_cell_length_b 25.9550
_cell_length_c 26.6173
_cell_angle_alpha 89.849100
_cell_angle_beta 89.965400
_cell_angle_gamma 90.214500
loop_
  _atom_site_label
  _atom_site_type_symbol
  _atom_site_fract_x
  _atom_site_fract_y
  _atom_site_fract_z
Zr1 Zr 0.24985 0.24840 0.33810
 O2 O 0.29172 0.28852 0.39484
 O3 O 0.20159 0.19859 0.38093
 O4 O 0.20070 0.29749 0.38013
 O5 O 0.34814 0.15975 0.31697
 O6 O 0.15562 0.34334 0.32093
 O7 O 0.30217 0.20085 0.37861
 O8 O 0.15013 0.16062 0.32124
 O9 O 0.17933 0.25093 0.29693
 O10 O 0.24857 0.18170 0.29424
 O11 O 0.25347 0.31703 0.29582
 O12 O 0.31972 0.25087 0.29467
 Zr13 Zr 0.24985 0.25400 0.16225
 Zr14 Zr 0.18494 0.31713 0.25181
 Zr15 Zr 0.31524 0.18560 0.24855
 Zr16 Zr 0.18011 0.18562 0.25142
 O17 O 0.39866 0.19061 0.24550
 O18 O 0.09762 0.19972 0.25137
 O19 O 0.24669 0.18465 0.20399
 O20 O 0.18080 0.25162 0.20628
 O21 O 0.25141 0.32142 0.20534
 O22 O 0.31969 0.25191 0.20432
 C23 C 0.16439 0.16785 0.36713
 C24 C 0.33815 0.16965 0.36354
 C25 C 0.16719 0.33200 0.36670
 O26 O 0.10155 0.31196 0.24934
 O27 O 0.15841 0.35030 0.18408
 O28 O 0.19845 0.30382 0.12232
 C29 C 0.16643 0.33905 0.13759
 O30 O 0.35754 0.34379 0.31530
 Zr31 Zr 0.31962 0.31709 0.24899
 O32 O 0.29692 0.30360 0.11877
 O33 O 0.19338 0.39814 0.25638
 O34 O 0.30853 0.39796 0.25244
 O35 O 0.40250 0.30677 0.24316
 O36 O 0.34231 0.34776 0.17887
 C37 C 0.32994 0.33830 0.13280
 O38 O 0.20731 0.21370 0.10618
 O39 O 0.30719 0.10443 0.24960
 O40 O 0.29990 0.20552 0.12008
 O41 O 0.34027 0.15540 0.17920
 O42 O 0.18804 0.10432 0.25379
 O43 O 0.14911 0.15243 0.18467
 C44 C 0.33152 0.16917 0.13342
 H45 H 0.24921 0.14962 0.31442
 H46 H 0.14866 0.25172 0.18510
 H47 H 0.35196 0.25173 0.18331
 H48 H 0.25535 0.34761 0.31789
 H49 H 0.07963 0.16701 0.26042
 H50 H 0.08798 0.34766 0.25143
 H51 H 0.15731 0.41285 0.25542
 H52 H 0.34219 0.41452 0.24212
 H53 H 0.15304 0.08965 0.26265
 H54 H 0.34342 0.09016 0.25082
 H55 H 0.41210 0.15482 0.24435
 H56 H 0.41816 0.34056 0.23399
 H57 H 0.11877 0.12984 0.19317
 H58 H 0.21965 0.22695 0.07319
 H59 H 0.27880 0.27567 0.42782
 H60 H 0.38189 0.37246 0.30676
 Zr61 Zr 0.75431 0.75190 0.33754
 O62 O 0.71444 0.71146 0.39564
 O63 O 0.80360 0.80233 0.37850
 O64 O 0.80492 0.70344 0.37856
 O65 O 0.65511 0.83954 0.31894
 O66 O 0.84880 0.65760 0.31873
 O67 O 0.70290 0.79872 0.37963
 O68 O 0.85276 0.84095 0.31723
 O69 O 0.82369 0.74987 0.29458
 O70 O 0.75371 0.81849 0.29326
 O71 O 0.75012 0.68311 0.29584
 O72 O 0.68323 0.74854 0.29603
 Zr73 Zr 0.74947 0.74581 0.16205
 Zr74 Zr 0.81746 0.68345 0.25013
 Zr75 Zr 0.68577 0.81381 0.24949
 Zr76 Zr 0.82100 0.81508 0.24865
 O77 O 0.60236 0.80801 0.24872
 O78 O 0.90359 0.80172 0.24662
 O79 O 0.75304 0.81528 0.20315
 O80 O 0.81973 0.74892 0.20412
 O81 O 0.74977 0.67839 0.20544
 O82 O 0.68072 0.74737 0.20578
 C83 C 0.83997 0.83358 0.36351
 C84 C 0.66640 0.82975 0.36537
 C85 C 0.83821 0.66906 0.36464
 O86 O 0.90072 0.68925 0.24549
 O87 O 0.84222 0.65067 0.18166
 O88 O 0.80023 0.69701 0.12080
 C89 C 0.83293 0.66209 0.13535
 O90 O 0.64684 0.65533 0.31819
 Zr91 Zr 0.68266 0.68219 0.25072
 O92 O 0.70183 0.69556 0.12012
 O93 O 0.81005 0.60237 0.25544
 O94 O 0.69471 0.60146 0.25462
 O95 O 0.59957 0.69179 0.24687
 O96 O 0.65833 0.65088 0.18136
 C97 C 0.66953 0.66048 0.13496
 O98 O 0.79001 0.78661 0.10471
 O99 O 0.69263 0.89509 0.24980
 O100 O 0.69811 0.79354 0.12079
 O101 O 0.65899 0.84372 0.18042
 O102 O 0.81222 0.89631 0.25041
 O103 O 0.84966 0.84818 0.18072
 C104 C 0.66687 0.82987 0.13454
 H105 H 0.75334 0.85061 0.31323
 H106 H 0.85127 0.74911 0.18211
 H107 H 0.64793 0.74722 0.18553
 H108 H 0.74913 0.65258 0.31818
 H109 H 0.92152 0.83470 0.25463
 H110 H 0.91459 0.65364 0.24727
 H111 H 0.84623 0.58805 0.25335
 H112 H 0.66097 0.58451 0.24531
 H113 H 0.84735 0.91142 0.25793
 H114 H 0.65625 0.90886 0.25195
 H115 H 0.58858 0.84369 0.24774
 H116 H 0.58398 0.65783 0.23840
 H117 H 0.88008 0.87101 0.18813
 H118 H 0.77697 0.77333 0.07205
 H119 H 0.72828 0.72422 0.42823
 H120 H 0.62244 0.62650 0.31048
 Zr121 Zr 0.75249 0.24275 -0.33801
 O122 O 0.71219 0.27901 -0.39812
 O123 O 0.80257 0.19217 -0.37787
 O124 O 0.80148 0.29231 -0.38114
 O125 O 0.65322 0.15325 -0.31279
 O126 O 0.84558 0.34030 -0.32286
 O127 O 0.69873 0.19314 -0.37588
 O128 O 0.85379 0.15713 -0.31634
 O129 O 0.82251 0.24795 -0.29617
 O130 O 0.75399 0.17772 -0.29160
 O131 O 0.74783 0.31270 -0.29796
 O132 O 0.68242 0.24611 -0.29483
 Zr133 Zr 0.75120 0.25477 -0.16201
 Zr134 Zr 0.81600 0.31555 -0.25344
 Zr135 Zr 0.68703 0.18249 -0.24630
 Zr136 Zr 0.82204 0.18422 -0.24824
 O137 O 0.60357 0.18662 -0.24335
 O138 O 0.90442 0.19953 -0.24772
 O139 O 0.75516 0.18411 -0.20122
 O140 O 0.82050 0.25171 -0.20554
 O141 O 0.74929 0.32070 -0.20747
 O142 O 0.68167 0.25009 -0.20440
 C143 C 0.84017 0.16265 -0.36260
 C144 C 0.66264 0.16193 -0.35964
 C145 C 0.83457 0.32783 -0.36836
 O146 O 0.89944 0.31154 -0.25063
 O147 O 0.84255 0.35143 -0.18704
 O148 O 0.80219 0.30672 -0.12385
 C149 C 0.83439 0.34164 -0.14021
 O150 O 0.64382 0.33805 -0.31876
 Zr151 Zr 0.68142 0.31378 -0.25137
 O152 O 0.70304 0.30489 -0.12078
 O153 O 0.80666 0.39622 -0.26092
 O154 O 0.69213 0.39461 -0.25776
 O155 O 0.59864 0.30191 -0.24591
 O156 O 0.65753 0.34659 -0.18246
 C157 C 0.66966 0.33859 -0.13599
 O158 O 0.79359 0.21737 -0.10395
 O159 O 0.69595 0.10146 -0.24454
 O160 O 0.70163 0.20673 -0.11837
 O161 O 0.66257 0.15409 -0.17613
 O162 O 0.81425 0.10281 -0.24769
 O163 O 0.85228 0.15378 -0.17988
 C164 C 0.67076 0.16933 -0.13082
 H165 H 0.75363 0.14502 -0.31066
 H166 H 0.85250 0.25302 -0.18422
 H167 H 0.64929 0.25005 -0.18354
 H168 H 0.74581 0.34253 -0.32112
 H169 H 0.92286 0.16669 -0.25467
 H170 H 0.91284 0.34733 -0.25381
 H171 H 0.84254 0.41166 -0.26018
 H172 H 0.65836 0.41111 -0.24819
 H173 H 0.84944 0.08814 -0.25534
 H174 H 0.65988 0.08648 -0.24440
 H175 H 0.59027 0.15082 -0.23980
 H176 H 0.58243 0.33561 -0.23790
 H177 H 0.88266 0.13105 -0.18717
 H178 H 0.78087 0.23173 -0.07164
 H179 H 0.72584 0.26398 -0.42982
 H180 H 0.61894 0.36636 -0.31123
 Zr181 Zr 0.24416 0.76104 -0.33503
 O182 O 0.28636 0.72862 -0.39588
 O183 O 0.18869 0.80650 -0.37411
 O184 O 0.19790 0.70957 -0.37844
 O185 O 0.34032 0.85485 -0.30963
 O186 O 0.15326 0.66162 -0.32016
 O187 O 0.29420 0.81529 -0.37218
 O188 O 0.13846 0.84185 -0.31216
 O189 O 0.17470 0.75358 -0.29253
 O190 O 0.24085 0.82548 -0.28838
 O191 O 0.25083 0.69069 -0.29566
 O192 O 0.31480 0.75905 -0.29290
 Zr193 Zr 0.24751 0.74641 -0.15940
 Zr194 Zr 0.18295 0.68564 -0.25059
 Zr195 Zr 0.30859 0.82181 -0.24379
 Zr196 Zr 0.17359 0.81673 -0.24423
 O197 O 0.39219 0.81961 -0.24281
 O198 O 0.09164 0.79965 -0.24090
 O199 O 0.24107 0.81761 -0.19791
 O200 O 0.17744 0.74851 -0.20185
 O201 O 0.25058 0.68156 -0.20577
 O202 O 0.31636 0.75371 -0.20258
 C203 C 0.14936 0.83361 -0.35870
 C204 C 0.32896 0.84808 -0.35617
 C205 C 0.16484 0.67391 -0.36568
 O206 O 0.09952 0.68834 -0.24657
 O207 O 0.15818 0.64727 -0.18461
 O208 O 0.20215 0.68879 -0.12187
 C209 C 0.17054 0.65330 -0.13813
 O210 O 0.35523 0.66899 -0.31833
 Zr211 Zr 0.31790 0.69074 -0.25007
 O212 O 0.29833 0.69776 -0.11914
 O213 O 0.19376 0.60531 -0.25928
 O214 O 0.30949 0.60978 -0.25743
 O215 O 0.40041 0.70429 -0.24488
 O216 O 0.34299 0.65695 -0.18179
 C217 C 0.33162 0.66436 -0.13507
 O218 O 0.20335 0.78036 -0.10075
 O219 O 0.29686 0.90240 -0.24000
 O220 O 0.29615 0.79537 -0.11579
 O221 O 0.33381 0.84908 -0.17378
 O222 O 0.17903 0.89830 -0.24495
 O223 O 0.14485 0.84659 -0.17518
 C224 C 0.32655 0.83320 -0.12850
 H225 H 0.23931 0.85825 -0.30743
 H226 H 0.14606 0.74567 -0.17978
 H227 H 0.34901 0.75420 -0.18214
 H228 H 0.25349 0.66118 -0.31899
 H229 H 0.07225 0.83208 -0.24747
 H230 H 0.08666 0.65246 -0.25042
 H231 H 0.15818 0.58922 -0.25886
 H232 H 0.34396 0.59409 -0.24876
 H233 H 0.14326 0.91183 -0.25218
 H234 H 0.33238 0.91861 -0.23962
 H235 H 0.40470 0.85552 -0.23821
 H236 H 0.41744 0.67073 -0.23778
 H237 H 0.11408 0.86906 -0.18174
 H238 H 0.21699 0.76577 -0.06883
 H239 H 0.27167 0.74365 -0.42720
 H240 H 0.38114 0.64135 -0.31155
 Zr241 Zr 1.25294 1.25190 0.83842
 O242 O 1.21321 1.21175 0.89676
 O243 O 1.30177 1.30242 0.87951
 O244 O 1.30381 1.20338 0.87944
 O245 O 1.15361 1.33955 0.81860
 O246 O 1.34792 1.15782 0.81954
 O247 O 1.20106 1.29912 0.87978
 O248 O 1.35112 1.34092 0.81828
 O249 O 1.32238 1.24996 0.79553
 O250 O 1.25236 1.31837 0.79389
 O251 O 1.24896 1.18306 0.79686
 O252 O 1.18197 1.24849 0.79676
 Zr253 Zr 1.24819 1.24547 0.66273
 Zr254 Zr 1.31628 1.18355 0.75111
 Zr255 Zr 1.18463 1.31350 0.74985
 Zr256 Zr 1.31972 1.31504 0.74947
 O257 O 1.10123 1.30749 0.74872
 O258 O 1.40231 1.30165 0.74766
 O259 O 1.25193 1.31500 0.70368
 O260 O 1.31841 1.24889 0.70495
 O261 O 1.24862 1.17824 0.70644
 O262 O 1.17946 1.24697 0.70639
 C263 C 1.33814 1.33363 0.86455
 C264 C 1.16472 1.33016 0.86503
 C265 C 1.33735 1.16915 0.86546
 O266 O 1.39954 1.18944 0.74650
 O267 O 1.34130 1.15090 0.68278
 O268 O 1.29941 1.19701 0.62170
 C269 C 1.33219 1.16228 0.63645
 O270 O 1.14570 1.15583 0.81950
 Zr271 Zr 1.18152 1.18200 0.75178
 O272 O 1.20052 1.19453 0.62140
 O273 O 1.30887 1.10247 0.75643
 O274 O 1.19350 1.10129 0.75633
 O275 O 1.09843 1.19156 0.74759
 O276 O 1.15743 1.14983 0.68292
 C277 C 1.16856 1.15920 0.63652
 O278 O 1.28828 1.28583 0.60481
 O279 O 1.19151 1.39479 0.75019
 O280 O 1.19685 1.29346 0.62146
 O281 O 1.15816 1.34388 0.68106
 O282 O 1.31074 1.39624 0.75106
 O283 O 1.34880 1.34817 0.68172
 C284 C 1.16593 1.33009 0.63524
 H285 H 1.25190 1.35056 0.81375
 H286 H 1.34999 1.24914 0.68301
 H287 H 1.14671 1.24678 0.68608
 H288 H 1.24806 1.15256 0.81925
 H289 H 1.42021 1.33456 0.75597
 H290 H 1.41349 1.15386 0.74821
 H291 H 1.34505 1.08814 0.75433
 H292 H 1.15964 1.08427 0.74754
 H293 H 1.34574 1.41142 0.75899
 H294 H 1.15513 1.40864 0.75214
 H295 H 1.08733 1.34312 0.74757
 H296 H 1.08285 1.15747 0.73958
 H297 H 1.37908 1.37112 0.68933
 H298 H 1.27497 1.27235 0.57232
 H299 H 1.22700 1.22494 0.92920
 H300 H 1.12115 1.12706 0.81204
 Zr301 Zr 0.74823 0.74681 0.83708
 O302 O 0.78911 0.78763 0.89397
 O303 O 0.70060 0.69667 0.88001
 O304 O 0.69811 0.79572 0.87870
 O305 O 0.84893 0.66025 0.81577
 O306 O 0.65216 0.84041 0.81923
 O307 O 0.80194 0.70018 0.87746
 O308 O 0.65027 0.65747 0.82020
 O309 O 0.67772 0.74718 0.79575
 O310 O 0.74872 0.67986 0.79350
 O311 O 0.74992 0.81519 0.79433
 O312 O 0.81796 0.75077 0.79356
 Zr313 Zr 0.74819 0.75150 0.66087
 Zr314 Zr 0.68139 0.81320 0.75033
 Zr315 Zr 0.81518 0.68522 0.74766
 Zr316 Zr 0.68037 0.68175 0.75044
 O317 O 0.89844 0.69240 0.74444
 O318 O 0.59743 0.69316 0.74937
 O319 O 0.74686 0.68231 0.70297
 O320 O 0.67929 0.74738 0.70509
 O321 O 0.74774 0.81919 0.70370
 O322 O 0.81794 0.75135 0.70314
 C323 C 0.66387 0.66550 0.86609
 C324 C 0.83870 0.66976 0.86231
 C325 C 0.66410 0.82982 0.86510
 O326 O 0.59814 0.80555 0.74979
 O327 O 0.65190 0.84305 0.68233
 O328 O 0.69440 0.79858 0.62063
 C329 C 0.66013 0.83173 0.63587
 O330 O 0.85269 0.84507 0.81387
 Zr331 Zr 0.81602 0.81669 0.74758
 O332 O 0.79426 0.80237 0.61749
 O333 O 0.68778 0.89447 0.75250
 O334 O 0.80265 0.89727 0.74993
 O335 O 0.89920 0.80825 0.74269
 O336 O 0.83910 0.84695 0.67762
 C337 C 0.82722 0.83717 0.63155
 O338 O 0.70738 0.70988 0.60455
 O339 O 0.80911 0.60389 0.74923
 O340 O 0.79957 0.70385 0.61918
 O341 O 0.84080 0.65490 0.67866
 O342 O 0.69071 0.60075 0.75409
 O343 O 0.65094 0.64691 0.68384
 C344 C 0.83182 0.66812 0.63281
 H345 H 0.75006 0.64796 0.81391
 H346 H 0.64706 0.74611 0.68409
 H347 H 0.85029 0.75175 0.68223
 H348 H 0.75109 0.84604 0.81609
 H349 H 0.58043 0.65998 0.75855
 H350 H 0.58349 0.84088 0.75099
 H351 H 0.65130 0.90820 0.75169
 H352 H 0.83595 0.91461 0.73978
 H353 H 0.65613 0.58527 0.76317
 H354 H 0.84568 0.59043 0.75029
 H355 H 0.91288 0.65698 0.74327
 H356 H 0.91422 0.84236 0.73363
 H357 H 0.62170 0.62300 0.69243
 H358 H 0.71969 0.72326 0.57158
 H359 H 0.77633 0.77442 0.92685
 H360 H 0.87607 0.87448 0.80524
 Zr361 Zr 1.25232 0.74661 0.16076
 O362 O 1.21135 0.78537 0.10252
 O363 O 1.30158 0.69680 0.11960
 O364 O 1.30206 0.79556 0.11858
 O365 O 1.15402 0.65792 0.18237
 O366 O 1.34584 0.84229 0.17789
 O367 O 1.20092 0.69820 0.12043
 O368 O 1.35228 0.65998 0.18054
 O369 O 1.32212 0.75052 0.20276
 O370 O 1.25329 0.68054 0.20585
 O371 O 1.24730 0.81576 0.20157
 O372 O 1.18178 0.74882 0.20326
 Zr373 Zr 1.24955 0.75486 0.33635
 Zr374 Zr 1.31502 0.81717 0.24646
 Zr375 Zr 1.18604 0.68435 0.25070
 Zr376 Zr 1.32111 0.68587 0.24945
 O377 O 1.10256 0.68801 0.25319
 O378 O 1.40348 0.70112 0.25022
 O379 O 1.25390 0.68492 0.29608
 O380 O 1.31920 0.75253 0.29331
 O381 O 1.24802 0.82154 0.29200
 O382 O 1.18028 0.75118 0.29359
 C383 C 1.33868 0.66658 0.13435
 C384 C 1.16459 0.66731 0.13578
 C385 C 1.33529 0.83037 0.13222
 O386 O 1.39840 0.81337 0.25086
 O387 O 1.33981 0.85233 0.31315
 O388 O 1.30010 0.80605 0.37560
 C389 C 1.33175 0.84154 0.35965
 O390 O 1.14316 0.84066 0.18035
 Zr391 Zr 1.18046 0.81570 0.24764
 O392 O 1.20142 0.80452 0.37808
 O393 O 1.30621 0.89796 0.23949
 O394 O 1.19106 0.89663 0.24237
 O395 O 1.09765 0.80398 0.25283
 O396 O 1.15674 0.84766 0.31679
 C397 C 1.16862 0.83888 0.36314
 O398 O 1.29144 0.71644 0.39410
 O399 O 1.19430 0.60325 0.25064
 O400 O 1.19971 0.70621 0.37885
 O401 O 1.16097 0.65433 0.32025
 O402 O 1.31326 0.60448 0.24877
 O403 O 1.35157 0.65421 0.31719
 C404 C 1.16902 0.66892 0.36583
 H405 H 1.25305 0.64819 0.18623
 H406 H 1.35103 0.75348 0.31488
 H407 H 1.14779 0.75077 0.31430
 H408 H 1.24568 0.84597 0.17885
 H409 H 1.42182 0.66852 0.24209
 H410 H 1.41181 0.84918 0.24804
 H411 H 1.34213 0.91326 0.24075
 H412 H 1.15714 0.91293 0.25179
 H413 H 1.34836 0.58995 0.24052
 H414 H 1.15813 0.58860 0.24919
 H415 H 1.08943 0.65202 0.25466
 H416 H 1.08153 0.83762 0.26119
 H417 H 1.38190 0.63160 0.30941
 H418 H 1.27854 0.73030 0.42656
 H419 H 1.22501 0.77228 0.07001
 H420 H 1.11825 0.86890 0.18806
 Zr421 Zr 0.74740 1.25275 0.16287
 O422 O 0.78768 1.21251 0.10530
 O423 O 0.69795 1.30213 0.12107
 O424 O 0.69712 1.20332 0.12235
 O425 O 0.84633 1.34162 0.18097
 O426 O 0.65354 1.15724 0.18268
 O427 O 0.79870 1.30015 0.12058
 O428 O 0.64810 1.34039 0.18164
 O429 O 0.67791 1.25009 0.20565
 O430 O 0.74744 1.31967 0.20635
 O431 O 0.75192 1.18433 0.20540
 O432 O 0.81835 1.25063 0.20465
 Zr433 Zr 0.75179 1.24785 0.33856
 Zr434 Zr 0.68447 1.18412 0.25095
 Zr435 Zr 0.81523 1.31615 0.25046
 Zr436 Zr 0.68001 1.31567 0.25075
 O437 O 0.89868 1.31153 0.25168
 O438 O 0.59751 1.30121 0.25291
 O439 O 0.74779 1.31699 0.29657
 O440 O 0.68167 1.24988 0.29617
 O441 O 0.75204 1.18019 0.29588
 O442 O 0.82062 1.25006 0.29495
 C443 C 0.66116 1.33285 0.13548
 C444 C 0.83518 1.33150 0.13465
 C445 C 0.66406 1.16856 0.13665
 O446 O 0.60115 1.18885 0.25519
 O447 O 0.65950 1.15162 0.31967
 O448 O 0.70097 1.19881 0.38020
 C449 C 0.66848 1.16345 0.36589
 O450 O 0.85541 1.15782 0.18360
 Zr451 Zr 0.81924 1.18460 0.25069
 O452 O 0.79957 1.19820 0.38114
 O453 O 0.69244 1.10311 0.24675
 O454 O 0.80773 1.10369 0.24765
 O455 O 0.90224 1.19543 0.25461
 O456 O 0.84363 1.15400 0.32038
 C457 C 0.83220 1.16349 0.36668
 O458 O 0.71104 1.28848 0.39547
 O459 O 0.80768 1.39730 0.24909
 O460 O 0.80286 1.29661 0.37923
 O461 O 0.84170 1.34699 0.31912
 O462 O 0.68836 1.39698 0.24787
 O463 O 0.65091 1.34902 0.31813
 C464 C 0.83393 1.33325 0.36510
 H465 H 0.74768 1.35162 0.18597
 H466 H 0.65005 1.24982 0.31806
 H467 H 0.85336 1.25045 0.31527
 H468 H 0.75316 1.15365 0.18342
 H469 H 0.57937 1.33384 0.24434
 H470 H 0.58750 1.15306 0.25381
 H471 H 0.65636 1.08829 0.24892
 H472 H 0.84158 1.08725 0.25715
 H473 H 0.65321 1.41156 0.23988
 H474 H 0.84395 1.41161 0.24683
 H475 H 0.91223 1.34739 0.25225
 H476 H 0.91807 1.16174 0.26347
 H477 H 0.62050 1.37153 0.31028
 H478 H 0.72418 1.27555 0.42826
 H479 H 0.77386 1.22497 0.07257
 H480 H 0.88001 1.12940 0.19169
 O481 O 0.43839 1.09974 0.03302
 O482 O 0.56298 0.90063 0.03301
 O483 O 0.40122 0.94183 0.03713
 O484 O 0.60004 1.05823 0.03873
 O485 O 0.47479 0.91182 0.06306
 O486 O 0.52607 1.08727 0.06435
 O487 O 0.58956 0.97148 0.06311
 O488 O 0.41113 1.02857 0.06236
 C489 C 0.41357 1.07561 0.06610
 C490 C 0.58678 0.92449 0.06676
 C491 C 0.42691 0.91657 0.06878
 C492 C 0.57383 1.08235 0.07084
 O493 O 0.56459 1.09934 -0.03048
 O494 O 0.43776 0.90113 -0.03197
 O495 O 0.40234 1.05963 -0.03658
 O496 O 0.60029 0.94104 -0.03602
 O497 O 0.52624 0.91268 -0.06257
 O498 O 0.47666 1.08868 -0.06204
 O499 O 0.59081 1.02827 -0.06031
 O500 O 0.41126 0.97257 -0.06125
 Co501 Co 0.50140 1.08430 0.00116
 Co502 Co 0.50053 0.91603 0.00036
 Co503 Co 0.41544 1.00065 0.00045
 Co504 Co 0.58623 0.99978 0.00130
 O505 O 0.50088 1.00018 0.00075
 C506 C 0.58901 1.07535 -0.06364
 C507 C 0.41252 0.92545 -0.06442
 C508 C 0.42876 1.08430 -0.06839
 C509 C 0.57430 0.91659 -0.06824
 O510 O 0.94008 0.59923 0.53385
 O511 O 1.06199 0.40163 0.53492
 O512 O 0.90001 0.44094 0.53438
 O513 O 1.10220 0.55976 0.53702
 O514 O 0.97315 0.41268 0.56239
 O515 O 1.02833 0.58793 0.56334
 O516 O 1.09027 0.47277 0.56384
 O517 O 0.91110 0.52770 0.56170
 C518 C 0.91452 0.57470 0.56626
 C519 C 1.08656 0.42575 0.56810
 C520 C 0.92497 0.41590 0.56672
 C521 C 1.07640 0.58474 0.56872
 O522 O 1.06485 0.59864 0.46726
 O523 O 0.93924 0.40263 0.46545
 O524 O 0.90265 0.56080 0.46404
 O525 O 1.10170 0.44036 0.46621
 O526 O 1.02808 0.41322 0.43801
 O527 O 0.97685 0.58848 0.43763
 O528 O 1.09260 0.52715 0.43929
 O529 O 0.91242 0.47433 0.43695
 Co530 Co 1.00239 0.58436 0.50054
 Co531 Co 1.00073 0.41674 0.50024
 Co532 Co 0.91578 0.50089 0.49942
 Co533 Co 1.08743 0.50006 0.50153
 O534 O 1.00158 0.50052 0.50052
 C535 C 1.08949 0.57409 0.43455
 C536 C 0.91528 0.42740 0.43233
 C537 C 0.92897 0.58453 0.43161
 C538 C 1.07618 0.41674 0.43325
 O539 O 1.06661 0.48064 0.08773
 O540 O 1.07425 0.52341 -0.08343
 O541 O 1.06384 0.41262 -0.03513
 O542 O 1.06280 0.58851 0.03514
 O543 O 1.02836 0.44038 -0.10054
 O544 O 1.02166 0.56483 0.09891
 O545 O 1.05227 0.59624 -0.05068
 O546 O 1.04789 0.40790 0.05134
 C547 C 1.07737 0.43439 0.08000
 C548 C 1.08674 0.56807 -0.07091
 C549 C 1.06403 0.41549 -0.08118
 C550 C 1.05993 0.58731 0.08113
 O551 O 0.93048 0.52109 0.08287
 O552 O 0.93726 0.48324 -0.09168
 O553 O 0.93741 0.41227 0.03202
 O554 O 0.94034 0.58916 -0.03681
 O555 O 0.98290 0.56805 -0.10044
 O556 O 0.97498 0.43774 0.09716
 O557 O 0.95148 0.59427 0.04952
 O558 O 0.95393 0.40982 -0.05526
 Co559 Co 0.99868 0.50140 0.08142
 Co560 Co 1.00535 0.50389 -0.08407
 Co561 Co 1.00073 0.41876 -0.00177
 Co562 Co 1.00157 0.58432 -0.00080
 O563 O 1.00139 0.50207 -0.00134
 C564 C 0.92027 0.56728 0.07582
 C565 C 0.92546 0.43695 -0.08419
 C566 C 0.93806 0.41418 0.07822
 C567 C 0.94400 0.58967 -0.08281
 O568 O 0.55542 0.96857 0.58916
 O569 O 0.57123 1.02137 0.41785
 O570 O 0.56243 0.91012 0.46651
 O571 O 0.56083 1.08397 0.53886
 O572 O 0.52967 0.93892 0.39975
 O573 O 0.52030 1.05396 0.60185
 O574 O 0.54947 1.09371 0.45138
 O575 O 0.53502 0.89843 0.55148
 C576 C 0.56487 0.92287 0.58077
 C577 C 0.58106 1.06758 0.42513
 C578 C 0.56495 0.91417 0.42029
 C579 C 0.55840 1.07879 0.58482
 O580 O 0.42389 1.01888 0.58197
 O581 O 0.43519 0.98093 0.40841
 O582 O 0.42986 0.91074 0.51882
 O583 O 0.43916 1.09005 0.46561
 O584 O 0.47929 1.06487 0.40145
 O585 O 0.45664 0.93028 0.59020
 O586 O 0.45203 1.09194 0.55370
 O587 O 0.45514 0.90636 0.43781
 Co588 Co 0.48990 0.99315 0.58142
 Co589 Co 0.50310 1.00098 0.41680
 Co590 Co 0.49624 0.91456 0.49438
 Co591 Co 0.50010 1.08134 0.50196
 O592 O 0.49757 0.99751 0.49884
 C593 C 0.41799 1.06604 0.57761
 C594 C 0.42420 0.93461 0.41336
 C595 C 0.41999 0.91405 0.56357
 C596 C 0.44152 1.08805 0.41946
 O597 O 1.09690 1.04853 0.45045
 O598 O 0.90765 1.04503 0.55304
 O599 O 0.93698 1.02444 0.40147
 O600 O 1.06876 1.01575 0.59946
 O601 O 0.91159 1.06097 0.46668
 O602 O 1.09104 1.05785 0.53629
 O603 O 0.98265 1.06100 0.59011
 O604 O 1.02216 1.06851 0.41643
 C605 C 1.06918 1.07915 0.42458
 C606 C 0.93563 1.07288 0.58180
 C607 C 0.91349 1.06057 0.42061
 C608 C 1.09077 1.05403 0.58216
 O609 O 1.09706 0.94840 0.54936
 O610 O 0.90672 0.95294 0.44698
 O611 O 1.06778 0.98046 0.40025
 O612 O 0.93716 0.97260 0.59833
 O613 O 0.91038 0.93755 0.53271
 O614 O 1.09073 0.93939 0.46369
 O615 O 1.02193 0.92755 0.58262
 O616 O 0.98168 0.93568 0.41083
 Co617 Co 1.08623 0.99865 0.50000
 Co618 Co 0.91716 0.99917 0.49989
 Co619 Co 1.00232 1.00194 0.41734
 Co620 Co 1.00283 0.99461 0.58291
 O621 O 1.00216 0.99870 0.50009
 C622 C 1.06750 0.91517 0.56990
 C623 C 0.93453 0.92431 0.41895
 C624 C 1.09006 0.94272 0.41778
 C625 C 0.91255 0.93735 0.57867
 O626 O 0.59548 0.54739 -0.05135
 O627 O 0.40569 0.54879 0.04984
 O628 O 0.43535 0.52330 -0.10073
 O629 O 0.56542 0.52044 0.09862
 O630 O 0.41176 0.56203 -0.03623
 O631 O 0.59085 0.55917 0.03443
 O632 O 0.48040 0.56593 0.08630
 O633 O 0.52089 0.56708 -0.08635
 C634 C 0.56791 0.57768 -0.07778
 C635 C 0.43359 0.57756 0.07773
 C636 C 0.41256 0.56027 -0.08229
 C637 C 0.58905 0.55723 0.08043
 O638 O 0.59400 0.45048 0.05044
 O639 O 0.40515 0.45344 -0.05312
 O640 O 0.56585 0.47857 -0.10021
 O641 O 0.43372 0.47797 0.09734
 O642 O 0.40881 0.44035 0.03255
 O643 O 0.58898 0.43876 -0.03593
 O644 O 0.51890 0.43247 0.08579
 O645 O 0.48015 0.43442 -0.08759
 Co646 Co 0.58449 0.49898 -0.00066
 Co647 Co 0.41569 0.50110 -0.00169
 Co648 Co 0.50051 0.50074 -0.08348
 Co649 Co 0.49966 0.49926 0.08210
 O650 O 0.50009 0.49996 -0.00085
 C651 C 0.56591 0.42120 0.07779
 C652 C 0.43299 0.42363 -0.07975
 C653 C 0.58848 0.44133 -0.08198
 C654 C 0.41041 0.44148 0.07854
 N655 N 0.36004 1.14333 0.09473
 N656 N 0.38375 1.10123 0.10387
 N657 N 0.86065 0.64223 0.59440
 N658 N 0.88444 0.60024 0.60386
 N659 N 0.63824 0.85587 0.09609
 N660 N 0.61583 0.89861 0.10488
 N661 N 1.13750 0.35659 0.59696
 N662 N 1.11579 0.39968 0.60597
 N663 N 0.64235 1.14369 -0.09187
 N664 N 0.61922 1.10119 -0.10100
 N665 N 1.14089 0.64281 0.40467
 N666 N 1.11893 0.59958 0.39633
 N667 N 0.35607 0.85844 -0.09017
 N668 N 0.38069 0.89992 -0.10058
 N669 N 0.86279 0.35947 0.40324
 N670 N 0.88570 0.40213 0.39420
 N671 N 1.13518 0.36560 0.10090
 N672 N 1.11633 0.40989 0.11074
 N673 N 0.62713 0.85636 0.59929
 N674 N 0.60326 0.89758 0.61138
 N675 N 1.15341 0.62033 -0.10725
 N676 N 1.14006 0.58590 -0.07761
 N677 N 0.63767 1.13742 0.40334
 N678 N 0.62030 1.09223 0.39473
 N679 N 0.86365 0.63630 0.09797
 N680 N 0.88097 0.59114 0.10644
 N681 N 0.36294 1.13630 0.59934
 N682 N 0.37947 1.09096 0.60815
 N683 N 0.86598 0.36907 -0.10427
 N684 N 0.88605 0.41288 -0.11501
 N685 N 0.36332 0.86856 0.39535
 N686 N 0.38354 0.91196 0.38371
 N687 N 1.13915 1.13669 0.40442
 N688 N 1.09327 1.11891 0.39545
 N689 N 0.63805 0.63491 -0.09675
 N690 N 0.59236 0.61723 -0.10660
 N691 N 0.86657 1.13107 0.60131
 N692 N 0.91159 1.11201 0.61166
 N693 N 0.36444 0.63535 0.09768
 N694 N 0.40971 0.61675 0.10742
 N695 N 1.11766 0.85037 0.60887
 N696 N 1.08496 0.86332 0.57692
 N697 N 0.63522 0.36364 0.09840
 N698 N 0.58976 0.38203 0.10779
 N699 N 0.86591 0.86505 0.39998
 N700 N 0.91046 0.88509 0.38927
 N701 N 0.36385 0.36515 -0.09893
 N702 N 0.40898 0.38416 -0.10908
 N703 N 1.13420 0.35623 -0.09766
 N704 N 1.09921 0.38764 -0.11269
 N705 N 0.63579 0.85497 0.40336
 N706 N 0.60130 0.88720 0.38906
 N707 N 0.87064 0.64465 -0.10061
 N708 N 0.90849 0.61632 -0.11530
 N709 N 0.36949 1.14434 0.40091
 N710 N 0.40638 1.11470 0.38665
 N711 N 1.13318 0.64197 0.09876
 N712 N 1.09542 0.61350 0.11363
 N713 N 0.63040 1.13555 0.60400
 N714 N 0.59371 1.10505 0.61841
 N715 N 0.86589 0.35672 0.09651
 N716 N 0.90234 0.38722 0.11045
 N717 N 0.35005 0.87802 0.61230
 N718 N 0.36637 0.90917 0.58067
 N719 N 0.36376 1.14092 -0.09626
 N720 N 0.40367 1.11341 -0.10667
 N721 N 0.86429 0.64091 0.40309
 N722 N 0.90407 0.61318 0.39297
 N723 N 0.63795 1.13995 0.09856
 N724 N 0.59905 1.11094 0.10929
 N725 N 1.13986 0.64501 0.59546
 N726 N 1.10181 0.61476 0.60624
 N727 N 0.63866 0.85866 -0.09633
 N728 N 0.59959 0.88750 -0.10651
 N729 N 1.14155 0.36025 0.40535
 N730 N 1.10183 0.38810 0.39510
 N731 N 0.36187 0.85865 0.09418
 N732 N 0.40093 0.88695 0.10594
 N733 N 0.86039 0.35631 0.59284
 N734 N 0.89865 0.38608 0.60395
 N735 N 1.14409 1.12731 0.59963
 N736 N 1.11654 1.08932 0.61471
 N737 N 0.64467 0.62923 0.09773
 N738 N 0.61541 0.59245 0.11264
 N739 N 1.14412 0.87035 0.40020
 N740 N 1.11582 0.90760 0.38526
 N741 N 0.64462 0.37000 -0.09907
 N742 N 0.61493 0.40618 -0.11412
 N743 N 0.85711 1.13238 0.40411
 N744 N 0.88693 1.09635 0.38908
 N745 N 0.35713 0.63242 -0.09869
 N746 N 0.38617 0.59597 -0.11417
 N747 N 0.85272 0.86779 0.59409
 N748 N 0.88461 0.90207 0.60958
 N749 N 0.35437 0.36948 0.09518
 N750 N 0.38402 0.40578 0.11021
   
