data_POSCAR
  _audit_creation_date              2014-09-24
  _audit_creation_method            'ToBaCCo'
  _symmetry_space_group_name_H-M    'P1'
  _symmetry_Int_Tables_number       1
  _symmetry_cell_setting            triclinic
  loop_
  _symmetry_equiv_pos_as_xyz
 x,y,z
_cell_length_a 35.5585
_cell_length_b 35.6309
_cell_length_c 21.5108
_cell_angle_alpha 90.000000
_cell_angle_beta 90.033000
_cell_angle_gamma 93.228500
loop_
  _atom_site_label
  _atom_site_type_symbol
  _atom_site_fract_x
  _atom_site_fract_y
  _atom_site_fract_z
C1 C -0.06345 0.27487 0.05762
 C2 C -0.08229 0.27847 0.00077
 C3 C -0.06363 0.28109 -0.05666
 C4 C -0.02366 0.27932 -0.05751
 C5 C -0.00377 0.27483 -0.00072
 C6 C -0.02379 0.27104 0.05645
 C7 C -0.00392 0.25991 0.10934
 C8 C 0.03510 0.25899 0.10909
 C9 C 0.05601 0.26772 0.05523
 C10 C 0.03624 0.27231 -0.00133
 C11 C -0.00303 0.27918 -0.11332
 C12 C 0.03594 0.27859 -0.11350
 C13 C 0.05626 0.27348 -0.05849
 C14 C 0.09607 0.27049 -0.05873
 C15 C 0.11512 0.27178 -0.00150
 C16 C 0.09597 0.26983 0.05542
 H17 H -0.01827 0.25030 0.15109
 H18 H 0.04848 0.24979 0.15110
 H19 H -0.01630 0.27840 -0.15827
 H20 H 0.04978 0.28254 -0.15787
 H21 H -0.11218 0.28260 0.00140
 H22 H 0.14551 0.27189 -0.00083
 C23 C 0.40312 0.76833 0.44387
 C24 C 0.38407 0.76656 0.50091
 C25 C 0.40324 0.76936 0.55784
 C26 C 0.44304 0.77470 0.55781
 C27 C 0.46293 0.77489 0.50066
 C28 C 0.44293 0.77353 0.44357
 C29 C 0.46338 0.77861 0.38803
 C30 C 0.50256 0.77973 0.38801
 C31 C 0.52285 0.77571 0.44350
 C32 C 0.50299 0.77604 0.50062
 C33 C 0.46360 0.78106 0.61300
 C34 C 0.50280 0.78238 0.61291
 C35 C 0.52299 0.77712 0.55771
 C36 C 0.56258 0.77395 0.55767
 C37 C 0.58150 0.77193 0.50070
 C38 C 0.56240 0.77246 0.44370
 H39 H 0.44938 0.78215 0.34398
 H40 H 0.51673 0.78415 0.34395
 H41 H 0.44965 0.78549 0.65681
 H42 H 0.51705 0.78792 0.65663
 H43 H 0.35382 0.76088 0.50103
 H44 H 0.61142 0.76769 0.50077
 C45 C 1.05953 0.72618 0.05580
 C46 C 1.07880 0.72600 -0.00108
 C47 C 1.05979 0.72395 -0.05852
 C48 C 1.01979 0.71954 -0.05815
 C49 C 0.99986 0.72172 -0.00132
 C50 C 1.01966 0.72318 0.05586
 C51 C 0.99887 0.71997 0.11136
 C52 C 0.95980 0.72060 0.11095
 C53 C 0.93991 0.72426 0.05500
 C54 C 0.95986 0.72214 -0.00175
 C55 C 0.99899 0.70999 -0.11205
 C56 C 0.95993 0.71028 -0.11243
 C57 C 0.94003 0.72019 -0.05897
 C58 C 0.90064 0.72521 -0.06011
 C59 C 0.88162 0.72810 -0.00310
 C60 C 0.90056 0.72834 0.05409
 H61 H 1.01247 0.71635 0.15573
 H62 H 0.94536 0.71752 0.15502
 H63 H 1.01261 0.70137 -0.15422
 H64 H 0.94551 0.70186 -0.15488
 H65 H 1.10914 0.73059 -0.00027
 H66 H 0.85196 0.73341 -0.00294
 C67 C 0.43595 0.23451 0.44519
 C68 C 0.41725 0.23407 0.50255
 C69 C 0.43671 0.23622 0.55922
 C70 C 0.47661 0.23803 0.55871
 C71 C 0.49608 0.23581 0.50137
 C72 C 0.47592 0.23630 0.44443
 C73 C 0.49654 0.24066 0.38891
 C74 C 0.53558 0.23921 0.38851
 C75 C 0.55567 0.23335 0.44361
 C76 C 0.53599 0.23420 0.50097
 C77 C 0.49781 0.24403 0.61331
 C78 C 0.53675 0.24231 0.61297
 C79 C 0.55618 0.23472 0.55795
 C80 C 0.59544 0.22987 0.55761
 C81 C 0.61391 0.22656 0.50062
 C82 C 0.59508 0.22892 0.44367
 H83 H 0.48298 0.24627 0.34524
 H84 H 0.54971 0.24374 0.34453
 H85 H 0.48477 0.25105 0.65678
 H86 H 0.55138 0.24802 0.65624
 H87 H 0.38677 0.23124 0.50313
 H88 H 0.64374 0.22181 0.50060
 C89 C 0.75893 0.08377 -0.06013
 C90 C 0.76228 0.10238 -0.00253
 C91 C 0.75743 0.08335 0.05410
 C92 C 0.74846 0.04424 0.05385
 C93 C 0.74927 0.02399 -0.00275
 C94 C 0.75508 0.04366 -0.05981
 C95 C 0.75815 0.02237 -0.11429
 C96 C 0.75126 -0.01629 -0.11419
 C97 C 0.74630 -0.03663 -0.05845
 C98 C 0.74440 -0.01609 -0.00210
 C99 C 0.73713 0.02505 0.10820
 C100 C 0.73048 -0.01373 0.10821
 C101 C 0.73701 -0.03530 0.05487
 C102 C 0.73371 -0.07529 0.05607
 C103 C 0.73331 -0.09476 -0.00081
 C104 C 0.74129 -0.07658 -0.05766
 H105 H 0.76659 0.03497 -0.15806
 H106 H 0.74931 -0.02956 -0.15918
 H107 H 0.73214 0.03994 0.15096
 H108 H 0.71942 -0.02647 0.15049
 H109 H 0.76725 0.13256 -0.00102
 H110 H 0.73149 -0.12515 -0.00025
 C111 C 0.25880 0.42102 0.55742
 C112 C 0.26261 0.40255 0.50061
 C113 C 0.25938 0.42111 0.44370
 C114 C 0.25079 0.45951 0.44328
 C115 C 0.24586 0.47862 0.50045
 C116 C 0.25022 0.45942 0.55769
 C117 C 0.24541 0.47904 0.61348
 C118 C 0.23787 0.51688 0.61343
 C119 C 0.23188 0.53623 0.55769
 C120 C 0.23628 0.51699 0.50040
 C121 C 0.24647 0.47922 0.38743
 C122 C 0.23866 0.51702 0.38741
 C123 C 0.23215 0.53626 0.44308
 C124 C 0.22267 0.57444 0.44341
 C125 C 0.21806 0.59256 0.50035
 C126 C 0.22264 0.57447 0.55731
 H127 H 0.24731 0.46552 0.65818
 H128 H 0.23712 0.53057 0.65806
 H129 H 0.24898 0.46579 0.34276
 H130 H 0.23820 0.53079 0.34283
 H131 H 0.26977 0.37336 0.50072
 H132 H 0.21026 0.62154 0.50036
 C133 C 0.25079 0.91822 0.05598
 C134 C 0.24975 0.89921 -0.00093
 C135 C 0.24969 0.91828 -0.05805
 C136 C 0.25432 0.95836 -0.05783
 C137 C 0.25706 0.97820 -0.00046
 C138 C 0.25506 0.95803 0.05651
 C139 C 0.25779 0.97825 0.11250
 C140 C 0.26000 1.01725 0.11301
 C141 C 0.26331 1.03804 0.05760
 C142 C 0.26195 1.01837 0.00003
 C143 C 0.25779 0.97925 -0.11312
 C144 C 0.26001 1.01823 -0.11265
 C145 C 0.26430 1.03872 -0.05699
 C146 C 0.26876 1.07884 -0.05625
 C147 C 0.26895 1.09727 0.00152
 C148 C 0.26696 1.07788 0.05807
 H149 H 0.25832 0.96431 0.15702
 H150 H 0.25875 1.03063 0.15785
 H151 H 0.25923 0.96604 -0.15807
 H152 H 0.25735 1.03161 -0.15717
 H153 H 0.24512 0.86890 -0.00022
 H154 H 0.27330 1.12757 0.00309
 C155 C 0.75893 0.42533 0.44216
 C156 C 0.75910 0.40653 0.49942
 C157 C 0.75780 0.42585 0.55606
 C158 C 0.75677 0.46551 0.55566
 C159 C 0.75520 0.48490 0.49822
 C160 C 0.75801 0.46505 0.44143
 C161 C 0.76111 0.48573 0.38580
 C162 C 0.75685 0.52430 0.38516
 C163 C 0.74959 0.54384 0.44020
 C164 C 0.75089 0.52433 0.49762
 C165 C 0.75857 0.48656 0.61096
 C166 C 0.75415 0.52506 0.61041
 C167 C 0.74809 0.54414 0.55448
 C168 C 0.74089 0.58277 0.55359
 C169 C 0.73843 0.60127 0.49648
 C170 C 0.74261 0.58259 0.43987
 H171 H 0.76746 0.47247 0.34215
 H172 H 0.75993 0.53865 0.34104
 H173 H 0.76393 0.47367 0.65532
 H174 H 0.75617 0.53970 0.65439
 H175 H 0.75837 0.37608 0.49988
 H176 H 0.73175 0.63058 0.49607
 O177 O 0.23213 0.26767 0.17424
 O178 O 0.32583 0.25254 0.23993
 O179 O 0.27737 0.21357 0.17322
 O180 O 0.28134 0.30881 0.24056
 O181 O 0.25240 0.28688 0.32500
 O182 O 0.25376 0.19084 0.26145
 O183 O 0.29905 0.23424 0.32844
 O184 O 0.20530 0.24495 0.26000
 Cu185 Cu 0.28175 0.26316 0.19839
 Cu186 Cu 0.24969 0.23675 0.30211
 C187 C 0.20285 0.25860 0.20576
 C188 C 0.32827 0.24113 0.29563
 C189 C 0.26584 0.18595 0.20661
 C190 C 0.26751 0.31408 0.29410
 O191 O 0.74580 0.71705 0.32242
 O192 O 0.74385 0.81269 0.25942
 O193 O 0.69721 0.76924 0.32435
 O194 O 0.79167 0.76094 0.25732
 O195 O 0.76596 0.73686 0.17158
 O196 O 0.67158 0.74597 0.23799
 O197 O 0.71835 0.78995 0.17262
 O198 O 0.71936 0.69390 0.23660
 Cu199 Cu 0.74709 0.76725 0.29969
 Cu200 Cu 0.71616 0.73952 0.19589
 C201 C 0.73280 0.68925 0.29056
 C202 C 0.73144 0.81757 0.20490
 C203 C 0.66836 0.75859 0.29278
 C204 C 0.79483 0.74763 0.20297
 O205 O 0.82611 0.25591 0.26145
 O206 O 0.73172 0.23404 0.32608
 O207 O 0.77908 0.19661 0.25980
 O208 O 0.77754 0.29269 0.32405
 O209 O 0.75060 0.31104 0.23748
 O210 O 0.75283 0.21595 0.17325
 O211 O 0.70537 0.25095 0.23804
 O212 O 0.80008 0.27355 0.17365
 Cu213 Cu 0.78131 0.24278 0.30149
 Cu214 Cu 0.74983 0.26518 0.19684
 C215 C 0.82911 0.26805 0.20620
 C216 C 0.70264 0.23886 0.29344
 C217 C 0.76613 0.19005 0.20550
 C218 C 0.76287 0.31796 0.29193
 O219 O 0.17195 0.75284 0.26157
 O220 O 0.26812 0.76408 0.32505
 O221 O 0.22420 0.80559 0.26040
 O222 O 0.21542 0.71063 0.32729
 O223 O 0.23448 0.68656 0.23879
 O224 O 0.24866 0.78263 0.17500
 O225 O 0.29004 0.73791 0.24036
 O226 O 0.19444 0.73061 0.17404
 Cu227 Cu 0.21776 0.76051 0.30244
 Cu228 Cu 0.24443 0.73215 0.19840
 C229 C 0.16697 0.74065 0.20652
 C230 C 0.29534 0.75221 0.29394
 C231 C 0.23753 0.81025 0.20610
 C232 C 0.22294 0.68248 0.29433
 O233 O 0.77724 0.19955 0.74098
 O234 O 0.77763 0.29582 0.67879
 O235 O 0.82544 0.25960 0.74343
 O236 O 0.73174 0.23821 0.67567
 O237 O 0.70503 0.25240 0.76483
 O238 O 0.79872 0.27869 0.82971
 O239 O 0.74854 0.31350 0.76378
 O240 O 0.75409 0.21887 0.83005
 Cu241 Cu 0.78117 0.24614 0.70138
 Cu242 Cu 0.74919 0.26800 0.80595
 C243 C 0.76533 0.19284 0.79577
 C244 C 0.76162 0.32063 0.70985
 C245 C 0.82793 0.27324 0.79783
 C246 C 0.70256 0.24154 0.70869
 O247 O 0.29016 0.73916 0.76110
 O248 O 0.19448 0.73047 0.82651
 O249 O 0.23505 0.68704 0.76177
 O250 O 0.24752 0.78324 0.82560
 O251 O 0.22304 0.80569 0.73980
 O252 O 0.21624 0.71071 0.67277
 O253 O 0.17183 0.75158 0.73825
 O254 O 0.26814 0.76489 0.67606
 Cu255 Cu 0.24442 0.73274 0.80238
 Cu256 Cu 0.21766 0.76047 0.69788
 C257 C 0.29546 0.75348 0.70755
 C258 C 0.16687 0.73952 0.79340
 C259 C 0.22380 0.68272 0.70607
 C260 C 0.23605 0.81062 0.79428
 O261 O 0.20726 0.24042 0.74292
 O262 O 0.30184 0.23716 0.67570
 O263 O 0.25994 0.19147 0.74254
 O264 O 0.25219 0.28689 0.67878
 O265 O 0.28064 0.31037 0.76261
 O266 O 0.27900 0.21598 0.83236
 O267 O 0.32682 0.25573 0.76550
 O268 O 0.23133 0.26825 0.82683
 Cu269 Cu 0.25243 0.23659 0.70150
 Cu270 Cu 0.28179 0.26531 0.80550
 C271 C 0.20307 0.25521 0.79592
 C272 C 0.33038 0.24484 0.70967
 C273 C 0.27051 0.18761 0.79851
 C274 C 0.26666 0.31475 0.70897
 O275 O 0.69821 0.77098 0.67505
 O276 O 0.79292 0.75620 0.73700
 O277 O 0.74411 0.71637 0.67228
 O278 O 0.74916 0.81084 0.73957
 O279 O 0.72270 0.78863 0.82595
 O280 O 0.71842 0.69320 0.75864
 O281 O 0.76728 0.73358 0.82381
 O282 O 0.67289 0.74736 0.76133
 Cu283 Cu 0.74833 0.76598 0.69699
 Cu284 Cu 0.71756 0.73854 0.80117
 C285 C 0.66943 0.76085 0.70720
 C286 C 0.79614 0.74277 0.79130
 C287 C 0.73073 0.68870 0.70390
 C288 C 0.73793 0.81567 0.79474
 N289 N 0.28963 0.12186 0.20582
 N290 N 0.29119 0.09377 0.16589
 C291 C 0.26959 0.10087 0.11606
 C292 C 0.25478 0.13580 0.12414
 C293 C 0.26784 0.14787 0.18168
 H294 H 0.23829 0.15114 0.09147
 H295 H 0.30539 0.12432 0.24676
 H296 H 0.30881 0.07151 0.17123
 N297 N 0.70892 0.62101 0.69796
 N298 N 0.71152 0.59298 0.65819
 C299 C 0.73403 0.60468 0.61070
 C300 C 0.74564 0.64195 0.62024
 C301 C 0.72920 0.65116 0.67592
 H302 H 0.76270 0.66018 0.58988
 H303 H 0.69235 0.61981 0.73807
 H304 H 0.69669 0.56695 0.66239
 N305 N 0.75215 0.88519 0.20594
 N306 N 0.75307 0.91510 0.16415
 C307 C 0.73455 0.90355 0.11200
 C308 C 0.72215 0.86589 0.11970
 C309 C 0.73376 0.85566 0.17851
 H310 H 0.70757 0.84759 0.08633
 H311 H 0.76614 0.88539 0.24866
 H312 H 0.77027 0.93956 0.17005
 N313 N 0.28958 0.38203 0.70209
 N314 N 0.28783 0.41003 0.66206
 C315 C 0.26475 0.39899 0.61490
 C316 C 0.25196 0.36198 0.62490
 C317 C 0.26823 0.35237 0.68070
 H318 H 0.23453 0.34410 0.59454
 H319 H 0.30652 0.38279 0.74181
 H320 H 0.30373 0.43549 0.66568
 N321 N 0.89753 0.28723 0.21053
 N322 N 0.92770 0.28908 0.16892
 C323 C 0.91486 0.27646 0.11304
 C324 C 0.87613 0.26797 0.11792
 C325 C 0.86668 0.27482 0.17896
 H326 H 0.85709 0.25669 0.08244
 H327 H 0.89902 0.29513 0.25726
 H328 H 0.95403 0.30207 0.17907
 N329 N 0.36255 0.73714 0.70304
 N330 N 0.39094 0.74108 0.66351
 C331 C 0.38083 0.76289 0.61568
 C332 C 0.34400 0.77262 0.62500
 C333 C 0.33351 0.75573 0.68075
 H334 H 0.32659 0.78813 0.59399
 H335 H 0.36251 0.72028 0.74276
 H336 H 0.41582 0.72704 0.66768
 N337 N 0.10116 0.76031 0.19936
 N338 N 0.07301 0.75705 0.15926
 C339 C 0.08212 0.73340 0.11331
 C340 C 0.11818 0.72189 0.12422
 C341 C 0.12914 0.73954 0.17913
 H342 H 0.13483 0.70459 0.09483
 H343 H 0.10194 0.77823 0.23782
 H344 H 0.04907 0.77267 0.16174
 N345 N 0.63645 0.21427 0.70850
 N346 N 0.60828 0.21053 0.66838
 C347 C 0.61865 0.22818 0.61499
 C348 C 0.65550 0.24253 0.62093
 C349 C 0.66552 0.23335 0.68072
 H350 H 0.67265 0.25774 0.58667
 H351 H 0.63611 0.20281 0.75320
 H352 H 0.58303 0.19503 0.67709
 N353 N 0.74351 0.12586 0.79025
 N354 N 0.74002 0.09578 0.83170
 C355 C 0.75838 0.10591 0.88479
 C356 C 0.77231 0.14319 0.87850
 C357 C 0.76272 0.15425 0.81922
 H358 H 0.78698 0.16081 0.91269
 H359 H 0.72971 0.12709 0.74748
 H360 H 0.72116 0.07261 0.82504
 N361 N 0.20027 0.61497 0.29475
 N362 N 0.19949 0.58649 0.33432
 C363 C 0.21843 0.59743 0.38627
 C364 C 0.23048 0.63495 0.38007
 C365 C 0.21868 0.64479 0.32151
 H366 H 0.24552 0.65274 0.41368
 H367 H 0.18703 0.61435 0.25138
 H368 H 0.18478 0.56073 0.32657
 N369 N 0.21843 0.87703 0.79712
 N370 N 0.22184 0.90708 0.83863
 C371 C 0.24275 0.89656 0.88745
 C372 C 0.25190 0.85931 0.87857
 C373 C 0.23652 0.84842 0.82174
 H374 H 0.26744 0.84201 0.90970
 H375 H 0.20241 0.87658 0.75640
 H376 H 0.20610 0.93088 0.83537
 N377 N 0.73499 0.38028 0.29640
 N378 N 0.73341 0.40833 0.33627
 C379 C 0.75647 0.40217 0.38461
 C380 C 0.77279 0.36812 0.37544
 C381 C 0.75847 0.35526 0.31901
 H382 H 0.79104 0.35383 0.40679
 H383 H 0.71858 0.37741 0.25620
 H384 H 0.71506 0.43006 0.33183
 N385 N 0.13419 0.23893 0.79700
 N386 N 0.10422 0.24326 0.83768
 C387 C 0.11717 0.26397 0.88670
 C388 C 0.15568 0.27241 0.87836
 C389 C 0.16502 0.25642 0.82217
 H390 H 0.17493 0.28768 0.90949
 H391 H 0.13283 0.22278 0.75646
 H392 H 0.07830 0.22815 0.83387
 N393 N 0.60021 0.73943 0.29957
 N394 N 0.57235 0.74266 0.33946
 C395 C 0.58430 0.76564 0.38622
 C396 C 0.62185 0.77675 0.37601
 C397 C 0.63075 0.75956 0.32065
 H398 H 0.64056 0.79355 0.40598
 H399 H 0.59879 0.72205 0.26044
 H400 H 0.54645 0.72745 0.33623
 N401 N 0.86591 0.75195 0.79036
 N402 N 0.89520 0.74718 0.83222
 C403 C 0.88040 0.73082 0.88415
 C404 C 0.84154 0.72546 0.87632
 C405 C 0.83378 0.73894 0.81761
 H406 H 0.82107 0.71404 0.90947
 H407 H 0.86870 0.76566 0.74756
 H408 H 0.92236 0.75936 0.82635
 N409 N 0.39156 0.21477 0.29659
 N410 N 0.41966 0.21215 0.33639
 C411 C 0.41228 0.23210 0.38794
 C412 C 0.37723 0.24689 0.38111
 C413 C 0.36532 0.23550 0.32266
 H414 H 0.36213 0.26319 0.41434
 H415 H 0.38962 0.20100 0.25375
 H416 H 0.44241 0.19537 0.32917
 N417 N 0.77062 0.87859 0.80240
 N418 N 0.77238 0.90837 0.84440
 C419 C 0.74651 0.90072 0.88930
 C420 C 0.72912 0.86526 0.87803
 C421 C 0.74462 0.85279 0.82325
 H422 H 0.70796 0.85022 0.90607
 H423 H 0.78854 0.87607 0.76436
 H424 H 0.79377 0.92968 0.84439
 N425 N 0.29119 0.38134 0.30022
 N426 N 0.28917 0.40963 0.33970
 C427 C 0.26561 0.39897 0.38641
 C428 C 0.25274 0.36200 0.37666
 C429 C 0.26951 0.35192 0.32159
 H430 H 0.23489 0.34441 0.40681
 H431 H 0.30845 0.38176 0.26093
 H432 H 0.30521 0.43501 0.33607
 N433 N 0.29051 0.12198 0.79548
 N434 N 0.29117 0.09184 0.83683
 C435 C 0.27341 0.10150 0.88959
 C436 C 0.26300 0.13853 0.88360
 C437 C 0.27366 0.14989 0.82441
 H438 H 0.24883 0.15522 0.91744
 H439 H 0.30333 0.12311 0.75179
 H440 H 0.30734 0.06863 0.82995
 N441 N 0.71336 0.62092 0.29388
 N442 N 0.71592 0.59267 0.33323
 C443 C 0.73737 0.60444 0.38201
 C444 C 0.74840 0.64201 0.37353
 C445 C 0.73260 0.65135 0.31731
 H446 H 0.76420 0.66047 0.40526
 H447 H 0.69723 0.61973 0.25327
 H448 H 0.70142 0.56654 0.32813
 N449 N 0.09846 0.75041 0.79238
 N450 N 0.06850 0.74620 0.83407
 C451 C 0.08104 0.72961 0.88613
 C452 C 0.11920 0.72368 0.87864
 C453 C 0.12880 0.73690 0.81989
 H454 H 0.13806 0.71181 0.91188
 H455 H 0.09747 0.76391 0.74937
 H456 H 0.04291 0.75869 0.82785
 N457 N 0.63652 0.21147 0.29372
 N458 N 0.60818 0.20825 0.33357
 C459 C 0.61824 0.22683 0.38628
 C460 C 0.65507 0.24127 0.38018
 C461 C 0.66542 0.23112 0.32105
 H462 H 0.67208 0.25701 0.41403
 H463 H 0.63646 0.19918 0.24963
 H464 H 0.58314 0.19230 0.32530
 N465 N 0.89300 0.30286 0.79714
 N466 N 0.92337 0.30566 0.83841
 C467 C 0.91371 0.28539 0.88970
 C468 C 0.87658 0.27113 0.88305
 C469 C 0.86508 0.28220 0.82496
 H470 H 0.86016 0.25370 0.91546
 H471 H 0.89207 0.31600 0.75381
 H472 H 0.94682 0.32430 0.83259
 N473 N 0.36196 0.73446 0.29987
 N474 N 0.39033 0.73843 0.33950
 C475 C 0.38056 0.76111 0.38637
 C476 C 0.34396 0.77136 0.37643
 C477 C 0.33328 0.75391 0.32121
 H478 H 0.32685 0.78771 0.40663
 H479 H 0.36169 0.71711 0.26072
 H480 H 0.41497 0.72394 0.33602
 N481 N 0.21671 0.87537 0.19835
 N482 N 0.21965 0.90365 0.15865
 C483 C 0.24396 0.89532 0.11320
 C484 C 0.25613 0.85946 0.12385
 C485 C 0.23826 0.84795 0.17834
 H486 H 0.27394 0.84333 0.09452
 H487 H 0.19846 0.87410 0.23642
 H488 H 0.20337 0.92711 0.16093
 N489 N 0.73198 0.38200 0.70198
 N490 N 0.73036 0.40943 0.66090
 C491 C 0.75457 0.40331 0.61415
 C492 C 0.77173 0.37003 0.62559
 C493 C 0.75669 0.35751 0.68169
 H494 H 0.79102 0.35594 0.59583
 H495 H 0.71484 0.37913 0.74130
 H496 H 0.71138 0.43070 0.66348
 N497 N 0.78451 0.12332 0.20259
 N498 N 0.78208 0.09509 0.16255
 C499 C 0.76240 0.10554 0.11234
 C500 C 0.75221 0.14209 0.12078
 C501 C 0.76678 0.15233 0.17828
 H502 H 0.73748 0.15939 0.08854
 H503 H 0.79928 0.12308 0.24456
 H504 H 0.79520 0.06984 0.16851
 N505 N 0.20067 0.61538 0.70583
 N506 N 0.19950 0.58690 0.66625
 C507 C 0.21869 0.59754 0.61443
 C508 C 0.23131 0.63490 0.62070
 C509 C 0.21960 0.64493 0.67923
 H510 H 0.24653 0.65250 0.58707
 H511 H 0.18722 0.61501 0.74900
 H512 H 0.18431 0.56137 0.67386
 N513 N 0.86323 0.76567 0.19550
 N514 N 0.89108 0.76089 0.15616
 C515 C 0.87876 0.73701 0.11086
 C516 C 0.84103 0.72691 0.12139
 C517 C 0.83239 0.74565 0.17539
 H518 H 0.82209 0.70967 0.09244
 H519 H 0.86493 0.78391 0.23354
 H520 H 0.91729 0.77558 0.15871
 N521 N 0.39438 0.22028 0.71029
 N522 N 0.42201 0.21680 0.66996
 C523 C 0.41396 0.23549 0.61738
 C524 C 0.37903 0.25042 0.62424
 C525 C 0.36783 0.24038 0.68365
 H526 H 0.36331 0.26548 0.59014
 H527 H 0.39275 0.20713 0.75369
 H528 H 0.44479 0.20009 0.67746
 N529 N 0.13841 0.28245 0.20747
 N530 N 0.11052 0.28625 0.16764
 C531 C 0.11911 0.26966 0.11339
 C532 C 0.15470 0.25575 0.11886
 C533 C 0.16571 0.26430 0.17897
 H534 H 0.17077 0.24180 0.08391
 H535 H 0.13942 0.29378 0.25226
 H536 H 0.08699 0.30160 0.17695
 N537 N 0.60084 0.74374 0.70325
 N538 N 0.57275 0.74665 0.66368
 C539 C 0.58466 0.76850 0.61552
 C540 C 0.62245 0.77924 0.62460
 C541 C 0.63153 0.76293 0.68066
 H542 H 0.64126 0.79486 0.59322
 H543 H 0.59950 0.72692 0.74304
 H544 H 0.54676 0.73171 0.66797
   
