data_POSCAR
  _audit_creation_date              2014-09-24
  _audit_creation_method            'ToBaCCo'
  _symmetry_space_group_name_H-M    'P1'
  _symmetry_Int_Tables_number       1
  _symmetry_cell_setting            triclinic
  loop_
  _symmetry_equiv_pos_as_xyz
 x,y,z
_cell_length_a 38.8085
_cell_length_b 38.8085
_cell_length_c 38.7405
_cell_angle_alpha 89.985900
_cell_angle_beta 90.014100
_cell_angle_gamma 89.817500
loop_
  _atom_site_label
  _atom_site_type_symbol
  _atom_site_fract_x
  _atom_site_fract_y
  _atom_site_fract_z
C1 C 0.19638 0.15037 0.19697
 C2 C 0.18151 0.13589 0.22661
 C3 C 0.15205 0.15081 0.24137
 C4 C 0.13717 0.18025 0.22652
 C5 C 0.15171 0.19505 0.19689
 C6 C 0.18145 0.18009 0.18201
 C7 C 0.22603 0.13581 0.18215
 C8 C 0.24082 0.15065 0.15268
 C9 C 0.22600 0.18010 0.13778
 C10 C 0.19637 0.19497 0.15228
 C11 C 0.18150 0.22460 0.13773
 C12 C 0.15206 0.23941 0.15257
 C13 C 0.13719 0.22468 0.18199
 H14 H 0.19294 0.11313 0.23827
 H15 H 0.11441 0.19172 0.23810
 H16 H 0.23766 0.11305 0.19360
 H17 H 0.23761 0.19151 0.11502
 H18 H 0.19286 0.23626 0.11498
 H19 H 0.11444 0.23639 0.19332
 C20 C -0.19622 0.84980 0.19667
 C21 C -0.18139 0.86427 0.22633
 C22 C -0.15189 0.84939 0.24109
 C23 C -0.13695 0.82000 0.22621
 C24 C -0.15146 0.80522 0.19656
 C25 C -0.18123 0.82014 0.18169
 C26 C -0.22590 0.86432 0.18186
 C27 C -0.24067 0.84949 0.15238
 C28 C -0.22579 0.82009 0.13745
 C29 C -0.19612 0.80526 0.15194
 C30 C -0.18119 0.77569 0.13737
 C31 C -0.15172 0.76092 0.15221
 C32 C -0.13687 0.77565 0.18165
 H33 H -0.19287 0.88698 0.23801
 H34 H -0.11416 0.80856 0.23780
 H35 H -0.23759 0.88703 0.19333
 H36 H -0.23738 0.80869 0.11467
 H37 H -0.19253 0.76403 0.11461
 H38 H -0.11410 0.76396 0.19299
 C39 C -0.19771 0.15168 -0.19533
 C40 C -0.18283 0.13710 -0.22495
 C41 C -0.15342 0.15188 -0.23972
 C42 C -0.13860 0.18125 -0.22497
 C43 C -0.15313 0.19616 -0.19536
 C44 C -0.18284 0.18136 -0.18044
 C45 C -0.22732 0.13727 -0.18047
 C46 C -0.24213 0.15222 -0.15103
 C47 C -0.22736 0.18163 -0.13618
 C48 C -0.19776 0.19635 -0.15072
 C49 C -0.18293 0.22594 -0.13624
 C50 C -0.15352 0.24058 -0.15114
 C51 C -0.13865 0.22573 -0.18055
 H52 H -0.19415 0.11440 -0.23663
 H53 H -0.11587 0.19252 -0.23665
 H54 H -0.23891 0.11455 -0.19188
 H55 H -0.23898 0.19311 -0.11343
 H56 H -0.19428 0.23769 -0.11351
 H57 H -0.11592 0.23732 -0.19192
 C58 C 0.19654 0.84832 -0.19699
 C59 C 0.18164 0.86290 -0.22661
 C60 C 0.15223 0.84809 -0.24141
 C61 C 0.13745 0.81866 -0.22663
 C62 C 0.15203 0.80377 -0.19701
 C63 C 0.18172 0.81861 -0.18209
 C64 C 0.22613 0.86276 -0.18212
 C65 C 0.24095 0.84783 -0.15270
 C66 C 0.22627 0.81842 -0.13785
 C67 C 0.19669 0.80364 -0.15238
 C68 C 0.18192 0.77403 -0.13788
 C69 C 0.15253 0.75934 -0.15276
 C70 C 0.13761 0.77416 -0.18217
 H71 H 0.19300 0.88564 -0.23822
 H72 H 0.11472 0.80728 -0.23825
 H73 H 0.23774 0.88549 -0.19346
 H74 H 0.23798 0.80702 -0.11511
 H75 H 0.19332 0.76231 -0.11514
 H76 H 0.11490 0.76254 -0.19353
 C77 C 0.15037 1.19638 0.80304
 C78 C 0.13589 1.18151 0.77340
 C79 C 0.15081 1.15204 0.75864
 C80 C 0.18025 1.13717 0.77349
 C81 C 0.19505 1.15171 0.80312
 C82 C 0.18009 1.18145 0.81800
 C83 C 0.13581 1.22602 0.81786
 C84 C 0.15065 1.24082 0.84733
 C85 C 0.18010 1.22600 0.86223
 C86 C 0.19497 1.19636 0.84773
 C87 C 0.22460 1.18150 0.86228
 C88 C 0.23941 1.15206 0.84744
 C89 C 0.22468 1.13719 0.81802
 H90 H 0.11313 1.19294 0.76174
 H91 H 0.19172 1.11440 0.76191
 H92 H 0.11305 1.23766 0.80641
 H93 H 0.19151 1.23761 0.88499
 H94 H 0.23626 1.19286 0.88503
 H95 H 0.23640 1.11444 0.80669
 C96 C 0.84980 0.80378 0.80334
 C97 C 0.86427 0.81861 0.77368
 C98 C 0.84939 0.84811 0.75892
 C99 C 0.82000 0.86304 0.77379
 C100 C 0.80522 0.84854 0.80345
 C101 C 0.82014 0.81877 0.81832
 C102 C 0.86432 0.77410 0.81815
 C103 C 0.84949 0.75933 0.84763
 C104 C 0.82010 0.77421 0.86256
 C105 C 0.80527 0.80388 0.84807
 C106 C 0.77569 0.81881 0.86264
 C107 C 0.76092 0.84828 0.84780
 C108 C 0.77565 0.86313 0.81836
 H109 H 0.88698 0.80713 0.76199
 H110 H 0.80856 0.88583 0.76221
 H111 H 0.88703 0.76241 0.80667
 H112 H 0.80869 0.76262 0.88534
 H113 H 0.76403 0.80747 0.88540
 H114 H 0.76396 0.88590 0.80702
 C115 C 0.15168 0.80228 1.19534
 C116 C 0.13711 0.81716 1.22496
 C117 C 0.15188 0.84657 1.23973
 C118 C 0.18125 0.86140 1.22498
 C119 C 0.19616 0.84686 1.19537
 C120 C 0.18136 0.81716 1.18045
 C121 C 0.13727 0.77268 1.18048
 C122 C 0.15222 0.75787 1.15103
 C123 C 0.18163 0.77264 1.13619
 C124 C 0.19636 0.80224 1.15073
 C125 C 0.22594 0.81707 1.13625
 C126 C 0.24058 0.84648 1.15115
 C127 C 0.22573 0.86135 1.18056
 H128 H 0.11440 0.80585 1.23664
 H129 H 0.19253 0.88412 1.23666
 H130 H 0.11455 0.76109 1.19189
 H131 H 0.19311 0.76101 1.11344
 H132 H 0.23769 0.80571 1.11352
 H133 H 0.23732 0.88408 1.19193
 C134 C 0.84832 1.19654 1.19700
 C135 C 0.86290 1.18164 1.22662
 C136 C 0.84809 1.15223 1.24142
 C137 C 0.81866 1.13745 1.22664
 C138 C 0.80377 1.15203 1.19702
 C139 C 0.81861 1.18172 1.18210
 C140 C 0.86276 1.22613 1.18213
 C141 C 0.84783 1.24094 1.15271
 C142 C 0.81842 1.22627 1.13786
 C143 C 0.80364 1.19668 1.15239
 C144 C 0.77403 1.18192 1.13789
 C145 C 0.75934 1.15253 1.15277
 C146 C 0.77416 1.13761 1.18218
 H147 H 0.88564 1.19300 1.23823
 H148 H 0.80728 1.11472 1.23825
 H149 H 0.88549 1.23774 1.19347
 H150 H 0.80702 1.23798 1.11512
 H151 H 0.76231 1.19331 1.11515
 H152 H 0.76254 1.11489 1.19354
 N153 N 0.53596 1.06140 0.96332
 N154 N 0.56255 1.08221 0.95962
 N155 N 0.46363 1.03721 0.93916
 N156 N 0.43693 1.04094 0.91836
 N157 N 0.46340 1.06107 0.96317
 N158 N 0.43654 1.08167 0.95936
 N159 N 0.53617 1.03753 0.93932
 N160 N 0.56290 1.04145 0.91865
 C161 C 0.57910 1.06949 0.93157
 C162 C 0.42029 1.06885 0.93123
 N163 N 0.46435 0.93906 0.96291
 N164 N 0.43777 0.91829 0.95905
 N165 N 0.53676 0.96337 0.93916
 N166 N 0.56353 0.95970 0.91845
 N167 N 0.53689 0.93940 0.96308
 N168 N 0.56374 0.91879 0.95930
 N169 N 0.46421 0.96304 0.93900
 N170 N 0.43753 0.95923 0.91824
 Mn171 Mn 0.50019 1.00029 0.93872
 C172 C 0.42129 0.93114 0.93101
 C173 C 0.58010 0.93172 0.93129
 N174 N 0.46323 1.06089 1.03748
 N175 N 0.43638 1.08149 1.04133
 N176 N 0.53593 1.03726 1.06154
 N177 N 0.56263 1.04106 1.08228
 N178 N 0.53578 1.06123 1.03763
 N179 N 0.56238 1.08199 1.04145
 N180 N 0.46338 1.03690 1.06138
 N181 N 0.43665 1.04054 1.08213
 Mn182 Mn 0.49959 1.06159 1.00040
 C183 C 0.42005 1.06853 1.06936
 C184 C 0.57887 1.06915 1.06949
 N185 N 0.53677 0.93923 1.03737
 N186 N 0.56365 0.91866 1.04119
 N187 N 0.46397 0.96273 1.06121
 N188 N 0.43719 0.95878 1.08182
 N189 N 0.46423 0.93888 1.03719
 N190 N 0.43766 0.91806 1.04081
 N191 N 0.53652 0.96309 1.06139
 N192 N 0.56322 0.95940 1.08218
 Mn193 Mn 0.50057 0.93871 1.00014
 Mn194 Mn 0.49995 0.99999 1.06182
 Cl195 Cl 0.50007 1.00015 1.00027
 C196 C 0.57989 0.93150 1.06932
 C197 C 0.42104 0.93073 1.06883
 N198 N 0.03721 0.46363 0.06085
 N199 N 0.04094 0.43693 0.08165
 N200 N 0.06140 0.53595 0.03669
 N201 N 0.08221 0.56254 0.04039
 N202 N 0.03753 0.53617 0.06069
 N203 N 0.04145 0.56290 0.08136
 N204 N 0.06107 0.46340 0.03684
 N205 N 0.08167 0.43654 0.04065
 C206 C 0.06885 0.42029 0.06878
 C207 C 0.06949 0.57910 0.06844
 N208 N 0.03726 0.53593 -0.06153
 N209 N 0.04107 0.56263 -0.08227
 N210 N 0.06089 0.46323 -0.03747
 N211 N 0.08150 0.43638 -0.04132
 N212 N 0.03690 0.46338 -0.06137
 N213 N 0.04054 0.43665 -0.08212
 N214 N 0.06123 0.53578 -0.03762
 N215 N 0.08199 0.56238 -0.04144
 Mn216 Mn 0.06159 0.49959 -0.00039
 C217 C 0.06915 0.57886 -0.06948
 C218 C 0.06853 0.42005 -0.06935
 N219 N -0.03663 0.53676 0.06084
 N220 N -0.04030 0.56352 0.08156
 N221 N -0.06094 0.46435 0.03710
 N222 N -0.08171 0.43776 0.04096
 N223 N -0.03696 0.46421 0.06100
 N224 N -0.04077 0.43753 0.08177
 N225 N -0.06059 0.53689 0.03693
 N226 N -0.08121 0.56373 0.04071
 Mn227 Mn 0.00029 0.50019 0.06129
 C228 C -0.06828 0.58009 0.06872
 C229 C -0.06886 0.42129 0.06900
 N230 N -0.03727 0.46396 -0.06120
 N231 N -0.04122 0.43719 -0.08181
 N232 N -0.06077 0.53677 -0.03737
 N233 N -0.08134 0.56365 -0.04118
 N234 N -0.03691 0.53652 -0.06138
 N235 N -0.04060 0.56322 -0.08218
 N236 N -0.06112 0.46423 -0.03718
 N237 N -0.08194 0.43766 -0.04080
 Mn238 Mn -0.00000 0.49994 -0.06181
 Mn239 Mn -0.06129 0.50057 -0.00013
 Cl240 Cl 0.00015 0.50007 -0.00026
 C241 C -0.06927 0.42104 -0.06882
 C242 C -0.06849 0.57989 -0.06931
 N243 N 1.06086 0.03688 0.46368
 N244 N 1.08160 0.04061 0.43696
 N245 N 1.03688 0.06086 0.53632
 N246 N 1.04061 0.08159 0.56305
 N247 N 1.06085 0.03691 0.53637
 N248 N 1.08154 0.04072 0.56314
 N249 N 1.03691 0.06085 0.46364
 N250 N 1.04072 0.08154 0.43687
 C251 C 1.06877 0.06864 0.42049
 C252 C 1.06864 0.06877 0.57952
 N253 N 0.93885 0.03705 0.53632
 N254 N 0.91811 0.04083 0.56305
 N255 N 0.96273 0.06096 0.46366
 N256 N 0.95890 0.08170 0.43692
 N257 N 0.93884 0.03709 0.46365
 N258 N 0.91811 0.04095 0.43690
 N259 N 0.96271 0.06095 0.53634
 N260 N 0.95884 0.08164 0.56311
 Mn261 Mn 0.99981 0.06134 0.49999
 C262 C 0.93084 0.06881 0.57951
 C263 C 0.93090 0.06895 0.42048
 N264 N 1.06096 -0.03728 0.53635
 N265 N 1.08170 -0.04110 0.56309
 N266 N 1.03705 -0.06115 0.46369
 N267 N 1.04083 -0.08189 0.43696
 N268 N 1.06096 -0.03730 0.46367
 N269 N 1.08165 -0.04116 0.43690
 N270 N 1.03709 -0.06116 0.53635
 N271 N 1.04095 -0.08189 0.56311
 Mn272 Mn 1.06135 -0.00020 0.50002
 C273 C 1.06895 -0.06910 0.57953
 C274 C 1.06882 -0.06916 0.42050
 N275 N 0.93895 -0.03706 0.46368
 N276 N 0.91824 -0.04076 0.43693
 N277 N 0.96294 -0.06105 0.53633
 N278 N 0.95925 -0.08177 0.56308
 N279 N 0.93898 -0.03711 0.53636
 N280 N 0.91832 -0.04089 0.56315
 N281 N 0.96289 -0.06103 0.46365
 N282 N 0.95911 -0.08168 0.43686
 Mn283 Mn 0.93847 -0.00001 0.50000
 Mn284 Mn 1.00000 -0.06153 0.50001
 Cl285 Cl 0.99991 -0.00010 0.50001
 C286 C 0.93107 -0.06876 0.42045
 C287 C 0.93124 -0.06893 0.57956
 C288 C 1.11116 0.11045 0.32726
 C289 C 1.12620 0.08140 0.34256
 C290 C 1.11235 0.06772 0.37291
 C291 C 1.13804 0.13691 0.27044
 C292 C 1.06822 0.11208 0.37270
 C293 C 1.08211 0.12572 0.34235
 C294 C 1.12572 0.12478 0.29628
 C295 C 1.08328 0.08299 0.38832
 H296 H 1.14868 0.06938 0.33109
 H297 H 1.12443 0.04525 0.38433
 H298 H 1.04577 0.12431 0.38397
 H299 H 1.07027 0.14822 0.33071
 C300 C 0.88885 -0.11039 0.32709
 C301 C 0.91787 -0.12568 0.34221
 C302 C 0.93171 -0.11210 0.37261
 C303 C 0.86206 -0.13675 0.27019
 C304 C 0.88757 -0.06775 0.37279
 C305 C 0.87377 -0.08137 0.34240
 C306 C 0.87434 -0.12465 0.29606
 C307 C 0.91662 -0.08305 0.38824
 H308 H 0.92974 -0.14815 0.33056
 H309 H 0.95415 -0.12435 0.38390
 H310 H 0.87547 -0.04530 0.38422
 H311 H 0.85131 -0.06933 0.33090
 C312 C 0.88834 0.11063 0.67276
 C313 C 0.91731 0.12585 0.65767
 C314 C 0.93125 0.11220 0.62730
 C315 C 0.86138 0.13712 0.72958
 C316 C 0.88730 0.06794 0.62710
 C317 C 0.87341 0.08162 0.65746
 C318 C 0.87373 0.12496 0.70374
 C319 C 0.91630 0.08317 0.61169
 H320 H 0.92907 0.14831 0.66931
 H321 H 0.95365 0.12440 0.61603
 H322 H 0.87531 0.04551 0.61568
 H323 H 0.85098 0.06964 0.66893
 C324 C 1.11132 -0.11122 0.67274
 C325 C 1.08232 -0.12633 0.65760
 C326 C 1.06843 -0.11257 0.62725
 C327 C 1.13820 -0.13791 0.72954
 C328 C 1.11250 -0.06843 0.62716
 C329 C 1.12634 -0.08222 0.65750
 C330 C 1.12588 -0.12567 0.70371
 C331 C 1.08346 -0.08355 0.61169
 H332 H 1.07050 -0.14878 0.66919
 H333 H 1.04600 -0.12469 0.61594
 H334 H 1.12455 -0.04600 0.61578
 H335 H 1.14880 -0.07033 0.66902
 C336 C 0.32675 1.11020 1.11182
 C337 C 0.34213 1.08117 1.12683
 C338 C 0.37250 1.06752 1.11296
 C339 C 0.26990 1.13669 1.13872
 C340 C 0.37215 1.11187 1.06887
 C341 C 0.34178 1.12547 1.08279
 C342 C 0.29575 1.12452 1.12641
 C343 C 0.38785 1.08281 1.08389
 H344 H 0.33071 1.06914 1.14931
 H345 H 0.38398 1.04507 1.12501
 H346 H 0.38337 1.12411 1.04642
 H347 H 0.33008 1.14795 1.07097
 C348 C 0.32831 0.88908 0.88879
 C349 C 0.34337 0.91814 0.87370
 C350 C 0.37365 0.93190 0.88748
 C351 C 0.27160 0.86251 0.86207
 C352 C 0.37386 0.88760 0.93162
 C353 C 0.34358 0.87388 0.91780
 C354 C 0.29739 0.87468 0.87432
 C355 C 0.38923 0.91670 0.91652
 H356 H 0.33176 0.93010 0.85124
 H357 H 0.38488 0.95438 0.87538
 H358 H 0.38525 0.87543 0.95406
 H359 H 0.33213 0.85138 0.92968
 C360 C 0.67329 0.88986 1.11166
 C361 C 0.65830 0.87470 1.08253
 C362 C 0.62789 0.88830 1.06867
 C363 C 0.73021 0.86340 1.13844
 C364 C 0.62741 0.93240 1.11298
 C365 C 0.65782 0.91876 1.12681
 C366 C 0.70432 0.87555 1.12618
 C367 C 0.61211 0.91723 1.08383
 H368 H 0.67007 0.85232 1.07061
 H369 H 0.61672 0.87614 1.04615
 H370 H 0.61586 0.95475 1.12513
 H371 H 0.66921 0.93070 1.14935
 C372 C 0.67211 1.11174 0.88962
 C373 C 0.65708 1.08272 0.87444
 C374 C 0.62680 1.06890 0.88814
 C375 C 0.72884 1.13836 0.86296
 C376 C 0.62652 1.11306 0.93240
 C377 C 0.65681 1.12684 0.91865
 C378 C 0.70304 1.12618 0.87520
 C379 C 0.61118 1.08400 0.91720
 H380 H 0.66872 1.07082 0.85196
 H381 H 0.61560 1.04645 0.87596
 H382 H 0.61509 1.12516 0.95485
 H383 H 0.66824 1.14931 0.93060
 C384 C 0.11072 0.32698 0.11104
 C385 C 0.08180 0.34237 0.12622
 C386 C 0.06808 0.37275 0.11242
 C387 C 0.13732 0.27012 0.13779
 C388 C 0.11214 0.37238 0.06807
 C389 C 0.12582 0.34200 0.08191
 C390 C 0.12511 0.29597 0.12553
 C391 C 0.08319 0.38809 0.08326
 H392 H 0.06991 0.33095 0.14878
 H393 H 0.04571 0.38425 0.12460
 H394 H 0.12425 0.38359 0.04554
 H395 H 0.14821 0.33029 0.06995
 C396 C -0.11186 0.32797 -0.11022
 C397 C -0.12680 0.34343 -0.08119
 C398 C -0.11289 0.37374 -0.06764
 C399 C -0.13877 0.27123 -0.13648
 C400 C -0.06891 0.37318 -0.11208
 C401 C -0.08286 0.34287 -0.12559
 C402 C -0.12646 0.29704 -0.12442
 C403 C -0.08386 0.38894 -0.08303
 H404 H -0.14924 0.33211 -0.06909
 H405 H -0.12488 0.38528 -0.04519
 H406 H -0.04649 0.38429 -0.12440
 H407 H -0.07110 0.33111 -0.14807
 C408 C 0.11125 0.67191 -0.11148
 C409 C 0.08221 0.65689 -0.12663
 C410 C 0.06842 0.62658 -0.11293
 C411 C 0.13786 0.72867 -0.13804
 C412 C 0.11268 0.62628 -0.06874
 C413 C 0.12642 0.65658 -0.08249
 C414 C 0.12567 0.70285 -0.12586
 C415 C 0.08360 0.61095 -0.08390
 H416 H 0.07027 0.66855 -0.14908
 H417 H 0.04595 0.61538 -0.12507
 H418 H 0.12484 0.61484 -0.04631
 H419 H 0.14891 0.66800 -0.07056
 C420 C -0.11021 0.67343 0.11078
 C421 C -0.12536 0.65830 0.08173
 C422 C -0.11165 0.62791 0.06796
 C423 C -0.13692 0.73024 0.13745
 C424 C -0.06745 0.62776 0.11220
 C425 C -0.08120 0.65815 0.12594
 C426 C -0.12466 0.70441 0.12522
 C427 C -0.08262 0.61231 0.08314
 H428 H -0.14782 0.66992 0.06980
 H429 H -0.12381 0.61662 0.04550
 H430 H -0.04503 0.61634 0.12436
 H431 H -0.06928 0.66966 0.14843
 C432 C 1.11045 0.11116 0.67275
 C433 C 1.08140 0.12620 0.65745
 C434 C 1.06772 0.11235 0.62710
 C435 C 1.13691 0.13804 0.72957
 C436 C 1.11208 0.06822 0.62730
 C437 C 1.12572 0.08211 0.65766
 C438 C 1.12478 0.12572 0.70373
 C439 C 1.08300 0.08328 0.61169
 H440 H 1.06938 0.14868 0.66892
 H441 H 1.04525 0.12443 0.61568
 H442 H 1.12431 0.04576 0.61604
 H443 H 1.14822 0.07027 0.66930
 C444 C 0.88962 -0.11115 0.67292
 C445 C 0.87432 -0.08213 0.65780
 C446 C 0.88790 -0.06829 0.62739
 C447 C 0.86325 -0.13794 0.72982
 C448 C 0.93226 -0.11243 0.62722
 C449 C 0.91863 -0.12623 0.65761
 C450 C 0.87535 -0.12566 0.70394
 C451 C 0.91695 -0.08338 0.61177
 H452 H 0.85185 -0.07026 0.66944
 H453 H 0.87565 -0.04585 0.61610
 H454 H 0.95470 -0.12453 0.61579
 H455 H 0.93067 -0.14869 0.66911
 C456 C 1.11063 -0.11166 0.32725
 C457 C 1.08162 -0.12660 0.34255
 C458 C 1.06794 -0.11270 0.37291
 C459 C 1.13712 -0.13862 0.27043
 C460 C 1.11220 -0.06875 0.37271
 C461 C 1.12585 -0.08269 0.34234
 C462 C 1.12496 -0.12627 0.29627
 C463 C 1.08317 -0.08370 0.38832
 H464 H 1.06965 -0.14902 0.33108
 H465 H 1.04551 -0.12469 0.38433
 H466 H 1.12440 -0.04635 0.38398
 H467 H 1.14831 -0.07093 0.33070
 C468 C 0.88878 0.11132 0.32727
 C469 C 0.87367 0.08231 0.34241
 C470 C 0.88743 0.06843 0.37276
 C471 C 0.86209 0.13820 0.27047
 C472 C 0.93158 0.11249 0.37285
 C473 C 0.91778 0.12634 0.34251
 C474 C 0.87433 0.12588 0.29630
 C475 C 0.91646 0.08346 0.38832
 H476 H 0.85122 0.07049 0.33082
 H477 H 0.87531 0.04600 0.38407
 H478 H 0.95400 0.12454 0.38422
 H479 H 0.92967 0.14879 0.33099
 C480 C 0.11020 0.32675 -0.11182
 C481 C 0.12548 0.34178 -0.08278
 C482 C 0.11187 0.37215 -0.06886
 C483 C 0.13669 0.26990 -0.13871
 C484 C 0.06752 0.37250 -0.11295
 C485 C 0.08117 0.34213 -0.12682
 C486 C 0.12452 0.29575 -0.12640
 C487 C 0.08281 0.38785 -0.08389
 H488 H 0.14796 0.33008 -0.07096
 H489 H 0.12412 0.38337 -0.04641
 H490 H 0.04507 0.38398 -0.12500
 H491 H 0.06914 0.33070 -0.14930
 C492 C -0.11092 0.32831 0.11122
 C493 C -0.08186 0.34337 0.12631
 C494 C -0.06810 0.37365 0.11253
 C495 C -0.13749 0.27160 0.13794
 C496 C -0.11240 0.37386 0.06839
 C497 C -0.12612 0.34358 0.08221
 C498 C -0.12532 0.29739 0.12569
 C499 C -0.08330 0.38923 0.08348
 H500 H -0.06990 0.33176 0.14877
 H501 H -0.04562 0.38488 0.12463
 H502 H -0.12457 0.38525 0.04595
 H503 H -0.14862 0.33213 0.07033
 C504 C -0.11014 0.67329 -0.11165
 C505 C -0.08124 0.65782 -0.12680
 C506 C -0.06760 0.62741 -0.11297
 C507 C -0.13659 0.73021 -0.13843
 C508 C -0.11170 0.62789 -0.06866
 C509 C -0.12530 0.65830 -0.08252
 C510 C -0.12444 0.70432 -0.12617
 C511 C -0.08277 0.61211 -0.08382
 H512 H -0.06930 0.66921 -0.14934
 H513 H -0.04524 0.61586 -0.12513
 H514 H -0.12385 0.61672 -0.04614
 H515 H -0.14768 0.67007 -0.07060
 C516 C 0.11174 0.67211 0.11039
 C517 C 0.12684 0.65681 0.08136
 C518 C 0.11306 0.62652 0.06761
 C519 C 0.13836 0.72884 0.13705
 C520 C 0.06890 0.62680 0.11187
 C521 C 0.08272 0.65708 0.12557
 C522 C 0.12618 0.70304 0.12481
 C523 C 0.08400 0.61118 0.08281
 H524 H 0.14931 0.66824 0.06941
 H525 H 0.12516 0.61509 0.04516
 H526 H 0.04645 0.61560 0.12405
 H527 H 0.07083 0.66871 0.14805
 C528 C 0.32698 1.11072 0.88897
 C529 C 0.34200 1.12582 0.91810
 C530 C 0.37238 1.11214 0.93194
 C531 C 0.27012 1.13732 0.86222
 C532 C 0.37275 1.06807 0.88759
 C533 C 0.34237 1.08179 0.87379
 C534 C 0.29598 1.12511 0.87448
 C535 C 0.38809 1.08319 0.91674
 H536 H 0.33030 1.14821 0.93006
 H537 H 0.38359 1.12425 0.95447
 H538 H 0.38425 1.04571 0.87541
 H539 H 0.33095 1.06991 0.85123
 C540 C 0.32798 0.88814 1.11023
 C541 C 0.34287 0.91714 1.12560
 C542 C 0.37318 0.93109 1.11209
 C543 C 0.27124 0.86123 1.13649
 C544 C 0.37374 0.88711 1.06765
 C545 C 0.34343 0.87320 1.08120
 C546 C 0.29704 0.87354 1.12442
 C547 C 0.38894 0.91613 1.08304
 H548 H 0.33111 0.92890 1.14808
 H549 H 0.38429 0.95351 1.12441
 H550 H 0.38528 0.87512 1.04520
 H551 H 0.33211 0.85075 1.06910
 C552 C 0.67191 1.11125 1.11149
 C553 C 0.65689 1.08220 1.12664
 C554 C 0.62658 1.06842 1.11294
 C555 C 0.72867 1.13786 1.13805
 C556 C 0.62628 1.11268 1.06875
 C557 C 0.65658 1.12642 1.08249
 C558 C 0.70285 1.12567 1.12587
 C559 C 0.61095 1.08360 1.08391
 H560 H 0.66855 1.07027 1.14909
 H561 H 0.61538 1.04595 1.12508
 H562 H 0.61484 1.12484 1.04632
 H563 H 0.66800 1.14891 1.07057
 C564 C 0.67343 0.88979 0.88923
 C565 C 0.65815 0.91880 0.87407
 C566 C 0.62776 0.93255 0.88780
 C567 C 0.73025 0.86308 0.86256
 C568 C 0.62792 0.88835 0.93205
 C569 C 0.65830 0.87464 0.91828
 C570 C 0.70442 0.87534 0.87478
 C571 C 0.61231 0.91738 0.91687
 H572 H 0.66966 0.93071 0.85158
 H573 H 0.61635 0.95497 0.87565
 H574 H 0.61662 0.87619 0.95451
 H575 H 0.66992 0.85218 0.93021
   
