data_POSCAR
  _audit_creation_date              2014-09-24
  _audit_creation_method            'ToBaCCo'
  _symmetry_space_group_name_H-M    'P1'
  _symmetry_Int_Tables_number       1
  _symmetry_cell_setting            triclinic
  loop_
  _symmetry_equiv_pos_as_xyz
 x,y,z
_cell_length_a 32.3534
_cell_length_b 33.0405
_cell_length_c 34.0296
_cell_angle_alpha 88.567100
_cell_angle_beta 90.241900
_cell_angle_gamma 88.370800
loop_
  _atom_site_label
  _atom_site_type_symbol
  _atom_site_fract_x
  _atom_site_fract_y
  _atom_site_fract_z
C1 C 0.17718 1.23594 0.18921
 N2 N 0.21044 1.22309 0.16815
 C3 C 0.23327 1.18987 0.18008
 N4 N 0.22259 1.16933 0.21339
 C5 C 0.18945 1.18178 0.23488
 N6 N 0.16686 1.21508 0.22255
 C7 C 0.81490 0.77436 0.20199
 N8 N 0.78143 0.79282 0.18414
 C9 C 0.76498 0.82787 0.19804
 N10 N 0.78225 0.84445 0.23003
 C11 C 0.81571 0.82657 0.24823
 N12 N 0.83201 0.79153 0.23397
 C13 C 0.82316 1.23726 -0.20059
 N14 N 0.84303 1.22146 -0.23200
 C15 C 0.82881 1.18824 -0.24980
 N16 N 0.79415 1.17078 -0.23581
 C17 C 0.77381 1.18627 -0.20442
 N18 N 0.78858 1.21943 -0.18676
 C19 C 0.18674 0.75082 -0.16815
 N20 N 0.17094 0.76518 -0.20295
 C21 C 0.18831 0.79685 -0.22243
 N22 N 0.22196 0.81430 -0.20658
 C23 C 0.23828 0.79998 -0.17188
 N24 N 0.22045 0.76838 -0.15289
 C25 C 0.53411 1.08568 -0.03910
 H26 H 0.51224 1.09858 -0.01868
 C27 C 0.56167 1.11082 -0.05884
 H28 H 0.55975 1.14305 -0.05404
 C29 C 0.56331 1.02798 -0.06963
 H30 H 0.56424 0.99549 -0.07301
 C31 C 0.59134 1.05192 -0.08996
 H32 H 0.61368 1.03747 -0.10906
 N33 N 0.53560 1.04504 -0.04466
 C34 C 0.47216 1.02959 0.06037
 H35 H 0.49560 1.00847 0.07168
 C36 C 0.44456 1.04779 0.08641
 H37 H 0.44824 1.04124 0.11755
 C38 C 0.43885 1.06321 0.00617
 H39 H 0.43646 1.06843 -0.02529
 C40 C 0.41051 1.08204 0.03117
 H41 H 0.38641 1.10184 0.01864
 Zn42 Zn 0.50299 1.00915 -0.01478
 N43 N 0.46882 1.03744 0.02104
 C44 C 0.56840 0.99078 0.03641
 N45 N 0.54017 0.97344 0.01295
 C46 C 0.53972 0.93257 0.00899
 C47 C 0.56791 0.90738 0.02996
 C48 C 0.59690 0.96680 0.05802
 C49 C 0.46670 0.98560 -0.08717
 C50 C 0.43865 0.96471 -0.10996
 C51 C 0.41299 0.93308 -0.05047
 C52 C 0.44135 0.95458 -0.02892
 N53 N 0.46762 0.98004 -0.04742
 H54 H 0.56848 1.02340 0.03851
 H55 H 0.51755 0.91939 -0.01037
 H56 H 0.56639 0.87492 0.02706
 H57 H 0.61896 0.98130 0.07669
 H58 H 0.48740 1.00647 -0.10128
 H59 H 0.43893 0.96915 -0.14155
 H60 H 0.39222 0.91318 -0.03497
 H61 H 0.44233 0.95124 0.00279
 C62 C 0.41265 1.07386 0.07186
 C63 C 0.59135 1.09387 -0.08420
 C64 C 0.41107 0.93816 -0.09155
 C65 C 0.59699 0.92450 0.05498
 C66 C -0.05848 0.53676 1.07783
 H67 H -0.03666 0.51665 1.09324
 C68 C -0.08160 0.56541 1.09872
 H69 H -0.07771 0.56670 1.13029
 C70 C -0.08863 0.56092 1.01784
 H71 H -0.09027 0.55964 0.98614
 C72 C -0.11233 0.58985 1.03748
 H73 H -0.13174 0.61086 1.02031
 N74 N -0.06235 0.53519 1.03809
 C75 C 0.05093 0.47201 1.03272
 H76 H 0.06269 0.49400 1.01196
 C77 C 0.07851 0.44497 1.05199
 H78 H 0.11127 0.44763 1.04661
 C79 C -0.00592 0.44142 1.06407
 H80 H -0.03902 0.43968 1.06782
 C81 C 0.02061 0.41366 1.08393
 H82 H 0.00761 0.39071 1.10309
 Zn83 Zn -0.02810 0.50141 1.00736
 N84 N 0.00953 0.46955 1.03870
 C85 C 0.02419 0.56471 0.98983
 N86 N 0.00110 0.53609 0.97291
 C87 C -0.00184 0.53370 0.93315
 C88 C 0.01975 0.56031 0.90875
 C89 C 0.04642 0.59172 0.96661
 C90 C -0.10169 0.46395 0.98159
 C91 C -0.12373 0.43554 0.96079
 C92 C -0.05913 0.40983 0.93458
 C93 C -0.03840 0.43848 0.95598
 N94 N -0.05981 0.46504 0.97859
 H95 H 0.02544 0.56635 1.02152
 H96 H -0.02101 0.51130 0.92022
 H97 H 0.01760 0.55730 0.87723
 H98 H 0.06468 0.61421 0.98073
 H99 H -0.11807 0.48486 1.00028
 H100 H -0.15707 0.43565 0.96309
 H101 H -0.04138 0.38895 0.91682
 H102 H -0.00504 0.43959 0.95467
 C103 C 0.06340 0.41453 1.07721
 C104 C -0.10890 0.59256 1.07852
 C105 C -0.10236 0.40788 0.93695
 C106 C 0.04429 0.58988 0.92548
 C107 C 1.09873 -0.03478 0.53803
 H108 H 1.11260 -0.01397 0.51730
 C109 C 1.12345 -0.05515 0.56646
 H110 H 1.15639 -0.05045 0.56650
 C111 C 1.03887 -0.06564 0.56329
 H112 H 1.00569 -0.06887 0.56231
 C113 C 1.06229 -0.08660 0.59204
 H114 H 1.04672 -0.10603 0.61299
 N115 N 1.05722 -0.04022 0.53717
 C116 C 1.04185 0.06764 0.47218
 H117 H 1.02042 0.07951 0.49353
 C118 C 1.05947 0.09407 0.44478
 H119 H 1.05224 0.12613 0.44650
 C120 C 1.07651 0.01148 0.44386
 H121 H 1.08218 -0.02093 0.44321
 C122 C 1.09470 0.03680 0.41580
 H123 H 1.11452 0.02352 0.39373
 Zn124 Zn 1.02121 -0.00968 0.50334
 N125 N 1.05027 0.02713 0.47101
 C126 C 1.00028 0.04275 0.56328
 N127 N 0.98367 0.01854 0.53603
 C128 C 0.94217 0.01324 0.53403
 C129 C 0.91557 0.03312 0.55997
 C130 C 0.97489 0.06328 0.58963
 C131 C 0.99867 -0.08460 0.47005
 C132 C 0.97816 -0.10832 0.44308
 C133 C 0.94591 -0.04731 0.41506
 C134 C 0.96702 -0.02486 0.44242
 N135 N 0.99259 -0.04367 0.46933
 H136 H 1.03345 0.04587 0.56464
 H137 H 0.92959 -0.00672 0.51266
 H138 H 0.88265 0.02890 0.55743
 H139 H 0.98887 0.08220 0.61124
 H140 H 1.01966 -0.09892 0.49127
 H141 H 0.98298 -0.14084 0.44466
 H142 H 0.92592 -0.03154 0.39377
 H143 H 0.96328 0.00780 0.44213
 C144 C 1.08547 0.07864 0.41537
 C145 C 1.10511 -0.08103 0.59443
 C146 C 0.95151 -0.08963 0.41488
 C147 C 0.93193 0.05836 0.58848
 C148 C 0.14080 0.32030 1.12620
 C149 C 0.10481 0.33318 1.14559
 N150 N 0.09396 0.31433 1.17976
 C151 C 0.11731 0.28291 1.19529
 C152 C 0.15318 0.26935 1.17554
 N153 N 0.16395 0.28880 1.14147
 N154 N 0.15155 0.33882 1.09191
 C155 C 0.12788 0.36967 1.07594
 C156 C 0.09144 0.38268 1.09504
 N157 N 0.08090 0.36382 1.12954
 H158 H 0.10754 0.26845 1.22246
 H159 H 0.13690 0.38286 1.04799
 C160 C -0.16869 0.68997 1.13654
 C161 C -0.13204 0.67196 1.15166
 N162 N -0.11437 0.68725 1.18414
 C163 C -0.13142 0.72011 1.20195
 C164 C -0.16771 0.73904 1.18625
 N165 N -0.18548 0.72300 1.15398
 N166 N -0.18648 0.67468 1.10418
 C167 C -0.16883 0.64262 1.08566
 C168 C -0.13118 0.62521 1.09981
 N169 N -0.11410 0.64019 1.13296
 H170 H -0.11626 0.73166 1.22760
 H171 H -0.18414 0.63106 1.06015
 C172 C -0.16099 0.31670 0.87306
 C173 C -0.12431 0.33386 0.85969
 N174 N -0.10631 0.32028 0.82643
 C175 C -0.12309 0.28994 0.80603
 C176 C -0.15950 0.27201 0.81962
 N177 N -0.17769 0.28611 0.85288
 N178 N -0.17870 0.33026 0.90654
 C179 C -0.16129 0.36009 0.92738
 C180 C -0.12412 0.37704 0.91432
 N181 N -0.10677 0.36329 0.88059
 H182 H -0.10772 0.27962 0.77977
 H183 H -0.17574 0.36947 0.95439
 C184 C 0.11101 0.67518 0.85761
 C185 C 0.12523 0.66160 0.89473
 N186 N 0.16028 0.67674 0.90979
 C187 C 0.18165 0.70526 0.88958
 C188 C 0.16710 0.71972 0.85254
 N189 N 0.13209 0.70390 0.83747
 N190 N 0.07578 0.66016 0.84271
 C191 C 0.05399 0.63221 0.86335
 C192 C 0.06788 0.61877 0.90088
 N193 N 0.10336 0.63401 0.91547
 H194 H 0.20930 0.71685 0.90272
 H195 H 0.02557 0.62161 0.85094
 C196 C 1.12966 0.15091 0.32042
 C197 C 1.15111 0.11544 0.33297
 N198 N 1.18556 0.10311 0.31349
 C199 C 1.19938 0.12449 0.28174
 C200 C 1.17755 0.15986 0.26853
 N201 N 1.14324 0.17217 0.28861
 N202 N 1.09494 0.16296 0.33957
 C203 C 1.08051 0.14106 0.37069
 C204 C 1.10169 0.10512 0.38335
 N205 N 1.13662 0.09338 0.36388
 H206 H 1.22683 0.11356 0.26681
 H207 H 1.05205 0.15109 0.38435
 C208 C 1.16897 -0.13717 0.69148
 C209 C 1.13323 -0.15378 0.67596
 N210 N 1.11726 -0.18714 0.69342
 C211 C 1.13512 -0.20449 0.72612
 C212 C 1.17061 -0.18749 0.74254
 N213 N 1.18678 -0.15426 0.72436
 N214 N 1.18450 -0.10344 0.67416
 C215 C 1.16566 -0.08533 0.64219
 C216 C 1.12925 -0.10150 0.62686
 N217 N 1.11425 -0.13558 0.64435
 H218 H 1.12123 -0.23092 0.73936
 H219 H 1.17828 -0.05784 0.62997
 C220 C 0.88909 -0.15332 0.32661
 C221 C 0.87321 -0.11644 0.34040
 N222 N 0.83807 -0.09980 0.32438
 C223 C 0.81816 -0.11815 0.29478
 C224 C 0.83427 -0.15493 0.28015
 N225 N 0.86939 -0.17168 0.29684
 N226 N 0.92456 -0.16959 0.34251
 C227 C 0.94500 -0.15052 0.37147
 C228 C 0.92939 -0.11317 0.38512
 N229 N 0.89367 -0.09731 0.36903
 H230 H 0.79034 -0.10372 0.28261
 H231 H 0.97369 -0.16391 0.38269
 C232 C 0.85862 0.11771 0.67396
 C233 C 0.89567 0.13406 0.66061
 N234 N 0.90919 0.16870 0.67616
 C235 C 0.88756 0.18762 0.70487
 C236 C 0.85065 0.17096 0.71907
 N237 N 0.83707 0.13638 0.70285
 N238 N 0.84537 0.08285 0.65855
 C239 C 0.86761 0.06345 0.63047
 C240 C 0.90515 0.07949 0.61726
 N241 N 0.91803 0.11460 0.63286
 H242 H 0.89954 0.21505 0.71675
 H243 H 0.85659 0.03522 0.61961
 C244 C 0.31962 1.12393 0.14531
 C245 C 0.33076 1.14372 0.11017
 N246 N 0.31071 1.17878 0.09891
 C247 C 0.27974 1.19481 0.12110
 C248 C 0.26809 1.17477 0.15616
 N249 N 0.28861 1.13977 0.16739
 N250 N 0.33931 1.08866 0.15635
 C251 C 0.36971 1.07217 0.13383
 C252 C 0.38104 1.09178 0.09835
 N253 N 0.36097 1.12721 0.08752
 H254 H 0.26415 1.22265 0.11119
 H255 H 0.38385 1.04347 0.14315
 C256 C 0.68656 1.16091 -0.13844
 C257 C 0.67206 1.12566 -0.15523
 N258 N 0.68996 1.11158 -0.18837
 C259 C 0.72209 1.13095 -0.20534
 C260 C 0.73732 1.16595 -0.18823
 N261 N 0.71886 1.18016 -0.15518
 N262 N 0.66889 1.17464 -0.10503
 C263 C 0.63751 1.15458 -0.08745
 C264 C 0.62315 1.11878 -0.10387
 N265 N 0.64101 1.10544 -0.13756
 H266 H 0.73589 1.11873 -0.23158
 H267 H 0.62509 1.16585 -0.06026
 C268 C 0.31934 0.87467 -0.15258
 C269 C 0.33618 0.85955 -0.11694
 N270 N 0.32193 0.82481 -0.10067
 C271 C 0.29119 0.80460 -0.11821
 C272 C 0.27357 0.81993 -0.15365
 N273 N 0.28838 0.85465 -0.17010
 N274 N 0.33345 0.90973 -0.16848
 C275 C 0.36351 0.93048 -0.15025
 C276 C 0.38017 0.91565 -0.11415
 N277 N 0.36587 0.88033 -0.09864
 H278 H 0.28034 0.77712 -0.10426
 H279 H 0.37319 0.95880 -0.16331
 C280 C 0.68594 0.85492 0.12157
 C281 C 0.67002 0.89197 0.13498
 N282 N 0.68408 0.90662 0.16926
 C283 C 0.71378 0.88609 0.19065
 C284 C 0.73052 0.84925 0.17702
 N285 N 0.71589 0.83448 0.14274
 N286 N 0.67195 0.84056 0.08708
 C287 C 0.64285 0.86166 0.06528
 C288 C 0.62714 0.89916 0.07840
 N289 N 0.64132 0.91317 0.11313
 H290 H 0.72460 0.89882 0.21769
 H291 H 0.63309 0.84972 0.03754
   
