data_POSCAR
  _audit_creation_date              2014-09-24
  _audit_creation_method            'ToBaCCo'
  _symmetry_space_group_name_H-M    'P1'
  _symmetry_Int_Tables_number       1
  _symmetry_cell_setting            triclinic
  loop_
  _symmetry_equiv_pos_as_xyz
 x,y,z
_cell_length_a 22.6367
_cell_length_b 22.6354
_cell_length_c 36.9449
_cell_angle_alpha 81.496600
_cell_angle_beta 98.259600
_cell_angle_gamma 86.306700
loop_
  _atom_site_label
  _atom_site_type_symbol
  _atom_site_fract_x
  _atom_site_fract_y
  _atom_site_fract_z
O1 O 0.02583 0.53800 1.04032
 O2 O 0.04253 0.43917 0.97109
 O3 O 0.04327 0.55482 0.97170
 O4 O 0.02521 0.42372 1.03980
 O5 O -0.07281 0.43506 1.02140
 O6 O -0.05468 0.56635 0.95322
 O7 O -0.05543 0.45053 0.95261
 O8 O -0.07220 0.54949 1.02192
 Cu9 Cu 0.04413 0.48780 1.00740
 Cu10 Cu -0.07364 0.50154 0.98523
 C11 C -0.02600 0.56020 1.04293
 C12 C -0.00367 0.42753 0.95048
 C13 C -0.00269 0.58324 0.95131
 C14 C -0.02684 0.40746 1.04224
 O15 O 0.55164 0.05466 0.45256
 O16 O 0.45245 0.07143 0.52192
 O17 O 0.56685 0.07197 0.52128
 O18 O 0.43584 0.05405 0.45328
 O19 O 0.44723 -0.04399 0.47193
 O20 O 0.57806 -0.02613 0.53985
 O21 O 0.46380 -0.02667 0.54049
 O22 O 0.56285 -0.04336 0.47120
 Cu23 Cu 0.50054 0.07290 0.48519
 Cu24 Cu 0.51410 -0.04497 0.50756
 C25 C 0.57460 0.00287 0.45049
 C26 C 0.44162 0.02519 0.54302
 C27 C 0.59433 0.02593 0.54218
 C28 C 0.41894 0.00206 0.45150
 C29 C -0.04895 -0.11566 0.22997
 C30 C -0.09875 -0.11263 0.25383
 C31 C -0.09751 -0.06480 0.27240
 C32 C -0.04676 -0.02444 0.26554
 C33 C -0.05605 -0.05485 0.20457
 C34 C -0.05482 -0.00723 0.22320
 C35 C 0.00962 -0.11528 0.25654
 C36 C 0.01068 -0.06743 0.27507
 H37 H -0.13227 -0.14478 0.25553
 H38 H -0.04596 0.01443 0.28076
 H39 H -0.05903 -0.04996 0.17463
 H40 H 0.04767 -0.14830 0.25924
 C41 C 0.11609 0.04813 0.72982
 C42 C 0.11549 -0.01042 0.75656
 C43 C 0.06747 -0.01140 0.77505
 C44 C 0.02455 0.04610 0.76532
 C45 C 0.05548 0.05522 0.70439
 C46 C 0.00770 0.05408 0.72298
 C47 C 0.11284 0.09803 0.75349
 C48 C 0.06485 0.09688 0.77202
 H49 H 0.14850 -0.04852 0.75940
 H50 H -0.01445 0.04537 0.78050
 H51 H 0.05084 0.05811 0.67447
 H52 H 0.14498 0.13155 0.75510
 C53 C -0.04166 -0.32935 0.11920
 N54 N 0.00453 -0.32811 0.14680
 N55 N 0.00143 -0.28922 0.17038
 C56 C -0.04802 -0.25051 0.16713
 N57 N -0.09428 -0.25186 0.13960
 N58 N -0.09118 -0.29076 0.11601
 C59 C -0.03696 -0.36898 0.09266
 C60 C -0.03231 -0.40156 0.07003
 C61 C -0.04943 -0.20554 0.19061
 C62 C -0.04972 -0.16601 0.20915
 C63 C -0.04397 0.26122 0.11742
 N64 N -0.09507 0.23293 0.11501
 N65 N -0.09875 0.18256 0.13803
 C66 C -0.05151 0.15908 0.16422
 N67 N -0.00048 0.18748 0.16670
 N68 N 0.00320 0.23785 0.14368
 C69 C -0.03875 0.31344 0.09130
 C70 C -0.03367 0.35662 0.06898
 C71 C -0.05366 0.10220 0.18673
 C72 C -0.05465 0.05305 0.20424
 C73 C 0.33071 0.04078 0.61926
 N74 N 0.29235 0.09048 0.61609
 N75 N 0.25327 0.09355 0.63964
 C76 C 0.25148 0.04710 0.66712
 N77 N 0.28995 -0.00253 0.67035
 N78 N 0.32904 -0.00560 0.64680
 C79 C 0.37052 0.03612 0.59274
 C80 C 0.40324 0.03149 0.57012
 C81 C 0.20631 0.04851 0.69055
 C82 C 0.16661 0.04884 0.70904
 C83 C -0.25989 0.04299 0.61722
 N84 N -0.23173 0.09420 0.61475
 N85 N -0.18154 0.09792 0.63776
 C86 C -0.15812 0.05061 0.66399
 N87 N -0.18639 -0.00054 0.66653
 N88 N -0.23657 -0.00426 0.64353
 C89 C -0.31193 0.03776 0.59114
 C90 C -0.35497 0.03270 0.56886
 C91 C -0.10143 0.05281 0.68650
 C92 C -0.05242 0.05385 0.70400
 C93 C 0.01814 -0.26680 0.88386
 N94 N 0.00050 -0.21282 0.89244
 N95 N 0.00919 -0.16218 0.87116
 C96 C 0.03584 -0.16400 0.84069
 N97 N 0.05343 -0.21799 0.83210
 N98 N 0.04475 -0.26862 0.85337
 C99 C 0.01011 -0.32124 0.90734
 C100 C 0.00387 -0.36652 0.92765
 C101 C 0.04613 -0.10957 0.81802
 C102 C 0.05547 -0.06442 0.79870
 C103 C 0.01605 0.30702 0.88035
 N104 N -0.00937 0.25437 0.88549
 N105 N -0.00102 0.21311 0.86401
 C106 C 0.03306 0.22323 0.83676
 N107 N 0.05843 0.27591 0.83159
 N108 N 0.05008 0.31717 0.85307
 C109 C 0.00852 0.35062 0.90425
 C110 C 0.00271 0.38637 0.92495
 C111 C 0.04321 0.17836 0.81410
 C112 C 0.05258 0.14096 0.79503
 C113 C -0.30725 -0.01644 0.38141
 N114 N -0.31716 -0.05100 0.35450
 N115 N -0.27599 -0.05930 0.33289
 C116 C -0.22362 -0.03337 0.33756
 N117 N -0.21372 0.00123 0.36445
 N118 N -0.25490 0.00954 0.38606
 C119 C -0.35075 -0.00895 0.40546
 C120 C -0.38642 -0.00317 0.42628
 C121 C -0.17884 -0.04342 0.31475
 C122 C -0.14151 -0.05269 0.29555
 C123 C 0.26620 -0.01890 0.38312
 N124 N 0.21232 -0.00024 0.39147
 N125 N 0.16166 -0.00880 0.37035
 C126 C 0.16336 -0.03634 0.34027
 N127 N 0.21724 -0.05495 0.33191
 N128 N 0.26788 -0.04639 0.35303
 C129 C 0.32064 -0.01097 0.40643
 C130 C 0.36591 -0.00479 0.42659
 C131 C 0.10890 -0.04644 0.31777
 C132 C 0.06373 -0.05562 0.29858
   
