data_POSCAR
  _audit_creation_date              2014-09-24
  _audit_creation_method            'ToBaCCo'
  _symmetry_space_group_name_H-M    'P1'
  _symmetry_Int_Tables_number       1
  _symmetry_cell_setting            triclinic
  loop_
  _symmetry_equiv_pos_as_xyz
 x,y,z
_cell_length_a 34.1217
_cell_length_b 33.6168
_cell_length_c 34.3622
_cell_angle_alpha 89.804100
_cell_angle_beta 89.559700
_cell_angle_gamma 90.249500
loop_
  _atom_site_label
  _atom_site_type_symbol
  _atom_site_fract_x
  _atom_site_fract_y
  _atom_site_fract_z
N1 N 0.57849 0.68490 0.61914
 N2 N 0.56660 0.67141 0.65321
 C3 C 0.54246 0.69823 0.66963
 C4 C 0.53847 0.72977 0.64413
 C5 C 0.56170 0.72036 0.61229
 H6 H 0.52805 0.69467 0.69758
 H7 H 0.56640 0.73802 0.58628
 Cu8 Cu 0.58140 0.61874 0.67121
 Cu9 Cu 0.61464 0.65502 0.58638
 Cu10 Cu 0.66620 0.58268 0.63696
 N11 N 0.60275 0.56912 0.69069
 N12 N 0.63691 0.55603 0.67843
 C13 C 0.64620 0.52288 0.69834
 C14 C 0.61568 0.51437 0.72399
 C15 C 0.58859 0.54421 0.71819
 H16 H 0.67270 0.50596 0.69368
 H17 H 0.56098 0.54787 0.73342
 N18 N 0.68258 0.60315 0.58548
 N19 N 0.66307 0.63074 0.56635
 C20 C 0.68128 0.63793 0.53213
 C21 C 0.71342 0.61314 0.52943
 C22 C 0.71321 0.59133 0.56352
 H23 H 0.67131 0.65883 0.51041
 H24 H 0.73368 0.56829 0.57155
 H25 H 0.61470 0.59775 0.61158
 H26 H 0.64074 0.63935 0.63646
 N27 N 0.91871 0.31168 0.12093
 N28 N 0.93101 0.32590 0.15429
 C29 C 0.95783 0.30098 0.16922
 C30 C 0.96310 0.26988 0.14356
 C31 C 0.93780 0.27761 0.11310
 H32 H 0.97305 0.30539 0.19637
 H33 H 0.93301 0.25962 0.08755
 Cu34 Cu 0.91232 0.37653 0.17422
 Cu35 Cu 0.87783 0.33757 0.09099
 Cu36 Cu 0.84380 0.42795 0.12538
 N37 N 0.89472 0.42858 0.19145
 N38 N 0.86681 0.44779 0.17321
 C39 C 0.85990 0.48240 0.19160
 C40 C 0.88525 0.48515 0.22268
 C41 C 0.90710 0.45073 0.22159
 H42 H 0.83903 0.50453 0.18228
 H43 H 0.93030 0.44259 0.24130
 N44 N 0.82419 0.40306 0.07748
 N45 N 0.83648 0.36819 0.06485
 C46 C 0.81713 0.35895 0.03204
 C47 C 0.79182 0.38971 0.02350
 C48 C 0.79720 0.41722 0.05266
 H49 H 0.82171 0.33230 0.01511
 H50 H 0.78234 0.44541 0.05554
 H51 H 0.89191 0.39464 0.10869
 H52 H 0.85245 0.36817 0.13665
 N53 N 0.42052 0.18611 -0.09840
 N54 N 0.43948 0.16583 -0.12519
 C55 C 0.47584 0.18103 -0.12940
 C56 C 0.47984 0.21225 -0.10356
 C57 C 0.44431 0.21454 -0.08424
 H58 H 0.49780 0.17012 -0.14951
 H59 H 0.43605 0.23588 -0.06219
 Cu60 Cu 0.41459 0.12178 -0.15210
 Cu61 Cu 0.36552 0.17609 -0.08626
 Cu62 Cu 0.33076 0.08422 -0.11611
 N63 N 0.38473 0.08204 -0.18047
 N64 N 0.35142 0.06797 -0.16657
 C65 C 0.33672 0.04127 -0.19170
 C66 C 0.36237 0.03822 -0.22281
 C67 C 0.39258 0.06450 -0.21481
 H68 H 0.30960 0.02498 -0.18745
 H69 H 0.41801 0.07076 -0.23283
 N70 N 0.30465 0.11615 -0.07580
 N71 N 0.31664 0.15212 -0.06606
 C72 C 0.29135 0.16739 -0.03988
 C73 C 0.26237 0.13953 -0.03255
 C74 C 0.27163 0.10735 -0.05581
 H75 H 0.29405 0.19643 -0.02669
 H76 H 0.25502 0.08009 -0.05887
 H77 H 0.37678 0.11732 -0.09141
 H78 H 0.34813 0.13935 -0.13214
 N79 N 0.07425 0.81755 0.40663
 N80 N 0.06139 0.83116 0.37319
 C81 C 0.02697 0.81335 0.36504
 C82 C 0.01768 0.78756 0.39535
 C83 C 0.04818 0.79122 0.42128
 H84 H 0.00980 0.81922 0.33937
 H85 H 0.05153 0.77522 0.44841
 Cu86 Cu 0.09029 0.87174 0.34417
 Cu87 Cu 0.12479 0.83320 0.42761
 Cu88 Cu 0.17667 0.90604 0.37733
 N89 N 0.11896 0.91402 0.31739
 N90 N 0.15316 0.92652 0.32994
 C91 C 0.16735 0.95435 0.30529
 C92 C 0.14037 0.96005 0.27613
 C93 C 0.10994 0.93402 0.28463
 H94 H 0.19519 0.96948 0.30834
 H95 H 0.08374 0.92938 0.26772
 N96 N 0.19560 0.88161 0.42583
 N97 N 0.17645 0.85286 0.44420
 C98 C 0.19807 0.84034 0.47447
 C99 C 0.23196 0.86276 0.47559
 C100 C 0.22954 0.88868 0.44441
 H101 H 0.18995 0.81657 0.49425
 H102 H 0.25153 0.91004 0.43521
 H103 H 0.12436 0.88974 0.40369
 H104 H 0.15064 0.85045 0.37552
 C105 C 0.07198 0.12972 0.10473
 N106 N 0.06825 0.10471 0.13572
 C107 C 0.09459 0.07513 0.14131
 N108 N 0.12471 0.07051 0.11562
 C109 C 0.12868 0.09541 0.08466
 N110 N 0.10210 0.12486 0.07919
 C111 C 0.42609 0.86944 0.60477
 N112 N 0.43094 0.89520 0.63478
 C113 C 0.40571 0.92590 0.63988
 N114 N 0.37568 0.93100 0.61459
 C115 C 0.37062 0.90535 0.58462
 N116 N 0.39596 0.87467 0.57975
 C117 C 0.87680 0.68139 0.35409
 N118 N 0.85139 0.68537 0.38448
 C119 C 0.82157 0.65896 0.38957
 N120 N 0.81699 0.62863 0.36392
 C121 C 0.84224 0.62449 0.33351
 N122 N 0.87203 0.65104 0.32860
 C123 C 0.62278 0.31996 -0.14447
 N124 N 0.64774 0.31621 -0.11405
 C125 C 0.67792 0.34224 -0.10973
 N126 N 0.68322 0.37202 -0.13615
 C127 C 0.65832 0.37602 -0.16651
 N128 N 0.62824 0.34980 -0.17066
 C129 C -0.01124 0.23804 0.14861
 C130 C -0.00334 0.21158 0.12066
 C131 C 0.02418 0.17882 0.12773
 C132 C 0.04357 0.16180 0.09832
 H133 H -0.01585 0.21468 0.09193
 H134 H 0.02977 0.16961 0.15745
 H135 H 0.00382 0.23563 0.17619
 H136 H 0.04005 0.17308 0.06896
 C137 C 0.51397 0.76517 0.65021
 C138 C 0.50092 0.78710 0.62057
 C139 C 0.47519 0.82142 0.62742
 C140 C 0.45313 0.83601 0.59880
 H141 H 0.50793 0.77879 0.59088
 H142 H 0.47324 0.83391 0.65642
 H143 H 0.50486 0.77215 0.67968
 H144 H 0.45358 0.82185 0.57050
 C145 C 0.98511 0.76260 0.39992
 C146 C 0.95924 0.75589 0.37159
 C147 C 0.92588 0.72873 0.37804
 C148 C 0.90927 0.70974 0.34829
 H149 H 0.96333 0.76891 0.34296
 H150 H 0.91594 0.72290 0.40757
 H151 H 0.98164 0.74695 0.42739
 H152 H 0.92122 0.71338 0.31917
 C153 C 0.51409 0.23817 -0.09757
 C154 C 0.53996 0.24570 -0.12603
 C155 C 0.57325 0.27282 -0.11977
 C156 C 0.59017 0.29181 -0.14972
 H157 H 0.53565 0.23317 -0.15472
 H158 H 0.58295 0.27848 -0.09032
 H159 H 0.51686 0.25310 -0.06981
 H160 H 0.57847 0.28819 -0.17875
 C161 C 0.14475 -0.01294 0.24258
 C162 C 0.11405 0.00003 0.22233
 C163 C 0.11961 0.02683 0.18878
 C164 C 0.08985 0.04814 0.17485
 H165 H 0.08456 -0.00842 0.23102
 H166 H 0.14859 0.02977 0.17589
 H167 H 0.17396 -0.00246 0.23514
 H168 H 0.06147 0.04676 0.18921
 C169 C 0.61166 0.48273 -0.24982
 C170 C 0.64075 0.45753 -0.24166
 C171 C 0.63442 0.42454 -0.21405
 C172 C 0.66429 0.40856 -0.19466
 H173 H 0.66970 0.46172 -0.25421
 H174 H 0.60475 0.41414 -0.20854
 H175 H 0.58382 0.47931 -0.23470
 H176 H 0.69350 0.42095 -0.19807
 C177 C 0.35742 1.01258 0.74295
 C178 C 0.38775 1.00085 0.72109
 C179 C 0.38174 0.97459 0.68748
 C180 C 0.41123 0.95323 0.67276
 H181 H 0.41732 1.00952 0.72876
 H182 H 0.35255 0.97168 0.67553
 H183 H 0.32821 1.00171 0.73658
 H184 H 0.43978 0.95438 0.68634
 C185 C 0.89021 0.51835 0.24998
 C186 C 0.86083 0.54282 0.25903
 C187 C 0.86684 0.57592 0.28625
 C188 C 0.83679 0.59157 0.30598
 H189 H 0.83188 0.53780 0.24717
 H190 H 0.89637 0.58679 0.29107
 H191 H 0.91832 0.52178 0.26408
 H192 H 0.80775 0.57875 0.30319
 C193 C 0.22848 0.14447 -0.00629
 C194 C 0.20847 0.11348 0.00819
 C195 C 0.17490 0.11951 0.03461
 C196 C 0.16165 0.09001 0.05737
 H197 H 0.21752 0.08340 0.00145
 H198 H 0.16166 0.14873 0.03628
 H199 H 0.22069 0.17439 0.00242
 H200 H 0.17646 0.06154 0.05722
 C201 C 0.74087 0.60862 0.49655
 C202 C 0.74863 0.63839 0.47182
 C203 C 0.77581 0.63284 0.43887
 C204 C 0.79425 0.66383 0.42248
 H205 H 0.73566 0.66740 0.47641
 H206 H 0.78160 0.60293 0.42864
 H207 H 0.75606 0.58054 0.49345
 H208 H 0.79056 0.69332 0.43460
 C209 C 0.76557 0.39387 -0.01004
 C210 C 0.75259 0.36252 -0.03003
 C211 C 0.72633 0.36783 -0.06340
 C212 C 0.70469 0.33763 -0.07665
 H213 H 0.76050 0.33266 -0.02116
 H214 H 0.72392 0.39707 -0.07658
 H215 H 0.75559 0.42345 -0.01760
 H216 H 0.70549 0.30908 -0.06192
 C217 C 0.26456 0.85760 0.50286
 C218 C 0.28905 0.88730 0.51153
 C219 C 0.32174 0.88091 0.53844
 C220 C 0.33797 0.91126 0.55755
 H221 H 0.28446 0.91675 0.49948
 H222 H 0.33193 0.85082 0.54348
 H223 H 0.26766 0.82899 0.51711
 H224 H 0.32593 0.94089 0.55455
   
