data_POSCAR
  _audit_creation_date              2014-09-24
  _audit_creation_method            'ToBaCCo'
  _symmetry_space_group_name_H-M    'P1'
  _symmetry_Int_Tables_number       1
  _symmetry_cell_setting            triclinic
  loop_
  _symmetry_equiv_pos_as_xyz
 x,y,z
_cell_length_a 36.8096
_cell_length_b 36.8790
_cell_length_c 16.0266
_cell_angle_alpha 89.678900
_cell_angle_beta 89.927600
_cell_angle_gamma 120.434400
loop_
  _atom_site_label
  _atom_site_type_symbol
  _atom_site_fract_x
  _atom_site_fract_y
  _atom_site_fract_z
C1 C 0.14170 0.47247 0.53747
 C2 C 0.13896 0.46959 0.45237
 C3 C 0.16867 0.45948 0.42564
 N4 N 0.19004 0.45695 0.49209
 C5 C 0.17351 0.46493 0.56036
 C6 C 0.17586 0.45295 0.34128
 C7 C 0.21142 0.45045 0.31651
 C8 C 0.21417 0.43181 0.24355
 C9 C 0.25419 0.43798 0.24011
 C10 C 0.27477 0.46020 0.31097
 N11 N 0.24841 0.46742 0.35763
 C12 C 0.31767 0.47573 0.32804
 C13 C 0.33550 0.49131 0.40734
 C14 C 0.37827 0.51591 0.42238
 C15 C 0.38261 0.52332 0.50646
 C16 C 0.34232 0.50243 0.54078
 N17 N 0.31350 0.48311 0.47971
 C18 C 0.33277 0.50068 0.62728
 C19 C 0.29103 0.48537 0.65678
 C20 C 0.27682 0.47020 0.73702
 C21 C 0.23538 0.45978 0.74133
 C22 C 0.22512 0.46841 0.66357
 N23 N 0.25908 0.48376 0.61213
 C24 C 0.18599 0.46452 0.64353
 H25 H 0.12320 0.48049 0.57765
 H26 H 0.11812 0.47558 0.41494
 H27 H 0.26160 0.49648 0.55281
 H28 H 0.18980 0.41534 0.19756
 H29 H 0.26675 0.42754 0.19074
 H30 H 0.40373 0.52807 0.37725
 H31 H 0.41220 0.54264 0.53804
 H32 H 0.21506 0.44708 0.79550
 H33 H 0.25654 0.48697 0.40924
 H34 H 0.29420 0.46632 0.78726
 C35 C 0.60651 -0.28268 0.45101
 C36 C 0.61220 -0.28195 0.53578
 C37 C 0.58546 -0.27010 0.57097
 N38 N 0.56391 -0.26316 0.51037
 C39 C 0.57589 -0.27190 0.43684
 C40 C 0.57798 -0.26899 0.65757
 C41 C 0.56343 -0.24200 0.68490
 C42 C 0.53908 -0.24738 0.75531
 C43 C 0.53214 -0.21409 0.75710
 C44 C 0.55223 -0.18933 0.68766
 N45 N 0.57098 -0.20665 0.64388
 C46 C 0.55327 -0.15174 0.66520
 C47 C 0.56272 -0.13582 0.58324
 C48 C 0.57347 -0.09533 0.55939
 C49 C 0.56683 -0.09632 0.47494
 C50 C 0.55245 -0.13732 0.45061
 N51 N 0.55058 -0.16117 0.51648
 C52 C 0.53513 -0.15458 0.37272
 C53 C 0.52947 -0.19414 0.35020
 C54 C 0.50139 -0.22094 0.29137
 C55 C 0.50617 -0.25563 0.28887
 C56 C 0.53776 -0.24874 0.34531
 N57 N 0.55121 -0.21141 0.38309
 C58 C 0.55557 -0.27466 0.35945
 H59 H 0.62339 -0.29007 0.40531
 H60 H 0.63396 -0.28882 0.56760
 H61 H 0.57657 -0.19694 0.42415
 H62 H 0.52556 -0.27346 0.79892
 H63 H 0.51308 -0.20980 0.80290
 H64 H 0.58247 -0.06866 0.59970
 H65 H 0.57050 -0.07038 0.43670
 H66 H 0.48721 -0.28310 0.25134
 H67 H 0.58991 -0.19377 0.59091
 H68 H 0.47882 -0.21669 0.25583
 C69 C 1.06374 0.65893 0.53690
 C70 C 1.06318 0.65902 0.45141
 C71 C 1.10472 0.68357 0.42610
 N72 N 1.13055 0.69865 0.49212
 C73 C 1.10580 0.68272 0.55985
 C74 C 1.11998 0.68459 0.34595
 C75 C 1.16013 0.71783 0.32174
 C76 C 1.18423 0.71704 0.25632
 C77 C 1.22094 0.75556 0.25542
 C78 C 1.21804 0.77919 0.31989
 N79 N 1.18098 0.75556 0.36028
 C80 C 1.24745 0.82178 0.34043
 C81 C 1.24924 0.83485 0.42472
 C82 C 1.26477 0.87568 0.45263
 C83 C 1.26696 0.87454 0.53819
 C84 C 1.25240 0.83303 0.56041
 N85 N 1.24073 0.80878 0.49110
 C86 C 1.25294 0.81738 0.64152
 C87 C 1.22306 0.77472 0.65952
 C88 C 1.22761 0.74864 0.71601
 C89 C 1.19040 0.71080 0.71580
 C90 C 1.16396 0.71460 0.65917
 N91 N 1.18447 0.75339 0.62409
 C92 C 1.12241 0.68269 0.63855
 H93 H 1.03667 0.64131 0.57727
 H94 H 1.03585 0.64135 0.41233
 H95 H 1.17175 0.76568 0.58204
 H96 H 1.17691 0.69109 0.21515
 H97 H 1.24713 0.76375 0.21382
 H98 H 1.27320 0.90354 0.41589
 H99 H 1.27734 0.90125 0.57897
 H100 H 1.18466 0.68316 0.75059
 H101 H 1.16933 0.76589 0.40835
 H102 H 1.25530 0.75493 0.75087
 C103 C 0.92386 0.58515 0.54532
 C104 C 0.92565 0.58543 0.45999
 C105 C 0.88504 0.57133 0.43289
 N106 N 0.85839 0.56222 0.49794
 C107 C 0.88191 0.56972 0.56686
 C108 C 0.87120 0.56032 0.35073
 C109 C 0.83421 0.55924 0.32379
 C110 C 0.81114 0.53928 0.25323
 C111 C 0.77735 0.54568 0.25187
 C112 C 0.78091 0.56941 0.32165
 N113 N 0.81579 0.57782 0.36445
 C114 C 0.75288 0.58299 0.34586
 C115 C 0.75099 0.59427 0.42890
 C116 C 0.73180 0.61647 0.45425
 C117 C 0.72627 0.61095 0.53890
 C118 C 0.74246 0.58571 0.56224
 N119 N 0.75821 0.57611 0.49519
 C120 C 0.73887 0.56799 0.64218
 C121 C 0.76851 0.55614 0.66739
 C122 C 0.76259 0.52764 0.73034
 C123 C 0.79797 0.52398 0.73160
 C124 C 0.82482 0.55033 0.66934
 N125 N 0.80659 0.56979 0.63069
 C126 C 0.86425 0.55478 0.64654
 H127 H 0.95000 0.59320 0.58689
 H128 H 0.95320 0.59372 0.42217
 H129 H 0.82043 0.59266 0.58394
 H130 H 0.81707 0.52092 0.20873
 H131 H 0.75245 0.53292 0.20608
 H132 H 0.72108 0.63318 0.41507
 H133 H 0.71133 0.62336 0.57843
 H134 H 0.80198 0.50239 0.77104
 H135 H 0.82749 0.59724 0.41649
 H136 H 0.73487 0.50933 0.76859
 C137 C 0.51067 0.36936 0.56977
 C138 C 0.51389 0.37095 0.48461
 C139 C 0.49415 0.32972 0.45774
 N140 N 0.47860 0.30285 0.52378
 C141 C 0.48842 0.32711 0.59258
 C142 C 0.48964 0.31762 0.37306
 C143 C 0.47850 0.27652 0.34905
 C144 C 0.46622 0.26035 0.26954
 C145 C 0.46108 0.22071 0.27098
 C146 C 0.47027 0.21380 0.35141
 N147 N 0.48077 0.24788 0.39860
 C148 C 0.47219 0.17822 0.37760
 C149 C 0.47193 0.16732 0.46246
 C150 C 0.48199 0.13794 0.49050
 C151 C 0.47650 0.13524 0.57526
 C152 C 0.46259 0.16266 0.59675
 N153 N 0.46017 0.18258 0.52739
 C154 C 0.45225 0.16881 0.67920
 C155 C 0.45134 0.20561 0.70061
 C156 C 0.43236 0.21002 0.77165
 C157 C 0.43967 0.25036 0.77085
 C158 C 0.46259 0.26960 0.69895
 N159 N 0.46940 0.24207 0.65610
 C160 C 0.47688 0.31182 0.67569
 H161 H 0.52404 0.39646 0.61020
 H162 H 0.52982 0.39928 0.44695
 H163 H 0.48860 0.24917 0.60364
 H164 H 0.46178 0.27560 0.21586
 H165 H 0.45198 0.19954 0.21852
 H166 H 0.49306 0.12082 0.45393
 H167 H 0.48337 0.11611 0.61632
 H168 H 0.42849 0.26372 0.81717
 H169 H 0.49353 0.25298 0.45818
 H170 H 0.41429 0.18648 0.81865
 C171 C 0.61653 0.11690 0.52476
 C172 C 0.61883 0.11319 0.44038
 C173 C 0.66113 0.13060 0.42084
 N174 N 0.68487 0.14501 0.49068
 C175 C 0.65752 0.13625 0.55453
 C176 C 0.67714 0.13221 0.33975
 C177 C 0.71916 0.16241 0.31800
 C178 C 0.73900 0.16352 0.24363
 C179 C 0.77730 0.20046 0.24315
 C180 C 0.78010 0.22051 0.31785
 N181 N 0.74468 0.19714 0.36310
 C182 C 0.81324 0.26094 0.33931
 C183 C 0.82162 0.27659 0.42196
 C184 C 0.85218 0.31712 0.44390
 C185 C 0.85121 0.31919 0.52944
 C186 C 0.81990 0.27999 0.55705
 N187 N 0.80213 0.25388 0.49135
 C188 C 0.80881 0.26842 0.64169
 C189 C 0.77271 0.23032 0.66557
 C190 C 0.76610 0.21240 0.74439
 C191 C 0.72667 0.17718 0.74399
 C192 C 0.71001 0.17483 0.66512
 N193 N 0.73849 0.20714 0.61739
 C194 C 0.66888 0.14437 0.63978
 H195 H 0.58788 0.10736 0.55978
 H196 H 0.59234 0.10037 0.39814
 H197 H 0.73285 0.21531 0.55856
 H198 H 0.72693 0.14064 0.19402
 H199 H 0.80034 0.21152 0.19315
 H200 H 0.87307 0.34261 0.40267
 H201 H 0.87098 0.34654 0.56688
 H202 H 0.71219 0.15568 0.79598
 H203 H 0.73635 0.20718 0.41645
 H204 H 0.78756 0.22342 0.79667
 O205 O 0.94780 0.46143 -0.17413
 O206 O 1.02840 0.50189 0.17123
 O207 O 0.94217 0.49360 0.06939
 O208 O 1.06002 0.54970 -0.08144
 O209 O 0.95171 0.46175 0.16927
 O210 O 1.02511 0.50444 -0.18005
 O211 O 1.04880 0.54688 0.07018
 O212 O 0.93619 0.49136 -0.07354
 C213 C 0.93685 0.48638 -0.14873
 C214 C 1.04282 0.53917 0.14547
 C215 C 0.94266 0.48839 0.14483
 C216 C 1.04855 0.54163 -0.15506
 O217 O 1.03155 0.43826 -0.14011
 O218 O 0.95453 0.39563 0.09886
 O219 O 0.90324 0.40644 -0.07591
 O220 O 1.07830 0.49463 0.08293
 O221 O 1.02853 0.43269 0.10877
 O222 O 0.95272 0.39561 -0.11705
 O223 O 1.08082 0.49225 -0.07279
 O224 O 0.90512 0.40807 0.07724
 Co225 Co 0.98926 0.45106 -0.13799
 Co226 Co 0.99083 0.44958 0.12509
 Co227 Co 0.92755 0.45074 -0.00064
 Co228 Co 1.05955 0.51530 0.00026
 O229 O 0.99226 0.46646 -0.00434
 C230 C 1.06954 0.46264 -0.12408
 C231 C 0.91668 0.38353 0.10278
 C232 C 0.91462 0.38365 -0.11297
 C233 C 1.06629 0.45888 0.11149
 O234 O 0.48783 0.45816 -0.10981
 O235 O 0.47756 0.51821 0.15007
 O236 O 0.55172 0.46110 0.08722
 O237 O 0.46871 0.56787 -0.07610
 O238 O 0.50752 0.47129 0.16306
 O239 O 0.46661 0.51052 -0.11745
 O240 O 0.45142 0.51052 0.02773
 O241 O 0.54241 0.45526 -0.06787
 C242 C 0.50662 0.43825 -0.10199
 C243 C 0.44612 0.50439 0.10442
 C244 C 0.52420 0.44979 0.14520
 C245 C 0.45655 0.53823 -0.13219
 O246 O 0.54588 0.56853 -0.16190
 O247 O 0.58122 0.53540 0.17080
 O248 O 0.60710 0.53856 -0.07791
 O249 O 0.50610 0.58770 0.07689
 O250 O 0.55545 0.58413 0.14079
 O251 O 0.56271 0.51153 -0.17318
 O252 O 0.54750 0.60249 -0.05256
 O253 O 0.61731 0.54078 0.06245
 Co254 Co 0.51765 0.51373 -0.12719
 Co255 Co 0.53051 0.52738 0.14157
 Co256 Co 0.57543 0.50061 0.00037
 Co257 Co 0.50150 0.55502 -0.01321
 O258 O 0.53387 0.52443 0.00618
 C259 C 0.55721 0.60291 -0.12716
 C260 C 0.61545 0.54551 0.13775
 C261 C 0.60026 0.53101 -0.15194
 C262 C 0.53499 0.60212 0.12998
 O263 O 0.51991 0.01244 -0.13840
 O264 O 0.45109 -0.05925 0.18078
 O265 O 0.54225 0.04279 0.04801
 O266 O 0.47266 -0.09086 -0.05551
 O267 O 0.51002 0.01386 0.16197
 O268 O 0.46590 -0.06169 -0.16432
 O269 O 0.47208 -0.08251 0.08434
 O270 O 0.52800 0.06837 -0.08017
 C271 C 0.54070 0.05126 -0.13050
 C272 C 0.47003 -0.07753 0.15898
 C273 C 0.54389 0.03454 0.12255
 C274 C 0.47847 -0.08343 -0.13053
 O275 O 0.40647 -0.04607 -0.15217
 O276 O 0.45343 0.03715 0.12104
 O277 O 0.45224 0.05027 -0.02560
 O278 O 0.39096 -0.09636 0.08069
 O279 O 0.39802 -0.03718 0.12393
 O280 O 0.45824 0.03006 -0.14665
 O281 O 0.39384 -0.10149 -0.07606
 O282 O 0.51211 0.09008 0.07235
 Co283 Co 0.46299 -0.01603 -0.13580
 Co284 Co 0.45427 -0.01195 0.13346
 Co285 Co 0.49553 0.04292 0.01278
 Co286 Co 0.43423 -0.08678 0.00855
 O287 O 0.46150 -0.02049 -0.00046
 C288 C 0.38363 -0.08439 -0.13404
 C289 C 0.48315 0.07498 0.13096
 C290 C 0.44711 0.05023 -0.10228
 C291 C 0.37640 -0.07623 0.11774
 N292 N 1.10536 0.42921 0.29316
 C293 C 1.14758 0.45010 0.27897
 N294 N 1.16233 0.47037 0.20459
 N295 N 1.13622 0.47160 0.14872
 C296 C 1.09419 0.45138 0.16400
 N297 N 1.07918 0.42970 0.23662
 N298 N 0.53777 0.69521 0.22003
 C299 C 0.55164 0.69539 0.29895
 N300 N 0.56074 0.66507 0.31930
 N301 N 0.55634 0.63628 0.26441
 C302 C 0.54193 0.63597 0.18661
 N303 N 0.53254 0.66588 0.16515
 N304 N 0.27584 -0.16172 0.19899
 C305 C 0.27688 -0.15004 0.27980
 N306 N 0.30866 -0.11135 0.30206
 N307 N 0.33849 -0.08647 0.24783
 C308 C 0.33820 -0.09926 0.16864
 N309 N 0.30621 -0.13736 0.14494
 N310 N 0.89868 0.55289 0.21500
 C311 C 0.89256 0.54380 0.29767
 N312 N 0.90502 0.51780 0.33097
 N313 N 0.92220 0.50089 0.28328
 C314 C 0.92770 0.50957 0.20041
 N315 N 0.91587 0.53604 0.16739
 N316 N 0.47637 0.37181 0.31466
 C317 C 0.49619 0.34939 0.30780
 N318 N 0.52374 0.35842 0.24344
 N319 N 0.53177 0.38933 0.18924
 C320 C 0.51231 0.41214 0.19715
 N321 N 0.48429 0.40250 0.26057
 N322 N 0.64645 0.11727 0.19728
 C323 C 0.64751 0.10311 0.27521
 N324 N 0.61724 0.06336 0.29683
 N325 N 0.58588 0.03976 0.24489
 C326 C 0.58398 0.05451 0.16825
 N327 N 0.61534 0.09343 0.14484
 N328 N 0.42506 0.09655 -0.28042
 C329 C 0.44334 0.13760 -0.25882
 N330 N 0.45552 0.14794 -0.17787
 N331 N 0.45254 0.11904 -0.12312
 C332 C 0.43624 0.07840 -0.14672
 N333 N 0.42182 0.06778 -0.22589
 N334 N 0.66672 0.55216 -0.34000
 C335 C 0.70390 0.55951 -0.30626
 N336 N 0.70618 0.55763 -0.22198
 N337 N 0.67313 0.54888 -0.17399
 C338 C 0.63604 0.54105 -0.20784
 N339 N 0.63337 0.54285 -0.29198
 N340 N 0.87715 0.30819 -0.28576
 C341 C 0.83597 0.29691 -0.29104
 N342 N 0.81976 0.31150 -0.23262
 N343 N 0.84414 0.33752 -0.17287
 C344 C 0.88548 0.34915 -0.16807
 N345 N 0.90138 0.33387 -0.22566
 N346 N 0.54070 -0.13104 -0.19528
 C347 C 0.53460 -0.13360 -0.27913
 N348 N 0.50963 -0.12010 -0.31250
 N349 N 0.49187 -0.10412 -0.26464
 C350 C 0.49782 -0.10167 -0.18118
 N351 N 0.52244 -0.11545 -0.14697
 N352 N 0.39576 0.50246 -0.32566
 C353 C 0.36528 0.51236 -0.31360
 N354 N 0.36601 0.53236 -0.24186
 N355 N 0.39583 0.54195 -0.18484
 C356 C 0.42572 0.53133 -0.19689
 N357 N 0.42510 0.51139 -0.26814
 N358 N 1.07385 0.60850 -0.34155
 C359 C 1.10035 0.64729 -0.30927
 N360 N 1.10731 0.65057 -0.22606
 N361 N 1.08961 0.61659 -0.17775
 C362 C 1.06428 0.57790 -0.21035
 N363 N 1.05612 0.57429 -0.29312
 N364 N 0.88052 0.53916 -0.21725
 C365 C 0.88378 0.53880 -0.30143
 N366 N 0.90559 0.52157 -0.33509
 N367 N 0.92301 0.50503 -0.28703
 C368 C 0.91955 0.50550 -0.20315
 N369 N 0.89822 0.52298 -0.16912
 N370 N 0.46611 0.36749 -0.27879
 C371 C 0.47924 0.33983 -0.26240
 N372 N 0.49718 0.34169 -0.18711
 N373 N 0.50400 0.37169 -0.13262
 C374 C 0.49163 0.39984 -0.15030
 N375 N 0.47199 0.39672 -0.22367
 N376 N 0.63601 0.13844 -0.22637
 C377 C 0.63816 0.12079 -0.29922
 N378 N 0.60912 0.07987 -0.31336
 N379 N 0.57896 0.05770 -0.25789
 C380 C 0.57630 0.07560 -0.18634
 N381 N 0.60535 0.11637 -0.17118
 N382 N 1.11555 0.43034 -0.29051
 C383 C 1.15687 0.46063 -0.28781
 N384 N 1.17011 0.48928 -0.22526
 N385 N 1.14278 0.48846 -0.16931
 C386 C 1.10124 0.45869 -0.17329
 N387 N 1.08833 0.42947 -0.23455
 N388 N 0.58124 0.66806 -0.31484
 C389 C 0.58084 0.70246 -0.28595
 N390 N 0.57962 0.70653 -0.20167
 N391 N 0.57594 0.67649 -0.14948
 C392 C 0.57420 0.64126 -0.17923
 N393 N 0.57777 0.63812 -0.26287
 N394 N 0.31663 -0.11830 -0.32032
 C395 C 0.28422 -0.15691 -0.29868
 N396 N 0.28373 -0.17063 -0.21912
 N397 N 0.31457 -0.14773 -0.16525
 C398 C 0.34691 -0.10940 -0.18814
 N399 N 0.34702 -0.09507 -0.26641
 N400 N 0.52315 -0.13316 0.23396
 C401 C 0.51888 -0.13312 0.31794
 N402 N 0.49874 -0.11388 0.35045
 N403 N 0.48336 -0.09560 0.30092
 C404 C 0.48756 -0.09595 0.21683
 N405 N 0.50780 -0.11500 0.18463
 N406 N 0.34894 0.49531 0.18570
 C407 C 0.34557 0.47602 0.26040
 N408 N 0.37128 0.46044 0.27558
 N409 N 0.40062 0.46582 0.22037
 C410 C 0.40523 0.48643 0.14708
 N411 N 0.37845 0.50069 0.13021
 N412 N 1.08092 0.60735 0.33017
 C413 C 1.09704 0.64621 0.29459
 N414 N 1.09278 0.64906 0.21140
 N415 N 1.07386 0.61444 0.16544
 C416 C 1.05834 0.57566 0.20056
 N417 N 1.06202 0.57263 0.28403
 N418 N 0.44713 0.10926 0.31197
 C419 C 0.47496 0.15127 0.31271
 N420 N 0.50549 0.16818 0.25306
 N421 N 0.50819 0.14393 0.19496
 C422 C 0.48031 0.10194 0.19427
 N423 N 0.44973 0.08506 0.25368
 N424 N 0.67934 0.56248 0.32240
 C425 C 0.71836 0.57686 0.28982
 N426 N 0.72390 0.58293 0.20600
 N427 N 0.69132 0.57411 0.15676
 C428 C 0.65235 0.55951 0.19003
 N429 N 0.64702 0.55415 0.27360
 N430 N 0.88078 0.30133 0.26387
 C431 C 0.83937 0.28903 0.27071
 N432 N 0.82271 0.30521 0.21686
 N433 N 0.84691 0.33372 0.15976
 C434 C 0.88850 0.34658 0.15365
 N435 N 0.90489 0.32959 0.20629
   
