data_POSCAR
  _audit_creation_date              2014-09-24
  _audit_creation_method            'ToBaCCo'
  _symmetry_space_group_name_H-M    'P1'
  _symmetry_Int_Tables_number       1
  _symmetry_cell_setting            triclinic
  loop_
  _symmetry_equiv_pos_as_xyz
 x,y,z
_cell_length_a 39.3602
_cell_length_b 39.4106
_cell_length_c 11.3135
_cell_angle_alpha 89.889700
_cell_angle_beta 90.040000
_cell_angle_gamma 119.880300
loop_
  _atom_site_label
  _atom_site_type_symbol
  _atom_site_fract_x
  _atom_site_fract_y
  _atom_site_fract_z
C1 C 0.21489 0.49217 0.43390
 C2 C 0.21909 0.50034 0.55787
 C3 C 0.25328 0.50577 0.61567
 C4 C 0.28133 0.49959 0.55706
 C5 C 0.27641 0.49107 0.43432
 C6 C 0.24326 0.48669 0.37561
 H7 H 0.24139 0.48217 0.28075
 H8 H 0.25582 0.51026 0.71048
 C9 C 0.50677 -0.27847 0.43977
 C10 C 0.50683 -0.27707 0.56537
 C11 C 0.50595 -0.24610 0.62299
 C12 C 0.50695 -0.21482 0.55994
 C13 C 0.50798 -0.21562 0.43429
 C14 C 0.50678 -0.24767 0.37654
 H15 H 0.50718 -0.24779 0.28067
 H16 H 0.50580 -0.24591 0.71888
 C17 C 1.27795 0.78529 0.43808
 C18 C 1.27496 0.78793 0.56292
 C19 C 1.24290 0.75833 0.62389
 C20 C 1.21353 0.72595 0.56440
 C21 C 1.21611 0.72283 0.44093
 C22 C 1.24863 0.75190 0.37966
 H23 H 1.24948 0.74957 0.28435
 H24 H 1.24134 0.75995 0.71929
 C25 C 0.78027 0.49747 0.44686
 C26 C 0.78337 0.50360 0.57107
 C27 C 0.75492 0.50916 0.62929
 C28 C 0.72177 0.50528 0.56953
 C29 C 0.71882 0.49869 0.44535
 C30 C 0.74793 0.49468 0.38639
 H31 H 0.74659 0.49169 0.29096
 H32 H 0.75661 0.51269 0.72452
 C33 C 0.48862 0.27504 0.43385
 C34 C 0.49584 0.27957 0.55773
 C35 C 0.50118 0.25118 0.61825
 C36 C 0.49648 0.21736 0.56092
 C37 C 0.48984 0.21389 0.43690
 C38 C 0.48566 0.24241 0.37581
 H39 H 0.48191 0.24013 0.28058
 H40 H 0.50483 0.25331 0.71338
 C41 C 0.72344 0.21567 0.43821
 C42 C 0.72185 0.21805 0.56228
 C43 C 0.75176 0.25024 0.62202
 C44 C 0.78461 0.27952 0.56103
 C45 C 0.78580 0.27677 0.43567
 C46 C 0.75523 0.24510 0.37633
 H47 H 0.75591 0.24364 0.28068
 H48 H 0.75038 0.25105 0.71763
 O49 O 0.94657 0.41114 0.20806
 O50 O 0.90295 0.42185 0.10204
 C51 C 0.91128 0.40304 0.18008
 O52 O 1.05451 0.58747 0.21302
 O53 O 1.09810 0.57825 0.10274
 C54 C 1.08988 0.59667 0.18249
 O55 O 0.94503 0.52900 0.22218
 O56 O 0.90250 0.47773 0.10618
 C57 C 0.90993 0.50277 0.19024
 O58 O 1.05686 0.46479 0.19796
 O59 O 1.09930 0.52075 0.09696
 C60 C 1.09176 0.49264 0.17059
 Zr61 Zr 1.00148 0.45606 0.14405
 O62 O 1.00523 0.45485 0.33051
 O63 O 1.00071 0.40230 0.12673
 Zr64 Zr 1.00002 0.54126 0.15364
 O65 O 1.00416 0.54164 0.34033
 O66 O 0.99488 0.59223 0.15785
 O67 O 0.96592 0.48065 0.17266
 O68 O 1.03468 0.51580 0.17029
 O69 O 1.05665 0.46850 -0.21021
 O70 O 1.09943 0.52215 -0.10198
 C71 C 1.09186 0.49528 -0.18032
 O72 O 0.94402 0.53235 -0.20716
 O73 O 0.90173 0.47799 -0.09931
 C74 C 0.90917 0.50476 -0.17781
 O75 O 1.05398 0.59144 -0.19935
 O76 O 1.09793 0.58000 -0.09850
 C77 C 1.08942 0.59986 -0.17254
 O78 O 0.94655 0.41544 -0.22063
 O79 O 0.90292 0.42256 -0.10389
 C80 C 0.91112 0.40557 -0.18829
 Zr81 Zr 1.00132 0.45898 -0.15332
 O82 O 1.00544 0.46295 -0.33991
 O83 O 0.99877 0.40408 -0.15879
 Zr84 Zr 0.99958 0.54385 -0.14451
 O85 O 1.00347 0.54708 -0.33139
 O86 O 0.99444 0.59482 -0.13914
 Zr87 Zr 0.94232 0.47023 0.00058
 Zr88 Zr 1.05906 0.52998 -0.00053
 O89 O 1.03442 0.51898 -0.17116
 O90 O 0.96552 0.48371 -0.17203
 O91 O 1.03664 0.46902 -0.00546
 O92 O 0.96561 0.53123 0.00555
 O93 O 0.96730 0.43391 -0.00499
 O94 O 1.03480 0.56710 0.00495
 H95 H 1.05214 0.52402 0.24023
 H96 H 0.94756 0.54194 0.00763
 H97 H 1.05197 0.52848 -0.24089
 H98 H 0.94989 0.40514 -0.00697
 H99 H 1.01723 0.61287 0.11308
 H100 H 1.01592 0.61417 -0.08885
 H101 H 0.98117 0.52280 -0.36306
 H102 H 0.98323 0.46568 -0.36915
 H103 H 1.01721 0.40469 -0.09819
 H104 H 1.00092 0.39318 0.20826
 H105 H 0.98433 0.45907 0.36311
 H106 H 0.98273 0.51631 0.36965
 O107 O 0.41075 0.46549 0.20396
 O108 O 0.42284 0.52078 0.10130
 C109 C 0.40326 0.49317 0.17727
 O110 O 0.58752 0.53145 0.21269
 O111 O 0.57750 0.47887 0.10081
 C112 C 0.59633 0.50513 0.18095
 O113 O 0.53023 0.58363 0.22436
 O114 O 0.47964 0.57682 0.10760
 C115 C 0.50474 0.59360 0.19239
 O116 O 0.46293 0.40749 0.19221
 O117 O 0.51925 0.42071 0.09367
 C118 C 0.49065 0.40004 0.16570
 Zr119 Zr 0.45574 0.45536 0.14190
 O120 O 0.45680 0.45182 0.32863
 O121 O 0.40005 0.40405 0.13742
 Zr122 Zr 0.54172 0.54069 0.15416
 O123 O 0.54168 0.53592 0.34066
 O124 O 0.59326 0.59617 0.16085
 O125 O 0.48111 0.51534 0.17235
 O126 O 0.51540 0.48060 0.16890
 O127 O 0.46840 0.41398 -0.21688
 O128 O 0.52089 0.42269 -0.10579
 C129 C 0.49446 0.40454 -0.18629
 O130 O 0.53431 0.58981 -0.20511
 O131 O 0.47977 0.57811 -0.09870
 C132 C 0.50678 0.59738 -0.17647
 O133 O 0.59189 0.53671 -0.19950
 O134 O 0.57911 0.48074 -0.09943
 C135 C 0.59931 0.50897 -0.17289
 O136 O 0.41655 0.47239 -0.22333
 O137 O 0.42416 0.52275 -0.10447
 C138 C 0.40706 0.49812 -0.18997
 Zr139 Zr 0.45911 0.45956 -0.15595
 O140 O 0.46255 0.45958 -0.34274
 O141 O 0.40327 0.40842 -0.16168
 Zr142 Zr 0.54502 0.54499 -0.14378
 O143 O 0.54901 0.54556 -0.33049
 O144 O 0.59663 0.60036 -0.13485
 Zr145 Zr 0.47137 0.52950 0.00056
 Zr146 Zr 0.52941 0.47067 -0.00242
 O147 O 0.51914 0.48545 -0.17249
 O148 O 0.48493 0.52013 -0.17233
 O149 O 0.46818 0.43314 -0.00894
 O150 O 0.53259 0.56616 0.00690
 O151 O 0.43428 0.46846 -0.00723
 O152 O 0.56745 0.53172 0.00526
 H153 H 0.52343 0.47082 0.23813
 H154 H 0.54371 0.59491 0.00991
 H155 H 0.52850 0.47750 -0.24273
 H156 H 0.40553 0.45754 -0.01000
 H157 H 0.61356 0.59449 0.11394
 H158 H 0.61606 0.59715 -0.08797
 H159 H 0.52473 0.54361 -0.36267
 H160 H 0.46721 0.48532 -0.37100
 H161 H 0.40536 0.38739 -0.12041
 H162 H 0.40173 0.38572 0.08136
 H163 H 0.45667 0.47503 0.36129
 H164 H 0.51633 0.53213 0.36980
 O165 O 0.46745 0.05424 0.21589
 O166 O 0.52086 0.09747 0.10707
 C167 C 0.49425 0.08934 0.18676
 O168 O 0.53518 -0.05585 0.19924
 O169 O 0.47999 -0.09837 0.09572
 C170 C 0.50779 -0.09083 0.17054
 O171 O 0.58723 0.05410 0.21295
 O172 O 0.57799 0.09788 0.10304
 C173 C 0.59615 0.08950 0.18372
 O174 O 0.41146 -0.05469 0.20680
 O175 O 0.42146 -0.09792 0.09789
 C176 C 0.40246 -0.08994 0.17654
 Zr177 Zr 0.45762 -0.00004 0.14967
 O178 O 0.45693 -0.00429 0.33642
 O179 O 0.40589 0.00388 0.15168
 Zr180 Zr 0.54324 -0.00058 0.14669
 O181 O 0.54087 -0.00554 0.33332
 O182 O 0.59893 0.00350 0.14605
 O183 O 0.51805 0.03459 0.17257
 O184 O 0.48337 -0.03437 0.16909
 O185 O 0.40982 -0.05367 -0.20322
 O186 O 0.42171 -0.09735 -0.10240
 C187 C 0.40181 -0.08894 -0.17631
 O188 O 0.58662 0.05587 -0.21567
 O189 O 0.57717 0.09877 -0.10238
 C190 C 0.59524 0.09101 -0.18451
 O191 O 0.53385 -0.05394 -0.21210
 O192 O 0.47998 -0.09750 -0.10578
 C193 C 0.50722 -0.08928 -0.18375
 O194 O 0.46903 0.05624 -0.21269
 O195 O 0.52121 0.09900 -0.09929
 C196 C 0.49535 0.09139 -0.18141
 Zr197 Zr 0.45717 0.00094 -0.14836
 O198 O 0.45485 -0.00302 -0.33517
 O199 O 0.40606 0.00595 -0.14767
 Zr200 Zr 0.54274 0.00059 -0.15138
 O201 O 0.54059 -0.00257 -0.33831
 O202 O 0.59832 0.00436 -0.15205
 Zr203 Zr 0.52954 0.05855 0.00081
 Zr204 Zr 0.47078 -0.05827 -0.00229
 O205 O 0.48281 -0.03316 -0.17243
 O206 O 0.51748 0.03576 -0.17230
 O207 O 0.43311 -0.03458 0.00012
 O208 O 0.56633 0.03402 -0.00165
 O209 O 0.46833 0.03451 0.00158
 O210 O 0.53201 -0.03512 -0.00369
 H211 H 0.47472 -0.05216 0.23833
 H212 H 0.59512 0.05160 -0.00208
 H213 H 0.47378 -0.05037 -0.24281
 H214 H 0.45717 0.05217 0.00215
 H215 H 0.59717 -0.01739 0.09372
 H216 H 0.59577 -0.01852 -0.10813
 H217 H 0.53789 0.01961 -0.36783
 H218 H 0.47943 0.01907 -0.36629
 H219 H 0.38645 -0.01536 -0.09738
 H220 H 0.38602 -0.01794 0.10361
 H221 H 0.48118 0.01847 0.36648
 H222 H 0.53879 0.01672 0.36511
 C223 C 1.16548 0.46490 0.27610
 C224 C 1.18544 0.49320 0.36451
 C225 C 1.17551 0.52263 0.38190
 C226 C 1.14574 0.52296 0.31573
 C227 C 1.12485 0.49356 0.23252
 C228 C 1.13488 0.46463 0.21246
 H229 H 1.17208 0.44170 0.26044
 H230 H 1.19110 0.54572 0.44578
 H231 H 1.13835 0.54565 0.33141
 H232 H 1.11893 0.44182 0.14799
 C233 C 0.53177 0.67603 0.41003
 C234 C 0.50692 0.69055 0.37669
 C235 C 0.48238 0.67367 0.27775
 C236 C 0.48120 0.64191 0.21868
 C237 C 0.50518 0.62679 0.25526
 C238 C 0.53070 0.64450 0.35100
 H239 H 0.55325 0.68990 0.47926
 H240 H 0.46281 0.68392 0.24881
 H241 H 0.46143 0.62918 0.14453
 H242 H 0.55023 0.63424 0.38021
 C243 C 0.32598 -0.19233 0.27515
 C244 C 0.30812 -0.18420 0.37073
 C245 C 0.32012 -0.14480 0.39509
 C246 C 0.35019 -0.11459 0.33100
 C247 C 0.36914 -0.12265 0.23928
 C248 C 0.35645 -0.16190 0.21115
 H249 H 0.31762 -0.22220 0.25287
 H250 H 0.30530 -0.13709 0.46105
 H251 H 0.35857 -0.08476 0.35393
 H252 H 0.37030 -0.16915 0.14060
 C253 C 0.85117 0.53115 0.39038
 C254 C 0.81302 0.49948 0.37602
 C255 C 0.80653 0.46964 0.29617
 C256 C 0.83794 0.47082 0.23477
 C257 C 0.87639 0.50181 0.25251
 C258 C 0.88256 0.53212 0.33030
 H259 H 0.85673 0.55489 0.44981
 H260 H 0.77731 0.44503 0.28345
 H261 H 0.83217 0.44714 0.17486
 H262 H 0.91168 0.55668 0.34491
 C263 C 0.52410 0.34252 0.34960
 C264 C 0.48949 0.30633 0.35922
 C265 C 0.45575 0.30022 0.29874
 C266 C 0.45608 0.33073 0.23457
 C267 C 0.49061 0.36705 0.22605
 C268 C 0.52480 0.37255 0.28210
 H269 H 0.55040 0.34753 0.39524
 H270 H 0.42887 0.27236 0.30512
 H271 H 0.42947 0.32609 0.19176
 H272 H 0.55161 0.40054 0.27726
 C273 C 0.68734 0.14619 0.37002
 C274 C 0.69145 0.18359 0.37073
 C275 C 0.66517 0.19054 0.30581
 C276 C 0.63449 0.16013 0.24322
 C277 C 0.62934 0.12218 0.24607
 C278 C 0.65626 0.11560 0.30966
 H279 H 0.70817 0.14065 0.41625
 H280 H 0.66829 0.21944 0.30435
 H281 H 0.61452 0.16623 0.19403
 H282 H 0.65354 0.08688 0.31191
 C283 C 0.52233 0.19440 -0.27772
 C284 C 0.49586 0.18671 -0.37155
 C285 C 0.46789 0.14745 -0.39546
 C286 C 0.46786 0.11690 -0.33362
 C287 C 0.49536 0.12447 -0.24392
 C288 C 0.52235 0.16360 -0.21548
 H289 H 0.54420 0.22414 -0.25569
 H290 H 0.44503 0.14013 -0.46011
 H291 H 0.44600 0.08722 -0.35635
 H292 H 0.54372 0.17046 -0.14597
 C293 C 0.70043 0.53387 -0.27418
 C294 C 0.69160 0.50596 -0.36433
 C295 C 0.65195 0.47829 -0.38584
 C296 C 0.62216 0.47913 -0.32161
 C297 C 0.63122 0.50794 -0.23592
 C298 C 0.67041 0.53531 -0.21221
 H299 H 0.73050 0.55571 -0.25510
 H300 H 0.64392 0.45523 -0.45021
 H301 H 0.59191 0.45750 -0.33964
 H302 H 0.67770 0.55761 -0.14563
 C303 C 0.80823 0.32817 -0.27870
 C304 C 0.81572 0.30990 -0.37419
 C305 C 0.85506 0.32232 -0.40257
 C306 C 0.88576 0.35331 -0.34271
 C307 C 0.87821 0.37252 -0.25088
 C308 C 0.83908 0.35936 -0.21869
 H309 H 0.77847 0.31955 -0.25340
 H310 H 0.86236 0.30724 -0.46873
 H311 H 0.91551 0.36195 -0.36819
 H312 H 0.83221 0.37330 -0.14757
 C313 C 0.53336 -0.14449 -0.40547
 C314 C 0.50726 -0.18380 -0.37604
 C315 C 0.48233 -0.19158 -0.27784
 C316 C 0.48217 -0.16106 -0.21527
 C317 C 0.50763 -0.12192 -0.24734
 C318 C 0.53345 -0.11406 -0.34250
 H319 H 0.55513 -0.13695 -0.47372
 H320 H 0.46178 -0.22140 -0.25193
 H321 H 0.46200 -0.16817 -0.14210
 H322 H 0.55398 -0.08427 -0.36860
 C323 C 0.33184 0.52649 -0.28663
 C324 C 0.31192 0.49921 -0.37742
 C325 C 0.32256 0.47058 -0.39994
 C326 C 0.35339 0.47055 -0.33975
 C327 C 0.37425 0.49867 -0.25276
 C328 C 0.36287 0.52644 -0.22579
 H329 H 0.32459 0.54894 -0.26580
 H330 H 0.30615 0.44709 -0.46166
 H331 H 0.36053 0.44803 -0.36089
 H332 H 0.37814 0.54836 -0.15844
 C333 C 1.14740 0.69481 -0.34120
 C334 C 1.18207 0.69436 -0.36541
 C335 C 1.18708 0.66392 -0.32105
 C336 C 1.15739 0.63376 -0.25489
 C337 C 1.12199 0.63334 -0.23393
 C338 C 1.11729 0.66419 -0.27749
 H339 H 1.14349 0.71858 -0.37297
 H340 H 1.21393 0.66348 -0.33802
 H341 H 1.16169 0.61024 -0.22291
 H342 H 1.09036 0.66464 -0.26198
 C343 C 0.83329 0.53072 -0.27284
 C344 C 0.81328 0.50276 -0.36190
 C345 C 0.82402 0.47409 -0.38349
 C346 C 0.85484 0.47440 -0.32163
 C347 C 0.87582 0.50360 -0.23821
 C348 C 0.86482 0.53156 -0.21321
 H349 H 0.82600 0.55327 -0.25364
 H350 H 0.80818 0.45098 -0.44715
 H351 H 0.86274 0.45225 -0.34021
 H352 H 0.88073 0.55408 -0.14790
 C353 C 0.46760 0.32174 -0.40235
 C354 C 0.49545 0.31017 -0.37736
 C355 C 0.52180 0.32889 -0.28334
 C356 C 0.52153 0.35943 -0.22104
 C357 C 0.49439 0.37154 -0.24933
 C358 C 0.46722 0.35202 -0.34000
 H359 H 0.44485 0.30639 -0.46726
 H360 H 0.54376 0.32106 -0.26073
 H361 H 0.54282 0.37374 -0.15132
 H362 H 0.44537 0.35997 -0.36287
 C363 C 0.65852 0.19017 -0.32691
 C364 C 0.69001 0.18639 -0.36850
 C365 C 0.69098 0.15194 -0.34532
 C366 C 0.65995 0.12082 -0.28633
 C367 C 0.62805 0.12418 -0.24590
 C368 C 0.62783 0.15934 -0.26505
 H369 H 0.65754 0.21675 -0.34348
 H370 H 0.71562 0.14901 -0.37422
 H371 H 0.66108 0.09426 -0.27109
 H372 H 0.60352 0.16259 -0.23464
 C373 C 1.14893 0.46929 -0.39503
 C374 C 1.18805 0.49829 -0.37269
 C375 C 1.19532 0.52453 -0.27879
 C376 C 1.16424 0.52342 -0.21517
 C377 C 1.12519 0.49551 -0.24205
 C378 C 1.11807 0.46809 -0.33136
 H379 H 1.14202 0.44698 -0.46129
 H380 H 1.22491 0.54723 -0.25809
 H381 H 1.17082 0.54482 -0.14617
 H382 H 1.08848 0.44567 -0.35313
 C383 C 0.53855 0.69818 -0.29491
 C384 C 0.50542 0.69139 -0.36021
 C385 C 0.47199 0.65405 -0.35957
 C386 C 0.47211 0.62355 -0.29667
 C387 C 0.50598 0.62991 -0.23663
 C388 C 0.53912 0.66738 -0.23542
 H389 H 0.56452 0.72691 -0.29469
 H390 H 0.44620 0.64846 -0.40935
 H391 H 0.44628 0.59472 -0.29800
 H392 H 0.56532 0.67273 -0.18846
 C393 C 0.34317 -0.18004 -0.35752
 C394 C 0.30693 -0.18144 -0.36535
 C395 C 0.30134 -0.15342 -0.30560
 C396 C 0.33235 -0.12309 -0.24391
 C397 C 0.36868 -0.12153 -0.23686
 C398 C 0.37372 -0.15055 -0.29225
 H399 H 0.34778 -0.20167 -0.40243
 H400 H 0.27343 -0.15431 -0.31049
 H401 H 0.32800 -0.10094 -0.20141
 H402 H 0.40168 -0.14962 -0.28808
 C403 C 0.54138 -0.15728 0.30182
 C404 C 0.50722 -0.18513 0.35981
 C405 C 0.47272 -0.18325 0.34887
 C406 C 0.47264 -0.15323 0.28307
 C407 C 0.50734 -0.12414 0.23050
 C408 C 0.54170 -0.12637 0.24001
 H409 H 0.56816 -0.15855 0.30909
 H410 H 0.44607 -0.20477 0.39220
 H411 H 0.44586 -0.15190 0.27663
 H412 H 0.56868 -0.10423 0.19965
 C413 C 0.34425 0.52688 0.35211
 C414 C 0.30808 0.49213 0.36125
 C415 C 0.30271 0.45822 0.30432
 C416 C 0.33392 0.45849 0.24473
 C417 C 0.37023 0.49310 0.23712
 C418 C 0.37501 0.52750 0.28898
 H419 H 0.34868 0.55334 0.39495
 H420 H 0.27490 0.43125 0.31032
 H421 H 0.32975 0.43179 0.20429
 H422 H 0.40290 0.55445 0.28379
 C423 C 1.14706 0.68747 0.36887
 C424 C 1.18415 0.69069 0.37318
 C425 C 1.19077 0.66390 0.31026
 C426 C 1.16030 0.63361 0.24647
 C427 C 1.12275 0.62969 0.24482
 C428 C 1.11653 0.65704 0.30649
 H429 H 1.14180 0.70870 0.41340
 H430 H 1.21938 0.66624 0.31176
 H431 H 1.16597 0.61291 0.20016
 H432 H 1.08813 0.65515 0.30567
 C433 C 0.52615 0.18083 0.36552
 C434 C 0.49177 0.18330 0.36632
 C435 C 0.45878 0.15565 0.30366
 C436 C 0.45955 0.12476 0.24580
 C437 C 0.49377 0.12208 0.24624
 C438 C 0.52726 0.15059 0.30470
 H439 H 0.55190 0.20207 0.41310
 H440 H 0.43208 0.15721 0.30348
 H441 H 0.43354 0.10302 0.20035
 H442 H 0.55377 0.14872 0.30625
 C443 C 0.68305 0.53348 0.38313
 C444 C 0.68873 0.50117 0.37234
 C445 C 0.66547 0.47124 0.29264
 C446 C 0.63597 0.47288 0.22824
 C447 C 0.62921 0.50450 0.24255
 C448 C 0.65342 0.53500 0.31969
 H449 H 0.70121 0.55731 0.44227
 H450 H 0.66952 0.44616 0.28253
 H451 H 0.61793 0.44896 0.16928
 H452 H 0.64931 0.55996 0.33192
 C453 C 0.81985 0.34563 0.36145
 C454 C 0.81641 0.30845 0.36292
 C455 C 0.84342 0.30207 0.29986
 C456 C 0.87476 0.33311 0.24121
 C457 C 0.87842 0.37037 0.24104
 C458 C 0.85046 0.37632 0.29967
 H459 H 0.79914 0.35093 0.40947
 H460 H 0.84107 0.27349 0.30028
 H461 H 0.89601 0.32808 0.19545
 H462 H 0.85300 0.40497 0.30037
   
