data_POSCAR
  _audit_creation_date              2014-09-24
  _audit_creation_method            'ToBaCCo'
  _symmetry_space_group_name_H-M    'P1'
  _symmetry_Int_Tables_number       1
  _symmetry_cell_setting            triclinic
  loop_
  _symmetry_equiv_pos_as_xyz
 x,y,z
_cell_length_a 28.5548
_cell_length_b 28.5566
_cell_length_c 25.2311
_cell_angle_alpha 89.980000
_cell_angle_beta 89.935200
_cell_angle_gamma 90.059900
loop_
  _atom_site_label
  _atom_site_type_symbol
  _atom_site_fract_x
  _atom_site_fract_y
  _atom_site_fract_z
O1 O -0.04617 0.29696 0.04905
 O2 O 0.04610 0.29684 -0.05363
 O3 O -0.04581 0.29643 -0.05380
 O4 O 0.04569 0.29781 0.04930
 O5 O 0.04704 0.22041 0.04792
 O6 O -0.04545 0.21900 -0.05236
 O7 O 0.04500 0.21942 -0.05406
 O8 O -0.04431 0.21957 0.05052
 Cu9 Cu -0.00012 0.30490 -0.00231
 Cu10 Cu 0.00050 0.21183 -0.00174
 C11 C -0.06103 0.25810 0.06684
 C12 C 0.06134 0.25795 -0.07094
 C13 C -0.06136 0.25734 -0.07007
 C14 C 0.06253 0.25915 0.06513
 O15 O 0.54648 0.79865 0.45066
 O16 O 0.45498 0.79727 0.55412
 O17 O 0.54674 0.79707 0.55369
 O18 O 0.45439 0.79881 0.45111
 O19 O 0.45499 0.72140 0.44914
 O20 O 0.54658 0.71971 0.55100
 O21 O 0.45463 0.71990 0.55142
 O22 O 0.54543 0.72124 0.44870
 Cu23 Cu 0.50068 0.80582 0.50256
 Cu24 Cu 0.50039 0.71280 0.50018
 C25 C 0.56167 0.76004 0.43260
 C26 C 0.43875 0.75817 0.56952
 C27 C 0.56283 0.75791 0.56897
 C28 C 0.43883 0.76025 0.43319
 O29 O 0.95454 0.70219 -0.05200
 O30 O 1.04593 0.70248 0.05168
 O31 O 0.95422 0.70269 0.05109
 O32 O 1.04669 0.70195 -0.05147
 O33 O 1.04751 0.77933 -0.05053
 O34 O 0.95378 0.78006 0.04852
 O35 O 1.04530 0.77988 0.05108
 O36 O 0.95650 0.77955 -0.05389
 Cu37 Cu 1.00029 0.69445 -0.00019
 Cu38 Cu 1.00069 0.78744 -0.00120
 C39 C 0.93978 0.74097 -0.07012
 C40 C 1.06149 0.74145 0.06835
 C41 C 0.93782 0.74171 0.06639
 C42 C 1.06350 0.74069 -0.06738
 O43 O 0.45307 0.20203 0.44759
 O44 O 0.54524 0.20022 0.54992
 O45 O 0.45331 0.20112 0.55063
 O46 O 0.54473 0.20202 0.44692
 O47 O 0.54424 0.27944 0.44813
 O48 O 0.45553 0.27849 0.55310
 O49 O 0.54637 0.27764 0.54961
 O50 O 0.45273 0.27939 0.45076
 Cu51 Cu 0.49900 0.19345 0.49866
 Cu52 Cu 0.49964 0.28651 0.50043
 C53 C 0.43675 0.24117 0.43265
 C54 C 0.56207 0.23880 0.56613
 C55 C 0.43881 0.23985 0.56910
 C56 C 0.56040 0.24110 0.43062
 O57 O 0.70255 0.04408 -0.05193
 O58 O 0.70296 -0.04709 0.05198
 O59 O 0.70170 0.04485 0.05111
 O60 O 0.70302 -0.04758 -0.05100
 O61 O 0.78041 -0.04759 -0.04865
 O62 O 0.77912 0.04632 0.04993
 O63 O 0.78032 -0.04455 0.05363
 O64 O 0.77997 0.04389 -0.05159
 Cu65 Cu 0.69466 -0.00154 0.00003
 Cu66 Cu 0.78773 -0.00051 0.00078
 C67 C 0.74142 0.05984 -0.06873
 C68 C 0.74188 -0.06147 0.07006
 C69 C 0.74034 0.06189 0.06685
 C70 C 0.74212 -0.06380 -0.06628
 O71 O 0.20229 0.54641 0.44995
 O72 O 0.20264 0.45364 0.55191
 O73 O 0.20352 0.54553 0.55300
 O74 O 0.20305 0.45456 0.44884
 O75 O 0.28042 0.45699 0.44658
 O76 O 0.28090 0.54310 0.55444
 O77 O 0.27999 0.45203 0.54875
 O78 O 0.27966 0.54804 0.45226
 Cu79 Cu 0.19500 0.50003 0.50098
 Cu80 Cu 0.28799 0.50005 0.50046
 C81 C 0.24106 0.56362 0.43479
 C82 C 0.24148 0.43645 0.56664
 C83 C 0.24249 0.55979 0.57114
 C84 C 0.24187 0.44031 0.43029
 O85 O 0.29621 1.04795 0.05181
 O86 O 0.29555 0.95548 -0.05058
 O87 O 0.29586 1.04741 -0.05121
 O88 O 0.29592 0.95595 0.05233
 O89 O 0.21849 0.95607 0.05206
 O90 O 0.21851 1.04845 -0.04869
 O91 O 0.21816 0.95701 -0.05089
 O92 O 0.21882 1.04667 0.05340
 Cu93 Cu 0.30375 1.00166 0.00051
 Cu94 Cu 0.21074 1.00196 0.00136
 C95 C 0.25749 1.06316 0.06966
 C96 C 0.25658 0.94041 -0.06775
 C97 C 0.25698 1.06413 -0.06658
 C98 C 0.25705 0.94026 0.06924
 O99 O 0.79792 0.54496 0.55062
 O100 O 0.79629 0.45423 0.44665
 O101 O 0.79754 0.54597 0.44762
 O102 O 0.79736 0.45300 0.54945
 O103 O 0.71993 0.45351 0.54957
 O104 O 0.72018 0.54759 0.45058
 O105 O 0.71888 0.45636 0.44675
 O106 O 0.72048 0.54403 0.55261
 Cu107 Cu 0.80516 0.49946 0.49850
 Cu108 Cu 0.71209 0.50034 0.49983
 C109 C 0.75931 0.55999 0.56889
 C110 C 0.75712 0.43980 0.42940
 C111 C 0.75872 0.56311 0.43269
 C112 C 0.75849 0.43722 0.56624
 C113 C 0.24782 0.21338 0.21136
 C114 C 0.21506 0.25094 0.20808
 C115 C 0.21789 0.28714 0.24569
 C116 C 0.25246 0.28909 0.28521
 C117 C 0.28516 0.25151 0.28854
 C118 C 0.28244 0.21540 0.25080
 H119 H 0.30892 0.18870 0.25119
 H120 H 0.19145 0.31389 0.24522
 C121 C 0.75244 0.78928 0.21275
 C122 C 0.78620 0.75256 0.21095
 C123 C 0.78441 0.71770 0.25029
 C124 C 0.74964 0.71609 0.28973
 C125 C 0.71332 0.75028 0.28828
 C126 C 0.71647 0.78643 0.25065
 H127 H 0.69001 0.81318 0.25081
 H128 H 0.81089 0.69095 0.25016
 C129 C 0.78589 0.24937 0.20981
 C130 C 0.74914 0.21559 0.20803
 C131 C 0.71400 0.21750 0.24699
 C132 C 0.71218 0.25233 0.28620
 C133 C 0.74624 0.28882 0.28462
 C134 C 0.78268 0.28563 0.24727
 H135 H 0.80943 0.31216 0.24745
 H136 H 0.68728 0.19095 0.24688
 C137 C 0.21285 0.75274 0.21326
 C138 C 0.24679 0.78939 0.21460
 C139 C 0.28297 0.78667 0.25221
 C140 C 0.28616 0.75073 0.29009
 C141 C 0.24970 0.71660 0.29195
 C142 C 0.21474 0.71806 0.25276
 H143 H 0.18822 0.69130 0.25293
 H144 H 0.30957 0.81334 0.25193
 C145 C 0.71528 0.24774 0.70781
 C146 C 0.74905 0.28451 0.70949
 C147 C 0.78505 0.28163 0.74724
 C148 C 0.78808 0.24548 0.78489
 C149 C 0.75173 0.21127 0.78641
 C150 C 0.71707 0.21281 0.74700
 H151 H 0.69056 0.18604 0.74692
 H152 H 0.81151 0.30842 0.74740
 C153 C 0.28620 0.74854 0.71315
 C154 C 0.25343 0.71091 0.71635
 C155 C 0.21846 0.71295 0.75552
 C156 C 0.21515 0.74935 0.79282
 C157 C 0.24774 0.78712 0.78950
 C158 C 0.28288 0.78496 0.75049
 H159 H 0.30925 0.81183 0.75012
 H160 H 0.19205 0.68612 0.75591
 C161 C 0.24975 0.28372 0.70993
 C162 C 0.28705 0.25070 0.71339
 C163 C 0.28481 0.21615 0.75301
 C164 C 0.24861 0.21366 0.79070
 C165 C 0.21127 0.24665 0.78719
 C166 C 0.21354 0.28121 0.74761
 H167 H 0.18702 0.30788 0.74713
 H168 H 0.31138 0.18953 0.75359
 C169 C 0.74990 0.71104 0.71350
 C170 C 0.71566 0.74732 0.71215
 C171 C 0.71748 0.78210 0.75148
 C172 C 0.75259 0.78397 0.79048
 C173 C 0.78937 0.75028 0.78852
 C174 C 0.78631 0.71425 0.75079
 H175 H 0.81312 0.68785 0.75044
 H176 H 0.69073 0.80857 0.75172
 C177 C 0.27970 0.12681 0.18288
 C178 C 0.23842 0.09607 0.16380
 C179 C 0.25671 0.10017 0.10687
 C180 C 0.29823 0.13015 0.12535
 C181 C 0.22693 0.14402 0.09757
 C182 C 0.20845 0.14047 0.15526
 C183 C 0.24957 0.17142 0.17373
 C184 C 0.26845 0.17474 0.11657
 H185 H 0.30139 0.11713 0.21764
 H186 H 0.22638 0.06326 0.18314
 H187 H 0.33529 0.12560 0.11307
 H188 H 0.20551 0.15059 0.06163
 H189 H 0.17152 0.14118 0.16828
 H190 H 0.28178 0.20692 0.09701
 C191 C 0.78178 0.62487 0.68467
 C192 C 0.74058 0.59408 0.66559
 C193 C 0.75870 0.59847 0.60862
 C194 C 0.80012 0.62856 0.62710
 C195 C 0.72870 0.64224 0.59971
 C196 C 0.71040 0.63835 0.65740
 C197 C 0.75146 0.66934 0.67581
 C198 C 0.77014 0.67303 0.61864
 H199 H 0.80353 0.61528 0.71942
 H200 H 0.72876 0.56110 0.68471
 H201 H 0.83713 0.62412 0.61460
 H202 H 0.70712 0.64881 0.56390
 H203 H 0.67352 0.63890 0.67056
 H204 H 0.78315 0.70540 0.59921
 C205 C 0.72074 0.87563 0.18407
 C206 C 0.76186 0.90628 0.16425
 C207 C 0.74313 0.90183 0.10759
 C208 C 0.70177 0.87194 0.12680
 C209 C 0.77289 0.85795 0.09827
 C210 C 0.79179 0.86183 0.15571
 C211 C 0.75080 0.83100 0.17489
 C212 C 0.73152 0.82733 0.11800
 H213 H 0.69938 0.88543 0.21910
 H214 H 0.77401 0.93921 0.18317
 H215 H 0.66462 0.87640 0.11495
 H216 H 0.79409 0.85115 0.06217
 H217 H 0.82881 0.86117 0.16829
 H218 H 0.71814 0.79501 0.09885
 C219 C 0.20260 0.35398 0.65993
 C220 C 0.23272 0.39884 0.66426
 C221 C 0.24227 0.39634 0.60451
 C222 C 0.21199 0.35217 0.59965
 C223 C 0.28607 0.36643 0.61381
 C224 C 0.27668 0.36846 0.67429
 C225 C 0.24691 0.32359 0.66965
 C226 C 0.25571 0.32156 0.60941
 H227 H 0.16688 0.35003 0.67668
 H228 H 0.22306 0.43092 0.68656
 H229 H 0.18509 0.34589 0.56872
 H230 H 0.32054 0.37220 0.59448
 H231 H 0.30291 0.37587 0.70561
 H232 H 0.26252 0.29075 0.58412
 C233 C 0.82522 0.26878 0.11513
 C234 C 0.86973 0.29868 0.12395
 C235 C 0.89989 0.25708 0.10612
 C236 C 0.85606 0.22715 0.09687
 C237 C 0.90350 0.23935 0.16331
 C238 C 0.87265 0.28075 0.18169
 C239 C 0.82810 0.25051 0.17252
 C240 C 0.85915 0.20924 0.15480
 H241 H 0.79319 0.28184 0.09514
 H242 H 0.87443 0.33561 0.11127
 H243 H 0.84978 0.20532 0.06117
 H244 H 0.93617 0.22755 0.18300
 H245 H 0.88198 0.30276 0.21634
 H246 H 0.85825 0.17244 0.16824
 C247 C 0.37119 0.72192 0.67754
 C248 C 0.36910 0.71296 0.61698
 C249 C 0.39904 0.75686 0.60796
 C250 C 0.40163 0.76599 0.66777
 C251 C 0.35488 0.78711 0.60344
 C252 C 0.32426 0.74329 0.61291
 C253 C 0.32634 0.75167 0.67320
 C254 C 0.35677 0.79607 0.66378
 H255 H 0.37859 0.69547 0.70865
 H256 H 0.37487 0.67867 0.59735
 H257 H 0.43374 0.77551 0.69007
 H258 H 0.34856 0.81423 0.57274
 H259 H 0.29339 0.73657 0.58768
 H260 H 0.35293 0.83167 0.68081
 C261 C 0.14281 0.70429 0.16416
 C262 C 0.09780 0.73430 0.16721
 C263 C 0.10087 0.74263 0.10724
 C264 C 0.14517 0.71244 0.10365
 C265 C 0.13067 0.78671 0.11579
 C266 C 0.12805 0.77856 0.17647
 C267 C 0.17302 0.74891 0.17304
 C268 C 0.17561 0.75645 0.11263
 H269 H 0.14680 0.66904 0.18207
 H270 H 0.06553 0.72496 0.18941
 H271 H 0.15182 0.68492 0.07350
 H272 H 0.12509 0.82076 0.09553
 H273 H 0.12029 0.80542 0.20701
 H274 H 0.20668 0.76296 0.08758
 C275 C 0.63039 0.27392 0.67308
 C276 C 0.63206 0.28307 0.61258
 C277 C 0.60217 0.23911 0.60378
 C278 C 0.60005 0.22979 0.66357
 C279 C 0.64637 0.20901 0.59852
 C280 C 0.67693 0.25290 0.60779
 C281 C 0.67528 0.24436 0.66805
 C282 C 0.64498 0.19986 0.65888
 H283 H 0.62320 0.30029 0.70434
 H284 H 0.62613 0.31744 0.59315
 H285 H 0.56813 0.22006 0.68620
 H286 H 0.65246 0.18202 0.56763
 H287 H 0.70760 0.25982 0.58225
 H288 H 0.64932 0.16430 0.67589
 C289 C 0.70376 0.14098 0.83564
 C290 C 0.73405 0.09618 0.83251
 C291 C 0.74236 0.09924 0.89244
 C292 C 0.71190 0.14333 0.89612
 C293 C 0.78626 0.12931 0.88384
 C294 C 0.77813 0.12670 0.82318
 C295 C 0.74819 0.17147 0.82668
 C296 C 0.75573 0.17405 0.88706
 H297 H 0.66844 0.14476 0.81786
 H298 H 0.72490 0.06388 0.81034
 H299 H 0.68435 0.14975 0.92633
 H300 H 0.82035 0.12392 0.90404
 H301 H 0.80504 0.11918 0.79259
 H302 H 0.76204 0.20514 0.91208
 C303 C 0.25517 0.67857 0.39231
 C304 C 0.21140 0.64786 0.40186
 C305 C 0.24171 0.60376 0.39696
 C306 C 0.28555 0.63378 0.38786
 C307 C 0.23241 0.60136 0.33717
 C308 C 0.20228 0.64618 0.34152
 C309 C 0.24664 0.67664 0.33205
 C310 C 0.27641 0.63184 0.32735
 H311 H 0.26190 0.70935 0.41767
 H312 H 0.18437 0.65402 0.43272
 H313 H 0.31993 0.62807 0.40727
 H314 H 0.22283 0.56931 0.31476
 H315 H 0.16672 0.65028 0.32450
 H316 H 0.30279 0.62456 0.29611
 C317 C 0.26746 0.82663 0.88399
 C318 C 0.29705 0.87132 0.87486
 C319 C 0.25539 0.90125 0.89305
 C320 C 0.22577 0.85724 0.90260
 C321 C 0.23732 0.90476 0.83600
 C322 C 0.27878 0.87415 0.81727
 C323 C 0.24885 0.82941 0.82674
 C324 C 0.20751 0.86023 0.84483
 H325 H 0.28086 0.79469 0.90390
 H326 H 0.33404 0.87620 0.88719
 H327 H 0.20421 0.85083 0.93853
 H328 H 0.22521 0.93736 0.81637
 H329 H 0.30058 0.88374 0.78250
 H330 H 0.17063 0.85917 0.83172
 C331 C 0.76691 0.32688 0.37923
 C332 C 0.79671 0.37146 0.37040
 C333 C 0.75541 0.40137 0.38958
 C334 C 0.72559 0.35747 0.39884
 C335 C 0.73677 0.40578 0.33288
 C336 C 0.77785 0.37518 0.31313
 C337 C 0.74773 0.33055 0.32232
 C338 C 0.70676 0.36135 0.34139
 H339 H 0.78019 0.29454 0.39841
 H340 H 0.83383 0.37599 0.38235
 H341 H 0.70432 0.35075 0.43492
 H342 H 0.72469 0.43874 0.31399
 H343 H 0.79925 0.38488 0.27807
 H344 H 0.66976 0.36067 0.32873
 C345 C 0.12486 0.27901 0.81537
 C346 C 0.09401 0.23801 0.83510
 C347 C 0.09825 0.25682 0.89176
 C348 C 0.12833 0.29807 0.87265
 C349 C 0.14201 0.22699 0.90134
 C350 C 0.13832 0.20798 0.84392
 C351 C 0.16936 0.24883 0.82482
 C352 C 0.17283 0.26823 0.88169
 H353 H 0.11522 0.30039 0.78033
 H354 H 0.06113 0.22591 0.81605
 H355 H 0.12389 0.33525 0.88445
 H356 H 0.14855 0.20589 0.93755
 H357 H 0.13888 0.17094 0.83138
 H358 H 0.20510 0.28159 0.90096
 C359 C 0.62718 0.78246 0.31713
 C360 C 0.59622 0.74134 0.33616
 C361 C 0.60048 0.75937 0.39315
 C362 C 0.63075 0.80072 0.37470
 C363 C 0.64414 0.72923 0.40213
 C364 C 0.64037 0.71102 0.34443
 C365 C 0.67156 0.75199 0.32604
 C366 C 0.67512 0.77060 0.38323
 H367 H 0.61767 0.80430 0.28240
 H368 H 0.56326 0.72964 0.31695
 H369 H 0.62640 0.83772 0.38718
 H370 H 0.65056 0.70760 0.43796
 H371 H 0.64079 0.67415 0.33126
 H372 H 0.70746 0.78352 0.40274
 C373 C 0.82825 0.72999 0.88312
 C374 C 0.87288 0.70032 0.87414
 C375 C 0.90283 0.74189 0.89260
 C376 C 0.85891 0.77157 0.90208
 C377 C 0.90678 0.76023 0.83568
 C378 C 0.87608 0.71890 0.81662
 C379 C 0.83142 0.74889 0.82598
 C380 C 0.86231 0.79008 0.84440
 H381 H 0.79612 0.71664 0.90279
 H382 H 0.87752 0.66326 0.88631
 H383 H 0.85230 0.79302 0.93802
 H384 H 0.93953 0.77235 0.81625
 H385 H 0.88561 0.69730 0.78171
 H386 H 0.86142 0.82702 0.83145
 C387 C 0.32245 0.25667 0.38915
 C388 C 0.35264 0.21266 0.39885
 C389 C 0.39706 0.24262 0.39442
 C390 C 0.36758 0.28671 0.38520
 C391 C 0.39989 0.23337 0.33465
 C392 C 0.35477 0.20359 0.33855
 C393 C 0.32480 0.24818 0.32890
 C394 C 0.36992 0.27763 0.32468
 H395 H 0.29153 0.26358 0.41428
 H396 H 0.34596 0.18565 0.42960
 H397 H 0.37353 0.32100 0.40477
 H398 H 0.43205 0.22359 0.31253
 H399 H 0.35066 0.16798 0.32160
 H400 H 0.37771 0.30397 0.29354
 C401 C 0.75767 0.82171 0.89087
 C402 C 0.78763 0.86686 0.88664
 C403 C 0.74348 0.89632 0.89571
 C404 C 0.71360 0.85187 0.90041
 C405 C 0.73426 0.89884 0.83593
 C406 C 0.77857 0.86890 0.82612
 C407 C 0.74921 0.82376 0.83061
 C408 C 0.70455 0.85367 0.84009
 H409 H 0.76464 0.79092 0.91612
 H410 H 0.82191 0.87293 0.90618
 H411 H 0.68658 0.84531 0.93121
 H412 H 0.72442 0.93086 0.81363
 H413 H 0.80495 0.87654 0.79495
 H414 H 0.66902 0.84926 0.82306
 C415 C 0.29158 0.36171 0.34206
 C416 C 0.26171 0.40617 0.33356
 C417 C 0.24298 0.40184 0.39032
 C418 C 0.27266 0.35788 0.39952
 C419 C 0.20163 0.37193 0.37119
 C420 C 0.22057 0.37557 0.31387
 C421 C 0.25058 0.33090 0.32300
 C422 C 0.23129 0.32730 0.37995
 H423 H 0.32862 0.36094 0.32944
 H424 H 0.27391 0.43908 0.31460
 H425 H 0.29382 0.35116 0.43561
 H426 H 0.16450 0.37649 0.38317
 H427 H 0.19914 0.38545 0.27896
 H428 H 0.21779 0.29503 0.39917
 C429 C 0.22172 0.12911 0.82705
 C430 C 0.26564 0.09869 0.83732
 C431 C 0.25617 0.10180 0.89703
 C432 C 0.21239 0.13170 0.88754
 C433 C 0.28658 0.14592 0.90142
 C434 C 0.29585 0.14358 0.84110
 C435 C 0.25157 0.17397 0.83117
 C436 C 0.24288 0.17653 0.89140
 H437 H 0.19544 0.12149 0.79584
 H438 H 0.27520 0.06641 0.81534
 H439 H 0.17790 0.12624 0.90694
 H440 H 0.31355 0.15246 0.93221
 H441 H 0.33152 0.14736 0.82416
 H442 H 0.23616 0.20759 0.91632
 C443 C 0.74470 0.67801 0.39009
 C444 C 0.71416 0.63324 0.38603
 C445 C 0.75796 0.60318 0.39469
 C446 C 0.78843 0.64726 0.39920
 C447 C 0.76687 0.60073 0.33479
 C448 C 0.72289 0.63125 0.32542
 C449 C 0.75282 0.67604 0.32974
 C450 C 0.79715 0.64553 0.33876
 H451 H 0.73821 0.70882 0.41549
 H452 H 0.67988 0.62759 0.40582
 H453 H 0.81569 0.65344 0.42975
 H454 H 0.77620 0.56866 0.31230
 H455 H 0.69629 0.62396 0.29447
 H456 H 0.83261 0.64958 0.32133
 C457 C 0.12987 0.77549 0.82714
 C458 C 0.09966 0.73133 0.83733
 C459 C 0.10171 0.74130 0.89696
 C460 C 0.13139 0.78534 0.88752
 C461 C 0.14601 0.71145 0.90265
 C462 C 0.14475 0.70165 0.84241
 C463 C 0.17490 0.74619 0.83255
 C464 C 0.17640 0.75539 0.89269
 H465 H 0.12258 0.80146 0.79548
 H466 H 0.06784 0.72122 0.81482
 H467 H 0.12534 0.81993 0.90638
 H468 H 0.15225 0.68480 0.93391
 H469 H 0.14914 0.66589 0.82599
 H470 H 0.20700 0.76273 0.91812
 C471 C 0.62725 0.27821 0.32259
 C472 C 0.59713 0.23387 0.33203
 C473 C 0.59991 0.24249 0.39193
 C474 C 0.62957 0.28665 0.38322
 C475 C 0.64429 0.21249 0.39592
 C476 C 0.64222 0.20404 0.33549
 C477 C 0.67230 0.24873 0.32639
 C478 C 0.67460 0.25657 0.38675
 H479 H 0.61959 0.30492 0.29185
 H480 H 0.56500 0.22430 0.30981
 H481 H 0.62378 0.32077 0.40323
 H482 H 0.65088 0.18515 0.42629
 H483 H 0.64640 0.16867 0.31795
 H484 H 0.70553 0.26329 0.41187
 C485 C 0.82553 0.26680 0.87970
 C486 C 0.85626 0.22570 0.89960
 C487 C 0.90002 0.25574 0.89043
 C488 C 0.87001 0.29682 0.87098
 C489 C 0.90476 0.23693 0.83381
 C490 C 0.86049 0.20670 0.84224
 C491 C 0.82956 0.24743 0.82287
 C492 C 0.87406 0.27777 0.81379
 H493 H 0.79303 0.27995 0.89868
 H494 H 0.84949 0.20456 0.93575
 H495 H 0.87431 0.33399 0.88286
 H496 H 0.93787 0.22498 0.81513
 H497 H 0.86017 0.16967 0.82967
 H498 H 0.88390 0.29909 0.77873
 C499 C 0.32499 0.77100 0.38486
 C500 C 0.35600 0.72960 0.40337
 C501 C 0.39970 0.75973 0.39406
 C502 C 0.36940 0.80112 0.37599
 C503 C 0.40356 0.74181 0.33696
 C504 C 0.35938 0.71149 0.34557
 C505 C 0.32816 0.75250 0.32757
 C506 C 0.37257 0.78298 0.31832
 H507 H 0.29282 0.78393 0.40473
 H508 H 0.34970 0.70789 0.43919
 H509 H 0.37389 0.83810 0.38851
 H510 H 0.43636 0.73013 0.31737
 H511 H 0.35878 0.67464 0.33235
 H512 H 0.38193 0.80491 0.28358
 C513 C 0.20736 0.86156 0.15730
 C514 C 0.23725 0.90607 0.16556
 C515 C 0.25596 0.90157 0.10883
 C516 C 0.22626 0.85755 0.09985
 C517 C 0.29732 0.87185 0.12811
 C518 C 0.27839 0.87567 0.18540
 C519 C 0.24838 0.83093 0.17650
 C520 C 0.26765 0.82713 0.11957
 H521 H 0.17036 0.86095 0.17002
 H522 H 0.22507 0.93905 0.18431
 H523 H 0.20509 0.85062 0.06380
 H524 H 0.33444 0.87646 0.11606
 H525 H 0.29973 0.88564 0.22035
 H526 H 0.28105 0.79478 0.10052
 C527 C 0.70930 0.35746 0.65374
 C528 C 0.73941 0.40179 0.66225
 C529 C 0.75745 0.39793 0.60518
 C530 C 0.72751 0.35411 0.59594
 C531 C 0.79893 0.36784 0.62339
 C532 C 0.78068 0.37102 0.68101
 C533 C 0.75043 0.32646 0.67188
 C534 C 0.76903 0.32331 0.61460
 H535 H 0.67243 0.35673 0.66700
 H536 H 0.72753 0.43456 0.68171
 H537 H 0.70588 0.34769 0.56013
 H538 H 0.83593 0.37246 0.61089
 H539 H 0.80249 0.38059 0.71572
 H540 H 0.78214 0.29117 0.59485
 C541 C 0.77531 0.13047 0.17377
 C542 C 0.73112 0.10025 0.16412
 C543 C 0.74076 0.10211 0.10438
 C544 C 0.78479 0.13187 0.11332
 C545 C 0.71086 0.14638 0.09876
 C546 C 0.70137 0.14526 0.15906
 C547 C 0.74593 0.17544 0.16838
 C548 C 0.75481 0.17683 0.10817
 H549 H 0.80149 0.12331 0.20521
 H550 H 0.72115 0.06846 0.18682
 H551 H 0.81925 0.12573 0.09414
 H552 H 0.68405 0.15245 0.06769
 H553 H 0.66572 0.14978 0.17579
 H554 H 0.76194 0.20735 0.08250
 C555 C 0.29259 0.63816 0.65949
 C556 C 0.26245 0.59378 0.66788
 C557 C 0.24390 0.59824 0.61112
 C558 C 0.27385 0.64211 0.60201
 C559 C 0.20266 0.62827 0.63026
 C560 C 0.22141 0.62448 0.68758
 C561 C 0.25169 0.66908 0.67856
 C562 C 0.23259 0.67281 0.62159
 H563 H 0.32959 0.63874 0.67217
 H564 H 0.27441 0.56081 0.68680
 H565 H 0.29515 0.64882 0.56596
 H566 H 0.16554 0.62386 0.61824
 H567 H 0.19985 0.61459 0.72244
 H568 H 0.21935 0.70515 0.60239
 C569 C 0.82343 0.75686 0.11020
 C570 C 0.86847 0.78706 0.11361
 C571 C 0.89810 0.74298 0.10478
 C572 C 0.85375 0.71285 0.10091
 C573 C 0.90101 0.73430 0.16468
 C574 C 0.87092 0.77855 0.17422
 C575 C 0.82588 0.74895 0.17055
 C576 C 0.85595 0.70435 0.16135
 H577 H 0.79244 0.76353 0.08518
 H578 H 0.87423 0.82120 0.09358
 H579 H 0.84710 0.68553 0.07054
 H580 H 0.93321 0.72479 0.18680
 H581 H 0.87866 0.80522 0.20497
 H582 H 0.85181 0.66897 0.17893
 C583 C 0.37331 0.21814 0.68490
 C584 C 0.36978 0.19959 0.62745
 C585 C 0.40009 0.24082 0.60873
 C586 C 0.40431 0.25917 0.66561
 C587 C 0.35643 0.27090 0.59951
 C588 C 0.32542 0.22966 0.61868
 C589 C 0.32894 0.24858 0.67575
 C590 C 0.36015 0.28945 0.65709
 H591 H 0.38289 0.19642 0.71969
 H592 H 0.37412 0.16251 0.61524
 H593 H 0.43724 0.27098 0.68477
 H594 H 0.35008 0.29233 0.56350
 H595 H 0.29311 0.21657 0.59926
 H596 H 0.35961 0.32641 0.66994
 C597 C 0.17712 0.24519 0.10788
 C598 C 0.13222 0.21492 0.11251
 C599 C 0.10237 0.25874 0.10319
 C600 C 0.14658 0.28895 0.09810
 C601 C 0.09990 0.26835 0.16291
 C602 C 0.13022 0.22435 0.17295
 C603 C 0.17514 0.25402 0.16807
 C604 C 0.14483 0.29838 0.15837
 H605 H 0.20790 0.23831 0.08254
 H606 H 0.12634 0.18046 0.09328
 H607 H 0.15285 0.31582 0.06708
 H608 H 0.06784 0.27807 0.18524
 H609 H 0.12281 0.19817 0.20438
 H610 H 0.14889 0.33409 0.17507
 C611 C 0.64525 0.79514 0.66328
 C612 C 0.64701 0.78662 0.60284
 C613 C 0.60272 0.75640 0.60722
 C614 C 0.60026 0.76511 0.66715
 C615 C 0.63255 0.71240 0.61576
 C616 C 0.67751 0.74270 0.61181
 C617 C 0.67552 0.75063 0.67220
 C618 C 0.63055 0.72093 0.67642
 H619 H 0.64943 0.83054 0.68076
 H620 H 0.65342 0.81396 0.57238
 H621 H 0.56822 0.77454 0.68969
 H622 H 0.62675 0.67821 0.59588
 H623 H 0.70832 0.73615 0.58639
 H624 H 0.62305 0.69425 0.70728
   
