data_POSCAR
  _audit_creation_date              2014-09-24
  _audit_creation_method            'ToBaCCo'
  _symmetry_space_group_name_H-M    'P1'
  _symmetry_Int_Tables_number       1
  _symmetry_cell_setting            triclinic
  loop_
  _symmetry_equiv_pos_as_xyz
 x,y,z
_cell_length_a 29.9140
_cell_length_b 30.0058
_cell_length_c 29.9755
_cell_angle_alpha 83.544300
_cell_angle_beta 98.233200
_cell_angle_gamma 97.847800
loop_
  _atom_site_label
  _atom_site_type_symbol
  _atom_site_fract_x
  _atom_site_fract_y
  _atom_site_fract_z
C1 C 0.59641 0.54521 -0.00927
 C2 C 0.58753 0.58863 -0.00239
 C3 C 0.54478 0.59765 0.00622
 C4 C 0.51015 0.56046 0.01138
 C5 C 0.51671 0.51714 0.00044
 C6 C 0.55926 0.50989 -0.01162
 C7 C 0.56232 0.46829 -0.02787
 C8 C 0.52736 0.43281 -0.02606
 C9 C 0.48715 0.43753 -0.00899
 C10 C 0.48060 0.48074 0.00192
 C11 C 0.47050 0.56420 0.03018
 C12 C 0.43553 0.52871 0.03184
 C13 C 0.43825 0.48757 0.01469
 C14 C 0.40128 0.45194 0.01298
 C15 C 0.41042 0.40856 0.00621
 C16 C 0.45273 0.40061 -0.00394
 H17 H 0.59094 0.46281 -0.04385
 H18 H 0.53186 0.40199 -0.03947
 H19 H 0.46664 0.59375 0.04605
 H20 H 0.40740 0.53354 0.04892
 H21 H 0.61483 0.61626 -0.00354
 H22 H 0.38386 0.38021 0.00772
 C23 C -0.00270 0.59905 0.45482
 C24 C 0.00675 0.59044 0.41244
 C25 C 0.01272 0.54696 0.40276
 C26 C 0.01400 0.51183 0.43912
 C27 C 0.00233 0.51956 0.48175
 C28 C -0.00743 0.56288 0.48909
 C29 C -0.02264 0.56853 0.53013
 C30 C -0.02437 0.53366 0.56475
 C31 C -0.01085 0.49162 0.55993
 C32 C 0.00083 0.48391 0.51740
 C33 C 0.02935 0.47022 0.43539
 C34 C 0.02759 0.43539 0.47004
 C35 C 0.01137 0.44074 0.51054
 C36 C 0.00737 0.40474 0.54518
 C37 C -0.00210 0.41356 0.58751
 C38 C -0.00988 0.45662 0.59594
 H39 H -0.03436 0.59969 0.53576
 H40 H -0.03742 0.53992 0.59496
 H41 H 0.04494 0.46436 0.40664
 H42 H 0.04067 0.40470 0.46513
 H43 H 0.00824 0.61837 0.38620
 H44 H -0.00319 0.38634 0.61453
 C45 C 0.54721 0.00679 0.59868
 C46 C 0.59041 -0.00082 0.58997
 C47 C 0.59942 -0.00808 0.54671
 C48 C 0.56221 -0.01158 0.51125
 C49 C 0.51927 -0.00021 0.51809
 C50 C 0.51228 0.01087 0.56126
 C51 C 0.47156 0.02816 0.56472
 C52 C 0.43633 0.02838 0.52910
 C53 C 0.44041 0.01219 0.48794
 C54 C 0.48306 0.00010 0.48150
 C55 C 0.56561 -0.02845 0.46998
 C56 C 0.53035 -0.02803 0.43437
 C57 C 0.48955 -0.01173 0.43858
 C58 C 0.45429 -0.00875 0.40167
 C59 C 0.41160 0.00045 0.40960
 C60 C 0.40363 0.00947 0.45242
 H61 H 0.46675 0.04357 0.59423
 H62 H 0.40636 0.04281 0.53388
 H63 H 0.59470 -0.04405 0.46498
 H64 H 0.53506 -0.04210 0.40396
 H65 H 0.61789 -0.00106 0.61773
 H66 H 0.38398 0.00051 0.38191
 O67 O 0.46759 -0.00491 -0.07023
 O68 O 0.45491 -0.01457 0.05119
 O69 O 0.45491 0.05114 -0.01386
 O70 O 0.46713 -0.07027 -0.00552
 O71 O 0.54156 -0.05430 0.01122
 O72 O 0.52930 0.06697 0.00328
 O73 O 0.52932 0.00160 0.06781
 O74 O 0.54199 0.01116 -0.05333
 Cu75 Cu 0.45365 -0.01117 -0.01126
 Cu76 Cu 0.54299 0.00796 0.00891
 C77 C 0.50705 0.00441 -0.08236
 C78 C 0.48999 -0.00799 0.08013
 C79 C 0.48999 0.07968 -0.00647
 C80 C 0.50650 -0.08289 0.00398
 O81 O -0.05397 0.54247 0.98854
 O82 O 0.06796 0.52947 0.99872
 O83 O 0.00172 0.53063 0.93254
 O84 O 0.01270 0.54240 1.05450
 O85 O -0.00349 0.46848 1.06824
 O86 O -0.01559 0.45680 0.94581
 O87 O 0.05140 0.45554 1.01186
 O88 O -0.07032 0.46860 1.00256
 Cu89 Cu 0.00873 0.54366 0.99221
 Cu90 Cu -0.01109 0.45491 1.00845
 C91 C -0.08284 0.50777 0.99415
 C92 C 0.08038 0.49021 1.00680
 C93 C -0.00871 0.49177 0.91840
 C94 C 0.00632 0.50754 1.08211
 O95 O -0.01281 -0.05238 0.45681
 O96 O -0.00297 0.06946 0.46868
 O97 O 0.05300 0.01423 0.45567
 O98 O -0.06852 0.00340 0.46921
 O99 O -0.05117 -0.00983 0.54327
 O100 O 0.07021 -0.00001 0.52964
 O101 O 0.01515 0.05601 0.54262
 O102 O 0.00458 -0.06581 0.53083
 Cu103 Cu -0.00954 0.00997 0.45512
 Cu104 Cu 0.01136 -0.00628 0.54405
 C105 C -0.00554 -0.07979 0.49179
 C106 C 0.00763 0.08341 0.50771
 C107 C 0.08224 0.00869 0.49034
 C108 C -0.08047 -0.00464 0.50858
 C109 C -0.26861 0.52835 0.98845
 N110 N -0.29960 0.49220 0.99740
 N111 N -0.34310 0.49744 0.99758
 C112 C -0.35772 0.53888 0.98840
 N113 N -0.32617 0.57501 0.98011
 N114 N -0.28268 0.56989 0.97993
 C115 C -0.22048 0.52284 0.98894
 N116 N -0.18934 0.55934 0.98141
 N117 N -0.14553 0.55452 0.98269
 C118 C -0.13127 0.51300 0.99149
 N119 N -0.16243 0.47647 0.99885
 N120 N -0.20623 0.48130 0.99760
 C121 C 0.26624 0.46887 1.01454
 N122 N 0.29749 0.50506 1.00658
 N123 N 0.34101 0.49975 1.00674
 C124 C 0.35543 0.45819 1.01529
 N125 N 0.32366 0.42201 1.02266
 N126 N 0.28011 0.42720 1.02250
 C127 C 0.21806 0.47455 1.01350
 N128 N 0.18662 0.43810 1.02012
 N129 N 0.14280 0.44313 1.01831
 C130 C 0.12881 0.48480 1.00984
 N131 N 0.16027 0.52126 1.00337
 N132 N 0.20409 0.51623 1.00516
 C133 C -0.00891 -0.26515 0.47230
 N134 N 0.01154 -0.29247 0.50602
 N135 N 0.01305 -0.33570 0.50074
 C136 C -0.00636 -0.35344 0.46179
 N137 N -0.02648 -0.32591 0.42794
 N138 N -0.02778 -0.28261 0.43310
 C139 C -0.00945 -0.21724 0.47766
 N140 N -0.02373 -0.18840 0.44186
 N141 N -0.02289 -0.14463 0.44643
 C142 C -0.00800 -0.12819 0.48703
 N143 N 0.00596 -0.15708 0.52290
 N144 N 0.00535 -0.20080 0.51827
 C145 C 0.01295 0.26888 0.52766
 N146 N -0.00651 0.29657 0.49364
 N147 N -0.00772 0.33982 0.49897
 C148 C 0.01101 0.35723 0.53828
 N149 N 0.03013 0.32934 0.57244
 N150 N 0.03115 0.28600 0.56721
 C151 C 0.01300 0.22093 0.52219
 N152 N 0.02676 0.19185 0.55798
 N153 N 0.02543 0.14804 0.55329
 C154 C 0.01051 0.13181 0.51259
 N155 N -0.00295 0.16095 0.47674
 N156 N -0.00181 0.20471 0.48148
 C157 C 0.52921 0.00833 -0.26688
 N158 N 0.49286 -0.00012 -0.29871
 N159 N 0.49853 -0.00023 -0.34198
 C160 C 0.54062 0.00850 -0.35551
 N161 N 0.57693 0.01612 -0.32313
 N162 N 0.57138 0.01626 -0.27986
 C163 C 0.52320 0.00821 -0.21907
 N164 N 0.55981 0.01635 -0.18736
 N165 N 0.55457 0.01557 -0.14388
 C166 C 0.51253 0.00669 -0.13050
 N167 N 0.47588 -0.00131 -0.16221
 N168 N 0.48112 -0.00053 -0.20572
 C169 C 0.47089 -0.01435 0.26563
 N170 N 0.50555 0.00396 0.29496
 N171 N 0.50057 0.00500 0.33826
 C172 C 0.46098 -0.01279 0.35415
 N173 N 0.42623 -0.03086 0.32463
 N174 N 0.43110 -0.03170 0.28124
 C175 C 0.47600 -0.01404 0.21757
 N176 N 0.43970 -0.02654 0.18692
 N177 N 0.44415 -0.02490 0.14313
 C178 C 0.48512 -0.01090 0.12845
 N179 N 0.52145 0.00131 0.15915
 N180 N 0.51695 -0.00012 0.20288
 C181 C 0.52736 -0.26776 0.00784
 N182 N 0.56952 -0.28105 0.01471
 N183 N 0.57486 -0.32436 0.01457
 C184 C 0.53836 -0.35650 0.00803
 N185 N 0.49622 -0.34271 0.00045
 N186 N 0.49077 -0.29937 0.00053
 C187 C 0.52168 -0.21984 0.00764
 N188 N 0.47968 -0.20595 -0.00075
 N189 N 0.47478 -0.16236 -0.00158
 C190 C 0.51168 -0.13108 0.00604
 N191 N 0.55364 -0.14500 0.01457
 N192 N 0.55854 -0.18856 0.01536
 C193 C 0.47012 0.26477 -0.00986
 N194 N 0.43007 0.28041 -0.02699
 N195 N 0.42491 0.32367 -0.02587
 C196 C 0.45962 0.35306 -0.00771
 N197 N 0.49949 0.33717 0.00989
 N198 N 0.50474 0.29396 0.00858
 C199 C 0.47551 0.21683 -0.01015
 N200 N 0.51657 0.20191 0.00367
 N201 N 0.52126 0.15830 0.00435
 C202 C 0.48503 0.12795 -0.00858
 N203 N 0.44397 0.14287 -0.02247
 N204 N 0.43932 0.18652 -0.02334
 C205 C -0.26559 -0.00949 0.53006
 N206 N -0.29694 -0.00097 0.49379
 N207 N -0.34040 -0.00091 0.49903
 C208 C -0.35462 -0.00982 0.54057
 N209 N -0.32270 -0.01753 0.57686
 N210 N -0.27921 -0.01757 0.57174
 C211 C -0.21761 -0.00919 0.52440
 N212 N -0.18602 -0.01642 0.56089
 N213 N -0.14235 -0.01540 0.55583
 C214 C -0.12872 -0.00720 0.51407
 N215 N -0.16034 -0.00015 0.47756
 N216 N -0.20399 -0.00114 0.48263
 C217 C 0.26759 0.01476 0.46948
 N218 N 0.28352 0.03214 0.43017
 N219 N 0.32693 0.03131 0.42507
 C220 C 0.35608 0.01320 0.45913
 N221 N 0.33980 -0.00474 0.49815
 N222 N 0.29652 -0.00368 0.50336
 C223 C 0.21962 0.01462 0.47499
 N224 N 0.20505 0.00128 0.51581
 N225 N 0.16135 -0.00004 0.52076
 C226 C 0.13055 0.01169 0.48501
 N227 N 0.14510 0.02511 0.44417
 N228 N 0.18888 0.02667 0.43928
 C229 C 0.01425 0.52894 1.26795
 N230 N 0.02390 0.57067 1.28276
 N231 N 0.02399 0.57619 1.32623
 C232 C 0.01487 0.54027 1.35698
 N233 N 0.00456 0.49865 1.34162
 N234 N 0.00446 0.49301 1.29815
 C235 C 0.01333 0.52306 1.21985
 N236 N 0.00321 0.48141 1.20470
 N237 N 0.00142 0.47634 1.16085
 C238 C 0.00969 0.51274 1.13060
 N239 N 0.01996 0.55433 1.14580
 N240 N 0.02178 0.55939 1.18962
 C241 C -0.01623 0.47380 0.73191
 N242 N 0.00444 0.50728 0.70484
 N243 N 0.00567 0.50222 0.66148
 C244 C -0.01432 0.46378 0.64328
 N245 N -0.03479 0.43021 0.67054
 N246 N -0.03579 0.43513 0.71400
 C247 C -0.01587 0.47874 0.78013
 N248 N -0.02972 0.44291 0.80891
 N249 N -0.02778 0.44707 0.85297
 C250 C -0.01216 0.48729 0.86976
 N251 N 0.00135 0.52319 0.84092
 N252 N -0.00034 0.51896 0.79693
   
