data_POSCAR
  _audit_creation_date              2014-09-24
  _audit_creation_method            'ToBaCCo'
  _symmetry_space_group_name_H-M    'P1'
  _symmetry_Int_Tables_number       1
  _symmetry_cell_setting            triclinic
  loop_
  _symmetry_equiv_pos_as_xyz
 x,y,z
_cell_length_a 51.7574
_cell_length_b 54.9933
_cell_length_c 53.8351
_cell_angle_alpha 90.344600
_cell_angle_beta 91.037100
_cell_angle_gamma 89.289200
loop_
  _atom_site_label
  _atom_site_type_symbol
  _atom_site_fract_x
  _atom_site_fract_y
  _atom_site_fract_z
C1 C 0.24670 0.50560 0.99683
 C2 C 0.74469 0.48845 0.00402
 C3 C 0.00204 0.25631 0.50502
 C4 C 1.00642 0.75132 0.49625
 C5 C 0.49178 0.00060 0.24279
 C6 C 0.51383 -0.00970 0.75511
 C7 C 0.28368 0.02106 0.46910
 H8 H 0.28440 0.03576 0.48254
 C9 C 0.29870 0.02200 0.44785
 H10 H 0.31116 0.03741 0.44523
 C11 C 0.26724 -0.01726 0.45682
 H12 H 0.25476 -0.03242 0.46018
 C13 C 0.28190 -0.01705 0.43530
 H14 H 0.28052 -0.03215 0.42236
 N15 N 0.26900 0.00128 0.47359
 C16 C 0.23183 0.04421 0.52564
 H17 H 0.24571 0.04097 0.54050
 C18 C 0.21554 0.06463 0.52665
 H19 H 0.21708 0.07698 0.54233
 C20 C 0.21332 0.03250 0.48686
 H21 H 0.21257 0.01977 0.47147
 C22 C 0.19677 0.05271 0.48705
 H23 H 0.18309 0.05530 0.47182
 Zn24 Zn 0.25138 0.00033 0.50420
 N25 N 0.23018 0.02849 0.50609
 C26 C 0.26628 -0.00362 0.55447
 N27 N 0.27540 -0.00078 0.53113
 C28 C 0.30119 0.00003 0.52694
 C29 C 0.31891 -0.00160 0.54666
 C30 C 0.28339 -0.00550 0.57479
 C31 C 0.20505 -0.02586 0.50961
 C32 C 0.19005 -0.04665 0.51149
 C33 C 0.22862 -0.07129 0.50651
 C34 C 0.24295 -0.05001 0.50510
 N35 N 0.23096 -0.02788 0.50614
 H36 H 0.24568 -0.00467 0.55724
 H37 H 0.30819 0.00171 0.50829
 H38 H 0.33933 -0.00044 0.54285
 H39 H 0.27578 -0.00814 0.59316
 H40 H 0.19596 -0.00815 0.51107
 H41 H 0.16940 -0.04474 0.51392
 H42 H 0.23837 -0.08879 0.50539
 H43 H 0.26368 -0.05109 0.50296
 C44 C 0.19764 0.06902 0.50722
 C45 C 0.29834 0.00252 0.43085
 C46 C 0.20181 -0.06970 0.50972
 C47 C 0.31014 -0.00458 0.57099
 C48 C 0.71742 0.02148 0.53372
 H49 H 0.71418 0.03627 0.52083
 C50 C 0.70349 0.02064 0.55568
 H51 H 0.68933 0.03478 0.55948
 C52 C 0.73911 -0.01544 0.54388
 H53 H 0.75272 -0.02967 0.53909
 C54 C 0.72558 -0.01702 0.56598
 H55 H 0.72929 -0.03231 0.57817
 N56 N 0.73490 0.00365 0.52831
 C57 C 0.78741 0.03692 0.47630
 H58 H 0.78562 0.02454 0.46069
 C59 C 0.80442 0.05637 0.47526
 H60 H 0.81518 0.05909 0.45847
 C61 C 0.77548 0.04815 0.51710
 H62 H 0.76469 0.04452 0.53363
 C63 C 0.79252 0.06765 0.51698
 H64 H 0.79457 0.07876 0.53355
 Zn65 Zn 0.75242 0.00520 0.49781
 N66 N 0.77322 0.03328 0.49692
 C67 C 0.72535 0.02436 0.45560
 N68 N 0.72715 0.00553 0.47184
 C69 C 0.71030 -0.01324 0.47054
 C70 C 0.69118 -0.01393 0.45192
 C71 C 0.70649 0.02442 0.43670
 C72 C 0.79563 -0.02229 0.51096
 C73 C 0.81365 -0.04130 0.51027
 C74 C 0.78921 -0.05931 0.47637
 C75 C 0.77169 -0.03978 0.47757
 N76 N 0.77508 -0.02190 0.49488
 H77 H 0.73841 0.03945 0.45727
 H78 H 0.71177 -0.02771 0.48404
 H79 H 0.67789 -0.02898 0.45129
 H80 H 0.70569 0.03937 0.42370
 H81 H 0.79793 -0.00775 0.52443
 H82 H 0.82975 -0.04138 0.52341
 H83 H 0.78640 -0.07335 0.46243
 H84 H 0.75554 -0.03892 0.46462
 C85 C 0.80739 0.07196 0.49589
 C86 C 0.70740 0.00111 0.57207
 C87 C 0.81057 -0.06014 0.49282
 C88 C 0.68914 0.00504 0.43460
 C89 C 0.46900 0.20839 1.02300
 H90 H 0.45534 0.20733 1.00759
 C91 C 0.46789 0.19166 1.04237
 H92 H 0.45330 0.17773 1.04162
 C93 C 0.50566 0.22690 1.04165
 H94 H 0.52071 0.24030 1.04105
 C95 C 0.50518 0.21062 1.06145
 H96 H 0.51960 0.21211 1.07618
 N97 N 0.48782 0.22542 1.02286
 C98 C 0.46255 0.28275 0.97191
 H99 H 0.47835 0.28214 0.95902
 C100 C 0.44334 0.30065 0.96951
 H101 H 0.44428 0.31350 0.95441
 C102 C 0.44256 0.26689 1.00749
 H103 H 0.44269 0.25404 1.02260
 C104 C 0.42293 0.28455 1.00582
 H105 H 0.40814 0.28513 1.01978
 Zn106 Zn 0.49051 0.24486 0.99412
 N107 N 0.46190 0.26640 0.99071
 C108 C 0.47586 0.22494 0.94680
 N109 N 0.49243 0.22333 0.96666
 C110 C 0.51035 0.20513 0.96841
 C111 C 0.51212 0.18752 0.94977
 C112 C 0.47707 0.20774 0.92760
 C113 C 0.52063 0.28258 1.01322
 C114 C 0.54165 0.29817 1.01517
 C115 C 0.56224 0.27553 0.98225
 C116 C 0.54071 0.26047 0.98081
 N117 N 0.52053 0.26415 0.99629
 H118 H 0.46139 0.23923 0.94599
 H119 H 0.52308 0.20414 0.98455
 H120 H 0.52649 0.17313 0.95155
 H121 H 0.46344 0.20895 0.91214
 H122 H 0.50414 0.28534 1.02503
 H123 H 0.54099 0.31305 1.02840
 H124 H 0.57823 0.27206 0.96999
 H125 H 0.54013 0.24598 0.96720
 C126 C 0.42337 0.30196 0.98682
 C127 C 0.48637 0.19242 1.06181
 C128 C 0.56288 0.29477 0.99954
 C129 C 0.49518 0.18857 0.92913
 C130 C 0.47879 0.77536 -0.03912
 H131 H 0.46009 0.76950 -0.03315
 C132 C 0.48041 0.79098 -0.05941
 H133 H 0.46282 0.79725 -0.06863
 C134 C 0.52435 0.77499 -0.03403
 H135 H 0.54145 0.76864 -0.02409
 C136 C 0.52687 0.79044 -0.05423
 H137 H 0.54601 0.79567 -0.05976
 N138 N 0.50060 0.76792 -0.02672
 C139 C 0.47058 0.70446 -0.00398
 H140 H 0.48922 0.69599 -0.00672
 C141 C 0.44855 0.69017 -0.00532
 H142 H 0.45043 0.67087 -0.00911
 C143 C 0.44520 0.73959 0.00452
 H144 H 0.44405 0.75891 0.00828
 C145 C 0.42265 0.72580 0.00397
 H146 H 0.40413 0.73451 0.00726
 Zn147 Zn 0.49941 0.74750 0.00147
 N148 N 0.46862 0.72878 0.00062
 C149 C 0.48412 0.76462 0.04926
 N150 N 0.50110 0.76729 0.03049
 C151 C 0.51909 0.78510 0.03128
 C152 C 0.51970 0.80184 0.05086
 C153 C 0.48407 0.78098 0.06925
 C154 C 0.53348 0.71509 -0.02150
 C155 C 0.55347 0.69798 -0.02311
 C156 C 0.56345 0.70482 0.02039
 C157 C 0.54317 0.72184 0.02118
 N158 N 0.52842 0.72628 0.00050
 H159 H 0.47038 0.75000 0.04865
 H160 H 0.53256 0.78678 0.01633
 H161 H 0.53352 0.81645 0.05050
 H162 H 0.47024 0.77870 0.08388
 H163 H 0.52152 0.71908 -0.03768
 H164 H 0.55696 0.68903 -0.04073
 H165 H 0.57446 0.70083 0.03720
 H166 H 0.53874 0.73099 0.03846
 C167 C 0.42429 0.70084 -0.00126
 C168 C 0.50471 0.79891 -0.06705
 C169 C 0.56847 0.69232 -0.00189
 C170 C 0.50174 0.80019 0.07000
 C171 C 1.03818 0.48057 0.21870
 H172 H 1.02512 0.46536 0.21858
 C173 C 1.05877 0.48088 0.20227
 H174 H 1.06137 0.46585 0.18944
 C175 C 1.04982 0.51920 0.23477
 H176 H 1.04601 0.53434 0.24709
 C177 C 1.07055 0.52031 0.21861
 H178 H 1.08278 0.53614 0.21903
 N179 N 1.03415 0.49953 0.23456
 C180 C 0.98651 0.47076 0.29329
 H181 H 0.97102 0.48415 0.29283
 C182 C 0.98624 0.45198 0.31056
 H183 H 0.97051 0.45111 0.32350
 C184 C 1.02627 0.45624 0.27741
 H185 H 1.04198 0.45816 0.26467
 C186 C 1.02685 0.43720 0.29451
 H187 H 1.04286 0.42433 0.29446
 Zn188 Zn 1.00468 0.49897 0.25488
 N189 N 1.00615 0.47239 0.27698
 C190 C 0.95938 0.47719 0.23479
 N191 N 0.97526 0.49667 0.23361
 C192 C 0.97117 0.51443 0.21647
 C193 C 0.95000 0.51337 0.20007
 C194 C 0.93810 0.47531 0.21862
 C195 C 1.02232 0.53027 0.29196
 C196 C 1.02262 0.55061 0.30754
 C197 C 0.98307 0.56475 0.28760
 C198 C 0.98350 0.54405 0.27242
 N199 N 1.00313 0.52749 0.27465
 H200 H 0.96329 0.46292 0.24806
 H201 H 0.98445 0.52943 0.21555
 H202 H 0.94711 0.52761 0.18646
 H203 H 0.92555 0.45978 0.21994
 H204 H 1.03743 0.51658 0.29364
 H205 H 1.03794 0.55229 0.32138
 H206 H 0.96754 0.57795 0.28526
 H207 H 0.96809 0.54127 0.25897
 C208 C 1.00658 0.43486 0.31130
 C209 C 1.07513 0.50106 0.20195
 C210 C 1.00288 0.56828 0.30541
 C211 C 0.93316 0.49360 0.20103
 C212 C -0.04942 0.48644 0.77402
 H213 H -0.03641 0.47141 0.77040
 C214 C -0.06941 0.48350 0.79071
 H215 H -0.07181 0.46604 0.79952
 C216 C -0.06137 0.52775 0.76796
 H217 H -0.05759 0.54521 0.75979
 C218 C -0.08178 0.52554 0.78445
 H219 H -0.09363 0.54133 0.78871
 N220 N -0.04545 0.50841 0.76336
 C221 C -0.01870 0.48908 0.69717
 H222 H -0.02511 0.50664 0.69059
 C223 C -0.01741 0.46967 0.68041
 H224 H -0.02276 0.47267 0.66112
 C225 C -0.00338 0.46386 0.72990
 H226 H 0.00227 0.46177 0.74921
 C227 C -0.00168 0.44396 0.71372
 H228 H 0.00486 0.42652 0.72084
 Zn229 Zn -0.01496 0.51197 0.74465
 N230 N -0.01214 0.48583 0.72152
 C231 C 0.03831 0.50842 0.75822
 N232 N 0.01387 0.51058 0.76695
 C233 C 0.00944 0.51182 0.79174
 C234 C 0.02997 0.51115 0.80881
 C235 C 0.05953 0.50798 0.77472
 C236 C -0.03621 0.54822 0.71278
 C237 C -0.03579 0.56903 0.69803
 C238 C 0.00648 0.57803 0.71514
 C239 C 0.00521 0.55714 0.72964
 N240 N -0.01556 0.54227 0.72765
 H241 H 0.04131 0.50738 0.73840
 H242 H -0.01006 0.51354 0.79839
 H243 H 0.02580 0.51179 0.82844
 H244 H 0.07884 0.50690 0.76738
 H245 H -0.05268 0.53630 0.71174
 H246 H -0.05188 0.57284 0.68546
 H247 H 0.02351 0.58925 0.71645
 H248 H 0.02121 0.55250 0.74190
 C249 C -0.00904 0.44669 0.68865
 C250 C -0.08554 0.50333 0.79651
 C251 C -0.01391 0.58386 0.69862
 C252 C 0.05550 0.50955 0.80045
 C253 C 0.06650 0.20376 0.50812
 C254 C 0.05066 0.20770 0.52869
 C255 C 0.03051 0.22484 0.52764
 C256 C 0.02600 0.23917 0.50628
 C257 C 0.04161 0.23453 0.48547
 C258 C 0.06170 0.21738 0.48652
 C259 C 0.08724 0.18491 0.50871
 N260 N 0.10135 0.18012 0.48818
 N261 N 0.11947 0.16273 0.48838
 C262 C 0.12432 0.14938 0.50912
 N263 N 0.11034 0.15428 0.52972
 N264 N 0.09218 0.17167 0.52952
 C265 C 0.14391 0.12948 0.50898
 C266 C 0.14959 0.11611 0.53063
 C267 C 0.16735 0.09675 0.53017
 C268 C 0.17973 0.09027 0.50803
 C269 C 0.17436 0.10385 0.48650
 C270 C 0.15671 0.12326 0.48697
 H271 H 0.05348 0.19722 0.54550
 H272 H 0.01818 0.22686 0.54358
 H273 H 0.03798 0.24343 0.46790
 H274 H 0.07314 0.21447 0.47010
 H275 H 0.14011 0.12040 0.54790
 H276 H 0.17091 0.08646 0.54700
 H277 H 0.18388 0.09949 0.46926
 H278 H 0.15290 0.13319 0.46997
 C279 C 0.69404 0.55293 -0.00223
 C280 C 0.72051 0.55527 0.00328
 C281 C 0.73656 0.53465 0.00491
 C282 C 0.72644 0.51100 0.00225
 C283 C 0.70010 0.50909 -0.00481
 C284 C 0.68419 0.52964 -0.00672
 C285 C 0.67653 0.57444 -0.00337
 N286 N 0.65212 0.57224 -0.01267
 N287 N 0.63590 0.59118 -0.01305
 C288 C 0.64330 0.61318 -0.00405
 N289 N 0.66778 0.61547 0.00518
 N290 N 0.68408 0.59649 0.00549
 C291 C 0.62472 0.63392 -0.00396
 C292 C 0.63047 0.65573 0.00863
 C293 C 0.61231 0.67481 0.00930
 C294 C 0.58816 0.67251 -0.00281
 C295 C 0.58257 0.65080 -0.01556
 C296 C 0.60058 0.63176 -0.01611
 H297 H 0.72886 0.57303 0.00620
 H298 H 0.75698 0.53709 0.00878
 H299 H 0.69147 0.49181 -0.00935
 H300 H 0.66402 0.52716 -0.01166
 H301 H 0.64887 0.65797 0.01821
 H302 H 0.61718 0.69141 0.01914
 H303 H 0.56399 0.64833 -0.02474
 H304 H 0.59545 0.61525 -0.02598
 C305 C 0.94418 -0.19287 0.49294
 C306 C 0.96981 -0.18675 0.48829
 C307 C 0.98946 -0.20425 0.48915
 C308 C 0.98444 -0.22884 0.49487
 C309 C 0.95836 -0.23477 0.49938
 C310 C 0.93860 -0.21714 0.49838
 C311 C 0.92375 -0.17372 0.49228
 N312 N 0.89830 -0.17926 0.49378
 N313 N 0.88022 -0.16174 0.49325
 C314 C 0.88688 -0.13799 0.49126
 N315 N 0.91229 -0.13254 0.48976
 N316 N 0.93029 -0.15000 0.49022
 C317 C 0.86709 -0.11826 0.49108
 C318 C 0.87473 -0.09385 0.49292
 C319 C 0.85636 -0.07509 0.49328
 C320 C 0.82988 -0.08022 0.49165
 C321 C 0.82214 -0.10455 0.48940
 C322 C 0.84057 -0.12342 0.48925
 H323 H 0.97488 -0.16823 0.48389
 H324 H 1.00852 -0.19783 0.48532
 H325 H 0.95321 -0.25328 0.50368
 H326 H 0.91899 -0.22253 0.50206
 H327 H 0.89496 -0.08916 0.49433
 H328 H 0.86288 -0.05649 0.49471
 H329 H 0.80183 -0.10900 0.48826
 H330 H 0.83405 -0.14201 0.48773
 C331 C 0.29800 0.44186 0.98818
 C332 C 0.30749 0.46540 0.98496
 C333 C 0.29137 0.48573 0.98748
 C334 C 0.26518 0.48335 0.99397
 C335 C 0.25540 0.45953 0.99545
 C336 C 0.27163 0.43912 0.99306
 C337 C 0.31576 0.42052 0.98659
 N338 N 0.30754 0.39767 0.99138
 N339 N 0.32391 0.37876 0.99068
 C340 C 0.34918 0.38192 0.98515
 N341 N 0.35729 0.40474 0.98024
 N342 N 0.34096 0.42360 0.98096
 C343 C 0.36778 0.36115 0.98497
 C344 C 0.39386 0.36501 0.97946
 C345 C 0.41170 0.34578 0.97989
 C346 C 0.40399 0.32213 0.98577
 C347 C 0.37789 0.31816 0.99114
 C348 C 0.35996 0.33746 0.99071
 H349 H 0.32754 0.46824 0.98049
 H350 H 0.29977 0.50322 0.98391
 H351 H 0.23513 0.45678 0.99905
 H352 H 0.26350 0.42121 0.99510
 H353 H 0.40065 0.38299 0.97504
 H354 H 0.43173 0.34958 0.97610
 H355 H 0.37130 0.30011 0.99553
 H356 H 0.34003 0.33382 0.99501
 C357 C 0.93992 0.20276 0.50088
 C358 C 0.94316 0.21713 0.52232
 C359 C 0.96273 0.23439 0.52390
 C360 C 0.97908 0.23852 0.50364
 C361 C 0.97601 0.22350 0.48245
 C362 C 0.95668 0.20604 0.48102
 C363 C 0.91969 0.18396 0.49951
 N364 N 0.92076 0.16593 0.48218
 N365 N 0.90286 0.14875 0.48119
 C366 C 0.88304 0.14894 0.49739
 N367 N 0.88187 0.16705 0.51462
 N368 N 0.89986 0.18416 0.51570
 C369 C 0.86340 0.12957 0.49654
 C370 C 0.83979 0.13259 0.50873
 C371 C 0.82147 0.11411 0.50820
 C372 C 0.82646 0.09203 0.49573
 C373 C 0.85010 0.08909 0.48351
 C374 C 0.86826 0.10768 0.48377
 H375 H 0.93099 0.21457 0.53823
 H376 H 0.96525 0.24392 0.54136
 H377 H 0.98878 0.22529 0.46688
 H378 H 0.95492 0.19509 0.46431
 H379 H 0.83537 0.14933 0.51855
 H380 H 0.80332 0.11722 0.51745
 H381 H 0.85489 0.07220 0.47415
 H382 H 0.88635 0.10468 0.47436
 C383 C 0.29079 0.57335 -0.00120
 C384 C 0.29460 0.55538 0.01688
 C385 C 0.28034 0.53402 0.01591
 C386 C 0.26177 0.52986 -0.00317
 C387 C 0.25690 0.54886 -0.02028
 C388 C 0.27164 0.57001 -0.01962
 C389 C 0.30731 0.59509 -0.00121
 N390 N 0.31232 0.60669 -0.02277
 N391 N 0.32866 0.62521 -0.02307
 C392 C 0.34043 0.63305 -0.00178
 N393 N 0.33508 0.62172 0.01984
 N394 N 0.31894 0.60304 0.02010
 C395 C 0.36009 0.65231 -0.00234
 C396 C 0.36582 0.66619 0.01903
 C397 C 0.38597 0.68292 0.01903
 C398 C 0.40104 0.68559 -0.00214
 C399 C 0.39500 0.67216 -0.02366
 C400 C 0.37449 0.65588 -0.02386
 H401 H 0.30913 0.55751 0.03143
 H402 H 0.28415 0.52032 0.02992
 H403 H 0.24166 0.54784 -0.03417
 H404 H 0.26784 0.58392 -0.03341
 H405 H 0.35496 0.66385 0.03584
 H406 H 0.39048 0.69305 0.03584
 H407 H 0.40647 0.67399 -0.04016
 H408 H 0.37062 0.64534 -0.04055
 C409 C 0.07724 -0.20570 0.50411
 C410 C 0.06484 -0.21434 0.52519
 C411 C 0.04304 -0.22898 0.52280
 C412 C 0.03287 -0.23558 0.49917
 C413 C 0.04577 -0.22676 0.47811
 C414 C 0.06776 -0.21246 0.48056
 C415 C 0.09861 -0.18817 0.50658
 N416 N 0.11385 -0.18334 0.48697
 N417 N 0.13178 -0.16621 0.48861
 C418 C 0.13511 -0.15310 0.50986
 N419 N 0.12007 -0.15812 0.52955
 N420 N 0.10224 -0.17534 0.52797
 C421 C 0.15356 -0.13275 0.51097
 C422 C 0.15130 -0.11458 0.52930
 C423 C 0.16724 -0.09427 0.52911
 C424 C 0.18602 -0.09190 0.51082
 C425 C 0.18893 -0.11044 0.49300
 C426 C 0.17273 -0.13059 0.49296
 H427 H 0.07163 -0.20933 0.54364
 H428 H 0.03386 -0.23428 0.53972
 H429 H 0.03805 -0.22980 0.45955
 H430 H 0.07653 -0.20568 0.46390
 H431 H 0.13670 -0.11566 0.54339
 H432 H 0.16480 -0.08031 0.54318
 H433 H 0.20319 -0.10895 0.47863
 H434 H 0.17501 -0.14433 0.47865
 C435 C 0.69838 0.42218 1.00589
 C436 C 0.69602 0.44039 1.02407
 C437 C 0.71122 0.46111 1.02332
 C438 C 0.72912 0.46454 1.00419
 C439 C 0.73273 0.44527 0.98706
 C440 C 0.71720 0.42463 0.98764
 C441 C 0.68071 0.40119 1.00565
 N442 N 0.67775 0.38711 0.98500
 N443 N 0.66064 0.36919 0.98434
 C444 C 0.64586 0.36454 1.00433
 N445 N 0.64909 0.37842 1.02508
 N446 N 0.66609 0.39639 1.02570
 C447 C 0.62581 0.34554 1.00324
 C448 C 0.61361 0.33810 1.02498
 C449 C 0.59362 0.32127 1.02383
 C450 C 0.58517 0.31160 1.00089
 C451 C 0.59773 0.31870 0.97919
 C452 C 0.61789 0.33539 0.98037
 H453 H 0.68194 0.43899 1.03861
 H454 H 0.70850 0.47501 1.03740
 H455 H 0.74748 0.44580 0.97317
 H456 H 0.72000 0.41053 0.97378
 H457 H 0.61939 0.34539 1.04293
 H458 H 0.58476 0.31584 1.04097
 H459 H 0.59152 0.31191 0.96117
 H460 H 0.62678 0.34082 0.96325
 C461 C 0.49032 0.06001 1.18867
 C462 C 0.51348 0.05351 1.20106
 C463 C 0.51412 0.03474 1.21847
 C464 C 0.49142 0.02227 1.22458
 C465 C 0.46862 0.02800 1.21094
 C466 C 0.46795 0.04685 1.19365
 C467 C 0.48961 0.08009 1.17035
 N468 N 0.46686 0.08786 1.15999
 N469 N 0.46624 0.10586 1.14352
 C470 C 0.48835 0.11686 1.13668
 N471 N 0.51109 0.10910 1.14706
 N472 N 0.51170 0.09114 1.16356
 C473 C 0.48775 0.13667 1.11805
 C474 C 0.51086 0.14598 1.10889
 C475 C 0.51037 0.16419 1.09089
 C476 C 0.48676 0.17367 1.08165
 C477 C 0.46363 0.16457 1.09103
 C478 C 0.46412 0.14626 1.10897
 H479 H 0.53126 0.06284 1.19723
 H480 H 0.53262 0.02985 1.22678
 H481 H 0.45112 0.01790 1.21384
 H482 H 0.44989 0.05092 1.18401
 H483 H 0.52942 0.13897 1.11535
 H484 H 0.52855 0.17043 1.08379
 H485 H 0.44512 0.17168 1.08458
 H486 H 0.44594 0.13963 1.11571
 C487 C -0.00061 0.70415 0.56186
 C488 C 0.01289 0.69626 0.54096
 C489 C 0.01478 0.71103 0.52016
 C490 C 0.00302 0.73437 0.51917
 C491 C -0.00971 0.74247 0.54091
 C492 C -0.01194 0.72743 0.56165
 C493 C -0.00214 0.68813 0.58377
 N494 N -0.02093 0.69119 0.60087
 N495 N -0.02251 0.67607 0.62006
 C496 C -0.00524 0.65743 0.62300
 N497 N 0.01364 0.65458 0.60602
 N498 N 0.01511 0.66955 0.58681
 C499 C -0.00717 0.63997 0.64372
 C500 C 0.01383 0.62448 0.64960
 C501 C 0.01176 0.60682 0.66792
 C502 C -0.01142 0.60405 0.68070
 C503 C -0.03232 0.61981 0.67522
 C504 C -0.03015 0.63773 0.65701
 H505 H 0.02210 0.67847 0.54058
 H506 H 0.02590 0.70369 0.50519
 H507 H -0.01740 0.76077 0.54235
 H508 H -0.02191 0.73430 0.57780
 H509 H 0.03185 0.62577 0.63981
 H510 H 0.02808 0.59475 0.67150
 H511 H -0.05036 0.61815 0.68490
 H512 H -0.04669 0.64937 0.65288
 C513 C 0.51703 0.92429 -0.19954
 C514 C 0.53529 0.94276 -0.19651
 C515 C 0.53439 0.96319 -0.21168
 C516 C 0.51483 0.96619 -0.23008
 C517 C 0.49798 0.94654 -0.23448
 C518 C 0.49884 0.92606 -0.21915
 C519 C 0.51646 0.90398 -0.18160
 N520 N 0.49794 0.88670 -0.18316
 N521 N 0.49659 0.86941 -0.16599
 C522 C 0.51366 0.86875 -0.14651
 N523 N 0.53230 0.88587 -0.14514
 N524 N 0.53366 0.90310 -0.16228
 C525 C 0.51158 0.85038 -0.12663
 C526 C 0.52770 0.85172 -0.10538
 C527 C 0.52540 0.83503 -0.08617
 C528 C 0.50705 0.81645 -0.08774
 C529 C 0.49098 0.81498 -0.10903
 C530 C 0.49321 0.83179 -0.12827
 H531 H 0.54999 0.94183 -0.18197
 H532 H 0.54842 0.97735 -0.20839
 H533 H 0.48401 0.94670 -0.24960
 H534 H 0.48499 0.91176 -0.22249
 H535 H 0.54194 0.86588 -0.10336
 H536 H 0.53775 0.83697 -0.06985
 H537 H 0.47684 0.80071 -0.11091
 H538 H 0.48053 0.83022 -0.14440
 C539 C 1.00395 0.30813 0.44342
 C540 C 0.98171 0.29436 0.44724
 C541 C 0.98089 0.27758 0.46659
 C542 C 1.00257 0.27360 0.48243
 C543 C 1.02440 0.28829 0.47904
 C544 C 1.02524 0.30498 0.45965
 C545 C 1.00471 0.32611 0.42304
 N546 N 1.02661 0.33859 0.41855
 N547 N 1.02719 0.35497 0.40045
 C548 C 1.00589 0.35959 0.38606
 N549 N 0.98401 0.34706 0.39050
 N550 N 0.98344 0.33065 0.40857
 C551 C 1.00633 0.37825 0.36631
 C552 C 0.98363 0.38446 0.35295
 C553 C 0.98381 0.40262 0.33493
 C554 C 1.00669 0.41494 0.32977
 C555 C 1.02950 0.40847 0.34278
 C556 C 1.02932 0.39036 0.36089
 H557 H 0.96472 0.29672 0.43542
 H558 H 0.96290 0.26828 0.46930
 H559 H 1.04099 0.28670 0.49149
 H560 H 1.04253 0.31560 0.45759
 H561 H 0.96560 0.37546 0.35656
 H562 H 0.96601 0.40700 0.32496
 H563 H 1.04738 0.41781 0.33936
 H564 H 1.04716 0.38603 0.37079
 C565 C 0.49430 0.93842 0.19133
 C566 C 0.51653 0.95197 0.19678
 C567 C 0.51548 0.97178 0.21312
 C568 C 0.49243 0.97815 0.22532
 C569 C 0.46987 0.96534 0.21854
 C570 C 0.47088 0.94558 0.20212
 C571 C 0.49546 0.91717 0.17423
 N572 N 0.47363 0.90523 0.16731
 N573 N 0.47468 0.88621 0.15190
 C574 C 0.49761 0.87823 0.14281
 N575 N 0.51944 0.89011 0.14980
 N576 N 0.51839 0.90916 0.16517
 C577 C 0.49872 0.85737 0.12521
 C578 C 0.52260 0.84826 0.11697
 C579 C 0.52361 0.82931 0.09956
 C580 C 0.50077 0.81905 0.08990
 C581 C 0.47691 0.82780 0.09855
 C582 C 0.47589 0.84669 0.11602
 H583 H 0.53478 0.94740 0.18832
 H584 H 0.53291 0.98206 0.21649
 H585 H 0.45121 0.97064 0.22564
 H586 H 0.45320 0.93598 0.19781
 H587 H 0.54058 0.85588 0.12380
 H588 H 0.54232 0.82275 0.09360
 H589 H 0.45894 0.82055 0.09126
 H590 H 0.45716 0.85325 0.12192
 C591 C -0.00220 0.31041 0.56510
 C592 C 0.02050 0.29658 0.56195
 C593 C 0.02202 0.27893 0.54322
 C594 C 0.00056 0.27400 0.52746
 C595 C -0.02190 0.28849 0.53043
 C596 C -0.02339 0.30614 0.54909
 C597 C -0.00354 0.32980 0.58434
 N598 N -0.02475 0.34447 0.58593
 N599 N -0.02578 0.36227 0.60277
 C600 C -0.00566 0.36617 0.61879
 N601 N 0.01551 0.35142 0.61730
 N602 N 0.01656 0.33362 0.60043
 C603 C -0.00668 0.38640 0.63712
 C604 C 0.01346 0.38975 0.65466
 C605 C 0.01262 0.40917 0.67156
 C606 C -0.00828 0.42573 0.67117
 C607 C -0.02848 0.42226 0.65378
 C608 C -0.02772 0.40282 0.63700
 H609 H 0.03741 0.29978 0.57359
 H610 H 0.04043 0.26984 0.54078
 H611 H -0.03841 0.28618 0.51802
 H612 H -0.04109 0.31667 0.55070
 H613 H 0.02995 0.37746 0.65529
 H614 H 0.02857 0.41150 0.68462
 H615 H -0.04502 0.43451 0.65328
 H616 H -0.04360 0.40079 0.62381
 C617 C 0.50250 0.05319 0.80475
 C618 C 0.49909 0.02947 0.81337
 C619 C 0.50236 0.00953 0.79769
 C620 C 0.51011 0.01240 0.77283
 C621 C 0.51140 0.03642 0.76375
 C622 C 0.50813 0.05653 0.77958
 C623 C 0.50039 0.07394 0.82236
 N624 N 0.50166 0.09738 0.81461
 N625 N 0.50035 0.11572 0.83091
 C626 C 0.49782 0.11134 0.85559
 N627 N 0.49649 0.08794 0.86321
 N628 N 0.49773 0.06968 0.84698
 C629 C 0.49696 0.13140 0.87409
 C630 C 0.49849 0.12608 0.89960
 C631 C 0.49794 0.14467 0.91730
 C632 C 0.49572 0.16907 0.91001
 C633 C 0.49394 0.17450 0.88455
 C634 C 0.49470 0.15584 0.86673
 H635 H 0.49376 0.02616 0.83241
 H636 H 0.49833 -0.00808 0.80537
 H637 H 0.51552 0.03958 0.74439
 H638 H 0.51024 0.07463 0.77214
 H639 H 0.50024 0.10749 0.90599
 H640 H 0.49896 0.13991 0.93679
 H641 H 0.49233 0.19320 0.87844
 H642 H 0.49343 0.16055 0.84724
 C643 C 1.00541 0.70304 0.43027
 C644 C 1.02836 0.70735 0.44364
 C645 C 1.02859 0.72302 0.46410
 C646 C 1.00592 0.73532 0.47204
 C647 C 0.98309 0.73126 0.45778
 C648 C 0.98286 0.71538 0.43739
 C649 C 1.00484 0.68498 0.40973
 N650 N 0.98204 0.67724 0.39982
 N651 N 0.98154 0.66006 0.38228
 C652 C 1.00382 0.64993 0.37386
 N653 N 1.02662 0.65787 0.38358
 N654 N 1.02711 0.67499 0.40116
 C655 C 1.00332 0.62996 0.35526
 C656 C 1.02642 0.62112 0.34500
 C657 C 1.02618 0.60143 0.32851
 C658 C 1.00288 0.59001 0.32195
 C659 C 0.97971 0.59914 0.33180
 C660 C 0.97992 0.61893 0.34822
 H661 H 1.04616 0.69808 0.43877
 H662 H 1.04669 0.72486 0.47428
 H663 H 0.96495 0.73986 0.46200
 H664 H 0.96481 0.71261 0.42734
 H665 H 1.04477 0.62931 0.34984
 H666 H 1.04431 0.59515 0.32088
 H667 H 0.96146 0.59059 0.32735
 H668 H 0.96179 0.62522 0.35583
 C669 C 1.20396 0.50803 0.06660
 C670 C 1.22298 0.48997 0.06310
 C671 C 1.23746 0.48927 0.04139
 C672 C 1.23260 0.50610 0.02207
 C673 C 1.21478 0.52520 0.02670
 C674 C 1.20056 0.52604 0.04844
 C675 C 1.18711 0.50778 0.08857
 N676 N 1.17096 0.52683 0.09332
 N677 N 1.15468 0.52613 0.11215
 C678 C 1.15374 0.50631 0.12702
 N679 N 1.17005 0.48732 0.12242
 N680 N 1.18641 0.48805 0.10360
 C681 C 1.13459 0.50516 0.14712
 C682 C 1.13066 0.48341 0.16007
 C683 C 1.11155 0.48210 0.17805
 C684 C 1.09610 0.50254 0.18359
 C685 C 1.10035 0.52438 0.17098
 C686 C 1.11932 0.52566 0.15294
 H687 H 1.22667 0.47628 0.07714
 H688 H 1.25238 0.47546 0.04012
 H689 H 1.21120 0.53913 0.01287
 H690 H 1.18639 0.54050 0.05066
 H691 H 1.14207 0.46727 0.15606
 H692 H 1.10888 0.46510 0.18766
 H693 H 1.08854 0.54036 0.17461
 H694 H 1.12180 0.54271 0.14336
 C695 C 0.58474 -0.01061 0.71168
 C696 C 0.58124 0.00754 0.72983
 C697 C 0.55939 0.00765 0.74482
 C698 C 0.53986 -0.00983 0.74123
 C699 C 0.54475 -0.02902 0.72433
 C700 C 0.56668 -0.02934 0.70974
 C701 C 0.60619 -0.00958 0.69389
 N702 N 0.61162 -0.02903 0.67915
 N703 N 0.62926 -0.02763 0.66157
 C704 C 0.64219 -0.00667 0.65785
 N705 N 0.63706 0.01272 0.67283
 N706 N 0.61943 0.01129 0.69051
 C707 C 0.66031 -0.00477 0.63695
 C708 C 0.67073 0.01775 0.63039
 C709 C 0.68628 0.01966 0.60951
 C710 C 0.69186 -0.00092 0.59486
 C711 C 0.68192 -0.02350 0.60176
 C712 C 0.66633 -0.02540 0.62252
 H713 H 0.59532 0.02180 0.73232
 H714 H 0.55803 0.02160 0.75892
 H715 H 0.53078 -0.04335 0.72162
 H716 H 0.56890 -0.04385 0.69624
 H717 H 0.66649 0.03400 0.64109
 H718 H 0.69393 0.03725 0.60481
 H719 H 0.68559 -0.03963 0.59068
 H720 H 0.65866 -0.04304 0.62699
 C721 C -0.20627 0.49556 0.93871
 C722 C -0.23293 0.49178 0.93596
 C723 C -0.24841 0.48961 0.95689
 C724 C -0.23762 0.49068 0.98119
 C725 C -0.21111 0.49635 0.98353
 C726 C -0.19568 0.49822 0.96271
 C727 C -0.18923 0.49658 0.91695
 N728 N -0.16332 0.49349 0.92003
 N729 N -0.14771 0.49416 0.90071
 C730 C -0.15729 0.49808 0.87742
 N731 N -0.18323 0.50127 0.87426
 N732 N -0.19892 0.50044 0.89364
 C733 C -0.13957 0.49883 0.85616
 C734 C -0.14718 0.50955 0.83348
 C735 C -0.12974 0.51098 0.81394
 C736 C -0.10457 0.50135 0.81662
 C737 C -0.09718 0.49032 0.83914
 C738 C -0.11440 0.48917 0.85869
 H739 H -0.24179 0.49010 0.91766
 H740 H -0.26891 0.48664 0.95414
 H741 H -0.20193 0.49976 1.00136
 H742 H -0.17535 0.50207 0.96548
 H743 H -0.16642 0.51721 0.83100
 H744 H -0.13591 0.51953 0.79672
 H745 H -0.07779 0.48305 0.84184
 H746 H -0.10792 0.48073 0.87586
 C747 C 0.42843 0.00097 0.29587
 C748 C 0.44249 -0.02041 0.29072
 C749 C 0.46231 -0.02040 0.27348
 C750 C 0.46823 0.00076 0.26013
 C751 C 0.45467 0.02240 0.26617
 C752 C 0.43484 0.02240 0.28346
 C753 C 0.40785 0.00105 0.31470
 N754 N 0.39479 0.02186 0.32048
 N755 N 0.37672 0.02198 0.33781
 C756 C 0.37093 0.00130 0.35009
 N757 N 0.38389 -0.01952 0.34421
 N758 N 0.40194 -0.01964 0.32690
 C759 C 0.35142 0.00150 0.36996
 C760 C 0.34612 -0.01989 0.38301
 C761 C 0.32858 -0.01958 0.40242
 C762 C 0.31585 0.00210 0.40928
 C763 C 0.32080 0.02341 0.39598
 C764 C 0.33836 0.02312 0.37652
 H765 H 0.43849 -0.03717 0.30030
 H766 H 0.47322 -0.03708 0.27063
 H767 H 0.45969 0.03962 0.25809
 H768 H 0.42485 0.03936 0.28741
 H769 H 0.35582 -0.03686 0.37851
 H770 H 0.32552 -0.03624 0.41252
 H771 H 0.31107 0.04034 0.40061
 H772 H 0.34187 0.03990 0.36681
 C773 C 0.19199 0.50119 0.93361
 C774 C 0.18335 0.49820 0.95790
 C775 C 0.20063 0.49873 0.97803
 C776 C 0.22715 0.50343 0.97470
 C777 C 0.23595 0.50430 0.94999
 C778 C 0.21858 0.50344 0.92973
 C779 C 0.17293 0.50267 0.91284
 N780 N 0.17961 0.49770 0.88901
 N781 N 0.16209 0.49931 0.87057
 C782 C 0.13732 0.50623 0.87523
 N783 N 0.13078 0.51128 0.89901
 N784 N 0.14817 0.50947 0.91741
 C785 C 0.11756 0.50816 0.85511
 C786 C 0.09552 0.52285 0.85854
 C787 C 0.07590 0.52380 0.84048
 C788 C 0.07753 0.50974 0.81864
 C789 C 0.09995 0.49552 0.81487
 C790 C 0.11985 0.49485 0.83288
 H791 H 0.16307 0.49540 0.96143
 H792 H 0.19277 0.49537 0.99610
 H793 H 0.25631 0.50652 0.94645
 H794 H 0.22589 0.50528 0.91113
 H795 H 0.09338 0.53364 0.87528
 H796 H 0.05935 0.53554 0.84372
 H797 H 0.10179 0.48433 0.79837
 H798 H 0.13661 0.48333 0.82977
 C799 C 0.55394 0.00220 0.29931
 C800 C 0.54765 -0.01967 0.28718
 C801 C 0.52825 -0.02029 0.26880
 C802 C 0.51499 0.00114 0.26134
 C803 C 0.52077 0.02282 0.27436
 C804 C 0.54017 0.02343 0.29273
 C805 C 0.57420 0.00271 0.31918
 N806 N 0.58004 0.02375 0.33125
 N807 N 0.59805 0.02415 0.34924
 C808 C 0.61101 0.00351 0.35596
 N809 N 0.60520 -0.01753 0.34386
 N810 N 0.58719 -0.01792 0.32587
 C811 C 0.63099 0.00391 0.37610
 C812 C 0.64427 -0.01752 0.38307
 C813 C 0.66306 -0.01716 0.40205
 C814 C 0.66905 0.00464 0.41452
 C815 C 0.65577 0.02606 0.40757
 C816 C 0.63696 0.02570 0.38860
 H817 H 0.55741 -0.03652 0.29218
 H818 H 0.52330 -0.03781 0.26100
 H819 H 0.51004 0.03941 0.27039
 H820 H 0.54410 0.04054 0.30202
 H821 H 0.64024 -0.03463 0.37382
 H822 H 0.67318 -0.03391 0.40674
 H823 H 0.65968 0.04309 0.41703
 H824 H 0.62707 0.04254 0.38380
 C825 C 0.79299 0.48496 0.07180
 C826 C 0.79525 0.46746 0.05288
 C827 C 0.77923 0.46854 0.03179
 C828 C 0.76074 0.48743 0.02864
 C829 C 0.75699 0.50355 0.04883
 C830 C 0.77324 0.50262 0.06985
 C831 C 0.81174 0.48525 0.09292
 N832 N 0.81353 0.50495 0.10818
 N833 N 0.83156 0.50586 0.12613
 C834 C 0.84853 0.48709 0.12962
 N835 N 0.84652 0.46728 0.11455
 N836 N 0.82857 0.46641 0.09656
 C837 C 0.86943 0.48854 0.14873
 C838 C 0.88484 0.46800 0.15436
 C839 C 0.90529 0.46958 0.17157
 C840 C 0.91091 0.49178 0.18340
 C841 C 0.89539 0.51227 0.17799
 C842 C 0.87479 0.51065 0.16092
 H843 H 0.80993 0.45329 0.05395
 H844 H 0.78194 0.45505 0.01729
 H845 H 0.74161 0.51698 0.04872
 H846 H 0.77038 0.51584 0.08456
 H847 H 0.88125 0.45069 0.14534
 H848 H 0.91708 0.45355 0.17522
 H849 H 0.89913 0.52954 0.18704
 H850 H 0.86333 0.52683 0.15701
 C851 C 0.44786 -0.00591 0.70277
 C852 C 0.44396 -0.00931 0.72823
 C853 C 0.46508 -0.01012 0.74488
 C854 C 0.49067 -0.00806 0.73645
 C855 C 0.49390 -0.00241 0.71111
 C856 C 0.47297 -0.00191 0.69455
 C857 C 0.42629 -0.00690 0.68443
 N858 N 0.43126 -0.01185 0.66025
 N859 N 0.41222 -0.01275 0.64339
 C860 C 0.38735 -0.00863 0.64992
 N861 N 0.38228 -0.00365 0.67414
 N862 N 0.40138 -0.00293 0.69111
 C863 C 0.36658 -0.00904 0.63069
 C864 C 0.34273 0.00276 0.63447
 C865 C 0.32413 0.00389 0.61527
 C866 C 0.32897 -0.00694 0.59204
 C867 C 0.35244 -0.01956 0.58873
 C868 C 0.37105 -0.02047 0.60774
 H869 H 0.42471 -0.01194 0.73519
 H870 H 0.46152 -0.01306 0.76439
 H871 H 0.51254 0.00181 0.70366
 H872 H 0.47650 0.00179 0.67517
 H873 H 0.33878 0.01179 0.65195
 H874 H 0.30632 0.01389 0.61838
 H875 H 0.35652 -0.02870 0.57134
 H876 H 0.38907 -0.03003 0.60437
   
