data_POSCAR
  _audit_creation_date              2014-09-24
  _audit_creation_method            'ToBaCCo'
  _symmetry_space_group_name_H-M    'P1'
  _symmetry_Int_Tables_number       1
  _symmetry_cell_setting            triclinic
  loop_
  _symmetry_equiv_pos_as_xyz
 x,y,z
_cell_length_a 38.3364
_cell_length_b 37.5699
_cell_length_c 38.3700
_cell_angle_alpha 89.923600
_cell_angle_beta 87.349400
_cell_angle_gamma 89.188700
loop_
  _atom_site_label
  _atom_site_type_symbol
  _atom_site_fract_x
  _atom_site_fract_y
  _atom_site_fract_z
C1 C 0.59841 0.62482 0.64662
 C2 C 0.57271 0.65164 0.64470
 C3 C 0.57651 0.67937 0.62019
 C4 C 0.60647 0.68030 0.59780
 C5 C 0.63214 0.65342 0.59906
 C6 C 0.62818 0.62564 0.62366
 C7 C 0.59481 0.59734 0.67130
 C8 C 0.62076 0.57040 0.67350
 C9 C 0.65029 0.57161 0.65031
 C10 C 0.65399 0.59869 0.62528
 C11 C 0.68306 0.59910 0.60170
 C12 C 0.68706 0.62644 0.57691
 C13 C 0.66150 0.65366 0.57584
 H14 H 0.55008 0.65126 0.66268
 H15 H 0.60948 0.70175 0.57900
 H16 H 0.57216 0.59802 0.68914
 H17 H 0.67048 0.55116 0.65151
 H18 H 0.70267 0.57806 0.60253
 H19 H 0.66375 0.67443 0.55631
 C20 C 0.89951 0.37421 0.13416
 C21 C 0.92527 0.34726 0.13314
 C22 C 0.92652 0.32130 0.10645
 C23 C 0.90156 0.32315 0.08069
 C24 C 0.87515 0.34939 0.08193
 C25 C 0.87415 0.37510 0.10869
 C26 C 0.89878 0.40038 0.16027
 C27 C 0.87281 0.42725 0.16139
 C28 C 0.84704 0.42730 0.13659
 C29 C 0.84775 0.40169 0.11000
 C30 C 0.82251 0.40229 0.08467
 C31 C 0.82343 0.37672 0.05784
 C32 C 0.84965 0.35023 0.05686
 H33 H 0.94478 0.34764 0.15260
 H34 H 0.90221 0.30357 0.05989
 H35 H 0.91813 0.39950 0.17998
 H36 H 0.82680 0.44779 0.13764
 H37 H 0.80187 0.42229 0.08627
 H38 H 0.85027 0.33036 0.03635
 C39 C 0.40082 0.12728 -0.14863
 C40 C 0.42708 0.15286 -0.14777
 C41 C 0.42827 0.17668 -0.11970
 C42 C 0.40237 0.17518 -0.09252
 C43 C 0.37587 0.14984 -0.09310
 C44 C 0.37511 0.12574 -0.12124
 C45 C 0.39982 0.10337 -0.17659
 C46 C 0.37306 0.07819 -0.17818
 C47 C 0.34756 0.07676 -0.15039
 C48 C 0.34852 0.10027 -0.12206
 C49 C 0.32314 0.09873 -0.09455
 C50 C 0.32388 0.12255 -0.06632
 C51 C 0.35003 0.14830 -0.06606
 H52 H 0.44680 0.15416 -0.16891
 H53 H 0.40234 0.19410 -0.07124
 H54 H 0.41977 0.10478 -0.19753
 H55 H 0.32727 0.05708 -0.14987
 H56 H 0.30243 0.07949 -0.09555
 H57 H 0.35047 0.16690 -0.04449
 C58 C 0.10163 0.86933 0.36560
 C59 C 0.07646 0.84254 0.36614
 C60 C 0.07490 0.81687 0.39313
 C61 C 0.09903 0.81879 0.41962
 C62 C 0.12481 0.84493 0.41894
 C63 C 0.12607 0.87039 0.39192
 C64 C 0.10259 0.89524 0.33921
 C65 C 0.12781 0.92212 0.33869
 C66 C 0.15272 0.92233 0.36436
 C67 C 0.15180 0.89692 0.39120
 C68 C 0.17612 0.89770 0.41740
 C69 C 0.17490 0.87241 0.44452
 C70 C 0.14938 0.84598 0.44489
 H71 H 0.05762 0.84286 0.34604
 H72 H 0.09816 0.79944 0.44066
 H73 H 0.08395 0.89418 0.31886
 H74 H 0.17239 0.94281 0.36381
 H75 H 0.19626 0.91765 0.41625
 H76 H 0.14853 0.82632 0.46563
 N77 N 0.08167 0.17508 0.12651
 N78 N 0.07071 0.16175 0.15671
 C79 C 0.04421 0.18216 0.17010
 C80 C 0.03793 0.20926 0.14680
 C81 C 0.06217 0.20404 0.11940
 H82 H 0.03021 0.17759 0.19478
 H83 H 0.06591 0.22055 0.09646
 Cu84 Cu 0.09148 0.11839 0.17486
 Cu85 Cu 0.12166 0.15513 0.09970
 Cu86 Cu 0.16027 0.07883 0.13256
 N87 N 0.11267 0.07502 0.19251
 N88 N 0.13986 0.05993 0.17609
 C89 C 0.14931 0.03058 0.19371
 C90 C 0.12662 0.02687 0.22244
 C91 C 0.10370 0.05558 0.22097
 H92 H 0.17079 0.01290 0.18597
 H93 H 0.08225 0.06191 0.23928
 N94 N 0.17704 0.10197 0.08890
 N95 N 0.16245 0.13111 0.07651
 C96 C 0.18029 0.14091 0.04707
 C97 C 0.20714 0.11668 0.04046
 C98 C 0.20438 0.09231 0.06748
 H99 H 0.17443 0.16409 0.03155
 H100 H 0.22140 0.06967 0.07160
 H101 H 0.11515 0.10327 0.11659
 H102 H 0.14535 0.13130 0.14127
 N103 N 0.42014 0.82339 0.61282
 N104 N 0.43789 0.84339 0.63359
 C105 C 0.46691 0.82561 0.64241
 C106 C 0.46717 0.79261 0.62661
 C107 C 0.43713 0.79207 0.60793
 H108 H 0.48619 0.83571 0.65944
 H109 H 0.42855 0.77079 0.59158
 Cu110 Cu 0.42102 0.89020 0.64838
 Cu111 Cu 0.37735 0.84024 0.59243
 Cu112 Cu 0.34059 0.91752 0.62715
 N113 N 0.39614 0.92833 0.67351
 N114 N 0.36447 0.93840 0.66568
 C115 C 0.35289 0.96383 0.68820
 C116 C 0.37878 0.96997 0.71138
 C117 C 0.40590 0.94715 0.70117
 H118 H 0.32752 0.97671 0.68776
 H119 H 0.43054 0.94387 0.71352
 N120 N 0.32073 0.89203 0.58807
 N121 N 0.33439 0.86210 0.57525
 C122 C 0.31530 0.85130 0.54873
 C123 C 0.28860 0.87572 0.54450
 C124 C 0.29272 0.90120 0.56995
 H125 H 0.32081 0.82782 0.53303
 H126 H 0.27671 0.92473 0.57482
 H127 H 0.38301 0.89450 0.59945
 H128 H 0.36341 0.86857 0.63719
 N129 N 0.91786 0.67733 0.37226
 N130 N 0.92609 0.66612 0.34045
 C131 C 0.95290 0.68531 0.32701
 C132 C 0.96219 0.70949 0.35188
 C133 C 0.93942 0.70375 0.38032
 H134 H 0.96479 0.68200 0.30109
 H135 H 0.93790 0.71843 0.40457
 Cu136 Cu 0.90117 0.62764 0.31937
 Cu137 Cu 0.87812 0.65871 0.39961
 Cu138 Cu 0.83917 0.58410 0.36693
 N139 N 0.88417 0.58169 0.30506
 N140 N 0.85947 0.56511 0.32327
 C141 C 0.85209 0.53463 0.30694
 C142 C 0.87357 0.53177 0.27716
 C143 C 0.89364 0.56214 0.27670
 H144 H 0.83269 0.51575 0.31611
 H145 H 0.91329 0.56973 0.25707
 N146 N 0.82265 0.60746 0.41068
 N147 N 0.83743 0.63600 0.42313
 C148 C 0.81956 0.64638 0.45253
 C149 C 0.79230 0.62313 0.45883
 C150 C 0.79515 0.59877 0.43194
 H151 H 0.82574 0.66930 0.46794
 H152 H 0.77792 0.57677 0.42788
 H153 H 0.88537 0.60844 0.37835
 H154 H 0.85077 0.63740 0.35953
 N155 N 0.57589 0.32581 -0.10476
 N156 N 0.56179 0.34110 -0.13165
 C157 C 0.53354 0.32261 -0.14008
 C158 C 0.52960 0.29449 -0.11712
 C159 C 0.55698 0.29725 -0.09501
 H160 H 0.51694 0.32902 -0.16130
 H161 H 0.56297 0.27966 -0.07372
 Cu162 Cu 0.58157 0.38366 -0.15313
 Cu163 Cu 0.61792 0.34379 -0.08473
 Cu164 Cu 0.65531 0.41811 -0.12389
 N165 N 0.60339 0.42492 -0.17518
 N166 N 0.63259 0.43779 -0.16407
 C167 C 0.64233 0.46560 -0.18422
 C168 C 0.61781 0.47064 -0.20905
 C169 C 0.59343 0.44432 -0.20265
 H170 H 0.66539 0.48128 -0.18094
 H171 H 0.57046 0.43942 -0.21714
 N172 N 0.67444 0.39450 -0.08294
 N173 N 0.66044 0.36595 -0.06825
 C174 C 0.67948 0.35609 -0.04111
 C175 C 0.70645 0.37971 -0.03842
 C176 C 0.70256 0.40371 -0.06538
 H177 H 0.67400 0.33361 -0.02421
 H178 H 0.71905 0.42608 -0.07184
 H179 H 0.61128 0.39621 -0.09971
 H180 H 0.63775 0.36679 -0.13029
 C181 C -0.04790 0.29396 0.10400
 C182 C -0.02727 0.28423 0.12978
 C183 C -0.00101 0.25556 0.12438
 C184 C 0.01164 0.23798 0.15143
 H185 H -0.03035 0.29593 0.15549
 H186 H 0.00736 0.24817 0.09797
 H187 H -0.04565 0.27865 0.08000
 H188 H 0.00153 0.24388 0.17767
 C189 C 0.55004 0.70821 0.61809
 C190 C 0.51577 0.70255 0.62348
 C191 C 0.48903 0.73089 0.62043
 C192 C 0.49440 0.76482 0.62911
 H193 H 0.50653 0.67576 0.62802
 H194 H 0.46349 0.72286 0.61278
 H195 H 0.55890 0.73426 0.60976
 H196 H 0.51895 0.77236 0.63967
 C197 C 1.04972 0.78985 0.39528
 C198 C 1.02943 0.78051 0.36932
 C199 C 1.00312 0.75260 0.37462
 C200 C 0.98924 0.73676 0.34748
 H201 H 1.03253 0.79223 0.34364
 H202 H 0.99538 0.74468 0.40100
 H203 H 1.04728 0.77467 0.41935
 H204 H 0.99847 0.74337 0.32117
 C205 C 0.45608 0.20366 -0.12029
 C206 C 0.46884 0.21724 -0.09126
 C207 C 0.49683 0.24390 -0.09166
 C208 C 0.50205 0.26756 -0.11747
 H209 H 0.46006 0.20714 -0.06597
 H210 H 0.51230 0.24507 -0.06882
 H211 H 0.46758 0.21109 -0.14553
 H212 H 0.48500 0.26821 -0.13918
 C213 C 0.12906 -0.04997 0.31140
 C214 C 0.10021 -0.03688 0.29728
 C215 C 0.10056 -0.00783 0.27131
 C216 C 0.12743 -0.00190 0.24856
 H217 H 0.07480 -0.04590 0.30675
 H218 H 0.07681 0.00791 0.26989
 H219 H 0.15413 -0.03826 0.30467
 H220 H 0.15020 -0.01930 0.24800
 C221 C 0.61898 0.54277 -0.30156
 C222 C 0.59068 0.53511 -0.28102
 C223 C 0.59064 0.50646 -0.25464
 C224 C 0.61856 0.49828 -0.23631
 H225 H 0.56584 0.54820 -0.28450
 H226 H 0.56602 0.49358 -0.24859
 H227 H 0.64193 0.52582 -0.29949
 H228 H 0.64238 0.51322 -0.24023
 C229 C 0.37336 1.05521 0.79272
 C230 C 0.34712 1.03366 0.78490
 C231 C 0.34862 1.01003 0.75412
 C232 C 0.37820 0.99467 0.74121
 H233 H 0.32243 1.03453 0.79959
 H234 H 0.32394 1.00337 0.74336
 H235 H 0.39594 1.05603 0.77466
 H236 H 0.40257 0.99891 0.75367
 C237 C 0.87154 0.45521 0.18857
 C238 C 0.90043 0.46873 0.20151
 C239 C 0.89966 0.49787 0.22732
 C240 C 0.87368 0.50265 0.25148
 H241 H 0.92587 0.46007 0.19110
 H242 H 0.92233 0.51471 0.22734
 H243 H 0.84624 0.46664 0.19622
 H244 H 0.85231 0.48411 0.25341
 C245 C 0.29703 0.12197 -0.03733
 C246 C 0.28150 0.09200 -0.02619
 C247 C 0.25528 0.09103 0.00322
 C248 C 0.23342 0.11823 0.01126
 H249 H 0.28974 0.06665 -0.03741
 H250 H 0.25288 0.06619 0.01738
 H251 H 0.29145 0.14669 -0.02355
 H252 H 0.23391 0.14212 -0.00455
 C253 C 0.71705 0.62457 0.55118
 C254 C 0.73108 0.65337 0.53570
 C255 C 0.75994 0.65144 0.50884
 C256 C 0.76489 0.62380 0.48704
 H257 H 0.72224 0.67971 0.54375
 H258 H 0.77589 0.67483 0.50550
 H259 H 0.72849 0.59854 0.54567
 H260 H 0.74734 0.60148 0.48862
 C261 C 0.79671 0.37625 0.03118
 C262 C 0.78093 0.40589 0.01985
 C263 C 0.75463 0.40588 -0.00708
 C264 C 0.73323 0.37864 -0.01206
 H265 H 0.78890 0.43164 0.02898
 H266 H 0.75165 0.43023 -0.02182
 H267 H 0.79137 0.35090 0.01927
 H268 H 0.73427 0.35529 0.00443
 C269 C 0.20063 0.87213 0.47216
 C270 C 0.21556 0.90177 0.48348
 C271 C 0.24107 0.90196 0.51118
 C272 C 0.26232 0.87436 0.51771
 H273 H 0.20754 0.92746 0.47360
 H274 H 0.24364 0.92672 0.52513
 H275 H 0.20594 0.84692 0.48470
 H276 H 0.26167 0.85042 0.50210
   
