data_POSCAR
  _audit_creation_date              2014-09-24
  _audit_creation_method            'ToBaCCo'
  _symmetry_space_group_name_H-M    'P1'
  _symmetry_Int_Tables_number       1
  _symmetry_cell_setting            triclinic
  loop_
  _symmetry_equiv_pos_as_xyz
 x,y,z
_cell_length_a 14.4135
_cell_length_b 14.4135
_cell_length_c 29.3395
_cell_angle_alpha 90.000000
_cell_angle_beta 90.000000
_cell_angle_gamma 120.000000
loop_
  _atom_site_label
  _atom_site_type_symbol
  _atom_site_fract_x
  _atom_site_fract_y
  _atom_site_fract_z
Zn1 Zn 0.89261 0.02141 1.01925
 Zn2 Zn 1.12883 0.10742 1.01925
 Zn3 Zn 0.97861 -0.12880 1.01925
 Zn4 Zn 1.00002 0.00001 0.93592
 O5 O 1.00002 0.00001 0.99836
 O6 O 0.94079 0.13889 1.05390
 O7 O 1.19811 0.05923 1.05390
 O8 O 0.86114 -0.19809 1.05390
 O9 O 1.11572 0.20113 1.05463
 O10 O 0.79889 -0.08541 1.05463
 O11 O 1.08543 -0.11569 1.05463
 O12 O 0.97227 -0.12667 0.91241
 O13 O 1.21881 0.18296 0.97427
 O14 O 0.96417 -0.21878 0.97427
 O15 O 1.12669 0.09894 0.91241
 O16 O 0.90108 0.02776 0.91241
 O17 O 0.81707 0.03585 0.97427
 C18 C 1.03440 0.20655 1.06717
 C19 C 1.17218 -0.03437 1.06717
 C20 C 0.79347 -0.17215 1.06717
 C21 C 0.96040 -0.21121 0.93132
 C22 C 1.21123 0.17161 0.93132
 C23 C 0.82841 0.03963 0.93132
 Zn24 Zn 0.10742 0.97861 0.51925
 Zn25 Zn -0.12880 0.89260 0.51925
 Zn26 Zn 0.02142 1.12882 0.51925
 Zn27 Zn 0.00002 1.00001 0.43592
 O28 O 0.00002 1.00001 0.49836
 O29 O 0.05924 0.86114 0.55390
 O30 O -0.19808 0.94079 0.55390
 O31 O 0.13889 1.19811 0.55390
 O32 O -0.11569 0.79889 0.55463
 O33 O 0.20114 1.08543 0.55463
 O34 O -0.08540 1.11572 0.55463
 O35 O 0.02776 1.12669 0.41241
 O36 O -0.21878 0.81706 0.47427
 O37 O 0.03586 1.21880 0.47427
 O38 O -0.12666 0.90108 0.41241
 O39 O 0.09895 0.97227 0.41241
 O40 O 0.18296 0.96417 0.47427
 C41 C -0.03437 0.79347 0.56717
 C42 C -0.17215 1.03439 0.56717
 C43 C 0.20656 1.17217 0.56717
 C44 C 0.03963 1.21123 0.43132
 C45 C -0.21120 0.82841 0.43132
 C46 C 0.17162 0.96039 0.43132
 O47 O 0.15930 0.57010 0.30276
 O48 O 0.23796 0.77394 0.28645
 C49 C 0.31995 0.83078 0.31099
 O50 O 0.41082 0.84073 0.30276
 O51 O 0.53600 0.76207 0.28645
 C52 C 0.51085 0.68007 0.31099
 O53 O 0.42993 0.58921 0.30276
 O54 O 0.22609 0.46403 0.28645
 C55 C 0.16924 0.48918 0.31099
 O56 O 0.13630 0.52748 0.21224
 O57 O 0.22554 0.73286 0.19625
 C58 C 0.30576 0.82467 0.18863
 O59 O 0.39120 0.86373 0.21224
 O60 O 0.50734 0.77448 0.19625
 C61 C 0.51893 0.69426 0.18863
 O62 O 0.47255 0.60883 0.21224
 O63 O 0.26717 0.49269 0.19625
 C64 C 0.17536 0.48110 0.18863
 Cr65 Cr 0.19461 0.65150 0.24938
 Cr66 Cr 0.45691 0.80542 0.24938
 Cr67 Cr 0.34853 0.54312 0.24938
 O68 O 0.33335 0.66668 0.24914
 O69 O 0.84073 0.42992 0.80276
 O70 O 0.76207 0.22609 0.78645
 C71 C 0.68008 0.16924 0.81099
 O72 O 0.58921 0.15929 0.80276
 O73 O 0.46403 0.23795 0.78645
 C74 C 0.48918 0.31995 0.81099
 O75 O 0.57010 0.41081 0.80276
 O76 O 0.77394 0.53599 0.78645
 C77 C 0.83079 0.51084 0.81099
 O78 O 0.86373 0.47255 0.71224
 O79 O 0.77449 0.26716 0.69625
 C80 C 0.69427 0.17535 0.68863
 O81 O 0.60883 0.13629 0.71224
 O82 O 0.49269 0.22554 0.69625
 C83 C 0.48110 0.30576 0.68863
 O84 O 0.52748 0.39119 0.71224
 O85 O 0.73287 0.50733 0.69625
 C86 C 0.82467 0.51892 0.68863
 Cr87 Cr 0.80542 0.34852 0.74938
 Cr88 Cr 0.54312 0.19460 0.74938
 Cr89 Cr 0.65150 0.45691 0.74938
 O90 O 0.66668 0.33334 0.74914
 N91 N 0.01095 0.38421 0.14438
 N92 N -0.02967 0.31090 0.11174
 C93 C 0.04846 0.29060 0.09920
 C94 C 0.13808 0.35328 0.12516
 N95 N 0.11129 0.41022 0.15298
 H96 H 0.21357 0.35399 0.12523
 N97 N 0.61581 0.62675 0.14438
 N98 N 0.68913 0.65944 0.11174
 C99 C 0.70942 0.75786 0.09920
 C100 C 0.64674 0.78481 0.12516
 N101 N 0.58981 0.70108 0.15298
 H102 H 0.64603 0.85958 0.12523
 N103 N 0.37328 0.98907 0.14438
 N104 N 0.34059 1.02970 0.11174
 C105 C 0.24216 0.95157 0.09920
 C106 C 0.21522 0.86194 0.12516
 N107 N 0.29895 0.88873 0.15298
 H108 H 0.14044 0.78646 0.12523
 N109 N 0.98908 0.61581 0.64438
 N110 N 1.02970 0.68912 0.61174
 C111 C 0.95157 0.70942 0.59920
 C112 C 0.86195 0.64674 0.62516
 N113 N 0.88874 0.58980 0.65298
 H114 H 0.78646 0.64603 0.62523
 N115 N 0.38422 0.37327 0.64438
 N116 N 0.31090 0.34059 0.61174
 C117 C 0.29061 0.24216 0.59920
 C118 C 0.35329 0.21522 0.62516
 N119 N 0.41022 0.29894 0.65298
 H120 H 0.35400 0.14044 0.62523
 N121 N 0.62675 0.01095 0.64438
 N122 N 0.65944 -0.02967 0.61174
 C123 C 0.75787 0.04845 0.59920
 C124 C 0.78481 0.13808 0.62516
 N125 N 0.70108 0.11129 0.65298
 H126 H 0.85959 0.21356 0.62523
 N127 N 0.45458 0.37841 0.88369
 N128 N 0.38264 0.34078 0.91691
 C129 C 0.30341 0.24403 0.90316
 C130 C 0.32895 0.22316 0.86056
 N131 N 0.42391 0.30887 0.84968
 H132 H 0.28531 0.15102 0.84040
 N133 N 0.92385 0.54545 0.88369
 N134 N 0.95816 0.61738 0.91691
 C135 C 0.94064 0.69661 0.90316
 C136 C 0.89424 0.67108 0.86056
 N137 N 0.88498 0.57611 0.84968
 H138 H 0.86574 0.71472 0.84040
 N139 N 0.62162 0.07617 0.88369
 N140 N 0.65924 0.04187 0.91691
 C141 C 0.75599 0.05939 0.90316
 C142 C 0.77686 0.10579 0.86056
 N143 N 0.69116 0.11505 0.84968
 H144 H 0.84900 0.13429 0.84040
 N145 N 0.54545 0.62161 0.38369
 N146 N 0.61739 0.65924 0.41691
 C147 C 0.69662 0.75599 0.40316
 C148 C 0.67108 0.77686 0.36056
 N149 N 0.57612 0.69115 0.34968
 H150 H 0.71473 0.84900 0.34040
 N151 N 0.07618 0.45457 0.38369
 N152 N 0.04187 0.38264 0.41691
 C153 C 0.05939 0.30341 0.40316
 C154 C 0.10579 0.32894 0.36056
 N155 N 0.11505 0.42391 0.34968
 H156 H 0.13429 0.28530 0.34040
 N157 N 0.37841 0.92385 0.38369
 N158 N 0.34079 0.95815 0.41691
 C159 C 0.24404 0.94063 0.40316
 C160 C 0.22317 0.89423 0.36056
 N161 N 0.30887 0.88498 0.34968
 H162 H 0.15103 0.86574 0.34040
   
