data_POSCAR
  _audit_creation_date              2014-09-24
  _audit_creation_method            'ToBaCCo'
  _symmetry_space_group_name_H-M    'P1'
  _symmetry_Int_Tables_number       1
  _symmetry_cell_setting            triclinic
  loop_
  _symmetry_equiv_pos_as_xyz
 x,y,z
_cell_length_a 27.0192
_cell_length_b 27.0826
_cell_length_c 67.8267
_cell_angle_alpha 90.844900
_cell_angle_beta 89.842900
_cell_angle_gamma 119.236300
loop_
  _atom_site_label
  _atom_site_type_symbol
  _atom_site_fract_x
  _atom_site_fract_y
  _atom_site_fract_z
C1 C 0.01302 0.01364 0.51763
 C2 C -0.03993 -0.03222 0.50680
 C3 C -0.02781 -0.06087 0.49251
 C4 C 0.03601 -0.04074 0.49036
 C5 C 0.04328 -0.01745 0.52529
 C6 C 0.05446 -0.04680 0.51119
 C7 C 0.05082 0.05120 0.50134
 C8 C 0.06308 0.02344 0.48701
 H9 H -0.08276 -0.04189 0.51041
 H10 H 0.04664 -0.06339 0.47877
 H11 H 0.04691 -0.02322 0.54090
 H12 H 0.06559 0.09628 0.50102
 C13 C 0.96938 -0.02003 0.18616
 C14 C 1.01877 -0.02508 0.17665
 C15 C 1.05004 0.01761 0.16383
 C16 C 1.02905 0.06104 0.16191
 C17 C 0.99499 0.03594 0.19513
 C18 C 1.02951 0.08059 0.18210
 C19 C 0.93543 -0.01759 0.16870
 C20 C 0.96603 0.02467 0.15595
 H21 H 1.02789 -0.05896 0.17970
 H22 H 1.05352 0.09564 0.15141
 H23 H 0.99569 0.04220 0.21098
 H24 H 0.89088 -0.04772 0.16647
 C25 C 0.01226 0.99816 0.85239
 C26 C 0.01919 1.05097 0.84172
 C27 C -0.02114 1.03899 0.82750
 C28 C -0.06424 0.97548 0.82527
 C29 C -0.04850 0.96931 0.86012
 C30 C -0.08856 0.95827 0.84610
 C31 C 0.01223 0.95932 0.83596
 C32 C -0.02738 0.94721 0.82171
 H33 H 0.05202 1.09359 0.84532
 H34 H -0.09717 0.96499 0.81375
 H35 H -0.05794 0.96628 0.87575
 H36 H 0.04234 0.94375 0.83549
 O37 O 0.56220 0.06431 -0.02115
 O38 O 0.49065 0.08057 0.02338
 O39 O 0.58657 0.08003 0.01662
 O40 O 0.47304 0.07503 -0.01443
 O41 O 0.42391 -0.01780 -0.01127
 O42 O 0.53929 -0.01302 0.01910
 O43 O 0.44479 -0.01239 0.02633
 O44 O 0.51288 -0.02849 -0.01798
 Cu45 Cu 0.53315 0.08433 0.00090
 Cu46 Cu 0.47546 -0.02708 0.00439
 C47 C 0.54907 0.01456 -0.02712
 C48 C 0.45497 0.03624 0.03227
 C49 C 0.58274 0.03447 0.02293
 C50 C 0.42917 0.02801 -0.01810
 O51 O -0.05471 0.50524 0.64230
 O52 O -0.07376 0.41774 0.68631
 O53 O -0.07184 0.51457 0.67995
 O54 O -0.06617 0.40568 0.64860
 O55 O 0.02667 0.44695 0.65292
 O56 O 0.02119 0.55743 0.68379
 O57 O 0.01922 0.46209 0.69047
 O58 O 0.03807 0.54646 0.64672
 Cu59 Cu -0.07598 0.45681 0.66397
 Cu60 Cu 0.03546 0.50745 0.66891
 C61 C -0.00454 0.54062 0.63704
 C62 C -0.02992 0.42492 0.69570
 C63 C -0.02640 0.55479 0.68706
 C64 C -0.01903 0.40751 0.64550
 O65 O 0.54635 0.56782 0.32036
 O66 O 0.44192 0.45556 0.35206
 O67 O 0.53734 0.54859 0.35800
 O68 O 0.44651 0.48057 0.31521
 O69 O 0.48903 0.42979 0.30958
 O70 O 0.58269 0.50032 0.35287
 O71 O 0.48578 0.40579 0.34711
 O72 O 0.58897 0.51693 0.31518
 Cu73 Cu 0.48880 0.51810 0.33697
 Cu74 Cu 0.54074 0.45790 0.33077
 C75 C 0.58539 0.56123 0.31234
 C76 C 0.44593 0.41131 0.35483
 C77 C 0.57601 0.53721 0.36261
 C78 C 0.45184 0.44379 0.30509
 C79 C -0.00587 0.11794 0.56025
 N80 N 0.04498 0.12071 0.55713
 N81 N 0.05000 0.08657 0.54398
 C82 C 0.00438 0.04811 0.53346
 N83 N -0.04679 0.04487 0.53668
 N84 N -0.05181 0.07921 0.54987
 C85 C -0.00966 0.15839 0.57395
 N86 N -0.05938 0.15845 0.57684
 N87 N -0.06149 0.19714 0.58867
 C88 C -0.01396 0.23715 0.59798
 N89 N 0.03558 0.23681 0.59516
 N90 N 0.03767 0.19817 0.58337
 C91 C -0.01552 0.28095 0.61053
 N92 N 0.03279 0.32232 0.61899
 N93 N 0.03178 0.36273 0.63013
 C94 C -0.01762 0.36321 0.63321
 N95 N -0.06595 0.32179 0.62479
 N96 N -0.06492 0.28143 0.61362
 C97 C 0.86081 0.85402 0.22546
 N98 N 0.85369 0.89897 0.22135
 N99 N 0.88847 0.93848 0.20903
 C100 C 0.93190 0.93479 0.20035
 N101 N 0.93924 0.88982 0.20447
 N102 N 0.90424 0.85008 0.21682
 C103 C 0.82119 0.81046 0.23883
 N104 N 0.82549 0.76366 0.24271
 N105 N 0.78844 0.72407 0.25464
 C106 C 0.74589 0.72993 0.26308
 N107 N 0.74178 0.77678 0.25921
 N108 N 0.77872 0.81626 0.24731
 C109 C 0.70449 0.68625 0.27600
 N110 N 0.66229 0.69272 0.28441
 N111 N 0.62429 0.65295 0.29602
 C112 C 0.62713 0.60524 0.29962
 N113 N 0.66935 0.59879 0.29122
 N114 N 0.70736 0.63857 0.27962
 C115 C 0.13304 0.01628 -0.10481
 N116 N 0.08626 -0.03436 -0.10839
 N117 N 0.04795 -0.03915 -0.12164
 C118 C 0.05474 0.00649 -0.13183
 N119 N 0.10140 0.05744 -0.12817
 N120 N 0.13989 0.06224 -0.11487
 C121 C 0.17620 0.01986 -0.09089
 N122 N 0.22450 0.06945 -0.08739
 N123 N 0.26427 0.07138 -0.07529
 C124 C 0.25717 0.02381 -0.06634
 N125 N 0.20877 -0.02561 -0.06979
 N126 N 0.16906 -0.02753 -0.08183
 C127 C 0.30148 0.02518 -0.05351
 N128 N 0.29520 -0.02322 -0.04551
 N129 N 0.33580 -0.02241 -0.03418
 C130 C 0.38414 0.02688 -0.03044
 N131 N 0.39035 0.07531 -0.03839
 N132 N 0.34979 0.07448 -0.04975
 C133 C 0.06209 0.81658 0.53492
 N134 N 0.10048 0.87028 0.54039
 N135 N 0.10082 0.91429 0.53178
 C136 C 0.06353 0.90628 0.51709
 N137 N 0.02639 0.85260 0.51113
 N138 N 0.02553 0.80849 0.51993
 C139 C 0.05532 0.76906 0.54695
 N140 N 0.00550 0.71955 0.54692
 N141 N -0.00358 0.67954 0.55992
 C142 C 0.03698 0.68757 0.57335
 N143 N 0.08717 0.73654 0.57307
 N144 N 0.09604 0.77666 0.56020
 C145 C 0.02588 0.64639 0.58894
 N146 N 0.06876 0.65292 0.60095
 N147 N 0.05878 0.61849 0.61603
 C148 C 0.00547 0.57648 0.61981
 N149 N -0.03758 0.56959 0.60775
 N150 N -0.02751 0.60395 0.59255
 C151 C 0.15825 0.22395 0.20768
 N152 N 0.16344 0.20920 0.18887
 N153 N 0.12025 0.16483 0.17997
 C154 C 0.07091 0.13287 0.18975
 N155 N 0.06567 0.14873 0.20838
 N156 N 0.10822 0.19362 0.21709
 C157 C 0.20694 0.26730 0.21880
 N158 N 0.19804 0.29405 0.23433
 N159 N 0.24040 0.32707 0.24644
 C160 C 0.29308 0.33376 0.24374
 N161 N 0.30231 0.30749 0.22808
 N162 N 0.25996 0.27496 0.21577
 C163 C 0.33745 0.36549 0.25853
 N164 N 0.38342 0.35795 0.26036
 N165 N 0.42056 0.38316 0.27506
 C166 C 0.41301 0.41691 0.28835
 N167 N 0.36749 0.42489 0.28630
 N168 N 0.33026 0.39941 0.27177
 C169 C 0.76670 -0.04839 -0.12995
 N170 N 0.78247 -0.08702 -0.12487
 N171 N 0.82645 -0.08756 -0.13354
 C172 C 0.85563 -0.05022 -0.14791
 N173 N 0.83873 -0.01278 -0.15348
 N174 N 0.79515 -0.01172 -0.14461
 C175 C 0.72511 -0.04175 -0.11787
 N176 N 0.72459 0.00818 -0.11728
 N177 N 0.69258 0.01692 -0.10420
 C178 C 0.65978 -0.02411 -0.09133
 N179 N 0.65943 -0.07437 -0.09224
 N180 N 0.69176 -0.08290 -0.10517
 C181 C 0.62832 -0.01359 -0.07565
 N182 N 0.59186 -0.05694 -0.06427
 N183 N 0.56614 -0.04763 -0.04907
 C184 C 0.57622 0.00545 -0.04453
 N185 N 0.61246 0.04899 -0.05596
 N186 N 0.63804 0.03959 -0.07128
 C187 C 0.18795 0.03179 0.13101
 N188 N 0.15593 -0.01534 0.14169
 N189 N 0.11244 -0.01982 0.15238
 C190 C 0.09923 0.02257 0.15269
 N191 N 0.13150 0.06971 0.14209
 N192 N 0.17503 0.07429 0.13148
 C193 C 0.23408 0.03582 0.11840
 N194 N 0.26671 0.08360 0.10812
 N195 N 0.30641 0.08620 0.09580
 C196 C 0.31485 0.04105 0.09327
 N197 N 0.28256 -0.00652 0.10368
 N198 N 0.24300 -0.00907 0.11604
 C199 C 0.35525 0.04189 0.07853
 N200 N 0.35698 -0.00625 0.07414
 N201 N 0.39010 -0.00724 0.05976
 C202 C 0.42306 0.03992 0.04928
 N203 N 0.42210 0.08845 0.05383
 N204 N 0.38867 0.08937 0.06819
 C205 C 0.84928 0.80502 0.45842
 N206 N 0.83420 0.83555 0.47067
 N207 N 0.87310 0.87807 0.48160
 C208 C 0.92858 0.89186 0.48061
 N209 N 0.94352 0.86122 0.46839
 N210 N 0.90466 0.81861 0.45751
 C211 C 0.80671 0.75931 0.44588
 N212 N 0.82131 0.72740 0.43415
 N213 N 0.78321 0.68762 0.42215
 C214 C 0.72912 0.67838 0.42144
 N215 N 0.71448 0.71003 0.43327
 N216 N 0.75249 0.74963 0.44531
 C217 C 0.68787 0.63770 0.40721
 N218 N 0.63718 0.63573 0.40462
 N219 N 0.60110 0.60230 0.39078
 C220 C 0.61402 0.56918 0.37906
 N221 N 0.66437 0.57035 0.38181
 N222 N 0.70072 0.60414 0.39563
 C223 C -0.03215 0.16098 0.79331
 N224 N -0.07403 0.10623 0.79281
 N225 N -0.07036 0.06772 0.80376
 C226 C -0.02478 0.08238 0.81565
 N227 N 0.01701 0.13727 0.81624
 N228 N 0.01346 0.17582 0.80523
 C229 C -0.03527 0.20290 0.78060
 N230 N 0.00940 0.25603 0.77932
 N231 N 0.00768 0.29313 0.76706
 C232 C -0.03886 0.27864 0.75569
 N233 N -0.08382 0.22570 0.75712
 N234 N -0.08202 0.18850 0.76934
 C235 C -0.03872 0.31850 0.74117
 N236 N -0.08549 0.30566 0.73011
 N237 N -0.08360 0.34038 0.71601
 C238 C -0.03478 0.38904 0.71244
 N239 N 0.01167 0.40201 0.72364
 N240 N 0.00970 0.36754 0.73777
 C241 C 0.87827 0.03730 0.10741
 N242 N 0.92198 0.08490 0.11549
 N243 N 0.95228 0.08135 0.13041
 C244 C 0.93948 0.03010 0.13779
 N245 N 0.89660 -0.01718 0.12940
 N246 N 0.86680 -0.01369 0.11448
 C247 C 0.83994 0.03959 0.09258
 N248 N 0.79649 -0.00949 0.08541
 N249 N 0.75777 -0.00913 0.07345
 C250 C 0.76082 0.04038 0.06821
 N251 N 0.80472 0.08973 0.07513
 N252 N 0.84359 0.08936 0.08715
 C253 C 0.71553 0.03958 0.05604
 N254 N 0.71735 0.08830 0.05036
 N255 N 0.67504 0.08676 0.03979
 C256 C 0.62931 0.03648 0.03465
 N257 N 0.62758 -0.01213 0.04033
 N258 N 0.66988 -0.01059 0.05083
 C259 C 0.16394 0.11910 0.44024
 N260 N 0.12871 0.13357 0.44979
 N261 N 0.09569 0.10186 0.46421
 C262 C 0.09610 0.05406 0.46964
 N263 N 0.13038 0.03854 0.45981
 N264 N 0.16396 0.07071 0.44538
 C265 C 0.20349 0.15815 0.42566
 N266 N 0.24579 0.15085 0.41775
 N267 N 0.28378 0.18955 0.40576
 C268 C 0.28079 0.23684 0.40131
 N269 N 0.23817 0.24362 0.40906
 N270 N 0.20038 0.20512 0.42101
 C271 C 0.32364 0.28138 0.38894
 N272 N 0.32045 0.32902 0.38552
 N273 N 0.35953 0.37040 0.37472
 C274 C 0.40342 0.36579 0.36695
 N275 N 0.40668 0.31810 0.37032
 N276 N 0.36754 0.27665 0.38116
 C277 C -0.03292 0.84399 0.77429
 N278 N -0.08047 0.84631 0.77946
 N279 N -0.07889 0.88054 0.79414
 C280 C -0.02983 0.91310 0.80423
 N281 N 0.01753 0.91111 0.79880
 N282 N 0.01608 0.87746 0.78412
 C283 C -0.03374 0.80383 0.75931
 N284 N 0.01560 0.80520 0.75437
 N285 N 0.01592 0.76675 0.74203
 C286 C -0.03316 0.72518 0.73419
 N287 N -0.08268 0.72395 0.73894
 N288 N -0.08299 0.76262 0.75131
 C289 C -0.03203 0.68134 0.72148
 N290 N -0.08054 0.63773 0.71399
 N291 N -0.07883 0.59737 0.70299
 C292 C -0.02862 0.59909 0.69914
 N293 N 0.01979 0.64275 0.70658
 N294 N 0.01809 0.68304 0.71756
   
