data_POSCAR
  _audit_creation_date              2014-09-24
  _audit_creation_method            'ToBaCCo'
  _symmetry_space_group_name_H-M    'P1'
  _symmetry_Int_Tables_number       1
  _symmetry_cell_setting            triclinic
  loop_
  _symmetry_equiv_pos_as_xyz
 x,y,z
_cell_length_a 39.7173
_cell_length_b 39.7985
_cell_length_c 39.8117
_cell_angle_alpha 87.039000
_cell_angle_beta 89.572600
_cell_angle_gamma 85.196500
loop_
  _atom_site_label
  _atom_site_type_symbol
  _atom_site_fract_x
  _atom_site_fract_y
  _atom_site_fract_z
C1 C 0.60541 0.65489 0.61638
 C2 C 0.60557 0.62753 0.64005
 C3 C 0.63356 0.60323 0.64303
 C4 C 0.66088 0.60660 0.62051
 C5 C 0.66058 0.63344 0.59615
 C6 C 0.63304 0.65791 0.59472
 H7 H 0.58449 0.62670 0.65738
 H8 H 0.68216 0.58773 0.62087
 H9 H 0.63249 0.67866 0.57594
 C10 C 0.89276 0.35505 0.11476
 C11 C 0.86750 0.35847 0.08975
 C12 C 0.84067 0.38372 0.09067
 C13 C 0.83920 0.40633 0.11658
 C14 C 0.86406 0.40372 0.14161
 C15 C 0.89046 0.37800 0.14074
 H16 H 0.86781 0.34085 0.06991
 H17 H 0.81867 0.42601 0.11727
 H18 H 0.90978 0.37683 0.15990
 C19 C 0.41096 0.14070 -0.11111
 C20 C 0.38616 0.13745 -0.08611
 C21 C 0.36319 0.11259 -0.08749
 C22 C 0.36533 0.09074 -0.11414
 C23 C 0.38996 0.09369 -0.13939
 C24 C 0.41267 0.11876 -0.13768
 H25 H 0.38466 0.15439 -0.06560
 H26 H 0.34768 0.07149 -0.11531
 H27 H 0.43169 0.12125 -0.15709
 C28 C 0.09300 0.83798 0.38777
 C29 C 0.09228 0.86360 0.36179
 C30 C 0.11543 0.88843 0.36101
 C31 C 0.13998 0.88754 0.38620
 C32 C 0.14147 0.86231 0.41214
 C33 C 0.11794 0.83785 0.41291
 H34 H 0.07302 0.86520 0.34256
 H35 H 0.15797 0.90658 0.38564
 H36 H 0.12001 0.81816 0.43276
 N37 N 0.08679 0.17860 0.12251
 N38 N 0.07562 0.16390 0.15025
 C39 C 0.04806 0.18238 0.16109
 C40 C 0.04144 0.20984 0.13867
 C41 C 0.06648 0.20658 0.11447
 H42 H 0.03349 0.17611 0.18325
 H43 H 0.06998 0.22366 0.09295
 Cu44 Cu 0.09768 0.12144 0.16851
 Cu45 Cu 0.12760 0.16128 0.09962
 Cu46 Cu 0.16852 0.08674 0.13308
 N47 N 0.12055 0.07943 0.18689
 N48 N 0.14847 0.06623 0.17315
 C49 C 0.15924 0.03764 0.19079
 C50 C 0.13673 0.03245 0.21690
 C51 C 0.11246 0.05949 0.21361
 H52 H 0.18152 0.02156 0.18476
 H53 H 0.09080 0.06445 0.22974
 N54 N 0.18474 0.11136 0.09265
 N55 N 0.16928 0.13988 0.08015
 C56 C 0.18688 0.15106 0.05341
 C57 C 0.21469 0.12845 0.04868
 C58 C 0.21245 0.10353 0.07397
 H59 H 0.17995 0.17395 0.03838
 H60 H 0.23016 0.08172 0.07884
 H61 H 0.12426 0.11103 0.11419
 H62 H 0.15014 0.13573 0.14131
 N63 N 0.41714 0.83938 0.61044
 N64 N 0.43252 0.85559 0.63299
 C65 C 0.46340 0.83981 0.63890
 C66 C 0.46741 0.81207 0.61928
 C67 C 0.43752 0.81251 0.60159
 H68 H 0.48134 0.84730 0.65679
 H69 H 0.43127 0.79484 0.58334
 Cu70 Cu 0.40970 0.89422 0.65412
 Cu71 Cu 0.37250 0.85516 0.59318
 Cu72 Cu 0.33236 0.92556 0.62883
 N73 N 0.38633 0.93283 0.67485
 N74 N 0.35591 0.94469 0.66507
 C75 C 0.34478 0.96996 0.68457
 C76 C 0.36953 0.97423 0.70795
 C77 C 0.39559 0.95022 0.70092
 H78 H 0.32031 0.98392 0.68209
 H79 H 0.41905 0.94502 0.71453
 N80 N 0.31262 0.90260 0.59195
 N81 N 0.32747 0.87531 0.57896
 C82 C 0.30786 0.86582 0.55426
 C83 C 0.27939 0.88833 0.55142
 C84 C 0.28329 0.91128 0.57575
 H85 H 0.31433 0.84476 0.53870
 H86 H 0.26604 0.93279 0.58119
 H87 H 0.37473 0.90509 0.60408
 H88 H 0.35520 0.87721 0.63657
 N89 N 0.92020 0.67022 0.37834
 N90 N 0.93217 0.65937 0.34961
 C91 C 0.95714 0.67829 0.33903
 C92 C 0.96125 0.70200 0.36257
 C93 C 0.93743 0.69608 0.38722
 H94 H 0.97169 0.67480 0.31623
 H95 H 0.93261 0.70995 0.40965
 Cu96 Cu 0.91462 0.62089 0.32949
 Cu97 Cu 0.88244 0.65081 0.40152
 Cu98 Cu 0.85004 0.58293 0.36543
 N99 N 0.89662 0.58235 0.30987
 N100 N 0.87105 0.56794 0.32386
 C101 C 0.86346 0.54224 0.30539
 C102 C 0.88562 0.54021 0.27843
 C103 C 0.90636 0.56607 0.28212
 H104 H 0.84370 0.52583 0.31150
 H105 H 0.92682 0.57267 0.26567
 N106 N 0.83219 0.60172 0.40744
 N107 N 0.84423 0.62778 0.42103
 C108 C 0.82620 0.63502 0.44893
 C109 C 0.80182 0.61227 0.45324
 C110 C 0.80644 0.59153 0.42648
 H111 H 0.83061 0.65521 0.46509
 H112 H 0.79163 0.57093 0.42094
 H113 H 0.89208 0.60300 0.38406
 H114 H 0.86153 0.63268 0.35944
 N115 N 0.57517 0.31915 -0.11616
 N116 N 0.55976 0.33616 -0.14159
 C117 C 0.53434 0.31890 -0.15193
 C118 C 0.53358 0.28961 -0.13167
 C119 C 0.55988 0.29067 -0.10922
 H120 H 0.51736 0.32728 -0.17235
 H121 H 0.56763 0.27189 -0.08959
 Cu122 Cu 0.57365 0.37960 -0.15838
 Cu123 Cu 0.61409 0.33495 -0.09428
 Cu124 Cu 0.64608 0.40657 -0.13033
 N125 N 0.59484 0.41671 -0.18119
 N126 N 0.62345 0.42670 -0.17059
 C127 C 0.63249 0.45238 -0.19109
 C128 C 0.60813 0.45902 -0.21577
 C129 C 0.58456 0.43588 -0.20866
 H130 H 0.65478 0.46570 -0.18786
 H131 H 0.56184 0.43297 -0.22263
 N132 N 0.66527 0.38254 -0.08944
 N133 N 0.65329 0.35499 -0.07593
 C134 C 0.67192 0.34416 -0.04878
 C135 C 0.69673 0.36606 -0.04484
 C136 C 0.69168 0.39014 -0.07106
 H137 H 0.66753 0.32218 -0.03277
 H138 H 0.70649 0.41132 -0.07662
 H139 H 0.60526 0.38599 -0.10708
 H140 H 0.62966 0.35959 -0.13802
 C141 C -0.06789 0.31759 0.08273
 C142 C -0.08032 0.32930 0.11373
 C143 C -0.06530 0.31451 0.14365
 C144 C -0.03907 0.28863 0.14258
 C145 C -0.02668 0.27784 0.11126
 C146 C -0.04123 0.29249 0.08154
 C147 C -0.00011 0.25237 0.11016
 C148 C 0.01361 0.23679 0.14003
 C149 C 0.00062 0.24710 0.17109
 C150 C -0.02529 0.27304 0.17238
 H151 H -0.07494 0.32181 0.16797
 H152 H -0.03198 0.28453 0.05728
 H153 H 0.00941 0.24420 0.08607
 H154 H -0.03460 0.28082 0.19667
 H155 H -0.07764 0.32875 0.05903
 H156 H 0.01093 0.23551 0.19442
 C157 C 0.54357 0.67074 0.60973
 C158 C 0.57627 0.68051 0.61453
 C159 C 0.58098 0.71467 0.61833
 C160 C 0.55315 0.73886 0.61798
 C161 C 0.52031 0.72888 0.61272
 C162 C 0.51583 0.69478 0.60848
 C163 C 0.49248 0.75307 0.61238
 C164 C 0.49689 0.78692 0.61827
 C165 C 0.52954 0.79651 0.62386
 C166 C 0.55749 0.77276 0.62336
 H167 H 0.60619 0.72219 0.62241
 H168 H 0.49084 0.68666 0.60459
 H169 H 0.46731 0.74538 0.60850
 H170 H 0.58244 0.78082 0.62755
 H171 H 0.53960 0.64447 0.60673
 H172 H 0.53350 0.82251 0.62827
 C173 C 1.05853 0.79843 0.41956
 C174 C 1.06928 0.81314 0.38865
 C175 C 1.05573 0.80237 0.35866
 C176 C 1.03249 0.77764 0.35953
 C177 C 1.02167 0.76381 0.39073
 C178 C 1.03484 0.77437 0.42055
 C179 C 0.99806 0.73943 0.39160
 C180 C 0.98579 0.72799 0.36159
 C181 C 0.99720 0.74142 0.33065
 C182 C 1.02014 0.76623 0.32961
 H183 H 1.06431 0.81192 0.33439
 H184 H 1.02678 0.76406 0.44473
 H185 H 0.98979 0.72887 0.41561
 H186 H 1.02828 0.77641 0.30541
 H187 H 1.06717 0.80646 0.44333
 H188 H 0.98797 0.73312 0.30720
 C189 C 0.45139 0.17202 -0.07924
 C190 C 0.43501 0.16710 -0.10953
 C191 C 0.44162 0.18752 -0.13830
 C192 C 0.46425 0.21265 -0.13681
 C193 C 0.48084 0.21717 -0.10628
 C194 C 0.47422 0.19674 -0.07765
 C195 C 0.50362 0.24216 -0.10484
 C196 C 0.50974 0.26309 -0.13340
 C197 C 0.49285 0.25859 -0.16353
 C198 C 0.47044 0.23348 -0.16528
 H199 H 0.42876 0.18417 -0.16166
 H200 H 0.48667 0.19989 -0.05403
 H201 H 0.51612 0.24563 -0.08132
 H202 H 0.45792 0.23039 -0.18888
 H203 H 0.44683 0.15639 -0.05685
 H204 H 0.49729 0.27418 -0.18595
 C205 C 0.08257 -0.06649 0.32567
 C206 C 0.11366 -0.08425 0.33416
 C207 C 0.14314 -0.07547 0.31730
 C208 C 0.14162 -0.04916 0.29234
 C209 C 0.11028 -0.03114 0.28433
 C210 C 0.08089 -0.04009 0.30106
 C211 C 0.10885 -0.00449 0.25976
 C212 C 0.13828 0.00421 0.24273
 C213 C 0.16922 -0.01420 0.25058
 C214 C 0.17091 -0.04054 0.27527
 H215 H 0.16717 -0.08930 0.32343
 H216 H 0.05665 -0.02659 0.29520
 H217 H 0.08474 0.00916 0.25365
 H218 H 0.19514 -0.05412 0.28105
 H219 H 0.05960 -0.07265 0.33857
 H220 H 0.19231 -0.00791 0.23804
 C221 C 0.66539 0.56219 -0.31809
 C222 C 0.63439 0.57643 -0.33188
 C223 C 0.60430 0.56345 -0.31965
 C224 C 0.60516 0.53735 -0.29449
 C225 C 0.63640 0.52406 -0.28068
 C226 C 0.66631 0.53655 -0.29275
 C227 C 0.63722 0.49849 -0.25500
 C228 C 0.60719 0.48558 -0.24325
 C229 C 0.57627 0.49846 -0.25767
 C230 C 0.57524 0.52423 -0.28294
 H231 H 0.58009 0.57256 -0.33045
 H232 H 0.69051 0.52670 -0.28236
 H233 H 0.66128 0.48843 -0.24447
 H234 H 0.55103 0.53399 -0.29334
 H235 H 0.68915 0.57180 -0.32556
 H236 H 0.55276 0.48909 -0.24896
 C237 C 0.42324 1.05599 0.82163
 C238 C 0.39186 1.07074 0.83235
 C239 C 0.36230 1.06357 0.81589
 C240 C 0.36402 1.04193 0.78909
 C241 C 0.39568 1.02703 0.77868
 C242 C 0.42514 1.03426 0.79509
 C243 C 0.39736 1.00513 0.75209
 C244 C 0.36779 0.99794 0.73558
 C245 C 0.33649 1.01321 0.74599
 C246 C 0.33461 1.03494 0.77251
 H247 H 0.33801 1.07519 0.82366
 H248 H 0.44963 1.02306 0.78746
 H249 H 0.42174 0.99393 0.74418
 H250 H 0.31013 1.04616 0.78014
 H251 H 0.44632 1.06092 0.83412
 H252 H 0.31325 1.00800 0.73404
 C253 C 0.83246 0.43577 0.18609
 C254 C 0.86269 0.42823 0.16846
 C255 C 0.89153 0.44443 0.17631
 C256 C 0.89017 0.46805 0.20136
 C257 C 0.85972 0.47523 0.21918
 C258 C 0.83102 0.45895 0.21136
 C259 C 0.85843 0.49870 0.24439
 C260 C 0.88706 0.51547 0.25179
 C261 C 0.91709 0.50838 0.23365
 C262 C 0.91869 0.48477 0.20878
 H263 H 0.91483 0.43905 0.16249
 H264 H 0.80745 0.46418 0.22472
 H265 H 0.83497 0.50421 0.25785
 H266 H 0.94222 0.47961 0.19533
 H267 H 0.81002 0.42341 0.18053
 H268 H 0.93959 0.52070 0.23899
 C269 C 0.33031 0.07810 -0.04650
 C270 C 0.33669 0.10977 -0.06131
 C271 C 0.31752 0.13881 -0.05118
 C272 C 0.29222 0.13630 -0.02663
 C273 C 0.28620 0.10438 -0.01163
 C274 C 0.30538 0.07543 -0.02176
 C275 C 0.26101 0.10194 0.01311
 C276 C 0.24140 0.13097 0.02273
 C277 C 0.24746 0.16252 0.00740
 C278 C 0.27272 0.16519 -0.01694
 H279 H 0.32196 0.16329 -0.06281
 H280 H 0.30109 0.05074 -0.01060
 H281 H 0.25636 0.07741 0.02443
 H282 H 0.27698 0.18985 -0.02820
 H283 H 0.34494 0.05543 -0.05380
 H284 H 0.23299 0.18532 0.01453
 C285 C 0.70297 0.66543 0.56350
 C286 C 0.68837 0.63500 0.57120
 C287 C 0.69986 0.60600 0.55440
 C288 C 0.72540 0.60738 0.52999
 C289 C 0.74006 0.63806 0.52247
 C290 C 0.72873 0.66692 0.53946
 C291 C 0.76543 0.63943 0.49779
 C292 C 0.77594 0.61065 0.48012
 C293 C 0.76115 0.58032 0.48788
 C294 C 0.73623 0.57865 0.51268
 H295 H 0.68836 0.58254 0.55978
 H296 H 0.73963 0.69067 0.53401
 H297 H 0.77636 0.66308 0.49184
 H298 H 0.72529 0.55492 0.51816
 H299 H 0.69458 0.68802 0.57628
 H300 H 0.76901 0.55769 0.47497
 C301 C 0.80352 0.41747 0.04844
 C302 C 0.81396 0.38619 0.06466
 C303 C 0.79883 0.35718 0.05595
 C304 C 0.77360 0.35933 0.03128
 C305 C 0.76356 0.39084 0.01478
 C306 C 0.77864 0.41976 0.02359
 C307 C 0.73856 0.39289 -0.01017
 C308 C 0.72311 0.36392 -0.01855
 C309 C 0.73305 0.33282 -0.00166
 C310 C 0.75817 0.33051 0.02291
 H311 H 0.80643 0.33302 0.06869
 H312 H 0.77121 0.44414 0.01126
 H313 H 0.73086 0.41711 -0.02266
 H314 H 0.76553 0.30616 0.03534
 H315 H 0.81500 0.44008 0.05467
 H316 H 0.72180 0.31007 -0.00778
 C317 C 0.18725 0.83102 0.44713
 C318 C 0.16794 0.86135 0.43829
 C319 C 0.17430 0.89089 0.45419
 C320 C 0.19976 0.89021 0.47851
 C321 C 0.21939 0.85969 0.48687
 C322 C 0.21285 0.83021 0.47113
 C323 C 0.24528 0.85918 0.51075
 C324 C 0.25164 0.88873 0.52668
 C325 C 0.23159 0.91881 0.51850
 C326 C 0.20597 0.91957 0.49456
 H327 H 0.15923 0.91430 0.44778
 H328 H 0.22761 0.80658 0.47725
 H329 H 0.26024 0.83571 0.51708
 H330 H 0.19113 0.94318 0.48850
 H331 H 0.18293 0.80805 0.43498
 H332 H 0.23605 0.94200 0.53013
   
