data_POSCAR
  _audit_creation_date              2014-09-24
  _audit_creation_method            'ToBaCCo'
  _symmetry_space_group_name_H-M    'P1'
  _symmetry_Int_Tables_number       1
  _symmetry_cell_setting            triclinic
  loop_
  _symmetry_equiv_pos_as_xyz
 x,y,z
_cell_length_a 43.5589
_cell_length_b 44.4305
_cell_length_c 45.3831
_cell_angle_alpha 88.869200
_cell_angle_beta 90.966400
_cell_angle_gamma 91.373300
loop_
  _atom_site_label
  _atom_site_type_symbol
  _atom_site_fract_x
  _atom_site_fract_y
  _atom_site_fract_z
C1 C 0.13843 0.14640 0.17085
 C2 C 0.14350 0.16649 0.14726
 C3 C 0.16760 0.16241 0.12851
 C4 C 0.18692 0.13792 0.13311
 C5 C 0.18214 0.11801 0.15654
 C6 C 0.15775 0.12249 0.17585
 C7 C 0.11835 0.14693 0.19377
 N8 N 0.12512 0.12432 0.21308
 C9 C 0.14915 0.10902 0.20224
 C10 C 0.20560 0.09763 0.15629
 N11 N 0.22446 0.10486 0.13348
 C12 C 0.21305 0.12956 0.11924
 C13 C 0.16889 0.18711 0.10965
 N14 N 0.14646 0.20615 0.11696
 C15 C 0.13058 0.19349 0.13973
 H16 H 0.10099 0.16358 0.19693
 H17 H 0.16024 0.09008 0.21287
 H18 H 0.20906 0.07928 0.17196
 H19 H 0.22269 0.14102 0.10019
 H20 H 0.18597 0.19175 0.09300
 H21 H 0.11165 0.20350 0.15078
 C22 C -0.15296 0.81919 0.19817
 C23 C -0.15597 0.79931 0.17472
 C24 C -0.18047 0.80147 0.15519
 C25 C -0.20232 0.82368 0.15884
 C26 C -0.19939 0.84352 0.18192
 C27 C -0.17437 0.84124 0.20185
 C28 C -0.13154 0.82165 0.22056
 N29 N -0.13915 0.84471 0.23794
 C30 C -0.16542 0.85691 0.22668
 C31 C -0.22410 0.86239 0.17978
 N32 N -0.24189 0.85437 0.15612
 C33 C -0.22855 0.83066 0.14321
 C34 C -0.17773 0.77894 0.13504
 N35 N -0.15208 0.76335 0.14188
 C36 C -0.13869 0.77562 0.16626
 H37 H -0.11179 0.80757 0.22402
 H38 H -0.17750 0.87549 0.23575
 H39 H -0.22886 0.88056 0.19447
 H40 H -0.23676 0.81913 0.12377
 H41 H -0.19334 0.77409 0.11684
 H42 H -0.11829 0.76769 0.17756
 C43 C -0.12999 0.18610 -0.20230
 C44 C -0.12988 0.20333 -0.17687
 C45 C -0.15295 0.19947 -0.15645
 C46 C -0.17660 0.17789 -0.16137
 C47 C -0.17662 0.16085 -0.18663
 C48 C -0.15318 0.16504 -0.20728
 C49 C -0.11041 0.18552 -0.22568
 N50 N -0.12110 0.16465 -0.24495
 C51 C -0.14735 0.15189 -0.23382
 C52 C -0.20197 0.14184 -0.18571
 N53 N -0.21748 0.14674 -0.16060
 C54 C -0.20209 0.16884 -0.14552
 C55 C -0.14669 0.21972 -0.13425
 N56 N -0.12047 0.23549 -0.14103
 C57 C -0.11012 0.22548 -0.16695
 H58 H -0.08984 0.19940 -0.22852
 H59 H -0.16129 0.13431 -0.24388
 H60 H -0.20866 0.12551 -0.20217
 H61 H -0.20853 0.17777 -0.12457
 H62 H -0.16023 0.22260 -0.11479
 H63 H -0.08969 0.23395 -0.17792
 C64 C 0.12284 0.83803 -0.18235
 C65 C 0.12194 0.81651 -0.15953
 C66 C 0.14667 0.81368 -0.14036
 C67 C 0.17254 0.83278 -0.14356
 C68 C 0.17355 0.85420 -0.16615
 C69 C 0.14847 0.85667 -0.18595
 C70 C 0.10313 0.84336 -0.20560
 N71 N 0.11608 0.86452 -0.22367
 C72 C 0.14383 0.87306 -0.21174
 C73 C 0.20209 0.86837 -0.16458
 N74 N 0.21824 0.85599 -0.14157
 C75 C 0.20030 0.83417 -0.12881
 C76 C 0.14068 0.78890 -0.12248
 N77 N 0.11297 0.77667 -0.13066
 C78 C 0.10125 0.79362 -0.15306
 H79 H 0.08145 0.83162 -0.20981
 H80 H 0.16004 0.88910 -0.22132
 H81 H 0.21025 0.88607 -0.17938
 H82 H 0.20707 0.82011 -0.11015
 H83 H 0.15590 0.77999 -0.10555
 H84 H 0.07998 0.78863 -0.16486
 C85 C 0.16775 1.14626 0.81193
 C86 C 0.18705 1.14886 0.83672
 C87 C 0.18334 1.17195 0.85609
 C88 C 0.16013 1.19277 0.85094
 C89 C 0.14087 1.19036 0.82647
 C90 C 0.14487 1.16686 0.80656
 C91 C 0.16753 1.12677 0.78887
 N92 N 0.14534 1.13497 0.76923
 C93 C 0.13119 1.15950 0.77987
 C94 C 0.12132 1.21439 0.82703
 N95 N 0.12851 1.23128 0.85101
 C96 C 0.15227 1.21799 0.86571
 C97 C 0.20663 1.17013 0.87690
 N98 N 0.22437 1.14650 0.87051
 C99 C 0.21248 1.13334 0.84590
 H100 H 0.18302 1.10834 0.78618
 H101 H 0.11265 1.17147 0.76913
 H102 H 0.10351 1.21950 0.81088
 H103 H 0.16326 1.22560 0.88584
 H104 H 0.21103 1.18549 0.89479
 H105 H 0.22210 1.11469 0.83455
 C106 C 0.83566 0.83608 0.80096
 C107 C 0.81486 0.83023 0.82358
 C108 C 0.81901 0.80620 0.84274
 C109 C 0.84416 0.78755 0.83947
 C110 C 0.86495 0.79314 0.81710
 C111 C 0.86060 0.81781 0.79748
 C112 C 0.83629 0.85770 0.77903
 N113 N 0.86094 0.85338 0.76196
 C114 C 0.87613 0.82897 0.77303
 C115 C 0.88661 0.77090 0.81952
 N116 N 0.87930 0.75209 0.84257
 C117 C 0.85332 0.76237 0.85484
 C118 C 0.79498 0.80585 0.86216
 N119 N 0.77636 0.82903 0.85496
 C120 C 0.78853 0.84418 0.83144
 H121 H 0.81968 0.87524 0.77553
 H122 H 0.89655 0.81960 0.76400
 H123 H 0.90614 0.76846 0.80537
 H124 H 0.84160 0.75275 0.87372
 H125 H 0.79113 0.78978 0.88004
 H126 H 0.77931 0.86407 0.82081
 C127 C 0.17006 0.87683 1.18483
 C128 C 0.18590 0.87690 1.15825
 C129 C 0.18336 0.85243 1.13998
 C130 C 0.16476 0.82752 1.14804
 C131 C 0.14901 0.82744 1.17429
 C132 C 0.15177 0.85229 1.19289
 C133 C 0.16960 0.89700 1.20737
 N134 N 0.15161 0.88536 1.22910
 C135 C 0.14047 0.85794 1.22036
 C136 C 0.13365 0.80006 1.17674
 N137 N 0.13980 0.78356 1.15277
 C138 C 0.15880 0.80024 1.13505
 C139 C 0.20284 0.85794 1.11678
 N140 N 0.21715 0.88515 1.12075
 C141 C 0.20676 0.89690 1.14596
 H142 H 0.18198 0.91843 1.20815
 H143 H 0.12557 0.84286 1.23285
 H144 H 0.11929 0.79252 1.19481
 H145 H 0.16766 0.79334 1.11419
 H146 H 0.20680 0.84275 1.09900
 H147 H 0.21474 0.91801 1.15524
 C148 C 0.77702 1.17895 1.22683
 C149 C 0.75335 1.18332 1.20606
 C150 C 0.75475 1.20764 1.18674
 C151 C 0.77984 1.22779 1.18775
 C152 C 0.80354 1.22351 1.20800
 C153 C 0.80203 1.19879 1.22791
 C154 C 0.78196 1.15653 1.24745
 N155 N 0.80925 1.16209 1.26135
 C156 C 0.82183 1.18792 1.24946
 C157 C 0.82564 1.24562 1.20216
 N158 N 0.81557 1.26289 1.17897
 C159 C 0.78765 1.25209 1.17019
 C160 C 0.73012 1.20504 1.16759
 N161 N 0.71398 1.17954 1.17462
 C162 C 0.72786 1.16618 1.19836
 H163 H 0.76683 1.13733 1.25191
 H164 H 0.84381 1.19805 1.25549
 H165 H 0.84755 1.24830 1.21349
 H166 H 0.77433 1.26086 1.15172
 H167 H 0.72514 1.21981 1.14893
 H168 H 0.72077 1.14510 1.20876
 N169 N 0.47487 0.94421 0.93294
 N170 N 0.44975 0.92875 0.92559
 N171 N 0.54220 0.96733 0.92510
 N172 N 0.56700 0.96579 0.90899
 N173 N 0.53900 0.94318 0.94202
 N174 N 0.56163 0.92453 0.93791
 N175 N 0.47815 0.96821 0.91579
 N176 N 0.45535 0.96956 0.89625
 C177 C 0.43797 0.94467 0.90251
 C178 C 0.57892 0.93908 0.91733
 N179 N 0.54071 1.04840 0.95761
 N180 N 0.56407 1.06775 0.95974
 N181 N 0.47947 1.03215 0.92510
 N182 N 0.45677 1.03657 0.90603
 N183 N 0.47658 1.04912 0.94821
 N184 N 0.45170 1.06542 0.94551
 N185 N 0.54352 1.03139 0.93451
 N186 N 0.56893 1.03877 0.92026
 Mn187 Mn 0.51094 0.99983 0.92477
 C188 C 0.58150 1.06146 0.93637
 C189 C 0.43985 1.05757 0.91891
 N190 N 0.52996 0.93243 1.00415
 N191 N 0.55296 0.91387 1.00791
 N192 N 0.46333 0.95072 1.01779
 N193 N 0.43633 0.94653 1.03007
 N194 N 0.46586 0.93332 0.99495
 N195 N 0.44064 0.91660 0.99124
 N196 N 0.52748 0.94959 1.02718
 N197 N 0.54883 0.94321 1.04724
 Mn198 Mn 0.50244 0.93790 0.96846
 C199 C 0.56444 0.92079 1.03488
 C200 C 0.42253 0.92507 1.01340
 N201 N 0.46752 1.03843 1.01012
 N202 N 0.44461 1.05688 1.01324
 N203 N 0.52810 1.01344 1.03659
 N204 N 0.54658 1.01498 1.05986
 N205 N 0.53132 1.03761 1.01972
 N206 N 0.55199 1.05639 1.03114
 N207 N 0.46412 1.01452 1.02732
 N208 N 0.43870 1.01612 1.04273
 Mn209 Mn 0.50408 1.04373 0.98392
 Mn210 Mn 0.49572 0.98194 1.02756
 Cl211 Cl 0.50335 0.99086 0.97619
 C212 C 0.42681 1.04270 1.03355
 C213 C 0.56141 1.04179 1.05604
 N214 N -0.02364 0.46303 -0.02218
 N215 N -0.03026 0.43856 -0.03728
 N216 N -0.03896 0.52840 -0.00576
 N217 N -0.05704 0.55158 -0.00973
 N218 N -0.02009 0.52643 -0.02788
 N219 N -0.02484 0.54830 -0.04751
 N220 N -0.04241 0.46523 -0.00001
 N221 N -0.06246 0.44247 0.00044
 C222 C -0.05458 0.42605 -0.02293
 C223 C -0.04797 0.56379 -0.03580
 N224 N -0.00788 0.53385 0.07545
 N225 N -0.00805 0.55839 0.09134
 N226 N -0.03493 0.46978 0.06318
 N227 N -0.05461 0.44814 0.07115
 N228 N -0.01140 0.47086 0.08164
 N229 N -0.01437 0.45007 0.10261
 N230 N -0.03152 0.53301 0.05713
 N231 N -0.04842 0.55701 0.06001
 Mn232 Mn -0.03735 0.49907 0.02866
 C233 C -0.03347 0.57255 0.08148
 C234 C -0.04135 0.43607 0.09578
 N235 N 0.04570 0.52378 -0.03329
 N236 N 0.04784 0.54697 -0.05190
 N237 N 0.06527 0.46078 -0.00923
 N238 N 0.08303 0.43763 -0.01313
 N239 N 0.04204 0.46037 -0.02806
 N240 N 0.04343 0.43683 -0.04536
 N241 N 0.06934 0.52366 -0.01494
 N242 N 0.08832 0.54646 -0.02069
 Mn243 Mn 0.01094 0.49341 -0.02827
 C244 C 0.07473 0.56067 -0.04381
 C245 C 0.06911 0.42286 -0.03561
 N246 N 0.05397 0.46807 0.07590
 N247 N 0.05656 0.44506 0.09454
 N248 N 0.07661 0.52859 0.04783
 N249 N 0.09607 0.55182 0.04668
 N250 N 0.05767 0.53122 0.06978
 N251 N 0.06370 0.55627 0.08414
 N252 N 0.07251 0.46531 0.05366
 N253 N 0.08815 0.44032 0.05650
 Mn254 Mn 0.02316 0.50106 0.07602
 Mn255 Mn 0.07128 0.49452 0.01932
 Cl256 Cl 0.01698 0.49700 0.02390
 C257 C 0.07810 0.42811 0.08224
 C258 C 0.08781 0.56879 0.06955
 N259 N 0.95245 0.03634 0.52709
 N260 N 0.93348 0.03997 0.54892
 N261 N 0.97257 0.05695 0.46418
 N262 N 0.96803 0.07623 0.44228
 N263 N 0.95049 0.03632 0.46516
 N264 N 0.93011 0.04120 0.44367
 N265 N 0.97338 0.05811 0.52617
 N266 N 0.96922 0.07716 0.54773
 C267 C 0.94420 0.06538 0.56166
 C268 C 0.94165 0.06616 0.42959
 N269 N 1.06037 0.03813 0.46549
 N270 N 1.07887 0.04039 0.44296
 N271 N 1.03928 0.05978 0.52554
 N272 N 1.04212 0.07882 0.54728
 N273 N 1.06046 0.03926 0.52747
 N274 N 1.07838 0.04388 0.55093
 N275 N 1.03880 0.05823 0.46343
 N276 N 1.04208 0.07475 0.43896
 Mn277 Mn 1.00602 0.05862 0.49471
 C278 C 1.06741 0.06325 0.42665
 C279 C 1.06651 0.06880 0.56289
 N280 N 0.95043 -0.02848 0.46721
 N281 N 0.93099 -0.03141 0.44490
 N282 N 0.97385 -0.04930 0.52843
 N283 N 0.97247 -0.06768 0.55142
 N284 N 0.95265 -0.02884 0.52946
 N285 N 0.93616 -0.03292 0.55362
 N286 N 0.97186 -0.04873 0.46640
 N287 N 0.96744 -0.06612 0.44324
 Mn288 Mn 0.95110 0.00379 0.49734
 C289 C 0.94169 -0.05494 0.43021
 C290 C 0.94893 -0.05747 0.56689
 N291 N 1.06068 -0.02578 0.52843
 N292 N 1.07949 -0.02805 0.55132
 N293 N 1.03831 -0.04738 0.46686
 N294 N 1.04150 -0.06615 0.44510
 N295 N 1.06002 -0.02636 0.46652
 N296 N 1.07852 -0.03017 0.44411
 N297 N 1.03960 -0.04739 0.52890
 N298 N 1.04335 -0.06485 0.55259
 Mn299 Mn 1.06075 0.00633 0.49709
 Mn300 Mn 1.00589 -0.04856 0.49753
 Cl301 Cl 1.00592 0.00505 0.49666
 C302 C 1.06847 -0.05245 0.56615
 C303 C 1.06654 -0.05517 0.43109
 C304 C 1.11061 0.12017 0.23923
 C305 C 1.12093 0.10066 0.26153
 C306 C 1.10692 0.09948 0.29100
 C307 C 1.12584 0.09443 0.31575
 C308 C 1.11352 0.09298 0.34393
 C309 C 1.08168 0.09557 0.34793
 C310 C 1.06280 0.10130 0.32320
 C311 C 1.07525 0.10319 0.29494
 C312 C 1.06771 0.09105 0.37736
 C313 C 1.08128 0.07242 0.39860
 H314 H 1.14179 0.08840 0.25870
 H315 H 1.15034 0.09193 0.31329
 H316 H 1.12911 0.08982 0.36246
 H317 H 1.03826 0.10347 0.32565
 H318 H 1.05998 0.10674 0.27620
 H319 H 1.04518 0.09984 0.38128
 H320 H 1.09140 0.13434 0.24381
 H321 H 1.10233 0.06130 0.39361
 C322 C 0.87755 -0.14725 0.26231
 C323 C 0.87055 -0.12284 0.27973
 C324 C 0.88890 -0.11441 0.30627
 C325 C 0.88848 -0.08454 0.31559
 C326 C 0.90473 -0.07575 0.34089
 C327 C 0.92136 -0.09685 0.35788
 C328 C 0.92231 -0.12662 0.34830
 C329 C 0.90607 -0.13544 0.32287
 C330 C 0.93741 -0.08833 0.38570
 C331 C 0.92676 -0.06531 0.40291
 H332 H 0.85202 -0.10829 0.27312
 H333 H 0.87564 -0.06787 0.30313
 H334 H 0.90434 -0.05233 0.34690
 H335 H 0.93499 -0.14328 0.36094
 H336 H 0.90641 -0.15885 0.31684
 H337 H 0.95681 -0.10125 0.39348
 H338 H 0.89771 -0.16007 0.26800
 H339 H 0.90598 -0.05395 0.39631
 C340 C 0.89317 0.15849 0.72946
 C341 C 0.88134 0.13792 0.70905
 C342 C 0.89709 0.13078 0.68144
 C343 C 0.87955 0.11868 0.65816
 C344 C 0.89351 0.11030 0.63222
 C345 C 0.92553 0.11337 0.62916
 C346 C 0.94305 0.12621 0.65208
 C347 C 0.92905 0.13464 0.67811
 C348 C 0.94105 0.10258 0.60270
 C349 C 0.92938 0.07796 0.58725
 H350 H 0.85905 0.12736 0.71255
 H351 H 0.85490 0.11566 0.66006
 H352 H 0.87911 0.10145 0.61461
 H353 H 0.96774 0.12883 0.65022
 H354 H 0.94352 0.14324 0.69577
 H355 H 0.96304 0.11258 0.59665
 H356 H 0.91433 0.17068 0.72449
 H357 H 0.90886 0.06622 0.59485
 C358 C 1.10302 -0.12687 0.75016
 C359 C 1.11763 -0.10779 0.72970
 C360 C 1.10425 -0.10158 0.70007
 C361 C 1.12408 -0.09464 0.67678
 C362 C 1.11241 -0.08919 0.64839
 C363 C 1.08053 -0.09006 0.64281
 C364 C 1.06066 -0.09716 0.66604
 C365 C 1.07233 -0.10261 0.69448
 C366 C 1.06749 -0.08299 0.61325
 C367 C 1.08216 -0.06270 0.59413
 H368 H 1.14066 -0.09928 0.73421
 H369 H 1.14872 -0.09387 0.68048
 H370 H 1.12848 -0.08462 0.63085
 H371 H 1.03602 -0.09782 0.66230
 H372 H 1.05624 -0.10703 0.71201
 H373 H 1.04470 -0.09156 0.60757
 H374 H 1.08089 -0.13682 0.74426
 H375 H 1.10353 -0.05174 0.60083
 C376 C 0.25033 1.08973 1.12694
 C377 C 0.27081 1.10004 1.10529
 C378 C 0.29929 1.08471 1.09750
 C379 C 0.32297 1.10211 1.08468
 C380 C 0.34960 1.08875 1.07520
 C381 C 0.35296 1.05738 1.07764
 C382 C 0.32960 1.03995 1.09116
 C383 C 0.30291 1.05345 1.10096
 C384 C 0.38055 1.04259 1.06641
 C385 C 0.39846 1.05569 1.04416
 H386 H 0.26710 1.12148 1.09436
 H387 H 0.32088 1.12627 1.08199
 H388 H 0.36750 1.10326 1.06614
 H389 H 0.33170 1.01577 1.09353
 H390 H 0.28489 1.03929 1.11036
 H391 H 0.38636 1.02056 1.07520
 H392 H 0.25576 1.06963 1.13969
 H393 H 0.39167 1.07660 1.03365
 C394 C 0.24724 0.86304 0.86819
 C395 C 0.26593 0.88570 0.85547
 C396 C 0.29719 0.89349 0.86705
 C397 C 0.31830 0.90845 0.84845
 C398 C 0.34804 0.91586 0.85857
 C399 C 0.35718 0.90862 0.88768
 C400 C 0.33599 0.89398 0.90633
 C401 C 0.30628 0.88677 0.89631
 C402 C 0.38851 0.91529 0.89942
 C403 C 0.40831 0.93757 0.88793
 H404 H 0.25813 0.89755 0.83581
 H405 H 0.31188 0.91405 0.82587
 H406 H 0.36387 0.92668 0.84336
 H407 H 0.34235 0.88837 0.92893
 H408 H 0.29054 0.87635 0.91182
 H409 H 0.39559 0.90330 0.91933
 H410 H 0.25627 0.85007 0.88667
 H411 H 0.40132 0.95145 0.86927
 C412 C 0.73176 0.86836 1.14750
 C413 C 0.71330 0.85842 1.12383
 C414 C 0.68490 0.87313 1.11301
 C415 C 0.66509 0.85691 1.09408
 C416 C 0.63877 0.86997 1.08202
 C417 C 0.63176 0.89987 1.08830
 C418 C 0.65114 0.91596 1.10775
 C419 C 0.67758 0.90285 1.11987
 C420 C 0.60448 0.91468 1.07506
 C421 C 0.59107 0.90577 1.04835
 H422 H 0.71920 0.83812 1.11274
 H423 H 0.67001 0.83393 1.08854
 H424 H 0.62393 0.85640 1.06800
 H425 H 0.64617 0.93898 1.11307
 H426 H 0.69241 0.91636 1.13393
 H427 H 0.59570 0.93417 1.08583
 H428 H 0.72467 0.88749 1.15988
 H429 H 0.60088 0.88786 1.03607
 C430 C 0.75631 1.13126 0.84695
 C431 C 0.73992 1.13661 0.87255
 C432 C 0.71139 1.11960 0.88062
 C433 C 0.69087 1.13267 0.89986
 C434 C 0.66372 1.11747 0.90802
 C435 C 0.65665 1.08850 0.89740
 C436 C 0.67724 1.07538 0.87825
 C437 C 0.70439 1.09059 0.87008
 C438 C 0.62793 1.07164 0.90516
 C439 C 0.61021 1.07808 0.92950
 H440 H 0.74720 1.15480 0.88671
 H441 H 0.69566 1.15495 0.90832
 H442 H 0.64822 1.12883 0.92218
 H443 H 0.67244 1.05311 0.86977
 H444 H 0.71994 1.07925 0.85595
 H445 H 0.62088 1.05282 0.89159
 H446 H 0.74748 1.11435 0.83197
 H447 H 0.61748 1.09557 0.94447
 C448 C 0.14242 0.23564 0.10421
 C449 C 0.12797 0.25803 0.11966
 C450 C 0.12401 0.28925 0.10865
 C451 C 0.11759 0.31141 0.12911
 C452 C 0.11232 0.34097 0.11984
 C453 C 0.11290 0.34894 0.08973
 C454 C 0.12001 0.32698 0.06927
 C455 C 0.12535 0.29732 0.07856
 C456 C 0.10585 0.37970 0.07902
 C457 C 0.08734 0.39888 0.09448
 H458 H 0.12054 0.25298 0.14187
 H459 H 0.11663 0.30581 0.15243
 H460 H 0.10796 0.35745 0.13640
 H461 H 0.12068 0.33261 0.04595
 H462 H 0.12968 0.28080 0.06206
 H463 H 0.11346 0.38659 0.05724
 H464 H 0.15297 0.24098 0.08328
 H465 H 0.07749 0.39171 0.11525
 C466 C -0.10504 0.25908 -0.12498
 C467 C -0.11733 0.27254 -0.10042
 C468 C -0.10186 0.29872 -0.08621
 C469 C -0.11957 0.31978 -0.07188
 C470 C -0.10583 0.34588 -0.06026
 C471 C -0.07396 0.35120 -0.06255
 C472 C -0.05617 0.32966 -0.07601
 C473 C -0.06984 0.30356 -0.08743
 C474 C -0.05867 0.37942 -0.05262
 C475 C -0.07052 0.39792 -0.03135
 H476 H -0.13994 0.26559 -0.09305
 H477 H -0.14423 0.31651 -0.07052
 H478 H -0.12040 0.36219 -0.05048
 H479 H -0.03155 0.33309 -0.07781
 H480 H -0.05519 0.28732 -0.09722
 H481 H -0.03654 0.38545 -0.06191
 H482 H -0.08365 0.26795 -0.13376
 H483 H -0.09127 0.39141 -0.01988
 C484 C 0.09889 0.74908 -0.12017
 C485 C 0.11583 0.72683 -0.10577
 C486 C 0.10323 0.69641 -0.09862
 C487 C 0.12381 0.67286 -0.09451
 C488 C 0.11313 0.64380 -0.08754
 C489 C 0.08155 0.63776 -0.08406
 C490 C 0.06084 0.66113 -0.08868
 C491 C 0.07154 0.69029 -0.09567
 C492 C 0.06984 0.60762 -0.07479
 C493 C 0.08719 0.58875 -0.05659
 H494 H 0.14015 0.73082 -0.10192
 H495 H 0.14827 0.67692 -0.09689
 H496 H 0.12969 0.62612 -0.08505
 H497 H 0.03641 0.65699 -0.08609
 H498 H 0.05497 0.70793 -0.09804
 H499 H 0.04612 0.60145 -0.07979
 H500 H 0.07526 0.74438 -0.12660
 H501 H 0.10985 0.59594 -0.04907
 C502 C -0.14223 0.73758 0.12626
 C503 C -0.11334 0.72528 0.13129
 C504 C -0.10272 0.69765 0.11729
 C505 C -0.07126 0.69155 0.11863
 C506 C -0.06023 0.66508 0.10710
 C507 C -0.08057 0.64389 0.09423
 C508 C -0.11194 0.65022 0.09231
 C509 C -0.12302 0.67671 0.10391
 C510 C -0.06988 0.61516 0.08261
 C511 C -0.04312 0.60148 0.09275
 H512 H -0.09722 0.73674 0.14583
 H513 H -0.05512 0.70734 0.12871
 H514 H -0.03576 0.66150 0.10815
 H515 H -0.12804 0.63428 0.08240
 H516 H -0.14749 0.68014 0.10295
 H517 H -0.08447 0.60352 0.06673
 H518 H -0.15759 0.72814 0.10972
 H519 H -0.02913 0.61158 0.10999
 C520 C 1.14005 0.12051 0.74338
 C521 C 1.11962 0.13061 0.72152
 C522 C 1.11560 0.11533 0.69294
 C523 C 1.10738 0.13248 0.66794
 C524 C 1.10289 0.11887 0.64068
 C525 C 1.10577 0.08754 0.63795
 C526 C 1.11459 0.07042 0.66284
 C527 C 1.11931 0.08411 0.69014
 C528 C 1.09867 0.07226 0.60976
 C529 C 1.07716 0.08382 0.58980
 H530 H 1.10796 0.15157 0.72420
 H531 H 1.10465 0.15657 0.66945
 H532 H 1.09724 0.13307 0.62183
 H533 H 1.11698 0.04629 0.66135
 H534 H 1.12504 0.07005 0.70909
 H535 H 1.10824 0.05043 0.60591
 H536 H 1.15350 0.10094 0.73901
 H537 H 1.06544 0.10420 0.59495
 C538 C 0.86733 -0.12893 0.73786
 C539 C 0.89279 -0.13249 0.72007
 C540 C 0.89860 -0.11324 0.69351
 C541 C 0.92878 -0.10951 0.68362
 C542 C 0.93509 -0.09236 0.65820
 C543 C 0.91120 -0.07898 0.64166
 C544 C 0.88108 -0.08207 0.65188
 C545 C 0.87474 -0.09922 0.67740
 C546 C 0.91722 -0.06271 0.61336
 C547 C 0.94064 -0.07165 0.59523
 H548 H 0.90982 -0.14887 0.72628
 H549 H 0.94759 -0.11985 0.69566
 H550 H 0.95877 -0.08964 0.65159
 H551 H 0.86229 -0.07201 0.63958
 H552 H 0.85105 -0.10213 0.68382
 H553 H 0.90198 -0.04513 0.60584
 H554 H 0.85197 -0.11073 0.73254
 H555 H 0.95401 -0.09094 0.60185
 C556 C 1.14683 -0.10043 0.25489
 C557 C 1.12981 -0.11340 0.27790
 C558 C 1.12449 -0.09816 0.30605
 C559 C 1.11636 -0.11591 0.33071
 C560 C 1.10967 -0.10259 0.35737
 C561 C 1.11050 -0.07108 0.35984
 C562 C 1.11948 -0.05327 0.33548
 C563 C 1.12619 -0.06662 0.30872
 C564 C 1.10110 -0.05646 0.38719
 C565 C 1.07842 -0.06944 0.40492
 H566 H 1.12095 -0.13622 0.27606
 H567 H 1.11508 -0.14023 0.32934
 H568 H 1.10380 -0.11708 0.37598
 H569 H 1.12030 -0.02895 0.33688
 H570 H 1.13171 -0.05206 0.29010
 H571 H 1.11008 -0.03412 0.39204
 H572 H 1.15750 -0.07843 0.25790
 H573 H 1.06727 -0.09041 0.39857
 C574 C 0.82074 0.14384 0.28312
 C575 C 0.84829 0.15000 0.29829
 C576 C 0.86019 0.13040 0.32249
 C577 C 0.88026 0.14315 0.34349
 C578 C 0.89241 0.12557 0.36647
 C579 C 0.88523 0.09454 0.36869
 C580 C 0.86480 0.08179 0.34796
 C581 C 0.85255 0.09945 0.32491
 C582 C 0.89883 0.07535 0.39237
 C583 C 0.92767 0.08223 0.40444
 H584 H 0.86089 0.17076 0.29367
 H585 H 0.88637 0.16692 0.34227
 H586 H 0.90716 0.13652 0.38262
 H587 H 0.85886 0.05799 0.34923
 H588 H 0.83774 0.08858 0.30877
 H589 H 0.88649 0.05519 0.39975
 H590 H 0.80732 0.12402 0.28950
 H591 H 0.94097 0.10103 0.39546
 C592 C 0.11409 0.25697 -0.14164
 C593 C 0.12479 0.27527 -0.11865
 C594 C 0.11002 0.30308 -0.10920
 C595 C 0.12805 0.32407 -0.09350
 C596 C 0.11510 0.34970 -0.08217
 C597 C 0.08348 0.35472 -0.08572
 C598 C 0.06549 0.33420 -0.10218
 C599 C 0.07858 0.30849 -0.11376
 C600 C 0.06902 0.38118 -0.07264
 C601 C 0.08168 0.39557 -0.04803
 H602 H 0.14615 0.27004 -0.10751
 H603 H 0.15237 0.32059 -0.08989
 H604 H 0.13010 0.36552 -0.07079
 H605 H 0.04114 0.33768 -0.10546
 H606 H 0.06389 0.29257 -0.12539
 H607 H 0.04752 0.38894 -0.08202
 H608 H 0.09436 0.26395 -0.15467
 H609 H 0.10189 0.38676 -0.03711
 C610 C -0.16907 0.28756 0.16402
 C611 C -0.13944 0.29783 0.17125
 C612 C -0.12405 0.32245 0.15414
 C613 C -0.10205 0.34109 0.16807
 C614 C -0.08791 0.36505 0.15260
 C615 C -0.09522 0.37052 0.12263
 C616 C -0.11683 0.35153 0.10863
 C617 C -0.13091 0.32763 0.12407
 C618 C -0.08154 0.39603 0.10542
 C619 C -0.05424 0.41091 0.11343
 H620 H -0.12773 0.28869 0.19051
 H621 H -0.09629 0.33751 0.19117
 H622 H -0.07189 0.37951 0.16444
 H623 H -0.12274 0.35510 0.08556
 H624 H -0.14690 0.31310 0.11223
 H625 H -0.09291 0.40269 0.08497
 H626 H -0.18142 0.29860 0.14612
 H627 H -0.04128 0.40372 0.13273
 C628 C -0.10438 0.72744 -0.14871
 C629 C -0.11431 0.70762 -0.12614
 C630 C -0.09779 0.68070 -0.11507
 C631 C -0.11414 0.65959 -0.09764
 C632 C -0.09971 0.63460 -0.08515
 C633 C -0.06826 0.63021 -0.08941
 C634 C -0.05193 0.65086 -0.10745
 C635 C -0.06646 0.67601 -0.12006
 C636 C -0.05234 0.60418 -0.07554
 C637 C -0.06244 0.59034 -0.04942
 H638 H -0.13624 0.71113 -0.11620
 H639 H -0.13833 0.66244 -0.09358
 H640 H -0.11344 0.61868 -0.07237
 H641 H -0.02771 0.64787 -0.11126
 H642 H -0.05292 0.69192 -0.13302
 H643 H -0.03159 0.59646 -0.08550
 H644 H -0.08350 0.72273 -0.16016
 H645 H -0.08154 0.59946 -0.03788
 C646 C 0.12759 0.75371 0.14777
 C647 C 0.13838 0.73560 0.12551
 C648 C 0.12616 0.70486 0.11949
 C649 C 0.14415 0.68540 0.10341
 C650 C 0.13333 0.65643 0.09665
 C651 C 0.10397 0.64640 0.10554
 C652 C 0.08604 0.66582 0.12174
 C653 C 0.09687 0.69479 0.12852
 C654 C 0.09131 0.61601 0.09866
 C655 C 0.10237 0.59804 0.07647
 H656 H 0.15759 0.74367 0.11254
 H657 H 0.16680 0.69257 0.09620
 H658 H 0.14826 0.64202 0.08480
 H659 H 0.06333 0.65870 0.12883
 H660 H 0.08192 0.70928 0.14027
 H661 H 0.07133 0.60802 0.11069
 H662 H 0.11030 0.74483 0.16262
 H663 H 0.12117 0.60582 0.06285
 C664 C 0.25230 1.13919 0.88609
 C665 C 0.26937 1.11417 0.87906
 C666 C 0.30004 1.10724 0.89172
 C667 C 0.31309 1.07988 0.88433
 C668 C 0.34254 1.07271 0.89424
 C669 C 0.35979 1.09293 0.91170
 C670 C 0.34657 1.11994 0.91981
 C671 C 0.31708 1.12723 0.90975
 C672 C 0.39117 1.08599 0.92223
 C673 C 0.41028 1.06738 0.90682
 H674 H 0.26000 1.09867 0.86301
 H675 H 0.30048 1.06395 0.87066
 H676 H 0.35152 1.05116 0.88844
 H677 H 0.35934 1.13573 0.93349
 H678 H 0.30824 1.14870 0.91582
 H679 H 0.39961 1.09618 0.94239
 H680 H 0.26011 1.15395 0.90344
 H681 H 0.40306 1.05873 0.88562
 C682 C 0.24118 0.89905 1.10360
 C683 C 0.25491 0.88473 1.08025
 C684 C 0.28329 0.89672 1.06633
 C685 C 0.30314 0.87657 1.05338
 C686 C 0.33160 0.88659 1.04270
 C687 C 0.34055 0.91712 1.04458
 C688 C 0.32012 0.93747 1.05631
 C689 C 0.29165 0.92749 1.06682
 C690 C 0.37162 0.92825 1.03669
 C691 C 0.39115 0.91343 1.01808
 H692 H 0.24676 0.86254 1.07404
 H693 H 0.29715 0.85279 1.05259
 H694 H 0.34690 0.87016 1.03420
 H695 H 0.32640 0.96115 1.05775
 H696 H 0.27652 0.94396 1.07551
 H697 H 0.37947 0.94944 1.04598
 H698 H 0.25051 0.92044 1.11095
 H699 H 0.38333 0.89374 1.00622
 C700 C 0.68856 1.16818 1.15733
 C701 C 0.67766 1.13849 1.16011
 C702 C 0.65536 1.12488 1.13908
 C703 C 0.65506 1.09357 1.13574
 C704 C 0.63535 1.07987 1.11518
 C705 C 0.61522 1.09731 1.09779
 C706 C 0.61526 1.12858 1.10133
 C707 C 0.63491 1.14227 1.12195
 C708 C 0.59431 1.08375 1.07554
 C709 C 0.58364 1.05400 1.07747
 H710 H 0.68807 1.12367 1.17638
 H711 H 0.67063 1.07970 1.14862
 H712 H 0.63652 1.05579 1.11256
 H713 H 0.59983 1.14243 1.08827
 H714 H 0.63376 1.16636 1.12448
 H715 H 0.58548 1.09822 1.05801
 H716 H 0.67987 1.18245 1.13965
 H717 H 0.59011 1.03968 1.09598
 C718 C 0.74886 0.83598 0.87025
 C719 C 0.72757 0.85600 0.85823
 C720 C 0.69942 0.86557 0.87297
 C721 C 0.67849 0.88279 0.85642
 C722 C 0.65231 0.89377 0.86933
 C723 C 0.64652 0.88794 0.89929
 C724 C 0.66689 0.87002 0.91575
 C725 C 0.69328 0.85910 0.90284
 C726 C 0.61937 0.90016 0.91360
 C727 C 0.60657 0.92724 0.90425
 H728 H 0.73137 0.86509 0.83629
 H729 H 0.68247 0.88794 0.83334
 H730 H 0.63655 0.90660 0.85568
 H731 H 0.66275 0.86507 0.93883
 H732 H 0.70886 0.84621 0.91655
 H733 H 0.61009 0.88831 0.93268
 H734 H 0.74452 0.82460 0.89108
 H735 H 0.61722 0.94061 0.88687
   
