data_POSCAR
  _audit_creation_date              2014-09-24
  _audit_creation_method            'ToBaCCo'
  _symmetry_space_group_name_H-M    'P1'
  _symmetry_Int_Tables_number       1
  _symmetry_cell_setting            triclinic
  loop_
  _symmetry_equiv_pos_as_xyz
 x,y,z
_cell_length_a 56.4979
_cell_length_b 56.5805
_cell_length_c 22.0761
_cell_angle_alpha 90.025400
_cell_angle_beta 89.926800
_cell_angle_gamma 119.858900
loop_
  _atom_site_label
  _atom_site_type_symbol
  _atom_site_fract_x
  _atom_site_fract_y
  _atom_site_fract_z
C1 C 0.18673 0.50350 0.49891
 C2 C 0.20002 0.50545 0.44431
 C3 C 0.22527 0.50637 0.44423
 C4 C 0.23716 0.50394 0.49880
 C5 C 0.22279 0.50134 0.55342
 C6 C 0.19823 0.50179 0.55343
 C7 C 0.26400 0.50396 0.49873
 C8 C 0.27802 0.50576 0.55342
 C9 C 0.30236 0.50489 0.55311
 C10 C 0.31395 0.50354 0.49844
 C11 C 0.30104 0.50237 0.44394
 C12 C 0.27605 0.50193 0.44394
 H13 H 0.16737 0.50322 0.49896
 H14 H 0.23517 0.50904 0.40098
 H15 H 0.23008 0.49873 0.59661
 H16 H 0.27057 0.50780 0.59694
 H17 H 0.33298 0.50317 0.49831
 H18 H 0.26643 0.49973 0.40058
 C19 C 0.50139 -0.31227 0.49911
 C20 C 0.49817 -0.30157 0.44492
 C21 C 0.49691 -0.27746 0.44528
 C22 C 0.50030 -0.26282 0.49985
 C23 C 0.50425 -0.27388 0.55406
 C24 C 0.50398 -0.29878 0.55368
 C25 C 0.49948 -0.23654 0.50025
 C26 C 0.49576 -0.22554 0.55481
 C27 C 0.49564 -0.20083 0.55499
 C28 C 0.49775 -0.18738 0.50064
 C29 C 0.50076 -0.19807 0.44615
 C30 C 0.50240 -0.22195 0.44598
 H31 H 0.50163 -0.33135 0.49883
 H32 H 0.49295 -0.27069 0.40272
 H33 H 0.50754 -0.26356 0.59698
 H34 H 0.49283 -0.23577 0.59771
 H35 H 0.49719 -0.16849 0.50077
 H36 H 0.50617 -0.22861 0.40305
 C37 C 1.31240 0.81421 0.49993
 C38 C 1.29993 0.80227 0.44522
 C39 C 1.27473 0.77803 0.44495
 C40 C 1.26149 0.76500 0.49987
 C41 C 1.27478 0.77786 0.55475
 C42 C 1.29991 0.80210 0.55450
 C43 C 1.23466 0.73818 0.49994
 C44 C 1.22161 0.72496 0.55486
 C45 C 1.19735 0.69977 0.55459
 C46 C 1.18541 0.68731 0.49987
 C47 C 1.19754 0.69979 0.44531
 C48 C 1.22179 0.72489 0.44506
 H49 H 1.33202 0.83290 0.50016
 H50 H 1.26619 0.76982 0.40120
 H51 H 1.26640 0.76957 0.59855
 H52 H 1.22981 0.73351 0.59860
 H53 H 1.16672 0.66770 0.49962
 H54 H 1.23010 0.73326 0.40126
 C55 C 0.80997 0.49376 0.50003
 C56 C 0.79760 0.49371 0.44555
 C57 C 0.77275 0.49361 0.44555
 C58 C 0.75962 0.49353 0.50061
 C59 C 0.77286 0.49359 0.55530
 C60 C 0.79769 0.49370 0.55473
 C61 C 0.73268 0.49347 0.50104
 C62 C 0.71959 0.49352 0.55609
 C63 C 0.69478 0.49354 0.55606
 C64 C 0.68245 0.49352 0.50146
 C65 C 0.69473 0.49350 0.44681
 C66 C 0.71949 0.49347 0.44633
 H67 H 0.82928 0.49396 0.49986
 H68 H 0.76437 0.49366 0.40184
 H69 H 0.76457 0.49361 0.59918
 H70 H 0.72812 0.49363 0.59974
 H71 H 0.66331 0.49368 0.50137
 H72 H 0.72784 0.49354 0.40247
 C73 C 0.50178 0.31453 0.50251
 C74 C 0.50086 0.30169 0.44812
 C75 C 0.50044 0.27672 0.44825
 C76 C 0.50203 0.26456 0.50333
 C77 C 0.50343 0.27849 0.55795
 C78 C 0.50288 0.30296 0.55732
 C79 C 0.50275 0.23810 0.50383
 C80 C 0.50128 0.22437 0.55884
 C81 C 0.50294 0.20045 0.55913
 C82 C 0.50497 0.18912 0.50472
 C83 C 0.50579 0.20172 0.45000
 C84 C 0.50514 0.22612 0.44933
 H85 H 0.50195 0.33381 0.50204
 H86 H 0.49894 0.26744 0.40477
 H87 H 0.50534 0.27108 0.60158
 H88 H 0.49868 0.23162 0.60210
 H89 H 0.50577 0.17034 0.50481
 H90 H 0.50668 0.23524 0.40565
 C91 C 0.68474 0.18860 0.50034
 C92 C 0.69845 0.19940 0.44603
 C93 C 0.72399 0.22321 0.44622
 C94 C 0.73565 0.23758 0.50085
 C95 C 0.72089 0.22632 0.55525
 C96 C 0.69605 0.20175 0.55487
 C97 C 0.76258 0.26405 0.50095
 C98 C 0.77698 0.27566 0.55562
 C99 C 0.80127 0.30084 0.55548
 C100 C 0.81242 0.31411 0.50089
 C101 C 0.79914 0.30288 0.44650
 C102 C 0.77418 0.27847 0.44637
 H103 H 0.66520 0.16985 0.50018
 H104 H 0.73433 0.22997 0.40328
 H105 H 0.72806 0.23628 0.59840
 H106 H 0.76976 0.26562 0.59873
 H107 H 0.83142 0.33345 0.50067
 H108 H 0.76412 0.27144 0.40327
 O109 O 0.96316 0.44127 0.11277
 O110 O 0.93268 0.44653 0.05370
 C111 C 0.93864 0.43519 0.09746
 O112 O 1.03867 0.56181 0.10565
 O113 O 1.06904 0.55504 0.04948
 C114 C 1.06319 0.56778 0.09030
 O115 O 0.96241 0.52095 0.11227
 O116 O 0.93225 0.48528 0.05287
 C117 C 0.93794 0.50259 0.09649
 O118 O 1.03948 0.47764 0.10693
 O119 O 1.06938 0.51482 0.05064
 C120 C 1.06389 0.49637 0.09149
 Zr121 Zr 1.00108 0.47072 0.07567
 O122 O 1.00385 0.47106 0.17131
 O123 O 0.99846 0.43208 0.07221
 Zr124 Zr 1.00043 0.53044 0.07365
 O125 O 1.00201 0.53585 0.16854
 O126 O 0.99702 0.56586 0.06368
 O127 O 0.97671 0.48848 0.08693
 O128 O 1.02420 0.51246 0.08607
 O129 O 1.03941 0.47700 -0.10786
 O130 O 1.06934 0.51429 -0.05219
 C131 C 1.06381 0.49565 -0.09256
 O132 O 0.96216 0.52097 -0.11394
 O133 O 0.93219 0.48499 -0.05492
 C134 C 0.93777 0.50242 -0.09818
 O135 O 1.03846 0.56132 -0.10981
 O136 O 1.06888 0.55469 -0.05363
 C137 C 1.06300 0.56733 -0.09460
 O138 O 0.96327 0.44130 -0.11471
 O139 O 0.93267 0.44616 -0.05495
 C140 C 0.93869 0.43491 -0.09892
 Zr141 Zr 1.00103 0.46994 -0.07596
 O142 O 1.00310 0.46660 -0.17088
 O143 O 0.99824 0.43137 -0.06628
 Zr144 Zr 1.00039 0.52965 -0.07801
 O145 O 1.00298 0.53176 -0.17374
 O146 O 0.99714 0.56533 -0.07478
 Zr147 Zr 0.95979 0.47950 -0.00098
 Zr148 Zr 1.04152 0.52081 -0.00130
 O149 O 1.02418 0.51160 -0.08853
 O150 O 0.97663 0.48760 -0.08906
 O151 O 1.02580 0.47827 -0.00015
 O152 O 0.97622 0.52203 -0.00209
 O153 O 0.97690 0.45389 -0.00000
 O154 O 1.02507 0.54710 -0.00237
 H155 H 1.03609 0.51850 0.12232
 H156 H 0.96333 0.52913 -0.00211
 H157 H 1.03604 0.51746 -0.12491
 H158 H 0.96427 0.43393 0.00023
 H159 H 1.01518 0.58106 0.05208
 H160 H 1.01386 0.57980 -0.05526
 H161 H 0.98902 0.51382 -0.18963
 H162 H 1.00074 0.48130 -0.18870
 H163 H 1.01639 0.43447 -0.05380
 H164 H 1.01543 0.43459 0.05322
 H165 H 0.99028 0.47561 0.18756
 H166 H 1.00173 0.51972 0.18643
 O167 O 0.55853 0.52181 0.11345
 O168 O 0.55278 0.48578 0.05487
 C169 C 0.56446 0.50324 0.09809
 O170 O 0.43753 0.47787 0.10606
 O171 O 0.44485 0.51503 0.04973
 C172 C 0.43176 0.49650 0.09032
 O173 O 0.47802 0.44214 0.11405
 O174 O 0.51362 0.44695 0.05486
 C175 C 0.49629 0.43576 0.09871
 O176 O 0.52236 0.56212 0.10777
 O177 O 0.48543 0.55541 0.05097
 C178 C 0.50375 0.56802 0.09235
 Zr179 Zr 0.52905 0.53046 0.07672
 O180 O 0.52847 0.53283 0.17237
 O181 O 0.56789 0.56617 0.07357
 Zr182 Zr 0.46888 0.47073 0.07463
 O183 O 0.46330 0.46753 0.16950
 O184 O 0.43327 0.43212 0.06484
 O185 O 0.51087 0.48843 0.08819
 O186 O 0.48724 0.51240 0.08676
 O187 O 0.52345 0.56240 -0.10739
 O188 O 0.48616 0.55580 -0.05205
 C189 C 0.50492 0.56851 -0.09257
 O190 O 0.47847 0.44164 -0.11309
 O191 O 0.51412 0.44705 -0.05356
 C192 C 0.49688 0.43558 -0.09730
 O193 O 0.43838 0.47790 -0.10853
 O194 O 0.44543 0.51529 -0.05330
 C195 C 0.43253 0.49657 -0.09370
 O196 O 0.55866 0.52134 -0.11302
 O197 O 0.55319 0.48583 -0.05296
 C198 C 0.56480 0.50302 -0.09679
 Zr199 Zr 0.53013 0.53099 -0.07491
 O200 O 0.53407 0.53628 -0.16982
 O201 O 0.56890 0.56640 -0.06494
 Zr202 Zr 0.46998 0.47129 -0.07706
 O203 O 0.46800 0.47171 -0.17279
 O204 O 0.43411 0.43259 -0.07426
 Zr205 Zr 0.51981 0.48018 0.00045
 Zr206 Zr 0.47925 0.52147 -0.00080
 O207 O 0.48844 0.51301 -0.08786
 O208 O 0.51207 0.48902 -0.08780
 O209 O 0.52190 0.54776 0.00063
 O210 O 0.47718 0.45459 -0.00087
 O211 O 0.54580 0.52272 0.00126
 O212 O 0.45258 0.47892 -0.00167
 H213 H 0.48114 0.51834 0.12287
 H214 H 0.46992 0.43463 -0.00081
 H215 H 0.48265 0.51900 -0.12431
 H216 H 0.56576 0.52983 0.00151
 H217 H 0.41820 0.43523 0.05256
 H218 H 0.41968 0.43488 -0.05430
 H219 H 0.48611 0.47595 -0.18849
 H220 H 0.51810 0.52033 -0.18771
 H221 H 0.56592 0.58157 -0.05292
 H222 H 0.56557 0.58068 0.05434
 H223 H 0.52440 0.51490 0.18859
 H224 H 0.48040 0.48208 0.18730
 O225 O 0.55795 0.03723 -0.11306
 O226 O 0.55242 0.06747 -0.05366
 C227 C 0.56388 0.06167 -0.09753
 O228 O 0.43727 -0.03865 -0.10552
 O229 O 0.44431 -0.06886 -0.04981
 C230 C 0.43145 -0.06310 -0.09043
 O231 O 0.47777 0.03739 -0.11148
 O232 O 0.51342 0.06764 -0.05216
 C233 C 0.49600 0.06186 -0.09559
 O234 O 0.52185 -0.03907 -0.10767
 O235 O 0.48478 -0.06907 -0.05119
 C236 C 0.50323 -0.06347 -0.09222
 Zr237 Zr 0.52858 -0.00077 -0.07614
 O238 O 0.52810 -0.00355 -0.17182
 O239 O 0.56740 0.00211 -0.07311
 Zr240 Zr 0.46859 -0.00052 -0.07328
 O241 O 0.46320 -0.00208 -0.16817
 O242 O 0.43295 0.00258 -0.06290
 O243 O 0.51058 0.02340 -0.08685
 O244 O 0.48680 -0.02407 -0.08619
 O245 O 0.52279 -0.03900 0.10708
 O246 O 0.48537 -0.06908 0.05180
 C247 C 0.50418 -0.06342 0.09187
 O248 O 0.47821 0.03744 0.11519
 O249 O 0.51402 0.06759 0.05594
 C250 C 0.49675 0.06185 0.09975
 O251 O 0.43794 -0.03876 0.10990
 O252 O 0.44481 -0.06895 0.05337
 C253 C 0.43208 -0.06321 0.09451
 O254 O 0.55836 0.03705 0.11374
 O255 O 0.55306 0.06746 0.05459
 C256 C 0.56465 0.06157 0.09798
 Zr257 Zr 0.52952 -0.00077 0.07550
 O258 O 0.53288 -0.00279 0.17040
 O259 O 0.56825 0.00226 0.06560
 Zr260 Zr 0.46950 -0.00060 0.07833
 O261 O 0.46710 -0.00349 0.17400
 O262 O 0.43367 0.00249 0.07533
 Zr263 Zr 0.51955 0.04023 0.00115
 Zr264 Zr 0.47861 -0.04143 0.00109
 O265 O 0.48784 -0.02413 0.08839
 O266 O 0.51161 0.02335 0.08915
 O267 O 0.52126 -0.02545 -0.00046
 O268 O 0.47692 0.02359 0.00267
 O269 O 0.54538 0.02336 -0.00042
 O270 O 0.45210 -0.02523 0.00261
 H271 H 0.48074 -0.03591 -0.12251
 H272 H 0.46970 0.03636 0.00311
 H273 H 0.48208 -0.03599 0.12470
 H274 H 0.56535 0.03605 -0.00087
 H275 H 0.41782 -0.01558 -0.05109
 H276 H 0.41913 -0.01435 0.05636
 H277 H 0.48504 0.01033 0.19022
 H278 H 0.51874 0.00048 0.18831
 H279 H 0.56527 -0.01577 0.05272
 H280 H 0.56501 -0.01481 -0.05428
 H281 H 0.52372 0.01014 -0.18793
 H282 H 0.47953 -0.00137 -0.18622
 C283 C 1.12536 0.50084 0.19696
 C284 C 1.12390 0.47672 0.21940
 C285 C 1.14159 0.47823 0.26683
 C286 C 1.16057 0.50387 0.29167
 C287 C 1.16322 0.52809 0.26654
 C288 C 1.14568 0.52657 0.21873
 C289 C 1.14871 0.55103 0.19427
 C290 C 1.16854 0.57630 0.21640
 C291 C 1.18544 0.57777 0.26370
 C292 C 1.18289 0.55400 0.28869
 C293 C 1.13953 0.45381 0.28903
 C294 C 1.12057 0.42861 0.26491
 C295 C 1.10325 0.42715 0.21857
 C296 C 1.10476 0.45086 0.19601
 C297 C 1.17600 0.50514 0.34535
 C298 C 1.18780 0.50565 0.39126
 C299 C 1.10443 0.49907 0.15601
 C300 C 1.08625 0.49765 0.12490
 H301 H 1.13589 0.55086 0.15771
 H302 H 1.17063 0.59484 0.19713
 H303 H 1.20063 0.59744 0.28109
 H304 H 1.19660 0.55616 0.32518
 H305 H 1.15263 0.45394 0.32490
 H306 H 1.11935 0.41013 0.28218
 H307 H 1.08859 0.40756 0.19986
 H308 H 1.09093 0.44871 0.15979
 C309 C 0.49683 0.62111 0.20619
 C310 C 0.48356 0.60939 0.26172
 C311 C 0.48203 0.62616 0.30769
 C312 C 0.49410 0.65460 0.29830
 C313 C 0.50668 0.66620 0.24218
 C314 C 0.50797 0.64937 0.19587
 C315 C 0.52081 0.66143 0.14033
 C316 C 0.53205 0.68934 0.13074
 C317 C 0.53084 0.70579 0.17605
 C318 C 0.51834 0.69446 0.23128
 C319 C 0.46861 0.61396 0.36276
 C320 C 0.45708 0.58603 0.37218
 C321 C 0.45873 0.56965 0.32741
 C322 C 0.47183 0.58108 0.27280
 C323 C 0.49512 0.67186 0.34817
 C324 C 0.49632 0.68498 0.39233
 C325 C 0.49990 0.60401 0.16138
 C326 C 0.50202 0.58841 0.12757
 H327 H 0.52226 0.64944 0.10382
 H328 H 0.54177 0.69824 0.08792
 H329 H 0.53959 0.72745 0.16833
 H330 H 0.51778 0.70801 0.26515
 H331 H 0.46673 0.62580 0.39899
 H332 H 0.44681 0.57707 0.41448
 H333 H 0.44970 0.54795 0.33493
 H334 H 0.47240 0.56742 0.23928
 C335 C 0.37767 -0.12350 0.20544
 C336 C 0.38924 -0.12834 0.25756
 C337 C 0.37200 -0.14617 0.30354
 C338 C 0.34328 -0.15882 0.29748
 C339 C 0.33173 -0.15497 0.24416
 C340 C 0.34900 -0.13728 0.19788
 C341 C 0.33703 -0.13356 0.14516
 C342 C 0.30876 -0.14699 0.13827
 C343 C 0.29186 -0.16424 0.18358
 C344 C 0.30311 -0.16821 0.23611
 C345 C 0.38404 -0.15064 0.35532
 C346 C 0.41230 -0.13778 0.36158
 C347 C 0.42916 -0.12015 0.31686
 C348 C 0.41789 -0.11541 0.26537
 C349 C 0.32600 -0.17420 0.34802
 C350 C 0.31302 -0.18580 0.39254
 C351 C 0.39542 -0.10310 0.16191
 C352 C 0.41141 -0.08527 0.12904
 H353 H 0.34938 -0.12037 0.10872
 H354 H 0.29991 -0.14398 0.09758
 H355 H 0.26992 -0.17460 0.17800
 H356 H 0.28919 -0.18185 0.27009
 H357 H 0.37178 -0.16418 0.39137
 H358 H 0.42114 -0.14152 0.40134
 H359 H 0.45111 -0.11026 0.32179
 H360 H 0.43191 -0.10175 0.23159
 C361 C 0.87636 0.49807 0.20217
 C362 C 0.87785 0.52238 0.22344
 C363 C 0.85941 0.52116 0.26882
 C364 C 0.83970 0.49565 0.29287
 C365 C 0.83720 0.47126 0.26911
 C366 C 0.85545 0.47248 0.22321
 C367 C 0.85246 0.44785 0.19980
 C368 C 0.83208 0.42272 0.22132
 C369 C 0.81453 0.42153 0.26693
 C370 C 0.81696 0.44547 0.29072
 C371 C 0.86144 0.54575 0.28975
 C372 C 0.88109 0.57083 0.26640
 C373 C 0.89914 0.57202 0.22206
 C374 C 0.89767 0.54814 0.20074
 C375 C 0.82342 0.49465 0.34480
 C376 C 0.81100 0.49410 0.38973
 C377 C 0.89747 0.49951 0.16219
 C378 C 0.91568 0.50091 0.13111
 H379 H 0.86577 0.44777 0.16460
 H380 H 0.83008 0.40407 0.20295
 H381 H 0.79892 0.40196 0.28391
 H382 H 0.80272 0.44353 0.32582
 H383 H 0.84778 0.54585 0.32404
 H384 H 0.88230 0.58944 0.28277
 H385 H 0.91436 0.59154 0.20402
 H386 H 0.91208 0.55008 0.16603
 C387 C 0.50269 0.38179 0.21084
 C388 C 0.51846 0.39279 0.26395
 C389 C 0.51943 0.37511 0.30831
 C390 C 0.50417 0.34650 0.29992
 C391 C 0.48927 0.33557 0.24579
 C392 C 0.48860 0.35329 0.20099
 C393 C 0.47345 0.34191 0.14738
 C394 C 0.45937 0.31380 0.13824
 C395 C 0.45999 0.29648 0.18210
 C396 C 0.47472 0.30713 0.23540
 C397 C 0.53556 0.38661 0.36077
 C398 C 0.55018 0.41474 0.36929
 C399 C 0.54897 0.43201 0.32625
 C400 C 0.53327 0.42128 0.27419
 C401 C 0.50253 0.32862 0.34893
 C402 C 0.50143 0.31527 0.39253
 C403 C 0.50014 0.39988 0.16802
 C404 C 0.49820 0.41575 0.13490
 H405 H 0.47241 0.35459 0.11198
 H406 H 0.44792 0.30542 0.09691
 H407 H 0.44902 0.27467 0.17476
 H408 H 0.47472 0.29290 0.26815
 H409 H 0.53720 0.37404 0.39556
 H410 H 0.56252 0.42317 0.40951
 H411 H 0.56041 0.45385 0.33296
 H412 H 0.53322 0.43559 0.24178
 C413 C 0.62297 0.12204 0.20292
 C414 C 0.62005 0.14428 0.22241
 C415 C 0.63750 0.16205 0.26826
 C416 C 0.65809 0.15774 0.29347
 C417 C 0.66217 0.13660 0.27099
 C418 C 0.64450 0.11864 0.22572
 C419 C 0.64866 0.09734 0.20475
 C420 C 0.66974 0.09395 0.22771
 C421 C 0.68705 0.11154 0.27191
 C422 C 0.68339 0.13265 0.29352
 C423 C 0.63363 0.18363 0.28842
 C424 C 0.61333 0.18776 0.26342
 C425 C 0.59655 0.17065 0.21793
 C426 C 0.59972 0.14906 0.19761
 C427 C 0.67370 0.17364 0.34536
 C428 C 0.68568 0.18588 0.39026
 C429 C 0.60272 0.10149 0.16312
 C430 C 0.58553 0.08362 0.13224
 H431 H 0.63580 0.08322 0.17020
 H432 H 0.67267 0.07758 0.21106
 H433 H 0.70341 0.10884 0.28958
 H434 H 0.69742 0.14588 0.32778
 H435 H 0.64631 0.19758 0.32341
 H436 H 0.61061 0.20435 0.27941
 H437 H 0.58079 0.17392 0.19873
 H438 H 0.58608 0.13616 0.16240
 C439 C 0.49851 0.12257 -0.20056
 C440 C 0.47416 0.11778 -0.22951
 C441 C 0.47509 0.13606 -0.27480
 C442 C 0.50038 0.15893 -0.29115
 C443 C 0.52451 0.16449 -0.25998
 C444 C 0.52351 0.14638 -0.21409
 C445 C 0.54783 0.15236 -0.18340
 C446 C 0.57254 0.17544 -0.19809
 C447 C 0.57358 0.19296 -0.24348
 C448 C 0.54989 0.18767 -0.27419
 C449 C 0.45053 0.13068 -0.30359
 C450 C 0.42575 0.10788 -0.28810
 C451 C 0.42485 0.08998 -0.24388
 C452 C 0.44871 0.09476 -0.21480
 C453 C 0.50169 0.17536 -0.34295
 C454 C 0.50233 0.18774 -0.38798
 C455 C 0.49804 0.10195 -0.16063
 C456 C 0.49726 0.08400 -0.12976
 H457 H 0.54802 0.13923 -0.14800
 H458 H 0.59101 0.17961 -0.17447
 H459 H 0.59286 0.21076 -0.25496
 H460 H 0.55166 0.20195 -0.30892
 H461 H 0.45017 0.14406 -0.33813
 H462 H 0.40717 0.10410 -0.31055
 H463 H 0.40556 0.07230 -0.23200
 H464 H 0.44695 0.08031 -0.18051
 C465 C 0.62171 0.49819 -0.20246
 C466 C 0.64446 0.52246 -0.22396
 C467 C 0.66155 0.52117 -0.26959
 C468 C 0.65568 0.49562 -0.29368
 C469 C 0.63387 0.47128 -0.26968
 C470 C 0.61698 0.47257 -0.22353
 C471 C 0.59541 0.44798 -0.19994
 C472 C 0.59060 0.42282 -0.22151
 C473 C 0.60683 0.42156 -0.26733
 C474 C 0.62826 0.44545 -0.29132
 C475 C 0.68403 0.54572 -0.29076
 C476 C 0.68950 0.57083 -0.26741
 C477 C 0.67275 0.57209 -0.22286
 C478 C 0.65043 0.54825 -0.20128
 C479 C 0.67078 0.49456 -0.34591
 C480 C 0.68251 0.49396 -0.39107
 C481 C 0.60212 0.49972 -0.16235
 C482 C 0.58535 0.50120 -0.13125
 H483 H 0.58212 0.44796 -0.16456
 H484 H 0.57400 0.40420 -0.20300
 H485 H 0.60284 0.40196 -0.28432
 H486 H 0.64047 0.44346 -0.32661
 H487 H 0.69768 0.54576 -0.32525
 H488 H 0.70684 0.58941 -0.28395
 H489 H 0.67709 0.59164 -0.20485
 H490 H 0.63806 0.55025 -0.16641
 C491 C 0.87855 0.38053 -0.21047
 C492 C 0.86412 0.35207 -0.19994
 C493 C 0.84600 0.33415 -0.24478
 C494 C 0.84230 0.34485 -0.29960
 C495 C 0.85564 0.37342 -0.30871
 C496 C 0.87400 0.39129 -0.26428
 C497 C 0.88762 0.41974 -0.27513
 C498 C 0.88289 0.43024 -0.32790
 C499 C 0.86472 0.41279 -0.37108
 C500 C 0.85127 0.38470 -0.36194
 C501 C 0.83210 0.30577 -0.23369
 C502 C 0.83586 0.29536 -0.17962
 C503 C 0.85352 0.31287 -0.13571
 C504 C 0.86759 0.34093 -0.14557
 C505 C 0.82613 0.32680 -0.34839
 C506 C 0.81386 0.31354 -0.39203
 C507 C 0.89900 0.39879 -0.16768
 C508 C 0.91676 0.41480 -0.13473
 H509 H 0.90175 0.43419 -0.24266
 H510 H 0.89324 0.45206 -0.33510
 H511 H 0.86104 0.42104 -0.41191
 H512 H 0.83733 0.37199 -0.39691
 H513 H 0.81810 0.29140 -0.26649
 H514 H 0.82500 0.27359 -0.17172
 H515 H 0.85635 0.30468 -0.09377
 H516 H 0.88108 0.35377 -0.11010
 C517 C 0.49884 -0.12511 -0.19686
 C518 C 0.47308 -0.14550 -0.21843
 C519 C 0.47159 -0.16333 -0.26556
 C520 C 0.49585 -0.16091 -0.29013
 C521 C 0.52151 -0.14183 -0.26548
 C522 C 0.52301 -0.12383 -0.21878
 C523 C 0.54891 -0.10460 -0.19560
 C524 C 0.57266 -0.10328 -0.21773
 C525 C 0.57120 -0.12091 -0.26331
 C526 C 0.54598 -0.13996 -0.28719
 C527 C 0.44566 -0.18305 -0.28760
 C528 C 0.42184 -0.18539 -0.26309
 C529 C 0.42328 -0.16821 -0.21644
 C530 C 0.44857 -0.14834 -0.19444
 C531 C 0.49470 -0.17661 -0.34327
 C532 C 0.49458 -0.18839 -0.38892
 C533 C 0.50061 -0.10402 -0.15647
 C534 C 0.50202 -0.08577 -0.12563
 H535 H 0.55105 -0.09055 -0.15989
 H536 H 0.59231 -0.08850 -0.19941
 H537 H 0.58970 -0.11983 -0.28032
 H538 H 0.54588 -0.15324 -0.32258
 H539 H 0.44355 -0.19693 -0.32366
 H540 H 0.40216 -0.20061 -0.28039
 H541 H 0.40472 -0.17007 -0.19765
 H542 H 0.44868 -0.13533 -0.15836
 C543 C 0.37456 0.49660 -0.20353
 C544 C 0.36435 0.51483 -0.19797
 C545 C 0.34766 0.51618 -0.24449
 C546 C 0.34134 0.49933 -0.29625
 C547 C 0.35052 0.48020 -0.30042
 C548 C 0.36715 0.47883 -0.25394
 C549 C 0.37632 0.45974 -0.25949
 C550 C 0.36925 0.44251 -0.30947
 C551 C 0.35297 0.44384 -0.35492
 C552 C 0.34367 0.46243 -0.35073
 C553 C 0.33784 0.53467 -0.23821
 C554 C 0.34427 0.55134 -0.18731
 C555 C 0.36063 0.55005 -0.14188
 C556 C 0.37065 0.53206 -0.14695
 C557 C 0.32660 0.50233 -0.34679
 C558 C 0.31515 0.50405 -0.39121
 C559 C 0.39408 0.49715 -0.16003
 C560 C 0.41120 0.49717 -0.12746
 H561 H 0.38894 0.45781 -0.22525
 H562 H 0.37645 0.42805 -0.31289
 H563 H 0.34751 0.43040 -0.39366
 H564 H 0.33100 0.46261 -0.38722
 H565 H 0.32501 0.53632 -0.27237
 H566 H 0.33652 0.56533 -0.18312
 H567 H 0.36556 0.56306 -0.10247
 H568 H 0.38321 0.53166 -0.11043
 C569 C 1.12311 0.62189 -0.20576
 C570 C 1.12807 0.61040 -0.25793
 C571 C 1.14589 0.62767 -0.30390
 C572 C 1.15841 0.65633 -0.29780
 C573 C 1.15443 0.66781 -0.24445
 C574 C 1.13678 0.65052 -0.19816
 C575 C 1.13294 0.66242 -0.14540
 C576 C 1.14620 0.69064 -0.13852
 C577 C 1.16342 0.70755 -0.18384
 C578 C 1.16754 0.69637 -0.23636
 C579 C 1.15049 0.61571 -0.35570
 C580 C 1.13774 0.58750 -0.36202
 C581 C 1.12010 0.57060 -0.31734
 C582 C 1.11525 0.58180 -0.26581
 C583 C 1.17379 0.67364 -0.34831
 C584 C 1.18541 0.68666 -0.39276
 C585 C 1.10277 0.60412 -0.16214
 C586 C 1.08501 0.58808 -0.12916
 H587 H 1.11978 0.65005 -0.10895
 H588 H 1.14311 0.69943 -0.09781
 H589 H 1.17367 0.72945 -0.17827
 H590 H 1.18117 0.71030 -0.27032
 H591 H 1.16405 0.62799 -0.39171
 H592 H 1.14158 0.57871 -0.40180
 H593 H 1.11031 0.54869 -0.32231
 H594 H 1.10159 0.56776 -0.23204
 C595 C 0.87594 0.49788 -0.20206
 C596 C 0.87694 0.52213 -0.22199
 C597 C 0.85856 0.52091 -0.26735
 C598 C 0.83941 0.49547 -0.29261
 C599 C 0.83732 0.47109 -0.26999
 C600 C 0.85553 0.47229 -0.22420
 C601 C 0.85304 0.44769 -0.20206
 C602 C 0.83312 0.42258 -0.22466
 C603 C 0.81557 0.42141 -0.27011
 C604 C 0.81754 0.44533 -0.29269
 C605 C 0.86010 0.54544 -0.28710
 C606 C 0.87924 0.57045 -0.26258
 C607 C 0.89724 0.57164 -0.21822
 C608 C 0.89623 0.54782 -0.19805
 C609 C 0.82338 0.49458 -0.34469
 C610 C 0.81109 0.49407 -0.38968
 C611 C 0.89714 0.49941 -0.16258
 C612 C 0.91544 0.50080 -0.13204
 H613 H 0.86636 0.44759 -0.16699
 H614 H 0.83147 0.40394 -0.20719
 H615 H 0.80031 0.40187 -0.28791
 H616 H 0.80330 0.44341 -0.32770
 H617 H 0.84645 0.54552 -0.32133
 H618 H 0.88009 0.58901 -0.27806
 H619 H 0.91205 0.59112 -0.19927
 H620 H 0.91056 0.54973 -0.16326
 C621 C 0.50394 0.38187 -0.20845
 C622 C 0.49016 0.35336 -0.19872
 C623 C 0.49114 0.33587 -0.24365
 C624 C 0.50613 0.34705 -0.29764
 C625 C 0.52095 0.37566 -0.30608
 C626 C 0.51964 0.39311 -0.26163
 C627 C 0.53401 0.42161 -0.27186
 C628 C 0.54958 0.43256 -0.32408
 C629 C 0.55107 0.41550 -0.36730
 C630 C 0.53691 0.38737 -0.35875
 C631 C 0.47677 0.30740 -0.23358
 C632 C 0.46196 0.29652 -0.18037
 C633 C 0.46111 0.31365 -0.13628
 C634 C 0.47498 0.34177 -0.14515
 C635 C 0.50492 0.32943 -0.34669
 C636 C 0.50394 0.31622 -0.39042
 C637 C 0.50110 0.39971 -0.16557
 C638 C 0.49896 0.41552 -0.13270
 H639 H 0.53370 0.43577 -0.23937
 H640 H 0.56068 0.45441 -0.33081
 H641 H 0.56326 0.42410 -0.40771
 H642 H 0.53872 0.37497 -0.39375
 H643 H 0.47692 0.29331 -0.26656
 H644 H 0.45110 0.27469 -0.17328
 H645 H 0.44962 0.30510 -0.09500
 H646 H 0.47374 0.35430 -0.10963
 C647 C 0.61749 0.12331 -0.20715
 C648 C 0.64613 0.13471 -0.20302
 C649 C 0.66340 0.15360 -0.24756
 C650 C 0.65189 0.16109 -0.29561
 C651 C 0.62335 0.15068 -0.29807
 C652 C 0.60607 0.13154 -0.25403
 C653 C 0.57750 0.12068 -0.25873
 C654 C 0.56637 0.12864 -0.30536
 C655 C 0.58332 0.14767 -0.34789
 C656 C 0.61149 0.15860 -0.34458
 C657 C 0.69193 0.16430 -0.24332
 C658 C 0.70310 0.15661 -0.19624
 C659 C 0.68622 0.13820 -0.15258
 C660 C 0.65803 0.12729 -0.15573
 C661 C 0.66886 0.17733 -0.34565
 C662 C 0.68187 0.18935 -0.38974
 C663 C 0.59957 0.10202 -0.16552
 C664 C 0.58381 0.08379 -0.13317
 H665 H 0.56347 0.10606 -0.22631
 H666 H 0.54450 0.12021 -0.30810
 H667 H 0.57460 0.15400 -0.38368
 H668 H 0.62383 0.17334 -0.37874
 H669 H 0.70585 0.17875 -0.27614
 H670 H 0.72497 0.16499 -0.19362
 H671 H 0.69500 0.13231 -0.11609
 H672 H 0.64571 0.11304 -0.12075
 C673 C 1.12452 0.49846 -0.19820
 C674 C 1.14487 0.52382 -0.22161
 C675 C 1.16195 0.52452 -0.26971
 C676 C 1.15876 0.49986 -0.29355
 C677 C 1.13976 0.47463 -0.26714
 C678 C 1.12255 0.47393 -0.21933
 C679 C 1.10339 0.44845 -0.19426
 C680 C 1.10136 0.42433 -0.21568
 C681 C 1.11819 0.42501 -0.26245
 C682 C 1.13719 0.44982 -0.28812
 C683 C 1.18169 0.55008 -0.29347
 C684 C 1.18470 0.57427 -0.26980
 C685 C 1.16822 0.57358 -0.22224
 C686 C 1.14836 0.54869 -0.19851
 C687 C 1.17371 0.50033 -0.34747
 C688 C 1.18545 0.50083 -0.39350
 C689 C 1.10400 0.49747 -0.15697
 C690 C 1.08606 0.49658 -0.12575
 H691 H 1.08997 0.44692 -0.15759
 H692 H 1.08668 0.40502 -0.19577
 H693 H 1.11656 0.40622 -0.27888
 H694 H 1.14992 0.44935 -0.32425
 H695 H 1.19509 0.55164 -0.33022
 H696 H 1.19992 0.59365 -0.28843
 H697 H 1.17065 0.59243 -0.20401
 H698 H 1.13591 0.54914 -0.16173
 C699 C 0.50249 0.62329 -0.20844
 C700 C 0.50806 0.64996 -0.19404
 C701 C 0.50868 0.66758 -0.24078
 C702 C 0.50374 0.65839 -0.30156
 C703 C 0.49753 0.63148 -0.31573
 C704 C 0.49686 0.61388 -0.26908
 C705 C 0.49059 0.58706 -0.28449
 C706 C 0.48518 0.57792 -0.34418
 C707 C 0.48588 0.59514 -0.38981
 C708 C 0.49197 0.62160 -0.37605
 C709 C 0.51429 0.69413 -0.22537
 C710 C 0.51909 0.70303 -0.16540
 C711 C 0.51849 0.68581 -0.11972
 C712 C 0.51308 0.65955 -0.13365
 C713 C 0.50480 0.67618 -0.35019
 C714 C 0.50493 0.68904 -0.39388
 C715 C 0.50333 0.60553 -0.16203
 C716 C 0.50407 0.58939 -0.12758
 H717 H 0.48970 0.57280 -0.25069
 H718 H 0.48042 0.55736 -0.35506
 H719 H 0.48169 0.58798 -0.43617
 H720 H 0.49223 0.63414 -0.41327
 H721 H 0.51498 0.70821 -0.25944
 H722 H 0.52331 0.72340 -0.15433
 H723 H 0.52223 0.69283 -0.07323
 H724 H 0.51275 0.64683 -0.09667
 C725 C 0.37757 -0.12309 -0.20229
 C726 C 0.34889 -0.13719 -0.19485
 C727 C 0.33185 -0.15484 -0.24135
 C728 C 0.34366 -0.15838 -0.29470
 C729 C 0.37240 -0.14541 -0.30067
 C730 C 0.38941 -0.12754 -0.25455
 C731 C 0.41810 -0.11424 -0.26229
 C732 C 0.42962 -0.11870 -0.31379
 C733 C 0.41297 -0.13638 -0.35864
 C734 C 0.38469 -0.14959 -0.35247
 C735 C 0.30321 -0.16839 -0.23345
 C736 C 0.29172 -0.16470 -0.18089
 C737 C 0.30839 -0.14751 -0.13533
 C738 C 0.33668 -0.13382 -0.14204
 C739 C 0.32658 -0.17376 -0.34536
 C740 C 0.31366 -0.18537 -0.38984
 C741 C 0.39506 -0.10285 -0.15832
 C742 C 0.41088 -0.08512 -0.12512
 H743 H 0.43196 -0.10052 -0.22842
 H744 H 0.45159 -0.10858 -0.31862
 H745 H 0.42201 -0.13991 -0.39841
 H746 H 0.37262 -0.16319 -0.38857
 H747 H 0.28945 -0.18205 -0.26757
 H748 H 0.26976 -0.17526 -0.17546
 H749 H 0.29937 -0.14476 -0.09456
 H750 H 0.34886 -0.12070 -0.10540
 C751 C 0.50244 -0.12370 0.19669
 C752 C 0.47728 -0.14420 0.22069
 C753 C 0.47705 -0.16120 0.26832
 C754 C 0.50199 -0.15777 0.29114
 C755 C 0.52703 -0.13857 0.26420
 C756 C 0.52726 -0.12144 0.21685
 C757 C 0.55256 -0.10209 0.19123
 C758 C 0.57695 -0.09977 0.21170
 C759 C 0.57672 -0.11653 0.25798
 C760 C 0.55210 -0.13573 0.28416
 C761 C 0.45168 -0.18111 0.29266
 C762 C 0.42721 -0.18436 0.27008
 C763 C 0.42743 -0.16795 0.22299
 C764 C 0.45213 -0.14795 0.19864
 C765 C 0.50198 -0.17272 0.34459
 C766 C 0.50172 -0.18451 0.39029
 C767 C 0.50298 -0.10337 0.15575
 C768 C 0.50354 -0.08556 0.12476
 H769 H 0.55373 -0.08872 0.15489
 H770 H 0.59612 -0.08491 0.19147
 H771 H 0.59571 -0.11468 0.27366
 H772 H 0.55292 -0.14839 0.31987
 H773 H 0.45049 -0.19448 0.32903
 H774 H 0.40798 -0.19970 0.28918
 H775 H 0.40836 -0.17055 0.20565
 H776 H 0.45129 -0.13558 0.16223
 C777 C 0.37422 0.50028 0.19532
 C778 C 0.38092 0.52534 0.22343
 C779 C 0.36425 0.52596 0.27095
 C780 C 0.34078 0.50157 0.28945
 C781 C 0.33309 0.47688 0.25850
 C782 C 0.34990 0.47621 0.21135
 C783 C 0.34209 0.45119 0.18181
 C784 C 0.31823 0.42751 0.19817
 C785 C 0.30175 0.42819 0.24416
 C786 C 0.30903 0.45252 0.27424
 C787 C 0.37174 0.55112 0.29951
 C788 C 0.39481 0.57506 0.28097
 C789 C 0.41088 0.57451 0.23391
 C790 C 0.40427 0.54995 0.20566
 C791 C 0.32558 0.50160 0.34251
 C792 C 0.31383 0.50175 0.38800
 C793 C 0.39358 0.49882 0.15439
 C794 C 0.41051 0.49763 0.12335
 H795 H 0.35421 0.44971 0.14557
 H796 H 0.31249 0.40854 0.17498
 H797 H 0.28320 0.40977 0.25660
 H798 H 0.29554 0.45207 0.30963
 H799 H 0.35975 0.55259 0.33603
 H800 H 0.40017 0.59416 0.30308
 H801 H 0.42864 0.59320 0.21937
 H802 H 0.41751 0.55053 0.16950
 C803 C 1.12309 0.62193 0.20192
 C804 C 1.13701 0.65058 0.19457
 C805 C 1.15459 0.66767 0.24112
 C806 C 1.15821 0.65595 0.29445
 C807 C 1.14540 0.62727 0.30034
 C808 C 1.12762 0.61020 0.25417
 C809 C 1.11447 0.58157 0.26185
 C810 C 1.11899 0.57014 0.31334
 C811 C 1.13660 0.58683 0.35821
 C812 C 1.14966 0.61507 0.35211
 C813 C 1.16797 0.69626 0.23330
 C814 C 1.16419 0.70766 0.18078
 C815 C 1.14708 0.69094 0.13518
 C816 C 1.13356 0.66269 0.14180
 C817 C 1.17351 0.67307 0.34515
 C818 C 1.18506 0.68601 0.38963
 C819 C 1.10292 0.60435 0.15792
 C820 C 1.08522 0.58843 0.12481
 H821 H 1.10083 0.56769 0.22791
 H822 H 1.10896 0.54821 0.31815
 H823 H 1.14015 0.57787 0.39800
 H824 H 1.16318 0.62719 0.38828
 H825 H 1.18154 0.71005 0.26749
 H826 H 1.17460 0.72958 0.17545
 H827 H 1.14424 0.69990 0.09447
 H828 H 1.12049 0.65048 0.10510
 C829 C 0.50497 0.12299 0.21123
 C830 C 0.52252 0.12867 0.26156
 C831 C 0.52444 0.14761 0.30620
 C832 C 0.50844 0.16039 0.30084
 C833 C 0.49161 0.15542 0.24951
 C834 C 0.48996 0.13673 0.20438
 C835 C 0.47289 0.13193 0.15361
 C836 C 0.45783 0.14521 0.14766
 C837 C 0.45935 0.16340 0.19194
 C838 C 0.47602 0.16852 0.24242
 C839 C 0.54217 0.15302 0.35607
 C840 C 0.55741 0.13994 0.36187
 C841 C 0.55529 0.12115 0.31857
 C842 C 0.53808 0.11550 0.26891
 C843 C 0.50776 0.17675 0.35066
 C844 C 0.50700 0.18896 0.39466
 C845 C 0.50152 0.10203 0.16852
 C846 C 0.49902 0.08395 0.13560
 H847 H 0.47107 0.11794 0.11805
 H848 H 0.44488 0.14134 0.10851
 H849 H 0.44758 0.17363 0.18713
 H850 H 0.47664 0.18290 0.27562
 H851 H 0.54453 0.16748 0.39095
 H852 H 0.57094 0.14441 0.40015
 H853 H 0.56724 0.11110 0.32311
 H854 H 0.53737 0.10094 0.23615
 C855 C 0.62148 0.49847 0.20266
 C856 C 0.61653 0.47279 0.22384
 C857 C 0.63333 0.47140 0.26992
 C858 C 0.65522 0.49570 0.29373
 C859 C 0.66137 0.52127 0.26933
 C860 C 0.64439 0.52266 0.22374
 C861 C 0.65062 0.54847 0.20070
 C862 C 0.67310 0.57224 0.22193
 C863 C 0.68976 0.57089 0.26648
 C864 C 0.68403 0.54575 0.29016
 C865 C 0.62754 0.44554 0.29169
 C866 C 0.60600 0.42170 0.26789
 C867 C 0.58984 0.42305 0.22214
 C868 C 0.59484 0.44826 0.20045
 C869 C 0.67014 0.49458 0.34602
 C870 C 0.68179 0.49395 0.39113
 C871 C 0.60191 0.50013 0.16304
 C872 C 0.58510 0.50162 0.13233
 H873 H 0.63834 0.55051 0.16577
 H874 H 0.67765 0.59180 0.20361
 H875 H 0.70722 0.58941 0.28273
 H876 H 0.69764 0.54571 0.32456
 H877 H 0.63971 0.44348 0.32688
 H878 H 0.60186 0.40207 0.28496
 H879 H 0.57316 0.40448 0.20374
 H880 H 0.58161 0.44831 0.16509
 C881 C 0.87789 0.38211 0.20948
 C882 C 0.86299 0.35360 0.20005
 C883 C 0.84423 0.33633 0.24482
 C884 C 0.84037 0.34775 0.29840
 C885 C 0.85442 0.37638 0.30658
 C886 C 0.87343 0.39359 0.26228
 C887 C 0.88781 0.42211 0.27230
 C888 C 0.88321 0.43330 0.32416
 C889 C 0.86441 0.41647 0.36722
 C890 C 0.85018 0.38833 0.35886
 C891 C 0.82994 0.30784 0.23505
 C892 C 0.83397 0.29672 0.18231
 C893 C 0.85222 0.31363 0.13839
 C894 C 0.86665 0.34176 0.14696
 C895 C 0.82383 0.33028 0.34750
 C896 C 0.81162 0.31703 0.39116
 C897 C 0.89868 0.39972 0.16657
 C898 C 0.91664 0.41534 0.13347
 H899 H 0.90248 0.43609 0.23990
 H900 H 0.89416 0.45516 0.33072
 H901 H 0.86083 0.42525 0.40735
 H902 H 0.83575 0.37611 0.39368
 H903 H 0.81548 0.29392 0.26787
 H904 H 0.82285 0.27488 0.17545
 H905 H 0.85523 0.30490 0.09748
 H906 H 0.88063 0.35411 0.11158
   
