data_POSCAR
  _audit_creation_date              2014-09-24
  _audit_creation_method            'ToBaCCo'
  _symmetry_space_group_name_H-M    'P1'
  _symmetry_Int_Tables_number       1
  _symmetry_cell_setting            triclinic
  loop_
  _symmetry_equiv_pos_as_xyz
 x,y,z
_cell_length_a 33.2879
_cell_length_b 32.3432
_cell_length_c 29.9486
_cell_angle_alpha 90.973400
_cell_angle_beta 89.685900
_cell_angle_gamma 119.158700
loop_
  _atom_site_label
  _atom_site_type_symbol
  _atom_site_fract_x
  _atom_site_fract_y
  _atom_site_fract_z
C1 C 0.52671 0.07676 0.04624
 H2 H 0.56013 0.08017 0.03940
 C3 C 0.52329 0.11066 0.07280
 H4 H 0.55450 0.14040 0.08570
 C5 C 0.44591 0.03473 0.03565
 H6 H 0.41595 0.00526 0.02070
 C7 C 0.44084 0.06774 0.06250
 H8 H 0.40672 0.06286 0.06854
 N9 N 0.48841 0.03968 0.02841
 C10 C 0.52081 -0.07401 0.00633
 H11 H 0.51665 -0.07880 -0.02951
 C12 C 0.52843 -0.10551 0.03152
 H13 H 0.52980 -0.13469 0.01471
 C14 C 0.52075 -0.03194 0.07186
 H15 H 0.51672 -0.00390 0.08759
 C16 C 0.52875 -0.06234 0.09827
 H17 H 0.53177 -0.05659 0.13409
 Zn18 Zn 0.49875 -0.00217 -0.00850
 N19 N 0.51649 -0.03854 0.02681
 C20 C 0.58875 0.03979 -0.04481
 N21 N 0.54644 0.03617 -0.04817
 C22 C 0.53865 0.06404 -0.07628
 C23 C 0.57387 0.09649 -0.10314
 C24 C 0.62551 0.07311 -0.06990
 C25 C 0.41023 -0.07932 -0.01492
 C26 C 0.37023 -0.11431 -0.03548
 C27 C 0.40031 -0.07755 -0.10635
 C28 C 0.44022 -0.04418 -0.08446
 N29 N 0.44430 -0.04525 -0.03946
 H30 H 0.59459 0.01838 -0.02116
 H31 H 0.50508 0.06160 -0.07729
 H32 H 0.56601 0.11710 -0.12601
 H33 H 0.65927 0.07687 -0.06474
 H34 H 0.41438 -0.07957 0.02087
 H35 H 0.34374 -0.13955 -0.01399
 H36 H 0.39999 -0.07599 -0.14237
 H37 H 0.46826 -0.01820 -0.10388
 C38 C 0.53171 -0.10039 0.07827
 C39 C 0.47992 0.10638 0.08154
 C40 C 0.36417 -0.11431 -0.08227
 C41 C 0.61856 0.10251 -0.09941
 C42 C -0.06389 0.47573 0.59573
 H43 H -0.05934 0.44498 0.59156
 C44 C -0.09661 0.47973 0.57017
 H45 H -0.11558 0.45259 0.54522
 C46 C -0.04440 0.54788 0.63380
 H47 H -0.02478 0.57357 0.65961
 C48 C -0.07796 0.55253 0.60989
 H49 H -0.08371 0.58198 0.61784
 N50 N -0.03849 0.50956 0.62667
 C51 C 0.06681 0.47044 0.65557
 H52 H 0.06334 0.46756 0.69148
 C53 C 0.10127 0.46484 0.63416
 H54 H 0.12397 0.45704 0.65370
 C55 C 0.04280 0.48633 0.58664
 H56 H 0.02144 0.49683 0.56842
 C57 C 0.07641 0.48045 0.56383
 H58 H 0.08014 0.48591 0.52814
 Zn59 Zn -0.00146 0.49615 0.66474
 N60 N 0.03865 0.48131 0.63173
 C61 C -0.04857 0.40016 0.69310
 N62 N -0.04319 0.44436 0.69909
 C63 C -0.07151 0.45225 0.72642
 C64 C -0.10625 0.41524 0.74994
 C65 C -0.08406 0.36161 0.71490
 C66 C 0.06996 0.58738 0.67998
 C67 C 0.10283 0.62630 0.70432
 C68 C 0.06503 0.58726 0.77226
 C69 C 0.03360 0.54856 0.74664
 N70 N 0.03652 0.54933 0.70131
 H71 H -0.02665 0.39442 0.66998
 H72 H -0.06740 0.48748 0.72953
 H73 H -0.12716 0.42321 0.77246
 H74 H -0.08893 0.32653 0.70800
 H75 H 0.07204 0.58670 0.64393
 H76 H 0.13030 0.65500 0.68640
 H77 H 0.06145 0.58591 0.80821
 H78 H 0.00772 0.51762 0.76325
 C79 C 0.10664 0.47037 0.58776
 C80 C -0.10524 0.51770 0.57796
 C81 C 0.10096 0.62659 0.75127
 C82 C -0.11389 0.36875 0.74361
 C83 C 0.54721 0.48058 0.40304
 H84 H 0.51337 0.44984 0.40496
 C85 C 0.58331 0.48259 0.42803
 H86 H 0.57615 0.45383 0.45030
 C87 C 0.59680 0.55500 0.37137
 H88 H 0.60204 0.58252 0.34831
 C89 C 0.63432 0.55782 0.39480
 H90 H 0.66809 0.58768 0.38917
 N91 N 0.55435 0.51658 0.37567
 C92 C 0.41519 0.49231 0.35065
 H93 H 0.41604 0.49439 0.31461
 C94 C 0.37637 0.48657 0.37394
 H95 H 0.34768 0.48469 0.35543
 C96 C 0.45293 0.49525 0.41838
 H97 H 0.48318 0.49996 0.43581
 C98 C 0.41467 0.48896 0.44296
 H99 H 0.41570 0.48743 0.47898
 Zn100 Zn 0.50473 0.50761 0.33872
 N101 N 0.45240 0.49634 0.37301
 C102 C 0.44994 0.41615 0.29767
 N103 N 0.49225 0.45521 0.30106
 C104 C 0.52948 0.45697 0.28035
 C105 C 0.52535 0.41800 0.25599
 C106 C 0.44411 0.37650 0.27290
 C107 C 0.52846 0.60203 0.32741
 C108 C 0.53543 0.64211 0.30437
 C109 C 0.52753 0.59967 0.23488
 C110 C 0.52054 0.56027 0.25930
 N111 N 0.52070 0.56206 0.30471
 H112 H 0.42097 0.41514 0.31506
 H113 H 0.56277 0.48831 0.28397
 H114 H 0.55553 0.41960 0.24048
 H115 H 0.41055 0.34518 0.27114
 H116 H 0.52799 0.60225 0.36354
 H117 H 0.54094 0.67343 0.32302
 H118 H 0.52574 0.59716 0.19878
 H119 H 0.51349 0.52786 0.24194
 C120 C 0.37575 0.48490 0.42083
 C121 C 0.62801 0.52102 0.42337
 C122 C 0.53426 0.64099 0.25748
 C123 C 0.48238 0.37697 0.25254
 C124 C 0.22035 0.47170 0.51900
 C125 C 0.17587 0.44508 0.50107
 C126 C 0.13853 0.44404 0.52403
 C127 C 0.14552 0.46903 0.56480
 C128 C 0.19026 0.49484 0.58265
 C129 C 0.22786 0.49661 0.55971
 C130 C 0.25992 0.47422 0.49430
 C131 C 0.30447 0.50189 0.51165
 C132 C 0.34208 0.50512 0.48756
 C133 C 0.33547 0.48049 0.44655
 C134 C 0.29034 0.45239 0.42997
 C135 C 0.25250 0.44943 0.45355
 C136 C 0.27291 0.52348 0.57625
 C137 C 0.31059 0.52620 0.55256
 C138 C 0.16976 0.42051 0.46031
 C139 C 0.20740 0.42251 0.43704
 H140 H 0.27915 0.54292 0.60759
 H141 H 0.34481 0.54763 0.56632
 H142 H 0.13562 0.39973 0.44618
 H143 H 0.20119 0.40318 0.40564
 H144 H 0.10411 0.42396 0.51028
 H145 H 0.19592 0.51471 0.61367
 H146 H 0.37653 0.52760 0.50037
 H147 H 0.28461 0.43270 0.39885
 C148 C 0.53791 0.79327 0.15723
 C149 C 0.51166 0.81404 0.17206
 C150 C 0.51041 0.84921 0.14641
 C151 C 0.53529 0.86391 0.10618
 C152 C 0.56193 0.84302 0.09209
 C153 C 0.56319 0.80752 0.11742
 C154 C 0.53826 0.75528 0.18351
 C155 C 0.56368 0.73370 0.16823
 C156 C 0.56290 0.69673 0.19282
 C157 C 0.53704 0.68152 0.23245
 C158 C 0.51220 0.70401 0.24743
 C159 C 0.51254 0.74075 0.22303
 C160 C 0.58875 0.78556 0.10353
 C161 C 0.58893 0.74924 0.12846
 C162 C 0.48659 0.79872 0.21193
 C163 C 0.48709 0.76274 0.23703
 H164 H 0.60846 0.79625 0.07291
 H165 H 0.60878 0.73298 0.11635
 H166 H 0.46622 0.81451 0.22372
 H167 H 0.46709 0.75180 0.26746
 H168 H 0.48904 0.86420 0.15722
 H169 H 0.58159 0.85433 0.06148
 H170 H 0.58235 0.67982 0.18123
 H171 H 0.49158 0.69203 0.27745
 C172 C 0.24898 0.77852 0.85078
 C173 C 0.27308 0.82345 0.83194
 C174 C 0.31139 0.85925 0.85447
 C175 C 0.32576 0.85115 0.89650
 C176 C 0.29945 0.80553 0.91523
 C177 C 0.26189 0.76922 0.89224
 C178 C 0.20990 0.74019 0.82621
 C179 C 0.18718 0.69462 0.84410
 C180 C 0.15141 0.65783 0.81973
 C181 C 0.13747 0.66642 0.77804
 C182 C 0.15994 0.71290 0.76136
 C183 C 0.19660 0.74965 0.78494
 C184 C 0.23768 0.72331 0.90952
 C185 C 0.20118 0.68658 0.88571
 C186 C 0.25850 0.83173 0.79069
 C187 C 0.22074 0.79554 0.76773
 H188 H 0.24740 0.71554 0.94146
 H189 H 0.18385 0.65158 0.89997
 H190 H 0.27660 0.86643 0.77588
 H191 H 0.21083 0.80338 0.73592
 H192 H 0.32837 0.89396 0.83971
 H193 H 0.30972 0.79647 0.94614
 H194 H 0.13543 0.62234 0.83283
 H195 H 0.14923 0.72056 0.72993
 C196 C 0.78154 0.52033 0.51188
 C197 C 0.77918 0.47684 0.52107
 C198 C 0.81594 0.47644 0.54308
 C199 C 0.85585 0.51912 0.55475
 C200 C 0.85770 0.56256 0.54481
 C201 C 0.82039 0.56331 0.52386
 C202 C 0.74245 0.52079 0.48937
 C203 C 0.74411 0.56418 0.48111
 C204 C 0.70648 0.56427 0.46017
 C205 C 0.66779 0.52135 0.44652
 C206 C 0.66745 0.47828 0.45453
 C207 C 0.70419 0.47777 0.47650
 C208 C 0.82102 0.60612 0.51466
 C209 C 0.78342 0.60653 0.49395
 C210 C 0.74006 0.43448 0.50811
 C211 C 0.70335 0.43495 0.48584
 H212 H 0.85072 0.63958 0.52379
 H213 H 0.78525 0.64031 0.48771
 H214 H 0.73791 0.40068 0.51496
 H215 H 0.67393 0.40149 0.47614
 H216 H 0.81296 0.44265 0.55160
 H217 H 0.88814 0.59574 0.55300
 H218 H 0.70729 0.59771 0.45491
 H219 H 0.63890 0.44498 0.44321
 C220 C 0.47441 0.21613 0.15946
 C221 C 0.50561 0.20062 0.17113
 C222 C 0.50592 0.16357 0.14656
 C223 C 0.47614 0.14266 0.10975
 C224 C 0.44443 0.15813 0.09903
 C225 C 0.44339 0.19484 0.12387
 C226 C 0.47500 0.25616 0.18438
 C227 C 0.44403 0.27200 0.17263
 C228 C 0.44555 0.31088 0.19583
 C229 C 0.47850 0.33428 0.22971
 C230 C 0.50895 0.31762 0.24128
 C231 C 0.50722 0.27844 0.21889
 C232 C 0.41264 0.21139 0.11331
 C233 C 0.41283 0.24918 0.13738
 C234 C 0.53656 0.22311 0.20658
 C235 C 0.53748 0.26151 0.22995
 H236 H 0.38844 0.19523 0.08599
 H237 H 0.38876 0.26102 0.12794
 H238 H 0.56075 0.21138 0.21590
 H239 H 0.56234 0.27831 0.25666
 H240 H 0.52976 0.15137 0.15584
 H241 H 0.42163 0.14275 0.07058
 H242 H 0.42222 0.32382 0.18678
 H243 H 0.53400 0.33531 0.26771
 C244 C -0.26789 0.21435 0.83103
 C245 C -0.30636 0.21919 0.84224
 C246 C -0.34289 0.18284 0.86519
 C247 C -0.34222 0.14077 0.87571
 C248 C -0.30347 0.13628 0.86329
 C249 C -0.26593 0.17328 0.84163
 C250 C -0.22872 0.25328 0.80810
 C251 C -0.18943 0.24936 0.79830
 C252 C -0.15177 0.28716 0.77756
 C253 C -0.15371 0.32822 0.76556
 C254 C -0.19426 0.33054 0.77466
 C255 C -0.23130 0.29378 0.79665
 C256 C -0.22632 0.17025 0.83061
 C257 C -0.18858 0.20780 0.80967
 C258 C -0.30751 0.26047 0.83050
 C259 C -0.27080 0.29693 0.80768
 H260 H -0.22426 0.13880 0.83866
 H261 H -0.15855 0.20417 0.80219
 H262 H -0.33712 0.26453 0.83885
 H263 H -0.27313 0.32810 0.79907
 H264 H -0.37137 0.18801 0.87547
 H265 H -0.30235 0.10412 0.87027
 H266 H -0.12090 0.28471 0.77142
 H267 H -0.19737 0.36081 0.76447
   
