data_POSCAR
  _audit_creation_date              2014-09-24
  _audit_creation_method            'ToBaCCo'
  _symmetry_space_group_name_H-M    'P1'
  _symmetry_Int_Tables_number       1
  _symmetry_cell_setting            triclinic
  loop_
  _symmetry_equiv_pos_as_xyz
 x,y,z
_cell_length_a 32.5621
_cell_length_b 39.0306
_cell_length_c 37.5616
_cell_angle_alpha 88.044100
_cell_angle_beta 89.974600
_cell_angle_gamma 92.333500
loop_
  _atom_site_label
  _atom_site_type_symbol
  _atom_site_fract_x
  _atom_site_fract_y
  _atom_site_fract_z
N1 N 0.18904 1.24611 0.14142
 N2 N 0.16145 1.25186 0.16585
 C3 C 0.14374 1.28170 0.15765
 C4 C 0.16114 1.29527 0.12629
 C5 C 0.18975 1.27202 0.11679
 H6 H 0.11951 1.29226 0.17301
 H7 H 0.20928 1.27368 0.09343
 Cu8 Cu 0.15004 1.21928 0.20534
 Cu9 Cu 0.22129 1.20511 0.14291
 Cu10 Cu 0.20142 1.14639 0.21263
 N11 N 0.13796 1.18510 0.24327
 N12 N 0.15899 1.15713 0.24641
 C13 C 0.14474 1.13790 0.27449
 C14 C 0.11269 1.15461 0.28967
 C15 C 0.10919 1.18445 0.26916
 H16 H 0.15623 1.11322 0.28245
 H17 H 0.08712 1.20402 0.27275
 N18 N 0.24311 1.13986 0.17583
 N19 N 0.25070 1.16211 0.14915
 C20 C 0.27975 1.14979 0.12802
 C21 C 0.29074 1.11827 0.14215
 C22 C 0.26699 1.11282 0.17234
 H23 H 0.29141 1.16250 0.10385
 H24 H 0.26677 1.09041 0.19009
 H25 H 0.17774 1.17431 0.16998
 H26 H 0.21801 1.19650 0.19727
 N27 N 0.85014 0.73809 0.16333
 N28 N 0.87958 0.74390 0.18654
 C29 C 0.90693 0.71906 0.18489
 C30 C 0.89393 0.69651 0.15930
 C31 C 0.85772 0.70931 0.14611
 H32 H 0.93470 0.71780 0.20059
 H33 H 0.83894 0.69916 0.12490
 Cu34 Cu 0.88072 0.78415 0.21551
 Cu35 Cu 0.80607 0.76968 0.15549
 Cu36 Cu 0.80026 0.83594 0.21406
 N37 N 0.87292 0.81721 0.25206
 N38 N 0.84157 0.83741 0.25166
 C39 C 0.84468 0.85822 0.27953
 C40 C 0.88003 0.85051 0.29826
 C41 C 0.89701 0.82436 0.28014
 H42 H 0.82325 0.87776 0.28522
 H43 H 0.92517 0.81178 0.28669
 N44 N 0.76166 0.82976 0.17405
 N45 N 0.76394 0.80438 0.15186
 C46 C 0.73520 0.80796 0.12643
 C47 C 0.71383 0.83690 0.13283
 C48 C 0.73129 0.85016 0.16328
 H49 H 0.73086 0.79141 0.10412
 H50 H 0.72345 0.87348 0.17594
 H51 H 0.83426 0.81380 0.17520
 H52 H 0.80666 0.78408 0.20819
 N53 N 0.85868 1.25889 -0.15273
 N54 N 0.88723 1.25787 -0.17735
 C55 C 0.91396 1.28482 -0.17397
 C56 C 0.90141 1.30366 -0.14573
 C57 C 0.86617 1.28648 -0.13286
 H58 H 0.94095 1.29005 -0.19035
 H59 H 0.84794 1.29289 -0.11017
 Cu60 Cu 0.88790 1.22072 -0.21048
 Cu61 Cu 0.81578 1.22311 -0.14664
 Cu62 Cu 0.80871 1.16198 -0.21109
 N63 N 0.87932 1.18994 -0.24959
 N64 N 0.84835 1.16725 -0.25003
 C65 C 0.85075 1.14899 -0.27972
 C66 C 0.88525 1.16093 -0.29874
 C67 C 0.90249 1.18692 -0.27889
 H68 H 0.82952 1.12817 -0.28636
 H69 H 0.93022 1.20215 -0.28512
 N70 N 0.77176 1.16136 -0.16936
 N71 N 0.77459 1.18486 -0.14493
 C72 C 0.74690 1.17694 -0.11907
 C73 C 0.72561 1.14710 -0.12751
 C74 C 0.74201 1.13781 -0.15963
 H75 H 0.74309 1.19127 -0.09524
 H76 H 0.73377 1.11519 -0.17427
 H77 H 0.84414 1.18356 -0.17159
 H78 H 0.81430 1.21343 -0.20073
 N79 N 0.13990 0.75543 -0.15581
 N80 N 0.10702 0.75708 -0.17602
 C81 C 0.08281 0.72875 -0.16990
 C82 C 0.10134 0.70830 -0.14447
 C83 C 0.13761 0.72594 -0.13601
 H84 H 0.05357 0.72352 -0.18268
 H85 H 0.16034 0.71823 -0.11670
 Cu86 Cu 0.09765 0.79618 -0.20784
 Cu87 Cu 0.18240 0.79215 -0.15628
 Cu88 Cu 0.17359 0.85597 -0.22173
 N89 N 0.09656 0.82893 -0.24788
 N90 N 0.12672 0.85185 -0.25358
 C91 C 0.11799 0.87155 -0.28246
 C92 C 0.08009 0.86041 -0.29547
 C93 C 0.06743 0.83329 -0.27290
 H94 H 0.13742 0.89282 -0.29251
 H95 H 0.03896 0.81812 -0.27440
 N96 N 0.21860 0.85582 -0.18684
 N97 N 0.22194 0.83173 -0.16159
 C98 C 0.25447 0.83996 -0.14090
 C99 C 0.27222 0.87073 -0.15388
 C100 C 0.24879 0.87995 -0.18292
 H101 H 0.26380 0.82516 -0.11765
 H102 H 0.25287 0.90315 -0.19931
 H103 H 0.14807 0.83169 -0.17631
 H104 H 0.17199 0.80363 -0.20935
 C105 C 0.50287 0.98634 -0.00231
 C106 C 0.00891 0.49843 1.01630
 C107 C 0.97361 0.01227 0.49642
 C108 C 0.15158 0.32509 1.10695
 C109 C 0.12215 0.34740 1.11824
 C110 C 0.10948 0.37704 1.09625
 N111 N 0.08021 0.39739 1.10857
 N112 N 0.06687 0.42339 1.08846
 C113 C 0.08231 0.43006 1.05524
 N114 N 0.11185 0.40989 1.04300
 N115 N 0.12522 0.38386 1.06314
 C116 C 0.06585 0.45726 1.03187
 C117 C 0.03320 0.47675 1.04238
 H118 H 0.10680 0.34275 1.14360
 H119 H 0.07782 0.46046 1.00502
 H120 H 0.16745 0.33066 1.08193
 H121 H 0.02088 0.47235 1.06905
 C122 C -0.08358 0.66701 1.14737
 C123 C -0.09899 0.64511 1.12159
 C124 C -0.07462 0.61774 1.10737
 N125 N -0.09119 0.59676 1.08264
 N126 N -0.06902 0.57265 1.06857
 C127 C -0.02941 0.56867 1.07869
 N128 N -0.01288 0.58956 1.10351
 N129 N -0.03507 0.61363 1.11762
 C130 C -0.00391 0.54319 1.06238
 C131 C -0.01914 0.52087 1.03679
 H132 H -0.12942 0.64849 1.11079
 H133 H 0.02823 0.54273 1.06975
 H134 H -0.05354 0.66298 1.15877
 H135 H -0.05105 0.52224 1.02883
 C136 C -0.07680 0.33399 0.86857
 C137 C -0.09211 0.35147 0.89715
 C138 C -0.06894 0.37985 0.91369
 N139 N -0.08543 0.39556 0.94168
 N140 N -0.06444 0.42057 0.95779
 C141 C -0.02610 0.43080 0.94653
 N142 N -0.00964 0.41519 0.91843
 N143 N -0.03066 0.39017 0.90229
 C144 C -0.00203 0.45764 0.96475
 C145 C -0.01723 0.47396 0.99427
 H146 H -0.12172 0.34374 0.90851
 H147 H 0.02876 0.46415 0.95519
 H148 H -0.04754 0.34220 0.85675
 H149 H -0.04750 0.46601 1.00427
 C150 C 0.08376 0.67568 0.87069
 C151 C 0.10290 0.65638 0.89732
 C152 C 0.08241 0.62545 0.91385
 N153 N 0.10108 0.60759 0.94048
 N154 N 0.08196 0.58038 0.95649
 C155 C 0.04347 0.57007 0.94638
 N156 N 0.02498 0.58779 0.91963
 N157 N 0.04407 0.61492 0.90364
 C158 C 0.02059 0.54152 0.96487
 C159 C 0.03666 0.52226 0.99321
 H160 H 0.13287 0.66457 0.90707
 H161 H -0.01112 0.53664 0.95718
 H162 H 0.05391 0.66711 0.86095
 H163 H 0.06793 0.52781 1.00179
 C164 C 1.08787 0.14377 0.31860
 C165 C 1.09496 0.11390 0.33877
 C166 C 1.06786 0.10096 0.36794
 N167 N 1.07949 0.07404 0.38877
 N168 N 1.05502 0.06102 0.41464
 C169 C 1.01784 0.07430 0.42060
 N170 N 1.00612 0.10126 0.39974
 N171 N 1.03073 0.11443 0.37390
 C172 C 0.99007 0.05899 0.44830
 C173 C 1.00281 0.03301 0.47175
 H174 H 1.12156 0.09915 0.33339
 H175 H 0.95887 0.06747 0.44968
 H176 H 1.06241 0.15930 0.32554
 H177 H 1.03393 0.02450 0.46922
 C178 C 1.05790 -0.12615 0.67585
 C179 C 1.07310 -0.09876 0.65417
 C180 C 1.04889 -0.08305 0.62538
 N181 N 1.06648 -0.05765 0.60431
 N182 N 1.04496 -0.04237 0.57865
 C183 C 1.00495 -0.05184 0.57312
 N184 N 0.98729 -0.07730 0.59417
 N185 N 1.00888 -0.09267 0.61984
 C186 C 0.98072 -0.03441 0.54536
 C187 C 0.99845 -0.00887 0.52265
 H188 H 1.10378 -0.08797 0.65831
 H189 H 0.94830 -0.04129 0.54305
 H190 H 1.02764 -0.13741 0.67060
 H191 H 1.03065 -0.00165 0.52621
 C192 C 0.89712 -0.13414 0.32812
 C193 C 0.87947 -0.10721 0.34534
 C194 C 0.90050 -0.09000 0.37494
 N195 N 0.88244 -0.06412 0.39147
 N196 N 0.90189 -0.04762 0.41745
 C197 C 0.94015 -0.05641 0.42779
 N198 N 0.95810 -0.08235 0.41136
 N199 N 0.93865 -0.09885 0.38546
 C200 C 0.96311 -0.03755 0.45511
 C201 C 0.94677 -0.01066 0.47339
 H202 H 0.85016 -0.09788 0.33662
 H203 H 0.99468 -0.04408 0.45999
 H204 H 0.92606 -0.14350 0.33785
 H205 H 0.91560 -0.00350 0.46762
 C206 C 0.90154 0.14906 0.66981
 C207 C 0.88327 0.12232 0.65088
 C208 C 0.90366 0.10805 0.62001
 N209 N 0.88460 0.08250 0.60184
 N210 N 0.90355 0.06824 0.57494
 C211 C 0.94230 0.07900 0.56527
 N212 N 0.96124 0.10467 0.58330
 N213 N 0.94227 0.11897 0.61012
 C214 C 0.96488 0.06198 0.53741
 C215 C 0.94738 0.03528 0.51794
 H216 H 0.85393 0.11076 0.65928
 H217 H 0.99713 0.06915 0.53369
 H218 H 0.93026 0.16100 0.66023
 H219 H 0.91540 0.02762 0.52257
 C220 C 0.31977 1.09408 0.12818
 C221 C 0.34381 1.10143 0.09797
 C222 C 0.37157 1.07634 0.08380
 N223 N 0.39601 1.08516 0.05541
 N224 N 0.42099 1.06259 0.04210
 C225 C 0.42239 1.03031 0.05666
 N226 N 0.39792 1.02147 0.08501
 N227 N 0.37300 1.04406 0.09836
 C228 C 0.44948 1.00494 0.04211
 C229 C 0.47671 1.01305 0.01408
 H230 H 0.34236 1.12617 0.08422
 H231 H 0.44799 0.97910 0.05366
 H232 H 0.32204 1.06954 0.14226
 H233 H 0.47716 1.03872 0.00207
 C234 C 0.69432 1.12902 -0.10482
 C235 C 0.67313 1.09897 -0.11432
 C236 C 0.64340 1.08109 -0.08983
 N237 N 0.62066 1.05339 -0.10054
 N238 N 0.59383 1.03707 -0.07838
 C239 C 0.58894 1.04781 -0.04465
 N240 N 0.61178 1.07538 -0.03395
 N241 N 0.63845 1.09172 -0.05610
 C242 C 0.55962 1.03041 -0.01962
 C243 C 0.53257 1.00362 -0.02919
 H244 H 0.67831 1.08830 -0.14009
 H245 H 0.55872 1.03938 0.00734
 H246 H 0.68808 1.13991 -0.07932
 H247 H 0.53400 0.99411 -0.05592
 C248 C 0.30666 0.89153 -0.13949
 C249 C 0.32880 0.88163 -0.10938
 C250 C 0.36114 0.90432 -0.09436
 N251 N 0.38278 0.89369 -0.06545
 N252 N 0.41146 0.91435 -0.05121
 C253 C 0.41949 0.94644 -0.06535
 N254 N 0.39790 0.95703 -0.09427
 N255 N 0.36930 0.93637 -0.10852
 C256 C 0.45025 0.97001 -0.04959
 C257 C 0.47424 0.96062 -0.02034
 H258 H 0.32195 0.85702 -0.09610
 H259 H 0.45369 0.99587 -0.06093
 H260 H 0.31419 0.91599 -0.15291
 H261 H 0.46982 0.93504 -0.00844
 C262 C 0.68189 0.85109 0.10958
 C263 C 0.66142 0.88067 0.11711
 C264 C 0.63202 0.89569 0.09184
 N265 N 0.61126 0.92366 0.10062
 N266 N 0.58533 0.93792 0.07758
 C267 C 0.57932 0.92476 0.04487
 N268 N 0.60006 0.89680 0.03613
 N269 N 0.62587 0.88251 0.05918
 C270 C 0.55174 0.94057 0.01864
 C271 C 0.52799 0.96840 0.02625
 H272 H 0.66742 0.89350 0.14178
 H273 H 0.55046 0.93032 -0.00779
 H274 H 0.67494 0.83795 0.08524
 H275 H 0.53016 0.97916 0.05245
   
