data_POSCAR
  _audit_creation_date              2014-09-24
  _audit_creation_method            'ToBaCCo'
  _symmetry_space_group_name_H-M    'P1'
  _symmetry_Int_Tables_number       1
  _symmetry_cell_setting            triclinic
  loop_
  _symmetry_equiv_pos_as_xyz
 x,y,z
_cell_length_a 41.1384
_cell_length_b 41.1378
_cell_length_c 41.1422
_cell_angle_alpha 90.102400
_cell_angle_beta 89.934100
_cell_angle_gamma 90.067600
loop_
  _atom_site_label
  _atom_site_type_symbol
  _atom_site_fract_x
  _atom_site_fract_y
  _atom_site_fract_z
N1 N 0.20560 1.20604 0.20622
 N2 N 0.79563 0.79252 0.20482
 N3 N 0.79481 1.20339 -0.20111
 N4 N 0.20534 0.79641 -0.20844
 C5 C 0.54958 1.04332 -0.00616
 H6 H 0.55008 1.04246 0.02012
 C7 C 0.57197 1.06256 -0.02289
 H8 H 0.58954 1.07656 -0.00917
 C9 C 0.52647 1.02522 -0.05573
 H10 H 0.50916 1.01012 -0.06845
 C11 C 0.54846 1.04410 -0.07346
 H12 H 0.54751 1.04351 -0.09975
 N13 N 0.52735 1.02526 -0.02268
 C14 C 0.45038 1.00672 0.04782
 H15 H 0.44973 0.98044 0.04703
 C16 C 0.42816 1.02364 0.06712
 H17 H 0.41059 1.01006 0.08125
 C18 C 0.47361 1.05611 0.02945
 H19 H 0.49089 1.06870 0.01419
 C20 C 0.45181 1.07403 0.04838
 H21 H 0.45289 1.10031 0.04768
 Zn22 Zn 0.49978 0.99807 0.00215
 N23 N 0.47256 1.02307 0.02957
 C24 C 0.52633 0.97071 0.05989
 N25 N 0.52705 0.97059 0.02683
 C26 C 0.54900 0.95231 0.01020
 C27 C 0.57130 0.93297 0.02681
 C28 C 0.54825 0.95174 0.07751
 C29 C 0.45020 0.99013 -0.04329
 C30 C 0.42782 0.97357 -0.06270
 C31 C 0.45080 0.92281 -0.04432
 C32 C 0.47279 0.94038 -0.02527
 N33 N 0.47217 0.97344 -0.02520
 H34 H 0.50923 0.98599 0.07269
 H35 H 0.54939 0.95311 -0.01608
 H36 H 0.58868 0.91882 0.01300
 H37 H 0.54745 0.95244 0.10380
 H38 H 0.44989 1.01641 -0.04233
 H39 H 0.41046 0.98744 -0.07674
 H40 H 0.45156 0.89651 -0.04383
 H41 H 0.48991 0.92752 -0.01014
 C42 C 0.42853 1.05779 0.06742
 C43 C 0.57175 1.06299 -0.05703
 C44 C 0.42779 0.93942 -0.06327
 C45 C 0.57129 0.93267 0.06096
 C46 C -0.00581 0.54947 1.04275
 H47 H 0.02048 0.55009 1.04208
 C48 C -0.02278 0.57173 1.06195
 H49 H -0.00924 0.58932 1.07612
 C50 C -0.05515 0.52619 1.02424
 H51 H -0.06768 0.50885 1.00900
 C52 C -0.07312 0.54804 1.04307
 H53 H -0.09940 0.54695 1.04230
 N54 N -0.02210 0.52721 1.02452
 C55 C 0.04867 0.45048 1.00642
 H56 H 0.04815 0.44986 0.98014
 C57 C 0.06780 0.42831 1.02345
 H58 H 0.08208 0.41079 1.00995
 C59 C 0.02976 0.47362 1.05571
 H60 H 0.01436 0.49084 1.06820
 C61 C 0.04851 0.45185 1.07373
 H62 H 0.04754 0.45290 1.10001
 Zn63 Zn 0.00306 0.49975 0.99749
 N64 N 0.03023 0.47260 1.02266
 C65 C 0.06109 0.52649 0.97067
 N66 N 0.02803 0.52711 0.97025
 C67 C 0.01161 0.54901 0.95183
 C68 C 0.02845 0.57137 0.93266
 C69 C 0.07893 0.54845 0.95188
 C70 C -0.04221 0.45001 0.98915
 C71 C -0.06138 0.42753 0.97245
 C72 C -0.04249 0.45055 0.92184
 C73 C -0.02369 0.47266 0.93956
 N74 N -0.02398 0.47205 0.97261
 H75 H 0.07372 0.50943 0.98606
 H76 H -0.01469 0.54932 0.95239
 H77 H 0.01480 0.58871 0.91839
 H78 H 0.10521 0.54773 0.95282
 H79 H -0.04154 0.44972 1.01544
 H80 H -0.07552 0.41011 0.98620
 H81 H -0.04170 0.45129 0.89555
 H82 H -0.00846 0.48984 0.92683
 C83 C 0.06774 0.42865 1.05760
 C84 C -0.05693 0.57133 1.06216
 C85 C -0.06155 0.42746 0.93830
 C86 C 0.06260 0.57145 0.93268
 C87 C 1.04218 -0.00662 0.54938
 H88 H 1.04159 0.01967 0.55018
 C89 C 1.06135 -0.02374 0.57145
 H90 H 1.07557 -0.01031 0.58907
 C91 C 1.02348 -0.05580 0.52586
 H92 H 1.00817 -0.06822 0.50851
 C93 C 1.04228 -0.07392 0.54752
 H94 H 1.04141 -0.10019 0.54627
 N95 N 1.02386 -0.02276 0.52710
 C96 C 1.00571 0.04853 0.45100
 H97 H 0.97942 0.04803 0.45053
 C98 C 1.02273 0.06780 0.42887
 H99 H 1.00922 0.08220 0.41153
 C100 C 1.05501 0.02943 0.47371
 H101 H 1.06751 0.01392 0.49074
 C102 C 1.07302 0.04832 0.45197
 H103 H 1.09930 0.04731 0.45285
 Zn104 Zn 0.99681 0.00257 0.49997
 N105 N 1.02196 0.02994 0.47289
 C106 C 0.97012 0.06039 0.52731
 N107 N 0.96968 0.02733 0.52768
 C108 C 0.95133 0.01071 0.54956
 C109 C 0.93224 0.02734 0.57216
 C110 C 0.95141 0.07803 0.54954
 C111 C 0.98822 -0.04240 0.44997
 C112 C 0.97139 -0.06150 0.42753
 C113 C 0.92090 -0.04280 0.45104
 C114 C 0.93874 -0.02407 0.47309
 N115 N 0.97179 -0.02431 0.47224
 H116 H 0.98545 0.07318 0.51026
 H117 H 0.95188 -0.01559 0.54966
 H118 H 0.91803 0.01353 0.58948
 H119 H 0.95235 0.10433 0.54902
 H120 H 1.01450 -0.04170 0.44949
 H121 H 0.98504 -0.07556 0.40994
 H122 H 0.89461 -0.04207 0.45199
 H123 H 0.92610 -0.00893 0.49045
 C124 C 1.05689 0.06770 0.42899
 C125 C 1.06143 -0.05789 0.57084
 C126 C 0.93723 -0.06175 0.42774
 C127 C 0.93227 0.06149 0.57252
 N128 N 0.16058 0.28127 1.19125
 C129 C 0.16503 0.28535 1.15886
 N130 N 0.18328 0.26352 1.14223
 N131 N 0.19660 0.23832 1.15749
 C132 C 0.19213 0.23399 1.18994
 N133 N 0.17392 0.25606 1.20653
 C134 C 0.14959 0.31169 1.14210
 C135 C 0.13620 0.33331 1.12761
 C136 C 0.11979 0.35843 1.10992
 N137 N 0.12102 0.35900 1.07702
 N138 N 0.10480 0.38153 1.06045
 C139 C 0.08671 0.40432 1.07615
 N140 N 0.08570 0.40369 1.10918
 N141 N 0.10192 0.38114 1.12577
 N142 N -0.19008 0.71797 1.15819
 C143 C -0.15762 0.71381 1.16201
 N144 N -0.14072 0.73537 1.18035
 N145 N -0.15579 0.76039 1.19436
 C146 C -0.18830 0.76478 1.19053
 N147 N -0.20516 0.74299 1.17222
 C148 C -0.14107 0.68766 1.14590
 C149 C -0.12671 0.66620 1.13203
 C150 C -0.10908 0.64127 1.11513
 N151 N -0.07616 0.64081 1.11599
 N152 N -0.05965 0.61838 1.09944
 C153 C -0.07542 0.59562 1.08138
 N154 N -0.10847 0.59615 1.08072
 N155 N -0.12500 0.61858 1.09727
 N156 N -0.14449 0.26374 0.81891
 C157 C -0.16098 0.28303 0.83989
 N158 N -0.19242 0.27606 0.84673
 N159 N -0.20687 0.25045 0.83310
 C160 C -0.19053 0.23063 0.81213
 N161 N -0.15898 0.23815 0.80530
 C162 C -0.14489 0.30958 0.85584
 C163 C -0.13106 0.33136 0.86981
 C164 C -0.11426 0.35662 0.88707
 N165 N -0.09638 0.37905 0.87085
 N166 N -0.07992 0.40178 0.88708
 C167 C -0.08070 0.40287 0.92011
 N168 N -0.09878 0.38037 0.93618
 N169 N -0.11525 0.35765 0.91997
 N170 N 0.15867 0.72142 0.80294
 C171 C 0.16230 0.71613 0.83524
 N172 N 0.18056 0.73705 0.85300
 N173 N 0.19469 0.76256 0.83891
 C174 C 0.19105 0.76809 0.80656
 N175 N 0.17282 0.74693 0.78884
 C176 C 0.14591 0.68953 0.85075
 C177 C 0.13170 0.66770 0.86417
 C178 C 0.11427 0.64234 0.88060
 N179 N 0.13033 0.61987 0.89848
 N180 N 0.11396 0.59710 0.91471
 C181 C 0.08094 0.59601 0.91369
 N182 N 0.06502 0.61854 0.89559
 N183 N 0.08137 0.64130 0.87936
 N184 N 1.19054 0.16105 0.28148
 C185 C 1.15815 0.16545 0.28562
 N186 N 1.14154 0.18365 0.26383
 N187 N 1.15684 0.19698 0.23860
 C188 C 1.18929 0.19257 0.23421
 N189 N 1.20585 0.17440 0.25624
 C190 C 1.14135 0.14997 0.31198
 C191 C 1.12686 0.13654 0.33362
 C192 C 1.10918 0.12005 0.35877
 N193 N 1.07628 0.12132 0.35954
 N194 N 1.05972 0.10501 0.38209
 C195 C 1.07543 0.08679 0.40468
 N196 N 1.10846 0.08574 0.40385
 N197 N 1.12503 0.10205 0.38129
 N198 N 1.19284 -0.15593 0.71755
 C199 C 1.16045 -0.15954 0.71269
 N200 N 1.14300 -0.17813 0.73355
 N201 N 1.15748 -0.19260 0.75859
 C202 C 1.18992 -0.18896 0.76371
 N203 N 1.20732 -0.17040 0.74260
 C204 C 1.14454 -0.14280 0.68661
 C205 C 1.13082 -0.12828 0.66522
 C206 C 1.11408 -0.11049 0.64039
 N207 N 1.09619 -0.12626 0.61765
 N208 N 1.07975 -0.10958 0.59533
 C209 C 1.08056 -0.07654 0.59497
 N210 N 1.09867 -0.06092 0.61779
 N211 N 1.11511 -0.07758 0.64010
 N212 N 0.81937 -0.14454 0.26318
 C213 C 0.83780 -0.16164 0.28440
 N214 N 0.84183 -0.19400 0.27965
 N215 N 0.82794 -0.20879 0.25439
 C216 C 0.80956 -0.19174 0.23292
 N217 N 0.80548 -0.15932 0.23792
 C218 C 0.85400 -0.14540 0.31068
 C219 C 0.86815 -0.13147 0.33226
 C220 C 0.88558 -0.11456 0.35731
 N221 N 0.91850 -0.11538 0.35798
 N222 N 0.93485 -0.09887 0.38055
 C223 C 0.91891 -0.08090 0.40327
 N224 N 0.88587 -0.08027 0.40253
 N225 N 0.86949 -0.09679 0.37995
 N226 N 0.84191 0.19100 0.72568
 C227 C 0.83515 0.15953 0.71871
 N228 N 0.81454 0.14289 0.73824
 N229 N 0.80119 0.15725 0.76403
 C230 C 0.80790 0.18884 0.77152
 N231 N 0.82853 0.20534 0.75149
 C232 C 0.85064 0.14356 0.69182
 C233 C 0.86402 0.12963 0.66975
 C234 C 0.88039 0.11247 0.64414
 N235 N 0.87911 0.07958 0.64279
 N236 N 0.89527 0.06345 0.61980
 C237 C 0.91335 0.07960 0.59734
 N238 N 0.91441 0.11261 0.59875
 N239 N 0.89825 0.12876 0.62175
 N240 N 0.26320 1.14206 0.18372
 C241 C 0.28504 1.15869 0.16551
 N242 N 0.28094 1.19108 0.16115
 N243 N 0.25569 1.20635 0.17453
 C244 C 0.23360 1.18977 0.19271
 N245 N 0.23795 1.15732 0.19710
 C246 C 0.31140 1.14193 0.14998
 C247 C 0.33305 1.12748 0.13650
 C248 C 0.35821 1.10985 0.11994
 N249 N 0.38101 1.12580 0.10227
 N250 N 0.40360 1.10929 0.08591
 C251 C 0.40417 1.07624 0.08657
 N252 N 0.38130 1.06044 0.10445
 N253 N 0.35873 1.07694 0.12082
 N254 N 0.72228 1.15548 -0.18788
 C255 C 0.71572 1.16204 -0.15629
 N256 N 0.73528 1.18280 -0.13984
 N257 N 0.76071 1.19648 -0.15452
 C258 C 0.76778 1.18997 -0.18624
 N259 N 0.74772 1.16919 -0.20253
 C260 C 0.68925 1.14619 -0.14001
 C261 C 0.66753 1.13249 -0.12586
 C262 C 0.64233 1.11576 -0.10847
 N263 N 0.64163 1.11649 -0.07555
 N264 N 0.61899 1.10002 -0.05927
 C265 C 0.59623 1.08218 -0.07528
 N266 N 0.59699 1.08165 -0.10832
 N267 N 0.61964 1.09812 -0.12463
 N268 N 0.26328 0.85894 -0.18275
 C269 C 0.28443 0.84149 -0.16458
 N270 N 0.27974 0.80905 -0.16125
 N271 N 0.25458 0.79450 -0.17561
 C272 C 0.23320 0.81190 -0.19376
 N273 N 0.23813 0.84441 -0.19709
 C274 C 0.31074 0.85747 -0.14815
 C275 C 0.33233 0.87140 -0.13404
 C276 C 0.35741 0.88857 -0.11689
 N277 N 0.35834 0.92149 -0.11742
 N278 N 0.38090 0.93759 -0.10066
 C279 C 0.40335 0.92138 -0.08271
 N280 N 0.40236 0.88834 -0.08238
 N281 N 0.37978 0.87222 -0.09915
 N282 N 0.73713 0.81591 0.14212
 C283 C 0.71569 0.83405 0.15935
 N284 N 0.72037 0.83810 0.19172
 N285 N 0.74579 0.82446 0.20639
 C286 C 0.76747 0.80635 0.18920
 N287 N 0.76255 0.80229 0.15677
 C288 C 0.68913 0.84979 0.14322
 C289 C 0.66733 0.86339 0.12921
 C290 C 0.64202 0.88003 0.11199
 N291 N 0.61954 0.89780 0.12827
 N292 N 0.59682 0.91421 0.11210
 C293 C 0.59579 0.91349 0.07907
 N294 N 0.61835 0.89550 0.06293
 N295 N 0.64105 0.87909 0.07908
   
