data_POSCAR
  _audit_creation_date              2014-09-24
  _audit_creation_method            'ToBaCCo'
  _symmetry_space_group_name_H-M    'P1'
  _symmetry_Int_Tables_number       1
  _symmetry_cell_setting            triclinic
  loop_
  _symmetry_equiv_pos_as_xyz
 x,y,z
_cell_length_a 38.2640
_cell_length_b 38.5503
_cell_length_c 21.9049
_cell_angle_alpha 89.956900
_cell_angle_beta 89.988900
_cell_angle_gamma 120.090200
loop_
  _atom_site_label
  _atom_site_type_symbol
  _atom_site_fract_x
  _atom_site_fract_y
  _atom_site_fract_z
O1 O 0.45166 0.96200 0.55790
 O2 O 0.49215 1.04020 0.43900
 O3 O 0.45200 0.96222 0.43874
 O4 O 0.49147 1.04024 0.55740
 O5 O 0.54879 1.03954 0.55845
 O6 O 0.50911 0.96118 0.44005
 O7 O 0.54923 1.03923 0.43902
 O8 O 0.50924 0.96187 0.55888
 Cu9 Cu 0.46604 1.00116 0.49822
 Cu10 Cu 0.53486 1.00044 0.49909
 C11 C 0.47365 0.94872 0.57901
 C12 C 0.52761 1.05308 0.41835
 C13 C 0.47379 0.94837 0.41897
 C14 C 0.52683 1.05318 0.57830
 O15 O 0.03848 0.48995 0.56249
 O16 O -0.03985 0.45109 0.44298
 O17 O 0.03886 0.48916 0.44297
 O18 O -0.03966 0.45148 0.56187
 O19 O -0.03914 0.50888 0.56074
 O20 O 0.03974 0.54681 0.44199
 O21 O -0.03872 0.50884 0.44163
 O22 O 0.03981 0.54775 0.56031
 Cu23 Cu -0.00058 0.46468 0.50258
 Cu24 Cu 0.00044 0.53380 0.50115
 C25 C 0.05259 0.52557 0.58203
 C26 C -0.05264 0.47338 0.42176
 C27 C 0.05273 0.52441 0.42205
 C28 C -0.05287 0.47367 0.58195
 O29 O 0.45253 0.49318 0.44043
 O30 O 0.48858 0.45218 0.56118
 O31 O 0.45122 0.49302 0.55858
 O32 O 0.48884 0.45140 0.44170
 O33 O 0.54747 0.50775 0.44111
 O34 O 0.51064 0.54829 0.56142
 O35 O 0.54805 0.50762 0.55934
 O36 O 0.51112 0.54956 0.44175
 Cu37 Cu 0.46443 0.46678 0.50046
 Cu38 Cu 0.53517 0.53399 0.50092
 C39 C 0.47563 0.52847 0.42059
 C40 C 0.52460 0.47287 0.58065
 C41 C 0.47448 0.52765 0.58053
 C42 C 0.52448 0.47252 0.42104
 O43 O 0.39579 0.66016 -0.05386
 O44 O 0.39178 0.72463 -0.07212
 C45 C 0.37223 0.74250 -0.08274
 O46 O 0.34184 0.73665 -0.05112
 O47 O 0.27579 0.66804 -0.06942
 C48 C 0.25840 0.63092 -0.08156
 O49 O 0.26505 0.60627 -0.05227
 O50 O 0.33362 0.60916 -0.07077
 C51 C 0.37095 0.62897 -0.08313
 O52 O 0.39453 0.67099 0.06801
 O53 O 0.39438 0.73784 0.04931
 C54 C 0.36905 0.74232 0.08095
 O55 O 0.33143 0.72297 0.07047
 O56 O 0.26376 0.65651 0.05150
 C57 C 0.25891 0.62623 0.08164
 O58 O 0.27809 0.60817 0.06970
 O59 O 0.34532 0.60831 0.05026
 C60 C 0.37610 0.63379 0.08001
 Cr61 Cr 0.39190 0.69725 -0.00208
 Cr62 Cr 0.30442 0.69501 0.00029
 Cr63 Cr 0.30654 0.61020 -0.00075
 O64 O 0.33426 0.66741 -0.00106
 O65 O 0.60425 0.34066 -0.05030
 O66 O 0.60680 0.27533 -0.06985
 C67 C 0.62638 0.25770 -0.08194
 O68 O 0.65735 0.26366 -0.05189
 O69 O 0.72253 0.33199 -0.07133
 C70 C 0.74100 0.36934 -0.08177
 O71 O 0.73567 0.39386 -0.04979
 O72 O 0.66673 0.39086 -0.06906
 C73 C 0.62920 0.37146 -0.08053
 O74 O 0.60639 0.32913 0.07141
 O75 O 0.60583 0.26215 0.05113
 C76 C 0.63147 0.25730 0.08133
 O77 O 0.66899 0.27647 0.06973
 O78 O 0.73653 0.34322 0.04999
 C79 C 0.74099 0.37272 0.08195
 O80 O 0.72153 0.39073 0.07159
 O81 O 0.65484 0.39172 0.05176
 C82 C 0.62460 0.36638 0.08262
 Cr83 Cr 0.60799 0.30297 0.00062
 Cr84 Cr 0.69523 0.30486 -0.00080
 Cr85 Cr 0.69366 0.38962 0.00108
 O86 O 0.66557 0.33244 0.00016
 C87 C 0.42849 0.85946 -0.27866
 C88 C 0.40249 0.86975 -0.30882
 C89 C 0.41708 0.89874 -0.35501
 C90 C 0.45794 0.91789 -0.37233
 C91 C 0.48388 0.90753 -0.34235
 C92 C 0.46938 0.87880 -0.29594
 C93 C 0.41323 0.82885 -0.22921
 C94 C 0.42793 0.80211 -0.22318
 C95 C 0.41455 0.77411 -0.17577
 C96 C 0.38589 0.77190 -0.13345
 C97 C 0.37069 0.79818 -0.13993
 C98 C 0.38431 0.82643 -0.18713
 H99 H 0.39630 0.90594 -0.37744
 H100 H 0.51559 0.92195 -0.35427
 H101 H 0.42658 0.75402 -0.17249
 H102 H 0.34868 0.79735 -0.10797
 H103 H 0.49042 0.87219 -0.27296
 H104 H 0.44960 0.80259 -0.25545
 H105 H 0.37072 0.85504 -0.29727
 H106 H 0.37276 0.84691 -0.18992
 C107 C 0.14091 0.57027 -0.27763
 C108 C 0.13071 0.59584 -0.30898
 C109 C 0.10142 0.58106 -0.35485
 C110 C 0.08220 0.54043 -0.37200
 C111 C 0.09305 0.51500 -0.34166
 C112 C 0.12157 0.52960 -0.29463
 C113 C 0.17128 0.58589 -0.22724
 C114 C 0.19589 0.56907 -0.21546
 C115 C 0.22382 0.58336 -0.16762
 C116 C 0.22857 0.61546 -0.13150
 C117 C 0.20457 0.63272 -0.14343
 C118 C 0.17588 0.61777 -0.19015
 H119 H 0.09434 0.60179 -0.37743
 H120 H 0.07882 0.48347 -0.35311
 H121 H 0.24233 0.56984 -0.15963
 H122 H 0.20740 0.65726 -0.11570
 H123 H 0.12782 0.50866 -0.27095
 H124 H 0.19407 0.54518 -0.24362
 H125 H 0.14557 0.62752 -0.29862
 H126 H 0.15696 0.63094 -0.19644
 C127 C 0.43099 0.57232 -0.27954
 C128 C 0.47209 0.59296 -0.29608
 C129 C 0.48636 0.57875 -0.34303
 C130 C 0.46009 0.54289 -0.37374
 C131 C 0.41900 0.52228 -0.35719
 C132 C 0.40461 0.53706 -0.31141
 C133 C 0.41568 0.58710 -0.22898
 C134 C 0.38312 0.55992 -0.19231
 C135 C 0.36831 0.57362 -0.14554
 C136 C 0.38636 0.61474 -0.13315
 C137 C 0.41920 0.64201 -0.16881
 C138 C 0.43340 0.62840 -0.21669
 H139 H 0.51824 0.59544 -0.35410
 H140 H 0.39761 0.49484 -0.38010
 H141 H 0.34322 0.55197 -0.11817
 H142 H 0.43337 0.67394 -0.16044
 H143 H 0.37260 0.52083 -0.30147
 H144 H 0.36927 0.52790 -0.19897
 H145 H 0.49358 0.61978 -0.27205
 H146 H 0.45790 0.65039 -0.24448
 C147 C 0.57081 0.14215 -0.27942
 C148 C 0.53983 0.13774 -0.31894
 C149 C 0.52553 0.10882 -0.36505
 C150 C 0.54238 0.08414 -0.37353
 C151 C 0.57377 0.08889 -0.33496
 C152 C 0.58758 0.11730 -0.28811
 C153 C 0.58523 0.17218 -0.22907
 C154 C 0.62595 0.19197 -0.21063
 C155 C 0.63923 0.21951 -0.16259
 C156 C 0.61229 0.22848 -0.13258
 C157 C 0.57177 0.20923 -0.15133
 C158 C 0.55831 0.18114 -0.19860
 H159 H 0.50154 0.10604 -0.39452
 H160 H 0.58707 0.07000 -0.34015
 H161 H 0.67076 0.23427 -0.14951
 H162 H 0.55026 0.21533 -0.12866
 H163 H 0.61089 0.11918 -0.25799
 H164 H 0.64779 0.18659 -0.23371
 H165 H 0.52676 0.15685 -0.31470
 H166 H 0.52659 0.16598 -0.21048
 C167 C 0.85835 0.43004 -0.27833
 C168 C 0.87486 0.40690 -0.29953
 C169 C 0.90379 0.42113 -0.34593
 C170 C 0.91747 0.45920 -0.37206
 C171 C 0.90099 0.48243 -0.35070
 C172 C 0.87170 0.46793 -0.30466
 C173 C 0.82763 0.41472 -0.22867
 C174 C 0.82742 0.44079 -0.18394
 C175 C 0.79905 0.42617 -0.13663
 C176 C 0.77051 0.38508 -0.13255
 C177 C 0.77053 0.35904 -0.17737
 C178 C 0.79858 0.37371 -0.22502
 H179 H 0.91576 0.40231 -0.36066
 H180 H 0.91049 0.51179 -0.36971
 H181 H 0.79992 0.44698 -0.10263
 H182 H 0.74864 0.32728 -0.17592
 H183 H 0.85919 0.48631 -0.29016
 H184 H 0.84970 0.47242 -0.18472
 H185 H 0.86592 0.37793 -0.27957
 H186 H 0.79726 0.35288 -0.25931
 C187 C 0.56853 0.42749 -0.27711
 C188 C 0.59546 0.45748 -0.31740
 C189 C 0.58112 0.47212 -0.36351
 C190 C 0.53949 0.45663 -0.37128
 C191 C 0.51241 0.42610 -0.33210
 C192 C 0.52677 0.41193 -0.28520
 C193 C 0.58402 0.41296 -0.22661
 C194 C 0.56252 0.37270 -0.20735
 C195 C 0.57700 0.35930 -0.15959
 C196 C 0.61364 0.38565 -0.13065
 C197 C 0.63532 0.42575 -0.15002
 C198 C 0.62052 0.43933 -0.19701
 H199 H 0.60267 0.49538 -0.39351
 H200 H 0.48015 0.41383 -0.33680
 H201 H 0.55984 0.32812 -0.14595
 H202 H 0.66346 0.44684 -0.12814
 H203 H 0.50510 0.38934 -0.25455
 H204 H 0.53474 0.35131 -0.22969
 H205 H 0.62772 0.46954 -0.31370
 H206 H 0.63749 0.47070 -0.20946
 C207 C 0.85777 0.42940 0.27915
 C208 C 0.87727 0.46992 0.29670
 C209 C 0.90606 0.48407 0.34331
 C210 C 0.91626 0.45810 0.37324
 C211 C 0.89675 0.41758 0.35587
 C212 C 0.86775 0.40336 0.30950
 C213 C 0.82747 0.41450 0.22903
 C214 C 0.82553 0.38595 0.18717
 C215 C 0.79736 0.37226 0.13969
 C216 C 0.77063 0.38700 0.13262
 C217 C 0.77249 0.41550 0.17450
 C218 C 0.80048 0.42898 0.22223
 H219 H 0.92071 0.51552 0.35536
 H220 H 0.90377 0.39676 0.37828
 H221 H 0.79686 0.35042 0.10810
 H222 H 0.75211 0.42723 0.17068
 H223 H 0.85286 0.37185 0.29783
 H224 H 0.84626 0.37463 0.19045
 H225 H 0.87083 0.49095 0.27366
 H226 H 0.80068 0.45047 0.25422
 C227 C 0.57273 0.14079 0.27802
 C228 C 0.59568 0.12404 0.29945
 C229 C 0.58106 0.09547 0.34618
 C230 C 0.54282 0.08251 0.37235
 C231 C 0.51997 0.09947 0.35097
 C232 C 0.53484 0.12834 0.30474
 C233 C 0.58797 0.17076 0.22760
 C234 C 0.56124 0.17083 0.18359
 C235 C 0.57537 0.19901 0.13640
 C236 C 0.61665 0.22754 0.13154
 C237 C 0.64349 0.22737 0.17517
 C238 C 0.62929 0.19944 0.22283
 H239 H 0.59960 0.08314 0.36108
 H240 H 0.49055 0.09064 0.37007
 H241 H 0.55394 0.19812 0.10324
 H242 H 0.67544 0.24917 0.17296
 H243 H 0.51667 0.14117 0.29029
 H244 H 0.52938 0.14873 0.18504
 H245 H 0.62471 0.13244 0.27934
 H246 H 0.65064 0.20071 0.25642
 C247 C 0.56736 0.42561 0.27946
 C248 C 0.52650 0.40498 0.29703
 C249 C 0.51265 0.41998 0.34340
 C250 C 0.53929 0.45608 0.37299
 C251 C 0.58017 0.47658 0.35576
 C252 C 0.59407 0.46145 0.30973
 C253 C 0.58200 0.41022 0.22918
 C254 C 0.61110 0.43689 0.18762
 C255 C 0.62494 0.42263 0.14031
 C256 C 0.60981 0.38128 0.13303
 C257 C 0.58059 0.35453 0.17438
 C258 C 0.56693 0.36885 0.22202
 H259 H 0.48093 0.40357 0.35545
 H260 H 0.60152 0.50431 0.37800
 H261 H 0.64729 0.44407 0.10907
 H262 H 0.56850 0.32252 0.17028
 H263 H 0.62586 0.47772 0.29816
 H264 H 0.62282 0.46887 0.19106
 H265 H 0.50500 0.37762 0.27412
 H266 H 0.54493 0.34751 0.25372
 C267 C 0.14244 0.56800 0.27949
 C268 C 0.13284 0.59418 0.31020
 C269 C 0.10387 0.58005 0.35658
 C270 C 0.08402 0.53946 0.37376
 C271 C 0.09397 0.51336 0.34376
 C272 C 0.12275 0.52743 0.29702
 C273 C 0.17244 0.58289 0.22889
 C274 C 0.19928 0.56831 0.22112
 C275 C 0.22724 0.58221 0.17324
 C276 C 0.22919 0.61122 0.13225
 C277 C 0.20246 0.62588 0.14014
 C278 C 0.17434 0.61177 0.18768
 H279 H 0.09710 0.60099 0.37912
 H280 H 0.07906 0.48187 0.35575
 H281 H 0.24759 0.57049 0.16869
 H282 H 0.20296 0.64803 0.10917
 H283 H 0.12897 0.50633 0.27379
 H284 H 0.19906 0.54651 0.25254
 H285 H 0.14795 0.62574 0.29870
 H286 H 0.15366 0.62312 0.19159
 C287 C 0.42844 0.85888 0.27722
 C288 C 0.46465 0.86894 0.30773
 C289 C 0.47932 0.89790 0.35380
 C290 C 0.45800 0.91730 0.37075
 C291 C 0.42163 0.90702 0.34071
 C292 C 0.40710 0.87825 0.29436
 C293 C 0.41321 0.82864 0.22735
 C294 C 0.37159 0.80176 0.22051
 C295 C 0.35726 0.77379 0.17304
 C296 C 0.38422 0.77184 0.13147
 C297 C 0.42585 0.79848 0.13857
 C298 C 0.44015 0.82662 0.18579
 H299 H 0.50732 0.90498 0.37633
 H300 H 0.40460 0.92157 0.35246
 H301 H 0.32502 0.75350 0.16917
 H302 H 0.44744 0.79793 0.10720
 H303 H 0.37947 0.87172 0.27120
 H304 H 0.35005 0.80202 0.25228
 H305 H 0.48151 0.85414 0.29640
 H306 H 0.47232 0.84727 0.18909
 C307 C 0.43348 0.57526 0.27772
 C308 C 0.47429 0.59587 0.29554
 C309 C 0.48791 0.58095 0.34239
 C310 C 0.46109 0.54495 0.37219
 C311 C 0.42027 0.52452 0.35475
 C312 C 0.40660 0.53958 0.30828
 C313 C 0.41904 0.59052 0.22695
 C314 C 0.38994 0.56370 0.18561
 C315 C 0.37606 0.57779 0.13810
 C316 C 0.39117 0.61910 0.13035
 C317 C 0.42051 0.64601 0.17134
 C318 C 0.43419 0.63187 0.21921
 H319 H 0.51959 0.59730 0.35460
 H320 H 0.39878 0.49688 0.37716
 H321 H 0.35365 0.55623 0.10712
 H322 H 0.43258 0.67801 0.16687
 H323 H 0.37484 0.52335 0.29657
 H324 H 0.37819 0.53173 0.18946
 H325 H 0.49591 0.62313 0.27245
 H326 H 0.45622 0.65332 0.25070
   
