data_POSCAR
  _audit_creation_date              2014-09-24
  _audit_creation_method            'ToBaCCo'
  _symmetry_space_group_name_H-M    'P1'
  _symmetry_Int_Tables_number       1
  _symmetry_cell_setting            triclinic
  loop_
  _symmetry_equiv_pos_as_xyz
 x,y,z
_cell_length_a 23.0896
_cell_length_b 22.7287
_cell_length_c 22.5487
_cell_angle_alpha 89.967600
_cell_angle_beta 90.373100
_cell_angle_gamma 90.003000
loop_
  _atom_site_label
  _atom_site_type_symbol
  _atom_site_fract_x
  _atom_site_fract_y
  _atom_site_fract_z
N1 N 0.23533 0.23792 0.24314
 N2 N 0.77320 -0.22742 0.23223
 N3 N 0.73317 0.26633 0.74491
 N4 N 0.26904 -0.27650 0.73538
 N5 N 0.74642 -0.26463 0.73712
 N6 N 0.22997 0.22428 0.77782
 N7 N 0.24294 -0.23331 0.22935
 N8 N 0.74213 0.27214 0.26698
 O9 O 0.29062 0.05904 0.44994
 O10 O 0.30028 -0.06248 0.55685
 O11 O 0.29727 -0.05424 0.44125
 O12 O 0.29262 0.05141 0.56530
 O13 O 0.19726 0.04448 0.56636
 O14 O 0.20190 -0.06091 0.44337
 O15 O 0.20490 -0.06903 0.55851
 O16 O 0.19520 0.05252 0.45051
 Cu17 Cu 0.30480 -0.00093 0.50337
 Cu18 Cu 0.19022 -0.00875 0.50490
 C19 C 0.24138 0.07609 0.43139
 C20 C 0.25439 -0.08615 0.57642
 C21 C 0.25012 -0.07486 0.42059
 C22 C 0.24405 0.06537 0.58742
 O23 O 0.70104 0.05961 0.55775
 O24 O 0.71172 -0.05298 0.44110
 O25 O 0.70607 -0.05559 0.55622
 O26 O 0.70745 0.06119 0.44391
 O27 O 0.80276 0.06644 0.45093
 O28 O 0.80148 -0.05234 0.56243
 O29 O 0.80713 -0.04855 0.44663
 O30 O 0.79644 0.06209 0.56500
 Cu31 Cu 0.69699 0.00231 0.49931
 Cu32 Cu 0.81160 0.00691 0.50684
 C33 C 0.74699 0.08112 0.58020
 C34 C 0.76124 -0.06983 0.42381
 C35 C 0.75336 -0.07391 0.57858
 C36 C 0.75511 0.08486 0.42935
 O37 O 0.43868 0.29656 0.06620
 O38 O 0.54873 0.30336 -0.05099
 O39 O 0.43624 0.29525 -0.04788
 O40 O 0.55077 0.30588 0.06583
 O41 O 0.55928 0.20913 0.06614
 O42 O 0.44304 0.19836 -0.04550
 O43 O 0.55610 0.20656 -0.04950
 O44 O 0.44717 0.19976 0.06852
 Cu45 Cu 0.49349 0.31010 0.00801
 Cu46 Cu 0.50262 0.19377 0.00988
 C47 C 0.42379 0.24687 0.08695
 C48 C 0.57050 0.25606 -0.07092
 C49 C 0.41873 0.24490 -0.06457
 C50 C 0.57378 0.25924 0.08618
 O51 O 0.56493 0.70440 0.06124
 O52 O 0.45322 0.69028 -0.05521
 O53 O 0.56637 0.69381 -0.05367
 O54 O 0.45189 0.70220 0.05919
 O55 O 0.44962 0.79875 0.04870
 O56 O 0.56385 0.79043 -0.06361
 O57 O 0.45148 0.78693 -0.06509
 O58 O 0.56327 0.80101 0.05106
 Cu59 Cu 0.50945 0.68797 0.00400
 Cu60 Cu 0.50697 0.80401 -0.00792
 C61 C 0.58344 0.75504 0.07571
 C62 C 0.43282 0.73631 -0.07957
 C63 C 0.58473 0.74076 -0.07777
 C64 C 0.43025 0.75193 0.07206
 O65 O 0.06155 0.44939 0.29373
 O66 O -0.04844 0.56725 0.29041
 O67 O -0.05189 0.45357 0.29645
 O68 O 0.06361 0.56418 0.28858
 O69 O 0.06000 0.56080 0.19077
 O70 O -0.05432 0.44792 0.19873
 O71 O -0.05148 0.56164 0.19264
 O72 O 0.05842 0.44526 0.19595
 Cu73 Cu 0.00677 0.50869 0.30215
 Cu74 Cu 0.00329 0.50308 0.18469
 C75 C 0.07880 0.42738 0.24517
 C76 C -0.06884 0.58432 0.24079
 C77 C -0.07367 0.43270 0.24907
 C78 C 0.08018 0.58282 0.23840
 O79 O 0.06220 0.54421 0.70209
 O80 O -0.05703 0.43806 0.70652
 O81 O -0.05066 0.55088 0.70009
 O82 O 0.05523 0.43020 0.70981
 O83 O 0.05294 0.43551 0.80752
 O84 O -0.05118 0.55753 0.79781
 O85 O -0.05982 0.44457 0.80418
 O86 O 0.06128 0.55075 0.79977
 Cu87 Cu 0.00294 0.49030 0.69485
 Cu88 Cu 0.00118 0.49764 0.81223
 C89 C 0.08177 0.56613 0.74992
 C90 C -0.07977 0.42417 0.75570
 C91 C -0.06948 0.57431 0.74735
 C92 C 0.07134 0.41153 0.76039
 C93 C 0.28812 0.23788 0.20433
 C94 C 0.27103 0.23507 0.13829
 C95 C 0.31618 0.23919 0.10028
 C96 C 0.37536 0.24347 0.13101
 C97 C 0.37111 0.29641 0.17309
 C98 C 0.32625 0.29311 0.21181
 C99 C 0.33238 0.18644 0.21056
 C100 C 0.37776 0.18988 0.17237
 H101 H 0.22672 0.22959 0.12289
 H102 H 0.31039 0.23742 0.05247
 H103 H 0.40223 0.33219 0.17420
 H104 H 0.31941 0.32599 0.24593
 H105 H 0.33147 0.15123 0.24264
 H106 H 0.41284 0.15807 0.17280
 C107 C 0.71985 0.77022 0.19348
 C108 C 0.67305 0.81919 0.19997
 C109 C 0.62736 0.81351 0.16174
 C110 C 0.63218 0.76058 0.11989
 C111 C 0.69071 0.76849 0.08935
 C112 C 0.73600 0.77464 0.12751
 C113 C 0.68472 0.71294 0.20037
 C114 C 0.63981 0.70750 0.16147
 H115 H 0.67303 0.85468 0.23175
 H116 H 0.59089 0.84365 0.16185
 H117 H 0.69588 0.77103 0.04157
 H118 H 0.77980 0.78266 0.11227
 H119 H 0.69329 0.68030 0.23443
 H120 H 0.61058 0.67012 0.16246
 C121 C 0.68900 0.26038 -0.20682
 C122 C 0.65272 0.31688 -0.20089
 C123 C 0.61430 0.31623 -0.15554
 C124 C 0.61358 0.25818 -0.12069
 C125 C 0.60297 0.21092 -0.16805
 C126 C 0.64213 0.21152 -0.21290
 C127 C 0.71558 0.24867 -0.14506
 C128 C 0.67636 0.24828 -0.10020
 H129 H 0.65651 0.35407 -0.23084
 H130 H 0.58547 0.35294 -0.14704
 H131 H 0.56845 0.17857 -0.16581
 H132 H 0.63975 0.17784 -0.24651
 H133 H 0.76129 0.24018 -0.13755
 H134 H 0.68871 0.23999 -0.05442
 C135 C 0.31013 0.72398 -0.21262
 C136 C 0.30539 0.77998 -0.17449
 C137 C 0.34588 0.78403 -0.13071
 C138 C 0.38716 0.73111 -0.12723
 C139 C 0.34685 0.67765 -0.12158
 C140 C 0.30683 0.67331 -0.16619
 C141 C 0.37339 0.72036 -0.23329
 C142 C 0.41328 0.72530 -0.18914
 H143 H 0.27168 0.81277 -0.18027
 H144 H 0.34656 0.82041 -0.09953
 H145 H 0.34937 0.64594 -0.08564
 H146 H 0.27652 0.63714 -0.16621
 H147 H 0.38558 0.71318 -0.27914
 H148 H 0.45928 0.72219 -0.19738
 C149 C 0.19625 0.29090 0.24234
 C150 C 0.19906 0.32795 0.29960
 C151 C 0.16001 0.37285 0.30144
 C152 C 0.12247 0.37830 0.24515
 C153 C 0.16629 0.38292 0.19457
 C154 C 0.20453 0.33747 0.19242
 C155 C 0.13248 0.27264 0.23454
 C156 C 0.09415 0.31789 0.23689
 H157 H 0.23036 0.32055 0.33491
 H158 H 0.15803 0.40326 0.33847
 H159 H 0.16771 0.41930 0.16338
 H160 H 0.23744 0.33768 0.15868
 H161 H 0.11882 0.22753 0.22709
 H162 H 0.04783 0.31137 0.23171
 C163 C 0.21669 0.68418 0.73791
 C164 C 0.23403 0.61905 0.73215
 C165 C 0.18942 0.58049 0.73756
 C166 C 0.13048 0.60992 0.74659
 C167 C 0.13808 0.64984 0.80108
 C168 C 0.18234 0.68914 0.79618
 C169 C 0.16916 0.69121 0.68915
 C170 C 0.12432 0.65280 0.69437
 H171 H 0.27804 0.60466 0.72375
 H172 H 0.19539 0.53328 0.73401
 H173 H 0.10953 0.64924 0.83912
 H174 H 0.19100 0.72205 0.82991
 H175 H 0.16800 0.72345 0.65402
 H176 H 0.08743 0.65343 0.66425
 C177 C -0.18699 0.72007 0.23273
 C178 C -0.19281 0.67427 0.18169
 C179 C -0.15438 0.62906 0.18531
 C180 C -0.11265 0.63320 0.23837
 C181 C -0.08446 0.69392 0.23244
 C182 C -0.12308 0.73890 0.22836
 C183 C -0.19156 0.68218 0.28932
 C184 C -0.15240 0.63750 0.29255
 H185 H -0.22409 0.67453 0.14595
 H186 H -0.15426 0.59328 0.15342
 H187 H -0.03801 0.70079 0.22969
 H188 H -0.10953 0.78417 0.22183
 H189 H -0.22407 0.68890 0.32316
 H190 H -0.15152 0.60658 0.32925
 C191 C -0.21802 0.30951 0.75258
 C192 C -0.21978 0.35410 0.80499
 C193 C -0.17400 0.39214 0.80634
 C194 C -0.13070 0.38290 0.75575
 C195 C -0.11292 0.31813 0.76062
 C196 C -0.15829 0.27998 0.76015
 C197 C -0.21368 0.34999 0.69815
 C198 C -0.16792 0.38733 0.69923
 H199 H -0.25246 0.35687 0.83891
 H200 H -0.16933 0.42576 0.84022
 H201 H -0.06846 0.30362 0.76664
 H202 H -0.15240 0.23301 0.76633
 H203 H -0.24516 0.34995 0.66218
 H204 H -0.16068 0.41921 0.66417
 C205 C 0.23408 0.19749 0.29588
 C206 C 0.28829 0.20287 0.33568
 C207 C 0.29081 0.16295 0.38049
 C208 C 0.23817 0.12167 0.38316
 C209 C 0.18584 0.16317 0.38614
 C210 C 0.18308 0.20260 0.34051
 C211 C 0.23054 0.13269 0.27647
 C212 C 0.23386 0.09334 0.32166
 H213 H 0.32107 0.23660 0.33012
 H214 H 0.32585 0.16278 0.41282
 H215 H 0.15364 0.16173 0.42098
 H216 H 0.14767 0.23357 0.33845
 H217 H 0.22502 0.11907 0.23064
 H218 H 0.23143 0.04616 0.31439
 C219 C 0.73937 0.21783 0.69996
 C220 C 0.68518 0.21214 0.66016
 C221 C 0.68671 0.16626 0.62149
 C222 C 0.74345 0.13095 0.62390
 C223 C 0.79073 0.17737 0.61453
 C224 C 0.78891 0.22272 0.65372
 C225 C 0.74897 0.15681 0.72825
 C226 C 0.75049 0.11164 0.68868
 H227 H 0.64910 0.24272 0.66155
 H228 H 0.65182 0.15786 0.59013
 H229 H 0.82245 0.17547 0.57923
 H230 H 0.82014 0.25777 0.64969
 H231 H 0.75511 0.14996 0.77550
 H232 H 0.75744 0.06632 0.70220
 C233 C 0.26730 -0.22340 0.69541
 C234 C 0.21307 -0.18475 0.70375
 C235 C 0.20835 -0.13966 0.66427
 C236 C 0.25897 -0.13566 0.62051
 C237 C 0.31306 -0.13265 0.66029
 C238 C 0.31795 -0.17824 0.69915
 C239 C 0.26774 -0.24152 0.62961
 C240 C 0.26229 -0.19609 0.59081
 H241 H 0.18192 -0.19134 0.73896
 H242 H 0.17305 -0.10817 0.66583
 H243 H 0.34427 -0.09693 0.65920
 H244 H 0.35374 -0.17854 0.73013
 H245 H 0.27265 -0.28672 0.61493
 H246 H 0.26235 -0.20251 0.54314
 C247 C 0.77241 -0.18807 0.28584
 C248 C 0.71840 -0.19618 0.32484
 C249 C 0.71447 -0.15712 0.37032
 C250 C 0.76555 -0.11391 0.37430
 C251 C 0.81931 -0.15353 0.37726
 C252 C 0.82345 -0.19205 0.33118
 C253 C 0.77339 -0.12281 0.26758
 C254 C 0.76871 -0.08439 0.31338
 H255 H 0.68688 -0.23103 0.31835
 H256 H 0.67948 -0.15874 0.40220
 H257 H 0.85095 -0.15230 0.41306
 H258 H 0.85912 -0.22271 0.33029
 H259 H 0.77818 -0.10819 0.22203
 H260 H 0.76936 -0.03710 0.30691
 C261 C 0.70595 0.73395 -0.21093
 C262 C 0.64243 0.73185 -0.23178
 C263 C 0.60316 0.73518 -0.18746
 C264 C 0.63004 0.73768 -0.12532
 C265 C 0.66999 0.68378 -0.12215
 C266 C 0.70959 0.68134 -0.16670
 C267 C 0.71161 0.78814 -0.17027
 C268 C 0.67169 0.79043 -0.12622
 H269 H 0.62958 0.72759 -0.27797
 H270 H 0.55700 0.73418 -0.19592
 H271 H 0.66837 0.65101 -0.08715
 H272 H 0.74075 0.64596 -0.16710
 H273 H 0.74535 0.82104 -0.17482
 H274 H 0.67146 0.82538 -0.09343
 C275 C 0.27953 0.23331 -0.17946
 C276 C 0.33820 0.24449 -0.20985
 C277 C 0.38415 0.24743 -0.17183
 C278 C 0.36787 0.24051 -0.10640
 C279 C 0.32144 0.28759 -0.09576
 C280 C 0.27534 0.28421 -0.13353
 C281 C 0.28820 0.17893 -0.13965
 C282 C 0.33465 0.18211 -0.10253
 H283 H 0.34292 0.25100 -0.25724
 H284 H 0.42796 0.25584 -0.18686
 H285 H 0.32451 0.32103 -0.06152
 H286 H 0.24120 0.31639 -0.13001
 H287 H 0.25917 0.14135 -0.14003
 H288 H 0.34499 0.14721 -0.07134
 C289 C 0.29220 0.75926 0.18679
 C290 C 0.28784 0.70998 0.13909
 C291 C 0.33356 0.70828 0.10134
 C292 C 0.37997 0.75498 0.11405
 C293 C 0.34675 0.81352 0.11245
 C294 C 0.30061 0.81520 0.14936
 C295 C 0.35099 0.74689 0.21716
 C296 C 0.39673 0.74545 0.17931
 H297 H 0.25471 0.67670 0.13537
 H298 H 0.33704 0.67547 0.06655
 H299 H 0.35695 0.84984 0.08304
 H300 H 0.27174 0.85283 0.15129
 H301 H 0.35592 0.73868 0.26434
 H302 H 0.44066 0.73656 0.19426
 C303 C 0.69607 0.26626 0.21989
 C304 C 0.72084 0.25436 0.15776
 C305 C 0.68037 0.25309 0.11366
 C306 C 0.61822 0.26267 0.13510
 C307 C 0.60918 0.21596 0.18323
 C308 C 0.64934 0.21752 0.22757
 C309 C 0.65906 0.32240 0.21423
 C310 C 0.61943 0.32111 0.16934
 H311 H 0.76643 0.24656 0.14943
 H312 H 0.69149 0.24469 0.06773
 H313 H 0.57356 0.18475 0.18309
 H314 H 0.64584 0.18664 0.26372
 H315 H 0.66302 0.35963 0.24412
 H316 H 0.58987 0.35737 0.16108
 C317 C -0.20198 0.69513 0.73735
 C318 C -0.22050 0.63040 0.73092
 C319 C -0.17636 0.59115 0.73532
 C320 C -0.11670 0.61962 0.74362
 C321 C -0.11140 0.66273 0.69156
 C322 C -0.15597 0.70195 0.68759
 C323 C -0.16590 0.69897 0.79492
 C324 C -0.12212 0.65916 0.79856
 H325 H -0.26490 0.61679 0.72271
 H326 H -0.18312 0.54403 0.73119
 H327 H -0.07594 0.66225 0.66017
 H328 H -0.15661 0.73357 0.65185
 H329 H -0.17315 0.73160 0.82918
 H330 H -0.09238 0.65796 0.83602
 C331 C -0.20969 0.31569 0.25846
 C332 C -0.21585 0.36256 0.20847
 C333 C -0.17088 0.40124 0.20593
 C334 C -0.12342 0.39009 0.25254
 C335 C -0.15561 0.39117 0.31192
 C336 C -0.20095 0.35334 0.31448
 C337 C -0.15064 0.28703 0.24537
 C338 C -0.10567 0.32574 0.24313
 H339 H -0.24961 0.36501 0.17524
 H340 H -0.16859 0.43557 0.17251
 H341 H -0.14537 0.42093 0.34814
 H342 H -0.22910 0.35092 0.35278
 H343 H -0.14503 0.24034 0.23716
 H344 H -0.06174 0.31197 0.23349
 C345 C 0.18662 0.27322 0.76983
 C346 C 0.14898 0.28072 0.82546
 C347 C 0.11157 0.32683 0.82309
 C348 C 0.11296 0.36070 0.76417
 C349 C 0.17627 0.37914 0.75586
 C350 C 0.21454 0.33368 0.75803
 C351 C 0.14042 0.26764 0.71948
 C352 C 0.10238 0.31334 0.71690
 H353 H 0.15104 0.25118 0.86327
 H354 H 0.08184 0.33640 0.85890
 H355 H 0.18973 0.42403 0.74711
 H356 H 0.26049 0.33995 0.75054
 H357 H 0.13674 0.23282 0.68720
 H358 H 0.06791 0.31547 0.68398
 C359 C 0.19839 0.71865 0.23432
 C360 C 0.22499 0.65756 0.24635
 C361 C 0.18593 0.61274 0.24663
 C362 C 0.12322 0.63243 0.23607
 C363 C 0.11224 0.67960 0.28331
 C364 C 0.15098 0.72463 0.28269
 C365 C 0.16203 0.71250 0.17710
 C366 C 0.12385 0.66692 0.17745
 H367 H 0.27073 0.65042 0.25502
 H368 H 0.19840 0.56742 0.25502
 H369 H 0.07630 0.67838 0.31412
 H370 H 0.14605 0.76013 0.31399
 H371 H 0.16536 0.74257 0.13985
 H372 H 0.09483 0.65825 0.14041
 C373 C 0.74676 -0.21124 0.69764
 C374 C 0.69747 -0.16501 0.70463
 C375 C 0.70067 -0.11930 0.66583
 C376 C 0.75176 -0.12323 0.62295
 C377 C 0.80527 -0.12856 0.66355
 C378 C 0.80223 -0.17376 0.70312
 C379 C 0.74178 -0.22899 0.63196
 C380 C 0.74524 -0.18343 0.59318
 H381 H 0.66384 -0.16479 0.73762
 H382 H 0.67022 -0.08289 0.66666
 H383 H 0.84123 -0.09780 0.66327
 H384 H 0.83544 -0.18111 0.73658
 H385 H 0.73546 -0.27406 0.61735
 H386 H 0.74215 -0.18958 0.54550
 C387 C 0.24931 -0.19011 0.27950
 C388 C 0.25387 -0.21953 0.34098
 C389 C 0.25355 -0.18119 0.38725
 C390 C 0.25080 -0.11639 0.36866
 C391 C 0.30188 -0.10836 0.32614
 C392 C 0.30140 -0.14650 0.27943
 C393 C 0.19682 -0.14855 0.28187
 C394 C 0.19704 -0.11097 0.32859
 H395 H 0.25869 -0.26658 0.34745
 H396 H 0.25753 -0.19565 0.43295
 H397 H 0.33541 -0.07534 0.33188
 H398 H 0.33569 -0.14432 0.24719
 H399 H 0.16278 -0.14807 0.24843
 H400 H 0.16320 -0.07842 0.33474
 C401 C 0.75009 0.22310 0.31109
 C402 C 0.80344 0.22445 0.35374
 C403 C 0.80539 0.17860 0.39277
 C404 C 0.75436 0.13564 0.38655
 C405 C 0.70054 0.17478 0.39276
 C406 C 0.69887 0.22061 0.35424
 C407 C 0.75420 0.16178 0.28219
 C408 C 0.75529 0.11637 0.32147
 H409 H 0.83735 0.25713 0.35491
 H410 H 0.83984 0.17391 0.42543
 H411 H 0.66769 0.16863 0.42645
 H412 H 0.66462 0.25332 0.35506
 H413 H 0.75763 0.15483 0.23474
 H414 H 0.75909 0.07091 0.30744
 C415 C 0.23754 0.18099 0.72800
 C416 C 0.18412 0.14093 0.72191
 C417 C 0.18569 0.10347 0.67511
 C418 C 0.24182 0.10713 0.63908
 C419 C 0.24752 0.17180 0.62074
 C420 C 0.24611 0.21022 0.66694
 C421 C 0.28817 0.13580 0.73174
 C422 C 0.29006 0.09760 0.68522
 H423 H 0.14835 0.14143 0.75292
 H424 H 0.15121 0.07209 0.66651
 H425 H 0.25411 0.18608 0.57532
 H426 H 0.25211 0.25716 0.66079
 H427 H 0.32096 0.13298 0.76594
 H428 H 0.32305 0.06376 0.68166
   
