data_POSCAR
  _audit_creation_date              2014-09-24
  _audit_creation_method            'ToBaCCo'
  _symmetry_space_group_name_H-M    'P1'
  _symmetry_Int_Tables_number       1
  _symmetry_cell_setting            triclinic
  loop_
  _symmetry_equiv_pos_as_xyz
 x,y,z
_cell_length_a 52.4627
_cell_length_b 47.1006
_cell_length_c 27.5646
_cell_angle_alpha 92.241500
_cell_angle_beta 87.040100
_cell_angle_gamma 89.792000
loop_
  _atom_site_label
  _atom_site_type_symbol
  _atom_site_fract_x
  _atom_site_fract_y
  _atom_site_fract_z
C1 C 1.27241 0.20608 0.25937
 C2 C 1.25348 0.22346 0.24156
 C3 C 1.23205 0.21101 0.22141
 C4 C 1.22917 0.18149 0.21892
 C5 C 1.24792 0.16428 0.23784
 C6 C 1.26979 0.17614 0.25871
 C7 C 1.25522 0.25483 0.24560
 C8 C 1.27676 0.26917 0.22659
 C9 C 1.27715 0.29923 0.22622
 C10 C 1.25591 0.31428 0.24791
 C11 C 1.23463 0.30020 0.26793
 C12 C 1.23434 0.27050 0.26625
 H13 H 1.28819 0.21637 0.27655
 H14 H 1.21779 0.22446 0.20663
 H15 H 1.29222 0.25667 0.20911
 H16 H 1.21789 0.25945 0.28148
 H17 H 1.24557 0.14149 0.23479
 H18 H 1.25584 0.33725 0.25025
 C19 C 0.77300 -0.28676 0.27815
 C20 C 0.75432 -0.27103 0.25574
 C21 C 0.73366 -0.28523 0.23548
 C22 C 0.73194 -0.31486 0.23660
 C23 C 0.75017 -0.33013 0.26040
 C24 C 0.77092 -0.31651 0.28172
 C25 C 0.75688 -0.23985 0.25196
 C26 C 0.77996 -0.22829 0.23397
 C27 C 0.78256 -0.19885 0.22908
 C28 C 0.76166 -0.18090 0.24249
 C29 C 0.73854 -0.19214 0.26101
 C30 C 0.73627 -0.22162 0.26563
 H31 H 0.78843 -0.27538 0.29467
 H32 H 0.71962 -0.27340 0.21686
 H33 H 0.79593 -0.24230 0.22369
 H34 H 0.71845 -0.23036 0.27983
 H35 H 0.74862 -0.35305 0.25986
 H36 H 0.76336 -0.15817 0.23867
 C37 C 0.77834 0.21034 -0.23928
 C38 C 0.75749 0.22308 -0.25992
 C39 C 0.73752 0.20603 -0.27627
 C40 C 0.73835 0.17637 -0.27267
 C41 C 0.75938 0.16396 -0.25174
 C42 C 0.77935 0.18081 -0.23438
 C43 C 0.75621 0.25437 -0.26271
 C44 C 0.77722 0.26951 -0.28193
 C45 C 0.77633 0.29940 -0.28447
 C46 C 0.75407 0.31362 -0.26559
 C47 C 0.73330 0.29884 -0.24516
 C48 C 0.73424 0.26915 -0.24478
 H49 H 0.79326 0.22365 -0.22510
 H50 H 0.72156 0.21589 -0.29270
 H51 H 0.79367 0.25759 -0.29686
 H52 H 0.71831 0.25762 -0.22864
 H53 H 0.76004 0.14114 -0.24838
 H54 H 0.75302 0.33658 -0.26459
 C55 C 1.27293 -0.28681 -0.21851
 C56 C 1.25322 -0.27185 -0.23935
 C57 C 1.23363 -0.28694 -0.26144
 C58 C 1.23352 -0.31663 -0.26299
 C59 C 1.25264 -0.33129 -0.24061
 C60 C 1.27246 -0.31683 -0.21749
 C61 C 1.25226 -0.24040 -0.23733
 C62 C 1.27298 -0.22445 -0.25522
 C63 C 1.27098 -0.19474 -0.25757
 C64 C 1.24801 -0.18119 -0.24105
 C65 C 1.22724 -0.19676 -0.22165
 C66 C 1.22973 -0.22642 -0.21999
 H67 H 1.28750 -0.27481 -0.20044
 H68 H 1.21875 -0.27549 -0.27847
 H69 H 1.29022 -0.23531 -0.26919
 H70 H 1.21420 -0.23890 -0.20479
 H71 H 1.25228 -0.35428 -0.24271
 H72 H 1.24638 -0.15839 -0.24347
 C73 C 0.21527 0.28844 0.74780
 C74 C 0.22601 0.26247 0.76044
 C75 C 0.20997 0.24125 0.77949
 C76 C 0.18357 0.24645 0.78868
 C77 C 0.17360 0.27282 0.77623
 C78 C 0.18916 0.29385 0.75622
 C79 C 0.25424 0.25929 0.75927
 C80 C 0.26874 0.28192 0.77763
 C81 C 0.29553 0.28041 0.77825
 C82 C 0.30746 0.25489 0.76034
 C83 C 0.29331 0.23156 0.74336
 C84 C 0.26663 0.23399 0.74236
 H85 H 0.22743 0.30488 0.73299
 H86 H 0.21847 0.22177 0.79080
 H87 H 0.25856 0.30015 0.79402
 H88 H 0.25557 0.21621 0.72905
 H89 H 0.15324 0.27682 0.77998
 H90 H 0.32803 0.25308 0.75755
 C91 C 0.71517 0.78535 0.74760
 C92 C 0.72878 0.76098 0.75877
 C93 C 0.71583 0.73753 0.77733
 C94 C 0.68906 0.73758 0.78446
 C95 C 0.67572 0.76208 0.77153
 C96 C 0.68832 0.78639 0.75386
 C97 C 0.75685 0.75974 0.75176
 C98 C 0.77210 0.77932 0.77665
 C99 C 0.79882 0.77682 0.77259
 C100 C 0.81005 0.75541 0.74178
 C101 C 0.79507 0.73610 0.71598
 C102 C 0.76842 0.73797 0.72186
 H103 H 0.72584 0.80351 0.73505
 H104 H 0.72721 0.71987 0.78802
 H105 H 0.76318 0.79573 0.80049
 H106 H 0.75669 0.72288 0.70256
 H107 H 0.65518 0.76139 0.77120
 H108 H 0.83067 0.75372 0.73788
 C109 C 0.71624 0.27657 0.22891
 C110 C 0.73140 0.25436 0.24414
 C111 C 0.71996 0.22869 0.25743
 C112 C 0.69341 0.22534 0.25617
 C113 C 0.67847 0.24805 0.24174
 C114 C 0.68969 0.27365 0.22724
 C115 C 0.75930 0.25813 0.24482
 C116 C 0.76935 0.28188 0.26968
 C117 C 0.79579 0.28610 0.26931
 C118 C 0.81202 0.26715 0.24194
 C119 C 0.80229 0.24351 0.21692
 C120 C 0.77591 0.23869 0.21922
 H121 H 0.72542 0.29581 0.21684
 H122 H 0.73173 0.21136 0.26844
 H123 H 0.75662 0.29658 0.29029
 H124 H 0.76828 0.22044 0.19980
 H125 H 0.65793 0.24580 0.24249
 H126 H 0.83247 0.27057 0.24064
 C127 C 0.21324 0.77051 0.22040
 C128 C 0.22862 0.75093 0.24264
 C129 C 0.21865 0.72436 0.25505
 C130 C 0.19399 0.71627 0.24271
 C131 C 0.17924 0.73589 0.21895
 C132 C 0.18845 0.76295 0.20730
 C133 C 0.25638 0.75563 0.24497
 C134 C 0.26657 0.77956 0.26909
 C135 C 0.29323 0.78240 0.27159
 C136 C 0.30933 0.76142 0.24841
 C137 C 0.29930 0.73774 0.22369
 C138 C 0.27284 0.73520 0.22206
 H139 H 0.22147 0.79050 0.20960
 H140 H 0.23105 0.70929 0.27110
 H141 H 0.25383 0.79530 0.28701
 H142 H 0.26486 0.71737 0.20206
 H143 H 0.15950 0.73096 0.21300
 H144 H 0.32983 0.76347 0.24981
 O145 O 1.04717 -0.03692 0.08331
 O146 O 1.02395 -0.07042 0.04226
 C147 C 1.04123 -0.06298 0.07240
 O148 O 0.95544 0.04161 0.09367
 O149 O 0.97793 0.07199 0.04458
 C150 C 0.96065 0.06676 0.07853
 O151 O 0.95887 -0.03656 0.10177
 O152 O 0.97973 -0.07026 0.05177
 C153 C 0.96404 -0.06271 0.08814
 O154 O 1.05092 0.04096 0.07109
 O155 O 1.02470 0.07192 0.03447
 C156 C 1.04457 0.06618 0.05877
 Zr157 Zr 1.03419 0.00130 0.05614
 O158 O 1.03708 0.00727 0.13216
 O159 O 1.07424 -0.00111 0.04293
 Zr160 Zr 0.97070 0.00167 0.07061
 O161 O 0.97685 0.00585 0.14569
 O162 O 0.93064 0.00011 0.08324
 O163 O 1.00281 -0.02390 0.07357
 O164 O 1.00266 0.02710 0.07135
 O165 O 1.04464 0.03535 -0.09183
 O166 O 1.02195 0.06889 -0.04471
 C167 C 1.03931 0.06146 -0.07822
 O168 O 0.95319 -0.04295 -0.07356
 O169 O 0.97693 -0.07356 -0.03119
 C170 C 0.95920 -0.06824 -0.06091
 O171 O 0.94937 0.03594 -0.06856
 O172 O 0.97547 0.06948 -0.03468
 C173 C 0.95565 0.06201 -0.05851
 O174 O 1.04201 -0.04325 -0.09377
 O175 O 1.02103 -0.07354 -0.04241
 C176 C 1.03704 -0.06846 -0.07867
 Zr177 Zr 1.03007 -0.00296 -0.06531
 O178 O 1.02787 -0.00262 -0.14176
 O179 O 1.07043 -0.00433 -0.06925
 Zr180 Zr 0.96639 -0.00258 -0.05122
 O181 O 0.96441 -0.00163 -0.12770
 O182 O 0.92620 -0.00426 -0.04081
 Zr183 Zr 1.00037 -0.04348 0.00386
 Zr184 Zr 1.00009 0.04217 0.00100
 O185 O 0.99780 0.02208 -0.06804
 O186 O 0.99797 -0.02876 -0.06706
 O187 O 1.03698 0.02432 -0.00661
 O188 O 0.96377 -0.02505 0.01158
 O189 O 1.03693 -0.02574 -0.00471
 O190 O 0.96339 0.02465 0.00995
 H191 H 1.00369 0.04126 0.09873
 H192 H 0.94853 -0.03727 0.01549
 H193 H 0.99672 0.03420 -0.09647
 H194 H 1.05209 -0.03841 -0.00736
 H195 H 0.92310 0.00634 0.05322
 H196 H 0.91930 -0.00532 -0.07366
 H197 H 0.97290 -0.01902 -0.14196
 H198 H 1.01665 -0.01846 -0.15146
 H199 H 1.07577 -0.00573 -0.10429
 H200 H 1.08175 -0.00016 0.07523
 H201 H 1.02475 -0.00579 0.14789
 H202 H 0.95969 0.00668 0.16248
 O203 O 1.03212 0.55901 0.58409
 O204 O 1.06263 0.53121 0.54267
 C205 C 1.05569 0.55169 0.57348
 O206 O 0.96317 0.45490 0.58556
 O207 O 0.93642 0.47913 0.53831
 C208 C 0.94074 0.46047 0.57038
 O209 O 1.03387 0.46079 0.59612
 O210 O 1.06351 0.48365 0.54781
 C211 C 1.05726 0.46719 0.58302
 O212 O 0.96154 0.56055 0.57258
 O213 O 0.93549 0.52956 0.53250
 C214 C 0.93927 0.55216 0.55954
 Zr215 Zr 0.99815 0.54297 0.55567
 O216 O 0.99223 0.54887 0.63192
 O217 O 0.99914 0.58715 0.54476
 Zr218 Zr 0.99916 0.47218 0.56548
 O219 O 0.99409 0.48103 0.64109
 O220 O 1.00160 0.42798 0.57542
 O221 O 1.02106 0.50866 0.57140
 O222 O 0.97576 0.50763 0.56801
 O223 O 0.96923 0.54982 0.40786
 O224 O 0.93933 0.52501 0.45236
 C225 C 0.94579 0.54365 0.42052
 O226 O 1.04170 0.44892 0.42039
 O227 O 1.06737 0.47808 0.46486
 C228 C 1.06393 0.45718 0.43389
 O229 O 0.97052 0.44459 0.42182
 O230 O 0.93985 0.47422 0.45825
 C231 C 0.94691 0.45187 0.43188
 O232 O 1.04056 0.54640 0.40624
 O233 O 1.06674 0.52554 0.45882
 C234 C 1.06292 0.54101 0.42202
 Zr235 Zr 1.00375 0.53476 0.43367
 O236 O 1.00422 0.53070 0.35689
 O237 O 1.00461 0.57962 0.43314
 Zr238 Zr 1.00465 0.46376 0.44295
 O239 O 1.00526 0.45872 0.36622
 O240 O 1.00654 0.41939 0.45141
 Zr241 Zr 1.03935 0.50408 0.50168
 Zr242 Zr 0.96326 0.50251 0.49694
 O243 O 0.98222 0.49820 0.42797
 O244 O 1.02738 0.49903 0.43007
 O245 O 0.97825 0.54379 0.49255
 O246 O 1.02399 0.46310 0.50624
 O247 O 1.02314 0.54449 0.49539
 O248 O 0.97948 0.46196 0.50345
 H249 H 0.96274 0.50921 0.59536
 H250 H 1.03546 0.44657 0.50918
 H251 H 0.97181 0.49615 0.39905
 H252 H 1.03445 0.56127 0.49392
 H253 H 0.99633 0.41848 0.54491
 H254 H 1.00815 0.41053 0.41816
 H255 H 1.02047 0.46875 0.35303
 H256 H 1.01788 0.51695 0.34641
 H257 H 1.00646 0.58452 0.39849
 H258 H 0.99761 0.59660 0.57755
 H259 H 1.00341 0.53508 0.64686
 H260 H 0.99378 0.46234 0.65638
 O261 O 0.53053 0.05434 0.59017
 O262 O 0.56086 0.02733 0.54663
 C263 C 0.55412 0.04705 0.57900
 O264 O 0.46049 -0.04899 0.58240
 O265 O 0.43397 -0.02323 0.53700
 C266 C 0.43805 -0.04259 0.56806
 O267 O 0.53109 -0.04485 0.59308
 O268 O 0.56133 -0.02095 0.54779
 C269 C 0.55463 -0.03845 0.58136
 O270 O 0.45964 0.05610 0.58060
 O271 O 0.43353 0.02781 0.53526
 C272 C 0.43732 0.04874 0.56619
 Zr273 Zr 0.49626 0.03928 0.56047
 O274 O 0.49070 0.04285 0.63705
 O275 O 0.49710 0.08379 0.55330
 Zr276 Zr 0.49675 -0.03192 0.56320
 O277 O 0.49178 -0.02561 0.63942
 O278 O 0.49875 -0.07655 0.56829
 O279 O 0.51893 0.00415 0.57296
 O280 O 0.47363 0.00373 0.56903
 O281 O 0.46749 0.05068 0.41271
 O282 O 0.43731 0.02474 0.45443
 C283 C 0.44397 0.04401 0.42383
 O284 O 0.53982 -0.05083 0.41623
 O285 O 0.56533 -0.02356 0.46434
 C286 C 0.56201 -0.04335 0.43122
 O287 O 0.46843 -0.05472 0.41758
 O288 O 0.43767 -0.02624 0.45673
 C289 C 0.44476 -0.04784 0.42836
 O290 O 0.53862 0.04778 0.41239
 O291 O 0.56493 0.02478 0.46222
 C292 C 0.56101 0.04191 0.42751
 Zr293 Zr 0.50192 0.03498 0.43818
 O294 O 0.50283 0.03349 0.36127
 O295 O 0.50257 0.07989 0.44231
 Zr296 Zr 0.50266 -0.03634 0.44043
 O297 O 0.50330 -0.03873 0.36350
 O298 O 0.50445 -0.08102 0.44465
 Zr299 Zr 0.53749 0.00175 0.50329
 Zr300 Zr 0.46114 0.00105 0.49772
 O301 O 0.48032 -0.00126 0.42876
 O302 O 0.52558 -0.00077 0.43136
 O303 O 0.47632 0.04238 0.49752
 O304 O 0.52180 -0.03923 0.50362
 O305 O 0.52133 0.04250 0.50071
 O306 O 0.47719 -0.03989 0.50033
 H307 H 0.46065 0.00451 0.59650
 H308 H 0.53314 -0.05601 0.50502
 H309 H 0.47002 -0.00242 0.39962
 H310 H 0.53262 0.05932 0.50096
 H311 H 0.49287 -0.08484 0.53731
 H312 H 0.50600 -0.08881 0.41068
 H313 H 0.51860 -0.02844 0.35139
 H314 H 0.51649 0.01997 0.34975
 H315 H 0.50435 0.08602 0.40833
 H316 H 0.49582 0.09227 0.58682
 H317 H 0.50164 0.02823 0.65047
 H318 H 0.49119 -0.04484 0.65279
 O319 O 0.53366 0.55268 0.08989
 O320 O 0.56434 0.52658 0.04552
 C321 C 0.55728 0.54598 0.07832
 O322 O 0.46405 0.44921 0.07849
 O323 O 0.43738 0.47555 0.03433
 C324 C 0.44162 0.45561 0.06423
 O325 O 0.53415 0.45353 0.09014
 O326 O 0.56470 0.47772 0.04604
 C327 C 0.55773 0.45976 0.07877
 O328 O 0.46348 0.55531 0.07827
 O329 O 0.43694 0.52708 0.03384
 C330 C 0.44117 0.54849 0.06353
 Zr331 Zr 0.49972 0.53784 0.05976
 O332 O 0.49365 0.54021 0.13632
 O333 O 0.50090 0.58251 0.05479
 Zr334 Zr 0.50008 0.46691 0.06067
 O335 O 0.49488 0.47288 0.13691
 O336 O 0.50207 0.42226 0.06535
 O337 O 0.52243 0.50271 0.07142
 O338 O 0.47688 0.50243 0.06741
 O339 O 0.47110 0.55124 -0.08678
 O340 O 0.44085 0.52489 -0.04606
 C341 C 0.44758 0.54477 -0.07543
 O342 O 0.54296 0.44901 -0.08581
 O343 O 0.56883 0.47583 -0.03780
 C344 C 0.56522 0.45621 -0.07108
 O345 O 0.47216 0.44564 -0.08596
 O346 O 0.44114 0.47327 -0.04576
 C347 C 0.44848 0.45215 -0.07508
 O348 O 0.54197 0.54772 -0.08769
 O349 O 0.56849 0.52436 -0.03883
 C350 C 0.56440 0.54187 -0.07292
 Zr351 Zr 0.50541 0.53471 -0.06250
 O352 O 0.50615 0.53354 -0.13941
 O353 O 0.50624 0.57962 -0.05776
 Zr354 Zr 0.50609 0.46360 -0.06201
 O355 O 0.50699 0.46207 -0.13898
 O356 O 0.50765 0.41883 -0.05917
 Zr357 Zr 0.54105 0.50096 0.00177
 Zr358 Zr 0.46454 0.50036 -0.00398
 O359 O 0.48371 0.49872 -0.07289
 O360 O 0.52911 0.49909 -0.07018
 O361 O 0.47992 0.54158 -0.00307
 O362 O 0.52518 0.46005 0.00106
 O363 O 0.52477 0.54169 0.00017
 O364 O 0.48063 0.45943 -0.00242
 H365 H 0.46376 0.50308 0.09464
 H366 H 0.53641 0.44314 0.00209
 H367 H 0.47338 0.49795 -0.10202
 H368 H 0.53597 0.55858 0.00083
 H369 H 0.49722 0.41409 0.03355
 H370 H 0.50933 0.41136 -0.09333
 H371 H 0.52253 0.47211 -0.15061
 H372 H 0.52022 0.52062 -0.15126
 H373 H 0.50810 0.58595 -0.09163
 H374 H 0.49946 0.59053 0.08862
 H375 H 0.50545 0.52639 0.14956
 H376 H 0.49416 0.45359 0.15000
 C377 C 1.21015 0.14504 0.16297
 C378 C 1.18934 0.13330 0.13992
 C379 C 1.16485 0.14483 0.14871
 C380 C 1.16129 0.16847 0.18102
 C381 C 1.18216 0.18034 0.20408
 C382 C 1.20683 0.16869 0.19535
 N383 N 1.14412 0.13143 0.12508
 N384 N 1.12089 0.13945 0.13088
 C385 C 1.10127 0.12394 0.10698
 C386 C 1.07540 0.13008 0.11886
 C387 C 1.05619 0.11250 0.10061
 C388 C 1.06288 0.08864 0.07051
 C389 C 1.08861 0.08365 0.05638
 C390 C 1.10759 0.10112 0.07418
 H391 H 1.22892 0.13587 0.15487
 H392 H 1.19229 0.11506 0.11509
 H393 H 1.14248 0.17762 0.18855
 H394 H 1.17900 0.19844 0.22914
 H395 H 1.07020 0.14765 0.14396
 H396 H 1.03642 0.11653 0.11216
 H397 H 1.09411 0.06539 0.03298
 H398 H 1.12730 0.09601 0.06378
 C399 C 1.22005 0.64391 0.68080
 C400 C 1.20113 0.62769 0.65944
 C401 C 1.17537 0.63446 0.66922
 C402 C 1.16865 0.65821 0.69978
 C403 C 1.18759 0.67459 0.72095
 C404 C 1.21345 0.66733 0.71217
 N405 N 1.15650 0.61661 0.64836
 N406 N 1.13277 0.62030 0.65847
 C407 C 1.11393 0.60234 0.63775
 C408 C 1.08820 0.60767 0.65053
 C409 C 1.06927 0.59089 0.63035
 C410 C 1.07583 0.56839 0.59688
 C411 C 1.10178 0.56284 0.58461
 C412 C 1.12068 0.57967 0.60485
 H413 H 1.23988 0.63812 0.67297
 H414 H 1.20652 0.60954 0.63574
 H415 H 1.14882 0.66390 0.70770
 H416 H 1.18203 0.69244 0.74520
 H417 H 1.08280 0.62504 0.67593
 H418 H 1.04950 0.59579 0.64061
 H419 H 1.10750 0.54573 0.55891
 H420 H 1.14050 0.57510 0.59450
 C421 C 0.72255 0.13266 0.68327
 C422 C 0.70272 0.11586 0.66617
 C423 C 0.67724 0.12428 0.67513
 C424 C 0.67177 0.14989 0.70159
 C425 C 0.69160 0.16680 0.71853
 C426 C 0.71723 0.15838 0.70954
 N427 N 0.65747 0.10670 0.65627
 N428 N 0.63383 0.11235 0.66441
 C429 C 0.61421 0.09494 0.64451
 C430 C 0.58860 0.10214 0.65557
 C431 C 0.56901 0.08625 0.63527
 C432 C 0.57473 0.06281 0.60327
 C433 C 0.60053 0.05538 0.59286
 C434 C 0.62006 0.07126 0.61327
 H435 H 0.74207 0.12575 0.67525
 H436 H 0.70722 0.09625 0.64566
 H437 H 0.65223 0.15688 0.70901
 H438 H 0.68687 0.18633 0.73912
 H439 H 0.58381 0.12034 0.67956
 H440 H 0.54942 0.09266 0.64401
 H441 H 0.60570 0.03751 0.56838
 H442 H 0.63970 0.06522 0.60408
 C443 C 0.71902 0.64669 0.17843
 C444 C 0.70042 0.62988 0.15738
 C445 C 0.67456 0.63523 0.16885
 C446 C 0.66737 0.65847 0.20032
 C447 C 0.68603 0.67558 0.22103
 C448 C 0.71200 0.66940 0.21100
 N449 N 0.65618 0.61631 0.14900
 N450 N 0.63261 0.61763 0.16222
 C451 C 0.61438 0.59847 0.14237
 C452 C 0.58880 0.60111 0.15866
 C453 C 0.57036 0.58342 0.13898
 C454 C 0.57724 0.56268 0.10244
 C455 C 0.60310 0.55960 0.08694
 C456 C 0.62153 0.57736 0.10672
 H457 H 0.73897 0.64173 0.16987
 H458 H 0.70618 0.61216 0.13298
 H459 H 0.64743 0.66312 0.20942
 H460 H 0.68024 0.69296 0.24614
 H461 H 0.58308 0.61721 0.18625
 H462 H 0.55064 0.58641 0.15181
 H463 H 0.60905 0.54396 0.05874
 H464 H 0.64125 0.57484 0.09364
 C465 C 0.82047 -0.19964 0.16940
 C466 C 0.84365 -0.18837 0.15176
 C467 C 0.85411 -0.16449 0.17496
 C468 C 0.84097 -0.15188 0.21615
 C469 C 0.81768 -0.16294 0.23349
 C470 C 0.80718 -0.18695 0.21032
 N471 N 0.87736 -0.15266 0.15497
 N472 N 0.88876 -0.13260 0.17713
 C473 C 0.91099 -0.11884 0.15698
 C474 C 0.92087 -0.09578 0.18322
 C475 C 0.93974 -0.07875 0.16200
 C476 C 0.94927 -0.08466 0.11406
 C477 C 0.94077 -0.10912 0.08896
 C478 C 0.92162 -0.12605 0.11016
 H479 H 0.81272 -0.21801 0.15057
 H480 H 0.85342 -0.19817 0.11979
 H481 H 0.84853 -0.13329 0.23461
 H482 H 0.80799 -0.15291 0.26536
 H483 H 0.91292 -0.09005 0.21934
 H484 H 0.94595 -0.06007 0.18223
 H485 H 0.94759 -0.11398 0.05181
 H486 H 0.91430 -0.14385 0.08918
 C487 C 0.82266 0.30529 0.69767
 C488 C 0.84315 0.32207 0.68167
 C489 C 0.83883 0.34870 0.66284
 C490 C 0.81370 0.35815 0.65891
 C491 C 0.79324 0.34162 0.67507
 C492 C 0.79723 0.31508 0.69583
 N493 N 0.86014 0.36607 0.64902
 N494 N 0.85714 0.39014 0.63061
 C495 C 0.87817 0.40803 0.61755
 C496 C 0.87365 0.43252 0.59211
 C497 C 0.89386 0.45007 0.57773
 C498 C 0.91898 0.44348 0.58912
 C499 C 0.92333 0.41921 0.61580
 C500 C 0.90313 0.40157 0.62972
 H501 H 0.82706 0.28547 0.71402
 H502 H 0.86250 0.31455 0.68487
 H503 H 0.80982 0.37848 0.64374
 H504 H 0.77425 0.34963 0.67000
 H505 H 0.85445 0.43776 0.58272
 H506 H 0.88985 0.46856 0.55719
 H507 H 0.94243 0.41341 0.62497
 H508 H 0.90705 0.38284 0.64967
 C509 C 0.31786 -0.18375 0.73402
 C510 C 0.33818 -0.16739 0.71592
 C511 C 0.33381 -0.14492 0.68557
 C512 C 0.30874 -0.13903 0.67320
 C513 C 0.28839 -0.15533 0.69136
 C514 C 0.29269 -0.17782 0.72218
 N515 N 0.35510 -0.12841 0.66823
 N516 N 0.35273 -0.10792 0.63992
 C517 C 0.37419 -0.09149 0.62303
 C518 C 0.37049 -0.07010 0.59016
 C519 C 0.39111 -0.05395 0.57260
 C520 C 0.41588 -0.05887 0.58784
 C521 C 0.41945 -0.08024 0.62123
 C522 C 0.39885 -0.09639 0.63860
 H523 H 0.32180 -0.20071 0.75802
 H524 H 0.35740 -0.17215 0.72581
 H525 H 0.30485 -0.12185 0.64965
 H526 H 0.26929 -0.15047 0.68093
 H527 H 0.35160 -0.06608 0.57783
 H528 H 0.38764 -0.03779 0.54681
 H529 H 0.43822 -0.08471 0.63376
 H530 H 0.40225 -0.11274 0.66406
 C531 C 0.32305 0.30314 0.20166
 C532 C 0.34348 0.31904 0.18263
 C533 C 0.33934 0.34602 0.16491
 C534 C 0.31441 0.35679 0.16551
 C535 C 0.29405 0.34118 0.18483
 C536 C 0.29792 0.31422 0.20426
 N537 N 0.36068 0.36245 0.14778
 N538 N 0.35776 0.38645 0.12897
 C539 C 0.37891 0.40353 0.11319
 C540 C 0.37433 0.42812 0.08796
 C541 C 0.39460 0.44532 0.07229
 C542 C 0.41983 0.43829 0.08220
 C543 C 0.42427 0.41369 0.10802
 C544 C 0.40405 0.39643 0.12321
 H545 H 0.32735 0.28288 0.21662
 H546 H 0.36268 0.31050 0.18242
 H547 H 0.31061 0.37742 0.15140
 H548 H 0.27515 0.35021 0.18298
 H549 H 0.35500 0.43387 0.08017
 H550 H 0.39051 0.46404 0.05239
 H551 H 0.44345 0.40749 0.11606
 H552 H 0.40807 0.37762 0.14290
 C553 C 0.79544 0.14603 -0.17644
 C554 C 0.81511 0.13394 -0.15188
 C555 C 0.84023 0.14331 -0.15899
 C556 C 0.84560 0.16517 -0.19113
 C557 C 0.82587 0.17732 -0.21593
 C558 C 0.80055 0.16779 -0.20897
 N559 N 0.85972 0.12926 -0.13434
 N560 N 0.88321 0.13612 -0.13644
 C561 C 0.90141 0.11964 -0.11210
 C562 C 0.92749 0.12644 -0.11546
 C563 C 0.94559 0.10863 -0.09581
 C564 C 0.93763 0.08369 -0.07334
 C565 C 0.91146 0.07777 -0.06813
 C566 C 0.89358 0.09552 -0.08702
 H567 H 0.77615 0.13858 -0.16943
 H568 H 0.81078 0.11708 -0.12720
 H569 H 0.86495 0.17258 -0.19741
 H570 H 0.83046 0.19390 -0.24101
 H571 H 0.93384 0.14500 -0.13454
 H572 H 0.96571 0.11356 -0.10019
 H573 H 0.90484 0.05886 -0.05032
 H574 H 0.87363 0.08977 -0.08332
 C575 C 0.78258 0.64160 0.32669
 C576 C 0.80097 0.62434 0.34569
 C577 C 0.82666 0.63185 0.34248
 C578 C 0.83375 0.65772 0.32214
 C579 C 0.81531 0.67542 0.30392
 C580 C 0.78942 0.66724 0.30445
 N581 N 0.84513 0.61254 0.35915
 N582 N 0.86889 0.61525 0.34899
 C583 C 0.88745 0.59597 0.36542
 C584 C 0.91297 0.59913 0.34963
 C585 C 0.93177 0.58136 0.36603
 C586 C 0.92538 0.56010 0.39897
 C587 C 0.89958 0.55655 0.41401
 C588 C 0.88075 0.57430 0.39730
 H589 H 0.76289 0.63493 0.33050
 H590 H 0.79522 0.60468 0.36208
 H591 H 0.85357 0.66407 0.31966
 H592 H 0.82178 0.69454 0.28674
 H593 H 0.91834 0.61568 0.32495
 H594 H 0.95141 0.58481 0.35373
 H595 H 0.89400 0.54053 0.43957
 H596 H 0.86109 0.57144 0.40999
 C597 C 0.28168 0.13173 0.29741
 C598 C 0.29985 0.11451 0.31754
 C599 C 0.32521 0.12317 0.31940
 C600 C 0.33223 0.14960 0.30118
 C601 C 0.31408 0.16707 0.28150
 C602 C 0.28835 0.15848 0.27890
 N603 N 0.34338 0.10489 0.34010
 N604 N 0.36715 0.11036 0.33829
 C605 C 0.38573 0.09273 0.35911
 C606 C 0.41153 0.09930 0.35140
 C607 C 0.43033 0.08316 0.37168
 C608 C 0.42371 0.06005 0.40061
 C609 C 0.39770 0.05334 0.40819
 C610 C 0.37885 0.06950 0.38747
 H611 H 0.26219 0.12430 0.29855
 H612 H 0.29408 0.09431 0.33192
 H613 H 0.35178 0.15681 0.30205
 H614 H 0.32072 0.18678 0.26661
 H615 H 0.41709 0.11715 0.32969
 H616 H 0.45009 0.08911 0.36515
 H617 H 0.39191 0.03576 0.43033
 H618 H 0.35898 0.06405 0.39406
 C619 C 0.28488 0.64122 -0.17362
 C620 C 0.30343 0.62453 -0.15396
 C621 C 0.32879 0.63325 -0.15477
 C622 C 0.33531 0.65978 -0.17331
 C623 C 0.31661 0.67694 -0.19220
 C624 C 0.29115 0.66749 -0.19423
 N625 N 0.34747 0.61435 -0.13766
 N626 N 0.37130 0.61814 -0.14518
 C627 C 0.38982 0.59886 -0.12851
 C628 C 0.41557 0.60305 -0.14156
 C629 C 0.43421 0.58491 -0.12559
 C630 C 0.42743 0.56220 -0.09584
 C631 C 0.40146 0.55779 -0.08325
 C632 C 0.38279 0.57593 -0.09955
 H633 H 0.26544 0.63358 -0.17153
 H634 H 0.29810 0.60436 -0.13894
 H635 H 0.35487 0.66706 -0.17388
 H636 H 0.32259 0.69672 -0.20783
 H637 H 0.42121 0.62056 -0.16397
 H638 H 0.45399 0.58907 -0.13591
 H639 H 0.39558 0.54066 -0.06016
 H640 H 0.36295 0.57223 -0.08901
 C641 C 1.20350 -0.15445 -0.18253
 C642 C 1.18087 -0.14035 -0.16721
 C643 C 1.15730 -0.15378 -0.17103
 C644 C 1.15650 -0.18163 -0.19079
 C645 C 1.17913 -0.19558 -0.20740
 C646 C 1.20301 -0.18215 -0.20356
 N647 N 1.13458 -0.13791 -0.15717
 N648 N 1.11313 -0.14916 -0.14599
 C649 C 1.09131 -0.13124 -0.13451
 C650 C 1.07296 -0.13853 -0.09834
 C651 C 1.05386 -0.11891 -0.08190
 C652 C 1.05270 -0.09199 -0.10221
 C653 C 1.06983 -0.08604 -0.14151
 C654 C 1.08902 -0.10529 -0.15708
 H655 H 1.22137 -0.14356 -0.17762
 H656 H 1.18169 -0.11883 -0.15202
 H657 H 1.13840 -0.19221 -0.19478
 H658 H 1.17776 -0.21661 -0.22426
 H659 H 1.07438 -0.15861 -0.08085
 H660 H 1.04096 -0.12420 -0.05170
 H661 H 1.06940 -0.06576 -0.15866
 H662 H 1.10266 -0.09951 -0.18580
 C663 C 1.18748 0.30902 0.27822
 C664 C 1.16670 0.32571 0.29580
 C665 C 1.17047 0.35032 0.32457
 C666 C 1.19532 0.35784 0.33656
 C667 C 1.21612 0.34117 0.31904
 C668 C 1.21244 0.31677 0.28922
 N669 N 1.14885 0.36748 0.34037
 N670 N 1.15092 0.39047 0.36566
 C671 C 1.12912 0.40753 0.38093
 C672 C 1.13232 0.43169 0.41112
 C673 C 1.11124 0.44828 0.42767
 C674 C 1.08657 0.44093 0.41402
 C675 C 1.08355 0.41693 0.38286
 C676 C 1.10459 0.40037 0.36653
 H677 H 1.18411 0.29051 0.25494
 H678 H 1.14761 0.31973 0.28638
 H679 H 1.19869 0.37667 0.35903
 H680 H 1.23511 0.34740 0.32869
 H681 H 1.15116 0.43745 0.42232
 H682 H 1.11425 0.46660 0.45161
 H683 H 1.06485 0.41062 0.37163
 H684 H 1.10164 0.38187 0.34300
 C685 C 0.70619 -0.15544 0.24215
 C686 C 0.68539 -0.13771 0.25616
 C687 C 0.67536 -0.13669 0.30431
 C688 C 0.68610 -0.15416 0.33821
 C689 C 0.70646 -0.17244 0.32392
 C690 C 0.71678 -0.17307 0.27586
 N691 N 0.65417 -0.11815 0.31787
 N692 N 0.64918 -0.10999 0.36195
 C693 C 0.62767 -0.09226 0.37689
 C694 C 0.62748 -0.07789 0.42228
 C695 C 0.60649 -0.06123 0.43900
 C696 C 0.58489 -0.05923 0.41113
 C697 C 0.58508 -0.07368 0.36545
 C698 C 0.60643 -0.08982 0.34818
 H699 H 0.71382 -0.15572 0.20486
 H700 H 0.67727 -0.12446 0.22962
 H701 H 0.67854 -0.15395 0.37552
 H702 H 0.71438 -0.18586 0.35046
 H703 H 0.64365 -0.07968 0.44486
 H704 H 0.60688 -0.05058 0.47445
 H705 H 0.56871 -0.07255 0.34320
 H706 H 0.60609 -0.10093 0.31310
 C707 C 0.68608 0.30710 -0.23309
 C708 C 0.66539 0.32374 -0.21460
 C709 C 0.66943 0.34822 -0.18557
 C710 C 0.69438 0.35557 -0.17409
 C711 C 0.71501 0.33903 -0.19255
 C712 C 0.71110 0.31491 -0.22287
 N713 N 0.64804 0.36558 -0.16907
 N714 N 0.65061 0.38821 -0.14304
 C715 C 0.62926 0.40576 -0.12702
 C716 C 0.63299 0.42898 -0.09497
 C717 C 0.61232 0.44594 -0.07749
 C718 C 0.58756 0.43994 -0.09220
 C719 C 0.58407 0.41699 -0.12540
 C720 C 0.60469 0.40003 -0.14254
 H721 H 0.68260 0.28866 -0.25648
 H722 H 0.64622 0.31785 -0.22356
 H723 H 0.69798 0.37425 -0.15141
 H724 H 0.73409 0.34521 -0.18338
 H725 H 0.65190 0.43365 -0.08293
 H726 H 0.61567 0.46341 -0.05193
 H727 H 0.56529 0.41172 -0.13751
 H728 H 0.60135 0.38231 -0.16758
 C729 C 1.14557 0.23520 -0.15997
 C730 C 1.12810 0.21567 -0.14156
 C731 C 1.13136 0.18675 -0.15263
 C732 C 1.15320 0.17723 -0.18035
 C733 C 1.17114 0.19674 -0.19803
 C734 C 1.16714 0.22621 -0.18960
 N735 N 1.11195 0.16769 -0.13598
 N736 N 1.11077 0.14217 -0.15242
 C737 C 1.09130 0.12321 -0.13562
 C738 C 1.09047 0.09592 -0.15708
 C739 C 1.07264 0.07632 -0.13999
 C740 C 1.05530 0.08367 -0.10077
 C741 C 1.05556 0.11147 -0.08032
 C742 C 1.07343 0.13112 -0.09762
 H743 H 1.14226 0.25741 -0.14995
 H744 H 1.11160 0.22317 -0.11942
 H745 H 1.15621 0.15480 -0.18887
 H746 H 1.18722 0.18870 -0.22075
 H747 H 1.10403 0.08966 -0.18654
 H748 H 1.07298 0.05511 -0.15668
 H749 H 1.04265 0.11772 -0.04983
 H750 H 1.07368 0.15220 -0.08053
 C751 C 1.16555 0.67640 0.22430
 C752 C 1.15321 0.65163 0.23789
 C753 C 1.15874 0.63898 0.28098
 C754 C 1.17816 0.65024 0.30904
 C755 C 1.19087 0.67497 0.29522
 C756 C 1.18391 0.68925 0.25369
 N757 N 1.14231 0.61692 0.29768
 N758 N 1.14441 0.60530 0.33815
 C759 C 1.12558 0.58569 0.35543
 C760 C 1.12810 0.57368 0.40057
 C761 C 1.10814 0.55791 0.42146
 C762 C 1.08526 0.55427 0.39753
 C763 C 1.08328 0.56522 0.35125
 C764 C 1.10328 0.58069 0.33028
 H765 H 1.16056 0.68538 0.19048
 H766 H 1.13846 0.64289 0.21572
 H767 H 1.18270 0.64071 0.34267
 H768 H 1.20464 0.68390 0.31933
 H769 H 1.14512 0.57749 0.42041
 H770 H 1.11018 0.54974 0.45725
 H771 H 1.06599 0.56252 0.33176
 H772 H 1.10082 0.58973 0.29531
 C773 C 0.66164 0.18698 0.24083
 C774 C 0.64812 0.16298 0.25502
 C775 C 0.65348 0.14975 0.29787
 C776 C 0.67335 0.16021 0.32577
 C777 C 0.68705 0.18427 0.31143
 C778 C 0.68091 0.19825 0.26935
 N779 N 0.63716 0.12718 0.31347
 N780 N 0.63979 0.11402 0.35239
 C781 C 0.62162 0.09303 0.36775
 C782 C 0.62458 0.07946 0.41148
 C783 C 0.60549 0.06146 0.42994
 C784 C 0.58303 0.05702 0.40498
 C785 C 0.58070 0.06966 0.36005
 C786 C 0.59979 0.08738 0.34155
 H787 H 0.65676 0.19703 0.20784
 H788 H 0.63287 0.15511 0.23322
 H789 H 0.67778 0.15034 0.35915
 H790 H 0.70174 0.19257 0.33417
 H791 H 0.64126 0.08362 0.43212
 H792 H 0.60776 0.05216 0.46479
 H793 H 0.56373 0.06651 0.33977
 H794 H 0.59700 0.09746 0.30759
 C795 C 0.65090 0.71684 -0.17442
 C796 C 0.63726 0.69343 -0.15809
 C797 C 0.64812 0.66634 -0.16170
 C798 C 0.67305 0.66271 -0.18164
 C799 C 0.68667 0.68604 -0.19914
 C800 C 0.67576 0.71372 -0.19650
 N801 N 0.63261 0.64289 -0.14771
 N802 N 0.64133 0.61862 -0.13799
 C803 C 0.62374 0.59637 -0.12669
 C804 C 0.62928 0.57650 -0.09210
 C805 C 0.61045 0.55746 -0.07589
 C806 C 0.58605 0.55787 -0.09489
 C807 C 0.58147 0.57639 -0.13235
 C808 C 0.60000 0.59552 -0.14776
 H809 H 0.64180 0.73738 -0.16832
 H810 H 0.61806 0.69644 -0.14231
 H811 H 0.68160 0.64174 -0.18542
 H812 H 0.70519 0.68168 -0.21683
 H813 H 0.64762 0.57684 -0.07578
 H814 H 0.61460 0.54341 -0.04710
 H815 H 0.56309 0.57710 -0.14845
 H816 H 0.59554 0.61030 -0.17526
 C817 C 0.81135 -0.17412 -0.19992
 C818 C 0.82892 -0.15561 -0.17934
 C819 C 0.85062 -0.16622 -0.15850
 C820 C 0.85415 -0.19568 -0.15667
 C821 C 0.83667 -0.21421 -0.17740
 C822 C 0.81541 -0.20358 -0.20020
 N823 N 0.86941 -0.14659 -0.14243
 N824 N 0.88952 -0.15404 -0.12214
 C825 C 0.90818 -0.13331 -0.10921
 C826 C 0.92734 -0.14013 -0.07789
 C827 C 0.94485 -0.11942 -0.06325
 C828 C 0.94343 -0.09170 -0.08022
 C829 C 0.92489 -0.08555 -0.11349
 C830 C 0.90746 -0.10601 -0.12760
 H831 H 0.79524 -0.16540 -0.21749
 H832 H 0.82606 -0.13289 -0.18094
 H833 H 0.87074 -0.20434 -0.14059
 H834 H 0.84003 -0.23688 -0.17657
 H835 H 0.92828 -0.16124 -0.06385
 H836 H 0.95895 -0.12487 -0.03780
 H837 H 0.92330 -0.06459 -0.12787
 H838 H 0.89320 -0.10031 -0.15258
 C839 C 0.79798 0.33769 0.29656
 C840 C 0.81122 0.36007 0.31884
 C841 C 0.83362 0.35459 0.34253
 C842 C 0.84162 0.32632 0.34670
 C843 C 0.82845 0.30413 0.32484
 C844 C 0.80706 0.30962 0.29808
 N845 N 0.84923 0.37761 0.35885
 N846 N 0.87262 0.37286 0.36577
 C847 C 0.89032 0.39378 0.38149
 C848 C 0.91604 0.38609 0.37986
 C849 C 0.93431 0.40526 0.39518
 C850 C 0.92715 0.43262 0.41323
 C851 C 0.90116 0.44044 0.41500
 C852 C 0.88280 0.42115 0.39885
 H853 H 0.78147 0.34243 0.27624
 H854 H 0.80476 0.38174 0.31555
 H855 H 0.85856 0.32141 0.36567
 H856 H 0.83545 0.28262 0.32764
 H857 H 0.92195 0.36499 0.36665
 H858 H 0.95406 0.39834 0.39373
 H859 H 0.89506 0.46132 0.42894
 H860 H 0.86289 0.42740 0.40053
 C861 C 0.29604 -0.16519 0.29453
 C862 C 0.30943 -0.14224 0.31489
 C863 C 0.33190 -0.14700 0.33888
 C864 C 0.33982 -0.17508 0.34516
 C865 C 0.32637 -0.19787 0.32553
 C866 C 0.30486 -0.19324 0.29842
 N867 N 0.34737 -0.12349 0.35414
 N868 N 0.37103 -0.12751 0.35990
 C869 C 0.38850 -0.10607 0.37519
 C870 C 0.41450 -0.11254 0.37021
 C871 C 0.43257 -0.09320 0.38609
 C872 C 0.42503 -0.06688 0.40827
 C873 C 0.39877 -0.06020 0.41309
 C874 C 0.38058 -0.07962 0.39629
 H875 H 0.27952 -0.16092 0.27392
 H876 H 0.30298 -0.12073 0.30996
 H877 H 0.35677 -0.17942 0.36448
 H878 H 0.33322 -0.21921 0.33059
 H879 H 0.42080 -0.13289 0.35416
 H880 H 0.45250 -0.09932 0.38198
 H881 H 0.39232 -0.04018 0.43023
 H882 H 0.36048 -0.07430 0.40075
 C883 C 0.30020 0.33186 -0.20085
 C884 C 0.31444 0.35455 -0.18249
 C885 C 0.33892 0.34997 -0.16681
 C886 C 0.34882 0.32221 -0.16844
 C887 C 0.33456 0.29945 -0.18596
 C888 C 0.30995 0.30367 -0.20314
 N889 N 0.35378 0.37360 -0.15036
 N890 N 0.37785 0.37103 -0.14877
 C891 C 0.39437 0.39301 -0.13225
 C892 C 0.42051 0.38891 -0.14122
 C893 C 0.43776 0.40871 -0.12406
 C894 C 0.42927 0.43309 -0.09659
 C895 C 0.40282 0.43750 -0.08800
 C896 C 0.38540 0.41760 -0.10603
 H897 H 0.28201 0.33704 -0.21504
 H898 H 0.30665 0.37589 -0.18182
 H899 H 0.36758 0.31802 -0.15560
 H900 H 0.34283 0.27850 -0.18410
 H901 H 0.42757 0.37001 -0.16126
 H902 H 0.45790 0.40436 -0.13144
 H903 H 0.39568 0.45594 -0.06678
 H904 H 0.36514 0.42102 -0.09850
 C905 C 1.15475 -0.22907 0.15066
 C906 C 1.13727 -0.21116 0.13072
 C907 C 1.13697 -0.18221 0.14305
 C908 C 1.15557 -0.17086 0.17310
 C909 C 1.17357 -0.18868 0.19231
 C910 C 1.17274 -0.21831 0.18308
 N911 N 1.11707 -0.16500 0.12602
 N912 N 1.11204 -0.14049 0.14502
 C913 C 1.09226 -0.12286 0.12871
 C914 C 1.08790 -0.09648 0.15244
 C915 C 1.07014 -0.07770 0.13562
 C916 C 1.05639 -0.08501 0.09450
 C917 C 1.05983 -0.11213 0.07203
 C918 C 1.07773 -0.13098 0.08898
 H919 H 1.15423 -0.25144 0.14011
 H920 H 1.12335 -0.22002 0.10678
 H921 H 1.15586 -0.14834 0.18253
 H922 H 1.18685 -0.17933 0.21703
 H923 H 1.09883 -0.09015 0.18330
 H924 H 1.06778 -0.05702 0.15398
 H925 H 1.04961 -0.11824 0.04015
 H926 H 1.08073 -0.15145 0.07026
 C927 C 1.15929 0.33436 0.77773
 C928 C 1.14553 0.35801 0.76472
 C929 C 1.14995 0.36933 0.71901
 C930 C 1.16933 0.35762 0.68706
 C931 C 1.18313 0.33381 0.70002
 C932 C 1.17763 0.32144 0.74490
 N933 N 1.13273 0.39058 0.70427
 N934 N 1.13573 0.40272 0.66399
 C935 C 1.11687 0.42176 0.64793
 C936 C 1.12205 0.43632 0.60535
 C937 C 1.10297 0.45230 0.58552
 C938 C 1.07819 0.45360 0.60772
 C939 C 1.07328 0.43979 0.65145
 C940 C 1.09249 0.42411 0.67155
 H941 H 1.15501 0.32556 0.81294
 H942 H 1.13067 0.36688 0.78962
 H943 H 1.17300 0.36600 0.65139
 H944 H 1.19710 0.32422 0.67403
 H945 H 1.14070 0.43455 0.58668
 H946 H 1.10735 0.46256 0.55163
 H947 H 1.05444 0.44046 0.66945
 H948 H 1.08798 0.41292 0.70444
 C949 C 0.64968 -0.18352 0.76478
 C950 C 0.63456 -0.16122 0.75058
 C951 C 0.64310 -0.14383 0.71339
 C952 C 0.66761 -0.14830 0.69148
 C953 C 0.68297 -0.17065 0.70574
 C954 C 0.67399 -0.18932 0.74180
 N955 N 0.62574 -0.12311 0.69709
 N956 N 0.63137 -0.10605 0.66351
 C957 C 0.61254 -0.08702 0.64680
 C958 C 0.61936 -0.06822 0.61025
 C959 C 0.60078 -0.05135 0.59035
 C960 C 0.57494 -0.05331 0.60635
 C961 C 0.56838 -0.07142 0.64436
 C962 C 0.58694 -0.08803 0.66441
 H963 H 0.64223 -0.19585 0.79458
 H964 H 0.61581 -0.15776 0.76819
 H965 H 0.67459 -0.13510 0.66243
 H966 H 0.70117 -0.17410 0.68613
 H967 H 0.63900 -0.06713 0.59635
 H968 H 0.60655 -0.03745 0.56147
 H969 H 0.54874 -0.07338 0.65789
 H970 H 0.58108 -0.10229 0.69271
 C971 C 0.65203 0.29040 0.18315
 C972 C 0.63676 0.31200 0.16693
 C973 C 0.64318 0.34048 0.17509
 C974 C 0.66505 0.34732 0.20021
 C975 C 0.68010 0.32569 0.21755
 C976 C 0.67376 0.29689 0.20925
 N977 N 0.62641 0.36180 0.15927
 N978 N 0.63283 0.38756 0.15378
 C979 C 0.61433 0.40758 0.13937
 C980 C 0.62202 0.43114 0.11287
 C981 C 0.60374 0.44899 0.09420
 C982 C 0.57753 0.44371 0.10285
 C983 C 0.57010 0.42100 0.13198
 C984 C 0.58825 0.40306 0.14969
 H985 H 0.64684 0.26860 0.17482
 H986 H 0.61991 0.30654 0.14753
 H987 H 0.67011 0.36929 0.20743
 H988 H 0.69639 0.33160 0.23817
 H989 H 0.64212 0.43495 0.10488
 H990 H 0.61008 0.46634 0.07203
 H991 H 0.55015 0.41628 0.13973
 H992 H 0.58187 0.38527 0.17079
 C993 C 0.83854 0.23405 0.15612
 C994 C 0.85778 0.21616 0.13541
 C995 C 0.85933 0.18795 0.14902
 C996 C 0.84046 0.17727 0.18152
 C997 C 0.82093 0.19502 0.20155
 C998 C 0.82023 0.22371 0.18995
 N999 N 0.88060 0.17081 0.13097
 N1000 N 0.88628 0.14809 0.15150
 C1001 C 0.90707 0.12996 0.13468
 C1002 C 0.91211 0.10617 0.16134
 C1003 C 0.93069 0.08651 0.14438
 C1004 C 0.94461 0.09028 0.10014
 C1005 C 0.94042 0.11493 0.07442
 C1006 C 0.92169 0.13468 0.09156
 H1007 H 0.83826 0.25616 0.14670
 H1008 H 0.87209 0.22457 0.11022
 H1009 H 0.84112 0.15541 0.19214
 H1010 H 0.80709 0.18671 0.22779
 H1011 H 0.90105 0.10244 0.19473
 H1012 H 0.93354 0.06781 0.16515
 H1013 H 0.95066 0.11822 0.03997
 H1014 H 0.91810 0.15303 0.07041
 C1015 C 0.82835 0.72152 0.65218
 C1016 C 0.84348 0.70064 0.62778
 C1017 C 0.83838 0.67191 0.63423
 C1018 C 0.81690 0.66411 0.66322
 C1019 C 0.80163 0.68512 0.68778
 C1020 C 0.80784 0.71397 0.68373
 N1021 N 0.85713 0.65168 0.61571
 N1022 N 0.85449 0.62489 0.61734
 C1023 C 0.87552 0.60654 0.60232
 C1024 C 0.87141 0.57773 0.59087
 C1025 C 0.89207 0.55974 0.57673
 C1026 C 0.91714 0.57032 0.57523
 C1027 C 0.92111 0.59913 0.58740
 C1028 C 0.90056 0.61705 0.60047
 H1029 H 0.83331 0.74364 0.64801
 H1030 H 0.86000 0.70683 0.60555
 H1031 H 0.81274 0.64195 0.66883
 H1032 H 0.78596 0.67882 0.71208
 H1033 H 0.85223 0.56930 0.59246
 H1034 H 0.88850 0.53761 0.56742
 H1035 H 0.94014 0.60800 0.58612
 H1036 H 0.90432 0.63914 0.60972
 C1037 C 0.32621 0.19451 0.75622
 C1038 C 0.34145 0.17142 0.73976
 C1039 C 0.33794 0.15799 0.69450
 C1040 C 0.31812 0.16730 0.66638
 C1041 C 0.30268 0.19052 0.68300
 C1042 C 0.30704 0.20479 0.72762
 N1043 N 0.35599 0.13645 0.67736
 N1044 N 0.35493 0.12236 0.63711
 C1045 C 0.37475 0.10235 0.62143
 C1046 C 0.37246 0.08556 0.57872
 C1047 C 0.39238 0.06726 0.56137
 C1048 C 0.41509 0.06580 0.58625
 C1049 C 0.41706 0.08226 0.62953
 C1050 C 0.39713 0.10019 0.64703
 H1051 H 0.32980 0.20481 0.79102
 H1052 H 0.35660 0.16443 0.76181
 H1053 H 0.31509 0.15725 0.63117
 H1054 H 0.28810 0.19807 0.66016
 H1055 H 0.35540 0.08700 0.55843
 H1056 H 0.39035 0.05499 0.52775
 H1057 H 0.43422 0.08155 0.64971
 H1058 H 0.39953 0.11288 0.68006
 C1059 C 0.33934 0.72293 0.17538
 C1060 C 0.35543 0.70195 0.15355
 C1061 C 0.34869 0.67329 0.15505
 C1062 C 0.32556 0.66564 0.17866
 C1063 C 0.30955 0.68658 0.20105
 C1064 C 0.31629 0.71549 0.19976
 N1065 N 0.36653 0.65249 0.13504
 N1066 N 0.36139 0.62621 0.12924
 C1067 C 0.38104 0.60657 0.11197
 C1068 C 0.37486 0.57888 0.09610
 C1069 C 0.39423 0.55958 0.07981
 C1070 C 0.41997 0.56773 0.08041
 C1071 C 0.42589 0.59550 0.09653
 C1072 C 0.40673 0.61466 0.11188
 H1073 H 0.34490 0.74496 0.17295
 H1074 H 0.37332 0.70801 0.13557
 H1075 H 0.32019 0.64354 0.18081
 H1076 H 0.29214 0.68008 0.22023
 H1077 H 0.35510 0.57234 0.09611
 H1078 H 0.38916 0.53835 0.06735
 H1079 H 0.44547 0.60270 0.09684
 H1080 H 0.41211 0.63580 0.12419
   
