data_POSCAR
  _audit_creation_date              2014-09-24
  _audit_creation_method            'ToBaCCo'
  _symmetry_space_group_name_H-M    'P1'
  _symmetry_Int_Tables_number       1
  _symmetry_cell_setting            triclinic
  loop_
  _symmetry_equiv_pos_as_xyz
 x,y,z
_cell_length_a 27.5337
_cell_length_b 30.3482
_cell_length_c 29.8174
_cell_angle_alpha 90.715200
_cell_angle_beta 88.175300
_cell_angle_gamma 90.992700
loop_
  _atom_site_label
  _atom_site_type_symbol
  _atom_site_fract_x
  _atom_site_fract_y
  _atom_site_fract_z
C1 C 0.25304 0.24410 0.25108
 C2 C 0.76913 0.74924 0.25446
 C3 C 0.73810 0.24719 0.77114
 C4 C 0.25343 0.73721 0.73511
 C5 C 0.04473 0.08365 0.01451
 H6 H 0.02009 0.09594 -0.00966
 C7 C 0.07237 0.11353 0.03947
 H8 H 0.06815 0.14855 0.03470
 C9 C 0.08110 0.02349 0.04960
 H10 H 0.08505 -0.01173 0.05274
 C11 C 0.10892 0.05222 0.07575
 H12 H 0.13410 0.03894 0.09904
 N13 N 0.04884 0.03947 0.02043
 C14 C 0.02954 -0.07080 -0.07479
 H15 H -0.00919 -0.07687 -0.07280
 C16 C 0.05866 -0.09721 -0.10300
 H17 H 0.04171 -0.12310 -0.12266
 C18 C 0.09822 -0.02856 -0.05334
 H19 H 0.11365 -0.00144 -0.03449
 C20 C 0.12869 -0.05434 -0.08080
 H21 H 0.16734 -0.04714 -0.08179
 Zn22 Zn 0.00928 -0.00078 -0.01290
 N23 N 0.04955 -0.03710 -0.05067
 C24 C -0.03510 0.02640 -0.09300
 N25 N -0.03452 0.03079 -0.04754
 C26 C -0.06743 0.05617 -0.02466
 C27 C -0.10207 0.07924 -0.04762
 C28 C -0.06997 0.04809 -0.11721
 C29 C -0.02253 -0.03787 0.07118
 C30 C -0.05292 -0.06362 0.09895
 C31 C -0.09968 -0.08406 0.03453
 C32 C -0.06799 -0.05841 0.00787
 N33 N -0.02989 -0.03635 0.02630
 H34 H -0.00880 0.00590 -0.11050
 H35 H -0.06657 0.05851 0.01154
 H36 H -0.12771 0.09979 -0.02914
 H37 H -0.07021 0.04451 -0.15339
 H38 H 0.00645 -0.01895 0.08587
 H39 H -0.04650 -0.06458 0.13457
 H40 H -0.12960 -0.10164 0.01928
 H41 H -0.07442 -0.05540 -0.02750
 C42 C 0.10903 -0.08909 -0.10641
 C43 C 0.10452 0.09788 0.07095
 C44 C -0.09198 -0.08712 0.08060
 C45 C -0.10367 0.07501 -0.09437
 C46 C 0.06276 0.55076 0.51556
 H47 H 0.07272 0.54333 0.48093
 C48 C 0.08845 0.58333 0.53898
 H49 H 0.11851 0.60066 0.52236
 C50 C 0.01041 0.53829 0.57892
 H51 H -0.02077 0.52153 0.59407
 C52 C 0.03455 0.57105 0.60328
 H53 H 0.02257 0.57827 0.63749
 N54 N 0.02512 0.52841 0.53602
 C55 C 0.00808 0.41486 0.44500
 H56 H -0.03073 0.41594 0.44060
 C57 C 0.03580 0.38389 0.42108
 H58 H 0.01831 0.36120 0.39811
 C59 C 0.07811 0.44292 0.48056
 H60 H 0.09436 0.46565 0.50410
 C61 C 0.10705 0.41179 0.45807
 H62 H 0.14567 0.41126 0.46386
 Zn63 Zn -0.01086 0.48669 0.50197
 N64 N 0.02970 0.44448 0.47297
 C65 C -0.03985 0.51193 0.41479
 N66 N -0.04480 0.51909 0.45984
 C67 C -0.07421 0.55105 0.47707
 C68 C -0.10087 0.57685 0.44873
 C69 C -0.06653 0.53649 0.38525
 C70 C -0.03803 0.43453 0.57535
 C71 C -0.06925 0.41067 0.60407
 C72 C -0.13589 0.42807 0.55694
 C73 C -0.10348 0.45242 0.52961
 N74 N -0.05562 0.45539 0.53942
 H75 H -0.01515 0.48744 0.40156
 H76 H -0.07701 0.55631 0.51301
 H77 H -0.12443 0.60199 0.46291
 H78 H -0.06250 0.53045 0.34946
 H79 H 0.00033 0.43702 0.58202
 H80 H -0.05446 0.39575 0.63333
 H81 H -0.17356 0.42530 0.54784
 H82 H -0.11647 0.46822 0.50012
 C83 C 0.08594 0.38237 0.42737
 C84 C 0.07422 0.59387 0.58338
 C85 C -0.11899 0.40686 0.59495
 C86 C -0.09742 0.56936 0.40228
 C87 C 0.54023 0.08433 0.53779
 H88 H 0.51476 0.10033 0.51683
 C89 C 0.56986 0.10985 0.56552
 H90 H 0.56672 0.14537 0.56569
 C91 C 0.57683 0.01901 0.56189
 H92 H 0.57984 -0.01646 0.55976
 C93 C 0.60726 0.04321 0.58985
 H94 H 0.63280 0.02602 0.60993
 N95 N 0.54386 0.03967 0.53679
 C96 C 0.53315 -0.06987 0.44409
 H97 H 0.49583 -0.08060 0.44936
 C98 C 0.56441 -0.09474 0.41648
 H99 H 0.55052 -0.12437 0.40048
 C100 C 0.59573 -0.01694 0.45645
 H101 H 0.60749 0.01397 0.47125
 C102 C 0.62829 -0.04097 0.42953
 H103 H 0.66528 -0.02878 0.42501
 Zn104 Zn 0.50601 0.00386 0.49793
 N105 N 0.54923 -0.03175 0.46343
 C106 C 0.48044 0.03425 0.41319
 N107 N 0.47075 0.03866 0.45806
 C108 C 0.43544 0.06604 0.47409
 C109 C 0.40853 0.09057 0.44448
 C110 C 0.45385 0.05743 0.38250
 C111 C 0.46873 -0.04056 0.57577
 C112 C 0.43745 -0.06906 0.59969
 C113 C 0.39065 -0.07936 0.53314
 C114 C 0.42326 -0.05108 0.51027
 N115 N 0.46170 -0.03263 0.53163
 H116 H 0.50848 0.01232 0.40095
 H117 H 0.42799 0.06857 0.50987
 H118 H 0.38026 0.11199 0.45757
 H119 H 0.46171 0.05319 0.34689
 H120 H 0.49874 -0.02515 0.59263
 H121 H 0.44378 -0.07513 0.63472
 H122 H 0.36059 -0.09418 0.51551
 H123 H 0.41809 -0.04403 0.47529
 C124 C 0.61271 -0.08029 0.40878
 C125 C 0.60394 0.08926 0.59199
 C126 C 0.39797 -0.08903 0.57832
 C127 C 0.41737 0.08593 0.39805
 C128 C 0.55984 0.58792 0.02687
 H129 H 0.56428 0.58863 -0.00930
 C130 C 0.58690 0.61688 0.05336
 H131 H 0.61244 0.63991 0.03762
 C132 C 0.52078 0.55735 0.09166
 H133 H 0.49481 0.53428 0.10646
 C134 C 0.54621 0.58639 0.11930
 H135 H 0.54010 0.58522 0.15533
 N136 N 0.52836 0.55829 0.04638
 C137 C 0.51596 0.44968 -0.05008
 H138 H 0.47690 0.44535 -0.05067
 C139 C 0.54597 0.42192 -0.07588
 H140 H 0.52971 0.39667 -0.09685
 C141 C 0.58455 0.48792 -0.02209
 H142 H 0.59971 0.51290 -0.00037
 C143 C 0.61585 0.46110 -0.04748
 H144 H 0.65474 0.46605 -0.04520
 Zn145 Zn 0.49273 0.51940 0.00940
 N146 N 0.53553 0.48250 -0.02456
 C147 C 0.45542 0.54675 -0.07368
 N148 N 0.45581 0.55459 -0.02866
 C149 C 0.43237 0.58971 -0.00983
 C150 C 0.40734 0.61866 -0.03656
 C151 C 0.43010 0.57436 -0.10148
 C152 C 0.47413 0.45007 0.06809
 C153 C 0.44710 0.42256 0.09695
 C154 C 0.37520 0.46296 0.07999
 C155 C 0.40355 0.48940 0.05094
 N156 N 0.45216 0.48280 0.04596
 H157 H 0.47508 0.51940 -0.08830
 H158 H 0.43379 0.59559 0.02597
 H159 H 0.38897 0.64653 -0.02115
 H160 H 0.43024 0.56775 -0.13726
 H161 H 0.51289 0.44570 0.06361
 H162 H 0.46530 0.39706 0.11476
 H163 H 0.33658 0.46870 0.08389
 H164 H 0.38683 0.51552 0.03293
 C165 C 0.59664 0.42783 -0.07513
 C166 C 0.58001 0.61620 0.10010
 C167 C 0.39705 0.42911 0.10348
 C168 C 0.40593 0.61097 -0.08297
 C169 C 0.18376 -0.25575 -0.20864
 C170 C 0.22185 -0.23545 -0.23468
 C171 C 0.23129 -0.18997 -0.22573
 C172 C 0.20126 -0.16541 -0.19633
 C173 C 0.16214 -0.18618 -0.17290
 C174 C 0.15412 -0.23149 -0.17887
 C175 C 0.13221 -0.16137 -0.14339
 C176 C 0.14077 -0.11579 -0.13726
 C177 C 0.17992 -0.09561 -0.16103
 C178 C 0.21000 -0.12017 -0.18999
 H179 H 0.26255 -0.17306 -0.24063
 H180 H 0.12486 -0.24829 -0.16047
 H181 H 0.10271 -0.17765 -0.12485
 H182 H 0.23981 -0.10360 -0.20785
 H183 H 0.17653 -0.29082 -0.21190
 H184 H 0.18700 -0.06053 -0.15780
 C185 C 0.18042 0.29568 0.25813
 C186 C 0.21453 0.26971 0.27988
 C187 C 0.21002 0.26678 0.32719
 C188 C 0.17781 0.29367 0.35198
 C189 C 0.14630 0.32148 0.32949
 C190 C 0.14700 0.32134 0.28254
 C191 C 0.11515 0.34938 0.35437
 C192 C 0.11630 0.35076 0.40145
 C193 C 0.14753 0.32281 0.42355
 C194 C 0.17756 0.29403 0.39905
 H195 H 0.23154 0.24412 0.34547
 H196 H 0.12252 0.34190 0.26465
 H197 H 0.09123 0.37110 0.33717
 H198 H 0.20149 0.27289 0.41689
 H199 H 0.18091 0.29726 0.22186
 H200 H 0.14859 0.32329 0.45984
 C201 C 0.70382 -0.24480 0.31697
 C202 C 0.73654 -0.22281 0.28693
 C203 C 0.74012 -0.17635 0.29036
 C204 C 0.70931 -0.15274 0.31990
 C205 C 0.67568 -0.17547 0.34826
 C206 C 0.67369 -0.22152 0.34695
 C207 C 0.64469 -0.15179 0.37758
 C208 C 0.64634 -0.10544 0.37854
 C209 C 0.68005 -0.08318 0.35009
 C210 C 0.71145 -0.10659 0.32130
 H211 H 0.76684 -0.15791 0.27070
 H212 H 0.64851 -0.23960 0.36885
 H213 H 0.61954 -0.16949 0.39981
 H214 H 0.73690 -0.08854 0.29965
 H215 H 0.70107 -0.28045 0.31652
 H216 H 0.68167 -0.04753 0.34947
 C217 C 0.67135 0.25742 -0.16841
 C218 C 0.70837 0.27693 -0.19585
 C219 C 0.71903 0.32221 -0.18900
 C220 C 0.68992 0.34798 -0.15988
 C221 C 0.65070 0.32827 -0.13544
 C222 C 0.64239 0.28280 -0.13922
 C223 C 0.62060 0.35433 -0.10749
 C224 C 0.62930 0.39998 -0.10352
 C225 C 0.66908 0.41909 -0.12726
 C226 C 0.69916 0.39334 -0.15514
 H227 H 0.75003 0.33780 -0.20580
 H228 H 0.61324 0.26687 -0.11989
 H229 H 0.59056 0.33912 -0.08869
 H230 H 0.72917 0.40903 -0.17353
 H231 H 0.66395 0.22230 -0.17072
 H232 H 0.67634 0.45422 -0.12500
 C233 C -0.19778 0.23984 -0.17002
 C234 C -0.23216 0.21844 -0.19743
 C235 C -0.23763 0.17217 -0.19403
 C236 C -0.20579 0.14788 -0.16836
 C237 C -0.17051 0.17012 -0.14268
 C238 C -0.16760 0.21610 -0.14296
 C239 C -0.13815 0.14601 -0.11768
 C240 C -0.13939 0.09985 -0.11925
 C241 C -0.17423 0.07777 -0.14494
 C242 C -0.20773 0.10161 -0.16881
 H243 H -0.26581 0.15454 -0.21157
 H244 H -0.14104 0.23372 -0.12319
 H245 H -0.11102 0.16305 -0.09800
 H246 H -0.23437 0.08390 -0.18839
 H247 H -0.19335 0.27535 -0.17065
 H248 H -0.17563 0.04209 -0.14626
 C249 C -0.17412 0.73903 0.31943
 C250 C -0.20253 0.71913 0.28579
 C251 C -0.20615 0.67258 0.28459
 C252 C -0.17948 0.64702 0.31359
 C253 C -0.15050 0.66781 0.34614
 C254 C -0.14843 0.71379 0.34905
 C255 C -0.12413 0.64223 0.37530
 C256 C -0.12558 0.59609 0.37172
 C257 C -0.15406 0.57561 0.33901
 C258 C -0.18120 0.60087 0.31042
 H259 H -0.22980 0.65552 0.26174
 H260 H -0.12667 0.73031 0.37404
 H261 H -0.10185 0.65815 0.40033
 H262 H -0.20320 0.58432 0.28563
 H263 H -0.17146 0.77459 0.32235
 H264 H -0.15577 0.54001 0.33602
 C265 C 0.31687 0.24369 0.31180
 C266 C 0.28920 0.21945 0.28051
 C267 C 0.29859 0.17394 0.27548
 C268 C 0.32918 0.15257 0.30473
 C269 C 0.35259 0.17690 0.33872
 C270 C 0.34717 0.22263 0.34119
 C271 C 0.38127 0.15508 0.36935
 C272 C 0.38761 0.10931 0.36574
 C273 C 0.36543 0.08566 0.33092
 C274 C 0.33632 0.10704 0.30079
 H275 H 0.28254 0.15464 0.24893
 H276 H 0.36599 0.24212 0.36613
 H277 H 0.39899 0.17360 0.39571
 H278 H 0.31893 0.08786 0.27473
 H279 H 0.31316 0.27909 0.31477
 H280 H 0.36992 0.05036 0.32760
 C281 C 0.26657 0.66117 -0.23168
 C282 C 0.27772 0.70709 -0.23396
 C283 C 0.30923 0.72454 -0.20100
 C284 C 0.33213 0.69704 -0.17082
 C285 C 0.32310 0.65117 -0.17230
 C286 C 0.28976 0.63377 -0.20228
 C287 C 0.34705 0.62337 -0.14334
 C288 C 0.37957 0.64086 -0.11223
 C289 C 0.38741 0.68669 -0.10994
 C290 C 0.36409 0.71457 -0.13918
 H291 H 0.31648 0.75975 -0.19945
 H292 H 0.28103 0.59880 -0.20264
 H293 H 0.34022 0.58809 -0.14477
 H294 H 0.37133 0.74974 -0.13727
 H295 H 0.23919 0.64560 -0.25195
 H296 H 0.41245 0.70081 -0.08620
 C297 C -0.14474 -0.22604 0.22444
 C298 C -0.19589 -0.22186 0.22489
 C299 C -0.21562 -0.19280 0.19377
 C300 C -0.18551 -0.16695 0.16546
 C301 C -0.13457 -0.17017 0.16749
 C302 C -0.11464 -0.20002 0.19676
 C303 C -0.10431 -0.14393 0.13977
 C304 C -0.12431 -0.11479 0.10950
 C305 C -0.17506 -0.11226 0.10706
 C306 C -0.20546 -0.13798 0.13501
 H307 H -0.25474 -0.19018 0.19204
 H308 H -0.07561 -0.20370 0.19785
 H309 H -0.06517 -0.14654 0.14129
 H310 H -0.24449 -0.13517 0.13287
 H311 H -0.12710 -0.24986 0.24466
 H312 H -0.19114 -0.08983 0.08402
 C313 C -0.17928 0.26010 0.72892
 C314 C -0.22759 0.27334 0.73851
 C315 C -0.24582 0.30807 0.71309
 C316 C -0.21534 0.33196 0.68321
 C317 C -0.16668 0.31924 0.67589
 C318 C -0.14931 0.28286 0.69829
 C319 C -0.13603 0.34300 0.64625
 C320 C -0.15266 0.38059 0.62469
 C321 C -0.20131 0.39304 0.63228
 C322 C -0.23247 0.36869 0.66088
 H323 H -0.28357 0.31718 0.71757
 H324 H -0.11234 0.27202 0.69227
 H325 H -0.09917 0.33203 0.64002
 H326 H -0.26966 0.37913 0.66624
 H327 H -0.16431 0.23151 0.74431
 H328 H -0.21519 0.42212 0.61679
 C329 C 0.33935 -0.24167 0.70636
 C330 C 0.28833 -0.23528 0.70812
 C331 C 0.27017 -0.20314 0.67894
 C332 C 0.30139 -0.17589 0.65307
 C333 C 0.35208 -0.18094 0.65480
 C334 C 0.37057 -0.21435 0.68089
 C335 C 0.38344 -0.15270 0.63010
 C336 C 0.36468 -0.11966 0.60324
 C337 C 0.31409 -0.11562 0.60088
 C338 C 0.28270 -0.14337 0.62572
 H339 H 0.23126 -0.19870 0.67738
 H340 H 0.40938 -0.21965 0.68138
 H341 H 0.42244 -0.15654 0.63154
 H342 H 0.24382 -0.13914 0.62385
 H343 H 0.35597 -0.26809 0.72394
 H344 H 0.29885 -0.09030 0.58055
 C345 C 0.32086 0.25649 0.19181
 C346 C 0.28599 0.27521 0.22187
 C347 C 0.28441 0.32175 0.22489
 C348 C 0.31268 0.34826 0.19556
 C349 C 0.34556 0.32859 0.16436
 C350 C 0.34999 0.28272 0.16335
 C351 C 0.37333 0.35511 0.13463
 C352 C 0.36803 0.40112 0.13514
 C353 C 0.33521 0.42037 0.16632
 C354 C 0.30809 0.39423 0.19652
 H355 H 0.26134 0.33798 0.24973
 H356 H 0.37548 0.26704 0.14004
 H357 H 0.39838 0.33995 0.11051
 H358 H 0.28310 0.40994 0.22027
 H359 H 0.32451 0.22105 0.18957
 H360 H 0.33100 0.45578 0.16768
 C361 C 0.19398 0.17852 0.24241
 C362 C 0.22245 0.21218 0.22165
 C363 C 0.21784 0.21785 0.17491
 C364 C 0.18959 0.18858 0.14944
 C365 C 0.16419 0.15337 0.17058
 C366 C 0.16610 0.14900 0.21718
 C367 C 0.13672 0.12359 0.14481
 C368 C 0.13369 0.12908 0.09820
 C369 C 0.15840 0.16474 0.07769
 C370 C 0.18624 0.19413 0.10302
 H371 H 0.23528 0.24538 0.15788
 H372 H 0.14592 0.12283 0.23420
 H373 H 0.11711 0.09657 0.16101
 H374 H 0.20532 0.22109 0.08625
 H375 H 0.19429 0.17457 0.27844
 H376 H 0.15674 0.16948 0.04183
 C377 C 0.25142 0.68261 0.67145
 C378 C 0.22596 0.71210 0.70082
 C379 C 0.17555 0.71693 0.69375
 C380 C 0.15080 0.68870 0.66420
 C381 C 0.17677 0.65730 0.63817
 C382 C 0.22722 0.65554 0.64101
 C383 C 0.15176 0.62757 0.61039
 C384 C 0.10082 0.62802 0.60923
 C385 C 0.07531 0.66001 0.63448
 C386 C 0.10011 0.69042 0.66133
 H387 H 0.15472 0.74193 0.71141
 H388 H 0.24792 0.63227 0.62062
 H389 H 0.17171 0.60287 0.59116
 H390 H 0.07949 0.71440 0.68088
 H391 H 0.29035 0.67911 0.67365
 H392 H 0.03606 0.66126 0.63363
 C393 C 0.65573 0.23234 0.73308
 C394 C 0.70457 0.22059 0.73942
 C395 C 0.72432 0.18737 0.71096
 C396 C 0.69519 0.16366 0.68098
 C397 C 0.64582 0.17439 0.67739
 C398 C 0.62668 0.20911 0.70314
 C399 C 0.61642 0.15046 0.64786
 C400 C 0.63563 0.11550 0.62197
 C401 C 0.68498 0.10526 0.62552
 C402 C 0.71455 0.12923 0.65463
 H403 H 0.76247 0.17957 0.71270
 H404 H 0.58922 0.21866 0.69984
 H405 H 0.57834 0.15843 0.64573
 H406 H 0.75243 0.12062 0.65676
 H407 H 0.63955 0.26020 0.75037
 H408 H 0.70080 0.07884 0.60550
 C409 C 0.76240 0.69558 0.18789
 C410 C 0.73843 0.72237 0.22051
 C411 C 0.68735 0.72576 0.21836
 C412 C 0.66099 0.70001 0.18802
 C413 C 0.68567 0.67214 0.15701
 C414 C 0.73643 0.67072 0.15674
 C415 C 0.65905 0.64585 0.12718
 C416 C 0.60806 0.64623 0.12902
 C417 C 0.58380 0.67410 0.15983
 C418 C 0.61007 0.70123 0.18875
 H419 H 0.66727 0.74828 0.23988
 H420 H 0.75606 0.64990 0.13287
 H421 H 0.67779 0.62408 0.10355
 H422 H 0.59054 0.72244 0.21232
 H423 H 0.80163 0.69331 0.18720
 H424 H 0.54446 0.67479 0.16147
   
