data_POSCAR
  _audit_creation_date              2014-09-24
  _audit_creation_method            'ToBaCCo'
  _symmetry_space_group_name_H-M    'P1'
  _symmetry_Int_Tables_number       1
  _symmetry_cell_setting            triclinic
  loop_
  _symmetry_equiv_pos_as_xyz
 x,y,z
_cell_length_a 22.7150
_cell_length_b 22.2246
_cell_length_c 21.6970
_cell_angle_alpha 91.279700
_cell_angle_beta 91.511600
_cell_angle_gamma 92.794500
loop_
  _atom_site_label
  _atom_site_type_symbol
  _atom_site_fract_x
  _atom_site_fract_y
  _atom_site_fract_z
C1 C 0.19617 0.19843 0.26989
 N2 N 0.24776 0.17370 0.25654
 C3 C 0.27448 0.18420 0.20242
 N4 N 0.24772 0.21841 0.15998
 C5 C 0.19635 0.24512 0.17296
 N6 N 0.17096 0.23566 0.22854
 C7 C -0.19004 0.78247 0.25389
 N8 N -0.23943 0.81237 0.24071
 C9 C -0.27724 0.79219 0.19391
 N10 N -0.26627 0.74096 0.16169
 C11 C -0.21891 0.70886 0.17736
 N12 N -0.18070 0.73033 0.22249
 C13 C -0.20725 0.19508 -0.30784
 N14 N -0.20399 0.25580 -0.29699
 C15 C -0.22032 0.27909 -0.24180
 N16 N -0.24307 0.24176 -0.19890
 C17 C -0.24625 0.18135 -0.20928
 N18 N -0.22608 0.15808 -0.26275
 C19 C 0.17013 0.80330 -0.22445
 N20 N 0.15508 0.76405 -0.17992
 C21 C 0.19575 0.74864 -0.13676
 N22 N 0.25103 0.77512 -0.13626
 C23 C 0.26662 0.81297 -0.18211
 N24 N 0.22623 0.82608 -0.22631
 C25 C 0.20818 1.22402 0.75600
 N26 N 0.17803 1.26751 0.78430
 C27 C 0.20338 1.29939 0.83311
 N28 N 0.25673 1.28456 0.85626
 C29 C 0.28461 1.23780 0.83134
 N30 N 0.26137 1.20904 0.77993
 C31 C 0.83000 0.81232 0.73694
 N32 N 0.84401 0.77163 0.78004
 C33 C 0.81428 0.76890 0.83344
 N34 N 0.76910 0.80535 0.84272
 C35 C 0.75315 0.84407 0.79889
 N36 N 0.78430 0.84844 0.74643
 C37 C 0.20900 0.80881 1.27970
 N38 N 0.24074 0.83012 1.23202
 C39 C 0.23402 0.80396 1.17510
 N40 N 0.19734 0.75403 1.16648
 C41 C 0.16810 0.73045 1.21502
 N42 N 0.17261 0.75901 1.27103
 C43 C 0.83117 1.18677 1.28035
 N44 N 0.77890 1.15460 1.28468
 C45 C 0.73366 1.16428 1.24417
 N46 N 0.74152 1.20496 1.19880
 C47 C 0.79315 1.23771 1.19534
 N48 N 0.83735 1.22849 1.23626
 O49 O 0.54576 0.96321 0.88202
 O50 O 0.41741 0.92482 1.06377
 O51 O 0.60944 0.94159 1.06236
 O52 O 0.41587 0.94150 0.95504
 O53 O 0.52268 0.89925 1.07608
 O54 O 0.44339 0.99236 0.87955
 O55 O 0.35149 0.98761 1.03063
 O56 O 0.62221 0.96892 0.94822
 C57 C 0.59760 0.95047 0.89706
 C58 C 0.36346 0.93906 1.06121
 C59 C 0.57751 0.89893 1.08273
 C60 C 0.41947 0.94546 0.89876
 O61 O 0.48041 1.10309 0.92223
 O62 O 0.54614 0.99946 1.14219
 O63 O 0.61868 1.08610 0.98836
 O64 O 0.42200 1.08171 1.04749
 O65 O 0.44588 1.02985 1.12407
 O66 O 0.58207 1.07070 0.89932
 O67 O 0.39587 1.06130 0.94148
 O68 O 0.60222 1.05798 1.08943
 Co69 Co 0.51151 1.03104 0.90655
 Co70 Co 0.48519 0.96800 1.09184
 Co71 Co 0.60411 1.01245 1.02013
 Co72 Co 0.42266 1.01154 1.00247
 O73 O 0.51028 1.00914 1.00325
 C74 C 0.42581 1.10627 0.92317
 C75 C 0.58415 1.04178 1.13963
 C76 C 0.62239 1.09273 0.93283
 C77 C 0.42494 1.07648 1.10406
 O78 O 0.03058 0.40122 0.09475
 O79 O 0.03559 0.58929 -0.07910
 O80 O 0.01116 0.40061 -0.10748
 O81 O 0.00190 0.59406 0.09731
 O82 O 0.04933 0.48884 -0.10891
 O83 O 0.04572 0.51301 0.11442
 O84 O 0.06190 0.57733 0.01072
 O85 O 0.04455 0.36827 -0.00064
 C86 C 0.05806 0.36938 0.05615
 C87 C 0.07461 0.59758 -0.03899
 C88 C 0.05500 0.43430 -0.11501
 C89 C 0.04057 0.56775 0.12695
 O90 O -0.07468 0.52245 0.11992
 O91 O -0.07094 0.47084 -0.12863
 O92 O -0.06430 0.35196 0.02714
 O93 O -0.03639 0.64073 -0.01102
 O94 O -0.08010 0.57378 -0.07800
 O95 O -0.08748 0.41868 0.09445
 O96 O -0.09646 0.56331 0.03467
 O97 O -0.09687 0.39278 -0.07442
 Co98 Co -0.02055 0.46551 0.09720
 Co99 Co -0.01742 0.52512 -0.08971
 Co100 Co -0.02531 0.38795 -0.03540
 Co101 Co -0.01826 0.56804 0.01858
 O102 O -0.01935 0.48162 0.00047
 C103 C -0.11058 0.55057 0.08746
 C104 C -0.10450 0.42492 -0.12013
 C105 C -0.09732 0.36934 0.06802
 C106 C -0.07413 0.62848 -0.05720
 O107 O 1.13527 0.07580 0.49280
 O108 O 0.88229 0.01449 0.53671
 O109 O 0.99704 0.03566 0.38248
 O110 O 1.04245 0.10296 0.60042
 O111 O 0.93347 0.05700 0.44892
 O112 O 1.11824 0.05509 0.60740
 O113 O 0.94628 0.08105 0.56622
 O114 O 1.10258 0.03050 0.40575
 C115 C 1.12836 0.07545 0.43469
 C116 C 0.89336 0.06541 0.56090
 C117 C 0.95700 0.06783 0.39975
 C118 C 1.09608 0.10386 0.61081
 O119 O 1.11627 -0.05611 0.58955
 O120 O 0.88931 -0.04926 0.42682
 O121 O 1.08069 -0.08865 0.43665
 O122 O 0.94619 -0.03494 0.61073
 O123 O 0.93601 -0.08618 0.52410
 O124 O 1.15134 -0.03677 0.47964
 O125 O 1.04677 -0.01662 0.64544
 O126 O 0.97779 -0.08214 0.41619
 Co127 Co 1.12072 0.00907 0.53950
 Co128 Co 0.93948 -0.01431 0.48544
 Co129 Co 1.03801 -0.02347 0.41874
 Co130 Co 0.99767 0.03096 0.59914
 O131 O 1.02601 0.00303 0.51354
 C132 C 1.08371 -0.05714 0.63601
 C133 C 0.92423 -0.08402 0.39728
 C134 C 1.13412 -0.08090 0.44711
 C135 C 0.93257 -0.08378 0.58147
 C136 C 1.16885 0.18221 0.32448
 C137 C 1.12780 0.21494 0.35449
 C138 C 1.11256 0.18154 0.40437
 C139 C 1.14386 0.13003 0.39999
 O140 O 1.17833 0.13046 0.35176
 H141 H 1.11065 0.25754 0.34137
 H142 H 1.07890 0.19116 0.43709
 C143 C 0.85299 -0.19412 0.29656
 C144 C 0.90501 -0.22204 0.30810
 C145 C 0.93712 -0.18416 0.34705
 C146 C 0.90267 -0.13573 0.35743
 O147 O 0.85109 -0.14144 0.32690
 H148 H 0.91868 -0.26443 0.28905
 H149 H 0.98100 -0.19084 0.36555
 C150 C 0.81234 0.17044 0.63701
 C151 C 0.82504 0.20313 0.58535
 C152 C 0.84893 0.16343 0.54553
 C153 C 0.84933 0.10931 0.57551
 O154 O 0.82704 0.11356 0.63119
 H155 H 0.82041 0.25082 0.57879
 H156 H 0.86953 0.17421 0.50245
 C157 C 1.12487 -0.16921 0.73759
 C158 C 1.06622 -0.16879 0.75248
 C159 C 1.04285 -0.12642 0.71596
 C160 C 1.08868 -0.10514 0.68077
 O161 O 1.13853 -0.13082 0.69382
 H162 H 1.04427 -0.19307 0.78872
 H163 H 0.99819 -0.11158 0.71611
 C164 C 0.32892 1.15941 1.19182
 C165 C 0.36447 1.13941 1.23886
 C166 C 0.40967 1.11340 1.21076
 C167 C 0.39833 1.11786 1.14827
 O168 O 0.34953 1.14684 1.13639
 H169 H 0.35721 1.14169 1.28796
 H170 H 0.44393 1.08881 1.23310
 C171 C 0.32053 0.84503 0.81976
 C172 C 0.34327 0.87426 0.76951
 C173 C 0.38809 0.91120 0.79265
 C174 C 0.38859 0.90283 0.85543
 O175 O 0.34842 0.86174 0.87211
 H176 H 0.32674 0.87166 0.72221
 H177 H 0.41381 0.94431 0.76755
 C178 C 0.67237 0.82317 1.18018
 C179 C 0.64269 0.85465 1.22381
 C180 C 0.59730 0.87846 1.19239
 C181 C 0.60359 0.86222 1.13119
 O182 O 0.64942 0.82818 1.12356
 H183 H 0.65296 0.85969 1.27272
 H184 H 0.56663 0.90896 1.21148
 C185 C 0.73203 1.14335 0.83552
 C186 C 0.74916 1.08534 0.84265
 C187 C 0.71575 1.06310 0.88856
 C188 C 0.67894 1.10820 0.90470
 O189 O 0.68901 1.15742 0.87261
 H190 H 0.78158 1.06186 0.81693
 H191 H 0.71486 1.01732 0.90430
 C192 C 0.16780 0.28108 0.12466
 C193 C 0.18756 0.28214 0.06516
 C194 C 0.14936 0.31558 0.03340
 C195 C 0.10896 0.33385 0.07537
 O196 O 0.11975 0.31271 0.13138
 H197 H 0.22461 0.25959 0.04659
 H198 H 0.15008 0.32462 -0.01527
 C199 C -0.19906 0.34013 -0.22199
 C200 C -0.18675 0.38714 -0.26078
 C201 C -0.15403 0.42900 -0.22556
 C202 C -0.14815 0.40389 -0.16821
 O203 O -0.17576 0.35032 -0.16602
 H204 H -0.19663 0.38871 -0.30977
 H205 H -0.13267 0.47024 -0.24127
 C206 C 0.17840 0.70383 -0.09126
 C207 C 0.20917 0.69087 -0.03784
 C208 C 0.17459 0.64780 -0.00983
 C209 C 0.12625 0.63754 -0.04913
 O210 O 0.12848 0.67145 -0.09808
 H211 H 0.25093 0.71114 -0.02087
 H212 H 0.18317 0.62698 0.03390
 C213 C -0.20804 0.65140 0.14570
 C214 C -0.24646 0.62186 0.10372
 C215 C -0.21648 0.57473 0.08134
 C216 C -0.16241 0.57836 0.11204
 O217 O -0.15709 0.62517 0.15084
 H218 H -0.28965 0.63510 0.08868
 H219 H -0.23038 0.54434 0.04348
 C220 C 1.18826 0.19954 0.69933
 C221 C 1.22579 0.18672 0.65271
 C222 C 1.19089 0.16052 0.60722
 C223 C 1.13456 0.15631 0.63002
 O224 O 1.13267 0.18161 0.68593
 H225 H 1.27324 0.19430 0.65255
 H226 H 1.20635 0.13954 0.56564
 C227 C 0.86509 -0.17941 0.68594
 C228 C 0.90680 -0.21822 0.66612
 C229 C 0.93449 -0.18945 0.61913
 C230 C 0.90846 -0.13495 0.61514
 O231 O 0.86629 -0.12885 0.65517
 H232 H 0.91704 -0.26132 0.68489
 H233 H 0.97212 -0.20418 0.59432
 C234 C 1.20966 -0.15858 0.33503
 C235 C 1.25452 -0.11775 0.35386
 C236 C 1.23398 -0.08884 0.40409
 C237 C 1.17731 -0.11269 0.41109
 O238 O 1.16269 -0.15585 0.36975
 H239 H 1.29612 -0.10835 0.33193
 H240 H 1.25546 -0.05061 0.42876
 C241 C 0.88135 0.17021 0.31250
 C242 C 0.93795 0.18949 0.29745
 C243 C 0.97419 0.15331 0.32868
 C244 C 0.93736 0.11681 0.36239
 O245 O 0.88097 0.12645 0.35260
 H246 H 0.95107 0.22218 0.26355
 H247 H 1.02132 0.15160 0.32497
 C248 C 0.17644 0.34908 -0.14305
 C249 C 0.20487 0.39365 -0.10632
 C250 C 0.16331 0.43421 -0.09506
 C251 C 0.11266 0.41051 -0.12458
 O252 O 0.12033 0.35903 -0.15399
 H253 H 0.25038 0.39635 -0.08997
 H254 H 0.16830 0.47449 -0.06601
 C255 C -0.19505 0.27503 0.14637
 C256 C -0.23035 0.28053 0.09415
 C257 C -0.19751 0.31628 0.05611
 C258 C -0.14551 0.33002 0.08868
 O259 O -0.14395 0.30548 0.14318
 H260 H -0.27363 0.25947 0.08417
 H261 H -0.20991 0.33081 0.01050
 C262 C -0.16766 0.73167 -0.12020
 C263 C -0.18884 0.73258 -0.06106
 C264 C -0.15554 0.69389 -0.02939
 C265 C -0.11788 0.67162 -0.07199
 O266 O -0.12480 0.69426 -0.12709
 H267 H -0.22283 0.75980 -0.04269
 H268 H -0.15802 0.68331 0.01891
 C269 C 0.13413 0.67281 0.20808
 C270 C 0.13465 0.62807 0.25115
 C271 C 0.10066 0.58124 0.22555
 C272 C 0.08110 0.60174 0.16960
 O273 O 0.10152 0.65708 0.15856
 H274 H 0.15810 0.62913 0.29526
 H275 H 0.09038 0.53795 0.24559
 C276 C 0.33832 1.21726 0.86135
 C277 C 0.38366 1.25516 0.88480
 C278 C 0.42324 1.21812 0.91033
 C279 C 0.39814 1.16067 0.90201
 O280 O 0.34664 1.15985 0.87207
 H281 H 0.38738 1.30382 0.88314
 H282 H 0.46490 1.23133 0.93329
 C283 C 0.26272 0.83337 1.12297
 C284 C 0.24197 0.82888 1.06264
 C285 C 0.27666 0.86905 1.03137
 C286 C 0.31623 0.89439 1.07492
 O287 O 0.30797 0.87297 1.13051
 H288 H 0.20463 0.80145 1.04427
 H289 H 0.27370 0.87862 0.98272
 C290 C 0.68101 1.12330 1.23980
 C291 C 0.66339 1.08075 1.28186
 C292 C 0.61912 1.04615 1.25207
 C293 C 0.61404 1.07016 1.19418
 O294 O 0.65101 1.11687 1.18724
 H295 H 0.68279 1.07356 1.32702
 H296 H 0.59699 1.00573 1.26869
 C297 C 0.70072 0.87844 0.80764
 C298 C 0.66386 0.89475 0.76020
 C299 C 0.61837 0.92073 0.78830
 C300 C 0.63136 0.91894 0.85077
 O301 O 0.68142 0.89320 0.86277
 H302 H 0.66908 0.88756 0.71119
 H303 H 0.58112 0.94064 0.76592
   
