data_POSCAR
  _audit_creation_date              2014-09-24
  _audit_creation_method            'ToBaCCo'
  _symmetry_space_group_name_H-M    'P1'
  _symmetry_Int_Tables_number       1
  _symmetry_cell_setting            triclinic
  loop_
  _symmetry_equiv_pos_as_xyz
 x,y,z
_cell_length_a 62.2757
_cell_length_b 62.9855
_cell_length_c 59.9610
_cell_angle_alpha 89.348000
_cell_angle_beta 90.819700
_cell_angle_gamma 90.151500
loop_
  _atom_site_label
  _atom_site_type_symbol
  _atom_site_fract_x
  _atom_site_fract_y
  _atom_site_fract_z
N1 N 0.59983 0.65812 0.61400
 N2 N 0.58858 0.64625 0.62772
 C3 C 0.57104 0.65703 0.63387
 C4 C 0.57132 0.67679 0.62349
 C5 C 0.58988 0.67690 0.61102
 H6 H 0.55911 0.65101 0.64526
 H7 H 0.59554 0.68955 0.60025
 Cu8 Cu 0.59781 0.61789 0.63654
 Cu9 Cu 0.62607 0.64802 0.60041
 Cu10 Cu 0.64650 0.60072 0.62113
 N11 N 0.61163 0.59374 0.65114
 N12 N 0.63070 0.58723 0.64522
 C13 C 0.63651 0.57054 0.65810
 C14 C 0.62017 0.56621 0.67306
 C15 C 0.60460 0.58139 0.66801
 H16 H 0.65157 0.56226 0.65652
 H17 H 0.58936 0.58358 0.67604
 N18 N 0.66003 0.61680 0.59673
 N19 N 0.65234 0.63494 0.58888
 C20 C 0.66481 0.64179 0.57209
 C21 C 0.68114 0.62722 0.56915
 C22 C 0.67755 0.61161 0.58513
 H23 H 0.66191 0.65607 0.56236
 H24 H 0.68696 0.59744 0.58808
 H25 H 0.62125 0.61573 0.60443
 H26 H 0.63385 0.63018 0.62847
 N27 N 0.89631 0.33941 0.12149
 N28 N 0.90853 0.35079 0.13482
 C29 C 0.92740 0.34080 0.13811
 C30 C 0.92697 0.32186 0.12639
 C31 C 0.90681 0.32160 0.11610
 H32 H 0.94017 0.34674 0.14872
 H33 H 0.90016 0.30958 0.10528
 Cu34 Cu 0.89777 0.37675 0.14782
 Cu35 Cu 0.86761 0.34859 0.11229
 Cu36 Cu 0.85897 0.40250 0.11960
 N37 N 0.88705 0.40388 0.15796
 N38 N 0.87165 0.41382 0.14690
 C39 C 0.86707 0.43201 0.15734
 C40 C 0.88024 0.43354 0.17610
 C41 C 0.89276 0.41537 0.17589
 H42 H 0.85504 0.44324 0.15161
 H43 H 0.90484 0.41066 0.18807
 N44 N 0.84187 0.38511 0.09881
 N45 N 0.84467 0.36450 0.09657
 C46 C 0.83033 0.35716 0.08150
 C47 C 0.81778 0.37397 0.07387
 C48 C 0.82560 0.39144 0.08533
 H49 H 0.82947 0.34083 0.07623
 H50 H 0.81987 0.40759 0.08414
 H51 H 0.88019 0.37812 0.11129
 H52 H 0.86072 0.37345 0.13420
 N53 N 0.39932 0.15658 -0.11385
 N54 N 0.41074 0.14494 -0.12732
 C55 C 0.42845 0.15583 -0.13319
 C56 C 0.42809 0.17541 -0.12290
 C57 C 0.40932 0.17531 -0.11078
 H58 H 0.44055 0.15000 -0.14431
 H59 H 0.40356 0.18776 -0.10016
 Cu60 Cu 0.40147 0.11673 -0.13611
 Cu61 Cu 0.37282 0.14627 -0.10067
 Cu62 Cu 0.35258 0.09910 -0.12107
 N63 N 0.38782 0.09266 -0.15058
 N64 N 0.36872 0.08589 -0.14471
 C65 C 0.36306 0.06933 -0.15749
 C66 C 0.37948 0.06544 -0.17226
 C67 C 0.39496 0.08061 -0.16733
 H68 H 0.34809 0.06075 -0.15603
 H69 H 0.41015 0.08299 -0.17550
 N70 N 0.33870 0.11494 -0.09714
 N71 N 0.34631 0.13304 -0.08946
 C72 C 0.33349 0.13984 -0.07312
 C73 C 0.31700 0.12528 -0.07032
 C74 C 0.32087 0.10972 -0.08588
 H75 H 0.33623 0.15411 -0.06366
 H76 H 0.31140 0.09560 -0.08884
 H77 H 0.37765 0.11402 -0.10427
 H78 H 0.36530 0.12868 -0.12861
 N79 N 0.10119 0.83920 0.38251
 N80 N 0.09069 0.84950 0.36664
 C81 C 0.07308 0.83829 0.36085
 C82 C 0.07248 0.81980 0.37372
 C83 C 0.09076 0.82100 0.38723
 H84 H 0.06169 0.84324 0.34809
 H85 H 0.09590 0.80983 0.40000
 Cu86 Cu 0.10107 0.87652 0.35495
 Cu87 Cu 0.12692 0.85071 0.39677
 Cu88 Cu 0.14555 0.89911 0.37675
 N89 N 0.11266 0.90291 0.34290
 N90 N 0.12972 0.91192 0.35186
 C91 C 0.13418 0.92992 0.34051
 C92 C 0.11922 0.93224 0.32337
 C93 C 0.10582 0.91477 0.32538
 H94 H 0.14766 0.94025 0.34408
 H95 H 0.09208 0.91105 0.31490
 N96 N 0.15944 0.88360 0.40172
 N97 N 0.15258 0.86501 0.40911
 C98 C 0.16547 0.85849 0.42605
 C99 C 0.18123 0.87370 0.42956
 C100 C 0.17686 0.88938 0.41378
 H101 H 0.16333 0.84389 0.43540
 H102 H 0.18581 0.90389 0.41113
 H103 H 0.12016 0.88226 0.39019
 H104 H 0.13690 0.86822 0.36940
 C105 C 0.10212 0.12882 0.14054
 C106 C 0.08679 0.14508 0.14042
 C107 C 0.08752 0.16152 0.12441
 C108 C 0.10386 0.16168 0.10848
 C109 C 0.11916 0.14538 0.10822
 C110 C 0.11825 0.12883 0.12425
 C111 C 0.10157 0.11254 0.15667
 C112 C 0.11675 0.09608 0.15656
 C113 C 0.13255 0.09596 0.14006
 C114 C 0.13347 0.11228 0.12398
 C115 C 0.14941 0.11235 0.10771
 C116 C 0.15044 0.12879 0.09168
 C117 C 0.13526 0.14528 0.09209
 H118 H 0.07435 0.14507 0.15289
 H119 H 0.10438 0.17428 0.09604
 H120 H 0.08919 0.11252 0.16921
 H121 H 0.14437 0.08335 0.14002
 H122 H 0.16123 0.09975 0.10769
 H123 H 0.13578 0.15786 0.07962
 C124 C 0.39815 0.87296 0.64476
 C125 C 0.41386 0.85703 0.64495
 C126 C 0.41318 0.84074 0.62912
 C127 C 0.39666 0.84057 0.61290
 C128 C 0.38095 0.85648 0.61237
 C129 C 0.38164 0.87271 0.62838
 C130 C 0.39854 0.88901 0.66081
 C131 C 0.38261 0.90480 0.66077
 C132 C 0.36638 0.90457 0.64422
 C133 C 0.36580 0.88868 0.62805
 C134 C 0.34956 0.88845 0.61161
 C135 C 0.34883 0.87239 0.59551
 C136 C 0.36457 0.85641 0.59607
 H137 H 0.42644 0.85709 0.65763
 H138 H 0.39621 0.82817 0.60051
 H139 H 0.41099 0.88896 0.67363
 H140 H 0.35424 0.91689 0.64385
 H141 H 0.33729 0.90062 0.61152
 H142 H 0.36424 0.84409 0.58359
 C143 C 0.89549 0.62751 0.35768
 C144 C 0.91158 0.64313 0.35818
 C145 C 0.91084 0.65968 0.37366
 C146 C 0.89392 0.66044 0.38888
 C147 C 0.87788 0.64476 0.38882
 C148 C 0.87859 0.62828 0.37309
 C149 C 0.89595 0.61122 0.34194
 C150 C 0.87967 0.59572 0.34128
 C151 C 0.86301 0.59646 0.35683
 C152 C 0.86242 0.61257 0.37277
 C153 C 0.84592 0.61317 0.38842
 C154 C 0.84528 0.62934 0.40438
 C155 C 0.86123 0.64520 0.40432
 H156 H 0.92452 0.64263 0.34630
 H157 H 0.89344 0.67309 0.40098
 H158 H 0.90875 0.61084 0.32988
 H159 H 0.85061 0.58436 0.35665
 H160 H 0.83347 0.60112 0.38810
 H161 H 0.86094 0.65762 0.41668
 C162 C 0.60196 0.37224 -0.14263
 C163 C 0.58619 0.35629 -0.14260
 C164 C 0.58677 0.33989 -0.12651
 C165 C 0.60321 0.33966 -0.11020
 C166 C 0.61898 0.35559 -0.10988
 C167 C 0.61842 0.37190 -0.12620
 C168 C 0.60163 0.38842 -0.15891
 C169 C 0.61764 0.40421 -0.15910
 C170 C 0.63390 0.40384 -0.14259
 C171 C 0.63436 0.38786 -0.12613
 C172 C 0.65053 0.38756 -0.10962
 C173 C 0.65108 0.37150 -0.09314
 C174 C 0.63527 0.35551 -0.09346
 H175 H 0.57366 0.35642 -0.15534
 H176 H 0.60356 0.32719 -0.09759
 H177 H 0.58917 0.38850 -0.17172
 H178 H 0.64610 0.41615 -0.14245
 H179 H 0.66287 0.39973 -0.10975
 H180 H 0.63543 0.34317 -0.08071
 C181 C -0.02450 0.27466 0.12422
 C182 C -0.02050 0.29413 0.13464
 C183 C -0.03646 0.30966 0.13542
 C184 C -0.05683 0.30626 0.12549
 C185 C -0.06061 0.28676 0.11475
 C186 C -0.04473 0.27115 0.11429
 C187 C -0.00777 0.25800 0.12388
 N188 N -0.01304 0.23756 0.11929
 N189 N 0.00193 0.22251 0.11926
 C190 C 0.02283 0.22728 0.12370
 N191 N 0.02813 0.24774 0.12819
 N192 N 0.01312 0.26278 0.12834
 C193 C 0.03944 0.21049 0.12379
 C194 C 0.06134 0.21578 0.12258
 C195 C 0.07697 0.19988 0.12261
 C196 C 0.07101 0.17841 0.12419
 C197 C 0.04916 0.17310 0.12552
 C198 C 0.03352 0.18897 0.12517
 H199 H -0.00507 0.29731 0.14250
 H200 H -0.03255 0.32435 0.14370
 H201 H -0.07592 0.28321 0.10693
 H202 H -0.04830 0.25633 0.10602
 H203 H 0.06641 0.23221 0.12145
 H204 H 0.09374 0.20436 0.12170
 H205 H 0.04417 0.15664 0.12655
 H206 H 0.01679 0.18436 0.12619
 C207 C 0.52411 0.72645 0.62741
 C208 C 0.54518 0.73109 0.62078
 C209 C 0.56050 0.71498 0.61951
 C210 C 0.55515 0.69390 0.62505
 C211 C 0.53415 0.68930 0.63191
 C212 C 0.51878 0.70537 0.63297
 C213 C 0.50773 0.74345 0.62829
 N214 N 0.48660 0.73857 0.63055
 N215 N 0.47184 0.75381 0.63103
 C216 C 0.47757 0.77459 0.62937
 N217 N 0.49870 0.77947 0.62721
 N218 N 0.51346 0.76422 0.62664
 C219 C 0.46110 0.79152 0.62965
 C220 C 0.46711 0.81294 0.63191
 C221 C 0.45154 0.82890 0.63196
 C222 C 0.42967 0.82381 0.62953
 C223 C 0.42364 0.80243 0.62730
 C224 C 0.43917 0.78645 0.62747
 H225 H 0.54983 0.74715 0.61635
 H226 H 0.57657 0.71910 0.61436
 H227 H 0.52945 0.67321 0.63614
 H228 H 0.50271 0.70124 0.63819
 H229 H 0.48384 0.81740 0.63367
 H230 H 0.45662 0.84528 0.63354
 H231 H 0.40687 0.79806 0.62562
 H232 H 0.43398 0.77013 0.62568
 C233 C 1.02465 0.77158 0.37330
 C234 C 1.02179 0.79031 0.36073
 C235 C 1.03763 0.80606 0.36063
 C236 C 1.05667 0.80369 0.37343
 C237 C 1.05940 0.78483 0.38605
 C238 C 1.04367 0.76894 0.38583
 C239 C 1.00781 0.75494 0.37341
 N240 N 1.01248 0.73475 0.37998
 N241 N 0.99731 0.71979 0.38005
 C242 C 0.97682 0.72445 0.37372
 N243 N 0.97214 0.74466 0.36722
 N244 N 0.98733 0.75958 0.36700
 C245 C 0.95994 0.70786 0.37385
 C246 C 0.93811 0.71348 0.37379
 C247 C 0.92217 0.69782 0.37397
 C248 C 0.92773 0.67624 0.37386
 C249 C 0.94952 0.67058 0.37380
 C250 C 0.96548 0.68623 0.37398
 H251 H 1.00733 0.79277 0.35080
 H252 H 1.03458 0.82020 0.35071
 H253 H 1.07373 0.78203 0.39602
 H254 H 1.04633 0.75468 0.39574
 H255 H 0.93333 0.73000 0.37378
 H256 H 0.90546 0.70256 0.37387
 H257 H 0.95419 0.65403 0.37385
 H258 H 0.98215 0.68139 0.37396
 C259 C 0.47559 0.22519 -0.12596
 C260 C 0.45440 0.22968 -0.11983
 C261 C 0.43899 0.21353 -0.11886
 C262 C 0.44437 0.19256 -0.12420
 C263 C 0.46549 0.18810 -0.13058
 C264 C 0.48096 0.20421 -0.13134
 C265 C 0.49204 0.24224 -0.12652
 N266 N 0.51320 0.23746 -0.12828
 N267 N 0.52801 0.25276 -0.12849
 C268 C 0.52229 0.27349 -0.12703
 N269 N 0.50112 0.27827 -0.12535
 N270 N 0.48632 0.26296 -0.12506
 C271 C 0.53879 0.29049 -0.12707
 C272 C 0.53283 0.31192 -0.12957
 C273 C 0.54841 0.32794 -0.12954
 C274 C 0.57025 0.32290 -0.12678
 C275 C 0.57622 0.30152 -0.12424
 C276 C 0.56068 0.28548 -0.12449
 H277 H 0.44971 0.24565 -0.11557
 H278 H 0.42282 0.21755 -0.11409
 H279 H 0.47022 0.17210 -0.13465
 H280 H 0.49712 0.20021 -0.13618
 H281 H 0.51612 0.31634 -0.13164
 H282 H 0.54337 0.34432 -0.13135
 H283 H 0.59297 0.29719 -0.12230
 H284 H 0.56583 0.26915 -0.12250
 C285 C 0.11680 -0.01816 0.27340
 C286 C 0.12652 -0.01455 0.29432
 C287 C 0.12735 -0.03067 0.31051
 C288 C 0.11819 -0.05065 0.30627
 C289 C 0.10823 -0.05419 0.28547
 C290 C 0.10768 -0.03817 0.26915
 C291 C 0.11632 -0.00121 0.25608
 N292 N 0.11218 -0.00588 0.23438
 N293 N 0.11202 0.00933 0.21877
 C294 C 0.11586 0.02988 0.22422
 N295 N 0.11990 0.03457 0.24593
 N296 N 0.12019 0.01934 0.26153
 C297 C 0.11581 0.04680 0.20686
 C298 C 0.11434 0.06826 0.21281
 C299 C 0.11441 0.08424 0.19644
 C300 C 0.11623 0.07909 0.17382
 C301 C 0.11776 0.05767 0.16784
 C302 C 0.11739 0.04167 0.18418
 H303 H 0.13374 0.00067 0.29811
 H304 H 0.13497 -0.02740 0.32645
 H305 H 0.10118 -0.06947 0.28162
 H306 H 0.10001 -0.04144 0.25323
 H307 H 0.11304 0.07274 0.23011
 H308 H 0.11337 0.10066 0.20147
 H309 H 0.11903 0.05331 0.15049
 H310 H 0.11861 0.02529 0.17905
 C311 C 0.61865 0.51771 -0.27705
 C312 C 0.63677 0.52051 -0.29044
 C313 C 0.63725 0.53639 -0.30687
 C314 C 0.61961 0.55009 -0.31037
 C315 C 0.60146 0.54722 -0.29685
 C316 C 0.60098 0.53123 -0.28048
 C317 C 0.61829 0.50083 -0.25961
 N318 N 0.60016 0.49664 -0.24799
 N319 N 0.59991 0.48146 -0.23233
 C320 C 0.61781 0.46986 -0.22758
 N321 N 0.63592 0.47408 -0.23919
 N322 N 0.63615 0.48921 -0.25487
 C323 C 0.61765 0.45302 -0.21009
 C324 C 0.63678 0.44263 -0.20374
 C325 C 0.63674 0.42684 -0.18719
 C326 C 0.61757 0.42098 -0.17668
 C327 C 0.59841 0.43125 -0.18308
 C328 C 0.59846 0.44715 -0.19956
 H329 H 0.65068 0.51037 -0.28830
 H330 H 0.65163 0.53780 -0.31664
 H331 H 0.58743 0.55718 -0.29879
 H332 H 0.58675 0.52954 -0.27044
 H333 H 0.65185 0.44671 -0.21149
 H334 H 0.65170 0.41902 -0.18279
 H335 H 0.58343 0.42718 -0.17512
 H336 H 0.58344 0.45480 -0.20405
 C337 C 0.38120 1.01708 0.77738
 C338 C 0.36192 1.02204 0.78802
 C339 C 0.36139 1.03769 0.80431
 C340 C 0.38012 1.04884 0.81038
 C341 C 0.39942 1.04393 0.79971
 C342 C 0.39996 1.02821 0.78342
 C343 C 0.38165 1.00039 0.76013
 N344 N 0.40029 0.99503 0.75014
 N345 N 0.40059 0.98002 0.73465
 C346 C 0.38227 0.96975 0.72849
 N347 N 0.36366 0.97513 0.73848
 N348 N 0.36335 0.99011 0.75396
 C349 C 0.38249 0.95307 0.71122
 C350 C 0.36330 0.94302 0.70453
 C351 C 0.36339 0.92739 0.68821
 C352 C 0.38266 0.92138 0.67818
 C353 C 0.40188 0.93132 0.68490
 C354 C 0.40180 0.94702 0.70122
 H355 H 0.34714 1.01383 0.78379
 H356 H 0.34618 1.04112 0.81195
 H357 H 0.41420 1.05205 0.80403
 H358 H 0.41510 1.02480 0.77559
 H359 H 0.34814 0.94721 0.71190
 H360 H 0.34837 0.91980 0.68361
 H361 H 0.41695 0.92716 0.67731
 H362 H 0.41687 0.95443 0.70594
 C363 C 0.88071 0.48282 0.22544
 C364 C 0.89820 0.46891 0.22371
 C365 C 0.89807 0.45294 0.20769
 C366 C 0.88050 0.45060 0.19294
 C367 C 0.86308 0.46460 0.19457
 C368 C 0.86315 0.48048 0.21066
 C369 C 0.88068 0.49959 0.24260
 N370 N 0.86287 0.51150 0.24588
 N371 N 0.86277 0.52649 0.26136
 C372 C 0.88048 0.53026 0.27420
 N373 N 0.89831 0.51838 0.27090
 N374 N 0.89840 0.50335 0.25545
 C375 C 0.88032 0.54696 0.29144
 C376 C 0.89926 0.55247 0.30306
 C377 C 0.89908 0.56831 0.31922
 C378 C 0.87992 0.57887 0.32420
 C379 C 0.86098 0.57332 0.31266
 C380 C 0.86118 0.55759 0.29642
 H381 H 0.91200 0.47025 0.23481
 H382 H 0.91184 0.44257 0.20680
 H383 H 0.84920 0.46317 0.18364
 H384 H 0.84941 0.49092 0.21150
 H385 H 0.91429 0.54461 0.29965
 H386 H 0.91387 0.57213 0.32801
 H387 H 0.84604 0.58137 0.31598
 H388 H 0.84629 0.55377 0.28781
 C389 C 0.26601 0.12697 -0.02239
 C390 C 0.27049 0.10825 -0.03395
 C391 C 0.28694 0.10774 -0.04953
 C392 C 0.29938 0.12593 -0.05392
 C393 C 0.29487 0.14468 -0.04240
 C394 C 0.27837 0.14520 -0.02684
 C395 C 0.24865 0.12741 -0.00571
 N396 N 0.24382 0.14560 0.00508
 N397 N 0.22831 0.14592 0.02015
 C398 C 0.21697 0.12806 0.02509
 N399 N 0.22179 0.10989 0.01427
 N400 N 0.23728 0.10957 -0.00080
 C401 C 0.19981 0.12833 0.04199
 C402 C 0.18877 0.10958 0.04769
 C403 C 0.17275 0.10976 0.06376
 C404 C 0.16735 0.12868 0.07448
 C405 C 0.17828 0.14746 0.06873
 C406 C 0.19435 0.14728 0.05269
 H407 H 0.26132 0.09389 -0.03094
 H408 H 0.29001 0.09295 -0.05789
 H409 H 0.30395 0.15905 -0.04546
 H410 H 0.27536 0.15992 -0.01828
 H411 H 0.19250 0.09470 0.03976
 H412 H 0.16441 0.09509 0.06763
 H413 H 0.17463 0.16224 0.07689
 H414 H 0.20254 0.16201 0.04874
 C415 C 0.73076 0.62864 0.51965
 C416 C 0.71886 0.64699 0.52417
 C417 C 0.70279 0.64656 0.54023
 C418 C 0.69828 0.62779 0.55220
 C419 C 0.71025 0.60947 0.54772
 C420 C 0.72625 0.60988 0.53164
 C421 C 0.74772 0.62894 0.50252
 N422 N 0.75844 0.61091 0.49748
 N423 N 0.77363 0.61108 0.48208
 C424 C 0.77879 0.62930 0.47104
 N425 N 0.76808 0.64735 0.47608
 N426 N 0.75286 0.64717 0.49148
 C427 C 0.79574 0.62940 0.45391
 C428 C 0.80188 0.64840 0.44320
 C429 C 0.81794 0.64842 0.42712
 C430 C 0.82814 0.62942 0.42134
 C431 C 0.82198 0.61044 0.43200
 C432 C 0.80599 0.61042 0.44810
 H433 H 0.72192 0.66172 0.51528
 H434 H 0.69404 0.66102 0.54334
 H435 H 0.70715 0.59466 0.55641
 H436 H 0.73507 0.59543 0.52861
 H437 H 0.79432 0.66330 0.44723
 H438 H 0.82222 0.66326 0.41902
 H439 H 0.82975 0.59560 0.42811
 H440 H 0.80172 0.59550 0.45601
 C441 C 0.76678 0.37272 0.02430
 C442 C 0.77400 0.39205 0.03320
 C443 C 0.79046 0.39244 0.04928
 C444 C 0.80013 0.37350 0.05691
 C445 C 0.79283 0.35415 0.04805
 C446 C 0.77637 0.35377 0.03194
 C447 C 0.74944 0.37239 0.00708
 N448 N 0.74280 0.35383 -0.00210
 N449 N 0.72732 0.35360 -0.01766
 C450 C 0.71780 0.37191 -0.02471
 N451 N 0.72442 0.39046 -0.01550
 N452 N 0.73990 0.39069 0.00004
 C453 C 0.70063 0.37173 -0.04212
 C454 C 0.69057 0.39071 -0.04897
 C455 C 0.67450 0.39060 -0.06547
 C456 C 0.66810 0.37152 -0.07553
 C457 C 0.67810 0.35252 -0.06865
 C458 C 0.69418 0.35262 -0.05214
 H459 H 0.76702 0.40697 0.02770
 H460 H 0.79560 0.40768 0.05553
 H461 H 0.79972 0.33921 0.05352
 H462 H 0.77119 0.33858 0.02549
 H463 H 0.69505 0.40571 -0.04158
 H464 H 0.66688 0.40546 -0.07017
 H465 H 0.67370 0.33760 -0.07628
 H466 H 0.70162 0.33771 -0.04733
 C467 C 0.23212 0.87292 0.47917
 C468 C 0.22054 0.85432 0.47427
 C469 C 0.20405 0.85456 0.45819
 C470 C 0.19877 0.87340 0.44659
 C471 C 0.21039 0.89198 0.45146
 C472 C 0.22683 0.89175 0.46757
 C473 C 0.24954 0.87273 0.49631
 N474 N 0.26022 0.89087 0.50158
 N475 N 0.27581 0.89075 0.51702
 C476 C 0.28142 0.87249 0.52785
 N477 N 0.27075 0.85434 0.52257
 N478 N 0.25514 0.85447 0.50714
 C479 C 0.29874 0.87241 0.54509
 C480 C 0.30500 0.85339 0.55582
 C481 C 0.32129 0.85337 0.57211
 C482 C 0.33163 0.87236 0.57810
 C483 C 0.32541 0.89136 0.56738
 C484 C 0.30918 0.89138 0.55105
 H485 H 0.22418 0.83952 0.48286
 H486 H 0.19561 0.83990 0.45478
 H487 H 0.20670 0.90683 0.44305
 H488 H 0.23538 0.90639 0.47092
 H489 H 0.29731 0.83848 0.55168
 H490 H 0.32557 0.83852 0.58027
 H491 H 0.33328 0.90620 0.57144
 H492 H 0.30482 0.90632 0.54312
   
