data_POSCAR
  _audit_creation_date              2014-09-24
  _audit_creation_method            'ToBaCCo'
  _symmetry_space_group_name_H-M    'P1'
  _symmetry_Int_Tables_number       1
  _symmetry_cell_setting            triclinic
  loop_
  _symmetry_equiv_pos_as_xyz
 x,y,z
_cell_length_a 38.0006
_cell_length_b 40.4505
_cell_length_c 38.6842
_cell_angle_alpha 85.912900
_cell_angle_beta 95.242700
_cell_angle_gamma 94.338900
loop_
  _atom_site_label
  _atom_site_type_symbol
  _atom_site_fract_x
  _atom_site_fract_y
  _atom_site_fract_z
C1 C 0.21888 0.28108 0.28085
 C2 C 0.24284 0.30237 0.25691
 C3 C 0.26198 0.28410 0.23811
 C4 C 0.25557 0.24633 0.24484
 C5 C 0.19595 0.25788 0.25689
 C6 C 0.21526 0.23974 0.23810
 C7 C 0.24369 0.25847 0.30337
 C8 C 0.26283 0.24032 0.28443
 H9 H 0.24442 0.32937 0.25490
 H10 H 0.27124 0.23152 0.22947
 H11 H 0.16718 0.25580 0.25514
 H12 H 0.24565 0.25669 0.33163
 C13 C 0.71927 0.78114 0.28110
 C14 C 0.74326 0.80236 0.25714
 C15 C 0.76235 0.78404 0.23835
 C16 C 0.75586 0.74628 0.24509
 C17 C 0.69628 0.75796 0.25715
 C18 C 0.71554 0.73976 0.23837
 C19 C 0.74402 0.75848 0.30362
 C20 C 0.76311 0.74027 0.28469
 H21 H 0.74487 0.82936 0.25509
 H22 H 0.77149 0.73143 0.22973
 H23 H 0.66751 0.75594 0.25541
 H24 H 0.74594 0.75666 0.33189
 C25 C 0.72012 0.28264 0.78000
 C26 C 0.74286 0.30289 0.75743
 C27 C 0.76295 0.28377 0.73773
 C28 C 0.75679 0.24798 0.74404
 C29 C 0.69707 0.25934 0.75610
 C30 C 0.71642 0.24118 0.73730
 C31 C 0.74471 0.25980 0.80266
 C32 C 0.76388 0.24163 0.78369
 H33 H 0.74441 0.32990 0.75542
 H34 H 0.77245 0.23311 0.72870
 H35 H 0.66829 0.25717 0.75447
 H36 H 0.74644 0.25785 0.83092
 C37 C 0.21888 0.78119 0.78047
 C38 C 0.24285 0.80244 0.75652
 C39 C 0.26198 0.78414 0.73775
 C40 C 0.25553 0.74637 0.74450
 C41 C 0.19593 0.75798 0.75654
 C42 C 0.21522 0.73980 0.73777
 C43 C 0.24366 0.75857 0.80302
 C44 C 0.26278 0.74039 0.78409
 H45 H 0.24449 0.82944 0.75452
 H46 H 0.27118 0.73153 0.72915
 H47 H 0.16715 0.75589 0.75483
 H48 H 0.24560 0.75680 0.83128
 C49 C 0.05639 0.04511 0.00934
 H50 H 0.05656 0.04784 -0.01867
 C51 C 0.07770 0.06694 0.03007
 H52 H 0.09447 0.08650 0.01805
 C53 C 0.03349 0.01701 0.05929
 H54 H 0.01565 -0.00192 0.07059
 C55 C 0.05435 0.03830 0.08094
 H56 H 0.05277 0.03544 0.10882
 N57 N 0.03501 0.02062 0.02418
 C58 C 0.01375 -0.05360 -0.05316
 H59 H -0.01491 -0.05568 -0.05519
 C60 C 0.03209 -0.07327 -0.07263
 H61 H 0.01757 -0.09050 -0.08983
 C62 C 0.06780 -0.02895 -0.02794
 H63 H 0.08164 -0.01203 -0.01014
 C64 C 0.08716 -0.04817 -0.04692
 H65 H 0.11585 -0.04575 -0.04393
 Zn66 Zn 0.00495 -0.00638 -0.00578
 N67 N 0.03174 -0.03171 -0.03167
 C68 C -0.02335 0.02283 -0.07090
 N69 N -0.02277 0.02256 -0.03562
 C70 C -0.04129 0.04403 -0.02014
 C71 C -0.06217 0.06635 -0.04027
 C72 C -0.04394 0.04480 -0.09203
 C73 C -0.00901 -0.05974 0.04260
 C74 C -0.02950 -0.08166 0.06346
 C75 C -0.08187 -0.05626 0.03718
 C76 C -0.06043 -0.03479 0.01686
 N77 N -0.02461 -0.03643 0.02041
 H78 H -0.00783 0.00615 -0.08272
 H79 H -0.03991 0.04363 0.00794
 H80 H -0.07705 0.08316 -0.02770
 H81 H -0.04447 0.04478 -0.12007
 H82 H 0.01947 -0.06081 0.04453
 H83 H -0.01683 -0.09964 0.08163
 H84 H -0.11030 -0.05438 0.03468
 H85 H -0.07246 -0.01673 -0.00151
 C86 C 0.06913 -0.07044 -0.06953
 C87 C 0.07658 0.06352 0.06618
 C88 C -0.06624 -0.07966 0.06094
 C89 C -0.06361 0.06665 -0.07653
 C90 C 0.05602 0.54419 0.51019
 H91 H 0.05612 0.54689 0.48217
 C92 C 0.07733 0.56609 0.53083
 H93 H 0.09404 0.58565 0.51874
 C94 C 0.03327 0.51614 0.56024
 H95 H 0.01549 0.49720 0.57161
 C96 C 0.05415 0.53750 0.58180
 H97 H 0.05264 0.53468 0.60970
 N98 N 0.03470 0.51970 0.52512
 C99 C 0.01344 0.44542 0.44783
 H100 H -0.01521 0.44330 0.44583
 C101 C 0.03180 0.42580 0.42832
 H102 H 0.01729 0.40858 0.41110
 C103 C 0.06748 0.47013 0.47302
 H104 H 0.08131 0.48705 0.49082
 C105 C 0.08685 0.45097 0.45399
 H106 H 0.11554 0.45343 0.45695
 Zn107 Zn 0.00463 0.49264 0.49523
 N108 N 0.03142 0.46732 0.46932
 C109 C -0.02375 0.52180 0.43011
 N110 N -0.02314 0.52155 0.46539
 C111 C -0.04164 0.54302 0.48088
 C112 C -0.06255 0.56533 0.46076
 C113 C -0.04437 0.54376 0.40899
 C114 C -0.00930 0.43934 0.54372
 C115 C -0.02980 0.41743 0.56459
 C116 C -0.08218 0.44275 0.53820
 C117 C -0.06072 0.46421 0.51787
 N118 N -0.02491 0.46260 0.52147
 H119 H -0.00824 0.50512 0.41828
 H120 H -0.04022 0.54264 0.50897
 H121 H -0.07741 0.58214 0.47334
 H122 H -0.04494 0.54372 0.38095
 H123 H 0.01918 0.43829 0.54568
 H124 H -0.01713 0.39948 0.58280
 H125 H -0.11060 0.44461 0.53566
 H126 H -0.07276 0.48224 0.49946
 C127 C 0.06883 0.42870 0.43137
 C128 C 0.07630 0.56273 0.56696
 C129 C -0.06654 0.41940 0.56201
 C130 C -0.06403 0.56561 0.42451
 C131 C 0.55729 0.04543 0.50983
 H132 H 0.55739 0.04811 0.48181
 C133 C 0.57864 0.06731 0.53045
 H134 H 0.59538 0.08684 0.51835
 C135 C 0.53451 0.01744 0.55989
 H136 H 0.51670 -0.00146 0.57127
 C137 C 0.55543 0.03879 0.58144
 H138 H 0.55392 0.03599 0.60934
 N139 N 0.53594 0.02098 0.52477
 C140 C 0.51450 -0.05338 0.44758
 H141 H 0.48585 -0.05544 0.44560
 C142 C 0.53279 -0.07309 0.42812
 H143 H 0.51824 -0.09034 0.41097
 C144 C 0.56860 -0.02871 0.47268
 H145 H 0.58248 -0.01177 0.49044
 C146 C 0.58791 -0.04797 0.45371
 H147 H 0.61660 -0.04557 0.45665
 Zn148 Zn 0.50581 -0.00606 0.49490
 N149 N 0.53254 -0.03146 0.46901
 C150 C 0.47736 0.02302 0.42978
 N151 N 0.47806 0.02285 0.46505
 C152 C 0.45959 0.04435 0.48054
 C153 C 0.43862 0.06660 0.46042
 C154 C 0.45668 0.04492 0.40865
 C155 C 0.49182 -0.05933 0.54342
 C156 C 0.47128 -0.08125 0.56424
 C157 C 0.41895 -0.05589 0.53781
 C158 C 0.44044 -0.03443 0.51752
 N159 N 0.47625 -0.03605 0.52116
 H160 H 0.49285 0.00632 0.41795
 H161 H 0.46107 0.04402 0.50863
 H162 H 0.42376 0.08342 0.47299
 H163 H 0.45602 0.04481 0.38061
 H164 H 0.52030 -0.06040 0.54541
 H165 H 0.48393 -0.09923 0.58245
 H166 H 0.39052 -0.05403 0.53522
 H167 H 0.42843 -0.01640 0.49910
 C168 C 0.56983 -0.07027 0.43116
 C169 C 0.57761 0.06398 0.56658
 C170 C 0.43454 -0.07927 0.56161
 C171 C 0.43704 0.06679 0.42416
 C172 C 0.55662 0.54508 0.00972
 H173 H 0.55679 0.54784 -0.01829
 C174 C 0.57788 0.56693 0.03046
 H175 H 0.59463 0.58652 0.01845
 C176 C 0.53375 0.51691 0.05964
 H177 H 0.51594 0.49795 0.07093
 C178 C 0.55458 0.53821 0.08131
 H179 H 0.55300 0.53532 0.10919
 N180 N 0.53527 0.52056 0.02454
 C181 C 0.51422 0.44642 -0.05293
 H182 H 0.48556 0.44428 -0.05498
 C183 C 0.53263 0.42687 -0.07246
 H184 H 0.51817 0.40966 -0.08972
 C185 C 0.56820 0.47114 -0.02763
 H186 H 0.58198 0.48803 -0.00977
 C187 C 0.58763 0.45204 -0.04666
 H188 H 0.61632 0.45453 -0.04366
 Zn189 Zn 0.50527 0.49354 -0.00546
 N190 N 0.53215 0.46829 -0.03138
 C191 C 0.47692 0.52275 -0.07057
 N192 N 0.47752 0.52247 -0.03529
 C193 C 0.45898 0.54390 -0.01978
 C194 C 0.43802 0.56618 -0.03988
 C195 C 0.45626 0.54469 -0.09167
 C196 C 0.49129 0.44016 0.04291
 C197 C 0.47076 0.41823 0.06375
 C198 C 0.41841 0.44358 0.03733
 C199 C 0.43989 0.46504 0.01703
 N200 N 0.47571 0.46344 0.02067
 H201 H 0.49247 0.50611 -0.08241
 H202 H 0.46038 0.54349 0.00831
 H203 H 0.42311 0.58294 -0.02729
 H204 H 0.45568 0.54466 -0.11972
 H205 H 0.51977 0.43910 0.04490
 H206 H 0.48342 0.40028 0.08196
 H207 H 0.38999 0.44545 0.03477
 H208 H 0.42787 0.48309 -0.00137
 C209 C 0.56967 0.42980 -0.06935
 C210 C 0.57676 0.56348 0.06657
 C211 C 0.43402 0.42022 0.06114
 C212 C 0.43654 0.56648 -0.07614
 C213 C 0.12244 -0.12597 -0.16612
 C214 C 0.16338 -0.12484 -0.16470
 C215 C 0.16126 -0.16300 -0.16247
 C216 C 0.12062 -0.16445 -0.16421
 C217 C 0.12505 -0.12710 -0.12620
 C218 C 0.12292 -0.16526 -0.12396
 C219 C 0.16569 -0.12566 -0.12446
 C220 C 0.16387 -0.16413 -0.12254
 C221 C 0.18152 -0.18289 -0.18266
 C222 C 0.19831 -0.19915 -0.19929
 C223 C 0.10499 -0.10700 -0.10599
 C224 C 0.08859 -0.09038 -0.08937
 H225 H 0.10517 -0.11006 -0.18382
 H226 H 0.18025 -0.10845 -0.18167
 H227 H 0.10233 -0.18063 -0.18078
 H228 H 0.10606 -0.18165 -0.10698
 H229 H 0.18399 -0.10948 -0.10789
 H230 H 0.18114 -0.18004 -0.10485
 C231 C 0.12296 0.37425 0.33454
 C232 C 0.16391 0.37481 0.33665
 C233 C 0.16115 0.33666 0.33806
 C234 C 0.12052 0.33578 0.33563
 C235 C 0.12486 0.37235 0.37447
 C236 C 0.12210 0.33419 0.37588
 C237 C 0.16549 0.37321 0.37689
 C238 C 0.16305 0.33475 0.37799
 C239 C 0.18147 0.31687 0.31779
 C240 C 0.19829 0.30069 0.30113
 C241 C 0.10475 0.39232 0.39475
 C242 C 0.08832 0.40885 0.41144
 H243 H 0.10625 0.39071 0.31690
 H244 H 0.18133 0.39128 0.32030
 H245 H 0.10226 0.32016 0.31843
 H246 H 0.10468 0.31772 0.39223
 H247 H 0.18376 0.38883 0.39408
 H248 H 0.17977 0.31829 0.39562
 C249 C 0.62370 -0.12527 0.33455
 C250 C 0.66464 -0.12484 0.33665
 C251 C 0.66176 -0.16299 0.33820
 C252 C 0.62113 -0.16375 0.33579
 C253 C 0.62563 -0.12703 0.37448
 C254 C 0.62275 -0.16519 0.37603
 C255 C 0.66626 -0.12629 0.37688
 C256 C 0.66369 -0.16475 0.37812
 C257 C 0.68199 -0.18291 0.31799
 C258 C 0.69874 -0.19919 0.30135
 C259 C 0.60561 -0.10691 0.39469
 C260 C 0.58925 -0.09026 0.41131
 H261 H 0.60703 -0.10882 0.31687
 H262 H 0.68209 -0.10847 0.32022
 H263 H 0.60281 -0.17938 0.31866
 H264 H 0.60529 -0.18156 0.39246
 H265 H 0.68459 -0.11066 0.39400
 H266 H 0.68036 -0.18121 0.39580
 C267 C 0.62322 0.37489 -0.16623
 C268 C 0.66418 0.37623 -0.16483
 C269 C 0.66226 0.33807 -0.16274
 C270 C 0.62161 0.33643 -0.16445
 C271 C 0.62586 0.37364 -0.12629
 C272 C 0.62393 0.33548 -0.12419
 C273 C 0.66650 0.37527 -0.12459
 C274 C 0.66489 0.33681 -0.12280
 C275 C 0.68262 0.31835 -0.18302
 C276 C 0.69948 0.30221 -0.19970
 C277 C 0.60569 0.39354 -0.10599
 C278 C 0.58922 0.41001 -0.08929
 H279 H 0.60586 0.39077 -0.18386
 H280 H 0.68096 0.39275 -0.18177
 H281 H 0.60340 0.32022 -0.18107
 H282 H 0.60715 0.31895 -0.10726
 H283 H 0.68473 0.39147 -0.10797
 H284 H 0.68225 0.32093 -0.10518
 C285 C -0.15942 0.14458 -0.11971
 C286 C -0.14761 0.18038 -0.13287
 C287 C -0.16872 0.17454 -0.16797
 C288 C -0.18086 0.13907 -0.15507
 C289 C -0.12683 0.13204 -0.13408
 C290 C -0.14792 0.12616 -0.16918
 C291 C -0.11468 0.16751 -0.14698
 C292 C -0.13615 0.16203 -0.18240
 C293 C -0.19237 0.19833 -0.18608
 C294 C -0.21214 0.21802 -0.20023
 C295 C -0.10386 0.10852 -0.11444
 C296 C -0.08532 0.08934 -0.09754
 H297 H -0.16875 0.13716 -0.09372
 H298 H -0.14774 0.20293 -0.11814
 H299 H -0.20833 0.12764 -0.15860
 H300 H -0.14778 0.10359 -0.18388
 H301 H -0.08721 0.17894 -0.14343
 H302 H -0.12686 0.16949 -0.20839
 C303 C -0.12030 0.64935 0.33191
 C304 C -0.15954 0.64118 0.31866
 C305 C -0.16930 0.67338 0.33311
 C306 C -0.13047 0.68193 0.34603
 C307 C -0.12736 0.63094 0.36699
 C308 C -0.13715 0.66314 0.38138
 C309 C -0.16620 0.62239 0.35406
 C310 C -0.17631 0.65494 0.36818
 C311 C -0.19301 0.69713 0.31498
 C312 C -0.21283 0.71675 0.30081
 C313 C -0.10435 0.60745 0.38661
 C314 C -0.08577 0.58828 0.40350
 H315 H -0.09700 0.64677 0.31722
 H316 H -0.16902 0.63244 0.29266
 H317 H -0.11604 0.70668 0.34252
 H318 H -0.12770 0.67192 0.40738
 H319 H -0.18063 0.59765 0.35757
 H320 H -0.19959 0.65750 0.38291
 C321 C 0.34061 0.14408 0.38112
 C322 C 0.35210 0.17992 0.36782
 C323 C 0.33093 0.17387 0.33281
 C324 C 0.31909 0.13836 0.34585
 C325 C 0.37324 0.13173 0.36666
 C326 C 0.35208 0.12564 0.33165
 C327 C 0.38510 0.16724 0.35363
 C328 C 0.36355 0.16155 0.31830
 C329 C 0.30703 0.19745 0.31470
 C330 C 0.28705 0.21694 0.30055
 C331 C 0.39644 0.10840 0.38628
 C332 C 0.41515 0.08935 0.40316
 H333 H 0.33142 0.13665 0.40716
 H334 H 0.35186 0.20249 0.38250
 H335 H 0.29168 0.12674 0.34244
 H336 H 0.35234 0.10305 0.31700
 H337 H 0.41250 0.17885 0.35705
 H338 H 0.37269 0.16902 0.29224
 C339 C 0.37104 0.63979 -0.17310
 C340 C 0.33003 0.63679 -0.17427
 C341 C 0.33071 0.67380 -0.16748
 C342 C 0.37132 0.67721 -0.16662
 C343 C 0.37290 0.63156 -0.13361
 C344 C 0.37355 0.66858 -0.12684
 C345 C 0.33229 0.62819 -0.13450
 C346 C 0.33261 0.66554 -0.12800
 C347 C 0.30688 0.69744 -0.18560
 C348 C 0.28695 0.71697 -0.19977
 C349 C 0.39604 0.60817 -0.11400
 C350 C 0.41470 0.58908 -0.09713
 H351 H 0.38711 0.62892 -0.19142
 H352 H 0.31186 0.62399 -0.19399
 H353 H 0.38709 0.69763 -0.18004
 H354 H 0.39170 0.68140 -0.10713
 H355 H 0.31649 0.60778 -0.12108
 H356 H 0.31656 0.67637 -0.10965
 C357 C -0.12405 -0.13559 0.16621
 C358 C -0.16422 -0.13168 0.16656
 C359 C -0.17066 -0.16969 0.16956
 C360 C -0.13081 -0.17390 0.16958
 C361 C -0.12904 -0.13662 0.12643
 C362 C -0.13544 -0.17464 0.12937
 C363 C -0.16889 -0.13245 0.12645
 C364 C -0.17568 -0.17074 0.12978
 C365 C -0.19417 -0.18723 0.19383
 C366 C -0.21382 -0.20076 0.21401
 C367 C -0.10622 -0.11732 0.10270
 C368 C -0.08780 -0.10059 0.08349
 H369 H -0.10257 -0.12093 0.18094
 H370 H -0.17630 -0.11420 0.18210
 H371 H -0.11543 -0.19115 0.18759
 H372 H -0.12333 -0.19207 0.11380
 H373 H -0.18431 -0.11519 0.10847
 H374 H -0.19718 -0.18540 0.11508
 C375 C -0.12458 0.36342 0.66717
 C376 C -0.16475 0.36735 0.66743
 C377 C -0.17122 0.32935 0.67039
 C378 C -0.13137 0.32512 0.67049
 C379 C -0.12948 0.36243 0.62738
 C380 C -0.13590 0.32441 0.63029
 C381 C -0.16933 0.36662 0.62732
 C382 C -0.17615 0.32833 0.63061
 C383 C -0.19479 0.31181 0.69459
 C384 C -0.21449 0.29825 0.71473
 C385 C -0.10659 0.38173 0.60371
 C386 C -0.08813 0.39846 0.58453
 H387 H -0.10312 0.37806 0.68195
 H388 H -0.17686 0.38483 0.68295
 H389 H -0.11604 0.30784 0.68853
 H390 H -0.12376 0.30698 0.61474
 H391 H -0.18470 0.38389 0.60931
 H392 H -0.19763 0.31370 0.61585
 C393 C 0.37580 -0.13502 0.66646
 C394 C 0.33551 -0.13147 0.66620
 C395 C 0.32945 -0.16951 0.66946
 C396 C 0.36942 -0.17336 0.67008
 C397 C 0.37140 -0.13635 0.62670
 C398 C 0.36539 -0.17440 0.62990
 C399 C 0.33142 -0.13254 0.62612
 C400 C 0.32502 -0.17086 0.62970
 C401 C 0.30576 -0.18708 0.69353
 C402 C 0.28596 -0.20064 0.71356
 C403 C 0.39439 -0.11702 0.60315
 C404 C 0.41291 -0.10025 0.58405
 H405 H 0.39693 -0.12008 0.68132
 H406 H 0.32297 -0.11400 0.68138
 H407 H 0.38477 -0.19035 0.68843
 H408 H 0.37796 -0.19183 0.61469
 H409 H 0.31604 -0.11554 0.60779
 H410 H 0.30387 -0.18580 0.61486
 C411 C 0.37589 0.36440 0.16632
 C412 C 0.33573 0.36839 0.16655
 C413 C 0.32920 0.33038 0.16954
 C414 C 0.36904 0.32610 0.16967
 C415 C 0.37101 0.36337 0.12653
 C416 C 0.36453 0.32536 0.12947
 C417 C 0.33116 0.36762 0.12644
 C418 C 0.32428 0.32934 0.12976
 C419 C 0.30559 0.31288 0.19374
 C420 C 0.28587 0.29934 0.21385
 C421 C 0.39393 0.38261 0.10285
 C422 C 0.41241 0.39931 0.08367
 H423 H 0.39737 0.37902 0.18109
 H424 H 0.32364 0.38590 0.18205
 H425 H 0.38434 0.30881 0.18773
 H426 H 0.37664 0.30789 0.11394
 H427 H 0.31583 0.38490 0.10841
 H428 H 0.30279 0.31472 0.11501
 C429 C 0.13089 0.16745 0.12468
 C430 C 0.12617 0.16828 0.16393
 C431 C 0.16662 0.17237 0.17135
 C432 C 0.17165 0.17190 0.13243
 C433 C 0.13304 0.12961 0.12960
 C434 C 0.17350 0.13366 0.13698
 C435 C 0.12804 0.13011 0.16852
 C436 C 0.16877 0.13453 0.17628
 C437 C 0.18468 0.19629 0.19486
 C438 C 0.19891 0.21605 0.21444
 C439 C 0.11368 0.10590 0.10663
 C440 C 0.09710 0.08651 0.08803
 H441 H 0.11511 0.18072 0.10320
 H442 H 0.10690 0.18278 0.17527
 H443 H 0.18979 0.18936 0.11787
 H444 H 0.19273 0.11914 0.12563
 H445 H 0.10990 0.11267 0.18311
 H446 H 0.18456 0.12128 0.19777
 C447 C 0.13341 0.62602 0.66987
 C448 C 0.17385 0.63520 0.67237
 C449 C 0.16649 0.67209 0.67145
 C450 C 0.12634 0.66326 0.66931
 C451 C 0.13282 0.62909 0.63001
 C452 C 0.12548 0.66599 0.62912
 C453 C 0.17298 0.63789 0.63212
 C454 C 0.16592 0.67518 0.63159
 C455 C 0.18459 0.69614 0.69479
 C456 C 0.19885 0.71600 0.71424
 C457 C 0.11343 0.60526 0.60720
 C458 C 0.09684 0.58580 0.58871
 H459 H 0.11983 0.60555 0.68536
 H460 H 0.19395 0.62282 0.69042
 H461 H 0.10736 0.67395 0.68485
 H462 H 0.10538 0.67839 0.61109
 H463 H 0.19193 0.62717 0.61656
 H464 H 0.17950 0.69567 0.61612
 C465 C 0.63491 0.12720 0.66947
 C466 C 0.67532 0.13650 0.67185
 C467 C 0.66784 0.17336 0.67102
 C468 C 0.62772 0.16441 0.66899
 C469 C 0.63419 0.13033 0.62960
 C470 C 0.62673 0.16720 0.62880
 C471 C 0.67432 0.13925 0.63159
 C472 C 0.66714 0.17651 0.63116
 C473 C 0.68591 0.19743 0.69435
 C474 C 0.70013 0.21732 0.71379
 C475 C 0.61479 0.10650 0.60680
 C476 C 0.59818 0.08704 0.58832
 H477 H 0.62144 0.10667 0.68497
 H478 H 0.69552 0.12416 0.68982
 H479 H 0.60875 0.17501 0.68462
 H480 H 0.60653 0.17956 0.61085
 H481 H 0.69326 0.12863 0.61594
 H482 H 0.68060 0.19706 0.61567
 C483 C 0.63380 0.62627 0.16985
 C484 C 0.67423 0.63552 0.17235
 C485 C 0.66679 0.67238 0.17170
 C486 C 0.62666 0.66347 0.16955
 C487 C 0.63318 0.62958 0.12999
 C488 C 0.62576 0.66644 0.12936
 C489 C 0.67332 0.63846 0.13210
 C490 C 0.66618 0.67572 0.13184
 C491 C 0.68487 0.69630 0.19518
 C492 C 0.69914 0.71607 0.21473
 C493 C 0.61383 0.60586 0.10704
 C494 C 0.59726 0.58647 0.08844
 H495 H 0.62028 0.60568 0.18523
 H496 H 0.69437 0.62308 0.19030
 H497 H 0.60766 0.67401 0.18520
 H498 H 0.60562 0.67890 0.11143
 H499 H 0.69228 0.62790 0.11644
 H500 H 0.67971 0.69632 0.11648
   
