data_POSCAR
  _audit_creation_date              2014-09-24
  _audit_creation_method            'ToBaCCo'
  _symmetry_space_group_name_H-M    'P1'
  _symmetry_Int_Tables_number       1
  _symmetry_cell_setting            triclinic
  loop_
  _symmetry_equiv_pos_as_xyz
 x,y,z
_cell_length_a 28.0533
_cell_length_b 28.1032
_cell_length_c 15.2858
_cell_angle_alpha 89.999900
_cell_angle_beta 89.905500
_cell_angle_gamma 120.112700
loop_
  _atom_site_label
  _atom_site_type_symbol
  _atom_site_fract_x
  _atom_site_fract_y
  _atom_site_fract_z
O1 O 0.43509 0.94778 0.58449
 O2 O 0.48807 1.05355 0.41141
 O3 O 0.43332 0.94656 0.41411
 O4 O 0.48736 1.05480 0.58208
 O5 O 0.56549 1.05362 0.58470
 O6 O 0.51292 0.94830 0.41127
 O7 O 0.56767 1.05538 0.41422
 O8 O 0.51326 0.94664 0.58167
 Cu9 Cu 0.45305 1.00068 0.49804
 Cu10 Cu 0.54777 1.00103 0.49793
 C11 C 0.46517 0.92906 0.61218
 C12 C 0.53705 1.07264 0.38352
 C13 C 0.46401 0.92933 0.38356
 C14 C 0.53534 1.07222 0.61266
 O15 O 0.05268 0.48730 0.58942
 O16 O -0.05289 0.43462 0.41620
 O17 O 0.05425 0.48679 0.41878
 O18 O -0.05456 0.43254 0.58664
 O19 O -0.05268 0.51202 0.58973
 O20 O 0.05289 0.56470 0.41589
 O21 O -0.05424 0.51253 0.41911
 O22 O 0.05456 0.56678 0.58630
 Cu23 Cu -0.00014 0.45242 0.50280
 Cu24 Cu 0.00014 0.54690 0.50280
 C25 C 0.07182 0.53621 0.61710
 C26 C -0.07163 0.46464 0.38845
 C27 C 0.07163 0.53468 0.38802
 C28 C -0.07182 0.46312 0.61753
 O29 O 0.48714 0.43541 0.58787
 O30 O 0.43457 0.48807 0.41442
 O31 O 0.48667 0.43331 0.41747
 O32 O 0.43227 0.48755 0.58490
 O33 O 0.51187 0.56545 0.58772
 O34 O 0.56484 0.51273 0.41463
 O35 O 0.51271 0.56752 0.41706
 O36 O 0.56674 0.51340 0.58501
 Cu37 Cu 0.45223 0.45319 0.50121
 Cu38 Cu 0.54694 0.54770 0.50110
 C39 C 0.53606 0.46544 0.61556
 C40 C 0.46474 0.53688 0.38646
 C41 C 0.53476 0.46388 0.38694
 C42 C 0.46287 0.53547 0.61560
 O43 O 0.41661 0.65551 -0.07818
 O44 O 0.41452 0.74624 -0.10055
 C45 C 0.38722 0.76968 -0.11870
 O46 O 0.34392 0.76034 -0.07784
 O47 O 0.25277 0.66730 -0.09941
 C48 C 0.22928 0.61657 -0.11778
 O49 O 0.23868 0.58265 -0.07738
 O50 O 0.33172 0.58480 -0.09984
 C51 C 0.38254 0.61215 -0.11851
 O52 O 0.41482 0.66807 0.09666
 O53 O 0.41665 0.76077 0.07417
 C54 C 0.38258 0.76989 0.11499
 O55 O 0.33171 0.74613 0.09703
 O56 O 0.23873 0.65503 0.07544
 C57 C 0.22962 0.61188 0.11613
 O58 O 0.25313 0.58472 0.09747
 O59 O 0.34427 0.58316 0.07490
 C60 C 0.38757 0.61734 0.11536
 Cr61 Cr 0.41233 0.70597 -0.00195
 Cr62 Cr 0.29345 0.70555 -0.00122
 Cr63 Cr 0.29360 0.58715 -0.00123
 O64 O 0.33312 0.66622 -0.00151
 O65 O 0.58344 0.34430 -0.07515
 O66 O 0.58526 0.25341 -0.09762
 C67 C 0.61257 0.23004 -0.11633
 O68 O 0.65589 0.23927 -0.07588
 O69 O 0.74713 0.33215 -0.09791
 C70 C 0.77072 0.38288 -0.11640
 O71 O 0.76140 0.41683 -0.07592
 O72 O 0.66840 0.41473 -0.09792
 C73 C 0.61753 0.38754 -0.11594
 O74 O 0.58539 0.33181 0.09959
 O75 O 0.58331 0.23901 0.07721
 C76 C 0.61735 0.22973 0.11755
 O77 O 0.66816 0.25328 0.09894
 O78 O 0.76118 0.34436 0.07691
 C79 C 0.77039 0.38757 0.11751
 O80 O 0.74699 0.41484 0.09896
 O81 O 0.65593 0.41664 0.07687
 C82 C 0.61264 0.38259 0.11773
 Cr83 Cr 0.58767 0.29379 0.00098
 Cr84 Cr 0.70643 0.29392 0.00052
 Cr85 Cr 0.70652 0.41244 0.00051
 O86 O 0.66688 0.33338 0.00066
 N87 N 0.39532 0.87109 -0.27943
 C88 C 0.44436 0.88686 -0.31911
 N89 N 0.47432 0.86359 -0.29318
 N90 N 0.45593 0.82594 -0.22980
 C91 C 0.40701 0.81034 -0.18981
 N92 N 0.37702 0.83358 -0.21583
 N93 N 0.12907 0.52382 -0.28061
 C94 C 0.11180 0.55647 -0.31773
 N95 N 0.13378 0.60914 -0.28925
 N96 N 0.17151 0.62842 -0.22607
 C97 C 0.18850 0.59566 -0.18865
 N98 N 0.16660 0.54302 -0.21710
 N99 N 0.38982 0.52419 -0.29034
 C100 C 0.44258 0.55509 -0.31910
 N101 N 0.47531 0.60509 -0.28207
 N102 N 0.45611 0.62331 -0.21837
 C103 C 0.40339 0.59237 -0.18963
 N104 N 0.37054 0.54254 -0.22696
 N105 N 0.60485 0.12954 -0.27851
 C106 C 0.55593 0.11402 -0.31813
 N107 N 0.52587 0.13709 -0.29157
 N108 N 0.54406 0.17433 -0.22769
 C109 C 0.59287 0.18968 -0.18777
 N110 N 0.62295 0.16663 -0.21441
 N111 N 0.87096 0.47555 -0.27985
 C112 C 0.88820 0.44288 -0.31706
 N113 N 0.86619 0.39020 -0.28844
 N114 N 0.82845 0.37095 -0.22503
 C115 C 0.81150 0.40373 -0.18752
 N116 N 0.83343 0.45638 -0.21612
 N117 N 0.61080 0.47457 -0.28995
 C118 C 0.55742 0.44469 -0.31576
 N119 N 0.52401 0.39574 -0.27613
 N120 N 0.54324 0.37746 -0.21269
 C121 C 0.59662 0.40736 -0.18680
 N122 N 0.63009 0.45620 -0.22674
 N123 N 0.86334 0.47403 0.29295
 C124 C 0.88649 0.44405 0.31933
 N125 N 0.87102 0.39526 0.27952
 N126 N 0.83390 0.37721 0.21541
 C127 C 0.81078 0.40721 0.18895
 N128 N 0.82608 0.45589 0.22906
 N129 N 0.61008 0.13451 0.28940
 C130 C 0.55733 0.11256 0.31818
 N131 N 0.52459 0.12976 0.28114
 N132 N 0.54377 0.16720 0.21742
 C133 C 0.59648 0.18906 0.18865
 N134 N 0.62934 0.17215 0.22600
 N135 N 0.60457 0.47588 0.27848
 C136 C 0.55554 0.44253 0.31820
 N137 N 0.52558 0.38926 0.29227
 N138 N 0.54394 0.37002 0.22886
 C139 C 0.59285 0.40343 0.18883
 N140 N 0.62284 0.45670 0.21485
 N141 N 0.13671 0.52536 0.29214
 C142 C 0.11352 0.55529 0.31864
 N143 N 0.12894 0.60407 0.27873
 N144 N 0.16606 0.62215 0.21440
 C145 C 0.18923 0.59220 0.18781
 N146 N 0.17398 0.54353 0.22802
 N147 N 0.47610 0.87176 0.27519
 C148 C 0.44267 0.88722 0.31485
 N149 N 0.38929 0.86363 0.28902
 N150 N 0.37002 0.82596 0.22579
 C151 C 0.40350 0.81065 0.18583
 N152 N 0.45688 0.83423 0.21172
 N153 N 0.39527 0.52458 0.27755
 C154 C 0.44417 0.55806 0.31722
 N155 N 0.47423 0.61124 0.29067
 N156 N 0.45607 0.63026 0.22675
 C157 C 0.40727 0.59672 0.18679
 N158 N 0.37720 0.54354 0.21341
   
