data_POSCAR
  _audit_creation_date              2014-09-24
  _audit_creation_method            'ToBaCCo'
  _symmetry_space_group_name_H-M    'P1'
  _symmetry_Int_Tables_number       1
  _symmetry_cell_setting            triclinic
  loop_
  _symmetry_equiv_pos_as_xyz
 x,y,z
_cell_length_a 46.7441
_cell_length_b 47.2241
_cell_length_c 50.0548
_cell_angle_alpha 89.831700
_cell_angle_beta 89.875300
_cell_angle_gamma 88.305500
loop_
  _atom_site_label
  _atom_site_type_symbol
  _atom_site_fract_x
  _atom_site_fract_y
  _atom_site_fract_z
C1 C -0.07492 0.33192 0.00185
 C2 C -0.06113 0.33713 0.02632
 C3 C -0.03102 0.33815 0.02625
 C4 C -0.01482 0.33189 0.00317
 C5 C -0.02935 0.32566 -0.02063
 C6 C -0.05949 0.32650 -0.02192
 C7 C 0.01725 0.33128 0.00407
 C8 C 0.03349 0.33743 -0.01888
 C9 C 0.06351 0.33488 -0.01867
 C10 C 0.07751 0.32795 0.00533
 C11 C 0.06194 0.32265 0.02869
 C12 C 0.03191 0.32370 0.02776
 H13 H -0.09777 0.32918 0.00171
 H14 H -0.02007 0.34468 0.04408
 H15 H -0.01701 0.32090 -0.03837
 H16 H 0.02296 0.34423 -0.03712
 H17 H 0.10062 0.32542 0.00562
 H18 H 0.02009 0.31842 0.04560
 C19 C 0.41616 0.81845 0.49178
 C20 C 0.43018 0.81500 0.51635
 C21 C 0.46003 0.81758 0.51739
 C22 C 0.47585 0.82484 0.49443
 C23 C 0.46102 0.82890 0.47016
 C24 C 0.43145 0.82490 0.46852
 C25 C 0.50773 0.82737 0.49565
 C26 C 0.52501 0.82180 0.47298
 C27 C 0.55492 0.82378 0.47413
 C28 C 0.56779 0.83010 0.49859
 C29 C 0.55121 0.83514 0.52156
 C30 C 0.52127 0.83465 0.51970
 H31 H 0.39341 0.81487 0.49055
 H32 H 0.47076 0.81371 0.53621
 H33 H 0.47226 0.83525 0.45232
 H34 H 0.51539 0.81574 0.45432
 H35 H 0.59092 0.82990 0.49997
 H36 H 0.50869 0.84001 0.53722
 C37 C 1.06727 0.69068 -0.00454
 C38 C 1.05276 0.69625 0.01971
 C39 C 1.02270 0.69947 0.01892
 C40 C 1.00715 0.69523 -0.00469
 C41 C 1.02247 0.68929 -0.02840
 C42 C 1.05268 0.68846 -0.02907
 C43 C 0.97500 0.69763 -0.00468
 C44 C 0.95983 0.70531 -0.02813
 C45 C 0.92983 0.70643 -0.02850
 C46 C 0.91480 0.70090 -0.00495
 C47 C 0.92911 0.69532 0.01914
 C48 C 0.95914 0.69262 0.01889
 H49 H 1.09003 0.68618 -0.00413
 H50 H 1.01139 0.70672 0.03655
 H51 H 1.01062 0.68650 -0.04654
 H52 H 0.97107 0.71118 -0.04611
 H53 H 0.89164 0.70095 -0.00542
 H54 H 0.97002 0.68699 0.03724
 C55 C 0.58451 0.19525 0.50354
 C56 C 0.57015 0.18881 0.52732
 C57 C 0.54024 0.18676 0.52696
 C58 C 0.52429 0.19293 0.50365
 C59 C 0.53926 0.20008 0.48022
 C60 C 0.56928 0.20057 0.47984
 C61 C 0.49222 0.19238 0.50405
 C62 C 0.47644 0.18710 0.48066
 C63 C 0.44632 0.18747 0.48099
 C64 C 0.43202 0.19124 0.50549
 C65 C 0.44713 0.19672 0.52901
 C66 C 0.47706 0.19792 0.52792
 H67 H 0.60754 0.19718 0.50364
 H68 H 0.52958 0.18020 0.54505
 H69 H 0.52776 0.20534 0.46208
 H70 H 0.48743 0.18323 0.46198
 H71 H 0.40896 0.18986 0.50624
 H72 H 0.48840 0.20400 0.54571
 C73 C 0.69173 -0.07739 0.00977
 C74 C 0.69792 -0.06404 0.03422
 C75 C 0.70085 -0.03430 0.03407
 C76 C 0.69595 -0.01806 0.01075
 C77 C 0.68823 -0.03212 -0.01277
 C78 C 0.68743 -0.06172 -0.01380
 C79 C 0.69972 0.01337 0.01059
 C80 C 0.70875 0.02715 -0.01285
 C81 C 0.71158 0.05681 -0.01399
 C82 C 0.70691 0.07235 0.00971
 C83 C 0.69917 0.05899 0.03363
 C84 C 0.69478 0.02972 0.03370
 H85 H 0.69215 -0.10026 0.00851
 H86 H 0.70629 -0.02352 0.05224
 H87 H 0.68298 -0.02014 -0.03063
 H88 H 0.71272 0.01469 -0.03056
 H89 H 0.71117 0.09474 0.01020
 H90 H 0.68733 0.01990 0.05188
 C91 C 0.17295 0.41471 0.49227
 C92 C 0.17722 0.42890 0.51640
 C93 C 0.17816 0.45861 0.51628
 C94 C 0.17320 0.47444 0.49264
 C95 C 0.16803 0.45949 0.46884
 C96 C 0.16882 0.42974 0.46835
 C97 C 0.17403 0.50627 0.49278
 C98 C 0.18019 0.52166 0.46930
 C99 C 0.18094 0.55140 0.46947
 C100 C 0.17728 0.56586 0.49372
 C101 C 0.17210 0.55110 0.51748
 C102 C 0.16932 0.52161 0.51661
 H103 H 0.17405 0.39176 0.49197
 H104 H 0.18285 0.46910 0.53482
 H105 H 0.16326 0.47068 0.45045
 H106 H 0.18445 0.51081 0.45068
 H107 H 0.17961 0.58861 0.49420
 H108 H 0.16342 0.51090 0.53482
 C109 C 0.30429 1.06495 -0.00290
 C110 C 0.29964 1.04870 0.02008
 C111 C 0.29868 1.01923 0.01773
 C112 C 0.30463 1.00552 -0.00669
 C113 C 0.30913 1.02243 -0.02957
 C114 C 0.30748 1.05241 -0.02836
 C115 C 0.30558 0.97368 -0.00796
 C116 C 0.29941 0.95904 -0.03172
 C117 C 0.30059 0.92909 -0.03284
 C118 C 0.30581 0.91401 -0.00887
 C119 C 0.31104 0.92807 0.01516
 C120 C 0.31235 0.95764 0.01506
 H121 H 0.30638 1.08754 -0.00057
 H122 H 0.29287 1.00708 0.03514
 H123 H 0.31290 1.01211 -0.04842
 H124 H 0.29447 0.97102 -0.04954
 H125 H 0.30393 0.89123 -0.00837
 H126 H 0.31855 0.96799 0.03329
 C127 C 0.82114 0.57112 0.50967
 C128 C 0.81435 0.55712 0.53354
 C129 C 0.81531 0.52733 0.53414
 C130 C 0.82365 0.51153 0.51141
 C131 C 0.83110 0.52622 0.48801
 C132 C 0.82892 0.55586 0.48667
 C133 C 0.82320 0.47989 0.51154
 C134 C 0.81665 0.46503 0.48805
 C135 C 0.81613 0.43534 0.48779
 C136 C 0.82122 0.42035 0.51161
 C137 C 0.82707 0.43465 0.53544
 C138 C 0.82860 0.46433 0.53512
 H139 H 0.81969 0.59402 0.50880
 H140 H 0.80845 0.51659 0.55207
 H141 H 0.83841 0.51467 0.47053
 H142 H 0.81179 0.47647 0.46979
 H143 H 0.81943 0.39753 0.51180
 H144 H 0.83418 0.47516 0.55332
 O145 O 0.24758 0.26616 0.21911
 O146 O 0.29621 0.23619 0.27045
 O147 O 0.28449 0.22454 0.22041
 O148 O 0.25905 0.27838 0.26835
 O149 O 0.22491 0.25028 0.28162
 O150 O 0.25106 0.19583 0.23407
 O151 O 0.26215 0.20828 0.28425
 O152 O 0.21392 0.23745 0.23233
 Cu153 Cu 0.27537 0.25405 0.24335
 Cu154 Cu 0.23477 0.21998 0.25952
 C155 C 0.22252 0.25673 0.21675
 C156 C 0.28728 0.21751 0.28651
 C157 C 0.27163 0.20134 0.21842
 C158 C 0.23748 0.27373 0.28301
 O159 O 0.75533 0.77546 0.23862
 O160 O 0.78066 0.72383 0.28911
 O161 O 0.79565 0.73640 0.24059
 O162 O 0.73947 0.76206 0.28729
 O163 O 0.71017 0.73054 0.27133
 O164 O 0.76588 0.70532 0.22456
 O165 O 0.75132 0.69238 0.27304
 O166 O 0.72571 0.74416 0.22277
 Cu167 Cu 0.77064 0.75267 0.26553
 Cu168 Cu 0.73523 0.71503 0.24637
 C169 C 0.73655 0.76851 0.22174
 C170 C 0.77040 0.69923 0.28968
 C171 C 0.79024 0.71653 0.22445
 C172 C 0.71532 0.75036 0.28755
 O173 O 0.80004 0.25560 0.23392
 O174 O 0.74710 0.22866 0.28137
 O175 O 0.76017 0.21828 0.23166
 O176 O 0.78678 0.26560 0.28373
 O177 O 0.75556 0.29891 0.27110
 O178 O 0.72943 0.25176 0.21849
 O179 O 0.71599 0.26191 0.26841
 O180 O 0.76925 0.28930 0.22133
 Cu181 Cu 0.77665 0.23868 0.25886
 Cu182 Cu 0.73945 0.27878 0.24343
 C183 C 0.79376 0.27710 0.21954
 C184 C 0.72262 0.24090 0.28330
 C185 C 0.74032 0.22691 0.21609
 C186 C 0.77543 0.29018 0.28663
 O187 O 0.27027 0.76254 0.21728
 O188 O 0.24580 0.71089 0.26702
 O189 O 0.23380 0.72237 0.21676
 O190 O 0.28125 0.75245 0.26747
 O191 O 0.24643 0.78219 0.27972
 O192 O 0.19918 0.75221 0.22931
 O193 O 0.21116 0.74079 0.27934
 O194 O 0.23561 0.79245 0.22960
 Cu195 Cu 0.26120 0.73396 0.24097
 Cu196 Cu 0.21959 0.76982 0.25575
 C197 C 0.25699 0.78625 0.21476
 C198 C 0.22455 0.71713 0.28196
 C199 C 0.20852 0.73263 0.21399
 C200 C 0.27189 0.77248 0.28231
 O201 O 0.80110 0.23893 0.71746
 O202 O 0.77319 0.18972 0.76786
 O203 O 0.76178 0.20107 0.71747
 O204 O 0.81258 0.22722 0.76727
 O205 O 0.78051 0.25966 0.77998
 O206 O 0.72990 0.23370 0.73013
 O207 O 0.74119 0.22235 0.78029
 O208 O 0.76924 0.27150 0.73034
 Cu209 Cu 0.79028 0.21089 0.74119
 Cu210 Cu 0.75193 0.25001 0.75638
 C211 C 0.78992 0.26370 0.71533
 C212 C 0.75277 0.19787 0.78309
 C213 C 0.73729 0.21318 0.71501
 C214 C 0.80513 0.24779 0.78231
 O215 O 0.27806 0.73995 0.72036
 O216 O 0.22989 0.71066 0.77075
 O217 O 0.23880 0.70198 0.71987
 O218 O 0.26733 0.74978 0.77082
 O219 O 0.23426 0.78210 0.76013
 O220 O 0.20591 0.73452 0.70929
 O221 O 0.19663 0.74287 0.76024
 O222 O 0.24516 0.77240 0.70963
 Cu223 Cu 0.25684 0.72235 0.74642
 Cu224 Cu 0.21720 0.76120 0.73371
 C225 C 0.26991 0.76104 0.70625
 C226 C 0.20523 0.72197 0.77449
 C227 C 0.21754 0.71020 0.70573
 C228 C 0.25531 0.77397 0.77450
 O229 O 0.21018 0.25639 0.77300
 O230 O 0.26241 0.23010 0.72351
 O231 O 0.25059 0.21714 0.77305
 O232 O 0.22313 0.26960 0.72396
 O233 O 0.25434 0.30022 0.73825
 O234 O 0.28129 0.24812 0.78757
 O235 O 0.29372 0.26057 0.73787
 O236 O 0.24094 0.28737 0.78740
 Cu237 Cu 0.23348 0.24017 0.74706
 Cu238 Cu 0.27071 0.27708 0.76431
 C239 C 0.21647 0.27635 0.78865
 C240 C 0.28675 0.24118 0.72177
 C241 C 0.27049 0.22379 0.78890
 C242 C 0.23439 0.29373 0.72241
 O243 O 0.78493 0.76972 0.75684
 O244 O 0.72636 0.79619 0.71374
 O245 O 0.74443 0.80817 0.76162
 O246 O 0.76587 0.75660 0.70968
 O247 O 0.73760 0.72524 0.72780
 O248 O 0.71526 0.77718 0.77902
 O249 O 0.69767 0.76474 0.73109
 O250 O 0.75595 0.73905 0.77506
 Cu251 Cu 0.75825 0.78580 0.73367
 Cu252 Cu 0.72371 0.74842 0.75497
 C253 C 0.78034 0.75016 0.77363
 C254 C 0.70211 0.78483 0.71478
 C255 C 0.72637 0.80140 0.77938
 C256 C 0.75537 0.73208 0.70985
 C257 C 0.30711 0.04958 0.06993
 C258 C 0.30430 0.06296 0.09473
 C259 C 0.29094 0.08982 0.09669
 C260 C 0.27931 0.10262 0.07360
 C261 C 0.28167 0.08907 0.04890
 C262 C 0.29597 0.06255 0.04664
 C263 C 0.28893 0.10400 0.12295
 C264 C 0.29158 0.13204 0.12535
 C265 C 0.28891 0.14742 0.15098
 C266 C 0.27134 0.13813 0.17191
 C267 C 0.26668 0.15507 0.19450
 C268 C 0.27959 0.18148 0.19663
 C269 C 0.29808 0.19010 0.17617
 C270 C 0.30246 0.17335 0.15352
 H271 H 0.31852 0.02933 0.06896
 H272 H 0.31323 0.05265 0.11231
 H273 H 0.26805 0.12295 0.07467
 H274 H 0.27210 0.09934 0.03159
 H275 H 0.28675 0.09093 0.14061
 H276 H 0.29670 0.14437 0.10777
 H277 H 0.26009 0.11851 0.17036
 H278 H 0.25219 0.14792 0.20986
 H279 H 0.30825 0.21038 0.17708
 H280 H 0.31600 0.18100 0.13762
 C281 C 0.81504 0.56582 0.58314
 C282 C 0.80802 0.58259 0.60536
 C283 C 0.79171 0.60781 0.60232
 C284 C 0.78128 0.61524 0.57685
 C285 C 0.78807 0.59841 0.55473
 C286 C 0.80551 0.57380 0.55749
 C287 C 0.78559 0.62588 0.62591
 C288 C 0.78317 0.65419 0.62405
 C289 C 0.77712 0.67307 0.64707
 C290 C 0.78567 0.70127 0.64562
 C291 C 0.77916 0.72024 0.66626
 C292 C 0.76353 0.71152 0.68868
 C293 C 0.75499 0.68326 0.69020
 C294 C 0.76174 0.66419 0.66963
 H295 H 0.82856 0.54703 0.58592
 H296 H 0.81600 0.57627 0.62485
 H297 H 0.76768 0.63394 0.57399
 H298 H 0.77957 0.60467 0.53542
 H299 H 0.78478 0.61571 0.64530
 H300 H 0.78698 0.66426 0.60494
 H301 H 0.79734 0.70868 0.62836
 H302 H 0.78593 0.74189 0.66440
 H303 H 0.74281 0.67593 0.70716
 H304 H 0.75415 0.64282 0.67112
 C305 C 0.71881 0.92884 0.07930
 C306 C 0.72228 0.91253 0.10250
 C307 C 0.70868 0.88664 0.10535
 C308 C 0.69083 0.87769 0.08465
 C309 C 0.68745 0.89383 0.06139
 C310 C 0.70149 0.91972 0.05806
 C311 C 0.71347 0.86992 0.13024
 C312 C 0.70890 0.84204 0.13220
 C313 C 0.71486 0.82483 0.15653
 C314 C 0.70185 0.79854 0.15904
 C315 C 0.70820 0.78063 0.18063
 C316 C 0.72794 0.78853 0.20018
 C317 C 0.74066 0.81504 0.19795
 C318 C 0.73429 0.83298 0.17635
 H319 H 0.73093 0.94792 0.07784
 H320 H 0.73614 0.91999 0.11814
 H321 H 0.67882 0.85857 0.08639
 H322 H 0.67270 0.88635 0.04655
 H323 H 0.72175 0.88112 0.14723
 H324 H 0.70066 0.83082 0.11522
 H325 H 0.68694 0.79164 0.14403
 H326 H 0.69809 0.76032 0.18168
 H327 H 0.75615 0.82166 0.21255
 H328 H 0.74545 0.85265 0.17490
 C329 C 0.16414 0.38891 0.54668
 C330 C 0.16805 0.37286 0.56993
 C331 C 0.18869 0.38012 0.58882
 C332 C 0.20558 0.40378 0.58385
 C333 C 0.20173 0.41980 0.56050
 C334 C 0.18103 0.41247 0.54160
 C335 C 0.19293 0.36153 0.61250
 C336 C 0.20456 0.37004 0.63550
 C337 C 0.21032 0.35081 0.65852
 C338 C 0.23138 0.35810 0.67700
 C339 C 0.23869 0.33993 0.69815
 C340 C 0.22492 0.31408 0.70141
 C341 C 0.20301 0.30728 0.68358
 C342 C 0.19567 0.32548 0.66243
 H343 H 0.14777 0.38291 0.53268
 H344 H 0.15487 0.35468 0.57318
 H345 H 0.22238 0.40953 0.59743
 H346 H 0.21548 0.43747 0.55691
 H347 H 0.18623 0.33992 0.61051
 H348 H 0.21124 0.39169 0.63740
 H349 H 0.24276 0.37761 0.67467
 H350 H 0.25558 0.34588 0.71161
 H351 H 0.19175 0.28769 0.68573
 H352 H 0.17850 0.31954 0.64935
 C353 C 0.89364 0.34817 0.05040
 C354 C 0.87702 0.34687 0.07357
 C355 C 0.88889 0.33690 0.09760
 C356 C 0.91840 0.33033 0.09850
 C357 C 0.93511 0.33157 0.07534
 C358 C 0.92285 0.33950 0.05051
 C359 C 0.86958 0.33280 0.12079
 C360 C 0.87534 0.31413 0.14049
 C361 C 0.85459 0.30638 0.16164
 C362 C 0.86013 0.28146 0.17636
 C363 C 0.84064 0.27222 0.19544
 C364 C 0.81505 0.28771 0.20028
 C365 C 0.80980 0.31309 0.18617
 C366 C 0.82941 0.32246 0.16718
 H367 H 0.88332 0.35622 0.03250
 H368 H 0.85451 0.35290 0.07246
 H369 H 0.92869 0.32367 0.11689
 H370 H 0.95723 0.32441 0.07695
 H371 H 0.84883 0.34347 0.11990
 H372 H 0.89531 0.30197 0.14001
 H373 H 0.87940 0.26873 0.17273
 H374 H 0.84540 0.25263 0.20605
 H375 H 0.79045 0.32571 0.18972
 H376 H 0.82459 0.34226 0.15706
 C377 C 0.42373 0.78729 0.55881
 C378 C 0.40755 0.78025 0.58127
 C379 C 0.38100 0.79390 0.58633
 C380 C 0.37083 0.81470 0.56821
 C381 C 0.38698 0.82170 0.54574
 C382 C 0.41356 0.80802 0.54072
 C383 C 0.36410 0.78476 0.60983
 C384 C 0.34295 0.80055 0.62108
 C385 C 0.32521 0.79064 0.64372
 C386 C 0.29797 0.80330 0.64768
 C387 C 0.28013 0.79404 0.66820
 C388 C 0.28925 0.77199 0.68537
 C389 C 0.31685 0.75990 0.68193
 C390 C 0.33469 0.76916 0.66145
 H391 H 0.44390 0.77604 0.55528
 H392 H 0.41577 0.76393 0.59470
 H393 H 0.35015 0.82519 0.57080
 H394 H 0.37864 0.83785 0.53221
 H395 H 0.36941 0.76399 0.61785
 H396 H 0.33759 0.82131 0.61306
 H397 H 0.29023 0.82008 0.63452
 H398 H 0.25904 0.80389 0.67036
 H399 H 0.32468 0.74311 0.69502
 H400 H 0.35589 0.75955 0.65983
 C401 C 0.05474 0.69319 0.06906
 C402 C 0.06972 0.69556 0.09305
 C403 C 0.09845 0.70310 0.09310
 C404 C 0.11185 0.70885 0.06862
 C405 C 0.09692 0.70666 0.04461
 C406 C 0.06799 0.69868 0.04421
 C407 C 0.11331 0.70636 0.11898
 C408 C 0.14178 0.70328 0.12168
 C409 C 0.15718 0.70874 0.14693
 C410 C 0.18491 0.69707 0.15031
 C411 C 0.20121 0.70384 0.17267
 C412 C 0.19019 0.72271 0.19203
 C413 C 0.16216 0.73385 0.18900
 C414 C 0.14585 0.72703 0.16669
 H415 H 0.03302 0.68601 0.07028
 H416 H 0.05887 0.69112 0.11168
 H417 H 0.13363 0.71596 0.06793
 H418 H 0.10801 0.71261 0.02656
 H419 H 0.10012 0.71072 0.13637
 H420 H 0.15453 0.69615 0.10477
 H421 H 0.19423 0.68308 0.13531
 H422 H 0.22277 0.69500 0.17433
 H423 H 0.15309 0.74861 0.20346
 H424 H 0.12491 0.73713 0.16455
 C425 C 0.57536 0.19866 0.57624
 C426 C 0.59146 0.19828 0.59972
 C427 C 0.61890 0.18539 0.60040
 C428 C 0.62934 0.17160 0.57727
 C429 C 0.61321 0.17202 0.55374
 C430 C 0.58625 0.18597 0.55283
 C431 C 0.63586 0.18767 0.62536
 C432 C 0.66442 0.18391 0.62659
 C433 C 0.68148 0.18982 0.65082
 C434 C 0.70875 0.17688 0.65348
 C435 C 0.72653 0.18372 0.67481
 C436 C 0.71753 0.20397 0.69382
 C437 C 0.69005 0.21661 0.69141
 C438 C 0.67223 0.20969 0.67016
 H439 H 0.55478 0.20981 0.57616
 H440 H 0.58276 0.20891 0.61722
 H441 H 0.64988 0.16049 0.57705
 H442 H 0.62191 0.16154 0.53617
 H443 H 0.62426 0.19417 0.64316
 H444 H 0.67627 0.17699 0.60912
 H445 H 0.71651 0.16172 0.63876
 H446 H 0.74762 0.17369 0.67600
 H447 H 0.68253 0.23244 0.70560
 H448 H 0.65179 0.22085 0.66845
 C449 C 0.73494 0.05654 0.94158
 C450 C 0.74115 0.07001 0.91744
 C451 C 0.73105 0.09770 0.91238
 C452 C 0.71546 0.11216 0.93239
 C453 C 0.70946 0.09889 0.95666
 C454 C 0.71876 0.07063 0.96170
 C455 C 0.73816 0.11126 0.88658
 C456 C 0.72125 0.13125 0.87510
 C457 C 0.72860 0.14658 0.85019
 C458 C 0.71411 0.17239 0.84475
 C459 C 0.72133 0.18860 0.82249
 C460 C 0.74316 0.17926 0.80500
 C461 C 0.75686 0.15284 0.80973
 C462 C 0.74963 0.13660 0.83203
 H463 H 0.74395 0.03542 0.94459
 H464 H 0.75380 0.05864 0.90256
 H465 H 0.70807 0.13389 0.92954
 H466 H 0.69640 0.11067 0.97090
 H467 H 0.75786 0.10424 0.87702
 H468 H 0.70138 0.13757 0.88484
 H469 H 0.69762 0.18047 0.85819
 H470 H 0.71024 0.20880 0.81938
 H471 H 0.77360 0.14494 0.79649
 H472 H 0.76066 0.11639 0.83484
 C473 C 0.20699 0.55884 0.42606
 C474 C 0.21179 0.57470 0.40290
 C475 C 0.19562 0.59965 0.39763
 C476 C 0.17385 0.60791 0.41574
 C477 C 0.16916 0.59215 0.43892
 C478 C 0.18580 0.56758 0.44446
 C479 C 0.20197 0.61614 0.37307
 C480 C 0.19454 0.64365 0.36990
 C481 C 0.20162 0.66082 0.34599
 C482 C 0.18623 0.68641 0.34171
 C483 C 0.19314 0.70429 0.32052
 C484 C 0.21584 0.69710 0.30314
 C485 C 0.23105 0.67130 0.30713
 C486 C 0.22410 0.65337 0.32834
 H487 H 0.22023 0.54007 0.42984
 H488 H 0.22853 0.56768 0.38923
 H489 H 0.16002 0.62625 0.41208
 H490 H 0.15224 0.59901 0.45245
 H491 H 0.21382 0.60515 0.35747
 H492 H 0.18283 0.65464 0.38558
 H493 H 0.16892 0.69277 0.35503
 H494 H 0.18103 0.72402 0.31809
 H495 H 0.24880 0.66524 0.29422
 H496 H 0.23706 0.63428 0.33122
 C497 C 0.27973 0.92608 0.92180
 C498 C 0.27571 0.91113 0.89808
 C499 C 0.28820 0.88405 0.89441
 C500 C 0.30548 0.87246 0.91489
 C501 C 0.30933 0.88722 0.93868
 C502 C 0.29643 0.91430 0.94279
 C503 C 0.28270 0.86890 0.86900
 C504 C 0.28759 0.84097 0.86552
 C505 C 0.28054 0.82556 0.84071
 C506 C 0.29424 0.79920 0.83591
 C507 C 0.28677 0.78286 0.81391
 C508 C 0.26518 0.79241 0.79630
 C509 C 0.25178 0.81903 0.80081
 C510 C 0.25929 0.83540 0.82279
 H511 H 0.26850 0.94629 0.92385
 H512 H 0.26230 0.92064 0.88266
 H513 H 0.31664 0.85225 0.91270
 H514 H 0.32359 0.87763 0.95334
 H515 H 0.27362 0.88140 0.85280
 H516 H 0.29689 0.82831 0.88146
 H517 H 0.31054 0.79102 0.84947
 H518 H 0.29744 0.76241 0.81109
 H519 H 0.23490 0.82691 0.78774
 H520 H 0.24758 0.85516 0.82610
 C521 C 0.78812 0.42986 0.44542
 C522 C 0.78229 0.41530 0.42187
 C523 C 0.79816 0.39071 0.41494
 C524 C 0.81976 0.38063 0.43241
 C525 C 0.82555 0.39516 0.45599
 C526 C 0.80985 0.41996 0.46273
 C527 C 0.79066 0.37565 0.39004
 C528 C 0.80857 0.35753 0.37723
 C529 C 0.80039 0.34148 0.35314
 C530 C 0.81489 0.31571 0.34765
 C531 C 0.80716 0.29928 0.32579
 C532 C 0.78490 0.30846 0.30872
 C533 C 0.77106 0.33476 0.31362
 C534 C 0.77873 0.35115 0.33555
 H535 H 0.77531 0.44862 0.45028
 H536 H 0.76530 0.42333 0.40898
 H537 H 0.83190 0.36128 0.42837
 H538 H 0.84248 0.38707 0.46891
 H539 H 0.76939 0.37977 0.38221
 H540 H 0.82983 0.35331 0.38503
 H541 H 0.83186 0.30792 0.36069
 H542 H 0.81838 0.27920 0.32250
 H543 H 0.75400 0.34256 0.30070
 H544 H 0.76775 0.37138 0.33848
 C545 C 0.10715 0.34967 0.95588
 C546 C 0.12431 0.34850 0.93296
 C547 C 0.11506 0.33460 0.90994
 C548 C 0.08740 0.32360 0.90968
 C549 C 0.07027 0.32473 0.93256
 C550 C 0.08022 0.33714 0.95615
 C551 C 0.13506 0.33116 0.88705
 C552 C 0.13419 0.30904 0.87030
 C553 C 0.15523 0.30298 0.84866
 C554 C 0.14835 0.28268 0.82947
 C555 C 0.16801 0.27451 0.80974
 C556 C 0.19520 0.28637 0.80874
 C557 C 0.20205 0.30705 0.82764
 C558 C 0.18233 0.31524 0.84745
 H559 H 0.11518 0.35988 0.97357
 H560 H 0.14532 0.35757 0.93355
 H561 H 0.07899 0.31376 0.89198
 H562 H 0.04967 0.31486 0.93207
 H563 H 0.15181 0.34634 0.88519
 H564 H 0.11759 0.29377 0.87287
 H565 H 0.12773 0.27279 0.82994
 H566 H 0.16200 0.25855 0.79549
 H567 H 0.22289 0.31648 0.82747
 H568 H 0.18889 0.33047 0.86212
 C569 C 0.59641 0.83586 0.44481
 C570 C 0.61400 0.83075 0.42264
 C571 C 0.60875 0.80828 0.40519
 C572 C 0.58484 0.79149 0.41002
 C573 C 0.56725 0.79660 0.43225
 C574 C 0.57298 0.81869 0.45003
 C575 C 0.62874 0.80338 0.38242
 C576 C 0.63109 0.77896 0.36882
 C577 C 0.65232 0.77360 0.34718
 C578 C 0.64707 0.75221 0.32859
 C579 C 0.66717 0.74520 0.30882
 C580 C 0.69322 0.75926 0.30734
 C581 C 0.69844 0.78088 0.32579
 C582 C 0.67826 0.78796 0.34554
 H583 H 0.60110 0.85337 0.45786
 H584 H 0.63202 0.84423 0.41931
 H585 H 0.57936 0.77449 0.39675
 H586 H 0.54942 0.78293 0.43576
 H587 H 0.64262 0.82051 0.37730
 H588 H 0.61716 0.76178 0.37359
 H589 H 0.62739 0.74068 0.32950
 H590 H 0.66250 0.72836 0.29501
 H591 H 0.71840 0.79195 0.32534
 H592 H 0.68360 0.80397 0.35995
 C593 C 0.88886 0.73089 0.94796
 C594 C 0.87180 0.73518 0.92544
 C595 C 0.87943 0.72267 0.90100
 C596 C 0.90493 0.70616 0.89932
 C597 C 0.92195 0.70164 0.92201
 C598 C 0.91375 0.71351 0.94670
 C599 C 0.85916 0.72578 0.87849
 C600 C 0.86670 0.72410 0.85270
 C601 C 0.84523 0.72836 0.83132
 C602 C 0.85224 0.74374 0.80835
 C603 C 0.83135 0.75027 0.78914
 C604 C 0.80322 0.74100 0.79238
 C605 C 0.79671 0.72420 0.81466
 C606 C 0.81748 0.71799 0.83396
 H607 H 0.88227 0.74081 0.96656
 H608 H 0.85232 0.74807 0.92721
 H609 H 0.91114 0.69574 0.88088
 H610 H 0.94086 0.68793 0.92051
 H611 H 0.83706 0.73101 0.88349
 H612 H 0.88905 0.72186 0.84713
 H613 H 0.87360 0.75165 0.80579
 H614 H 0.83707 0.76305 0.77206
 H615 H 0.77532 0.71656 0.81764
 H616 H 0.81171 0.70536 0.85113
 C617 C 0.43930 0.16886 0.43413
 C618 C 0.42413 0.16880 0.41001
 C619 C 0.39867 0.18500 0.40715
 C620 C 0.38887 0.20164 0.42870
 C621 C 0.40419 0.20206 0.45258
 C622 C 0.42961 0.18567 0.45570
 C623 C 0.38357 0.18580 0.38115
 C624 C 0.35503 0.18899 0.37950
 C625 C 0.33935 0.19324 0.35405
 C626 C 0.31052 0.18593 0.35287
 C627 C 0.29398 0.19263 0.33037
 C628 C 0.30580 0.20734 0.30874
 C629 C 0.33489 0.21406 0.30962
 C630 C 0.35155 0.20701 0.33201
 H631 H 0.45859 0.15573 0.43582
 H632 H 0.43221 0.15598 0.39358
 H633 H 0.36986 0.21516 0.42686
 H634 H 0.39648 0.21598 0.46834
 H635 H 0.39626 0.18342 0.36312
 H636 H 0.34239 0.18848 0.39766
 H637 H 0.30057 0.17554 0.36967
 H638 H 0.27161 0.18728 0.33040
 H639 H 0.34459 0.22547 0.29331
 H640 H 0.37353 0.21356 0.33250
 C641 C 0.66913 0.89861 0.95790
 C642 C 0.66869 0.88373 0.93377
 C643 C 0.68371 0.89340 0.91136
 C644 C 0.69795 0.91917 0.91319
 C645 C 0.69850 0.93395 0.93729
 C646 C 0.68449 0.92366 0.96007
 C647 C 0.68441 0.87587 0.88675
 C648 C 0.70547 0.87703 0.86850
 C649 C 0.70820 0.85816 0.84489
 C650 C 0.72663 0.86596 0.82412
 C651 C 0.73186 0.84794 0.80246
 C652 C 0.71890 0.82153 0.80113
 C653 C 0.69997 0.81390 0.82163
 C654 C 0.69471 0.83194 0.84331
 H655 H 0.65768 0.89037 0.97492
 H656 H 0.65718 0.86418 0.93282
 H657 H 0.70885 0.92805 0.89619
 H658 H 0.71067 0.95308 0.93824
 H659 H 0.66769 0.86073 0.88449
 H660 H 0.72226 0.89204 0.87104
 H661 H 0.73742 0.88593 0.82486
 H662 H 0.74659 0.85446 0.78704
 H663 H 0.68977 0.79361 0.82129
 H664 H 0.68094 0.82467 0.85912
 C665 C 0.15276 0.38878 0.44078
 C666 C 0.15511 0.37207 0.41784
 C667 C 0.17258 0.38018 0.39649
 C668 C 0.18595 0.40647 0.39768
 C669 C 0.18355 0.42321 0.42058
 C670 C 0.16762 0.41414 0.44268
 C671 C 0.17729 0.36026 0.37397
 C672 C 0.20184 0.35896 0.36000
 C673 C 0.20897 0.33731 0.33943
 C674 C 0.23198 0.34219 0.32214
 C675 C 0.24094 0.32174 0.30360
 C676 C 0.22717 0.29576 0.30201
 C677 C 0.20393 0.29089 0.31911
 C678 C 0.19494 0.31138 0.33768
 H679 H 0.13990 0.38152 0.45732
 H680 H 0.14422 0.35215 0.41724
 H681 H 0.19867 0.41399 0.38118
 H682 H 0.19524 0.44265 0.42143
 H683 H 0.16084 0.34516 0.37026
 H684 H 0.21825 0.37398 0.36428
 H685 H 0.24330 0.36185 0.32315
 H686 H 0.25892 0.32619 0.29073
 H687 H 0.19297 0.27102 0.31846
 H688 H 0.17764 0.30631 0.35105
 C689 C 0.31968 0.05964 0.92365
 C690 C 0.31819 0.07627 0.90043
 C691 C 0.30550 0.10350 0.90093
 C692 C 0.29400 0.11375 0.92504
 C693 C 0.29513 0.09717 0.94813
 C694 C 0.30794 0.06962 0.94811
 C695 C 0.30273 0.12018 0.87589
 C696 C 0.30253 0.14859 0.87573
 C697 C 0.29655 0.16619 0.85173
 C698 C 0.30629 0.19399 0.85113
 C699 C 0.29864 0.21235 0.83023
 C700 C 0.28063 0.20343 0.80964
 C701 C 0.27128 0.17540 0.80994
 C702 C 0.27919 0.15693 0.83074
 H703 H 0.33073 0.03931 0.92215
 H704 H 0.32718 0.06788 0.88201
 H705 H 0.28296 0.13420 0.92592
 H706 H 0.28425 0.10577 0.96551
 H707 H 0.30112 0.10873 0.85727
 H708 H 0.30704 0.15969 0.89409
 H709 H 0.31947 0.20171 0.86716
 H710 H 0.30614 0.23382 0.83067
 H711 H 0.25732 0.16793 0.79440
 H712 H 0.27068 0.13587 0.83088
 C713 C 0.84483 0.59726 0.45918
 C714 C 0.84399 0.61289 0.43541
 C715 C 0.83005 0.60251 0.41282
 C716 C 0.81882 0.57522 0.41383
 C717 C 0.81962 0.55963 0.43755
 C718 C 0.83193 0.57078 0.46070
 C719 C 0.82655 0.62111 0.38909
 C720 C 0.80401 0.61961 0.37262
 C721 C 0.79765 0.63984 0.35056
 C722 C 0.77759 0.63228 0.33122
 C723 C 0.76912 0.65134 0.31117
 C724 C 0.78045 0.67854 0.31010
 C725 C 0.80083 0.68605 0.32921
 C726 C 0.80931 0.66697 0.34929
 H727 H 0.85497 0.60617 0.47653
 H728 H 0.85323 0.63366 0.43500
 H729 H 0.80894 0.56599 0.39652
 H730 H 0.80944 0.53933 0.43803
 H731 H 0.84193 0.63753 0.38642
 H732 H 0.78858 0.60329 0.37582
 H733 H 0.76812 0.61162 0.33181
 H734 H 0.75338 0.64489 0.29675
 H735 H 0.80985 0.70691 0.32901
 H736 H 0.82421 0.67406 0.36414
 C737 C 0.09593 0.69744 0.94411
 C738 C 0.11035 0.69793 0.91968
 C739 C 0.09755 0.68769 0.89645
 C740 C 0.07020 0.67657 0.89824
 C741 C 0.05578 0.67571 0.92276
 C742 C 0.06809 0.68663 0.94628
 C743 C 0.11147 0.69038 0.86999
 C744 C 0.13998 0.68940 0.86698
 C745 C 0.15470 0.69540 0.84146
 C746 C 0.18258 0.68439 0.83760
 C747 C 0.19849 0.69209 0.81523
 C748 C 0.18702 0.71140 0.79639
 C749 C 0.15881 0.72192 0.79987
 C750 C 0.14276 0.71397 0.82216
 H751 H 0.10628 0.70737 0.96079
 H752 H 0.13103 0.70763 0.91887
 H753 H 0.05992 0.66846 0.88058
 H754 H 0.03520 0.66589 0.92294
 H755 H 0.09782 0.69303 0.85265
 H756 H 0.15335 0.68390 0.88400
 H757 H 0.19232 0.67024 0.85227
 H758 H 0.22019 0.68367 0.81323
 H759 H 0.14942 0.73691 0.78576
 H760 H 0.12158 0.72342 0.82481
 C761 C 0.57523 0.22861 0.43754
 C762 C 0.59009 0.23436 0.41397
 C763 C 0.61467 0.21826 0.40692
 C764 C 0.62442 0.19654 0.42426
 C765 C 0.60961 0.19085 0.44784
 C766 C 0.58485 0.20679 0.45473
 C767 C 0.63034 0.22571 0.38222
 C768 C 0.64778 0.20743 0.36909
 C769 C 0.66541 0.21551 0.34579
 C770 C 0.69069 0.19974 0.34053
 C771 C 0.70893 0.20755 0.31982
 C772 C 0.70210 0.23118 0.30368
 C773 C 0.67617 0.24626 0.30817
 C774 C 0.65796 0.23850 0.32897
 H775 H 0.55647 0.24154 0.44254
 H776 H 0.58237 0.25146 0.40117
 H777 H 0.64380 0.18426 0.42012
 H778 H 0.61748 0.17385 0.46067
 H779 H 0.62749 0.24722 0.37500
 H780 H 0.65050 0.18590 0.37629
 H781 H 0.69677 0.18175 0.35298
 H782 H 0.72866 0.19537 0.31679
 H783 H 0.67016 0.26441 0.29592
 H784 H 0.63815 0.25056 0.33172
 C785 C 0.89831 0.33375 0.94916
 C786 C 0.88345 0.32855 0.92563
 C787 C 0.89524 0.31066 0.90599
 C788 C 0.92284 0.29881 0.90993
 C789 C 0.93794 0.30418 0.93340
 C790 C 0.92581 0.32146 0.95376
 C791 C 0.87801 0.30517 0.88184
 C792 C 0.88070 0.28136 0.86734
 C793 C 0.86153 0.27451 0.84477
 C794 C 0.87040 0.25333 0.82668
 C795 C 0.85239 0.24501 0.80605
 C796 C 0.82496 0.25762 0.80314
 C797 C 0.81613 0.27898 0.82108
 C798 C 0.83409 0.28725 0.84172
 H799 H 0.88837 0.34828 0.96331
 H800 H 0.86241 0.33837 0.92289
 H801 H 0.93298 0.28546 0.89492
 H802 H 0.95859 0.29357 0.93582
 H803 H 0.86163 0.32091 0.87684
 H804 H 0.89716 0.26570 0.87245
 H805 H 0.89129 0.24298 0.82866
 H806 H 0.85981 0.22841 0.79261
 H807 H 0.79502 0.28893 0.81956
 H808 H 0.82583 0.30294 0.85563
 C809 C 0.42931 0.81141 0.42024
 C810 C 0.41415 0.80881 0.39640
 C811 C 0.38609 0.81992 0.39410
 C812 C 0.37413 0.83532 0.41566
 C813 C 0.38927 0.83785 0.43954
 C814 C 0.41675 0.82535 0.44228
 C815 C 0.36988 0.81400 0.36938
 C816 C 0.34120 0.81408 0.36838
 C817 C 0.32487 0.80475 0.34481
 C818 C 0.29635 0.81436 0.34202
 C819 C 0.27939 0.80441 0.32134
 C820 C 0.29049 0.78428 0.30315
 C821 C 0.31914 0.77483 0.30574
 C822 C 0.33617 0.78491 0.32637
 H823 H 0.45040 0.80141 0.42181
 H824 H 0.42400 0.79709 0.38005
 H825 H 0.35307 0.84531 0.41438
 H826 H 0.37935 0.84927 0.45602
 H827 H 0.38218 0.80767 0.35194
 H828 H 0.32875 0.82047 0.38568
 H829 H 0.28706 0.82942 0.35609
 H830 H 0.25738 0.81207 0.31996
 H831 H 0.32827 0.75921 0.29214
 H832 H 0.35776 0.77629 0.32831
 C833 C 0.32641 0.88518 0.04224
 C834 C 0.32535 0.86916 0.06577
 C835 C 0.31039 0.87951 0.08823
 C836 C 0.29793 0.90698 0.08720
 C837 C 0.29894 0.92294 0.06372
 C838 C 0.31272 0.91205 0.04078
 C839 C 0.30776 0.86098 0.11206
 C840 C 0.28548 0.86311 0.12903
 C841 C 0.28046 0.84365 0.15185
 C842 C 0.25868 0.85109 0.17013
 C843 C 0.25153 0.83280 0.19091
 C844 C 0.26598 0.80649 0.19392
 C845 C 0.28819 0.79919 0.17602
 C846 C 0.29534 0.81749 0.15517
 H847 H 0.33764 0.87639 0.02509
 H848 H 0.33552 0.84825 0.06617
 H849 H 0.28719 0.91623 0.10437
 H850 H 0.28807 0.94351 0.06329
 H851 H 0.32389 0.84434 0.11455
 H852 H 0.26922 0.87951 0.12572
 H853 H 0.24679 0.87102 0.16809
 H854 H 0.23432 0.83909 0.20435
 H855 H 0.29966 0.77901 0.17772
 H856 H 0.31190 0.81048 0.14143
 C857 C 0.81585 0.42863 0.58405
 C858 C 0.81547 0.41204 0.60719
 C859 C 0.82872 0.38498 0.60764
 C860 C 0.84399 0.37556 0.58491
 C861 C 0.84436 0.39216 0.56175
 C862 C 0.82971 0.41857 0.56088
 C863 C 0.82503 0.36708 0.63173
 C864 C 0.82686 0.33867 0.63136
 C865 C 0.81884 0.32069 0.65434
 C866 C 0.83002 0.29282 0.65584
 C867 C 0.82120 0.27446 0.67601
 C868 C 0.80067 0.28352 0.69493
 C869 C 0.78965 0.31150 0.69358
 C870 C 0.79856 0.32987 0.67351
 H871 H 0.80422 0.44880 0.58396
 H872 H 0.80377 0.41993 0.62448
 H873 H 0.85551 0.35537 0.58474
 H874 H 0.85580 0.38418 0.54437
 H875 H 0.81863 0.37782 0.64996
 H876 H 0.83346 0.32773 0.61332
 H877 H 0.84541 0.28513 0.64115
 H878 H 0.83002 0.25300 0.67644
 H879 H 0.77368 0.31909 0.70776
 H880 H 0.78865 0.35083 0.67258
 C881 C 0.71012 0.06447 0.08232
 C882 C 0.71163 0.08111 0.10529
 C883 C 0.70085 0.10918 0.10534
 C884 C 0.68697 0.11974 0.08226
 C885 C 0.68550 0.10308 0.05926
 C886 C 0.69761 0.07549 0.05886
 C887 C 0.70537 0.12666 0.12952
 C888 C 0.70468 0.15512 0.12946
 C889 C 0.71262 0.17237 0.15289
 C890 C 0.70209 0.20046 0.15463
 C891 C 0.71058 0.21802 0.17544
 C892 C 0.73014 0.20796 0.19480
 C893 C 0.74061 0.17981 0.19313
 C894 C 0.73201 0.16221 0.17241
 H895 H 0.71983 0.04336 0.08261
 H896 H 0.72220 0.07231 0.12281
 H897 H 0.67731 0.14080 0.08167
 H898 H 0.67515 0.11191 0.04165
 H899 H 0.71102 0.11543 0.14772
 H900 H 0.69875 0.16663 0.11152
 H901 H 0.68739 0.20890 0.13971
 H902 H 0.70221 0.23964 0.17608
 H903 H 0.75584 0.17145 0.20762
 H904 H 0.74140 0.14104 0.17134
 C905 C 0.18629 0.55442 0.56555
 C906 C 0.18848 0.56965 0.58928
 C907 C 0.17636 0.59708 0.59149
 C908 C 0.16057 0.60840 0.56980
 C909 C 0.15841 0.59315 0.54600
 C910 C 0.17170 0.56621 0.54346
 C911 C 0.18152 0.61316 0.61638
 C912 C 0.17954 0.64151 0.61797
 C913 C 0.18807 0.65761 0.64189
 C914 C 0.17628 0.68496 0.64570
 C915 C 0.18529 0.70173 0.66685
 C916 C 0.20664 0.69163 0.68449
 C917 C 0.21829 0.66414 0.68087
 C918 C 0.20915 0.64730 0.65978
 H919 H 0.19699 0.53382 0.56416
 H920 H 0.20057 0.56031 0.60569
 H921 H 0.14990 0.62898 0.57092
 H922 H 0.14652 0.60252 0.52950
 H923 H 0.18876 0.60107 0.63362
 H924 H 0.17206 0.65384 0.60101
 H925 H 0.16023 0.69351 0.63207
 H926 H 0.17595 0.72286 0.66900
 H927 H 0.23490 0.65581 0.69401
 H928 H 0.21945 0.62670 0.65706
 C929 C 0.88760 0.71120 0.04769
 C930 C 0.87115 0.70982 0.07083
 C931 C 0.87946 0.69182 0.09182
 C932 C 0.90450 0.67482 0.08922
 C933 C 0.92071 0.67565 0.06563
 C934 C 0.91237 0.69383 0.04449
 C935 C 0.86090 0.69090 0.11563
 C936 C 0.87094 0.68924 0.14062
 C937 C 0.85144 0.69311 0.16370
 C938 C 0.85965 0.70993 0.18525
 C939 C 0.84003 0.71701 0.20550
 C940 C 0.81203 0.70693 0.20472
 C941 C 0.80450 0.68862 0.18397
 C942 C 0.82397 0.68182 0.16365
 H943 H 0.88092 0.72618 0.03235
 H944 H 0.85201 0.72323 0.07251
 H945 H 0.91108 0.66042 0.10507
 H946 H 0.93940 0.66171 0.06383
 H947 H 0.83819 0.69493 0.11250
 H948 H 0.89383 0.68849 0.14407
 H949 H 0.88081 0.71868 0.18576
 H950 H 0.84656 0.73093 0.22137
 H951 H 0.78321 0.68025 0.18291
 H952 H 0.81733 0.66821 0.14757
 C953 C 0.44313 0.19172 0.57897
 C954 C 0.42843 0.19637 0.60300
 C955 C 0.40171 0.21062 0.60315
 C956 C 0.39034 0.22104 0.57894
 C957 C 0.40516 0.21672 0.55499
 C958 C 0.43162 0.20176 0.55464
 C959 C 0.38635 0.21493 0.62875
 C960 C 0.35774 0.21471 0.63028
 C961 C 0.34142 0.21957 0.65528
 C962 C 0.31402 0.20850 0.65739
 C963 C 0.29680 0.21456 0.67957
 C964 C 0.30645 0.23225 0.69999
 C965 C 0.33415 0.24291 0.69818
 C966 C 0.35153 0.23660 0.67605
 H967 H 0.46332 0.17988 0.57942
 H968 H 0.43768 0.18834 0.62144
 H969 H 0.37021 0.23298 0.57854
 H970 H 0.39604 0.22547 0.53678
 H971 H 0.39894 0.21685 0.64675
 H972 H 0.34559 0.20985 0.61254
 H973 H 0.30570 0.19546 0.64159
 H974 H 0.27553 0.20610 0.68025
 H975 H 0.34213 0.25674 0.71352
 H976 H 0.37231 0.24603 0.67478
 C977 C 0.06812 0.29349 0.07051
 C978 C 0.08320 0.28638 0.09380
 C979 C 0.10784 0.30091 0.10085
 C980 C 0.11652 0.32346 0.08457
 C981 C 0.10147 0.33053 0.06130
 C982 C 0.07727 0.31547 0.05387
 C983 C 0.12365 0.29212 0.12532
 C984 C 0.15165 0.29653 0.12881
 C985 C 0.16839 0.28686 0.15250
 C986 C 0.19531 0.29845 0.15675
 C987 C 0.21264 0.28911 0.17791
 C988 C 0.20348 0.26779 0.19529
 C989 C 0.17642 0.25634 0.19126
 C990 C 0.15908 0.26565 0.17007
 H991 H 0.04966 0.28138 0.06524
 H992 H 0.07592 0.26909 0.10609
 H993 H 0.13465 0.33599 0.08981
 H994 H 0.10860 0.34801 0.04919
 H995 H 0.11178 0.28088 0.14033
 H996 H 0.16334 0.30749 0.11346
 H997 H 0.20311 0.31469 0.14349
 H998 H 0.23339 0.29835 0.18040
 H999 H 0.16883 0.23971 0.20418
 H1000 H 0.13890 0.25551 0.16726
 C1001 C 0.59034 0.85436 0.55003
 C1002 C 0.60558 0.85463 0.57402
 C1003 C 0.59634 0.83906 0.59618
 C1004 C 0.57038 0.82483 0.59448
 C1005 C 0.55515 0.82456 0.57052
 C1006 C 0.56536 0.83869 0.54782
 C1007 C 0.61496 0.83715 0.62009
 C1008 C 0.61563 0.81456 0.63646
 C1009 C 0.63705 0.80974 0.65796
 C1010 C 0.63179 0.78894 0.67731
 C1011 C 0.65254 0.78144 0.69631
 C1012 C 0.67915 0.79451 0.69628
 C1013 C 0.68419 0.81585 0.67737
 C1014 C 0.66345 0.82335 0.65836
 H1015 H 0.59844 0.86590 0.53303
 H1016 H 0.62527 0.86611 0.57492
 H1017 H 0.56194 0.81350 0.61143
 H1018 H 0.53597 0.81229 0.56947
 H1019 H 0.62996 0.85387 0.62284
 H1020 H 0.60066 0.79784 0.63338
 H1021 H 0.61175 0.77798 0.67738
 H1022 H 0.64797 0.76491 0.71060
 H1023 H 0.70453 0.82624 0.67673
 H1024 H 0.66884 0.83892 0.64347
   
