data_POSCAR
  _audit_creation_date              2014-09-24
  _audit_creation_method            'ToBaCCo'
  _symmetry_space_group_name_H-M    'P1'
  _symmetry_Int_Tables_number       1
  _symmetry_cell_setting            triclinic
  loop_
  _symmetry_equiv_pos_as_xyz
 x,y,z
_cell_length_a 43.8820
_cell_length_b 43.8545
_cell_length_c 43.1368
_cell_angle_alpha 90.031200
_cell_angle_beta 90.721100
_cell_angle_gamma 89.936000
loop_
  _atom_site_label
  _atom_site_type_symbol
  _atom_site_fract_x
  _atom_site_fract_y
  _atom_site_fract_z
N1 N 0.65341 0.65503 0.65590
 N2 N 0.85082 0.34455 0.15615
 N3 N 0.34630 0.15555 -0.15659
 N4 N 0.14995 0.84421 0.34371
 N5 N 0.09470 0.17840 0.11944
 N6 N 0.08398 0.16455 0.14405
 C7 C 0.05872 0.17921 0.15341
 C8 C 0.05356 0.20337 0.13364
 C9 C 0.07667 0.20235 0.11234
 H10 H 0.04482 0.17261 0.17281
 H11 H 0.07985 0.21757 0.09292
 Cu12 Cu 0.10331 0.12811 0.16098
 Cu13 Cu 0.13050 0.16364 0.09792
 Cu14 Cu 0.16455 0.09775 0.12594
 N15 N 0.12218 0.09055 0.17572
 N16 N 0.14610 0.07885 0.16197
 C17 C 0.15409 0.05272 0.17630
 C18 C 0.13411 0.04792 0.20017
 C19 C 0.11412 0.07217 0.19929
 H20 H 0.17274 0.03808 0.16962
 H21 H 0.09497 0.07587 0.21439
 N22 N 0.17987 0.12016 0.08976
 N23 N 0.16689 0.14534 0.07916
 C24 C 0.18192 0.15479 0.05388
 C25 C 0.20528 0.13459 0.04844
 C26 C 0.20348 0.11290 0.07144
 H27 H 0.17606 0.17457 0.04008
 H28 H 0.21797 0.09311 0.07426
 H29 H 0.12492 0.11819 0.11017
 H30 H 0.15070 0.14163 0.13543
 N31 N 0.40900 0.82244 0.62116
 N32 N 0.41932 0.83640 0.64616
 C33 C 0.44551 0.82302 0.65548
 C34 C 0.45170 0.79955 0.63528
 C35 C 0.42823 0.79968 0.61375
 H36 H 0.45932 0.83009 0.67513
 H37 H 0.42562 0.78472 0.59396
 Cu38 Cu 0.39851 0.87145 0.66369
 Cu39 Cu 0.37228 0.83570 0.59942
 Cu40 Cu 0.33629 0.90023 0.62717
 N41 N 0.37858 0.90853 0.67779
 N42 N 0.35444 0.91970 0.66340
 C43 C 0.34601 0.94578 0.67738
 C44 C 0.36592 0.95107 0.70171
 C45 C 0.38636 0.92719 0.70144
 H46 H 0.32712 0.96007 0.67015
 H47 H 0.40565 0.92398 0.71694
 N48 N 0.32127 0.87739 0.59089
 N49 N 0.33492 0.85262 0.58048
 C50 C 0.31997 0.84272 0.55497
 C51 C 0.29594 0.86216 0.54924
 C52 C 0.29726 0.88392 0.57224
 H53 H 0.32644 0.82328 0.54110
 H54 H 0.28228 0.90334 0.57476
 H55 H 0.37683 0.88078 0.61225
 H56 H 0.35168 0.85639 0.63660
 N57 N 0.90596 0.67891 0.38052
 N58 N 0.91706 0.66464 0.35631
 C59 C 0.94234 0.67924 0.34696
 C60 C 0.94707 0.70382 0.36631
 C61 C 0.92372 0.70310 0.38735
 H62 H 0.95653 0.67236 0.32786
 H63 H 0.92018 0.71867 0.40643
 Cu64 Cu 0.89797 0.62771 0.34034
 Cu65 Cu 0.86995 0.66443 0.40203
 Cu66 Cu 0.83596 0.59839 0.37380
 N67 N 0.87885 0.59078 0.32439
 N68 N 0.85457 0.57943 0.33773
 C69 C 0.84618 0.55371 0.32288
 C70 C 0.86628 0.54880 0.29911
 C71 C 0.88680 0.57255 0.30061
 H72 H 0.82712 0.53945 0.32909
 H73 H 0.90615 0.57601 0.28573
 N74 N 0.82048 0.62092 0.40993
 N75 N 0.83333 0.64616 0.42056
 C76 C 0.81794 0.65578 0.44559
 C77 C 0.79452 0.63564 0.45083
 C78 C 0.79662 0.61383 0.42796
 H79 H 0.82360 0.67563 0.45936
 H80 H 0.78216 0.59407 0.42504
 H81 H 0.87535 0.61894 0.39091
 H82 H 0.85043 0.64226 0.36479
 N83 N 0.59044 0.32266 -0.12077
 N84 N 0.57935 0.33742 -0.14496
 C85 C 0.55352 0.32360 -0.15466
 C86 C 0.54836 0.29904 -0.13553
 C87 C 0.57207 0.29897 -0.11427
 H88 H 0.53922 0.33107 -0.17379
 H89 H 0.57538 0.28323 -0.09522
 Cu90 Cu 0.59923 0.37390 -0.16049
 Cu91 Cu 0.62708 0.33609 -0.09874
 Cu92 Cu 0.66295 0.40097 -0.12633
 N93 N 0.61966 0.41003 -0.17613
 N94 N 0.64460 0.42044 -0.16261
 C95 C 0.65365 0.44590 -0.17726
 C96 C 0.63329 0.45160 -0.20113
 C97 C 0.61198 0.42859 -0.19989
 H98 H 0.67325 0.45952 -0.17075
 H99 H 0.59220 0.42595 -0.21484
 N100 N 0.67793 0.37792 -0.08995
 N101 N 0.66429 0.35316 -0.07957
 C102 C 0.67939 0.34307 -0.05420
 C103 C 0.70352 0.36238 -0.04851
 C104 C 0.70210 0.38422 -0.07141
 H105 H 0.67307 0.32350 -0.04049
 H106 H 0.71722 0.40347 -0.07399
 H107 H 0.62332 0.38208 -0.10988
 H108 H 0.64695 0.35799 -0.13597
 C109 C -0.12214 0.32888 0.15161
 C110 C -0.09878 0.31490 0.14794
 C111 C -0.07123 0.29761 0.14399
 C112 C -0.04859 0.29787 0.16718
 C113 C -0.02257 0.27974 0.16415
 C114 C -0.01906 0.26128 0.13791
 C115 C -0.04153 0.26132 0.11452
 C116 C -0.06756 0.27947 0.11755
 C117 C 0.00692 0.24140 0.13570
 C118 C 0.02839 0.22430 0.13447
 H119 H -0.05126 0.31172 0.18778
 H120 H -0.00542 0.27975 0.18244
 H121 H -0.03914 0.24701 0.09421
 H122 H -0.08499 0.27903 0.09955
 C123 C 0.62735 0.67258 0.65176
 C124 C 0.60492 0.68819 0.64827
 C125 C 0.57844 0.70729 0.64443
 C126 C 0.58105 0.73892 0.64817
 C127 C 0.55526 0.75751 0.64535
 C128 C 0.52673 0.74456 0.63875
 C129 C 0.52417 0.71296 0.63462
 C130 C 0.54998 0.69436 0.63745
 C131 C 0.50007 0.76366 0.63698
 C132 C 0.47789 0.77988 0.63598
 H133 H 0.60296 0.74917 0.65349
 H134 H 0.55751 0.78192 0.64856
 H135 H 0.50222 0.70272 0.62948
 H136 H 0.54772 0.66993 0.63444
 C137 C 1.12296 0.82859 0.34841
 C138 C 1.09958 0.81471 0.35211
 C139 C 1.07198 0.79759 0.35600
 C140 C 1.06758 0.78060 0.38306
 C141 C 1.04154 0.76253 0.38606
 C142 C 1.01977 0.76147 0.36203
 C143 C 1.02399 0.77879 0.33515
 C144 C 1.05002 0.79683 0.33214
 C145 C 0.99374 0.74171 0.36428
 C146 C 0.97223 0.72471 0.36550
 H147 H 1.08448 0.78099 0.40159
 H148 H 1.03861 0.74908 0.40687
 H149 H 1.00738 0.77798 0.31636
 H150 H 1.05324 0.80981 0.31107
 C151 C 0.37268 0.17248 -0.15225
 C152 C 0.39547 0.18749 -0.14867
 C153 C 0.42239 0.20587 -0.14479
 C154 C 0.45064 0.19506 -0.15489
 C155 C 0.47655 0.21350 -0.15225
 C156 C 0.47431 0.24281 -0.13949
 C157 C 0.44610 0.25347 -0.12912
 C158 C 0.42021 0.23503 -0.13174
 C159 C 0.50072 0.26223 -0.13776
 C160 C 0.52261 0.27882 -0.13661
 H161 H 0.45257 0.17255 -0.16506
 H162 H 0.49822 0.20505 -0.16043
 H163 H 0.44406 0.27612 -0.11930
 H164 H 0.39846 0.24362 -0.12390
 C165 C 0.14584 -0.12893 0.32725
 C166 C 0.14236 -0.10582 0.31251
 C167 C 0.13857 -0.07861 0.29427
 C168 C 0.12667 -0.08056 0.26405
 C169 C 0.12453 -0.05442 0.24561
 C170 C 0.13426 -0.02621 0.25732
 C171 C 0.14566 -0.02417 0.28775
 C172 C 0.14781 -0.05033 0.30620
 C173 C 0.13367 0.00031 0.23767
 C174 C 0.13365 0.02221 0.22079
 H175 H 0.11947 -0.10234 0.25461
 H176 H 0.11572 -0.05629 0.22210
 H177 H 0.15329 -0.00248 0.29703
 H178 H 0.15704 -0.04860 0.32955
 C179 C 0.64841 0.62830 -0.32776
 C180 C 0.64441 0.60518 -0.31322
 C181 C 0.64017 0.57788 -0.29528
 C182 C 0.65097 0.54980 -0.30615
 C183 C 0.64832 0.52363 -0.28784
 C184 C 0.63489 0.52545 -0.25859
 C185 C 0.62360 0.55341 -0.24799
 C186 C 0.62625 0.57957 -0.26627
 C187 C 0.63388 0.49902 -0.23887
 C188 C 0.63345 0.47721 -0.22187
 H189 H 0.66182 0.54823 -0.32853
 H190 H 0.65711 0.50211 -0.29627
 H191 H 0.61317 0.55508 -0.22541
 H192 H 0.61788 0.60117 -0.25761
 C193 C 0.35106 1.12872 0.82713
 C194 C 0.35497 1.10555 0.81262
 C195 C 0.35913 1.07817 0.79477
 C196 C 0.37293 1.07965 0.76570
 C197 C 0.37548 1.05337 0.74754
 C198 C 0.36428 1.02550 0.75839
 C199 C 0.35088 1.02392 0.78766
 C200 C 0.34832 1.05021 0.80582
 C201 C 0.36543 0.99888 0.73893
 C202 C 0.36590 0.97689 0.72218
 H203 H 0.38131 1.10116 0.75690
 H204 H 0.38577 1.05487 0.72489
 H205 H 0.34203 1.00250 0.79621
 H206 H 0.33756 1.04884 0.82825
 C207 C 0.85474 0.37167 0.17223
 C208 C 0.85794 0.39505 0.18662
 C209 C 0.86140 0.42255 0.20448
 C210 C 0.84648 0.44935 0.19516
 C211 C 0.84858 0.47561 0.21350
 C212 C 0.86558 0.47515 0.24122
 C213 C 0.88088 0.44847 0.25027
 C214 C 0.87879 0.42223 0.23193
 C215 C 0.86629 0.50155 0.26106
 C216 C 0.86647 0.52331 0.27816
 H217 H 0.83291 0.44981 0.17400
 H218 H 0.83660 0.49608 0.20633
 H219 H 0.89402 0.44781 0.27169
 H220 H 0.89033 0.40159 0.23938
 C221 C 0.33019 0.15134 -0.12947
 C222 C 0.31595 0.14798 -0.10598
 C223 C 0.29858 0.14445 -0.07814
 C224 C 0.29653 0.16865 -0.05705
 C225 C 0.27862 0.16577 -0.03064
 C226 C 0.26267 0.13869 -0.02517
 C227 C 0.26503 0.11432 -0.04605
 C228 C 0.28297 0.11720 -0.07249
 C229 C 0.24297 0.13650 0.00118
 C230 C 0.22603 0.13531 0.02294
 H231 H 0.30846 0.18985 -0.06122
 H232 H 0.27688 0.18479 -0.01470
 H233 H 0.25274 0.09329 -0.04212
 H234 H 0.28437 0.09837 -0.08869
 C235 C 0.66931 0.65052 0.62870
 C236 C 0.68343 0.64690 0.60518
 C237 C 0.70081 0.64311 0.57736
 C238 C 0.69519 0.66196 0.55171
 C239 C 0.71327 0.65950 0.52534
 C240 C 0.73704 0.63816 0.52451
 C241 C 0.74232 0.61895 0.54998
 C242 C 0.72423 0.62141 0.57634
 C243 C 0.75676 0.63686 0.49809
 C244 C 0.77372 0.63616 0.47631
 H245 H 0.67716 0.67885 0.55227
 H246 H 0.70902 0.67451 0.50582
 H247 H 0.76067 0.60241 0.54965
 H248 H 0.72878 0.60676 0.59608
 C249 C 0.83342 0.34773 0.12930
 C250 C 0.81793 0.35020 0.10615
 C251 C 0.79888 0.35257 0.07887
 C252 C 0.80273 0.37668 0.05797
 C253 C 0.78386 0.37895 0.03167
 C254 C 0.76113 0.35711 0.02621
 C255 C 0.75729 0.33305 0.04714
 C256 C 0.77613 0.33079 0.07339
 C257 C 0.74141 0.35944 -0.00059
 C258 C 0.72442 0.36098 -0.02269
 H259 H 0.82020 0.39371 0.06204
 H260 H 0.78691 0.39772 0.01569
 H261 H 0.73969 0.31613 0.04322
 H262 H 0.77290 0.31212 0.08947
 C263 C 0.16740 0.84773 0.37050
 C264 C 0.18292 0.85039 0.39361
 C265 C 0.20193 0.85287 0.42090
 C266 C 0.22581 0.83209 0.42561
 C267 C 0.24440 0.83427 0.45205
 C268 C 0.23921 0.85725 0.47391
 C269 C 0.21538 0.87809 0.46923
 C270 C 0.19676 0.87592 0.44275
 C271 C 0.25859 0.85950 0.50092
 C272 C 0.27532 0.86097 0.52321
 H273 H 0.23007 0.81425 0.40882
 H274 H 0.26283 0.81809 0.45541
 H275 H 0.21126 0.89599 0.48599
 H276 H 0.17841 0.89216 0.43931
   
