data_POSCAR
  _audit_creation_date              2014-09-24
  _audit_creation_method            'ToBaCCo'
  _symmetry_space_group_name_H-M    'P1'
  _symmetry_Int_Tables_number       1
  _symmetry_cell_setting            triclinic
  loop_
  _symmetry_equiv_pos_as_xyz
 x,y,z
_cell_length_a 17.4352
_cell_length_b 15.7473
_cell_length_c 17.2210
_cell_angle_alpha 87.488300
_cell_angle_beta 66.470800
_cell_angle_gamma 105.385400
loop_
  _atom_site_label
  _atom_site_type_symbol
  _atom_site_fract_x
  _atom_site_fract_y
  _atom_site_fract_z
C1 C 0.48070 -0.11597 0.17291
 H2 H 0.54502 -0.12512 0.14527
 C3 C 0.45700 -0.07448 0.24532
 H4 H 0.50296 -0.05350 0.27353
 C5 C 0.34939 -0.11798 0.16118
 H6 H 0.31019 -0.12857 0.12533
 C7 C 0.32269 -0.07793 0.23401
 H8 H 0.26315 -0.05906 0.25340
 N9 N 0.42977 -0.13091 0.12917
 C10 C 0.57802 -0.22723 -0.10236
 H11 H 0.59352 -0.16985 -0.14911
 C12 C 0.61810 -0.29324 -0.12738
 H13 H 0.66487 -0.28648 -0.19343
 C14 C 0.49911 -0.30520 0.04071
 H15 H 0.45267 -0.30906 0.10615
 C16 C 0.53337 -0.37600 0.01679
 H17 H 0.50912 -0.43600 0.06343
 Zn18 Zn 0.48890 -0.12871 0.00941
 N19 N 0.52438 -0.23134 -0.01848
 C20 C 0.67317 -0.02695 -0.07253
 N21 N 0.58920 -0.02466 -0.02942
 C22 C 0.57295 0.05310 -0.00832
 C23 C 0.64181 0.13315 -0.03481
 C24 C 0.74381 0.05192 -0.10181
 C25 C 0.33941 -0.18650 -0.02279
 C26 C 0.27651 -0.17757 -0.05078
 C27 C 0.37138 -0.02924 -0.12584
 C28 C 0.43241 -0.04083 -0.09626
 N29 N 0.41428 -0.11752 -0.04351
 H30 H 0.68619 -0.08934 -0.08486
 H31 H 0.50600 0.05300 0.02810
 H32 H 0.62729 0.19474 -0.01972
 H33 H 0.81003 0.05002 -0.13883
 H34 H 0.32695 -0.24699 0.01865
 H35 H 0.21571 -0.23164 -0.03151
 H36 H 0.38518 0.03297 -0.16578
 H37 H 0.49305 0.01243 -0.11382
 C38 C 0.59956 -0.36644 -0.06674
 C39 C 0.37989 -0.04944 0.27244
 C40 C 0.29199 -0.09752 -0.10140
 C41 C 0.72828 0.13295 -0.08364
 C42 C -0.17395 0.61428 0.70774
 H43 H -0.19117 0.56069 0.75863
 C44 C -0.23234 0.61331 0.67099
 H45 H -0.29414 0.55987 0.69554
 C46 C -0.06913 0.74227 0.60707
 H47 H -0.00346 0.78930 0.57948
 C48 C -0.12511 0.74281 0.56747
 H49 H -0.10283 0.79097 0.51014
 N50 N -0.09257 0.67585 0.67311
 C51 C 0.15860 0.72956 0.54469
 H52 H 0.17221 0.77844 0.58337
 C53 C 0.21140 0.74638 0.45638
 H54 H 0.26645 0.80704 0.42750
 C55 C 0.06438 0.59683 0.53174
 H56 H 0.00326 0.54257 0.56013
 C57 C 0.11754 0.60933 0.44382
 H58 H 0.09885 0.56324 0.40494
 Zn59 Zn 0.00023 0.65225 0.69200
 N60 N 0.08588 0.65631 0.58039
 C61 C -0.02349 0.46565 0.73155
 N62 N -0.04299 0.53897 0.76266
 C63 C -0.10287 0.53236 0.84477
 C64 C -0.15338 0.44865 0.89545
 C65 C -0.07304 0.38046 0.78000
 C66 C 0.02438 0.81195 0.76399
 C67 C 0.06616 0.87448 0.80118
 C68 C 0.15749 0.78239 0.80036
 C69 C 0.11427 0.72194 0.76325
 N70 N 0.04963 0.73789 0.74543
 H71 H 0.02679 0.47233 0.66756
 H72 H -0.11615 0.59186 0.86844
 H73 H -0.20490 0.44349 0.95856
 H74 H -0.06140 0.32226 0.75209
 H75 H -0.02736 0.82285 0.74924
 H76 H 0.04648 0.93376 0.81542
 H77 H 0.20933 0.76886 0.81328
 H78 H 0.13278 0.66236 0.74758
 C79 C 0.19081 0.68558 0.40562
 C80 C -0.20575 0.67523 0.59695
 C81 C 0.13357 0.85999 0.81942
 C82 C -0.14168 0.37179 0.86140
 C83 C 0.51131 0.48913 0.48739
 H84 H 0.44438 0.44507 0.51295
 C85 C 0.54783 0.52148 0.54319
 H86 H 0.50941 0.50175 0.61199
 C87 C 0.64494 0.56488 0.36643
 H88 H 0.68332 0.57958 0.29764
 C89 C 0.68355 0.60000 0.42003
 H90 H 0.75168 0.64132 0.39192
 N91 N 0.56026 0.51044 0.40086
 C92 C 0.38470 0.48533 0.27615
 H93 H 0.39989 0.43303 0.23975
 C94 C 0.33793 0.53605 0.25722
 H95 H 0.31585 0.52186 0.20730
 C96 C 0.40446 0.57533 0.37768
 H97 H 0.43509 0.59385 0.42056
 C98 C 0.35794 0.62773 0.36057
 H99 H 0.35408 0.68650 0.39012
 Zn100 Zn 0.50585 0.45655 0.33214
 N101 N 0.41816 0.50661 0.33440
 C102 C 0.38303 0.28173 0.37364
 N103 N 0.46143 0.33126 0.37048
 C104 C 0.51974 0.29189 0.37705
 C105 C 0.50453 0.20023 0.37755
 C106 C 0.36554 0.18979 0.37341
 C107 C 0.62251 0.56271 0.16908
 C108 C 0.65624 0.57786 0.07929
 C109 C 0.61155 0.41842 0.08341
 C110 C 0.58172 0.40603 0.17230
 N111 N 0.58375 0.47765 0.21378
 H112 H 0.33752 0.31426 0.36858
 H113 H 0.58196 0.33301 0.37348
 H114 H 0.55514 0.17102 0.37445
 H115 H 0.30662 0.15260 0.36784
 H116 H 0.62158 0.61876 0.20318
 H117 H 0.68541 0.64558 0.04419
 H118 H 0.60455 0.36099 0.05149
 H119 H 0.54987 0.33894 0.20812
 C120 C 0.32480 0.60842 0.29908
 C121 C 0.63479 0.57715 0.50960
 C122 C 0.64344 0.50477 0.03703
 C123 C 0.42936 0.14939 0.37048
 N124 N 0.23680 0.70708 0.31405
 N125 N 0.29178 0.66983 0.26765
 N126 N 0.64611 0.56960 -0.09579
 N127 N 0.66288 0.51461 -0.05265
 N128 N 0.23409 0.91374 0.87712
 N129 N 0.17676 0.92474 0.85671
 N130 N 0.74851 0.66128 0.54327
 N131 N 0.67507 0.60059 0.56684
 N132 N 0.36980 0.02206 0.32043
 N133 N 0.42968 0.06584 0.34076
 N134 N -0.20058 0.21455 0.87885
 N135 N -0.20732 0.28774 0.90486
   
