data_POSCAR
  _audit_creation_date              2014-09-24
  _audit_creation_method            'ToBaCCo'
  _symmetry_space_group_name_H-M    'P1'
  _symmetry_Int_Tables_number       1
  _symmetry_cell_setting            triclinic
  loop_
  _symmetry_equiv_pos_as_xyz
 x,y,z
_cell_length_a 41.0820
_cell_length_b 41.0814
_cell_length_c 41.0814
_cell_angle_alpha 90.000200
_cell_angle_beta 89.999900
_cell_angle_gamma 90.000000
loop_
  _atom_site_label
  _atom_site_type_symbol
  _atom_site_fract_x
  _atom_site_fract_y
  _atom_site_fract_z
C1 C 0.25001 0.50000 1.00000
 C2 C 0.75000 0.50000 0.00000
 C3 C 0.00000 0.25000 0.50000
 C4 C 1.00000 0.75000 0.50000
 C5 C 0.50000 -0.00000 0.25001
 C6 C 0.50000 0.00000 0.75000
 C7 C 0.27689 0.02162 0.43982
 H8 H 0.25981 0.04152 0.44158
 C9 C 0.29896 0.02070 0.41395
 H10 H 0.29829 0.03986 0.39587
 C11 C 0.29940 -0.02666 0.46192
 H12 H 0.29968 -0.04474 0.48107
 C13 C 0.32184 -0.02856 0.43649
 H14 H 0.33922 -0.04837 0.43625
 N15 N 0.27747 -0.00192 0.46309
 C16 C 0.22311 0.06019 0.52162
 H17 H 0.24019 0.05842 0.54153
 C18 C 0.20104 0.08606 0.52071
 H19 H 0.20171 0.10414 0.53987
 C20 C 0.20060 0.03809 0.47334
 H21 H 0.20032 0.01894 0.45526
 C22 C 0.17816 0.06352 0.47144
 H23 H 0.16078 0.06376 0.45163
 Zn24 Zn 0.25000 0.00000 0.50000
 N25 N 0.22253 0.03691 0.49808
 C26 C 0.29940 0.02666 0.53809
 N27 N 0.27747 0.00192 0.53691
 C28 C 0.27689 -0.02162 0.56019
 C29 C 0.29896 -0.02070 0.58606
 C30 C 0.32184 0.02856 0.56352
 C31 C 0.22311 -0.06019 0.47839
 C32 C 0.20104 -0.08606 0.47930
 C33 C 0.17816 -0.06352 0.52857
 C34 C 0.20060 -0.03809 0.52667
 N35 N 0.22253 -0.03691 0.50193
 H36 H 0.29968 0.04474 0.51894
 H37 H 0.25981 -0.04152 0.55843
 H38 H 0.29829 -0.03986 0.60414
 H39 H 0.33922 0.04837 0.56376
 H40 H 0.24019 -0.05842 0.45848
 H41 H 0.20171 -0.10414 0.46014
 H42 H 0.16078 -0.06376 0.54838
 H43 H 0.20032 -0.01894 0.54475
 C44 C 0.17801 0.08785 0.49547
 C45 C 0.32199 -0.00453 0.41215
 C46 C 0.17801 -0.08785 0.50453
 C47 C 0.32199 0.00453 0.58785
 C48 C 0.72312 0.02162 0.56019
 H49 H 0.74020 0.04152 0.55842
 C50 C 0.70105 0.02071 0.58606
 H51 H 0.70172 0.03987 0.60414
 C52 C 0.70061 -0.02666 0.53809
 H53 H 0.70033 -0.04474 0.51894
 C54 C 0.67817 -0.02856 0.56352
 H55 H 0.66079 -0.04837 0.56376
 N56 N 0.72254 -0.00192 0.53691
 C57 C 0.77690 0.06019 0.47838
 H58 H 0.75982 0.05842 0.45848
 C59 C 0.79896 0.08606 0.47930
 H60 H 0.79829 0.10414 0.46014
 C61 C 0.79941 0.03809 0.52667
 H62 H 0.79968 0.01894 0.54475
 C63 C 0.82184 0.06352 0.52857
 H64 H 0.83922 0.06376 0.54838
 Zn65 Zn 0.75001 0.00000 0.50000
 N66 N 0.77748 0.03691 0.50192
 C67 C 0.70061 0.02666 0.46192
 N68 N 0.72254 0.00192 0.46309
 C69 C 0.72312 -0.02162 0.43982
 C70 C 0.70105 -0.02071 0.41395
 C71 C 0.67817 0.02856 0.43649
 C72 C 0.77690 -0.06019 0.52162
 C73 C 0.79896 -0.08606 0.52071
 C74 C 0.82184 -0.06352 0.47144
 C75 C 0.79941 -0.03809 0.47334
 N76 N 0.77748 -0.03691 0.49808
 H77 H 0.70033 0.04474 0.48107
 H78 H 0.74020 -0.04152 0.44158
 H79 H 0.70172 -0.03986 0.39587
 H80 H 0.66079 0.04837 0.43625
 H81 H 0.75982 -0.05842 0.54153
 H82 H 0.79829 -0.10414 0.53987
 H83 H 0.83922 -0.06376 0.45163
 H84 H 0.79968 -0.01894 0.45526
 C85 C 0.82200 0.08785 0.50453
 C86 C 0.67802 -0.00453 0.58785
 C87 C 0.82200 -0.08785 0.49547
 C88 C 0.67802 0.00453 0.41215
 C89 C 0.47334 0.20060 1.03810
 H90 H 0.45526 0.20032 1.01895
 C91 C 0.47144 0.17816 1.06353
 H92 H 0.45163 0.16078 1.06377
 C93 C 0.52162 0.22311 1.06019
 H94 H 0.54153 0.24019 1.05842
 C95 C 0.52071 0.20104 1.08606
 H96 H 0.53987 0.20171 1.10414
 N97 N 0.49808 0.22253 1.03692
 C98 C 0.46192 0.29940 0.97334
 H99 H 0.48106 0.29967 0.95526
 C100 C 0.43649 0.32183 0.97144
 H101 H 0.43625 0.33921 0.95163
 C102 C 0.43982 0.27689 1.02163
 H103 H 0.44159 0.25981 1.04153
 C104 C 0.41395 0.29896 1.02071
 H105 H 0.39587 0.29829 1.03987
 Zn106 Zn 0.50000 0.25000 1.00001
 N107 N 0.46309 0.27747 0.99809
 C108 C 0.47838 0.22311 0.93982
 N109 N 0.50192 0.22253 0.96310
 C110 C 0.52667 0.20060 0.96192
 C111 C 0.52857 0.17816 0.93648
 C112 C 0.47930 0.20104 0.91395
 C113 C 0.53809 0.29940 1.02667
 C114 C 0.56352 0.32183 1.02857
 C115 C 0.58606 0.29895 0.97930
 C116 C 0.56019 0.27689 0.97839
 N117 N 0.53691 0.27746 1.00193
 H118 H 0.45848 0.24019 0.94159
 H119 H 0.54475 0.20032 0.98106
 H120 H 0.54838 0.16078 0.93625
 H121 H 0.46014 0.20171 0.89587
 H122 H 0.51895 0.29967 1.04475
 H123 H 0.56376 0.33921 1.04838
 H124 H 0.60414 0.29829 0.96014
 H125 H 0.55842 0.25981 0.95848
 C126 C 0.41215 0.32199 0.99548
 C127 C 0.49547 0.17801 1.08786
 C128 C 0.58786 0.32199 1.00454
 C129 C 0.50453 0.17801 0.91215
 C130 C 0.47334 0.79940 -0.03809
 H131 H 0.45526 0.79968 -0.01894
 C132 C 0.47144 0.82184 -0.06352
 H133 H 0.45163 0.83922 -0.06376
 C134 C 0.52162 0.77689 -0.06019
 H135 H 0.54153 0.75982 -0.05842
 C136 C 0.52071 0.79896 -0.08605
 H137 H 0.53987 0.79829 -0.10414
 N138 N 0.49808 0.77747 -0.03691
 C139 C 0.46192 0.70060 0.02666
 H140 H 0.48106 0.70033 0.04474
 C141 C 0.43649 0.67817 0.02856
 H142 H 0.43625 0.66079 0.04837
 C143 C 0.43982 0.72311 -0.02162
 H144 H 0.44159 0.74019 -0.04152
 C145 C 0.41395 0.70104 -0.02071
 H146 H 0.39587 0.70171 -0.03986
 Zn147 Zn 0.50000 0.75000 0.00000
 N148 N 0.46309 0.72254 0.00192
 C149 C 0.47838 0.77689 0.06019
 N150 N 0.50192 0.77747 0.03691
 C151 C 0.52667 0.79940 0.03809
 C152 C 0.52857 0.82184 0.06352
 C153 C 0.47930 0.79896 0.08606
 C154 C 0.53809 0.70060 -0.02666
 C155 C 0.56352 0.67817 -0.02856
 C156 C 0.58606 0.70105 0.02071
 C157 C 0.56019 0.72311 0.02162
 N158 N 0.53691 0.72254 -0.00192
 H159 H 0.45848 0.75981 0.05842
 H160 H 0.54475 0.79968 0.01894
 H161 H 0.54838 0.83922 0.06376
 H162 H 0.46014 0.79829 0.10414
 H163 H 0.51895 0.70033 -0.04474
 H164 H 0.56376 0.66079 -0.04837
 H165 H 0.60414 0.70171 0.03987
 H166 H 0.55842 0.74019 0.04153
 C167 C 0.41215 0.67801 0.00453
 C168 C 0.49547 0.82199 -0.08785
 C169 C 0.58786 0.67801 -0.00453
 C170 C 0.50453 0.82199 0.08786
 C171 C 1.03809 0.47334 0.20060
 H172 H 1.01895 0.45526 0.20032
 C173 C 1.06352 0.47144 0.17816
 H174 H 1.06376 0.45163 0.16078
 C175 C 1.06019 0.52162 0.22311
 H176 H 1.05842 0.54153 0.24019
 C177 C 1.08606 0.52071 0.20104
 H178 H 1.10414 0.53987 0.20171
 N179 N 1.03691 0.49808 0.22253
 C180 C 0.97334 0.46191 0.29940
 H181 H 0.95526 0.48106 0.29967
 C182 C 0.97144 0.43648 0.32184
 H183 H 0.95163 0.43624 0.33921
 C184 C 1.02162 0.43981 0.27689
 H185 H 1.04153 0.44158 0.25981
 C186 C 1.02071 0.41394 0.29896
 H187 H 1.03987 0.39586 0.29829
 Zn188 Zn 1.00000 0.50000 0.25000
 N189 N 0.99808 0.46309 0.27747
 C190 C 0.93982 0.47838 0.22311
 N191 N 0.96309 0.50192 0.22253
 C192 C 0.96191 0.52666 0.20060
 C193 C 0.93648 0.52856 0.17816
 C194 C 0.91395 0.47929 0.20104
 C195 C 1.02667 0.53809 0.29940
 C196 C 1.02857 0.56352 0.32184
 C197 C 0.97930 0.58606 0.29896
 C198 C 0.97838 0.56019 0.27689
 N199 N 1.00192 0.53691 0.27747
 H200 H 0.94159 0.45847 0.24019
 H201 H 0.98106 0.54474 0.20032
 H202 H 0.93624 0.54837 0.16079
 H203 H 0.89587 0.46013 0.20171
 H204 H 1.04475 0.51894 0.29967
 H205 H 1.04837 0.56376 0.33921
 H206 H 0.96014 0.60414 0.29829
 H207 H 0.95848 0.55842 0.25981
 C208 C 0.99547 0.41215 0.32199
 C209 C 1.08786 0.49547 0.17801
 C210 C 1.00453 0.58785 0.32199
 C211 C 0.91215 0.50453 0.17801
 C212 C -0.03809 0.47334 0.79941
 H213 H -0.01894 0.45526 0.79969
 C214 C -0.06352 0.47144 0.82185
 H215 H -0.06376 0.45163 0.83922
 C216 C -0.06018 0.52162 0.77690
 H217 H -0.05841 0.54153 0.75982
 C218 C -0.08605 0.52071 0.79897
 H219 H -0.10413 0.53987 0.79830
 N220 N -0.03691 0.49808 0.77748
 C221 C 0.02667 0.46191 0.70061
 H222 H 0.04475 0.48106 0.70033
 C223 C 0.02857 0.43648 0.67817
 H224 H 0.04838 0.43624 0.66079
 C225 C -0.02162 0.43981 0.72312
 H226 H -0.04152 0.44158 0.74020
 C227 C -0.02070 0.41394 0.70105
 H228 H -0.03986 0.39586 0.70172
 Zn229 Zn 0.00000 0.50000 0.75001
 N230 N 0.00192 0.46309 0.72254
 C231 C 0.06019 0.47838 0.77690
 N232 N 0.03691 0.50192 0.77748
 C233 C 0.03809 0.52666 0.79941
 C234 C 0.06353 0.52856 0.82184
 C235 C 0.08606 0.47929 0.79897
 C236 C -0.02666 0.53809 0.70061
 C237 C -0.02856 0.56352 0.67817
 C238 C 0.02071 0.58606 0.70105
 C239 C 0.02162 0.56019 0.72312
 N240 N -0.00192 0.53691 0.72254
 H241 H 0.05842 0.45847 0.75982
 H242 H 0.01895 0.54474 0.79969
 H243 H 0.06376 0.54837 0.83922
 H244 H 0.10414 0.46013 0.79830
 H245 H -0.04474 0.51894 0.70033
 H246 H -0.04837 0.56376 0.66079
 H247 H 0.03987 0.60414 0.70172
 H248 H 0.04153 0.55842 0.74020
 C249 C 0.00453 0.41215 0.67802
 C250 C -0.08785 0.49547 0.82200
 C251 C -0.00453 0.58785 0.67802
 C252 C 0.08786 0.50453 0.82200
 C253 C 0.08002 0.18494 0.49544
 N254 N 0.05709 0.18533 0.47168
 N255 N 0.03239 0.20628 0.47294
 C256 C 0.02965 0.22779 0.49795
 N257 N 0.05273 0.22736 0.52170
 N258 N 0.07745 0.20640 0.52043
 C259 C 0.10634 0.16076 0.49477
 N260 N 0.12875 0.15951 0.51901
 N261 N 0.15178 0.13666 0.51901
 C262 C 0.15328 0.11415 0.49481
 N263 N 0.13093 0.11564 0.47047
 N264 N 0.10793 0.13847 0.47044
 C265 C 0.68494 0.58002 -0.00456
 N266 N 0.68533 0.55709 -0.02832
 N267 N 0.70628 0.53239 -0.02706
 C268 C 0.72779 0.52965 -0.00205
 N269 N 0.72736 0.55273 0.02170
 N270 N 0.70639 0.57745 0.02043
 C271 C 0.66076 0.60634 -0.00524
 N272 N 0.65951 0.62876 0.01901
 N273 N 0.63666 0.65178 0.01901
 C274 C 0.61415 0.65329 -0.00520
 N275 N 0.61564 0.63094 -0.02953
 N276 N 0.63847 0.60793 -0.02956
 C277 C 0.91998 -0.18494 0.49544
 N278 N 0.94292 -0.18533 0.47168
 N279 N 0.96762 -0.20628 0.47294
 C280 C 0.97036 -0.22779 0.49795
 N281 N 0.94728 -0.22736 0.52170
 N282 N 0.92256 -0.20640 0.52044
 C283 C 0.89367 -0.16076 0.49477
 N284 N 0.87125 -0.15951 0.51901
 N285 N 0.84823 -0.13666 0.51901
 C286 C 0.84672 -0.11415 0.49481
 N287 N 0.86907 -0.11564 0.47047
 N288 N 0.89208 -0.13847 0.47044
 C289 C 0.31506 0.41998 0.99544
 N290 N 0.31467 0.44291 0.97168
 N291 N 0.29373 0.46761 0.97294
 C292 C 0.27222 0.47035 0.99795
 N293 N 0.27265 0.44727 1.02170
 N294 N 0.29361 0.42255 1.02044
 C295 C 0.33925 0.39366 0.99477
 N296 N 0.34050 0.37125 1.01901
 N297 N 0.36335 0.34822 1.01901
 C298 C 0.38586 0.34671 0.99481
 N299 N 0.38437 0.36906 0.97047
 N300 N 0.36153 0.39207 0.97044
 C301 C 0.91998 0.18494 0.50456
 N302 N 0.94292 0.18533 0.52832
 N303 N 0.96762 0.20628 0.52707
 C304 C 0.97036 0.22779 0.50206
 N305 N 0.94728 0.22736 0.47831
 N306 N 0.92256 0.20640 0.47957
 C307 C 0.89367 0.16076 0.50524
 N308 N 0.87125 0.15951 0.48100
 N309 N 0.84823 0.13666 0.48100
 C310 C 0.84672 0.11415 0.50520
 N311 N 0.86907 0.11564 0.52954
 N312 N 0.89208 0.13847 0.52956
 C313 C 0.31506 0.58002 0.00456
 N314 N 0.29361 0.57745 -0.02043
 N315 N 0.27265 0.55273 -0.02169
 C316 C 0.27222 0.52965 0.00206
 N317 N 0.29373 0.53239 0.02707
 N318 N 0.31467 0.55709 0.02832
 C319 C 0.33925 0.60634 0.00524
 N320 N 0.36153 0.60793 0.02956
 N321 N 0.38437 0.63094 0.02954
 C322 C 0.38586 0.65329 0.00520
 N323 N 0.36335 0.65178 -0.01901
 N324 N 0.34050 0.62875 -0.01900
 C325 C 0.08002 -0.18494 0.50456
 N326 N 0.07745 -0.20640 0.47957
 N327 N 0.05273 -0.22736 0.47831
 C328 C 0.02965 -0.22779 0.50206
 N329 N 0.03239 -0.20628 0.52707
 N330 N 0.05709 -0.18533 0.52832
 C331 C 0.10634 -0.16076 0.50524
 N332 N 0.10793 -0.13847 0.52956
 N333 N 0.13093 -0.11564 0.52954
 C334 C 0.15328 -0.11415 0.50520
 N335 N 0.15178 -0.13666 0.48100
 N336 N 0.12875 -0.15951 0.48100
 C337 C 0.68494 0.41998 1.00456
 N338 N 0.68533 0.44291 1.02832
 N339 N 0.70628 0.46761 1.02707
 C340 C 0.72779 0.47035 1.00206
 N341 N 0.72736 0.44727 0.97831
 N342 N 0.70640 0.42255 0.97957
 C343 C 0.66076 0.39366 1.00524
 N344 N 0.65951 0.37124 0.98100
 N345 N 0.63666 0.34822 0.98100
 C346 C 0.61415 0.34671 1.00520
 N347 N 0.61564 0.36906 1.02954
 N348 N 0.63847 0.39207 1.02957
 C349 C 0.49544 0.08002 1.18495
 N350 N 0.47168 0.05709 1.18534
 N351 N 0.47294 0.03239 1.20629
 C352 C 0.49795 0.02964 1.22780
 N353 N 0.52170 0.05273 1.22737
 N354 N 0.52043 0.07745 1.20640
 C355 C 0.49477 0.10634 1.16077
 N356 N 0.51901 0.12875 1.15952
 N357 N 0.51901 0.15178 1.13667
 C358 C 0.49481 0.15328 1.11416
 N359 N 0.47047 0.13093 1.11565
 N360 N 0.47044 0.10792 1.13848
 C361 C -0.00456 0.68494 0.58003
 N362 N 0.02043 0.70639 0.57745
 N363 N 0.02170 0.72736 0.55273
 C364 C -0.00205 0.72779 0.52965
 N365 N -0.02706 0.70628 0.53239
 N366 N -0.02832 0.68533 0.55709
 C367 C -0.00523 0.66076 0.60635
 N368 N -0.02956 0.63847 0.60793
 N369 N -0.02953 0.61564 0.63094
 C370 C -0.00519 0.61415 0.65329
 N371 N 0.01901 0.63666 0.65179
 N372 N 0.01901 0.65951 0.62876
 C373 C 0.49544 0.91998 -0.18494
 N374 N 0.47168 0.94291 -0.18533
 N375 N 0.47294 0.96761 -0.20628
 C376 C 0.49795 0.97036 -0.22779
 N377 N 0.52170 0.94727 -0.22736
 N378 N 0.52043 0.92255 -0.20640
 C379 C 0.49476 0.89366 -0.16076
 N380 N 0.51901 0.87125 -0.15951
 N381 N 0.51901 0.84822 -0.13666
 C382 C 0.49481 0.84672 -0.11415
 N383 N 0.47047 0.86907 -0.11564
 N384 N 0.47044 0.89208 -0.13847
 C385 C 0.99544 0.31506 0.41998
 N386 N 0.97168 0.31467 0.44291
 N387 N 0.97294 0.29372 0.46761
 C388 C 0.99795 0.27221 0.47036
 N389 N 1.02170 0.27264 0.44727
 N390 N 1.02043 0.29361 0.42255
 C391 C 0.99476 0.33924 0.39366
 N392 N 1.01901 0.34049 0.37125
 N393 N 1.01901 0.36334 0.34822
 C394 C 0.99480 0.38585 0.34671
 N395 N 0.97047 0.38436 0.36906
 N396 N 0.97044 0.36153 0.39207
 C397 C 0.50456 0.91998 0.18495
 N398 N 0.47957 0.92255 0.20640
 N399 N 0.47831 0.94727 0.22737
 C400 C 0.50206 0.97035 0.22780
 N401 N 0.52707 0.96761 0.20629
 N402 N 0.52832 0.94291 0.18534
 C403 C 0.50524 0.89366 0.16077
 N404 N 0.52956 0.89207 0.13848
 N405 N 0.52954 0.86907 0.11564
 C406 C 0.50520 0.84672 0.11415
 N407 N 0.48100 0.84822 0.13666
 N408 N 0.48100 0.87125 0.15951
 C409 C 0.00456 0.31506 0.58002
 N410 N -0.02043 0.29361 0.57745
 N411 N -0.02169 0.27265 0.55273
 C412 C 0.00206 0.27221 0.52965
 N413 N 0.02707 0.29372 0.53239
 N414 N 0.02832 0.31467 0.55709
 C415 C 0.00524 0.33924 0.60635
 N416 N 0.02956 0.36153 0.60793
 N417 N 0.02954 0.38436 0.63094
 C418 C 0.00520 0.38585 0.65329
 N419 N -0.01900 0.36334 0.65179
 N420 N -0.01900 0.34049 0.62876
 C421 C 0.50456 0.08002 0.81506
 N422 N 0.47957 0.07745 0.79360
 N423 N 0.47831 0.05273 0.77264
 C424 C 0.50205 0.02965 0.77221
 N425 N 0.52707 0.03239 0.79372
 N426 N 0.52832 0.05709 0.81467
 C427 C 0.50524 0.10634 0.83924
 N428 N 0.52956 0.10793 0.86153
 N429 N 0.52954 0.13093 0.88436
 C430 C 0.50520 0.15328 0.88586
 N431 N 0.48100 0.15178 0.86334
 N432 N 0.48100 0.12875 0.84049
 C433 C 1.00456 0.68494 0.41998
 N434 N 1.02832 0.68533 0.44291
 N435 N 1.02707 0.70628 0.46762
 C436 C 1.00206 0.72779 0.47036
 N437 N 0.97831 0.72736 0.44728
 N438 N 0.97957 0.70639 0.42256
 C439 C 1.00524 0.66076 0.39366
 N440 N 0.98100 0.65951 0.37125
 N441 N 0.98100 0.63666 0.34822
 C442 C 1.00520 0.61415 0.34672
 N443 N 1.02954 0.61564 0.36907
 N444 N 1.02956 0.63847 0.39208
 C445 C 1.18495 0.49544 0.08002
 N446 N 1.18534 0.47168 0.05709
 N447 N 1.20629 0.47293 0.03239
 C448 C 1.22780 0.49795 0.02965
 N449 N 1.22736 0.52169 0.05273
 N450 N 1.20640 0.52043 0.07745
 C451 C 1.16076 0.49476 0.10634
 N452 N 1.15951 0.51901 0.12876
 N453 N 1.13666 0.51901 0.15178
 C454 C 1.11415 0.49480 0.15329
 N455 N 1.11564 0.47046 0.13094
 N456 N 1.13848 0.47044 0.10793
 C457 C 0.58002 -0.00456 0.68494
 N458 N 0.55709 -0.02832 0.68533
 N459 N 0.53239 -0.02706 0.70628
 C460 C 0.52965 -0.00205 0.72779
 N461 N 0.55273 0.02170 0.72735
 N462 N 0.57745 0.02043 0.70639
 C463 C 0.60634 -0.00524 0.66076
 N464 N 0.62876 0.01901 0.65951
 N465 N 0.65178 0.01901 0.63666
 C466 C 0.65329 -0.00520 0.61415
 N467 N 0.63094 -0.02953 0.61564
 N468 N 0.60793 -0.02956 0.63847
 C469 C -0.18494 0.49544 0.91998
 N470 N -0.20639 0.52043 0.92256
 N471 N -0.22736 0.52169 0.94728
 C472 C -0.22779 0.49795 0.97036
 N473 N -0.20628 0.47293 0.96761
 N474 N -0.18533 0.47168 0.94291
 C475 C -0.16076 0.49476 0.89366
 N476 N -0.13847 0.47044 0.89208
 N477 N -0.11564 0.47046 0.86907
 C478 C -0.11414 0.49480 0.84672
 N479 N -0.13665 0.51901 0.84823
 N480 N -0.15950 0.51901 0.87125
 C481 C 0.41998 -0.00456 0.31507
 N482 N 0.44291 -0.02832 0.31468
 N483 N 0.46761 -0.02707 0.29373
 C484 C 0.47036 -0.00205 0.27222
 N485 N 0.44728 0.02169 0.27265
 N486 N 0.42256 0.02043 0.29361
 C487 C 0.39366 -0.00524 0.33925
 N488 N 0.37125 0.01900 0.34050
 N489 N 0.34822 0.01901 0.36335
 C490 C 0.34672 -0.00520 0.38586
 N491 N 0.36907 -0.02954 0.38437
 N492 N 0.39208 -0.02956 0.36154
 C493 C 0.18495 0.50456 0.91998
 N494 N 0.18534 0.52832 0.94291
 N495 N 0.20629 0.52707 0.96761
 C496 C 0.22780 0.50205 0.97036
 N497 N 0.22736 0.47831 0.94728
 N498 N 0.20640 0.47957 0.92256
 C499 C 0.16077 0.50524 0.89366
 N500 N 0.15951 0.48099 0.87125
 N501 N 0.13666 0.48099 0.84823
 C502 C 0.11415 0.50520 0.84672
 N503 N 0.11564 0.52954 0.86907
 N504 N 0.13848 0.52956 0.89208
 C505 C 0.58002 0.00456 0.31507
 N506 N 0.55709 0.02832 0.31468
 N507 N 0.53239 0.02706 0.29373
 C508 C 0.52965 0.00205 0.27222
 N509 N 0.55273 -0.02169 0.27265
 N510 N 0.57745 -0.02043 0.29361
 C511 C 0.60634 0.00524 0.33925
 N512 N 0.62876 -0.01900 0.34050
 N513 N 0.65179 -0.01901 0.36335
 C514 C 0.65329 0.00520 0.38586
 N515 N 0.63094 0.02953 0.38437
 N516 N 0.60793 0.02956 0.36154
 C517 C 0.81506 0.50456 0.08002
 N518 N 0.81467 0.52832 0.05709
 N519 N 0.79372 0.52707 0.03239
 C520 C 0.77221 0.50205 0.02965
 N521 N 0.77264 0.47831 0.05273
 N522 N 0.79360 0.47957 0.07745
 C523 C 0.83924 0.50524 0.10634
 N524 N 0.84049 0.48100 0.12876
 N525 N 0.86334 0.48099 0.15178
 C526 C 0.88585 0.50520 0.15329
 N527 N 0.88436 0.52954 0.13094
 N528 N 0.86153 0.52956 0.10793
 C529 C 0.41998 0.00456 0.68494
 N530 N 0.42256 -0.02043 0.70639
 N531 N 0.44727 -0.02169 0.72736
 C532 C 0.47036 0.00205 0.72779
 N533 N 0.46761 0.02707 0.70628
 N534 N 0.44291 0.02832 0.68533
 C535 C 0.39366 0.00524 0.66076
 N536 N 0.39208 0.02956 0.63847
 N537 N 0.36907 0.02954 0.61564
 C538 C 0.34672 0.00520 0.61415
 N539 N 0.34822 -0.01900 0.63666
 N540 N 0.37125 -0.01900 0.65951
   
