data_POSCAR
  _audit_creation_date              2014-09-24
  _audit_creation_method            'ToBaCCo'
  _symmetry_space_group_name_H-M    'P1'
  _symmetry_Int_Tables_number       1
  _symmetry_cell_setting            triclinic
  loop_
  _symmetry_equiv_pos_as_xyz
 x,y,z
_cell_length_a 32.4081
_cell_length_b 32.4075
_cell_length_c 32.3878
_cell_angle_alpha 89.960300
_cell_angle_beta 90.117400
_cell_angle_gamma 90.000000
loop_
  _atom_site_label
  _atom_site_type_symbol
  _atom_site_fract_x
  _atom_site_fract_y
  _atom_site_fract_z
O1 O -0.10704 0.05503 0.00102
 O2 O 0.10512 0.05508 -0.00188
 O3 O -0.00244 0.10531 0.05535
 O4 O 0.00044 0.10542 -0.05639
 O5 O 0.00038 0.05523 -0.10664
 O6 O -0.00240 0.05500 0.10568
 O7 O 0.05486 0.10538 -0.00196
 O8 O -0.05674 0.10531 0.00106
 Zr9 Zr -0.00095 0.07180 -0.00050
 O10 O 0.03644 0.03675 -0.03791
 O11 O -0.03831 0.03662 0.03691
 C12 C -0.09494 0.09323 0.00188
 C13 C 0.09306 0.09330 -0.00270
 C14 C -0.00322 0.09321 0.09358
 C15 C 0.00116 0.09353 -0.09471
 H16 H 0.05399 0.05413 0.05453
 O17 O 0.03634 0.03653 0.03690
 H18 H -0.05596 0.05421 -0.05546
 O19 O -0.03833 0.03659 -0.03781
 O20 O 0.10503 -0.05652 0.00122
 O21 O -0.10712 -0.05661 -0.00200
 O22 O 0.05493 -0.00241 0.10573
 O23 O 0.05474 0.00080 -0.10658
 O24 O -0.05690 -0.00221 -0.10660
 O25 O -0.05666 0.00081 0.10565
 O26 O 0.00049 -0.10689 0.05560
 O27 O -0.00271 -0.10674 -0.05614
 O28 O 0.00057 -0.05668 0.10581
 O29 O -0.00271 -0.05644 -0.10649
 O30 O 0.10513 -0.00233 0.05543
 O31 O -0.10700 0.00082 0.05529
 O32 O -0.10707 -0.00232 -0.05640
 O33 O 0.10505 0.00074 -0.05620
 O34 O 0.05475 -0.10681 0.00128
 O35 O -0.05692 -0.10685 -0.00187
 Zr36 Zr 0.07152 -0.00072 -0.00040
 Zr37 Zr -0.07351 -0.00078 -0.00051
 Zr38 Zr -0.00091 -0.00081 0.07215
 Zr39 Zr -0.00105 -0.00064 -0.07301
 Zr40 Zr -0.00106 -0.07328 -0.00032
 O41 O -0.03843 -0.03813 -0.03788
 O42 O 0.03646 -0.03818 0.03706
 C43 C 0.09294 -0.09471 0.00210
 C44 C -0.09521 -0.09492 -0.00271
 C45 C 0.09310 -0.00322 0.09364
 C46 C 0.09296 0.00154 -0.09445
 C47 C -0.09516 -0.00308 -0.09468
 C48 C -0.09487 0.00166 0.09352
 C49 C 0.00130 -0.09499 0.09392
 C50 C -0.00357 -0.09463 -0.09436
 H51 H -0.05590 -0.05570 0.05454
 O52 O -0.03830 -0.03808 0.03692
 H53 H 0.05379 -0.05563 -0.05527
 O54 O 0.03620 -0.03801 -0.03766
 O55 O 0.39347 0.55554 0.00164
 O56 O 0.60567 0.55564 -0.00120
 O57 O 0.49810 0.60584 0.05616
 O58 O 0.50114 0.60578 -0.05554
 O59 O 0.50104 0.55551 -0.10583
 O60 O 0.49814 0.55560 0.10641
 O61 O 0.55539 0.60592 -0.00120
 O62 O 0.44376 0.60583 0.00175
 Zr63 Zr 0.49957 0.57229 0.00029
 O64 O 0.53686 0.53716 -0.03715
 O65 O 0.46214 0.53716 0.03762
 C66 C 0.40556 0.59373 0.00251
 C67 C 0.59361 0.59386 -0.00199
 C68 C 0.49735 0.59390 0.09448
 C69 C 0.50196 0.59368 -0.09373
 H70 H 0.55454 0.55469 0.05528
 O71 O 0.53691 0.53708 0.03763
 H72 H 0.44459 0.55470 -0.05477
 O73 O 0.46222 0.53707 -0.03711
 O74 O 0.60558 0.44398 0.00193
 O75 O 0.39339 0.44395 -0.00142
 O76 O 0.55548 0.49819 0.10642
 O77 O 0.55518 0.50127 -0.10588
 O78 O 0.44351 0.49834 -0.10601
 O79 O 0.44381 0.50131 0.10631
 O80 O 0.50112 0.39372 0.05604
 O81 O 0.49795 0.39365 -0.05560
 O82 O 0.50121 0.44396 0.10637
 O83 O 0.49786 0.44392 -0.10594
 O84 O 0.60565 0.49820 0.05622
 O85 O 0.39349 0.50128 0.05592
 O86 O 0.39334 0.49835 -0.05582
 O87 O 0.60554 0.50134 -0.05553
 O88 O 0.55527 0.39372 0.00187
 O89 O 0.44367 0.39367 -0.00132
 Zr90 Zr 0.57207 0.49980 0.00031
 Zr91 Zr 0.42698 0.49975 0.00011
 Zr92 Zr 0.49961 0.49979 0.07281
 Zr93 Zr 0.49940 0.49973 -0.07234
 Zr94 Zr 0.49948 0.42725 0.00022
 O95 O 0.46199 0.46231 -0.03729
 O96 O 0.53694 0.46238 0.03768
 C97 C 0.59346 0.40579 0.00274
 C98 C 0.40546 0.40574 -0.00217
 C99 C 0.59375 0.49738 0.09452
 C100 C 0.59341 0.50212 -0.09377
 C101 C 0.40522 0.49760 -0.09413
 C102 C 0.40560 0.50210 0.09416
 C103 C 0.50202 0.40578 0.09426
 C104 C 0.49711 0.40571 -0.09384
 H105 H 0.44466 0.44486 0.05512
 O106 O 0.46226 0.46249 0.03751
 H107 H 0.55436 0.44487 -0.05464
 O108 O 0.53677 0.46249 -0.03703
 O109 O -0.10677 0.55533 0.50128
 O110 O 0.10538 0.55521 0.49846
 O111 O -0.00226 0.60545 0.55560
 O112 O 0.00073 0.60562 0.44390
 O113 O 0.00071 0.55536 0.39361
 O114 O -0.00217 0.55517 0.60597
 O115 O 0.05510 0.60550 0.49831
 O116 O -0.05656 0.60555 0.50126
 Zr117 Zr -0.00072 0.57197 0.49979
 O118 O 0.03672 0.53685 0.46248
 O119 O -0.03801 0.53682 0.53728
 C120 C -0.09486 0.59363 0.50204
 C121 C 0.09329 0.59340 0.49756
 C122 C -0.00307 0.59335 0.59382
 C123 C 0.00148 0.59359 0.40565
 H124 H 0.05425 0.55433 0.55486
 O125 O 0.03662 0.53671 0.53722
 H126 H -0.05568 0.55440 0.44482
 O127 O -0.03804 0.53677 0.46246
 O128 O 0.10546 0.44360 0.50158
 O129 O -0.10672 0.44367 0.49823
 O130 O 0.05532 0.49794 0.60621
 O131 O 0.05509 0.50106 0.39382
 O132 O -0.05661 0.49791 0.39366
 O133 O -0.05636 0.50090 0.60602
 O134 O 0.00086 0.39324 0.55583
 O135 O -0.00222 0.39338 0.44411
 O136 O 0.00093 0.44348 0.60616
 O137 O -0.00229 0.44367 0.39376
 O138 O 0.10554 0.49798 0.55595
 O139 O -0.10669 0.50100 0.55565
 O140 O -0.10682 0.49792 0.44394
 O141 O 0.10539 0.50098 0.44423
 O142 O 0.05519 0.39332 0.50153
 O143 O -0.05642 0.39339 0.49830
 Zr144 Zr 0.07188 0.49941 0.50003
 Zr145 Zr -0.07320 0.49948 0.49982
 Zr146 Zr -0.00056 0.49935 0.57252
 Zr147 Zr -0.00073 0.49950 0.42728
 Zr148 Zr -0.00062 0.42690 0.49996
 O149 O -0.03807 0.46208 0.46246
 O150 O 0.03685 0.46195 0.53747
 C151 C 0.09340 0.40539 0.50236
 C152 C -0.09461 0.40547 0.49742
 C153 C 0.09353 0.49721 0.59418
 C154 C 0.09329 0.50184 0.40598
 C155 C -0.09480 0.49710 0.40572
 C156 C -0.09458 0.50176 0.59390
 C157 C 0.00166 0.40526 0.59409
 C158 C -0.00308 0.40547 0.40588
 H159 H -0.05552 0.44451 0.55480
 O160 O -0.03791 0.46213 0.53719
 H161 H 0.05420 0.44457 0.44505
 O162 O 0.03659 0.46218 0.46265
 O163 O 0.39373 0.05474 0.50131
 O164 O 0.60590 0.05472 0.49841
 O165 O 0.49837 0.10505 0.55572
 O166 O 0.50133 0.10499 0.44409
 O167 O 0.50129 0.05475 0.39377
 O168 O 0.49841 0.05477 0.60606
 O169 O 0.55559 0.10498 0.49835
 O170 O 0.44399 0.10503 0.50134
 Zr171 Zr 0.49981 0.07145 0.49991
 O172 O 0.53718 0.03632 0.46253
 O173 O 0.46241 0.03638 0.53733
 C174 C 0.40579 0.09295 0.50211
 C175 C 0.59378 0.09291 0.49754
 C176 C 0.49761 0.09299 0.59396
 C177 C 0.50214 0.09293 0.40588
 H178 H 0.55481 0.05384 0.55488
 O179 O 0.53719 0.03622 0.53724
 H180 H 0.44487 0.05385 0.44489
 O181 O 0.46251 0.03622 0.46254
 O182 O 0.60602 -0.05693 0.50150
 O183 O 0.39382 -0.05685 0.49828
 O184 O 0.55572 -0.00260 0.60610
 O185 O 0.55552 0.00056 0.39381
 O186 O 0.44394 -0.00264 0.39374
 O187 O 0.44410 0.00039 0.60603
 O188 O 0.50159 -0.10709 0.55568
 O189 O 0.49832 -0.10719 0.44399
 O190 O 0.50157 -0.05681 0.60597
 O191 O 0.49825 -0.05688 0.39368
 O192 O 0.60597 -0.00266 0.55585
 O193 O 0.39379 0.00038 0.55565
 O194 O 0.39373 -0.00262 0.44402
 O195 O 0.60587 0.00055 0.44415
 O196 O 0.55575 -0.10722 0.50142
 O197 O 0.44410 -0.10715 0.49828
 Zr198 Zr 0.57239 -0.00110 0.49996
 Zr199 Zr 0.42733 -0.00106 0.49986
 Zr200 Zr 0.49989 -0.00103 0.57246
 Zr201 Zr 0.49977 -0.00108 0.42732
 Zr202 Zr 0.49991 -0.07361 0.49984
 O203 O 0.46240 -0.03848 0.46244
 O204 O 0.53728 -0.03847 0.53736
 C205 C 0.59397 -0.09515 0.50226
 C206 C 0.40590 -0.09505 0.49745
 C207 C 0.59391 -0.00346 0.59406
 C208 C 0.59372 0.00141 0.40593
 C209 C 0.40576 -0.00346 0.40582
 C210 C 0.40587 0.00116 0.59390
 C211 C 0.50246 -0.09498 0.59388
 C212 C 0.49749 -0.09511 0.40575
 H213 H 0.44505 -0.05600 0.55478
 O214 O 0.46264 -0.03838 0.53716
 H215 H 0.55476 -0.05598 0.44496
 O216 O 0.53716 -0.03838 0.46257
 C217 C 0.18720 0.18742 -0.00583
 C218 C 0.14517 0.19819 -0.00559
 C219 C 0.11467 0.16770 -0.00473
 C220 C 0.12543 0.12566 -0.00406
 C221 C 0.16748 0.11490 -0.00455
 C222 C 0.19796 0.14539 -0.00541
 C223 C 0.21957 0.21980 -0.00621
 N224 N 0.26021 0.20951 -0.00613
 N225 N 0.28927 0.23858 -0.00607
 C226 C 0.27897 0.27922 -0.00609
 N227 N 0.23833 0.28950 -0.00624
 N228 N 0.20927 0.26044 -0.00630
 C229 C 0.31134 0.31160 -0.00558
 C230 C 0.30057 0.35362 -0.00528
 C231 C 0.33105 0.38412 -0.00431
 C232 C 0.37309 0.37337 -0.00361
 C233 C 0.38386 0.33132 -0.00414
 C234 C 0.35336 0.30083 -0.00511
 H235 H 0.13572 0.23023 -0.00595
 H236 H 0.08264 0.17719 -0.00447
 H237 H 0.17696 0.08286 -0.00414
 H238 H 0.23001 0.13595 -0.00562
 H239 H 0.26852 0.36307 -0.00567
 H240 H 0.32156 0.41616 -0.00401
 H241 H 0.41590 0.32184 -0.00371
 H242 H 0.36282 0.26879 -0.00537
 C243 C 0.18744 -0.31271 0.49395
 C244 C 0.14545 -0.30184 0.49435
 C245 C 0.11492 -0.33226 0.49538
 C246 C 0.12565 -0.37430 0.49606
 C247 C 0.16766 -0.38516 0.49542
 C248 C 0.19817 -0.35474 0.49438
 C249 C 0.21984 -0.28044 0.49343
 N250 N 0.26044 -0.29084 0.49341
 N251 N 0.28956 -0.26185 0.49339
 C252 C 0.27934 -0.22120 0.49339
 N253 N 0.23874 -0.21080 0.49332
 N254 N 0.20962 -0.23980 0.49334
 C255 C 0.31174 -0.18893 0.49387
 C256 C 0.30102 -0.14691 0.49421
 C257 C 0.33153 -0.11648 0.49523
 C258 C 0.37354 -0.12734 0.49594
 C259 C 0.38426 -0.16938 0.49535
 C260 C 0.35373 -0.19980 0.49433
 H261 H 0.13606 -0.26978 0.49399
 H262 H 0.08290 -0.32273 0.49576
 H263 H 0.17710 -0.41721 0.49582
 H264 H 0.23019 -0.36424 0.49405
 H265 H 0.26899 -0.13740 0.49383
 H266 H 0.32209 -0.08443 0.49557
 H267 H 0.41629 -0.17892 0.49578
 H268 H 0.36312 -0.23186 0.49404
 C269 C 0.81205 0.81237 -0.00569
 C270 C 0.80132 0.85438 -0.00547
 C271 C 0.83180 0.88492 -0.00465
 C272 C 0.87401 0.87432 -0.00400
 C273 C 0.88460 0.83210 -0.00449
 C274 C 0.85406 0.80163 -0.00531
 C275 C 0.77964 0.77995 -0.00600
 N276 N 0.78992 0.73931 -0.00592
 N277 N 0.76085 0.71023 -0.00583
 C278 C 0.72021 0.72051 -0.00581
 N279 N 0.70992 0.76115 -0.00596
 N280 N 0.73899 0.79023 -0.00605
 C281 C 0.68780 0.68810 -0.00530
 C282 C 0.64576 0.69883 -0.00497
 C283 C 0.61526 0.66833 -0.00404
 C284 C 0.62600 0.62627 -0.00338
 C285 C 0.66806 0.61554 -0.00393
 C286 C 0.69855 0.64606 -0.00486
 H287 H 0.76927 0.86382 -0.00581
 H288 H 0.82202 0.91689 -0.00441
 H289 H 0.91656 0.82232 -0.00412
 H290 H 0.86349 0.76958 -0.00551
 H291 H 0.63631 0.73087 -0.00533
 H292 H 0.58322 0.67781 -0.00372
 H293 H 0.67755 0.58350 -0.00352
 H294 H 0.73060 0.63661 -0.00513
 C295 C 0.81148 0.31134 0.49378
 C296 C 0.80062 0.35333 0.49417
 C297 C 0.83104 0.38385 0.49520
 C298 C 0.87309 0.37312 0.49589
 C299 C 0.88393 0.33111 0.49524
 C300 C 0.85350 0.30060 0.49421
 C301 C 0.77920 0.27894 0.49329
 N302 N 0.78958 0.23834 0.49329
 N303 N 0.76058 0.20923 0.49332
 C304 C 0.71994 0.21946 0.49334
 N305 N 0.70955 0.26007 0.49324
 N306 N 0.73856 0.28918 0.49322
 C307 C 0.68766 0.18707 0.49387
 C308 C 0.64564 0.19780 0.49423
 C309 C 0.61522 0.16729 0.49529
 C310 C 0.62607 0.12527 0.49602
 C311 C 0.66811 0.11455 0.49541
 C312 C 0.69853 0.14507 0.49435
 H313 H 0.76856 0.36273 0.49381
 H314 H 0.82152 0.41588 0.49558
 H315 H 0.91598 0.32166 0.49565
 H316 H 0.86300 0.26857 0.49388
 H317 H 0.63614 0.22982 0.49383
 H318 H 0.58317 0.17673 0.49564
 H319 H 0.67764 0.08252 0.49585
 H320 H 0.73059 0.13568 0.49405
 C321 C 0.81117 0.18736 0.00571
 C322 C 0.80031 0.14536 0.00520
 C323 C 0.83073 0.11484 0.00408
 C324 C 0.87277 0.12558 0.00342
 C325 C 0.88362 0.16759 0.00416
 C326 C 0.85319 0.19809 0.00529
 C327 C 0.77889 0.21975 0.00634
 N328 N 0.78928 0.26035 0.00649
 N329 N 0.76028 0.28946 0.00662
 C330 C 0.71964 0.27923 0.00660
 N331 N 0.70925 0.23862 0.00654
 N332 N 0.73825 0.20951 0.00642
 C333 C 0.68736 0.31163 0.00621
 C334 C 0.64533 0.30090 0.00582
 C335 C 0.61491 0.33141 0.00486
 C336 C 0.62576 0.37343 0.00425
 C337 C 0.66780 0.38415 0.00493
 C338 C 0.69822 0.35362 0.00589
 H339 H 0.76825 0.13596 0.00554
 H340 H 0.82120 0.08282 0.00362
 H341 H 0.91566 0.17704 0.00378
 H342 H 0.86269 0.23012 0.00570
 H343 H 0.63583 0.26887 0.00610
 H344 H 0.58285 0.32197 0.00446
 H345 H 0.67733 0.41618 0.00458
 H346 H 0.73028 0.36302 0.00622
 C347 C 0.81243 -0.31364 0.50521
 C348 C 0.80170 -0.35566 0.50487
 C349 C 0.83216 -0.38620 0.50396
 C350 C 0.87438 -0.37560 0.50334
 C351 C 0.88498 -0.33339 0.50395
 C352 C 0.85445 -0.30292 0.50486
 C353 C 0.78003 -0.28123 0.50567
 N354 N 0.79031 -0.24059 0.50573
 N355 N 0.76124 -0.21151 0.50577
 C356 C 0.72060 -0.22179 0.50575
 N357 N 0.71031 -0.26243 0.50576
 N358 N 0.73938 -0.29151 0.50572
 C359 C 0.68819 -0.18937 0.50537
 C360 C 0.64615 -0.20012 0.50504
 C361 C 0.61564 -0.16961 0.50419
 C362 C 0.62637 -0.12755 0.50364
 C363 C 0.66843 -0.11682 0.50422
 C364 C 0.69893 -0.14733 0.50507
 H365 H 0.76965 -0.36509 0.50518
 H366 H 0.82238 -0.41816 0.50363
 H367 H 0.91694 -0.32361 0.50361
 H368 H 0.86388 -0.27087 0.50516
 H369 H 0.63670 -0.23216 0.50530
 H370 H 0.58360 -0.17910 0.50384
 H371 H 0.67792 -0.08478 0.50389
 H372 H 0.73098 -0.13789 0.50535
 C373 C 0.18753 0.31125 0.50557
 C374 C 0.19830 0.35328 0.50525
 C375 C 0.16781 0.38378 0.50436
 C376 C 0.12577 0.37302 0.50376
 C377 C 0.11501 0.33098 0.50433
 C378 C 0.14550 0.30049 0.50522
 C379 C 0.21990 0.27887 0.50597
 N380 N 0.20960 0.23823 0.50597
 N381 N 0.23866 0.20917 0.50593
 C382 C 0.27930 0.21946 0.50588
 N383 N 0.28960 0.26009 0.50596
 N384 N 0.26054 0.28916 0.50600
 C385 C 0.31167 0.18708 0.50541
 C386 C 0.35369 0.19784 0.50505
 C387 C 0.38418 0.16736 0.50412
 C388 C 0.37342 0.12532 0.50350
 C389 C 0.33138 0.11456 0.50408
 C390 C 0.30090 0.14505 0.50501
 H391 H 0.23034 0.36272 0.50555
 H392 H 0.17730 0.41582 0.50402
 H393 H 0.08297 0.32149 0.50397
 H394 H 0.13605 0.26845 0.50549
 H395 H 0.36314 0.22989 0.50538
 H396 H 0.41622 0.17685 0.50378
 H397 H 0.32189 0.08252 0.50371
 H398 H 0.26886 0.13560 0.50531
 C399 C 0.18711 0.81140 0.00583
 C400 C 0.19783 0.85343 0.00543
 C401 C 0.16732 0.88385 0.00436
 C402 C 0.12531 0.87299 0.00365
 C403 C 0.11458 0.83095 0.00430
 C404 C 0.14512 0.80053 0.00537
 C405 C 0.21951 0.77913 0.00637
 N406 N 0.20929 0.73849 0.00640
 N407 N 0.23841 0.70950 0.00643
 C408 C 0.27901 0.71989 0.00645
 N409 N 0.28924 0.76054 0.00652
 N410 N 0.26012 0.78953 0.00648
 C411 C 0.31141 0.68762 0.00599
 C412 C 0.35341 0.69849 0.00566
 C413 C 0.38394 0.66807 0.00468
 C414 C 0.37321 0.62603 0.00397
 C415 C 0.33120 0.61518 0.00455
 C416 C 0.30069 0.64560 0.00554
 H417 H 0.22986 0.86293 0.00580
 H418 H 0.17676 0.91590 0.00397
 H419 H 0.08256 0.82142 0.00388
 H420 H 0.13573 0.76847 0.00571
 H421 H 0.36280 0.73055 0.00604
 H422 H 0.41596 0.67760 0.00435
 H423 H 0.32175 0.58313 0.00412
 H424 H 0.26866 0.63610 0.00581
 C425 C -0.00661 0.18728 0.18768
 C426 C -0.00626 0.19807 0.14563
 C427 C -0.00530 0.16760 0.11514
 C428 C -0.00466 0.12555 0.12593
 C429 C -0.00525 0.11478 0.16800
 C430 C -0.00621 0.14526 0.19848
 C431 C -0.00707 0.21964 0.22004
 N432 N -0.00708 0.20933 0.26070
 N433 N -0.00707 0.23839 0.28976
 C434 C -0.00705 0.27902 0.27943
 N435 N -0.00712 0.28933 0.23877
 N436 N -0.00713 0.26027 0.20971
 C437 C -0.00657 0.31138 0.31179
 C438 C -0.00620 0.35340 0.30098
 C439 C -0.00522 0.38389 0.33145
 C440 C -0.00456 0.37312 0.37353
 C441 C -0.00517 0.33108 0.38433
 C442 C -0.00616 0.30060 0.35384
 H443 H -0.00659 0.23011 0.13615
 H444 H -0.00496 0.17709 0.08307
 H445 H -0.00487 0.08273 0.17751
 H446 H -0.00650 0.13580 0.23055
 H447 H -0.00654 0.36285 0.26891
 H448 H -0.00486 0.41593 0.32194
 H449 H -0.00478 0.32159 0.41640
 H450 H -0.00647 0.26856 0.36332
 C451 C 0.49400 0.31150 0.81208
 C452 C 0.49427 0.35352 0.80125
 C453 C 0.49512 0.38405 0.83171
 C454 C 0.49574 0.37332 0.87380
 C455 C 0.49523 0.33128 0.88462
 C456 C 0.49437 0.30077 0.85415
 C457 C 0.49364 0.27908 0.77973
 N458 N 0.49370 0.23845 0.79010
 N459 N 0.49377 0.20935 0.76106
 C460 C 0.49379 0.21961 0.72038
 N461 N 0.49366 0.26023 0.71002
 N462 N 0.49359 0.28933 0.73905
 C463 C 0.49429 0.18719 0.68804
 C464 C 0.49460 0.19792 0.64597
 C465 C 0.49555 0.16741 0.61550
 C466 C 0.49622 0.12537 0.62632
 C467 C 0.49568 0.11465 0.66841
 C468 C 0.49473 0.14517 0.69887
 H469 H 0.49395 0.36294 0.76917
 H470 H 0.49541 0.41608 0.82218
 H471 H 0.49560 0.32182 0.91669
 H472 H 0.49414 0.26873 0.86365
 H473 H 0.49424 0.22996 0.63646
 H474 H 0.49586 0.17688 0.58343
 H475 H 0.49609 0.08261 0.67794
 H476 H 0.49447 0.13575 0.73094
 C477 C -0.00731 0.81138 0.81168
 C478 C -0.00692 0.85338 0.80083
 C479 C -0.00586 0.88386 0.83128
 C480 C -0.00515 0.87306 0.87333
 C481 C -0.00581 0.83104 0.88417
 C482 C -0.00687 0.80058 0.85371
 C483 C -0.00778 0.77905 0.77937
 N484 N -0.00774 0.73844 0.78974
 N485 N -0.00766 0.70938 0.76070
 C486 C -0.00762 0.71968 0.72005
 N487 N -0.00776 0.76030 0.70968
 N488 N -0.00783 0.78936 0.73872
 C489 C -0.00701 0.68735 0.68775
 C490 C -0.00661 0.69815 0.64571
 C491 C -0.00547 0.66768 0.61526
 C492 C -0.00466 0.62567 0.62612
 C493 C -0.00530 0.61488 0.66817
 C494 C -0.00645 0.64536 0.69861
 H495 H -0.00729 0.86282 0.76875
 H496 H -0.00548 0.91590 0.82176
 H497 H -0.00538 0.82156 0.91624
 H498 H -0.00719 0.76854 0.86320
 H499 H -0.00706 0.73018 0.63622
 H500 H -0.00510 0.67716 0.58319
 H501 H -0.00481 0.58284 0.67770
 H502 H -0.00677 0.63592 0.73068
 C503 C 0.49424 -0.31344 0.18722
 C504 C 0.49455 -0.30268 0.14518
 C505 C 0.49543 -0.33313 0.11464
 C506 C 0.49606 -0.37535 0.12526
 C507 C 0.49549 -0.38597 0.16750
 C508 C 0.49461 -0.35545 0.19797
 C509 C 0.49383 -0.28105 0.21963
 N510 N 0.49383 -0.29135 0.26031
 N511 N 0.49384 -0.26229 0.28939
 C512 C 0.49384 -0.22164 0.27909
 N513 N 0.49377 -0.21134 0.23842
 N514 N 0.49376 -0.24040 0.20933
 C515 C 0.49427 -0.18926 0.31150
 C516 C 0.49457 -0.14721 0.30074
 C517 C 0.49546 -0.11672 0.33125
 C518 C 0.49609 -0.12748 0.37334
 C519 C 0.49555 -0.16954 0.38409
 C520 C 0.49465 -0.20002 0.35357
 H521 H 0.49423 -0.27063 0.13573
 H522 H 0.49573 -0.32334 0.08265
 H523 H 0.49584 -0.41794 0.17729
 H524 H 0.49434 -0.36490 0.23004
 H525 H 0.49425 -0.13775 0.26868
 H526 H 0.49578 -0.08467 0.32176
 H527 H 0.49593 -0.17905 0.41615
 H528 H 0.49439 -0.23207 0.36303
 C529 C 0.00434 0.81223 0.18681
 C530 C 0.00396 0.80152 0.14477
 C531 C 0.00311 0.83200 0.11418
 C532 C 0.00258 0.87422 0.12475
 C533 C 0.00321 0.88480 0.16699
 C534 C 0.00406 0.85425 0.19751
 C535 C 0.00474 0.77979 0.21928
 N536 N 0.00480 0.79005 0.25996
 N537 N 0.00482 0.76097 0.28907
 C538 C 0.00477 0.72032 0.27881
 N539 N 0.00477 0.71006 0.23814
 N540 N 0.00476 0.73914 0.20903
 C541 C 0.00440 0.68788 0.31128
 C542 C 0.00410 0.64584 0.30056
 C543 C 0.00330 0.61531 0.33111
 C544 C 0.00277 0.62602 0.37320
 C545 C 0.00330 0.66808 0.38390
 C546 C 0.00410 0.69860 0.35335
 H547 H 0.00421 0.76947 0.13535
 H548 H 0.00276 0.82222 0.08221
 H549 H 0.00293 0.91676 0.17675
 H550 H 0.00438 0.86368 0.22957
 H551 H 0.00436 0.63639 0.26851
 H552 H 0.00299 0.58327 0.32163
 H553 H 0.00299 0.67756 0.41596
 H554 H 0.00436 0.73064 0.36279
 C555 C 0.50614 -0.31251 0.81220
 C556 C 0.50558 -0.35451 0.80143
 C557 C 0.50434 -0.38493 0.83193
 C558 C 0.50362 -0.37406 0.87394
 C559 C 0.50444 -0.33205 0.88471
 C560 C 0.50567 -0.30164 0.85419
 C561 C 0.50681 -0.28027 0.77983
 N562 N 0.50695 -0.23965 0.79009
 N563 N 0.50703 -0.21064 0.76096
 C564 C 0.50696 -0.22103 0.72035
 N565 N 0.50693 -0.26165 0.71009
 N566 N 0.50685 -0.29066 0.73922
 C567 C 0.50644 -0.18878 0.68798
 C568 C 0.50593 -0.19966 0.64598
 C569 C 0.50478 -0.16925 0.61545
 C570 C 0.50411 -0.12723 0.62621
 C571 C 0.50490 -0.11637 0.66823
 C572 C 0.50605 -0.14679 0.69874
 H573 H 0.50595 -0.36399 0.76938
 H574 H 0.50385 -0.41697 0.82248
 H575 H 0.50402 -0.32254 0.91676
 H576 H 0.50612 -0.26959 0.86359
 H577 H 0.50625 -0.23172 0.63659
 H578 H 0.50430 -0.17877 0.58341
 H579 H 0.50452 -0.08432 0.67767
 H580 H 0.50647 -0.13730 0.73079
 C581 C 0.50576 0.31156 0.18817
 C582 C 0.50530 0.30086 0.14612
 C583 C 0.50423 0.33140 0.11569
 C584 C 0.50358 0.37340 0.12656
 C585 C 0.50430 0.38409 0.16863
 C586 C 0.50537 0.35354 0.19906
 C587 C 0.50629 0.27913 0.22045
 N588 N 0.50639 0.28932 0.26112
 N589 N 0.50639 0.26017 0.29012
 C590 C 0.50630 0.21958 0.27970
 N591 N 0.50630 0.20939 0.23903
 N592 N 0.50629 0.23854 0.21003
 C593 C 0.50579 0.18715 0.31198
 C594 C 0.50530 0.14517 0.30109
 C595 C 0.50426 0.11462 0.33151
 C596 C 0.50365 0.12531 0.37358
 C597 C 0.50439 0.16731 0.38445
 C598 C 0.50543 0.19785 0.35402
 H599 H 0.50563 0.26885 0.13661
 H600 H 0.50380 0.32199 0.08362
 H601 H 0.50392 0.41611 0.17817
 H602 H 0.50575 0.36290 0.23114
 H603 H 0.50560 0.13581 0.26901
 H604 H 0.50381 0.08260 0.32197
 H605 H 0.50404 0.17672 0.41653
 H606 H 0.50583 0.22986 0.36354
 C607 C 0.00425 0.18638 0.81254
 C608 C 0.00385 0.14438 0.80178
 C609 C 0.00297 0.11380 0.83225
 C610 C 0.00242 0.12434 0.87450
 C611 C 0.00305 0.16654 0.88513
 C612 C 0.00394 0.19705 0.85459
 C613 C 0.00471 0.21885 0.78014
 N614 N 0.00481 0.25949 0.79046
 N615 N 0.00488 0.28861 0.76140
 C616 C 0.00485 0.27840 0.72072
 N617 N 0.00482 0.23777 0.71039
 N618 N 0.00475 0.20865 0.73945
 C619 C 0.00454 0.31088 0.68831
 C620 C 0.00424 0.30021 0.64623
 C621 C 0.00347 0.33076 0.61573
 C622 C 0.00295 0.37281 0.62650
 C623 C 0.00348 0.38347 0.66860
 C624 C 0.00426 0.35291 0.69909
 H625 H 0.00412 0.13499 0.76971
 H626 H 0.00261 0.08185 0.82245
 H627 H 0.00276 0.17628 0.91712
 H628 H 0.00427 0.22909 0.86406
 H629 H 0.00448 0.26818 0.63675
 H630 H 0.00315 0.32132 0.58366
 H631 H 0.00318 0.41550 0.67811
 H632 H 0.00451 0.36230 0.73117
 C633 C 0.18729 -0.00699 0.18769
 C634 C 0.14530 -0.00660 0.19851
 C635 C 0.11477 -0.00551 0.16803
 C636 C 0.12547 -0.00478 0.12598
 C637 C 0.16748 -0.00543 0.11518
 C638 C 0.19800 -0.00652 0.14566
 C639 C 0.21969 -0.00754 0.22003
 N640 N 0.26028 -0.00756 0.20970
 N641 N 0.28941 -0.00759 0.23877
 C642 C 0.27918 -0.00759 0.27941
 N643 N 0.23858 -0.00766 0.28975
 N644 N 0.20946 -0.00764 0.26068
 C645 C 0.31158 -0.00710 0.31176
 C646 C 0.30087 -0.00673 0.35379
 C647 C 0.33139 -0.00569 0.38427
 C648 C 0.37339 -0.00498 0.37347
 C649 C 0.38410 -0.00561 0.33142
 C650 C 0.35356 -0.00665 0.30094
 H651 H 0.13593 -0.00699 0.23057
 H652 H 0.08275 -0.00513 0.17752
 H653 H 0.17690 -0.00499 0.08312
 H654 H 0.23002 -0.00685 0.13620
 H655 H 0.26884 -0.00710 0.36324
 H656 H 0.32196 -0.00533 0.41633
 H657 H 0.41612 -0.00518 0.32193
 H658 H 0.36294 -0.00695 0.26888
 C659 C 0.31236 0.49458 0.81299
 C660 C 0.30169 0.49491 0.85503
 C661 C 0.33220 0.49578 0.88561
 C662 C 0.37440 0.49635 0.87504
 C663 C 0.38494 0.49578 0.83281
 C664 C 0.35436 0.49491 0.80229
 C665 C 0.27990 0.49414 0.78053
 N666 N 0.29011 0.49408 0.73986
 N667 N 0.26100 0.49403 0.71075
 C668 C 0.22037 0.49404 0.72101
 N669 N 0.21015 0.49403 0.76168
 N670 N 0.23926 0.49408 0.79079
 C671 C 0.18790 0.49436 0.68855
 C672 C 0.14587 0.49466 0.69927
 C673 C 0.11531 0.49543 0.66872
 C674 C 0.12598 0.49595 0.62664
 C675 C 0.16803 0.49543 0.61593
 C676 C 0.19858 0.49466 0.64649
 H677 H 0.26965 0.49462 0.86444
 H678 H 0.32246 0.49609 0.91758
 H679 H 0.41689 0.49609 0.82305
 H680 H 0.36376 0.49462 0.77023
 H681 H 0.13647 0.49441 0.73132
 H682 H 0.08329 0.49573 0.67819
 H683 H 0.17747 0.49573 0.58388
 H684 H 0.23061 0.49440 0.63706
 C685 C 0.81219 -0.00673 0.81259
 C686 C 0.80145 -0.00637 0.85459
 C687 C 0.83192 -0.00530 0.88515
 C688 C 0.87410 -0.00454 0.87455
 C689 C 0.88470 -0.00517 0.83234
 C690 C 0.85417 -0.00624 0.80185
 C691 C 0.77982 -0.00729 0.78018
 N692 N 0.79009 -0.00731 0.73954
 N693 N 0.76101 -0.00736 0.71043
 C694 C 0.72040 -0.00739 0.72070
 N695 N 0.71012 -0.00746 0.76134
 N696 N 0.73920 -0.00741 0.79045
 C697 C 0.68802 -0.00695 0.68829
 C698 C 0.64602 -0.00660 0.69903
 C699 C 0.61551 -0.00562 0.66850
 C700 C 0.62627 -0.00494 0.62645
 C701 C 0.66829 -0.00554 0.61572
 C702 C 0.69878 -0.00653 0.64626
 H703 H 0.76942 -0.00679 0.86399
 H704 H 0.82217 -0.00497 0.91712
 H705 H 0.91665 -0.00473 0.82259
 H706 H 0.86357 -0.00655 0.76980
 H707 H 0.63659 -0.00695 0.73108
 H708 H 0.58348 -0.00528 0.67795
 H709 H 0.67775 -0.00514 0.58368
 H710 H 0.73082 -0.00682 0.63685
 C711 C -0.31347 0.49391 0.18726
 C712 C -0.35545 0.49430 0.19800
 C713 C -0.38602 0.49531 0.16752
 C714 C -0.37546 0.49596 0.12530
 C715 C -0.33328 0.49529 0.11469
 C716 C -0.30278 0.49429 0.14524
 C717 C -0.28104 0.49341 0.21966
 N718 N -0.24042 0.49334 0.20937
 N719 N -0.21130 0.49331 0.23846
 C720 C -0.22152 0.49334 0.27911
 N721 N -0.26214 0.49333 0.28941
 N722 N -0.29126 0.49336 0.26032
 C723 C -0.18909 0.49376 0.31151
 C724 C -0.19978 0.49414 0.35356
 C725 C -0.16924 0.49507 0.38408
 C726 C -0.12721 0.49566 0.37332
 C727 C -0.11653 0.49504 0.33126
 C728 C -0.14708 0.49411 0.30075
 H729 H -0.36483 0.49397 0.23007
 H730 H -0.41797 0.49568 0.17729
 H731 H -0.32355 0.49566 0.08271
 H732 H -0.27075 0.49395 0.13581
 H733 H -0.23180 0.49384 0.36301
 H734 H -0.17867 0.49544 0.41613
 H735 H -0.08451 0.49540 0.32177
 H736 H -0.13769 0.49380 0.26869
 C737 C 0.18721 0.00460 0.81161
 C738 C 0.19792 0.00426 0.85370
 C739 C 0.16739 0.00342 0.88412
 C740 C 0.12535 0.00288 0.87323
 C741 C 0.11465 0.00345 0.83112
 C742 C 0.14519 0.00429 0.80071
 C743 C 0.21965 0.00496 0.77933
 N744 N 0.20944 0.00500 0.73862
 N745 N 0.23856 0.00495 0.70966
 C746 C 0.27918 0.00486 0.72011
 N747 N 0.28940 0.00489 0.76081
 N748 N 0.26028 0.00494 0.78978
 C749 C 0.31162 0.00439 0.68783
 C750 C 0.35364 0.00398 0.69873
 C751 C 0.38419 0.00306 0.66832
 C752 C 0.37348 0.00252 0.62622
 C753 C 0.33144 0.00316 0.61532
 C754 C 0.30092 0.00407 0.64574
 H755 H 0.22995 0.00452 0.86326
 H756 H 0.17685 0.00307 0.91620
 H757 H 0.08262 0.00314 0.82153
 H758 H 0.13579 0.00458 0.76861
 H759 H 0.36305 0.00424 0.73083
 H760 H 0.41621 0.00268 0.67791
 H761 H 0.32199 0.00285 0.58324
 H762 H 0.26889 0.00441 0.63617
 C763 C 0.31153 0.50548 0.18813
 C764 C 0.30075 0.50509 0.14607
 C765 C 0.33122 0.50414 0.11562
 C766 C 0.37326 0.50354 0.12648
 C767 C 0.38404 0.50418 0.16856
 C768 C 0.35355 0.50513 0.19900
 C769 C 0.27916 0.50591 0.22044
 N770 N 0.28946 0.50595 0.26112
 N771 N 0.26039 0.50592 0.29013
 C772 C 0.21976 0.50585 0.27973
 N773 N 0.20947 0.50589 0.23905
 N774 N 0.23853 0.50592 0.21004
 C775 C 0.18739 0.50535 0.31204
 C776 C 0.14537 0.50493 0.30116
 C777 C 0.11488 0.50394 0.33159
 C778 C 0.12564 0.50331 0.37368
 C779 C 0.16768 0.50397 0.38455
 C780 C 0.19816 0.50497 0.35411
 H781 H 0.26870 0.50539 0.13655
 H782 H 0.32173 0.50377 0.08354
 H783 H 0.41608 0.50383 0.17811
 H784 H 0.36300 0.50545 0.23108
 H785 H 0.13593 0.50525 0.26908
 H786 H 0.08284 0.50354 0.32203
 H787 H 0.17716 0.50361 0.41663
 H788 H 0.23020 0.50531 0.36363
 C789 C 0.81129 0.00524 0.18761
 C790 C 0.80040 0.00484 0.14558
 C791 C 0.83080 0.00382 0.11507
 C792 C 0.87286 0.00318 0.12586
 C793 C 0.88373 0.00384 0.16792
 C794 C 0.85332 0.00486 0.19840
 C795 C 0.77903 0.00572 0.21999
 N796 N 0.78944 0.00575 0.26064
 N797 N 0.76046 0.00572 0.28973
 C798 C 0.71981 0.00567 0.27944
 N799 N 0.70940 0.00573 0.23879
 N800 N 0.73838 0.00576 0.20970
 C801 C 0.68755 0.00513 0.31182
 C802 C 0.64552 0.00473 0.30103
 C803 C 0.61511 0.00367 0.33152
 C804 C 0.62599 0.00296 0.37358
 C805 C 0.66805 0.00362 0.38436
 C806 C 0.69844 0.00469 0.35385
 H807 H 0.76834 0.00516 0.13613
 H808 H 0.82125 0.00342 0.08301
 H809 H 0.91579 0.00346 0.17741
 H810 H 0.86284 0.00520 0.23047
 H811 H 0.63599 0.00510 0.26897
 H812 H 0.58305 0.00328 0.32204
 H813 H 0.67760 0.00320 0.41642
 H814 H 0.73051 0.00502 0.36329
 C815 C -0.31260 0.50539 0.81211
 C816 C -0.30177 0.50502 0.85416
 C817 C -0.33221 0.50411 0.88466
 C818 C -0.37427 0.50353 0.87386
 C819 C -0.38509 0.50416 0.83178
 C820 C -0.35464 0.50507 0.80130
 C821 C -0.28027 0.50580 0.77974
 N822 N -0.29061 0.50585 0.73907
 N823 N -0.26158 0.50580 0.71001
 C824 C -0.22094 0.50571 0.72034
 N825 N -0.21059 0.50573 0.76101
 N826 N -0.23962 0.50578 0.79007
 C827 C -0.18860 0.50521 0.68798
 C828 C -0.14656 0.50476 0.69880
 C829 C -0.11610 0.50379 0.66832
 C830 C -0.12691 0.50321 0.62624
 C831 C -0.16896 0.50389 0.61543
 C832 C -0.19941 0.50487 0.64592
 H833 H -0.26972 0.50529 0.86364
 H834 H -0.32268 0.50373 0.91672
 H835 H -0.41714 0.50383 0.82227
 H836 H -0.36413 0.50539 0.76923
 H837 H -0.13708 0.50505 0.73087
 H838 H -0.08406 0.50337 0.67785
 H839 H -0.17848 0.50356 0.58337
 H840 H -0.23147 0.50524 0.63643
   
