data_POSCAR
  _audit_creation_date              2014-09-24
  _audit_creation_method            'ToBaCCo'
  _symmetry_space_group_name_H-M    'P1'
  _symmetry_Int_Tables_number       1
  _symmetry_cell_setting            triclinic
  loop_
  _symmetry_equiv_pos_as_xyz
 x,y,z
_cell_length_a 27.3408
_cell_length_b 28.9105
_cell_length_c 11.1322
_cell_angle_alpha 90.180600
_cell_angle_beta 88.592100
_cell_angle_gamma 118.627900
loop_
  _atom_site_label
  _atom_site_type_symbol
  _atom_site_fract_x
  _atom_site_fract_y
  _atom_site_fract_z
C1 C 0.08334 0.44216 0.46566
 C2 C 0.10662 0.43247 0.36234
 C3 C 0.13857 0.40681 0.37280
 C4 C 0.14971 0.39303 0.48833
 C5 C 0.12132 0.40013 0.59033
 C6 C 0.09084 0.42752 0.57965
 C7 C 0.19683 0.37998 0.50424
 C8 C 0.21936 0.38252 0.61978
 C9 C 0.26959 0.38138 0.63306
 C10 C 0.29823 0.37797 0.53042
 C11 C 0.27928 0.37860 0.41545
 C12 C 0.22700 0.37547 0.40284
 H13 H 0.05779 0.46122 0.45610
 H14 H 0.15801 0.40278 0.29113
 H15 H 0.12507 0.38772 0.67922
 H16 H 0.20219 0.39099 0.69967
 H17 H 0.33957 0.38206 0.53965
 H18 H 0.21388 0.37484 0.31227
 C19 C 0.48862 -0.36803 0.50656
 C20 C 0.51505 -0.34469 0.39747
 C21 C 0.55105 -0.28975 0.39466
 C22 C 0.56293 -0.25989 0.50276
 C23 C 0.54507 -0.28850 0.61344
 C24 C 0.50814 -0.34250 0.61556
 C25 C 0.58979 -0.20022 0.50103
 C26 C 0.60236 -0.17167 0.61056
 C27 C 0.61162 -0.11990 0.61452
 C28 C 0.61682 -0.09308 0.50675
 C29 C 0.60553 -0.11909 0.39641
 C30 C 0.59233 -0.17244 0.39357
 H31 H 0.45723 -0.40919 0.50740
 H32 H 0.57002 -0.27113 0.30961
 H33 H 0.55745 -0.27012 0.69946
 H34 H 0.59926 -0.18989 0.69641
 H35 H 0.62160 -0.05360 0.51068
 H36 H 0.57850 -0.19275 0.30948
 C37 C 1.36086 0.91081 0.53465
 C38 C 1.33883 0.89752 0.42041
 C39 C 1.28273 0.85980 0.41019
 C40 C 1.25223 0.82795 0.51149
 C41 C 1.27841 0.83968 0.62510
 C42 C 1.33239 0.88165 0.63638
 C43 C 1.19765 0.77836 0.49511
 C44 C 1.16258 0.75031 0.59561
 C45 C 1.11850 0.69880 0.58218
 C46 C 1.10436 0.67900 0.46640
 C47 C 1.13680 0.70582 0.36579
 C48 C 1.18375 0.75473 0.37994
 H49 H 1.40307 0.94278 0.54391
 H50 H 1.26537 0.85272 0.32179
 H51 H 1.25939 0.81484 0.70312
 H52 H 1.17138 0.76632 0.68506
 H53 H 1.06866 0.64041 0.45409
 H54 H 1.21064 0.77153 0.30176
 C55 C 0.91548 0.61203 0.53242
 C56 C 0.89767 0.61338 0.41674
 C57 C 0.85007 0.61921 0.40282
 C58 C 0.81534 0.61594 0.50390
 C59 C 0.83337 0.61113 0.61970
 C60 C 0.88315 0.60956 0.63395
 C61 C 0.75697 0.60826 0.48801
 C62 C 0.72239 0.60559 0.58939
 C63 C 0.66459 0.58448 0.57765
 C64 C 0.64311 0.57570 0.46257
 C65 C 0.67558 0.57958 0.36092
 C66 C 0.73198 0.59513 0.37331
 H67 H 0.95187 0.60679 0.54346
 H68 H 0.83898 0.62211 0.31207
 H69 H 0.80732 0.60352 0.69924
 H70 H 0.73830 0.61486 0.67887
 H71 H 0.59887 0.56187 0.45212
 H72 H 0.75384 0.59262 0.29392
 C73 C 0.42873 0.32170 0.48194
 C74 C 0.43569 0.29811 0.37944
 C75 C 0.43520 0.25015 0.38971
 C76 C 0.42491 0.22334 0.50275
 C77 C 0.41999 0.24981 0.60743
 C78 C 0.42596 0.30101 0.59674
 C79 C 0.42673 0.17181 0.50852
 C80 C 0.43609 0.15098 0.61723
 C81 C 0.45043 0.10991 0.61189
 C82 C 0.45399 0.09002 0.49964
 C83 C 0.44602 0.11017 0.39399
 C84 C 0.42699 0.14664 0.39872
 H85 H 0.42910 0.35921 0.47175
 H86 H 0.44687 0.23691 0.30892
 H87 H 0.41588 0.23311 0.69614
 H88 H 0.43708 0.16884 0.70311
 H89 H 0.46500 0.05866 0.49261
 H90 H 0.41650 0.15711 0.31407
 C91 C 0.70959 0.09288 0.47953
 C92 C 0.73105 0.12337 0.37492
 C93 C 0.77280 0.17584 0.38473
 C94 C 0.79309 0.19884 0.49877
 C95 C 0.76911 0.16656 0.60269
 C96 C 0.72563 0.11489 0.59326
 C97 C 0.82914 0.25801 0.50953
 C98 C 0.83911 0.28404 0.62285
 C99 C 0.85687 0.33837 0.62809
 C100 C 0.86442 0.36586 0.51967
 C101 C 0.86799 0.34438 0.41009
 C102 C 0.85029 0.29032 0.40470
 H103 H 0.67412 0.05370 0.47288
 H104 H 0.78404 0.19920 0.30341
 H105 H 0.77900 0.18209 0.69208
 H106 H 0.83148 0.26310 0.70700
 H107 H 0.87514 0.40708 0.52061
 H108 H 0.85326 0.27437 0.31878
 N109 N 0.95775 0.59060 0.15025
 N110 N 0.93329 0.61596 0.20217
 N111 N 1.07785 0.60091 0.17592
 N112 N 1.11185 0.62434 0.26388
 N113 N 1.07227 0.63558 0.11005
 N114 N 1.09939 0.68286 0.15942
 N115 N 0.96209 0.55859 0.22801
 N116 N 0.94090 0.56151 0.33344
 C117 C 0.92228 0.59659 0.31641
 C118 C 1.12528 0.67537 0.25409
 N119 N 1.05468 0.45791 0.10788
 N120 N 1.07279 0.42779 0.16025
 N121 N 0.95115 0.45390 0.22410
 N122 N 0.92425 0.43428 0.32635
 N123 N 0.94079 0.41585 0.14733
 N124 N 0.90751 0.36923 0.19744
 N125 N 1.06849 0.50054 0.17138
 N126 N 1.10202 0.50202 0.26362
 Mn127 Mn 1.01450 0.52811 0.19953
 C128 C 1.10237 0.45578 0.25588
 C129 C 0.89641 0.38167 0.30884
 N130 N 1.05633 0.62781 -0.14917
 N131 N 1.08859 0.67718 -0.20490
 N132 N 0.92816 0.54406 -0.17863
 N133 N 0.89701 0.54290 -0.26755
 N134 N 0.94133 0.58581 -0.11197
 N135 N 0.92219 0.61559 -0.16148
 N136 N 1.04357 0.59040 -0.22929
 N137 N 1.06355 0.61110 -0.33603
 Mn138 Mn 1.00678 0.61024 -0.00042
 C139 C 1.09144 0.66391 -0.32091
 C140 C 0.89291 0.58711 -0.25660
 N141 N 0.92257 0.40755 -0.11164
 N142 N 0.89448 0.35803 -0.16749
 N143 N 1.03361 0.48517 -0.22897
 N144 N 1.05204 0.48000 -0.33539
 N145 N 1.03845 0.45369 -0.15066
 N146 N 1.06263 0.42588 -0.20751
 N147 N 0.91826 0.44256 -0.17920
 N148 N 0.88684 0.41986 -0.27099
 Mn149 Mn 0.98902 0.43336 -0.00216
 Mn150 Mn 0.98125 0.51566 -0.20289
 Cl151 Cl 0.99768 0.52193 -0.00146
 C152 C 0.87303 0.36864 -0.26622
 C153 C 1.07013 0.44423 -0.32213
 N154 N 0.56563 0.50818 0.17798
 N155 N 0.59658 0.50901 0.26691
 N156 N 0.51680 0.58598 0.13655
 N157 N 0.53145 0.63506 0.18892
 N158 N 0.48941 0.54821 0.21612
 N159 N 0.48281 0.56811 0.31755
 N160 N 0.59356 0.54930 0.10707
 N161 N 0.64277 0.58085 0.15363
 C162 C 0.64464 0.55417 0.25211
 C163 C 0.50791 0.62105 0.30081
 N164 N 0.47079 0.55311 -0.19108
 N165 N 0.46124 0.57395 -0.28581
 N166 N 0.58364 0.55155 -0.15496
 N167 N 0.63250 0.58173 -0.21068
 N168 N 0.54863 0.51632 -0.22899
 N169 N 0.57423 0.52346 -0.34132
 N170 N 0.50745 0.58989 -0.12260
 N171 N 0.52576 0.63904 -0.17931
 Mn172 Mn 0.55076 0.56946 -0.00857
 C173 C 0.49505 0.62614 -0.28012
 C174 C 0.62589 0.56376 -0.32543
 N175 N 0.39899 0.44056 0.22594
 N176 N 0.37377 0.43618 0.33079
 N177 N 0.43907 0.36738 0.11962
 N178 N 0.42123 0.32043 0.17101
 N179 N 0.47699 0.40397 0.18647
 N180 N 0.48783 0.38244 0.27847
 N181 N 0.36423 0.40621 0.14984
 N182 N 0.31440 0.37782 0.20251
 Mn183 Mn 0.48271 0.47543 0.20093
 C184 C 0.32106 0.39775 0.31513
 C185 C 0.45337 0.33047 0.26877
 N186 N 0.45896 0.40981 -0.21981
 N187 N 0.46308 0.38875 -0.32856
 N188 N 0.35408 0.40813 -0.11421
 N189 N 0.30480 0.37709 -0.16162
 N190 N 0.38251 0.44924 -0.18483
 N191 N 0.35229 0.44875 -0.27508
 N192 N 0.43090 0.37126 -0.14220
 N193 N 0.41561 0.32460 -0.19285
 Mn194 Mn 0.46523 0.48198 -0.20485
 Mn195 Mn 0.39670 0.38791 0.00333
 Cl196 Cl 0.47373 0.47864 -0.00210
 C197 C 0.43600 0.33627 -0.30788
 C198 C 0.30372 0.40431 -0.26014
 N199 N 0.41646 -0.05181 0.15216
 N200 N 0.36675 -0.07388 0.20845
 N201 N 0.51159 0.06346 0.19774
 N202 N 0.51340 0.09094 0.29278
 N203 N 0.47000 0.05694 0.13035
 N204 N 0.44075 0.07724 0.18373
 N205 N 0.45535 -0.04746 0.22599
 N206 N 0.43126 -0.06718 0.33760
 C207 C 0.37686 -0.08299 0.32260
 C208 C 0.46940 0.09938 0.28407
 N209 N 0.65112 0.05901 0.12181
 N210 N 0.70155 0.08309 0.16896
 N211 N 0.56037 -0.04691 0.22070
 N212 N 0.55669 -0.07329 0.31946
 N213 N 0.59481 -0.05081 0.14180
 N214 N 0.61602 -0.07967 0.18734
 N215 N 0.61528 0.06409 0.19412
 N216 N 0.64065 0.09343 0.28649
 Mn217 Mn 0.53562 0.00827 0.20835
 C218 C 0.69440 0.10604 0.27005
 C219 C 0.59042 -0.09449 0.29761
 N220 N 0.46812 0.05006 -0.12907
 N221 N 0.44477 0.07977 -0.17782
 N222 N 0.44654 -0.06648 -0.18276
 N223 N 0.42009 -0.09701 -0.27265
 N224 N 0.41129 -0.06058 -0.11054
 N225 N 0.36060 -0.08452 -0.15574
 N226 N 0.50097 0.04507 -0.21011
 N227 N 0.50141 0.06893 -0.31027
 Mn228 Mn 0.44112 -0.00151 0.01020
 C229 C 0.46756 0.09044 -0.29090
 C230 C 0.36645 -0.10851 -0.25596
 N231 N 0.59221 -0.05907 -0.12433
 N232 N 0.62045 -0.08073 -0.17731
 N233 N 0.60691 0.04573 -0.21926
 N234 N 0.63004 0.06942 -0.32184
 N235 N 0.64538 0.05015 -0.14397
 N236 N 0.69574 0.07703 -0.19552
 N237 N 0.55141 -0.06445 -0.19345
 N238 N 0.54977 -0.09137 -0.28985
 Mn239 Mn 0.62137 -0.00019 -0.00105
 Mn240 Mn 0.52633 -0.00995 -0.20033
 Cl241 Cl 0.53136 -0.00095 0.00423
 C242 C 0.59208 -0.10204 -0.27909
 C243 C 0.68515 0.08953 -0.30597
   
