data_POSCAR
  _audit_creation_date              2014-09-24
  _audit_creation_method            'ToBaCCo'
  _symmetry_space_group_name_H-M    'P1'
  _symmetry_Int_Tables_number       1
  _symmetry_cell_setting            triclinic
  loop_
  _symmetry_equiv_pos_as_xyz
 x,y,z
_cell_length_a 45.8563
_cell_length_b 41.9971
_cell_length_c 41.9961
_cell_angle_alpha 89.934700
_cell_angle_beta 90.018200
_cell_angle_gamma 89.982400
loop_
  _atom_site_label
  _atom_site_type_symbol
  _atom_site_fract_x
  _atom_site_fract_y
  _atom_site_fract_z
C1 C 0.29426 0.29285 0.23899
 H2 H 0.29533 0.29339 0.26472
 C3 C 0.31329 0.31157 0.22102
 H4 H 0.32890 0.32657 0.23322
 C5 C 0.27275 0.27216 0.19207
 H6 H 0.25725 0.25641 0.18085
 C7 C 0.29138 0.29047 0.17317
 H8 H 0.28971 0.28875 0.14751
 N9 N 0.27427 0.27394 0.22437
 C10 C 0.20528 0.26056 0.29461
 H11 H 0.20418 0.23483 0.29521
 C12 C 0.18632 0.27857 0.31335
 H13 H 0.17072 0.26641 0.32841
 C14 C 0.22682 0.30743 0.27380
 H15 H 0.24231 0.31863 0.25800
 C16 C 0.20826 0.32638 0.29212
 H17 H 0.20998 0.35203 0.29035
 Zn18 Zn 0.24974 0.24888 0.25060
 N19 N 0.22526 0.27514 0.27564
 C20 C 0.27272 0.22563 0.30917
 N21 N 0.27423 0.22378 0.27688
 C22 C 0.29419 0.20481 0.26231
 C23 C 0.31323 0.18611 0.28033
 C24 C 0.29135 0.20736 0.32812
 C25 C 0.20527 0.23733 0.20655
 C26 C 0.18624 0.21938 0.18782
 C27 C 0.20811 0.17151 0.20905
 C28 C 0.22673 0.19039 0.22736
 N29 N 0.22522 0.22268 0.22552
 H30 H 0.25724 0.24144 0.32035
 H31 H 0.29526 0.20421 0.23658
 H32 H 0.32882 0.17107 0.26818
 H33 H 0.28969 0.20915 0.35377
 H34 H 0.20421 0.26306 0.20597
 H35 H 0.17066 0.23159 0.17278
 H36 H 0.20977 0.14585 0.21082
 H37 H 0.24220 0.17915 0.24316
 C38 C 0.18770 0.31198 0.31233
 C39 C 0.31196 0.31061 0.18761
 C40 C 0.18755 0.18597 0.18885
 C41 C 0.31192 0.18717 0.31374
 C42 C 0.79481 0.79378 0.23833
 H43 H 0.79588 0.79439 0.26406
 C44 C 0.81377 0.81255 0.22031
 H45 H 0.82926 0.82758 0.23266
 C46 C 0.77335 0.77290 0.19151
 H47 H 0.75790 0.75705 0.18035
 C48 C 0.79190 0.79122 0.17252
 H49 H 0.79007 0.78928 0.14689
 N50 N 0.77488 0.77477 0.22378
 C51 C 0.70594 0.76128 0.29407
 H52 H 0.70488 0.73555 0.29465
 C53 C 0.68694 0.77924 0.31282
 H54 H 0.67137 0.76703 0.32787
 C55 C 0.72739 0.80821 0.27327
 H56 H 0.74285 0.81944 0.25747
 C57 C 0.70879 0.82710 0.29160
 H58 H 0.71046 0.85276 0.28985
 Zn59 Zn 0.75042 0.74969 0.25008
 N60 N 0.72588 0.77591 0.27510
 C61 C 0.77340 0.72653 0.30868
 N62 N 0.77496 0.72468 0.27640
 C63 C 0.79495 0.70571 0.26186
 C64 C 0.81392 0.68697 0.27992
 C65 C 0.79197 0.70822 0.32767
 C66 C 0.70596 0.73790 0.20607
 C67 C 0.68696 0.71985 0.18741
 C68 C 0.70894 0.67210 0.20878
 C69 C 0.72753 0.69108 0.22701
 N70 N 0.72595 0.72337 0.22508
 H71 H 0.75791 0.74234 0.31984
 H72 H 0.79605 0.70511 0.23613
 H73 H 0.82952 0.67190 0.26779
 H74 H 0.79025 0.70999 0.35332
 H75 H 0.70485 0.76363 0.20541
 H76 H 0.67135 0.73198 0.17234
 H77 H 0.71065 0.64645 0.21063
 H78 H 0.74303 0.67993 0.24285
 C79 C 0.68826 0.81265 0.31182
 C80 C 0.81250 0.81157 0.18682
 C81 C 0.68834 0.68644 0.18854
 C82 C 0.81253 0.68799 0.31332
 C83 C 0.79515 0.29250 0.73989
 H84 H 0.79626 0.29310 0.76561
 C85 C 0.81411 0.31124 0.72183
 H86 H 0.82971 0.32630 0.73397
 C87 C 0.77359 0.27168 0.69306
 H88 H 0.75810 0.25588 0.68190
 C89 C 0.79215 0.29000 0.67408
 H90 H 0.79042 0.28823 0.64843
 N91 N 0.77516 0.27353 0.72534
 C92 C 0.70622 0.26029 0.79567
 H93 H 0.70512 0.23456 0.79633
 C94 C 0.68721 0.27833 0.81433
 H95 H 0.67161 0.26620 0.82939
 C96 C 0.72773 0.30712 0.77474
 H97 H 0.74322 0.31828 0.75891
 C98 C 0.70913 0.32610 0.79297
 H99 H 0.71082 0.35174 0.79112
 Zn100 Zn 0.75066 0.24852 0.75165
 N101 N 0.72619 0.27483 0.77667
 C102 C 0.77366 0.22530 0.81021
 N103 N 0.77515 0.22342 0.77794
 C104 C 0.79506 0.20442 0.76339
 C105 C 0.81406 0.18565 0.78138
 C106 C 0.79223 0.20699 0.82920
 C107 C 0.70615 0.23696 0.70767
 C108 C 0.68713 0.21902 0.68892
 C109 C 0.70900 0.17113 0.71012
 C110 C 0.72761 0.19001 0.72845
 N111 N 0.72611 0.22231 0.72663
 H112 H 0.75820 0.24115 0.82137
 H113 H 0.79610 0.20381 0.73766
 H114 H 0.82950 0.17067 0.76887
 H115 H 0.79030 0.20906 0.85482
 H116 H 0.70509 0.26269 0.70709
 H117 H 0.67155 0.23124 0.67388
 H118 H 0.71067 0.14548 0.71187
 H119 H 0.74309 0.17877 0.74424
 C120 C 0.68856 0.31174 0.81320
 C121 C 0.81271 0.31022 0.68843
 C122 C 0.68846 0.18560 0.68992
 C123 C 0.81290 0.18657 0.81496
 C124 C 0.29423 0.79360 0.73920
 H125 H 0.29530 0.79419 0.76493
 C126 C 0.31326 0.81230 0.72120
 H127 H 0.32886 0.82732 0.73337
 C128 C 0.27276 0.77280 0.69232
 H129 H 0.25728 0.75701 0.68113
 C130 C 0.29138 0.79108 0.67338
 H131 H 0.28972 0.78930 0.64773
 N132 N 0.27427 0.77464 0.72461
 C133 C 0.20531 0.76117 0.79489
 H134 H 0.20426 0.73544 0.79551
 C135 C 0.18628 0.77914 0.81359
 H136 H 0.17070 0.76695 0.82863
 C137 C 0.22677 0.80807 0.77405
 H138 H 0.24224 0.81929 0.75825
 C139 C 0.20814 0.82699 0.79232
 H140 H 0.20979 0.85264 0.79052
 Zn141 Zn 0.24979 0.74956 0.75088
 N142 N 0.22527 0.77578 0.77592
 C143 C 0.27280 0.72626 0.80943
 N144 N 0.27433 0.72449 0.77714
 C145 C 0.29432 0.70559 0.76252
 C146 C 0.31335 0.68684 0.78050
 C147 C 0.29142 0.70793 0.82834
 C148 C 0.20533 0.73786 0.70683
 C149 C 0.18636 0.71983 0.68811
 C150 C 0.20832 0.67204 0.70942
 C151 C 0.22688 0.69100 0.72772
 N152 N 0.22531 0.72329 0.72583
 H153 H 0.25729 0.74201 0.82064
 H154 H 0.29539 0.70506 0.73679
 H155 H 0.32895 0.67184 0.76831
 H156 H 0.28974 0.70963 0.85400
 H157 H 0.20422 0.76358 0.70621
 H158 H 0.17076 0.73198 0.67303
 H159 H 0.21004 0.64639 0.71123
 H160 H 0.24237 0.67982 0.74355
 C161 C 0.18758 0.81256 0.81252
 C162 C 0.31195 0.81125 0.68779
 C163 C 0.18775 0.68642 0.68918
 C164 C 0.31201 0.68778 0.81391
 C165 C -0.00080 -0.00059 0.00052
 C166 C 0.00002 0.49910 0.50089
 C167 C 0.50055 -0.00078 0.50088
 C168 C 0.50022 0.49906 0.00078
 C169 C 0.13107 -0.13191 -0.13175
 N170 N 0.12992 -0.16417 -0.13046
 N171 N 0.14784 -0.18178 -0.14815
 C172 C 0.16761 -0.16784 -0.16782
 N173 N 0.16869 -0.13552 -0.16904
 N174 N 0.15078 -0.11790 -0.15137
 C175 C 0.11135 -0.11249 -0.11222
 N176 N 0.11245 -0.08021 -0.11357
 N177 N 0.09460 -0.06259 -0.09582
 C178 C 0.07498 -0.07660 -0.07606
 N179 N 0.07387 -0.10888 -0.07472
 N180 N 0.09173 -0.12650 -0.09247
 C181 C 0.05534 -0.05717 -0.05645
 N182 N 0.03586 -0.07117 -0.03655
 N183 N 0.01809 -0.05355 -0.01872
 C184 C 0.01898 -0.02120 -0.02014
 N185 N 0.03866 -0.00729 -0.03999
 N186 N 0.05643 -0.02491 -0.05782
 C187 C 0.13148 0.36760 0.36832
 N188 N 0.15117 0.38158 0.34866
 N189 N 0.16899 0.36393 0.33089
 C190 C 0.16783 0.33162 0.33207
 N191 N 0.14808 0.31771 0.35179
 N192 N 0.13026 0.33534 0.36957
 C193 C 0.11187 0.38706 0.38795
 N194 N 0.09227 0.37307 0.40775
 N195 N 0.07451 0.39072 0.42558
 C196 C 0.07568 0.42300 0.42426
 N197 N 0.09527 0.43698 0.40445
 N198 N 0.11304 0.41933 0.38663
 C199 C 0.05611 0.44245 0.44393
 N200 N 0.05723 0.47471 0.44255
 N201 N 0.03949 0.49235 0.46039
 C202 C 0.01981 0.47847 0.48026
 N203 N 0.01890 0.44612 0.48170
 N204 N 0.03664 0.42848 0.46386
 C205 C 0.63200 -0.13189 0.36793
 N206 N 0.65167 -0.11786 0.34828
 N207 N 0.66950 -0.13545 0.33047
 C208 C 0.66837 -0.16777 0.33159
 N209 N 0.64864 -0.18174 0.35129
 N210 N 0.63081 -0.16416 0.36911
 C211 C 0.61238 -0.11250 0.38761
 N212 N 0.59281 -0.12655 0.40738
 N213 N 0.57504 -0.10895 0.42527
 C214 C 0.57619 -0.07667 0.42403
 N215 N 0.59577 -0.06263 0.40425
 N216 N 0.61354 -0.08022 0.38637
 C217 C 0.55663 -0.05728 0.44376
 N218 N 0.55775 -0.02502 0.44247
 N219 N 0.54001 -0.00742 0.46036
 C220 C 0.52034 -0.02136 0.48020
 N221 N 0.51942 -0.05371 0.48156
 N222 N 0.53716 -0.07130 0.46365
 C223 C 0.63209 0.36747 -0.13121
 N224 N 0.65182 0.38141 -0.15086
 N225 N 0.66972 0.36373 -0.16850
 C226 C 0.66861 0.33142 -0.16720
 N227 N 0.64882 0.31754 -0.14749
 N228 N 0.63092 0.33521 -0.12985
 C229 C 0.61238 0.38696 -0.11173
 N230 N 0.59276 0.37300 -0.09195
 N231 N 0.57490 0.39067 -0.07424
 C232 C 0.57602 0.42294 -0.07567
 N233 N 0.59564 0.43690 -0.09546
 N234 N 0.61350 0.41923 -0.11316
 C235 C 0.55638 0.44241 -0.05610
 N236 N 0.55746 0.47467 -0.05754
 N237 N 0.53967 0.49232 -0.03974
 C238 C 0.52000 0.47844 -0.01986
 N239 N 0.51913 0.44609 -0.01837
 N240 N 0.53691 0.42844 -0.03617
 C241 C -0.13243 0.13217 -0.13099
 N242 N -0.13116 0.13104 -0.16323
 N243 N -0.14901 0.14882 -0.18088
 C244 C -0.16891 0.16851 -0.16708
 N245 N -0.17003 0.16949 -0.13470
 N246 N -0.15219 0.15172 -0.11704
 C247 C -0.11277 0.11254 -0.11153
 N248 N -0.11396 0.11378 -0.07925
 N249 N -0.09615 0.09595 -0.06159
 C250 C -0.07651 0.07622 -0.07557
 N251 N -0.07532 0.07498 -0.10785
 N252 N -0.09312 0.09282 -0.12550
 C253 C -0.05691 0.05652 -0.05612
 N254 N -0.03743 0.03663 -0.07009
 N255 N -0.01967 0.01874 -0.05245
 C256 C -0.02059 0.02011 -0.02010
 N257 N -0.04027 0.03995 -0.00621
 N258 N -0.05803 0.05783 -0.02386
 C259 C -0.13132 0.63190 0.36910
 N260 N -0.13006 0.63068 0.33684
 N261 N -0.14785 0.64849 0.31915
 C262 C -0.16761 0.66823 0.33301
 N263 N -0.16880 0.66938 0.36533
 N264 N -0.15101 0.65158 0.38302
 C265 C -0.11173 0.61223 0.38860
 N266 N -0.11294 0.61352 0.42087
 N267 N -0.09519 0.59565 0.43857
 C268 C -0.07560 0.57584 0.42463
 N269 N -0.07439 0.57455 0.39236
 N270 N -0.09213 0.59242 0.37466
 C271 C -0.05605 0.55613 0.44413
 N272 N -0.03657 0.53621 0.43020
 N273 N -0.01884 0.51833 0.44788
 C274 C -0.01977 0.51974 0.48022
 N275 N -0.03947 0.53960 0.49407
 N276 N -0.05720 0.55747 0.47638
 C277 C 0.36851 0.13149 0.36940
 N278 N 0.36965 0.13020 0.33714
 N279 N 0.35170 0.14787 0.31950
 C280 C 0.33191 0.16753 0.33339
 N281 N 0.33083 0.16875 0.36571
 N282 N 0.34877 0.15110 0.38337
 C283 C 0.38826 0.11199 0.38886
 N284 N 0.38718 0.11335 0.42114
 N285 N 0.40507 0.09561 0.43879
 C286 C 0.42470 0.07587 0.42481
 N287 N 0.42579 0.07452 0.39254
 N288 N 0.40790 0.09226 0.37489
 C289 C 0.44437 0.05626 0.44427
 N290 N 0.46384 0.03637 0.43029
 N291 N 0.48164 0.01852 0.44792
 C292 C 0.48077 0.01993 0.48027
 N293 N 0.46110 0.03978 0.49416
 N294 N 0.44330 0.05762 0.47652
 C295 C 0.36844 0.63178 -0.13057
 N296 N 0.36961 0.63061 -0.16284
 N297 N 0.35173 0.64839 -0.18044
 C298 C 0.33195 0.66804 -0.16649
 N299 N 0.33084 0.66914 -0.13417
 N300 N 0.34873 0.65137 -0.11656
 C301 C 0.38813 0.61214 -0.11116
 N302 N 0.38700 0.61339 -0.07888
 N303 N 0.40483 0.59555 -0.06126
 C304 C 0.42444 0.57581 -0.07528
 N305 N 0.42557 0.57457 -0.10756
 N306 N 0.40774 0.59241 -0.12518
 C307 C 0.44406 0.55612 -0.05585
 N308 N 0.46354 0.53624 -0.06983
 N309 N 0.48132 0.51836 -0.05220
 C310 C 0.48042 0.51973 -0.01985
 N311 N 0.46073 0.53956 -0.00596
 N312 N 0.44296 0.55743 -0.02359
 C313 C -0.13225 -0.13334 0.13207
 N314 N -0.15201 -0.15291 0.11812
 N315 N -0.16982 -0.17069 0.13579
 C316 C -0.16864 -0.16966 0.16814
 N317 N -0.14877 -0.14999 0.18198
 N318 N -0.13096 -0.13221 0.16432
 C319 C -0.11264 -0.11370 0.11260
 N320 N -0.09299 -0.09398 0.12657
 N321 N -0.07522 -0.07613 0.10891
 C322 C -0.07644 -0.07737 0.07663
 N323 N -0.09608 -0.09710 0.06266
 N324 N -0.11386 -0.11494 0.08032
 C325 C -0.05687 -0.05767 0.05717
 N326 N -0.05802 -0.05897 0.02491
 N327 N -0.04027 -0.04110 0.00726
 C328 C -0.02058 -0.02127 0.02115
 N329 N -0.01964 -0.01991 0.05349
 N330 N -0.03738 -0.03779 0.07114
 C331 C -0.13117 0.36628 0.63267
 N332 N -0.15086 0.34660 0.61874
 N333 N -0.16864 0.32881 0.63643
 C334 C -0.16745 0.32997 0.66874
 N335 N -0.14769 0.34970 0.68261
 N336 N -0.12991 0.36750 0.66493
 C337 C -0.11160 0.38594 0.61317
 N338 N -0.09200 0.40575 0.62711
 N339 N -0.07427 0.42362 0.60942
 C340 C -0.07549 0.42232 0.57714
 N341 N -0.09508 0.40251 0.56320
 N342 N -0.11281 0.38465 0.58089
 C343 C -0.05596 0.44203 0.55765
 N344 N -0.05713 0.44069 0.52539
 N345 N -0.03941 0.45856 0.50771
 C346 C -0.01974 0.47844 0.52155
 N347 N -0.01879 0.47985 0.55390
 N348 N -0.03650 0.46197 0.57158
 C349 C 0.36851 -0.13305 0.63219
 N350 N 0.34879 -0.15264 0.61821
 N351 N 0.33085 -0.17030 0.63584
 C352 C 0.33193 -0.16910 0.66816
 N353 N 0.35172 -0.14946 0.68208
 N354 N 0.36966 -0.13178 0.66446
 C355 C 0.38826 -0.11353 0.61276
 N356 N 0.40790 -0.09382 0.62677
 N357 N 0.42578 -0.07608 0.60914
 C358 C 0.42468 -0.07740 0.57686
 N359 N 0.40506 -0.09713 0.56285
 N360 N 0.38717 -0.11487 0.58048
 C361 C 0.44435 -0.05779 0.55743
 N362 N 0.44328 -0.05913 0.52517
 N363 N 0.46109 -0.04130 0.50756
 C364 C 0.48076 -0.02147 0.52147
 N365 N 0.48163 -0.02008 0.55382
 N366 N 0.46383 -0.03792 0.57144
 C367 C 0.36843 0.36651 0.13210
 N368 N 0.34872 0.34692 0.11808
 N369 N 0.33082 0.32918 0.13569
 C370 C 0.33192 0.33032 0.16801
 N371 N 0.35169 0.34996 0.18196
 N372 N 0.36959 0.36770 0.16437
 C373 C 0.38813 0.38610 0.11269
 N374 N 0.40775 0.40583 0.12671
 N375 N 0.42558 0.42364 0.10909
 C376 C 0.42446 0.42236 0.07681
 N377 N 0.40486 0.40262 0.06280
 N378 N 0.38702 0.38482 0.08041
 C379 C 0.44409 0.44202 0.05739
 N380 N 0.44299 0.44069 0.02513
 N381 N 0.46076 0.45855 0.00750
 C382 C 0.48044 0.47839 0.02140
 N383 N 0.48133 0.47977 0.05375
 N384 N 0.46356 0.46191 0.07138
 C385 C 0.13108 0.13052 0.13298
 N386 N 0.15079 0.11648 0.15260
 N387 N 0.16869 0.13407 0.17033
 C388 C 0.16760 0.16639 0.16915
 N389 N 0.14783 0.18036 0.14947
 N390 N 0.12992 0.16279 0.13174
 C391 C 0.11137 0.11113 0.11340
 N392 N 0.09175 0.12518 0.09365
 N393 N 0.07390 0.10759 0.07586
 C394 C 0.07502 0.07531 0.07717
 N395 N 0.09463 0.06126 0.09693
 N396 N 0.11248 0.07885 0.11472
 C397 C 0.05538 0.05591 0.05752
 N398 N 0.05647 0.02365 0.05887
 N399 N 0.03869 0.00605 0.04103
 C400 C 0.01900 0.01999 0.02119
 N401 N 0.01811 0.05234 0.01978
 N402 N 0.03589 0.06993 0.03763
 C403 C 0.13150 0.63074 0.63329
 N404 N 0.13026 0.66300 0.63200
 N405 N 0.14809 0.68065 0.64974
 C406 C 0.16787 0.66677 0.66947
 N407 N 0.16904 0.63445 0.67069
 N408 N 0.15122 0.61678 0.65296
 C409 C 0.11188 0.61126 0.61370
 N410 N 0.11307 0.57899 0.61506
 N411 N 0.09529 0.56132 0.59726
 C412 C 0.07567 0.57528 0.57745
 N413 N 0.07447 0.60755 0.57610
 N414 N 0.09225 0.62522 0.59390
 C415 C 0.05609 0.55580 0.55781
 N416 N 0.03660 0.56975 0.53788
 N417 N 0.01885 0.55209 0.52005
 C418 C 0.01980 0.51974 0.52151
 N419 N 0.03950 0.50588 0.54139
 N420 N 0.05725 0.52355 0.55921
 C421 C 0.63212 0.13020 0.63384
 N422 N 0.63094 0.16246 0.63265
 N423 N 0.64879 0.18003 0.65046
 C424 C 0.66854 0.16604 0.67016
 N425 N 0.66965 0.13372 0.67128
 N426 N 0.65180 0.11614 0.65349
 C427 C 0.61247 0.11083 0.61417
 N428 N 0.61361 0.07854 0.61542
 N429 N 0.59582 0.06097 0.59755
 C430 C 0.57624 0.07504 0.57777
 N431 N 0.57509 0.10732 0.57652
 N432 N 0.59289 0.12489 0.59440
 C433 C 0.55665 0.05566 0.55804
 N434 N 0.53719 0.06971 0.53813
 N435 N 0.51944 0.05213 0.52023
 C436 C 0.52034 0.01978 0.52158
 N437 N 0.54001 0.00582 0.54144
 N438 N 0.55776 0.02340 0.55934
 C439 C 0.63195 0.63068 0.13289
 N440 N 0.63074 0.66294 0.13153
 N441 N 0.64862 0.68062 0.14920
 C442 C 0.66842 0.66676 0.16892
 N443 N 0.66956 0.63444 0.17021
 N444 N 0.65169 0.61675 0.15256
 C445 C 0.61226 0.61119 0.11339
 N446 N 0.61341 0.57892 0.11481
 N447 N 0.59558 0.56124 0.09708
 C448 C 0.57595 0.57519 0.07728
 N449 N 0.57480 0.60747 0.07586
 N450 N 0.59263 0.62514 0.09359
 C451 C 0.55634 0.55572 0.05769
 N452 N 0.53686 0.56968 0.03774
 N453 N 0.51909 0.55203 0.01993
 C454 C 0.51999 0.51968 0.02142
 N455 N 0.53967 0.50580 0.04132
 N456 N 0.55744 0.52346 0.05912
   
