data_POSCAR
  _audit_creation_date              2014-09-24
  _audit_creation_method            'ToBaCCo'
  _symmetry_space_group_name_H-M    'P1'
  _symmetry_Int_Tables_number       1
  _symmetry_cell_setting            triclinic
  loop_
  _symmetry_equiv_pos_as_xyz
 x,y,z
_cell_length_a 44.5976
_cell_length_b 45.7751
_cell_length_c 43.7353
_cell_angle_alpha 89.793000
_cell_angle_beta 90.417500
_cell_angle_gamma 89.917700
loop_
  _atom_site_label
  _atom_site_type_symbol
  _atom_site_fract_x
  _atom_site_fract_y
  _atom_site_fract_z
C1 C 0.22861 0.22778 0.26674
 C2 C 0.22568 0.24474 0.24011
 C3 C 0.24828 0.24477 0.21866
 C4 C 0.27407 0.22777 0.22353
 C5 C 0.27679 0.21084 0.24956
 C6 C 0.25386 0.21088 0.27139
 C7 C 0.20896 0.22138 0.28986
 N8 N 0.22137 0.20068 0.30866
 C9 C 0.24908 0.19438 0.29725
 C10 C 0.30233 0.19422 0.24648
 N11 N 0.31541 0.20052 0.21910
 C12 C 0.29803 0.22133 0.20518
 C13 C 0.23816 0.26073 0.19391
 N14 N 0.20991 0.27030 0.19973
 C15 C 0.20219 0.26064 0.22804
 H16 H 0.18651 0.23013 0.29129
 H17 H 0.26476 0.17848 0.30627
 H18 H 0.31006 0.17828 0.26304
 H19 H 0.30099 0.22999 0.18238
 H20 H 0.24994 0.26378 0.17258
 H21 H 0.18076 0.26424 0.23887
 C22 C -0.16296 0.77288 0.21412
 C23 C -0.17037 0.74691 0.19887
 C24 C -0.19253 0.74696 0.17654
 C25 C -0.20765 0.77304 0.16918
 C26 C -0.20020 0.79846 0.18417
 C27 C -0.17774 0.79839 0.20672
 C28 C -0.14183 0.77965 0.23610
 N29 N -0.14329 0.80886 0.24233
 C30 C -0.16547 0.82024 0.22416
 C31 C -0.21766 0.82040 0.17214
 N32 N -0.23597 0.80921 0.14994
 C33 C -0.22975 0.78000 0.14817
 C34 C -0.19381 0.71916 0.16468
 N35 N -0.17294 0.70224 0.17917
 C36 C -0.15866 0.71914 0.20024
 H37 H -0.12619 0.76417 0.24599
 H38 H -0.17286 0.84271 0.22349
 H39 H -0.21702 0.84278 0.17984
 H40 H -0.23985 0.76466 0.13247
 H41 H -0.20802 0.71220 0.14592
 H42 H -0.14068 0.71200 0.21525
 C43 C -0.23824 0.23945 -0.29853
 C44 C -0.23605 0.26114 -0.27606
 C45 C -0.25696 0.26240 -0.25293
 C46 C -0.28035 0.24195 -0.25196
 C47 C -0.28243 0.22060 -0.27402
 C48 C -0.26114 0.21927 -0.29746
 C49 C -0.21875 0.23056 -0.32085
 N50 N -0.22887 0.20512 -0.33343
 C51 C -0.25510 0.19837 -0.31911
 C52 C -0.30461 0.20163 -0.26510
 N53 N -0.31626 0.21066 -0.23789
 C54 C -0.30131 0.23560 -0.23002
 C55 C -0.24691 0.28269 -0.23209
 N56 N -0.22033 0.29370 -0.24190
 C57 C -0.21366 0.28066 -0.26890
 H58 H -0.19753 0.24099 -0.32545
 H59 H -0.26861 0.17914 -0.32291
 H60 H -0.31034 0.18190 -0.27726
 H61 H -0.30389 0.24783 -0.20914
 H62 H -0.25710 0.28740 -0.21027
 H63 H -0.19332 0.28403 -0.28177
 C64 C 0.16712 0.79214 -0.19142
 C65 C 0.16680 0.77201 -0.16720
 C66 C 0.18894 0.77282 -0.14491
 C67 C 0.21167 0.79392 -0.14652
 C68 C 0.21199 0.81361 -0.17043
 C69 C 0.18955 0.81271 -0.19306
 C70 C 0.14788 0.79716 -0.21559
 N71 N 0.15795 0.82046 -0.23219
 C72 C 0.18368 0.82989 -0.21824
 C73 C 0.23586 0.83199 -0.16569
 N74 N 0.25034 0.82421 -0.13924
 C75 C 0.23537 0.80071 -0.12754
 C76 C 0.18250 0.75129 -0.12391
 N77 N 0.15695 0.73749 -0.13291
 C78 C 0.14726 0.75009 -0.15939
 H79 H 0.12803 0.78439 -0.22031
 H80 H 0.19701 0.84852 -0.22485
 H81 H 0.24124 0.85029 -0.18030
 H82 H 0.24093 0.78898 -0.10678
 H83 H 0.19514 0.74648 -0.10328
 H84 H 0.12751 0.74370 -0.17223
 C85 C 0.25237 1.20941 0.73284
 C86 C 0.27580 1.20998 0.75441
 C87 C 0.27237 1.22515 0.78146
 C88 C 0.24542 1.23991 0.78734
 C89 C 0.22247 1.23934 0.76608
 C90 C 0.22601 1.22407 0.73858
 C91 C 0.24832 1.19411 0.70612
 N92 N 0.21994 1.19897 0.69522
 C93 C 0.20641 1.21761 0.71520
 C94 C 0.19837 1.25347 0.77870
 N95 N 0.20584 1.26286 0.80738
 C96 C 0.23488 1.25447 0.81258
 C97 C 0.29740 1.21964 0.79915
 N98 N 0.31590 1.20140 0.78360
 C99 C 0.30280 1.19548 0.75614
 H100 H 0.26499 1.18002 0.69610
 H101 H 0.18331 1.22474 0.71434
 H102 H 0.17698 1.25626 0.76732
 H103 H 0.24755 1.25752 0.83346
 H104 H 0.30096 1.22700 0.82239
 H105 H 0.31175 1.18098 0.73898
 C106 C 0.81174 0.79663 0.78805
 C107 C 0.79004 0.79638 0.81103
 C108 C 0.78338 0.77070 0.82618
 C109 C 0.79851 0.74488 0.81852
 C110 C 0.81996 0.74516 0.79594
 C111 C 0.82658 0.77130 0.78047
 C112 C 0.82329 0.81872 0.77047
 N113 N 0.84507 0.80770 0.75198
 C114 C 0.84703 0.77845 0.75820
 C115 C 0.83209 0.71755 0.79473
 N116 N 0.81873 0.70023 0.81621
 C117 C 0.79792 0.71715 0.83061
 C118 C 0.76234 0.77729 0.84805
 N119 N 0.75624 0.80638 0.84652
 C120 C 0.77310 0.81814 0.82385
 H121 H 0.81572 0.84112 0.77131
 H122 H 0.86257 0.76320 0.74812
 H123 H 0.84980 0.71119 0.77940
 H124 H 0.78407 0.71067 0.84961
 H125 H 0.75279 0.76216 0.86436
 H126 H 0.77308 0.84091 0.81708
 C127 C 0.18565 0.81427 1.19408
 C128 C 0.20762 0.81581 1.17137
 C129 C 0.20804 0.79547 1.14808
 C130 C 0.18635 0.77329 1.14719
 C131 C 0.16463 0.77195 1.16958
 C132 C 0.16428 0.79262 1.19316
 C133 C 0.17925 0.83179 1.21863
 N134 N 0.15422 0.82151 1.23291
 C135 C 0.14511 0.79734 1.21715
 C136 C 0.14597 0.74908 1.16245
 N137 N 0.15575 0.73641 1.13627
 C138 C 0.18053 0.75109 1.12682
 C139 C 0.23112 0.80303 1.12884
 N140 N 0.24459 0.82752 1.13987
 C141 C 0.23031 0.83536 1.16595
 H142 H 0.19167 0.85124 1.22452
 H143 H 0.12598 0.78380 1.22233
 H144 H 0.12668 0.74217 1.17548
 H145 H 0.19297 0.74650 1.10623
 H146 H 0.23706 0.79199 1.10789
 H147 H 0.23595 0.85398 1.18003
 C148 C 0.74240 1.22357 1.29796
 C149 C 0.72060 1.22354 1.27468
 C150 C 0.72163 1.24421 1.25158
 C151 C 0.74445 1.26528 1.25151
 C152 C 0.76589 1.26530 1.27453
 C153 C 0.76483 1.24424 1.29790
 C154 C 0.74940 1.20354 1.32041
 N155 N 0.77586 1.21119 1.33413
 C156 C 0.78509 1.23645 1.32035
 C157 C 0.78734 1.28547 1.26657
 N158 N 0.77957 1.29770 1.23925
 C159 C 0.75327 1.28546 1.22997
 C160 C 0.70046 1.23643 1.23003
 N161 N 0.68667 1.21150 1.23940
 C162 C 0.69886 1.20360 1.26681
 H163 H 0.73649 1.18408 1.32487
 H164 H 0.80604 1.24763 1.32440
 H165 H 0.80770 1.29000 1.27928
 H166 H 0.74233 1.28945 1.20818
 H167 H 0.69694 1.24702 1.20813
 H168 H 0.69332 1.18408 1.27957
 O169 O 0.54178 0.96863 0.96342
 O170 O 0.48517 0.97226 1.04668
 O171 O 0.57805 0.99776 1.02619
 O172 O 0.45539 1.00321 0.96616
 O173 O 0.54256 0.96829 1.04000
 O174 O 0.48809 0.97026 0.95915
 O175 O 0.45260 0.99992 1.02219
 O176 O 0.57730 0.99882 0.97096
 C177 C 0.56906 0.97329 0.96534
 C178 C 0.45878 0.97768 1.03828
 C179 C 0.56968 0.97276 1.03493
 C180 C 0.46132 0.97709 0.96093
 O181 O 0.49142 1.02541 0.93468
 O182 O 0.54701 1.02231 1.06191
 O183 O 0.55312 1.05348 0.97209
 O184 O 0.47033 1.05426 1.02769
 O185 O 0.49174 1.02703 1.06303
 O186 O 0.54529 1.02247 0.93672
 O187 O 0.47947 1.05627 0.96997
 O188 O 0.55687 1.05347 1.02707
 Co189 Co 0.51667 0.99798 0.95258
 Co190 Co 0.51685 0.99867 1.04768
 Co191 Co 0.56226 1.02469 0.99896
 Co192 Co 0.46945 1.02705 0.99646
 O193 O 0.51613 1.01209 0.99916
 C194 C 0.48345 1.05082 0.94240
 C195 C 0.55422 1.04778 1.05462
 C196 C 0.55159 1.04805 0.94440
 C197 C 0.47679 1.04937 1.05516
 O198 O 0.03058 0.44319 0.04072
 O199 O 0.02332 0.49668 -0.03926
 O200 O 0.00780 0.40481 -0.02365
 O201 O -0.01323 0.52398 0.02948
 O202 O 0.02830 0.44152 -0.04828
 O203 O 0.02341 0.49497 0.03696
 O204 O -0.01243 0.52564 -0.02525
 O205 O 0.00350 0.40580 0.03282
 C206 C 0.02830 0.41632 0.04025
 C207 C 0.01430 0.52190 -0.03367
 C208 C 0.02806 0.41509 -0.04067
 C209 C 0.01402 0.52039 0.03522
 O210 O -0.03168 0.48935 0.06326
 O211 O -0.02850 0.43969 -0.06425
 O212 O -0.05435 0.41938 0.02817
 O213 O -0.06512 0.49534 -0.02724
 O214 O -0.03218 0.49327 -0.06204
 O215 O -0.02588 0.43708 0.06391
 O216 O -0.06427 0.49114 0.02765
 O217 O -0.05023 0.41200 -0.02981
 Co218 Co -0.00222 0.46595 0.04701
 Co219 Co -0.00344 0.46763 -0.04815
 Co220 Co -0.02280 0.41565 0.00200
 Co221 Co -0.03696 0.50528 0.00117
 O222 O -0.01624 0.46335 0.00019
 C223 C -0.05838 0.49324 0.05522
 C224 C -0.04775 0.42075 -0.05689
 C225 C -0.05032 0.42553 0.05565
 C226 C -0.05883 0.49747 -0.05462
 O227 O 1.06881 0.01605 0.47108
 O228 O 0.94342 0.01591 0.52219
 O229 O 0.97989 0.04621 0.45952
 O230 O 1.03369 0.04580 0.53991
 O231 O 0.94632 0.01394 0.46601
 O232 O 1.06929 0.01643 0.52618
 O233 O 0.97663 0.04213 0.54714
 O234 O 1.03352 0.04678 0.46431
 C235 C 1.06077 0.04169 0.46536
 C236 C 0.95013 0.03755 0.53875
 C237 C 0.95296 0.04001 0.46108
 C238 C 1.06088 0.04126 0.53537
 O239 O 1.04728 -0.03934 0.52653
 O240 O 0.96932 -0.03982 0.46888
 O241 O 1.03631 -0.00641 0.43671
 O242 O 0.98305 -0.01304 0.56238
 O243 O 0.96044 -0.03885 0.52684
 O244 O 1.04402 -0.03837 0.47144
 O245 O 1.03813 -0.00833 0.56131
 O246 O 0.98241 -0.00831 0.43443
 Co247 Co 1.05323 -0.01010 0.49874
 Co248 Co 0.95994 -0.01097 0.49596
 Co249 Co 1.00804 0.01817 0.45278
 Co250 Co 1.00805 0.01551 0.54747
 O251 O 1.00707 0.00301 0.49895
 C252 C 1.04491 -0.03383 0.55409
 C253 C 0.97431 -0.03386 0.44154
 C254 C 1.04249 -0.03222 0.44386
 C255 C 0.96762 -0.03489 0.55429
 C256 C 1.17649 0.15659 0.37934
 C257 C 1.16425 0.18202 0.36668
 C258 C 1.17957 0.19725 0.34390
 C259 C 1.20754 0.18720 0.33296
 C260 C 1.22015 0.16213 0.34716
 C261 C 1.20466 0.14697 0.36992
 C262 C 1.15890 0.13905 0.39984
 C263 C 1.14324 0.12379 0.41556
 C264 C 1.12350 0.10491 0.43237
 C265 C 1.09318 0.11228 0.43506
 C266 C 1.07290 0.09217 0.44718
 C267 C 1.08272 0.06432 0.45659
 C268 C 1.11348 0.05764 0.45528
 C269 C 1.13374 0.07780 0.44312
 H270 H 1.14244 0.18972 0.37388
 H271 H 1.16903 0.21675 0.33498
 H272 H 1.24139 0.15316 0.34016
 H273 H 1.21430 0.12718 0.37951
 H274 H 1.08499 0.13315 0.42668
 H275 H 1.04938 0.09799 0.44804
 H276 H 1.12172 0.03644 0.46255
 H277 H 1.15714 0.07182 0.44103
 C278 C 0.90870 -0.14446 0.30628
 C279 C 0.89011 -0.12962 0.28564
 C280 C 0.87308 -0.14504 0.26423
 C281 C 0.87416 -0.17592 0.26292
 C282 C 0.89358 -0.19052 0.28373
 C283 C 0.91054 -0.17490 0.30520
 C284 C 0.92469 -0.12819 0.32928
 C285 C 0.93685 -0.11357 0.34859
 C286 C 0.94975 -0.09508 0.37172
 C287 C 0.96143 -0.06777 0.36368
 C288 C 0.97040 -0.04816 0.38640
 C289 C 0.96772 -0.05563 0.41748
 C290 C 0.95709 -0.08359 0.42531
 C291 C 0.94808 -0.10313 0.40255
 H292 H 0.88854 -0.10600 0.28624
 H293 H 0.85942 -0.13228 0.24871
 H294 H 0.89535 -0.21403 0.28430
 H295 H 0.92477 -0.18665 0.32124
 H296 H 0.96271 -0.06126 0.33988
 H297 H 0.97861 -0.02686 0.37964
 H298 H 0.95489 -0.09004 0.44903
 H299 H 0.93894 -0.12416 0.40904
 C300 C 0.82089 0.15135 0.60793
 C301 C 0.82933 0.18037 0.61244
 C302 C 0.81219 0.19862 0.63096
 C303 C 0.78620 0.18813 0.64577
 C304 C 0.77717 0.15909 0.63951
 C305 C 0.79449 0.14091 0.62099
 C306 C 0.84082 0.13175 0.59234
 C307 C 0.85872 0.11554 0.58073
 C308 C 0.88147 0.09658 0.56866
 C309 C 0.87403 0.07345 0.54917
 C310 C 0.89637 0.05429 0.53910
 C311 C 0.92638 0.05807 0.54851
 C312 C 0.93359 0.08168 0.56770
 C313 C 0.91130 0.10072 0.57769
 H314 H 0.84970 0.18874 0.60228
 H315 H 0.81980 0.22084 0.63366
 H316 H 0.75757 0.14955 0.64982
 H317 H 0.78777 0.11840 0.61769
 H318 H 0.85098 0.07003 0.54207
 H319 H 0.89012 0.03643 0.52421
 H320 H 0.95644 0.08530 0.57531
 H321 H 0.91729 0.11851 0.59283
 C322 C 1.11548 -0.14034 0.69177
 C323 C 1.10115 -0.16271 0.70777
 C324 C 1.11537 -0.17612 0.73276
 C325 C 1.14433 -0.16726 0.74248
 C326 C 1.15859 -0.14494 0.72548
 C327 C 1.14427 -0.13169 0.70053
 C328 C 1.10037 -0.12528 0.66715
 C329 C 1.08828 -0.11156 0.64697
 C330 C 1.07467 -0.09376 0.62348
 C331 C 1.07765 -0.10111 0.59260
 C332 C 1.06701 -0.08211 0.56983
 C333 C 1.05350 -0.05543 0.57778
 C334 C 1.04972 -0.04874 0.60888
 C335 C 1.06024 -0.06779 0.63154
 H336 H 1.07875 -0.16951 0.70123
 H337 H 1.10296 -0.19282 0.74465
 H338 H 1.18091 -0.13748 0.73098
 H339 H 1.15563 -0.11441 0.68821
 H340 H 1.08889 -0.12113 0.58612
 H341 H 1.07019 -0.08784 0.54607
 H342 H 1.03926 -0.02845 0.61571
 H343 H 1.05785 -0.06186 0.65537
 C344 C 0.38666 1.15601 1.17744
 C345 C 0.37495 1.14565 1.20494
 C346 C 0.35201 1.16099 1.21955
 C347 C 0.33994 1.18690 1.20659
 C348 C 0.35320 1.19765 1.17950
 C349 C 0.37616 1.18230 1.16512
 C350 C 0.40722 1.13850 1.16010
 C351 C 0.42294 1.12390 1.14386
 C352 C 0.43970 1.10672 1.12243
 C353 C 0.45530 1.08163 1.13181
 C354 C 0.46849 1.06337 1.11004
 C355 C 0.46589 1.06994 1.07865
 C356 C 0.45111 1.09579 1.06966
 C357 C 0.43813 1.11398 1.09139
 H358 H 0.38284 1.12518 1.21461
 H359 H 0.34305 1.15146 1.24015
 H360 H 0.34597 1.21785 1.16897
 H361 H 0.38515 1.19058 1.14384
 H362 H 0.45654 1.07575 1.15580
 H363 H 0.47981 1.04368 1.11767
 H364 H 0.44886 1.10162 1.04573
 H365 H 0.42603 1.13329 1.08386
 C366 C 0.32391 0.86784 0.90035
 C367 C 0.31444 0.87484 0.87074
 C368 C 0.29027 0.86016 0.85742
 C369 C 0.27480 0.83801 0.87352
 C370 C 0.28516 0.83089 0.90334
 C371 C 0.30937 0.84574 0.91656
 C372 C 0.34803 0.88409 0.91414
 C373 C 0.36795 0.89867 0.92484
 C374 C 0.39135 0.91724 0.93649
 C375 C 0.42132 0.90813 0.93582
 C376 C 0.44418 0.92735 0.94452
 C377 C 0.43728 0.95596 0.95379
 C378 C 0.40705 0.96461 0.95517
 C379 C 0.38426 0.94537 0.94658
 H380 H 0.32565 0.89187 0.85792
 H381 H 0.28422 0.86634 0.83436
 H382 H 0.27438 0.81444 0.91713
 H383 H 0.31651 0.84019 0.93960
 H384 H 0.42704 0.88643 0.92793
 H385 H 0.46726 0.92005 0.94333
 H386 H 0.40103 0.98645 0.96235
 H387 H 0.36115 0.95267 0.94712
 C388 C 0.69939 0.85653 1.09948
 C389 C 0.70040 0.82609 1.09744
 C390 C 0.72212 0.81024 1.11385
 C391 C 0.74323 0.82461 1.13290
 C392 C 0.74197 0.85549 1.13412
 C393 C 0.72034 0.87112 1.11766
 C394 C 0.67645 0.87318 1.08394
 C395 C 0.65754 0.88843 1.07215
 C396 C 0.63536 0.90804 1.05960
 C397 C 0.60480 0.90186 1.06264
 C398 C 0.58330 0.92257 1.05377
 C399 C 0.59217 0.94983 1.04194
 C400 C 0.62291 0.95543 1.03803
 C401 C 0.64433 0.93467 1.04681
 H402 H 0.68417 0.81454 1.08347
 H403 H 0.72155 0.78674 1.11200
 H404 H 0.75773 0.86809 1.14743
 H405 H 0.71984 0.89474 1.11931
 H406 H 0.59760 0.88138 1.07267
 H407 H 0.55981 0.91755 1.05693
 H408 H 0.63047 0.97613 1.02884
 H409 H 0.66793 0.93975 1.04446
 C410 C 0.62368 1.16376 0.81751
 C411 C 0.63120 1.15324 0.78865
 C412 C 0.65036 1.16920 0.76976
 C413 C 0.66283 1.19609 0.77951
 C414 C 0.65376 1.20690 0.80833
 C415 C 0.63459 1.19081 0.82708
 C416 C 0.60671 1.14582 0.83818
 C417 C 0.59376 1.13022 0.85599
 C418 C 0.57991 1.11095 0.87777
 C419 C 0.56859 1.08391 0.86834
 C420 C 0.55843 1.06374 0.88998
 C421 C 0.55962 1.07036 0.92135
 C422 C 0.56991 1.09802 0.93052
 C423 C 0.58008 1.11814 0.90885
 H424 H 0.62281 1.13228 0.78097
 H425 H 0.65561 1.15973 0.74791
 H426 H 0.66168 1.22748 0.81715
 H427 H 0.62884 1.19921 0.84942
 H428 H 0.56844 1.07809 0.84435
 H429 H 0.55039 1.04270 0.88223
 H430 H 0.57094 1.10380 0.95450
 H431 H 0.58889 1.13897 0.91641
 C432 C 0.15327 0.31645 0.13729
 C433 C 0.14083 0.29789 0.15927
 C434 C 0.15939 0.28280 0.17981
 C435 C 0.19074 0.28606 0.17868
 C436 C 0.20305 0.30471 0.15640
 C437 C 0.18442 0.31983 0.13589
 C438 C 0.13389 0.33259 0.11687
 C439 C 0.11711 0.34635 0.10055
 C440 C 0.09644 0.36325 0.08225
 C441 C 0.07063 0.35020 0.07008
 C442 C 0.04893 0.36729 0.05518
 C443 C 0.05275 0.39768 0.05247
 C444 C 0.07933 0.41040 0.06368
 C445 C 0.10098 0.39329 0.07853
 H446 H 0.11675 0.29512 0.16058
 H447 H 0.14919 0.26827 0.19628
 H448 H 0.22704 0.30793 0.15514
 H449 H 0.19428 0.33430 0.11909
 H450 H 0.06686 0.32697 0.07288
 H451 H 0.02874 0.35687 0.04670
 H452 H 0.08297 0.43373 0.06188
 H453 H 0.12084 0.40363 0.08792
 C454 C -0.16273 0.34645 -0.18719
 C455 C -0.15062 0.32752 -0.20890
 C456 C -0.16951 0.31080 -0.22749
 C457 C -0.20088 0.31272 -0.22456
 C458 C -0.21284 0.33240 -0.20320
 C459 C -0.19388 0.34911 -0.18462
 C460 C -0.14321 0.36150 -0.16617
 C461 C -0.12680 0.37310 -0.14787
 C462 C -0.10729 0.38575 -0.12516
 C463 C -0.08733 0.40813 -0.13290
 C464 C -0.06792 0.41965 -0.11072
 C465 C -0.06825 0.40884 -0.08053
 C466 C -0.08856 0.38647 -0.07303
 C467 C -0.10788 0.37503 -0.09519
 H468 H -0.12654 0.32510 -0.21091
 H469 H -0.15949 0.29560 -0.24330
 H470 H -0.23685 0.33463 -0.20063
 H471 H -0.20351 0.36365 -0.16783
 H472 H -0.08668 0.41657 -0.15605
 H473 H -0.05269 0.43697 -0.11719
 H474 H -0.08944 0.37766 -0.05004
 H475 H -0.12319 0.35767 -0.08897
 C476 C 0.11408 0.66648 -0.08805
 C477 C 0.14511 0.67020 -0.08508
 C478 C 0.15922 0.69376 -0.09947
 C479 C 0.14243 0.71379 -0.11712
 C480 C 0.11120 0.71003 -0.11957
 C481 C 0.09717 0.68655 -0.10515
 C482 C 0.09947 0.64158 -0.07472
 C483 C 0.08630 0.62075 -0.06464
 C484 C 0.06947 0.59601 -0.05401
 C485 C 0.08116 0.56776 -0.05675
 C486 C 0.06348 0.54355 -0.04944
 C487 C 0.03382 0.54738 -0.03946
 C488 C 0.02260 0.57590 -0.03595
 C489 C 0.04033 0.60003 -0.04317
 H490 H 0.15842 0.65469 -0.07202
 H491 H 0.18330 0.69590 -0.09741
 H492 H 0.09759 0.72531 -0.13254
 H493 H 0.07313 0.68388 -0.10758
 H494 H 0.10366 0.56442 -0.06526
 H495 H 0.07279 0.52187 -0.05222
 H496 H -0.00009 0.57956 -0.02817
 H497 H 0.03103 0.62181 -0.04106
 C498 C -0.14931 0.61572 0.15293
 C499 C -0.12834 0.63354 0.16771
 C500 C -0.13630 0.66164 0.17700
 C501 C -0.16544 0.67244 0.17161
 C502 C -0.18665 0.65401 0.15749
 C503 C -0.17859 0.62587 0.14812
 C504 C -0.13963 0.58836 0.14018
 C505 C -0.12980 0.56661 0.12840
 C506 C -0.11594 0.54246 0.11293
 C507 C -0.08975 0.52995 0.12503
 C508 C -0.07216 0.51160 0.10701
 C509 C -0.08047 0.50579 0.07655
 C510 C -0.10810 0.51646 0.06546
 C511 C -0.12565 0.53483 0.08352
 H512 H -0.10550 0.62606 0.17121
 H513 H -0.11923 0.67523 0.18734
 H514 H -0.20936 0.66144 0.15336
 H515 H -0.19496 0.61233 0.13650
 H516 H -0.08192 0.53584 0.14769
 H517 H -0.05107 0.50360 0.11621
 H518 H -0.11512 0.51235 0.04211
 H519 H -0.14576 0.54453 0.07383
 C520 C 1.17672 0.15546 0.62279
 C521 C 1.16309 0.17946 0.63658
 C522 C 1.17782 0.19457 0.65994
 C523 C 1.20661 0.18583 0.67033
 C524 C 1.22061 0.16233 0.65497
 C525 C 1.20568 0.14724 0.63164
 C526 C 1.15975 0.13776 0.60178
 C527 C 1.14428 0.12252 0.58573
 C528 C 1.12432 0.10393 0.56868
 C529 C 1.09383 0.11101 0.56702
 C530 C 1.07334 0.09110 0.55483
 C531 C 1.08307 0.06373 0.54423
 C532 C 1.11396 0.05741 0.54443
 C533 C 1.13446 0.07737 0.55676
 H534 H 1.14065 0.18607 0.62983
 H535 H 1.16620 0.21294 0.66976
 H536 H 1.24253 0.15442 0.66153
 H537 H 1.21641 0.12856 0.62119
 H538 H 1.08572 0.13144 0.57629
 H539 H 1.04974 0.09673 0.55477
 H540 H 1.12214 0.03658 0.53625
 H541 H 1.15800 0.07162 0.55806
 C542 C 0.89500 -0.14461 0.68753
 C543 C 0.89736 -0.17503 0.68873
 C544 C 0.88104 -0.19098 0.71032
 C545 C 0.86178 -0.17676 0.73117
 C546 C 0.86012 -0.14588 0.72968
 C547 C 0.87650 -0.13013 0.70813
 C548 C 0.91063 -0.12804 0.66462
 C549 C 0.92275 -0.11335 0.64542
 C550 C 0.93601 -0.09502 0.62239
 C551 C 0.92859 -0.09917 0.59159
 C552 C 0.93936 -0.07995 0.56936
 C553 C 0.95764 -0.05618 0.57768
 C554 C 0.96554 -0.05257 0.60865
 C555 C 0.95476 -0.07187 0.63085
 H556 H 0.91155 -0.18650 0.67273
 H557 H 0.88324 -0.21445 0.70986
 H558 H 0.84651 -0.13337 0.74516
 H559 H 0.87455 -0.10654 0.70745
 H560 H 0.91399 -0.11694 0.58481
 H561 H 0.93290 -0.08340 0.54573
 H562 H 0.97962 -0.03456 0.61581
 H563 H 0.96054 -0.06839 0.65466
 C564 C 1.11102 -0.13927 0.30756
 C565 C 1.13936 -0.12976 0.29862
 C566 C 1.15392 -0.14301 0.27414
 C567 C 1.14037 -0.16620 0.25780
 C568 C 1.11188 -0.17592 0.26771
 C569 C 1.09740 -0.16249 0.29223
 C570 C 1.09573 -0.12424 0.33174
 C571 C 1.08369 -0.11041 0.35160
 C572 C 1.07040 -0.09237 0.37473
 C573 C 1.05839 -0.06519 0.36653
 C574 C 1.04853 -0.04598 0.38905
 C575 C 1.05049 -0.05373 0.42014
 C576 C 1.06152 -0.08155 0.42817
 C577 C 1.07155 -0.10072 0.40555
 H578 H 1.15019 -0.11183 0.31044
 H579 H 1.17590 -0.13488 0.26851
 H580 H 1.10004 -0.19332 0.25627
 H581 H 1.07535 -0.16997 0.29892
 H582 H 1.05746 -0.05847 0.34275
 H583 H 1.03997 -0.02479 0.38214
 H584 H 1.06324 -0.08813 0.45193
 H585 H 1.08091 -0.12168 0.41215
 C586 C 0.82732 0.15938 0.39446
 C587 C 0.83683 0.18749 0.38682
 C588 C 0.81924 0.20521 0.36773
 C589 C 0.79172 0.19503 0.35544
 C590 C 0.78182 0.16702 0.36487
 C591 C 0.79955 0.14942 0.38396
 C592 C 0.84716 0.13992 0.41079
 C593 C 0.86453 0.12331 0.42302
 C594 C 0.88613 0.10327 0.43584
 C595 C 0.87752 0.07498 0.44429
 C596 C 0.89918 0.05452 0.45337
 C597 C 0.92973 0.06213 0.45394
 C598 C 0.93803 0.09090 0.44646
 C599 C 0.91636 0.11129 0.43740
 H600 H 0.85830 0.19549 0.39496
 H601 H 0.82787 0.22664 0.36247
 H602 H 0.76093 0.15782 0.35697
 H603 H 0.79193 0.12764 0.38978
 H604 H 0.85418 0.06851 0.44305
 H605 H 0.89212 0.03259 0.45922
 H606 H 0.96135 0.09747 0.44685
 H607 H 0.92329 0.13308 0.43079
 C608 C 0.14961 0.30819 -0.13194
 C609 C 0.17980 0.30381 -0.12455
 C610 C 0.19852 0.28861 -0.14454
 C611 C 0.18743 0.27746 -0.17261
 C612 C 0.15667 0.28201 -0.17941
 C613 C 0.13812 0.29716 -0.15932
 C614 C 0.13055 0.32511 -0.11228
 C615 C 0.11418 0.33996 -0.09693
 C616 C 0.09425 0.35868 -0.08015
 C617 C 0.09585 0.38891 -0.08446
 C618 C 0.07489 0.40727 -0.07077
 C619 C 0.05187 0.39566 -0.05254
 C620 C 0.05102 0.36529 -0.04743
 C621 C 0.07205 0.34690 -0.06127
 H622 H 0.18902 0.31248 -0.10347
 H623 H 0.22176 0.28635 -0.13790
 H624 H 0.14637 0.27386 -0.20007
 H625 H 0.11473 0.30048 -0.16532
 H626 H 0.11287 0.39827 -0.09907
 H627 H 0.07631 0.43053 -0.07511
 H628 H 0.03363 0.35567 -0.03349
 H629 H 0.07055 0.32350 -0.05785
 C630 C -0.16674 0.35328 0.18380
 C631 C -0.19802 0.35401 0.18100
 C632 C -0.21572 0.33630 0.19973
 C633 C -0.20236 0.31752 0.22147
 C634 C -0.17090 0.31748 0.22454
 C635 C -0.15327 0.33520 0.20582
 C636 C -0.14832 0.36946 0.16282
 C637 C -0.13252 0.38190 0.14471
 C638 C -0.11328 0.39532 0.12242
 C639 C -0.11874 0.39073 0.09127
 C640 C -0.09867 0.40128 0.06950
 C641 C -0.07273 0.41649 0.07861
 C642 C -0.06791 0.42186 0.10993
 C643 C -0.08804 0.41125 0.13170
 H644 H -0.20869 0.36786 0.16398
 H645 H -0.23985 0.33712 0.19704
 H646 H -0.15979 0.30303 0.24063
 H647 H -0.12907 0.33426 0.20801
 H648 H -0.13815 0.37837 0.08383
 H649 H -0.10312 0.39690 0.04558
 H650 H -0.04826 0.43369 0.11764
 H651 H -0.08357 0.41489 0.15577
 C652 C -0.15516 0.61548 -0.15716
 C653 C -0.13932 0.63026 -0.17986
 C654 C -0.14856 0.65799 -0.18961
 C655 C -0.17380 0.67181 -0.17651
 C656 C -0.19036 0.65574 -0.15465
 C657 C -0.18100 0.62802 -0.14504
 C658 C -0.14305 0.58915 -0.14389
 C659 C -0.13173 0.56835 -0.13136
 C660 C -0.11672 0.54536 -0.11473
 C661 C -0.08981 0.53384 -0.12572
 C662 C -0.07188 0.51623 -0.10683
 C663 C -0.08059 0.51020 -0.07661
 C664 C -0.10869 0.52013 -0.06653
 C665 C -0.12657 0.53771 -0.08547
 H666 H -0.11913 0.62080 -0.18930
 H667 H -0.13487 0.66868 -0.20651
 H668 H -0.21040 0.66436 -0.14436
 H669 H -0.19347 0.61675 -0.12740
 H670 H -0.08186 0.53977 -0.14826
 H671 H -0.05042 0.50881 -0.11527
 H672 H -0.11603 0.51583 -0.04340
 H673 H -0.14726 0.54668 -0.07664
 C674 C 0.11438 0.66385 0.09250
 C675 C 0.09719 0.68339 0.10956
 C676 C 0.11074 0.70732 0.12369
 C677 C 0.14177 0.71207 0.12099
 C678 C 0.15885 0.69250 0.10346
 C679 C 0.14522 0.66848 0.08934
 C680 C 0.10010 0.63878 0.07905
 C681 C 0.08690 0.61802 0.06877
 C682 C 0.06966 0.59366 0.05775
 C683 C 0.03961 0.59789 0.04946
 C684 C 0.02170 0.57405 0.04164
 C685 C 0.03363 0.54560 0.04193
 C686 C 0.06408 0.54158 0.04942
 C687 C 0.08198 0.56551 0.05739
 H688 H 0.07329 0.68005 0.11208
 H689 H 0.09687 0.72221 0.13654
 H690 H 0.18281 0.69541 0.10119
 H691 H 0.15875 0.65341 0.07627
 H692 H 0.02983 0.61957 0.04975
 H693 H -0.00162 0.57787 0.03580
 H694 H 0.07390 0.51992 0.04971
 H695 H 0.10519 0.56199 0.06389
 C696 C 0.39216 1.15979 0.82345
 C697 C 0.38433 1.18814 0.83225
 C698 C 0.35990 1.20224 0.81842
 C699 C 0.34285 1.18809 0.79569
 C700 C 0.35160 1.15997 0.78627
 C701 C 0.37603 1.14593 0.80012
 C702 C 0.41439 1.14372 0.84061
 C703 C 0.43145 1.12955 0.85620
 C704 C 0.44964 1.11191 0.87636
 C705 C 0.45314 1.12026 0.90690
 C706 C 0.46581 1.10093 0.92812
 C707 C 0.47502 1.07288 0.91907
 C708 C 0.47323 1.06535 0.88796
 C709 C 0.46043 1.08473 0.86674
 H710 H 0.39654 1.19900 0.85045
 H711 H 0.35401 1.22400 0.82589
 H712 H 0.33880 1.14826 0.76917
 H713 H 0.38165 1.12384 0.79340
 H714 H 0.44474 1.14118 0.91463
 H715 H 0.46712 1.10747 0.95187
 H716 H 0.48029 1.04397 0.88028
 H717 H 0.45769 1.07798 0.84317
 C718 C 0.31744 0.87355 1.09988
 C719 C 0.29624 0.88845 1.11736
 C720 C 0.27227 0.87336 1.13032
 C721 C 0.26912 0.84306 1.12601
 C722 C 0.29041 0.82828 1.10816
 C723 C 0.31445 0.84345 1.09521
 C724 C 0.34234 0.88933 1.08722
 C725 C 0.36297 0.90334 1.07725
 C726 C 0.38729 0.92092 1.06607
 C727 C 0.38132 0.94480 1.04692
 C728 C 0.40461 0.96311 1.03765
 C729 C 0.43427 0.95774 1.04739
 C730 C 0.44013 0.93335 1.06621
 C731 C 0.41675 0.91511 1.07553
 H732 H 0.29828 0.91176 1.12103
 H733 H 0.25604 0.88550 1.14346
 H734 H 0.28878 0.80495 1.10466
 H735 H 0.33079 0.83169 1.08178
 H736 H 0.35858 0.94955 1.03953
 H737 H 0.39932 0.98165 1.02313
 H738 H 0.46269 0.92857 1.07407
 H739 H 0.42160 0.89674 1.09045
 C740 C 0.62809 1.16076 1.18363
 C741 C 0.62859 1.19120 1.18053
 C742 C 0.64725 1.20798 1.19938
 C743 C 0.66575 1.19450 1.22153
 C744 C 0.66450 1.16391 1.22489
 C745 C 0.64583 1.14722 1.20606
 C746 C 0.61111 1.14314 1.16254
 C747 C 0.59810 1.12782 1.14443
 C748 C 0.58410 1.10900 1.12227
 C749 C 0.58471 1.11651 1.09124
 C750 C 0.57411 1.09693 1.06925
 C751 C 0.56290 1.06946 1.07804
 C752 C 0.56138 1.06250 1.10934
 C753 C 0.57201 1.08214 1.13131
 H754 H 0.61501 1.20191 1.16316
 H755 H 0.64741 1.23146 1.19644
 H756 H 0.67871 1.15270 1.24129
 H757 H 0.64583 1.12365 1.20849
 H758 H 0.59412 1.13719 1.08398
 H759 H 0.57545 1.10298 1.04534
 H760 H 0.55267 1.04160 1.11680
 H761 H 0.57152 1.07606 1.15527
 C762 C 0.69450 0.85448 0.90038
 C763 C 0.68934 0.82486 0.89451
 C764 C 0.70993 0.80879 0.87733
 C765 C 0.73579 0.82229 0.86566
 C766 C 0.74101 0.85191 0.87227
 C767 C 0.72051 0.86785 0.88948
 C768 C 0.67252 0.87187 0.91594
 C769 C 0.65439 0.88764 0.92784
 C770 C 0.63314 0.90780 0.94054
 C771 C 0.60254 0.90104 0.94078
 C772 C 0.58162 0.92207 0.94977
 C773 C 0.59113 0.95017 0.95841
 C774 C 0.62199 0.95640 0.95908
 C775 C 0.64283 0.93534 0.95020
 H776 H 0.66916 0.81434 0.90269
 H777 H 0.70519 0.78611 0.87241
 H778 H 0.76094 0.86278 0.86408
 H779 H 0.72471 0.89077 0.89386
 H780 H 0.59479 0.87983 0.93320
 H781 H 0.55801 0.91662 0.94916
 H782 H 0.62999 0.97778 0.96578
 H783 H 0.66645 0.94083 0.95000
   
