data_POSCAR
  _audit_creation_date              2014-09-24
  _audit_creation_method            'ToBaCCo'
  _symmetry_space_group_name_H-M    'P1'
  _symmetry_Int_Tables_number       1
  _symmetry_cell_setting            triclinic
  loop_
  _symmetry_equiv_pos_as_xyz
 x,y,z
_cell_length_a 37.0351
_cell_length_b 19.6044
_cell_length_c 14.2947
_cell_angle_alpha 90.034300
_cell_angle_beta 89.926000
_cell_angle_gamma 89.899700
loop_
  _atom_site_label
  _atom_site_type_symbol
  _atom_site_fract_x
  _atom_site_fract_y
  _atom_site_fract_z
C1 C 0.67239 0.28452 0.58671
 C2 C 0.65604 0.29849 0.50023
 C3 C 0.67280 0.28322 0.41514
 C4 C 0.70863 0.25799 0.41505
 C5 C 0.72690 0.24711 0.50107
 C6 C 0.70864 0.25957 0.58719
 C7 C 0.72784 0.24937 0.67075
 C8 C 0.76282 0.22413 0.67065
 C9 C 0.78192 0.21283 0.58693
 C10 C 0.76355 0.22370 0.50083
 C11 C 0.72684 0.24406 0.33112
 C12 C 0.76185 0.21897 0.33095
 C13 C 0.78149 0.21065 0.41446
 C14 C 0.81773 0.18609 0.41437
 C15 C 0.83415 0.17118 0.50052
 C16 C 0.81809 0.18777 0.58669
 H17 H 0.71670 0.26147 0.73835
 H18 H 0.77398 0.21241 0.73828
 H19 H 0.71437 0.25229 0.26384
 H20 H 0.77260 0.20457 0.26370
 H21 H 0.62823 0.31561 0.49836
 H22 H 0.86196 0.15438 0.50039
 C23 C 0.32828 0.72265 0.41496
 C24 C 0.34579 0.71197 0.50025
 C25 C 0.32876 0.72462 0.58583
 C26 C 0.29227 0.74645 0.58679
 C27 C 0.27355 0.75560 0.50108
 C28 C 0.29172 0.74415 0.41480
 C29 C 0.27266 0.75354 0.33096
 C30 C 0.23697 0.77540 0.33131
 C31 C 0.21817 0.78614 0.41556
 C32 C 0.23659 0.77633 0.50160
 C33 C 0.27387 0.75881 0.67095
 C34 C 0.23820 0.78072 0.67147
 C35 C 0.21833 0.78769 0.58801
 C36 C 0.18148 0.80912 0.58778
 C37 C 0.16463 0.82129 0.50135
 C38 C 0.18173 0.80793 0.41603
 H39 H 0.28494 0.74390 0.26367
 H40 H 0.22459 0.78452 0.26412
 H41 H 0.28673 0.75196 0.73803
 H42 H 0.22714 0.79373 0.73887
 H43 H 0.37398 0.69692 0.49999
 H44 H 0.13638 0.83552 0.49970
 C45 C 0.17255 0.21696 -0.41656
 C46 C 0.15561 0.20325 -0.50179
 C47 C 0.17185 0.21818 -0.58822
 C48 C 0.20805 0.24321 -0.58869
 C49 C 0.22645 0.25401 -0.50252
 C50 C 0.20844 0.24160 -0.41637
 C51 C 0.22709 0.25277 -0.33228
 C52 C 0.26231 0.27680 -0.33211
 C53 C 0.28118 0.28787 -0.41601
 C54 C 0.26312 0.27673 -0.50231
 C55 C 0.22713 0.25482 -0.67227
 C56 C 0.26229 0.27907 -0.67198
 C57 C 0.28159 0.28816 -0.58825
 C58 C 0.31818 0.31105 -0.58750
 C59 C 0.33456 0.32462 -0.50090
 C60 C 0.31739 0.31095 -0.41582
 H61 H 0.21494 0.24241 -0.26508
 H62 H 0.27431 0.28705 -0.26477
 H63 H 0.21584 0.24439 -0.74009
 H64 H 0.27349 0.29150 -0.73937
 H65 H 0.12780 0.18634 -0.49993
 H66 H 0.36263 0.33986 -0.49889
 C67 C -0.31741 0.68421 -0.41447
 C68 C -0.33379 0.66929 -0.50065
 C69 C -0.31780 0.68614 -0.58675
 C70 C -0.28173 0.71135 -0.58698
 C71 C -0.26340 0.72234 -0.50092
 C72 C -0.28126 0.70905 -0.41455
 C73 C -0.26163 0.71753 -0.33108
 C74 C -0.22675 0.74309 -0.33127
 C75 C -0.20864 0.75727 -0.41520
 C76 C -0.22687 0.74616 -0.50119
 C77 C -0.26269 0.72272 -0.67072
 C78 C -0.22785 0.74835 -0.67087
 C79 C -0.20869 0.75881 -0.58732
 C80 C -0.17257 0.78417 -0.58688
 C81 C -0.15628 0.79842 -0.50043
 C82 C -0.17295 0.78295 -0.41534
 H83 H -0.27226 0.70293 -0.26384
 H84 H -0.21433 0.75149 -0.26398
 H85 H -0.27379 0.71075 -0.73834
 H86 H -0.21679 0.76055 -0.73847
 H87 H -0.36153 0.65232 -0.50058
 H88 H -0.12857 0.81586 -0.49860
 N89 N -0.03979 1.06978 -0.16569
 N90 N -0.06654 1.07725 -0.22574
 N91 N 0.03481 1.12345 -0.10105
 N92 N 0.06093 1.16831 -0.11368
 N93 N 0.03600 1.07587 -0.16580
 N94 N 0.06287 1.08699 -0.22456
 N95 N -0.04126 1.11685 -0.10034
 N96 N -0.06923 1.15762 -0.11368
 C97 C -0.08459 1.13200 -0.19202
 C98 C 0.07809 1.14461 -0.19076
 N99 N 0.03616 1.07660 0.16566
 N100 N 0.06248 1.08887 0.22541
 N101 N -0.04109 1.11686 0.10148
 N102 N -0.06942 1.15684 0.11446
 N103 N -0.03946 1.06986 0.16688
 N104 N -0.06640 1.07670 0.22664
 N105 N 0.03504 1.12372 0.10039
 N106 N 0.06085 1.16919 0.11328
 Mn107 Mn -0.00318 1.12109 0.00012
 C108 C 0.07757 1.14652 0.19143
 C109 C -0.08476 1.13095 0.19271
 N110 N 0.03934 0.92898 -0.16599
 N111 N 0.06625 0.92149 -0.22574
 N112 N -0.03534 0.87588 -0.10009
 N113 N -0.06140 0.83090 -0.11262
 N114 N -0.03645 0.92321 -0.16507
 N115 N -0.06327 0.91195 -0.22373
 N116 N 0.04071 0.88202 -0.10056
 N117 N 0.06882 0.84151 -0.11327
 Mn118 Mn -0.00021 0.99946 -0.16664
 C119 C 0.08431 0.86694 -0.19154
 C120 C -0.07851 0.85442 -0.18973
 N121 N -0.03573 0.92312 0.16702
 N122 N -0.06213 0.91154 0.22698
 N123 N 0.04091 0.88218 0.10060
 N124 N 0.06880 0.84117 0.11326
 N125 N 0.04003 0.92977 0.16534
 N126 N 0.06723 0.92252 0.22412
 N127 N -0.03511 0.87614 0.10144
 N128 N -0.06127 0.83141 0.11439
 Mn129 Mn 0.00028 0.99983 0.16721
 Mn130 Mn 0.00279 0.87823 0.00035
 Cl131 Cl -0.00008 0.99968 0.00026
 C132 C -0.07772 0.85438 0.19290
 C133 C 0.08486 0.86728 0.19024
 N134 N 0.53513 0.42328 -0.16754
 N135 N 0.56154 0.41157 -0.22747
 N136 N 0.45850 0.38350 -0.10047
 N137 N 0.43047 0.34296 -0.11296
 N138 N 0.45938 0.43114 -0.16505
 N139 N 0.43207 0.42439 -0.22355
 N140 N 0.53456 0.37640 -0.10190
 N141 N 0.56079 0.33159 -0.11481
 C142 C 0.57720 0.35441 -0.19338
 C143 C 0.41433 0.36941 -0.18969
 N144 N 0.46037 0.43055 0.16602
 N145 N 0.43358 0.42314 0.22616
 N146 N 0.53500 0.37624 0.09990
 N147 N 0.56107 0.33107 0.11235
 N148 N 0.53614 0.42355 0.16499
 N149 N 0.56297 0.41212 0.22357
 N150 N 0.45898 0.38343 0.10073
 N151 N 0.43099 0.34290 0.11394
 Mn152 Mn 0.49678 0.37904 -0.00044
 C153 C 0.41558 0.36848 0.19229
 C154 C 0.57820 0.35448 0.18952
 N155 N 0.46357 0.57786 -0.16487
 N156 N 0.43687 0.59039 -0.22349
 N157 N 0.54129 0.61671 -0.10166
 N158 N 0.56979 0.65603 -0.11460
 N159 N 0.53932 0.56991 -0.16730
 N160 N 0.56627 0.57619 -0.22719
 N161 N 0.46531 0.62529 -0.10009
 N162 N 0.43977 0.67147 -0.11247
 Mn163 Mn 0.49931 0.50055 -0.16722
 C164 C 0.42234 0.64869 -0.18942
 C165 C 0.58493 0.62994 -0.19307
 N166 N 0.53994 0.56994 0.16553
 N167 N 0.56667 0.57706 0.22566
 N168 N 0.46563 0.62504 0.10094
 N169 N 0.43964 0.67038 0.11317
 N170 N 0.46419 0.57757 0.16571
 N171 N 0.43729 0.58934 0.22424
 N172 N 0.54161 0.61682 0.10006
 N173 N 0.56967 0.65715 0.11342
 Mn174 Mn 0.50011 0.50041 0.16659
 Mn175 Mn 0.50354 0.62179 -0.00019
 Cl176 Cl 0.49994 0.50043 -0.00032
 C177 C 0.58490 0.63142 0.19184
 C178 C 0.42232 0.64720 0.19015
 N179 N 0.36322 0.29364 0.19618
 N180 N 0.33626 0.27793 0.25322
 C181 C 0.33992 0.31638 0.33116
 C182 C 0.37069 0.35580 0.31978
 N183 N 0.38404 0.34040 0.23500
 H184 H 0.38220 0.39257 0.36771
 N185 N -0.12742 0.77308 0.19611
 N186 N -0.15375 0.75394 0.25317
 C187 C -0.15119 0.79222 0.33159
 C188 C -0.12176 0.83510 0.32048
 N189 N -0.10806 0.82184 0.23543
 H190 H -0.11144 0.87289 0.36876
 N191 N 0.63655 0.70798 0.19872
 N192 N 0.66342 0.72304 0.25619
 C193 C 0.66038 0.68212 0.33191
 C194 C 0.63003 0.64188 0.31874
 N195 N 0.61632 0.65930 0.23518
 H196 H 0.61901 0.60324 0.36466
 N197 N 0.12665 1.22926 0.19506
 N198 N 0.15283 1.24886 0.25219
 C199 C 0.15044 1.21035 0.33039
 C200 C 0.12130 1.16686 0.31907
 N201 N 0.10758 1.17996 0.23413
 H202 H 0.11125 1.12862 0.36708
 N203 N 0.62722 0.27341 -0.19632
 N204 N 0.65366 0.25440 -0.25328
 C205 C 0.65095 0.29249 -0.33180
 C206 C 0.62133 0.33512 -0.32083
 N207 N 0.60765 0.32191 -0.23579
 H208 H 0.61088 0.37275 -0.36918
 N209 N 0.13740 0.79336 -0.19441
 N210 N 0.16435 0.77766 -0.25163
 C211 C 0.16002 0.81487 -0.33044
 C212 C 0.12893 0.85356 -0.31931
 N213 N 0.11599 0.83894 -0.23395
 H214 H 0.11692 0.88937 -0.36785
 N215 N 0.37865 0.74143 -0.20097
 N216 N 0.35309 0.76301 -0.25872
 C217 C 0.35084 0.71670 -0.32843
 C218 C 0.37624 0.66656 -0.31217
 N219 N 0.39280 0.68370 -0.23212
 H220 H 0.38277 0.62300 -0.35567
 N221 N -0.13632 1.20881 -0.19846
 N222 N -0.16321 1.22411 -0.25585
 C223 C -0.16011 1.18345 -0.33191
 C224 C -0.12970 1.14311 -0.31899
 N225 N -0.11601 1.16022 -0.23527
 H226 H -0.11863 1.10460 -0.36519
 N227 N 0.63784 0.70353 -0.19790
 N228 N 0.66484 0.71828 -0.25528
 C229 C 0.66107 0.67909 -0.33253
 C230 C 0.63017 0.64011 -0.32019
 N231 N 0.61682 0.65666 -0.23578
 H232 H 0.61844 0.60309 -0.36739
 N233 N 0.12287 1.23515 -0.20263
 N234 N 0.14866 1.25557 -0.26051
 C235 C 0.15058 1.20911 -0.33017
 C236 C 0.12465 1.16000 -0.31358
 N237 N 0.10816 1.17799 -0.23354
 H238 H 0.11766 1.11673 -0.35700
 N239 N 0.36641 0.28503 -0.20266
 N240 N 0.33997 0.26835 -0.26067
 C241 C 0.33958 0.31560 -0.32940
 C242 C 0.36715 0.36130 -0.31210
 N243 N 0.38302 0.34057 -0.23258
 H244 H 0.37564 0.40400 -0.35477
 N245 N -0.12250 0.76266 -0.20331
 N246 N -0.14824 0.74235 -0.26127
 C247 C -0.15081 0.78995 -0.32924
 C248 C -0.12530 0.83960 -0.31166
 N249 N -0.10843 0.82082 -0.23265
 H250 H -0.11883 0.88382 -0.35379
 N251 N 0.37714 0.73750 0.19961
 N252 N 0.35138 0.75875 0.25722
 C253 C 0.35001 0.71372 0.32857
 C254 C 0.37615 0.66466 0.31334
 N255 N 0.39227 0.68120 0.23236
 H256 H 0.38351 0.62241 0.35825
 N257 N -0.13753 1.20535 0.19782
 N258 N -0.16451 1.22031 0.25530
 C259 C -0.16074 1.18102 0.33243
 C260 C -0.12988 1.14180 0.31993
 N261 N -0.11655 1.15827 0.23555
 H262 H -0.11820 1.10459 0.36698
 N263 N 0.62243 0.26275 0.20292
 N264 N 0.64824 0.24254 0.26087
 C265 C 0.65065 0.29011 0.32898
 C266 C 0.62499 0.33964 0.31145
 N267 N 0.60818 0.32084 0.23238
 H268 H 0.61839 0.38383 0.35368
 N269 N 0.13257 0.78219 0.20320
 N270 N 0.15898 0.76519 0.26117
 C271 C 0.15940 0.81243 0.32997
 C272 C 0.13190 0.85843 0.31282
 N273 N 0.11603 0.83791 0.23325
 H274 H 0.12351 0.90128 0.35551
   
