data_POSCAR
  _audit_creation_date              2014-09-24
  _audit_creation_method            'ToBaCCo'
  _symmetry_space_group_name_H-M    'P1'
  _symmetry_Int_Tables_number       1
  _symmetry_cell_setting            triclinic
  loop_
  _symmetry_equiv_pos_as_xyz
 x,y,z
_cell_length_a 29.5412
_cell_length_b 29.0596
_cell_length_c 29.2576
_cell_angle_alpha 89.927900
_cell_angle_beta 90.158700
_cell_angle_gamma 90.523400
loop_
  _atom_site_label
  _atom_site_type_symbol
  _atom_site_fract_x
  _atom_site_fract_y
  _atom_site_fract_z
C1 C 0.33083 0.33167 1.39179
 C2 C 0.29178 0.34862 1.41287
 C3 C 0.26902 0.38729 1.39513
 C4 C 0.28695 0.40920 1.35595
 C5 C 0.32495 0.39155 1.33350
 C6 C 0.34679 0.35248 1.35138
 C7 C 0.35367 0.29366 1.41016
 C8 C 0.39142 0.27468 1.38768
 C9 C 0.40578 0.29493 1.34626
 C10 C 0.38419 0.33379 1.32844
 C11 C 0.39923 0.35384 1.28760
 C12 C 0.37707 0.39210 1.26878
 C13 C 0.34043 0.41133 1.29247
 H14 H 0.27997 0.33222 1.44395
 H15 H 0.26967 0.43805 1.34073
 H16 H 0.34048 0.27777 1.44093
 H17 H 0.43494 0.28154 1.32844
 H18 H 0.42820 0.33939 1.27030
 H19 H 0.32295 0.44064 1.27809
 C20 C 1.16808 0.66856 0.89712
 C21 C 1.20787 0.65068 0.91647
 C22 C 1.23060 0.61330 0.89610
 C23 C 1.21212 0.59469 0.85537
 C24 C 1.17261 0.61232 0.83575
 C25 C 1.15025 0.64918 0.85685
 C26 C 1.14596 0.70568 0.91760
 C27 C 1.10604 0.72445 0.89854
 C28 C 1.08833 0.70389 0.85841
 C29 C 1.11004 0.66659 0.83764
 C30 C 1.09237 0.64665 0.79760
 C31 C 1.11479 0.61009 0.77626
 C32 C 1.15493 0.59322 0.79543
 H33 H 1.22146 0.66729 0.94663
 H34 H 1.22738 0.56517 0.83928
 H35 H 1.15962 0.71904 0.94932
 H36 H 1.05866 0.71763 0.84175
 H37 H 1.06152 0.65994 0.78260
 H38 H 1.17195 0.56463 0.77931
 C39 C 0.66416 -0.16869 0.11065
 C40 C 0.70411 -0.15211 0.09008
 C41 C 0.72522 -0.11146 0.10574
 C42 C 0.70464 -0.08688 0.14144
 C43 C 0.66542 -0.10345 0.16269
 C44 C 0.64467 -0.14429 0.14704
 C45 C 0.64437 -0.21015 0.09628
 C46 C 0.60535 -0.22842 0.11789
 C47 C 0.58508 -0.20241 0.15302
 C48 C 0.60491 -0.16101 0.16825
 C49 C 0.58680 -0.13693 0.20559
 C50 C 0.60863 -0.09711 0.22227
 C51 C 0.64746 -0.08030 0.20026
 H52 H 0.71915 -0.17186 0.06297
 H53 H 0.71918 -0.05460 0.15310
 H54 H 0.65942 -0.22766 0.06752
 H55 H 0.55542 -0.21558 0.17058
 H56 H 0.55685 -0.15002 0.22274
 H57 H 0.66398 -0.04931 0.21286
 C58 C -0.16941 1.16699 -0.38461
 C59 C -0.21114 1.15166 -0.40199
 C60 C -0.23184 1.11091 -0.38551
 C61 C -0.20944 1.08570 -0.35089
 C62 C -0.16835 1.10143 -0.33209
 C63 C -0.14805 1.14190 -0.34946
 C64 C -0.14896 1.20750 -0.40133
 C65 C -0.10768 1.22319 -0.38298
 C66 C -0.08669 1.19819 -0.34806
 C67 C -0.10662 1.15775 -0.33119
 C68 C -0.08615 1.13368 -0.29549
 C69 C -0.10718 1.09477 -0.27586
 C70 C -0.14800 1.07825 -0.29512
 H71 H -0.22651 1.17099 -0.42953
 H72 H -0.22501 1.05493 -0.33677
 H73 H -0.16560 1.22734 -0.42773
 H74 H -0.05491 1.21058 -0.33383
 H75 H -0.05398 1.14607 -0.28231
 H76 H -0.16487 1.04847 -0.28050
 C77 C 0.66425 0.66802 0.60384
 C78 C 0.70400 0.65052 0.58447
 C79 C 0.72622 0.61288 0.60447
 C80 C 0.70765 0.59254 0.64393
 C81 C 0.66840 0.61007 0.66396
 C82 C 0.64638 0.64783 0.64371
 C83 C 0.64260 0.70590 0.58419
 C84 C 0.60330 0.72500 0.60388
 C85 C 0.58560 0.70386 0.64372
 C86 C 0.60682 0.66564 0.66363
 C87 C 0.58975 0.64562 0.70389
 C88 C 0.61216 0.60857 0.72467
 C89 C 0.65125 0.59081 0.70434
 H90 H 0.71823 0.66704 0.55450
 H91 H 0.72355 0.56281 0.65910
 H92 H 0.65629 0.71974 0.55274
 H93 H 0.55647 0.71789 0.66089
 H94 H 0.55984 0.65968 0.71985
 H95 H 0.66838 0.56202 0.72016
 C96 C 0.82940 0.32791 0.11026
 C97 C 0.79044 0.34547 0.08926
 C98 C 0.76928 0.38535 0.10617
 C99 C 0.78749 0.40663 0.14565
 C100 C 0.82531 0.38832 0.16808
 C101 C 0.84640 0.34893 0.15019
 C102 C 0.85176 0.28977 0.09170
 C103 C 0.89041 0.27125 0.11327
 C104 C 0.90586 0.29183 0.15415
 C105 C 0.88458 0.33058 0.17225
 C106 C 0.90134 0.35142 0.21201
 C107 C 0.88009 0.39005 0.23084
 C108 C 0.84219 0.40857 0.20838
 H109 H 0.77783 0.32906 0.05845
 H110 H 0.77122 0.43635 0.16039
 H111 H 0.83787 0.27377 0.06127
 H112 H 0.93583 0.27898 0.17119
 H113 H 0.93148 0.33781 0.22791
 H114 H 0.82531 0.43819 0.22265
 C115 C 0.33412 0.16711 0.89116
 C116 C 0.29461 0.15055 0.91222
 C117 C 0.27251 0.11028 0.89633
 C118 C 0.29123 0.08677 0.85873
 C119 C 0.32984 0.10379 0.83633
 C120 C 0.35140 0.14404 0.85269
 C121 C 0.35646 0.20669 0.90765
 C122 C 0.39507 0.22402 0.88529
 C123 C 0.41145 0.20147 0.84649
 C124 C 0.39005 0.16152 0.83026
 C125 C 0.40648 0.13918 0.79153
 C126 C 0.38423 0.10019 0.77375
 C127 C 0.34637 0.08207 0.79688
 H128 H 0.28203 0.16847 0.94197
 H129 H 0.27430 0.05683 0.84472
 H130 H 0.34351 0.22448 0.93735
 H131 H 0.44123 0.21488 0.82923
 H132 H 0.43671 0.15237 0.77512
 H133 H 0.32891 0.05207 0.78336
 C134 C 0.16442 0.83025 0.39416
 C135 C 0.20549 0.84544 0.41340
 C136 C 0.22794 0.88443 0.39589
 C137 C 0.20787 0.90931 0.36010
 C138 C 0.16684 0.89459 0.34075
 C139 C 0.14484 0.85494 0.35784
 C140 C 0.14390 0.78951 0.40935
 C141 C 0.10423 0.77192 0.38833
 C142 C 0.08354 0.79846 0.35366
 C143 C 0.10398 0.83935 0.33780
 C144 C 0.08557 0.86367 0.30064
 C145 C 0.10824 0.90248 0.28281
 C146 C 0.14849 0.91796 0.30337
 H147 H 0.22108 0.82569 0.44059
 H148 H 0.22453 0.93985 0.34674
 H149 H 0.15923 0.77174 0.43793
 H150 H 0.05322 0.78594 0.33670
 H151 H 0.05476 0.85136 0.28437
 H152 H 0.16587 0.94799 0.28972
 Zn153 Zn 0.05564 0.97366 0.01577
 Zn154 Zn -0.03463 0.96134 -0.03122
 Zn155 Zn -0.02659 1.01108 0.05862
 Zn156 Zn 0.01003 1.05459 -0.02464
 O157 O 0.00099 0.99995 0.00441
 O158 O 0.05917 0.91803 -0.00856
 O159 O -0.08780 0.94651 -0.00372
 O160 O 0.00448 0.99151 0.10692
 O161 O -0.00666 0.90752 -0.04358
 O162 O 0.06725 0.96585 0.07552
 O163 O -0.07960 0.98305 0.06216
 O164 O -0.01292 1.10288 0.00490
 O165 O -0.04901 0.98673 -0.08600
 O166 O -0.03769 1.07060 0.06861
 O167 O -0.01571 1.05494 -0.07924
 O168 O 0.06855 1.06759 -0.03465
 O169 O 0.10227 1.00556 -0.00750
 C170 C 0.03245 0.89332 -0.03227
 C171 C -0.10254 0.95753 0.03557
 C172 C 0.04318 0.97348 0.11051
 C173 C -0.03161 1.10581 0.04371
 C174 C -0.03905 1.02622 -0.10210
 C175 C 0.10398 1.04431 -0.02741
 Zn176 Zn 0.47233 0.01242 0.44319
 Zn177 Zn 0.46441 -0.03699 0.53326
 Zn178 Zn 0.55509 -0.02328 0.48840
 Zn179 Zn 0.50690 0.05686 0.52696
 O180 O 0.49960 0.00204 0.49806
 O181 O 0.42051 -0.01835 0.43782
 O182 O 0.49335 -0.08947 0.54787
 O183 O 0.56825 -0.03042 0.42875
 O184 O 0.41372 -0.05519 0.50379
 O185 O 0.50517 -0.00632 0.39614
 O186 O 0.55884 -0.07924 0.51255
 O187 O 0.56455 0.06951 0.54143
 O188 O 0.44616 -0.01098 0.58620
 O189 O 0.60046 0.00881 0.51449
 O190 O 0.47705 0.05833 0.57913
 O191 O 0.48602 0.10477 0.49538
 O192 O 0.46013 0.07185 0.43238
 C193 C 0.39925 -0.04580 0.46393
 C194 C 0.53231 -0.10375 0.53661
 C195 C 0.54429 -0.02352 0.39331
 C196 C 0.60057 0.04674 0.53596
 C197 C 0.45309 0.02955 0.60112
 C198 C 0.46703 0.10740 0.45660
 Zn199 Zn 1.00738 0.44192 0.47735
 Zn200 Zn 1.05477 0.52531 0.51163
 Zn201 Zn 0.96385 0.53456 0.46630
 Zn202 Zn 0.97280 0.49058 0.55894
 O203 O 0.99955 0.49822 0.50339
 O204 O 1.06546 0.42911 0.46525
 O205 O 1.05939 0.57773 0.48124
 O206 O 0.94571 0.50475 0.41527
 O207 O 1.10051 0.49176 0.49039
 O208 O 0.97782 0.43680 0.42460
 O209 O 0.99310 0.58606 0.44692
 O210 O 0.92029 0.51935 0.56214
 O211 O 1.06731 0.53882 0.57020
 O212 O 0.91259 0.55275 0.49452
 O213 O 1.00556 0.51362 0.60505
 O214 O 0.96094 0.43149 0.57278
 O215 O 0.98650 0.39572 0.51159
 C216 C 1.10136 0.45261 0.47139
 C217 C 1.03326 0.60000 0.45506
 C218 C 0.95330 0.46404 0.40165
 C219 C 0.89805 0.54411 0.53453
 C220 C 1.04409 0.53317 0.60625
 C221 C 0.96764 0.39478 0.55043
 Zn222 Zn 0.47466 0.49028 0.94400
 Zn223 Zn 0.55548 0.52678 0.99203
 Zn224 Zn 0.46453 0.53521 1.03618
 Zn225 Zn 0.50953 0.44302 1.02694
 O226 O 0.50084 0.49890 0.99994
 O227 O 0.50707 0.51402 0.89787
 O228 O 0.55977 0.57885 1.02282
 O229 O 0.41374 0.55324 1.00660
 O230 O 0.56780 0.54071 0.93370
 O231 O 0.42134 0.51758 0.94022
 O232 O 0.49346 0.58662 1.05677
 O233 O 0.47875 0.43751 1.07885
 O234 O 0.60157 0.49363 1.01283
 O235 O 0.44479 0.50475 1.08627
 O236 O 0.56794 0.43090 1.03955
 O237 O 0.48951 0.39632 0.99290
 O238 O 0.46434 0.43076 0.93057
 C239 C 0.54518 0.53445 0.89728
 C240 C 0.53366 0.60070 1.04914
 C241 C 0.39893 0.54298 0.96697
 C242 C 0.45229 0.46404 1.10018
 C243 C 0.60343 0.45471 1.03225
 C244 C 0.47117 0.39450 0.95374
 C245 C 1.21493 0.44880 0.41408
 C246 C 1.22837 0.40270 0.41527
 C247 C 1.19738 0.37206 0.43742
 C248 C 1.15576 0.38785 0.45569
 C249 C 1.14469 0.43503 0.45449
 C250 C 1.17629 0.46403 0.43403
 C251 C 1.18504 0.51312 0.42266
 C252 C 1.22917 0.49645 0.40061
 H253 H 1.20377 0.33548 0.43877
 H254 H 1.13249 0.36323 0.47084
 H255 H 1.19055 0.53453 0.45367
 H256 H 1.16009 0.52673 0.39767
 H257 H 1.26014 0.50811 0.41907
 H258 H 1.22963 0.50178 0.36301
 C259 C 0.29884 0.56558 0.88992
 C260 C 0.27051 0.59425 0.91568
 C261 C 0.28347 0.60134 0.96206
 C262 C 0.32471 0.58419 0.97944
 C263 C 0.35435 0.55953 0.95115
 C264 C 0.33928 0.54893 0.90708
 C265 C 0.36317 0.55460 0.86258
 C266 C 0.31910 0.57301 0.84355
 H267 H 0.26219 0.61987 0.98554
 H268 H 0.33380 0.59126 1.01464
 H269 H 0.37291 0.52101 0.84754
 H270 H 0.39070 0.58091 0.86406
 H271 H 0.30392 0.55004 0.81720
 H272 H 0.32102 0.61001 0.83390
 C273 C -0.22009 0.90295 0.03980
 C274 C -0.23093 0.90562 0.08657
 C275 C -0.19997 0.92943 0.11505
 C276 C -0.15924 0.94728 0.09792
 C277 C -0.14725 0.94129 0.05176
 C278 C -0.17935 0.92066 0.02289
 C279 C -0.17384 0.88256 -0.01047
 C280 C -0.21765 0.86248 0.00824
 H281 H -0.20611 0.93286 0.15132
 H282 H -0.13621 0.96403 0.12163
 H283 H -0.14375 0.86103 -0.00311
 H284 H -0.17685 0.89469 -0.04639
 H285 H -0.21223 0.82937 0.02647
 H286 H -0.24564 0.86216 -0.01723
 C287 C 0.71224 0.04947 0.59920
 C288 C 0.72544 0.09604 0.59759
 C289 C 0.69325 0.12721 0.57950
 C290 C 0.65221 0.11135 0.56022
 C291 C 0.64281 0.06393 0.55693
 C292 C 0.67245 0.03388 0.57888
 C293 C 0.69362 -0.00936 0.56236
 C294 C 0.73730 0.00753 0.58449
 H295 H 0.69918 0.16398 0.58041
 H296 H 0.62873 0.13612 0.54625
 H297 H 0.69548 -0.01120 0.52445
 H298 H 0.67911 -0.04033 0.57936
 H299 H 0.76453 0.01549 0.55944
 H300 H 0.74792 -0.01397 0.61401
 C301 C 0.43825 0.20585 0.37742
 C302 C 0.41448 0.23620 0.40586
 C303 C 0.41542 0.22646 0.45337
 C304 C 0.43488 0.18566 0.47015
 C305 C 0.45247 0.15273 0.43991
 C306 C 0.45587 0.16492 0.39386
 C307 C 0.44336 0.13893 0.35174
 C308 C 0.42401 0.18363 0.33348
 H309 H 0.40099 0.24997 0.47787
 H310 H 0.43354 0.17863 0.50650
 H311 H 0.41710 0.11201 0.35797
 H312 H 0.47362 0.12726 0.33263
 H313 H 0.38661 0.18256 0.32905
 H314 H 0.44310 0.19748 0.30372
 C315 C 0.93270 0.26965 0.55750
 C316 C 0.91366 0.26626 0.60105
 C317 C 0.91991 0.30371 0.63108
 C318 C 0.93897 0.34543 0.61533
 C319 C 0.95306 0.35003 0.56950
 C320 C 0.95209 0.31044 0.54222
 C321 C 0.93496 0.30338 0.49468
 C322 C 0.91361 0.25864 0.51145
 H323 H 0.90805 0.30141 0.66601
 H324 H 0.94097 0.37445 0.63845
 H325 H 0.96290 0.29802 0.46994
 H326 H 0.90971 0.32961 0.48440
 H327 H 0.92926 0.22756 0.49631
 H328 H 0.87603 0.25914 0.51043
 C329 C 0.10884 0.79138 -0.04982
 C330 C 0.08496 0.76304 -0.08070
 C331 C 0.03922 0.77540 -0.08943
 C332 C 0.02109 0.81682 -0.07242
 C333 C 0.04801 0.84720 -0.04627
 C334 C 0.09100 0.83208 -0.03341
 C335 C 0.13549 0.85668 -0.03525
 C336 C 0.15525 0.81234 -0.05337
 H337 H 0.01703 0.75377 -0.10966
 H338 H -0.01330 0.82584 -0.08137
 H339 H 0.14821 0.86597 -0.00064
 H340 H 0.13596 0.88517 -0.06066
 H341 H 0.17970 0.79656 -0.02918
 H342 H 0.16721 0.81507 -0.08929
 C343 C 0.54313 0.71378 1.11407
 C344 C 0.58831 0.72738 1.10585
 C345 C 0.61661 0.69378 1.08606
 C346 C 0.59885 0.65213 1.06946
 C347 C 0.55213 0.64225 1.07192
 C348 C 0.52548 0.67241 1.09731
 C349 C 0.48098 0.69328 1.08588
 C350 C 0.50002 0.73849 1.10405
 H351 H 0.65272 0.69922 1.08283
 H352 H 0.62176 0.62845 1.05307
 H353 H 0.45314 0.67895 1.10721
 H354 H 0.47411 0.69385 1.04849
 H355 H 0.48289 0.75016 1.13571
 H356 H 0.50416 0.76534 1.07723
 C357 C 0.38878 0.45723 1.21257
 C358 C 0.39088 0.41025 1.22333
 C359 C 0.40647 0.38043 1.18886
 C360 C 0.42529 0.39801 1.14832
 C361 C 0.42853 0.44588 1.14083
 C362 C 0.40704 0.47463 1.17223
 C363 C 0.42406 0.51717 1.19535
 C364 C 0.40406 0.49813 1.23944
 H365 H 0.40582 0.34351 1.19382
 H366 H 0.43878 0.37405 1.12363
 H367 H 0.40660 0.54850 1.18286
 H368 H 0.46165 0.51954 1.19587
 H369 H 0.37510 0.51852 1.25226
 H370 H 0.43003 0.48944 1.26557
 C371 C 0.62256 -0.06130 0.29868
 C372 C 0.59236 -0.07343 0.26364
 C373 C 0.54664 -0.06140 0.26898
 C374 C 0.53138 -0.04252 0.31047
 C375 C 0.56139 -0.03633 0.34775
 C376 C 0.60742 -0.04378 0.33989
 C377 C 0.64150 -0.07023 0.36672
 C378 C 0.65822 -0.08930 0.32148
 H379 H 0.52250 -0.06814 0.24183
 H380 H 0.49562 -0.03566 0.31424
 H381 H 0.62578 -0.09685 0.38910
 H382 H 0.66662 -0.04729 0.38384
 H383 H 0.65227 -0.12694 0.31765
 H384 H 0.69288 -0.07721 0.31250
 C385 C -0.05980 1.10083 -0.20507
 C386 C -0.08690 1.07381 -0.23401
 C387 C -0.09334 1.02713 -0.22134
 C388 C -0.07703 1.01048 -0.17886
 C389 C -0.05390 1.04016 -0.14836
 C390 C -0.04376 1.08456 -0.16382
 C391 C -0.04990 1.12993 -0.14081
 C392 C -0.06761 1.14785 -0.18615
 H393 H -0.11191 1.00378 -0.24339
 H394 H -0.08392 0.97510 -0.16933
 H395 H -0.01706 1.14585 -0.13055
 H396 H -0.07607 1.12871 -0.11356
 H397 H -0.04497 1.17422 -0.20178
 H398 H -0.10408 1.15696 -0.18531
 C399 C 1.12328 0.58043 0.69625
 C400 C 1.09623 0.58917 0.73410
 C401 C 1.04993 0.57677 0.72970
 C402 C 1.03290 0.55729 0.68849
 C403 C 1.06157 0.55049 0.65029
 C404 C 1.10681 0.56274 0.65651
 C405 C 1.15096 0.56741 0.63245
 C406 C 1.16961 0.58764 0.67746
 H407 H 1.02697 0.58201 0.75797
 H408 H 0.99722 0.54866 0.68628
 H409 H 1.14963 0.59286 0.60409
 H410 H 1.16553 0.53347 0.62350
 H411 H 1.17884 0.62472 0.67495
 H412 H 1.19511 0.56545 0.69440
 C413 C 0.80332 0.57763 0.61281
 C414 C 0.76927 0.59547 0.58504
 C415 C 0.77891 0.59623 0.53740
 C416 C 0.82098 0.58008 0.52021
 C417 C 0.85443 0.56259 0.55016
 C418 C 0.84333 0.56233 0.59631
 C419 C 0.86256 0.55301 0.64241
 C420 C 0.81735 0.57047 0.66137
 H421 H 0.75402 0.60873 0.51332
 H422 H 0.82698 0.58092 0.48373
 H423 H 0.89182 0.57594 0.65050
 H424 H 0.86813 0.51571 0.64840
 H425 H 0.82063 0.60342 0.68039
 H426 H 0.79739 0.54306 0.67880
 C427 C 0.70112 0.37540 1.05836
 C428 C 0.73092 0.40364 1.08364
 C429 C 0.72077 0.45121 1.08490
 C430 C 0.68023 0.46803 1.06608
 C431 C 0.64793 0.43772 1.04698
 C432 C 0.66038 0.39183 1.04136
 C433 C 0.63547 0.34838 1.05219
 C434 C 0.67993 0.33013 1.07082
 H435 H 0.74382 0.47573 1.10053
 H436 H 0.67299 0.50439 1.06897
 H437 H 0.62376 0.33022 1.02085
 H438 H 0.60928 0.35299 1.07898
 H439 H 0.69365 0.30135 1.05023
 H440 H 0.67947 0.32405 1.10835
 C441 C 0.21887 1.04818 -0.08209
 C442 C 0.23178 1.09470 -0.08327
 C443 C 0.20017 1.12551 -0.06326
 C444 C 0.15842 1.10946 -0.04491
 C445 C 0.14774 1.06198 -0.04391
 C446 C 0.18002 1.03285 -0.06206
 C447 C 0.18919 0.98354 -0.07103
 C448 C 0.23358 1.00032 -0.09311
 H449 H 0.20615 1.16229 -0.06379
 H450 H 0.13464 1.13417 -0.03158
 H451 H 0.16474 0.96826 -0.09579
 H452 H 0.19429 0.96362 -0.03900
 H453 H 0.23467 0.99330 -0.13040
 H454 H 0.26432 0.99025 -0.07365
 C455 C 0.28626 -0.10816 0.45858
 C456 C 0.27374 -0.10271 0.41265
 C457 C 0.30693 -0.08549 0.38242
 C458 C 0.34835 -0.06829 0.39907
 C459 C 0.35784 -0.06829 0.44633
 C460 C 0.32738 -0.09141 0.47505
 C461 C 0.30683 -0.07645 0.51908
 C462 C 0.26183 -0.09483 0.50105
 H463 H 0.30038 -0.08368 0.34604
 H464 H 0.37214 -0.05340 0.37501
 H465 H 0.30755 -0.03844 0.52344
 H466 H 0.31996 -0.09637 0.54866
 H467 H 0.23640 -0.06750 0.49492
 H468 H 0.24912 -0.12532 0.52024
 C469 C 0.60717 -0.20707 0.55345
 C470 C 0.58296 -0.23543 0.58403
 C471 C 0.53766 -0.22216 0.59325
 C472 C 0.52027 -0.18012 0.57680
 C473 C 0.54752 -0.14998 0.55078
 C474 C 0.59003 -0.16578 0.53757
 C475 C 0.63495 -0.14207 0.53970
 C476 C 0.65398 -0.18707 0.55723
 H477 H 0.51522 -0.24360 0.61335
 H478 H 0.48613 -0.17056 0.58594
 H479 H 0.63602 -0.11403 0.56550
 H480 H 0.64766 -0.13246 0.50522
 H481 H 0.66619 -0.18514 0.59318
 H482 H 0.67799 -0.20293 0.53282
 C483 C 1.04191 0.71433 0.39220
 C484 C 1.08723 0.72767 0.40016
 C485 C 1.11582 0.69361 0.41904
 C486 C 1.09828 0.65166 0.43508
 C487 C 1.05154 0.64192 0.43291
 C488 C 1.02451 0.67265 0.40840
 C489 C 0.98024 0.69335 0.42078
 C490 C 0.99905 0.73890 0.40322
 H491 H 1.15199 0.69889 0.42190
 H492 H 1.12139 0.62755 0.45076
 H493 H 0.97404 0.69313 0.45825
 H494 H 0.95200 0.67951 0.39954
 H495 H 1.00371 0.76517 0.43047
 H496 H 0.98138 0.75127 0.37200
 C497 C -0.06059 1.20390 0.12251
 C498 C -0.08635 1.23323 0.09460
 C499 C -0.08675 1.22321 0.04714
 C500 C -0.06644 1.18301 0.03007
 C501 C -0.04665 1.15099 0.06005
 C502 C -0.04215 1.16358 0.10587
 C503 C -0.05222 1.13745 0.14857
 C504 C -0.07247 1.18152 0.16706
 H505 H -0.10283 1.24603 0.02292
 H506 H -0.06884 1.17561 -0.00614
 H507 H -0.02089 1.12701 0.16682
 H508 H -0.07776 1.10957 0.14342
 H509 H -0.05282 1.19624 0.19611
 H510 H -0.10964 1.17914 0.17265
 C511 C 0.43046 0.30151 0.87258
 C512 C 0.41885 0.26553 0.90227
 C513 C 0.43193 0.26967 0.94841
 C514 C 0.45139 0.31094 0.96475
 C515 C 0.45718 0.34923 0.93546
 C516 C 0.44856 0.34257 0.88885
 C517 C 0.42200 0.37055 0.85559
 C518 C 0.40228 0.32550 0.83767
 H519 H 0.42568 0.24166 0.97208
 H520 H 0.45916 0.31373 1.00084
 H521 H 0.44412 0.38846 0.83043
 H522 H 0.39648 0.39266 0.87248
 H523 H 0.41316 0.31744 0.80226
 H524 H 0.36536 0.32152 0.84410
 C525 C 0.55079 0.57749 0.77581
 C526 C 0.59596 0.58928 0.76850
 C527 C 0.62577 0.58161 0.80576
 C528 C 0.60956 0.56363 0.84789
 C529 C 0.56324 0.55189 0.85358
 C530 C 0.53549 0.55919 0.81576
 C531 C 0.48776 0.55617 0.79948
 C532 C 0.50517 0.57650 0.75405
 H533 H 0.66136 0.59026 0.80266
 H534 H 0.63325 0.55890 0.87577
 H535 H 0.46519 0.57973 0.81851
 H536 H 0.47554 0.52000 0.79659
 H537 H 0.49221 0.61156 0.74684
 H538 H 0.50329 0.55195 0.72499
 C539 C 0.41553 0.10819 0.69469
 C540 C 0.39982 0.08015 0.73000
 C541 C 0.40028 0.03205 0.72119
 C542 C 0.41685 0.01457 0.67891
 C543 C 0.43326 0.04485 0.64460
 C544 C 0.43110 0.09150 0.65459
 C545 C 0.43988 0.13792 0.63478
 C546 C 0.42207 0.15710 0.68020
 H547 H 0.38884 0.00798 0.74704
 H548 H 0.41753 -0.02228 0.67355
 H549 H 0.41754 0.14527 0.60507
 H550 H 0.47656 0.14468 0.62924
 H551 H 0.38944 0.17553 0.67670
 H552 H 0.44865 0.17545 0.70019
 C553 C 0.12161 0.93754 0.20602
 C554 C 0.09166 0.92594 0.24127
 C555 C 0.04581 0.93761 0.23558
 C556 C 0.03026 0.95556 0.19364
 C557 C 0.06012 0.96111 0.15633
 C558 C 0.10622 0.95415 0.16446
 C559 C 0.14044 0.92750 0.13826
 C560 C 0.15744 0.90941 0.18392
 H561 H 0.02179 0.93124 0.26282
 H562 H -0.00554 0.96222 0.18961
 H563 H 0.16532 0.95033 0.12073
 H564 H 0.12487 0.90034 0.11639
 H565 H 0.19203 0.92194 0.19274
 H566 H 0.15178 0.87180 0.18851
 C567 C 0.91600 0.38315 0.30853
 C568 C 0.89761 0.41042 0.27403
 C569 C 0.89744 0.45852 0.28289
 C570 C 0.91512 0.47670 0.32457
 C571 C 0.93353 0.44726 0.35837
 C572 C 0.93277 0.40057 0.34817
 C573 C 0.94260 0.35455 0.36799
 C574 C 0.92362 0.33456 0.32313
 H575 H 0.88440 0.48217 0.25759
 H576 H 0.91478 0.51355 0.32997
 H577 H 0.92115 0.34675 0.39820
 H578 H 0.97948 0.34889 0.37272
 H579 H 0.89135 0.31512 0.32763
 H580 H 0.94976 0.31694 0.30249
   
