data_POSCAR
  _audit_creation_date              2014-09-24
  _audit_creation_method            'ToBaCCo'
  _symmetry_space_group_name_H-M    'P1'
  _symmetry_Int_Tables_number       1
  _symmetry_cell_setting            triclinic
  loop_
  _symmetry_equiv_pos_as_xyz
 x,y,z
_cell_length_a 42.8136
_cell_length_b 42.9023
_cell_length_c 42.8095
_cell_angle_alpha 103.736500
_cell_angle_beta 71.000100
_cell_angle_gamma 76.351200
loop_
  _atom_site_label
  _atom_site_type_symbol
  _atom_site_fract_x
  _atom_site_fract_y
  _atom_site_fract_z
C1 C 0.50749 0.49399 0.00039
 C2 C 0.48353 0.51909 -0.00252
 C3 C 0.45084 0.51527 -0.00542
 C4 C 0.48823 0.55235 -0.00203
 C5 C 0.54056 0.49767 0.00236
 C6 C 0.50201 0.46149 0.00233
 C7 C 0.45171 0.48771 -0.03135
 C8 C 0.42064 0.48519 -0.03412
 C9 C 0.38750 0.51068 -0.01138
 C10 C 0.38746 0.53830 0.01464
 C11 C 0.41849 0.54048 0.01741
 C12 C 0.48998 0.56305 -0.03087
 C13 C 0.49320 0.59478 -0.03037
 C14 C 0.49411 0.61662 -0.00074
 C15 C 0.49222 0.60591 0.02821
 C16 C 0.48940 0.57396 0.02753
 C17 C 0.54925 0.49161 0.02980
 C18 C 0.58100 0.49306 0.03120
 C19 C 0.60477 0.50062 0.00516
 C20 C 0.59598 0.50700 -0.02219
 C21 C 0.56429 0.50522 -0.02376
 C22 C 0.47271 0.46113 0.02915
 C23 C 0.46957 0.43012 0.03213
 C24 C 0.49587 0.39900 0.00854
 C25 C 0.52481 0.39956 -0.01861
 C26 C 0.52790 0.43047 -0.02156
 H27 H 0.47658 0.46839 -0.04996
 H28 H 0.42353 0.46404 -0.05569
 H29 H 0.36348 0.55785 0.03447
 H30 H 0.41715 0.56186 0.03789
 H31 H 0.48882 0.54677 -0.05376
 H32 H 0.49414 0.60261 -0.05282
 H33 H 0.48765 0.56624 0.05019
 H34 H 0.53140 0.48563 0.05014
 H35 H 0.58694 0.48838 0.05275
 H36 H 0.61405 0.51243 -0.04285
 H37 H 0.55856 0.50914 -0.04566
 H38 H 0.45277 0.48485 0.04824
 H39 H 0.44719 0.43050 0.05354
 H40 H 0.54520 0.37603 -0.03753
 H41 H 0.55073 0.43025 -0.04237
 H42 H 0.49299 0.62224 0.05131
 C43 C 0.00058 0.50526 0.50720
 C44 C -0.00300 0.48054 0.48339
 C45 C -0.00221 0.44705 0.48758
 C46 C -0.00725 0.48518 0.45152
 C47 C 0.00228 0.53793 0.50201
 C48 C 0.00337 0.50108 0.53982
 C49 C 0.02764 0.42524 0.48802
 C50 C 0.02846 0.39319 0.49061
 C51 C -0.00064 0.38257 0.49298
 C52 C -0.03053 0.40460 0.49273
 C53 C -0.03117 0.43643 0.48975
 C54 C 0.01537 0.46075 0.41841
 C55 C 0.01123 0.46389 0.38817
 C56 C -0.01578 0.49145 0.39037
 C57 C -0.03840 0.51603 0.42356
 C58 C -0.03431 0.51280 0.45391
 C59 C -0.02117 0.56883 0.52842
 C60 C -0.01841 0.59984 0.52545
 C61 C 0.00812 0.60060 0.49611
 C62 C 0.03127 0.56960 0.46933
 C63 C 0.02847 0.53849 0.47233
 C64 C -0.02236 0.49332 0.56373
 C65 C -0.02015 0.49128 0.59512
 C66 C 0.00747 0.49759 0.60342
 C67 C 0.03317 0.50530 0.57943
 C68 C 0.03113 0.50702 0.54797
 H69 H 0.05039 0.43289 0.48594
 H70 H 0.05176 0.37672 0.49087
 H71 H -0.05311 0.39685 0.49406
 H72 H -0.05431 0.45286 0.48917
 H73 H 0.03639 0.43925 0.41597
 H74 H 0.02940 0.44482 0.36296
 H75 H -0.05252 0.53157 0.47927
 H76 H -0.04150 0.56889 0.55153
 H77 H -0.03700 0.62328 0.54622
 H78 H 0.05221 0.56935 0.44662
 H79 H 0.04723 0.51486 0.45198
 H80 H -0.04450 0.48950 0.55843
 H81 H -0.04057 0.48574 0.61338
 H82 H 0.05492 0.50994 0.58499
 H83 H 0.05119 0.51317 0.52997
 H84 H -0.05971 0.53730 0.42611
 C85 C 0.51681 0.00119 0.49056
 C86 C 0.49058 -0.00192 0.51677
 C87 C 0.49242 -0.00192 0.55090
 C88 C 0.45829 -0.00548 0.51268
 C89 C 0.51272 0.00476 0.45828
 C90 C 0.55093 0.00120 0.49241
 C91 C 0.48443 -0.02710 0.56444
 C92 C 0.48450 -0.02687 0.59706
 C93 C 0.49276 -0.00142 0.61723
 C94 C 0.50096 0.02377 0.60321
 C95 C 0.50031 0.02374 0.57075
 C96 C 0.46028 -0.03194 0.48471
 C97 C 0.42963 -0.03543 0.48170
 C98 C 0.39645 -0.01277 0.50686
 C99 C 0.39462 0.01360 0.53488
 C100 C 0.42523 0.01711 0.53781
 C101 C 0.48479 0.03124 0.46030
 C102 C 0.48181 0.03476 0.42966
 C103 C 0.50694 0.01211 0.39645
 C104 C 0.53491 -0.01428 0.39458
 C105 C 0.53782 -0.01782 0.42519
 C106 C 0.56450 0.02636 0.48443
 C107 C 0.59712 0.02613 0.48449
 C108 C 0.61727 0.00069 0.49273
 C109 C 0.60320 -0.02449 0.50092
 C110 C 0.57074 -0.02445 0.50029
 H111 H 0.47832 -0.04722 0.54955
 H112 H 0.47934 -0.04764 0.60555
 H113 H 0.50619 0.04469 0.61788
 H114 H 0.50547 0.04409 0.56137
 H115 H 0.48555 -0.05007 0.46544
 H116 H 0.43185 -0.05628 0.46013
 H117 H 0.42318 0.03763 0.55961
 H118 H 0.46555 0.04936 0.48560
 H119 H 0.46027 0.05562 0.43191
 H120 H 0.55442 -0.03239 0.36941
 H121 H 0.55960 -0.03835 0.42310
 H122 H 0.54964 0.04648 0.47834
 H123 H 0.60564 0.04689 0.47932
 H124 H 0.61785 -0.04541 0.50614
 H125 H 0.56134 -0.04480 0.50544
 H126 H 0.36948 0.03171 0.55441
 O127 O 0.46326 0.01332 -0.02219
 O128 O 0.46321 0.02529 0.06607
 O129 O 0.46209 0.06340 0.02684
 O130 O 0.46364 -0.02452 0.01759
 O131 O 0.52159 -0.04313 -0.00668
 O132 O 0.52005 0.04508 0.00412
 O133 O 0.52117 0.00634 0.04241
 O134 O 0.52120 -0.00418 -0.04527
 Cu135 Cu 0.45723 0.02118 0.02437
 Cu136 Cu 0.52680 -0.00089 -0.00372
 C137 C 0.49229 0.00306 -0.04876
 C138 C 0.49229 0.01758 0.06926
 C139 C 0.49082 0.06930 0.01702
 C140 C 0.49284 -0.04884 0.00413
 O141 O -0.05627 0.52930 1.01408
 O142 O 0.03336 0.52829 1.00013
 O143 O -0.00319 0.52746 0.96182
 O144 O -0.01963 0.52948 1.05253
 O145 O -0.00047 0.47319 1.03368
 O146 O 0.01543 0.47118 0.94338
 O147 O 0.05267 0.47201 0.98126
 O148 O -0.03746 0.47302 0.99583
 Cu149 Cu -0.01330 0.53427 1.00906
 Cu150 Cu 0.00952 0.46671 0.98671
 C151 C -0.06218 0.50137 1.00692
 C152 C 0.05836 0.50009 0.98848
 C153 C 0.00838 0.49894 0.93718
 C154 C -0.01264 0.50159 1.05856
 O155 O 0.02676 -0.06401 0.46197
 O156 O 0.01770 0.02381 0.46331
 O157 O 0.06607 -0.02592 0.46301
 O158 O -0.02215 -0.01400 0.46305
 O159 O -0.04525 0.00366 0.52102
 O160 O 0.04241 -0.00681 0.52100
 O161 O -0.00657 0.04259 0.52130
 O162 O 0.00404 -0.04553 0.51996
 Cu163 Cu 0.02439 -0.02185 0.45701
 Cu164 Cu -0.00371 0.00041 0.52662
 C165 C 0.01690 -0.06982 0.49074
 C166 C 0.00427 0.04820 0.49249
 C167 C 0.06925 -0.01812 0.49210
 C168 C -0.04873 -0.00366 0.49210
 C169 C -0.29615 0.50184 1.00889
 C170 C -0.31629 0.52775 1.00139
 C171 C -0.34833 0.52726 0.99989
 C172 C -0.36106 0.50106 1.00623
 C173 C -0.34099 0.47520 1.01376
 C174 C -0.30884 0.47551 1.01494
 C175 C -0.26208 0.50216 1.01030
 N176 N -0.23994 0.47454 1.01169
 N177 N -0.20919 0.47468 1.01266
 C178 C -0.19932 0.50251 1.01246
 N179 N -0.22152 0.53018 1.01121
 N180 N -0.25222 0.53000 1.01011
 C181 C -0.16480 0.50245 1.01283
 C182 C -0.15685 0.53275 1.01787
 C183 C -0.12384 0.53250 1.01687
 C184 C -0.09791 0.50191 1.01052
 C185 C -0.10602 0.47171 1.00606
 C186 C -0.13915 0.47200 1.00736
 H187 H -0.30725 0.54837 0.99651
 H188 H -0.36342 0.54763 0.99429
 H189 H -0.35000 0.45448 1.01835
 H190 H -0.29403 0.45516 1.02078
 H191 H -0.17604 0.55668 1.02234
 H192 H -0.11842 0.55622 1.02035
 H193 H -0.08662 0.44773 1.00117
 H194 H -0.14440 0.44820 1.00338
 C195 C 0.29264 0.50562 0.98083
 C196 C 0.29510 0.53673 0.99742
 C197 C 0.32639 0.53842 0.99988
 C198 C 0.35688 0.50893 0.98567
 C199 C 0.35411 0.47773 0.96836
 C200 C 0.32253 0.47616 0.96622
 C201 C 0.25885 0.50416 0.97931
 N202 N 0.25468 0.47385 0.96691
 N203 N 0.22391 0.47281 0.96654
 C204 C 0.19606 0.50202 0.97850
 N205 N 0.20035 0.53227 0.99066
 N206 N 0.23104 0.53331 0.99108
 C207 C 0.16137 0.50114 0.97926
 C208 C 0.13333 0.53174 0.99050
 C209 C 0.10017 0.53128 0.99285
 C210 C 0.09413 0.50020 0.98406
 C211 C 0.12227 0.46952 0.97217
 C212 C 0.15556 0.46999 0.96977
 H213 H 0.27272 0.56011 1.00863
 H214 H 0.32644 0.56364 1.01160
 H215 H 0.37544 0.45373 0.95794
 H216 H 0.32151 0.45166 0.95335
 H217 H 0.13682 0.55622 0.99790
 H218 H 0.07911 0.55538 1.00203
 H219 H 0.11848 0.44515 0.96517
 H220 H 0.17657 0.44594 0.96097
 C221 C 0.01817 -0.30271 0.49161
 C222 C 0.02294 -0.32819 0.46117
 C223 C 0.01996 -0.35970 0.46246
 C224 C 0.01209 -0.36636 0.49421
 C225 C 0.00783 -0.34106 0.52447
 C226 C 0.01079 -0.30964 0.52321
 C227 C 0.02021 -0.26886 0.49078
 N228 N 0.01338 -0.24375 0.52078
 N229 N 0.01435 -0.21306 0.52039
 C230 C 0.02225 -0.20611 0.48998
 N231 N 0.02928 -0.23126 0.45991
 N232 N 0.02826 -0.26199 0.46030
 C233 C 0.02229 -0.17157 0.48989
 C234 C 0.03190 -0.16460 0.45829
 C235 C 0.03072 -0.13170 0.45848
 C236 C 0.01979 -0.10501 0.49029
 C237 C 0.01067 -0.11208 0.52182
 C238 C 0.01197 -0.14497 0.52162
 H239 H 0.02861 -0.32370 0.43639
 H240 H 0.02313 -0.37860 0.43876
 H241 H 0.00244 -0.34565 0.54919
 H242 H 0.00718 -0.29076 0.54712
 H243 H 0.04006 -0.18449 0.43337
 H244 H 0.03791 -0.12709 0.43373
 H245 H 0.00221 -0.09211 0.54677
 H246 H 0.00442 -0.14938 0.54647
 C247 C 0.00113 0.28254 0.49583
 C248 C 0.03008 0.28680 0.47209
 C249 C 0.02979 0.31934 0.47169
 C250 C 0.00040 0.34828 0.49473
 C251 C -0.02843 0.34412 0.51868
 C252 C -0.02799 0.31161 0.51938
 C253 C 0.00109 0.24795 0.49558
 N254 N -0.02309 0.24366 0.52249
 N255 N -0.02325 0.21253 0.52203
 C256 C 0.00061 0.18440 0.49454
 N257 N 0.02473 0.18872 0.46762
 N258 N 0.02501 0.21982 0.46816
 C259 C 0.00054 0.14974 0.49391
 C260 C 0.01988 0.12159 0.46263
 C261 C 0.02045 0.08876 0.46207
 C262 C 0.00201 0.08326 0.49285
 C263 C -0.01756 0.11141 0.52410
 C264 C -0.01846 0.14433 0.52457
 H265 H 0.05298 0.26496 0.45369
 H266 H 0.05223 0.32183 0.45276
 H267 H -0.05130 0.36607 0.53691
 H268 H -0.05072 0.30924 0.53799
 H269 H 0.03464 0.12487 0.43850
 H270 H 0.03587 0.06760 0.43759
 H271 H -0.03208 0.10798 0.54824
 H272 H -0.03359 0.16546 0.54911
 C273 C 0.49241 -0.00102 -0.28295
 C274 C 0.51401 0.01308 -0.30329
 C275 C 0.51391 0.01332 -0.33586
 C276 C 0.49257 -0.00111 -0.34943
 C277 C 0.47101 -0.01530 -0.32869
 C278 C 0.47079 -0.01502 -0.29594
 C279 C 0.49247 -0.00122 -0.24842
 N280 N 0.46628 -0.00718 -0.22511
 N281 N 0.46631 -0.00733 -0.19404
 C282 C 0.49268 -0.00175 -0.18507
 N283 N 0.51891 0.00411 -0.20842
 N284 N 0.51877 0.00445 -0.23940
 C285 C 0.49272 -0.00172 -0.15048
 C286 C 0.52343 -0.00402 -0.14449
 C287 C 0.52340 -0.00324 -0.11169
 C288 C 0.49256 0.00029 -0.08397
 C289 C 0.46189 0.00232 -0.08998
 C290 C 0.46204 0.00109 -0.12298
 H291 H 0.53107 0.02403 -0.29403
 H292 H 0.53185 0.02360 -0.35085
 H293 H 0.45301 -0.02552 -0.33684
 H294 H 0.45368 -0.02595 -0.28082
 H295 H 0.54755 -0.00641 -0.16517
 H296 H 0.54743 -0.00475 -0.10787
 H297 H 0.43774 0.00500 -0.06914
 H298 H 0.43793 0.00297 -0.12674
 C299 C 0.50003 0.02189 0.30078
 C300 C 0.46963 0.02686 0.32989
 C301 C 0.47176 0.02402 0.36107
 C302 C 0.50433 0.01608 0.36379
 C303 C 0.53462 0.01156 0.33488
 C304 C 0.53250 0.01443 0.30377
 C305 C 0.49817 0.02373 0.26725
 N306 N 0.52782 0.01768 0.23890
 N307 N 0.52646 0.01837 0.20844
 C308 C 0.49538 0.02516 0.20497
 N309 N 0.46565 0.03142 0.23338
 N310 N 0.46702 0.03071 0.26387
 C311 C 0.49422 0.02475 0.17064
 C312 C 0.46210 0.03219 0.16690
 C313 C 0.46135 0.03044 0.13412
 C314 C 0.49270 0.02111 0.10436
 C315 C 0.52472 0.01420 0.10822
 C316 C 0.52547 0.01605 0.14095
 H317 H 0.44419 0.03260 0.32850
 H318 H 0.44802 0.02734 0.38281
 H319 H 0.56000 0.00599 0.33638
 H320 H 0.55643 0.01061 0.28199
 H321 H 0.43753 0.03906 0.18922
 H322 H 0.43625 0.03592 0.13200
 H323 H 0.54934 0.00703 0.08585
 H324 H 0.55068 0.01020 0.14282
 C325 C 0.49690 -0.28335 0.00092
 C326 C 0.52012 -0.31239 -0.02841
 C327 C 0.51946 -0.34491 -0.02881
 C328 C 0.49589 -0.34910 0.00025
 C329 C 0.47320 -0.32019 0.02985
 C330 C 0.47355 -0.28764 0.03011
 C331 C 0.49655 -0.24874 0.00086
 N332 N 0.46925 -0.22064 0.02498
 N333 N 0.46860 -0.18952 0.02470
 C334 C 0.49529 -0.18516 0.00036
 N335 N 0.52268 -0.21326 -0.02370
 N336 N 0.52324 -0.24440 -0.02353
 C337 C 0.49455 -0.15047 0.00029
 C338 C 0.52511 -0.14497 -0.01882
 C339 C 0.52454 -0.11202 -0.01789
 C340 C 0.49329 -0.08393 0.00182
 C341 C 0.46260 -0.08953 0.02036
 C342 C 0.46327 -0.12238 0.01976
 H343 H 0.53842 -0.30998 -0.05131
 H344 H 0.53741 -0.36684 -0.05186
 H345 H 0.45457 -0.32270 0.05247
 H346 H 0.45542 -0.26582 0.05317
 H347 H 0.54965 -0.16606 -0.03405
 H348 H 0.54861 -0.10853 -0.03249
 H349 H 0.43813 -0.06841 0.03589
 H350 H 0.43922 -0.12574 0.03462
 C351 C 0.49137 0.30242 0.01892
 C352 C 0.52310 0.30916 0.01082
 C353 C 0.52436 0.34055 0.00779
 C354 C 0.49396 0.36603 0.01270
 C355 C 0.46207 0.35959 0.02133
 C356 C 0.46078 0.32809 0.02438
 C357 C 0.49056 0.26856 0.02094
 N358 N 0.46006 0.26173 0.02931
 N359 N 0.45970 0.23098 0.03026
 C360 C 0.48984 0.20576 0.02284
 N361 N 0.52027 0.21268 0.01463
 N362 N 0.52062 0.24339 0.01373
 C363 C 0.48979 0.17119 0.02277
 C364 C 0.52155 0.14460 0.01225
 C365 C 0.52180 0.11167 0.01083
 C366 C 0.49030 0.10454 0.02003
 C367 C 0.45847 0.13121 0.03115
 C368 C 0.45822 0.16416 0.03245
 H369 H 0.54712 0.29013 0.00667
 H370 H 0.54919 0.34497 0.00180
 H371 H 0.43826 0.37865 0.02504
 H372 H 0.43590 0.32376 0.03063
 H373 H 0.54637 0.14905 0.00464
 H374 H 0.54677 0.09172 0.00222
 H375 H 0.43374 0.12656 0.03840
 H376 H 0.43328 0.18403 0.04077
 C377 C -0.28289 0.00027 0.49230
 C378 C -0.29588 0.01426 0.47070
 C379 C -0.32864 0.01455 0.47094
 C380 C -0.34939 0.00037 0.49251
 C381 C -0.33582 -0.01405 0.51383
 C382 C -0.30324 -0.01382 0.51391
 C383 C -0.24836 0.00047 0.49234
 N384 N -0.23934 -0.00515 0.51865
 N385 N -0.20836 -0.00480 0.51878
 C386 C -0.18501 0.00102 0.49252
 N387 N -0.19397 0.00655 0.46614
 N388 N -0.22504 0.00639 0.46612
 C389 C -0.15042 0.00102 0.49255
 C390 C -0.12292 -0.00185 0.46184
 C391 C -0.08993 -0.00305 0.46169
 C392 C -0.08393 -0.00093 0.49238
 C393 C -0.11165 0.00265 0.52324
 C394 C -0.14444 0.00340 0.52328
 H395 H -0.28076 0.02519 0.45358
 H396 H -0.33679 0.02476 0.45295
 H397 H -0.35082 -0.02432 0.53177
 H398 H -0.29399 -0.02476 0.53095
 H399 H -0.12667 -0.00380 0.43771
 H400 H -0.06909 -0.00577 0.43751
 H401 H -0.10783 0.00423 0.54729
 H402 H -0.16512 0.00584 0.54742
 C403 C 0.30075 -0.02245 0.49991
 C404 C 0.30374 -0.01500 0.53240
 C405 C 0.33486 -0.01217 0.53453
 C406 C 0.36378 -0.01671 0.50424
 C407 C 0.36105 -0.02463 0.47165
 C408 C 0.32986 -0.02744 0.46950
 C409 C 0.26721 -0.02426 0.49804
 N410 N 0.26385 -0.03127 0.46687
 N411 N 0.23335 -0.03197 0.46549
 C412 C 0.20494 -0.02567 0.49523
 N413 N 0.20840 -0.01884 0.52633
 N414 N 0.23885 -0.01817 0.52770
 C415 C 0.17061 -0.02525 0.49406
 C416 C 0.14092 -0.01650 0.52532
 C417 C 0.10819 -0.01466 0.52456
 C418 C 0.10434 -0.02164 0.49252
 C419 C 0.13411 -0.03102 0.46116
 C420 C 0.16688 -0.03276 0.46192
 H421 H 0.28195 -0.01117 0.55634
 H422 H 0.33636 -0.00661 0.55992
 H423 H 0.38280 -0.02797 0.44791
 H424 H 0.32848 -0.03317 0.44406
 H425 H 0.14277 -0.01061 0.55055
 H426 H 0.08582 -0.00745 0.54920
 H427 H 0.13200 -0.03655 0.43604
 H428 H 0.18921 -0.03967 0.43734
 C429 C -0.02590 0.49805 1.29493
 C430 C -0.03046 0.52755 1.32136
 C431 C -0.02776 0.52560 1.35262
 C432 C -0.02036 0.49410 1.35806
 C433 C -0.01653 0.46479 1.33195
 C434 C -0.01927 0.46673 1.30081
 C435 C -0.02701 0.49952 1.26100
 N436 N -0.02125 0.47063 1.23521
 N437 N -0.02096 0.47152 1.20425
 C438 C -0.02643 0.50134 1.19767
 N439 N -0.03246 0.53032 1.22353
 N440 N -0.03274 0.52943 1.25454
 C441 C -0.02467 0.50186 1.16260
 C442 C -0.03091 0.53266 1.15563
 C443 C -0.02767 0.53272 1.12203
 C444 C -0.01800 0.50198 1.09466
 C445 C -0.01237 0.47130 1.10180
 C446 C -0.01572 0.47124 1.13534
 H447 H -0.03560 0.55209 1.31773
 H448 H -0.03060 0.54858 1.37217
 H449 H -0.01144 0.44026 1.33563
 H450 H -0.01584 0.44351 1.28119
 H451 H -0.03793 0.55672 1.17601
 H452 H -0.03219 0.55680 1.11738
 H453 H -0.00498 0.44717 1.08135
 H454 H -0.01077 0.44703 1.13970
 C455 C 0.01229 0.49640 0.70214
 C456 C 0.01826 0.52268 0.68933
 C457 C 0.01681 0.52293 0.65726
 C458 C 0.00908 0.49707 0.63738
 C459 C 0.00290 0.47088 0.65019
 C460 C 0.00467 0.47044 0.68215
 C461 C 0.01375 0.49627 0.73624
 N462 N 0.01356 0.46853 0.74625
 N463 N 0.01456 0.46858 0.77704
 C464 C 0.01570 0.49640 0.79918
 N465 N 0.01594 0.52413 0.78915
 N466 N 0.01507 0.52403 0.75831
 C467 C 0.01579 0.49678 0.83387
 C468 C 0.01003 0.52743 0.85949
 C469 C 0.00830 0.52806 0.89283
 C470 C 0.01262 0.49800 0.90119
 C471 C 0.01933 0.46721 0.87528
 C472 C 0.02076 0.46663 0.84206
 H473 H 0.02419 0.54307 0.70402
 H474 H 0.02128 0.54365 0.64820
 H475 H -0.00286 0.45050 0.63526
 H476 H -0.00015 0.44986 0.69128
 H477 H 0.00611 0.55112 0.85407
 H478 H 0.00314 0.55218 0.91221
 H479 H 0.02271 0.44361 0.88089
 H480 H 0.02545 0.44255 0.82290
   
