data_POSCAR
  _audit_creation_date              2014-09-24
  _audit_creation_method            'ToBaCCo'
  _symmetry_space_group_name_H-M    'P1'
  _symmetry_Int_Tables_number       1
  _symmetry_cell_setting            triclinic
  loop_
  _symmetry_equiv_pos_as_xyz
 x,y,z
_cell_length_a 28.0039
_cell_length_b 28.1810
_cell_length_c 31.2638
_cell_angle_alpha 90.103400
_cell_angle_beta 89.948100
_cell_angle_gamma 119.274400
loop_
  _atom_site_label
  _atom_site_type_symbol
  _atom_site_fract_x
  _atom_site_fract_y
  _atom_site_fract_z
O1 O 0.04727 0.57081 1.29421
 O2 O -0.05549 0.51887 1.20847
 O3 O -0.05913 0.51445 1.29134
 O4 O 0.05044 0.57135 1.21038
 O5 O 0.05315 0.49439 1.21022
 O6 O -0.05695 0.43724 1.29015
 O7 O -0.05251 0.44211 1.20719
 O8 O 0.04946 0.49363 1.29440
 Cu9 Cu -0.00420 0.55171 1.25134
 Cu10 Cu -0.00111 0.45928 1.25060
 C11 C 0.06532 0.54096 1.30950
 C12 C -0.07132 0.47190 1.19276
 C13 C -0.07716 0.46588 1.30422
 C14 C 0.06945 0.54188 1.19566
 O15 O 0.42542 0.48626 1.29245
 O16 O 0.47907 0.43132 1.21006
 O17 O 0.47876 0.43142 1.29364
 O18 O 0.42704 0.48585 1.20952
 O19 O 0.50553 0.56285 1.21010
 O20 O 0.55767 0.50782 1.29302
 O21 O 0.55729 0.50851 1.20961
 O22 O 0.50425 0.56262 1.29347
 Cu23 Cu 0.44475 0.45094 1.25173
 Cu24 Cu 0.53910 0.54315 1.25199
 C25 C 0.45534 0.53412 1.30674
 C26 C 0.52679 0.46094 1.19496
 C27 C 0.52737 0.46013 1.30731
 C28 C 0.45780 0.53338 1.19503
 O29 O 0.50729 0.94519 1.29319
 O30 O 0.56586 1.05406 1.21269
 O31 O 0.56282 1.05068 1.29594
 O32 O 0.51027 0.94850 1.21011
 O33 O 0.43292 0.95142 1.20965
 O34 O 0.48679 1.05590 1.29405
 O35 O 0.48839 1.05670 1.21089
 O36 O 0.43112 0.95016 1.29348
 Cu37 Cu 0.54426 0.99921 1.25309
 Cu38 Cu 0.45198 1.00375 1.25200
 C39 C 0.45942 0.92945 1.30756
 C40 C 0.53698 1.07361 1.19772
 C41 C 0.53398 1.07099 1.30964
 C42 C 0.46278 0.93277 1.19499
 O43 O 0.94437 0.51507 0.70922
 O44 O 1.05025 0.56789 0.79242
 O45 O 1.05084 0.56805 0.70976
 O46 O 0.94427 0.51250 0.79318
 O47 O 0.94643 0.43532 0.79136
 O48 O 1.05412 0.49144 0.70934
 O49 O 1.05306 0.49097 0.79161
 O50 O 0.94770 0.43849 0.70713
 Cu51 Cu 0.99669 0.54834 0.75119
 Cu52 Cu 1.00000 0.45599 0.74978
 C53 C 0.92877 0.46835 0.69323
 C54 C 1.07026 0.53887 0.80591
 C55 C 1.07152 0.53961 0.69582
 C56 C 0.92790 0.46465 0.80708
 O57 O 0.48613 0.43676 0.71008
 O58 O 0.43472 0.49364 0.79278
 O59 O 0.43458 0.49244 0.70852
 O60 O 0.48500 0.43683 0.79274
 O61 O 0.56454 0.51262 0.79218
 O62 O 0.51352 0.56883 0.70895
 O63 O 0.51408 0.56956 0.79279
 O64 O 0.56490 0.51342 0.70961
 Cu65 Cu 0.45186 0.45751 0.75103
 Cu66 Cu 0.54700 0.54896 0.75097
 C67 C 0.53456 0.46535 0.69596
 C68 C 0.46606 0.54094 0.80752
 C69 C 0.46578 0.53971 0.69376
 C70 C 0.53373 0.46491 0.80637
 O71 O 0.56762 0.05358 0.70958
 O72 O 0.51103 -0.05305 0.79259
 O73 O 0.51302 -0.05322 0.70863
 O74 O 0.56688 0.05185 0.79266
 O75 O 0.48994 0.05553 0.79152
 O76 O 0.43514 -0.05159 0.70884
 O77 O 0.43400 -0.04958 0.79201
 O78 O 0.48949 0.05484 0.70844
 Cu79 Cu 0.54730 -0.00074 0.75060
 Cu80 Cu 0.45439 0.00250 0.74985
 C81 C 0.53821 0.07290 0.69526
 C82 C 0.46324 -0.06855 0.80716
 C83 C 0.46465 -0.07093 0.69461
 C84 C 0.53755 0.07146 0.80660
 O85 O 0.41255 0.67371 0.95301
 O86 O 0.41338 0.76537 0.96609
 C87 C 0.37954 0.77383 0.94493
 O88 O 0.32852 0.74889 0.95224
 O89 O 0.23665 0.65907 0.96364
 C90 C 0.23091 0.61839 0.94194
 O91 O 0.25556 0.59212 0.95087
 O92 O 0.34548 0.58935 0.96549
 C93 C 0.38763 0.62322 0.94497
 O94 O 0.41314 0.65807 1.03801
 O95 O 0.40957 0.74773 1.05101
 C96 C 0.38335 0.77289 1.05852
 O97 O 0.34121 0.76473 1.03741
 O98 O 0.25154 0.67284 1.04916
 C99 C 0.22694 0.62225 1.05677
 O100 O 0.23573 0.58873 1.03561
 O101 O 0.32834 0.59085 1.05015
 C102 C 0.37911 0.61604 1.05844
 Cr103 Cr 0.40909 0.70970 1.00202
 Cr104 Cr 0.29098 0.70980 1.00067
 Cr105 Cr 0.29270 0.59328 1.00057
 O106 O 0.33096 0.67098 1.00112
 O107 O 0.58180 0.34315 0.96365
 O108 O 0.58726 0.25448 0.95303
 C109 C 0.61482 0.23087 0.94513
 O110 O 0.65695 0.23963 0.96650
 O111 O 0.74532 0.33220 0.95344
 C112 C 0.76921 0.38260 0.94516
 O113 O 0.75959 0.41616 0.96549
 O114 O 0.66594 0.41175 0.95168
 C115 C 0.61556 0.38453 0.94241
 O116 O 0.58343 0.33071 1.04929
 O117 O 0.58502 0.23986 1.03871
 C118 C 0.62002 0.23327 1.06004
 O119 O 0.67072 0.25805 1.05156
 O120 O 0.76154 0.34833 1.03842
 C121 C 0.76871 0.39055 1.05859
 O122 O 0.74203 0.41504 1.05040
 O123 O 0.65018 0.41520 1.03664
 C124 C 0.60793 0.38127 1.05708
 Cr125 Cr 0.58748 0.29361 1.00122
 Cr126 Cr 0.70695 0.29601 1.00248
 Cr127 Cr 0.70289 0.41146 1.00110
 O128 O 0.66575 0.33370 1.00171
 O129 O 0.65101 0.41456 0.53714
 O130 O 0.74284 0.41436 0.54817
 C131 C 0.76945 0.38969 0.55577
 O132 O 0.76190 0.34763 0.53526
 O133 O 0.67118 0.25799 0.55090
 C134 C 0.62064 0.23369 0.56017
 O135 O 0.58519 0.23934 0.53869
 O136 O 0.58439 0.33018 0.55061
 C137 C 0.61051 0.38056 0.55911
 O138 O 0.66313 0.41058 0.45166
 O139 O 0.75666 0.41446 0.46269
 C140 C 0.76392 0.38028 0.44108
 O141 O 0.74181 0.33022 0.45064
 O142 O 0.65405 0.23803 0.46625
 C143 C 0.61178 0.22956 0.44526
 O144 O 0.58477 0.25373 0.45333
 O145 O 0.57944 0.34232 0.46521
 C146 C 0.61250 0.38333 0.44337
 Cr147 Cr 0.70191 0.41047 0.49998
 Cr148 Cr 0.70567 0.29492 0.50079
 Cr149 Cr 0.58646 0.29294 0.50193
 O150 O 0.66468 0.33282 0.50097
 O151 O 0.34383 0.58746 0.53625
 O152 O 0.25465 0.59146 0.55203
 C153 C 0.23123 0.61865 0.56206
 O154 O 0.23779 0.66014 0.54127
 O155 O 0.33027 0.74939 0.55071
 C156 C 0.38094 0.77175 0.55911
 O157 O 0.41439 0.76308 0.53746
 O158 O 0.41328 0.67104 0.54687
 C159 C 0.38736 0.62080 0.55555
 O160 O 0.32580 0.58931 0.45174
 O161 O 0.23391 0.58819 0.46747
 C162 C 0.22417 0.62179 0.44756
 O163 O 0.24894 0.67233 0.45550
 O164 O 0.33945 0.76377 0.46507
 C165 C 0.38127 0.77178 0.44362
 O166 O 0.40871 0.74809 0.45166
 O167 O 0.41092 0.65767 0.46099
 C168 C 0.37581 0.61562 0.44104
 Cr169 Cr 0.29112 0.59226 0.50185
 Cr170 Cr 0.29075 0.70983 0.50305
 Cr171 Cr 0.40864 0.70844 0.49931
 O172 O 0.33022 0.67023 0.50137
 C173 C 0.46629 0.60784 0.35427
 C174 C 0.43394 0.55589 0.33670
 C175 C 0.37848 0.52713 0.34968
 C176 C 0.35880 0.54744 0.38247
 C177 C 0.39413 0.59670 0.40349
 C178 C 0.44700 0.62752 0.38681
 C179 C 0.50128 0.65506 0.40870
 C180 C 0.52248 0.63346 0.37307
 H181 H 0.35061 0.48796 0.33577
 H182 H 0.31668 0.52313 0.39271
 H183 H 0.50053 0.63708 0.44050
 H184 H 0.51974 0.70008 0.40835
 H185 H 0.53401 0.60296 0.38420
 H186 H 0.55319 0.66610 0.35228
 C187 C 0.46696 0.86438 0.35466
 C188 C 0.43815 0.88959 0.33945
 C189 C 0.38668 0.87309 0.35924
 C190 C 0.36762 0.83453 0.39311
 C191 C 0.39913 0.81089 0.40788
 C192 C 0.44841 0.82710 0.38668
 C193 C 0.49825 0.82091 0.38658
 C194 C 0.51934 0.86314 0.35022
 H195 H 0.36149 0.89047 0.34930
 H196 H 0.32852 0.82361 0.40772
 H197 H 0.48928 0.77958 0.37627
 H198 H 0.52216 0.83598 0.41667
 H199 H 0.52255 0.84623 0.31888
 H200 H 0.55542 0.90245 0.35941
 C201 C 0.12084 0.52764 0.36636
 C202 C 0.10356 0.56093 0.34616
 C203 C 0.12129 0.61307 0.36383
 C204 C 0.15967 0.63271 0.39747
 C205 C 0.18093 0.60052 0.41448
 C206 C 0.15842 0.54689 0.39968
 C207 C 0.18631 0.51647 0.38431
 C208 C 0.14520 0.49544 0.34780
 H209 H 0.10712 0.63953 0.35072
 H210 H 0.17389 0.67365 0.40915
 H211 H 0.18133 0.48408 0.40705
 H212 H 0.22907 0.54386 0.37363
 H213 H 0.11660 0.45093 0.34952
 H214 H 0.16407 0.51064 0.31590
 C215 C 0.60442 0.46658 0.35191
 C216 C 0.54947 0.43763 0.33943
 C217 C 0.51689 0.38573 0.35765
 C218 C 0.53753 0.36711 0.39089
 C219 C 0.59128 0.39990 0.40641
 C220 C 0.62482 0.44812 0.38436
 C221 C 0.66092 0.50427 0.40093
 C222 C 0.63847 0.52453 0.36537
 H223 H 0.47480 0.36055 0.34765
 H224 H 0.51078 0.32805 0.40539
 H225 H 0.70504 0.51711 0.39694
 H226 H 0.64897 0.51061 0.43349
 H227 H 0.66971 0.54910 0.34095
 H228 H 0.61342 0.54259 0.37728
 C229 C 0.52512 0.13499 0.35741
 C230 C 0.55421 0.10998 0.34224
 C231 C 0.60544 0.12636 0.36233
 C232 C 0.62445 0.16525 0.39597
 C233 C 0.59310 0.18928 0.41032
 C234 C 0.54361 0.17257 0.38932
 C235 C 0.49445 0.17987 0.38819
 C236 C 0.47344 0.13731 0.35196
 H237 H 0.63076 0.10904 0.35251
 H238 H 0.66361 0.17640 0.41054
 H239 H 0.50444 0.22132 0.37753
 H240 H 0.46989 0.16547 0.41803
 H241 H 0.47131 0.15421 0.32037
 H242 H 0.43670 0.09842 0.36090
 C243 C 0.85571 0.38835 0.34934
 C244 C 0.87763 0.44228 0.33553
 C245 C 0.85454 0.47297 0.35240
 C246 C 0.81604 0.45215 0.38587
 C247 C 0.79959 0.40009 0.40304
 C248 C 0.81747 0.36769 0.38210
 C249 C 0.84167 0.33506 0.39992
 C250 C 0.88364 0.35774 0.36406
 H251 H 0.86817 0.51403 0.34139
 H252 H 0.80106 0.47779 0.39943
 H253 H 0.81331 0.29059 0.39701
 H254 H 0.85969 0.34909 0.43226
 H255 H 0.87946 0.32629 0.34055
 H256 H 0.92604 0.38497 0.37557
 C257 C 0.59559 0.47465 1.13817
 C258 C 0.54604 0.44071 1.15886
 C259 C 0.51338 0.38808 1.14178
 C260 C 0.53292 0.36884 1.10815
 C261 C 0.58540 0.40193 1.09051
 C262 C 0.61466 0.45582 1.10482
 C263 C 0.67259 0.48770 1.11965
 C264 C 0.65170 0.50826 1.15621
 H265 H 0.47352 0.36108 1.15525
 H266 H 0.50753 0.32757 1.09685
 H267 H 0.69859 0.52012 1.09659
 H268 H 0.68958 0.46133 1.13034
 H269 H 0.66577 0.55254 1.15421
 H270 H 0.65650 0.49379 1.18815
 C271 C 0.87528 0.40320 1.13894
 C272 C 0.89145 0.45357 1.15859
 C273 C 0.87058 0.48608 1.14117
 C274 C 0.83105 0.46600 1.10836
 C275 C 0.81162 0.41310 1.09185
 C276 C 0.83674 0.38370 1.10634
 C277 C 0.81155 0.32661 1.12232
 C278 C 0.85370 0.34794 1.15809
 H279 H 0.88326 0.52636 1.15372
 H280 H 0.81477 0.49141 1.09676
 H281 H 0.81742 0.29951 1.09960
 H282 H 0.76881 0.31092 1.13372
 H283 H 0.88376 0.33302 1.15598
 H284 H 0.83546 0.34470 1.19030
 C285 C 0.52766 0.13328 1.14284
 C286 C 0.55983 0.11590 1.16436
 C287 C 0.61537 0.14031 1.15137
 C288 C 0.63561 0.17925 1.11781
 C289 C 0.60072 0.19445 1.09602
 C290 C 0.54686 0.17007 1.11046
 C291 C 0.49251 0.16569 1.10207
 C292 C 0.47069 0.12381 1.13868
 H293 H 0.64309 0.12915 1.16674
 H294 H 0.67819 0.19663 1.10864
 H295 H 0.47597 0.14776 1.07016
 H296 H 0.49216 0.20410 1.10955
 H297 H 0.44171 0.08181 1.12778
 H298 H 0.45755 0.13792 1.16731
 C299 C 0.38443 0.52508 1.14503
 C300 C 0.43867 0.55377 1.15925
 C301 C 0.47516 0.60075 1.13633
 C302 C 0.45613 0.62071 1.10303
 C303 C 0.40009 0.59431 1.09205
 C304 C 0.36559 0.54496 1.11241
 C305 C 0.31175 0.52642 1.13396
 C306 C 0.33239 0.50462 1.16969
 H307 H 0.51813 0.62289 1.14475
 H308 H 0.48504 0.65775 1.08695
 H309 H 0.27733 0.49384 1.11558
 H310 H 0.30546 0.56082 1.14409
 H311 H 0.30985 0.45949 1.17187
 H312 H 0.33810 0.52634 1.20062
 C313 C 0.13167 0.61563 1.14558
 C314 C 0.10867 0.56181 1.15976
 C315 C 0.12018 0.52600 1.13597
 C316 C 0.15769 0.54527 1.10181
 C317 C 0.18488 0.60091 1.09075
 C318 C 0.16908 0.63476 1.11214
 C319 C 0.20322 0.68838 1.13350
 C320 C 0.16228 0.66745 1.17011
 H321 H 0.10112 0.48330 1.14423
 H322 H 0.16671 0.51686 1.08514
 H323 H 0.20302 0.72233 1.11560
 H324 H 0.24450 0.69518 1.14258
 H325 H 0.13852 0.68938 1.17327
 H326 H 0.17975 0.66210 1.20048
 C327 C 0.47271 0.86851 1.14546
 C328 C 0.44305 0.89380 1.15911
 C329 C 0.39583 0.88324 1.13570
 C330 C 0.37661 0.84450 1.10246
 C331 C 0.40404 0.81523 1.09208
 C332 C 0.45361 0.83010 1.11293
 C333 C 0.47287 0.79557 1.13497
 C334 C 0.49384 0.83769 1.17062
 H335 H 0.37293 0.90381 1.14371
 H336 H 0.33936 0.83628 1.08595
 H337 H 0.50619 0.79372 1.11699
 H338 H 0.43858 0.75548 1.14503
 H339 H 0.53923 0.86009 1.17314
 H340 H 0.47176 0.82209 1.20142
 C341 C 0.52586 0.38823 0.65039
 C342 C 0.55633 0.44236 0.66395
 C343 C 0.60929 0.47376 0.64670
 C344 C 0.62766 0.45325 0.61325
 C345 C 0.59362 0.40074 0.59652
 C346 C 0.54417 0.36785 0.61766
 C347 C 0.48786 0.33428 0.59999
 C348 C 0.46779 0.35669 0.63582
 H349 H 0.63560 0.51506 0.65754
 H350 H 0.66762 0.47930 0.59950
 H351 H 0.47320 0.28997 0.60304
 H352 H 0.48314 0.34780 0.56763
 H353 H 0.44151 0.32524 0.65943
 H354 H 0.45147 0.38328 0.62426
 C355 C 0.61563 0.14206 0.65057
 C356 C 0.56088 0.11764 0.66377
 C357 C 0.52842 0.13887 0.64705
 C358 C 0.54848 0.17804 0.61431
 C359 C 0.60163 0.19723 0.59766
 C360 C 0.63558 0.18105 0.61846
 C361 C 0.67100 0.15997 0.60049
 C362 C 0.64906 0.11717 0.63559
 H363 H 0.48663 0.12345 0.65773
 H364 H 0.52149 0.19151 0.60091
 H365 H 0.71526 0.18973 0.60411
 H366 H 0.65826 0.14271 0.56781
 H367 H 0.68076 0.12227 0.65932
 H368 H 0.62351 0.07506 0.62329
 C369 C 0.87512 0.40041 0.63622
 C370 C 0.88990 0.44969 0.65706
 C371 C 0.86946 0.48271 0.64024
 C372 C 0.83101 0.46383 0.60669
 C373 C 0.81238 0.41164 0.58898
 C374 C 0.83742 0.38193 0.60300
 C375 C 0.81218 0.32429 0.61769
 C376 C 0.85341 0.34453 0.65413
 H377 H 0.88170 0.52238 0.65385
 H378 H 0.81476 0.48947 0.59558
 H379 H 0.81885 0.29816 0.59449
 H380 H 0.76911 0.30790 0.62853
 H381 H 0.88375 0.32998 0.65190
 H382 H 0.83432 0.33998 0.68615
 C383 C 0.39675 0.52725 0.63768
 C384 C 0.44727 0.56015 0.65745
 C385 C 0.48144 0.61174 0.63929
 C386 C 0.46262 0.63132 0.60549
 C387 C 0.40934 0.59958 0.58884
 C388 C 0.37834 0.54641 0.60423
 C389 C 0.32067 0.51737 0.62000
 C390 C 0.34084 0.49644 0.65669
 H391 H 0.52201 0.63777 0.65203
 H392 H 0.48920 0.67186 0.59335
 H393 H 0.29301 0.48473 0.59767
 H394 H 0.30583 0.54566 0.63042
 H395 H 0.32470 0.45174 0.65548
 H396 H 0.33780 0.51263 0.68844
 C397 C 0.38920 0.86505 0.64945
 C398 C 0.44338 0.88738 0.66386
 C399 C 0.47487 0.86495 0.64686
 C400 C 0.45440 0.82650 0.61333
 C401 C 0.40178 0.80910 0.59620
 C402 C 0.36891 0.82677 0.61684
 C403 C 0.33548 0.84996 0.59866
 C404 C 0.35778 0.89202 0.63436
 H405 H 0.51620 0.87867 0.65801
 H406 H 0.48049 0.81185 0.59996
 H407 H 0.29083 0.82134 0.60153
 H408 H 0.34948 0.86766 0.56629
 H409 H 0.32591 0.88763 0.65771
 H410 H 0.38478 0.93414 0.62270
 C411 C 0.13989 0.53230 0.65193
 C412 C 0.11440 0.56172 0.66603
 C413 C 0.13500 0.61502 0.64983
 C414 C 0.17447 0.63450 0.61693
 C415 C 0.19464 0.60140 0.59967
 C416 C 0.17913 0.55174 0.61990
 C417 C 0.15927 0.49636 0.60143
 C418 C 0.11611 0.47498 0.63649
 H419 H 0.11891 0.64085 0.66095
 H420 H 0.18735 0.67453 0.60387
 H421 H 0.19000 0.48244 0.60478
 H422 H 0.14187 0.49213 0.56878
 H423 H 0.12197 0.44865 0.65993
 H424 H 0.07365 0.45839 0.62419
 C425 C 0.39743 0.52895 0.86371
 C426 C 0.44740 0.56201 0.84331
 C427 C 0.48099 0.61446 0.86039
 C428 C 0.46208 0.63446 0.89389
 C429 C 0.40937 0.60224 0.91132
 C430 C 0.37900 0.54850 0.89692
 C431 C 0.32110 0.51810 0.88177
 C432 C 0.34130 0.49675 0.84531
 H433 H 0.52114 0.64073 0.84706
 H434 H 0.48817 0.67554 0.90530
 H435 H 0.30535 0.54549 0.87102
 H436 H 0.29423 0.48589 0.90466
 H437 H 0.33737 0.51179 0.81336
 H438 H 0.32597 0.45223 0.84719
 C439 C 0.14185 0.53338 0.85039
 C440 C 0.11477 0.56169 0.83781
 C441 C 0.13300 0.61380 0.85564
 C442 C 0.17205 0.63319 0.88875
 C443 C 0.19401 0.60104 0.90457
 C444 C 0.18061 0.55266 0.88279
 C445 C 0.16214 0.49682 0.89966
 C446 C 0.11956 0.47569 0.86416
 H447 H 0.11532 0.63858 0.84551
 H448 H 0.18328 0.67231 0.90303
 H449 H 0.14409 0.49069 0.93223
 H450 H 0.19395 0.48440 0.89576
 H451 H 0.07678 0.45734 0.87613
 H452 H 0.12688 0.45107 0.83990
 C453 C 0.47535 0.87586 0.86417
 C454 C 0.44209 0.89269 0.84317
 C455 C 0.38908 0.87465 0.85981
 C456 C 0.36874 0.83655 0.89338
 C457 C 0.40111 0.81596 0.91134
 C458 C 0.45543 0.83860 0.89745
 C459 C 0.48662 0.81111 0.88296
 C460 C 0.50837 0.85186 0.84645
 H461 H 0.36260 0.88852 0.84607
 H462 H 0.32726 0.82222 0.90441
 H463 H 0.45946 0.76854 0.87219
 H464 H 0.51879 0.81632 0.90626
 H465 H 0.49380 0.83299 0.81445
 H466 H 0.55308 0.88045 0.84873
 C467 C 0.61014 0.46945 0.85096
 C468 C 0.55521 0.44149 0.83828
 C469 C 0.52189 0.38945 0.85609
 C470 C 0.54174 0.36985 0.88921
 C471 C 0.59545 0.40176 0.90508
 C472 C 0.62975 0.45005 0.88334
 C473 C 0.66662 0.50587 0.90021
 C474 C 0.64505 0.52715 0.86473
 H475 H 0.47978 0.36493 0.84590
 H476 H 0.51435 0.33081 0.90344
 H477 H 0.71056 0.51796 0.89631
 H478 H 0.65477 0.51226 0.93279
 H479 H 0.67662 0.55149 0.84046
 H480 H 0.62063 0.54585 0.87671
 C481 C 0.87129 0.47683 0.86356
 C482 C 0.88871 0.44375 0.84304
 C483 C 0.87100 0.39149 0.86024
 C484 C 0.83271 0.37164 0.89392
 C485 C 0.81154 0.40374 0.91142
 C486 C 0.83380 0.45738 0.89691
 C487 C 0.80560 0.48756 0.88185
 C488 C 0.84659 0.50881 0.84528
 H489 H 0.88537 0.36524 0.84690
 H490 H 0.81871 0.33070 0.90541
 H491 H 0.81049 0.51986 0.90475
 H492 H 0.76284 0.46001 0.87122
 H493 H 0.87500 0.55336 0.84711
 H494 H 0.82767 0.49358 0.81338
 C495 C 0.53079 0.13925 0.85474
 C496 C 0.55882 0.11265 0.84097
 C497 C 0.60849 0.12680 0.86269
 C498 C 0.62716 0.16532 0.89667
 C499 C 0.59682 0.19100 0.90976
 C500 C 0.54881 0.17631 0.88705
 C501 C 0.50086 0.18550 0.88421
 C502 C 0.48044 0.14347 0.84758
 H503 H 0.63266 0.10784 0.85387
 H504 H 0.66512 0.17474 0.91257
 H505 H 0.51269 0.22746 0.87362
 H506 H 0.47476 0.17132 0.91330
 H507 H 0.48048 0.16117 0.81582
 H508 H 0.44258 0.10510 0.85558
   
