data_POSCAR
  _audit_creation_date              2014-09-24
  _audit_creation_method            'ToBaCCo'
  _symmetry_space_group_name_H-M    'P1'
  _symmetry_Int_Tables_number       1
  _symmetry_cell_setting            triclinic
  loop_
  _symmetry_equiv_pos_as_xyz
 x,y,z
_cell_length_a 8.2426
_cell_length_b 8.2247
_cell_length_c 13.4671
_cell_angle_alpha 81.207500
_cell_angle_beta 99.104700
_cell_angle_gamma 80.812600
loop_
  _atom_site_label
  _atom_site_type_symbol
  _atom_site_fract_x
  _atom_site_fract_y
  _atom_site_fract_z
O1 O 0.15982 0.31337 0.94277
 O2 O 0.10755 0.59225 1.12628
 O3 O 0.07104 0.28976 1.12275
 O4 O 0.16146 0.63289 0.94189
 O5 O -0.10923 0.71130 0.87971
 O6 O -0.19566 0.35362 1.04800
 O7 O -0.16404 0.66028 1.06486
 O8 O -0.10850 0.38736 0.87311
 Cu9 Cu 0.15190 0.44857 1.03957
 Cu10 Cu -0.17120 0.53618 0.95927
 C11 C 0.03579 0.30051 0.87759
 C12 C -0.03540 0.67579 1.12627
 C13 C -0.07736 0.26171 1.11415
 C14 C 0.03970 0.73470 0.88263
 O15 O 0.63302 0.11359 0.38425
 O16 O 0.34628 0.15677 0.56813
 O17 O 0.64612 0.18549 0.55986
 O18 O 0.29376 0.12057 0.37469
 O19 O 0.35127 -0.15106 0.43597
 O20 O 0.71784 -0.08965 0.61019
 O21 O 0.41580 -0.11634 0.62497
 O22 O 0.66523 -0.16105 0.42628
 Cu23 Cu 0.46913 0.17114 0.46317
 Cu24 Cu 0.54436 -0.15661 0.52967
 C25 C 0.70025 -0.03281 0.37520
 C26 C 0.33486 0.02616 0.62889
 C27 C 0.74348 0.05772 0.61466
 C28 C 0.25840 -0.02440 0.37613
 C29 C -0.04758 -0.18894 0.18919
 C30 C -0.17245 -0.19072 0.26127
 C31 C -0.18582 -0.05565 0.30940
 C32 C -0.06409 0.06454 0.28393
 C33 C -0.09958 -0.01826 0.11849
 C34 C -0.10497 0.11455 0.16710
 C35 C 0.11802 -0.18149 0.25748
 C36 C 0.11058 -0.04927 0.30674
 H37 H -0.24781 -0.28672 0.27014
 H38 H -0.07146 0.17267 0.32454
 H39 H -0.10171 -0.00447 0.03673
 H40 H 0.23149 -0.27394 0.26716
 C41 C 0.20301 0.03591 0.69329
 C42 C 0.20438 -0.12621 0.76785
 C43 C 0.07123 -0.11858 0.81620
 C44 C -0.04995 0.05191 0.78731
 C45 C 0.03319 0.07141 0.62241
 C46 C -0.09817 0.07795 0.67082
 C47 C 0.19502 0.17257 0.75844
 C48 C 0.06166 0.18252 0.80717
 H49 H 0.29761 -0.23913 0.77794
 H50 H -0.15855 0.05942 0.82700
 H51 H 0.01914 0.06951 0.54105
 H52 H 0.28759 0.25182 0.76667
   
