data_POSCAR
  _audit_creation_date              2014-09-24
  _audit_creation_method            'ToBaCCo'
  _symmetry_space_group_name_H-M    'P1'
  _symmetry_Int_Tables_number       1
  _symmetry_cell_setting            triclinic
  loop_
  _symmetry_equiv_pos_as_xyz
 x,y,z
_cell_length_a 30.1617
_cell_length_b 30.3808
_cell_length_c 29.1804
_cell_angle_alpha 90.091600
_cell_angle_beta 90.008100
_cell_angle_gamma 90.433400
loop_
  _atom_site_label
  _atom_site_type_symbol
  _atom_site_fract_x
  _atom_site_fract_y
  _atom_site_fract_z
C1 C 0.12720 0.16889 0.17968
 C2 C 0.13330 0.19547 0.14085
 C3 C 0.17084 0.19047 0.11397
 C4 C 0.20241 0.15850 0.12523
 C5 C 0.19659 0.13304 0.16411
 C6 C 0.15852 0.13775 0.19110
 C7 C 0.09657 0.16963 0.21460
 N8 N 0.10818 0.13924 0.24649
 C9 C 0.14604 0.11948 0.23237
 C10 C 0.23507 0.11005 0.17088
 N11 N 0.26372 0.11994 0.13647
 C12 C 0.24394 0.14922 0.10801
 C13 C 0.17213 0.22545 0.08404
 N14 N 0.13625 0.25111 0.09178
 C15 C 0.11201 0.23286 0.12610
 H16 H 0.06839 0.19140 0.21708
 H17 H 0.16416 0.09491 0.25141
 H18 H 0.24211 0.08849 0.19945
 H19 H 0.25963 0.16487 0.07884
 H20 H 0.19899 0.23355 0.06084
 H21 H 0.08359 0.24804 0.14218
 C22 C -0.12128 0.84193 0.18748
 C23 C -0.12015 0.80868 0.15451
 C24 C -0.15406 0.80455 0.12313
 C25 C -0.18945 0.83420 0.12437
 C26 C -0.18972 0.86896 0.15549
 C27 C -0.15504 0.87273 0.18798
 C28 C -0.09886 0.84516 0.22800
 N29 N -0.11707 0.87753 0.25350
 C30 C -0.15092 0.89559 0.22913
 C31 C -0.23111 0.88840 0.15206
 N32 N -0.25584 0.86505 0.12128
 C33 C -0.23060 0.83198 0.10452
 C34 C -0.14866 0.76450 0.10142
 N35 N -0.11210 0.74490 0.11886
 C36 C -0.09488 0.77133 0.15175
 H37 H -0.07300 0.82321 0.23953
 H38 H -0.17412 0.91938 0.24257
 H39 H -0.24358 0.91467 0.17350
 H40 H -0.24197 0.80682 0.08083
 H41 H -0.17185 0.74895 0.07803
 H42 H -0.06831 0.76222 0.17476
 C43 C -0.13171 0.17209 -0.18259
 C44 C -0.14188 0.20114 -0.14721
 C45 C -0.17867 0.19393 -0.11981
 C46 C -0.20482 0.15594 -0.12671
 C47 C -0.19401 0.12671 -0.16150
 C48 C -0.15726 0.13485 -0.18969
 C49 C -0.10317 0.17612 -0.21885
 N50 N -0.11047 0.14198 -0.24786
 C51 C -0.14299 0.11595 -0.23001
 C52 C -0.22700 0.09546 -0.16354
 N53 N -0.25738 0.10439 -0.13058
 C54 C -0.24415 0.14130 -0.10773
 C55 C -0.18361 0.23124 -0.09313
 N56 N -0.15010 0.25968 -0.10349
 C57 C -0.12451 0.24149 -0.13634
 H58 H -0.08053 0.20333 -0.22502
 H59 H -0.15779 0.08769 -0.24691
 H60 H -0.22918 0.06862 -0.18794
 H61 H -0.26240 0.15721 -0.08048
 H62 H -0.21023 0.23787 -0.06927
 H63 H -0.09682 0.25770 -0.15309
 C64 C 0.12425 0.83744 -0.18943
 C65 C 0.13097 0.80489 -0.15651
 C66 C 0.16762 0.80684 -0.12808
 C67 C 0.19716 0.84264 -0.13120
 C68 C 0.19016 0.87520 -0.16369
 C69 C 0.15327 0.87268 -0.19317
 C70 C 0.09616 0.83866 -0.22621
 N71 N 0.10673 0.87404 -0.25235
 C72 C 0.14125 0.89573 -0.23214
 C73 C 0.22645 0.90285 -0.16232
 N74 N 0.25480 0.88844 -0.12944
 C75 C 0.23716 0.85162 -0.11014
 C76 C 0.16979 0.76694 -0.10573
 N77 N 0.13481 0.74182 -0.11940
 C78 C 0.11082 0.76471 -0.15023
 H79 H 0.07125 0.81407 -0.23465
 H80 H 0.15868 0.92370 -0.24665
 H81 H 0.23216 0.93101 -0.18433
 H82 H 0.25291 0.83187 -0.08403
 H83 H 0.19614 0.75597 -0.08338
 H84 H 0.08300 0.75158 -0.16950
 C85 C 0.16854 1.12485 0.81368
 C86 C 0.19955 1.12589 0.84921
 C87 C 0.19790 1.15894 0.88139
 C88 C 0.16493 1.19073 0.87898
 C89 C 0.13274 1.18946 0.84493
 C90 C 0.13470 1.15568 0.81127
 C91 C 0.16926 1.10209 0.77332
 N92 N 0.13639 1.11691 0.74600
 C93 C 0.11431 1.14927 0.76891
 C94 C 0.10969 1.22899 0.84857
 N95 N 0.12878 1.25363 0.88254
 C96 C 0.16223 1.23017 0.90097
 C97 C 0.23678 1.15777 0.90594
 N98 N 0.26147 1.12417 0.88984
 C99 C 0.23926 1.10446 0.85501
 H100 H 0.19357 1.07768 0.76365
 H101 H 0.08839 1.16935 0.75434
 H102 H 0.08436 1.24062 0.82535
 H103 H 0.18480 1.24199 0.92724
 H104 H 0.24791 1.18168 0.93107
 H105 H 0.25287 1.07938 0.83279
 C106 C 0.82816 0.87325 0.81487
 C107 C 0.79821 0.86315 0.84996
 C108 C 0.80278 0.82470 0.87479
 C109 C 0.83840 0.79653 0.86573
 C110 C 0.86803 0.80653 0.83085
 C111 C 0.86292 0.84530 0.80513
 C112 C 0.82793 0.90547 0.78201
 N113 N 0.86181 0.89821 0.75244
 C114 C 0.88380 0.86164 0.76644
 C115 C 0.89651 0.77149 0.82715
 N116 N 0.88545 0.74101 0.85937
 C117 C 0.84994 0.75607 0.88318
 C118 C 0.76526 0.82017 0.90138
 N119 N 0.73877 0.85529 0.89363
 C120 C 0.75873 0.88193 0.86257
 H121 H 0.80370 0.93144 0.77889
 H122 H 0.91134 0.84670 0.74860
 H123 H 0.92312 0.76827 0.80247
 H124 H 0.83285 0.73841 0.91018
 H125 H 0.75672 0.79235 0.92287
 H126 H 0.74393 0.91094 0.84763
 C127 C 0.14520 0.86575 1.19676
 C128 C 0.18293 0.87152 1.16913
 C129 C 0.19176 0.84191 1.13418
 C130 C 0.16360 0.80559 1.12713
 C131 C 0.12629 0.79992 1.15421
 C132 C 0.11730 0.83000 1.18948
 C133 C 0.13089 0.88664 1.23603
 N134 N 0.09563 0.86385 1.25312
 C135 C 0.08719 0.82918 1.22489
 C136 C 0.10816 0.75943 1.14338
 N137 N 0.13412 0.74026 1.11123
 C138 C 0.16817 0.76799 1.10122
 C139 C 0.23285 0.85251 1.11658
 N140 N 0.24938 0.88721 1.14050
 C141 C 0.21939 0.89890 1.17288
 H142 H 0.14664 0.91475 1.25226
 H143 H 0.06194 0.80424 1.23054
 H144 H 0.08034 0.74359 1.16025
 H145 H 0.19550 0.76031 1.07859
 H146 H 0.25093 0.83416 1.09090
 H147 H 0.22485 0.92383 1.19889
 C148 C 0.84892 1.11935 1.17474
 C149 C 0.82010 1.12092 1.13735
 C150 C 0.82222 1.15594 1.10711
 C151 C 0.85473 1.18883 1.11299
 C152 C 0.88389 1.18664 1.14975
 C153 C 0.88120 1.15147 1.18073
 C154 C 0.84524 1.09677 1.21520
 N155 N 0.87504 1.11358 1.24532
 C156 C 0.89800 1.14648 1.22440
 C157 C 0.90451 1.22705 1.15323
 N158 N 0.88949 1.25310 1.11906
 C159 C 0.85912 1.23025 1.09422
 C160 C 0.78296 1.15557 1.08284
 N161 N 0.75810 1.12075 1.09702
 C162 C 0.78061 1.09925 1.13005
 H163 H 0.82039 1.07202 1.22322
 H164 H 0.92120 1.16849 1.24134
 H165 H 0.92638 1.23783 1.18053
 H166 H 0.83879 1.24411 1.06735
 H167 H 0.77136 1.18123 1.06020
 H168 H 0.76673 1.07344 1.15136
 O169 O 0.44617 1.07859 1.09176
 O170 O 0.39409 1.04057 1.04988
 C171 C 0.40545 1.06900 1.08097
 O172 O 0.56751 1.05753 0.92004
 O173 O 0.61417 1.01911 0.96721
 C174 C 0.60654 1.04404 0.93220
 O175 O 0.44458 1.07494 0.92946
 O176 O 0.39310 1.03751 0.97249
 C177 C 0.40416 1.06675 0.94215
 O178 O 0.56985 1.07340 1.08690
 O179 O 0.61507 1.02682 1.04671
 C180 C 0.60860 1.06003 1.07389
 Zr181 Zr 0.50626 1.05267 1.06548
 O182 O 0.51251 1.12154 1.05576
 O183 O 0.50968 1.06172 1.13725
 Zr184 Zr 0.50461 1.04575 0.95047
 O185 O 0.51627 1.11449 0.94698
 O186 O 0.49759 1.04422 0.87834
 O187 O 0.46622 1.06022 1.00811
 O188 O 0.54459 1.05469 1.00664
 O189 O 0.55971 0.91577 1.09657
 O190 O 0.61031 0.95273 1.05203
 C191 C 0.60002 0.92416 1.08323
 O192 O 0.43160 0.91705 0.93295
 O193 O 0.38680 0.96298 0.97461
 C194 C 0.39316 0.93355 0.94310
 O195 O 0.55600 0.90608 0.93464
 O196 O 0.60846 0.94693 0.97321
 C197 C 0.59680 0.91551 0.94546
 O198 O 0.43542 0.92371 1.09902
 O199 O 0.38866 0.96396 1.05364
 C200 C 0.39620 0.93656 1.08677
 Zr201 Zr 0.49852 0.94164 1.07274
 O202 O 0.49631 0.87209 1.07696
 O203 O 0.49760 0.94666 1.14512
 Zr204 Zr 0.49583 0.93469 0.95740
 O205 O 0.49235 0.86541 0.96474
 O206 O 0.49270 0.92894 0.88517
 Zr207 Zr 0.43518 0.99784 1.01233
 Zr208 Zr 0.56714 0.98946 1.01055
 O209 O 0.53489 0.92785 1.01495
 O210 O 0.45662 0.93210 1.01619
 O211 O 0.54212 0.99523 1.07774
 O212 O 0.46211 0.99270 0.94593
 O213 O 0.46431 0.99985 1.07799
 O214 O 0.53931 0.98685 0.94430
 H215 H 0.56644 1.07900 1.00342
 H216 H 0.44268 0.99390 0.91860
 H217 H 0.55223 0.90034 1.01648
 H218 H 0.44548 1.00193 1.10568
 H219 H 0.51458 1.01868 0.86715
 H220 H 0.51903 0.94418 0.87240
 H221 H 0.46308 0.85801 0.97812
 H222 H 0.47104 0.86184 1.05805
 H223 H 0.52509 0.96221 1.15460
 H224 H 0.49923 1.03409 1.15153
 H225 H 0.48338 1.13288 1.04585
 H226 H 0.49370 1.12895 0.96630
 O227 O 0.07763 0.43543 -0.09110
 O228 O 0.03266 0.38749 -0.05182
 C229 C 0.06518 0.39600 -0.07956
 O230 O 0.09004 0.55697 0.06573
 O231 O 0.04654 0.60730 0.02888
 C232 C 0.07889 0.59706 0.05596
 O233 O 0.09008 0.43406 0.05628
 O234 O 0.03965 0.38685 0.02342
 C235 C 0.07591 0.39483 0.04595
 O236 O 0.07793 0.55826 -0.09550
 O237 O 0.04189 0.60800 -0.04971
 C238 C 0.07020 0.59807 -0.08147
 Zr239 Zr 0.05186 0.49738 -0.07203
 O240 O 0.12015 0.49669 -0.08827
 O241 O 0.03700 0.49626 -0.14272
 Zr242 Zr 0.06163 0.49642 0.04377
 O243 O 0.13172 0.49849 0.04468
 O244 O 0.06191 0.48997 0.11606
 O245 O 0.06385 0.45809 -0.01527
 O246 O 0.06671 0.53442 -0.01436
 O247 O -0.07569 0.56405 -0.08912
 O248 O -0.03193 0.61083 -0.04673
 C249 C -0.06063 0.60301 -0.07879
 O250 O -0.07321 0.43917 0.07862
 O251 O -0.03821 0.38963 0.03183
 C252 C -0.06465 0.39932 0.06532
 O253 O -0.06614 0.56181 0.08145
 O254 O -0.02919 0.61000 0.03430
 C255 C -0.05551 0.60126 0.06840
 O256 O -0.09399 0.44193 -0.07397
 O257 O -0.04698 0.39092 -0.04317
 C258 C -0.08305 0.40171 -0.06443
 Zr259 Zr -0.05852 0.50138 -0.06221
 O260 O -0.12774 0.51175 -0.06137
 O261 O -0.06220 0.49296 -0.13418
 Zr262 Zr -0.04909 0.50023 0.05342
 O263 O -0.11882 0.50631 0.05853
 O264 O -0.04337 0.49566 0.12555
 Zr265 Zr -0.00136 0.43289 -0.00990
 Zr266 Zr 0.00439 0.56482 -0.00841
 O267 O -0.06051 0.53949 -0.00353
 O268 O -0.06423 0.46229 -0.00368
 O269 O -0.00197 0.53906 -0.07543
 O270 O 0.00557 0.45947 0.05644
 O271 O -0.00577 0.46017 -0.07594
 O272 O 0.00877 0.53794 0.05801
 H273 H 0.09435 0.55216 -0.01591
 H274 H 0.00787 0.43886 0.08261
 H275 H -0.08546 0.56047 -0.00203
 H276 H -0.00899 0.43927 -0.10187
 H277 H 0.05577 0.51932 0.12927
 H278 H -0.02176 0.51836 0.13557
 H279 H -0.13238 0.48019 0.04363
 H280 H -0.13855 0.50129 -0.03131
 H281 H -0.04439 0.51680 -0.14834
 H282 H 0.06590 0.49410 -0.15864
 H283 H 0.13631 0.49988 -0.05900
 H284 H 0.14182 0.48479 0.01579
 O285 O 1.06606 -0.07459 0.56274
 O286 O 1.03437 -0.02683 0.61381
 C287 C 1.05788 -0.06112 0.60406
 O288 O 1.06968 0.08775 0.42912
 O289 O 1.02611 0.04490 0.38234
 C290 C 1.05422 0.07667 0.38914
 O291 O 1.08653 0.07996 0.55712
 O292 O 1.04204 0.04736 0.61124
 C293 C 1.07578 0.07129 0.59933
 O294 O 1.05320 -0.08259 0.43551
 O295 O 1.02098 -0.03470 0.38514
 C296 C 1.04249 -0.07035 0.39441
 Zr297 Zr 1.04469 -0.04941 0.49881
 O298 O 1.11435 -0.04838 0.48979
 O299 O 1.04777 -0.11874 0.50295
 Zr300 Zr 1.05590 0.06033 0.49452
 O301 O 1.12420 0.04908 0.48289
 O302 O 1.06972 0.12856 0.49762
 O303 O 1.06102 0.00581 0.53760
 O304 O 1.05603 0.00349 0.45546
 O305 O 0.91011 -0.06713 0.44244
 O306 O 0.94848 -0.02772 0.38818
 C307 C 0.92059 -0.05817 0.40024
 O308 O 0.92792 0.09892 0.56540
 O309 O 0.96643 0.05480 0.61499
 C310 C 0.94054 0.08748 0.60615
 O311 O 0.91864 0.09325 0.43733
 O312 O 0.95370 0.04755 0.38646
 C313 C 0.92619 0.07864 0.39626
 O314 O 0.90704 -0.05289 0.57107
 O315 O 0.95761 -0.01827 0.61768
 C316 C 0.92198 -0.04146 0.61109
 Zr317 Zr 0.93298 -0.03922 0.50510
 O318 O 0.86317 -0.03363 0.50140
 O319 O 0.92560 -0.10796 0.51451
 Zr320 Zr 0.94418 0.07123 0.50099
 O321 O 0.87427 0.07708 0.50243
 O322 O 0.95192 0.14055 0.50031
 Zr323 Zr 0.99796 0.01286 0.56823
 Zr324 Zr 0.99042 0.00868 0.43176
 O325 O 0.92826 0.01516 0.46378
 O326 O 0.93221 0.01826 0.54438
 O327 O 0.98572 -0.05417 0.46214
 O328 O 1.00326 0.07512 0.53698
 O329 O 0.98982 -0.05126 0.54190
 O330 O 0.99830 0.07324 0.45718
 H331 H 1.07951 0.00080 0.43188
 H332 H 1.00773 0.10169 0.55622
 H333 H 0.90107 0.01560 0.44472
 H334 H 0.98686 -0.07635 0.56334
 H335 H 1.04128 0.14365 0.49225
 H336 H 0.96735 0.14855 0.47153
 H337 H 0.86358 0.06394 0.53144
 H338 H 0.85441 -0.01059 0.52352
 H339 H 0.94447 -0.12255 0.49138
 H340 H 1.01743 -0.12912 0.51010
 H341 H 1.12792 -0.04368 0.52031
 H342 H 1.13642 0.03559 0.51098
 N343 N 1.03810 0.13798 0.33980
 N344 N 1.05099 0.15527 0.30036
 C345 C 1.08612 0.13162 0.28635
 C346 C 1.09456 0.09912 0.31839
 N347 N 1.06387 0.10468 0.35127
 H348 H 1.11914 0.07337 0.31738
 N349 N 0.91938 -0.12908 0.36500
 N350 N 0.91224 -0.14715 0.32446
 C351 C 0.89300 -0.11609 0.29840
 C352 C 0.88865 -0.07804 0.32406
 N353 N 0.90558 -0.08786 0.36563
 H354 H 0.87794 -0.04588 0.31281
 N355 N 0.94438 0.15489 0.64956
 N356 N 0.93276 0.17016 0.69027
 C357 C 0.90847 0.13806 0.71026
 C358 C 0.90550 0.10254 0.68095
 N359 N 0.92811 0.11476 0.64340
 H360 H 0.88981 0.07082 0.68651
 N361 N 1.05211 -0.12973 0.64410
 N362 N 1.06301 -0.14782 0.68362
 C363 C 1.08843 -0.11807 0.70594
 C364 C 1.09271 -0.08072 0.67906
 N365 N 1.06957 -0.08981 0.64061
 H366 H 1.10965 -0.05006 0.68681
 N367 N 0.36715 1.07524 1.15286
 N368 N 0.32771 1.08637 1.16879
 C369 C 0.30599 1.10512 1.13360
 C370 C 0.33312 1.10511 1.09540
 N371 N 0.37114 1.08631 1.10918
 H372 H 0.32524 1.11500 1.06073
 N373 N 0.35018 0.95130 0.87651
 N374 N 0.31218 0.94101 0.85644
 C375 C 0.29463 0.90739 0.88058
 C376 C 0.32308 0.89716 0.91637
 N377 N 0.35744 0.92540 0.91213
 H378 H 0.31873 0.87317 0.94340
 N379 N 0.63519 0.85382 1.08729
 N380 N 0.67486 0.83696 1.09458
 C381 C 0.70028 0.86971 1.11174
 C382 C 0.67504 0.90753 1.11463
 N383 N 0.63442 0.89590 1.09906
 H384 H 0.68583 0.94053 1.12346
 N385 N 0.65435 1.03161 0.86718
 N386 N 0.69201 1.04661 0.84969
 C387 C 0.70490 1.08065 0.87643
 C388 C 0.67413 1.08621 0.91102
 N389 N 0.64311 1.05502 0.90357
 H390 H 0.67455 1.10948 0.93915
 N391 N 0.14766 0.36064 0.05475
 N392 N 0.16514 0.32205 0.06502
 C393 C 0.13090 0.29480 0.07437
 C394 C 0.09172 0.31765 0.06967
 N395 N 0.10385 0.35869 0.05739
 H396 H 0.05814 0.30601 0.07519
 N397 N -0.15750 0.37184 -0.07587
 N398 N -0.17712 0.33329 -0.08357
 C399 C -0.14428 0.30367 -0.08723
 C400 C -0.10414 0.32490 -0.08231
 N401 N -0.11382 0.36736 -0.07535
 H402 H -0.07121 0.31110 -0.08455
 N403 N 0.13961 0.62678 -0.11131
 N404 N 0.15928 0.66521 -0.11904
 C405 C 0.12860 0.69608 -0.11041
 C406 C 0.08943 0.67591 -0.09804
 N407 N 0.09778 0.63255 -0.09892
 H408 H 0.05834 0.69109 -0.08875
 N409 N -0.09649 0.63145 0.13239
 N410 N -0.11294 0.66927 0.14681
 C411 C -0.10201 0.69929 0.11484
 C412 C -0.07775 0.67940 0.08067
 N413 N -0.07515 0.63682 0.09309
 H414 H -0.06366 0.69410 0.05015
 N415 N 1.14623 0.07237 0.63771
 N416 N 1.16321 0.08243 0.67819
 C417 C 1.13130 0.10359 0.70175
 C418 C 1.09384 0.10613 0.67454
 N419 N 1.10486 0.08618 0.63476
 H420 H 1.06133 0.11823 0.68361
 N421 N 0.85900 -0.03046 0.66064
 N422 N 0.84221 -0.04539 0.69956
 C423 C 0.86934 -0.07765 0.71397
 C424 C 0.90365 -0.08207 0.68281
 N425 N 0.89554 -0.05202 0.65005
 H426 H 0.93144 -0.10438 0.68365
 N427 N 1.03211 -0.13790 0.35152
 N428 N 1.04482 -0.15624 0.31250
 C429 C 1.07414 -0.12810 0.29321
 C430 C 1.07893 -0.09167 0.32136
 N431 N 1.05223 -0.09944 0.35741
 H432 H 1.09910 -0.06248 0.31621
 N433 N 0.85816 0.07509 0.35468
 N434 N 0.84403 0.08097 0.31226
 C435 C 0.87661 0.10296 0.29034
 C436 C 0.91114 0.11063 0.32036
 N437 N 0.89801 0.09284 0.36035
 H438 H 0.94375 0.12394 0.31297
 N439 N 0.13534 0.36033 -0.07810
 N440 N 0.15333 0.32163 -0.08601
 C441 C 0.12196 0.29656 -0.10640
 C442 C 0.08352 0.32104 -0.11053
 N443 N 0.09372 0.36080 -0.09228
 H444 H 0.05122 0.31049 -0.12264
 N445 N -0.09506 0.36688 0.13461
 N446 N -0.10657 0.32771 0.15081
 C447 C -0.10234 0.29930 0.11565
 C448 C -0.08787 0.32165 0.07748
 N449 N -0.08370 0.36387 0.09087
 H450 H -0.07979 0.30850 0.04402
 N451 N -0.04983 0.64800 -0.14587
 N452 N -0.06252 0.68618 -0.16306
 C453 C -0.09395 0.70175 -0.13463
 C454 C -0.10022 0.67198 -0.09920
 N455 N -0.07216 0.63878 -0.10798
 H456 H -0.12139 0.67475 -0.06941
 N457 N 0.14870 0.62910 0.08140
 N458 N 0.16515 0.66756 0.09489
 C459 C 0.13071 0.69548 0.09640
 C460 C 0.09263 0.67341 0.08355
 N461 N 0.10543 0.63198 0.07441
 H462 H 0.05930 0.68610 0.08064
 N463 N 0.37690 1.13114 0.90234
 N464 N 0.33895 1.14811 0.88832
 C465 C 0.30733 1.11850 0.89942
 C466 C 0.32634 1.08302 0.92065
 N467 N 0.36996 1.09235 0.92184
 H468 H 0.31031 1.05376 0.93408
 N469 N 0.36052 0.91804 1.15876
 N470 N 0.32103 0.90649 1.17482
 C471 C 0.29417 0.90280 1.13813
 C472 C 0.31804 0.91221 1.09899
 N473 N 0.35938 0.92163 1.11354
 H474 H 0.30674 0.91209 1.06378
 N475 N 0.64248 1.12982 1.09375
 N476 N 0.68228 1.14824 1.09685
 C477 C 0.71156 1.11568 1.09004
 C478 C 0.68894 1.07657 1.08366
 N479 N 0.64576 1.08695 1.08613
 H480 H 0.70234 1.04414 1.07749
 N481 N 0.62615 0.84453 0.92272
 N482 N 0.66444 0.82663 0.91090
 C483 C 0.69414 0.85992 0.90919
 C484 C 0.67326 0.89876 0.91985
 N485 N 0.63080 0.88763 0.92809
 H486 H 0.68736 0.93160 0.92162
   
