data_POSCAR
  _audit_creation_date              2014-09-24
  _audit_creation_method            'ToBaCCo'
  _symmetry_space_group_name_H-M    'P1'
  _symmetry_Int_Tables_number       1
  _symmetry_cell_setting            triclinic
  loop_
  _symmetry_equiv_pos_as_xyz
 x,y,z
_cell_length_a 29.3992
_cell_length_b 29.4081
_cell_length_c 29.4738
_cell_angle_alpha 89.540800
_cell_angle_beta 89.632800
_cell_angle_gamma 76.453300
loop_
  _atom_site_label
  _atom_site_type_symbol
  _atom_site_fract_x
  _atom_site_fract_y
  _atom_site_fract_z
O1 O 0.56208 0.49622 0.03636
 O2 O 0.43553 0.50271 0.03575
 O3 O 0.51031 0.43510 0.03604
 O4 O 0.48738 0.56390 0.03649
 O5 O 0.49538 0.56356 -0.03811
 O6 O 0.50355 0.43700 -0.03862
 O7 O 0.43496 0.51114 -0.03876
 O8 O 0.56391 0.48971 -0.03829
 Cu9 Cu 0.49874 0.49941 0.04374
 Cu10 Cu 0.49950 0.50038 -0.04603
 C11 C 0.58466 0.49114 -0.00084
 C12 C 0.41345 0.50884 -0.00156
 C13 C 0.50909 0.41439 -0.00141
 C14 C 0.48930 0.58538 -0.00076
 O15 O -0.03541 0.57339 0.49668
 O16 O -0.04214 0.44991 0.49288
 O17 O -0.03867 0.51041 0.55694
 O18 O -0.03876 0.51436 0.43216
 O19 O 0.03800 0.48741 0.43166
 O20 O 0.03865 0.49063 0.55637
 O21 O 0.03495 0.42797 0.49676
 O22 O 0.04159 0.55159 0.49145
 Cu23 Cu -0.04654 0.51407 0.49460
 Cu24 Cu 0.04610 0.48735 0.49392
 C25 C 0.00419 0.58361 0.49418
 C26 C -0.00472 0.41795 0.49517
 C27 C 0.00006 0.50047 0.57785
 C28 C -0.00043 0.50093 0.41072
 O29 O 0.48600 0.03792 0.56977
 O30 O 0.48978 0.03828 0.44469
 O31 O 0.42741 0.03360 0.50507
 O32 O 0.55004 0.04271 0.50885
 O33 O 0.57327 -0.03427 0.50484
 O34 O 0.45061 -0.04338 0.51004
 O35 O 0.51100 -0.03896 0.44519
 O36 O 0.51448 -0.03853 0.57023
 Cu37 Cu 0.48614 0.04592 0.50720
 Cu38 Cu 0.51452 -0.04657 0.50779
 C39 C 0.50022 -0.00030 0.59136
 C40 C 0.50039 -0.00035 0.42367
 C41 C 0.41817 -0.00639 0.50728
 C42 C 0.58250 0.00573 0.50637
 O43 O 0.46133 0.01064 -0.05616
 O44 O 0.46160 0.01331 0.06891
 O45 O 0.46572 0.07257 0.00378
 O46 O 0.45699 -0.05019 0.00845
 O47 O 0.53404 -0.07320 0.00428
 O48 O 0.54277 0.04954 0.00736
 O49 O 0.53827 -0.01419 0.06863
 O50 O 0.53857 -0.01109 -0.05646
 Cu51 Cu 0.45362 0.01374 0.00643
 Cu52 Cu 0.54621 -0.01440 0.00607
 C53 C 0.49996 -0.00021 -0.07756
 C54 C 0.49994 -0.00047 0.09003
 C55 C 0.50569 0.08191 0.00508
 C56 C 0.49408 -0.08254 0.00611
 O57 O -0.07273 0.53529 0.99654
 O58 O 0.05048 0.54329 0.99166
 O59 O -0.01339 0.53898 0.93161
 O60 O -0.01037 0.53952 1.05634
 O61 O 0.01021 0.46225 1.05697
 O62 O 0.01434 0.46234 0.93221
 O63 O 0.07314 0.46630 0.99697
 O64 O -0.05006 0.45827 0.99275
 Cu65 Cu -0.01363 0.54708 0.99387
 Cu66 Cu 0.01405 0.45448 0.99465
 C67 C -0.08234 0.49545 0.99497
 C68 C 0.08273 0.50614 0.99454
 C69 C 0.00053 0.50062 0.91072
 C70 C -0.00017 0.50092 1.07784
 O71 O 0.01111 -0.06488 0.46246
 O72 O -0.00939 0.06395 0.46256
 O73 O 0.06415 -0.00497 0.46296
 O74 O -0.06258 0.00408 0.46246
 O75 O -0.06433 0.01092 0.53709
 O76 O 0.06457 -0.01286 0.53759
 O77 O -0.00276 0.06219 0.53722
 O78 O 0.00278 -0.06415 0.53703
 Cu79 Cu 0.00088 -0.00040 0.45501
 Cu80 Cu 0.00004 -0.00105 0.54483
 C81 C 0.00860 -0.08613 0.49975
 C82 C -0.00780 0.08471 0.49995
 C83 C 0.08603 -0.01112 0.50031
 C84 C -0.08513 0.00976 0.49964
 C85 C -0.27237 0.48746 0.99908
 N86 N -0.29113 0.46668 0.96528
 N87 N -0.33669 0.46750 0.96532
 C88 C -0.36488 0.48843 0.99957
 N89 N -0.34596 0.50866 1.03361
 N90 N -0.30062 0.50850 1.03319
 C91 C -0.22279 0.48884 0.99818
 N92 N -0.20875 0.52458 1.01826
 N93 N -0.16401 0.52667 1.01695
 C94 C -0.13151 0.49271 0.99617
 N95 N -0.14541 0.45667 0.97641
 N96 N -0.19036 0.45498 0.97707
 C97 C 0.27262 0.51410 0.99787
 N98 N 0.29420 0.52499 0.95982
 N99 N 0.33988 0.52356 0.95997
 C100 C 0.36543 0.51201 0.99840
 N101 N 0.34354 0.50191 1.03661
 N102 N 0.29811 0.50249 1.03622
 C103 C 0.22306 0.51284 0.99725
 N104 N 0.20786 0.48032 1.02223
 N105 N 0.16314 0.47814 1.02109
 C106 C 0.13182 0.50896 0.99560
 N107 N 0.14686 0.54187 0.97095
 N108 N 0.19183 0.54348 0.97142
 C109 C 0.00977 -0.27818 0.49681
 N110 N 0.04859 -0.31179 0.48649
 N111 N 0.04700 -0.35674 0.48592
 C112 C 0.00630 -0.36958 0.49476
 N113 N -0.03257 -0.33580 0.50456
 N114 N -0.03076 -0.29102 0.50599
 C115 C 0.01121 -0.22872 0.49837
 N116 N -0.01499 -0.19997 0.52935
 N117 N -0.01486 -0.15473 0.53033
 C118 C 0.01079 -0.13643 0.49981
 N119 N 0.03682 -0.16511 0.46858
 N120 N 0.03739 -0.21060 0.46816
 C121 C -0.01028 0.27725 0.49846
 N122 N -0.04441 0.30954 0.47743
 N123 N -0.04302 0.35455 0.47673
 C124 C -0.00703 0.36867 0.49638
 N125 N 0.02722 0.33632 0.51708
 N126 N 0.02543 0.29150 0.51842
 C127 C -0.01141 0.22762 0.49944
 N128 N 0.00987 0.19938 0.53352
 N129 N 0.01007 0.15405 0.53406
 C130 C -0.01037 0.13513 0.50017
 N131 N -0.03154 0.16331 0.46594
 N132 N -0.03239 0.20886 0.46578
 C133 C 0.50007 -0.00024 -0.26921
 N134 N 0.47935 0.03886 -0.29283
 N135 N 0.47974 0.03896 -0.33806
 C136 C 0.50016 -0.00028 -0.36136
 N137 N 0.52053 -0.03951 -0.33764
 N138 N 0.52082 -0.03937 -0.29242
 C139 C 0.50004 -0.00022 -0.21940
 N140 N 0.53497 -0.02906 -0.19595
 N141 N 0.53515 -0.02877 -0.15073
 C142 C 0.49999 -0.00019 -0.12734
 N143 N 0.46485 0.02837 -0.15078
 N144 N 0.46508 0.02864 -0.19601
 C145 C 0.50018 -0.00043 0.28178
 N146 N 0.47489 0.03673 0.30508
 N147 N 0.47522 0.03690 0.35030
 C148 C 0.50035 -0.00036 0.37386
 N149 N 0.52539 -0.03765 0.35056
 N150 N 0.52557 -0.03755 0.30534
 C151 C 0.50009 -0.00047 0.23193
 N152 N 0.53561 -0.02845 0.20846
 N153 N 0.53571 -0.02823 0.16324
 C154 C 0.49996 -0.00050 0.13985
 N155 N 0.46428 0.02725 0.16332
 N156 N 0.46450 0.02750 0.20853
 C157 C 0.48507 -0.27181 0.00055
 N158 N 0.50639 -0.29924 -0.03386
 N159 N 0.50663 -0.34453 -0.03469
 C160 C 0.48620 -0.36420 -0.00078
 N161 N 0.46493 -0.33683 0.03375
 N162 N 0.46404 -0.29129 0.03421
 C163 C 0.48670 -0.22245 0.00199
 N164 N 0.45279 -0.19036 0.02344
 N165 N 0.45475 -0.14553 0.02448
 C166 C 0.49111 -0.13150 0.00480
 N167 N 0.52512 -0.16367 -0.01630
 N168 N 0.52276 -0.20826 -0.01798
 C169 C 0.51420 0.27138 -0.00096
 N170 N 0.49309 0.29938 -0.03526
 N171 N 0.49256 0.34476 -0.03585
 C172 C 0.51248 0.36393 -0.00179
 N173 N 0.53355 0.33599 0.03263
 N174 N 0.53473 0.29038 0.03285
 C175 C 0.51283 0.22193 0.00033
 N176 N 0.54662 0.18967 0.02180
 N177 N 0.54478 0.14479 0.02295
 C178 C 0.50865 0.13088 0.00337
 N179 N 0.47477 0.16322 -0.01778
 N180 N 0.47701 0.20787 -0.01958
 C181 C -0.27759 0.01335 0.50151
 N182 N -0.29161 -0.02241 0.48149
 N183 N -0.33623 -0.02481 0.48334
 C184 C -0.36857 0.00885 0.50465
 N185 N -0.35470 0.04493 0.52433
 N186 N -0.30986 0.04692 0.52313
 C187 C -0.22817 0.01488 0.50016
 N188 N -0.20908 0.03528 0.53399
 N189 N -0.16347 0.03415 0.53374
 C190 C -0.13563 0.01327 0.49926
 N191 N -0.15489 -0.00652 0.46517
 N192 N -0.20027 -0.00604 0.46578
 C193 C 0.27832 -0.01407 0.50304
 N194 N 0.29248 0.02183 0.48271
 N195 N 0.33706 0.02428 0.48443
 C196 C 0.36924 -0.00949 0.50591
 N197 N 0.35524 -0.04570 0.52594
 N198 N 0.31041 -0.04774 0.52486
 C199 C 0.22896 -0.01573 0.50158
 N200 N 0.20943 -0.03646 0.53544
 N201 N 0.16386 -0.03549 0.53499
 C202 C 0.13650 -0.01444 0.50027
 N203 N 0.15622 0.00568 0.46616
 N204 N 0.20155 0.00535 0.46698
 C205 C -0.00056 0.50103 1.26912
 N206 N -0.03617 0.52894 1.29253
 N207 N -0.03631 0.52867 1.33772
 C208 C -0.00052 0.50098 1.36106
 N209 N 0.03524 0.47332 1.33766
 N210 N 0.03506 0.47310 1.29247
 C211 C -0.00054 0.50102 1.21944
 N212 N 0.02475 0.46380 1.19625
 N213 N 0.02459 0.46365 1.15106
 C214 C -0.00033 0.50097 1.12750
 N215 N -0.02538 0.53833 1.15068
 N216 N -0.02574 0.53821 1.19588
 C217 C 0.00041 0.50039 0.71944
 N218 N -0.03704 0.52528 0.69618
 N219 N -0.03728 0.52503 0.65099
 C220 C 0.00019 0.50041 0.62750
 N221 N 0.03778 0.47577 0.65075
 N222 N 0.03776 0.47550 0.69594
 C223 C 0.00052 0.50044 0.76912
 N224 N 0.02878 0.46509 0.79262
 N225 N 0.02858 0.46497 0.83782
 C226 C 0.00059 0.50055 0.86106
 N227 N -0.02743 0.53607 0.83756
 N228 N -0.02770 0.53585 0.79238
   
