data_POSCAR
  _audit_creation_date              2014-09-24
  _audit_creation_method            'ToBaCCo'
  _symmetry_space_group_name_H-M    'P1'
  _symmetry_Int_Tables_number       1
  _symmetry_cell_setting            triclinic
  loop_
  _symmetry_equiv_pos_as_xyz
 x,y,z
_cell_length_a 42.5555
_cell_length_b 42.5623
_cell_length_c 42.6678
_cell_angle_alpha 90.038700
_cell_angle_beta 90.050700
_cell_angle_gamma 89.939100
loop_
  _atom_site_label
  _atom_site_type_symbol
  _atom_site_fract_x
  _atom_site_fract_y
  _atom_site_fract_z
C1 C 0.33296 0.37961 1.35777
 C2 C 0.35549 0.38096 1.33384
 C3 C 0.37916 0.35861 1.33244
 C4 C 0.38058 0.33464 1.35493
 C5 C 0.35831 0.33331 1.37858
 C6 C 0.33437 0.35592 1.38001
 C7 C 0.30677 0.39749 1.36426
 N8 N 0.29253 0.38512 1.38981
 C9 C 0.30901 0.35975 1.39969
 C10 C 0.36478 0.30710 1.39636
 N11 N 0.39035 0.29276 1.38399
 C12 C 0.40027 0.30919 1.35870
 C13 C 0.39696 0.36506 1.30629
 N14 N 0.38459 0.39067 1.29205
 C15 C 0.35928 0.40064 1.30852
 H16 H 0.29841 0.41762 1.35114
 H17 H 0.30273 0.34495 1.41935
 H18 H 0.35162 0.29881 1.41644
 H19 H 0.41996 0.30284 1.34391
 H20 H 0.41706 0.35188 1.29794
 H21 H 0.34451 0.42039 1.30223
 C22 C 1.16873 0.62139 0.85912
 C23 C 1.14615 0.61997 0.83519
 C24 C 1.12240 0.64223 0.83385
 C25 C 1.12092 0.66616 0.85641
 C26 C 1.14323 0.66756 0.88006
 C27 C 1.16728 0.64504 0.88142
 C28 C 1.19498 0.60358 0.86557
 N29 N 1.20922 0.61595 0.89115
 C30 C 1.19268 0.64126 0.90110
 C31 C 1.13665 0.69372 0.89791
 N32 N 1.11099 0.70794 0.88557
 C33 C 1.10111 0.69149 0.86024
 C34 C 1.10456 0.63573 0.80770
 N35 N 1.11699 0.61018 0.79339
 C36 C 1.14238 0.60030 0.80982
 H37 H 1.20337 0.58348 0.85240
 H38 H 1.19893 0.65603 0.92082
 H39 H 1.14979 0.70205 0.91802
 H40 H 1.08136 0.69775 0.84548
 H41 H 1.08438 0.64884 0.79941
 H42 H 1.15721 0.58061 0.80348
 C43 C 0.66724 -0.12192 0.14146
 C44 C 0.64468 -0.12053 0.16536
 C45 C 0.62105 -0.14286 0.16673
 C46 C 0.61969 -0.16685 0.14423
 C47 C 0.64199 -0.16822 0.12060
 C48 C 0.66591 -0.14563 0.11921
 C49 C 0.69339 -0.10404 0.13501
 N50 N 0.70769 -0.11641 0.10947
 C51 C 0.69129 -0.14180 0.09955
 C52 C 0.63555 -0.19445 0.10280
 N53 N 0.60998 -0.20874 0.11515
 C54 C 0.60003 -0.19227 0.14044
 C55 C 0.60322 -0.13637 0.19287
 N56 N 0.61554 -0.11075 0.20712
 C57 C 0.64085 -0.10082 0.19068
 H58 H 0.70167 -0.08389 0.14815
 H59 H 0.69762 -0.15660 0.07988
 H60 H 0.64872 -0.20277 0.08273
 H61 H 0.58032 -0.19857 0.15520
 H62 H 0.58313 -0.14953 0.20119
 H63 H 0.65558 -0.08107 0.19698
 C64 C -0.16825 1.12191 -0.35828
 C65 C -0.14569 1.12048 -0.33435
 C66 C -0.12196 1.14271 -0.33296
 C67 C -0.12050 1.16664 -0.35548
 C68 C -0.14281 1.16805 -0.37914
 C69 C -0.16682 1.14556 -0.38055
 C70 C -0.19447 1.10411 -0.36475
 N71 N -0.20873 1.11648 -0.39032
 C72 C -0.19222 1.14178 -0.40024
 C73 C -0.13626 1.19420 -0.39697
 N74 N -0.11061 1.20841 -0.38460
 C75 C -0.10073 1.19195 -0.35928
 C76 C -0.10414 1.13619 -0.30680
 N77 N -0.11656 1.11066 -0.29254
 C78 C -0.14192 1.10080 -0.30901
 H79 H -0.20283 1.08402 -0.35161
 H80 H -0.19849 1.15656 -0.41994
 H81 H -0.14939 1.20254 -0.41707
 H82 H -0.08099 1.19820 -0.34450
 H83 H -0.08399 1.14928 -0.29846
 H84 H -0.15673 1.08112 -0.30271
 C85 C 0.66694 0.62243 0.64103
 C86 C 0.64445 0.62098 0.66498
 C87 C 0.62071 0.64324 0.66645
 C88 C 0.61917 0.66722 0.64397
 C89 C 0.64141 0.66865 0.62029
 C90 C 0.66544 0.64613 0.61881
 C91 C 0.69317 0.60464 0.63449
 N92 N 0.70737 0.61704 0.60895
 C93 C 0.69080 0.64237 0.59912
 C94 C 0.63481 0.69486 0.60255
 N95 N 0.60920 0.70909 0.61498
 C96 C 0.59939 0.69259 0.64027
 C97 C 0.60299 0.63670 0.69262
 N98 N 0.61547 0.61111 0.70681
 C99 C 0.64079 0.60126 0.69029
 H100 H 0.70161 0.58453 0.64756
 H101 H 0.69704 0.65716 0.57945
 H102 H 0.64790 0.70323 0.58246
 H103 H 0.57969 0.69885 0.65509
 H104 H 0.58285 0.64980 0.70102
 H105 H 0.65564 0.58155 0.69653
 C106 C 0.83306 0.37819 0.14222
 C107 C 0.85555 0.37957 0.16622
 C108 C 0.87922 0.35723 0.16770
 C109 C 0.88067 0.33323 0.14522
 C110 C 0.85843 0.33186 0.12150
 C111 C 0.83449 0.35447 0.11999
 C112 C 0.80689 0.39609 0.13564
 N113 N 0.79269 0.38371 0.11004
 C114 C 0.80916 0.35830 0.10022
 C115 C 0.86496 0.30564 0.10372
 N116 N 0.89052 0.29133 0.11616
 C117 C 0.90039 0.30780 0.14150
 C118 C 0.89699 0.36374 0.19390
 N119 N 0.88460 0.38939 0.20808
 C120 C 0.85931 0.39931 0.19153
 H121 H 0.79855 0.41625 0.14873
 H122 H 0.80291 0.34349 0.08052
 H123 H 0.85185 0.29732 0.08358
 H124 H 0.92008 0.30148 0.15633
 H125 H 0.91709 0.35059 0.20231
 H126 H 0.84454 0.41908 0.19775
 C127 C 0.33095 0.12008 0.85821
 C128 C 0.35339 0.11863 0.83419
 C129 C 0.37713 0.14084 0.83277
 C130 C 0.37873 0.16476 0.85533
 C131 C 0.35656 0.16619 0.87906
 C132 C 0.33253 0.14372 0.88051
 C133 C 0.30472 0.10233 0.86476
 N134 N 0.29064 0.11473 0.89041
 C135 C 0.30724 0.13999 0.90029
 C136 C 0.36323 0.19234 0.89687
 N137 N 0.38880 0.20655 0.88445
 C138 C 0.39852 0.19006 0.85909
 C139 C 0.39481 0.13434 0.80654
 N140 N 0.38231 0.10883 0.79226
 C141 C 0.35702 0.09897 0.80878
 H142 H 0.29625 0.08226 0.85162
 H143 H 0.30111 0.15479 0.92003
 H144 H 0.35022 0.20071 0.91702
 H145 H 0.41818 0.19633 0.84426
 H146 H 0.41494 0.14743 0.79818
 H147 H 0.34216 0.07932 0.80248
 C148 C 0.16744 0.87957 0.35871
 C149 C 0.14491 0.88103 0.33475
 C150 C 0.12121 0.85877 0.33329
 C151 C 0.11975 0.83479 0.35576
 C152 C 0.14202 0.83335 0.37944
 C153 C 0.16601 0.85587 0.38093
 C154 C 0.19367 0.89734 0.36524
 N155 N 0.20791 0.88491 0.39079
 C156 C 0.19139 0.85959 0.40064
 C157 C 0.13549 0.80714 0.39716
 N158 N 0.10990 0.79289 0.38473
 C159 C 0.10004 0.80942 0.35946
 C160 C 0.10344 0.86530 0.30710
 N161 N 0.11586 0.89086 0.29289
 C162 C 0.14118 0.90073 0.30942
 H163 H 0.20205 0.91745 0.35214
 H164 H 0.19766 0.84475 0.42030
 H165 H 0.14860 0.79874 0.41724
 H166 H 0.08034 0.80314 0.34465
 H167 H 0.08333 0.85219 0.29869
 H168 H 0.15600 0.92042 0.30316
 Zn169 Zn 0.01844 0.99284 -0.03782
 Zn170 Zn -0.00728 0.96162 0.01930
 Zn171 Zn 0.02407 1.02440 0.02472
 Zn172 Zn -0.03876 1.01876 -0.00655
 O173 O -0.00086 0.99943 -0.00006
 O174 O 0.02613 0.95216 -0.04548
 O175 O 0.01197 0.95916 0.05649
 O176 O 0.06003 1.03554 0.00577
 O177 O 0.00709 0.92898 -0.00306
 O178 O 0.05566 1.01210 -0.04045
 O179 O 0.03530 1.00554 0.06066
 O180 O -0.04138 1.05603 0.01268
 O181 O -0.04794 0.95383 0.02683
 O182 O 0.00507 1.06041 0.03584
 O183 O -0.07131 0.99623 0.00766
 O184 O -0.04653 1.02635 -0.04712
 O185 O -0.00412 1.00705 -0.07034
 C186 C 0.02063 0.92771 -0.02948
 C187 C 0.02895 0.97852 0.07141
 C188 C 0.07070 1.02911 -0.02123
 C189 C -0.02204 1.07108 0.02956
 C190 C -0.07248 0.96976 0.02118
 C191 C -0.03059 1.02067 -0.07156
 Zn192 Zn 0.48046 0.00734 0.46162
 Zn193 Zn 0.50616 0.03867 0.51880
 Zn194 Zn 0.47492 -0.02415 0.52415
 Zn195 Zn 0.53770 -0.01846 0.49296
 O196 O 0.49979 0.00083 0.49941
 O197 O 0.47287 0.04801 0.45389
 O198 O 0.48681 0.04119 0.55592
 O199 O 0.43896 -0.03534 0.50516
 O200 O 0.49190 0.07127 0.49633
 O201 O 0.44320 -0.01190 0.45898
 O202 O 0.46364 -0.00525 0.56006
 O203 O 0.54037 -0.05571 0.51216
 O204 O 0.54681 0.04645 0.52649
 O205 O 0.49395 -0.06013 0.53529
 O206 O 0.57023 0.00410 0.50725
 O207 O 0.54548 -0.02609 0.45240
 O208 O 0.50299 -0.00697 0.42914
 C209 C 0.47843 0.07250 0.46986
 C210 C 0.46988 0.02181 0.57081
 C211 C 0.42822 -0.02892 0.47818
 C212 C 0.52107 -0.07077 0.52901
 C213 C 0.57136 0.03056 0.52086
 C214 C 0.52949 -0.02052 0.42795
 Zn215 Zn 0.98141 0.49311 0.53848
 Zn216 Zn 1.00738 0.46165 0.48150
 Zn217 Zn 0.97592 0.52440 0.47581
 Zn218 Zn 1.03864 0.51889 0.50731
 O219 O 1.00081 0.49953 0.50075
 O220 O 0.97375 0.45246 0.54618
 O221 O 0.98815 0.45901 0.44431
 O222 O 0.93990 0.53564 0.49463
 O223 O 0.99309 0.42909 0.50394
 O224 O 0.94416 0.51245 0.54096
 O225 O 0.96480 0.50539 0.43990
 O226 O 1.04118 0.55615 0.48814
 O227 O 1.04806 0.45391 0.47395
 O228 O 0.99486 0.56038 0.46469
 O229 O 1.07127 0.49641 0.49306
 O230 O 1.04638 0.52646 0.54790
 O231 O 1.00391 0.50734 0.57104
 C232 C 0.97942 0.42793 0.53029
 C233 C 0.97119 0.47830 0.42927
 C234 C 0.92917 0.52938 0.52163
 C235 C 1.02188 0.57113 0.47114
 C236 C 1.07253 0.46993 0.47952
 C237 C 1.03041 0.52085 0.57231
 Zn238 Zn 0.48175 0.49291 0.96166
 Zn239 Zn 0.47637 0.52441 1.02425
 Zn240 Zn 0.50771 0.46158 1.01870
 Zn241 Zn 0.53907 0.51868 0.99282
 O242 O 0.50120 0.49942 0.99938
 O243 O 0.44449 0.51223 0.95914
 O244 O 0.46524 0.50553 1.06018
 O245 O 0.49334 0.42899 0.99630
 O246 O 0.44033 0.53565 1.00538
 O247 O 0.47408 0.45224 0.95397
 O248 O 0.48853 0.45910 1.05589
 O249 O 0.57169 0.49612 1.00702
 O250 O 0.49540 0.56038 1.03535
 O251 O 0.54840 0.45376 1.02624
 O252 O 0.54173 0.55594 1.01203
 O253 O 0.54670 0.52626 0.95224
 O254 O 0.50417 0.50712 0.92910
 C255 C 0.42955 0.52927 0.97841
 C256 C 0.47160 0.47846 1.07087
 C257 C 0.47970 0.42776 0.96992
 C258 C 0.57290 0.46966 1.02059
 C259 C 0.52247 0.57102 1.02897
 C260 C 0.53065 0.52067 0.92784
 C261 C 1.21256 0.41578 0.42649
 N262 N 1.20873 0.44660 0.43363
 N263 N 1.18146 0.45699 0.44497
 C264 C 1.15720 0.43686 0.44954
 N265 N 1.16104 0.40603 0.44243
 N266 N 1.18832 0.39565 0.43109
 C267 C 1.24164 0.40473 0.41353
 C268 C 1.26593 0.39542 0.40232
 C269 C 1.12752 0.44825 0.46076
 C270 C 1.10247 0.45801 0.46965
 C271 C 0.28929 0.58510 0.92760
 N272 N 0.29231 0.55470 0.93664
 N273 N 0.31962 0.54408 0.94770
 C274 C 0.34473 0.56353 0.95007
 N275 N 0.34170 0.59395 0.94108
 N276 N 0.31438 0.60457 0.93002
 C277 C 0.26017 0.59630 0.91480
 C278 C 0.23585 0.60566 0.90365
 C279 C 0.37446 0.55177 0.96082
 C280 C 0.39956 0.54165 0.96922
 C281 C -0.21240 0.91460 0.07313
 N282 N -0.20896 0.94538 0.06568
 N283 N -0.18170 0.95599 0.05458
 C284 C -0.15706 0.93614 0.05059
 N285 N -0.16052 0.90536 0.05800
 N286 N -0.18778 0.89475 0.06910
 C287 C -0.24146 0.90335 0.08591
 C288 C -0.26573 0.89393 0.09701
 C289 C -0.12742 0.94777 0.03961
 C290 C -0.10239 0.95771 0.03090
 C291 C 0.71129 0.08564 0.57318
 N292 N 0.70800 0.05499 0.56511
 N293 N 0.68072 0.04441 0.55395
 C294 C 0.65593 0.06417 0.55051
 N295 N 0.65924 0.09482 0.55854
 N296 N 0.68651 0.10540 0.56970
 C297 C 0.74037 0.09684 0.58601
 C298 C 0.76467 0.10620 0.59717
 C299 C 0.62628 0.05255 0.53946
 C300 C 0.60126 0.04262 0.53067
 C301 C 0.42665 0.21266 0.41482
 N302 N 0.43456 0.20929 0.44543
 N303 N 0.44561 0.18197 0.45602
 C304 C 0.44909 0.15720 0.43631
 N305 N 0.44121 0.16058 0.40568
 N306 N 0.43017 0.18790 0.39510
 C307 C 0.41391 0.24179 0.40362
 C308 C 0.40281 0.26611 0.39426
 C309 C 0.46002 0.12750 0.44792
 C310 C 0.46871 0.10244 0.45784
 C311 C 0.92628 0.28818 0.58468
 N312 N 0.93084 0.31255 0.60467
 N313 N 0.94220 0.33976 0.59422
 C314 C 0.94937 0.34342 0.56347
 N315 N 0.94484 0.31904 0.54349
 N316 N 0.93347 0.29182 0.55394
 C317 C 0.91326 0.25917 0.59578
 C318 C 0.90199 0.23494 0.60511
 C319 C 0.96061 0.37303 0.55202
 C320 C 0.96951 0.39804 0.54222
 C321 C 0.07401 0.78778 -0.08367
 N322 N 0.06871 0.81187 -0.10380
 N323 N 0.05731 0.83911 -0.09337
 C324 C 0.05083 0.84308 -0.06250
 N325 N 0.05609 0.81898 -0.04238
 N326 N 0.06750 0.79174 -0.05281
 C327 C 0.08706 0.75875 -0.09477
 C328 C 0.09836 0.73450 -0.10412
 C329 C 0.03954 0.87273 -0.05110
 C330 C 0.03059 0.89777 -0.04134
 C331 C 0.57357 0.71121 1.08438
 N332 N 0.56480 0.70807 1.05398
 N333 N 0.55372 0.68077 1.04342
 C334 C 0.55104 0.65579 1.06295
 N335 N 0.55977 0.65894 1.09337
 N336 N 0.57085 0.68625 1.10393
 C337 C 0.58637 0.74032 1.09554
 C338 C 0.59751 0.76463 1.10487
 C339 C 0.54024 0.62607 1.05128
 C340 C 0.53176 0.60099 1.04125
 C341 C 0.41600 0.42778 1.21075
 N342 N 0.39640 0.43058 1.18583
 N343 N 0.40700 0.44161 1.15859
 C344 C 0.43752 0.45019 1.15547
 N345 N 0.45712 0.44743 1.18040
 N346 N 0.44652 0.43640 1.20764
 C347 C 0.40482 0.41500 1.23978
 C348 C 0.39546 0.40388 1.26401
 C349 C 0.44923 0.46090 1.12582
 C350 C 0.45930 0.46929 1.10079
 C351 C 0.58413 -0.07336 0.28836
 N352 N 0.55335 -0.06588 0.29193
 N353 N 0.54286 -0.05459 0.31913
 C354 C 0.56284 -0.05043 0.34357
 N355 N 0.59362 -0.05787 0.33999
 N356 N 0.60411 -0.06916 0.31279
 C357 C 0.59527 -0.08629 0.25936
 C358 C 0.60463 -0.09749 0.23515
 C359 C 0.55134 -0.03926 0.37315
 C360 C 0.54148 -0.03039 0.39812
 C361 C -0.08524 1.07331 -0.21124
 N362 N -0.10513 1.06961 -0.18670
 N363 N -0.09466 1.05836 -0.15948
 C364 C -0.06397 1.05044 -0.15599
 N365 N -0.04409 1.05411 -0.18054
 N366 N -0.05457 1.06536 -0.20776
 C367 C -0.09636 1.08622 -0.24026
 C368 C -0.10568 1.09741 -0.26450
 C369 C -0.05246 1.03931 -0.12639
 C370 C -0.04260 1.03049 -0.10141
 C371 C 1.08544 0.57300 0.71208
 N372 N 1.05465 0.56558 0.70853
 N373 N 1.04406 0.55445 0.68130
 C374 C 1.06394 0.55037 0.65680
 N375 N 1.09474 0.55774 0.66036
 N376 N 1.10533 0.56888 0.68759
 C377 C 1.09667 0.58582 0.74110
 C378 C 1.10607 0.59695 0.76534
 C379 C 1.05233 0.53935 0.62719
 C380 C 1.04242 0.53060 0.60219
 C381 C 0.78891 0.58554 0.57189
 N382 N 0.79183 0.55517 0.56269
 N383 N 0.81915 0.54447 0.55176
 C384 C 0.84437 0.56382 0.54969
 N385 N 0.84143 0.59420 0.55885
 N386 N 0.81411 0.60490 0.56978
 C387 C 0.75979 0.59680 0.58461
 C388 C 0.73549 0.60617 0.59572
 C389 C 0.87410 0.55197 0.53907
 C390 C 0.89919 0.54180 0.53076
 C391 C 0.71284 0.41468 1.07323
 N392 N 0.70925 0.44549 1.06598
 N393 N 0.68200 0.45606 1.05470
 C394 C 0.65753 0.43613 1.05033
 N395 N 0.66114 0.40531 1.05755
 N396 N 0.68839 0.39474 1.06882
 C397 C 0.74188 0.40346 1.08619
 C398 C 0.76613 0.39406 1.09744
 C399 C 0.62788 0.44772 1.03920
 C400 C 0.60284 0.45763 1.03038
 C401 C 0.21075 1.08424 -0.07276
 N402 N 0.20770 1.05387 -0.06366
 N403 N 0.18044 1.04340 -0.05243
 C404 C 0.15541 1.06300 -0.04993
 N405 N 0.15847 1.09338 -0.05898
 N406 N 0.18573 1.10385 -0.07021
 C407 C 0.23981 1.09527 -0.08573
 C408 C 0.26407 1.10453 -0.09699
 C409 C 0.12572 1.05140 -0.03902
 C410 C 0.10066 1.04139 -0.03051
 C411 C 0.28798 -0.08445 0.42728
 N412 N 0.29096 -0.05410 0.43650
 N413 N 0.31828 -0.04353 0.44755
 C414 C 0.34344 -0.06300 0.44973
 N415 N 0.34045 -0.09337 0.44054
 N416 N 0.31313 -0.10393 0.42950
 C417 C 0.25886 -0.09558 0.41447
 C418 C 0.23454 -0.10488 0.40331
 C419 C 0.37317 -0.05131 0.46049
 C420 C 0.39826 -0.04124 0.46892
 C421 C 0.57242 -0.21093 0.58438
 N422 N 0.56996 -0.18585 0.60386
 N423 N 0.55880 -0.15856 0.59333
 C424 C 0.54974 -0.15553 0.56299
 N425 N 0.55216 -0.18061 0.54352
 N426 N 0.56332 -0.20791 0.55406
 C427 C 0.58535 -0.24002 0.59548
 C428 C 0.59659 -0.26431 0.60477
 C429 C 0.53888 -0.12582 0.55133
 C430 C 0.53038 -0.10074 0.54129
 C431 C 1.07270 0.71137 0.41586
 N432 N 1.07035 0.68628 0.39637
 N433 N 1.05930 0.65897 0.40689
 C434 C 1.05024 0.65592 0.43721
 N435 N 1.05255 0.68102 0.45668
 N436 N 1.06360 0.70833 0.44616
 C437 C 1.08551 0.74048 0.40477
 C438 C 1.09666 0.76478 0.39550
 C439 C 1.03950 0.62620 0.44885
 C440 C 1.03109 0.60111 0.45888
 C441 C -0.07296 1.21129 0.08535
 N442 N -0.06394 1.20830 0.05501
 N443 N -0.05290 1.18099 0.04437
 C444 C -0.05051 1.15586 0.06376
 N445 N -0.05948 1.15886 0.09411
 N446 N -0.07053 1.18617 0.10474
 C447 C -0.08577 1.24040 0.09656
 C448 C -0.09694 1.26471 0.10591
 C449 C -0.03975 1.12614 0.05199
 C450 C -0.03131 1.10106 0.04189
 C451 C 0.42651 0.28787 0.91567
 N452 N 0.43096 0.31222 0.89566
 N453 N 0.44234 0.33946 0.90608
 C454 C 0.44961 0.34317 0.93682
 N455 N 0.44519 0.31881 0.95681
 N456 N 0.43382 0.29157 0.94639
 C457 C 0.41347 0.25884 0.90460
 C458 C 0.40218 0.23460 0.89530
 C459 C 0.46086 0.37281 0.94824
 C460 C 0.46978 0.39784 0.95801
 C461 C 0.58455 0.57362 0.78812
 N462 N 0.55385 0.56589 0.79174
 N463 N 0.54353 0.55456 0.81895
 C464 C 0.56358 0.55060 0.84336
 N465 N 0.59428 0.55830 0.83973
 N466 N 0.60461 0.56963 0.81251
 C467 C 0.59551 0.58660 0.75909
 C468 C 0.60472 0.59783 0.73486
 C469 C 0.55224 0.53940 0.87297
 C470 C 0.54251 0.53053 0.89797
 C471 C 0.41365 0.07191 0.71076
 N472 N 0.44381 0.06195 0.70807
 N473 N 0.45451 0.05109 0.68078
 C474 C 0.43537 0.04984 0.65538
 N475 N 0.40520 0.05976 0.65808
 N476 N 0.39449 0.07063 0.68537
 C477 C 0.40242 0.08457 0.73986
 C478 C 0.39309 0.09564 0.76415
 C479 C 0.44724 0.03927 0.62572
 C480 C 0.45744 0.03096 0.60069
 C481 C 0.08459 0.92799 0.21146
 N482 N 0.05424 0.93728 0.20845
 N483 N 0.04366 0.94828 0.18117
 C484 C 0.06311 0.95034 0.15609
 N485 N 0.09347 0.94109 0.15912
 N486 N 0.10405 0.93009 0.18640
 C487 C 0.09573 0.91522 0.24054
 C488 C 0.10504 0.90409 0.26481
 C489 C 0.05139 0.96102 0.12640
 C490 C 0.04130 0.96937 0.10135
 C491 C 0.91587 0.42683 0.28939
 N492 N 0.94632 0.43567 0.29254
 N493 N 0.95685 0.44686 0.31977
 C494 C 0.93723 0.44958 0.34467
 N495 N 0.90677 0.44079 0.34151
 N496 N 0.89624 0.42960 0.31428
 C497 C 0.90476 0.41391 0.26036
 C498 C 0.89545 0.40269 0.23613
 C499 C 0.94888 0.46047 0.37432
 C500 C 0.95891 0.46899 0.39935
   
