data_POSCAR
  _audit_creation_date              2014-09-24
  _audit_creation_method            'ToBaCCo'
  _symmetry_space_group_name_H-M    'P1'
  _symmetry_Int_Tables_number       1
  _symmetry_cell_setting            triclinic
  loop_
  _symmetry_equiv_pos_as_xyz
 x,y,z
_cell_length_a 25.2064
_cell_length_b 25.2774
_cell_length_c 25.3341
_cell_angle_alpha 89.460800
_cell_angle_beta 89.511400
_cell_angle_gamma 90.664500
loop_
  _atom_site_label
  _atom_site_type_symbol
  _atom_site_fract_x
  _atom_site_fract_y
  _atom_site_fract_z
O1 O 0.60274 0.11688 0.00262
 O2 O 0.64636 0.03803 0.01023
 C3 C 0.64558 0.08933 0.00858
 O4 O 0.42026 0.02230 0.12948
 O5 O 0.36937 0.02950 0.05545
 C6 C 0.37521 0.02907 0.10622
 O7 O 0.56651 0.01229 0.13797
 O8 O 0.62977 -0.01365 0.07880
 C9 C 0.61532 0.00260 0.12550
 O10 O 0.45843 0.14351 -0.02046
 O11 O 0.38640 0.08730 -0.01569
 C12 C 0.40767 0.13390 -0.02215
 Zr13 Zr 0.52285 0.09213 -0.00700
 O14 O 0.52634 0.15784 0.04393
 O15 O 0.54596 0.14069 -0.07200
 Zr16 Zr 0.49609 0.00984 0.09568
 O17 O 0.49854 0.07593 0.14625
 O18 O 0.48808 -0.04331 0.16047
 O19 O 0.55626 0.04989 0.05466
 O20 O 0.46526 0.06729 0.04675
 O21 O 0.43916 0.00345 -0.13581
 O22 O 0.37809 0.01868 -0.07026
 C23 C 0.39145 0.01467 -0.11937
 O24 O 0.54784 -0.14413 0.01311
 O25 O 0.62024 -0.08884 0.01713
 C26 C 0.59858 -0.13574 0.01581
 O27 O 0.40327 -0.11589 0.00989
 O28 O 0.36016 -0.03738 -0.00190
 C29 C 0.36048 -0.08847 0.00369
 O30 O 0.58329 -0.03338 -0.12212
 O31 O 0.63789 -0.03206 -0.04986
 C32 C 0.62892 -0.03945 -0.09966
 Zr33 Zr 0.50970 -0.00918 -0.09074
 O34 O 0.49616 -0.06984 -0.14622
 O35 O 0.53287 0.04357 -0.15238
 Zr36 Zr 0.48388 -0.09163 0.01289
 O37 O 0.47025 -0.16029 -0.03211
 O38 O 0.47473 -0.13822 0.08243
 Zr39 Zr 0.58132 -0.01503 0.00961
 Zr40 Zr 0.42593 0.01502 -0.00391
 O41 O 0.45125 -0.04958 -0.04908
 O42 O 0.54160 -0.06734 -0.04177
 O43 O 0.47189 0.05687 -0.06079
 O44 O 0.53430 -0.05568 0.06601
 O45 O 0.56392 0.03844 -0.05214
 O46 O 0.44131 -0.03858 0.05809
 H47 H 0.44467 0.09532 0.06440
 H48 H 0.55304 -0.07856 0.09162
 H49 H 0.42554 -0.06904 -0.07124
 H50 H 0.59377 0.05310 -0.07363
 H51 H 0.45507 -0.06408 0.15528
 H52 H 0.43832 -0.13304 0.09622
 H53 H 0.47723 -0.15027 -0.06930
 H54 H 0.51564 -0.10133 -0.13393
 H55 H 0.50545 0.07113 -0.15506
 H56 H 0.51641 0.14062 -0.09745
 H57 H 0.53895 0.14443 0.07838
 H58 H 0.49322 0.06200 0.18266
 O59 O 0.00309 0.41215 -0.12465
 O60 O 0.02143 0.36286 -0.05067
 C61 C 0.01349 0.36759 -0.10093
 O62 O 0.12048 0.59674 -0.02060
 O63 O 0.04148 0.64046 -0.01690
 C64 C 0.09283 0.63973 -0.02017
 O65 O 0.14719 0.45221 -0.02170
 O66 O 0.09271 0.38150 -0.00195
 C67 C 0.13854 0.40190 -0.01531
 O68 O -0.03601 0.55470 -0.13380
 O69 O -0.02864 0.62157 -0.07391
 C70 C -0.03852 0.60428 -0.12105
 Zr71 Zr -0.00856 0.48846 -0.09175
 O72 O 0.04414 0.49811 -0.15664
 O73 O -0.07506 0.46773 -0.13804
 Zr74 Zr 0.09575 0.51668 -0.01424
 O75 O 0.14424 0.52843 -0.08207
 O76 O 0.16241 0.52654 0.03514
 O77 O 0.05887 0.45719 -0.05756
 O78 O 0.04043 0.54852 -0.06472
 O79 O -0.14043 0.54385 0.01096
 O80 O -0.08506 0.61547 -0.00162
 C81 C -0.13198 0.59422 0.00444
 O82 O 0.02980 0.43699 0.13894
 O83 O 0.03675 0.37538 0.07335
 C84 C 0.03706 0.38887 0.12255
 O85 O 0.01186 0.58510 0.12517
 O86 O -0.01097 0.63438 0.05240
 C87 C 0.00072 0.62966 0.10192
 O88 O -0.11117 0.40077 0.02906
 O89 O -0.03250 0.35670 0.02205
 C90 C -0.08357 0.35771 0.02899
 Zr91 Zr -0.08746 0.48043 0.01621
 O92 O -0.13572 0.48141 0.08505
 O93 O -0.15364 0.45892 -0.02998
 Zr94 Zr 0.01679 0.50759 0.09385
 O95 O -0.03331 0.50938 0.16124
 O96 O 0.08431 0.51778 0.14204
 Zr97 Zr 0.01947 0.42139 0.00720
 Zr98 Zr -0.01122 0.57591 -0.00568
 O99 O -0.05005 0.53883 0.05894
 O100 O -0.03259 0.44708 0.06704
 O101 O -0.06522 0.52851 -0.04762
 O102 O 0.07315 0.46901 0.04907
 O103 O -0.04676 0.43767 -0.03969
 O104 O 0.05520 0.56025 0.04203
 H105 H 0.05445 0.57405 -0.09144
 H106 H 0.10199 0.45132 0.06858
 H107 H -0.07318 0.56045 0.08182
 H108 H -0.06693 0.40843 -0.05623
 H109 H 0.15481 0.55616 0.05917
 H110 H 0.10123 0.55198 0.13209
 H111 H -0.05634 0.47750 0.16011
 H112 H -0.12540 0.45120 0.10771
 H113 H -0.14810 0.47545 -0.06518
 H114 H -0.06303 0.46701 -0.17534
 H115 H 0.02305 0.49275 -0.18898
 H116 H 0.13378 0.50120 -0.10792
 O117 O -0.13199 -0.02762 0.58091
 O118 O -0.06190 -0.02344 0.63821
 C119 C -0.11170 -0.03095 0.62780
 O120 O 0.00159 -0.13062 0.41693
 O121 O -0.00301 -0.05493 0.36699
 C122 C 0.00029 -0.10574 0.37183
 O123 O -0.00786 -0.14543 0.56386
 O124 O -0.00363 -0.08389 0.62958
 C125 C -0.01005 -0.13211 0.61310
 O126 O -0.13706 0.00262 0.43567
 O127 O -0.06954 0.00821 0.37460
 C128 C -0.11928 0.00918 0.38781
 Zr129 Zr -0.09645 -0.00738 0.50729
 O130 O -0.16197 -0.06005 0.50194
 O131 O -0.14931 0.05573 0.51948
 Zr132 Zr -0.00036 -0.09959 0.49465
 O133 O -0.05614 -0.16166 0.48409
 O134 O 0.06227 -0.15473 0.49531
 O135 O -0.05455 -0.06580 0.54630
 O136 O -0.05700 -0.05616 0.45516
 O137 O -0.00370 0.13536 0.44077
 O138 O -0.00712 0.06967 0.37924
 C139 C -0.00390 0.11891 0.39205
 O140 O 0.13453 -0.00235 0.57326
 O141 O 0.06600 -0.01355 0.63271
 C142 C 0.11577 -0.00596 0.62103
 O143 O 0.12978 0.00262 0.42445
 O144 O 0.05710 0.00743 0.37107
 C145 C 0.10773 0.00671 0.37825
 O146 O 0.00097 0.12000 0.58978
 O147 O 0.00143 0.04453 0.64084
 C148 C 0.00203 0.09561 0.63519
 Zr149 Zr -0.00325 0.08871 0.51235
 O150 O 0.05360 0.15101 0.51211
 O151 O -0.06574 0.14295 0.52290
 Zr152 Zr 0.09304 -0.00410 0.50085
 O153 O 0.15536 0.05256 0.49794
 O154 O 0.14878 -0.06617 0.50031
 Zr155 Zr -0.00004 -0.01381 0.58229
 Zr156 Zr -0.00434 0.00210 0.42619
 O157 O 0.05064 0.05364 0.46196
 O158 O 0.05314 0.04513 0.55354
 O159 O -0.05853 0.05240 0.46369
 O160 O 0.05411 -0.06325 0.54368
 O161 O -0.05566 0.04224 0.55696
 O162 O 0.05237 -0.05386 0.44980
 H163 H -0.07906 -0.07575 0.42955
 H164 H 0.07589 -0.08653 0.56630
 H165 H 0.07263 0.07822 0.44008
 H166 H -0.07753 0.05992 0.58413
 H167 H 0.08371 -0.14868 0.46288
 H168 H 0.14868 -0.08176 0.46464
 H169 H 0.14333 0.08318 0.51865
 H170 H 0.08025 0.14248 0.53924
 H171 H -0.08895 0.14037 0.49169
 H172 H -0.18525 0.03954 0.52120
 H173 H -0.14874 -0.09306 0.48626
 H174 H -0.08691 -0.15405 0.50720
 C175 C -0.25512 0.20106 0.02319
 C176 C -0.20843 0.17381 0.02764
 C177 C -0.20661 0.11884 0.02604
 C178 C -0.25482 0.09106 0.01969
 C179 C -0.30352 0.11852 0.01476
 C180 C -0.30321 0.17445 0.01670
 O181 O -0.24857 0.25308 0.02463
 C182 C -0.19660 0.25895 0.02996
 C183 C -0.16997 0.21184 0.03201
 C184 C -0.11493 0.20954 0.03581
 C185 C -0.08635 0.25775 0.03662
 C186 C -0.11317 0.30686 0.03378
 C187 C -0.16926 0.30696 0.03123
 H188 H -0.16944 0.09812 0.02940
 H189 H -0.25405 0.04827 0.01848
 H190 H -0.33935 0.19691 0.01316
 H191 H -0.09468 0.17202 0.03706
 H192 H -0.04347 0.25670 0.03849
 H193 H -0.19127 0.34338 0.02831
 C194 C 0.26187 0.79879 -0.00570
 C195 C 0.21482 0.82543 -0.01001
 C196 C 0.21238 0.88045 -0.00885
 C197 C 0.26042 0.90890 -0.00360
 C198 C 0.30947 0.88202 0.00066
 C199 C 0.30965 0.82604 -0.00005
 O200 O 0.25621 0.74671 -0.00778
 C201 C 0.20440 0.74004 -0.01349
 C202 C 0.17702 0.78678 -0.01508
 C203 C 0.12212 0.78824 -0.02049
 C204 C 0.09453 0.73964 -0.02362
 C205 C 0.12208 0.69092 -0.02138
 C206 C 0.17801 0.69159 -0.01685
 H207 H 0.17498 0.90075 -0.01220
 H208 H 0.25932 0.95172 -0.00325
 H209 H 0.34607 0.80397 0.00290
 H210 H 0.10119 0.82536 -0.02172
 H211 H 0.05176 0.74005 -0.02712
 H212 H 0.20054 0.65543 -0.01467
 C213 C 0.28944 0.22560 -0.02057
 C214 C 0.31128 0.26871 -0.04652
 C215 C 0.36285 0.26981 -0.06625
 C216 C 0.39367 0.22475 -0.05855
 C217 C 0.37264 0.17951 -0.03178
 C218 C 0.31935 0.17973 -0.01305
 O219 O 0.24033 0.23420 -0.00297
 C220 C 0.23120 0.28384 -0.01821
 C221 C 0.27354 0.30636 -0.04505
 C222 C 0.27394 0.35819 -0.06337
 C223 C 0.22898 0.38848 -0.05348
 C224 C 0.18439 0.36696 -0.02554
 C225 C 0.18540 0.31340 -0.00808
 H226 H 0.37916 0.30455 -0.08605
 H227 H 0.43413 0.22526 -0.07331
 H228 H 0.30247 0.14612 0.00822
 H229 H 0.30791 0.37493 -0.08422
 H230 H 0.22912 0.42896 -0.06781
 H231 H 0.15228 0.29580 0.01347
 C232 C -0.28319 0.77092 0.01192
 C233 C -0.31021 0.72344 0.01108
 C234 C -0.36496 0.71920 0.01315
 C235 C -0.39368 0.76592 0.01578
 C236 C -0.36775 0.81625 0.01597
 C237 C -0.31127 0.81869 0.01430
 O238 O -0.23064 0.76491 0.00999
 C239 C -0.22493 0.71251 0.00781
 C240 C -0.27273 0.68585 0.00822
 C241 C -0.27728 0.63129 0.00615
 C242 C -0.23054 0.60239 0.00410
 C243 C -0.17994 0.62796 0.00435
 C244 C -0.17717 0.68423 0.00583
 H245 H -0.38500 0.68111 0.01259
 H246 H -0.43651 0.76243 0.01714
 H247 H -0.29010 0.85620 0.01426
 H248 H -0.31561 0.61154 0.00630
 H249 H -0.23419 0.55972 0.00258
 H250 H -0.13941 0.70506 0.00620
 C251 C 0.00393 -0.27625 0.21685
 C252 C 0.00514 -0.22856 0.19030
 C253 C 0.00499 -0.22442 0.13563
 C254 C 0.00330 -0.27149 0.10698
 C255 C 0.00204 -0.32143 0.13326
 C256 C 0.00267 -0.32367 0.18913
 O257 O 0.00330 -0.27112 0.26898
 C258 C 0.00407 -0.21903 0.27535
 C259 C 0.00533 -0.19135 0.22836
 C260 C 0.00564 -0.13654 0.22550
 C261 C 0.00429 -0.10894 0.27309
 C262 C 0.00257 -0.13634 0.32242
 C263 C 0.00278 -0.19238 0.32336
 H264 H 0.00594 -0.18633 0.11574
 H265 H 0.00334 -0.26887 0.06431
 H266 H 0.00163 -0.36103 0.21038
 H267 H 0.00661 -0.11574 0.18796
 H268 H 0.00439 -0.06614 0.27124
 H269 H 0.00142 -0.21455 0.36012
 C270 C 0.01196 0.27072 0.78561
 C271 C 0.00927 0.22373 0.81335
 C272 C 0.00911 0.22100 0.86805
 C273 C 0.01164 0.26871 0.89551
 C274 C 0.01385 0.31814 0.86818
 C275 C 0.01404 0.31897 0.81220
 O276 O 0.01165 0.26407 0.73361
 C277 C 0.00854 0.21179 0.72866
 C278 C 0.00674 0.18547 0.77636
 C279 C 0.00246 0.13082 0.78075
 C280 C 0.00028 0.10186 0.73398
 C281 C 0.00316 0.12764 0.68389
 C282 C 0.00697 0.18368 0.68143
 H283 H 0.00683 0.18346 0.88890
 H284 H 0.01084 0.26692 0.93824
 H285 H 0.01548 0.35584 0.79012
 H286 H 0.00063 0.11114 0.81887
 H287 H -0.00337 0.05922 0.73701
 H288 H 0.00879 0.20477 0.64405
 C289 C 0.02773 0.30031 0.24479
 C290 C 0.04377 0.25397 0.22217
 C291 C 0.06263 0.25038 0.17091
 C292 C 0.06366 0.29638 0.14040
 C293 C 0.04461 0.34489 0.16073
 C294 C 0.02766 0.34730 0.21446
 O295 O 0.01025 0.29328 0.29441
 C296 C 0.01496 0.24120 0.30247
 C297 C 0.03460 0.21604 0.25874
 C298 C 0.03908 0.16193 0.25508
 C299 C 0.02381 0.13186 0.29878
 C300 C 0.00587 0.15554 0.34645
 C301 C 0.00110 0.21160 0.34828
 H302 H 0.07505 0.21310 0.15446
 H303 H 0.07737 0.29341 0.09991
 H304 H 0.01233 0.38344 0.23097
 H305 H 0.05304 0.14326 0.21936
 H306 H 0.02698 0.08955 0.29512
 H307 H -0.01311 0.23107 0.38344
 C308 C -0.04180 -0.27541 0.79614
 C309 C -0.06364 -0.29698 0.75168
 C310 C -0.08081 -0.34900 0.74861
 C311 C -0.07368 -0.38128 0.79270
 C312 C -0.05064 -0.36129 0.83984
 C313 C -0.03676 -0.30641 0.84219
 O314 O -0.02246 -0.22661 0.78759
 C315 C -0.03237 -0.21780 0.73658
 C316 C -0.05792 -0.25986 0.71353
 C317 C -0.06920 -0.26215 0.66033
 C318 C -0.05319 -0.21945 0.62883
 C319 C -0.02580 -0.17522 0.65037
 C320 C -0.01607 -0.17386 0.70559
 H321 H -0.09684 -0.36499 0.71254
 H322 H -0.08594 -0.42236 0.78952
 H323 H -0.01790 -0.28968 0.87659
 H324 H -0.08890 -0.29618 0.64337
 H325 H -0.06232 -0.22127 0.58720
 H326 H 0.00485 -0.14093 0.72322
 C327 C 0.29827 0.00574 0.76370
 C328 C 0.25762 0.03616 0.78283
 C329 C 0.26020 0.06315 0.83003
 C330 C 0.30601 0.05748 0.85992
 C331 C 0.34815 0.02464 0.84285
 C332 C 0.34483 -0.00067 0.79318
 O333 O 0.28629 -0.01724 0.71809
 C334 C 0.23699 -0.00116 0.70889
 C335 C 0.21784 0.03118 0.74781
 C336 C 0.16655 0.05046 0.74845
 C337 C 0.13342 0.03624 0.70691
 C338 C 0.15197 0.00406 0.66532
 C339 C 0.20479 -0.01480 0.66605
 H340 H 0.22761 0.08696 0.84393
 H341 H 0.30795 0.07780 0.89732
 H342 H 0.37598 -0.02634 0.77934
 H343 H 0.15237 0.07530 0.78003
 H344 H 0.09355 0.05139 0.70646
 H345 H 0.21982 -0.03968 0.63489
 C346 C -0.26243 0.00848 0.20602
 C347 C -0.28119 0.04039 0.24542
 C348 C -0.33200 0.05957 0.24724
 C349 C -0.36588 0.04526 0.20698
 C350 C -0.34875 0.01343 0.16365
 C351 C -0.29512 -0.00425 0.16277
 O352 O -0.21423 -0.01011 0.21679
 C353 C -0.20321 0.01086 0.26380
 C354 C -0.24310 0.04257 0.28205
 C355 C -0.24315 0.06614 0.33116
 C356 C -0.20063 0.05581 0.36408
 C357 C -0.15922 0.02211 0.34787
 C358 C -0.15951 0.00015 0.29633
 H359 H -0.34583 0.08351 0.27967
 H360 H -0.40567 0.06080 0.20970
 H361 H -0.28045 -0.02931 0.13156
 H362 H -0.27563 0.09047 0.34435
 H363 H -0.20057 0.07325 0.40300
 H364 H -0.12867 -0.02640 0.28349
 C365 C 0.28201 0.03008 0.22392
 C366 C 0.23439 0.03443 0.19843
 C367 C 0.23017 0.04058 0.14414
 C368 C 0.27713 0.04104 0.11441
 C369 C 0.32705 0.03480 0.13921
 C370 C 0.32944 0.03023 0.19504
 O371 O 0.27658 0.02302 0.27583
 C372 C 0.22425 0.02245 0.28299
 C373 C 0.19702 0.02890 0.23659
 C374 C 0.14234 0.02597 0.23353
 C375 C 0.11421 0.01671 0.28035
 C376 C 0.14058 0.01236 0.32970
 C377 C 0.19678 0.01469 0.33085
 H378 H 0.19199 0.04391 0.12524
 H379 H 0.27427 0.04481 0.07192
 H380 H 0.36675 0.02496 0.21518
 H381 H 0.12202 0.02970 0.19623
 H382 H 0.07157 0.01290 0.27767
 H383 H 0.21826 0.01041 0.36744
 C384 C -0.24749 -0.03870 0.81590
 C385 C -0.25754 -0.08281 0.78594
 C386 C -0.30102 -0.11612 0.79467
 C387 C -0.33647 -0.10277 0.83510
 C388 C -0.32777 -0.05708 0.86593
 C389 C -0.28194 -0.02521 0.85720
 O390 O -0.20702 -0.00960 0.79734
 C391 C -0.19155 -0.03573 0.75465
 C392 C -0.22135 -0.08078 0.74609
 C393 C -0.21594 -0.11139 0.70114
 C394 C -0.17866 -0.09467 0.66308
 C395 C -0.14749 -0.04842 0.67071
 C396 C -0.15316 -0.01899 0.71763
 H397 H -0.30873 -0.14977 0.76966
 H398 H -0.37196 -0.12676 0.84109
 H399 H -0.27568 0.01096 0.87898
 H400 H -0.24075 -0.14594 0.69479
 H401 H -0.17445 -0.11733 0.62722
 H402 H -0.13059 0.01714 0.72361
   
