data_POSCAR
  _audit_creation_date              2014-09-24
  _audit_creation_method            'ToBaCCo'
  _symmetry_space_group_name_H-M    'P1'
  _symmetry_Int_Tables_number       1
  _symmetry_cell_setting            triclinic
  loop_
  _symmetry_equiv_pos_as_xyz
 x,y,z
_cell_length_a 35.6991
_cell_length_b 38.5263
_cell_length_c 35.2628
_cell_angle_alpha 90.082100
_cell_angle_beta 89.930800
_cell_angle_gamma 89.988400
loop_
  _atom_site_label
  _atom_site_type_symbol
  _atom_site_fract_x
  _atom_site_fract_y
  _atom_site_fract_z
C1 C 1.25134 0.25000 0.24905
 C2 C 0.74956 -0.25053 0.24931
 C3 C 0.74973 0.24990 -0.24942
 C4 C 1.25113 -0.25038 -0.24938
 C5 C 0.25037 0.25029 0.75086
 C6 C 0.74890 0.75012 0.75061
 C7 C 0.74887 0.25055 0.24944
 C8 C 0.25043 0.75021 0.24937
 N9 N 1.06694 0.03580 0.04154
 N10 N 1.09258 0.05957 0.04886
 N11 N 1.04084 -0.03717 0.06774
 N12 N 1.04842 -0.06059 0.09398
 N13 N 1.06685 -0.03719 0.04135
 N14 N 1.09281 -0.06061 0.04893
 N15 N 1.04092 0.03581 0.06793
 N16 N 1.04814 0.05958 0.09391
 C17 C 1.08013 0.07439 0.08128
 C18 C 1.08058 -0.07526 0.08150
 N19 N 0.93392 -0.03677 0.04145
 N20 N 0.90824 -0.06051 0.04872
 N21 N 0.96011 0.03604 0.06808
 N22 N 0.95284 0.05966 0.09425
 N23 N 0.93408 0.03618 0.04176
 N24 N 0.90842 0.05990 0.04930
 N25 N 0.95998 -0.03691 0.06773
 N26 N 0.95274 -0.06074 0.09359
 Mn27 Mn 1.00046 -0.00056 0.06822
 C28 C 0.92071 -0.07545 0.08099
 C29 C 0.92085 0.07455 0.08179
 N30 N 1.06665 -0.03696 -0.04054
 N31 N 1.09222 -0.06077 -0.04805
 N32 N 1.04082 0.03613 -0.06656
 N33 N 1.04816 0.05985 -0.09252
 N34 N 1.06689 0.03599 -0.04029
 N35 N 1.09267 0.05962 -0.04768
 N36 N 1.04060 -0.03681 -0.06684
 N37 N 1.04775 -0.06051 -0.09295
 Mn38 Mn 1.06719 -0.00059 0.00051
 C39 C 1.07969 -0.07545 -0.08048
 C40 C 1.08025 0.07451 -0.08001
 N41 N 0.93396 0.03638 -0.04011
 N42 N 0.90811 0.05993 -0.04759
 N43 N 0.95980 -0.03661 -0.06676
 N44 N 0.95238 -0.06016 -0.09294
 N45 N 0.93379 -0.03660 -0.04038
 N46 N 0.90796 -0.06016 -0.04789
 N47 N 0.95998 0.03637 -0.06649
 N48 N 0.95254 0.05990 -0.09262
 Mn49 Mn 0.93359 -0.00020 0.00069
 Mn50 Mn 1.00031 -0.00023 -0.06701
 Cl51 Cl 1.00039 -0.00040 0.00060
 C52 C 0.92044 0.07463 -0.08009
 C53 C 0.92030 -0.07487 -0.08042
 N54 N 1.03977 0.43888 0.54036
 N55 N 1.06399 0.41413 0.54856
 N56 N 0.96088 0.46265 0.56663
 N57 N 0.93667 0.45453 0.59357
 N58 N 0.96111 0.43873 0.54003
 N59 N 0.93707 0.41379 0.54813
 N60 N 1.03959 0.46279 0.56698
 N61 N 1.06369 0.45486 0.59402
 C62 C 1.07909 0.42482 0.58167
 C63 C 0.92162 0.42437 0.58117
 N64 N 0.96095 0.56175 0.54034
 N65 N 0.93664 0.58648 0.54844
 N66 N 1.03947 0.53781 0.56712
 N67 N 1.06389 0.54547 0.59397
 N68 N 1.03959 0.56180 0.54066
 N69 N 1.06408 0.58635 0.54876
 N70 N 0.96078 0.53776 0.56679
 N71 N 0.93634 0.54561 0.59363
 Mn72 Mn 1.00018 0.50026 0.56722
 C73 C 0.92111 0.57570 0.58132
 C74 C 1.07938 0.57544 0.58166
 N75 N 0.96162 0.43893 0.45828
 N76 N 0.93726 0.41428 0.45012
 N77 N 1.04043 0.46306 0.43220
 N78 N 1.06502 0.45532 0.40548
 N79 N 1.04026 0.43907 0.45866
 N80 N 1.06473 0.41445 0.45068
 N81 N 0.96174 0.46289 0.43179
 N82 N 0.93743 0.45509 0.40486
 Mn83 Mn 1.00069 0.43867 0.49932
 C84 C 0.92201 0.42507 0.41714
 C85 C 1.08033 0.42531 0.41787
 N86 N 1.04009 0.56208 0.45889
 N87 N 1.06394 0.58717 0.45066
 N88 N 0.96160 0.53792 0.43204
 N89 N 0.93716 0.54559 0.40523
 N90 N 0.96143 0.56184 0.45863
 N91 N 0.93688 0.58637 0.45068
 N92 N 1.04031 0.53818 0.43226
 N93 N 1.06432 0.54647 0.40518
 Mn94 Mn 1.00052 0.56210 0.49964
 Mn95 Mn 1.00103 0.50050 0.43173
 Cl96 Cl 1.00061 0.50038 0.49948
 C97 C 1.07927 0.57672 0.41751
 C98 C 0.92160 0.57550 0.41771
 N99 N 0.56579 0.03664 0.54026
 N100 N 0.59167 0.06014 0.54774
 N101 N 0.54007 -0.03629 0.56694
 N102 N 0.54753 -0.05980 0.59308
 N103 N 0.56608 -0.03631 0.54056
 N104 N 0.59193 -0.05983 0.54801
 N105 N 0.53979 0.03669 0.56666
 N106 N 0.54729 0.06024 0.59282
 C107 C 0.57939 0.07491 0.58026
 C108 C 0.57963 -0.07450 0.58051
 N109 N 0.43331 -0.03681 0.54045
 N110 N 0.40774 -0.06061 0.54781
 N111 N 0.45892 0.03636 0.56656
 N112 N 0.45138 0.06011 0.59251
 N113 N 0.43295 0.03610 0.54018
 N114 N 0.40706 0.05966 0.54747
 N115 N 0.45925 -0.03657 0.56686
 N116 N 0.45201 -0.06022 0.59293
 Mn117 Mn 0.49950 0.00005 0.56712
 C118 C 0.42014 -0.07520 0.58028
 C119 C 0.41928 0.07465 0.57985
 N120 N 0.56612 -0.03671 0.45883
 N121 N 0.59193 -0.06037 0.45168
 N122 N 0.53991 0.03596 0.43206
 N123 N 0.54724 0.05954 0.40593
 N124 N 0.56582 0.03620 0.45849
 N125 N 0.59147 0.05993 0.45107
 N126 N 0.54017 -0.03698 0.43243
 N127 N 0.54764 -0.06084 0.40659
 Mn128 Mn 0.56629 -0.00004 0.49952
 C129 C 0.57967 -0.07542 0.41937
 C130 C 0.57916 0.07449 0.41855
 N131 N 0.43307 0.03567 0.45844
 N132 N 0.40738 0.05939 0.45117
 N133 N 0.45928 -0.03733 0.43226
 N134 N 0.45168 -0.06079 0.40600
 N135 N 0.43327 -0.03728 0.45865
 N136 N 0.40730 -0.06069 0.45107
 N137 N 0.45907 0.03565 0.43205
 N138 N 0.45179 0.05935 0.40608
 Mn139 Mn 0.43281 -0.00058 0.49944
 Mn140 Mn 0.49962 -0.00068 0.43183
 Cl141 Cl 0.49955 -0.00032 0.49948
 C142 C 0.41979 0.07414 0.41876
 C143 C 0.41951 -0.07541 0.41850
 N144 N 0.56592 0.53686 0.04100
 N145 N 0.59123 0.56104 0.04772
 N146 N 0.53976 0.46414 0.06768
 N147 N 0.54667 0.44013 0.09342
 N148 N 0.56575 0.46395 0.04127
 N149 N 0.59104 0.43982 0.04829
 N150 N 0.53991 0.53708 0.06738
 N151 N 0.54680 0.56142 0.09281
 C152 C 0.57859 0.57630 0.07980
 C153 C 0.57843 0.42499 0.08058
 N154 N 0.43309 0.46435 0.04133
 N155 N 0.40794 0.44002 0.04807
 N156 N 0.45913 0.53734 0.06758
 N157 N 0.45184 0.56119 0.09351
 N158 N 0.43317 0.53730 0.04121
 N159 N 0.40752 0.56111 0.04847
 N160 N 0.45905 0.46437 0.06769
 N161 N 0.45230 0.44005 0.09313
 Mn162 Mn 0.49947 0.50074 0.06798
 C163 C 0.42063 0.42495 0.08016
 C164 C 0.41988 0.57602 0.08084
 N165 N 0.56589 0.46359 -0.04043
 N166 N 0.59140 0.43962 -0.04752
 N167 N 0.54011 0.53650 -0.06700
 N168 N 0.54713 0.56052 -0.09271
 N169 N 0.56607 0.53653 -0.04064
 N170 N 0.59148 0.56057 -0.04766
 N171 N 0.53993 0.46354 -0.06679
 N172 N 0.54707 0.43953 -0.09257
 Mn173 Mn 0.56628 0.50023 0.00031
 C174 C 0.57894 0.42463 -0.07980
 C175 C 0.57896 0.57549 -0.07991
 N176 N 0.43340 0.53692 -0.04050
 N177 N 0.40828 0.56123 -0.04737
 N178 N 0.45917 0.46379 -0.06668
 N179 N 0.45215 0.43960 -0.09226
 N180 N 0.43314 0.46401 -0.04032
 N181 N 0.40769 0.43997 -0.04722
 N182 N 0.45940 0.53672 -0.06690
 N183 N 0.45269 0.56090 -0.09248
 Mn184 Mn 0.43283 0.50065 0.00042
 Mn185 Mn 0.49964 0.50013 -0.06724
 Cl186 Cl 0.49955 0.50044 0.00037
 C187 C 0.42103 0.57613 -0.07956
 C188 C 0.42027 0.42479 -0.07938
 C189 C 1.18302 0.18818 0.18422
 N190 N 1.15273 0.17235 0.19970
 N191 N 1.13164 0.15108 0.17891
 C192 C 1.14019 0.14503 0.14199
 N193 N 1.17044 0.16091 0.12649
 N194 N 1.19153 0.18218 0.14729
 C195 C 1.20644 0.21016 0.20691
 C196 C 1.22652 0.22829 0.22598
 C197 C 1.11846 0.12095 0.12011
 C198 C 1.10069 0.10007 0.10212
 C199 C 1.18933 0.68207 0.68598
 N200 N 1.17064 0.65564 0.70290
 N201 N 1.15038 0.63356 0.68227
 C202 C 1.14831 0.63719 0.64409
 N203 N 1.16704 0.66360 0.62716
 N204 N 1.18731 0.68568 0.64779
 C205 C 1.21077 0.70602 0.70826
 C206 C 1.22886 0.72594 0.72723
 C207 C 1.12513 0.61444 0.62208
 C208 C 1.10479 0.59609 0.60362
 C209 C 0.68399 0.18739 0.68356
 N210 N 0.64870 0.17930 0.69479
 N211 N 0.62751 0.15819 0.67389
 C212 C 0.64094 0.14456 0.64110
 N213 N 0.67621 0.15269 0.62985
 N214 N 0.69740 0.17380 0.65075
 C215 C 0.70710 0.20946 0.70657
 C216 C 0.72645 0.22779 0.72625
 C217 C 0.61865 0.12078 0.61930
 C218 C 0.60040 0.10022 0.60130
 C219 C 0.68163 0.69062 0.18121
 N220 N 0.64724 0.68091 0.19363
 N221 N 0.62599 0.65987 0.17275
 C222 C 0.63849 0.64797 0.13882
 N223 N 0.67285 0.65774 0.12636
 N224 N 0.69411 0.67878 0.14724
 C225 C 0.70519 0.71181 0.20450
 C226 C 0.72519 0.72908 0.22452
 C227 C 0.61664 0.62371 0.11746
 C228 C 0.59889 0.60249 0.10000
 C229 C 0.81772 -0.18882 0.18424
 N230 N 0.80880 -0.18248 0.14752
 N231 N 0.82988 -0.16131 0.12662
 C232 C 0.86055 -0.14587 0.14180
 N233 N 0.86950 -0.15225 0.17850
 N234 N 0.84842 -0.17342 0.19941
 C235 C 0.79434 -0.21071 0.20705
 C236 C 0.77432 -0.22881 0.22620
 C237 C 0.88228 -0.12189 0.11983
 C238 C 0.90009 -0.10107 0.10181
 C239 C 0.81246 0.31677 0.68570
 N240 N 0.81583 0.31224 0.64770
 N241 N 0.83611 0.33429 0.62704
 C242 C 0.85353 0.36162 0.64373
 N243 N 0.85013 0.36616 0.68173
 N244 N 0.82985 0.34411 0.70239
 C245 C 0.79077 0.29296 0.70804
 C246 C 0.77241 0.27324 0.72707
 C247 C 0.87652 0.38461 0.62168
 C248 C 0.89659 0.40325 0.60318
 C249 C 0.31649 -0.18805 0.68342
 N250 N 0.35169 -0.17973 0.69463
 N251 N 0.37280 -0.15863 0.67367
 C252 C 0.35934 -0.14527 0.64084
 N253 N 0.32415 -0.15362 0.62961
 N254 N 0.30305 -0.17472 0.65057
 C255 C 0.29348 -0.21002 0.70650
 C256 C 0.27423 -0.22829 0.72624
 C257 C 0.38142 -0.12141 0.61910
 C258 C 0.39945 -0.10071 0.60118
 C259 C 0.31896 0.30921 0.18100
 N260 N 0.35311 0.31942 0.19354
 N261 N 0.37411 0.34077 0.17278
 C262 C 0.36157 0.35249 0.13886
 N263 N 0.32745 0.34221 0.12627
 N264 N 0.30645 0.32086 0.14703
 C265 C 0.29559 0.28778 0.20423
 C266 C 0.27568 0.27040 0.22423
 C267 C 0.38311 0.37708 0.11763
 C268 C 0.40060 0.39853 0.10026
 C269 C 0.81727 0.18772 -0.18394
 N270 N 0.80770 0.18072 -0.14750
 N271 N 0.82867 0.15949 -0.12656
 C272 C 0.85988 0.14464 -0.14140
 N273 N 0.86948 0.15168 -0.17783
 N274 N 0.84850 0.17290 -0.19877
 C275 C 0.79406 0.20981 -0.20682
 C276 C 0.77424 0.22805 -0.22607
 C277 C 0.88170 0.12071 -0.11932
 C278 C 0.89961 0.10004 -0.10116
 C279 C 0.81149 0.68201 0.31374
 N280 N 0.82997 0.65542 0.29679
 N281 N 0.85027 0.63338 0.31737
 C282 C 0.85257 0.63721 0.35553
 N283 N 0.83404 0.66378 0.37249
 N284 N 0.81374 0.68582 0.35191
 C285 C 0.79001 0.70592 0.29151
 C286 C 0.77189 0.72581 0.27260
 C287 C 0.87578 0.61448 0.37747
 C288 C 0.89615 0.59615 0.39586
 C289 C 0.31649 0.18750 0.31613
 N290 N 0.30270 0.17363 0.34859
 N291 N 0.32369 0.15241 0.36948
 C292 C 0.35912 0.14447 0.35855
 N293 N 0.37292 0.15838 0.32612
 N294 N 0.35193 0.17960 0.30523
 C295 C 0.29359 0.20957 0.29310
 C296 C 0.27441 0.22790 0.27339
 C297 C 0.38111 0.12050 0.38019
 C298 C 0.39910 0.09971 0.39800
 C299 C 0.31887 0.69068 -0.18130
 N300 N 0.35288 0.68017 -0.19405
 N301 N 0.37399 0.65907 -0.17316
 C302 C 0.36172 0.64790 -0.13888
 N303 N 0.32774 0.65848 -0.12608
 N304 N 0.30663 0.67959 -0.14698
 C305 C 0.29541 0.71194 -0.20458
 C306 C 0.27547 0.72923 -0.22460
 C307 C 0.38338 0.62358 -0.11745
 C308 C 0.40095 0.60234 -0.09990
 C309 C 1.18272 -0.18868 -0.18430
 N310 N 1.19075 -0.18339 -0.14716
 N311 N 1.16960 -0.16223 -0.12621
 C312 C 1.13977 -0.14578 -0.14178
 N313 N 1.13172 -0.15112 -0.17891
 N314 N 1.15286 -0.17228 -0.19986
 C315 C 1.20620 -0.21057 -0.20711
 C316 C 1.22630 -0.22867 -0.22626
 C317 C 1.11801 -0.12183 -0.11971
 C318 C 1.10023 -0.10104 -0.10154
 C319 C 1.18972 0.31781 0.31373
 N320 N 1.18724 0.31402 0.35188
 N321 N 1.16713 0.33627 0.37249
 C322 C 1.14902 0.36305 0.35559
 N323 N 1.15154 0.36686 0.31745
 N324 N 1.17165 0.34461 0.29684
 C325 C 1.21105 0.29372 0.29146
 C326 C 1.22907 0.27371 0.27248
 C327 C 1.12597 0.38600 0.37755
 C328 C 1.10571 0.40451 0.39597
 C329 C 0.68414 -0.18825 0.31671
 N330 N 0.69825 -0.17319 0.34840
 N331 N 0.67704 -0.15210 0.36934
 C332 C 0.64109 -0.14550 0.35925
 N333 N 0.62697 -0.16060 0.32760
 N334 N 0.64818 -0.18169 0.30665
 C335 C 0.70721 -0.21019 0.29359
 C336 C 0.72648 -0.22845 0.27379
 C337 C 0.61883 -0.12165 0.38089
 C338 C 0.60061 -0.10094 0.39868
 C339 C 0.68219 0.31015 -0.18178
 N340 N 0.69456 0.32186 -0.14774
 N341 N 0.67341 0.34314 -0.12695
 C342 C 0.63925 0.35331 -0.13955
 N343 N 0.62686 0.34154 -0.17356
 N344 N 0.64800 0.32027 -0.19435
 C345 C 0.70560 0.28847 -0.20492
 C346 C 0.72546 0.27078 -0.22478
 C347 C 0.61733 0.37759 -0.11804
 C348 C 0.59946 0.39867 -0.10037
 C349 C 1.18283 0.18815 -0.18367
 N350 N 1.19244 0.18114 -0.14727
 N351 N 1.17155 0.15984 -0.12630
 C352 C 1.14039 0.14493 -0.14109
 N353 N 1.13075 0.15198 -0.17747
 N354 N 1.15164 0.17328 -0.19844
 C355 C 1.20598 0.21023 -0.20659
 C356 C 1.22581 0.22847 -0.22585
 C357 C 1.11874 0.12089 -0.11903
 C358 C 1.10095 0.10008 -0.10093
 C359 C 1.18831 0.68477 0.31301
 N360 N 1.18551 0.68881 0.35113
 N361 N 1.16516 0.66674 0.37171
 C362 C 1.14707 0.63987 0.35484
 N363 N 1.14990 0.63583 0.31672
 N364 N 1.17025 0.65789 0.29614
 C365 C 1.21020 0.70856 0.29074
 C366 C 1.22875 0.72820 0.27170
 C367 C 1.12412 0.61676 0.37688
 C368 C 1.10414 0.59800 0.39539
 C369 C 0.68319 0.18797 0.31625
 N370 N 0.64810 0.17954 0.30475
 N371 N 0.62694 0.15826 0.32545
 C372 C 0.64021 0.14479 0.35830
 N373 N 0.67528 0.15325 0.36983
 N374 N 0.69645 0.17454 0.34914
 C375 C 0.70630 0.21012 0.29341
 C376 C 0.72564 0.22848 0.27380
 C377 C 0.61803 0.12079 0.37984
 C378 C 0.59992 0.10002 0.39766
 C379 C 0.68142 0.69029 -0.18161
 N380 N 0.64729 0.68000 -0.19418
 N381 N 0.62626 0.65871 -0.17337
 C382 C 0.63872 0.64710 -0.13936
 N383 N 0.67282 0.65745 -0.12676
 N384 N 0.69385 0.67874 -0.14757
 C385 C 0.70476 0.71187 -0.20480
 C386 C 0.72461 0.72944 -0.22471
 C387 C 0.61699 0.62274 -0.11792
 C388 C 0.59929 0.60156 -0.10033
 C389 C 0.81686 -0.18791 -0.18412
 N390 N 0.80787 -0.18143 -0.14740
 N391 N 0.82896 -0.16024 -0.12650
 C392 C 0.85971 -0.14491 -0.14167
 N393 N 0.86873 -0.15143 -0.17837
 N394 N 0.84764 -0.17262 -0.19928
 C395 C 0.79350 -0.20992 -0.20694
 C396 C 0.77354 -0.22810 -0.22613
 C397 C 0.88158 -0.12099 -0.11963
 C398 C 0.89951 -0.10030 -0.10148
 C399 C 0.81143 0.31798 0.31371
 N400 N 0.81336 0.31480 0.35196
 N401 N 0.83385 0.33692 0.37232
 C402 C 0.85292 0.36296 0.35508
 N403 N 0.85095 0.36616 0.31684
 N404 N 0.83046 0.34404 0.29647
 C405 C 0.78968 0.29401 0.29168
 C406 C 0.77137 0.27412 0.27284
 C407 C 0.87624 0.38585 0.37686
 C408 C 0.89662 0.40431 0.39520
 C409 C 0.31496 -0.18822 0.31515
 N410 N 0.30137 -0.17429 0.34774
 N411 N 0.32249 -0.15306 0.36859
 C412 C 0.35788 -0.14511 0.35754
 N413 N 0.37149 -0.15907 0.32497
 N414 N 0.35037 -0.18030 0.30412
 C415 C 0.29189 -0.21042 0.29215
 C416 C 0.27255 -0.22883 0.27245
 C417 C 0.38016 -0.12126 0.37935
 C418 C 0.39843 -0.10069 0.39738
 C419 C 0.31783 0.31003 -0.18125
 N420 N 0.30524 0.32172 -0.14725
 N421 N 0.32625 0.34297 -0.12636
 C422 C 0.36048 0.35314 -0.13883
 N423 N 0.37310 0.34138 -0.17279
 N424 N 0.35209 0.32013 -0.19368
 C425 C 0.29453 0.28849 -0.20452
 C426 C 0.27469 0.27096 -0.22447
 C427 C 0.38219 0.37749 -0.11732
 C428 C 0.39989 0.39868 -0.09973
 C429 C 1.18419 -0.18845 0.18516
 N430 N 1.19382 -0.18115 0.14880
 N431 N 1.17281 -0.15985 0.12797
 C432 C 1.14149 -0.14519 0.14282
 N433 N 1.13185 -0.15252 0.17917
 N434 N 1.15285 -0.17382 0.20000
 C435 C 1.20743 -0.21066 0.20795
 C436 C 1.22726 -0.22900 0.22719
 C437 C 1.11956 -0.12124 0.12080
 C438 C 1.10153 -0.10060 0.10264
 C439 C 1.18798 0.31749 0.68633
 N440 N 1.18683 0.31443 0.64803
 N441 N 1.16664 0.33653 0.62740
 C442 C 1.14712 0.36245 0.64443
 N443 N 1.14831 0.36553 0.68273
 N444 N 1.16849 0.34342 0.70336
 C445 C 1.20953 0.29361 0.70860
 C446 C 1.22778 0.27379 0.72754
 C447 C 1.12419 0.38536 0.62234
 C448 C 1.10413 0.40390 0.60378
 C449 C 0.68351 -0.18732 0.68361
 N450 N 0.69714 -0.17365 0.65097
 N451 N 0.67609 -0.15248 0.63007
 C452 C 0.64075 -0.14436 0.64115
 N453 N 0.62710 -0.15807 0.67377
 N454 N 0.64816 -0.17925 0.69466
 C455 C 0.70647 -0.20942 0.70662
 C456 C 0.72572 -0.22777 0.72630
 C457 C 0.61864 -0.12051 0.61940
 C458 C 0.60052 -0.09987 0.60146
 C459 C 0.68120 0.31022 0.18182
 N460 N 0.69342 0.32169 0.14764
 N461 N 0.67226 0.34295 0.12696
 C462 C 0.63825 0.35336 0.13985
 N463 N 0.62600 0.34183 0.17400
 N464 N 0.64716 0.32057 0.19467
 C465 C 0.70468 0.28868 0.20487
 C466 C 0.72459 0.27117 0.22472
 C467 C 0.61642 0.37772 0.11854
 C468 C 0.59869 0.39891 0.10102
 C469 C 0.81721 0.18832 0.18466
 N470 N 0.80904 0.18237 0.14766
 N471 N 0.83027 0.16104 0.12699
 C472 C 0.86033 0.14505 0.14268
 N473 N 0.86853 0.15104 0.17967
 N474 N 0.84730 0.17237 0.20034
 C475 C 0.79367 0.21045 0.20721
 C476 C 0.77360 0.22871 0.22625
 C477 C 0.88228 0.12097 0.12087
 C478 C 0.90019 0.10015 0.10284
 C479 C 0.81130 0.68290 0.68575
 N480 N 0.82932 0.65602 0.70255
 N481 N 0.84964 0.63394 0.68191
 C482 C 0.85243 0.63799 0.64381
 N483 N 0.83438 0.66486 0.62700
 N484 N 0.81407 0.68694 0.64765
 C485 C 0.78969 0.70680 0.70807
 C486 C 0.77143 0.72662 0.72710
 C487 C 0.87557 0.61509 0.62179
 C488 C 0.89582 0.59658 0.60331
 C489 C 0.31553 0.18779 0.68322
 N490 N 0.30118 0.17280 0.65159
 N491 N 0.32215 0.15159 0.63053
 C492 C 0.35811 0.14478 0.64043
 N493 N 0.37247 0.15981 0.67203
 N494 N 0.35150 0.18102 0.69309
 C495 C 0.29267 0.20988 0.70647
 C496 C 0.27350 0.22821 0.72634
 C497 C 0.38019 0.12085 0.61860
 C498 C 0.39832 0.10014 0.60067
 C499 C 0.31653 0.69057 0.18307
 N500 N 0.35080 0.68054 0.19551
 N501 N 0.37187 0.65917 0.17474
 C502 C 0.35933 0.64717 0.14087
 N503 N 0.32508 0.65724 0.12840
 N504 N 0.30401 0.67862 0.14917
 C505 C 0.29320 0.71243 0.20618
 C506 C 0.27338 0.73026 0.22604
 C507 C 0.38129 0.62289 0.11930
 C508 C 0.39922 0.60186 0.10155
   
