data_POSCAR
  _audit_creation_date              2014-09-24
  _audit_creation_method            'ToBaCCo'
  _symmetry_space_group_name_H-M    'P1'
  _symmetry_Int_Tables_number       1
  _symmetry_cell_setting            triclinic
  loop_
  _symmetry_equiv_pos_as_xyz
 x,y,z
_cell_length_a 33.3077
_cell_length_b 34.6334
_cell_length_c 31.1757
_cell_angle_alpha 92.110000
_cell_angle_beta 89.944200
_cell_angle_gamma 93.083700
loop_
  _atom_site_label
  _atom_site_type_symbol
  _atom_site_fract_x
  _atom_site_fract_y
  _atom_site_fract_z
C1 C 0.19091 0.53200 1.05612
 H2 H 0.19149 0.55590 1.03469
 C3 C 0.16151 0.52915 1.08807
 H4 H 0.14008 0.55151 1.09122
 C5 C 0.21693 0.47291 1.07596
 H6 H 0.23744 0.45022 1.07023
 C7 C 0.18828 0.46894 1.10830
 H8 H 0.18815 0.44345 1.12743
 N9 N 0.21757 0.50388 1.05040
 C10 C 0.31257 0.55015 0.96726
 H11 H 0.31162 0.52657 0.94347
 C12 C 0.34027 0.58136 0.96318
 H13 H 0.36069 0.58116 0.93615
 C14 C 0.28709 0.57812 1.03149
 H15 H 0.26640 0.57651 1.05817
 C16 C 0.31470 0.61000 1.02882
 H17 H 0.31511 0.63262 1.05375
 Zn18 Zn 0.25065 0.50464 1.00107
 N19 N 0.28653 0.54910 1.00079
 C20 C 0.21680 0.53556 0.92769
 N21 N 0.21532 0.50489 0.95374
 C22 C 0.18588 0.47624 0.94945
 C23 C 0.15608 0.47797 0.91813
 C24 C 0.18776 0.53841 0.89602
 C25 C 0.30890 0.45767 1.03096
 C26 C 0.33264 0.42580 1.03253
 C27 C 0.30194 0.40053 0.96642
 C28 C 0.27829 0.43279 0.96642
 N29 N 0.28194 0.46036 0.99866
 H30 H 0.23960 0.55866 0.93233
 H31 H 0.18491 0.45260 0.97124
 H32 H 0.13249 0.45523 0.91572
 H33 H 0.18928 0.56347 0.87621
 H34 H 0.31157 0.48026 1.05586
 H35 H 0.35375 0.42438 1.05873
 H36 H 0.29870 0.37889 0.94052
 H37 H 0.25719 0.43580 0.94060
 C38 C 0.34188 0.61184 0.99429
 C39 C 0.15931 0.49680 1.11423
 C40 C 0.32938 0.39662 1.00000
 C41 C 0.15650 0.50969 0.89129
 C42 C 0.77722 0.52227 -0.07435
 H43 H 0.75587 0.54442 -0.07014
 C44 C 0.80439 0.52440 -0.10825
 H45 H 0.80294 0.54801 -0.12993
 C46 C 0.80650 0.46625 -0.04983
 H47 H 0.80757 0.44419 -0.02623
 C48 C 0.83458 0.46747 -0.08320
 H49 H 0.85699 0.44597 -0.08528
 N50 N 0.77880 0.49362 -0.04585
 C51 C 0.71850 0.56780 0.03401
 H52 H 0.74043 0.56638 0.05934
 C53 C 0.69454 0.59975 0.03264
 H54 H 0.69837 0.62271 0.05704
 C55 C 0.68620 0.53932 -0.02796
 H56 H 0.68299 0.51545 -0.05130
 C57 C 0.66203 0.57078 -0.03083
 H58 H 0.64009 0.57063 -0.05644
 Zn59 Zn 0.74590 0.49466 0.00357
 N60 N 0.71416 0.53859 0.00368
 C61 C 0.81098 0.52458 0.05421
 N62 N 0.78077 0.49655 0.05154
 C63 C 0.77757 0.46813 0.08046
 C64 C 0.80549 0.46702 0.11355
 C65 C 0.83985 0.52443 0.08675
 C66 C 0.71098 0.42022 -0.02452
 C67 C 0.68311 0.38857 -0.02208
 C68 C 0.65493 0.41910 0.04117
 C69 C 0.68303 0.45004 0.03740
 N70 N 0.71038 0.45010 0.00507
 H71 H 0.81323 0.54647 0.03031
 H72 H 0.75408 0.44551 0.07731
 H73 H 0.80257 0.44367 0.13568
 H74 H 0.86410 0.54655 0.08787
 H75 H 0.73266 0.42107 -0.05032
 H76 H 0.68354 0.36536 -0.04628
 H77 H 0.63333 0.42013 0.06710
 H78 H 0.68304 0.47431 0.06027
 C79 C 0.66598 0.60161 -0.00029
 C80 C 0.83406 0.49721 -0.11262
 C81 C 0.65437 0.38790 0.01098
 C82 C 0.83754 0.49506 0.11669
 C83 C -0.04066 0.29892 0.47554
 H84 H -0.06259 0.30009 0.50112
 C85 C -0.04165 0.32480 0.44243
 H86 H -0.06491 0.34549 0.44288
 C87 C 0.01711 0.27136 0.44567
 H88 H 0.04072 0.25136 0.44773
 C89 C 0.01737 0.29677 0.41194
 H90 H 0.04103 0.29530 0.38817
 N91 N -0.01160 0.27294 0.47663
 C92 C -0.05876 0.18576 0.56310
 H93 H -0.03494 0.18682 0.58675
 C94 C -0.08983 0.15717 0.56450
 H95 H -0.08975 0.13636 0.58959
 C96 C -0.08617 0.21012 0.50005
 H97 H -0.08385 0.22982 0.47402
 C98 C -0.11806 0.18223 0.50049
 H99 H -0.13995 0.18094 0.47476
 Zn100 Zn -0.00973 0.24318 0.52606
 N101 N -0.05699 0.21093 0.53067
 C102 C -0.03021 0.28233 0.60535
 N103 N -0.00354 0.27912 0.57249
 C104 C 0.02810 0.30508 0.56830
 C105 C 0.03320 0.33668 0.59682
 C106 C -0.02619 0.31376 0.63490
 C107 C 0.03584 0.18499 0.49015
 C108 C 0.06859 0.16181 0.48526
 C109 C 0.09778 0.19246 0.54967
 C110 C 0.06457 0.21534 0.55310
 N111 N 0.03476 0.21160 0.52318
 H112 H -0.05551 0.26159 0.60754
 H113 H 0.04853 0.30193 0.54155
 H114 H 0.05795 0.35762 0.59189
 H115 H -0.04857 0.31705 0.65979
 H116 H 0.01139 0.18223 0.46722
 H117 H 0.06887 0.14098 0.45851
 H118 H 0.12125 0.19591 0.57372
 H119 H 0.06269 0.23597 0.57975
 C120 C -0.11940 0.15451 0.53224
 C121 C -0.01194 0.32450 0.41026
 C122 C 0.10022 0.16548 0.51518
 C123 C 0.00523 0.34199 0.62989
 C124 C 0.97825 0.69641 0.52134
 H125 H 0.95792 0.69329 0.49424
 C126 C 0.97427 0.67093 0.55478
 H127 H 0.95070 0.64815 0.55306
 C128 C 1.03433 0.72950 0.55549
 H129 H 1.05818 0.75187 0.55523
 C130 C 1.03159 0.70449 0.58958
 H131 H 1.05327 0.70819 0.61546
 N132 N 1.00764 0.72519 0.52245
 C133 C 0.95972 0.80880 0.43820
 H134 H 0.98283 0.81099 0.41387
 C135 C 0.92691 0.83224 0.43699
 H136 H 0.92499 0.85231 0.41135
 C137 C 0.93539 0.78128 0.50230
 H138 H 0.93935 0.76241 0.52856
 C139 C 0.90214 0.80407 0.50231
 H140 H 0.88076 0.80191 0.52840
 Zn141 Zn 1.01101 0.75686 0.47459
 N142 N 0.96348 0.78412 0.47068
 C143 C 0.99060 0.71814 0.39432
 N144 N 1.01794 0.72324 0.42672
 C145 C 1.04906 0.69976 0.43001
 C146 C 1.05240 0.66828 0.40148
 C147 C 0.99297 0.68695 0.36473
 C148 C 1.05185 0.81936 0.51457
 C149 C 1.08233 0.84775 0.52245
 C150 C 1.11856 0.82239 0.46134
 C151 C 1.08724 0.79421 0.45470
 N152 N 1.05481 0.79328 0.48132
 H153 H 0.96561 0.73670 0.39292
 H154 H 1.06993 0.70418 0.45653
 H155 H 1.07635 0.64886 0.40599
 H156 H 0.96977 0.68190 0.34056
 H157 H 1.02556 0.81803 0.53500
 H158 H 1.07896 0.86831 0.54904
 H159 H 1.14385 0.82319 0.43948
 H160 H 1.08868 0.77349 0.42805
 C161 C 0.89789 0.83048 0.46977
 C162 C 1.00128 0.67468 0.58943
 C163 C 1.11615 0.84981 0.49546
 C164 C 1.02332 0.66076 0.36929
 C165 C 0.42831 -0.02830 0.28249
 H166 H 0.43271 -0.05404 0.26276
 C167 C 0.39660 -0.02789 0.31210
 H168 H 0.37627 -0.05318 0.31455
 C169 C 0.45003 0.03564 0.30466
 H170 H 0.47152 0.06001 0.30214
 C171 C 0.41833 0.03766 0.33362
 H172 H 0.41548 0.06384 0.35324
 N173 N 0.45397 0.00341 0.27913
 C174 C 0.53296 -0.06239 0.20669
 H175 H 0.55834 -0.05395 0.22705
 C176 C 0.53445 -0.09565 0.18025
 H177 H 0.56097 -0.11234 0.18155
 C178 C 0.46892 -0.04979 0.17933
 H179 H 0.44354 -0.03156 0.17912
 C180 C 0.46931 -0.08270 0.15184
 H181 H 0.44391 -0.08937 0.13070
 Zn182 Zn 0.49930 0.00505 0.24242
 N183 N 0.50032 -0.04046 0.20631
 C184 C 0.54675 -0.02262 0.30516
 N185 N 0.54439 0.00823 0.27975
 C186 C 0.57166 0.03895 0.28321
 C187 C 0.60376 0.03855 0.31231
 C188 C 0.57869 -0.02468 0.33353
 C189 C 0.46427 0.06880 0.20586
 C190 C 0.46189 0.10000 0.17911
 C191 C 0.52879 0.08861 0.15349
 C192 C 0.52997 0.05759 0.18103
 N193 N 0.49810 0.04853 0.20682
 H194 H 0.52407 -0.04615 0.30258
 H195 H 0.56856 0.06370 0.26358
 H196 H 0.62571 0.06277 0.31450
 H197 H 0.58057 -0.05003 0.35263
 H198 H 0.43858 0.06041 0.22519
 H199 H 0.43449 0.11545 0.17899
 H200 H 0.55445 0.09534 0.13323
 H201 H 0.55625 0.04057 0.18168
 C202 C 0.50243 -0.10636 0.15205
 C203 C 0.39116 0.00566 0.33764
 C204 C 0.49435 0.11034 0.15234
 C205 C 0.60780 0.00600 0.33718
 C206 C 0.55224 -0.03826 0.69128
 H207 H 0.52978 -0.06179 0.69400
 C208 C 0.58314 -0.04134 0.66142
 H209 H 0.58435 -0.06748 0.64142
 C210 C 0.57692 0.02478 0.71341
 H211 H 0.57389 0.05068 0.73330
 C212 C 0.60793 0.02329 0.68303
 H213 H 0.62907 0.04794 0.68023
 N214 N 0.54999 -0.00591 0.71703
 C215 C 0.47138 -0.05755 0.81493
 H216 H 0.44578 -0.03965 0.81427
 C217 C 0.47137 -0.08874 0.84241
 H218 H 0.44549 -0.09469 0.86261
 C219 C 0.53659 -0.07090 0.79022
 H220 H 0.56259 -0.06331 0.77098
 C221 C 0.53775 -0.10231 0.81685
 H222 H 0.56453 -0.11869 0.81697
 Zn223 Zn 0.50447 -0.00568 0.75367
 N224 N 0.50361 -0.04942 0.78926
 C225 C 0.43088 -0.03593 0.71197
 N226 N 0.45993 -0.00680 0.71576
 C227 C 0.45982 0.02434 0.69048
 C228 C 0.42864 0.02829 0.66159
 C229 C 0.39942 -0.03360 0.68240
 C230 C 0.53574 0.05051 0.81595
 C231 C 0.53484 0.08372 0.84302
 C232 C 0.46877 0.09457 0.81573
 C233 C 0.47078 0.06119 0.78963
 N234 N 0.50410 0.04012 0.78961
 H235 H 0.43209 -0.06088 0.73166
 H236 H 0.48378 0.04664 0.69352
 H237 H 0.42879 0.05376 0.64243
 H238 H 0.37618 -0.05666 0.67981
 H239 H 0.56163 0.03294 0.81602
 H240 H 0.56028 0.09152 0.86375
 H241 H 0.44176 0.11059 0.81505
 H242 H 0.44518 0.05186 0.76996
 C243 C 0.50494 -0.11166 0.84357
 C244 C 0.61136 -0.01026 0.65679
 C245 C 0.50100 0.10634 0.84299
 C246 C 0.39784 -0.00077 0.65739
 C247 C 0.22045 0.05559 0.50470
 C248 C 0.25085 0.05388 0.54138
 C249 C 0.27276 0.02161 0.53927
 C250 C 0.26232 -0.00595 0.50032
 C251 C 0.24563 0.05211 0.46390
 C252 C 0.26784 0.02017 0.46147
 C253 C 0.19532 0.01767 0.50627
 C254 C 0.21674 -0.01446 0.50395
 H255 H 0.25508 0.07637 0.56628
 H256 H 0.28000 -0.03225 0.49850
 H257 H 0.24761 0.07442 0.44042
 H258 H 0.16284 0.01646 0.50932
 C259 C 0.78380 -0.05351 0.48675
 C260 C 0.75351 -0.05565 0.52386
 C261 C 0.73150 -0.02359 0.52879
 C262 C 0.74162 0.00758 0.49573
 C263 C 0.75845 -0.04599 0.44751
 C264 C 0.73596 -0.01438 0.45199
 C265 C 0.80888 -0.01604 0.49590
 C266 C 0.78723 0.01587 0.50075
 H267 H 0.74988 -0.08017 0.54436
 H268 H 0.72380 0.03368 0.49951
 H269 H 0.75612 -0.06595 0.41992
 H270 H 0.84128 -0.01515 0.49963
 C271 C 0.44465 0.28129 0.99966
 C272 C 0.44982 0.25574 0.95895
 C273 C 0.48318 0.23438 0.95944
 C274 C 0.50890 0.24142 1.00040
 C275 C 0.44558 0.25326 1.03650
 C276 C 0.47907 0.23217 1.03702
 C277 C 0.48380 0.30584 1.00396
 C278 C 0.51733 0.28551 1.00445
 H279 H 0.42729 0.25233 0.93390
 H280 H 0.53653 0.22487 1.00087
 H281 H 0.42103 0.24948 1.05903
 H282 H 0.48481 0.33719 1.00677
 C283 C 0.55087 0.71718 -0.00265
 C284 C 0.54967 0.74418 -0.04041
 C285 C 0.51689 0.76630 -0.04054
 C286 C 0.48787 0.75885 -0.00268
 C287 C 0.54759 0.74401 0.03733
 C288 C 0.51491 0.76623 0.03726
 C289 C 0.51100 0.69360 -0.00488
 C290 C 0.47810 0.71486 -0.00496
 H291 H 0.57376 0.74679 -0.06366
 H292 H 0.46078 0.77618 -0.00280
 H293 H 0.57074 0.74730 0.06174
 H294 H 0.50899 0.66222 -0.00676
 C295 C 0.99775 0.44204 0.29045
 C296 C 0.96000 0.44539 0.26342
 C297 C 0.96148 0.47619 0.23747
 C298 C 1.00102 0.50126 0.24113
 C299 C 1.03230 0.44161 0.25794
 C300 C 1.03430 0.47274 0.23226
 C301 C 1.00385 0.48100 0.31473
 C302 C 1.00550 0.51199 0.28919
 H303 H 0.93477 0.42433 0.26402
 H304 H 1.00242 0.52665 0.22036
 H305 H 1.05395 0.41938 0.25636
 H306 H 1.00708 0.48366 0.34932
 C307 C -0.00253 0.55844 0.71358
 C308 C -0.04073 0.55339 0.74037
 C309 C -0.04144 0.52232 0.76597
 C310 C -0.00357 0.49880 0.76220
 C311 C 0.03191 0.55994 0.74621
 C312 C 0.03165 0.52864 0.77154
 C313 C 0.00094 0.51990 0.68893
 C314 C 0.00027 0.48869 0.71406
 H315 H -0.06451 0.57351 0.73991
 H316 H -0.00397 0.47321 0.78266
 H317 H 0.05499 0.58316 0.74829
 H318 H 0.00388 0.51766 0.65431
 N319 N 0.13874 0.11739 0.47522
 C320 C 0.13455 0.14020 0.51109
 N321 N 0.16112 0.13759 0.54382
 N322 N 0.18994 0.11233 0.54122
 C323 C 0.19351 0.08903 0.50558
 N324 N 0.16752 0.09227 0.47258
 N325 N 0.61605 0.63857 -0.03731
 C326 C 0.63930 0.63447 -0.00218
 N327 N 0.63579 0.65977 0.03184
 N328 N 0.60927 0.68727 0.03117
 C329 C 0.58548 0.69079 -0.00371
 N330 N 0.58969 0.66608 -0.03804
 N331 N 0.86327 -0.11421 0.44256
 C332 C 0.86529 -0.14204 0.47191
 N333 N 0.83867 -0.14220 0.50502
 N334 N 0.81170 -0.11524 0.50909
 C335 C 0.81025 -0.08707 0.48008
 N336 N 0.83637 -0.08727 0.44662
 N337 N 0.37698 0.35689 1.03664
 C338 C 0.35569 0.36340 1.00075
 N339 N 0.36105 0.34036 0.96515
 N340 N 0.38757 0.31280 0.96513
 C341 C 0.40943 0.30693 1.00088
 N342 N 0.40331 0.32934 1.03668
 N343 N 0.81933 0.11940 0.50257
 C344 C 0.85220 0.12020 0.52858
 N345 N 0.86136 0.08719 0.54756
 N346 N 0.83941 0.05449 0.53992
 C347 C 0.80714 0.05345 0.51331
 N348 N 0.79702 0.08663 0.49523
 N349 N 0.40057 0.64277 -0.04108
 C350 C 0.37368 0.64346 -0.00838
 N351 N 0.37898 0.67150 0.02321
 N352 N 0.41072 0.69678 0.02277
 C353 C 0.43812 0.69511 -0.00946
 N354 N 0.43221 0.66781 -0.04144
 N355 N 0.13979 -0.08870 0.53048
 C356 C 0.14651 -0.11760 0.50129
 N357 N 0.17944 -0.11397 0.47552
 N358 N 0.20383 -0.08207 0.47803
 C359 C 0.19603 -0.05274 0.50641
 N360 N 0.16388 -0.05690 0.53282
 N361 N 0.61905 0.32697 0.98299
 C362 C 0.62188 0.35689 1.01263
 N363 N 0.59207 0.35997 1.04202
 N364 N 0.56011 0.33532 1.04093
 C365 C 0.55671 0.30611 1.01078
 N366 N 0.58699 0.30203 0.98202
 N367 N 0.52053 0.15099 1.09345
 C368 C 0.49146 0.14293 1.12297
 N369 N 0.45892 0.16494 1.12451
 N370 N 0.45536 0.19353 1.09762
 C371 C 0.48420 0.20141 1.06794
 N372 N 0.51693 0.17963 1.06644
 N373 N -0.03146 0.61876 0.62439
 C374 C -0.00113 0.64653 0.62394
 N375 N 0.02791 0.64662 0.65454
 N376 N 0.02703 0.61957 0.68385
 C377 C -0.00303 0.59148 0.68379
 N378 N -0.03239 0.59178 0.65369
 N379 N 0.53805 0.83206 -0.12924
 C380 C 0.50669 0.85555 -0.12707
 N381 N 0.47791 0.84887 -0.09684
 N382 N 0.48070 0.82017 -0.06972
 C383 C 0.51231 0.79693 -0.07182
 N384 N 0.54080 0.80342 -0.10226
 N385 N 0.96189 0.37990 0.37822
 C386 C 0.98942 0.35235 0.37855
 N387 N 1.01918 0.35348 0.34861
 N388 N 1.02162 0.38125 0.32011
 C389 C 0.99433 0.40899 0.32036
 N390 N 0.96431 0.40762 0.34978
 N391 N 0.53607 0.83773 0.12598
 C392 C 0.50426 0.86064 0.12434
 N393 N 0.47500 0.85128 0.09471
 N394 N 0.47786 0.82083 0.06758
 C395 C 0.50992 0.79829 0.06915
 N396 N 0.53883 0.80728 0.09905
 N397 N -0.01394 0.38343 0.69244
 C398 C 0.00664 0.37902 0.65502
 N399 N 0.02642 0.41045 0.63875
 N400 N 0.02513 0.44500 0.65841
 C401 C 0.00428 0.44959 0.69541
 N402 N -0.01490 0.41812 0.71246
 N403 N 0.52537 0.14950 0.90390
 C404 C 0.49822 0.14119 0.87189
 N405 N 0.46725 0.16478 0.86783
 N406 N 0.46318 0.19496 0.89487
 C407 C 0.48992 0.20294 0.92721
 N408 N 0.52123 0.17971 0.93107
 N409 N 1.03846 0.59251 0.36268
 C410 C 1.02180 0.62319 0.34522
 N411 N 1.00093 0.61745 0.30783
 N412 N 0.99675 0.58225 0.28892
 C413 C 1.01278 0.55154 0.30712
 N414 N 1.03391 0.55741 0.34412
 N415 N 1.09912 0.51733 0.14948
 C416 C 1.12822 0.49143 0.14439
 N417 N 1.12592 0.45940 0.16838
 N418 N 1.09603 0.45348 0.19609
 C419 C 1.06699 0.47928 0.20100
 N420 N 1.06916 0.51141 0.17727
 N421 N 0.65647 -0.04837 0.61169
 C422 C 0.64357 -0.01319 0.62429
 N423 N 0.65991 0.01875 0.60545
 N424 N 0.68783 0.01552 0.57498
 C425 C 0.70069 -0.01973 0.56250
 N426 N 0.68460 -0.05156 0.58160
 N427 N -0.13621 0.53028 0.82554
 C428 C -0.13459 0.50164 0.85395
 N429 N -0.10256 0.47889 0.85242
 N430 N -0.07318 0.48490 0.82395
 C431 C -0.07472 0.51391 0.79596
 N432 N -0.10693 0.53628 0.79716
 N433 N 0.34105 0.04262 0.37637
 C434 C 0.35752 0.00814 0.36831
 N435 N 0.34365 -0.02304 0.39032
 N436 N 0.31478 -0.01956 0.41974
 C437 C 0.29843 0.01509 0.42777
 N438 N 0.31199 0.04597 0.40531
 N439 N 0.12410 0.54575 0.83556
 C440 C 0.12398 0.51394 0.85973
 N441 N 0.09300 0.48691 0.85497
 N442 N 0.06347 0.49154 0.82707
 C443 C 0.06372 0.52344 0.80301
 N444 N 0.09464 0.55038 0.80778
 N445 N 0.65925 -0.03239 0.36790
 C446 C 0.64267 0.00237 0.36561
 N447 N 0.65753 0.03241 0.39125
 N448 N 0.68754 0.02752 0.41863
 C449 C 0.70404 -0.00742 0.42081
 N450 N 0.68942 -0.03710 0.39472
 N451 N 0.90284 0.51608 0.15050
 C452 C 0.86912 0.49209 0.14967
 N453 N 0.86570 0.46378 0.17861
 N454 N 0.89480 0.45930 0.20684
 C455 C 0.92865 0.48292 0.20740
 N456 N 0.93206 0.51159 0.17885
 N457 N 0.34609 -0.02636 0.60531
 C458 C 0.36430 0.00424 0.62751
 N459 N 0.35198 0.04025 0.62076
 N460 N 0.32261 0.04556 0.59306
 C461 C 0.30467 0.01514 0.57052
 N462 N 0.31695 -0.02097 0.57712
   
