data_POSCAR
  _audit_creation_date              2014-09-24
  _audit_creation_method            'ToBaCCo'
  _symmetry_space_group_name_H-M    'P1'
  _symmetry_Int_Tables_number       1
  _symmetry_cell_setting            triclinic
  loop_
  _symmetry_equiv_pos_as_xyz
 x,y,z
_cell_length_a 35.1500
_cell_length_b 22.8864
_cell_length_c 14.8200
_cell_angle_alpha 90.041700
_cell_angle_beta 89.963200
_cell_angle_gamma 90.015800
loop_
  _atom_site_label
  _atom_site_type_symbol
  _atom_site_fract_x
  _atom_site_fract_y
  _atom_site_fract_z
C1 C 0.66231 0.32944 0.50411
 C2 C 0.68153 0.32059 0.58618
 C3 C 0.71770 0.29413 0.58381
 C4 C 0.73310 0.27128 0.50305
 C5 C 0.71158 0.27739 0.42323
 C6 C 0.67703 0.30802 0.42270
 C7 C 0.77115 0.24078 0.50234
 C8 C 0.79245 0.23497 0.42187
 C9 C 0.82687 0.20332 0.41928
 C10 C 0.84164 0.18177 0.50096
 C11 C 0.82254 0.19070 0.58283
 C12 C 0.78667 0.21734 0.58225
 H13 H 0.63465 0.34994 0.50334
 H14 H 0.73420 0.29290 0.64500
 H15 H 0.72147 0.25871 0.36069
 H16 H 0.78192 0.25435 0.36072
 H17 H 0.86927 0.16112 0.50209
 H18 H 0.77110 0.21908 0.64496
 C19 C 0.15921 0.82266 0.49949
 C20 C 0.17381 0.80094 0.58123
 C21 C 0.20819 0.76927 0.57892
 C22 C 0.22971 0.76372 0.49879
 C23 C 0.21430 0.78700 0.41862
 C24 C 0.17843 0.81373 0.41775
 C25 C 0.26784 0.73351 0.49889
 C26 C 0.28333 0.71012 0.41883
 C27 C 0.31937 0.68398 0.41786
 C28 C 0.33869 0.67554 0.49955
 C29 C 0.32398 0.69721 0.58130
 C30 C 0.28938 0.72837 0.57899
 H31 H 0.13161 0.84339 0.49820
 H32 H 0.21855 0.74966 0.64006
 H33 H 0.22996 0.78505 0.35605
 H34 H 0.26762 0.71168 0.35636
 H35 H 0.36643 0.65526 0.49818
 H36 H 0.27894 0.74806 0.64005
 C37 C 0.34268 0.32011 -0.50347
 C38 C 0.32304 0.31192 -0.58464
 C39 C 0.28674 0.28647 -0.58293
 C40 C 0.27092 0.26458 -0.50194
 C41 C 0.29245 0.27079 -0.42190
 C42 C 0.32751 0.30018 -0.42176
 C43 C 0.23254 0.23500 -0.50121
 C44 C 0.21124 0.22956 -0.42067
 C45 C 0.17646 0.19880 -0.41814
 C46 C 0.16140 0.17773 -0.49987
 C47 C 0.18054 0.18632 -0.58176
 C48 C 0.21667 0.21210 -0.58119
 H49 H 0.37070 0.33964 -0.50422
 H50 H 0.27109 0.28466 -0.64546
 H51 H 0.28229 0.25311 -0.35893
 H52 H 0.22200 0.24852 -0.35942
 H53 H 0.13356 0.15776 -0.50101
 H54 H 0.23216 0.21359 -0.64399
 C55 C -0.16036 0.82708 -0.49979
 C56 C -0.17542 0.80604 -0.58155
 C57 C -0.21020 0.77531 -0.57910
 C58 C -0.23152 0.76987 -0.49864
 C59 C -0.21567 0.79272 -0.41858
 C60 C -0.17952 0.81849 -0.41793
 C61 C -0.26989 0.74028 -0.49808
 C62 C -0.28572 0.71832 -0.41717
 C63 C -0.32200 0.69284 -0.41554
 C64 C -0.34162 0.68466 -0.49673
 C65 C -0.32645 0.70464 -0.57841
 C66 C -0.29141 0.73410 -0.57818
 H67 H -0.13252 0.84703 -0.49861
 H68 H -0.22095 0.75638 -0.64038
 H69 H -0.23117 0.79121 -0.35580
 H70 H -0.27007 0.72010 -0.35463
 H71 H -0.36964 0.66509 -0.49601
 H72 H -0.28125 0.75183 -0.64110
 N73 N 0.03920 1.06470 0.16265
 N74 N 0.06739 1.07168 0.22037
 N75 N -0.03981 1.10625 0.09566
 N76 N -0.06619 1.14618 0.11033
 N77 N -0.04050 1.06624 0.15914
 N78 N -0.06703 1.07835 0.21946
 N79 N 0.04048 1.10475 0.09931
 N80 N 0.06989 1.13978 0.11170
 C81 C 0.08630 1.11852 0.18751
 C82 C -0.08302 1.12798 0.18743
 N83 N -0.03744 1.06571 -0.16195
 N84 N -0.06557 1.07335 -0.21960
 N85 N 0.04202 1.10517 -0.09485
 N86 N 0.06888 1.14437 -0.10939
 N87 N 0.04227 1.06514 -0.15840
 N88 N 0.06896 1.07652 -0.21865
 N89 N -0.03828 1.10578 -0.09852
 N90 N -0.06732 1.14151 -0.11076
 Mn91 Mn 0.00111 1.10618 0.00040
 C92 C -0.08397 1.12064 -0.18661
 C93 C 0.08552 1.12572 -0.18649
 N94 N -0.04122 0.93968 0.15898
 N95 N -0.06792 0.92832 0.21919
 N96 N 0.03931 0.89904 0.09907
 N97 N 0.06836 0.86331 0.11128
 N98 N 0.03850 0.93911 0.16251
 N99 N 0.06665 0.93145 0.22011
 N100 N -0.04099 0.89968 0.09539
 N101 N -0.06786 0.86050 0.10986
 Mn102 Mn -0.00109 1.00243 0.16175
 C103 C -0.08450 0.87915 0.18696
 C104 C 0.08505 0.88416 0.18710
 N105 N 0.04151 0.93857 -0.15854
 N106 N 0.06795 0.92633 -0.21899
 N107 N -0.03949 0.90010 -0.09874
 N108 N -0.06888 0.86505 -0.11119
 N109 N -0.03819 0.94014 -0.16209
 N110 N -0.06636 0.93314 -0.21988
 N111 N 0.04079 0.89857 -0.09505
 N112 N 0.06706 0.85851 -0.10984
 Mn113 Mn 0.00212 1.00239 -0.16117
 Mn114 Mn -0.00010 0.89866 0.00017
 Cl115 Cl 0.00051 1.00242 0.00029
 C116 C 0.08386 0.87662 -0.18700
 C117 C -0.08527 0.88629 -0.18706
 N118 N 0.53971 0.44064 -0.16267
 N119 N 0.56813 0.43433 -0.22003
 N120 N 0.46109 0.39785 -0.09600
 N121 N 0.43507 0.35741 -0.11103
 N122 N 0.45997 0.43821 -0.15889
 N123 N 0.43336 0.42606 -0.21887
 N124 N 0.54136 0.40084 -0.09901
 N125 N 0.57137 0.36689 -0.11048
 C126 C 0.58763 0.38832 -0.18640
 C127 C 0.41787 0.37586 -0.18746
 N128 N 0.46285 0.43827 0.16160
 N129 N 0.43454 0.43034 0.21876
 N130 N 0.54253 0.40003 0.09498
 N131 N 0.56927 0.36081 0.11035
 N132 N 0.54265 0.44036 0.15804
 N133 N 0.56932 0.42944 0.21842
 N134 N 0.46231 0.39825 0.09807
 N135 N 0.43333 0.36228 0.10975
 Mn136 Mn 0.50183 0.39855 -0.00051
 C137 C 0.41638 0.38293 0.18538
 C138 C 0.58590 0.38004 0.18709
 N139 N 0.45854 0.56465 -0.15885
 N140 N 0.43195 0.57583 -0.21934
 N141 N 0.53873 0.60646 -0.09856
 N142 N 0.56772 0.64242 -0.11016
 N143 N 0.53827 0.56639 -0.16204
 N144 N 0.56661 0.57431 -0.21911
 N145 N 0.45847 0.60460 -0.09519
 N146 N 0.43151 0.64356 -0.10992
 Mn147 Mn 0.49904 0.50246 -0.16158
 C148 C 0.41512 0.62482 -0.18721
 C149 C 0.58473 0.62174 -0.18569
 N150 N 0.54109 0.56661 0.15842
 N151 N 0.56767 0.57879 0.21848
 N152 N 0.45979 0.60398 0.09889
 N153 N 0.43008 0.63841 0.11120
 N154 N 0.46130 0.56388 0.16212
 N155 N 0.43297 0.57025 0.21972
 N156 N 0.54001 0.60694 0.09551
 N157 N 0.56601 0.64741 0.11061
 Mn158 Mn 0.50205 0.50228 0.16100
 Mn159 Mn 0.49924 0.60618 0.00015
 Cl160 Cl 0.50054 0.50238 -0.00024
 C161 C 0.58318 0.62899 0.18711
 C162 C 0.41373 0.61675 0.18688
 N163 N 0.36108 0.31478 0.19034
 N164 N 0.33585 0.29707 0.25064
 C165 C 0.34158 0.32654 0.32841
 C166 C 0.37145 0.36536 0.31619
 C167 C 0.38311 0.35609 0.22831
 H168 H 0.38435 0.39410 0.36547
 H169 H 0.36375 0.29755 0.12536
 H170 H 0.31652 0.26314 0.23970
 N171 N -0.13711 0.80671 0.19347
 N172 N -0.16285 0.78657 0.25804
 C173 C -0.15573 0.81506 0.33630
 C174 C -0.12590 0.85430 0.32205
 C175 C -0.11532 0.84769 0.23271
 H176 H -0.11337 0.88453 0.36965
 H177 H -0.13553 0.79200 0.12684
 H178 H -0.18237 0.75313 0.24605
 N179 N 0.63029 0.70992 0.20145
 N180 N 0.65416 0.72996 0.26308
 C181 C 0.65224 0.69525 0.33652
 C182 C 0.62623 0.65088 0.32020
 C183 C 0.61299 0.66192 0.23419
 H184 H 0.61765 0.61591 0.36493
 H185 H 0.62566 0.72938 0.13868
 H186 H 0.67051 0.76771 0.25529
 N187 N 0.14233 1.18501 0.19337
 N188 N 0.16771 1.20186 0.25379
 C189 C 0.16163 1.17238 0.33139
 C190 C 0.13127 1.13446 0.31890
 C191 C 0.11979 1.14426 0.23101
 H192 H 0.11800 1.10594 0.36790
 H193 H 0.13992 1.20245 0.12851
 H194 H 0.18742 1.23528 0.24298
 N195 N 0.64794 0.33144 -0.18576
 N196 N 0.67491 0.31403 -0.24948
 C197 C 0.66413 0.33531 -0.33076
 C198 C 0.63094 0.36792 -0.31927
 C199 C 0.62180 0.36389 -0.22874
 H200 H 0.61441 0.39044 -0.36998
 H201 H 0.64805 0.31972 -0.11767
 H202 H 0.69705 0.28506 -0.23552
 N203 N 0.13533 0.80237 -0.19398
 N204 N 0.16079 0.78148 -0.25863
 C205 C 0.15411 0.81033 -0.33673
 C206 C 0.12484 0.85052 -0.32232
 C207 C 0.11416 0.84414 -0.23301
 H208 H 0.11280 0.88126 -0.36976
 H209 H 0.13354 0.78767 -0.12741
 H210 H 0.17984 0.74742 -0.24675
 N211 N 0.36258 0.69725 -0.19407
 N212 N 0.33682 0.71724 -0.25860
 C213 C 0.34382 0.68846 -0.33670
 C214 C 0.37362 0.64921 -0.32237
 C215 C 0.38429 0.65609 -0.23314
 H216 H 0.38608 0.61880 -0.36984
 H217 H 0.36423 0.71219 -0.12758
 H218 H 0.31735 0.75073 -0.24663
 N219 N -0.13935 1.18837 -0.19224
 N220 N -0.16456 1.20582 -0.25263
 C221 C -0.15876 1.17624 -0.33032
 C222 C -0.12878 1.13764 -0.31793
 C223 C -0.11721 1.14715 -0.23000
 H224 H -0.11578 1.10886 -0.36703
 H225 H -0.13678 1.20574 -0.12733
 H226 H -0.18394 1.23967 -0.24173
 N227 N 0.63997 0.68996 -0.19057
 N228 N 0.66518 0.70771 -0.25086
 C229 C 0.65948 0.67821 -0.32861
 C230 C 0.62965 0.63932 -0.31641
 C231 C 0.61799 0.64859 -0.22855
 H232 H 0.61678 0.61056 -0.36569
 H233 H 0.63727 0.70721 -0.12561
 H234 H 0.68448 0.74168 -0.23994
 N235 N 0.13817 1.19814 -0.19309
 N236 N 0.16391 1.21825 -0.25769
 C237 C 0.15677 1.18977 -0.33595
 C238 C 0.12693 1.15056 -0.32166
 C239 C 0.11635 1.15718 -0.23231
 H240 H 0.11438 1.12033 -0.36926
 H241 H 0.13660 1.21284 -0.12646
 H242 H 0.18346 1.25165 -0.24571
 N243 N 0.37079 0.29491 -0.20170
 N244 N 0.34692 0.27485 -0.26331
 C245 C 0.34881 0.30957 -0.33674
 C246 C 0.37480 0.35397 -0.32045
 C247 C 0.38805 0.34293 -0.23446
 H248 H 0.38336 0.38895 -0.36518
 H249 H 0.37544 0.27545 -0.13895
 H250 H 0.33058 0.23707 -0.25552
 N251 N -0.14133 0.81982 -0.19300
 N252 N -0.16671 0.80298 -0.25343
 C253 C -0.16061 0.83244 -0.33105
 C254 C -0.13023 0.87033 -0.31854
 C255 C -0.11876 0.86054 -0.23062
 H256 H -0.11695 0.89883 -0.36754
 H257 H -0.13894 0.80240 -0.12812
 H258 H -0.18644 0.76959 -0.24261
 N259 N 0.35725 0.68227 0.19259
 N260 N 0.33182 0.69896 0.25308
 C261 C 0.33808 0.66973 0.33081
 C262 C 0.36860 0.63211 0.31827
 C263 C 0.38001 0.64188 0.23028
 H264 H 0.38210 0.60395 0.36736
 H265 H 0.35958 0.69968 0.12769
 H266 H 0.31201 0.73220 0.24226
 N267 N -0.13479 1.20183 0.19429
 N268 N -0.16031 1.22259 0.25894
 C269 C -0.15351 1.19387 0.33711
 C270 C -0.12412 1.15389 0.32270
 C271 C -0.11346 1.16027 0.23337
 H272 H -0.11195 1.12329 0.37019
 H273 H -0.13306 1.21651 0.12770
 H274 H -0.17947 1.25649 0.24706
 N275 N 0.63354 0.30017 0.20292
 N276 N 0.65754 0.28103 0.26486
 C277 C 0.65562 0.31655 0.33749
 C278 C 0.62941 0.36049 0.32026
 C279 C 0.61609 0.34833 0.23461
 H280 H 0.62069 0.39584 0.36417
 H281 H 0.62884 0.27988 0.14076
 H282 H 0.67391 0.24324 0.25785
 N283 N 0.14045 0.81639 0.19267
 N284 N 0.16563 0.79886 0.25305
 C285 C 0.15983 0.82837 0.33081
 C286 C 0.12987 0.86703 0.31842
 C287 C 0.11830 0.85761 0.23046
 H288 H 0.11686 0.89577 0.36755
 H289 H 0.13787 0.79907 0.12773
 H290 H 0.18499 0.76498 0.24213
   
