data_POSCAR
  _audit_creation_date              2014-09-24
  _audit_creation_method            'ToBaCCo'
  _symmetry_space_group_name_H-M    'P1'
  _symmetry_Int_Tables_number       1
  _symmetry_cell_setting            triclinic
  loop_
  _symmetry_equiv_pos_as_xyz
 x,y,z
_cell_length_a 30.4345
_cell_length_b 29.9738
_cell_length_c 15.3161
_cell_angle_alpha 90.022500
_cell_angle_beta 90.089000
_cell_angle_gamma 120.268200
loop_
  _atom_site_label
  _atom_site_type_symbol
  _atom_site_fract_x
  _atom_site_fract_y
  _atom_site_fract_z
C1 C 0.43840 0.86141 0.48427
 C2 C 0.44281 0.88534 0.56493
 C3 C 0.47082 0.93969 0.56907
 C4 C 0.49420 0.97038 0.49414
 C5 C 0.48662 0.94432 0.41341
 C6 C 0.45815 0.89031 0.40847
 C7 C 0.52421 1.02878 0.50047
 C8 C 0.53906 1.06066 0.42499
 C9 C 0.56679 1.11516 0.43112
 C10 C 0.57453 1.13729 0.51454
 C11 C 0.56335 1.10734 0.58949
 C12 C 0.53932 1.05367 0.58272
 H13 H 0.41916 0.81965 0.47959
 H14 H 0.47147 0.95733 0.63076
 H15 H 0.50187 0.96468 0.35304
 H16 H 0.53117 1.04379 0.36091
 H17 H 0.59075 1.17862 0.52213
 H18 H 0.53376 1.03246 0.64248
 C19 C 0.13268 0.58139 0.48825
 C20 C 0.10875 0.56898 0.56993
 C21 C 0.05580 0.54965 0.57288
 C22 C 0.02596 0.53576 0.49545
 C23 C 0.05161 0.54424 0.41466
 C24 C 0.10452 0.56789 0.41134
 C25 C -0.03141 0.51022 0.49867
 C26 C -0.06003 0.50520 0.42247
 C27 C -0.11343 0.47628 0.42295
 C28 C -0.13896 0.45673 0.50187
 C29 C -0.11197 0.46512 0.57968
 C30 C -0.05873 0.48881 0.57699
 H31 H 0.17380 0.60043 0.48384
 H32 H 0.03820 0.54327 0.63604
 H33 H 0.03148 0.53152 0.35344
 H34 H -0.04173 0.52119 0.36089
 H35 H -0.18023 0.43584 0.50284
 H36 H -0.03981 0.48976 0.63708
 C37 C 0.41676 0.55346 0.48292
 C38 C 0.42499 0.53780 0.56463
 C39 C 0.45152 0.51045 0.56771
 C40 C 0.46915 0.49806 0.49104
 C41 C 0.46100 0.51584 0.41057
 C42 C 0.43408 0.54227 0.40658
 C43 C 0.49240 0.46391 0.49506
 C44 C 0.49973 0.44145 0.41903
 C45 C 0.51606 0.40538 0.42606
 C46 C 0.51756 0.38585 0.50648
 C47 C 0.52320 0.41571 0.57922
 C48 C 0.50900 0.45359 0.57509
 H49 H 0.39487 0.57282 0.47773
 H50 H 0.45875 0.49965 0.63084
 H51 H 0.47432 0.50907 0.34962
 H52 H 0.49513 0.45246 0.35422
 H53 H 0.52723 0.35563 0.51031
 H54 H 0.51361 0.47603 0.63309
 O55 O 0.39852 0.65934 -0.11560
 O56 O 0.40613 0.74874 -0.09244
 C57 C 0.37350 0.75555 -0.13331
 O58 O 0.32785 0.73655 -0.10871
 O59 O 0.24109 0.65461 -0.07750
 C60 C 0.23518 0.61734 -0.12572
 O61 O 0.25442 0.58970 -0.10731
 O62 O 0.33419 0.58132 -0.08339
 C63 C 0.37266 0.61121 -0.12909
 O64 O 0.40403 0.64749 0.05814
 O65 O 0.40880 0.73606 0.08229
 C66 C 0.38766 0.76199 0.10055
 O67 O 0.34742 0.75501 0.06281
 O68 O 0.26247 0.67002 0.09657
 C69 C 0.23711 0.62208 0.11288
 O70 O 0.23959 0.58882 0.06521
 O71 O 0.32403 0.58691 0.08960
 C72 C 0.37163 0.60869 0.10213
 Cr73 Cr 0.40164 0.69667 -0.01650
 Cr74 Cr 0.29591 0.70255 -0.00659
 Cr75 Cr 0.28947 0.58947 -0.00877
 O76 O 0.32922 0.66306 -0.01025
 O77 O 0.58403 0.33754 -0.07540
 O78 O 0.59837 0.25997 -0.09649
 C79 C 0.62636 0.24047 -0.10879
 O80 O 0.66385 0.25064 -0.05945
 O81 O 0.74278 0.34249 -0.09180
 C82 C 0.76120 0.38964 -0.11238
 O83 O 0.74860 0.41952 -0.07477
 O84 O 0.65931 0.40717 -0.10024
 C85 C 0.61359 0.37653 -0.12140
 O86 O 0.58763 0.32674 0.10062
 O87 O 0.59593 0.24565 0.07898
 C88 C 0.62998 0.24720 0.12924
 O89 O 0.67704 0.27383 0.11220
 O90 O 0.75865 0.36190 0.07958
 C91 C 0.76301 0.40158 0.11754
 O92 O 0.73545 0.42061 0.09895
 O93 O 0.64597 0.40975 0.07879
 C94 C 0.60976 0.37387 0.12303
 Cr95 Cr 0.59422 0.29423 0.00197
 Cr96 Cr 0.70886 0.30825 0.00978
 Cr97 Cr 0.69591 0.41150 0.00070
 O98 O 0.66653 0.33828 0.00421
 C99 C 0.43483 0.83540 -0.21048
 C100 C 0.45049 0.86837 -0.28226
 C101 C 0.42118 0.85494 -0.35928
 C102 C 0.37293 0.80841 -0.36003
 C103 C 0.35844 0.77369 -0.28876
 C104 C 0.38934 0.78792 -0.21270
 C105 C 0.31342 0.72542 -0.29669
 N106 N 0.28245 0.71526 -0.36662
 N107 N 0.29354 0.74998 -0.42940
 C108 C 0.33729 0.79629 -0.42805
 H109 H 0.45866 0.84702 -0.15266
 H110 H 0.48733 0.90333 -0.27878
 H111 H 0.30265 0.69545 -0.24861
 H112 H 0.34346 0.82341 -0.47965
 C113 C 0.16099 0.61076 -0.20559
 C114 C 0.12900 0.59726 -0.27816
 C115 C 0.13793 0.57601 -0.35339
 C116 C 0.17890 0.56564 -0.35159
 C117 C 0.21405 0.58389 -0.28143
 C118 C 0.20365 0.60454 -0.20588
 C119 C 0.25873 0.58098 -0.29026
 N120 N 0.26364 0.55459 -0.35772
 N121 N 0.22718 0.53129 -0.41732
 C122 C 0.18481 0.53530 -0.41583
 H123 H 0.15248 0.62662 -0.14883
 H124 H 0.09848 0.60588 -0.27630
 H125 H 0.29025 0.59996 -0.24548
 H126 H 0.15585 0.51424 -0.46425
 C127 C 0.40515 0.62034 -0.27870
 C128 C 0.41637 0.60221 -0.35372
 C129 C 0.40907 0.55199 -0.35836
 C130 C 0.38813 0.51914 -0.28410
 C131 C 0.37974 0.53901 -0.20543
 C132 C 0.38686 0.58966 -0.20389
 C133 C 0.36467 0.50725 -0.13090
 N134 N 0.35305 0.45739 -0.13734
 N135 N 0.35564 0.43717 -0.21315
 C136 C 0.37215 0.46606 -0.28674
 H137 H 0.41071 0.65901 -0.27953
 H138 H 0.43277 0.62894 -0.40772
 H139 H 0.36266 0.52151 -0.06733
 H140 H 0.37164 0.44687 -0.34675
 C141 C 0.56096 0.17248 -0.20344
 C142 C 0.54500 0.13897 -0.27455
 C143 C 0.58022 0.13396 -0.32548
 C144 C 0.63231 0.16137 -0.30224
 C145 C 0.64918 0.19680 -0.23133
 C146 C 0.61279 0.20267 -0.18143
 C147 C 0.70208 0.22624 -0.21617
 N148 N 0.73472 0.21865 -0.26548
 N149 N 0.71844 0.18397 -0.32960
 C150 C 0.66840 0.15511 -0.34965
 H151 H 0.53239 0.17576 -0.16646
 H152 H 0.50505 0.11842 -0.29218
 H153 H 0.71856 0.25576 -0.16710
 H154 H 0.65722 0.12742 -0.40235
 C155 C 0.78943 0.37800 -0.25736
 C156 C 0.81993 0.39605 -0.33122
 C157 C 0.85964 0.44745 -0.33674
 C158 C 0.86959 0.48095 -0.26439
 C159 C 0.84009 0.46169 -0.18718
 C160 C 0.79814 0.41031 -0.18535
 C161 C 0.85419 0.49460 -0.11407
 N162 N 0.89232 0.54437 -0.12040
 N163 N 0.91756 0.56341 -0.19465
 C164 C 0.90739 0.53359 -0.26684
 H165 H 0.75778 0.33868 -0.25761
 H166 H 0.81169 0.36982 -0.38558
 H167 H 0.83614 0.48121 -0.05148
 H168 H 0.92883 0.55162 -0.32523
 C169 C 0.54980 0.39203 -0.19252
 C170 C 0.52914 0.40354 -0.26383
 C171 C 0.55145 0.41168 -0.34652
 C172 C 0.59697 0.40970 -0.35916
 C173 C 0.61647 0.39563 -0.28551
 C174 C 0.59322 0.38786 -0.20153
 C175 C 0.65821 0.38883 -0.29809
 N176 N 0.68187 0.39970 -0.37610
 N177 N 0.66686 0.41714 -0.44285
 C178 C 0.62405 0.42228 -0.44187
 H179 H 0.53153 0.38609 -0.12950
 H180 H 0.49436 0.40461 -0.25490
 H181 H 0.67270 0.37524 -0.24632
 H182 H 0.61110 0.45145 -0.49507
 C183 C 0.80244 0.39063 0.24946
 C184 C 0.82987 0.40849 0.32649
 C185 C 0.85883 0.46154 0.34451
 C186 C 0.85976 0.49729 0.28263
 C187 C 0.83005 0.47875 0.20515
 C188 C 0.80003 0.42468 0.19001
 C189 C 0.83220 0.51523 0.14493
 N190 N 0.86042 0.56641 0.16289
 N191 N 0.88665 0.58368 0.23693
 C192 C 0.88712 0.55097 0.29751
 H193 H 0.78162 0.34945 0.23744
 H194 H 0.82955 0.38046 0.37163
 H195 H 0.81237 0.50383 0.08331
 H196 H 0.90845 0.56727 0.35697
 C197 C 0.57078 0.16584 0.20657
 C198 C 0.55626 0.13297 0.27861
 C199 C 0.58562 0.14738 0.35583
 C200 C 0.63198 0.19616 0.35679
 C201 C 0.64324 0.23155 0.28742
 C202 C 0.61413 0.21514 0.20952
 C203 C 0.68341 0.28260 0.29905
 N204 N 0.71489 0.29483 0.36880
 N205 N 0.70886 0.25944 0.42737
 C206 C 0.66917 0.21039 0.42274
 H207 H 0.54762 0.15263 0.14803
 H208 H 0.52053 0.09690 0.27417
 H209 H 0.68986 0.31301 0.25397
 H210 H 0.66729 0.18298 0.47032
 C211 C 0.53726 0.36725 0.20496
 C212 C 0.51429 0.37365 0.27826
 C213 C 0.54235 0.39664 0.35402
 C214 C 0.59552 0.41394 0.35799
 C215 C 0.61927 0.41080 0.27910
 C216 C 0.58963 0.38607 0.20289
 C217 C 0.67231 0.43489 0.27742
 N218 N 0.70016 0.46489 0.34486
 N219 N 0.67859 0.46828 0.41801
 C220 C 0.62724 0.43892 0.43397
 H221 H 0.51387 0.34805 0.14832
 H222 H 0.47391 0.36022 0.27610
 H223 H 0.69222 0.43357 0.22063
 C224 C 0.17792 0.63308 0.20903
 C225 C 0.14409 0.61910 0.27857
 C226 C 0.13166 0.57521 0.32806
 C227 C 0.15253 0.54393 0.30590
 C228 C 0.18888 0.55921 0.23784
 C229 C 0.20121 0.60418 0.18780
 C230 C 0.21271 0.52970 0.22541
 N231 N 0.19834 0.48648 0.27332
 N232 N 0.16216 0.47080 0.33366
 C233 C 0.13880 0.49803 0.35156
 H234 H 0.18644 0.66732 0.17208
 H235 H 0.12873 0.64362 0.29565
 H236 H 0.24332 0.54060 0.18006
 H237 H 0.10956 0.48353 0.40114
 C238 C 0.37491 0.80323 0.22940
 C239 C 0.39197 0.83387 0.30374
 C240 C 0.44396 0.86284 0.32360
 C241 C 0.47971 0.86257 0.26490
 C242 C 0.46238 0.83226 0.18757
 C243 C 0.40925 0.80062 0.17183
 C244 C 0.49908 0.83537 0.12826
 N245 N 0.54929 0.86443 0.14775
 N246 N 0.56534 0.89083 0.22218
 C247 C 0.53231 0.89081 0.28149
 H248 H 0.33426 0.77979 0.21861
 H249 H 0.36412 0.83391 0.34771
 H250 H 0.48861 0.81599 0.06586
 H251 H 0.54755 0.91290 0.34082
 C252 C 0.42833 0.62494 0.22815
 C253 C 0.44340 0.60899 0.30190
 C254 C 0.42123 0.55648 0.32203
 C255 C 0.38418 0.51908 0.26531
 C256 C 0.36921 0.53523 0.18950
 C257 C 0.39032 0.58884 0.17270
 C258 C 0.33381 0.49688 0.13285
 N259 N 0.31339 0.44623 0.15314
 N260 N 0.32605 0.43120 0.22600
 C261 C 0.36060 0.46581 0.28284
 H262 H 0.44501 0.66598 0.21635
 H263 H 0.47156 0.63792 0.34518
 H264 H 0.32263 0.50638 0.07208
 H265 H 0.36924 0.45124 0.34095
   
