data_POSCAR
  _audit_creation_date              2014-09-24
  _audit_creation_method            'ToBaCCo'
  _symmetry_space_group_name_H-M    'P1'
  _symmetry_Int_Tables_number       1
  _symmetry_cell_setting            triclinic
  loop_
  _symmetry_equiv_pos_as_xyz
 x,y,z
_cell_length_a 27.3398
_cell_length_b 27.2767
_cell_length_c 27.0417
_cell_angle_alpha 90.045600
_cell_angle_beta 89.984300
_cell_angle_gamma 89.961900
loop_
  _atom_site_label
  _atom_site_type_symbol
  _atom_site_fract_x
  _atom_site_fract_y
  _atom_site_fract_z
C1 C 0.16240 0.16276 0.22158
 N2 N 0.20395 0.14295 0.20242
 C3 C 0.22705 0.16461 0.16359
 N4 N 0.20835 0.20657 0.14402
 C5 C 0.16625 0.22594 0.16226
 N6 N 0.14332 0.20382 0.20077
 C7 C -0.16366 0.83519 0.22844
 N8 N -0.20238 0.85767 0.20649
 C9 C -0.22209 0.83921 0.16427
 N10 N -0.20215 0.79841 0.14351
 C11 C -0.16401 0.77525 0.16567
 N12 N -0.14507 0.79352 0.20824
 C13 C -0.16716 0.16082 -0.22448
 N14 N -0.14643 0.20024 -0.20201
 C15 C -0.16887 0.22218 -0.16307
 N16 N -0.21161 0.20377 -0.14556
 C17 C -0.23191 0.16339 -0.16677
 N18 N -0.20982 0.14243 -0.20658
 C19 C 0.16663 0.83905 -0.22236
 N20 N 0.20983 0.85472 -0.20345
 C21 C 0.22981 0.83201 -0.16350
 N22 N 0.20711 0.79216 -0.14382
 C23 C 0.16388 0.77634 -0.16277
 N24 N 0.14325 0.80051 -0.20132
 C25 C 0.16334 1.16286 0.77758
 N26 N 0.20196 1.14105 0.80030
 C27 C 0.22290 1.16215 0.84055
 N28 N 0.20447 1.20468 0.85888
 C29 C 0.16496 1.22606 0.83727
 N30 N 0.14490 1.20524 0.79636
 C31 C 0.84038 0.83916 0.77707
 N32 N 0.85820 0.79626 0.79518
 C33 C 0.83559 0.77340 0.83357
 N34 N 0.79440 0.79344 0.85334
 C35 C 0.77685 0.83666 0.83583
 N36 N 0.80016 0.85958 0.79811
 C37 C 0.16166 0.83614 1.22469
 N38 N 0.20489 0.85335 1.20715
 C39 C 0.22784 0.83049 1.16906
 N40 N 0.20745 0.78997 1.14836
 C41 C 0.16351 0.77335 1.16483
 N42 N 0.14057 0.79670 1.20267
 C43 C 0.83933 1.16311 1.22301
 N44 N 0.79891 1.14253 1.20255
 C45 C 0.77621 1.16428 1.16374
 N46 N 0.79459 1.20642 1.14453
 C47 C 0.83593 1.22656 1.16380
 N48 N 0.85789 1.20492 1.20327
 O49 O 0.43154 1.08839 1.08748
 O50 O 0.37794 1.03824 1.04590
 C51 C 0.38778 1.07370 1.07626
 O52 O 0.56518 1.08340 0.90989
 O53 O 0.62076 1.04100 0.95714
 C54 C 0.60947 1.07202 0.92271
 O55 O 0.42825 1.08636 0.91855
 O56 O 0.37634 1.03618 0.96201
 C57 C 0.38494 1.07131 0.93100
 O58 O 0.56885 1.08652 1.08940
 O59 O 0.62256 1.04032 1.04338
 C60 C 0.61270 1.07323 1.07650
 Zr61 Zr 0.50010 1.06011 1.06435
 O62 O 0.50190 1.13761 1.06627
 O63 O 0.49961 1.05517 1.14231
 Zr64 Zr 0.49770 1.05891 0.93963
 O65 O 0.49896 1.13632 0.94308
 O66 O 0.49095 1.05928 0.86166
 O67 O 0.45500 1.06785 1.00268
 O68 O 0.54131 1.06934 1.00103
 O69 O 0.57235 0.91496 1.09278
 O70 O 0.62420 0.95928 1.04303
 C71 C 0.61564 0.92801 1.07800
 O72 O 0.43270 0.90566 0.91763
 O73 O 0.37843 0.95143 0.96333
 C74 C 0.38881 0.91792 0.93095
 O75 O 0.56963 0.91093 0.91360
 O76 O 0.62280 0.95970 0.95726
 C77 C 0.61327 0.92599 0.92493
 O78 O 0.43493 0.90627 1.08963
 O79 O 0.37951 0.95340 1.04699
 C80 C 0.39062 0.91932 1.07835
 Zr81 Zr 0.50262 0.93633 1.06572
 O82 O 0.51012 0.85912 1.06761
 O83 O 0.49882 0.93864 1.14388
 Zr84 Zr 0.50073 0.93483 0.94068
 O85 O 0.50699 0.85746 0.94092
 O86 O 0.49506 0.93547 0.86258
 Zr87 Zr 0.42728 0.99580 1.00383
 Zr88 Zr 0.57292 0.99908 1.00111
 O89 O 0.54423 0.92753 1.00260
 O90 O 0.45822 0.92495 1.00401
 O91 O 0.54519 0.99929 1.07379
 O92 O 0.45661 0.99587 0.93185
 O93 O 0.45878 0.99750 1.07483
 O94 O 0.54260 0.99772 0.92952
 H95 H 0.56270 1.09865 1.00034
 H96 H 0.43419 0.99539 0.90308
 H97 H 0.56681 0.89911 1.00270
 H98 H 0.43704 0.99748 1.10416
 H99 H 0.51641 1.03709 0.84844
 H100 H 0.52393 0.95304 0.84948
 H101 H 0.48041 0.84444 0.96196
 H102 H 0.48459 0.84523 1.04585
 H103 H 0.52335 0.96283 1.15523
 H104 H 0.49920 1.08939 1.15464
 H105 H 0.48418 1.14915 1.03658
 H106 H 0.49781 1.14800 0.90840
 O107 O 0.08257 0.56849 -0.09312
 O108 O 0.03588 0.62202 -0.04746
 C109 C 0.06871 0.61235 -0.08061
 O110 O -0.09486 0.42895 -0.08368
 O111 O -0.04367 0.37622 -0.04237
 C112 C -0.07961 0.38529 -0.07220
 O113 O -0.09088 0.56675 -0.09071
 O114 O -0.04518 0.62140 -0.04532
 C115 C -0.07783 0.61088 -0.07841
 O116 O 0.08689 0.43084 -0.08883
 O117 O 0.04083 0.37676 -0.04322
 C118 C 0.07439 0.38689 -0.07549
 Zr119 Zr 0.05751 0.49946 -0.06713
 O120 O 0.04915 0.49499 -0.14489
 O121 O 0.13418 0.50145 -0.07683
 Zr122 Zr -0.06567 0.49832 -0.06348
 O123 O -0.06129 0.49502 -0.14143
 O124 O -0.14291 0.50235 -0.06553
 O125 O -0.00479 0.54279 -0.07507
 O126 O -0.00385 0.45584 -0.07388
 O127 O 0.09107 0.43196 0.08050
 O128 O 0.04152 0.37765 0.03933
 C129 C 0.07684 0.38787 0.06948
 O130 O -0.08452 0.56824 0.09087
 O131 O -0.04450 0.62176 0.03941
 C132 C -0.07408 0.61208 0.07549
 O133 O -0.08866 0.43039 0.08625
 O134 O -0.04234 0.37660 0.04046
 C135 C -0.07560 0.38653 0.07312
 O136 O 0.08618 0.56989 0.08313
 O137 O 0.03755 0.62292 0.03900
 C138 C 0.07147 0.61356 0.07117
 Zr139 Zr 0.06141 0.50052 0.05818
 O140 O 0.06167 0.49608 0.13637
 O141 O 0.13865 0.50587 0.05742
 Zr142 Zr -0.06236 0.49938 0.06180
 O143 O -0.06078 0.49422 0.13987
 O144 O -0.13964 0.50468 0.06317
 Zr145 Zr -0.00309 0.57225 -0.00304
 Zr146 Zr -0.00145 0.42666 -0.00193
 O147 O 0.00020 0.45754 0.06939
 O148 O -0.00063 0.54378 0.06938
 O149 O 0.06963 0.45664 -0.00439
 O150 O -0.07349 0.54117 -0.00090
 O151 O 0.06796 0.54248 -0.00495
 O152 O -0.07314 0.45518 -0.00019
 H153 H -0.00427 0.43297 -0.10237
 H154 H -0.10253 0.56291 -0.00032
 H155 H 0.00115 0.43557 0.09854
 H156 H 0.09660 0.56470 -0.00558
 H157 H -0.15522 0.48165 -0.03826
 H158 H -0.15286 0.47584 0.04547
 H159 H -0.03810 0.51976 0.15201
 H160 H 0.04573 0.52605 0.14927
 H161 H 0.15113 0.47971 0.03538
 H162 H 0.14861 0.50694 -0.04382
 H163 H 0.03281 0.52544 -0.15605
 H164 H -0.09552 0.49431 -0.15344
 O165 O 1.09439 -0.07888 0.57007
 O166 O 1.04466 -0.03680 0.62387
 C167 C 1.07988 -0.06709 0.61427
 O168 O 1.08468 0.09204 0.42884
 O169 O 1.04116 0.04288 0.37567
 C170 C 1.07224 0.07751 0.38486
 O171 O 1.08966 0.08988 0.56821
 O172 O 1.04387 0.04498 0.62324
 C173 C 1.07712 0.07707 0.61271
 O174 O 1.08830 -0.08595 0.43104
 O175 O 1.04108 -0.04174 0.37670
 C176 C 1.07403 -0.07431 0.38677
 Zr177 Zr 1.06453 -0.05854 0.50056
 O178 O 1.14174 -0.05778 0.49536
 O179 O 1.06492 -0.13589 0.50721
 Zr180 Zr 1.06226 0.06516 0.49905
 O181 O 1.13944 0.06188 0.49645
 O182 O 1.06262 0.14268 0.50265
 O183 O 1.07295 0.00414 0.54390
 O184 O 1.07186 0.00288 0.45665
 O185 O 0.91732 -0.09014 0.43303
 O186 O 0.95962 -0.04234 0.37772
 C187 C 0.92881 -0.07678 0.38851
 O188 O 0.90994 0.08599 0.56917
 O189 O 0.95902 0.04410 0.62362
 C190 C 0.92399 0.07440 0.61349
 O191 O 0.91461 0.08951 0.43006
 O192 O 0.95941 0.04223 0.37619
 C193 C 0.92748 0.07592 0.38591
 O194 O 0.91503 -0.08462 0.57169
 O195 O 0.96125 -0.03811 0.62490
 C196 C 0.92826 -0.07084 0.61562
 Zr197 Zr 0.94076 -0.06096 0.50166
 O198 O 0.86344 -0.06150 0.49715
 O199 O 0.94204 -0.13832 0.50774
 Zr200 Zr 0.93848 0.06320 0.49987
 O201 O 0.86125 0.06279 0.49455
 O202 O 0.93826 0.14068 0.50482
 Zr203 Zr 1.00175 0.00327 0.57374
 Zr204 Zr 1.00079 0.00114 0.42680
 O205 O 0.93029 0.00037 0.45801
 O206 O 0.93019 0.00154 0.54486
 O207 O 1.00248 -0.07002 0.45715
 O208 O 1.00044 0.07377 0.54229
 O209 O 1.00318 -0.06810 0.54405
 O210 O 0.99991 0.07314 0.45524
 H211 H 1.10048 0.00297 0.43417
 H212 H 1.00004 0.10277 0.56437
 H213 H 0.90139 -0.00028 0.43592
 H214 H 1.00415 -0.09665 0.56665
 H215 H 1.04026 0.15473 0.47661
 H216 H 0.95665 0.15344 0.47609
 H217 H 0.84888 0.04035 0.52038
 H218 H 0.85069 -0.04331 0.52608
 H219 H 0.96346 -0.15092 0.48112
 H220 H 1.04728 -0.14940 0.47833
 H221 H 1.15340 -0.03022 0.51603
 H222 H 1.15092 0.09633 0.49608
 N223 N 1.15828 0.10007 0.28329
 C224 C 1.13964 0.14132 0.26235
 N225 N 1.09873 0.16166 0.28236
 N226 N 1.07734 0.14157 0.32173
 C227 C 1.09616 0.10048 0.34254
 N228 N 1.13682 0.07994 0.32258
 N229 N 0.84272 -0.09995 0.28742
 C230 C 0.85828 -0.14396 0.26988
 N231 N 0.89697 -0.16612 0.29223
 N232 N 0.91926 -0.14502 0.33056
 C233 C 0.90385 -0.10087 0.34758
 N234 N 0.86521 -0.07872 0.32550
 N235 N 0.89960 0.15557 0.71874
 C236 C 0.85536 0.13932 0.73469
 N237 N 0.83356 0.10181 0.70998
 N238 N 0.85513 0.08145 0.67080
 C239 C 0.89934 0.09774 0.65514
 N240 N 0.92134 0.13494 0.67985
 N241 N 1.09560 -0.12877 0.73357
 C242 C 1.14466 -0.13587 0.73533
 N243 N 1.17268 -0.12009 0.69704
 N244 N 1.15220 -0.09838 0.65802
 C245 C 1.10313 -0.09091 0.65656
 N246 N 1.07528 -0.10623 0.69508
 N247 N 0.28403 1.09823 1.15881
 C248 C 0.26840 1.14279 1.14280
 N249 N 0.29285 1.16475 1.10505
 N250 N 0.33139 1.14303 1.08420
 C251 C 0.34656 1.09836 1.10004
 N252 N 0.32226 1.07631 1.13765
 N253 N 0.28997 0.83165 0.90095
 C254 C 0.27135 0.85159 0.85888
 N255 N 0.29224 0.89296 0.84059
 N256 N 0.32998 0.91376 0.86354
 C257 C 0.34815 0.89405 0.90570
 N258 N 0.32777 0.85250 0.92395
 N259 N 0.71604 0.90140 1.16415
 C260 C 0.73746 0.86176 1.14260
 N261 N 0.71825 0.84410 1.09981
 N262 N 0.67927 0.86526 1.07936
 C263 C 0.65786 0.90462 1.10111
 N264 N 0.67691 0.92245 1.14378
 N265 N 0.70755 1.10011 0.83456
 C266 C 0.72662 1.14197 0.85391
 N267 N 0.70604 1.16107 0.89542
 N268 N 0.66819 1.13898 0.91695
 C269 C 0.64953 1.09706 0.89773
 N270 N 0.66966 1.07804 0.85609
 N271 N 0.09437 0.27082 0.13366
 C272 C 0.14368 0.26866 0.13867
 N273 N 0.17127 0.30615 0.12094
 N274 N 0.15011 0.34470 0.09939
 C275 C 0.10076 0.34648 0.09396
 N276 N 0.07333 0.30881 0.11129
 N277 N -0.09686 0.26651 -0.13354
 C278 C -0.14612 0.26466 -0.13920
 N279 N -0.17369 0.30273 -0.12265
 N280 N -0.15260 0.34158 -0.10162
 C281 C -0.10333 0.34314 -0.09555
 N282 N -0.07590 0.30485 -0.11165
 N283 N 0.08978 0.73302 -0.13688
 C284 C 0.13920 0.73357 -0.14169
 N285 N 0.16521 0.69361 -0.12747
 N286 N 0.14254 0.65437 -0.10917
 C287 C 0.09317 0.65405 -0.10385
 N288 N 0.06721 0.69418 -0.11766
 N289 N -0.13713 0.72969 0.09262
 C290 C -0.14185 0.73207 0.14250
 N291 N -0.12444 0.69457 0.17045
 N292 N -0.10345 0.65578 0.14918
 C293 C -0.09823 0.65374 0.09930
 N294 N -0.11529 0.69141 0.07144
 N295 N 1.15936 0.09846 0.71762
 C296 C 1.14256 0.14187 0.73558
 N297 N 1.10488 0.16435 0.71189
 N298 N 1.08468 0.14414 0.67196
 C299 C 1.10151 0.10079 0.65424
 N300 N 1.13900 0.07814 0.67781
 N301 N 0.90177 -0.15917 0.71411
 C302 C 0.86280 -0.13809 0.73698
 N303 N 0.84553 -0.09471 0.71946
 N304 N 0.86641 -0.07321 0.68063
 C305 C 0.90507 -0.09453 0.65775
 N306 N 0.92252 -0.13776 0.67514
 N307 N 1.09517 -0.15684 0.28178
 C308 C 1.13948 -0.14142 0.26515
 N309 N 1.16223 -0.10416 0.28930
 N310 N 1.14158 -0.08321 0.32861
 C311 C 1.09739 -0.09871 0.34507
 N312 N 1.07433 -0.13562 0.32088
 N313 N 0.84345 0.09912 0.28309
 C314 C 0.86144 0.14146 0.26390
 N315 N 0.90111 0.16239 0.28562
 N316 N 0.92196 0.14175 0.32498
 C317 C 0.90380 0.09953 0.34400
 N318 N 0.86438 0.07842 0.32233
 N319 N 0.16165 0.28736 -0.09944
 C320 C 0.14373 0.26769 -0.14193
 N321 N 0.10331 0.28813 -0.16267
 N322 N 0.08151 0.32654 -0.14166
 C323 C 0.09932 0.34584 -0.09912
 N324 N 0.13980 0.32577 -0.07838
 N325 N -0.16397 0.28946 0.10210
 C326 C -0.14301 0.26776 0.14207
 N327 N -0.09999 0.28587 0.15938
 N328 N -0.07860 0.32395 0.13744
 C329 C -0.09954 0.34536 0.09749
 N330 N -0.14265 0.32768 0.08026
 N331 N -0.10083 0.71329 -0.16309
 C332 C -0.14413 0.73110 -0.14604
 N333 N -0.16601 0.70818 -0.10730
 N334 N -0.14528 0.66918 -0.08629
 C335 C -0.10188 0.65181 -0.10317
 N336 N -0.08000 0.67445 -0.14192
 N337 N 0.09067 0.73192 0.13301
 C338 C 0.13976 0.73172 0.14056
 N339 N 0.16633 0.69259 0.12505
 N340 N 0.14442 0.65468 0.10326
 C341 C 0.09539 0.65509 0.09531
 N342 N 0.06891 0.69445 0.11033
 N343 N 0.26648 1.08927 0.86968
 C344 C 0.26488 1.13871 0.86441
 N345 N 0.30288 1.16600 0.88130
 N346 N 0.34144 1.14450 0.90224
 C347 C 0.34281 1.09508 0.90790
 N348 N 0.30457 1.06786 0.89151
 N349 N 0.30724 0.82474 1.12634
 C350 C 0.27173 0.85263 1.14748
 N351 N 0.27613 0.90214 1.14644
 N352 N 0.31431 0.92316 1.12455
 C353 C 0.34995 0.89541 1.10372
 N354 N 0.34602 0.84581 1.10523
 N355 N 0.73137 1.09151 1.13696
 C356 C 0.73323 1.14100 1.14162
 N357 N 0.69485 1.16823 1.12547
 N358 N 0.65579 1.14659 1.10561
 C359 C 0.65424 1.09710 1.10049
 N360 N 0.69280 1.06997 1.11623
 N361 N 0.69543 0.83211 0.87376
 C362 C 0.73392 0.85960 0.85843
 N363 N 0.73215 0.90898 0.86430
 N364 N 0.69355 0.93015 0.88545
 C365 C 0.65489 0.90276 0.90039
 N366 N 0.65637 0.85340 0.89404
   
