data_POSCAR
  _audit_creation_date              2014-09-24
  _audit_creation_method            'ToBaCCo'
  _symmetry_space_group_name_H-M    'P1'
  _symmetry_Int_Tables_number       1
  _symmetry_cell_setting            triclinic
  loop_
  _symmetry_equiv_pos_as_xyz
 x,y,z
_cell_length_a 27.7478
_cell_length_b 27.5627
_cell_length_c 49.6464
_cell_angle_alpha 87.447400
_cell_angle_beta 92.777200
_cell_angle_gamma 120.051300
loop_
  _atom_site_label
  _atom_site_type_symbol
  _atom_site_fract_x
  _atom_site_fract_y
  _atom_site_fract_z
C1 C 0.03623 0.10207 0.53581
 H2 H 0.07301 0.09787 0.53723
 C3 C 0.03370 0.14198 0.55099
 H4 H 0.06824 0.16696 0.56466
 C5 C -0.05325 0.07368 0.51623
 H6 H -0.08643 0.04769 0.50219
 C7 C -0.05704 0.11409 0.53063
 H8 H -0.09338 0.11872 0.52735
 N9 N -0.00700 0.06859 0.51906
 C10 C 0.02177 -0.07003 0.50652
 H11 H 0.02132 -0.06933 0.48471
 C12 C 0.02307 -0.11391 0.52106
 H13 H 0.02342 -0.14681 0.51011
 C14 C 0.01674 -0.03033 0.54689
 H15 H 0.01213 0.00099 0.55691
 C16 C 0.01888 -0.07293 0.56226
 H17 H 0.01791 -0.07239 0.58400
 Zn18 Zn 0.00412 0.02027 0.49770
 N19 N 0.01785 -0.02984 0.51952
 C20 C 0.11425 0.06737 0.47807
 N21 N 0.06513 0.06727 0.47602
 C22 C 0.05892 0.10490 0.45978
 C23 C 0.10299 0.14453 0.44453
 C24 C 0.15984 0.10695 0.46337
 C25 C -0.10633 -0.06289 0.48884
 C26 C -0.15166 -0.10459 0.47448
 C27 C -0.10066 -0.06668 0.43361
 C28 C -0.05635 -0.02594 0.44885
 N29 N -0.05957 -0.02532 0.47600
 H30 H 0.11851 0.03778 0.49156
 H31 H 0.01973 0.10458 0.45904
 H32 H 0.09748 0.17476 0.43206
 H33 H 0.19895 0.10709 0.46533
 H34 H -0.10727 -0.06225 0.51058
 H35 H -0.18566 -0.13524 0.48637
 H36 H -0.09587 -0.06361 0.41205
 H37 H -0.01860 0.00390 0.43896
 C38 C 0.02072 -0.11635 0.54936
 C39 C -0.01299 0.14924 0.54826
 C40 C -0.14939 -0.10889 0.44622
 C41 C 0.15442 0.14625 0.44641
 C42 C 1.10108 0.03326 0.12931
 H43 H 1.09746 0.07061 0.12827
 C44 C 1.14101 0.03090 0.11437
 H45 H 1.16655 0.06613 0.10121
 C46 C 1.07156 -0.05762 0.14790
 H47 H 1.04514 -0.09137 0.16153
 C48 C 1.11199 -0.06128 0.13374
 H49 H 1.11623 -0.09810 0.13675
 N50 N 1.06723 -0.01061 0.14555
 C51 C 0.93178 0.02106 0.15947
 H52 H 0.93258 0.01962 0.18129
 C53 C 0.88868 0.02405 0.14521
 H54 H 0.85646 0.02465 0.15638
 C55 C 0.97043 0.01689 0.11872
 H56 H 1.00104 0.01200 0.10842
 C57 C 0.92861 0.02074 0.10365
 H58 H 0.92904 0.02076 0.08187
 Zn59 Zn 1.02039 0.00111 0.16741
 N60 N 0.97109 0.01678 0.14614
 C61 C 1.06878 0.11129 0.18836
 N62 N 1.06841 0.06170 0.18950
 C63 C 1.10638 0.05482 0.20501
 C64 C 1.14650 0.09858 0.22049
 C65 C 1.10887 0.15662 0.20329
 C66 C 0.93392 -0.10824 0.17541
 C67 C 0.89230 -0.15337 0.18975
 C68 C 0.93733 -0.10657 0.23121
 C69 C 0.97758 -0.06196 0.21605
 N70 N 0.97477 -0.06327 0.18865
 H71 H 1.03895 0.11616 0.17541
 H72 H 1.10592 0.01534 0.20497
 H73 H 1.17691 0.09254 0.23240
 H74 H 1.10921 0.19611 0.20206
 H75 H 0.93204 -0.10765 0.15359
 H76 H 0.85857 -0.18719 0.17865
 H77 H 0.94024 -0.10437 0.25298
 H78 H 1.00957 -0.02545 0.22626
 C79 C 0.88612 0.02303 0.11687
 C80 C 1.14793 -0.01628 0.11686
 C81 C 0.89293 -0.15245 0.21807
 C82 C 1.14840 0.15042 0.21956
 C83 C 0.03699 0.95109 0.87265
 H84 H -0.00418 0.91481 0.87445
 C85 C 0.08179 0.95278 0.88741
 H86 H 0.07406 0.91821 0.90114
 C87 C 0.09615 1.03978 0.85234
 H88 H 0.10167 1.07277 0.83804
 C89 C 0.14250 1.04274 0.86635
 H90 H 0.18332 1.07834 0.86262
 N91 N 0.04471 0.99427 0.85569
 C92 C -0.12601 0.95991 0.84289
 H93 H -0.12889 0.95867 0.82110
 C94 C -0.16987 0.95611 0.85724
 H95 H -0.20519 0.95301 0.84561
 C96 C -0.07283 0.97159 0.88322
 H97 H -0.03437 0.97923 0.89328
 C98 C -0.11574 0.96763 0.89844
 H99 H -0.10959 0.96927 0.92010
 Zn100 Zn -0.01804 0.98328 0.83429
 N101 N -0.07852 0.96805 0.85595
 C102 C -0.08278 0.87266 0.81313
 N103 N -0.03483 0.92299 0.81184
 C104 C 0.00679 0.93157 0.79553
 C105 C 0.00130 0.88866 0.77960
 C106 C -0.08992 0.82823 0.79759
 C107 C 0.01436 1.09672 0.82586
 C108 C 0.01772 1.14317 0.81164
 C109 C -0.01585 1.08768 0.77151
 C110 C -0.01788 1.04256 0.78639
 N111 N -0.00340 1.04766 0.81312
 H112 H -0.11486 0.86651 0.82666
 H113 H 0.04487 0.97174 0.79533
 H114 H 0.03561 0.89613 0.76727
 H115 H -0.12807 0.78822 0.79892
 H116 H 0.02411 1.09914 0.84729
 H117 H 0.03047 1.18148 0.82221
 H118 H -0.02871 1.08261 0.75039
 H119 H -0.03352 1.00275 0.77683
 C120 C -0.16523 0.96107 0.88561
 C121 C 0.13577 0.99855 0.88404
 C122 C 0.00135 1.13849 0.78425
 C123 C -0.04732 0.83598 0.78064
 C124 C 0.45599 -0.01083 -0.01372
 C125 C 0.45903 -0.00932 0.01490
 C126 C 0.50589 -0.00617 0.02871
 C127 C 0.54815 -0.00720 0.01489
 C128 C 0.54323 -0.01265 -0.01339
 C129 C 0.49752 -0.01395 -0.02738
 H130 H 0.49526 -0.01571 -0.04920
 H131 H 0.50894 -0.00442 0.05054
 C132 C -0.01915 0.45309 0.65335
 C133 C -0.02444 0.44890 0.68173
 C134 C -0.03082 0.48915 0.69502
 C135 C -0.02856 0.53543 0.68089
 C136 C -0.01993 0.54138 0.65282
 C137 C -0.01608 0.49991 0.63937
 H138 H -0.01166 0.50377 0.61767
 H139 H -0.03515 0.48573 0.71672
 C140 C 0.56031 0.55263 0.31920
 C141 C 0.55770 0.55618 0.34737
 C142 C 0.51298 0.51290 0.36131
 C143 C 0.47015 0.46710 0.34760
 C144 C 0.47139 0.46512 0.31925
 C145 C 0.51680 0.50751 0.30541
 H146 H 0.51825 0.50542 0.28373
 H147 H 0.51142 0.51494 0.38299
 C148 C -0.01718 0.27921 0.59218
 C149 C -0.06666 0.22909 0.58608
 C150 C -0.06541 0.18690 0.57200
 C151 C -0.01477 0.19404 0.56322
 C152 C 0.03452 0.24458 0.56893
 C153 C 0.03341 0.28620 0.58345
 C154 C -0.01810 0.32385 0.60769
 C155 C 0.02061 0.38086 0.60273
 C156 C 0.02065 0.42260 0.61772
 C157 C -0.01854 0.40852 0.63776
 C158 C -0.05815 0.35181 0.64227
 C159 C -0.05743 0.30996 0.62773
 H160 H -0.10419 0.14845 0.56831
 H161 H 0.07426 0.25245 0.56204
 H162 H 0.05147 0.46599 0.61370
 H163 H -0.08984 0.33977 0.65707
 H164 H 0.07254 0.32363 0.58807
 H165 H 0.05071 0.39351 0.58707
 H166 H -0.10660 0.22241 0.59199
 H167 H -0.08745 0.26668 0.63247
 C168 C 0.75201 0.72001 0.26156
 C169 C 0.78144 0.77551 0.27045
 C170 C 0.82739 0.81650 0.25657
 C171 C 0.84574 0.80301 0.23361
 C172 C 0.81704 0.74722 0.22506
 C173 C 0.77060 0.70634 0.23875
 C174 C 0.70200 0.67679 0.27593
 C175 C 0.69058 0.62098 0.27846
 C176 C 0.64381 0.58054 0.29206
 C177 C 0.60804 0.59521 0.30372
 C178 C 0.61884 0.65057 0.30117
 C179 C 0.66524 0.69096 0.28730
 H180 H 0.84770 0.85911 0.26355
 H181 H 0.83030 0.73505 0.20769
 H182 H 0.63616 0.53797 0.29404
 H183 H 0.59135 0.66244 0.30995
 H184 H 0.74868 0.66421 0.23112
 H185 H 0.71832 0.60868 0.27040
 H186 H 0.76903 0.78744 0.28820
 H187 H 0.67200 0.73316 0.28529
 C188 C 0.27665 -0.00138 -0.07451
 C189 C 0.27667 0.04920 -0.07992
 C190 C 0.23109 0.04933 -0.09322
 C191 C 0.18459 -0.00105 -0.10178
 C192 C 0.18508 -0.05145 -0.09674
 C193 C 0.23011 -0.05167 -0.08308
 C194 C 0.32436 -0.00209 -0.05970
 C195 C 0.33972 -0.04194 -0.06558
 C196 C 0.38247 -0.04460 -0.05075
 C197 C 0.41140 -0.00704 -0.02992
 C198 C 0.39772 0.03424 -0.02470
 C199 C 0.35424 0.03622 -0.03915
 H200 H 0.23212 0.08892 -0.09647
 H201 H 0.15075 -0.09102 -0.10351
 H202 H 0.39246 -0.07656 -0.05533
 H203 H 0.42022 0.06452 -0.00913
 H204 H 0.22794 -0.09159 -0.07894
 H205 H 0.31877 -0.07123 -0.08168
 H206 H 0.31204 0.08890 -0.07403
 H207 H 0.34341 0.06712 -0.03378
 C208 C 0.00523 0.73819 0.59373
 C209 C -0.02123 0.76667 0.60234
 C210 C -0.01579 0.81396 0.58812
 C211 C 0.01697 0.83464 0.56511
 C212 C 0.04432 0.80678 0.55680
 C213 C 0.03823 0.75899 0.57081
 C214 C -0.00176 0.68695 0.60852
 C215 C 0.04249 0.67572 0.61101
 C216 C 0.03597 0.62774 0.62494
 C217 C -0.01453 0.59054 0.63705
 C218 C -0.05892 0.60120 0.63459
 C219 C -0.05272 0.64880 0.62034
 H220 H -0.03830 0.83356 0.59493
 H221 H 0.07049 0.82181 0.53941
 H222 H 0.07077 0.62025 0.62685
 H223 H -0.09831 0.57263 0.64369
 H224 H 0.05873 0.73786 0.56335
 H225 H 0.08258 0.70450 0.60264
 H226 H -0.04617 0.75257 0.62016
 H227 H -0.08807 0.65537 0.61840
 C228 C 0.28413 0.28679 0.26207
 C229 C 0.26937 0.29461 0.23537
 C230 C 0.22418 0.25083 0.22185
 C231 C 0.19315 0.19815 0.23461
 C232 C 0.20718 0.19049 0.26139
 C233 C 0.25194 0.23438 0.27503
 C234 C 0.33323 0.33276 0.27623
 C235 C 0.36754 0.32093 0.29386
 C236 C 0.41310 0.36400 0.30751
 C237 C 0.42538 0.41968 0.30369
 C238 C 0.39213 0.43192 0.28576
 C239 C 0.34628 0.38887 0.27226
 H240 H 0.21465 0.25757 0.20108
 H241 H 0.18348 0.15040 0.27178
 H242 H 0.43862 0.35393 0.32120
 H243 H 0.40087 0.47471 0.28276
 H244 H 0.26126 0.22725 0.29576
 H245 H 0.35943 0.27841 0.29699
 H246 H 0.29366 0.33410 0.22463
 H247 H 0.32041 0.39946 0.25915
 C248 C 0.70926 -0.03144 -0.07108
 C249 C 0.76351 -0.00967 -0.06014
 C250 C 0.80436 -0.01285 -0.07407
 C251 C 0.79237 -0.03824 -0.09954
 C252 C 0.73709 -0.06126 -0.11000
 C253 C 0.69645 -0.05769 -0.09606
 C254 C 0.66643 -0.02622 -0.05660
 C255 C 0.61068 -0.07004 -0.05670
 C256 C 0.57057 -0.06508 -0.04302
 C257 C 0.58550 -0.01651 -0.02877
 C258 C 0.64084 0.02756 -0.02881
 C259 C 0.68093 0.02279 -0.04260
 H260 H 0.84586 0.00730 -0.06505
 H261 H 0.72401 -0.08348 -0.12874
 H262 H 0.52804 -0.09959 -0.04308
 H263 H 0.65294 0.06563 -0.01815
 H264 H 0.65501 -0.07489 -0.10513
 H265 H 0.59820 -0.10862 -0.06696
 H266 H 0.77466 0.01021 -0.04073
 H267 H 0.72318 0.05777 -0.04255
 C268 C 0.28085 -0.01778 0.07538
 C269 C 0.23064 -0.06796 0.08015
 C270 C 0.18744 -0.06764 0.09343
 C271 C 0.19361 -0.01725 0.10267
 C272 C 0.24421 0.03267 0.09830
 C273 C 0.28683 0.03251 0.08458
 C274 C 0.32659 -0.01741 0.06061
 C275 C 0.38273 0.02174 0.06678
 C276 C 0.42550 0.02428 0.05198
 C277 C 0.41338 -0.01286 0.03093
 C278 C 0.35762 -0.05355 0.02546
 C279 C 0.31469 -0.05528 0.03983
 H280 H 0.14901 -0.10687 0.09616
 H281 H 0.25135 0.07220 0.10562
 H282 H 0.46814 0.05579 0.05678
 H283 H 0.34718 -0.08360 0.00976
 H284 H 0.32426 0.07219 0.08094
 H285 H 0.39385 0.05060 0.08309
 H286 H 0.22466 -0.10770 0.07379
 H287 H 0.27215 -0.08565 0.03422
 C288 C 0.72475 0.75156 0.40405
 C289 C 0.71421 0.76572 0.42898
 C290 C 0.75520 0.81251 0.44268
 C291 C 0.80890 0.84713 0.43204
 C292 C 0.81804 0.83281 0.40638
 C293 C 0.77683 0.78604 0.39278
 C294 C 0.68178 0.70074 0.38992
 C295 C 0.69689 0.66655 0.37657
 C296 C 0.65658 0.61903 0.36308
 C297 C 0.60047 0.60494 0.36260
 C298 C 0.58508 0.63835 0.37624
 C299 C 0.62533 0.68590 0.38971
 H300 H 0.74296 0.82159 0.46125
 H301 H 0.85785 0.85501 0.39690
 H302 H 0.66913 0.59330 0.35297
 H303 H 0.54196 0.62820 0.37598
 H304 H 0.78605 0.77665 0.37338
 H305 H 0.73983 0.67621 0.37679
 H306 H 0.67428 0.74007 0.43820
 H307 H 0.61240 0.71165 0.39951
 C308 C -0.00775 0.27362 0.74213
 C309 C 0.04024 0.28425 0.75754
 C310 C 0.04332 0.24042 0.77128
 C311 C -0.00114 0.18509 0.76946
 C312 C -0.04890 0.17449 0.75386
 C313 C -0.05231 0.21837 0.74046
 C314 C -0.01125 0.31984 0.72752
 C315 C -0.05913 0.32471 0.72892
 C316 C -0.06300 0.36746 0.71451
 C317 C -0.01951 0.40526 0.69809
 C318 C 0.02862 0.40090 0.69695
 C319 C 0.03283 0.35869 0.71163
 H320 H 0.08060 0.24960 0.78315
 H321 H -0.08400 0.13229 0.75237
 H322 H -0.10038 0.37031 0.71567
 H323 H 0.06275 0.42999 0.68450
 H324 H -0.08954 0.20906 0.72853
 H325 H -0.09345 0.29552 0.74122
 H326 H 0.07504 0.32658 0.75921
 H327 H 0.07000 0.35559 0.71010
 C328 C 0.74280 0.01261 0.07309
 C329 C 0.77014 -0.01447 0.06382
 C330 C 0.81673 -0.01064 0.07784
 C331 C 0.83789 0.02111 0.10133
 C332 C 0.81123 0.04916 0.11030
 C333 C 0.76412 0.04468 0.09647
 C334 C 0.69211 0.00707 0.05854
 C335 C 0.68185 0.05225 0.05687
 C336 C 0.63438 0.04702 0.04314
 C337 C 0.59675 -0.00307 0.03047
 C338 C 0.60644 -0.04836 0.03211
 C339 C 0.65351 -0.04348 0.04614
 H340 H 0.83540 -0.03365 0.07051
 H341 H 0.82668 0.07461 0.12807
 H342 H 0.62759 0.08250 0.04186
 H343 H 0.57753 -0.08744 0.02253
 H344 H 0.74388 0.06562 0.10442
 H345 H 0.71100 0.09206 0.06572
 H346 H 0.75563 -0.03869 0.04564
 H347 H 0.65932 -0.07953 0.04745
 C348 C 0.29155 0.28112 0.40454
 C349 C 0.29865 0.26666 0.43139
 C350 C 0.25462 0.22171 0.44473
 C351 C 0.20245 0.19060 0.43159
 C352 C 0.19559 0.20426 0.40463
 C353 C 0.23970 0.24882 0.39121
 C354 C 0.33769 0.33009 0.39057
 C355 C 0.32654 0.36475 0.37278
 C356 C 0.36968 0.41004 0.35922
 C357 C 0.42476 0.42166 0.36324
 C358 C 0.43635 0.38813 0.38139
 C359 C 0.39321 0.34259 0.39484
 H360 H 0.26078 0.21250 0.46562
 H361 H 0.15595 0.18047 0.39394
 H362 H 0.36012 0.43581 0.34540
 H363 H 0.47867 0.39638 0.38456
 H364 H 0.23315 0.25791 0.37035
 H365 H 0.28448 0.35708 0.36944
 H366 H 0.33776 0.29104 0.44237
 H367 H 0.40323 0.31644 0.40812
 C368 C -0.04905 0.70341 0.73711
 C369 C -0.07108 0.69290 0.76302
 C370 C -0.07242 0.73536 0.77682
 C371 C -0.05174 0.78916 0.76500
 C372 C -0.03168 0.79896 0.73871
 C373 C -0.03037 0.75660 0.72493
 C374 C -0.04366 0.65988 0.72315
 C375 C 0.00472 0.67465 0.70903
 C376 C 0.01003 0.63409 0.69572
 C377 C -0.03310 0.57804 0.69603
 C378 C -0.08099 0.56285 0.71054
 C379 C -0.08629 0.60342 0.72397
 H380 H -0.08754 0.72673 0.79717
 H381 H -0.01640 0.83970 0.72889
 H382 H 0.04780 0.64646 0.68508
 H383 H -0.11469 0.51975 0.71103
 H384 H -0.01433 0.76560 0.70476
 H385 H 0.03880 0.71753 0.70853
 H386 H -0.08537 0.65248 0.77302
 H387 H -0.12414 0.59084 0.73456
   
