data_POSCAR
  _audit_creation_date              2014-09-24
  _audit_creation_method            'ToBaCCo'
  _symmetry_space_group_name_H-M    'P1'
  _symmetry_Int_Tables_number       1
  _symmetry_cell_setting            triclinic
  loop_
  _symmetry_equiv_pos_as_xyz
 x,y,z
_cell_length_a 50.0475
_cell_length_b 50.0366
_cell_length_c 47.3154
_cell_angle_alpha 89.968000
_cell_angle_beta 89.938900
_cell_angle_gamma 89.679300
loop_
  _atom_site_label
  _atom_site_type_symbol
  _atom_site_fract_x
  _atom_site_fract_y
  _atom_site_fract_z
O1 O 0.02708 0.27435 -0.02623
 O2 O -0.02423 0.27897 0.02935
 O3 O 0.02760 0.27458 0.02844
 O4 O -0.02467 0.27885 -0.02594
 O5 O -0.02849 0.23495 -0.02566
 O6 O 0.02370 0.23069 0.02912
 O7 O -0.02824 0.23515 0.02924
 O8 O 0.02330 0.23043 -0.02623
 Cu9 Cu 0.00173 0.28109 0.00141
 Cu10 Cu -0.00275 0.22839 0.00168
 C11 C 0.03396 0.25160 -0.03577
 C12 C -0.03510 0.25789 0.03888
 C13 C 0.03464 0.25193 0.03807
 C14 C -0.03543 0.25767 -0.03525
 O15 O 0.53037 0.77940 0.47294
 O16 O 0.47912 0.77991 0.52872
 O17 O 0.53090 0.77919 0.52809
 O18 O 0.47858 0.78025 0.47356
 O19 O 0.47791 0.73617 0.47339
 O20 O 0.53075 0.73507 0.52765
 O21 O 0.47855 0.73583 0.52853
 O22 O 0.53014 0.73529 0.47295
 Cu23 Cu 0.50475 0.78410 0.50084
 Cu24 Cu 0.50422 0.73116 0.50060
 C25 C 0.53910 0.75726 0.46349
 C26 C 0.47012 0.75800 0.53825
 C27 C 0.53985 0.75697 0.53711
 C28 C 0.46932 0.75845 0.46407
 O29 O 1.03090 0.72007 0.02862
 O30 O 0.97935 0.72296 -0.02677
 O31 O 1.03131 0.71970 -0.02596
 O32 O 0.97897 0.72290 0.02849
 O33 O 0.98092 0.76693 0.02818
 O34 O 1.03331 0.76367 -0.02660
 O35 O 0.98137 0.76699 -0.02668
 O36 O 1.03283 0.76405 0.02883
 Cu37 Cu 1.00483 0.71702 0.00109
 Cu38 Cu 1.00740 0.76981 0.00090
 C39 C 1.04073 0.74156 0.03831
 C40 C 0.97153 0.74547 -0.03622
 C41 C 1.04136 0.74108 -0.03568
 C42 C 0.97101 0.74541 0.03773
 O43 O 0.47450 0.22184 0.47308
 O44 O 0.52588 0.22083 0.52867
 O45 O 0.47388 0.22144 0.52840
 O46 O 0.52647 0.22083 0.47406
 O47 O 0.52659 0.26494 0.47380
 O48 O 0.47394 0.26552 0.52840
 O49 O 0.52599 0.26493 0.52910
 O50 O 0.47460 0.26592 0.47347
 Cu51 Cu 0.50004 0.21682 0.50104
 Cu52 Cu 0.50034 0.26975 0.50122
 C53 C 0.46582 0.24404 0.46367
 C54 C 0.53478 0.24272 0.53834
 C55 C 0.46495 0.24354 0.53779
 C56 C 0.53556 0.24275 0.46465
 O57 O 0.71836 -0.02157 0.02726
 O58 O 0.71739 0.03131 -0.02702
 O59 O 0.71693 -0.02056 -0.02796
 O60 O 0.71842 0.03038 0.02807
 O61 O 0.76251 0.03005 0.02682
 O62 O 0.76103 -0.02115 -0.02901
 O63 O 0.76142 0.03115 -0.02770
 O64 O 0.76244 -0.02221 0.02571
 Cu65 Cu 0.71335 0.00490 0.00021
 Cu66 Cu 0.76626 0.00438 -0.00116
 C67 C 0.74060 -0.03101 0.03563
 C68 C 0.73928 0.04053 -0.03649
 C69 C 0.73871 -0.02961 -0.03801
 C70 C 0.74071 0.03909 0.03685
 O71 O 0.21321 0.52224 0.47434
 O72 O 0.21270 0.46811 0.52725
 O73 O 0.21299 0.52001 0.52939
 O74 O 0.21238 0.47032 0.47215
 O75 O 0.25647 0.46929 0.47220
 O76 O 0.25710 0.51963 0.52908
 O77 O 0.25680 0.46735 0.52689
 O78 O 0.25731 0.52158 0.47447
 Cu79 Cu 0.20840 0.49523 0.50079
 Cu80 Cu 0.26134 0.49438 0.50064
 C81 C 0.23539 0.53130 0.46556
 C82 C 0.23471 0.45838 0.53597
 C83 C 0.23511 0.52849 0.53887
 C84 C 0.23428 0.46116 0.46252
 O85 O 0.27731 1.02252 0.02754
 O86 O 0.27752 0.96991 -0.02702
 O87 O 0.27634 1.02187 -0.02766
 O88 O 0.27908 0.97061 0.02801
 O89 O 0.23505 0.96951 0.02923
 O90 O 0.23235 1.02105 -0.02641
 O91 O 0.23349 0.96899 -0.02571
 O92 O 0.23332 1.02157 0.02852
 Cu93 Cu 0.28197 0.99635 0.00009
 Cu94 Cu 0.22915 0.99519 0.00153
 C95 C 0.25524 1.03107 0.03747
 C96 C 0.25550 0.96043 -0.03569
 C97 C 0.25390 1.03029 -0.03668
 C98 C 0.25756 0.96125 0.03816
 O99 O 0.78158 0.52978 0.52712
 O100 O 0.77831 0.47828 0.47187
 O101 O 0.77899 0.53011 0.47199
 O102 O 0.78088 0.47798 0.52680
 O103 O 0.73686 0.47871 0.52915
 O104 O 0.73498 0.53107 0.47440
 O105 O 0.73430 0.47900 0.47426
 O106 O 0.73756 0.53079 0.52943
 Cu107 Cu 0.78435 0.50400 0.49920
 Cu108 Cu 0.73150 0.50501 0.50204
 C109 C 0.76017 0.53902 0.53785
 C110 C 0.75577 0.46979 0.46360
 C111 C 0.75667 0.53944 0.46369
 C112 C 0.75922 0.46941 0.53738
 C113 C 0.23998 0.25356 0.25133
 C114 C 0.26041 0.23546 0.25048
 C115 C 0.26038 0.21323 0.22978
 C116 C 0.28343 0.23678 0.27009
 C117 C 0.23810 0.27479 0.27330
 C118 C 0.21866 0.25313 0.22961
 C119 C 0.24006 0.19405 0.23025
 C120 C 0.23940 0.17388 0.20988
 C121 C 0.25904 0.17253 0.18860
 C122 C 0.27970 0.19150 0.18863
 C123 C 0.28044 0.21156 0.20916
 C124 C 0.28918 0.21495 0.28768
 C125 C 0.30979 0.21644 0.30747
 C126 C 0.32535 0.23967 0.30976
 C127 C 0.32003 0.26122 0.29142
 C128 C 0.29928 0.25976 0.27175
 C129 C 0.23294 0.30133 0.26521
 C130 C 0.23140 0.32158 0.28547
 C131 C 0.23519 0.31570 0.31420
 C132 C 0.23995 0.28913 0.32240
 C133 C 0.24096 0.26878 0.30218
 C134 C 0.22469 0.25840 0.20120
 C135 C 0.20463 0.25757 0.18073
 C136 C 0.17827 0.25123 0.18834
 C137 C 0.17228 0.24604 0.21683
 C138 C 0.19230 0.24725 0.23736
 H139 H 0.22464 0.19484 0.24631
 H140 H 0.22354 0.15928 0.21085
 H141 H 0.29494 0.19127 0.17238
 H142 H 0.29625 0.22625 0.20853
 H143 H 0.27714 0.19706 0.28669
 H144 H 0.31303 0.19964 0.32150
 H145 H 0.29537 0.27665 0.25800
 H146 H 0.23047 0.30647 0.24313
 H147 H 0.22775 0.34194 0.27866
 H148 H 0.24251 0.28410 0.34451
 H149 H 0.24402 0.24837 0.30910
 H150 H 0.24495 0.26312 0.19494
 H151 H 0.20974 0.26153 0.15888
 H152 H 0.15205 0.24136 0.22322
 H153 H 0.18735 0.24321 0.25924
 H154 H 0.33194 0.27919 0.29225
 C155 C 0.76157 0.74284 0.24756
 C156 C 0.74224 0.76221 0.24772
 C157 C 0.74070 0.78294 0.22515
 C158 C 0.72170 0.76348 0.27050
 C159 C 0.76100 0.72007 0.26768
 C160 C 0.78434 0.74360 0.22745
 C161 C 0.73790 0.81002 0.23244
 C162 C 0.73712 0.82968 0.21145
 C163 C 0.73937 0.82258 0.18284
 C164 C 0.74152 0.79549 0.17549
 C165 C 0.74172 0.77582 0.19643
 C166 C 0.72911 0.76246 0.29914
 C167 C 0.70963 0.76189 0.32027
 C168 C 0.68245 0.76330 0.31320
 C169 C 0.67503 0.76569 0.28471
 C170 C 0.69451 0.76565 0.26351
 C171 C 0.73859 0.70342 0.26949
 C172 C 0.73758 0.68310 0.28973
 C173 C 0.75904 0.67897 0.30845
 C174 C 0.78177 0.69522 0.30596
 C175 C 0.78280 0.71545 0.28565
 C176 C 0.78914 0.72184 0.20946
 C177 C 0.80981 0.72276 0.18964
 C178 C 0.82638 0.74532 0.18772
 C179 C 0.82191 0.76682 0.20634
 C180 C 0.80111 0.76594 0.22603
 H181 H 0.73680 0.81598 0.25441
 H182 H 0.73545 0.85048 0.21755
 H183 H 0.74285 0.78958 0.15351
 H184 H 0.74292 0.75503 0.19021
 H185 H 0.74997 0.76171 0.30511
 H186 H 0.71576 0.76046 0.34217
 H187 H 0.68834 0.76674 0.24160
 H188 H 0.72175 0.70641 0.25545
 H189 H 0.72001 0.67061 0.29071
 H190 H 0.79850 0.69281 0.32024
 H191 H 0.80027 0.72810 0.28454
 H192 H 0.77640 0.70443 0.21028
 H193 H 0.81241 0.70602 0.17540
 H194 H 0.83460 0.78426 0.20580
 H195 H 0.79797 0.78274 0.24010
 H196 H 0.65414 0.76684 0.27885
 C197 C 0.73760 0.24679 0.24754
 C198 C 0.75712 0.26564 0.24839
 C199 C 0.77998 0.26543 0.22843
 C200 C 0.75654 0.28736 0.26969
 C201 C 0.71706 0.24548 0.27009
 C202 C 0.73638 0.22616 0.22493
 C203 C 0.79713 0.24323 0.22656
 C204 C 0.81818 0.24303 0.20712
 C205 C 0.82246 0.26503 0.18914
 C206 C 0.80541 0.28739 0.19148
 C207 C 0.78455 0.28766 0.21109
 C208 C 0.77777 0.29014 0.28873
 C209 C 0.77702 0.31003 0.30942
 C210 C 0.75512 0.32771 0.31123
 C211 C 0.73411 0.32515 0.29171
 C212 C 0.73485 0.30519 0.27110
 C213 C 0.69014 0.25043 0.26369
 C214 C 0.67085 0.24993 0.28508
 C215 C 0.67816 0.24386 0.31302
 C216 C 0.70509 0.23844 0.31926
 C217 C 0.72442 0.23939 0.29797
 C218 C 0.73853 0.23316 0.19624
 C219 C 0.73889 0.21341 0.17539
 C220 C 0.73618 0.18639 0.18279
 C221 C 0.73278 0.17946 0.21130
 C222 C 0.73299 0.19917 0.23220
 H223 H 0.79414 0.22605 0.24013
 H224 H 0.83123 0.22571 0.20633
 H225 H 0.80782 0.30451 0.17773
 H226 H 0.77150 0.30497 0.21227
 H227 H 0.79467 0.27654 0.28791
 H228 H 0.79335 0.31124 0.32434
 H229 H 0.71850 0.30361 0.25623
 H230 H 0.68419 0.25509 0.24224
 H231 H 0.65017 0.25395 0.27978
 H232 H 0.71119 0.23383 0.34068
 H233 H 0.74513 0.23538 0.30318
 H234 H 0.74020 0.25390 0.18998
 H235 H 0.74111 0.21920 0.15346
 H236 H 0.73068 0.15873 0.21744
 H237 H 0.73107 0.19326 0.25413
 H238 H 0.71721 0.33874 0.29220
 C239 C 0.25882 0.75899 0.25579
 C240 C 0.23868 0.74083 0.25694
 C241 C 0.21835 0.73987 0.23425
 C242 C 0.23646 0.72065 0.27994
 C243 C 0.28137 0.75876 0.27611
 C244 C 0.25927 0.78005 0.23372
 C245 C 0.19206 0.74820 0.23969
 C246 C 0.17307 0.74810 0.21805
 C247 C 0.18000 0.73898 0.19094
 C248 C 0.20622 0.73017 0.18570
 C249 C 0.22534 0.73085 0.20716
 C250 C 0.23866 0.72797 0.30853
 C251 C 0.23788 0.70854 0.32973
 C252 C 0.23397 0.68157 0.32279
 C253 C 0.23056 0.67439 0.29437
 C254 C 0.23189 0.69373 0.27314
 C255 C 0.29765 0.73604 0.27943
 C256 C 0.31871 0.73614 0.29884
 C257 C 0.32392 0.75901 0.31521
 C258 C 0.30765 0.78177 0.31156
 C259 C 0.28674 0.78169 0.29206
 C260 C 0.28059 0.78121 0.21454
 C261 C 0.28103 0.80080 0.19349
 C262 C 0.26026 0.81977 0.19143
 C263 C 0.23909 0.81872 0.21099
 C264 C 0.23865 0.79908 0.23197
 H265 H 0.18643 0.75519 0.26053
 H266 H 0.15289 0.75483 0.22249
 H267 H 0.21193 0.72315 0.16489
 H268 H 0.24559 0.72431 0.20274
 H269 H 0.24123 0.74870 0.31443
 H270 H 0.24017 0.71454 0.35158
 H271 H 0.22992 0.68756 0.25131
 H272 H 0.29406 0.71829 0.26694
 H273 H 0.33113 0.71845 0.30075
 H274 H 0.31080 0.79957 0.32409
 H275 H 0.27439 0.79941 0.28977
 H276 H 0.29668 0.76669 0.21564
 H277 H 0.29745 0.80086 0.17858
 H278 H 0.22307 0.83333 0.21033
 H279 H 0.22229 0.79878 0.24697
 H280 H 0.22760 0.65368 0.28856
 C281 C 0.75669 0.26617 0.75395
 C282 C 0.73619 0.24842 0.75553
 C283 C 0.71568 0.24742 0.73298
 C284 C 0.73395 0.22841 0.77872
 C285 C 0.77949 0.26553 0.77394
 C286 C 0.75732 0.28719 0.73183
 C287 C 0.68892 0.25337 0.73925
 C288 C 0.66959 0.25266 0.71795
 C289 C 0.67671 0.24542 0.69025
 C290 C 0.70348 0.23911 0.68415
 C291 C 0.72284 0.24023 0.70533
 C292 C 0.73714 0.23576 0.80722
 C293 C 0.73699 0.21635 0.82846
 C294 C 0.73254 0.18947 0.82168
 C295 C 0.72784 0.18227 0.79352
 C296 C 0.72870 0.20155 0.77219
 C297 C 0.79527 0.24246 0.77715
 C298 C 0.81623 0.24198 0.79667
 C299 C 0.82184 0.26461 0.81324
 C300 C 0.80623 0.28782 0.80952
 C301 C 0.78540 0.28831 0.78993
 C302 C 0.77894 0.28845 0.71304
 C303 C 0.77969 0.30809 0.69207
 C304 C 0.75895 0.32706 0.68972
 C305 C 0.73745 0.32589 0.70885
 C306 C 0.73666 0.30615 0.72973
 H307 H 0.68310 0.25883 0.76054
 H308 H 0.64903 0.25738 0.72316
 H309 H 0.70943 0.23360 0.66291
 H310 H 0.74341 0.23539 0.70025
 H311 H 0.74020 0.25645 0.81299
 H312 H 0.74035 0.22226 0.85019
 H313 H 0.72592 0.19535 0.75047
 H314 H 0.79127 0.22483 0.76462
 H315 H 0.82817 0.22397 0.79862
 H316 H 0.80975 0.30547 0.82217
 H317 H 0.77345 0.30630 0.78770
 H318 H 0.79506 0.27397 0.71439
 H319 H 0.79635 0.30820 0.67747
 H320 H 0.72142 0.34049 0.70797
 H321 H 0.72005 0.30576 0.74440
 H322 H 0.72437 0.16158 0.78796
 C323 C 0.24382 0.73586 0.75007
 C324 C 0.26313 0.75492 0.75049
 C325 C 0.28567 0.75513 0.73015
 C326 C 0.26241 0.77677 0.77166
 C327 C 0.22311 0.73526 0.77244
 C328 C 0.24247 0.71468 0.72803
 C329 C 0.30279 0.73297 0.72727
 C330 C 0.32371 0.73346 0.70766
 C331 C 0.32795 0.75616 0.69069
 C332 C 0.31089 0.77838 0.69395
 C333 C 0.29011 0.77792 0.71361
 C334 C 0.28291 0.77900 0.79165
 C335 C 0.28185 0.79895 0.81229
 C336 C 0.26034 0.81716 0.81312
 C337 C 0.24014 0.81518 0.79259
 C338 C 0.24121 0.79521 0.77201
 C339 C 0.19683 0.74309 0.76626
 C340 C 0.17749 0.74358 0.78759
 C341 C 0.18408 0.73555 0.81515
 C342 C 0.21030 0.72722 0.82117
 C343 C 0.22977 0.72733 0.80000
 C344 C 0.24445 0.72086 0.69910
 C345 C 0.24339 0.70060 0.67879
 C346 C 0.23942 0.67395 0.68699
 C347 C 0.23669 0.66785 0.71578
 C348 C 0.23831 0.68800 0.73610
 H349 H 0.29993 0.71536 0.74021
 H350 H 0.33675 0.71619 0.70600
 H351 H 0.31332 0.79602 0.68095
 H352 H 0.27710 0.79520 0.71554
 H353 H 0.29944 0.76492 0.79160
 H354 H 0.29757 0.79976 0.82797
 H355 H 0.22548 0.79407 0.75637
 H356 H 0.19147 0.74927 0.74506
 H357 H 0.15732 0.74992 0.78255
 H358 H 0.21573 0.72102 0.84234
 H359 H 0.25002 0.72123 0.80500
 H360 H 0.24672 0.74135 0.69220
 H361 H 0.24515 0.70577 0.65663
 H362 H 0.23368 0.64741 0.72257
 H363 H 0.23654 0.68268 0.75821
 H364 H 0.22359 0.82921 0.79230
 C365 C 0.25470 0.23121 0.74627
 C366 C 0.23397 0.24895 0.74487
 C367 C 0.23179 0.26932 0.72205
 C368 C 0.21296 0.24921 0.76698
 C369 C 0.25489 0.20936 0.76746
 C370 C 0.27799 0.23283 0.72694
 C371 C 0.22667 0.29616 0.72896
 C372 C 0.22576 0.31569 0.70786
 C373 C 0.23013 0.30874 0.67949
 C374 C 0.23446 0.28181 0.67243
 C375 C 0.23485 0.26222 0.69347
 C376 C 0.21949 0.25520 0.79510
 C377 C 0.19978 0.25501 0.81601
 C378 C 0.17327 0.24862 0.80916
 C379 C 0.16676 0.24275 0.78096
 C380 C 0.18643 0.24332 0.75997
 C381 C 0.23443 0.19032 0.76788
 C382 C 0.23401 0.17051 0.78866
 C383 C 0.25406 0.16935 0.80946
 C384 C 0.27483 0.18818 0.80857
 C385 C 0.27532 0.20789 0.78764
 C386 C 0.28458 0.21099 0.70971
 C387 C 0.30545 0.21283 0.69019
 C388 C 0.32045 0.23644 0.68784
 C389 C 0.31428 0.25801 0.70584
 C390 C 0.29326 0.25621 0.72521
 H391 H 0.22402 0.30211 0.75079
 H392 H 0.22243 0.33635 0.71378
 H393 H 0.23746 0.27597 0.65062
 H394 H 0.23789 0.24155 0.68748
 H395 H 0.23987 0.25996 0.80079
 H396 H 0.20529 0.25947 0.83762
 H397 H 0.18110 0.23875 0.73833
 H398 H 0.21872 0.19093 0.75216
 H399 H 0.21803 0.15601 0.78837
 H400 H 0.29039 0.18809 0.82445
 H401 H 0.29124 0.22246 0.78762
 H402 H 0.27300 0.19279 0.71077
 H403 H 0.30936 0.19598 0.67644
 H404 H 0.32575 0.27627 0.70501
 H405 H 0.28871 0.27313 0.73868
 H406 H 0.14640 0.23801 0.77516
 C407 C 0.74451 0.76280 0.75112
 C408 C 0.76404 0.74365 0.75211
 C409 C 0.76438 0.72070 0.73227
 C410 C 0.78623 0.74473 0.77286
 C411 C 0.74260 0.78429 0.77282
 C412 C 0.72402 0.76311 0.72827
 C413 C 0.74251 0.70336 0.73030
 C414 C 0.74264 0.68258 0.71056
 C415 C 0.76471 0.67871 0.69253
 C416 C 0.78681 0.69578 0.69510
 C417 C 0.78670 0.71644 0.71490
 C418 C 0.79057 0.72315 0.79122
 C419 C 0.81098 0.72407 0.81127
 C420 C 0.82778 0.74645 0.81309
 C421 C 0.82368 0.76786 0.79424
 C422 C 0.80311 0.76699 0.77429
 C423 C 0.73949 0.81103 0.76434
 C424 C 0.73784 0.83142 0.78443
 C425 C 0.73954 0.82545 0.81335
 C426 C 0.74223 0.79872 0.82192
 C427 C 0.74328 0.77827 0.80185
 C428 C 0.73144 0.76155 0.69964
 C429 C 0.71196 0.76061 0.67855
 C430 C 0.68476 0.76219 0.68563
 C431 C 0.67734 0.76492 0.71410
 C432 C 0.69681 0.76525 0.73525
 H433 H 0.72528 0.70610 0.74388
 H434 H 0.72553 0.66948 0.70950
 H435 H 0.80397 0.69358 0.68133
 H436 H 0.80376 0.72962 0.71615
 H437 H 0.77774 0.70580 0.79040
 H438 H 0.81327 0.70742 0.82571
 H439 H 0.80034 0.78365 0.75995
 H440 H 0.73866 0.81614 0.74211
 H441 H 0.73576 0.85194 0.77740
 H442 H 0.74317 0.79367 0.84416
 H443 H 0.74470 0.75775 0.80899
 H444 H 0.75231 0.76081 0.69364
 H445 H 0.71810 0.75891 0.65666
 H446 H 0.65646 0.76619 0.71998
 H447 H 0.69062 0.76674 0.75714
 H448 H 0.83653 0.78519 0.79472
 C449 C 0.25406 0.09104 0.10096
 C450 C 0.27865 0.08055 0.09100
 C451 C 0.27896 0.06092 0.06977
 C452 C 0.25498 0.05099 0.05844
 C453 C 0.23064 0.06126 0.06876
 C454 C 0.23015 0.08098 0.08959
 C455 C 0.25462 0.11219 0.12342
 C456 C 0.23134 0.12470 0.13390
 C457 C 0.23290 0.14418 0.15491
 C458 C 0.25765 0.15171 0.16622
 C459 C 0.28099 0.13950 0.15576
 C460 C 0.27967 0.12006 0.13440
 C461 C 0.30279 0.08948 0.10250
 C462 C 0.30328 0.10862 0.12389
 H463 H 0.32163 0.08138 0.09499
 H464 H 0.32248 0.11470 0.13219
 H465 H 0.29800 0.05319 0.06234
 H466 H 0.21172 0.05411 0.06070
 H467 H 0.21460 0.15368 0.16203
 H468 H 0.30024 0.14494 0.16442
 H469 H 0.21081 0.08789 0.09659
 H470 H 0.21173 0.11997 0.12601
 C471 C 0.76467 0.59746 0.60461
 C472 C 0.74006 0.59242 0.59093
 C473 C 0.73868 0.57328 0.56927
 C474 C 0.76164 0.55932 0.56052
 C475 C 0.78610 0.56477 0.57371
 C476 C 0.78764 0.58349 0.59548
 C477 C 0.76523 0.61776 0.62791
 C478 C 0.78839 0.62332 0.64371
 C479 C 0.78802 0.64276 0.66483
 C480 C 0.76461 0.65727 0.67080
 C481 C 0.74129 0.65150 0.65555
 C482 C 0.74138 0.63182 0.63440
 C483 C 0.71705 0.60669 0.59872
 C484 C 0.71776 0.62615 0.61978
 H485 H 0.69823 0.60294 0.58818
 H486 H 0.69946 0.63682 0.62482
 H487 H 0.71971 0.56945 0.55904
 H488 H 0.80415 0.55434 0.56736
 H489 H 0.80615 0.64633 0.67668
 H490 H 0.72310 0.66269 0.65978
 H491 H 0.80702 0.58679 0.60470
 H492 H 0.80698 0.61284 0.64023
 C493 C 0.74243 0.90564 0.09728
 C494 C 0.72038 0.92345 0.09603
 C495 C 0.71969 0.94383 0.07560
 C496 C 0.74118 0.94741 0.05695
 C497 C 0.76340 0.93034 0.05886
 C498 C 0.76401 0.90962 0.07861
 C499 C 0.74205 0.88367 0.11883
 C500 C 0.76184 0.86354 0.12015
 C501 C 0.76070 0.84363 0.14077
 C502 C 0.74001 0.84343 0.16072
 C503 C 0.72002 0.86312 0.15945
 C504 C 0.72062 0.88290 0.13838
 C505 C 0.69940 0.92112 0.11548
 C506 C 0.69975 0.90157 0.13651
 H507 H 0.68261 0.93488 0.11471
 H508 H 0.68322 0.90085 0.15130
 H509 H 0.70264 0.95727 0.07460
 H510 H 0.78028 0.93279 0.04477
 H511 H 0.77626 0.82850 0.14141
 H512 H 0.70372 0.86268 0.17457
 H513 H 0.78167 0.89719 0.07910
 H514 H 0.77822 0.86265 0.10535
 C515 C 0.23486 0.39331 0.59565
 C516 C 0.21252 0.41071 0.59373
 C517 C 0.21242 0.43169 0.57397
 C518 C 0.23471 0.43624 0.55666
 C519 C 0.25714 0.41951 0.55923
 C520 C 0.25722 0.39824 0.57833
 C521 C 0.23393 0.37078 0.61653
 C522 C 0.25415 0.35113 0.61849
 C523 C 0.25258 0.33081 0.63864
 C524 C 0.23097 0.32967 0.65744
 C525 C 0.21048 0.34879 0.65537
 C526 C 0.21159 0.36902 0.63481
 C527 C 0.19065 0.40737 0.61187
 C528 C 0.19039 0.38725 0.63227
 H529 H 0.17362 0.42079 0.61056
 H530 H 0.17317 0.38577 0.64609
 H531 H 0.19516 0.44481 0.57246
 H532 H 0.27463 0.42267 0.54617
 H533 H 0.26858 0.31619 0.63990
 H534 H 0.19350 0.34767 0.66957
 H535 H 0.27508 0.38613 0.57937
 H536 H 0.27127 0.35100 0.60464
 C537 C 0.90593 0.26357 0.10326
 C538 C 0.91204 0.23861 0.09070
 C539 C 0.93179 0.23680 0.06966
 C540 C 0.94529 0.25973 0.06014
 C541 C 0.93864 0.28455 0.07224
 C542 C 0.91937 0.28646 0.09352
 C543 C 0.88501 0.26454 0.12599
 C544 C 0.87859 0.28804 0.14099
 C545 C 0.85863 0.28801 0.16162
 C546 C 0.84437 0.26465 0.16783
 C547 C 0.85098 0.24101 0.15333
 C548 C 0.87128 0.24073 0.13280
 C549 C 0.89813 0.21565 0.09889
 C550 C 0.87796 0.21675 0.11920
 H551 H 0.90268 0.19654 0.08917
 H552 H 0.86758 0.19847 0.12452
 H553 H 0.93632 0.21746 0.06045
 H554 H 0.94844 0.30270 0.06541
 H555 H 0.85452 0.30639 0.17293
 H556 H 0.84005 0.22283 0.15769
 H557 H 0.91515 0.30610 0.10182
 H558 H 0.88886 0.30660 0.13732
 C559 C 0.41107 0.75946 0.60471
 C560 C 0.41642 0.73552 0.58975
 C561 C 0.43584 0.73508 0.56827
 C562 C 0.44976 0.75837 0.56096
 C563 C 0.44407 0.78216 0.57550
 C564 C 0.42508 0.78274 0.59710
 C565 C 0.39036 0.75904 0.62764
 C566 C 0.38440 0.78147 0.64454
 C567 C 0.36450 0.78029 0.66515
 C568 C 0.34991 0.75678 0.66952
 C569 C 0.35612 0.73411 0.65323
 C570 C 0.37626 0.73503 0.63254
 C571 C 0.40214 0.71226 0.59604
 C572 C 0.38231 0.71209 0.61677
 H573 H 0.40614 0.69395 0.58453
 H574 H 0.37163 0.69366 0.62060
 H575 H 0.43986 0.71663 0.55700
 H576 H 0.45447 0.80044 0.57028
 H577 H 0.36063 0.79788 0.67786
 H578 H 0.34492 0.71585 0.65626
 H579 H 0.42159 0.80166 0.60736
 H580 H 0.39490 0.80011 0.64231
 C581 C 0.10003 0.73774 0.10230
 C582 C 0.08879 0.76262 0.09428
 C583 C 0.06955 0.76384 0.07270
 C584 C 0.06033 0.74040 0.05956
 C585 C 0.07094 0.71568 0.06838
 C586 C 0.09058 0.71435 0.08926
 C587 C 0.12107 0.73738 0.12484
 C588 C 0.13528 0.71405 0.13245
 C589 C 0.15456 0.71473 0.15374
 C590 C 0.15987 0.73853 0.16817
 C591 C 0.14616 0.76194 0.16059
 C592 C 0.12723 0.76165 0.13870
 C593 C 0.09641 0.78607 0.10821
 C594 C 0.11483 0.78553 0.13029
 H595 H 0.08765 0.80512 0.10226
 H596 H 0.11974 0.80416 0.14068
 H597 H 0.06135 0.78312 0.06664
 H598 H 0.06425 0.69715 0.05897
 H599 H 0.16516 0.69652 0.15924
 H600 H 0.15069 0.78049 0.17138
 H601 H 0.09780 0.69478 0.09511
 H602 H 0.13206 0.69518 0.12205
 C603 C 0.59583 0.24112 0.60249
 C604 C 0.58004 0.26436 0.59835
 C605 C 0.56038 0.26488 0.57718
 C606 C 0.55561 0.24225 0.56047
 C607 C 0.57078 0.21902 0.56514
 C608 C 0.59069 0.21844 0.58575
 C609 C 0.61706 0.24161 0.62484
 C610 C 0.63508 0.22025 0.62925
 C611 C 0.65446 0.22166 0.65038
 C612 C 0.65622 0.24421 0.66779
 C613 C 0.63856 0.26567 0.66349
 C614 C 0.61931 0.26470 0.64194
 C615 C 0.58369 0.28679 0.61559
 C616 C 0.60265 0.28683 0.63716
 H617 H 0.57149 0.30452 0.61256
 H618 H 0.60450 0.30458 0.65010
 H619 H 0.54848 0.28281 0.57403
 H620 H 0.56742 0.20125 0.55261
 H621 H 0.66795 0.20489 0.65337
 H622 H 0.64020 0.28336 0.67659
 H623 H 0.60163 0.19998 0.58836
 H624 H 0.63474 0.20240 0.61651
 C625 C 0.73880 0.10430 0.90437
 C626 C 0.71481 0.09095 0.91123
 C627 C 0.71499 0.07010 0.93113
 C628 C 0.73906 0.06132 0.94350
 C629 C 0.76299 0.07386 0.93549
 C630 C 0.76287 0.09514 0.91643
 C631 C 0.73761 0.12712 0.88389
 C632 C 0.75973 0.14360 0.87811
 C633 C 0.75775 0.16425 0.85836
 C634 C 0.73385 0.16872 0.84374
 C635 C 0.71152 0.15295 0.84974
 C636 C 0.71306 0.13261 0.87015
 C637 C 0.69090 0.09808 0.89774
 C638 C 0.69017 0.11805 0.87716
 H639 H 0.67255 0.08769 0.90274
 H640 H 0.67130 0.12244 0.86691
 H641 H 0.69635 0.06037 0.93649
 H642 H 0.78198 0.06754 0.94431
 H643 H 0.77509 0.17646 0.85404
 H644 H 0.69290 0.15679 0.83872
 H645 H 0.78188 0.10390 0.91114
 H646 H 0.77862 0.14101 0.88874
 C647 C 0.23670 0.59683 0.40651
 C648 C 0.21425 0.57978 0.40796
 C649 C 0.21376 0.55865 0.42752
 C650 C 0.23580 0.55357 0.44505
 C651 C 0.25836 0.56994 0.44292
 C652 C 0.25880 0.59138 0.42406
 C653 C 0.23618 0.61954 0.38583
 C654 C 0.25647 0.63894 0.38439
 C655 C 0.25536 0.65935 0.36429
 C656 C 0.23419 0.66079 0.34501
 C657 C 0.21357 0.64199 0.34663
 C658 C 0.21419 0.62170 0.36715
 C659 C 0.19269 0.58358 0.38952
 C660 C 0.19287 0.60379 0.36922
 H661 H 0.17558 0.57041 0.39045
 H662 H 0.17591 0.60560 0.35511
 H663 H 0.19642 0.54580 0.42870
 H664 H 0.27566 0.56636 0.45617
 H665 H 0.27142 0.67375 0.36338
 H666 H 0.19691 0.64337 0.33206
 H667 H 0.27674 0.60320 0.42333
 H668 H 0.27328 0.63880 0.39862
 C669 C 0.25475 0.89889 0.90045
 C670 C 0.27903 0.91128 0.90822
 C671 C 0.27918 0.93120 0.92914
 C672 C 0.25537 0.93928 0.94242
 C673 C 0.23134 0.92709 0.93454
 C674 C 0.23097 0.90717 0.91391
 C675 C 0.25547 0.87763 0.87810
 C676 C 0.23253 0.86375 0.86923
 C677 C 0.23423 0.84422 0.84825
 C678 C 0.25878 0.83797 0.83547
 C679 C 0.28178 0.85157 0.84426
 C680 C 0.28033 0.87119 0.86544
 C681 C 0.30298 0.90384 0.89499
 C682 C 0.30360 0.88433 0.87398
 H683 H 0.32157 0.91335 0.90088
 H684 H 0.32264 0.87938 0.86433
 H685 H 0.29789 0.94054 0.93493
 H686 H 0.21265 0.93291 0.94439
 H687 H 0.21624 0.83370 0.84228
 H688 H 0.30083 0.84712 0.83436
 H689 H 0.21185 0.89865 0.90879
 H690 H 0.21309 0.86751 0.87827
 C691 C 0.75228 0.40925 0.39886
 C692 C 0.77682 0.42163 0.40565
 C693 C 0.77779 0.44123 0.42684
 C694 C 0.75456 0.44905 0.44134
 C695 C 0.73021 0.43700 0.43435
 C696 C 0.72904 0.41734 0.41346
 C697 C 0.75221 0.38817 0.37631
 C698 C 0.72905 0.37409 0.36849
 C699 C 0.73007 0.35460 0.34741
 C700 C 0.75413 0.34862 0.33349
 C701 C 0.77730 0.36253 0.34114
 C702 C 0.77656 0.38204 0.36243
 C703 C 0.80023 0.41453 0.39121
 C704 C 0.80008 0.39527 0.36996
 H705 H 0.81900 0.42408 0.39634
 H706 H 0.81873 0.39054 0.35937
 H707 H 0.79671 0.45053 0.43188
 H708 H 0.71196 0.44268 0.44516
 H709 H 0.71198 0.34385 0.34230
 H710 H 0.79596 0.35834 0.33032
 H711 H 0.70974 0.40885 0.40906
 H712 H 0.70999 0.37762 0.37849
 C713 C 0.09284 0.24710 0.89779
 C714 C 0.09064 0.27024 0.91485
 C715 C 0.07133 0.27158 0.93635
 C716 C 0.05444 0.24987 0.94174
 C717 C 0.05719 0.22664 0.92541
 C718 C 0.07603 0.22525 0.90364
 C719 C 0.11321 0.24683 0.87449
 C720 C 0.11579 0.22561 0.85506
 C721 C 0.13512 0.22636 0.83376
 C722 C 0.15249 0.24811 0.83144
 C723 C 0.14998 0.26943 0.85048
 C724 C 0.13033 0.26913 0.87166
 C725 C 0.10787 0.29183 0.91057
 C726 C 0.12750 0.29115 0.88969
 H727 H 0.10631 0.30948 0.92376
 H728 H 0.14049 0.30828 0.88740
 H729 H 0.06966 0.28949 0.94914
 H730 H 0.04447 0.20956 0.92922
 H731 H 0.13676 0.20968 0.81925
 H732 H 0.16308 0.28653 0.84844
 H733 H 0.07718 0.20688 0.89179
 H734 H 0.10299 0.20836 0.85579
 C735 C 0.60072 0.75696 0.39993
 C736 C 0.58289 0.77891 0.40230
 C737 C 0.56304 0.77902 0.42329
 C738 C 0.55997 0.75706 0.44142
 C739 C 0.57695 0.73488 0.43833
 C740 C 0.59718 0.73484 0.41800
 C741 C 0.62227 0.75808 0.37794
 C742 C 0.64255 0.73852 0.37565
 C743 C 0.66216 0.74046 0.35477
 C744 C 0.66186 0.76172 0.33550
 C745 C 0.64199 0.78144 0.33769
 C746 C 0.62255 0.78006 0.35906
 C747 C 0.58469 0.80042 0.38344
 C748 C 0.60379 0.80075 0.36196
 H749 H 0.57088 0.81711 0.38506
 H750 H 0.60413 0.81768 0.34768
 H751 H 0.54962 0.79602 0.42519
 H752 H 0.57485 0.71764 0.45199
 H753 H 0.67746 0.72511 0.35341
 H754 H 0.64206 0.79816 0.32309
 H755 H 0.60963 0.71723 0.41661
 H756 H 0.64381 0.72176 0.38993
 C757 C 0.91075 0.74914 0.89925
 C758 C 0.92348 0.72458 0.90587
 C759 C 0.94314 0.72349 0.92701
 C760 C 0.95077 0.74667 0.94153
 C761 C 0.93849 0.77107 0.93457
 C762 C 0.91872 0.77234 0.91381
 C763 C 0.88946 0.74932 0.87693
 C764 C 0.87476 0.77242 0.86962
 C765 C 0.85495 0.77145 0.84888
 C766 C 0.84929 0.74750 0.83474
 C767 C 0.86391 0.72441 0.84181
 C768 C 0.88365 0.72508 0.86287
 C769 C 0.91665 0.70127 0.89126
 C770 C 0.89733 0.70156 0.87007
 H771 H 0.92649 0.68249 0.89620
 H772 H 0.89285 0.68298 0.85935
 H773 H 0.95268 0.70455 0.93198
 H774 H 0.94404 0.78929 0.94537
 H775 H 0.84368 0.78947 0.84429
 H776 H 0.86001 0.70583 0.83085
 H777 H 0.91005 0.79167 0.90945
 H778 H 0.87797 0.79137 0.87986
 C779 C 0.40634 0.24548 0.39777
 C780 C 0.42023 0.22153 0.40428
 C781 C 0.43939 0.22114 0.42594
 C782 C 0.44540 0.24446 0.44107
 C783 C 0.43196 0.26827 0.43425
 C784 C 0.41265 0.26882 0.41298
 C785 C 0.38564 0.24489 0.37485
 C786 C 0.36987 0.26729 0.36759
 C787 C 0.35058 0.26558 0.34637
 C788 C 0.34655 0.24159 0.33166
 C789 C 0.36232 0.21924 0.33862
 C790 C 0.38152 0.22062 0.36017
 C791 C 0.41508 0.19814 0.38903
 C792 C 0.39631 0.19776 0.36731
 H793 H 0.42582 0.17984 0.39390
 H794 H 0.39312 0.17915 0.35612
 H795 H 0.44986 0.20268 0.43080
 H796 H 0.43626 0.28658 0.44552
 H797 H 0.33838 0.28301 0.34190
 H798 H 0.35967 0.20065 0.32723
 H799 H 0.40304 0.28774 0.40875
 H800 H 0.37178 0.28620 0.37827
 C801 C 0.73652 0.90983 0.89740
 C802 C 0.75885 0.91188 0.91561
 C803 C 0.75968 0.93205 0.93622
 C804 C 0.73806 0.94970 0.93976
 C805 C 0.71560 0.94711 0.92233
 C806 C 0.71485 0.92758 0.90129
 C807 C 0.73673 0.88845 0.87520
 C808 C 0.71664 0.88618 0.85447
 C809 C 0.71772 0.86582 0.83433
 C810 C 0.73860 0.84708 0.83457
 C811 C 0.75884 0.84926 0.85487
 C812 C 0.75833 0.87003 0.87479
 C813 C 0.77996 0.89348 0.91355
 C814 C 0.77948 0.87274 0.89391
 H815 H 0.79695 0.89490 0.92764
 H816 H 0.79613 0.85880 0.89343
 H817 H 0.77690 0.93359 0.95000
 H818 H 0.69862 0.96042 0.92481
 H819 H 0.70201 0.86449 0.81867
 H820 H 0.77531 0.83507 0.85469
 H821 H 0.69702 0.92651 0.88859
 H822 H 0.70012 0.90005 0.85324
 C823 C 0.23228 0.40053 0.39790
 C824 C 0.25491 0.40310 0.41562
 C825 C 0.25571 0.42334 0.43616
 C826 C 0.23385 0.44062 0.44007
 C827 C 0.21121 0.43765 0.42297
 C828 C 0.21044 0.41801 0.40204
 C829 C 0.23240 0.37893 0.37592
 C830 C 0.21176 0.37592 0.35592
 C831 C 0.21279 0.35543 0.33592
 C832 C 0.23420 0.33729 0.33552
 C833 C 0.25494 0.34015 0.35517
 C834 C 0.25441 0.36103 0.37500
 C835 C 0.27635 0.38514 0.41312
 C836 C 0.27593 0.36433 0.39354
 H837 H 0.29360 0.38696 0.42681
 H838 H 0.29289 0.35077 0.39269
 H839 H 0.27311 0.42519 0.44964
 H840 H 0.19403 0.45067 0.42567
 H841 H 0.19664 0.35357 0.32083
 H842 H 0.27180 0.32645 0.35455
 H843 H 0.19243 0.41664 0.38965
 H844 H 0.19481 0.38928 0.35514
 C845 C 0.25094 0.08908 0.89859
 C846 C 0.27575 0.07858 0.90782
 C847 C 0.27660 0.05932 0.92941
 C848 C 0.25295 0.04978 0.94190
 C849 C 0.22835 0.06003 0.93233
 C850 C 0.22733 0.07940 0.91109
 C851 C 0.25097 0.10987 0.87569
 C852 C 0.22748 0.12234 0.86574
 C853 C 0.22859 0.14154 0.84436
 C854 C 0.25308 0.14881 0.83218
 C855 C 0.27660 0.13657 0.84205
 C856 C 0.27576 0.11742 0.86374
 C857 C 0.29959 0.08714 0.89531
 C858 C 0.29958 0.10598 0.87361
 H859 H 0.31860 0.07902 0.90229
 H860 H 0.31857 0.11181 0.86453
 H861 H 0.29583 0.05160 0.93625
 H862 H 0.20968 0.05317 0.94130
 H863 H 0.21016 0.15104 0.83764
 H864 H 0.29565 0.14178 0.83268
 H865 H 0.20783 0.08636 0.90470
 H866 H 0.20807 0.11779 0.87433
 C867 C 0.75448 0.59907 0.39780
 C868 C 0.77857 0.58543 0.40428
 C869 C 0.77918 0.56626 0.42595
 C870 C 0.75597 0.56004 0.44122
 C871 C 0.73205 0.57335 0.43457
 C872 C 0.73127 0.59264 0.41324
 C873 C 0.75480 0.61961 0.37468
 C874 C 0.73215 0.63490 0.36715
 C875 C 0.73357 0.65393 0.34561
 C876 C 0.75752 0.65821 0.33087
 C877 C 0.78015 0.64300 0.33815
 C878 C 0.77903 0.62399 0.35995
 C879 C 0.80190 0.59083 0.38898
 C880 C 0.80208 0.60956 0.36719
 H881 H 0.82032 0.58031 0.39386
 H882 H 0.82064 0.61295 0.35596
 H883 H 0.79775 0.55594 0.43070
 H884 H 0.71382 0.56891 0.44597
 H885 H 0.71592 0.66571 0.34084
 H886 H 0.79871 0.64588 0.32675
 H887 H 0.71228 0.60214 0.40913
 H888 H 0.71324 0.63273 0.37779
 C889 C 0.10218 0.73619 0.90192
 C890 C 0.09080 0.76122 0.90916
 C891 C 0.07102 0.76284 0.93022
 C892 C 0.06143 0.73962 0.94354
 C893 C 0.07217 0.71474 0.93542
 C894 C 0.09232 0.71303 0.91511
 C895 C 0.12379 0.73540 0.87997
 C896 C 0.13820 0.71193 0.87330
 C897 C 0.15795 0.71216 0.85246
 C898 C 0.16357 0.73564 0.83756
 C899 C 0.14972 0.75922 0.84426
 C900 C 0.13030 0.75939 0.86571
 C901 C 0.09880 0.78441 0.89493
 C902 C 0.11774 0.78343 0.87329
 H903 H 0.08994 0.80357 0.90025
 H904 H 0.12292 0.80186 0.86261
 H905 H 0.06272 0.78221 0.93573
 H906 H 0.06520 0.69636 0.94497
 H907 H 0.16867 0.69385 0.84765
 H908 H 0.15450 0.77753 0.83311
 H909 H 0.09961 0.69335 0.90978
 H910 H 0.13475 0.69328 0.88410
 C911 C 0.59737 0.24082 0.40115
 C912 C 0.58120 0.26391 0.40459
 C913 C 0.56139 0.26463 0.42566
 C914 C 0.55679 0.24228 0.44289
 C915 C 0.57237 0.21920 0.43894
 C916 C 0.59247 0.21847 0.41849
 C917 C 0.61864 0.24103 0.37880
 C918 C 0.63702 0.21986 0.37505
 C919 C 0.65636 0.22096 0.35382
 C920 C 0.65774 0.24300 0.33563
 C921 C 0.63976 0.26431 0.33929
 C922 C 0.62055 0.26368 0.36095
 C923 C 0.58457 0.28594 0.38668
 C924 C 0.60356 0.28567 0.36508
 H925 H 0.57209 0.30355 0.38916
 H926 H 0.60515 0.30310 0.35158
 H927 H 0.54915 0.28241 0.42824
 H928 H 0.56916 0.20165 0.45190
 H929 H 0.67013 0.20434 0.35135
 H930 H 0.64111 0.28163 0.32558
 H931 H 0.60369 0.20012 0.41644
 H932 H 0.63698 0.20239 0.38840
 C933 C 0.90498 0.26311 0.89917
 C934 C 0.90883 0.23892 0.91419
 C935 C 0.92836 0.23722 0.93542
 C936 C 0.94392 0.25951 0.94244
 C937 C 0.93968 0.28360 0.92792
 C938 C 0.92056 0.28542 0.90655
 C939 C 0.88417 0.26398 0.87637
 C940 C 0.87964 0.28666 0.85935
 C941 C 0.85972 0.28664 0.83874
 C942 C 0.84368 0.26408 0.83452
 C943 C 0.84837 0.24119 0.85103
 C944 C 0.86853 0.24091 0.87168
 C945 C 0.89299 0.21665 0.90815
 C946 C 0.87311 0.21771 0.88756
 H947 H 0.89584 0.19815 0.91972
 H948 H 0.86122 0.20000 0.88390
 H949 H 0.93125 0.21856 0.94670
 H950 H 0.95135 0.30113 0.93293
 H951 H 0.85700 0.30436 0.82589
 H952 H 0.83603 0.22367 0.84817
 H953 H 0.91824 0.30451 0.89624
 H954 H 0.89130 0.30459 0.86145
 C955 C 0.40879 0.76089 0.39926
 C956 C 0.41390 0.73693 0.41429
 C957 C 0.43383 0.73613 0.43519
 C958 C 0.44847 0.75913 0.44190
 C959 C 0.44300 0.78295 0.42734
 C960 C 0.42353 0.78387 0.40627
 C961 C 0.38755 0.76085 0.37690
 C962 C 0.38185 0.78326 0.35987
 C963 C 0.36153 0.78242 0.33974
 C964 C 0.34619 0.75929 0.33603
 C965 C 0.35209 0.73665 0.35250
 C966 C 0.37270 0.73719 0.37266
 C967 C 0.39885 0.71402 0.40864
 C968 C 0.37851 0.71423 0.38851
 H969 H 0.40265 0.69569 0.42021
 H970 H 0.36725 0.69606 0.38518
 H971 H 0.43767 0.71767 0.44652
 H972 H 0.45394 0.80101 0.43211
 H973 H 0.35794 0.79997 0.32686
 H974 H 0.34035 0.71867 0.35000
 H975 H 0.42023 0.80281 0.39596
 H976 H 0.39292 0.80161 0.36158
 C977 C 0.26159 0.90130 0.10364
 C978 C 0.23678 0.90814 0.09114
 C979 C 0.23557 0.92776 0.06991
 C980 C 0.25883 0.94062 0.06059
 C981 C 0.28341 0.93359 0.07281
 C982 C 0.28483 0.91426 0.09404
 C983 C 0.26199 0.88042 0.12642
 C984 C 0.28550 0.87267 0.14069
 C985 C 0.28483 0.85310 0.16170
 C986 C 0.26076 0.84064 0.16908
 C987 C 0.23721 0.84830 0.15507
 C988 C 0.23762 0.86808 0.13400
 C989 C 0.21336 0.89528 0.09975
 C990 C 0.21379 0.87559 0.12060
 H991 H 0.19437 0.90044 0.09013
 H992 H 0.19512 0.86618 0.12643
 H993 H 0.21646 0.93288 0.06052
 H994 H 0.30170 0.94314 0.06603
 H995 H 0.30322 0.84795 0.17249
 H996 H 0.21852 0.83863 0.16035
 H997 H 0.30432 0.90977 0.10253
 H998 H 0.30460 0.88155 0.13614
 C999 C 0.76201 0.40891 0.60233
 C1000 C 0.73738 0.41622 0.58973
 C1001 C 0.73657 0.43600 0.56867
 C1002 C 0.76009 0.44851 0.55953
 C1003 C 0.78451 0.44093 0.57173
 C1004 C 0.78552 0.42147 0.59285
 C1005 C 0.76195 0.38798 0.62504
 C1006 C 0.78522 0.37999 0.63959
 C1007 C 0.78413 0.36036 0.66051
 C1008 C 0.75988 0.34806 0.66751
 C1009 C 0.73655 0.35600 0.65325
 C1010 C 0.73738 0.37588 0.63231
 C1011 C 0.71372 0.40364 0.59809
 C1012 C 0.71375 0.38378 0.61876
 H1013 H 0.69487 0.40913 0.58838
 H1014 H 0.69491 0.37457 0.62436
 H1015 H 0.71759 0.44152 0.55924
 H1016 H 0.80299 0.45020 0.56506
 H1017 H 0.80235 0.35505 0.67154
 H1018 H 0.71771 0.34649 0.65823
 H1019 H 0.80491 0.41654 0.60134
 H1020 H 0.80444 0.38875 0.63535
 C1021 C 0.74171 0.10219 0.09868
 C1022 C 0.71956 0.08480 0.09685
 C1023 C 0.71931 0.06432 0.07656
 C1024 C 0.74127 0.06025 0.05859
 C1025 C 0.76364 0.07679 0.06124
 C1026 C 0.76387 0.09758 0.08089
 C1027 C 0.74073 0.12447 0.11984
 C1028 C 0.76054 0.14432 0.12155
 C1029 C 0.75877 0.16458 0.14175
 C1030 C 0.73741 0.16539 0.16088
 C1031 C 0.71739 0.14599 0.15917
 C1032 C 0.71863 0.12588 0.13852
 C1033 C 0.69797 0.08772 0.11547
 C1034 C 0.69773 0.10752 0.13618
 H1035 H 0.68112 0.07426 0.11425
 H1036 H 0.68072 0.10873 0.15032
 H1037 H 0.70212 0.05131 0.07500
 H1038 H 0.78089 0.07394 0.04769
 H1039 H 0.77438 0.17946 0.14274
 H1040 H 0.70059 0.14688 0.17365
 H1041 H 0.78162 0.10965 0.08193
 H1042 H 0.77742 0.14473 0.10737
 C1043 C 0.23455 0.58929 0.60331
 C1044 C 0.25681 0.58638 0.58505
 C1045 C 0.25716 0.56606 0.56457
 C1046 C 0.23518 0.54907 0.56125
 C1047 C 0.21288 0.55242 0.57886
 C1048 C 0.21257 0.57212 0.59974
 C1049 C 0.23517 0.61091 0.62524
 C1050 C 0.21501 0.61413 0.64583
 C1051 C 0.21652 0.63458 0.66580
 C1052 C 0.23793 0.65249 0.66559
 C1053 C 0.25818 0.64944 0.64534
 C1054 C 0.25719 0.62856 0.62554
 C1055 C 0.27831 0.60410 0.58692
 C1056 C 0.27831 0.62498 0.60643
 H1057 H 0.29526 0.60202 0.57280
 H1058 H 0.29528 0.63834 0.60680
 H1059 H 0.27429 0.56393 0.55067
 H1060 H 0.19561 0.53964 0.57659
 H1061 H 0.20075 0.63659 0.68138
 H1062 H 0.27503 0.66298 0.64549
 H1063 H 0.19480 0.57378 0.61254
 H1064 H 0.19810 0.60094 0.64710
 C1065 C 0.90975 0.74870 0.10187
 C1066 C 0.92283 0.72427 0.09547
 C1067 C 0.94262 0.72334 0.07444
 C1068 C 0.95007 0.74654 0.05982
 C1069 C 0.93746 0.77083 0.06655
 C1070 C 0.91753 0.77194 0.08721
 C1071 C 0.88832 0.74868 0.12409
 C1072 C 0.87327 0.77162 0.13117
 C1073 C 0.85337 0.77048 0.15184
 C1074 C 0.84797 0.74653 0.16614
 C1075 C 0.86293 0.72360 0.15928
 C1076 C 0.88276 0.72443 0.13830
 C1077 C 0.91623 0.70093 0.11020
 C1078 C 0.89680 0.70106 0.13130
 H1079 H 0.92634 0.68226 0.10541
 H1080 H 0.89250 0.68248 0.14213
 H1081 H 0.95243 0.70449 0.06966
 H1082 H 0.94287 0.78906 0.05566
 H1083 H 0.84181 0.78836 0.15624
 H1084 H 0.85921 0.70502 0.17036
 H1085 H 0.90859 0.79118 0.09141
 H1086 H 0.87628 0.79055 0.12080
 C1087 C 0.40361 0.24386 0.60197
 C1088 C 0.41811 0.22018 0.59585
 C1089 C 0.43790 0.22018 0.57478
 C1090 C 0.44396 0.24365 0.55987
 C1091 C 0.42996 0.26722 0.56637
 C1092 C 0.41001 0.26737 0.58704
 C1093 C 0.38223 0.24282 0.62422
 C1094 C 0.36576 0.26486 0.63094
 C1095 C 0.34594 0.26276 0.65161
 C1096 C 0.34204 0.23871 0.66632
 C1097 C 0.35844 0.21668 0.65982
 C1098 C 0.37818 0.21846 0.63880
 C1099 C 0.41296 0.19667 0.61093
 C1100 C 0.39361 0.19589 0.63211
 H1101 H 0.42417 0.17857 0.60637
 H1102 H 0.39047 0.17722 0.64321
 H1103 H 0.44880 0.20190 0.57020
 H1104 H 0.43430 0.28563 0.55526
 H1105 H 0.33325 0.27993 0.65568
 H1106 H 0.35591 0.19805 0.67119
 H1107 H 0.39997 0.28611 0.59104
 H1108 H 0.36755 0.28379 0.62023
 C1109 C 0.09549 0.24820 0.10241
 C1110 C 0.09285 0.27106 0.08498
 C1111 C 0.07288 0.27213 0.06421
 C1112 C 0.05573 0.25043 0.05990
 C1113 C 0.05887 0.22746 0.07658
 C1114 C 0.07839 0.22635 0.09765
 C1115 C 0.11659 0.24825 0.12493
 C1116 C 0.11970 0.22734 0.14469
 C1117 C 0.13962 0.22844 0.16531
 C1118 C 0.15706 0.25022 0.16660
 C1119 C 0.15408 0.27118 0.14718
 C1120 C 0.13383 0.27054 0.12669
 C1121 C 0.11028 0.29265 0.08815
 C1122 C 0.13054 0.29224 0.10832
 H1123 H 0.10838 0.31007 0.07466
 H1124 H 0.14364 0.30936 0.10977
 H1125 H 0.07091 0.28983 0.05112
 H1126 H 0.04596 0.21040 0.07358
 H1127 H 0.14162 0.21204 0.18013
 H1128 H 0.16723 0.28829 0.14843
 H1129 H 0.07984 0.20818 0.10983
 H1130 H 0.10687 0.21011 0.14475
 C1131 C 0.60241 0.75636 0.59958
 C1132 C 0.58455 0.77832 0.59759
 C1133 C 0.56442 0.77851 0.57694
 C1134 C 0.56109 0.75664 0.55877
 C1135 C 0.57814 0.73447 0.56146
 C1136 C 0.59866 0.73434 0.58146
 C1137 C 0.62420 0.75737 0.62129
 C1138 C 0.64447 0.73777 0.62330
 C1139 C 0.66425 0.73958 0.64401
 C1140 C 0.66413 0.76075 0.66337
 C1141 C 0.64429 0.78053 0.66140
 C1142 C 0.62468 0.77927 0.64024
 C1143 C 0.58658 0.79975 0.61648
 C1144 C 0.60591 0.79998 0.63767
 H1145 H 0.57275 0.81645 0.61513
 H1146 H 0.60641 0.81686 0.65201
 H1147 H 0.55097 0.79552 0.57535
 H1148 H 0.57586 0.71729 0.54777
 H1149 H 0.67951 0.72418 0.64518
 H1150 H 0.64447 0.79719 0.67606
 H1151 H 0.61115 0.71674 0.58256
 H1152 H 0.64557 0.72105 0.60897
   
