data_POSCAR
  _audit_creation_date              2014-09-24
  _audit_creation_method            'ToBaCCo'
  _symmetry_space_group_name_H-M    'P1'
  _symmetry_Int_Tables_number       1
  _symmetry_cell_setting            triclinic
  loop_
  _symmetry_equiv_pos_as_xyz
 x,y,z
_cell_length_a 37.4821
_cell_length_b 37.4616
_cell_length_c 36.3812
_cell_angle_alpha 92.846900
_cell_angle_beta 88.982500
_cell_angle_gamma 88.744200
loop_
  _atom_site_label
  _atom_site_type_symbol
  _atom_site_fract_x
  _atom_site_fract_y
  _atom_site_fract_z
C1 C 0.17305 1.20964 0.22796
 C2 C 0.15527 1.23935 0.21409
 C3 C 0.16804 1.25568 0.18229
 C4 C 0.19950 1.24102 0.16485
 C5 C 0.21778 1.21173 0.17881
 C6 C 0.20462 1.19611 0.21057
 C7 C 0.15906 1.19285 0.25854
 C8 C 0.17629 1.16253 0.27266
 C9 C 0.20901 1.15057 0.25570
 C10 C 0.22277 1.16660 0.22461
 C11 C 0.25407 1.15294 0.20684
 C12 C 0.26688 1.16763 0.17442
 C13 C 0.24858 1.19721 0.16076
 H14 H 0.13208 1.25017 0.22924
 H15 H 0.20936 1.25109 0.13933
 H16 H 0.13349 1.20257 0.26952
 H17 H 0.22446 1.12894 0.26661
 H18 H 0.26819 1.13050 0.21802
 H19 H 0.25774 1.20846 0.13549
 C20 C 0.82488 0.79653 0.20502
 C21 C 0.84175 0.76551 0.18915
 C22 C 0.82620 0.74545 0.15980
 C23 C 0.79281 0.75760 0.14707
 C24 C 0.77610 0.78897 0.16218
 C25 C 0.79213 0.80843 0.19133
 C26 C 0.84097 0.81628 0.23379
 C27 C 0.82459 0.84781 0.25004
 C28 C 0.79154 0.85915 0.23576
 C29 C 0.77562 0.84006 0.20646
 C30 C 0.74362 0.85256 0.19168
 C31 C 0.72769 0.83374 0.16205
 C32 C 0.74381 0.80148 0.14805
 H33 H 0.86790 0.75832 0.19890
 H34 H 0.77897 0.74246 0.12587
 H35 H 0.86709 0.80740 0.24216
 H36 H 0.77709 0.88222 0.24791
 H37 H 0.73182 0.87768 0.20248
 H38 H 0.73147 0.78630 0.12576
 C39 C 0.82533 1.22819 -0.19502
 C40 C 0.84093 1.25724 -0.17601
 C41 C 0.82476 1.27295 -0.14379
 C42 C 0.79228 1.25955 -0.13107
 C43 C 0.77679 1.23010 -0.14936
 C44 C 0.79334 1.21438 -0.18150
 C45 C 0.84204 1.21207 -0.22660
 C46 C 0.82715 1.18232 -0.24588
 C47 C 0.79482 1.16902 -0.23173
 C48 C 0.77834 1.18436 -0.19958
 C49 C 0.74753 1.16946 -0.18467
 C50 C 0.73139 1.18432 -0.15197
 C51 C 0.74569 1.21537 -0.13521
 H52 H 0.86628 1.26689 -0.18572
 H53 H 0.77935 1.27163 -0.10648
 H54 H 0.86763 1.22217 -0.23472
 H55 H 0.78143 1.14724 -0.24587
 H56 H 0.73713 1.14534 -0.19772
 H57 H 0.73309 1.22769 -0.11057
 C58 C 0.16341 0.77430 -0.22844
 C59 C 0.14550 0.74786 -0.20987
 C60 C 0.15903 0.73410 -0.17718
 C61 C 0.19150 0.74799 -0.16389
 C62 C 0.21004 0.77385 -0.18272
 C63 C 0.19606 0.78693 -0.21521
 C64 C 0.14867 0.78874 -0.25979
 C65 C 0.16638 0.81538 -0.27858
 C66 C 0.19982 0.82667 -0.26596
 C67 C 0.21443 0.81310 -0.23413
 C68 C 0.24669 0.82601 -0.22038
 C69 C 0.26046 0.81376 -0.18743
 C70 C 0.24197 0.78750 -0.16891
 H71 H 0.12157 0.73743 -0.22211
 H72 H 0.20211 0.74006 -0.13802
 H73 H 0.12267 0.78008 -0.26861
 H74 H 0.21434 0.84645 -0.28054
 H75 H 0.26087 0.84592 -0.23515
 H76 H 0.25198 0.77828 -0.14319
 C77 C 0.52661 1.05747 -0.03590
 H78 H 0.51156 1.06770 -0.01190
 C79 C 0.54963 1.07994 -0.05396
 H80 H 0.55167 1.10757 -0.04412
 C81 C 0.54392 1.00870 -0.07683
 H82 H 0.54213 0.98064 -0.08496
 C83 C 0.56680 1.03035 -0.09605
 H84 H 0.58266 1.01882 -0.11900
 N85 N 0.52409 1.02258 -0.04765
 C86 C 0.46245 1.00511 0.04841
 H87 H 0.47874 0.98309 0.05721
 C88 C 0.43755 1.02182 0.07299
 H89 H 0.43536 1.01299 0.10082
 C90 C 0.44390 1.04219 0.00104
 H91 H 0.44596 1.04929 -0.02737
 C92 C 0.41906 1.05998 0.02485
 H93 H 0.40201 1.08085 0.01464
 Zn94 Zn 0.49582 0.99063 -0.02163
 N95 N 0.46523 1.01559 0.01321
 C96 C 0.54777 0.97568 0.02923
 N97 N 0.52784 0.96013 0.00226
 C98 C 0.53241 0.92492 -0.00821
 C99 C 0.55773 0.90383 0.00905
 C100 C 0.57288 0.95550 0.04758
 C101 C 0.46095 0.97401 -0.08901
 C102 C 0.43576 0.95675 -0.11101
 C103 C 0.42136 0.91990 -0.06039
 C104 C 0.44656 0.93807 -0.03927
 N105 N 0.46583 0.96445 -0.05382
 H106 H 0.54413 1.00391 0.03642
 H107 H 0.51700 0.91332 -0.03041
 H108 H 0.56130 0.87589 0.00039
 H109 H 0.58866 0.96838 0.06885
 H110 H 0.47561 0.99586 -0.09969
 H111 H 0.43187 0.96495 -0.13881
 H112 H 0.40572 0.89952 -0.04806
 H113 H 0.45027 0.93169 -0.01089
 C114 C 0.41548 1.04958 0.06122
 C115 C 0.57005 1.06637 -0.08443
 C116 C 0.41541 0.92950 -0.09662
 C117 C 0.57820 0.91915 0.03742
 C118 C 0.00726 0.55505 1.06961
 H119 H 0.03609 0.55603 1.06951
 C120 C -0.01303 0.58010 1.09119
 H121 H 0.00035 0.60039 1.10771
 C122 C -0.04524 0.52855 1.04655
 H123 H -0.05765 0.50869 1.02875
 C124 C -0.06654 0.55337 1.06733
 H125 H -0.09531 0.55224 1.06562
 N126 N -0.00905 0.53019 1.04763
 C127 C 0.07158 0.44627 1.02166
 H128 H 0.07153 0.44552 0.99191
 C129 C 0.09268 0.42169 1.03959
 H130 H 0.10928 0.40246 1.02352
 C131 C 0.04806 0.47043 1.07872
 H132 H 0.03010 0.48897 1.09383
 C133 C 0.06821 0.44578 1.09774
 H134 H 0.06602 0.44582 1.12747
 Zn135 Zn 0.01964 0.50063 1.01487
 N136 N 0.05008 0.47026 1.04131
 C137 C 0.08133 0.52514 0.97637
 N138 N 0.04628 0.53138 0.98535
 C139 C 0.02893 0.56141 0.97499
 C140 C 0.04681 0.58661 0.95501
 C141 C 0.10003 0.54924 0.95566
 C142 C -0.01411 0.43701 0.99421
 C143 C -0.03603 0.41434 0.97376
 C144 C -0.05002 0.46297 0.93489
 C145 C -0.02759 0.48477 0.95607
 N146 N -0.01008 0.47145 0.98503
 H147 H 0.09510 0.50164 0.98527
 H148 H 0.00125 0.56622 0.98300
 H149 H 0.03255 0.61080 0.94834
 H150 H 0.12763 0.54310 0.94815
 H151 H -0.00054 0.42705 1.01769
 H152 H -0.03822 0.38686 0.98126
 H153 H -0.06409 0.47411 0.91223
 H154 H -0.02437 0.51234 0.94954
 C155 C 0.09083 0.42108 1.07805
 C156 C -0.05040 0.57984 1.08960
 C157 C -0.05452 0.42722 0.94373
 C158 C 0.08292 0.58074 0.94489
 C159 C 1.03926 -0.00532 0.56209
 H160 H 1.03150 0.02238 0.56802
 C161 C 1.06139 -0.02286 0.58614
 H162 H 1.06980 -0.00836 0.61083
 C163 C 1.03549 -0.05796 0.52371
 H164 H 1.02494 -0.07179 0.49971
 C165 C 1.05838 -0.07632 0.54653
 H166 H 1.06572 -0.10383 0.53897
 N167 N 1.02661 -0.02301 0.53170
 C168 C 1.00354 0.05625 0.45117
 H169 H 0.97485 0.05460 0.44920
 C170 C 1.02224 0.07879 0.42865
 H171 H 1.00783 0.09461 0.40942
 C172 C 1.05747 0.03630 0.47731
 H173 H 1.07113 0.01931 0.49593
 C174 C 1.07726 0.05794 0.45480
 H175 H 1.10609 0.05775 0.45647
 Zn176 Zn 0.99504 0.00350 0.50268
 N177 N 1.02128 0.03580 0.47508
 C178 C 0.95477 0.06361 0.53428
 N179 N 0.96202 0.02798 0.53561
 C180 C 0.94744 0.00851 0.56236
 C181 C 0.92531 0.02495 0.58975
 C182 C 0.93203 0.08098 0.56061
 C183 C 0.99009 -0.04538 0.44210
 C184 C 0.97309 -0.06669 0.41548
 C185 C 0.91625 -0.04779 0.44316
 C186 C 0.93437 -0.02741 0.46974
 N187 N 0.97066 -0.02665 0.46880
 H188 H 0.96684 0.07881 0.51313
 H189 H 0.95397 -0.01972 0.56304
 H190 H 0.91550 0.00900 0.61160
 H191 H 0.92625 0.10921 0.55847
 H192 H 1.01884 -0.04342 0.44128
 H193 H 0.98886 -0.08140 0.39432
 H194 H 0.88736 -0.04800 0.44400
 H195 H 0.91940 -0.01172 0.49070
 C196 C 1.05959 0.07945 0.43008
 C197 C 1.07146 -0.05892 0.57856
 C198 C 0.93573 -0.06780 0.41573
 C199 C 0.91739 0.06181 0.58935
 C200 C 0.11267 0.29189 1.17520
 C201 C 0.14956 0.28549 1.16789
 C202 C 0.16733 0.30949 1.14529
 C203 C 0.14886 0.33787 1.12978
 C204 C 0.11210 0.34350 1.13749
 C205 C 0.09437 0.32055 1.16042
 C206 C 0.09351 0.37154 1.12151
 C207 C 0.11111 0.39350 1.09716
 C208 C 0.14772 0.38782 1.08972
 C209 C 0.16655 0.36048 1.10620
 H210 H 0.19582 0.30707 1.14019
 H211 H 0.06604 0.32425 1.16630
 H212 H 0.06513 0.37556 1.12699
 H213 H 0.19479 0.35660 1.09996
 H214 H 0.09697 0.27399 1.19093
 H215 H 0.16171 0.40457 1.07106
 C216 C -0.16277 0.70315 1.10617
 C217 C -0.15596 0.71461 1.14300
 C218 C -0.13020 0.69487 1.16217
 C219 C -0.11134 0.66568 1.14491
 C220 C -0.11857 0.65508 1.10810
 C221 C -0.14449 0.67378 1.08914
 C222 C -0.09927 0.62638 1.09058
 C223 C -0.07230 0.60842 1.10922
 C224 C -0.06539 0.61897 1.14594
 C225 C -0.08496 0.64716 1.16376
 H226 H -0.12508 0.70130 1.19088
 H227 H -0.15011 0.66620 1.06073
 H228 H -0.10443 0.61874 1.06207
 H229 H -0.07905 0.65485 1.19206
 H230 H -0.18094 0.71767 1.08932
 H231 H -0.04483 0.60535 1.16084
 C232 C -0.15706 0.30185 0.91644
 C233 C -0.15711 0.30181 0.87777
 C234 C -0.13842 0.32844 0.85997
 C235 C -0.11918 0.35404 0.88045
 C236 C -0.11903 0.35339 0.91923
 C237 C -0.13840 0.32749 0.93696
 C238 C -0.09887 0.37810 0.93967
 C239 C -0.07812 0.40320 0.92194
 C240 C -0.07904 0.40414 0.88337
 C241 C -0.09948 0.37986 0.86281
 H242 H -0.13857 0.32906 0.83023
 H243 H -0.13847 0.32656 0.96669
 H244 H -0.09905 0.37752 0.96943
 H245 H -0.09927 0.38078 0.83309
 H246 H -0.17065 0.28138 0.93091
 H247 H -0.06313 0.42298 0.86898
 C248 C 0.10346 0.70236 0.83708
 C249 C 0.14048 0.70741 0.84182
 C250 C 0.15835 0.68504 0.86622
 C251 C 0.13998 0.65924 0.88534
 C252 C 0.10327 0.65453 0.87964
 C253 C 0.08532 0.67614 0.85540
 C254 C 0.08497 0.62850 0.89847
 C255 C 0.10268 0.60754 0.92392
 C256 C 0.13930 0.61282 0.92960
 C257 C 0.15781 0.63809 0.91024
 H258 H 0.18686 0.68641 0.86982
 H259 H 0.05698 0.67324 0.85108
 H260 H 0.05698 0.62453 0.89305
 H261 H 0.18598 0.64148 0.91522
 H262 H 0.08756 0.71940 0.82040
 H263 H 0.15370 0.59787 0.94951
 C264 C 1.16926 0.10733 0.30665
 C265 C 1.16049 0.14378 0.30188
 C266 C 1.13442 0.16034 0.32621
 C267 C 1.11680 0.14093 0.35285
 C268 C 1.12598 0.10461 0.35667
 C269 C 1.15251 0.08825 0.33378
 C270 C 1.10792 0.08499 0.38274
 C271 C 1.08007 0.10101 0.40448
 C272 C 1.07108 0.13719 0.40062
 C273 C 1.08957 0.15713 0.37531
 H274 H 1.12783 0.18851 0.32527
 H275 H 1.15963 0.06027 0.33611
 H276 H 1.11468 0.05694 0.38532
 H277 H 1.08210 0.18499 0.37280
 H278 H 1.18773 0.09234 0.28838
 H279 H 1.04975 0.15000 0.41726
 C280 C 1.12607 -0.18656 0.66656
 C281 C 1.14891 -0.16724 0.69014
 C282 C 1.15346 -0.13059 0.68483
 C283 C 1.13492 -0.11346 0.65728
 C284 C 1.11083 -0.13283 0.63507
 C285 C 1.10697 -0.16948 0.63959
 C286 C 1.09053 -0.11513 0.60917
 C287 C 1.09451 -0.07828 0.60448
 C288 C 1.11993 -0.05978 0.62569
 C289 C 1.13960 -0.07707 0.65206
 H290 H 1.17043 -0.11494 0.70288
 H291 H 1.08900 -0.18491 0.62242
 H292 H 1.07092 -0.12997 0.59359
 H293 H 1.15839 -0.06190 0.66847
 H294 H 1.12265 -0.21495 0.66908
 H295 H 1.12467 -0.03177 0.62210
 C296 C 0.83268 -0.09563 0.28703
 C297 C 0.84101 -0.13237 0.27950
 C298 C 0.86645 -0.14862 0.30214
 C299 C 0.88324 -0.12891 0.33047
 C300 C 0.87410 -0.09246 0.33750
 C301 C 0.84875 -0.07616 0.31572
 C302 C 0.89079 -0.07279 0.36591
 C303 C 0.91719 -0.08896 0.38683
 C304 C 0.92639 -0.12517 0.37949
 C305 C 0.90928 -0.14510 0.35181
 H306 H 0.87277 -0.17691 0.29894
 H307 H 0.84178 -0.04805 0.32041
 H308 H 0.88391 -0.04472 0.37124
 H309 H 0.91672 -0.17306 0.34680
 H310 H 0.81484 -0.08092 0.27003
 H311 H 0.94664 -0.13805 0.39543
 C312 C 0.86988 0.18476 0.70151
 C313 C 0.84467 0.16594 0.72213
 C314 C 0.83803 0.13015 0.71006
 C315 C 0.85631 0.11381 0.67941
 C316 C 0.88232 0.13281 0.66051
 C317 C 0.88864 0.16832 0.67157
 C318 C 0.90188 0.11593 0.63106
 C319 C 0.89533 0.08025 0.61950
 C320 C 0.86834 0.06204 0.63781
 C321 C 0.84932 0.07849 0.66764
 H322 H 0.82002 0.11386 0.72513
 H323 H 0.90799 0.18359 0.65686
 H324 H 0.92285 0.13044 0.61794
 H325 H 0.82912 0.06355 0.68151
 H326 H 0.87487 0.21272 0.70744
 H327 H 0.86180 0.03495 0.62917
 C328 C 0.32272 1.17255 0.13567
 C329 C 0.29833 1.15116 0.15389
 C330 C 0.30340 1.11376 0.15127
 C331 C 0.33188 1.09798 0.13036
 C332 C 0.35556 1.11975 0.11133
 C333 C 0.35095 1.15700 0.11447
 C334 C 0.38314 1.10385 0.08914
 C335 C 0.38761 1.06647 0.08609
 C336 C 0.36451 1.04513 0.10588
 C337 C 0.33676 1.06073 0.12769
 H338 H 0.28462 1.09678 0.16462
 H339 H 0.36905 1.17412 0.10036
 H340 H 0.40110 1.12048 0.07420
 H341 H 0.31892 1.04364 0.14216
 H342 H 0.31998 1.20141 0.13774
 H343 H 0.36735 1.01626 0.10368
 C344 C 0.69909 1.16538 -0.09532
 C345 C 0.70119 1.16619 -0.13397
 C346 C 0.67529 1.14823 -0.15502
 C347 C 0.64840 1.12911 -0.13781
 C348 C 0.64674 1.12864 -0.09899
 C349 C 0.67200 1.14710 -0.07804
 C350 C 0.62038 1.10899 -0.08175
 C351 C 0.59610 1.08905 -0.10281
 C352 C 0.59785 1.08968 -0.14138
 C353 C 0.62358 1.10982 -0.15874
 H354 H 0.67616 1.14885 -0.18476
 H355 H 0.67129 1.14677 -0.04826
 H356 H 0.61950 1.10821 -0.05200
 H357 H 0.62444 1.10981 -0.18853
 H358 H 0.71900 1.17811 -0.07828
 H359 H 0.57925 1.07456 -0.15805
 C360 C 0.31811 0.80794 -0.15364
 C361 C 0.29319 0.82946 -0.17140
 C362 C 0.29897 0.86639 -0.17248
 C363 C 0.32864 0.88170 -0.15542
 C364 C 0.35293 0.85992 -0.13681
 C365 C 0.34765 0.82302 -0.13646
 C366 C 0.38172 0.87551 -0.11835
 C367 C 0.38662 0.91262 -0.11832
 C368 C 0.36280 0.93387 -0.13771
 C369 C 0.33402 0.91858 -0.15603
 H370 H 0.27981 0.88346 -0.18559
 H371 H 0.36616 0.80587 -0.12258
 H372 H 0.40017 0.85885 -0.10378
 H373 H 0.31568 0.93567 -0.17019
 H374 H 0.31471 0.77935 -0.15292
 H375 H 0.36581 0.96256 -0.13776
 C376 C 0.66884 0.86759 0.16599
 C377 C 0.69538 0.84877 0.14458
 C378 C 0.69171 0.84580 0.10608
 C379 C 0.66262 0.86208 0.08923
 C380 C 0.63687 0.88196 0.11100
 C381 C 0.63997 0.88414 0.14937
 C382 C 0.60885 0.89987 0.09399
 C383 C 0.60606 0.89794 0.05546
 C384 C 0.63110 0.87713 0.03414
 C385 C 0.65925 0.85948 0.05086
 H386 H 0.71209 0.83187 0.08903
 H387 H 0.62026 0.89895 0.16652
 H388 H 0.58939 0.91560 0.11062
 H389 H 0.67868 0.84425 0.03374
 H390 H 0.67048 0.86972 0.19570
 H391 H 0.62954 0.87548 0.00441
   
