data_POSCAR
  _audit_creation_date              2014-09-24
  _audit_creation_method            'ToBaCCo'
  _symmetry_space_group_name_H-M    'P1'
  _symmetry_Int_Tables_number       1
  _symmetry_cell_setting            triclinic
  loop_
  _symmetry_equiv_pos_as_xyz
 x,y,z
_cell_length_a 56.8715
_cell_length_b 56.8948
_cell_length_c 55.0099
_cell_angle_alpha 89.980300
_cell_angle_beta 89.977800
_cell_angle_gamma 90.109800
loop_
  _atom_site_label
  _atom_site_type_symbol
  _atom_site_fract_x
  _atom_site_fract_y
  _atom_site_fract_z
O1 O -0.02002 0.27875 0.02089
 O2 O 0.02528 0.27780 -0.02698
 O3 O -0.02047 0.27791 -0.02648
 O4 O 0.02575 0.27893 0.02031
 O5 O 0.02573 0.24018 0.02119
 O6 O -0.02052 0.23916 -0.02566
 O7 O 0.02523 0.23908 -0.02611
 O8 O -0.02005 0.24000 0.02172
 Cu9 Cu 0.00262 0.28223 -0.00315
 Cu10 Cu 0.00258 0.23572 -0.00212
 C11 C -0.02777 0.25952 0.02954
 C12 C 0.03306 0.25827 -0.03479
 C13 C -0.02837 0.25838 -0.03414
 C14 C 0.03367 0.25974 0.02877
 O15 O 0.52149 0.78348 0.47603
 O16 O 0.47581 0.78366 0.52347
 O17 O 0.52162 0.78361 0.52334
 O18 O 0.47565 0.78342 0.47617
 O19 O 0.47561 0.74466 0.47637
 O20 O 0.52152 0.74485 0.52350
 O21 O 0.47573 0.74490 0.52364
 O22 O 0.52142 0.74471 0.47622
 Cu23 Cu 0.49865 0.78743 0.49973
 Cu24 Cu 0.49857 0.74090 0.49994
 C25 C 0.52932 0.76406 0.46804
 C26 C 0.46791 0.76431 0.53165
 C27 C 0.52947 0.76425 0.53148
 C28 C 0.46771 0.76399 0.46823
 O29 O 1.02212 0.72461 0.02362
 O30 O 0.97646 0.72492 -0.02380
 O31 O 1.02221 0.72460 -0.02375
 O32 O 0.97641 0.72497 0.02357
 O33 O 0.97677 0.76373 0.02354
 O34 O 1.02260 0.76332 -0.02379
 O35 O 0.97682 0.76368 -0.02386
 O36 O 1.02251 0.76333 0.02361
 Cu37 Cu 0.99927 0.72090 -0.00010
 Cu38 Cu 0.99971 0.76739 -0.00014
 C39 C 1.03013 0.74391 0.03186
 C40 C 0.96883 0.74434 -0.03199
 C41 C 1.03027 0.74389 -0.03196
 C42 C 0.96879 0.74441 0.03172
 O43 O 0.52466 0.21656 0.52129
 O44 O 0.47952 0.21783 0.47332
 O45 O 0.52529 0.21754 0.47404
 O46 O 0.47885 0.21660 0.52065
 O47 O 0.47901 0.25535 0.52161
 O48 O 0.52550 0.25630 0.47498
 O49 O 0.47974 0.25658 0.47428
 O50 O 0.52481 0.25532 0.52221
 Cu51 Cu 0.50204 0.21325 0.49724
 Cu52 Cu 0.50226 0.25977 0.49838
 C53 C 0.53252 0.23575 0.52991
 C54 C 0.47192 0.23743 0.46556
 C55 C 0.53339 0.23707 0.46655
 C56 C 0.47096 0.23580 0.52912
 O57 O 0.71698 0.02303 -0.02268
 O58 O 0.71687 -0.02258 0.02484
 O59 O 0.71728 0.02324 0.02461
 O60 O 0.71656 -0.02275 -0.02247
 O61 O 0.75533 -0.02301 -0.02272
 O62 O 0.75605 0.02294 0.02433
 O63 O 0.75561 -0.02284 0.02455
 O64 O 0.75576 0.02273 -0.02293
 Cu65 Cu 0.71303 0.00026 0.00112
 Cu66 Cu 0.75957 -0.00008 0.00079
 C67 C 0.73640 0.03072 -0.03093
 C68 C 0.73623 -0.03062 0.03284
 C69 C 0.73680 0.03102 0.03248
 C70 C 0.73583 -0.03077 -0.03064
 O71 O 0.22317 0.52129 0.47847
 O72 O 0.22424 0.47596 0.52626
 O73 O 0.22393 0.52168 0.52585
 O74 O 0.22325 0.47554 0.47897
 O75 O 0.26202 0.47576 0.47816
 O76 O 0.26270 0.52195 0.52511
 O77 O 0.26302 0.47621 0.52548
 O78 O 0.26194 0.52153 0.47771
 Cu79 Cu 0.21977 0.49861 0.50246
 Cu80 Cu 0.26630 0.49890 0.50153
 C81 C 0.24237 0.52914 0.46986
 C82 C 0.24382 0.46831 0.53406
 C83 C 0.24341 0.52968 0.53358
 C84 C 0.24251 0.46772 0.47053
 O85 O 0.28149 0.97597 -0.02234
 O86 O 0.28075 1.02141 0.02536
 O87 O 0.28083 0.97564 0.02494
 O88 O 0.28168 1.02177 -0.02199
 O89 O 0.24295 1.02177 -0.02268
 O90 O 0.24206 0.97561 0.02427
 O91 O 0.24198 1.02137 0.02465
 O92 O 0.24275 0.97599 -0.02299
 Cu93 Cu 0.28506 0.99871 0.00156
 Cu94 Cu 0.23856 0.99870 0.00074
 C95 C 0.26223 0.96810 -0.03084
 C96 C 0.26122 1.02916 0.03320
 C97 C 0.26130 0.96769 0.03262
 C98 C 0.26247 1.02972 -0.03044
 O99 O 0.77407 0.52336 0.52448
 O100 O 0.77463 0.47803 0.47677
 O101 O 0.77437 0.52372 0.47713
 O102 O 0.77429 0.47765 0.52413
 O103 O 0.73551 0.47736 0.52388
 O104 O 0.73559 0.52346 0.47685
 O105 O 0.73585 0.47774 0.47648
 O106 O 0.73529 0.52310 0.52424
 Cu107 Cu 0.77822 0.50072 0.50066
 Cu108 Cu 0.73167 0.50039 0.50034
 C109 C 0.75460 0.53097 0.53258
 C110 C 0.75535 0.47017 0.46839
 C111 C 0.75501 0.53144 0.46888
 C112 C 0.75489 0.46964 0.53210
 C113 C 0.24237 0.25947 0.24934
 C114 C 0.25918 0.24240 0.24922
 C115 C 0.25906 0.22314 0.23098
 C116 C 0.27855 0.24213 0.26732
 C117 C 0.24109 0.27729 0.26904
 C118 C 0.22447 0.26113 0.22977
 C119 C 0.23924 0.20867 0.22796
 C120 C 0.23924 0.19087 0.21044
 C121 C 0.25914 0.18708 0.19578
 C122 C 0.27911 0.20130 0.19923
 C123 C 0.27909 0.21908 0.21673
 C124 C 0.28234 0.22199 0.28147
 C125 C 0.30017 0.22163 0.29891
 C126 C 0.31468 0.24138 0.30240
 C127 C 0.31117 0.26137 0.28781
 C128 C 0.29333 0.26170 0.27036
 C129 C 0.24135 0.30128 0.26320
 C130 C 0.24091 0.31823 0.28156
 C131 C 0.24001 0.31150 0.30614
 C132 C 0.23915 0.28743 0.31192
 C133 C 0.23958 0.27049 0.29353
 C134 C 0.23117 0.26270 0.20525
 C135 C 0.21414 0.26336 0.18696
 C136 C 0.19008 0.26268 0.19287
 C137 C 0.18346 0.26176 0.21749
 C138 C 0.20050 0.26109 0.23575
 H139 H 0.22374 0.21125 0.23908
 H140 H 0.22355 0.18032 0.20812
 H141 H 0.29485 0.19855 0.18853
 H142 H 0.29463 0.22991 0.21896
 H143 H 0.27126 0.20663 0.27923
 H144 H 0.30271 0.20584 0.30956
 H145 H 0.29094 0.27727 0.25931
 H146 H 0.24228 0.30688 0.24440
 H147 H 0.24116 0.33662 0.27651
 H148 H 0.23859 0.28168 0.33068
 H149 H 0.23896 0.25205 0.29840
 H150 H 0.24959 0.26315 0.20029
 H151 H 0.21980 0.26394 0.16818
 H152 H 0.16508 0.26163 0.22263
 H153 H 0.19499 0.26011 0.25458
 H154 H 0.32197 0.27689 0.29017
 C155 C 0.75808 0.74247 0.25046
 C156 C 0.74105 0.75931 0.25035
 C157 C 0.73974 0.77737 0.23089
 C158 C 0.72288 0.76056 0.26972
 C159 C 0.75792 0.72299 0.26846
 C160 C 0.77771 0.74275 0.23264
 C161 C 0.73945 0.80127 0.23708
 C162 C 0.73867 0.81846 0.21897
 C163 C 0.73798 0.81206 0.19430
 C164 C 0.73777 0.78807 0.18816
 C165 C 0.73854 0.77088 0.20629
 C166 C 0.72926 0.76205 0.29433
 C167 C 0.71198 0.76276 0.31238
 C168 C 0.68800 0.76220 0.30614
 C169 C 0.68171 0.76122 0.28144
 C170 C 0.69899 0.76050 0.26342
 C171 C 0.73817 0.70835 0.27108
 C172 C 0.73791 0.69065 0.28869
 C173 C 0.75748 0.68711 0.30387
 C174 C 0.77746 0.70141 0.30073
 C175 C 0.77769 0.71911 0.28313
 C176 C 0.78203 0.72289 0.21823
 C177 C 0.79995 0.72319 0.20085
 C178 C 0.81401 0.74331 0.19767
 C179 C 0.80999 0.76300 0.21254
 C180 C 0.79210 0.76267 0.22996
 H181 H 0.74014 0.80662 0.25596
 H182 H 0.73844 0.83678 0.22429
 H183 H 0.73739 0.78259 0.16931
 H184 H 0.73834 0.75250 0.20116
 H185 H 0.74761 0.76252 0.29954
 H186 H 0.71738 0.76338 0.33124
 H187 H 0.69374 0.75959 0.24452
 H188 H 0.72287 0.71082 0.25965
 H189 H 0.72222 0.68003 0.29076
 H190 H 0.79295 0.69884 0.31184
 H191 H 0.79317 0.73007 0.28122
 H192 H 0.77117 0.70733 0.22008
 H193 H 0.80245 0.70783 0.18952
 H194 H 0.82080 0.77860 0.21083
 H195 H 0.78939 0.77799 0.24129
 H196 H 0.66341 0.76118 0.27605
 C197 C 0.74441 0.24423 0.24825
 C198 C 0.76108 0.26150 0.24796
 C199 C 0.78048 0.26160 0.22986
 C200 C 0.76077 0.28103 0.26586
 C201 C 0.72655 0.24266 0.26790
 C202 C 0.74319 0.22602 0.22895
 C203 C 0.79528 0.24205 0.22716
 C204 C 0.81304 0.24211 0.20959
 C205 C 0.81647 0.26182 0.19455
 C206 C 0.80197 0.28157 0.19774
 C207 C 0.78422 0.28149 0.21529
 C208 C 0.78060 0.28535 0.28033
 C209 C 0.78017 0.30296 0.29800
 C210 C 0.75993 0.31673 0.30141
 C211 C 0.74031 0.31282 0.28639
 C212 C 0.74076 0.29520 0.26871
 C213 C 0.70259 0.24200 0.26196
 C214 C 0.68558 0.24088 0.28025
 C215 C 0.69223 0.24025 0.30485
 C216 C 0.71629 0.24050 0.31074
 C217 C 0.73330 0.24155 0.29243
 C218 C 0.74150 0.23230 0.20432
 C219 C 0.74064 0.21496 0.18635
 C220 C 0.74126 0.19102 0.19270
 C221 C 0.74250 0.18482 0.21741
 C222 C 0.74336 0.20216 0.23535
 H223 H 0.79294 0.22667 0.23852
 H224 H 0.82381 0.22658 0.20749
 H225 H 0.80444 0.29716 0.18673
 H226 H 0.77312 0.29682 0.21727
 H227 H 0.79627 0.27474 0.27825
 H228 H 0.79571 0.30584 0.30898
 H229 H 0.72540 0.29239 0.25744
 H230 H 0.69704 0.24275 0.24314
 H231 H 0.66720 0.24096 0.27514
 H232 H 0.72196 0.23961 0.32951
 H233 H 0.75173 0.24151 0.29737
 H234 H 0.74094 0.25063 0.19904
 H235 H 0.73983 0.22028 0.16747
 H236 H 0.74259 0.16654 0.22289
 H237 H 0.74443 0.19696 0.25426
 H238 H 0.72442 0.32303 0.28866
 C239 C 0.25545 0.75693 0.25120
 C240 C 0.23842 0.74001 0.25128
 C241 C 0.21894 0.74014 0.23328
 C242 C 0.23851 0.72054 0.26928
 C243 C 0.27359 0.75830 0.27059
 C244 C 0.25682 0.77493 0.23168
 C245 C 0.20448 0.75994 0.23049
 C246 C 0.18688 0.76021 0.21277
 C247 C 0.18326 0.74060 0.19765
 C248 C 0.19735 0.72057 0.20099
 C249 C 0.21495 0.72032 0.21870
 C250 C 0.21862 0.71650 0.28378
 C251 C 0.21874 0.69874 0.30133
 C252 C 0.23871 0.68454 0.30458
 C253 C 0.25841 0.68825 0.28958
 C254 C 0.25827 0.70601 0.27202
 C255 C 0.29748 0.75852 0.26429
 C256 C 0.31475 0.75946 0.28231
 C257 C 0.30845 0.76039 0.30701
 C258 C 0.28446 0.76064 0.31326
 C259 C 0.26720 0.75970 0.29521
 C260 C 0.25824 0.76836 0.20712
 C261 C 0.25898 0.78549 0.18892
 C262 C 0.25850 0.80950 0.19496
 C263 C 0.25760 0.81599 0.21961
 C264 C 0.25686 0.79886 0.23778
 H265 H 0.20703 0.77528 0.24184
 H266 H 0.17642 0.77594 0.21056
 H267 H 0.19472 0.70504 0.18994
 H268 H 0.22578 0.70480 0.22073
 H269 H 0.20313 0.72737 0.28177
 H270 H 0.20316 0.69605 0.31229
 H271 H 0.27365 0.70859 0.26072
 H272 H 0.30277 0.75767 0.24539
 H273 H 0.33306 0.75966 0.27690
 H274 H 0.27905 0.76121 0.33212
 H275 H 0.24883 0.75997 0.30042
 H276 H 0.25863 0.74997 0.20207
 H277 H 0.25953 0.77994 0.17010
 H278 H 0.25763 0.83433 0.22485
 H279 H 0.25599 0.80426 0.25664
 H280 H 0.27411 0.67772 0.29173
 C281 C 0.75884 0.25759 0.74938
 C282 C 0.74220 0.24030 0.74929
 C283 C 0.72437 0.23851 0.72965
 C284 C 0.74097 0.22232 0.76884
 C285 C 0.77835 0.25770 0.76734
 C286 C 0.75834 0.27720 0.73153
 C287 C 0.70040 0.23764 0.73557
 C288 C 0.68343 0.23637 0.71727
 C289 C 0.69013 0.23580 0.69268
 C290 C 0.71420 0.23624 0.68681
 C291 C 0.73116 0.23744 0.70513
 C292 C 0.73932 0.22893 0.79337
 C293 C 0.73850 0.21184 0.81161
 C294 C 0.73911 0.18782 0.80563
 C295 C 0.74030 0.18128 0.78101
 C296 C 0.74112 0.19838 0.76280
 C297 C 0.79313 0.23812 0.76997
 C298 C 0.81094 0.23813 0.78745
 C299 C 0.81446 0.25782 0.80248
 C300 C 0.80000 0.27762 0.79935
 C301 C 0.78218 0.27758 0.78188
 C302 C 0.77821 0.28194 0.71724
 C303 C 0.77772 0.29986 0.69988
 C304 C 0.75737 0.31349 0.69660
 C305 C 0.73765 0.30904 0.71134
 C306 C 0.73818 0.29115 0.72874
 H307 H 0.69482 0.23837 0.75438
 H308 H 0.66504 0.23630 0.72236
 H309 H 0.71990 0.23540 0.66805
 H310 H 0.74960 0.23756 0.70021
 H311 H 0.73877 0.24733 0.79838
 H312 H 0.73773 0.21743 0.83040
 H313 H 0.74216 0.19293 0.74397
 H314 H 0.79070 0.22274 0.75864
 H315 H 0.82169 0.22257 0.78952
 H316 H 0.80254 0.29319 0.81035
 H317 H 0.77111 0.29293 0.77995
 H318 H 0.79395 0.27142 0.71918
 H319 H 0.79311 0.30271 0.68866
 H320 H 0.72187 0.31953 0.70955
 H321 H 0.72283 0.28811 0.73998
 H322 H 0.74039 0.16293 0.77582
 C323 C 0.24121 0.74146 0.75118
 C324 C 0.25799 0.75862 0.75108
 C325 C 0.27584 0.76027 0.73142
 C326 C 0.25930 0.77667 0.77056
 C327 C 0.22173 0.74145 0.76919
 C328 C 0.24148 0.72195 0.73322
 C329 C 0.29982 0.76086 0.73733
 C330 C 0.31680 0.76205 0.71902
 C331 C 0.31011 0.76282 0.69443
 C332 C 0.28604 0.76265 0.68858
 C333 C 0.26906 0.76153 0.70691
 C334 C 0.26084 0.77015 0.79513
 C335 C 0.26167 0.78732 0.81328
 C336 C 0.26118 0.81133 0.80718
 C337 C 0.26014 0.81775 0.78252
 C338 C 0.25930 0.80059 0.76440
 C339 C 0.20708 0.76112 0.77188
 C340 C 0.18930 0.76120 0.78942
 C341 C 0.18570 0.74152 0.80446
 C342 C 0.20003 0.72164 0.80127
 C343 C 0.21780 0.72158 0.78373
 C344 C 0.22159 0.71761 0.71884
 C345 C 0.22191 0.69989 0.70127
 C346 C 0.24209 0.68603 0.69787
 C347 C 0.26180 0.69002 0.71276
 C348 C 0.26145 0.70774 0.73034
 H349 H 0.30538 0.76000 0.75613
 H350 H 0.33519 0.76190 0.72410
 H351 H 0.28034 0.76365 0.66983
 H352 H 0.25062 0.76163 0.70200
 H353 H 0.26127 0.75178 0.80024
 H354 H 0.26233 0.78181 0.83211
 H355 H 0.25835 0.80596 0.74553
 H356 H 0.20957 0.77648 0.76053
 H357 H 0.17867 0.77683 0.79152
 H358 H 0.19742 0.70607 0.81228
 H359 H 0.22878 0.70616 0.78177
 H360 H 0.20594 0.72824 0.72094
 H361 H 0.20632 0.69697 0.69039
 H362 H 0.27765 0.67973 0.71050
 H363 H 0.27686 0.71055 0.74155
 H364 H 0.26015 0.83608 0.77722
 C365 C 0.26197 0.23750 0.74960
 C366 C 0.24527 0.25467 0.74973
 C367 C 0.24545 0.27409 0.73166
 C368 C 0.22595 0.25487 0.76792
 C369 C 0.26333 0.21960 0.76922
 C370 C 0.27967 0.23577 0.72980
 C371 C 0.26540 0.28836 0.72857
 C372 C 0.26550 0.30622 0.71112
 C373 C 0.24558 0.31027 0.69658
 C374 C 0.22547 0.29626 0.70011
 C375 C 0.22539 0.27841 0.71755
 C376 C 0.22221 0.27492 0.78221
 C377 C 0.20440 0.27520 0.79970
 C378 C 0.18985 0.25546 0.80309
 C379 C 0.19332 0.23555 0.78838
 C380 C 0.21114 0.23530 0.77089
 C381 C 0.26297 0.19563 0.76330
 C382 C 0.26352 0.17862 0.78160
 C383 C 0.26464 0.18526 0.80619
 C384 C 0.26559 0.20930 0.81204
 C385 C 0.26504 0.22631 0.79372
 C386 C 0.27271 0.23450 0.70535
 C387 C 0.28954 0.23359 0.68686
 C388 C 0.31366 0.23366 0.69250
 C389 C 0.32054 0.23434 0.71704
 C390 C 0.30370 0.23531 0.73550
 H391 H 0.28093 0.28556 0.73958
 H392 H 0.28130 0.31662 0.70874
 H393 H 0.20972 0.29922 0.68950
 H394 H 0.20975 0.26773 0.71982
 H395 H 0.23331 0.29027 0.78003
 H396 H 0.20190 0.29093 0.81044
 H397 H 0.21348 0.21980 0.75974
 H398 H 0.26187 0.19011 0.74449
 H399 H 0.26319 0.16024 0.77650
 H400 H 0.26632 0.21498 0.83081
 H401 H 0.26575 0.24473 0.79864
 H402 H 0.25423 0.23430 0.70059
 H403 H 0.28369 0.23265 0.66816
 H404 H 0.33897 0.23465 0.72195
 H405 H 0.30942 0.23619 0.75426
 H406 H 0.18250 0.22003 0.79066
 C407 C 0.73965 0.75880 0.75068
 C408 C 0.75654 0.74181 0.75084
 C409 C 0.75626 0.72213 0.73310
 C410 C 0.77605 0.74207 0.76881
 C411 C 0.73825 0.77687 0.77010
 C412 C 0.72169 0.76013 0.73111
 C413 C 0.73632 0.70776 0.73051
 C414 C 0.73597 0.68982 0.71317
 C415 C 0.75566 0.68574 0.69830
 C416 C 0.77581 0.69978 0.70140
 C417 C 0.77612 0.71775 0.71870
 C418 C 0.78012 0.72228 0.78341
 C419 C 0.79792 0.72256 0.80091
 C420 C 0.81213 0.74259 0.80401
 C421 C 0.80839 0.76219 0.78892
 C422 C 0.79058 0.76189 0.77142
 C423 C 0.73819 0.80078 0.76389
 C424 C 0.73735 0.81797 0.78198
 C425 C 0.73635 0.81156 0.80665
 C426 C 0.73590 0.78757 0.81280
 C427 C 0.73674 0.77039 0.79468
 C428 C 0.72832 0.76131 0.70655
 C429 C 0.71123 0.76214 0.68832
 C430 C 0.68719 0.76201 0.69432
 C431 C 0.68065 0.76132 0.71897
 C432 C 0.69774 0.76048 0.73717
 H433 H 0.72100 0.71053 0.74183
 H434 H 0.72036 0.67902 0.71152
 H435 H 0.79117 0.69722 0.69008
 H436 H 0.79170 0.72859 0.72050
 H437 H 0.76925 0.70674 0.78152
 H438 H 0.80064 0.70704 0.81194
 H439 H 0.78799 0.77720 0.76004
 H440 H 0.73912 0.80613 0.74501
 H441 H 0.73731 0.83629 0.77666
 H442 H 0.73528 0.78208 0.83163
 H443 H 0.73635 0.75201 0.79981
 H444 H 0.74673 0.76146 0.70151
 H445 H 0.71682 0.76252 0.66951
 H446 H 0.66229 0.76162 0.72419
 H447 H 0.69227 0.75981 0.75602
 H448 H 0.81894 0.77793 0.79095
 C449 C 0.26015 0.08213 0.08883
 C450 C 0.28161 0.07355 0.08015
 C451 C 0.28200 0.05629 0.06206
 C452 C 0.26087 0.04739 0.05240
 C453 C 0.23937 0.05613 0.06128
 C454 C 0.23905 0.07338 0.07937
 C455 C 0.25978 0.10001 0.10733
 C456 C 0.25952 0.11505 0.12276
 C457 C 0.25929 0.13311 0.14107
 C458 C 0.26944 0.15504 0.13622
 C459 C 0.26935 0.17260 0.15399
 C460 C 0.25909 0.16845 0.17688
 C461 C 0.24886 0.14636 0.18155
 C462 C 0.24899 0.12881 0.16375
 H463 H 0.29806 0.08022 0.08734
 H464 H 0.29883 0.04995 0.05563
 H465 H 0.22280 0.04966 0.05425
 H466 H 0.22233 0.07991 0.08595
 H467 H 0.27739 0.15859 0.11870
 H468 H 0.27706 0.18952 0.14972
 H469 H 0.24108 0.14253 0.19909
 H470 H 0.24113 0.11187 0.16771
 C471 C 0.75415 0.58309 0.58905
 C472 C 0.77550 0.57471 0.57990
 C473 C 0.77566 0.55780 0.56147
 C474 C 0.75442 0.54904 0.55195
 C475 C 0.73304 0.55762 0.56125
 C476 C 0.73293 0.57454 0.57968
 C477 C 0.75406 0.60046 0.60806
 C478 C 0.75412 0.61504 0.62396
 C479 C 0.75435 0.63249 0.64288
 C480 C 0.77449 0.63567 0.65711
 C481 C 0.77489 0.65286 0.67525
 C482 C 0.75510 0.66712 0.67940
 C483 C 0.73487 0.66368 0.66510
 C484 C 0.73453 0.64648 0.64695
 H485 H 0.79203 0.58123 0.58702
 H486 H 0.79242 0.55157 0.55473
 H487 H 0.71638 0.55124 0.55432
 H488 H 0.71630 0.58092 0.58664
 H489 H 0.78992 0.62489 0.65415
 H490 H 0.79061 0.65489 0.68616
 H491 H 0.71948 0.67458 0.66763
 H492 H 0.71886 0.64422 0.63599
 C493 C 0.73623 0.91635 0.08666
 C494 C 0.75750 0.92507 0.07759
 C495 C 0.75754 0.94265 0.05983
 C496 C 0.73621 0.95181 0.05082
 C497 C 0.71489 0.94287 0.06018
 C498 C 0.71495 0.92528 0.07794
 C499 C 0.73629 0.89828 0.10496
 C500 C 0.73647 0.88319 0.12035
 C501 C 0.73684 0.86529 0.13882
 C502 C 0.72277 0.84521 0.13649
 C503 C 0.72315 0.82784 0.15449
 C504 C 0.73760 0.83038 0.17508
 C505 C 0.75172 0.85062 0.17721
 C506 C 0.75133 0.86794 0.15919
 H507 H 0.77408 0.91828 0.08424
 H508 H 0.77432 0.94899 0.05318
 H509 H 0.69811 0.94938 0.05379
 H510 H 0.69838 0.91865 0.08487
 H511 H 0.71146 0.84300 0.12081
 H512 H 0.71189 0.81260 0.15247
 H513 H 0.76328 0.85293 0.19266
 H514 H 0.76235 0.88337 0.16113
 C515 C 0.24510 0.41533 0.58970
 C516 C 0.26618 0.42416 0.58023
 C517 C 0.26579 0.44142 0.56213
 C518 C 0.24426 0.45008 0.55327
 C519 C 0.22317 0.44110 0.56295
 C520 C 0.22361 0.42384 0.58104
 C521 C 0.24550 0.39744 0.60819
 C522 C 0.24573 0.38237 0.62361
 C523 C 0.24586 0.36429 0.64190
 C524 C 0.23547 0.34247 0.63708
 C525 C 0.23541 0.32490 0.65484
 C526 C 0.24577 0.32893 0.67770
 C527 C 0.25626 0.35090 0.68234
 C528 C 0.25627 0.36846 0.66454
 H529 H 0.28291 0.41768 0.58680
 H530 H 0.28233 0.44796 0.55508
 H531 H 0.20631 0.44738 0.55654
 H532 H 0.20719 0.41711 0.58824
 H533 H 0.22742 0.33903 0.61959
 H534 H 0.22750 0.30807 0.65060
 H535 H 0.26413 0.35462 0.69984
 H536 H 0.26432 0.38531 0.66848
 C537 C 0.91983 0.26046 0.08582
 C538 C 0.92834 0.28158 0.07616
 C539 C 0.94537 0.28131 0.05782
 C540 C 0.95412 0.25986 0.04890
 C541 C 0.94544 0.23871 0.05874
 C542 C 0.92841 0.23903 0.07707
 C543 C 0.90225 0.26075 0.10465
 C544 C 0.88747 0.26099 0.12037
 C545 C 0.86974 0.26128 0.13904
 C546 C 0.84770 0.27116 0.13431
 C547 C 0.83041 0.27138 0.15237
 C548 C 0.83493 0.26170 0.17544
 C549 C 0.85715 0.25181 0.18002
 C550 C 0.87444 0.25162 0.16193
 H551 H 0.92180 0.29827 0.08279
 H552 H 0.95168 0.29789 0.05065
 H553 H 0.95180 0.22190 0.05229
 H554 H 0.92193 0.22258 0.08442
 H555 H 0.84385 0.27861 0.11663
 H556 H 0.81337 0.27882 0.14816
 H557 H 0.86126 0.24447 0.19768
 H558 H 0.89146 0.24397 0.16580
 C559 C 0.41402 0.76448 0.58639
 C560 C 0.42292 0.78574 0.57743
 C561 C 0.44049 0.78571 0.55965
 C562 C 0.44940 0.76437 0.55059
 C563 C 0.44035 0.74310 0.55974
 C564 C 0.42278 0.74318 0.57752
 C565 C 0.39596 0.76452 0.60470
 C566 C 0.38086 0.76449 0.62009
 C567 C 0.36293 0.76437 0.63853
 C568 C 0.34276 0.75052 0.63562
 C569 C 0.32549 0.75014 0.65371
 C570 C 0.32820 0.76360 0.67498
 C571 C 0.34848 0.77756 0.67767
 C572 C 0.36572 0.77793 0.65955
 H573 H 0.41627 0.80233 0.58419
 H574 H 0.44707 0.80239 0.55299
 H575 H 0.44682 0.72638 0.55316
 H576 H 0.41602 0.72662 0.58435
 H577 H 0.34046 0.73990 0.61945
 H578 H 0.31022 0.73898 0.65126
 H579 H 0.35093 0.78834 0.69370
 H580 H 0.38124 0.78876 0.66196
 C581 C 0.08150 0.74337 0.08740
 C582 C 0.07327 0.76473 0.07816
 C583 C 0.05634 0.76496 0.05973
 C584 C 0.04735 0.74375 0.05021
 C585 C 0.05589 0.72234 0.05966
 C586 C 0.07281 0.72220 0.07809
 C587 C 0.09887 0.74314 0.10643
 C588 C 0.11344 0.74282 0.12235
 C589 C 0.13091 0.74230 0.14127
 C590 C 0.12604 0.75202 0.16410
 C591 C 0.14302 0.75146 0.18247
 C592 C 0.16511 0.74113 0.17825
 C593 C 0.16982 0.73142 0.15523
 C594 C 0.15283 0.73201 0.13689
 H595 H 0.07990 0.78123 0.08524
 H596 H 0.05030 0.78180 0.05302
 H597 H 0.04949 0.70563 0.05290
 H598 H 0.07909 0.70556 0.08510
 H599 H 0.10910 0.75997 0.16771
 H600 H 0.13877 0.75884 0.20007
 H601 H 0.18677 0.72366 0.15129
 H602 H 0.15681 0.72450 0.11927
 C603 C 0.58615 0.23458 0.58484
 C604 C 0.57740 0.25603 0.57637
 C605 C 0.55989 0.25643 0.55855
 C606 C 0.55089 0.23531 0.54897
 C607 C 0.55977 0.21382 0.55766
 C608 C 0.57729 0.21348 0.57549
 C609 C 0.60421 0.23427 0.60313
 C610 C 0.61933 0.23416 0.61848
 C611 C 0.63731 0.23420 0.63686
 C612 C 0.63467 0.22042 0.65775
 C613 C 0.65192 0.22079 0.67584
 C614 C 0.67206 0.23498 0.67325
 C615 C 0.67462 0.24866 0.65209
 C616 C 0.65734 0.24827 0.63403
 H617 H 0.58413 0.27247 0.58350
 H618 H 0.55345 0.27326 0.55226
 H619 H 0.55323 0.19727 0.55067
 H620 H 0.58394 0.19677 0.58195
 H621 H 0.61925 0.20943 0.66009
 H622 H 0.64959 0.20986 0.69178
 H623 H 0.68977 0.25999 0.64972
 H624 H 0.65951 0.25907 0.61796
 C625 C 0.73673 0.08432 0.91407
 C626 C 0.75796 0.07532 0.92289
 C627 C 0.75786 0.05786 0.94077
 C628 C 0.73649 0.04916 0.95007
 C629 C 0.71524 0.05832 0.94106
 C630 C 0.71538 0.07579 0.92318
 C631 C 0.73690 0.10225 0.89562
 C632 C 0.73717 0.11721 0.88010
 C633 C 0.73764 0.13497 0.86148
 C634 C 0.72329 0.15484 0.86341
 C635 C 0.72377 0.17207 0.84528
 C636 C 0.73861 0.16961 0.82497
 C637 C 0.75299 0.14958 0.82324
 C638 C 0.75250 0.13240 0.84139
 H639 H 0.77458 0.08180 0.91595
 H640 H 0.77453 0.05119 0.94731
 H641 H 0.69850 0.05201 0.94783
 H642 H 0.69885 0.08263 0.91646
 H643 H 0.71169 0.15698 0.87887
 H644 H 0.71230 0.18715 0.84698
 H645 H 0.76484 0.14735 0.80801
 H646 H 0.76374 0.11712 0.83977
 C647 C 0.24118 0.58147 0.41353
 C648 C 0.26265 0.57304 0.42231
 C649 C 0.26307 0.55604 0.44067
 C650 C 0.24196 0.54724 0.45050
 C651 C 0.22045 0.55585 0.44155
 C652 C 0.22009 0.57285 0.42319
 C653 C 0.24077 0.59900 0.39466
 C654 C 0.24041 0.61374 0.37891
 C655 C 0.23993 0.63143 0.36021
 C656 C 0.24972 0.62683 0.33735
 C657 C 0.24931 0.64406 0.31922
 C658 C 0.23907 0.66613 0.32372
 C659 C 0.22926 0.67056 0.34676
 C660 C 0.22971 0.65332 0.36486
 H661 H 0.27908 0.57961 0.41497
 H662 H 0.27991 0.54979 0.44714
 H663 H 0.20389 0.54945 0.44870
 H664 H 0.20336 0.57927 0.41653
 H665 H 0.25764 0.60992 0.33354
 H666 H 0.25676 0.64003 0.30159
 H667 H 0.22156 0.68748 0.35091
 H668 H 0.22215 0.65709 0.38251
 C669 C 0.26279 0.91529 0.91514
 C670 C 0.24144 0.92414 0.92375
 C671 C 0.24122 0.94164 0.94158
 C672 C 0.26244 0.95060 0.95112
 C673 C 0.28386 0.94152 0.94223
 C674 C 0.28398 0.92401 0.92439
 C675 C 0.26289 0.89729 0.89676
 C676 C 0.26279 0.88227 0.88130
 C677 C 0.26245 0.86444 0.86276
 C678 C 0.24776 0.86697 0.84254
 C679 C 0.24734 0.84970 0.82448
 C680 C 0.26163 0.82962 0.82642
 C681 C 0.27631 0.82721 0.84686
 C682 C 0.27671 0.84452 0.86489
 H683 H 0.22492 0.91752 0.91669
 H684 H 0.22437 0.94809 0.94786
 H685 H 0.30057 0.94787 0.94903
 H686 H 0.30062 0.91727 0.91782
 H687 H 0.23657 0.88227 0.84075
 H688 H 0.23560 0.85191 0.80915
 H689 H 0.28770 0.81209 0.84872
 H690 H 0.28818 0.84241 0.88046
 C691 C 0.75621 0.41827 0.41170
 C692 C 0.77734 0.42685 0.42125
 C693 C 0.77708 0.44368 0.43976
 C694 C 0.75562 0.45215 0.44897
 C695 C 0.73445 0.44337 0.43928
 C696 C 0.73477 0.42654 0.42077
 C697 C 0.75656 0.40097 0.39263
 C698 C 0.75699 0.38644 0.37670
 C699 C 0.75767 0.36900 0.35778
 C700 C 0.76824 0.34722 0.36214
 C701 C 0.76901 0.33025 0.34380
 C702 C 0.75920 0.33485 0.32081
 C703 C 0.74858 0.35680 0.31660
 C704 C 0.74784 0.37376 0.33498
 H705 H 0.79404 0.42055 0.41438
 H706 H 0.79368 0.45007 0.44680
 H707 H 0.71764 0.44954 0.44596
 H708 H 0.71830 0.42000 0.41351
 H709 H 0.77584 0.34333 0.37975
 H710 H 0.77699 0.31341 0.34772
 H711 H 0.74111 0.36095 0.29902
 H712 H 0.73967 0.39060 0.33140
 C713 C 0.08508 0.25709 0.91033
 C714 C 0.07649 0.27855 0.91893
 C715 C 0.05927 0.27899 0.93707
 C716 C 0.05035 0.25788 0.94693
 C717 C 0.05917 0.23637 0.93805
 C718 C 0.07639 0.23602 0.91991
 C719 C 0.10291 0.25668 0.89177
 C720 C 0.11792 0.25638 0.87629
 C721 C 0.13593 0.25608 0.85791
 C722 C 0.15801 0.26591 0.86276
 C723 C 0.17554 0.26570 0.84494
 C724 C 0.17121 0.25563 0.82201
 C725 C 0.14896 0.24575 0.81733
 C726 C 0.13144 0.24600 0.83517
 H727 H 0.08313 0.29496 0.91164
 H728 H 0.05301 0.29591 0.94333
 H729 H 0.05283 0.21974 0.94508
 H730 H 0.08294 0.21931 0.91337
 H731 H 0.16169 0.27369 0.88033
 H732 H 0.19258 0.27314 0.84922
 H733 H 0.14500 0.23813 0.79976
 H734 H 0.11439 0.23840 0.83122
 C735 C 0.58332 0.76380 0.41341
 C736 C 0.57438 0.74257 0.42237
 C737 C 0.55677 0.74263 0.44011
 C738 C 0.54786 0.76398 0.44912
 C739 C 0.55694 0.78524 0.43996
 C740 C 0.57456 0.78513 0.42223
 C741 C 0.60143 0.76368 0.39515
 C742 C 0.61657 0.76350 0.37981
 C743 C 0.63455 0.76316 0.36141
 C744 C 0.63214 0.74849 0.34116
 C745 C 0.64952 0.74816 0.32320
 C746 C 0.66959 0.76253 0.32528
 C747 C 0.67189 0.77718 0.34575
 C748 C 0.65446 0.77749 0.36368
 H749 H 0.58103 0.72596 0.41566
 H750 H 0.55017 0.72597 0.44677
 H751 H 0.55048 0.80197 0.44652
 H752 H 0.58135 0.80167 0.41540
 H753 H 0.61683 0.73726 0.33926
 H754 H 0.64741 0.73645 0.30784
 H755 H 0.68699 0.78863 0.34772
 H756 H 0.65647 0.78896 0.37926
 C757 C 0.91600 0.74451 0.91217
 C758 C 0.92480 0.76577 0.92121
 C759 C 0.94197 0.76575 0.93941
 C760 C 0.95056 0.74442 0.94882
 C761 C 0.94158 0.72315 0.93961
 C762 C 0.92442 0.72322 0.92142
 C763 C 0.89830 0.74450 0.89348
 C764 C 0.88341 0.74436 0.87787
 C765 C 0.86556 0.74402 0.85933
 C766 C 0.87005 0.75380 0.83644
 C767 C 0.85271 0.75336 0.81842
 C768 C 0.83063 0.74308 0.82307
 C769 C 0.82629 0.73333 0.84616
 C770 C 0.84364 0.73381 0.86415
 H771 H 0.91839 0.78236 0.91419
 H772 H 0.94851 0.78243 0.94609
 H773 H 0.94782 0.70643 0.94644
 H774 H 0.91772 0.70666 0.91456
 H775 H 0.88698 0.76169 0.83249
 H776 H 0.85667 0.76076 0.80075
 H777 H 0.80937 0.72561 0.85043
 H778 H 0.83995 0.72625 0.88182
 C779 C 0.41932 0.23906 0.40960
 C780 C 0.42775 0.21752 0.41819
 C781 C 0.44489 0.21695 0.43639
 C782 C 0.45382 0.23798 0.44624
 C783 C 0.44524 0.25955 0.43744
 C784 C 0.42810 0.26007 0.41924
 C785 C 0.40154 0.23961 0.39102
 C786 C 0.38656 0.24003 0.37553
 C787 C 0.36856 0.24046 0.35717
 C788 C 0.34648 0.23062 0.36198
 C789 C 0.32896 0.23094 0.34418
 C790 C 0.33331 0.24112 0.32130
 C791 C 0.35556 0.25102 0.31665
 C792 C 0.37307 0.25066 0.33448
 H793 H 0.42104 0.20115 0.41086
 H794 H 0.45112 0.20006 0.44276
 H795 H 0.45174 0.27605 0.44462
 H796 H 0.42167 0.27684 0.41272
 H797 H 0.34279 0.22275 0.37951
 H798 H 0.31192 0.22349 0.34843
 H799 H 0.35952 0.25873 0.29912
 H800 H 0.39013 0.25828 0.33056
 C801 C 0.73520 0.91536 0.91468
 C802 C 0.71400 0.92424 0.92373
 C803 C 0.71417 0.94178 0.94153
 C804 C 0.73559 0.95068 0.95049
 C805 C 0.75680 0.94162 0.94126
 C806 C 0.75658 0.92409 0.92347
 C807 C 0.73506 0.89740 0.89629
 C808 C 0.73510 0.88241 0.88081
 C809 C 0.73534 0.86462 0.86224
 C810 C 0.72101 0.84470 0.86440
 C811 C 0.72132 0.82741 0.84635
 C812 C 0.73596 0.82986 0.82587
 C813 C 0.75030 0.84996 0.82390
 C814 C 0.74998 0.86720 0.84197
 H815 H 0.69735 0.91761 0.91703
 H816 H 0.69755 0.94836 0.94825
 H817 H 0.77358 0.94807 0.94777
 H818 H 0.77309 0.91735 0.91657
 H819 H 0.70958 0.84255 0.88001
 H820 H 0.70988 0.81228 0.84824
 H821 H 0.76200 0.85219 0.80853
 H822 H 0.76120 0.88251 0.84017
 C823 C 0.24154 0.41400 0.41564
 C824 C 0.26298 0.42288 0.42413
 C825 C 0.26333 0.44033 0.44202
 C826 C 0.24219 0.44915 0.45167
 C827 C 0.22072 0.44007 0.44304
 C828 C 0.22042 0.42262 0.42515
 C829 C 0.24120 0.39620 0.39706
 C830 C 0.24094 0.38137 0.38141
 C831 C 0.24070 0.36378 0.36260
 C832 C 0.22605 0.34408 0.36465
 C833 C 0.22579 0.32705 0.34632
 C834 C 0.24019 0.32954 0.32566
 C835 C 0.25488 0.34940 0.32381
 C836 C 0.25512 0.36638 0.34216
 H837 H 0.27943 0.41635 0.41688
 H838 H 0.28015 0.44693 0.44826
 H839 H 0.20413 0.44646 0.45007
 H840 H 0.20372 0.41588 0.41870
 H841 H 0.21477 0.34193 0.38037
 H842 H 0.21411 0.31211 0.34814
 H843 H 0.26642 0.35165 0.30831
 H844 H 0.26658 0.38152 0.34042
 C845 C 0.26355 0.08253 0.91550
 C846 C 0.28464 0.07379 0.92489
 C847 C 0.28433 0.05635 0.94280
 C848 C 0.26283 0.04733 0.95162
 C849 C 0.24169 0.05635 0.94199
 C850 C 0.24210 0.07379 0.92409
 C851 C 0.26391 0.10035 0.89693
 C852 C 0.26414 0.11520 0.88128
 C853 C 0.26431 0.13281 0.86250
 C854 C 0.27904 0.15245 0.86445
 C855 C 0.27919 0.16953 0.84615
 C856 C 0.26459 0.16715 0.82565
 C857 C 0.24983 0.14734 0.82389
 C858 C 0.24970 0.13031 0.84220
 H859 H 0.30135 0.08044 0.91835
 H860 H 0.30098 0.04995 0.94966
 H861 H 0.22478 0.04995 0.94823
 H862 H 0.22566 0.08044 0.91692
 H863 H 0.29046 0.15453 0.88006
 H864 H 0.29093 0.18444 0.84790
 H865 H 0.23815 0.14518 0.80851
 H866 H 0.23817 0.11521 0.84055
 C867 C 0.75526 0.58422 0.41299
 C868 C 0.73392 0.57550 0.42195
 C869 C 0.73380 0.55838 0.44021
 C870 C 0.75507 0.54976 0.44974
 C871 C 0.77643 0.55870 0.44064
 C872 C 0.77649 0.57581 0.42239
 C873 C 0.75539 0.60178 0.39416
 C874 C 0.75561 0.61653 0.37842
 C875 C 0.75601 0.63420 0.35969
 C876 C 0.74641 0.62945 0.33679
 C877 C 0.74687 0.64662 0.31860
 C878 C 0.75700 0.66879 0.32310
 C879 C 0.76659 0.67338 0.34620
 C880 C 0.76609 0.65619 0.36435
 H881 H 0.71738 0.58190 0.41481
 H882 H 0.71707 0.55187 0.44680
 H883 H 0.79310 0.55244 0.44757
 H884 H 0.79311 0.58245 0.41560
 H885 H 0.73862 0.61245 0.33297
 H886 H 0.73959 0.64247 0.30093
 H887 H 0.77420 0.69037 0.35034
 H888 H 0.77352 0.66008 0.38204
 C889 C 0.08225 0.74337 0.91309
 C890 C 0.07345 0.72220 0.92229
 C891 C 0.05629 0.72233 0.94050
 C892 C 0.04764 0.74373 0.94983
 C893 C 0.05673 0.76495 0.94041
 C894 C 0.07388 0.76473 0.92219
 C895 C 0.09990 0.74317 0.89432
 C896 C 0.11471 0.74293 0.87864
 C897 C 0.13247 0.74256 0.85999
 C898 C 0.15442 0.73249 0.86472
 C899 C 0.17170 0.73211 0.84665
 C900 C 0.16725 0.74181 0.82358
 C901 C 0.14512 0.75190 0.81900
 C902 C 0.12784 0.75225 0.83710
 H903 H 0.07983 0.70556 0.91537
 H904 H 0.04983 0.70561 0.94719
 H905 H 0.05061 0.78179 0.94703
 H906 H 0.08061 0.78123 0.91519
 H907 H 0.15821 0.72500 0.88240
 H908 H 0.18867 0.72452 0.85085
 H909 H 0.14106 0.75926 0.80134
 H910 H 0.11088 0.76004 0.83323
 C911 C 0.58797 0.23799 0.41255
 C912 C 0.57887 0.21657 0.42084
 C913 C 0.56110 0.21626 0.43840
 C914 C 0.55218 0.23741 0.44791
 C915 C 0.56146 0.25885 0.43945
 C916 C 0.57923 0.25912 0.42189
 C917 C 0.60616 0.23827 0.39437
 C918 C 0.62132 0.23846 0.37905
 C919 C 0.63930 0.23866 0.36064
 C920 C 0.63661 0.22503 0.33966
 C921 C 0.65388 0.22542 0.32158
 C922 C 0.67410 0.23948 0.32427
 C923 C 0.67671 0.25301 0.34551
 C924 C 0.65940 0.25261 0.36356
 H925 H 0.58549 0.20011 0.41372
 H926 H 0.55435 0.19945 0.44452
 H927 H 0.55499 0.27544 0.44640
 H928 H 0.58614 0.27580 0.41557
 H929 H 0.62115 0.21412 0.33725
 H930 H 0.65152 0.21458 0.30559
 H931 H 0.69193 0.26423 0.34796
 H932 H 0.66162 0.26328 0.37971
 C933 C 0.91845 0.25747 0.91042
 C934 C 0.92706 0.23633 0.91988
 C935 C 0.94433 0.23659 0.93797
 C936 C 0.95321 0.25804 0.94684
 C937 C 0.94440 0.27919 0.93723
 C938 C 0.92714 0.27888 0.91915
 C939 C 0.90069 0.25723 0.89180
 C940 C 0.88578 0.25717 0.87623
 C941 C 0.86792 0.25725 0.85772
 C942 C 0.87253 0.24759 0.83481
 C943 C 0.85517 0.24776 0.81681
 C944 C 0.83297 0.25765 0.82151
 C945 C 0.82852 0.26730 0.84460
 C946 C 0.84589 0.26709 0.86257
 H947 H 0.92044 0.21965 0.91325
 H948 H 0.95073 0.22000 0.94497
 H949 H 0.95086 0.29600 0.94365
 H950 H 0.92059 0.29535 0.91196
 H951 H 0.88956 0.23999 0.83085
 H952 H 0.85922 0.24045 0.79914
 H953 H 0.81150 0.27473 0.84889
 H954 H 0.84211 0.27456 0.88026
 C955 C 0.41338 0.76350 0.41398
 C956 C 0.42236 0.74232 0.42292
 C957 C 0.44007 0.74246 0.44053
 C958 C 0.44906 0.76385 0.44944
 C959 C 0.43994 0.78507 0.44031
 C960 C 0.42222 0.78487 0.42269
 C961 C 0.39518 0.76326 0.39581
 C962 C 0.37999 0.76290 0.38053
 C963 C 0.36198 0.76227 0.36217
 C964 C 0.36452 0.74760 0.34194
 C965 C 0.34710 0.74696 0.32404
 C966 C 0.32687 0.76101 0.32613
 C967 C 0.32443 0.77566 0.34659
 C968 C 0.34189 0.77628 0.36448
 H969 H 0.41566 0.72567 0.41629
 H970 H 0.44669 0.72583 0.44718
 H971 H 0.44646 0.80183 0.44679
 H972 H 0.41540 0.80138 0.41587
 H973 H 0.37995 0.73662 0.34002
 H974 H 0.34934 0.73526 0.30869
 H975 H 0.30919 0.78687 0.34858
 H976 H 0.33977 0.78774 0.38005
 C977 C 0.26041 0.91352 0.08703
 C978 C 0.28184 0.92237 0.07847
 C979 C 0.28215 0.94001 0.06077
 C980 C 0.26099 0.94904 0.05140
 C981 C 0.23953 0.94001 0.06013
 C982 C 0.23927 0.92237 0.07783
 C983 C 0.26011 0.89545 0.10534
 C984 C 0.25983 0.88038 0.12074
 C985 C 0.25944 0.86251 0.13925
 C986 C 0.27371 0.84261 0.13708
 C987 C 0.27340 0.82531 0.15515
 C988 C 0.25881 0.82775 0.17566
 C989 C 0.24449 0.84781 0.17762
 C990 C 0.24482 0.86505 0.15953
 H991 H 0.29831 0.91565 0.08548
 H992 H 0.29896 0.94656 0.05444
 H993 H 0.22293 0.94657 0.05330
 H994 H 0.22258 0.91566 0.08436
 H995 H 0.28514 0.84050 0.12148
 H996 H 0.28481 0.81022 0.15327
 H997 H 0.23282 0.85002 0.19301
 H998 H 0.23364 0.88036 0.16135
 C999 C 0.75494 0.41673 0.58785
 C1000 C 0.73364 0.42512 0.57858
 C1001 C 0.73359 0.44228 0.56037
 C1002 C 0.75489 0.45128 0.55120
 C1003 C 0.77621 0.44267 0.56061
 C1004 C 0.77621 0.42552 0.57881
 C1005 C 0.75501 0.39916 0.60668
 C1006 C 0.75520 0.38445 0.62246
 C1007 C 0.75560 0.36687 0.64127
 C1008 C 0.73598 0.35245 0.64514
 C1009 C 0.73648 0.33519 0.66323
 C1010 C 0.75666 0.33212 0.67769
 C1011 C 0.77625 0.34677 0.67372
 C1012 C 0.77570 0.36403 0.65563
 H1013 H 0.71707 0.41843 0.58545
 H1014 H 0.71688 0.44853 0.55353
 H1015 H 0.79291 0.44922 0.55396
 H1016 H 0.79280 0.41914 0.58586
 H1017 H 0.72036 0.35445 0.63407
 H1018 H 0.72125 0.32398 0.66563
 H1019 H 0.79191 0.34503 0.68475
 H1020 H 0.79096 0.37513 0.65283
 C1021 C 0.73782 0.08554 0.08646
 C1022 C 0.75893 0.07635 0.07754
 C1023 C 0.75861 0.05856 0.06003
 C1024 C 0.73713 0.04971 0.05120
 C1025 C 0.71599 0.05904 0.06032
 C1026 C 0.71635 0.07684 0.07784
 C1027 C 0.73822 0.10384 0.10449
 C1028 C 0.73867 0.11912 0.11965
 C1029 C 0.73937 0.13725 0.13786
 C1030 C 0.75436 0.13500 0.15788
 C1031 C 0.75501 0.15251 0.17568
 C1032 C 0.74067 0.17254 0.17367
 C1033 C 0.72572 0.17469 0.15341
 C1034 C 0.72508 0.15713 0.13564
 H1035 H 0.77564 0.08295 0.08412
 H1036 H 0.77519 0.05178 0.05339
 H1037 H 0.69916 0.05263 0.05390
 H1038 H 0.69991 0.08383 0.08464
 H1039 H 0.76555 0.11972 0.15973
 H1040 H 0.76694 0.15051 0.19087
 H1041 H 0.71428 0.18977 0.15150
 H1042 H 0.71338 0.15902 0.12022
 C1043 C 0.24392 0.58266 0.58924
 C1044 C 0.26514 0.57420 0.57980
 C1045 C 0.26501 0.55701 0.56163
 C1046 C 0.24362 0.54805 0.55266
 C1047 C 0.22239 0.55671 0.56225
 C1048 C 0.22257 0.57390 0.58041
 C1049 C 0.24402 0.60033 0.60797
 C1050 C 0.24393 0.61516 0.62362
 C1051 C 0.24362 0.63294 0.64224
 C1052 C 0.23312 0.65471 0.63765
 C1053 C 0.23262 0.67196 0.65573
 C1054 C 0.24264 0.66766 0.67870
 C1055 C 0.25321 0.64572 0.68312
 C1056 C 0.25367 0.62848 0.66500
 H1057 H 0.28177 0.58087 0.58650
 H1058 H 0.28165 0.55071 0.55465
 H1059 H 0.20562 0.55020 0.55577
 H1060 H 0.20604 0.58033 0.58758
 H1061 H 0.22534 0.65837 0.62008
 H1062 H 0.22467 0.68878 0.65164
 H1063 H 0.26083 0.64178 0.70068
 H1064 H 0.26178 0.61165 0.66877
 C1065 C 0.91644 0.74473 0.08805
 C1066 C 0.92509 0.76596 0.07878
 C1067 C 0.94206 0.76589 0.06037
 C1068 C 0.95060 0.74453 0.05099
 C1069 C 0.94173 0.72328 0.06039
 C1070 C 0.92477 0.72341 0.07880
 C1071 C 0.89907 0.74480 0.10708
 C1072 C 0.88452 0.74474 0.12302
 C1073 C 0.86710 0.74454 0.14201
 C1074 C 0.85315 0.76438 0.14613
 C1075 C 0.83601 0.76406 0.16435
 C1076 C 0.83258 0.74385 0.17869
 C1077 C 0.84678 0.72403 0.17448
 C1078 C 0.86393 0.72440 0.15626
 H1079 H 0.91876 0.78257 0.08581
 H1080 H 0.94852 0.78255 0.05355
 H1081 H 0.94793 0.70655 0.05359
 H1082 H 0.91819 0.70687 0.08584
 H1083 H 0.85542 0.78003 0.13515
 H1084 H 0.82514 0.77947 0.16693
 H1085 H 0.84477 0.70833 0.18541
 H1086 H 0.87467 0.70897 0.15327
 C1087 C 0.41684 0.23455 0.58363
 C1088 C 0.42570 0.25603 0.57522
 C1089 C 0.44329 0.25647 0.55746
 C1090 C 0.45228 0.23538 0.54788
 C1091 C 0.44322 0.21387 0.55644
 C1092 C 0.42563 0.21348 0.57420
 C1093 C 0.39885 0.23412 0.60203
 C1094 C 0.38385 0.23378 0.61752
 C1095 C 0.36605 0.23343 0.63612
 C1096 C 0.36916 0.21972 0.65699
 C1097 C 0.35207 0.21965 0.67526
 C1098 C 0.33159 0.23331 0.67287
 C1099 C 0.32855 0.24691 0.65174
 C1100 C 0.34569 0.24697 0.63350
 H1101 H 0.41902 0.27244 0.58241
 H1102 H 0.44987 0.27331 0.55127
 H1103 H 0.44974 0.19733 0.54945
 H1104 H 0.41891 0.19675 0.58059
 H1105 H 0.38483 0.20913 0.65917
 H1106 H 0.35478 0.20877 0.69117
 H1107 H 0.31314 0.25785 0.64952
 H1108 H 0.34313 0.25771 0.61745
 C1109 C 0.08742 0.26109 0.08360
 C1110 C 0.07870 0.28214 0.07406
 C1111 C 0.06124 0.28172 0.05618
 C1112 C 0.05226 0.26019 0.04761
 C1113 C 0.06119 0.23912 0.05728
 C1114 C 0.07865 0.23959 0.07516
 C1115 C 0.10522 0.26155 0.10217
 C1116 C 0.12005 0.26187 0.11781
 C1117 C 0.13764 0.26215 0.13661
 C1118 C 0.15735 0.27678 0.13452
 C1119 C 0.17442 0.27701 0.15281
 C1120 C 0.17196 0.26260 0.17346
 C1121 C 0.15207 0.24796 0.17537
 C1122 C 0.13504 0.24775 0.15706
 H1123 H 0.08535 0.29888 0.08048
 H1124 H 0.05475 0.29825 0.04912
 H1125 H 0.05467 0.22227 0.05108
 H1126 H 0.08527 0.22319 0.08244
 H1127 H 0.15950 0.28804 0.11878
 H1128 H 0.18940 0.28865 0.15095
 H1129 H 0.14984 0.23643 0.19086
 H1130 H 0.11989 0.23630 0.15882
 C1131 C 0.58343 0.76421 0.58612
 C1132 C 0.57447 0.74295 0.57728
 C1133 C 0.55690 0.74295 0.55952
 C1134 C 0.54804 0.76426 0.55035
 C1135 C 0.55717 0.78556 0.55936
 C1136 C 0.57475 0.78550 0.57714
 C1137 C 0.60144 0.76412 0.60450
 C1138 C 0.61646 0.76389 0.61996
 C1139 C 0.63426 0.76343 0.63854
 C1140 C 0.65444 0.77739 0.63631
 C1141 C 0.67170 0.77693 0.65441
 C1142 C 0.66897 0.76249 0.67500
 C1143 C 0.64863 0.74848 0.67702
 C1144 C 0.63142 0.74896 0.65891
 H1145 H 0.58106 0.72636 0.58413
 H1146 H 0.55027 0.72626 0.55298
 H1147 H 0.55075 0.80226 0.55269
 H1148 H 0.58156 0.80207 0.58387
 H1149 H 0.65679 0.78869 0.62064
 H1150 H 0.68702 0.78811 0.65247
 H1151 H 0.64618 0.73694 0.69247
 H1152 H 0.61591 0.73802 0.66077
   
