data_POSCAR
  _audit_creation_date              2014-09-24
  _audit_creation_method            'ToBaCCo'
  _symmetry_space_group_name_H-M    'P1'
  _symmetry_Int_Tables_number       1
  _symmetry_cell_setting            triclinic
  loop_
  _symmetry_equiv_pos_as_xyz
 x,y,z
_cell_length_a 37.9373
_cell_length_b 37.9931
_cell_length_c 37.9873
_cell_angle_alpha 89.942200
_cell_angle_beta 89.999700
_cell_angle_gamma 89.886400
loop_
  _atom_site_label
  _atom_site_type_symbol
  _atom_site_fract_x
  _atom_site_fract_y
  _atom_site_fract_z
C1 C 0.28087 0.98071 0.10784
 C2 C 0.28542 1.01642 0.10867
 C3 C 0.27250 1.02962 0.07707
 N4 N 0.26104 1.00282 0.05669
 C5 C 0.26547 0.97300 0.07575
 C6 C 0.27181 1.06574 0.06725
 C7 C 0.27692 1.07581 0.03145
 C8 C 0.29444 1.10605 0.02084
 C9 C 0.29423 1.10646 -0.01517
 C10 C 0.27672 1.07641 -0.02612
 N11 N 0.26713 1.05725 0.00252
 C12 C 0.27171 1.06684 -0.06199
 C13 C 0.27359 1.03096 -0.07227
 C14 C 0.28777 1.01871 -0.10367
 C15 C 0.28436 0.98286 -0.10342
 C16 C 0.26826 0.97420 -0.07190
 N17 N 0.26238 1.00354 -0.05257
 C18 C 0.25709 0.94009 -0.06220
 C19 C 0.24670 0.93214 -0.02741
 C20 C 0.22648 0.90341 -0.01755
 C21 C 0.22545 0.90327 0.01862
 C22 C 0.24513 0.93187 0.02982
 N23 N 0.25754 0.94968 0.00159
 C24 C 0.25381 0.93931 0.06517
 H25 H 0.28889 0.96255 0.12828
 H26 H 0.29854 1.03052 0.12959
 H27 H 0.27592 0.97004 0.00214
 H28 H 0.30813 1.12495 0.03710
 H29 H 0.30772 1.12570 -0.03124
 H30 H 0.30091 1.03364 -0.12404
 H31 H 0.29348 0.96530 -0.12388
 H32 H 0.21193 0.88408 0.03476
 H33 H 0.25175 1.03462 0.00230
 H34 H 0.21390 0.88439 -0.03457
 C35 C 0.74353 0.48026 0.60874
 C36 C 0.74424 0.51616 0.60873
 C37 C 0.74804 0.52669 0.57400
 N38 N 0.74817 0.49815 0.55272
 C39 C 0.74516 0.46960 0.57384
 C40 C 0.75320 0.56190 0.56281
 C41 C 0.75767 0.57176 0.52708
 C42 C 0.77184 0.60365 0.51636
 C43 C 0.77092 0.60406 0.48033
 C44 C 0.75630 0.57238 0.46972
 N45 N 0.74834 0.55266 0.49842
 C46 C 0.75046 0.56313 0.43409
 C47 C 0.74544 0.52801 0.42258
 C48 C 0.74089 0.51798 0.38782
 C49 C 0.74101 0.48208 0.38728
 C50 C 0.74378 0.47088 0.42196
 N51 N 0.74673 0.49913 0.44343
 C52 C 0.74299 0.43520 0.43307
 C53 C 0.74118 0.42440 0.46883
 C54 C 0.73176 0.39073 0.47935
 C55 C 0.73179 0.39046 0.51537
 C56 C 0.74129 0.42395 0.52633
 N57 N 0.74705 0.44456 0.49770
 C58 C 0.74342 0.43415 0.56224
 H59 H 0.74185 0.46442 0.63226
 H60 H 0.74232 0.53219 0.63211
 H61 H 0.75693 0.46998 0.49781
 H62 H 0.78238 0.62440 0.53275
 H63 H 0.78064 0.62515 0.46383
 H64 H 0.73800 0.53435 0.36474
 H65 H 0.73905 0.46663 0.36356
 H66 H 0.72441 0.36822 0.53156
 H67 H 0.73421 0.52924 0.49852
 H68 H 0.72433 0.36875 0.46286
 C69 C 0.72227 0.89958 0.97802
 C70 C 0.72046 0.89926 1.01405
 C71 C 0.74099 0.92708 1.02582
 N72 N 0.75453 0.94485 0.99810
 C73 C 0.74342 0.92781 0.96893
 C74 C 0.74921 0.93477 1.06137
 C75 C 0.76199 0.96868 1.07063
 C76 C 0.78207 0.97638 1.10017
 C77 C 0.78691 1.01211 1.10057
 C78 C 0.77010 1.02550 1.07105
 N79 N 0.75565 0.99879 1.05243
 C80 C 0.76788 1.06162 1.06222
 C81 C 0.77071 1.07309 1.02681
 C82 C 0.78042 1.10675 1.01686
 C83 C 0.78131 1.10721 0.98103
 C84 C 0.77177 1.07383 0.96964
 N85 N 0.76683 1.05255 0.99792
 C86 C 0.76997 1.06294 0.93377
 C87 C 0.77388 1.02678 0.92516
 C88 C 0.79135 1.01371 0.89582
 C89 C 0.78737 0.97778 0.89627
 C90 C 0.76765 0.96975 0.92590
 N91 N 0.76016 0.99967 0.94379
 C92 C 0.75473 0.93596 0.93455
 H93 H 0.70921 0.88131 0.96053
 H94 H 0.70532 0.88082 1.02959
 H95 H 0.74309 1.00177 0.96519
 H96 H 0.79327 0.95820 1.11904
 H97 H 0.80278 1.02605 1.11960
 H98 H 0.78883 1.12829 1.03342
 H99 H 0.79094 1.12920 0.96579
 H100 H 0.79808 0.95970 0.87704
 H101 H 0.73932 1.00140 1.03048
 H102 H 0.80637 1.02827 0.87649
 C103 C 0.24865 0.51848 0.61303
 C104 C 0.24812 0.48257 0.61264
 C105 C 0.24658 0.47237 0.57763
 N106 N 0.24760 0.50119 0.55666
 C107 C 0.24919 0.52950 0.57823
 C108 C 0.24302 0.43712 0.56586
 C109 C 0.23923 0.42739 0.53000
 C110 C 0.22723 0.39471 0.51908
 C111 C 0.22723 0.39496 0.48306
 C112 C 0.23915 0.42782 0.47257
 N113 N 0.24643 0.44757 0.50141
 C114 C 0.24251 0.43819 0.43684
 C115 C 0.24480 0.47379 0.42575
 C116 C 0.24483 0.48487 0.39096
 C117 C 0.24438 0.52075 0.39140
 C118 C 0.24603 0.53095 0.42641
 N119 N 0.24586 0.50211 0.44736
 C120 C 0.24928 0.56625 0.43813
 C121 C 0.25380 0.57594 0.47389
 C122 C 0.26637 0.60848 0.48456
 C123 C 0.26735 0.60809 0.52056
 C124 C 0.25527 0.57535 0.53130
 N125 N 0.24708 0.55576 0.50259
 C126 C 0.25237 0.56501 0.56709
 H127 H 0.24879 0.53413 0.63672
 H128 H 0.24866 0.46634 0.63597
 H129 H 0.23473 0.53138 0.50261
 H130 H 0.21845 0.37301 0.53532
 H131 H 0.21841 0.37353 0.46653
 H132 H 0.24493 0.46930 0.36722
 H133 H 0.24323 0.53698 0.36809
 H134 H 0.27683 0.62938 0.53690
 H135 H 0.25852 0.47208 0.50155
 H136 H 0.27495 0.63011 0.46813
 C137 C 0.97814 0.21880 0.10180
 C138 C 1.01430 0.21874 0.10239
 C139 C 1.02531 0.23746 0.07296
 N140 N 0.99704 0.24814 0.05406
 C141 C 0.96825 0.23714 0.07188
 C142 C 1.06048 0.24667 0.06437
 C143 C 1.06888 0.25628 0.02924
 C144 C 1.09670 0.27760 0.01890
 C145 C 1.09697 0.27782 -0.01726
 C146 C 1.06926 0.25669 -0.02816
 N147 N 1.05169 0.24446 0.00034
 C148 C 1.06142 0.24736 -0.06342
 C149 C 1.02636 0.23859 -0.07266
 C150 C 1.01607 0.21868 -0.10145
 C151 C 0.97996 0.21915 -0.10198
 C152 C 0.96926 0.23932 -0.07349
 N153 N 0.99768 0.25061 -0.05520
 C154 C 0.93404 0.24850 -0.06501
 C155 C 0.92529 0.25724 -0.02974
 C156 C 0.89615 0.27655 -0.01875
 C157 C 0.89595 0.27562 0.01746
 C158 C 0.92517 0.25622 0.02764
 N159 N 0.94326 0.24570 -0.00118
 C160 C 0.93345 0.24622 0.06247
 H161 H 0.96116 0.20635 0.12099
 H162 H 1.03038 0.20576 0.12202
 H163 H 0.96455 0.22826 -0.00138
 H164 H 1.11463 0.29218 0.03552
 H165 H 1.11515 0.29252 -0.03352
 H166 H 1.03265 0.20440 -0.11970
 H167 H 0.96361 0.20525 -0.12068
 H168 H 0.87660 0.28807 0.03429
 H169 H 1.03127 0.22609 0.00002
 H170 H 0.87707 0.29028 -0.03488
 C171 C 0.48405 0.72557 0.60463
 C172 C 0.52024 0.72530 0.60391
 C173 C 0.53016 0.74168 0.57284
 N174 N 0.50133 0.75170 0.55448
 C175 C 0.47313 0.74213 0.57398
 C176 C 0.56502 0.74980 0.56271
 C177 C 0.57338 0.75807 0.52736
 C178 C 0.60364 0.77514 0.51608
 C179 C 0.60304 0.77476 0.47985
 C180 C 0.57240 0.75753 0.46999
 N181 N 0.55428 0.74787 0.49910
 C182 C 0.56270 0.74878 0.43513
 C183 C 0.52728 0.74154 0.42640
 C184 C 0.51569 0.72556 0.39574
 C185 C 0.47953 0.72686 0.39647
 C186 C 0.47030 0.74353 0.42758
 N187 N 0.49950 0.75223 0.44594
 C188 C 0.43580 0.75302 0.43780
 C189 C 0.42781 0.76146 0.47313
 C190 C 0.39812 0.77953 0.48451
 C191 C 0.39868 0.77877 0.52073
 C192 C 0.42873 0.76034 0.53044
 N193 N 0.44656 0.75030 0.50130
 C194 C 0.43801 0.75077 0.56518
 H195 H 0.46780 0.71456 0.62526
 H196 H 0.53716 0.71401 0.62388
 H197 H 0.46804 0.73315 0.50065
 H198 H 0.62408 0.78674 0.53215
 H199 H 0.62290 0.78604 0.46282
 H200 H 0.53147 0.71389 0.37508
 H201 H 0.46215 0.71640 0.37649
 H202 H 0.37914 0.79050 0.53786
 H203 H 0.53218 0.73160 0.49964
 H204 H 0.37804 0.79194 0.46850
 C205 C 0.10189 0.78041 0.01978
 C206 C 0.10265 0.78060 -0.01633
 C207 C 0.07355 0.76153 -0.02753
 N208 N 0.05467 0.75048 0.00053
 C209 C 0.07220 0.76160 0.02940
 C210 C 0.06536 0.75226 -0.06270
 C211 C 0.03025 0.74280 -0.07155
 C212 C 0.02016 0.72187 -0.09974
 C213 C -0.01606 0.72167 -0.10030
 C214 C -0.02726 0.74237 -0.07238
 N215 N 0.00112 0.75438 -0.05446
 C216 C -0.06269 0.75136 -0.06451
 C217 C -0.07210 0.75969 -0.02940
 C218 C -0.10113 0.77934 -0.01897
 C219 C -0.10182 0.77841 0.01708
 C220 C -0.07316 0.75827 0.02762
 N221 N -0.05464 0.74741 -0.00084
 C222 C -0.06470 0.74881 0.06272
 C223 C -0.02936 0.74016 0.07150
 C224 C -0.01831 0.72065 0.10046
 C225 C 0.01794 0.72192 0.10092
 C226 C 0.02805 0.74171 0.07201
 N227 N -0.00082 0.75213 0.05386
 C228 C 0.06282 0.75213 0.06402
 H229 H 0.12081 0.79306 0.03688
 H230 H 0.12217 0.79386 -0.03226
 H231 H -0.00111 0.76981 0.03282
 H232 H 0.03696 0.70749 -0.11770
 H233 H -0.03214 0.70719 -0.11878
 H234 H -0.11945 0.79373 -0.03542
 H235 H -0.12072 0.79203 0.03350
 H236 H 0.03483 0.70946 0.12022
 H237 H 0.00057 0.77243 -0.03376
 H238 H -0.03443 0.70663 0.11927
 C239 C 0.60166 0.27460 0.51607
 C240 C 0.60098 0.27438 0.47994
 C241 C 0.56971 0.25826 0.47025
 N242 N 0.55121 0.24887 0.49913
 C243 C 0.57081 0.25856 0.52717
 C244 C 0.55948 0.24978 0.43556
 C245 C 0.52404 0.24178 0.42740
 C246 C 0.51256 0.22437 0.39747
 C247 C 0.47629 0.22526 0.39810
 C248 C 0.46666 0.24313 0.42844
 N249 N 0.49589 0.25268 0.44637
 C250 C 0.43189 0.25263 0.43790
 C251 C 0.42305 0.26049 0.47313
 C252 C 0.39231 0.27677 0.48435
 C253 C 0.39298 0.27619 0.52049
 C254 C 0.42413 0.25964 0.53008
 N255 N 0.44256 0.25030 0.50112
 C256 C 0.43431 0.25084 0.56475
 C257 C 0.46958 0.24195 0.57287
 C258 C 0.48067 0.22410 0.60276
 C259 C 0.51694 0.22395 0.60207
 C260 C 0.52698 0.24173 0.57179
 N261 N 0.49795 0.25219 0.55392
 C262 C 0.56195 0.25037 0.56231
 H263 H 0.62242 0.28559 0.53217
 H264 H 0.62109 0.28516 0.46289
 H265 H 0.49759 0.26898 0.53220
 H266 H 0.52851 0.21225 0.37721
 H267 H 0.45909 0.21395 0.37843
 H268 H 0.37163 0.28812 0.46833
 H269 H 0.37293 0.28701 0.53762
 H270 H 0.53388 0.21204 0.62168
 H271 H 0.49661 0.26936 0.46814
 H272 H 0.46443 0.21237 0.62300
 C273 C 0.97863 0.10537 0.22731
 C274 C 1.01474 0.10566 0.22755
 C275 C 1.02556 0.07458 0.24357
 N276 N 0.99709 0.05489 0.25199
 C277 C 0.96843 0.07365 0.24208
 C278 C 1.06077 0.06503 0.25214
 C279 C 1.06903 0.02945 0.26019
 C280 C 1.09778 0.01793 0.27978
 C281 C 1.09741 -0.01823 0.27890
 C282 C 1.06827 -0.02786 0.25922
 N283 N 1.05074 0.00124 0.24844
 C284 C 1.05976 -0.06252 0.24908
 C285 C 1.02499 -0.07178 0.24002
 C286 C 1.01519 -0.10156 0.22151
 C287 C 0.97905 -0.10207 0.22137
 C288 C 0.96796 -0.07273 0.24017
 N289 N 0.99619 -0.05400 0.25109
 C290 C 0.93261 -0.06389 0.24854
 C291 C 0.92384 -0.02865 0.25761
 C292 C 0.89378 -0.01781 0.27549
 C293 C 0.89386 0.01833 0.27545
 C294 C 0.92454 0.02877 0.25864
 N295 N 0.94279 0.00002 0.24813
 C296 C 0.93347 0.06372 0.24979
 H297 H 0.96210 0.12631 0.21732
 H298 H 1.03080 0.12643 0.21661
 H299 H 0.96479 0.00016 0.23167
 H300 H 1.11690 0.03373 0.29372
 H301 H 1.11635 -0.03541 0.29155
 H302 H 1.03222 -0.12066 0.20894
 H303 H 0.96301 -0.12150 0.20816
 H304 H 0.87338 0.03469 0.28657
 H305 H 1.02974 0.00172 0.23071
 H306 H 0.87369 -0.03394 0.28757
 C307 C 0.48513 0.60380 0.77724
 C308 C 0.52129 0.60284 0.77714
 C309 C 0.53095 0.57180 0.76055
 N310 N 0.50195 0.55364 0.75083
 C311 C 0.47393 0.57326 0.76082
 C312 C 0.56575 0.56166 0.75193
 C313 C 0.57397 0.52648 0.74273
 C314 C 0.60406 0.51565 0.72504
 C315 C 0.60321 0.47945 0.72403
 C316 C 0.57259 0.46911 0.74109
 N317 N 0.55473 0.49795 0.75206
 C318 C 0.56291 0.43384 0.74829
 C319 C 0.52763 0.42440 0.75587
 C320 C 0.51664 0.39195 0.76840
 C321 C 0.48051 0.39263 0.76864
 C322 C 0.47043 0.42581 0.75710
 N323 N 0.49934 0.44506 0.74911
 C324 C 0.43535 0.43697 0.75079
 C325 C 0.42692 0.47253 0.74315
 C326 C 0.39544 0.48445 0.72874
 C327 C 0.39668 0.52058 0.72891
 C328 C 0.42846 0.52996 0.74419
 N329 N 0.44690 0.50053 0.75240
 C330 C 0.43858 0.56471 0.75305
 H331 H 0.46904 0.62449 0.78844
 H332 H 0.53838 0.62267 0.78830
 H333 H 0.46975 0.49962 0.76757
 H334 H 0.62451 0.53200 0.71384
 H335 H 0.62290 0.46273 0.71196
 H336 H 0.53272 0.36985 0.77648
 H337 H 0.46398 0.37076 0.77614
 H338 H 0.37611 0.53781 0.71923
 H339 H 0.53277 0.49803 0.76854
 H340 H 0.37338 0.46922 0.71934
 C341 C 0.89770 0.97821 0.71914
 C342 C 0.89752 1.01401 0.71556
 C343 C 0.92858 1.02618 0.73044
 N344 N 0.94810 0.99882 0.74224
 C345 C 0.92885 0.96954 0.73604
 C346 C 0.93885 1.06191 0.73200
 C347 C 0.97492 1.07140 0.73138
 C348 C 0.98822 1.10018 0.71342
 C349 C 1.02392 1.10027 0.71875
 C350 C 1.03174 1.07173 0.74027
 N351 N 1.00171 1.05362 0.74708
 C352 C 1.06580 1.06353 0.75370
 C353 C 1.07439 1.02887 0.76487
 C354 C 1.10339 1.01964 0.78520
 C355 C 1.10382 0.98374 0.78715
 C356 C 1.07482 0.97194 0.76846
 N357 N 1.05632 0.99961 0.75557
 C358 C 1.06517 0.93612 0.76490
 C359 C 1.02917 0.92642 0.76628
 C360 C 1.01631 0.89666 0.78311
 C361 C 0.98045 0.89689 0.77889
 C362 C 0.97220 0.92680 0.75964
 N363 N 1.00200 0.94510 0.75261
 C364 C 0.93802 0.93543 0.74758
 H365 H 0.87739 0.96064 0.70969
 H366 H 0.87747 1.02891 0.70183
 H367 H 1.00410 0.96705 0.73630
 H368 H 0.97414 1.11825 0.69646
 H369 H 1.04206 1.11874 0.70691
 H370 H 1.12185 1.03681 0.79838
 H371 H 1.12231 0.96833 0.80245
 H372 H 0.96251 0.87745 0.78942
 H373 H 0.99924 1.03234 0.76425
 H374 H 1.03092 0.87745 0.79830
 C375 C 0.51789 0.60347 0.27615
 C376 C 0.48173 0.60453 0.27626
 C377 C 0.47041 0.57412 0.25966
 N378 N 0.49836 0.55448 0.24954
 C379 C 0.52743 0.57250 0.25936
 C380 C 0.43504 0.56575 0.25183
 C381 C 0.42464 0.53107 0.24299
 C382 C 0.39267 0.52187 0.22792
 C383 C 0.39112 0.48575 0.22787
 C384 C 0.42260 0.47364 0.24208
 N385 N 0.44288 0.50151 0.25114
 C386 C 0.43087 0.43804 0.24959
 C387 C 0.46599 0.42673 0.25530
 C388 C 0.47613 0.39347 0.26655
 C389 C 0.51225 0.39268 0.26568
 C390 C 0.52313 0.42516 0.25312
 N391 N 0.49481 0.44593 0.24691
 C392 C 0.55831 0.43458 0.24507
 C393 C 0.56812 0.46989 0.23821
 C394 C 0.59872 0.48028 0.22114
 C395 C 0.59998 0.51643 0.22288
 C396 C 0.57009 0.52719 0.24092
 N397 N 0.55063 0.49868 0.24984
 C398 C 0.56218 0.56228 0.25066
 H399 H 0.53506 0.62319 0.28739
 H400 H 0.46571 0.62521 0.28758
 H401 H 0.52879 0.49864 0.26648
 H402 H 0.37218 0.53924 0.21833
 H403 H 0.36893 0.47060 0.21864
 H404 H 0.45961 0.37166 0.27426
 H405 H 0.52839 0.37050 0.27341
 H406 H 0.62053 0.53281 0.21191
 H407 H 0.46582 0.50046 0.26616
 H408 H 0.61820 0.46361 0.20866
 O409 O 0.24966 0.16003 0.20270
 O410 O 0.28664 0.15056 0.25223
 O411 O 0.15541 0.20073 0.25319
 O412 O 0.14012 0.24646 0.28557
 O413 O 0.19744 0.24960 0.15911
 O414 O 0.24472 0.29007 0.14945
 O415 O 0.24701 0.29950 0.34242
 O416 O 0.20517 0.25381 0.35175
 O417 O 0.33608 0.25515 0.30033
 O418 O 0.34869 0.21578 0.25020
 O419 O 0.29117 0.34378 0.25146
 O420 O 0.24234 0.35486 0.21424
 O421 O 0.24208 0.34176 0.30019
 O422 O 0.20204 0.35025 0.24766
 O423 O 0.33473 0.30261 0.25411
 O424 O 0.34703 0.25297 0.21252
 O425 O 0.29371 0.25198 0.34255
 O426 O 0.24542 0.21184 0.35283
 O427 O 0.24950 0.20226 0.16015
 O428 O 0.28575 0.25310 0.15041
 O429 O 0.15477 0.24892 0.20120
 O430 O 0.14560 0.29077 0.25039
 O431 O 0.19851 0.15901 0.25110
 O432 O 0.24737 0.15043 0.29094
 Zr433 Zr 0.24567 0.18830 0.25014
 O434 O 0.27790 0.21920 0.28291
 Zr435 Zr 0.18239 0.24876 0.24933
 O436 O 0.21145 0.28192 0.28297
 Zr437 Zr 0.24480 0.24992 0.18802
 O438 O 0.27625 0.28390 0.21845
 Zr439 Zr 0.24620 0.25209 0.31409
 O440 O 0.21357 0.21840 0.28399
 Zr441 Zr 0.30815 0.25409 0.25252
 O442 O 0.27937 0.21981 0.21930
 Zr443 Zr 0.24433 0.31409 0.25217
 O444 O 0.21249 0.28335 0.21823
 O445 O 0.21257 0.21653 0.21695
 O446 O 0.27817 0.28626 0.28539
 C447 C 0.25136 0.17006 0.17043
 C448 C 0.16604 0.16861 0.25301
 C449 C 0.16503 0.24954 0.16896
 C450 C 0.24418 0.33166 0.33241
 C451 C 0.32598 0.25369 0.33256
 C452 C 0.32371 0.33453 0.25284
 H453 H 0.29293 0.20350 0.29726
 H454 H 0.29037 0.29892 0.20258
 H455 H 0.19820 0.20085 0.20191
 H456 H 0.19512 0.29577 0.29780
 H457 H 0.18732 0.23638 0.34423
 H458 H 0.14773 0.25889 0.30712
 H459 H 0.34273 0.27312 0.19658
 H460 H 0.30502 0.23779 0.15909
 H461 H 0.26338 0.19406 0.34650
 H462 H 0.22968 0.15776 0.30866
 H463 H 0.25683 0.34729 0.19397
 H464 H 0.22738 0.30793 0.15730
 H465 H 0.30602 0.15989 0.23750
 H466 H 0.34416 0.19822 0.26889
 H467 H 0.15132 0.30651 0.23041
 H468 H 0.18612 0.34652 0.26795
 O469 O 0.74601 0.83997 0.19757
 O470 O 0.70801 0.85030 0.24662
 O471 O 0.83898 0.79911 0.24894
 O472 O 0.85285 0.75397 0.28348
 O473 O 0.79734 0.74799 0.15601
 O474 O 0.74889 0.70918 0.14642
 O475 O 0.74687 0.70211 0.33942
 O476 O 0.78794 0.74832 0.34827
 O477 O 0.65722 0.74823 0.29594
 O478 O 0.64554 0.78631 0.24495
 O479 O 0.70126 0.65760 0.25137
 O480 O 0.75021 0.64610 0.21115
 O481 O 0.75111 0.65940 0.29770
 O482 O 0.78966 0.64896 0.24573
 O483 O 0.65831 0.69931 0.24814
 O484 O 0.64678 0.74930 0.20813
 O485 O 0.69949 0.74755 0.33839
 O486 O 0.74710 0.78989 0.34850
 O487 O 0.74730 0.79733 0.15552
 O488 O 0.70894 0.74753 0.14633
 O489 O 0.83962 0.75009 0.19847
 O490 O 0.84816 0.70914 0.24796
 O491 O 0.79611 0.84107 0.24655
 O492 O 0.74707 0.85072 0.28566
 Zr493 Zr 0.74875 0.81227 0.24550
 O494 O 0.71603 0.78212 0.27852
 Zr495 Zr 0.81149 0.75122 0.24622
 O496 O 0.78179 0.71863 0.27989
 Zr497 Zr 0.74962 0.74989 0.18429
 O498 O 0.71737 0.71677 0.21494
 Zr499 Zr 0.74713 0.74913 0.31034
 O500 O 0.78024 0.78228 0.28008
 Zr501 Zr 0.68554 0.74750 0.24819
 O502 O 0.71505 0.78088 0.21467
 Zr503 Zr 0.74857 0.68656 0.24941
 O504 O 0.78120 0.71654 0.21545
 O505 O 0.78192 0.78323 0.21309
 O506 O 0.71476 0.71524 0.28180
 C507 C 0.74572 0.82968 0.16535
 C508 C 0.82853 0.83130 0.24836
 C509 C 0.82966 0.74835 0.16619
 C510 C 0.74941 0.66985 0.32980
 C511 C 0.66724 0.74780 0.32826
 C512 C 0.66880 0.66720 0.24986
 H513 H 0.70105 0.79809 0.29258
 H514 H 0.70312 0.70180 0.19918
 H515 H 0.79675 0.79839 0.19795
 H516 H 0.79794 0.70477 0.29493
 H517 H 0.80566 0.76584 0.34063
 H518 H 0.84519 0.74085 0.30462
 H519 H 0.65232 0.73059 0.19090
 H520 H 0.69050 0.76430 0.15404
 H521 H 0.72785 0.80652 0.34285
 H522 H 0.76354 0.84271 0.30424
 H523 H 0.73228 0.65154 0.19305
 H524 H 0.76443 0.69031 0.15557
 H525 H 0.68919 0.84150 0.23090
 H526 H 0.65064 0.80449 0.26285
 H527 H 0.84192 0.69277 0.22869
 H528 H 0.80678 0.65399 0.26470
 O529 O 0.75233 0.15476 0.79520
 O530 O 0.71288 0.14472 0.74751
 O531 O 0.84231 0.19999 0.74421
 O532 O 0.85545 0.24682 0.71259
 O533 O 0.79818 0.24708 0.83913
 O534 O 0.74882 0.28445 0.84957
 O535 O 0.74932 0.29520 0.65607
 O536 O 0.78946 0.24957 0.64625
 O537 O 0.65887 0.24807 0.69891
 O538 O 0.64763 0.20809 0.74809
 O539 O 0.70059 0.33765 0.74882
 O540 O 0.75080 0.34968 0.78498
 O541 O 0.74417 0.33718 0.69847
 O542 O 0.78897 0.34761 0.74804
 O543 O 0.65861 0.29519 0.74535
 O544 O 0.64892 0.24415 0.78706
 O545 O 0.70111 0.24788 0.65639
 O546 O 0.75048 0.20745 0.64591
 O547 O 0.75001 0.19677 0.83784
 O548 O 0.70976 0.24547 0.84798
 O549 O 0.84085 0.24808 0.79702
 O550 O 0.84763 0.29066 0.74765
 O551 O 0.80067 0.15691 0.74515
 O552 O 0.75066 0.14651 0.70698
 Zr553 Zr 0.75231 0.18396 0.74808
 O554 O 0.71858 0.21383 0.71572
 Zr555 Zr 0.81314 0.24690 0.74885
 O556 O 0.78243 0.27897 0.71545
 Zr557 Zr 0.75087 0.24500 0.81041
 O558 O 0.71790 0.27815 0.78045
 Zr559 Zr 0.74894 0.24783 0.68445
 O560 O 0.78308 0.21542 0.71432
 Zr561 Zr 0.68706 0.24740 0.74649
 O562 O 0.71741 0.21381 0.77929
 Zr563 Zr 0.74825 0.30957 0.74648
 O564 O 0.78153 0.27993 0.78020
 O565 O 0.78451 0.21331 0.78108
 O566 O 0.71560 0.28054 0.71344
 C567 C 0.75120 0.16453 0.82754
 C568 C 0.83275 0.16757 0.74326
 C569 C 0.83054 0.24832 0.82929
 C570 C 0.74609 0.32723 0.66620
 C571 C 0.66884 0.24814 0.66663
 C572 C 0.66841 0.32751 0.74705
 H573 H 0.70404 0.19778 0.70137
 H574 H 0.70336 0.29253 0.79657
 H575 H 0.80005 0.19828 0.79568
 H576 H 0.79798 0.29357 0.70054
 H577 H 0.80819 0.23325 0.65431
 H578 H 0.84687 0.25828 0.69083
 H579 H 0.65217 0.26461 0.80280
 H580 H 0.69188 0.22844 0.83969
 H581 H 0.73135 0.19054 0.65092
 H582 H 0.76741 0.15469 0.68875
 H583 H 0.73548 0.34243 0.80475
 H584 H 0.76483 0.30345 0.84173
 H585 H 0.69383 0.15313 0.76322
 H586 H 0.65415 0.18968 0.73090
 H587 H 0.84073 0.30635 0.76728
 H588 H 0.80231 0.34619 0.72571
 O589 O 0.25130 0.84327 0.80132
 O590 O 0.29018 0.85364 0.75243
 O591 O 0.16023 0.79989 0.75234
 O592 O 0.14806 0.75457 0.71647
 O593 O 0.20369 0.75137 0.84428
 O594 O 0.25309 0.71285 0.85410
 O595 O 0.25119 0.70383 0.66136
 O596 O 0.21183 0.75061 0.65204
 O597 O 0.34296 0.75299 0.70346
 O598 O 0.35395 0.79141 0.75421
 O599 O 0.30172 0.66151 0.75383
 O600 O 0.25069 0.64983 0.79075
 O601 O 0.25720 0.66171 0.70358
 O602 O 0.21409 0.65029 0.75283
 O603 O 0.34371 0.70395 0.74986
 O604 O 0.35422 0.75389 0.79109
 O605 O 0.30046 0.74928 0.66139
 O606 O 0.25243 0.79126 0.65073
 O607 O 0.25388 0.80099 0.84379
 O608 O 0.29203 0.75173 0.85383
 O609 O 0.16122 0.75087 0.80194
 O610 O 0.15343 0.70976 0.75317
 O611 O 0.20222 0.84265 0.75250
 O612 O 0.25090 0.85298 0.71314
 Zr613 Zr 0.25025 0.81492 0.75377
 O614 O 0.28345 0.78516 0.72085
 Zr615 Zr 0.18909 0.75256 0.75416
 O616 O 0.21948 0.72016 0.72088
 Zr617 Zr 0.25139 0.75321 0.81578
 O618 O 0.28444 0.72058 0.78543
 Zr619 Zr 0.25289 0.75120 0.68971
 O620 O 0.21923 0.78402 0.71977
 Zr621 Zr 0.31514 0.75156 0.75137
 O622 O 0.28497 0.78460 0.78474
 Zr623 Zr 0.25386 0.68933 0.75158
 O624 O 0.22050 0.71890 0.78521
 O625 O 0.21812 0.78545 0.78672
 O626 O 0.28646 0.71840 0.71842
 C627 C 0.25327 0.83327 0.83359
 C628 C 0.17000 0.83229 0.75222
 C629 C 0.17133 0.75046 0.83420
 C630 C 0.25449 0.67172 0.67136
 C631 C 0.33278 0.75107 0.67128
 C632 C 0.33391 0.67167 0.75202
 H633 H 0.29790 0.80130 0.70647
 H634 H 0.29908 0.70615 0.80143
 H635 H 0.20305 0.80040 0.80186
 H636 H 0.20375 0.70565 0.70613
 H637 H 0.19385 0.76777 0.66005
 H638 H 0.15558 0.74032 0.69603
 H639 H 0.35021 0.73409 0.80752
 H640 H 0.31097 0.76729 0.84498
 H641 H 0.27152 0.80813 0.65597
 H642 H 0.23491 0.84422 0.69452
 H643 H 0.26753 0.65611 0.80960
 H644 H 0.23623 0.69456 0.84637
 H645 H 0.30871 0.84577 0.76903
 H646 H 0.34795 0.80958 0.73653
 H647 H 0.16165 0.69261 0.77102
 H648 H 0.19873 0.65371 0.73206
 O649 O 0.24268 0.34054 0.70172
 O650 O 0.20743 0.35163 0.75314
 O651 O 0.33836 0.30190 0.75658
 O652 O 0.35353 0.25533 0.78845
 O653 O 0.29789 0.24802 0.66177
 O654 O 0.24869 0.20992 0.65218
 O655 O 0.25044 0.20371 0.84459
 O656 O 0.28943 0.25399 0.85228
 O657 O 0.15772 0.24910 0.80127
 O658 O 0.14677 0.28855 0.74979
 O659 O 0.20183 0.15942 0.75538
 O660 O 0.25284 0.14900 0.71545
 O661 O 0.25022 0.16090 0.80280
 O662 O 0.28955 0.14981 0.75314
 O663 O 0.15863 0.20099 0.75469
 O664 O 0.14645 0.24951 0.71428
 O665 O 0.19983 0.24900 0.84384
 O666 O 0.24237 0.28919 0.85584
 O667 O 0.24893 0.29788 0.66012
 O668 O 0.20963 0.24906 0.65138
 O669 O 0.34008 0.25349 0.70399
 O670 O 0.34883 0.21202 0.75366
 O671 O 0.29567 0.34328 0.74822
 O672 O 0.24814 0.35395 0.78895
 Zr673 Zr 0.24850 0.31407 0.75014
 O674 O 0.21639 0.28385 0.78378
 Zr675 Zr 0.31170 0.25366 0.75171
 O676 O 0.28224 0.22067 0.78519
 Zr677 Zr 0.25007 0.25103 0.68962
 O678 O 0.21774 0.21819 0.72035
 Zr679 Zr 0.24749 0.25096 0.81569
 O680 O 0.28003 0.28469 0.78528
 Zr681 Zr 0.18596 0.24897 0.75363
 O682 O 0.21516 0.28208 0.71961
 Zr683 Zr 0.24918 0.18831 0.75476
 O684 O 0.28196 0.21834 0.72105
 O685 O 0.28201 0.28503 0.71807
 O686 O 0.21533 0.21682 0.78728
 C687 C 0.24458 0.33001 0.66963
 C688 C 0.32788 0.33385 0.75287
 C689 C 0.33015 0.25005 0.67183
 C690 C 0.25125 0.17132 0.83492
 C691 C 0.16758 0.24883 0.83360
 C692 C 0.16930 0.16893 0.75522
 H693 H 0.20156 0.29970 0.79817
 H694 H 0.20354 0.20312 0.70464
 H695 H 0.29668 0.30012 0.70270
 H696 H 0.29861 0.20698 0.80016
 H697 H 0.30406 0.27448 0.84547
 H698 H 0.34428 0.24597 0.81090
 H699 H 0.15303 0.23194 0.69625
 H700 H 0.19107 0.26562 0.65925
 H701 H 0.23913 0.31211 0.84402
 H702 H 0.26731 0.34831 0.80574
 H703 H 0.23313 0.15254 0.69876
 H704 H 0.26486 0.19139 0.66091
 H705 H 0.18826 0.34295 0.73778
 H706 H 0.15003 0.30502 0.76968
 H707 H 0.34268 0.19549 0.73449
 H708 H 0.30765 0.15653 0.77061
 O709 O 0.75575 0.65776 0.69966
 O710 O 0.79241 0.64719 0.74958
 O711 O 0.66164 0.69905 0.74875
 O712 O 0.64870 0.74352 0.78543
 O713 O 0.70398 0.74878 0.65727
 O714 O 0.75243 0.78819 0.64783
 O715 O 0.75444 0.79691 0.84009
 O716 O 0.71292 0.75091 0.84963
 O717 O 0.84381 0.75085 0.79742
 O718 O 0.85481 0.71028 0.74723
 O719 O 0.80044 0.83962 0.75140
 O720 O 0.75040 0.85038 0.71044
 O721 O 0.75197 0.83923 0.79778
 O722 O 0.71266 0.84985 0.74736
 O723 O 0.84318 0.79766 0.74851
 O724 O 0.85453 0.74728 0.70992
 O725 O 0.80152 0.74964 0.83983
 O726 O 0.75330 0.70923 0.85073
 O727 O 0.75255 0.70018 0.65735
 O728 O 0.79221 0.74889 0.64790
 O729 O 0.66157 0.74946 0.69964
 O730 O 0.65260 0.78882 0.74932
 O731 O 0.70444 0.65691 0.74952
 O732 O 0.75352 0.64712 0.78789
 Zr733 Zr 0.75198 0.68550 0.74759
 O734 O 0.78474 0.71579 0.78040
 Zr735 Zr 0.68946 0.74690 0.74755
 O736 O 0.71937 0.77970 0.78088
 Zr737 Zr 0.75143 0.74751 0.68582
 O738 O 0.78398 0.78056 0.71604
 Zr739 Zr 0.75379 0.74930 0.81178
 O740 O 0.72058 0.71600 0.78179
 Zr741 Zr 0.81551 0.74987 0.74968
 O742 O 0.78582 0.71649 0.71645
 Zr743 Zr 0.75287 0.81123 0.75008
 O744 O 0.71995 0.78122 0.71654
 O745 O 0.71898 0.71448 0.71488
 O746 O 0.78642 0.78262 0.78286
 C747 C 0.75506 0.66801 0.66738
 C748 C 0.67200 0.66681 0.74980
 C749 C 0.67169 0.74989 0.66735
 C750 C 0.75322 0.82920 0.83003
 C751 C 0.83381 0.75038 0.82974
 C752 C 0.83282 0.82979 0.74992
 H753 H 0.79958 0.69989 0.79472
 H754 H 0.79831 0.79523 0.70005
 H755 H 0.70408 0.69934 0.69981
 H756 H 0.70343 0.79390 0.79579
 H757 H 0.69508 0.73343 0.84221
 H758 H 0.65575 0.75805 0.80582
 H759 H 0.84855 0.76506 0.69183
 H760 H 0.81018 0.73158 0.65557
 H761 H 0.77133 0.69149 0.84450
 H762 H 0.73727 0.65534 0.80656
 H763 H 0.76979 0.84595 0.69361
 H764 H 0.73620 0.80673 0.65640
 H765 H 0.81181 0.65612 0.73463
 H766 H 0.85077 0.69368 0.76690
 H767 H 0.65986 0.80613 0.73124
 H768 H 0.69527 0.84458 0.76603
 O769 O 0.25078 0.66268 0.30210
 O770 O 0.21082 0.65148 0.25391
 O771 O 0.34062 0.70544 0.25077
 O772 O 0.35354 0.75109 0.21650
 O773 O 0.29663 0.75435 0.34358
 O774 O 0.24796 0.79399 0.35227
 O775 O 0.24787 0.79993 0.15958
 O776 O 0.28885 0.75356 0.15122
 O777 O 0.15754 0.75332 0.20286
 O778 O 0.14617 0.71396 0.25226
 O779 O 0.19879 0.84340 0.24843
 O780 O 0.24837 0.85580 0.28811
 O781 O 0.24536 0.84278 0.20128
 O782 O 0.28656 0.85461 0.25134
 O783 O 0.15694 0.80071 0.25064
 O784 O 0.14736 0.74957 0.29106
 O785 O 0.20000 0.75197 0.16058
 O786 O 0.24860 0.71248 0.15021
 O787 O 0.24660 0.70553 0.34378
 O788 O 0.20861 0.75530 0.35292
 O789 O 0.33919 0.75578 0.30133
 O790 O 0.34692 0.79593 0.25111
 O791 O 0.29874 0.66266 0.25354
 O792 O 0.25012 0.65146 0.21420
 Zr793 Zr 0.25073 0.69023 0.25407
 O794 O 0.21737 0.71931 0.22069
 Zr795 Zr 0.31167 0.75281 0.25325
 O796 O 0.28112 0.78444 0.21930
 Zr797 Zr 0.24923 0.75283 0.31489
 O798 O 0.21618 0.78498 0.28398
 Zr799 Zr 0.24769 0.75283 0.18877
 O800 O 0.28156 0.72069 0.21942
 Zr801 Zr 0.18560 0.75328 0.25064
 O802 O 0.21581 0.72076 0.28452
 Zr803 Zr 0.24675 0.81567 0.24953
 O804 O 0.28011 0.78674 0.28374
 O805 O 0.28280 0.72036 0.28639
 O806 O 0.21413 0.78598 0.21699
 C807 C 0.24842 0.67317 0.33415
 C808 C 0.33089 0.67303 0.25177
 C809 C 0.32894 0.75591 0.33359
 C810 C 0.24651 0.83232 0.16917
 C811 C 0.16767 0.75250 0.17060
 C812 C 0.16663 0.83303 0.24935
 H813 H 0.20296 0.70293 0.20658
 H814 H 0.20144 0.79960 0.29968
 H815 H 0.29809 0.70570 0.30161
 H816 H 0.29681 0.79872 0.20423
 H817 H 0.30684 0.73644 0.15931
 H818 H 0.34536 0.76325 0.19495
 H819 H 0.15087 0.76964 0.30724
 H820 H 0.19015 0.73862 0.34519
 H821 H 0.23189 0.69391 0.15745
 H822 H 0.26702 0.65928 0.19595
 H823 H 0.23049 0.85017 0.30619
 H824 H 0.26436 0.81231 0.34365
 H825 H 0.19233 0.65977 0.27033
 H826 H 0.15307 0.69513 0.23567
 H827 H 0.33942 0.81278 0.26951
 H828 H 0.30277 0.85050 0.23137
 O829 O 0.74293 0.33911 0.29616
 O830 O 0.78364 0.34892 0.24779
 O831 O 0.65363 0.29581 0.24381
 O832 O 0.64079 0.24867 0.21142
 O833 O 0.69623 0.24694 0.33899
 O834 O 0.74601 0.20905 0.34945
 O835 O 0.74711 0.19785 0.15773
 O836 O 0.70541 0.24411 0.14758
 O837 O 0.83648 0.24859 0.19945
 O838 O 0.84706 0.28726 0.24980
 O839 O 0.79497 0.15731 0.25017
 O840 O 0.74278 0.14710 0.28851
 O841 O 0.75038 0.15622 0.20070
 O842 O 0.70803 0.14510 0.24869
 O843 O 0.83679 0.19992 0.24560
 O844 O 0.84692 0.25008 0.28726
 O845 O 0.79438 0.24486 0.15700
 O846 O 0.74628 0.28492 0.14500
 O847 O 0.74640 0.29703 0.33879
 O848 O 0.78404 0.24829 0.34972
 O849 O 0.65382 0.24832 0.29656
 O850 O 0.64660 0.20537 0.24857
 O851 O 0.69562 0.33844 0.24672
 O852 O 0.74446 0.34857 0.20800
 Zr853 Zr 0.74336 0.31055 0.24865
 O854 O 0.77669 0.28053 0.21608
 Zr855 Zr 0.68211 0.24831 0.24883
 O856 O 0.71288 0.21537 0.21630
 Zr857 Zr 0.74405 0.24927 0.31098
 O858 O 0.77750 0.21655 0.28130
 Zr859 Zr 0.74659 0.24598 0.18507
 O860 O 0.71278 0.27930 0.21448
 Zr861 Zr 0.80826 0.24740 0.24714
 O862 O 0.77785 0.28056 0.28011
 Zr863 Zr 0.74696 0.18495 0.24780
 O864 O 0.71318 0.21489 0.28055
 O865 O 0.71087 0.28134 0.28146
 O866 O 0.77984 0.21371 0.21457
 C867 C 0.74497 0.32918 0.32846
 C868 C 0.66349 0.32820 0.24431
 C869 C 0.66391 0.24703 0.32884
 C870 C 0.74967 0.16580 0.16831
 C871 C 0.82661 0.24669 0.16717
 C872 C 0.82703 0.16770 0.24797
 H873 H 0.79115 0.29659 0.20161
 H874 H 0.79211 0.20235 0.29752
 H875 H 0.69551 0.29646 0.29613
 H876 H 0.69742 0.20062 0.20149
 H877 H 0.68768 0.26186 0.15484
 H878 H 0.64895 0.23511 0.19076
 H879 H 0.84348 0.22977 0.30319
 H880 H 0.80352 0.26296 0.34054
 H881 H 0.76325 0.30349 0.15157
 H882 H 0.72864 0.33980 0.18924
 H883 H 0.76179 0.15177 0.30569
 H884 H 0.72912 0.19071 0.34193
 H885 H 0.80129 0.34162 0.26558
 H886 H 0.84066 0.30564 0.23248
 H887 H 0.65435 0.18898 0.26733
 H888 H 0.69091 0.15016 0.22971
 N889 N 0.26244 0.08369 0.12806
 C890 C 0.26721 0.09227 0.09359
 N891 N 0.26447 0.12691 0.08473
 N892 N 0.25918 0.15162 0.10901
 C893 C 0.25576 0.14278 0.14340
 N894 N 0.25718 0.10829 0.15246
 N895 N 0.73656 0.62055 0.58536
 C896 C 0.75506 0.59023 0.58983
 N897 N 0.77462 0.58625 0.61955
 N898 N 0.77472 0.61102 0.64434
 C899 C 0.75591 0.64109 0.63992
 N900 N 0.73718 0.64561 0.60982
 N901 N 0.74847 0.87335 0.07877
 C902 C 0.74658 0.90805 0.08750
 N903 N 0.74321 0.91639 0.12215
 N904 N 0.74240 0.89148 0.14682
 C905 C 0.74476 0.85699 0.13792
 N906 N 0.74759 0.84836 0.10340
 N907 N 0.26291 0.37946 0.58859
 C908 C 0.24211 0.40835 0.59253
 N909 N 0.22098 0.41047 0.62133
 N910 N 0.22159 0.38539 0.64584
 C911 C 0.24269 0.35679 0.64201
 N912 N 0.26303 0.35404 0.61277
 N913 N 0.76538 0.07926 0.87175
 C914 C 0.76467 0.08836 0.90642
 N915 N 0.75620 0.12225 0.91427
 N916 N 0.75112 0.14623 0.88925
 C917 C 0.75344 0.13724 0.85487
 N918 N 0.76023 0.10317 0.84652
 N919 N 0.27101 0.59268 0.38257
 C920 C 0.24995 0.59494 0.41138
 N921 N 0.22915 0.62387 0.41523
 N922 N 0.22897 0.64918 0.39090
 C923 C 0.24918 0.64618 0.36159
 N924 N 0.27034 0.61761 0.35794
 N925 N 0.24470 0.91921 0.87730
 C926 C 0.25552 0.91190 0.91061
 N927 N 0.26528 0.87836 0.91850
 N928 N 0.26438 0.85323 0.89408
 C929 C 0.25402 0.86076 0.86070
 N930 N 0.24415 0.89419 0.85278
 N931 N 0.71993 0.40795 0.37838
 C932 C 0.74288 0.40706 0.40581
 N933 N 0.76606 0.37981 0.40798
 N934 N 0.76657 0.35477 0.38346
 C935 C 0.74436 0.35642 0.35554
 N936 N 0.72092 0.38333 0.35348
 N937 N 0.12176 0.24590 0.08228
 C938 C 0.08695 0.24743 0.09084
 N939 N 0.07834 0.24992 0.12551
 N940 N 0.10313 0.25069 0.15032
 C941 C 0.13774 0.24917 0.14153
 N942 N 0.14662 0.24677 0.10703
 N943 N 0.58607 0.76113 0.62334
 C944 C 0.59325 0.75045 0.58996
 N945 N 0.62665 0.74009 0.58215
 N946 N 0.65176 0.74038 0.60666
 C947 C 0.64436 0.75070 0.64006
 N948 N 0.61105 0.76103 0.64797
 N949 N 0.12687 0.74898 0.92034
 C950 C 0.09224 0.75149 0.91127
 N951 N 0.08415 0.75319 0.87644
 N952 N 0.10928 0.75252 0.85199
 C953 C 0.14373 0.75015 0.86128
 N954 N 0.15209 0.74841 0.89594
 N955 N 0.61997 0.23735 0.41454
 C956 C 0.58667 0.24844 0.40734
 N957 N 0.57884 0.25849 0.37389
 N958 N 0.60329 0.25754 0.34874
 C959 C 0.63662 0.24680 0.35615
 N960 N 0.64453 0.23677 0.38951
 N961 N 0.91676 0.75059 0.12369
 C962 C 0.90857 0.74820 0.08891
 N963 N 0.87393 0.74546 0.08000
 N964 N 0.84881 0.74530 0.10450
 C965 C 0.85726 0.74776 0.13909
 N966 N 0.89171 0.75036 0.14824
 N967 N 0.41513 0.26063 0.62631
 C968 C 0.40721 0.25006 0.59307
 N969 N 0.37390 0.23895 0.58617
 N970 N 0.34944 0.23881 0.61130
 C971 C 0.35742 0.24939 0.64445
 N972 N 0.39075 0.26018 0.65155
 N973 N 0.91675 0.25151 0.87367
 C974 C 0.90780 0.24892 0.90827
 N975 N 0.87297 0.24653 0.91642
 N976 N 0.84842 0.24662 0.89136
 C977 C 0.85762 0.24905 0.85693
 N978 N 0.89226 0.25151 0.84854
 N979 N 0.41477 0.76550 0.37740
 C980 C 0.40750 0.75469 0.41072
 N981 N 0.37395 0.74506 0.41864
 N982 N 0.34876 0.74609 0.39424
 C983 C 0.35622 0.75650 0.36089
 N984 N 0.38968 0.76616 0.35289
 N985 N 0.07958 0.12553 0.25846
 C986 C 0.08763 0.09103 0.25337
 N987 N 0.12220 0.08226 0.24914
 N988 N 0.14730 0.10676 0.24951
 C989 C 0.13887 0.14117 0.25412
 N990 N 0.10456 0.15006 0.25870
 N991 N 0.62747 0.58136 0.76118
 C992 C 0.59392 0.58902 0.75112
 N993 N 0.58645 0.62238 0.74051
 N994 N 0.61126 0.64712 0.74033
 C995 C 0.64471 0.63942 0.75038
 N996 N 0.65243 0.60602 0.76061
 N997 N 0.87674 0.08146 0.73954
 C998 C 0.91091 0.09007 0.73315
 N999 N 0.91926 0.12484 0.73165
 N1000 N 0.89452 0.14961 0.73484
 C1001 C 0.86033 0.14061 0.74013
 N1002 N 0.85194 0.10606 0.74260
 N1003 N 0.37502 0.58785 0.26457
 C1004 C 0.40804 0.59426 0.25239
 N1005 N 0.41567 0.62706 0.24025
 N1006 N 0.39128 0.65236 0.24025
 C1007 C 0.35818 0.64565 0.25198
 N1008 N 0.35053 0.61297 0.26417
 N1009 N 0.08319 0.87508 0.75860
 C1010 C 0.09175 0.90968 0.76213
 N1011 N 0.12644 0.91844 0.75984
 N1012 N 0.15127 0.89392 0.75605
 C1013 C 0.14248 0.85944 0.75372
 N1014 N 0.10794 0.85046 0.75484
 N1015 N 0.57897 0.37416 0.23071
 C1016 C 0.58601 0.40672 0.24376
 N1017 N 0.61888 0.41327 0.25628
 N1018 N 0.64359 0.38835 0.25588
 C1019 C 0.63633 0.35572 0.24334
 N1020 N 0.60356 0.34904 0.23074
 N1021 N 0.91481 0.87509 0.25266
 C1022 C 0.90621 0.90961 0.24844
 N1023 N 0.87155 0.91794 0.24436
 N1024 N 0.84679 0.89313 0.24459
 C1025 C 0.85565 0.85880 0.24885
 N1026 N 0.89014 0.85021 0.25278
 N1027 N 0.40133 0.39018 0.78062
 C1028 C 0.40661 0.41041 0.75159
 N1029 N 0.38539 0.40553 0.72322
 N1030 N 0.35976 0.38161 0.72393
 C1031 C 0.35480 0.36128 0.75286
 N1032 N 0.37614 0.36579 0.78113
 N1033 N 0.12302 0.24599 0.91970
 C1034 C 0.08835 0.24762 0.91058
 N1035 N 0.08029 0.24964 0.87574
 N1036 N 0.10545 0.24994 0.85132
 C1037 C 0.13991 0.24833 0.86064
 N1038 N 0.14826 0.24637 0.89531
 N1039 N 0.62354 0.73775 0.41413
 C1040 C 0.59007 0.74834 0.40698
 N1041 N 0.58217 0.75861 0.37359
 N1042 N 0.60660 0.75810 0.34840
 C1043 C 0.64003 0.74768 0.35571
 N1044 N 0.64808 0.73763 0.38906
 N1045 N 0.92026 0.75320 0.87396
 C1046 C 0.91124 0.75113 0.90859
 N1047 N 0.87641 0.74874 0.91671
 N1048 N 0.85187 0.74856 0.89166
 C1049 C 0.86107 0.75067 0.85723
 N1050 N 0.89575 0.75296 0.84882
 N1051 N 0.41148 0.26393 0.37704
 C1052 C 0.40399 0.25325 0.41036
 N1053 N 0.37057 0.24284 0.41786
 N1054 N 0.34565 0.24328 0.39317
 C1055 C 0.35328 0.25378 0.35988
 N1056 N 0.38666 0.26402 0.35224
 N1057 N 0.08181 0.76016 0.12595
 C1058 C 0.09020 0.75200 0.09214
 N1059 N 0.12423 0.74380 0.08448
 N1060 N 0.14887 0.74405 0.10944
 C1061 C 0.14041 0.75218 0.14317
 N1062 N 0.10639 0.76012 0.15101
 N1063 N 0.58297 0.25980 0.62325
 C1064 C 0.59006 0.24981 0.58966
 N1065 N 0.62334 0.23922 0.58162
 N1066 N 0.64853 0.23888 0.60605
 C1067 C 0.64128 0.24871 0.63960
 N1068 N 0.60803 0.25908 0.64779
 N1069 N 0.91287 0.25532 0.12369
 C1070 C 0.90534 0.24636 0.08989
 N1071 N 0.87160 0.23761 0.08169
 N1072 N 0.84648 0.23787 0.10622
 C1073 C 0.85417 0.24663 0.13999
 N1074 N 0.88785 0.25529 0.14828
 N1075 N 0.41814 0.76105 0.62643
 C1076 C 0.41042 0.75077 0.59307
 N1077 N 0.37691 0.74064 0.58564
 N1078 N 0.35214 0.74087 0.61050
 C1079 C 0.36001 0.75094 0.64385
 N1080 N 0.39347 0.76096 0.65139
 N1081 N 0.26142 0.08500 0.87753
 C1082 C 0.26661 0.09353 0.91192
 N1083 N 0.26396 0.12815 0.92085
 N1084 N 0.25850 0.15293 0.89660
 C1085 C 0.25475 0.14413 0.86223
 N1086 N 0.25598 0.10965 0.85320
 N1087 N 0.77054 0.58826 0.37727
 C1088 C 0.75147 0.59182 0.40732
 N1089 N 0.73271 0.62192 0.41227
 N1090 N 0.73252 0.64713 0.38785
 C1091 C 0.75071 0.64293 0.35736
 N1092 N 0.76986 0.61315 0.35258
 N1093 N 0.77100 0.08186 0.12490
 C1094 C 0.76299 0.08869 0.09070
 N1095 N 0.74831 0.12047 0.08296
 N1096 N 0.74378 0.14491 0.10762
 C1097 C 0.75285 0.13825 0.14146
 N1098 N 0.76614 0.10611 0.14976
 N1099 N 0.23346 0.62260 0.59080
 C1100 C 0.25385 0.59334 0.59423
 N1101 N 0.27528 0.59063 0.62278
 N1102 N 0.27545 0.61554 0.64745
 C1103 C 0.25481 0.64454 0.64405
 N1104 N 0.23413 0.64784 0.61510
 N1105 N 0.74573 0.91564 0.87321
 C1106 C 0.75401 0.90790 0.90715
 N1107 N 0.76185 0.87398 0.91556
 N1108 N 0.76136 0.84886 0.89111
 C1109 C 0.75328 0.85671 0.85720
 N1110 N 0.74552 0.89058 0.84870
 N1111 N 0.22089 0.41199 0.38097
 C1112 C 0.24211 0.40983 0.40970
 N1113 N 0.26328 0.38114 0.41329
 N1114 N 0.26359 0.35596 0.38891
 C1115 C 0.24315 0.35879 0.35973
 N1116 N 0.22170 0.38717 0.35624
 N1117 N 0.26014 0.87726 0.08435
 C1118 C 0.25045 0.91087 0.09200
 N1119 N 0.23844 0.91810 0.12491
 N1120 N 0.23687 0.89298 0.14934
 C1121 C 0.24679 0.85951 0.14170
 N1122 N 0.25821 0.85204 0.10868
 N1123 N 0.76588 0.37808 0.58641
 C1124 C 0.74309 0.40558 0.58913
 N1125 N 0.72054 0.40648 0.61690
 N1126 N 0.72157 0.38158 0.64160
 C1127 C 0.74462 0.35438 0.63895
 N1128 N 0.76643 0.35279 0.61071
 N1129 N 0.08312 0.12475 0.75759
 C1130 C 0.09207 0.09018 0.75461
 N1131 N 0.12692 0.08197 0.75211
 N1132 N 0.15152 0.10692 0.75257
 C1133 C 0.14233 0.14129 0.75542
 N1134 N 0.10766 0.14975 0.75792
 N1135 N 0.62400 0.58165 0.26028
 C1136 C 0.59052 0.58949 0.25009
 N1137 N 0.58326 0.62292 0.23957
 N1138 N 0.60817 0.64755 0.23964
 C1139 C 0.64154 0.63971 0.24986
 N1140 N 0.64907 0.60623 0.26001
 N1141 N 0.12147 0.91828 0.24007
 C1142 C 0.08779 0.91004 0.24897
 N1143 N 0.08029 0.87625 0.25794
 N1144 N 0.10536 0.85168 0.25784
 C1145 C 0.13899 0.86002 0.24909
 N1146 N 0.14663 0.89378 0.24028
 N1147 N 0.58371 0.37338 0.73431
 C1148 C 0.59069 0.40596 0.74734
 N1149 N 0.62354 0.41252 0.75995
 N1150 N 0.64829 0.38760 0.75963
 C1151 C 0.64107 0.35495 0.74711
 N1152 N 0.60832 0.34829 0.73441
 N1153 N 0.88723 0.09883 0.27900
 C1154 C 0.90549 0.09092 0.24929
 N1155 N 0.89776 0.10854 0.21913
 N1156 N 0.87281 0.13326 0.21873
 C1157 C 0.85447 0.14087 0.24839
 N1158 N 0.86198 0.12322 0.27851
 N1159 N 0.37832 0.58658 0.76549
 C1160 C 0.41139 0.59310 0.75347
 N1161 N 0.41892 0.62590 0.74128
 N1162 N 0.39441 0.65109 0.74111
 C1163 C 0.36128 0.64431 0.75274
 N1164 N 0.35370 0.61161 0.76494
 N1165 N 0.91772 0.87449 0.73736
 C1166 C 0.91035 0.90774 0.74826
 N1167 N 0.87729 0.91511 0.75994
 N1168 N 0.85250 0.89034 0.76035
 C1169 C 0.85998 0.85714 0.74953
 N1170 N 0.89305 0.84962 0.73816
 N1171 N 0.39688 0.39156 0.27996
 C1172 C 0.40201 0.41159 0.25076
 N1173 N 0.38070 0.40644 0.22250
 N1174 N 0.35519 0.38239 0.22345
 C1175 C 0.35037 0.36226 0.25255
 N1176 N 0.37175 0.36711 0.28073
   
