data_POSCAR
  _audit_creation_date              2014-09-24
  _audit_creation_method            'ToBaCCo'
  _symmetry_space_group_name_H-M    'P1'
  _symmetry_Int_Tables_number       1
  _symmetry_cell_setting            triclinic
  loop_
  _symmetry_equiv_pos_as_xyz
 x,y,z
_cell_length_a 54.0693
_cell_length_b 52.6327
_cell_length_c 54.3699
_cell_angle_alpha 90.371700
_cell_angle_beta 89.863100
_cell_angle_gamma 90.232000
loop_
  _atom_site_label
  _atom_site_type_symbol
  _atom_site_fract_x
  _atom_site_fract_y
  _atom_site_fract_z
N1 N 0.59957 0.66532 0.61383
 N2 N 0.59041 0.65542 0.63408
 C3 C 0.57028 0.66873 0.64097
 C4 C 0.56682 0.68784 0.62414
 C5 C 0.58561 0.68525 0.60716
 H6 H 0.55895 0.66485 0.65694
 H7 H 0.58886 0.69695 0.59119
 Cu8 Cu 0.60563 0.62608 0.64940
 Cu9 Cu 0.62881 0.65164 0.59763
 Cu10 Cu 0.65572 0.59869 0.62391
 N11 N 0.62062 0.59601 0.66358
 N12 N 0.64021 0.58539 0.65352
 C13 C 0.64674 0.56500 0.66684
 C14 C 0.63033 0.56289 0.68614
 C15 C 0.61397 0.58271 0.68367
 H16 H 0.66219 0.55266 0.66276
 H17 H 0.59845 0.58704 0.69554
 N18 N 0.66873 0.61491 0.59396
 N19 N 0.65847 0.63509 0.58394
 C20 C 0.67155 0.64166 0.56382
 C21 C 0.69080 0.62482 0.56119
 C22 C 0.68860 0.60812 0.58047
 H23 H 0.66744 0.65750 0.55195
 H24 H 0.70061 0.59227 0.58433
 H25 H 0.62399 0.61481 0.60983
 H26 H 0.64451 0.63591 0.62859
 N27 N 0.90028 0.33095 0.11373
 N28 N 0.90744 0.33924 0.13547
 C29 C 0.92732 0.32592 0.14272
 C30 C 0.93271 0.30845 0.12452
 C31 C 0.91532 0.31201 0.10639
 H32 H 0.93706 0.32872 0.15989
 H33 H 0.91370 0.30163 0.08923
 Cu34 Cu 0.89012 0.36648 0.15242
 Cu35 Cu 0.87192 0.34522 0.09675
 Cu36 Cu 0.84556 0.39876 0.12299
 N37 N 0.87806 0.39887 0.16469
 N38 N 0.86063 0.41144 0.15318
 C39 C 0.85571 0.43299 0.16571
 C40 C 0.87091 0.43384 0.18602
 C41 C 0.88487 0.41201 0.18493
 H42 H 0.84210 0.44695 0.16050
 H43 H 0.89886 0.40614 0.19787
 N44 N 0.83302 0.38291 0.09252
 N45 N 0.84308 0.36247 0.08251
 C46 C 0.83032 0.35608 0.06211
 C47 C 0.81147 0.37334 0.05931
 C48 C 0.81359 0.39007 0.07877
 H49 H 0.83428 0.34002 0.05027
 H50 H 0.80175 0.40612 0.08266
 H51 H 0.87776 0.38087 0.11194
 H52 H 0.85354 0.36056 0.12677
 N53 N 0.39934 0.16817 -0.11450
 N54 N 0.40644 0.15996 -0.13630
 C55 C 0.42647 0.17326 -0.14355
 C56 C 0.43205 0.19064 -0.12531
 C57 C 0.41459 0.18702 -0.10714
 H58 H 0.43621 0.17053 -0.16076
 H59 H 0.41308 0.19732 -0.08993
 Cu60 Cu 0.38887 0.13284 -0.15330
 Cu61 Cu 0.37082 0.15390 -0.09749
 Cu62 Cu 0.34398 0.10050 -0.12384
 N63 N 0.37656 0.10050 -0.16563
 N64 N 0.35901 0.08791 -0.15411
 C65 C 0.35397 0.06637 -0.16666
 C66 C 0.36922 0.06556 -0.18700
 C67 C 0.38334 0.08740 -0.18590
 H68 H 0.34025 0.05238 -0.16144
 H69 H 0.39743 0.09329 -0.19884
 N70 N 0.33153 0.11626 -0.09328
 N71 N 0.34178 0.13664 -0.08322
 C72 C 0.32903 0.14299 -0.06278
 C73 C 0.31000 0.12578 -0.05999
 C74 C 0.31199 0.10911 -0.07951
 H75 H 0.33312 0.15901 -0.05090
 H76 H 0.29999 0.09311 -0.08344
 H77 H 0.37633 0.11830 -0.11283
 H78 H 0.35232 0.13871 -0.12749
 N79 N 0.09719 0.83607 0.38855
 N80 N 0.08578 0.84867 0.37112
 C81 C 0.06542 0.83567 0.36420
 C82 C 0.06417 0.81389 0.37809
 C83 C 0.08447 0.81461 0.39337
 H84 H 0.05253 0.84162 0.35020
 H85 H 0.08954 0.80068 0.40698
 Cu86 Cu 0.09833 0.88097 0.35924
 Cu87 Cu 0.12745 0.84861 0.40379
 Cu88 Cu 0.15422 0.90195 0.37781
 N89 N 0.11561 0.90808 0.34219
 N90 N 0.13743 0.91626 0.34948
 C91 C 0.14496 0.93515 0.33462
 C92 C 0.12688 0.93884 0.31719
 C93 C 0.10851 0.92145 0.32240
 H94 H 0.16221 0.94547 0.33638
 H95 H 0.09130 0.91878 0.31259
 N96 N 0.16825 0.88467 0.40661
 N97 N 0.15802 0.86431 0.41652
 C98 C 0.17162 0.85716 0.43601
 C99 C 0.19120 0.87381 0.43831
 C100 C 0.18862 0.89101 0.41952
 H101 H 0.16751 0.84121 0.44779
 H102 H 0.20058 0.90704 0.41572
 H103 H 0.12384 0.88683 0.39583
 H104 H 0.13889 0.86637 0.37186
 C105 C 0.11327 0.14582 0.11648
 C106 C 0.13471 0.13531 0.10610
 C107 C 0.14568 0.11447 0.11685
 C108 C 0.13532 0.10380 0.13810
 C109 C 0.11413 0.11411 0.14828
 C110 C 0.10303 0.13527 0.13740
 C111 C 0.09864 0.16601 0.10997
 N112 N 0.07973 0.16798 0.12641
 C113 C 0.08234 0.14919 0.14325
 C114 C 0.10821 0.09990 0.16862
 N115 N 0.12529 0.08121 0.17110
 C116 C 0.14196 0.08351 0.15246
 C117 C 0.16612 0.10839 0.10292
 N118 N 0.16782 0.12500 0.08392
 C119 C 0.14863 0.14153 0.08578
 H120 H 0.10139 0.17810 0.09417
 H121 H 0.07026 0.14601 0.15885
 H122 H 0.09274 0.10321 0.18089
 H123 H 0.15759 0.07112 0.14929
 H124 H 0.17859 0.09275 0.10620
 H125 H 0.14516 0.15719 0.07347
 C126 C 0.38718 0.85341 0.61478
 C127 C 0.36596 0.86391 0.60418
 C128 C 0.35495 0.88494 0.61484
 C129 C 0.36502 0.89580 0.63622
 C130 C 0.38596 0.88547 0.64665
 C131 C 0.39709 0.86409 0.63588
 C132 C 0.40178 0.83304 0.60841
 N133 N 0.42032 0.83106 0.62514
 C134 C 0.41753 0.85003 0.64202
 C135 C 0.39158 0.89986 0.66712
 N136 N 0.37454 0.91867 0.66941
 C137 C 0.35822 0.91627 0.65053
 C138 C 0.33475 0.89097 0.60072
 N139 N 0.33323 0.87413 0.58169
 C140 C 0.35231 0.85752 0.58371
 H141 H 0.39887 0.82041 0.59289
 H142 H 0.42968 0.85363 0.65746
 H143 H 0.40678 0.89659 0.67960
 H144 H 0.34271 0.92869 0.64719
 H145 H 0.32231 0.90671 0.60392
 H146 H 0.35586 0.84169 0.57142
 C147 C 0.88700 0.64623 0.38427
 C148 C 0.86575 0.63544 0.39479
 C149 C 0.85496 0.61423 0.38415
 C150 C 0.86523 0.60354 0.36277
 C151 C 0.88621 0.61414 0.35241
 C152 C 0.89718 0.63564 0.36324
 C153 C 0.90140 0.66683 0.39065
 N154 N 0.92012 0.66903 0.37404
 C155 C 0.91764 0.64996 0.35721
 C156 C 0.89206 0.59982 0.33196
 N157 N 0.87512 0.58079 0.32961
 C158 C 0.85864 0.58297 0.34844
 C159 C 0.83471 0.60791 0.39823
 N160 N 0.83290 0.62479 0.41719
 C161 C 0.85187 0.64170 0.41517
 H162 H 0.89860 0.67908 0.40647
 H163 H 0.92960 0.64688 0.34150
 H164 H 0.90736 0.60328 0.31954
 H165 H 0.84317 0.57033 0.35174
 H166 H 0.82203 0.59235 0.39468
 H167 H 0.85556 0.65726 0.42777
 C168 C 0.61534 0.35376 -0.11709
 C169 C 0.63689 0.36418 -0.10677
 C170 C 0.64798 0.38513 -0.11740
 C171 C 0.63772 0.39592 -0.13856
 C172 C 0.61654 0.38559 -0.14878
 C173 C 0.60526 0.36437 -0.13797
 C174 C 0.60054 0.33353 -0.11063
 N175 N 0.58172 0.33157 -0.12709
 C176 C 0.58452 0.35041 -0.14388
 C177 C 0.61079 0.39987 -0.16907
 N178 N 0.62795 0.41867 -0.17143
 C179 C 0.64449 0.41634 -0.15278
 C180 C 0.66839 0.39120 -0.10346
 N181 N 0.67000 0.37443 -0.08461
 C182 C 0.65075 0.35783 -0.08655
 H183 H 0.60352 0.32098 -0.09524
 H184 H 0.57220 0.35400 -0.15911
 H185 H 0.59501 0.39697 -0.18099
 H186 H 0.66050 0.42840 -0.14989
 H187 H 0.68127 0.40654 -0.10702
 H188 H 0.64683 0.34247 -0.07398
 C189 C 0.01806 0.19927 0.13570
 C190 C 0.02237 0.22316 0.12535
 C191 C 0.04558 0.22885 0.11532
 C192 C 0.06442 0.21074 0.11563
 C193 C -0.04878 0.29104 0.12458
 C194 C 0.03688 0.18115 0.13606
 C195 C 0.00298 0.24181 0.12505
 C196 C -0.01330 0.25738 0.12485
 C197 C -0.03242 0.27556 0.12468
 C198 C 0.06030 0.18666 0.12603
 H199 H 0.00014 0.19464 0.14345
 H200 H 0.04914 0.24731 0.10732
 H201 H 0.08230 0.21572 0.10806
 H202 H 0.03298 0.16271 0.14388
 C203 C 0.46623 0.78275 0.60265
 C204 C 0.47720 0.77532 0.62473
 C205 C 0.46942 0.78624 0.64695
 C206 C 0.45075 0.80455 0.64711
 C207 C 0.54758 0.70658 0.62425
 C208 C 0.44754 0.80104 0.60276
 C209 C 0.49644 0.75650 0.62459
 C210 C 0.51256 0.74075 0.62448
 C211 C 0.53145 0.72231 0.62435
 C212 C 0.43958 0.81217 0.62500
 H213 H 0.47217 0.77447 0.58533
 H214 H 0.47773 0.78057 0.66416
 H215 H 0.44483 0.81246 0.66456
 H216 H 0.43960 0.80671 0.58541
 C217 C 0.95340 0.73084 0.38505
 C218 C 0.97665 0.72560 0.37493
 C219 C 0.98125 0.70173 0.36444
 C220 C 0.96269 0.68315 0.36408
 C221 C 1.04630 0.79566 0.37724
 C222 C 0.93482 0.71229 0.38474
 C223 C 0.99579 0.74468 0.37540
 C224 C 1.01176 0.76072 0.37589
 C225 C 1.03042 0.77954 0.37657
 C226 C 0.93925 0.68821 0.37427
 H227 H 0.94961 0.74928 0.39316
 H228 H 0.99922 0.69744 0.35661
 H229 H 0.96682 0.66473 0.35619
 H230 H 0.91691 0.71693 0.39241
 C231 C 0.53153 0.28711 -0.14842
 C232 C 0.52388 0.27642 -0.12615
 C233 C 0.53534 0.28386 -0.10419
 C234 C 0.55436 0.30193 -0.10448
 C235 C 0.45183 0.20895 -0.12535
 C236 C 0.55053 0.30519 -0.14875
 C237 C 0.50423 0.25790 -0.12584
 C238 C 0.48774 0.24242 -0.12563
 C239 C 0.46839 0.22435 -0.12545
 C240 C 0.56218 0.31284 -0.12677
 H241 H 0.52283 0.28143 -0.16554
 H242 H 0.52951 0.27577 -0.08684
 H243 H 0.56268 0.30763 -0.08722
 H244 H 0.55631 0.31293 -0.16624
 C245 C 0.14843 0.03320 0.21633
 C246 C 0.12633 0.02543 0.22747
 C247 C 0.10389 0.03599 0.21998
 C248 C 0.10353 0.05428 0.20146
 C249 C 0.12696 -0.04271 0.29784
 C250 C 0.14811 0.05147 0.19778
 C251 C 0.12665 0.00670 0.24664
 C252 C 0.12683 -0.00893 0.26274
 C253 C 0.12695 -0.02718 0.28165
 C254 C 0.12565 0.06226 0.19014
 H255 H 0.16592 0.02520 0.22204
 H256 H 0.08666 0.03006 0.22843
 H257 H 0.08591 0.06192 0.19579
 H258 H 0.16548 0.05743 0.18970
 C259 C 0.61865 0.45125 -0.23196
 C260 C 0.62929 0.47506 -0.22723
 C261 C 0.63954 0.48026 -0.20413
 C262 C 0.63915 0.46175 -0.18580
 C263 C 0.63020 0.54485 -0.29608
 C264 C 0.61822 0.43272 -0.21366
 C265 C 0.62961 0.49416 -0.24606
 C266 C 0.62984 0.51014 -0.26183
 C267 C 0.63005 0.52886 -0.28030
 C268 C 0.62846 0.43775 -0.19034
 H269 H 0.61072 0.44700 -0.24981
 H270 H 0.64776 0.49866 -0.20025
 H271 H 0.64688 0.46636 -0.16799
 H272 H 0.61016 0.41436 -0.21787
 C273 C 0.35073 0.96749 0.71418
 C274 C 0.37264 0.97539 0.72559
 C275 C 0.39518 0.96454 0.71854
 C276 C 0.39582 0.94589 0.70012
 C277 C 0.37004 1.04612 0.79436
 C278 C 0.35133 0.94886 0.69575
 C279 C 0.37200 0.99467 0.74448
 C280 C 0.37142 1.01085 0.76025
 C281 C 0.37070 1.02986 0.77867
 C282 C 0.37390 0.93783 0.68848
 H283 H 0.33318 0.97571 0.71955
 H284 H 0.41226 0.97058 0.72720
 H285 H 0.41351 0.93806 0.69475
 H286 H 0.33410 0.94285 0.68743
 C287 C 0.85186 0.53167 0.28478
 C288 C 0.87389 0.52405 0.27343
 C289 C 0.89632 0.53517 0.28055
 C290 C 0.89675 0.55384 0.29896
 C291 C 0.87174 0.45328 0.20467
 C292 C 0.85224 0.55031 0.30321
 C293 C 0.87345 0.50475 0.25455
 C294 C 0.87299 0.48856 0.23878
 C295 C 0.87236 0.46955 0.22036
 C296 C 0.87471 0.56162 0.31054
 H297 H 0.83438 0.52323 0.27936
 H298 H 0.91350 0.52936 0.27193
 H299 H 0.91437 0.56189 0.30438
 H300 H 0.83493 0.55610 0.31148
 C301 C 0.22865 0.11565 0.05162
 C302 C 0.22335 0.12514 0.02825
 C303 C 0.19976 0.13459 0.02323
 C304 C 0.18152 0.13456 0.04149
 C305 C 0.29155 0.12556 -0.04094
 C306 C 0.21043 0.11558 0.06991
 C307 C 0.24210 0.12520 0.00941
 C308 C 0.25775 0.12528 -0.00642
 C309 C 0.27601 0.12542 -0.02501
 C310 C 0.18663 0.12505 0.06507
 H311 H 0.24688 0.10835 0.05573
 H312 H 0.19544 0.14191 0.00517
 H313 H 0.16333 0.14165 0.03705
 H314 H 0.21508 0.10845 0.08793
 C315 C 0.78441 0.60195 0.46155
 C316 C 0.77760 0.62471 0.47310
 C317 C 0.78900 0.64750 0.46620
 C318 C 0.80716 0.64755 0.44786
 C319 C 0.70941 0.62475 0.54229
 C320 C 0.80255 0.60195 0.44318
 C321 C 0.75893 0.62469 0.49201
 C322 C 0.74331 0.62469 0.50786
 C323 C 0.72502 0.62471 0.52643
 C324 C 0.81416 0.62476 0.43612
 H325 H 0.77576 0.58418 0.46680
 H326 H 0.78381 0.66525 0.47497
 H327 H 0.81546 0.66546 0.44263
 H328 H 0.80773 0.58406 0.43478
 C329 C 0.71359 0.35142 -0.03595
 C330 C 0.72533 0.37409 -0.02900
 C331 C 0.71888 0.39686 -0.04042
 C332 C 0.70074 0.39699 -0.05871
 C333 C 0.79310 0.37356 0.04027
 C334 C 0.69543 0.35151 -0.05421
 C335 C 0.74394 0.37398 -0.01012
 C336 C 0.75949 0.37387 0.00573
 C337 C 0.77764 0.37371 0.02434
 C338 C 0.68878 0.37431 -0.06581
 H339 H 0.71849 0.33367 -0.02727
 H340 H 0.72780 0.41453 -0.03513
 H341 H 0.69583 0.41490 -0.06701
 H342 H 0.68685 0.33369 -0.05947
 C343 C 0.27283 0.88345 0.54903
 C344 C 0.27832 0.87366 0.52567
 C345 C 0.30191 0.86399 0.52078
 C346 C 0.31994 0.86411 0.53916
 C347 C 0.21004 0.87367 0.45688
 C348 C 0.29083 0.88360 0.56743
 C349 C 0.25975 0.87358 0.50674
 C350 C 0.24414 0.87356 0.49095
 C351 C 0.22579 0.87359 0.47254
 C352 C 0.31463 0.87394 0.56272
 H353 H 0.25460 0.89091 0.55304
 H354 H 0.30638 0.85644 0.50273
 H355 H 0.33814 0.85685 0.53483
 H356 H 0.28602 0.89097 0.58543
   
