data_POSCAR
  _audit_creation_date              2014-09-24
  _audit_creation_method            'ToBaCCo'
  _symmetry_space_group_name_H-M    'P1'
  _symmetry_Int_Tables_number       1
  _symmetry_cell_setting            triclinic
  loop_
  _symmetry_equiv_pos_as_xyz
 x,y,z
_cell_length_a 19.2467
_cell_length_b 19.3025
_cell_length_c 19.3025
_cell_angle_alpha 88.216500
_cell_angle_beta 87.975200
_cell_angle_gamma 89.105100
loop_
  _atom_site_label
  _atom_site_type_symbol
  _atom_site_fract_x
  _atom_site_fract_y
  _atom_site_fract_z
C1 C 0.37899 -0.00376 0.23093
 C2 C 0.11013 -0.00966 0.74458
 C3 C 0.61359 0.50778 0.24058
 C4 C 0.88644 0.49724 0.76216
 C5 C 0.25730 0.36387 0.98096
 C6 C 0.74492 0.14681 1.00093
 C7 C 0.25028 0.64591 0.50384
 C8 C 0.74540 0.86656 0.50458
 C9 C -0.00333 0.25762 0.37767
 C10 C 0.00300 0.75041 0.13000
 C11 C 0.50177 0.23919 0.61200
 C12 C 0.49561 0.74939 0.87116
 C13 C -0.24427 0.64441 0.99413
 C14 C -0.24263 0.36189 0.50296
 C15 C 0.24999 -0.13636 -0.01056
 C16 C 0.24315 1.15447 0.49899
 C17 C 0.10231 0.49693 0.25550
 C18 C -0.11294 1.00318 0.26607
 C19 C 0.39563 0.48398 -0.23557
 C20 C 0.60568 0.00376 -0.26438
 C21 C -0.00228 0.25806 0.88029
 C22 C 0.50965 0.24691 0.12565
 C23 C 0.00345 0.75019 0.62791
 C24 C 0.49568 0.75021 0.37251
 B25 B -0.03299 0.03830 1.07492
 B26 B -0.08082 0.03127 1.00492
 B27 B -0.01323 0.08643 1.00192
 B28 B 0.05096 0.05045 1.04985
 B29 B 0.02276 -0.02842 1.07896
 B30 B -0.05942 -0.03950 1.05026
 B31 B 0.02856 -0.03037 0.93828
 B32 B 0.07578 -0.02289 1.00977
 B33 B 0.00862 -0.07763 1.01115
 B34 B -0.05603 -0.04185 0.96329
 B35 B -0.02802 0.03714 0.93384
 B36 B 0.05535 0.04752 0.96228
 B37 B 0.47330 0.53129 0.57207
 B38 B 0.42310 0.52742 0.50239
 B39 B 0.49032 0.58269 0.49994
 B40 B 0.55677 0.54475 0.54430
 B41 B 0.53032 0.46441 0.57090
 B42 B 0.44634 0.45498 0.54450
 B43 B 0.53018 0.46931 0.43016
 B44 B 0.58036 0.47361 0.49905
 B45 B 0.51302 0.41830 0.50140
 B46 B 0.44663 0.45611 0.45737
 B47 B 0.47336 0.53601 0.43051
 B48 B 0.55700 0.54574 0.45732
 B49 B 0.51699 0.96330 0.55634
 B50 B 0.56374 0.96969 0.48068
 B51 B 0.49555 0.91609 0.48778
 B52 B 0.43193 0.95317 0.53851
 B53 B 0.46155 1.03152 0.56001
 B54 B 0.54477 1.03996 0.52416
 B55 B 0.45498 1.03247 0.41933
 B56 B 0.40809 1.02701 0.49451
 B57 B 0.47702 1.08070 0.48802
 B58 B 0.53969 1.04306 0.43713
 B59 B 0.50987 0.96489 0.41567
 B60 B 0.42746 0.95550 0.45160
 B61 B 0.04257 0.46853 1.06949
 B62 B 0.08683 0.47903 0.99397
 B63 B 0.01916 0.42396 0.99988
 B64 B -0.04243 0.45872 1.05474
 B65 B -0.01221 0.53618 1.07878
 B66 B 0.06848 0.54746 1.04183
 B67 B -0.02373 0.54363 0.93798
 B68 B -0.06816 0.53397 1.01510
 B69 B -0.00062 0.58818 1.00834
 B70 B 0.06149 0.55397 0.95457
 B71 B 0.03145 0.47643 0.92963
 B72 B -0.04985 0.46492 0.96837
 B73 B 0.02960 0.53702 0.44489
 B74 B 0.08507 0.52512 0.51054
 B75 B 0.01722 0.58100 0.51884
 B76 B -0.05208 0.54881 0.47972
 B77 B -0.02653 0.47164 0.44816
 B78 B 0.05969 0.45797 0.46668
 B79 B -0.01533 0.46182 0.58827
 B80 B -0.07108 0.47378 0.52359
 B81 B -0.00353 0.41745 0.51268
 B82 B 0.06576 0.44981 0.55368
 B83 B 0.04020 0.52809 0.58580
 B84 B -0.04542 0.54131 0.56707
 B85 B 0.52408 0.04115 -0.08077
 B86 B 0.57890 0.02807 -0.01533
 B87 B 0.51084 0.08368 -0.00494
 B88 B 0.44232 0.05159 -0.04708
 B89 B 0.46884 -0.02559 -0.08011
 B90 B 0.55467 -0.03872 -0.06084
 B91 B 0.47803 -0.03770 0.05961
 B92 B 0.42349 -0.02488 -0.00560
 B93 B 0.49158 -0.07993 -0.01503
 B94 B 0.56000 -0.04822 0.02632
 B95 B 0.53321 0.02832 0.05976
 B96 B 0.44745 0.04210 0.03984
 B97 B 0.48865 0.46486 -0.06270
 B98 B 0.43124 0.47160 0.00512
 B99 B 0.50232 0.42058 0.01205
 B100 B 0.56975 0.45815 -0.03274
 B101 B 0.53909 0.53464 -0.06710
 B102 B 0.45171 0.54137 -0.04406
 B103 B 0.52518 0.54107 0.07281
 B104 B 0.58239 0.53363 0.00635
 B105 B 0.51110 0.58508 -0.00238
 B106 B 0.44424 0.54734 0.04328
 B107 B 0.47531 0.47083 0.07727
 B108 B 0.56134 0.46332 0.05453
 B109 B -0.01891 0.96712 0.43336
 B110 B -0.07674 0.97468 0.49963
 B111 B -0.00712 0.92070 0.50748
 B112 B 0.06189 0.95734 0.46364
 B113 B 0.03415 1.03564 0.43120
 B114 B -0.05231 1.04506 0.45376
 B115 B 0.01940 1.03806 0.57238
 B116 B 0.07704 1.03158 0.50459
 B117 B 0.00763 1.08536 0.49767
 B118 B -0.06147 1.04861 0.54116
 B119 B -0.03419 0.97016 0.57320
 B120 B 0.05295 0.96095 0.55074
 B121 B 0.78804 0.22945 0.18155
 B122 B 0.77882 0.17821 0.25289
 B123 B 0.83398 0.24540 0.25321
 B124 B 0.79863 0.31218 0.20584
 B125 B 0.72036 0.28582 0.18000
 B126 B 0.70977 0.20150 0.20935
 B127 B 0.71472 0.28214 0.32085
 B128 B 0.72364 0.33337 0.24957
 B129 B 0.66868 0.26611 0.24964
 B130 B 0.70402 0.19943 0.29656
 B131 B 0.78209 0.22577 0.32245
 B132 B 0.79299 0.31021 0.29287
 B133 B 0.71069 0.76792 0.67487
 B134 B 0.71972 0.82664 0.73619
 B135 B 0.66568 0.75931 0.75135
 B136 B 0.70049 0.68869 0.71299
 B137 B 0.77861 0.71237 0.67596
 B138 B 0.78938 0.79871 0.69066
 B139 B 0.78489 0.73040 0.81501
 B140 B 0.77498 0.67158 0.75336
 B141 B 0.82951 0.73833 0.73917
 B142 B 0.79471 0.80972 0.77698
 B143 B 0.71680 0.78588 0.81405
 B144 B 0.70660 0.69947 0.79968
 B145 B 0.28850 0.26520 0.81405
 B146 B 0.27813 0.31599 0.74218
 B147 B 0.33216 0.24549 0.73903
 B148 B 0.29677 0.18183 0.79139
 B149 B 0.21985 0.21402 0.82412
 B150 B 0.20980 0.29757 0.79391
 B151 B 0.21032 0.21255 0.68464
 B152 B 0.22023 0.16294 0.75696
 B153 B 0.16725 0.23336 0.75893
 B154 B 0.20241 0.29646 0.70667
 B155 B 0.27956 0.26483 0.67400
 B156 B 0.28927 0.18048 0.70416
 B157 B 0.21608 0.70628 0.31541
 B158 B 0.22439 0.66470 0.24096
 B159 B 0.16845 0.73311 0.24720
 B160 B 0.20338 0.79185 0.29901
 B161 B 0.28246 0.76024 0.32096
 B162 B 0.29488 0.68113 0.28546
 B163 B 0.28489 0.77785 0.18007
 B164 B 0.27664 0.81876 0.25631
 B165 B 0.33283 0.75163 0.24944
 B166 B 0.29823 0.69170 0.19807
 B167 B 0.21871 0.72288 0.17540
 B168 B 0.20684 0.80330 0.21213
 B169 B 0.28594 0.71180 0.68669
 B170 B 0.27619 0.65636 0.75500
 B171 B 0.32983 0.72451 0.75933
 B172 B 0.29466 0.79308 0.71513
 B173 B 0.21754 0.76701 0.68614
 B174 B 0.20739 0.68142 0.71051
 B175 B 0.20990 0.75672 0.82733
 B176 B 0.21906 0.81155 0.75844
 B177 B 0.16519 0.74413 0.75397
 B178 B 0.20027 0.67513 0.79837
 B179 B 0.27790 0.70111 0.82770
 B180 B 0.28789 0.78663 0.80244
 B181 B 0.21641 0.28539 0.17525
 B182 B 0.22553 0.33190 0.24669
 B183 B 0.16727 0.26695 0.24927
 B184 B 0.20062 0.20183 0.20033
 B185 B 0.28109 0.22642 0.17041
 B186 B 0.29531 0.30815 0.20008
 B187 B 0.28307 0.22020 0.31088
 B188 B 0.27310 0.17404 0.24007
 B189 B 0.33120 0.23871 0.23831
 B190 B 0.29798 0.30397 0.28717
 B191 B 0.21779 0.27913 0.31665
 B192 B 0.20405 0.19760 0.28795
 B193 B 0.78269 0.78669 0.31722
 B194 B 0.77948 0.83088 0.24092
 B195 B 0.83270 0.76110 0.24828
 B196 B 0.79349 0.70136 0.30166
 B197 B 0.71430 0.73472 0.32441
 B198 B 0.70620 0.81617 0.28649
 B199 B 0.71848 0.72277 0.18384
 B200 B 0.72160 0.67875 0.26075
 B201 B 0.66814 0.74798 0.25308
 B202 B 0.70743 0.80816 0.19963
 B203 B 0.78682 0.77500 0.17703
 B204 B 0.79438 0.69324 0.21467
 B205 B 0.70755 0.22566 0.81853
 B206 B 0.72351 0.16995 0.75441
 B207 B 0.66671 0.23662 0.74182
 B208 B 0.69618 0.30629 0.78365
 B209 B 0.77298 0.28219 0.81861
 B210 B 0.78869 0.19626 0.80078
 B211 B 0.78982 0.27090 0.67983
 B212 B 0.77335 0.32616 0.74359
 B213 B 0.83032 0.25910 0.75589
 B214 B 0.80080 0.18969 0.71418
 B215 B 0.72443 0.21424 0.67881
 B216 B 0.70828 0.29980 0.69724
 C217 C 0.40706 0.99533 0.30336
 C218 C 0.42356 1.04928 0.34424
 H219 H 0.42165 0.94302 0.31939
 H220 H 0.41777 1.10251 0.32631
 C221 C -0.09802 0.51597 0.83625
 C222 C -0.05223 0.56124 0.86139
 H223 H -0.13194 0.48950 0.87418
 H224 H -0.02094 0.59343 0.82579
 C225 C 0.07561 -0.00298 0.81573
 C226 C 0.06015 -0.05321 0.86456
 H227 H 0.05886 0.05000 0.82503
 H228 H 0.06963 -0.10733 0.85455
 C229 C 0.58204 0.50762 0.31275
 C230 C 0.56253 0.45290 0.35501
 H231 H 0.56692 0.55985 0.32674
 H232 H 0.56954 0.39992 0.33906
 C233 C 0.55133 0.52236 0.19715
 C234 C 0.54827 0.56909 0.14374
 H235 H 0.51292 0.48156 0.20220
 H236 H 0.58134 0.61344 0.14102
 C237 C 0.05075 1.00381 0.69594
 C238 C 0.04379 1.05678 0.64792
 H239 H 0.01688 0.95944 0.69402
 H240 H 0.06774 1.10589 0.65476
 C241 C -0.04744 0.48556 0.71715
 C242 C -0.04272 0.43881 0.66478
 H243 H -0.01299 0.52964 0.71476
 H244 H -0.07486 0.39381 0.66737
 C245 C 0.44288 -0.01750 0.18469
 C246 C 0.44847 -0.06424 0.13329
 H247 H 0.48086 0.02354 0.18577
 H248 H 0.41493 -0.10833 0.13353
 C249 C 0.31704 0.41521 -0.03383
 C250 C 0.35637 0.43923 0.01600
 H251 H 0.33051 0.42913 -0.08737
 H252 H 0.34002 0.43101 0.06996
 C253 C -0.18470 0.89666 0.52350
 C254 C -0.15473 0.95027 0.48883
 H255 H -0.15645 0.87188 0.56545
 H256 H -0.18291 0.97611 0.44742
 C257 C -0.18854 0.10798 0.97816
 C258 C -0.16008 0.05593 1.01518
 H259 H -0.15884 0.12798 0.93340
 H260 H -0.18869 0.03583 1.06085
 C261 C 0.31513 0.60647 0.47689
 C262 C 0.34365 0.55215 0.51171
 H263 H 0.34522 0.63069 0.43457
 H264 H 0.31466 0.52923 0.55575
 C265 C 0.19170 0.60047 0.53482
 C266 C 0.16412 0.54834 0.50040
 H267 H 0.16178 0.62076 0.57833
 H268 H 0.19366 0.52562 0.45772
 C269 C 0.68246 0.10039 0.01856
 C270 C 0.65691 0.05450 -0.02435
 H271 H 0.65111 0.11211 0.06488
 H272 H 0.68629 0.04178 -0.07120
 C273 C 0.68542 0.91975 0.51621
 C274 C 0.64083 0.94104 0.46687
 H275 H 0.67392 0.93446 0.56891
 H276 H 0.65368 0.93297 0.41257
 C277 C 0.18852 0.39761 0.96234
 C278 C 0.16572 0.45562 0.99185
 H279 H 0.15391 0.37044 0.92962
 H280 H 0.20027 0.48275 1.02478
 C281 C 0.01477 0.31936 0.42169
 C282 C -0.01229 0.33825 0.48611
 H283 H 0.04757 0.35506 0.39224
 H284 H -0.04800 0.30433 0.51489
 C285 C 0.51552 -0.18606 -0.09095
 C286 C 0.48294 -0.16011 -0.03312
 H287 H 0.55410 -0.15498 -0.11874
 H288 H 0.44292 -0.18976 -0.00540
 C289 C -0.01997 -0.18752 1.08535
 C290 C 0.01879 -0.15814 1.03173
 H291 H -0.06680 -0.16134 1.10427
 H292 H 0.06644 -0.18363 1.01382
 C293 C 0.48193 0.30593 0.57286
 C294 C 0.52063 0.33655 0.51935
 H295 H 0.43741 0.33310 0.59541
 H296 H 0.56573 0.30938 0.49786
 C297 C 0.51816 1.18467 0.55780
 C298 C 0.47349 1.16134 0.50963
 H299 H 0.56758 1.15824 0.56500
 H300 H 0.42559 1.18996 0.50069
 C301 C 0.02681 0.69257 1.08230
 C302 C -0.01071 0.66752 1.02980
 H303 H 0.07354 0.66524 1.09797
 H304 H -0.05806 0.69429 1.01457
 C305 C 0.47418 0.69195 -0.07653
 C306 C 0.51468 0.66597 -0.02478
 H307 H 0.42757 0.66471 -0.08889
 H308 H 0.56036 0.69409 -0.01132
 C309 C -0.02499 1.19605 0.42512
 C310 C 0.01377 1.16688 0.47699
 H311 H -0.07086 1.16972 0.40941
 H312 H 0.05912 1.19372 0.49349
 C313 C 0.76839 0.70560 0.94380
 C314 C 0.81337 0.70595 0.88787
 H315 H 0.72661 0.74420 0.94532
 H316 H 0.85836 0.67175 0.88586
 C317 C 0.27176 0.20238 0.44065
 C318 C 0.30184 0.18084 0.38109
 H319 H 0.25722 0.25697 0.44231
 H320 H 0.31441 0.12666 0.37734
 C321 C 0.74958 0.32141 0.43856
 C322 C 0.69590 0.31451 0.39504
 H323 H 0.79868 0.29473 0.42760
 H324 H 0.64564 0.33817 0.40536
 C325 C 0.24007 0.79905 0.94713
 C326 C 0.18859 0.78791 0.90136
 H327 H 0.28575 0.76518 0.94618
 H328 H 0.14034 0.81692 0.90439
 C329 C 0.24790 0.83740 0.06459
 C330 C 0.30159 0.81295 0.10418
 H331 H 0.19496 0.83018 0.08360
 H332 H 0.35423 0.81146 0.08280
 C333 C 0.77074 0.30384 0.55536
 C334 C 0.81717 0.30072 0.60650
 H335 H 0.72878 0.26664 0.55695
 H336 H 0.86170 0.33340 0.60472
 C337 C 0.21521 0.20340 0.55452
 C338 C 0.18490 0.18220 0.61505
 H339 H 0.23312 0.25658 0.55133
 H340 H 0.16746 0.13056 0.61853
 C341 C 0.75665 0.67438 0.06569
 C342 C 0.70228 0.69232 0.10942
 H343 H 0.80915 0.68624 0.07947
 H344 H 0.64936 0.68980 0.09298
 C345 C 0.13680 0.56395 0.22772
 C346 C 0.20042 0.58510 0.24412
 H347 H 0.10411 0.59916 0.19838
 H348 H 0.23338 0.54962 0.27333
 C349 C 0.65519 0.06439 0.71970
 C350 C 0.69741 0.09196 0.76486
 H351 H 0.64962 0.09280 0.67053
 H352 H 0.70535 0.06548 0.81423
 C353 C 0.85485 0.07274 0.28365
 C354 C 0.80286 0.10030 0.24745
 H355 H 0.87712 0.10272 0.32380
 H356 H 0.78070 0.07037 0.20707
 C357 C 0.35051 0.54691 0.78520
 C358 C 0.30421 0.57862 0.74420
 H359 H 0.36102 0.57126 0.83374
 H360 H 0.29202 0.55479 0.69600
 C361 C 0.35763 0.41498 0.77069
 C362 C 0.30228 0.39535 0.73646
 H363 H 0.38671 0.37238 0.79095
 H364 H 0.27341 0.43262 0.70516
 C365 C 0.83250 0.94638 0.27722
 C366 C 0.81150 0.90519 0.22686
 H367 H 0.81370 0.93661 0.32996
 H368 H 0.82468 0.91737 0.17281
 C369 C 0.64201 0.93546 0.75691
 C370 C 0.69402 0.90487 0.72059
 H371 H 0.62083 0.90708 0.80195
 H372 H 0.71738 0.93241 0.67611
 C373 C 0.15050 0.43801 0.28075
 C374 C 0.20353 0.41183 0.24234
 H375 H 0.13155 0.40614 0.32444
 H376 H 0.22485 0.44216 0.19854
 C377 C 0.05718 0.27469 0.82783
 C378 C 0.08617 0.22875 0.78227
 H379 H 0.08248 0.32380 0.83435
 H380 H 0.06072 0.17976 0.77545
 C381 C 0.55702 0.77549 0.32658
 C382 C 0.58677 0.74001 0.27246
 H383 H 0.58403 0.81917 0.34646
 H384 H 0.56128 0.69477 0.25383
 C385 C 0.56420 0.22849 0.17901
 C386 C 0.58821 0.27172 0.22788
 H387 H 0.59001 0.17896 0.17077
 H388 H 0.56013 0.31966 0.23786
 C389 C 0.06273 0.72479 0.67335
 C390 C 0.08504 0.75418 0.73248
 H391 H 0.09395 0.68446 0.64992
 H392 H 0.05438 0.79505 0.75661
 C393 C 0.94260 0.77241 0.67455
 C394 C 0.91034 0.72891 0.72177
 H395 H 0.91958 0.82287 0.66248
 H396 H 0.93373 0.67867 0.73383
 C397 C 0.44302 0.26730 0.16514
 C398 C 0.41241 0.22908 0.21855
 H399 H 0.41561 0.31156 0.14291
 H400 H 0.43966 0.18436 0.24006
 C401 C 0.43880 0.72537 0.32605
 C402 C 0.41256 0.76169 0.27016
 H403 H 0.41247 0.67934 0.34571
 H404 H 0.43806 0.80862 0.25102
 C405 C 0.93092 0.24248 0.84280
 C406 C 0.91081 0.26578 0.77821
 H407 H 0.89277 0.21760 0.87701
 H408 H 0.94662 0.29438 0.74397
 C409 C 0.56325 0.99889 0.67183
 C410 C 0.55013 0.94502 0.63043
 H411 H 0.54135 1.04973 0.65917
 H412 H 0.56473 0.89277 0.64531
 C413 C 0.05679 0.46915 1.19948
 C414 C 0.08101 0.44592 1.13786
 H415 H 0.00135 0.48101 1.20448
 H416 H 0.13585 0.43665 1.13038
 C417 C -0.08069 0.00284 1.19451
 C418 C -0.06500 0.05670 1.14963
 H419 H -0.06428 -0.04955 1.18230
 H420 H -0.07327 0.10993 1.16403
 C421 C 0.42727 0.48875 0.69188
 C422 C 0.44314 0.54506 0.64974
 H423 H 0.44264 0.43747 0.67505
 H424 H 0.43576 0.59729 0.66772
 C425 C 0.45711 0.48253 -0.18801
 C426 C 0.46823 0.43687 -0.13386
 H427 H 0.48434 0.53157 -0.18973
 H428 H 0.44970 0.38495 -0.12954
 C429 C -0.05095 0.99078 0.31075
 C430 C -0.04499 0.94193 0.36198
 H431 H -0.01467 1.03357 0.30766
 H432 H -0.07670 0.89647 0.36351
 C433 C 0.05147 0.51176 0.31595
 C434 C 0.05630 0.55865 0.36704
 H435 H 0.01583 0.46912 0.32447
 H436 H 0.08781 0.60365 0.35882
 C437 C 0.55027 0.01833 -0.20854
 C438 C 0.55141 0.06487 -0.15723
 H439 H 0.51269 -0.02314 -0.20447
 H440 H 0.58350 0.10921 -0.16386
 C441 C 0.68562 0.61447 -0.02161
 C442 C 0.65862 0.56083 0.01505
 H443 H 0.65605 0.63778 -0.06335
 H444 H 0.68873 0.53654 0.05596
 C445 C 0.18197 1.11263 0.47421
 C446 C 0.15466 1.05829 0.51110
 H447 H 0.15260 1.13522 0.43213
 H448 H 0.18362 1.03526 0.55341
 C449 C 0.19248 -0.08266 0.97373
 C450 C 0.15189 -0.05230 1.02235
 H451 H 0.18107 -0.07276 0.91986
 H452 H 0.16605 -0.05622 1.07626
 C453 C 0.69029 0.39971 0.52599
 C454 C 0.65978 0.44972 0.48761
 H455 H 0.66171 0.37991 0.57173
 H456 H 0.68714 0.46914 0.44093
 C457 C -0.17973 0.40900 0.48804
 C458 C -0.14943 0.44765 0.53481
 H459 H -0.15267 0.40463 0.43785
 H460 H -0.17464 0.45379 0.58536
 C461 C 0.31995 -0.10404 -0.03057
 C462 C 0.34560 -0.05110 0.00412
 H463 H 0.35094 -0.12599 -0.07277
 H464 H 0.31395 -0.02846 0.04551
 C465 C 0.30418 1.11042 0.52610
 C466 C 0.32918 1.05410 0.49322
 H467 H 0.33616 1.13341 0.56399
 H468 H 0.29794 1.03173 0.45408
 C469 C -0.18775 0.58833 0.98392
 C470 C -0.14358 0.56516 1.03241
 H471 H -0.17988 0.57155 0.93184
 H472 H -0.15359 0.57678 1.08648
 C473 C -0.01822 0.69166 0.58250
 C474 C 0.02463 0.66144 0.53399
 H475 H -0.06764 0.66809 0.59693
 H476 H 0.07320 0.68603 0.51829
 C477 C 0.49593 0.18199 0.08451
 C478 C 0.51798 0.16393 0.01861
 H479 H 0.47106 0.14312 0.11771
 H480 H 0.54621 0.20041 -0.01513
 C481 C 0.01804 0.19587 0.92675
 C482 C -0.02169 0.16765 0.98052
 H483 H 0.06519 0.16909 0.90977
 H484 H -0.06850 0.19472 0.99807
 C485 C 0.51939 0.69102 0.42095
 C486 C 0.48193 0.66377 0.47744
 H487 H 0.56584 0.66451 0.40175
 H488 H 0.43552 0.69076 0.49630
 C489 C 0.46862 0.80897 0.41721
 C490 C 0.50459 0.83598 0.47002
 H491 H 0.42318 0.83602 0.39775
 H492 H 0.55117 0.80960 0.48788
 C493 C -0.01662 0.32068 0.92534
 C494 C 0.02326 0.34337 0.97777
 H495 H -0.05763 0.35390 0.90552
 H496 H 0.06544 0.31089 0.99650
 C497 C 0.53479 0.30727 0.07840
 C498 C 0.49541 0.33909 0.02924
 H499 H 0.58223 0.33188 0.09288
 H500 H 0.44778 0.31482 0.01460
 C501 C 0.02640 0.81074 0.58034
 C502 C -0.01272 0.83962 0.52850
 H503 H 0.07256 0.83659 0.59597
 H504 H -0.05853 0.81300 0.51280
 C505 C 0.25594 0.33437 0.05474
 C506 C 0.20085 0.31883 0.09945
 H507 H 0.30799 0.31833 0.06855
 H508 H 0.14774 0.32737 0.08437
 C509 C 0.73399 0.80144 0.54946
 C510 C 0.68492 0.79304 0.60107
 H511 H 0.77854 0.76598 0.54826
 H512 H 0.63721 0.82248 0.60006
 C513 C 0.27148 0.69752 0.55754
 C514 C 0.31061 0.68285 0.61318
 H515 H 0.24002 0.74464 0.55870
 H516 H 0.34213 0.63656 0.61394
 C517 C 0.75364 0.19071 0.06309
 C518 C 0.80685 0.19669 0.10727
 H519 H 0.70542 0.21936 0.07281
 H520 H 0.85616 0.17101 0.09763
 C521 C 0.73003 0.20125 0.94542
 C522 C 0.68313 0.19939 0.89466
 H523 H 0.77142 0.23893 0.94135
 H524 H 0.63910 0.16676 0.90140
 C525 C 0.21929 0.69046 0.44548
 C526 C 0.19890 0.66523 0.38550
 H527 H 0.22357 0.74654 0.44762
 H528 H 0.19796 0.60984 0.38076
 C529 C 0.74607 0.83951 0.43224
 C530 C 0.80028 0.81769 0.39074
 H531 H 0.69376 0.82782 0.41799
 H532 H 0.85305 0.81797 0.40808
 C533 C 0.26686 0.30048 0.93791
 C534 C 0.31447 0.29210 0.88532
 H535 H 0.22198 0.26692 0.94251
 H536 H 0.36367 0.31699 0.88626
 C537 C 0.84893 0.42810 0.77119
 C538 C 0.79653 0.40517 0.73482
 H539 H 0.87233 0.39187 0.80798
 H540 H 0.77213 0.43880 0.69645
 C541 C 0.32437 0.94025 0.22154
 C542 C 0.30468 0.89338 0.27122
 H543 H 0.30705 0.93374 0.16934
 H544 H 0.31641 0.90106 0.32491
 C545 C 0.13938 0.91766 0.73167
 C546 C 0.19323 0.88987 0.76573
 H547 H 0.11525 0.88675 0.69354
 H548 H 0.21902 0.92098 0.80273
 C549 C 0.64490 0.43814 0.22190
 C550 C 0.69876 0.41101 0.25578
 H551 H 0.62142 0.40845 0.18232
 H552 H 0.72222 0.44112 0.29526
 C553 C 0.66889 0.56333 0.22807
 C554 C 0.69023 0.60503 0.27722
 H555 H 0.68758 0.57238 0.17506
 H556 H 0.67733 0.59393 0.33153
 C557 C 0.16833 0.04277 0.73010
 C558 C 0.18622 0.09016 0.77557
 H559 H 0.19334 0.04300 0.67910
 H560 H 0.16801 0.08477 0.82922
 C561 C 0.34893 0.06702 0.21063
 C562 C 0.29331 0.09408 0.24406
 H563 H 0.37649 0.09903 0.17208
 H564 H 0.26537 0.06202 0.28270
 C565 C 0.84478 0.55770 0.73033
 C566 C 0.79710 0.59316 0.76823
 H567 H 0.86280 0.58036 0.68087
 H568 H 0.77797 0.57056 0.81732
 C569 C 0.94304 0.72694 0.17782
 C570 C 0.91392 0.76646 0.22928
 H571 H 0.91714 0.68089 0.16182
 H572 H 0.93968 0.81319 0.24393
 C573 C 0.44119 0.21508 0.66063
 C574 C 0.41349 0.25201 0.71448
 H575 H 0.41343 0.17049 0.64412
 H576 H 0.44213 0.29621 0.73032
 C577 C 0.43661 0.76595 0.82288
 C578 C 0.41001 0.71956 0.77875
 H579 H 0.41157 0.81610 0.82980
 H580 H 0.43649 0.67013 0.77167
 C581 C 0.93738 0.27779 0.33011
 C582 C 0.91410 0.23915 0.27666
 H583 H 0.90799 0.32274 0.34729
 H584 H 0.94404 0.19410 0.26035
 C585 C 0.05955 0.23804 0.33116
 C586 C 0.08652 0.27639 0.27508
 H587 H 0.08732 0.19263 0.34998
 H588 H 0.05850 0.32203 0.25641
 C589 C 0.55682 0.72627 0.82554
 C590 C 0.58492 0.76597 0.77188
 H591 H 0.58258 0.67881 0.84275
 H592 H 0.55769 0.81248 0.75420
 C593 C 0.56813 0.25164 0.65197
 C594 C 0.58675 0.22831 0.71720
 H595 H 0.60684 0.27768 0.61906
 H596 H 0.55044 0.19921 0.75043
 C597 C 0.06276 0.77003 0.17455
 C598 C 0.08747 0.73088 0.22940
 H599 H 0.09300 0.81236 0.15208
 H600 H 0.05641 0.68939 0.25268
   
