data_POSCAR
  _audit_creation_date              2014-09-24
  _audit_creation_method            'ToBaCCo'
  _symmetry_space_group_name_H-M    'P1'
  _symmetry_Int_Tables_number       1
  _symmetry_cell_setting            triclinic
  loop_
  _symmetry_equiv_pos_as_xyz
 x,y,z
_cell_length_a 48.0106
_cell_length_b 47.5328
_cell_length_c 48.2151
_cell_angle_alpha 89.021600
_cell_angle_beta 88.615700
_cell_angle_gamma 89.175900
loop_
  _atom_site_label
  _atom_site_type_symbol
  _atom_site_fract_x
  _atom_site_fract_y
  _atom_site_fract_z
C1 C 0.17592 1.21495 0.20415
 C2 C 0.16571 1.23861 0.18963
 C3 C 0.17761 1.24714 0.16376
 C4 C 0.20048 1.23131 0.15305
 C5 C 0.21108 1.20781 0.16754
 C6 C 0.19877 1.19961 0.19319
 C7 C 0.16320 1.20620 0.22929
 C8 C 0.17293 1.18215 0.24401
 C9 C 0.19639 1.16747 0.23295
 C10 C 0.20912 1.17588 0.20772
 C11 C 0.23171 1.16046 0.19650
 C12 C 0.24403 1.16832 0.17082
 C13 C 0.23365 1.19216 0.15656
 H14 H 0.14743 1.24934 0.19805
 H15 H 0.21091 1.23765 0.13385
 H16 H 0.14614 1.21884 0.23762
 H17 H 0.20400 1.14840 0.24295
 H18 H 0.23976 1.14231 0.20780
 H19 H 0.24269 1.19814 0.13654
 C20 C 0.82520 0.78269 0.22597
 C21 C 0.83786 0.75878 0.21418
 C22 C 0.82694 0.74621 0.19046
 C23 C 0.80234 0.75802 0.17930
 C24 C 0.78963 0.78205 0.19077
 C25 C 0.80120 0.79455 0.21406
 C26 C 0.83660 0.79516 0.24922
 C27 C 0.82484 0.82001 0.26056
 C28 C 0.80081 0.83168 0.24817
 C29 C 0.78894 0.81910 0.22524
 C30 C 0.76512 0.83095 0.21312
 C31 C 0.75348 0.81870 0.18980
 C32 C 0.76584 0.79416 0.17883
 H33 H 0.85588 0.74966 0.22418
 H34 H 0.79372 0.74970 0.16065
 H35 H 0.85563 0.78618 0.25738
 H36 H 0.79053 0.85006 0.25683
 H37 H 0.75602 0.85013 0.22143
 H38 H 0.75686 0.78445 0.16101
 C39 C 0.82227 1.21748 -0.21033
 C40 C 0.83183 1.24151 -0.19720
 C41 C 0.81965 1.25035 -0.17194
 C42 C 0.79723 1.23519 -0.16018
 C43 C 0.78739 1.21120 -0.17310
 C44 C 0.80003 1.20223 -0.19823
 C45 C 0.83496 1.20826 -0.23513
 C46 C 0.82607 1.18364 -0.24824
 C47 C 0.80357 1.16876 -0.23577
 C48 C 0.79068 1.17780 -0.21101
 C49 C 0.76893 1.16235 -0.19850
 C50 C 0.75629 1.17110 -0.17344
 C51 C 0.76551 1.19570 -0.16099
 H52 H 0.84937 1.25285 -0.20620
 H53 H 0.78749 1.24205 -0.14089
 H54 H 0.85129 1.22102 -0.24443
 H55 H 0.79676 1.14919 -0.24432
 H56 H 0.76175 1.14350 -0.20829
 H57 H 0.75615 1.20233 -0.14143
 C58 C 0.17786 0.79859 -0.20977
 C59 C 0.16637 0.77467 -0.19676
 C60 C 0.17923 0.76143 -0.17379
 C61 C 0.20432 0.77285 -0.16442
 C62 C 0.21591 0.79689 -0.17713
 C63 C 0.20268 0.80978 -0.19990
 C64 C 0.16460 0.81175 -0.23227
 C65 C 0.17574 0.83612 -0.24494
 C66 C 0.20065 0.84700 -0.23508
 C67 C 0.21405 0.83413 -0.21258
 C68 C 0.23837 0.84559 -0.20222
 C69 C 0.25139 0.83325 -0.17911
 C70 C 0.24017 0.80870 -0.16688
 H71 H 0.14778 0.76601 -0.20534
 H72 H 0.21430 0.76412 -0.14625
 H73 H 0.14517 0.80347 -0.23941
 H74 H 0.20958 0.86559 -0.24488
 H75 H 0.24709 0.86426 -0.21207
 H76 H 0.24987 0.79924 -0.14885
 C77 C 0.54759 1.02550 -0.00630
 H78 H 0.54840 1.02398 0.01608
 C79 C 0.56670 1.04214 -0.02110
 H80 H 0.58200 1.05369 -0.00992
 C81 C 0.52667 1.01207 -0.04800
 H82 H 0.51142 0.99988 -0.05844
 C83 C 0.54528 1.02863 -0.06362
 H84 H 0.54414 1.02904 -0.08602
 N85 N 0.52804 1.01097 -0.01985
 C86 C 0.46029 0.99636 0.04015
 H87 H 0.45941 0.97364 0.03990
 C88 C 0.44065 1.01166 0.05575
 H89 H 0.42487 1.00051 0.06783
 C90 C 0.48174 1.03846 0.02429
 H91 H 0.49735 1.04886 0.01147
 C92 C 0.46258 1.05457 0.03969
 H93 H 0.46368 1.07730 0.03855
 Zn94 Zn 0.50430 0.98773 0.00213
 N95 N 0.48028 1.00989 0.02481
 C96 C 0.52577 0.96425 0.05215
 N97 N 0.52750 0.96424 0.02395
 C98 C 0.54726 0.94869 0.01028
 C99 C 0.56623 0.93210 0.02500
 C100 C 0.54439 0.94799 0.06772
 C101 C 0.46224 0.97993 -0.03589
 C102 C 0.44378 0.96509 -0.05189
 C103 C 0.46497 0.92168 -0.03554
 C104 C 0.48306 0.93737 -0.01986
 N105 N 0.48147 0.96597 -0.02042
 H106 H 0.51027 0.97717 0.06264
 H107 H 0.54850 0.94952 -0.01216
 H108 H 0.58214 0.92032 0.01370
 H109 H 0.54268 0.94818 0.09015
 H110 H 0.46105 1.00267 -0.03549
 H111 H 0.42831 0.97661 -0.06367
 H112 H 0.46666 0.89894 -0.03497
 H113 H 0.49806 0.92661 -0.00698
 C114 C 0.44153 1.04118 0.05550
 C115 C 0.56572 1.04381 -0.05015
 C116 C 0.44492 0.93554 -0.05177
 C117 C 0.56504 0.93171 0.05414
 C118 C -0.02950 0.52041 1.04376
 H119 H -0.01779 0.50337 1.05319
 C120 C -0.04603 0.53796 1.06051
 H121 H -0.04723 0.53377 1.08264
 C122 C -0.04214 0.54653 1.00360
 H123 H -0.04018 0.54988 0.98139
 C124 C -0.05873 0.56472 1.01957
 H125 H -0.06927 0.58220 1.00943
 N126 N -0.02795 0.52490 1.01584
 C127 C 0.04559 0.48054 1.01622
 H128 H 0.05591 0.49747 1.00506
 C129 C 0.06127 0.46153 1.03210
 H130 H 0.08353 0.46439 1.03335
 C131 C 0.00412 0.45631 1.02824
 H132 H -0.01817 0.45431 1.02636
 C133 C 0.01897 0.43681 1.04425
 H134 H 0.00790 0.41968 1.05443
 Zn135 Zn -0.00439 0.50248 0.99290
 N136 N 0.01751 0.47774 1.01480
 C137 C 0.03214 0.54738 0.98516
 N138 N 0.01840 0.52720 0.97152
 C139 C 0.01947 0.52601 0.94336
 C140 C 0.03487 0.54564 0.92778
 C141 C 0.04764 0.56754 0.97040
 C142 C -0.05404 0.48264 0.96941
 C143 C -0.06962 0.46488 0.95321
 C144 C -0.02683 0.44205 0.93784
 C145 C -0.01208 0.46026 0.95429
 N146 N -0.02579 0.48008 0.96960
 H147 H 0.03053 0.54815 1.00756
 H148 H 0.00808 0.51011 0.93284
 H149 H 0.03557 0.54418 0.90539
 H150 H 0.05774 0.58387 0.98168
 H151 H -0.06460 0.49823 0.98204
 H152 H -0.09207 0.46738 0.95319
 H153 H -0.01553 0.42604 0.92628
 H154 H 0.01036 0.45837 0.95522
 C155 C 0.04795 0.43929 1.04641
 C156 C -0.06080 0.56063 1.04849
 C157 C -0.05603 0.44413 0.93725
 C158 C 0.04901 0.56697 0.94127
 C159 C 1.03325 -0.00542 0.54253
 H160 H 1.03232 0.01729 0.54368
 C161 C 1.04804 -0.02105 0.56213
 H162 H 1.05882 -0.01018 0.57816
 C163 C 1.02003 -0.04707 0.52024
 H164 H 1.00862 -0.05710 0.50418
 C165 C 1.03472 -0.06356 0.53939
 H166 H 1.03447 -0.08626 0.53791
 N167 N 1.01961 -0.01855 0.52215
 C168 C 1.00990 0.04501 0.45684
 H169 H 0.98745 0.04590 0.45550
 C170 C 1.02638 0.06104 0.43850
 H171 H 1.01643 0.07423 0.42299
 C172 C 1.05012 0.02557 0.47784
 H173 H 1.05930 0.01133 0.49284
 C174 C 1.06738 0.04111 0.45979
 H175 H 1.08977 0.03904 0.46145
 Zn176 Zn 0.99831 0.00468 0.49830
 N177 N 1.02194 0.02777 0.47604
 C178 C 0.97542 0.05530 0.52069
 N179 N 0.97440 0.02671 0.52125
 C180 C 0.95764 0.01276 0.53981
 C181 C 0.94077 0.02761 0.55862
 C182 C 0.95896 0.07100 0.53923
 C183 C 0.99232 -0.03117 0.45381
 C184 C 0.97848 -0.04611 0.43377
 C185 C 0.93465 -0.03263 0.45574
 C186 C 0.94932 -0.01761 0.47516
 N187 N 0.97766 -0.01723 0.47390
 H188 H 0.98936 0.06600 0.50626
 H189 H 0.95774 -0.01001 0.54026
 H190 H 0.92797 0.01608 0.57357
 H191 H 0.96002 0.09374 0.53849
 H192 H 1.01483 -0.03024 0.45311
 H193 H 0.99045 -0.05692 0.41777
 H194 H 0.91209 -0.03241 0.45674
 H195 H 0.93799 -0.00589 0.49086
 C196 C 1.05553 0.05900 0.43968
 C197 C 1.04875 -0.05054 0.56084
 C198 C 0.94927 -0.04685 0.43455
 C199 C 0.94142 0.05713 0.55860
 C200 C 0.16878 0.27240 1.11952
 C201 C 0.15682 0.29492 1.10483
 C202 C 0.14223 0.31642 1.11871
 C203 C 0.14069 0.31543 1.14786
 C204 C 0.15244 0.29284 1.16261
 C205 C 0.16650 0.27062 1.14878
 C206 C 0.12918 0.33940 1.10202
 C207 C 0.10830 0.35594 1.11161
 C208 C 0.09389 0.37777 1.09459
 C209 C 0.06774 0.38782 1.10393
 C210 C 0.05300 0.40793 1.08848
 C211 C 0.06411 0.41858 1.06326
 C212 C 0.09058 0.40904 1.05416
 C213 C 0.10539 0.38898 1.06968
 H214 H 0.17852 0.25579 1.10753
 H215 H 0.15847 0.29517 1.08237
 H216 H 0.13083 0.33220 1.15954
 H217 H 0.15126 0.29359 1.18502
 H218 H 0.13599 0.34132 1.08055
 H219 H 0.09999 0.35236 1.13239
 H220 H 0.05850 0.37989 1.12319
 H221 H 0.03293 0.41525 1.09640
 H222 H 0.09970 0.41674 1.03478
 H223 H 0.12582 0.38258 1.06206
 C224 C -0.13020 0.71876 1.17972
 C225 C -0.11649 0.69666 1.16610
 C226 C -0.13120 0.67787 1.15006
 C227 C -0.16030 0.68115 1.14867
 C228 C -0.17406 0.70338 1.16210
 C229 C -0.15929 0.72289 1.17771
 C230 C -0.11529 0.65531 1.13540
 C231 C -0.12522 0.64062 1.11432
 C232 C -0.10858 0.61941 1.09850
 C233 C -0.11807 0.61121 1.07257
 C234 C -0.10281 0.59193 1.05651
 C235 C -0.07763 0.58031 1.06601
 C236 C -0.06842 0.58801 1.09224
 C237 C -0.08377 0.60714 1.10840
 H238 H -0.11743 0.73334 1.19055
 H239 H -0.09407 0.69464 1.16765
 H240 H -0.17274 0.66648 1.13761
 H241 H -0.19652 0.70446 1.16090
 H242 H -0.09390 0.65213 1.14134
 H243 H -0.14590 0.64532 1.10698
 H244 H -0.13726 0.61998 1.06454
 H245 H -0.11084 0.58604 1.03667
 H246 H -0.04904 0.57963 1.10017
 H247 H -0.07602 0.61199 1.12859
 C248 C -0.16557 0.27350 0.87155
 C249 C -0.15402 0.29600 0.88530
 C250 C -0.14538 0.32017 0.87055
 C251 C -0.14934 0.32172 0.84171
 C252 C -0.16090 0.29917 0.82795
 C253 C -0.16897 0.27474 0.84270
 C254 C -0.13268 0.34319 0.88612
 C255 C -0.11579 0.36253 0.87443
 C256 C -0.10157 0.38416 0.89057
 C257 C -0.07693 0.39587 0.87958
 C258 C -0.06232 0.41557 0.89452
 C259 C -0.07218 0.42418 0.92076
 C260 C -0.09731 0.41310 0.93142
 C261 C -0.11192 0.39342 0.91647
 H262 H -0.17130 0.25486 0.88346
 H263 H -0.15137 0.29430 0.90752
 H264 H -0.14390 0.34034 0.82970
 H265 H -0.16378 0.30093 0.80578
 H266 H -0.13593 0.34279 0.90841
 H267 H -0.11042 0.36139 0.85256
 H268 H -0.06869 0.38942 0.85952
 H269 H -0.04331 0.42410 0.88549
 H270 H -0.10543 0.41920 0.95161
 H271 H -0.13133 0.38568 0.92529
 C272 C 0.18340 0.71760 0.85431
 C273 C 0.17121 0.69453 0.86798
 C274 C 0.14235 0.69061 0.86769
 C275 C 0.12580 0.71056 0.85357
 C276 C 0.13792 0.73352 0.83970
 C277 C 0.16701 0.73765 0.83981
 C278 C 0.13034 0.66624 0.88330
 C279 C 0.10483 0.65619 0.87896
 C280 C 0.09196 0.63254 0.89500
 C281 C 0.06711 0.62138 0.88540
 C282 C 0.05340 0.59996 0.90019
 C283 C 0.06421 0.58906 0.92505
 C284 C 0.08918 0.60005 0.93464
 C285 C 0.10285 0.62161 0.91992
 H286 H 0.20586 0.71890 0.85443
 H287 H 0.18451 0.67953 0.87872
 H288 H 0.10334 0.70919 0.85378
 H289 H 0.12401 0.74874 0.83020
 H290 H 0.14357 0.65598 0.89831
 H291 H 0.09264 0.66524 0.86239
 H292 H 0.05804 0.62949 0.86647
 H293 H 0.03394 0.59241 0.89245
 H294 H 0.09821 0.59198 0.95359
 H295 H 0.12155 0.62979 0.92857
 C296 C 1.13035 0.17796 0.27353
 C297 C 1.11645 0.16723 0.29710
 C298 C 1.13062 0.15076 0.31674
 C299 C 1.15942 0.14613 0.31282
 C300 C 1.17336 0.15668 0.28915
 C301 C 1.15908 0.17253 0.26875
 C302 C 1.11451 0.13887 0.34076
 C303 C 1.12308 0.11654 0.35590
 C304 C 1.10592 0.10299 0.37828
 C305 C 1.11268 0.07529 0.38646
 C306 C 1.09661 0.06119 0.40667
 C307 C 1.07340 0.07452 0.41927
 C308 C 1.06701 0.10250 0.41168
 C309 C 1.08318 0.11669 0.39155
 H310 H 1.11790 0.18919 0.25845
 H311 H 1.09427 0.17125 0.29962
 H312 H 1.17148 0.13469 0.32805
 H313 H 1.19563 0.15305 0.28755
 H314 H 1.09393 0.14772 0.34459
 H315 H 1.14267 0.10626 0.35054
 H316 H 1.13016 0.06428 0.37677
 H317 H 1.10193 0.03956 0.41192
 H318 H 1.04957 0.11347 0.42147
 H319 H 1.07780 0.13834 0.38673
 C320 C 1.15888 -0.11967 0.73141
 C321 C 1.14445 -0.10573 0.71035
 C322 C 1.13172 -0.12086 0.68949
 C323 C 1.13356 -0.15047 0.69031
 C324 C 1.14807 -0.16443 0.71141
 C325 C 1.16087 -0.14919 0.73221
 C326 C 1.11592 -0.10486 0.66817
 C327 C 1.10823 -0.11540 0.64391
 C328 C 1.09249 -0.09870 0.62306
 C329 C 1.09422 -0.10648 0.59510
 C330 C 1.07992 -0.09102 0.57485
 C331 C 1.06350 -0.06748 0.58221
 C332 C 1.06122 -0.06011 0.61027
 C333 C 1.07538 -0.07560 0.63049
 H334 H 1.16802 -0.10731 0.74741
 H335 H 1.14313 -0.08296 0.71044
 H336 H 1.12348 -0.16305 0.67513
 H337 H 1.14932 -0.18720 0.71140
 H338 H 1.11147 -0.08295 0.67244
 H339 H 1.11473 -0.13646 0.63827
 H340 H 1.10699 -0.12436 0.58885
 H341 H 1.08212 -0.09716 0.55338
 H342 H 1.04811 -0.04253 0.61665
 H343 H 1.07246 -0.06960 0.65191
 C344 C 0.85241 -0.18266 0.30316
 C345 C 0.86505 -0.16957 0.32525
 C346 C 0.86349 -0.14032 0.32794
 C347 C 0.84808 -0.12438 0.30877
 C348 C 0.83501 -0.13742 0.28693
 C349 C 0.83720 -0.16684 0.28340
 C350 C 0.87779 -0.12702 0.35109
 C351 C 0.88945 -0.10164 0.34848
 C352 C 0.90480 -0.08850 0.37101
 C353 C 0.92677 -0.07039 0.36401
 C354 C 0.94149 -0.05724 0.38468
 C355 C 0.93411 -0.06150 0.41278
 C356 C 0.91186 -0.07933 0.41984
 C357 C 0.89740 -0.09283 0.39916
 H358 H 0.85387 -0.20536 0.30234
 H359 H 0.87642 -0.18234 0.34010
 H360 H 0.84599 -0.10178 0.31065
 H361 H 0.82434 -0.12399 0.27216
 H362 H 0.88042 -0.13930 0.37000
 H363 H 0.88932 -0.09076 0.32856
 H364 H 0.93266 -0.06652 0.34246
 H365 H 0.95831 -0.04329 0.37869
 H366 H 0.90577 -0.08290 0.44137
 H367 H 0.88011 -0.10614 0.40521
 C368 C 0.86781 0.18029 0.72080
 C369 C 0.88147 0.16959 0.69725
 C370 C 0.86773 0.15184 0.67936
 C371 C 0.83955 0.14588 0.68485
 C372 C 0.82579 0.15659 0.70835
 C373 C 0.83970 0.17374 0.72714
 C374 C 0.88347 0.14011 0.65526
 C375 C 0.87728 0.11549 0.64381
 C376 C 0.89384 0.10217 0.62101
 C377 C 0.88218 0.07956 0.60718
 C378 C 0.89738 0.06526 0.58661
 C379 C 0.92471 0.07322 0.57939
 C380 C 0.93635 0.09601 0.59296
 C381 C 0.92119 0.11027 0.61361
 H382 H 0.88009 0.19249 0.73459
 H383 H 0.90319 0.17458 0.69343
 H384 H 0.82783 0.13335 0.67084
 H385 H 0.80388 0.15204 0.71101
 H386 H 0.90137 0.15177 0.64782
 H387 H 0.85948 0.10393 0.65181
 H388 H 0.86124 0.07278 0.61246
 H389 H 0.88776 0.04794 0.57634
 H390 H 0.95756 0.10226 0.58823
 H391 H 0.93147 0.12695 0.62412
 C392 C 0.26655 1.12166 0.16010
 C393 C 0.28793 1.10547 0.14798
 C394 C 0.31055 1.11834 0.13412
 C395 C 0.31120 1.14794 0.13246
 C396 C 0.28981 1.16414 0.14465
 C397 C 0.26720 1.15119 0.15854
 C398 C 0.33212 1.10009 0.12068
 C399 C 0.35763 1.10882 0.11283
 C400 C 0.37872 1.09055 0.09870
 C401 C 0.40685 1.09818 0.09903
 C402 C 0.42730 1.08205 0.08528
 C403 C 0.42003 1.05794 0.07080
 C404 C 0.39188 1.05033 0.07035
 C405 C 0.37142 1.06650 0.08398
 H406 H 0.24918 1.11101 0.17019
 H407 H 0.28669 1.08275 0.14931
 H408 H 0.32775 1.15880 0.12133
 H409 H 0.29098 1.18685 0.14320
 H410 H 0.32679 1.07828 0.11805
 H411 H 0.36394 1.12989 0.11768
 H412 H 0.41306 1.11669 0.10999
 H413 H 0.44885 1.08835 0.08611
 H414 H 0.38556 1.03225 0.05881
 H415 H 0.34994 1.06041 0.08224
 C416 C 0.73715 1.12466 -0.15747
 C417 C 0.71683 1.10863 -0.14360
 C418 C 0.69288 1.12154 -0.13206
 C419 C 0.68974 1.15096 -0.13444
 C420 C 0.71018 1.16702 -0.14814
 C421 C 0.73411 1.15404 -0.15975
 C422 C 0.67251 1.10387 -0.11646
 C423 C 0.64550 1.11090 -0.11309
 C424 C 0.62552 1.09321 -0.09698
 C425 C 0.59725 1.09421 -0.10370
 C426 C 0.57782 1.07801 -0.08867
 C427 C 0.58626 1.06086 -0.06630
 C428 C 0.61451 1.06017 -0.05933
 C429 C 0.63394 1.07617 -0.07447
 H430 H 0.75558 1.11415 -0.16584
 H431 H 0.71989 1.08606 -0.14178
 H432 H 0.67195 1.16175 -0.12515
 H433 H 0.70731 1.18964 -0.14963
 H434 H 0.67996 1.08378 -0.10845
 H435 H 0.63733 1.12953 -0.12344
 H436 H 0.59020 1.10743 -0.12073
 H437 H 0.55612 1.07923 -0.09427
 H438 H 0.62163 1.04705 -0.04225
 H439 H 0.65542 1.07551 -0.06815
 C440 C 0.27704 0.87605 -0.16485
 C441 C 0.29985 0.88874 -0.15303
 C442 C 0.32208 0.87240 -0.14295
 C443 C 0.32140 0.84297 -0.14565
 C444 C 0.29856 0.83025 -0.15755
 C445 C 0.27606 0.84665 -0.16714
 C446 C 0.34555 0.88694 -0.13013
 C447 C 0.36245 0.87463 -0.11162
 C448 C 0.38441 0.89006 -0.09732
 C449 C 0.39283 0.88031 -0.07116
 C450 C 0.41269 0.89484 -0.05651
 C451 C 0.42477 0.91937 -0.06785
 C452 C 0.41699 0.92864 -0.09443
 C453 C 0.39712 0.91411 -0.10907
 H454 H 0.25990 0.88926 -0.17171
 H455 H 0.29990 0.91144 -0.15133
 H456 H 0.33855 0.82970 -0.13900
 H457 H 0.29865 0.80759 -0.15953
 H458 H 0.34753 0.90920 -0.13470
 H459 H 0.35883 0.85310 -0.10499
 H460 H 0.38354 0.86173 -0.06173
 H461 H 0.41806 0.88727 -0.03599
 H462 H 0.42641 0.94707 -0.10399
 H463 H 0.39201 0.92168 -0.12964
 C464 C 0.70677 0.84318 0.19256
 C465 C 0.68402 0.85629 0.17988
 C466 C 0.68275 0.85829 0.15086
 C467 C 0.70498 0.84718 0.13471
 C468 C 0.72772 0.83408 0.14738
 C469 C 0.72890 0.83196 0.17644
 C470 C 0.65876 0.87330 0.13826
 C471 C 0.65065 0.86901 0.11225
 C472 C 0.62758 0.88487 0.09893
 C473 C 0.61539 0.87349 0.07554
 C474 C 0.59471 0.88840 0.06134
 C475 C 0.58586 0.91517 0.07013
 C476 C 0.59787 0.92651 0.09369
 C477 C 0.61858 0.91162 0.10789
 H478 H 0.70698 0.84169 0.21498
 H479 H 0.66730 0.86487 0.19280
 H480 H 0.70537 0.84920 0.11233
 H481 H 0.74475 0.82625 0.13442
 H482 H 0.64699 0.88769 0.15133
 H483 H 0.66080 0.85266 0.10018
 H484 H 0.62201 0.85302 0.06810
 H485 H 0.58567 0.87897 0.04342
 H486 H 0.59191 0.94734 0.10063
 H487 H 0.62803 0.92161 0.12523
   
