data_POSCAR
  _audit_creation_date              2014-09-24
  _audit_creation_method            'ToBaCCo'
  _symmetry_space_group_name_H-M    'P1'
  _symmetry_Int_Tables_number       1
  _symmetry_cell_setting            triclinic
  loop_
  _symmetry_equiv_pos_as_xyz
 x,y,z
_cell_length_a 51.5050
_cell_length_b 51.6669
_cell_length_c 51.6349
_cell_angle_alpha 92.264500
_cell_angle_beta 94.384100
_cell_angle_gamma 94.055300
loop_
  _atom_site_label
  _atom_site_type_symbol
  _atom_site_fract_x
  _atom_site_fract_y
  _atom_site_fract_z
C1 C 0.21186 0.50263 1.04745
 H2 H 0.21225 0.51684 1.03262
 C3 C 0.19377 0.50368 1.06617
 H4 H 0.18029 0.51888 1.06583
 C5 C 0.22820 0.46480 1.06525
 H6 H 0.24120 0.44932 1.06437
 C7 C 0.21036 0.46511 1.08434
 H8 H 0.20986 0.44997 1.09828
 N9 N 0.22856 0.48338 1.04728
 C10 C 0.29043 0.51266 1.00083
 H11 H 0.28955 0.49694 0.98624
 C12 C 0.30936 0.53331 1.00055
 H13 H 0.32307 0.53359 0.98564
 C14 C 0.27414 0.53113 1.03857
 H15 H 0.26073 0.52992 1.05364
 C16 C 0.29283 0.55218 1.03902
 H17 H 0.29363 0.56726 1.05430
 Zn18 Zn 0.24984 0.48203 1.01910
 N19 N 0.27324 0.51198 1.01957
 C20 C 0.22786 0.49866 0.97086
 N21 N 0.22701 0.47974 0.98846
 C22 C 0.20824 0.45969 0.98586
 C23 C 0.18924 0.45819 0.96496
 C24 C 0.20922 0.49788 0.94966
 C25 C 0.28883 0.45325 1.04124
 C26 C 0.30691 0.43436 1.04224
 C27 C 0.28699 0.41568 1.00119
 C28 C 0.26923 0.43493 1.00095
 N29 N 0.27058 0.45330 1.02075
 H30 H 0.24246 0.51479 0.97361
 H31 H 0.20773 0.44520 1.00042
 H32 H 0.17409 0.44243 0.96330
 H33 H 0.20969 0.51328 0.93602
 H34 H 0.28978 0.46841 1.05642
 H35 H 0.32179 0.43486 1.05830
 H36 H 0.28627 0.40153 0.98505
 H37 H 0.25505 0.43571 0.98453
 C38 C 0.31063 0.55320 1.01986
 C39 C 0.19285 0.48463 1.08466
 C40 C 0.30617 0.41560 1.02188
 C41 C 0.18962 0.47758 0.94682
 C42 C 0.78821 0.53907 -0.04819
 H43 H 0.78920 0.55417 -0.03295
 C44 C 0.80619 0.54010 -0.06709
 H45 H 0.82102 0.55611 -0.06651
 C46 C 0.76863 0.49894 -0.06671
 H47 H 0.75449 0.48256 -0.06601
 C48 C 0.78628 0.49921 -0.08598
 H49 H 0.78554 0.48315 -0.10021
 N50 N 0.77003 0.51863 -0.04823
 C51 C 0.71162 0.54543 0.00129
 H52 H 0.71212 0.53059 0.01548
 C53 C 0.69357 0.56426 0.00244
 H54 H 0.68020 0.56403 0.01766
 C55 C 0.72765 0.56320 -0.03659
 H56 H 0.74051 0.56228 -0.05212
 C57 C 0.70982 0.58239 -0.03617
 H58 H 0.70915 0.59637 -0.05125
 Zn59 Zn 0.74947 0.51696 -0.01948
 N60 N 0.72816 0.54521 -0.01802
 C61 C 0.77404 0.53623 0.02969
 N62 N 0.77305 0.51727 0.01048
 C63 C 0.79027 0.49847 0.01112
 C64 C 0.80932 0.49809 0.03178
 C65 C 0.79286 0.53657 0.05075
 C66 C 0.70783 0.48396 -0.04192
 C67 C 0.68882 0.46318 -0.04344
 C68 C 0.70900 0.44777 -0.00371
 C69 C 0.72764 0.46885 -0.00292
 N70 N 0.72669 0.48644 -0.02185
 H71 H 0.76061 0.55136 0.02851
 H72 H 0.78931 0.48392 -0.00465
 H73 H 0.82305 0.48313 0.03202
 H74 H 0.79372 0.55181 0.06587
 H75 H 0.70723 0.49851 -0.05641
 H76 H 0.67357 0.46162 -0.05920
 H77 H 0.70955 0.43414 0.01170
 H78 H 0.74233 0.47151 0.01323
 C79 C 0.69252 0.58277 -0.01656
 C80 C 0.80540 0.51984 -0.08596
 C81 C 0.68929 0.44506 -0.02403
 C82 C 0.81069 0.51735 0.05172
 C83 C -0.00274 0.29063 0.46237
 H84 H -0.01671 0.29015 0.47699
 C85 C -0.00413 0.30881 0.44313
 H86 H -0.01934 0.32230 0.44287
 C87 C 0.03477 0.27431 0.44553
 H88 H 0.05025 0.26125 0.44694
 C89 C 0.03411 0.29224 0.42593
 H90 H 0.04898 0.29274 0.41216
 N91 N 0.01648 0.27386 0.46323
 C92 C -0.01253 0.21143 0.51007
 H93 H 0.00344 0.21193 0.52500
 C94 C -0.03331 0.19259 0.51007
 H95 H -0.03344 0.17856 0.52512
 C96 C -0.03147 0.22856 0.47167
 H97 H -0.03037 0.24225 0.45644
 C98 C -0.05264 0.20998 0.47094
 H99 H -0.06793 0.20954 0.45528
 Zn100 Zn 0.01821 0.25209 0.49179
 N101 N -0.01200 0.22897 0.49111
 C102 C 0.00252 0.27317 0.53936
 N103 N 0.02125 0.27419 0.52212
 C104 C 0.04154 0.29270 0.52477
 C105 C 0.04347 0.31131 0.54532
 C106 C 0.00372 0.29142 0.56020
 C107 C 0.04628 0.21357 0.47053
 C108 C 0.06522 0.19559 0.46980
 C109 C 0.08521 0.21441 0.51077
 C110 C 0.06588 0.23210 0.51073
 N111 N 0.04687 0.23127 0.49083
 H112 H -0.01381 0.25877 0.53656
 H113 H 0.05585 0.29336 0.51048
 H114 H 0.05938 0.32631 0.54697
 H115 H -0.01156 0.29085 0.57351
 H116 H 0.03064 0.21303 0.45525
 H117 H 0.06426 0.18120 0.45385
 H118 H 0.09992 0.21474 0.52696
 H119 H 0.06561 0.24587 0.52699
 C120 C -0.05348 0.19178 0.49028
 C121 C 0.01456 0.30975 0.42485
 C122 C 0.08469 0.19584 0.49023
 C123 C 0.02425 0.31079 0.56305
 C124 C 0.96068 0.70928 0.53718
 H125 H 0.94533 0.70843 0.52159
 C126 C 0.95991 0.69118 0.55652
 H127 H 0.94384 0.67639 0.55593
 C128 C 1.00112 0.72873 0.55627
 H129 H 1.01750 0.74289 0.55567
 C130 C 1.00111 0.71095 0.57599
 H131 H 1.01737 0.71163 0.59067
 N132 N 0.98113 0.72749 0.53733
 C133 C 0.95301 0.78659 0.48647
 H134 H 0.96757 0.78643 0.47243
 C135 C 0.93414 0.80468 0.48498
 H136 H 0.93404 0.81842 0.46966
 C137 C 0.93615 0.76973 0.52436
 H138 H 0.93747 0.75657 0.54007
 C139 C 0.91693 0.78757 0.52360
 H140 H 0.90334 0.78793 0.53859
 Zn141 Zn 0.98226 0.74856 0.50827
 N142 N 0.95374 0.76965 0.50598
 C143 C 0.96230 0.72493 0.45910
 N144 N 0.98166 0.72571 0.47867
 C145 C 1.00067 0.70873 0.47874
 C146 C 1.00082 0.69008 0.45848
 C147 C 0.96171 0.70652 0.43842
 C148 C 1.01540 0.78973 0.53085
 C149 C 1.03623 0.80871 0.53269
 C150 C 1.05144 0.78963 0.49365
 C151 C 1.03032 0.77098 0.49254
 N152 N 1.01281 0.77139 0.51099
 H153 H 0.94703 0.73819 0.45973
 H154 H 1.01554 0.70951 0.49478
 H155 H 1.01592 0.67650 0.45882
 H156 H 0.94612 0.70577 0.42303
 H157 H 1.00091 0.78990 0.54495
 H158 H 1.03789 0.82350 0.54831
 H159 H 1.06503 0.78950 0.47864
 H160 H 1.02756 0.75671 0.47653
 C161 C 0.91610 0.80533 0.50385
 C162 C 0.98043 0.69186 0.57594
 C163 C 1.05428 0.80877 0.51380
 C164 C 0.98111 0.68889 0.43821
 C165 C 0.45136 -0.01360 0.28588
 H166 H 0.46588 -0.02774 0.28575
 C167 C 0.43254 -0.01497 0.30393
 H168 H 0.43244 -0.03028 0.31767
 C169 C 0.43453 0.02442 0.26901
 H170 H 0.43586 0.04013 0.25586
 C171 C 0.41538 0.02379 0.28681
 H172 H 0.40182 0.03889 0.28716
 N173 N 0.45208 0.00591 0.26896
 C174 C 0.49892 -0.02161 0.20820
 H175 H 0.51380 -0.00566 0.20907
 C176 C 0.49909 -0.04187 0.18956
 H177 H 0.51423 -0.04156 0.17608
 C178 C 0.46056 -0.04101 0.22423
 H179 H 0.44530 -0.04029 0.23742
 C180 C 0.45996 -0.06169 0.20582
 H181 H 0.44434 -0.07697 0.20506
 Zn182 Zn 0.48057 0.00802 0.24796
 N183 N 0.47992 -0.02156 0.22510
 C184 C 0.52866 -0.00798 0.27059
 N185 N 0.51116 0.01056 0.27093
 C186 C 0.51380 0.03043 0.28925
 C187 C 0.53470 0.03220 0.30828
 C188 C 0.54985 -0.00694 0.28929
 C189 C 0.45897 0.03710 0.20859
 C190 C 0.45821 0.05643 0.19047
 C191 C 0.49950 0.07554 0.21040
 C192 C 0.49948 0.05584 0.22818
 N193 N 0.47944 0.03707 0.22687
 H194 H 0.52586 -0.02399 0.25633
 H195 H 0.49932 0.04460 0.28937
 H196 H 0.53642 0.04784 0.32305
 H197 H 0.56344 -0.02201 0.28920
 H198 H 0.44357 0.02164 0.20768
 H199 H 0.44213 0.05598 0.17562
 H200 H 0.51580 0.09007 0.21113
 H201 H 0.51589 0.05509 0.24240
 C202 C 0.47937 -0.06204 0.18826
 C203 C 0.41456 0.00404 0.30456
 C204 C 0.47880 0.07567 0.19122
 C205 C 0.55277 0.01323 0.30840
 C206 C 0.54791 -0.02922 0.71352
 H207 H 0.53228 -0.04442 0.71291
 C208 C 0.56679 -0.03000 0.69558
 H209 H 0.56582 -0.04592 0.68116
 C210 C 0.56748 0.01086 0.73217
 H211 H 0.56722 0.02710 0.74596
 C212 C 0.58676 0.01085 0.71452
 H213 H 0.60144 0.02697 0.71490
 N214 N 0.54850 -0.00895 0.73125
 C215 C 0.49898 -0.03718 0.79042
 H216 H 0.48502 -0.02249 0.78989
 C217 C 0.49762 -0.05641 0.80859
 H218 H 0.48247 -0.05664 0.82205
 C219 C 0.53647 -0.05423 0.77423
 H220 H 0.55193 -0.05290 0.76124
 C221 C 0.53582 -0.07381 0.79216
 H222 H 0.55065 -0.08768 0.79278
 Zn223 Zn 0.51986 -0.00789 0.75196
 N224 N 0.51818 -0.03643 0.77371
 C225 C 0.47019 -0.02780 0.72820
 N226 N 0.48961 -0.00845 0.72869
 C227 C 0.48900 0.01051 0.71114
 C228 C 0.46817 0.01060 0.69222
 C229 C 0.44897 -0.02844 0.70954
 C230 C 0.54313 0.02498 0.79275
 C231 C 0.54497 0.04546 0.81142
 C232 C 0.50516 0.06043 0.79133
 C233 C 0.50404 0.03966 0.77302
 N234 N 0.52284 0.02240 0.77411
 H235 H 0.47135 -0.04304 0.74189
 H236 H 0.50493 0.02538 0.71170
 H237 H 0.46796 0.02565 0.67820
 H238 H 0.43370 -0.04404 0.70905
 H239 H 0.55750 0.01068 0.79346
 H240 H 0.56087 0.04706 0.82653
 H241 H 0.48981 0.07375 0.79071
 H242 H 0.48771 0.03690 0.75852
 C243 C 0.51630 -0.07477 0.80959
 C244 C 0.58622 -0.00965 0.69590
 C245 C 0.52567 0.06320 0.81084
 C246 C 0.44804 -0.00910 0.69135
 C247 C 0.22012 -0.02277 0.50476
 C248 C 0.23570 -0.00002 0.50115
 C249 C 0.22413 0.02360 0.49835
 C250 C 0.19711 0.02448 0.49940
 C251 C 0.18159 0.00168 0.50278
 C252 C 0.19305 -0.02196 0.50534
 C253 C 0.26410 -0.00091 0.50034
 C254 C 0.27554 0.00122 0.47664
 C255 C 0.30257 0.00014 0.47587
 C256 C 0.31822 -0.00261 0.49885
 C257 C 0.30689 -0.00451 0.52256
 C258 C 0.27982 -0.00389 0.52328
 H259 H 0.22902 -0.04106 0.50678
 H260 H 0.23616 0.04122 0.49569
 H261 H 0.26340 0.00340 0.45887
 H262 H 0.27101 -0.00539 0.54163
 H263 H 0.16064 0.00234 0.50338
 H264 H 0.33918 -0.00323 0.49828
 C265 C 0.77585 -0.02299 0.50072
 C266 C 0.76414 0.00062 0.49861
 C267 C 0.77959 0.02359 0.49555
 C268 C 0.80667 0.02299 0.49484
 C269 C 0.81827 -0.00064 0.49673
 C270 C 0.80287 -0.02365 0.49955
 C271 C 0.73574 0.00130 0.49959
 C272 C 0.72441 -0.00149 0.52328
 C273 C 0.69739 -0.00057 0.52424
 C274 C 0.68162 0.00268 0.50145
 C275 C 0.69284 0.00525 0.47773
 C276 C 0.71991 0.00479 0.47684
 H277 H 0.76391 -0.04079 0.50296
 H278 H 0.77059 0.04188 0.49407
 H279 H 0.73664 -0.00406 0.54089
 H280 H 0.72863 0.00681 0.45850
 H281 H 0.83922 -0.00112 0.49603
 H282 H 0.66067 0.00319 0.50216
 C283 C 0.52210 0.27998 0.99391
 C284 C 0.49998 0.26442 0.99965
 C285 C 0.47703 0.27612 1.00488
 C286 C 0.47613 0.30311 1.00409
 C287 C 0.49833 0.31853 0.99863
 C288 C 0.52136 0.30701 0.99368
 C289 C 0.50086 0.23598 1.00014
 C290 C 0.49567 0.22299 1.02278
 C291 C 0.49681 0.19601 1.02330
 C292 C 0.50258 0.18188 1.00103
 C293 C 0.50749 0.19468 0.97832
 C294 C 0.50692 0.22172 0.97796
 H295 H 0.53994 0.27108 0.99008
 H296 H 0.45982 0.26419 1.00911
 H297 H 0.49120 0.23392 1.04003
 H298 H 0.51070 0.23161 0.96035
 H299 H 0.49770 0.33945 0.99825
 H300 H 0.50321 0.16095 1.00137
 C301 C 0.52251 0.72391 -0.00394
 C302 C 0.49947 0.73564 0.00086
 C303 C 0.47713 0.72014 0.00605
 C304 C 0.47775 0.69309 0.00616
 C305 C 0.50086 0.68152 0.00165
 C306 C 0.52328 0.69691 -0.00325
 C307 C 0.49872 0.76408 0.00046
 C308 C 0.50338 0.77702 -0.02233
 C309 C 0.50236 0.80402 -0.02278
 C310 C 0.49727 0.81820 -0.00029
 C311 C 0.49290 0.80543 0.02256
 C312 C 0.49333 0.77837 0.02286
 H313 H 0.53987 0.73583 -0.00775
 H314 H 0.45923 0.72909 0.00955
 H315 H 0.50734 0.76605 -0.03974
 H316 H 0.48995 0.76849 0.04057
 H317 H 0.50139 0.66058 0.00195
 H318 H 0.49673 0.83914 -0.00058
 C319 C 0.99421 0.52178 0.27796
 C320 C 0.99930 0.49922 0.26374
 C321 C 1.00357 0.47636 0.27675
 C322 C 1.00245 0.47599 0.30375
 C323 C 0.99766 0.49863 0.31786
 C324 C 0.99369 0.52155 0.30502
 C325 C 1.00012 0.49955 0.23530
 C326 C 1.02334 0.49513 0.22381
 C327 C 1.02417 0.49581 0.19680
 C328 C 1.00165 0.50031 0.18117
 C329 C 0.97837 0.50444 0.19252
 C330 C 0.97767 0.50434 0.21957
 H331 H 0.99112 0.53953 0.26801
 H332 H 1.00730 0.45884 0.26581
 H333 H 1.04078 0.49164 0.23591
 H334 H 0.95965 0.50757 0.22836
 H335 H 0.99705 0.49840 0.33881
 H336 H 1.00224 0.50061 0.16023
 C337 C -0.00381 0.52303 0.72311
 C338 C 0.00114 0.50029 0.73607
 C339 C 0.00700 0.47804 0.72180
 C340 C 0.00760 0.47844 0.69476
 C341 C 0.00294 0.50125 0.68197
 C342 C -0.00262 0.52359 0.69613
 C343 C 0.00017 0.49975 0.76450
 C344 C -0.02295 0.50466 0.77596
 C345 C -0.02395 0.50379 0.80295
 C346 C -0.00168 0.49859 0.81859
 C347 C 0.02152 0.49397 0.80730
 C348 C 0.02236 0.49425 0.78027
 H349 H -0.00815 0.54032 0.73406
 H350 H 0.01059 0.46036 0.73169
 H351 H -0.04021 0.50869 0.76386
 H352 H 0.04033 0.49067 0.77153
 H353 H 0.00360 0.50161 0.66104
 H354 H -0.00238 0.49816 0.83952
 C355 C 0.10283 0.17590 0.49092
 C356 C 0.11723 0.15849 0.49153
 C357 C 0.13349 0.13696 0.49234
 C358 C 0.14525 0.12987 0.51613
 C359 C 0.15938 0.10774 0.51721
 C360 C 0.16180 0.09261 0.49452
 C361 C 0.15042 0.09995 0.47066
 C362 C 0.13629 0.12208 0.46957
 C363 C 0.17483 0.06891 0.49594
 C364 C 0.18524 0.04878 0.49736
 H365 H 0.14306 0.14113 0.53387
 H366 H 0.16800 0.10217 0.53578
 H367 H 0.15207 0.08833 0.45302
 H368 H 0.12713 0.12729 0.45110
 C369 C 0.67273 0.60108 -0.01657
 C370 C 0.65547 0.61565 -0.01627
 C371 C 0.63416 0.63217 -0.01551
 C372 C 0.63195 0.64833 0.00653
 C373 C 0.61010 0.66275 0.00819
 C374 C 0.59037 0.66105 -0.01218
 C375 C 0.59281 0.64529 -0.03443
 C376 C 0.61466 0.63087 -0.03610
 C377 C 0.56700 0.67433 -0.00959
 C378 C 0.54717 0.68489 -0.00696
 H379 H 0.64681 0.64934 0.02263
 H380 H 0.60834 0.67477 0.02555
 H381 H 0.57760 0.64372 -0.05023
 H382 H 0.61608 0.61830 -0.05315
 C383 C 0.89799 -0.17471 0.50375
 C384 C 0.88357 -0.15731 0.50360
 C385 C 0.86723 -0.13584 0.50329
 C386 C 0.86294 -0.12256 0.52659
 C387 C 0.84867 -0.10050 0.52613
 C388 C 0.83866 -0.09163 0.50236
 C389 C 0.84260 -0.10515 0.47910
 C390 C 0.85686 -0.12720 0.47956
 C391 C 0.82545 -0.06801 0.50170
 C392 C 0.81491 -0.04792 0.50088
 H393 H 0.87102 -0.12897 0.54504
 H394 H 0.84585 -0.09012 0.54422
 H395 H 0.83505 -0.09839 0.46060
 H396 H 0.86021 -0.13722 0.46142
 C397 C 0.32628 0.39766 1.02127
 C398 C 0.34376 0.38339 1.02047
 C399 C 0.36529 0.36721 1.01912
 C400 C 0.38564 0.36931 1.03888
 C401 C 0.40756 0.35510 1.03664
 C402 C 0.40921 0.33875 1.01462
 C403 C 0.38865 0.33630 0.99508
 C404 C 0.36673 0.35050 0.99732
 C405 C 0.43254 0.32558 1.01142
 C406 C 0.45232 0.31508 1.00832
 H407 H 0.38481 0.38230 1.05574
 H408 H 0.42341 0.35725 1.05180
 H409 H 0.38978 0.32381 0.97790
 H410 H 0.35118 0.34886 0.98185
 C411 C 0.92567 0.17163 0.48941
 C412 C 0.90874 0.15424 0.48902
 C413 C 0.88918 0.13292 0.48897
 C414 C 0.87602 0.12839 0.51131
 C415 C 0.85828 0.10668 0.51189
 C416 C 0.85362 0.08942 0.49015
 C417 C 0.86648 0.09417 0.46767
 C418 C 0.88423 0.11588 0.46708
 C419 C 0.83657 0.06628 0.49136
 C420 C 0.82272 0.04665 0.49274
 H421 H 0.87982 0.14136 0.52839
 H422 H 0.84853 0.10313 0.52942
 H423 H 0.86310 0.08088 0.45079
 H424 H 0.89440 0.11913 0.44976
 C425 C 0.33077 0.57402 0.02031
 C426 C 0.34813 0.59093 0.02024
 C427 C 0.36938 0.61048 0.01960
 C428 C 0.36907 0.62846 -0.00002
 C429 C 0.39056 0.64624 -0.00178
 C430 C 0.41246 0.64611 0.01606
 C431 C 0.41260 0.62842 0.03594
 C432 C 0.39110 0.61064 0.03771
 C433 C 0.43526 0.66319 0.01315
 C434 C 0.45455 0.67705 0.01023
 H435 H 0.35244 0.62840 -0.01421
 H436 H 0.39031 0.65975 -0.01730
 H437 H 0.42948 0.62807 0.04976
 H438 H 0.39161 0.59672 0.05286
 C439 C 0.07471 -0.17069 0.51423
 C440 C 0.09133 -0.15304 0.51427
 C441 C 0.11059 -0.13151 0.51391
 C442 C 0.12565 -0.12878 0.49257
 C443 C 0.14327 -0.10705 0.49148
 C444 C 0.14590 -0.08795 0.51173
 C445 C 0.13109 -0.09084 0.53324
 C446 C 0.11347 -0.11258 0.53432
 C447 C 0.16297 -0.06492 0.50992
 C448 C 0.17688 -0.04542 0.50804
 H449 H 0.12348 -0.14323 0.47661
 H450 H 0.15454 -0.10495 0.47472
 H451 H 0.13289 -0.07614 0.54895
 H452 H 0.10183 -0.11443 0.55085
 C453 C 0.66868 0.42475 0.97597
 C454 C 0.65101 0.40822 0.97644
 C455 C 0.62948 0.38907 0.97758
 C456 C 0.63081 0.36983 0.99591
 C457 C 0.60923 0.35227 0.99819
 C458 C 0.58625 0.35391 0.98216
 C459 C 0.58506 0.37290 0.96356
 C460 C 0.60664 0.39045 0.96128
 C461 C 0.56354 0.33691 0.98564
 C462 C 0.54436 0.32308 0.98904
 H463 H 0.64832 0.36868 1.00872
 H464 H 0.61032 0.33774 1.01272
 H465 H 0.56735 0.37441 0.95115
 H466 H 0.60535 0.40535 0.94714
 C467 C 0.47954 0.09429 1.17125
 C468 C 0.48043 0.10922 1.15392
 C469 C 0.48185 0.12628 1.13263
 C470 C 0.46202 0.12440 1.11234
 C471 C 0.46428 0.13964 1.09071
 C472 C 0.48637 0.15682 1.08928
 C473 C 0.50599 0.15901 1.10977
 C474 C 0.50374 0.14377 1.13139
 C475 C 0.48954 0.17119 1.06628
 C476 C 0.49261 0.18275 1.04678
 H477 H 0.44509 0.11083 1.11302
 H478 H 0.44905 0.13769 1.07493
 H479 H 0.52322 0.17213 1.10880
 H480 H 0.51926 0.14526 1.14689
 C481 C -0.01886 0.67190 0.59458
 C482 C -0.01802 0.65457 0.60952
 C483 C -0.01667 0.63327 0.62659
 C484 C 0.00568 0.63125 0.64342
 C485 C 0.00779 0.60957 0.65863
 C486 C -0.01243 0.58981 0.65706
 C487 C -0.03498 0.59204 0.64055
 C488 C -0.03709 0.61373 0.62535
 C489 C -0.00948 0.56672 0.67138
 C490 C -0.00659 0.54716 0.68290
 H491 H 0.02165 0.64616 0.64442
 H492 H 0.02537 0.60798 0.67123
 H493 H -0.05068 0.57683 0.63909
 H494 H -0.05439 0.61501 0.61228
 C495 C 0.51603 0.90637 -0.17065
 C496 C 0.51555 0.89123 -0.15348
 C497 C 0.51464 0.87394 -0.13234
 C498 C 0.53533 0.87500 -0.11297
 C499 C 0.53360 0.85965 -0.09137
 C500 C 0.51117 0.84318 -0.08905
 C501 C 0.49068 0.84177 -0.10865
 C502 C 0.49241 0.85713 -0.13025
 C503 C 0.50858 0.82879 -0.06597
 C504 C 0.50599 0.81725 -0.04639
 H505 H 0.55254 0.88806 -0.11431
 H506 H 0.54950 0.86099 -0.07626
 H507 H 0.47319 0.82920 -0.10699
 H508 H 0.47623 0.85628 -0.14503
 C509 C 1.01431 0.32843 0.40696
 C510 C 1.01389 0.34551 0.39171
 C511 C 1.01309 0.36654 0.37428
 C512 C 1.03458 0.38474 0.37416
 C513 C 1.03311 0.40627 0.35866
 C514 C 1.01014 0.40969 0.34322
 C515 C 0.98881 0.39124 0.34299
 C516 C 0.99028 0.36972 0.35849
 C517 C 1.00793 0.43275 0.32870
 C518 C 1.00567 0.45234 0.31706
 H519 H 1.05225 0.38256 0.38642
 H520 H 1.04966 0.42048 0.35909
 H521 H 0.97091 0.39376 0.33122
 H522 H 0.97350 0.35585 0.35855
 C523 C 0.47876 0.91870 0.16939
 C524 C 0.47867 0.90223 0.15217
 C525 C 0.47919 0.88331 0.13104
 C526 C 0.49902 0.86608 0.13117
 C527 C 0.50076 0.84910 0.10970
 C528 C 0.48270 0.84929 0.08800
 C529 C 0.46258 0.86618 0.08807
 C530 C 0.46084 0.88316 0.10955
 C531 C 0.48567 0.83322 0.06517
 C532 C 0.48869 0.82029 0.04583
 H533 H 0.51342 0.86615 0.14761
 H534 H 0.51648 0.83623 0.10979
 H535 H 0.44860 0.86659 0.07134
 H536 H 0.44553 0.89652 0.10917
 C537 C 0.02457 0.33112 0.58295
 C538 C 0.02433 0.34862 0.59906
 C539 C 0.02342 0.37001 0.61760
 C540 C 0.00449 0.36926 0.63571
 C541 C 0.00234 0.39082 0.65245
 C542 C 0.01910 0.41323 0.65113
 C543 C 0.03833 0.41381 0.63333
 C544 C 0.04048 0.39225 0.61660
 C545 C 0.01568 0.43603 0.66707
 C546 C 0.01228 0.45530 0.67993
 H547 H -0.00890 0.35222 0.63654
 H548 H -0.01268 0.39021 0.66605
 H549 H 0.05130 0.43108 0.63206
 H550 H 0.05508 0.39310 0.60256
 C551 C 0.52588 0.08304 0.83122
 C552 C 0.52552 0.09909 0.84875
 C553 C 0.52443 0.11760 0.87014
 C554 C 0.54107 0.11627 0.89275
 C555 C 0.53871 0.13299 0.91428
 C556 C 0.51969 0.15110 0.91329
 C557 C 0.50335 0.15273 0.89052
 C558 C 0.50571 0.13601 0.86900
 C559 C 0.51601 0.16702 0.93603
 C560 C 0.51241 0.17988 0.95524
 H561 H 0.55550 0.10200 0.89390
 H562 H 0.55135 0.13147 0.93183
 H563 H 0.48849 0.16657 0.88960
 H564 H 0.49264 0.13710 0.85167
 C565 C 0.98047 0.66892 0.41788
 C566 C 0.98041 0.65165 0.40147
 C567 C 0.98091 0.63046 0.38262
 C568 C 0.96195 0.60955 0.38181
 C569 C 0.96358 0.58801 0.36489
 C570 C 0.98418 0.58729 0.34872
 C571 C 1.00288 0.60840 0.34920
 C572 C 1.00125 0.62994 0.36612
 C573 C 0.98694 0.56436 0.33271
 C574 C 0.98975 0.54494 0.31982
 H575 H 0.94623 0.60968 0.39461
 H576 H 0.94909 0.57173 0.36478
 H577 H 1.01897 0.60798 0.33688
 H578 H 1.01611 0.64592 0.36671
 C579 C 1.17408 0.48449 0.10187
 C580 C 1.15682 0.48462 0.11639
 C581 C 1.13551 0.48517 0.13282
 C582 C 1.11674 0.46409 0.13203
 C583 C 1.09484 0.46547 0.14633
 C584 C 1.09162 0.48795 0.16147
 C585 C 1.11063 0.50883 0.16265
 C586 C 1.13253 0.50745 0.14836
 C587 C 1.06815 0.49018 0.17458
 C588 C 1.04822 0.49249 0.18499
 H589 H 1.11876 0.44684 0.11994
 H590 H 1.08019 0.44927 0.14515
 H591 H 1.10826 0.52636 0.17419
 H592 H 1.14682 0.52394 0.14897
 C593 C 0.60427 -0.00899 0.67596
 C594 C 0.61857 -0.00839 0.65853
 C595 C 0.63470 -0.00759 0.63698
 C596 C 0.64607 0.01621 0.62973
 C597 C 0.66004 0.01728 0.60756
 C598 C 0.66268 -0.00543 0.59254
 C599 C 0.65169 -0.02929 0.60004
 C600 C 0.63772 -0.03037 0.62222
 C601 C 0.67552 -0.00403 0.56879
 C602 C 0.68574 -0.00261 0.54861
 H603 H 0.64370 0.03396 0.64090
 H604 H 0.66835 0.03586 0.60187
 H605 H 0.65351 -0.04695 0.58851
 H606 H 0.62886 -0.04884 0.62755
 C607 C -0.17456 0.51928 0.89612
 C608 C -0.15708 0.51856 0.88190
 C609 C -0.13552 0.51739 0.86585
 C610 C -0.13321 0.49520 0.84994
 C611 C -0.11117 0.49320 0.83595
 C612 C -0.09135 0.51337 0.83782
 C613 C -0.09389 0.53576 0.85336
 C614 C -0.11592 0.53776 0.86735
 C615 C -0.06785 0.51049 0.82493
 C616 C -0.04793 0.50767 0.81466
 H617 H -0.14816 0.47926 0.84878
 H618 H -0.10935 0.47574 0.82410
 H619 H -0.07862 0.55141 0.85505
 H620 H -0.11743 0.55493 0.87973
 C621 C 0.39652 0.00408 0.32451
 C622 C 0.38219 0.00402 0.34191
 C623 C 0.36598 0.00381 0.36341
 C624 C 0.35528 -0.01982 0.37175
 C625 C 0.34117 -0.02024 0.39384
 C626 C 0.33771 0.00297 0.40769
 C627 C 0.34804 0.02665 0.39911
 C628 C 0.36215 0.02707 0.37701
 C629 C 0.32470 0.00231 0.43137
 C630 C 0.31435 0.00149 0.45152
 H631 H 0.35827 -0.03793 0.36148
 H632 H 0.33338 -0.03867 0.40038
 H633 H 0.34559 0.04469 0.40975
 H634 H 0.37049 0.04543 0.37083
 C635 C 0.16904 0.47753 0.92634
 C636 C 0.15138 0.47795 0.90966
 C637 C 0.12987 0.47897 0.89032
 C638 C 0.10754 0.46195 0.89099
 C639 C 0.08594 0.46405 0.87325
 C640 C 0.08659 0.48318 0.85478
 C641 C 0.10907 0.49995 0.85386
 C642 C 0.13067 0.49785 0.87159
 C643 C 0.06382 0.48641 0.83760
 C644 C 0.04459 0.48959 0.82359
 H645 H 0.10666 0.44737 0.90547
 H646 H 0.06862 0.45106 0.87422
 H647 H 0.10974 0.51490 0.83973
 H648 H 0.14778 0.51121 0.87099
 C649 C 0.57330 0.01364 0.32897
 C650 C 0.59002 0.01366 0.34663
 C651 C 0.60942 0.01331 0.36818
 C652 C 0.62411 -0.00832 0.37131
 C653 C 0.64189 -0.00934 0.39305
 C654 C 0.64506 0.01127 0.41176
 C655 C 0.63062 0.03306 0.40846
 C656 C 0.61283 0.03407 0.38671
 C657 C 0.66233 0.00959 0.43479
 C658 C 0.67643 0.00782 0.45428
 H659 H 0.62153 -0.02454 0.35717
 H660 H 0.65288 -0.02632 0.39547
 H661 H 0.63284 0.04905 0.42285
 H662 H 0.60147 0.05083 0.38454
 C663 C 0.83094 0.51769 0.07256
 C664 C 0.84837 0.51754 0.08950
 C665 C 0.86969 0.51685 0.10911
 C666 C 0.89065 0.53579 0.11027
 C667 C 0.91221 0.53412 0.12816
 C668 C 0.91289 0.51350 0.14496
 C669 C 0.89175 0.49478 0.14408
 C670 C 0.87019 0.49645 0.12619
 C671 C 0.93575 0.51084 0.16222
 C672 C 0.95510 0.50817 0.17624
 H673 H 0.89053 0.55156 0.09705
 H674 H 0.92851 0.54863 0.12859
 H675 H 0.89213 0.47868 0.15690
 H676 H 0.85416 0.48161 0.12536
 C677 C 0.42712 -0.00988 0.67114
 C678 C 0.41011 -0.01022 0.65371
 C679 C 0.39044 -0.01024 0.63237
 C680 C 0.38544 -0.03212 0.61534
 C681 C 0.36752 -0.03154 0.59364
 C682 C 0.35454 -0.00907 0.58888
 C683 C 0.35925 0.01268 0.60612
 C684 C 0.37717 0.01210 0.62782
 C685 C 0.33726 -0.00789 0.56578
 C686 C 0.32320 -0.00655 0.54618
 H687 H 0.39570 -0.04945 0.61860
 H688 H 0.36410 -0.04842 0.58037
 H689 H 0.34940 0.03020 0.60257
 H690 H 0.38099 0.02918 0.64078
   
