data_POSCAR
  _audit_creation_date              2014-09-24
  _audit_creation_method            'ToBaCCo'
  _symmetry_space_group_name_H-M    'P1'
  _symmetry_Int_Tables_number       1
  _symmetry_cell_setting            triclinic
  loop_
  _symmetry_equiv_pos_as_xyz
 x,y,z
_cell_length_a 50.4206
_cell_length_b 49.0608
_cell_length_c 49.7404
_cell_angle_alpha 89.377200
_cell_angle_beta 90.487700
_cell_angle_gamma 89.687300
loop_
  _atom_site_label
  _atom_site_type_symbol
  _atom_site_fract_x
  _atom_site_fract_y
  _atom_site_fract_z
N1 N 0.30365 0.38733 1.36187
 N2 N 0.30058 0.36529 1.37670
 C3 C 0.27894 0.36839 1.39211
 C4 C 0.26794 0.39398 1.38693
 C5 C 0.28436 0.40536 1.36758
 H6 H 0.27221 0.35342 1.40655
 H7 H 0.28225 0.42504 1.35784
 Cu8 Cu 0.32627 0.33554 1.37561
 Cu9 Cu 0.33163 0.39053 1.33529
 Cu10 Cu 0.37713 0.33736 1.33230
 N11 N 0.35225 0.30610 1.37412
 N12 N 0.37244 0.30713 1.35765
 C13 C 0.38786 0.28490 1.36166
 C14 C 0.37677 0.26888 1.38186
 C15 C 0.35408 0.28318 1.38913
 H16 H 0.40581 0.28088 1.35066
 H17 H 0.34012 0.27775 1.40460
 N18 N 0.37840 0.36969 1.30836
 N19 N 0.36115 0.38994 1.30962
 C20 C 0.36646 0.40825 1.29007
 C21 C 0.38812 0.39917 1.27566
 C22 C 0.39517 0.37464 1.28796
 H23 H 0.35480 0.42639 1.28605
 H24 H 0.41103 0.36107 1.28222
 H25 H 0.33772 0.34911 1.32997
 H26 H 0.35882 0.36612 1.35580
 N27 N 1.22164 0.64186 0.85209
 N28 N 1.21713 0.65457 0.87471
 C29 C 1.23785 0.65029 0.89160
 C30 C 1.25635 0.63406 0.87873
 C31 C 1.24526 0.62918 0.85371
 H32 H 1.23925 0.65821 0.91176
 H33 H 1.25326 0.61640 0.83816
 Cu34 Cu 1.18419 0.67469 0.87996
 Cu35 Cu 1.19573 0.64011 0.82315
 Cu36 Cu 1.13850 0.67837 0.82974
 N37 N 1.15484 0.70064 0.88036
 N38 N 1.13676 0.70151 0.86121
 C39 C 1.11919 0.72147 0.86643
 C40 C 1.12669 0.73415 0.89016
 C41 C 1.14951 0.72016 0.89835
 H42 H 1.10278 0.72685 0.85329
 H43 H 1.16171 0.72397 0.91585
 N44 N 1.14471 0.65396 0.79919
 N45 N 1.16720 0.64055 0.79607
 C46 C 1.16602 0.62653 0.77299
 C47 C 1.14155 0.63112 0.76110
 C48 C 1.12847 0.64856 0.77828
 H49 H 1.18147 0.61320 0.76575
 H50 H 1.10869 0.65683 0.77558
 H51 H 1.17933 0.67807 0.83139
 H52 H 1.16206 0.64752 0.84564
 N53 N 0.69967 -0.12788 0.13859
 N54 N 0.69697 -0.14739 0.12090
 C55 C 0.71691 -0.14585 0.10310
 C56 C 0.73306 -0.12424 0.11000
 C57 C 0.72145 -0.11332 0.13268
 H58 H 0.71976 -0.15973 0.08664
 H59 H 0.72820 -0.09595 0.14397
 Cu60 Cu 0.66810 -0.17343 0.12306
 Cu61 Cu 0.67484 -0.12290 0.16800
 Cu62 Cu 0.62375 -0.16963 0.17304
 N63 N 0.63992 -0.20007 0.12706
 N64 N 0.62253 -0.19846 0.14646
 C65 C 0.60558 -0.21949 0.14464
 C66 C 0.61273 -0.23542 0.12287
 C67 C 0.63472 -0.22225 0.11227
 H68 H 0.58950 -0.22297 0.15845
 H69 H 0.64628 -0.22824 0.09513
 N70 N 0.62823 -0.13911 0.19808
 N71 N 0.64766 -0.12131 0.19631
 C72 C 0.64544 -0.10336 0.21654
 C73 C 0.62358 -0.11025 0.23187
 C74 C 0.61319 -0.13300 0.21942
 H75 H 0.65898 -0.08676 0.22011
 H76 H 0.59586 -0.14432 0.22539
 H77 H 0.66435 -0.16348 0.17083
 H78 H 0.64277 -0.14085 0.14945
 N79 N -0.20218 1.11823 -0.36964
 N80 N -0.19839 1.13583 -0.38932
 C81 C -0.21672 1.13190 -0.40870
 C82 C -0.23307 1.11071 -0.40083
 C83 C -0.22309 1.10249 -0.37589
 H84 H -0.21844 1.14405 -0.42688
 H85 H -0.23098 1.08694 -0.36271
 Cu86 Cu -0.17140 1.16379 -0.38688
 Cu87 Cu -0.18105 1.11845 -0.33646
 Cu88 Cu -0.13458 1.17009 -0.33099
 N89 N -0.14427 1.19164 -0.38398
 N90 N -0.13089 1.19476 -0.36149
 C91 C -0.11460 1.21619 -0.36405
 C92 C -0.11766 1.22720 -0.38973
 C93 C -0.13670 1.21087 -0.40181
 H94 H -0.10119 1.22277 -0.34841
 H95 H -0.14500 1.21318 -0.42182
 N96 N -0.14084 1.14307 -0.30239
 N97 N -0.15767 1.12268 -0.30459
 C98 C -0.15608 1.10716 -0.28201
 C99 C -0.13755 1.11863 -0.26481
 C100 C -0.12836 1.14126 -0.27848
 H101 H -0.16768 1.08908 -0.27823
 H102 H -0.11313 1.15506 -0.27171
 H103 H -0.17394 1.15958 -0.33806
 H104 H -0.14810 1.13682 -0.35260
 N105 N 0.70320 0.62982 0.64149
 N106 N 0.69621 0.64258 0.61918
 C107 C 0.71566 0.63978 0.60099
 C108 C 0.73597 0.62429 0.61253
 C109 C 0.72726 0.61848 0.63832
 H110 H 0.71480 0.64798 0.58074
 H111 H 0.73743 0.60660 0.65367
 Cu112 Cu 0.66210 0.66101 0.61581
 Cu113 Cu 0.67998 0.62704 0.67238
 Cu114 Cu 0.62261 0.66572 0.67009
 N115 N 0.63293 0.68698 0.61725
 N116 N 0.61792 0.68913 0.63860
 C117 C 0.60025 0.70945 0.63458
 C118 C 0.60430 0.72055 0.60925
 C119 C 0.62519 0.70573 0.59881
 H120 H 0.58562 0.71574 0.64905
 H121 H 0.63464 0.70893 0.57961
 N122 N 0.63138 0.64073 0.70013
 N123 N 0.65379 0.62675 0.70145
 C124 C 0.65421 0.61178 0.72430
 C125 C 0.63082 0.61632 0.73787
 C126 C 0.61679 0.63478 0.72195
 H127 H 0.66992 0.59781 0.73018
 H128 H 0.59739 0.64321 0.72598
 H129 H 0.64403 0.63432 0.65294
 H130 H 0.66306 0.66489 0.66437
 N131 N 0.80688 0.37593 0.15148
 N132 N 0.80736 0.35634 0.13365
 C133 C 0.78830 0.36107 0.11506
 C134 C 0.77534 0.38501 0.12140
 C135 C 0.78773 0.39400 0.14458
 H136 H 0.78397 0.34797 0.09826
 H137 H 0.78244 0.41172 0.15616
 Cu138 Cu 0.83210 0.32597 0.13646
 Cu139 Cu 0.82939 0.37513 0.18354
 Cu140 Cu 0.87047 0.31880 0.19163
 N141 N 0.85556 0.29474 0.14159
 N142 N 0.86984 0.29165 0.16363
 C143 C 0.88395 0.26839 0.16220
 C144 C 0.87841 0.25631 0.13784
 C145 C 0.86030 0.27360 0.12524
 H146 H 0.89789 0.26123 0.17738
 H147 H 0.85123 0.27089 0.10568
 N148 N 0.86868 0.34832 0.21782
 N149 N 0.85358 0.37018 0.21467
 C150 C 0.85739 0.38668 0.23588
 C151 C 0.87569 0.37445 0.25321
 C152 C 0.88240 0.35025 0.24098
 H153 H 0.84736 0.40595 0.23871
 H154 H 0.89662 0.33529 0.24821
 H155 H 0.85945 0.35197 0.16763
 H156 H 0.83207 0.33326 0.18482
 N157 N 0.28810 0.13145 0.84717
 N158 N 0.28897 0.15086 0.86518
 C159 C 0.26973 0.14641 0.88342
 C160 C 0.25658 0.12269 0.87660
 C161 C 0.26881 0.11380 0.85355
 H162 H 0.26587 0.15907 0.90063
 H163 H 0.26371 0.09598 0.84203
 Cu164 Cu 0.31610 0.17914 0.86322
 Cu165 Cu 0.31123 0.13061 0.81618
 Cu166 Cu 0.35790 0.18171 0.81074
 N167 N 0.34256 0.20793 0.85977
 N168 N 0.35813 0.20913 0.83871
 C169 C 0.37394 0.23101 0.84068
 C170 C 0.36831 0.24416 0.86439
 C171 C 0.34835 0.22890 0.87612
 H172 H 0.38890 0.23663 0.82622
 H173 H 0.33863 0.23301 0.89496
 N174 N 0.35459 0.15213 0.78447
 N175 N 0.33627 0.13309 0.78619
 C176 C 0.33854 0.11630 0.76510
 C177 C 0.35951 0.12495 0.74957
 C178 C 0.36931 0.14764 0.76246
 H179 H 0.32628 0.09867 0.76154
 H180 H 0.38578 0.16007 0.75605
 H181 H 0.34281 0.15051 0.83399
 H182 H 0.31836 0.17212 0.81486
 N183 N 0.20028 0.86814 0.34732
 N184 N 0.19531 0.85921 0.37176
 C185 C 0.21524 0.86633 0.38831
 C186 C 0.23396 0.88010 0.37332
 C187 C 0.22392 0.88077 0.34732
 H188 H 0.21650 0.86102 0.40944
 H189 H 0.23295 0.88995 0.32981
 Cu190 Cu 0.16463 0.83697 0.37928
 Cu191 Cu 0.17545 0.86264 0.31764
 Cu192 Cu 0.11419 0.83630 0.33538
 N193 N 0.13811 0.80849 0.38027
 N194 N 0.11816 0.80814 0.36313
 C195 C 0.10316 0.78607 0.36820
 C196 C 0.11452 0.77170 0.38958
 C197 C 0.13664 0.78669 0.39673
 H198 H 0.08576 0.78058 0.35666
 H199 H 0.15074 0.78216 0.41266
 N200 N 0.12002 0.85658 0.30176
 N201 N 0.14350 0.86569 0.29448
 C202 C 0.14088 0.87933 0.27096
 C203 C 0.11445 0.87887 0.26317
 C204 C 0.10185 0.86414 0.28318
 H205 H 0.15680 0.88998 0.26098
 H206 H 0.08096 0.85949 0.28435
 H207 H 0.14449 0.86477 0.34378
 H208 H 0.15333 0.82984 0.33206
 Zn209 Zn -0.00330 1.03333 -0.02039
 Zn210 Zn -0.02605 0.97685 -0.02232
 Zn211 Zn 0.02982 0.98632 -0.00262
 Zn212 Zn -0.01542 1.00421 0.03043
 O213 O -0.00382 1.00006 -0.00383
 O214 O -0.02341 1.03425 -0.04993
 O215 O -0.00876 0.94685 -0.03403
 O216 O 0.05387 1.00851 -0.01752
 O217 O -0.04078 0.99297 -0.05177
 O218 O 0.02924 1.04385 -0.03017
 O219 O 0.03213 0.95477 -0.01958
 O220 O 0.00768 0.99241 0.05543
 O221 O -0.05349 0.96489 -0.00193
 O222 O 0.04153 0.97915 0.03085
 O223 O -0.04468 0.98550 0.03641
 O224 O -0.02375 1.03863 0.03845
 O225 O -0.01584 1.06000 0.00009
 C226 C -0.03833 1.01700 -0.06127
 C227 C 0.01549 0.93981 -0.03164
 C228 C 0.05166 1.03209 -0.02808
 C229 C 0.03068 0.98205 0.05357
 C230 C -0.05917 0.97002 0.02240
 C231 C -0.02381 1.06022 0.02419
 Zn232 Zn 0.48899 -0.03638 0.48326
 Zn233 Zn 0.50870 -0.00730 0.53109
 Zn234 Zn 0.51710 0.01703 0.47589
 Zn235 Zn 0.46266 0.01440 0.50084
 O236 O 0.49447 -0.00294 0.49763
 O237 O 0.49935 -0.06395 0.50487
 O238 O 0.54080 0.00667 0.53310
 O239 O 0.52727 -0.00166 0.44623
 O240 O 0.51268 -0.04216 0.54113
 O241 O 0.50649 -0.04068 0.45295
 O242 O 0.54768 0.02597 0.49334
 O243 O 0.46186 0.04524 0.48195
 O244 O 0.49013 0.00888 0.55696
 O245 O 0.50168 0.04848 0.46374
 O246 O 0.45501 0.02403 0.53451
 O247 O 0.43518 -0.00521 0.48912
 O248 O 0.45507 -0.04257 0.47487
 C249 C 0.50877 -0.06416 0.52860
 C250 C 0.55549 0.01986 0.51708
 C251 C 0.52158 -0.02575 0.43893
 C252 C 0.47843 0.05795 0.46748
 C253 C 0.46802 0.02130 0.55630
 C254 C 0.43426 -0.02844 0.47824
 Zn255 Zn 1.00745 0.46633 0.49550
 Zn256 Zn 1.03686 0.51549 0.51313
 Zn257 Zn 0.98125 0.52130 0.49127
 Zn258 Zn 0.99154 0.49480 0.54491
 O259 O 1.00425 0.49957 0.51111
 O260 O 1.04092 0.45793 0.48698
 O261 O 1.03787 0.54666 0.49453
 O262 O 0.96853 0.50427 0.46200
 O263 O 1.06285 0.49459 0.49980
 O264 O 0.98842 0.46406 0.46531
 O265 O 0.99691 0.55183 0.47889
 O266 O 0.96056 0.51128 0.54915
 O267 O 1.04646 0.52430 0.54688
 O268 O 0.95253 0.53193 0.51018
 O269 O 1.01243 0.50887 0.57012
 O270 O 0.98594 0.45991 0.55398
 O271 O 0.99612 0.43899 0.51631
 C272 C 1.06242 0.47104 0.48944
 C273 C 1.02062 0.56022 0.48122
 C274 C 0.97281 0.48047 0.45312
 C275 C 0.94589 0.52616 0.53418
 C276 C 1.03449 0.52109 0.56905
 C277 C 0.98770 0.43835 0.54025
 Zn278 Zn 0.51249 0.45813 1.01425
 Zn279 Zn 0.49071 0.51460 1.02339
 Zn280 Zn 0.54182 0.50616 0.99383
 Zn281 Zn 0.49126 0.49002 0.96815
 O282 O 0.50898 0.49233 1.00003
 O283 O 0.49816 0.45577 1.04656
 O284 O 0.50997 0.54398 1.03345
 O285 O 0.56800 0.48416 1.00517
 O286 O 0.48147 0.49680 1.05404
 O287 O 0.54632 0.44765 1.01905
 O288 O 0.54695 0.53732 1.01079
 O289 O 0.50993 0.50207 0.94012
 O290 O 0.46051 0.52841 1.00845
 O291 O 0.54787 0.51375 0.95913
 O292 O 0.46217 0.51034 0.96793
 O293 O 0.48062 0.45620 0.96024
 O294 O 0.49633 0.43239 0.99485
 C295 C 0.48587 0.47227 1.06152
 C296 C 0.53309 0.55151 1.02660
 C297 C 0.56786 0.46037 1.01540
 C298 C 0.53313 0.51177 0.93845
 C299 C 0.45092 0.52553 0.98490
 C300 C 0.48339 0.43373 0.97287
 C301 C 1.21716 0.44550 0.40667
 C302 C 1.19988 0.43002 0.42297
 C303 C 1.20534 0.40181 0.42612
 C304 C 1.22807 0.39017 0.41467
 C305 C 1.24531 0.40583 0.39874
 C306 C 1.23923 0.43357 0.39467
 C307 C 1.18794 0.38523 0.44046
 C308 C 1.16476 0.39586 0.45114
 C309 C 1.15849 0.42387 0.44868
 C310 C 1.17706 0.44143 0.43566
 C311 C 1.17250 0.46984 0.43624
 C312 C 1.15006 0.48068 0.44819
 C313 C 1.13083 0.46370 0.45925
 C314 C 1.13449 0.43501 0.45924
 C315 C 1.11360 0.41865 0.46919
 C316 C 1.09036 0.43041 0.47896
 C317 C 1.08731 0.45876 0.47966
 C318 C 1.10774 0.47530 0.46998
 H319 H 1.21377 0.46678 0.40215
 H320 H 1.23169 0.36858 0.41765
 H321 H 1.25171 0.44653 0.38250
 H322 H 1.19205 0.36365 0.44309
 H323 H 1.15248 0.38169 0.46200
 H324 H 1.18641 0.48437 0.42828
 H325 H 1.14750 0.50263 0.44833
 H326 H 1.11424 0.39671 0.46887
 H327 H 1.07469 0.41723 0.48608
 H328 H 1.10527 0.49727 0.46996
 C329 C 0.32333 0.59919 0.88092
 C330 C 0.32877 0.59662 0.90878
 C331 C 0.31066 0.60879 0.92677
 C332 C 0.28732 0.62152 0.91702
 C333 C 0.28169 0.62260 0.88934
 C334 C 0.30025 0.61183 0.87152
 C335 C 0.31582 0.60795 0.95438
 C336 C 0.33857 0.59529 0.96462
 C337 C 0.35691 0.58231 0.94760
 C338 C 0.35155 0.58249 0.91926
 C339 C 0.36875 0.56793 0.90231
 C340 C 0.39072 0.55419 0.91244
 C341 C 0.39670 0.55449 0.93979
 C342 C 0.38018 0.56868 0.95789
 C343 C 0.38788 0.56861 0.98542
 C344 C 0.41075 0.55472 0.99436
 C345 C 0.42655 0.54036 0.97625
 C346 C 0.41929 0.54048 0.94901
 H347 H 0.33657 0.59192 0.86569
 H348 H 0.27330 0.63001 0.93107
 H349 H 0.29706 0.61313 0.85000
 H350 H 0.30210 0.61724 0.96827
 H351 H 0.34093 0.59550 0.98615
 H352 H 0.36550 0.56609 0.88100
 H353 H 0.40324 0.54317 0.89860
 H354 H 0.37688 0.57934 1.00050
 H355 H 0.41602 0.55519 1.01550
 H356 H 0.43148 0.52979 0.93463
 C357 C -0.21392 0.88593 0.05706
 C358 C -0.19538 0.90290 0.07027
 C359 C -0.20094 0.91028 0.09715
 C360 C -0.22420 0.90146 0.10980
 C361 C -0.24242 0.88492 0.09636
 C362 C -0.23694 0.87713 0.06995
 C363 C -0.18332 0.92647 0.11143
 C364 C -0.16010 0.93559 0.09980
 C365 C -0.15350 0.92900 0.07308
 C366 C -0.17160 0.91273 0.05790
 C367 C -0.16546 0.90717 0.03082
 C368 C -0.14250 0.91709 0.01897
 C369 C -0.12449 0.93266 0.03358
 C370 C -0.12957 0.93854 0.06096
 C371 C -0.11037 0.95377 0.07511
 C372 C -0.08776 0.96343 0.06245
 C373 C -0.08308 0.95829 0.03523
 C374 C -0.10147 0.94257 0.02093
 H375 H -0.21121 0.87891 0.03683
 H376 H -0.22788 0.90730 0.13038
 H377 H -0.25062 0.86438 0.05897
 H378 H -0.18751 0.93222 0.13196
 H379 H -0.14794 0.94822 0.11236
 H380 H -0.17824 0.89547 0.01797
 H381 H -0.13880 0.91248 -0.00194
 H382 H -0.11198 0.95857 0.09608
 H383 H -0.07385 0.97518 0.07425
 H384 H -0.09801 0.93824 -0.00008
 C385 C 0.70957 0.10540 0.54942
 C386 C 0.69561 0.08236 0.55902
 C387 C 0.70617 0.06850 0.58193
 C388 C 0.72955 0.07747 0.59447
 C389 C 0.74290 0.10056 0.58496
 C390 C 0.73271 0.11425 0.56219
 C391 C 0.69327 0.04583 0.59247
 C392 C 0.66957 0.03698 0.58143
 C393 C 0.65770 0.05047 0.55912
 C394 C 0.67138 0.07292 0.54710
 C395 C 0.66035 0.08512 0.52365
 C396 C 0.63639 0.07634 0.51282
 C397 C 0.62217 0.05538 0.52506
 C398 C 0.63258 0.04221 0.54845
 C399 C 0.61705 0.02169 0.56063
 C400 C 0.59245 0.01463 0.55007
 C401 C 0.58222 0.02755 0.52692
 C402 C 0.59735 0.04776 0.51428
 H403 H 0.70294 0.11744 0.53240
 H404 H 0.73715 0.06643 0.61187
 H405 H 0.74231 0.13224 0.55427
 H406 H 0.70144 0.03492 0.60975
 H407 H 0.66121 0.01919 0.59084
 H408 H 0.66988 0.10150 0.51295
 H409 H 0.62870 0.08640 0.49484
 H410 H 0.62290 0.01100 0.57875
 H411 H 0.58130 -0.00113 0.56031
 H412 H 0.58956 0.05805 0.49647
 C413 C 0.38115 0.20567 0.42404
 C414 C 0.40558 0.19402 0.41625
 C415 C 0.42044 0.20814 0.39653
 C416 C 0.41081 0.23267 0.38499
 C417 C 0.38642 0.24403 0.39298
 C418 C 0.37189 0.23003 0.41268
 C419 C 0.44494 0.19780 0.38849
 C420 C 0.45518 0.17381 0.39968
 C421 C 0.44115 0.15888 0.41932
 C422 C 0.41575 0.16900 0.42746
 C423 C 0.40123 0.15369 0.44642
 C424 C 0.41112 0.12959 0.45730
 C425 C 0.43590 0.11967 0.44995
 C426 C 0.45148 0.13406 0.43100
 C427 C 0.47670 0.12287 0.42473
 C428 C 0.48565 0.09838 0.43660
 C429 C 0.46984 0.08423 0.45501
 C430 C 0.44503 0.09521 0.46157
 H431 H 0.36859 0.19674 0.43909
 H432 H 0.42269 0.24291 0.36999
 H433 H 0.35302 0.23758 0.41961
 H434 H 0.45644 0.20846 0.37341
 H435 H 0.47418 0.16736 0.39227
 H436 H 0.38186 0.15954 0.45325
 H437 H 0.39914 0.11856 0.47174
 H438 H 0.49003 0.13252 0.41082
 H439 H 0.50494 0.09043 0.43119
 H440 H 0.43256 0.08465 0.47591
 C441 C 0.90582 0.27898 0.56060
 C442 C 0.92165 0.29619 0.57667
 C443 C 0.92358 0.29009 0.60451
 C444 C 0.91112 0.26697 0.61534
 C445 C 0.89545 0.24996 0.59915
 C446 C 0.89289 0.25649 0.57169
 C447 C 0.93763 0.30731 0.62155
 C448 C 0.94907 0.33106 0.61176
 C449 C 0.94760 0.33812 0.58420
 C450 C 0.93497 0.31961 0.56619
 C451 C 0.93638 0.32491 0.53830
 C452 C 0.94854 0.34818 0.52836
 C453 C 0.95911 0.36744 0.54577
 C454 C 0.95857 0.36294 0.57396
 C455 C 0.96826 0.38391 0.59072
 C456 C 0.97800 0.40819 0.57979
 C457 C 0.97887 0.41218 0.55191
 C458 C 0.96971 0.39154 0.53503
 H459 H 0.90232 0.28275 0.53948
 H460 H 0.91309 0.26296 0.63670
 H461 H 0.88108 0.24414 0.55833
 H462 H 0.93938 0.30265 0.64285
 H463 H 0.95957 0.34319 0.62626
 H464 H 0.92880 0.31104 0.52349
 H465 H 0.94914 0.35141 0.50677
 H466 H 0.96770 0.38263 0.61234
 H467 H 0.98475 0.42400 0.59323
 H468 H 0.96983 0.39469 0.51342
 C469 C 0.11526 0.79216 -0.06340
 C470 C 0.09206 0.80455 -0.07422
 C471 C 0.07958 0.79169 -0.09626
 C472 C 0.09092 0.76836 -0.10782
 C473 C 0.11465 0.75689 -0.09757
 C474 C 0.12623 0.76890 -0.07484
 C475 C 0.05589 0.80224 -0.10682
 C476 C 0.04429 0.82544 -0.09611
 C477 C 0.05631 0.83951 -0.07465
 C478 C 0.08088 0.82916 -0.06388
 C479 C 0.09388 0.84414 -0.04367
 C480 C 0.08329 0.86822 -0.03408
 C481 C 0.05916 0.87825 -0.04389
 C482 C 0.04498 0.86396 -0.06397
 C483 C 0.02010 0.87489 -0.07241
 C484 C 0.01030 0.89925 -0.06178
 C485 C 0.02497 0.91358 -0.04260
 C486 C 0.04930 0.90276 -0.03368
 H487 H 0.12539 0.79970 -0.04589
 H488 H 0.08098 0.75928 -0.12485
 H489 H 0.14415 0.76071 -0.06575
 H490 H 0.04614 0.79242 -0.12361
 H491 H 0.02614 0.83224 -0.10563
 H492 H 0.11280 0.83826 -0.03522
 H493 H 0.09421 0.87916 -0.01877
 H494 H 0.00761 0.86505 -0.08700
 H495 H -0.00868 0.90705 -0.06884
 H496 H 0.06066 0.91340 -0.01849
 C497 C 0.56610 0.70582 1.11718
 C498 C 0.57655 0.69125 1.09523
 C499 C 0.59964 0.70176 1.08294
 C500 C 0.61127 0.72596 1.09200
 C501 C 0.60069 0.74035 1.11375
 C502 C 0.57796 0.72980 1.12621
 C503 C 0.61122 0.68810 1.06159
 C504 C 0.60072 0.66389 1.05231
 C505 C 0.57787 0.65231 1.06390
 C506 C 0.56512 0.66658 1.08522
 C507 C 0.54129 0.65585 1.09555
 C508 C 0.53048 0.63186 1.08576
 C509 C 0.54311 0.61725 1.06563
 C510 C 0.56716 0.62708 1.05462
 C511 C 0.57968 0.61102 1.03493
 C512 C 0.56851 0.58675 1.02622
 C513 C 0.54446 0.57735 1.03667
 C514 C 0.53185 0.59276 1.05647
 H515 H 0.54896 0.69911 1.12813
 H516 H 0.62885 0.73322 1.08196
 H517 H 0.56901 0.73993 1.14308
 H518 H 0.62877 0.69616 1.05196
 H519 H 0.61088 0.65502 1.03557
 H520 H 0.53015 0.66578 1.11104
 H521 H 0.51207 0.62456 1.09424
 H522 H 0.59836 0.61631 1.02602
 H523 H 0.57890 0.57529 1.01103
 H524 H 0.51337 0.58561 1.06493
 C525 C 0.40239 0.44996 1.21943
 C526 C 0.42072 0.43568 1.20330
 C527 C 0.42865 0.40927 1.21215
 C528 C 0.41836 0.39778 1.23582
 C529 C 0.39986 0.41199 1.25129
 C530 C 0.39222 0.43828 1.24290
 C531 C 0.44668 0.39421 1.19725
 C532 C 0.45676 0.40444 1.17338
 C533 C 0.44918 0.43038 1.16326
 C534 C 0.43119 0.44648 1.17867
 C535 C 0.42419 0.47270 1.16883
 C536 C 0.43398 0.48272 1.14465
 C537 C 0.45104 0.46709 1.12911
 C538 C 0.45892 0.44070 1.13817
 C539 C 0.47601 0.42556 1.12148
 C540 C 0.48463 0.43609 1.09700
 C541 C 0.47675 0.46211 1.08805
 C542 C 0.46006 0.47763 1.10437
 H543 H 0.39526 0.47012 1.21445
 H544 H 0.42453 0.37743 1.24183
 H545 H 0.37822 0.45005 1.25443
 H546 H 0.45299 0.37410 1.20402
 H547 H 0.47058 0.39130 1.16338
 H548 H 0.41105 0.48617 1.17935
 H549 H 0.42791 0.50293 1.13793
 H550 H 0.48296 0.40534 1.12644
 H551 H 0.49759 0.42356 1.08496
 H552 H 0.45375 0.49776 1.09766
 C553 C 0.61275 -0.05829 0.28708
 C554 C 0.59379 -0.07129 0.30368
 C555 C 0.58515 -0.09756 0.29598
 C556 C 0.59501 -0.10995 0.27280
 C557 C 0.61361 -0.09680 0.25650
 C558 C 0.62243 -0.07089 0.26398
 C559 C 0.56666 -0.11154 0.31140
 C560 C 0.55622 -0.10008 0.33432
 C561 C 0.56382 -0.07389 0.34293
 C562 C 0.58308 -0.05929 0.32751
 C563 C 0.59095 -0.03330 0.33648
 C564 C 0.58043 -0.02191 0.35960
 C565 C 0.56154 -0.03578 0.37476
 C566 C 0.55288 -0.06192 0.36656
 C567 C 0.53349 -0.07502 0.38241
 C568 C 0.52360 -0.06298 0.40545
 C569 C 0.53237 -0.03734 0.41378
 C570 C 0.55129 -0.02370 0.39816
 H571 H 0.62047 -0.03835 0.29125
 H572 H 0.58818 -0.13014 0.26769
 H573 H 0.63670 -0.06006 0.25181
 H574 H 0.56011 -0.13169 0.30566
 H575 H 0.54220 -0.11258 0.34489
 H576 H 0.60540 -0.02114 0.32608
 H577 H 0.58718 -0.00194 0.36567
 H578 H 0.52534 -0.09464 0.37772
 H579 H 0.50885 -0.07404 0.41683
 H580 H 0.55821 -0.00381 0.40430
 C581 C -0.10677 1.11929 -0.19542
 C582 C -0.10618 1.09139 -0.18790
 C583 C -0.11816 1.07257 -0.20569
 C584 C -0.12929 1.08151 -0.23037
 C585 C -0.12844 1.10910 -0.23791
 C586 C -0.11756 1.12783 -0.21996
 C587 C -0.11848 1.04489 -0.19901
 C588 C -0.10677 1.03527 -0.17530
 C589 C -0.09399 1.05302 -0.15722
 C590 C -0.09379 1.08158 -0.16361
 C591 C -0.08069 1.09936 -0.14580
 C592 C -0.06787 1.08973 -0.12287
 C593 C -0.06766 1.06206 -0.11645
 C594 C -0.08096 1.04322 -0.13318
 C595 C -0.08042 1.01538 -0.12507
 C596 C -0.06682 1.00684 -0.10175
 C597 C -0.05323 1.02562 -0.08580
 C598 C -0.05397 1.05323 -0.09329
 H599 H -0.09893 1.13520 -0.18301
 H600 H -0.13776 1.06684 -0.24409
 H601 H -0.11727 1.14938 -0.22489
 H602 H -0.12768 1.03040 -0.21243
 H603 H -0.10772 1.01359 -0.17196
 H604 H -0.07953 1.12102 -0.14910
 H605 H -0.05784 1.10421 -0.11003
 H606 H -0.09030 0.99967 -0.13622
 H607 H -0.06678 0.98540 -0.09634
 H608 H -0.04386 1.06810 -0.08096
 C609 C 1.13968 0.59976 0.69202
 C610 C 1.11243 0.59386 0.68840
 C611 C 1.09496 0.60049 0.70960
 C612 C 1.10442 0.61340 0.73282
 C613 C 1.13143 0.61897 0.73601
 C614 C 1.14894 0.61192 0.71552
 C615 C 1.06818 0.59391 0.70772
 C616 C 1.05832 0.58023 0.68555
 C617 C 1.07483 0.57313 0.66389
 C618 C 1.10205 0.58116 0.66480
 C619 C 1.11781 0.57669 0.64190
 C620 C 1.10753 0.56432 0.61912
 C621 C 1.08139 0.55521 0.61842
 C622 C 1.06483 0.55889 0.64103
 C623 C 1.03898 0.54789 0.63988
 C624 C 1.02966 0.53507 0.61681
 C625 C 1.04563 0.53272 0.59404
 C626 C 1.07164 0.54260 0.59510
 H627 H 1.15450 0.59456 0.67745
 H628 H 1.09082 0.61831 0.74885
 H629 H 1.16995 0.61594 0.71759
 H630 H 1.05470 0.59908 0.72377
 H631 H 1.03735 0.57616 0.68567
 H632 H 1.13810 0.58330 0.64062
 H633 H 1.12028 0.56169 0.60189
 H634 H 1.02552 0.54850 0.65657
 H635 H 1.00956 0.52740 0.61671
 H636 H 1.08433 0.54054 0.57774
 C637 C 0.79251 0.61587 0.56308
 C638 C 0.80875 0.59586 0.57592
 C639 C 0.80040 0.58575 0.60126
 C640 C 0.77687 0.59512 0.61287
 C641 C 0.76096 0.61482 0.59992
 C642 C 0.76907 0.62510 0.57493
 C643 C 0.81545 0.56619 0.61503
 C644 C 0.83888 0.55641 0.60443
 C645 C 0.84835 0.56578 0.57935
 C646 C 0.83287 0.58556 0.56464
 C647 C 0.84196 0.59417 0.53914
 C648 C 0.86532 0.58395 0.52839
 C649 C 0.88082 0.56501 0.54265
 C650 C 0.87269 0.55584 0.56844
 C651 C 0.88944 0.53715 0.58235
 C652 C 0.91287 0.52781 0.57103
 C653 C 0.92071 0.53660 0.54543
 C654 C 0.90452 0.55526 0.53129
 H655 H 0.79733 0.62497 0.54396
 H656 H 0.77094 0.58666 0.63207
 H657 H 0.75741 0.64049 0.56442
 H658 H 0.80905 0.55830 0.63436
 H659 H 0.84894 0.54116 0.61648
 H660 H 0.83132 0.60873 0.52675
 H661 H 0.87140 0.59111 0.50870
 H662 H 0.88533 0.52942 0.60219
 H663 H 0.92493 0.51350 0.58259
 H664 H 0.91044 0.56237 0.51153
 C665 C 0.72578 0.43699 1.09476
 C666 C 0.70733 0.42062 1.08072
 C667 C 0.71161 0.39203 1.08097
 C668 C 0.73409 0.38071 1.09371
 C669 C 0.75218 0.39725 1.10736
 C670 C 0.74770 0.42539 1.10798
 C671 C 0.69328 0.37482 1.06879
 C672 C 0.67019 0.38522 1.05714
 C673 C 0.66489 0.41350 1.05651
 C674 C 0.68446 0.43155 1.06713
 C675 C 0.68073 0.45987 1.06346
 C676 C 0.65808 0.47030 1.05098
 C677 C 0.63792 0.45304 1.04239
 C678 C 0.64079 0.42439 1.04531
 C679 C 0.61903 0.40794 1.03771
 C680 C 0.59557 0.41957 1.02763
 C681 C 0.59318 0.44783 1.02431
 C682 C 0.61460 0.46440 1.03141
 H683 H 0.72346 0.45874 1.09657
 H684 H 0.73708 0.35881 1.09366
 H685 H 0.76133 0.43856 1.11857
 H686 H 0.69658 0.35297 1.06868
 H687 H 0.65712 0.37056 1.04812
 H688 H 0.69534 0.47459 1.06946
 H689 H 0.65609 0.49221 1.04858
 H690 H 0.61909 0.38610 1.04028
 H691 H 0.57914 0.40637 1.02261
 H692 H 0.61269 0.48637 1.02948
 C693 C 0.21121 1.06760 -0.09744
 C694 C 0.19024 1.08259 -0.08581
 C695 C 0.19176 1.11146 -0.08674
 C696 C 0.21397 1.12450 -0.09791
 C697 C 0.23432 1.10922 -0.10953
 C698 C 0.23267 1.08077 -0.10925
 C699 C 0.17086 1.12717 -0.07705
 C700 C 0.14803 1.11493 -0.06727
 C701 C 0.14550 1.08628 -0.06599
 C702 C 0.16752 1.06990 -0.07412
 C703 C 0.16623 1.04142 -0.07001
 C704 C 0.14378 1.02918 -0.05951
 C705 C 0.12150 1.04466 -0.05316
 C706 C 0.12184 1.07342 -0.05654
 C707 C 0.09824 1.08796 -0.05085
 C708 C 0.07557 1.07450 -0.04188
 C709 C 0.07563 1.04618 -0.03798
 C710 C 0.09876 1.03142 -0.04358
 H711 H 0.21121 1.04569 -0.09863
 H712 H 0.21489 1.14657 -0.09858
 H713 H 0.24811 1.06856 -0.11828
 H714 H 0.17190 1.14923 -0.07756
 H715 H 0.13284 1.12857 -0.06025
 H716 H 0.18262 1.02796 -0.07413
 H717 H 0.14376 1.00724 -0.05667
 H718 H 0.09641 1.10969 -0.05369
 H719 H 0.05793 1.08639 -0.03776
 H720 H 0.09893 1.00945 -0.04095
 C721 C 0.30640 -0.10075 0.37638
 C722 C 0.30919 -0.09086 0.40291
 C723 C 0.28608 -0.08927 0.41887
 C724 C 0.26175 -0.09900 0.40915
 C725 C 0.25954 -0.10925 0.38309
 C726 C 0.28188 -0.10956 0.36664
 C727 C 0.28732 -0.07796 0.44443
 C728 C 0.31095 -0.06762 0.45443
 C729 C 0.33462 -0.06911 0.43956
 C730 C 0.33396 -0.08211 0.41395
 C731 C 0.35814 -0.08659 0.40056
 C732 C 0.38208 -0.07802 0.41142
 C733 C 0.38285 -0.06388 0.43556
 C734 C 0.35909 -0.05861 0.44972
 C735 C 0.36083 -0.04258 0.47319
 C736 C 0.38519 -0.03276 0.48234
 C737 C 0.40859 -0.03902 0.46878
 C738 C 0.40731 -0.05470 0.44549
 H739 H 0.32265 -0.10139 0.36246
 H740 H 0.24432 -0.09817 0.42175
 H741 H 0.28053 -0.11718 0.34632
 H742 H 0.26972 -0.07677 0.45674
 H743 H 0.31020 -0.05937 0.47440
 H744 H 0.35932 -0.09753 0.38194
 H745 H 0.40019 -0.08218 0.40057
 H746 H 0.34366 -0.03660 0.48451
 H747 H 0.38578 -0.02038 0.50025
 H748 H 0.42536 -0.05906 0.43460
 C749 C 0.57685 -0.23052 0.55653
 C750 C 0.56496 -0.20994 0.57221
 C751 C 0.56636 -0.21291 0.60059
 C752 C 0.57847 -0.23597 0.61246
 C753 C 0.59031 -0.25597 0.59659
 C754 C 0.58941 -0.25300 0.56859
 C755 C 0.55610 -0.19266 0.61702
 C756 C 0.54540 -0.16888 0.60601
 C757 C 0.54395 -0.16468 0.57791
 C758 C 0.55253 -0.18617 0.56076
 C759 C 0.54823 -0.18327 0.53279
 C760 C 0.53722 -0.15963 0.52179
 C761 C 0.53065 -0.13769 0.53806
 C762 C 0.53408 -0.13974 0.56634
 C763 C 0.52835 -0.11636 0.58176
 C764 C 0.51973 -0.09212 0.56951
 C765 C 0.51615 -0.09039 0.54161
 C766 C 0.52125 -0.11343 0.52605
 H767 H 0.57753 -0.22948 0.53490
 H768 H 0.57945 -0.23782 0.63418
 H769 H 0.59842 -0.26817 0.55586
 H770 H 0.55682 -0.19496 0.63872
 H771 H 0.53790 -0.15431 0.62014
 H772 H 0.55275 -0.19919 0.51879
 H773 H 0.53437 -0.15830 0.50018
 H774 H 0.53126 -0.11577 0.60323
 H775 H 0.51611 -0.07454 0.58198
 H776 H 0.51892 -0.11216 0.50437
 C777 C 1.11543 0.70527 0.42898
 C778 C 1.08943 0.69518 0.42508
 C779 C 1.07170 0.71110 0.40904
 C780 C 1.07995 0.73587 0.39741
 C781 C 1.10575 0.74552 0.40164
 C782 C 1.12330 0.72992 0.41750
 C783 C 1.04578 0.70232 0.40474
 C784 C 1.03686 0.67808 0.41607
 C785 C 1.05366 0.66139 0.43217
 C786 C 1.08045 0.67003 0.43661
 C787 C 1.09740 0.65322 0.45242
 C788 C 1.08862 0.62897 0.46361
 C789 C 1.06263 0.62037 0.45968
 C790 C 1.04466 0.63633 0.44398
 C791 C 1.01844 0.62640 0.44090
 C792 C 1.01065 0.60183 0.45291
 C793 C 1.02862 0.58627 0.46834
 C794 C 1.05460 0.59575 0.47154
 H795 H 1.13030 0.69477 0.44085
 H796 H 1.06607 0.74779 0.38532
 H797 H 1.14348 0.73654 0.42093
 H798 H 1.03213 0.71441 0.39250
 H799 H 1.01656 0.67297 0.41167
 H800 H 1.11779 0.65809 0.45660
 H801 H 1.10241 0.61680 0.47560
 H802 H 1.00338 0.63709 0.42943
 H803 H 0.99043 0.59503 0.45007
 H804 H 1.06877 0.58394 0.48342
 C805 C -0.08846 1.18709 0.13482
 C806 C -0.08596 1.18297 0.10680
 C807 C -0.09526 1.20398 0.08924
 C808 C -0.10734 1.22748 0.09946
 C809 C -0.10972 1.23108 0.12720
 C810 C -0.10004 1.21080 0.14473
 C811 C -0.09233 1.20157 0.06155
 C812 C -0.07991 1.17896 0.05074
 C813 C -0.07033 1.15743 0.06727
 C814 C -0.07430 1.15899 0.09567
 C815 C -0.06698 1.13633 0.11191
 C816 C -0.05586 1.11310 0.10089
 C817 C -0.05095 1.11169 0.07341
 C818 C -0.05753 1.13403 0.05625
 C819 C -0.05084 1.13203 0.02875
 C820 C -0.03936 1.10837 0.01866
 C821 C -0.03411 1.08590 0.03550
 C822 C -0.03966 1.08786 0.06296
 H823 H -0.08118 1.17271 0.14966
 H824 H -0.11428 1.24334 0.08574
 H825 H -0.10158 1.21315 0.16628
 H826 H -0.09953 1.21749 0.04803
 H827 H -0.07879 1.17867 0.02914
 H828 H -0.07028 1.13555 0.13326
 H829 H -0.05093 1.09606 0.11410
 H830 H -0.05393 1.14845 0.01450
 H831 H -0.03498 1.10757 -0.00261
 H832 H -0.03529 1.07074 0.07628
 C833 C 0.40415 0.31163 0.86626
 C834 C 0.40834 0.31566 0.89411
 C835 C 0.39914 0.29521 0.91210
 C836 C 0.38529 0.27244 0.90243
 C837 C 0.38140 0.26887 0.87478
 C838 C 0.39110 0.28855 0.85687
 C839 C 0.40410 0.29739 0.93961
 C840 C 0.41855 0.31909 0.94972
 C841 C 0.42801 0.34007 0.93272
 C842 C 0.42175 0.33894 0.90464
 C843 C 0.42861 0.36138 0.88812
 C844 C 0.44155 0.38389 0.89851
 C845 C 0.44893 0.38471 0.92556
 C846 C 0.44289 0.36254 0.94296
 C847 C 0.45227 0.36373 0.96984
 C848 C 0.46596 0.38648 0.97918
 C849 C 0.47064 0.40889 0.96223
 C850 C 0.46225 0.40772 0.93533
 H851 H 0.41139 0.32550 0.85111
 H852 H 0.37832 0.25700 0.91639
 H853 H 0.38846 0.28616 0.83539
 H854 H 0.39704 0.28192 0.95349
 H855 H 0.42132 0.31926 0.97122
 H856 H 0.42345 0.36258 0.86709
 H857 H 0.44602 0.40081 0.88512
 H858 H 0.44973 0.34725 0.98406
 H859 H 0.47246 0.38670 0.99999
 H860 H 0.46616 0.42477 0.92191
 C861 C 0.63289 0.58161 0.80617
 C862 C 0.60568 0.57762 0.81178
 C863 C 0.58693 0.58623 0.79198
 C864 C 0.59523 0.59927 0.76826
 C865 C 0.62221 0.60324 0.76322
 C866 C 0.64092 0.59408 0.78224
 C867 C 0.55998 0.58167 0.79582
 C868 C 0.55106 0.56838 0.81875
 C869 C 0.56881 0.55961 0.83923
 C870 C 0.59646 0.56518 0.83612
 C871 C 0.61386 0.55872 0.85769
 C872 C 0.60467 0.54705 0.88137
 C873 C 0.57796 0.54065 0.88433
 C874 C 0.55971 0.54618 0.86308
 C875 C 0.53309 0.53792 0.86665
 C876 C 0.52482 0.52607 0.89076
 C877 C 0.54267 0.52199 0.91217
 C878 C 0.56933 0.52900 0.90864
 H879 H 0.64854 0.57486 0.81957
 H880 H 0.58062 0.60577 0.75338
 H881 H 0.66191 0.59680 0.77874
 H882 H 0.54556 0.58828 0.78079
 H883 H 0.52990 0.56600 0.82015
 H884 H 0.63473 0.56322 0.85727
 H885 H 0.61872 0.54291 0.89755
 H886 H 0.51816 0.54011 0.85116
 H887 H 0.50415 0.52060 0.89280
 H888 H 0.58342 0.52557 0.92494
 C889 C 0.36147 0.08727 0.68373
 C890 C 0.38885 0.08726 0.67758
 C891 C 0.40646 0.09941 0.69628
 C892 C 0.39670 0.11229 0.71928
 C893 C 0.36955 0.11224 0.72487
 C894 C 0.35211 0.09938 0.70711
 C895 C 0.43374 0.09845 0.69209
 C896 C 0.44411 0.08507 0.67006
 C897 C 0.42745 0.07284 0.65074
 C898 C 0.39935 0.07519 0.65385
 C899 C 0.38274 0.06603 0.63286
 C900 C 0.39317 0.05444 0.60986
 C901 C 0.42044 0.05062 0.60724
 C902 C 0.43795 0.05904 0.62796
 C903 C 0.46526 0.05294 0.62516
 C904 C 0.47476 0.04016 0.60221
 C905 C 0.45751 0.03327 0.58119
 C906 C 0.43032 0.03841 0.58392
 H907 H 0.34686 0.07743 0.67129
 H908 H 0.41036 0.12168 0.73331
 H909 H 0.33105 0.09891 0.71118
 H910 H 0.44730 0.10783 0.70622
 H911 H 0.46537 0.08547 0.66821
 H912 H 0.36150 0.06842 0.63317
 H913 H 0.37966 0.04814 0.59406
 H914 H 0.47972 0.05726 0.64058
 H915 H 0.49583 0.03610 0.60071
 H916 H 0.41676 0.03263 0.56795
 C917 C 0.06308 0.91264 0.21787
 C918 C 0.07785 0.91968 0.19473
 C919 C 0.10517 0.91258 0.19460
 C920 C 0.11701 0.89948 0.21696
 C921 C 0.10202 0.89272 0.23964
 C922 C 0.07500 0.89939 0.23980
 C923 C 0.12054 0.91837 0.17211
 C924 C 0.10938 0.93064 0.14938
 C925 C 0.08225 0.93798 0.14832
 C926 C 0.06641 0.93309 0.17165
 C927 C 0.03967 0.94183 0.17118
 C928 C 0.02846 0.95399 0.14848
 C929 C 0.04325 0.95784 0.12524
 C930 C 0.07037 0.95002 0.12471
 C931 C 0.08422 0.95411 0.10032
 C932 C 0.07148 0.96494 0.07752
 C933 C 0.04465 0.97237 0.07821
 C934 C 0.03080 0.96911 0.10232
 H935 H 0.04217 0.91669 0.21971
 H936 H 0.13788 0.89413 0.21645
 H937 H 0.06292 0.89466 0.25711
 H938 H 0.14146 0.91311 0.17195
 H939 H 0.12276 0.93429 0.13299
 H940 H 0.02672 0.93978 0.18817
 H941 H 0.00778 0.96015 0.14906
 H942 H 0.10476 0.94865 0.09788
 H943 H 0.08270 0.96726 0.05917
 H944 H 0.00995 0.97457 0.10307
 C945 C 0.91022 0.37560 0.32091
 C946 C 0.91016 0.40361 0.32739
 C947 C 0.89675 0.42184 0.30954
 C948 C 0.88507 0.41231 0.28563
 C949 C 0.88640 0.38462 0.27905
 C950 C 0.89866 0.36643 0.29719
 C951 C 0.89528 0.44951 0.31549
 C952 C 0.90688 0.45963 0.33877
 C953 C 0.92090 0.44244 0.35697
 C954 C 0.92291 0.41403 0.35092
 C955 C 0.93810 0.39702 0.36828
 C956 C 0.95053 0.40718 0.39095
 C957 C 0.94829 0.43460 0.39747
 C958 C 0.93333 0.45271 0.38082
 C959 C 0.93148 0.48029 0.38891
 C960 C 0.94420 0.48930 0.41228
 C961 C 0.95924 0.47126 0.42831
 C962 C 0.96110 0.44392 0.42070
 H963 H 0.91884 0.36006 0.33374
 H964 H 0.87546 0.42661 0.27189
 H965 H 0.89929 0.34479 0.29322
 H966 H 0.88504 0.46357 0.30197
 H967 H 0.90487 0.48125 0.34165
 H968 H 0.94131 0.37567 0.36472
 H969 H 0.96208 0.39330 0.40357
 H970 H 0.92019 0.49541 0.37784
 H971 H 0.94228 0.51052 0.41776
 H972 H 0.97246 0.42962 0.43304
   
