data_POSCAR
  _audit_creation_date              2014-09-24
  _audit_creation_method            'ToBaCCo'
  _symmetry_space_group_name_H-M    'P1'
  _symmetry_Int_Tables_number       1
  _symmetry_cell_setting            triclinic
  loop_
  _symmetry_equiv_pos_as_xyz
 x,y,z
_cell_length_a 42.6262
_cell_length_b 42.4842
_cell_length_c 42.2242
_cell_angle_alpha 89.411100
_cell_angle_beta 90.397200
_cell_angle_gamma 90.360800
loop_
  _atom_site_label
  _atom_site_type_symbol
  _atom_site_fract_x
  _atom_site_fract_y
  _atom_site_fract_z
C1 C 0.18316 1.22452 0.21778
 C2 C 0.17001 1.25196 0.20468
 C3 C 0.18314 1.26695 0.17770
 C4 C 0.21101 1.25415 0.16529
 C5 C 0.22401 1.22641 0.17785
 C6 C 0.20989 1.21139 0.20402
 C7 C 0.16925 1.20964 0.24400
 C8 C 0.18094 1.18093 0.25651
 C9 C 0.20772 1.16796 0.24199
 C10 C 0.22220 1.18298 0.21610
 C11 C 0.24828 1.16944 0.20147
 C12 C 0.26254 1.18420 0.17521
 C13 C 0.25054 1.21305 0.16401
 H14 H 0.14825 1.26007 0.21464
 H15 H 0.22317 1.26566 0.14595
 H16 H 0.14979 1.22139 0.25501
 H17 H 0.21681 1.14540 0.24961
 H18 H 0.25692 1.14696 0.21004
 H19 H 0.26157 1.22493 0.14413
 C20 C 0.82937 0.78091 0.21305
 C21 C 0.84264 0.75491 0.19810
 C22 C 0.82735 0.73989 0.17246
 C23 C 0.79834 0.75237 0.16191
 C24 C 0.78501 0.77859 0.17652
 C25 C 0.80025 0.79252 0.20261
 C26 C 0.84533 0.79588 0.23787
 C27 C 0.83220 0.82191 0.25338
 C28 C 0.80230 0.83246 0.24354
 C29 C 0.78670 0.81850 0.21781
 C30 C 0.75846 0.83102 0.20610
 C31 C 0.74397 0.81821 0.17912
 C32 C 0.75697 0.79156 0.16493
 H33 H 0.86571 0.74751 0.20584
 H34 H 0.78525 0.74133 0.14296
 H35 H 0.86766 0.78646 0.24573
 H36 H 0.79199 0.85293 0.25436
 H37 H 0.74860 0.85171 0.21697
 H38 H 0.74557 0.78141 0.14437
 C39 C 0.82146 1.20993 -0.22295
 C40 C 0.83668 1.23494 -0.20760
 C41 C 0.82648 1.24533 -0.17785
 C42 C 0.80051 1.23032 -0.16367
 C43 C 0.78472 1.20566 -0.17903
 C44 C 0.79519 1.19551 -0.20883
 C45 C 0.83278 1.19866 -0.25181
 C46 C 0.81813 1.17303 -0.26739
 C47 C 0.79074 1.16004 -0.25349
 C48 C 0.77964 1.17066 -0.22430
 C49 C 0.75353 1.15626 -0.21004
 C50 C 0.74330 1.16566 -0.17997
 C51 C 0.75903 1.19054 -0.16471
 H52 H 0.85642 1.24644 -0.21899
 H53 H 0.79284 1.23744 -0.14043
 H54 H 0.85425 1.20898 -0.26073
 H55 H 0.77743 1.14179 -0.26526
 H56 H 0.74136 1.13742 -0.22224
 H57 H 0.75179 1.19770 -0.14133
 C58 C 0.17093 0.78938 -0.20855
 C59 C 0.15746 0.76147 -0.19669
 C60 C 0.16916 0.74660 -0.16888
 C61 C 0.19542 0.76063 -0.15372
 C62 C 0.20938 0.78824 -0.16567
 C63 C 0.19709 0.80272 -0.19314
 C64 C 0.15829 0.80432 -0.23548
 C65 C 0.17173 0.83225 -0.24772
 C66 C 0.19830 0.84503 -0.23240
 C67 C 0.21076 0.83072 -0.20501
 C68 C 0.23636 0.84430 -0.18901
 C69 C 0.24862 0.83021 -0.16129
 C70 C 0.23513 0.80194 -0.15006
 H71 H 0.13843 0.75112 -0.21014
 H72 H 0.20448 0.75123 -0.13161
 H73 H 0.13740 0.79449 -0.24640
 H74 H 0.20946 0.86609 -0.24174
 H75 H 0.24612 0.86634 -0.19768
 H76 H 0.24472 0.79049 -0.12912
 C77 C 0.54766 1.04448 -0.00688
 H78 H 0.54697 1.04884 0.01831
 C79 C 0.56920 1.06068 -0.02583
 H80 H 0.58511 1.07750 -0.01508
 C81 C 0.52863 1.01620 -0.05121
 H82 H 0.51332 0.99831 -0.06086
 C83 C 0.55009 1.03159 -0.07098
 H84 H 0.55066 1.02586 -0.09590
 N85 N 0.52771 1.02299 -0.01980
 C86 C 0.45920 1.01598 0.05625
 H87 H 0.46035 0.99099 0.06132
 C88 C 0.43869 1.03487 0.07318
 H89 H 0.42407 1.02429 0.09131
 C90 C 0.47551 1.05974 0.02508
 H91 H 0.48920 1.06914 0.00569
 C92 C 0.45505 1.07942 0.04116
 H93 H 0.45365 1.10405 0.03445
 Zn94 Zn 0.50100 1.00065 0.00826
 N95 N 0.47713 1.02862 0.03279
 C96 C 0.53219 0.98115 0.06525
 N97 N 0.52733 0.97530 0.03398
 C98 C 0.54311 0.95214 0.01904
 C99 C 0.56442 0.93339 0.03567
 C100 C 0.55373 0.96321 0.08275
 C101 C 0.45388 0.98995 -0.03678
 C102 C 0.43092 0.97304 -0.05322
 C103 C 0.44434 0.92693 -0.02213
 C104 C 0.46739 0.94461 -0.00660
 N105 N 0.47184 0.97549 -0.01428
 H106 H 0.52013 1.00032 0.07645
 H107 H 0.53914 0.94833 -0.00597
 H108 H 0.57619 0.91472 0.02328
 H109 H 0.55797 0.96887 0.10735
 H110 H 0.45734 1.01475 -0.04181
 H111 H 0.41670 0.98493 -0.07096
 H112 H 0.44096 0.90241 -0.01570
 H113 H 0.48115 0.93381 0.01209
 C114 C 0.43612 1.06694 0.06536
 C115 C 0.57071 1.05414 -0.05828
 C116 C 0.42583 0.94117 -0.04579
 C117 C 0.57037 0.93904 0.06791
 C118 C -0.01472 0.54529 1.03787
 H119 H 0.01064 0.54606 1.03718
 C120 C -0.03091 0.56694 1.05608
 H121 H -0.01787 0.58427 1.06954
 C122 C -0.06253 0.52261 1.02002
 H123 H -0.07476 0.50565 1.00551
 C124 C -0.07970 0.54418 1.03758
 H125 H -0.10509 0.54332 1.03689
 N126 N -0.03060 0.52333 1.02076
 C127 C 0.03342 0.44513 1.00748
 H128 H 0.02953 0.44115 0.98249
 C129 C 0.05218 0.42447 1.02505
 H130 H 0.06216 0.40438 1.01331
 C131 C 0.02351 0.47528 1.05314
 H132 H 0.01194 0.49474 1.06424
 C133 C 0.04259 0.45557 1.07149
 H134 H 0.04595 0.46080 1.09631
 Zn135 Zn -0.00630 0.49595 0.99580
 N136 N 0.01959 0.47001 1.02163
 C137 C 0.04975 0.51674 0.96529
 N138 N 0.01854 0.52172 0.96908
 C139 C 0.00410 0.54689 0.95543
 C140 C 0.02132 0.56887 0.93788
 C141 C 0.06779 0.53782 0.94733
 C142 C -0.05138 0.44841 0.98650
 C143 C -0.06834 0.42596 0.96941
 C144 C -0.04488 0.44616 0.92132
 C145 C -0.02877 0.46856 0.93925
 N146 N -0.03205 0.46907 0.97127
 H147 H 0.06080 0.49664 0.97644
 H148 H -0.02071 0.55044 0.95911
 H149 H 0.00942 0.58945 0.92862
 H150 H 0.09253 0.53320 0.94440
 H151 H -0.05301 0.44891 1.01205
 H152 H -0.08315 0.40923 0.98190
 H153 H -0.04158 0.44559 0.89592
 H154 H -0.01286 0.48484 0.92770
 C155 C 0.05718 0.42959 1.05756
 C156 C -0.06380 0.56653 1.05606
 C157 C -0.06472 0.42436 0.93647
 C158 C 0.05374 0.56469 0.93375
 C159 C 1.03625 -0.00400 0.55307
 H160 H 1.02996 0.02037 0.55633
 C161 C 1.05300 -0.01997 0.57675
 H162 H 1.05882 -0.00758 0.59828
 C163 C 1.03412 -0.04989 0.52184
 H164 H 1.02624 -0.06187 0.50087
 C165 C 1.05167 -0.06646 0.54442
 H166 H 1.05774 -0.09062 0.53961
 N167 N 1.02689 -0.01914 0.52637
 C168 C 1.01360 0.04216 0.44470
 H169 H 0.98926 0.03690 0.43948
 C170 C 1.03124 0.06005 0.42337
 H171 H 1.02020 0.06805 0.40161
 C172 C 1.05769 0.03621 0.47867
 H173 H 1.06791 0.02650 0.50011
 C174 C 1.07616 0.05440 0.45813
 H175 H 1.10043 0.05895 0.46433
 Zn176 Zn 1.00174 0.00391 0.49697
 N177 N 1.02702 0.03051 0.47160
 C178 C 0.96886 0.05919 0.51442
 N179 N 0.97303 0.02798 0.52041
 C180 C 0.95792 0.01316 0.54460
 C181 C 0.93835 0.02998 0.56455
 C182 C 0.94897 0.07682 0.53342
 C183 C 0.99625 -0.04132 0.44913
 C184 C 0.98092 -0.05990 0.42673
 C185 C 0.93155 -0.03882 0.44407
 C186 C 0.94779 -0.02154 0.46699
 N187 N 0.97959 -0.02304 0.46907
 H188 H 0.98113 0.07053 0.49508
 H189 H 0.96189 -0.01164 0.54898
 H190 H 0.92781 0.01781 0.58448
 H191 H 0.94577 0.10155 0.52800
 H192 H 1.02160 -0.04113 0.45029
 H193 H 0.99495 -0.07496 0.41205
 H194 H 0.90644 -0.03589 0.44212
 H195 H 0.93501 -0.00605 0.48233
 C196 C 1.06304 0.06639 0.42985
 C197 C 1.06101 -0.05176 0.57270
 C198 C 0.94806 -0.05847 0.42340
 C199 C 0.93372 0.06238 0.55927
 C200 C 0.13280 0.34130 1.13140
 C201 C 0.15575 0.32431 1.11488
 C202 C 0.17268 0.30033 1.13032
 C203 C 0.16789 0.29305 1.16272
 C204 C 0.14647 0.31192 1.17932
 C205 C 0.12918 0.33541 1.16398
 C206 C 0.11338 0.36482 1.11339
 C207 C 0.08749 0.38015 1.12670
 C208 C 0.06947 0.40108 1.10864
 C209 C 0.07692 0.40770 1.07689
 C210 C 0.10285 0.39259 1.06352
 C211 C 0.12056 0.37081 1.08122
 C212 C 0.16153 0.33113 1.08289
 C213 C 0.14476 0.35432 1.06661
 H214 H 0.17941 0.31842 1.07024
 H215 H 0.15021 0.35877 1.04193
 H216 H 0.18827 0.28643 1.11611
 H217 H 0.14321 0.30932 1.20457
 H218 H 0.04916 0.41154 1.11950
 H219 H 0.10922 0.39755 1.03917
 H220 H 0.11325 0.34886 1.17817
 H221 H 0.08023 0.37569 1.15076
 C222 C -0.12862 0.66222 1.12731
 C223 C -0.15101 0.68055 1.11072
 C224 C -0.16569 0.70588 1.12569
 C225 C -0.15881 0.71345 1.15753
 C226 C -0.13740 0.69399 1.17407
 C227 C -0.12258 0.66898 1.15930
 C228 C -0.11221 0.63651 1.11000
 C229 C -0.08785 0.61858 1.12373
 C230 C -0.07253 0.59568 1.10626
 C231 C -0.08124 0.58982 1.07480
 C232 C -0.10573 0.60718 1.06098
 C233 C -0.12090 0.63074 1.07814
 C234 C -0.15848 0.67368 1.07915
 C235 C -0.14402 0.64909 1.06334
 H236 H -0.17582 0.68753 1.06642
 H237 H -0.15064 0.64478 1.03892
 H238 H -0.18129 0.72042 1.11161
 H239 H -0.13251 0.69714 1.19900
 H240 H -0.05373 0.58246 1.11738
 H241 H -0.11220 0.60310 1.03648
 H242 H -0.10666 0.65509 1.17354
 H243 H -0.07984 0.62218 1.14769
 C244 C -0.12449 0.32150 0.86897
 C245 C -0.15733 0.31787 0.87233
 C246 C -0.17320 0.29336 0.85674
 C247 C -0.15674 0.27150 0.83851
 C248 C -0.12401 0.27463 0.83619
 C249 C -0.10811 0.29929 0.85101
 C250 C -0.10854 0.34844 0.88534
 C251 C -0.07645 0.35559 0.88140
 C252 C -0.06256 0.38058 0.89761
 C253 C -0.08015 0.39892 0.91829
 C254 C -0.11223 0.39244 0.92197
 C255 C -0.12662 0.36773 0.90527
 C256 C -0.17405 0.33843 0.89160
 C257 C -0.15895 0.36247 0.90814
 H258 H -0.19917 0.33556 0.89437
 H259 H -0.17288 0.37740 0.92315
 H260 H -0.19848 0.29146 0.85871
 H261 H -0.11044 0.25767 0.82320
 H262 H -0.03775 0.38521 0.89445
 H263 H -0.12604 0.40693 0.93754
 H264 H -0.08297 0.30019 0.84851
 H265 H -0.06170 0.34231 0.86585
 C266 C 0.12504 0.66505 0.87193
 C267 C 0.10858 0.68426 0.85006
 C268 C 0.12313 0.71097 0.83671
 C269 C 0.15468 0.71884 0.84385
 C270 C 0.17124 0.69827 0.86439
 C271 C 0.15671 0.67206 0.87826
 C272 C 0.10794 0.63805 0.88735
 C273 C 0.12111 0.61969 0.91196
 C274 C 0.10372 0.59571 0.92653
 C275 C 0.07285 0.58897 0.91673
 C276 C 0.05982 0.60682 0.89174
 C277 C 0.07675 0.63164 0.87763
 C278 C 0.07757 0.67679 0.84165
 C279 C 0.06222 0.65070 0.85467
 H280 H 0.06499 0.69126 0.82458
 H281 H 0.03827 0.64591 0.84730
 H282 H 0.10889 0.72614 0.82187
 H283 H 0.19594 0.70148 0.86936
 H284 H 0.11429 0.58307 0.94622
 H285 H 0.03620 0.60180 0.88351
 H286 H 0.17088 0.65737 0.89357
 H287 H 0.14443 0.62407 0.92100
 C288 C 1.13539 0.13334 0.33362
 C289 C 1.11896 0.15546 0.31472
 C290 C 1.13396 0.17079 0.28936
 C291 C 1.16588 0.16537 0.28247
 C292 C 1.18219 0.14389 0.30222
 C293 C 1.16726 0.12814 0.32719
 C294 C 1.11799 0.11644 0.35958
 C295 C 1.13146 0.09234 0.37829
 C296 C 1.11383 0.07655 0.40137
 C297 C 1.08239 0.08452 0.40667
 C298 C 1.06905 0.10899 0.38858
 C299 C 1.08630 0.12449 0.36485
 C300 C 1.08752 0.16220 0.32111
 C301 C 1.07168 0.14738 0.34589
 H302 H 1.07494 0.17935 0.30679
 H303 H 1.04738 0.15349 0.34986
 H304 H 1.11986 0.18594 0.27435
 H305 H 1.20700 0.13972 0.29944
 H306 H 1.12468 0.05742 0.41445
 H307 H 1.04497 0.11584 0.39266
 H308 H 1.18127 0.11227 0.34140
 H309 H 1.15530 0.08478 0.37501
 C310 C 1.12689 -0.12138 0.67235
 C311 C 1.14368 -0.10356 0.69500
 C312 C 1.15812 -0.11868 0.72096
 C313 C 1.15744 -0.15170 0.72407
 C314 C 1.14252 -0.16930 0.70024
 C315 C 1.12726 -0.15443 0.67491
 C316 C 1.10984 -0.10422 0.64634
 C317 C 1.08885 -0.11933 0.62551
 C318 C 1.07306 -0.10229 0.60198
 C319 C 1.07813 -0.06974 0.59800
 C320 C 1.09897 -0.05451 0.61893
 C321 C 1.11402 -0.07127 0.64349
 C322 C 1.14621 -0.07082 0.69142
 C323 C 1.13241 -0.05513 0.66574
 H324 H 1.15946 -0.05714 0.70848
 H325 H 1.13542 -0.02983 0.66381
 H326 H 1.16942 -0.10451 0.73896
 H327 H 1.14265 -0.19476 0.70100
 H328 H 1.05630 -0.11476 0.58732
 H329 H 1.10348 -0.02951 0.61639
 H330 H 1.11625 -0.16922 0.65739
 H331 H 1.08363 -0.14414 0.62756
 C332 C 0.88356 -0.12903 0.32441
 C333 C 0.85077 -0.13313 0.32723
 C334 C 0.83374 -0.14867 0.30336
 C335 C 0.84918 -0.16232 0.27749
 C336 C 0.88213 -0.15981 0.27615
 C337 C 0.89899 -0.14316 0.29897
 C338 C 0.90062 -0.11061 0.34924
 C339 C 0.93200 -0.10084 0.34587
 C340 C 0.94698 -0.08372 0.36963
 C341 C 0.93146 -0.07644 0.39791
 C342 C 0.89982 -0.08572 0.40108
 C343 C 0.88413 -0.10171 0.37661
 C344 C 0.83540 -0.12252 0.35432
 C345 C 0.85190 -0.10804 0.37893
 H346 H 0.81035 -0.12611 0.35687
 H347 H 0.83906 -0.10089 0.39969
 H348 H 0.80860 -0.15153 0.30593
 H349 H 0.89508 -0.16939 0.25655
 H350 H 0.97073 -0.07575 0.36533
 H351 H 0.88715 -0.08051 0.42250
 H352 H 0.92414 -0.14193 0.29645
 H353 H 0.94511 -0.10542 0.32466
 C354 C 0.86264 0.13189 0.65258
 C355 C 0.84018 0.11461 0.67011
 C356 C 0.82516 0.12839 0.69597
 C357 C 0.83140 0.15990 0.70473
 C358 C 0.85223 0.17743 0.68541
 C359 C 0.86764 0.16370 0.66001
 C360 C 0.88028 0.11537 0.62706
 C361 C 0.90571 0.12928 0.61090
 C362 C 0.92255 0.11230 0.58862
 C363 C 0.91430 0.08109 0.58143
 C364 C 0.88845 0.06735 0.59692
 C365 C 0.87201 0.08388 0.62009
 C366 C 0.83306 0.08344 0.66201
 C367 C 0.84820 0.06863 0.63715
 H368 H 0.81551 0.07025 0.67513
 H369 H 0.84187 0.04448 0.63190
 H370 H 0.80998 0.11347 0.71007
 H371 H 0.85648 0.20222 0.68917
 H372 H 0.94277 0.12344 0.57780
 H373 H 0.88138 0.04347 0.59144
 H374 H 0.88327 0.17851 0.64637
 H375 H 0.91366 0.15289 0.61586
 C376 C 0.33804 1.13846 0.12598
 C377 C 0.33610 1.13640 0.15939
 C378 C 0.31196 1.15191 0.17538
 C379 C 0.28897 1.16887 0.15853
 C380 C 0.29074 1.17036 0.12535
 C381 C 0.31493 1.15556 0.10930
 C382 C 0.36408 1.12151 0.10978
 C383 C 0.36893 1.12335 0.07682
 C384 C 0.39276 1.10618 0.06269
 C385 C 0.41234 1.08669 0.08096
 C386 C 0.40832 1.08533 0.11390
 C387 C 0.38461 1.10279 0.12843
 C388 C 0.35787 1.11837 0.17658
 C389 C 0.38134 1.10161 0.16141
 H390 H 0.35638 1.11669 0.20216
 H391 H 0.39723 1.08753 0.17575
 H392 H 0.31106 1.15066 0.20101
 H393 H 0.27294 1.18248 0.11156
 H394 H 0.39536 1.10752 0.03721
 H395 H 0.42373 1.07070 0.12823
 H396 H 0.31468 1.15732 0.08381
 H397 H 0.35456 1.13777 0.06146
 C398 C 0.66822 1.11570 -0.13231
 C399 C 0.67141 1.14872 -0.12927
 C400 C 0.69538 1.16494 -0.14541
 C401 C 0.71700 1.14870 -0.16405
 C402 C 0.71395 1.11590 -0.16666
 C403 C 0.68990 1.09962 -0.15119
 C404 C 0.64241 1.09923 -0.11457
 C405 C 0.63640 1.06667 -0.11706
 C406 C 0.61275 1.05229 -0.09924
 C407 C 0.59456 1.06990 -0.07842
 C408 C 0.59982 1.10245 -0.07631
 C409 C 0.62332 1.11723 -0.09438
 C410 C 0.65105 1.16529 -0.10969
 C411 C 0.62777 1.14984 -0.09234
 H412 H 0.65350 1.19056 -0.10729
 H413 H 0.61297 1.16368 -0.07711
 H414 H 0.69723 1.19030 -0.14334
 H415 H 0.73066 1.10256 -0.18019
 H416 H 0.60916 1.02712 -0.10120
 H417 H 0.58545 1.11629 -0.06066
 H418 H 0.68911 1.07442 -0.15388
 H419 H 0.64970 1.05184 -0.13251
 C420 C 0.32423 0.87478 -0.10923
 C421 C 0.32349 0.87618 -0.14274
 C422 C 0.29922 0.86116 -0.15957
 C423 C 0.27488 0.84538 -0.14354
 C424 C 0.27537 0.84471 -0.11028
 C425 C 0.29969 0.85902 -0.09335
 C426 C 0.35072 0.89082 -0.09215
 C427 C 0.35467 0.88915 -0.05899
 C428 C 0.37934 0.90509 -0.04415
 C429 C 0.40057 0.92325 -0.06188
 C430 C 0.39726 0.92460 -0.09494
 C431 C 0.37283 0.90824 -0.11018
 C432 C 0.34668 0.89300 -0.15923
 C433 C 0.37055 0.90905 -0.14329
 H434 H 0.34607 0.89422 -0.18488
 H435 H 0.38762 0.92215 -0.15713
 H436 H 0.29934 0.86176 -0.18524
 H437 H 0.25654 0.83354 -0.09716
 H438 H 0.38147 0.90375 -0.01859
 H439 H 0.41398 0.93817 -0.10881
 H440 H 0.29848 0.85791 -0.06787
 H441 H 0.33907 0.87564 -0.04407
 C442 C 0.66678 0.86762 0.13519
 C443 C 0.69283 0.85798 0.11714
 C444 C 0.71731 0.84113 0.13158
 C445 C 0.71684 0.83425 0.16411
 C446 C 0.69130 0.84412 0.18214
 C447 C 0.66644 0.86042 0.16789
 C448 C 0.64116 0.88569 0.11869
 C449 C 0.61357 0.89531 0.13397
 C450 C 0.59061 0.91241 0.11752
 C451 C 0.59457 0.92053 0.08547
 C452 C 0.62195 0.91090 0.07011
 C453 C 0.64490 0.89334 0.08622
 C454 C 0.69473 0.86578 0.08492
 C455 C 0.67145 0.88336 0.06988
 H456 H 0.71476 0.85851 0.07117
 H457 H 0.67421 0.88908 0.04498
 H458 H 0.73735 0.83419 0.11765
 H459 H 0.69057 0.83912 0.20734
 H460 H 0.56952 0.91897 0.12991
 H461 H 0.62571 0.91739 0.04553
 H462 H 0.64747 0.86753 0.18293
 H463 H 0.60913 0.88966 0.15849
   
