data_POSCAR
  _audit_creation_date              2014-09-24
  _audit_creation_method            'ToBaCCo'
  _symmetry_space_group_name_H-M    'P1'
  _symmetry_Int_Tables_number       1
  _symmetry_cell_setting            triclinic
  loop_
  _symmetry_equiv_pos_as_xyz
 x,y,z
_cell_length_a 36.9810
_cell_length_b 36.7150
_cell_length_c 37.0953
_cell_angle_alpha 91.330200
_cell_angle_beta 89.376700
_cell_angle_gamma 90.706200
loop_
  _atom_site_label
  _atom_site_type_symbol
  _atom_site_fract_x
  _atom_site_fract_y
  _atom_site_fract_z
C1 C 0.20690 0.52127 1.07089
 H2 H 0.22637 0.54345 1.07159
 C3 C 0.18073 0.51870 1.09825
 H4 H 0.18134 0.53919 1.11956
 C5 C 0.18308 0.46854 1.04137
 H6 H 0.18410 0.44926 1.01889
 C7 C 0.15657 0.46484 1.06805
 H8 H 0.13735 0.44240 1.06572
 N9 N 0.20771 0.49621 1.04336
 C10 C 0.27413 0.56544 0.98376
 H11 H 0.25634 0.56352 0.96089
 C12 C 0.29983 0.59359 0.98577
 H13 H 0.30036 0.61358 0.96483
 C14 C 0.29493 0.54141 1.03840
 H15 H 0.29326 0.52046 1.05841
 C16 C 0.32103 0.56906 1.04147
 H17 H 0.33926 0.56941 1.06415
 Zn18 Zn 0.24150 0.49867 1.00494
 N19 N 0.27230 0.53995 1.00976
 C20 C 0.19056 0.52807 0.95961
 N21 N 0.21450 0.50047 0.96204
 C22 C 0.21709 0.47413 0.93579
 C23 C 0.19482 0.47492 0.90562
 C24 C 0.16789 0.52999 0.92990
 C25 C 0.26852 0.43225 1.03087
 C26 C 0.29304 0.40374 1.03224
 C27 C 0.32366 0.42765 0.97985
 C28 C 0.29854 0.45572 0.97950
 N29 N 0.27163 0.45746 1.00469
 H30 H 0.18892 0.54851 0.98103
 H31 H 0.23581 0.45205 0.93852
 H32 H 0.19686 0.45347 0.88518
 H33 H 0.14969 0.55270 0.92859
 H34 H 0.24767 0.43470 1.05136
 H35 H 0.29046 0.38416 1.05355
 H36 H 0.34544 0.42782 0.96019
 H37 H 0.30098 0.47674 0.95962
 C38 C 0.32432 0.59515 1.01457
 C39 C 0.15484 0.49007 1.09711
 C40 C 0.32104 0.40110 1.00655
 C41 C 0.16937 0.50271 0.90266
 C42 C 0.79964 0.52212 -0.03927
 H43 H 0.79907 0.54640 -0.02220
 C44 C 0.82401 0.51985 -0.06825
 H45 H 0.84228 0.54253 -0.07294
 C46 C 0.77809 0.46220 -0.05198
 H47 H 0.76089 0.43940 -0.04496
 C48 C 0.80228 0.45865 -0.08101
 H49 H 0.80311 0.43325 -0.09644
 N50 N 0.77709 0.49366 -0.03188
 C51 C 0.69428 0.54340 0.03742
 H52 H 0.69560 0.52506 0.05977
 C53 C 0.66984 0.57202 0.03860
 H54 H 0.65243 0.57567 0.06205
 C55 C 0.71512 0.56047 -0.02048
 H56 H 0.73255 0.55559 -0.04360
 C57 C 0.69075 0.58935 -0.02058
 H58 H 0.69044 0.60693 -0.04357
 Zn59 Zn 0.74720 0.49748 0.00984
 N60 N 0.71652 0.53833 0.00837
 C61 C 0.77956 0.53285 0.07060
 N62 N 0.77825 0.50168 0.05008
 C63 C 0.80089 0.47364 0.05623
 C64 C 0.82564 0.47601 0.08440
 C65 C 0.80404 0.53647 0.09890
 C66 C 0.69330 0.45001 -0.01459
 C67 C 0.66813 0.42144 -0.01351
 C68 C 0.69017 0.40646 0.04534
 C69 C 0.71522 0.43518 0.04297
 N70 N 0.71639 0.45615 0.01321
 H71 H 0.76225 0.55535 0.06459
 H72 H 0.79998 0.44956 0.03887
 H73 H 0.84391 0.45365 0.08810
 H74 H 0.80500 0.56162 0.11474
 H75 H 0.69416 0.46776 -0.03747
 H76 H 0.64949 0.41778 -0.03561
 H77 H 0.68915 0.39027 0.06938
 H78 H 0.73301 0.44122 0.06529
 C79 C 0.66752 0.59519 0.00925
 C80 C 0.82547 0.48773 -0.08961
 C81 C 0.66643 0.39914 0.01677
 C82 C 0.82730 0.50778 0.10628
 C83 C -0.03733 0.30430 0.46798
 H84 H -0.05733 0.30165 0.48929
 C85 C -0.04182 0.33011 0.44140
 H86 H -0.06563 0.34702 0.44256
 C87 C 0.01826 0.28592 0.44160
 H88 H 0.04205 0.26919 0.44222
 C89 C 0.01498 0.31145 0.41450
 H90 H 0.03660 0.31299 0.39484
 N91 N -0.00778 0.28270 0.46751
 C92 C -0.03870 0.18956 0.53206
 H93 H -0.01654 0.19024 0.55088
 C94 C -0.06456 0.16168 0.53345
 H95 H -0.06225 0.14097 0.55360
 C96 C -0.06780 0.21520 0.48220
 H97 H -0.06836 0.23554 0.46165
 C98 C -0.09436 0.18777 0.48265
 H99 H -0.11486 0.18752 0.46210
 Zn100 Zn -0.00253 0.25023 0.50598
 N101 N -0.04081 0.21568 0.50684
 C102 C -0.02943 0.27469 0.57416
 N103 N -0.00257 0.27875 0.54918
 C104 C 0.02267 0.30579 0.55262
 C105 C 0.02140 0.33029 0.58198
 C106 C -0.03174 0.29857 0.60392
 C107 C 0.04205 0.20065 0.47060
 C108 C 0.07145 0.17773 0.46502
 C109 C 0.09725 0.20137 0.52048
 C110 C 0.06732 0.22410 0.52490
 N111 N 0.04048 0.22323 0.50010
 H112 H -0.04990 0.25374 0.57047
 H113 H 0.04315 0.30902 0.53184
 H114 H 0.04101 0.35235 0.58303
 H115 H -0.05375 0.29538 0.62314
 H116 H 0.02007 0.20016 0.45157
 H117 H 0.07201 0.15972 0.44147
 H118 H 0.11837 0.20282 0.54041
 H119 H 0.06531 0.24192 0.54842
 C120 C -0.09292 0.16051 0.50866
 C121 C -0.01545 0.33430 0.41411
 C122 C 0.09926 0.17737 0.49036
 C123 C -0.00628 0.32693 0.60812
 C124 C 0.98737 0.69763 0.55112
 H125 H 0.96778 0.69464 0.52977
 C126 C 0.98709 0.67316 0.57934
 H127 H 0.96734 0.65122 0.57886
 C128 C 1.03840 0.72862 0.57551
 H129 H 1.05886 0.74975 0.57347
 C130 C 1.03912 0.70473 0.60427
 H131 H 1.05999 0.70795 0.62440
 N132 N 1.01262 0.72479 0.54979
 C133 C 0.96627 0.80511 0.47986
 H134 H 0.98772 0.80687 0.45988
 C135 C 0.93583 0.82687 0.47718
 H136 H 0.93406 0.84456 0.45441
 C137 C 0.94286 0.77870 0.53305
 H138 H 0.94595 0.76024 0.55503
 C139 C 0.91196 0.80011 0.53151
 H140 H 0.89134 0.79775 0.55231
 Zn141 Zn 1.01227 0.75452 0.50886
 N142 N 0.96916 0.78150 0.50732
 C143 C 0.98851 0.72097 0.44348
 N144 N 1.01574 0.72306 0.46784
 C145 C 1.04464 0.70061 0.46509
 C146 C 1.04682 0.67459 0.43710
 C147 C 0.98960 0.69538 0.41508
 C148 C 1.04967 0.81439 0.53744
 C149 C 1.07534 0.84250 0.53898
 C150 C 1.10291 0.81787 0.48449
 C151 C 1.07663 0.79014 0.48401
 N152 N 1.05076 0.78890 0.51031
 H153 H 0.96543 0.73853 0.44641
 H154 H 1.06566 0.70246 0.48513
 H155 H 1.06980 0.65659 0.43560
 H156 H 0.96774 0.69475 0.39597
 H157 H 1.02834 0.81316 0.55759
 H158 H 1.07376 0.86273 0.56065
 H159 H 1.12237 0.81870 0.46258
 H160 H 1.07636 0.77025 0.46209
 C161 C 0.90831 0.82491 0.50359
 C162 C 1.01316 0.67667 0.60661
 C163 C 1.10243 0.84463 0.51233
 C164 C 1.01876 0.67121 0.41205
 C165 C 0.46094 -0.03007 0.29243
 H166 H 0.48214 -0.05014 0.29174
 C167 C 0.43239 -0.03316 0.31708
 H168 H 0.43166 -0.05588 0.33521
 C169 C 0.43698 0.02458 0.27044
 H170 H 0.43923 0.04737 0.25262
 C171 C 0.40798 0.02267 0.29488
 H172 H 0.38775 0.04367 0.29467
 N173 N 0.46278 -0.00153 0.26979
 C174 C 0.53753 -0.03857 0.18527
 H175 H 0.55723 -0.01656 0.18656
 C176 C 0.54157 -0.06671 0.15970
 H177 H 0.56471 -0.06602 0.14154
 C178 C 0.48319 -0.06521 0.20702
 H179 H 0.46009 -0.06412 0.22507
 C180 C 0.48603 -0.09392 0.18175
 H181 H 0.46477 -0.11429 0.18164
 Zn182 Zn 0.50484 0.00217 0.24056
 N183 N 0.50884 -0.03840 0.20842
 C184 C 0.57107 -0.02071 0.27116
 N185 N 0.54450 0.00460 0.27229
 C186 C 0.54432 0.03191 0.29764
 C187 C 0.57181 0.03482 0.32301
 C188 C 0.59911 -0.01889 0.29613
 C189 C 0.47731 0.04635 0.18721
 C190 C 0.47683 0.07526 0.16342
 C191 C 0.53127 0.09920 0.19106
 C192 C 0.53066 0.06987 0.21435
 N193 N 0.50388 0.04422 0.21208
 H194 H 0.57043 -0.04256 0.25118
 H195 H 0.52259 0.05139 0.29820
 H196 H 0.57114 0.05672 0.34307
 H197 H 0.62017 -0.03902 0.29416
 H198 H 0.45691 0.02503 0.18535
 H199 H 0.45605 0.07544 0.14317
 H200 H 0.55309 0.11909 0.19288
 H201 H 0.55217 0.06716 0.23351
 C202 C 0.51561 -0.09499 0.15734
 C203 C 0.40582 -0.00627 0.31907
 C204 C 0.50416 0.10225 0.16520
 C205 C 0.59945 0.00901 0.32279
 C206 C 0.54858 -0.03270 0.68642
 H207 H 0.52845 -0.05430 0.68483
 C208 C 0.57672 -0.03148 0.66106
 H209 H 0.57753 -0.05218 0.63988
 C210 C 0.56987 0.02184 0.71473
 H211 H 0.56660 0.04311 0.73504
 C212 C 0.59837 0.02418 0.68990
 H213 H 0.61709 0.04707 0.69167
 N214 N 0.54578 -0.00640 0.71266
 C215 C 0.47767 -0.05438 0.79602
 H216 H 0.45660 -0.03421 0.79775
 C217 C 0.47701 -0.08368 0.81930
 H218 H 0.45459 -0.08612 0.83807
 C219 C 0.53199 -0.07536 0.76869
 H220 H 0.55375 -0.07160 0.74944
 C221 C 0.53245 -0.10507 0.79156
 H222 H 0.55448 -0.12420 0.78943
 Zn223 Zn 0.50508 -0.00803 0.74387
 N224 N 0.50487 -0.05071 0.77140
 C225 C 0.43841 -0.03359 0.71415
 N226 N 0.46360 -0.00628 0.71457
 C227 C 0.46100 0.02251 0.69241
 C228 C 0.43207 0.02486 0.66877
 C229 C 0.40904 -0.03239 0.69084
 C230 C 0.53421 0.03280 0.80081
 C231 C 0.53690 0.06091 0.82659
 C232 C 0.48213 0.08638 0.80343
 C233 C 0.48051 0.05773 0.77802
 N234 N 0.50650 0.03183 0.77703
 H235 H 0.44130 -0.05665 0.73139
 H236 H 0.48160 0.04370 0.69310
 H237 H 0.43046 0.04857 0.65217
 H238 H 0.38935 -0.05449 0.69064
 H239 H 0.55429 0.01160 0.79964
 H240 H 0.55921 0.06123 0.84529
 H241 H 0.46153 0.10698 0.80297
 H242 H 0.45840 0.05621 0.75925
 C243 C 0.50514 -0.10915 0.81775
 C244 C 0.60219 -0.00270 0.66270
 C245 C 0.51053 0.08803 0.82841
 C246 C 0.40581 -0.00320 0.66738
 C247 C 0.28384 0.04234 0.42726
 H248 H 0.26416 0.06352 0.43166
 C249 C 0.30679 0.04340 0.39707
 H250 H 0.30435 0.06534 0.37825
 C251 C 0.31221 -0.01101 0.44707
 H252 H 0.31460 -0.03168 0.46720
 C253 C 0.33563 -0.01102 0.41735
 H254 H 0.35623 -0.03163 0.41547
 N255 N 0.28685 0.01525 0.45140
 C256 C 0.22959 0.07824 0.52668
 H257 H 0.25004 0.07516 0.54690
 C258 C 0.20470 0.10645 0.53047
 H259 H 0.20652 0.12509 0.55347
 C260 C 0.20116 0.05684 0.47321
 H261 H 0.19952 0.03679 0.45142
 C262 C 0.17575 0.08462 0.47593
 H263 H 0.15450 0.08512 0.45618
 Zn264 Zn 0.25873 0.01380 0.49429
 N265 N 0.22747 0.05422 0.49828
 C266 C 0.31610 0.04225 0.53449
 N267 N 0.29176 0.01424 0.53291
 C268 C 0.29302 -0.01358 0.55644
 C269 C 0.31940 -0.01371 0.58313
 C270 C 0.34292 0.04319 0.56067
 C271 C 0.23000 -0.05333 0.46654
 C272 C 0.20734 -0.08405 0.46677
 C273 C 0.18369 -0.06384 0.52469
 C274 C 0.20679 -0.03351 0.52334
 N275 N 0.22944 -0.02889 0.49466
 H276 H 0.31495 0.06362 0.51496
 H277 H 0.27420 -0.03621 0.55402
 H278 H 0.32037 -0.03676 0.60068
 H279 H 0.36226 0.06559 0.56129
 H280 H 0.24766 -0.04889 0.44365
 H281 H 0.20802 -0.10315 0.44408
 H282 H 0.16668 -0.06713 0.54830
 H283 H 0.20675 -0.01354 0.54525
 C284 C 0.17740 0.11005 0.50488
 C285 C 0.33298 0.01641 0.39168
 C286 C 0.18346 -0.08943 0.49584
 C287 C 0.34483 0.01508 0.58550
 C288 C 0.72008 0.01262 0.55629
 H289 H 0.73755 0.03636 0.55506
 C290 C 0.69567 0.00925 0.58505
 H291 H 0.69568 0.03018 0.60602
 C292 C 0.69936 -0.04332 0.53041
 H293 H 0.70079 -0.06348 0.50871
 C294 C 0.67455 -0.04778 0.55861
 H295 H 0.65693 -0.07157 0.55852
 N296 N 0.72149 -0.01351 0.52976
 C297 C 0.77612 0.06128 0.46614
 H298 H 0.75736 0.05734 0.44424
 C299 C 0.79832 0.09234 0.46730
 H300 H 0.79619 0.11229 0.44639
 C301 C 0.80290 0.03957 0.51912
 H302 H 0.80469 0.01859 0.53902
 C303 C 0.82554 0.07018 0.52136
 H304 H 0.84389 0.07277 0.54379
 Zn305 Zn 0.75229 -0.00863 0.48914
 N306 N 0.77887 0.03563 0.49181
 C307 C 0.69536 0.01439 0.44751
 N308 N 0.72252 -0.01016 0.44810
 C309 C 0.72636 -0.03602 0.42154
 C310 C 0.70242 -0.03752 0.39264
 C311 C 0.67087 0.01390 0.41918
 C312 C 0.78789 -0.07164 0.51326
 C313 C 0.81567 -0.09709 0.51315
 C314 C 0.84014 -0.06997 0.45925
 C315 C 0.81192 -0.04510 0.46039
 N316 N 0.78654 -0.04635 0.48711
 H317 H 0.69242 0.03405 0.46951
 H318 H 0.74753 -0.05592 0.42301
 H319 H 0.70562 -0.05843 0.37181
 H320 H 0.64893 0.03309 0.42019
 H321 H 0.76816 -0.07142 0.53494
 H322 H 0.81671 -0.11595 0.53504
 H323 H 0.86041 -0.06823 0.43803
 H324 H 0.81064 -0.02417 0.44041
 C325 C 0.82394 0.09675 0.49472
 C326 C 0.67204 -0.02108 0.58613
 C327 C 0.84239 -0.09636 0.48585
 C328 C 0.67437 -0.01223 0.39105
 C329 C 0.45937 0.19677 1.03678
 H330 H 0.43945 0.19667 1.01563
 C331 C 0.45590 0.17238 1.06492
 H332 H 0.43307 0.15361 1.06537
 C333 C 0.51394 0.22061 1.06111
 H334 H 0.53683 0.23903 1.05921
 C335 C 0.51155 0.19663 1.08977
 H336 H 0.53231 0.19793 1.11005
 N337 N 0.48806 0.22021 1.03533
 C338 C 0.45374 0.30600 0.96454
 H339 H 0.47571 0.30522 0.94506
 C340 C 0.42627 0.33136 0.96132
 H341 H 0.42726 0.35014 0.93922
 C342 C 0.42612 0.28264 1.01724
 H343 H 0.42631 0.26376 1.03913
 C344 C 0.39805 0.30760 1.01506
 H345 H 0.37659 0.30671 1.03504
 Zn346 Zn 0.49204 0.24951 0.99417
 N347 N 0.45308 0.28216 0.99203
 C348 C 0.46485 0.21872 0.92875
 N349 N 0.49153 0.21739 0.95361
 C350 C 0.51709 0.19111 0.95176
 C351 C 0.51671 0.16494 0.92386
 C352 C 0.46343 0.19309 0.90040
 C353 C 0.53886 0.30316 1.02220
 C354 C 0.56849 0.32710 1.02268
 C355 C 0.58947 0.29931 0.96673
 C356 C 0.55958 0.27569 0.96748
 N357 N 0.53501 0.27803 0.99496
 H358 H 0.44412 0.23911 0.93124
 H359 H 0.53741 0.19011 0.97248
 H360 H 0.53675 0.14376 0.92385
 H361 H 0.44181 0.19432 0.88101
 H362 H 0.51836 0.30511 1.04317
 H363 H 0.57026 0.34757 1.04406
 H364 H 0.60842 0.29762 0.94430
 H365 H 0.55552 0.25629 0.94552
 C366 C 0.39810 0.33267 0.98690
 C367 C 0.48248 0.17159 1.09156
 C368 C 0.59424 0.32539 0.99454
 C369 C 0.48961 0.16583 0.89756
 C370 C 0.46991 0.80288 -0.04428
 H371 H 0.45027 0.80209 -0.02247
 C372 C 0.46762 0.82948 -0.07033
 H373 H 0.44596 0.84907 -0.06851
 C374 C 0.52262 0.77890 -0.07234
 H375 H 0.54455 0.75974 -0.07244
 C376 C 0.52130 0.80506 -0.09910
 H377 H 0.54258 0.80560 -0.11930
 N378 N 0.49698 0.77819 -0.04578
 C379 C 0.45442 0.68856 0.01764
 H380 H 0.47521 0.68673 0.03779
 C381 C 0.42501 0.66433 0.01792
 H382 H 0.42390 0.64364 0.03818
 C383 C 0.43227 0.71663 -0.03444
 H384 H 0.43553 0.73657 -0.05522
 C385 C 0.40254 0.69285 -0.03529
 H386 H 0.38294 0.69493 -0.05662
 Zn387 Zn 0.49852 0.74538 -0.00730
 N388 N 0.45730 0.71432 -0.00802
 C389 C 0.47263 0.77187 0.06095
 N390 N 0.49931 0.77432 0.03561
 C391 C 0.52599 0.79993 0.03857
 C392 C 0.52652 0.82462 0.06777
 C393 C 0.47212 0.79590 0.09069
 C394 C 0.54265 0.69243 -0.04001
 C395 C 0.57130 0.66807 -0.04297
 C396 C 0.59357 0.69135 0.01416
 C397 C 0.56460 0.71541 0.01593
 N398 N 0.53981 0.71545 -0.01090
 H399 H 0.45113 0.75194 0.05775
 H400 H 0.54656 0.80164 0.01769
 H401 H 0.54816 0.84457 0.06839
 H402 H 0.45026 0.79362 0.11023
 H403 H 0.52229 0.69269 -0.06073
 H404 H 0.57298 0.64966 -0.06616
 H405 H 0.61308 0.69206 0.03568
 H406 H 0.56164 0.73357 0.03907
 C407 C 0.39839 0.66653 -0.00873
 C408 C 0.49338 0.83080 -0.09829
 C409 C 0.59681 0.66681 -0.01536
 C410 C 0.49897 0.82321 0.09439
 C411 C 1.03920 0.47383 0.20268
 H412 H 1.01978 0.45155 0.20166
 C413 C 1.06737 0.47517 0.17739
 H414 H 1.06885 0.45310 0.15778
 C415 C 1.05915 0.52923 0.23009
 H416 H 1.05543 0.55067 0.25015
 C417 C 1.08780 0.53169 0.20541
 H418 H 1.10600 0.55500 0.20727
 N419 N 1.03563 0.50053 0.22837
 C420 C 0.97043 0.45233 0.31388
 H421 H 0.94871 0.47180 0.31559
 C422 C 0.97124 0.42361 0.33788
 H423 H 0.94956 0.42197 0.35745
 C424 C 1.02500 0.43287 0.28613
 H425 H 1.04628 0.43698 0.26642
 C426 C 1.02692 0.40370 0.30951
 H427 H 1.04971 0.38550 0.30705
 Zn428 Zn 0.99482 0.49784 0.25940
 N429 N 0.99697 0.45640 0.28865
 C430 C 0.93121 0.46561 0.22955
 N431 N 0.95362 0.49527 0.22955
 C432 C 0.94921 0.52243 0.20575
 C433 C 0.92128 0.52051 0.18071
 C434 C 0.90301 0.46250 0.20487
 C435 C 1.02076 0.54263 0.31503
 C436 C 1.02141 0.57174 0.33988
 C437 C 0.96541 0.59268 0.31513
 C438 C 0.96589 0.56317 0.29066
 N439 N 0.99352 0.53908 0.29085
 H440 H 0.93576 0.44380 0.24795
 H441 H 0.96806 0.54520 0.20565
 H442 H 0.91923 0.54193 0.16135
 H443 H 0.88577 0.43843 0.20481
 H444 H 1.04192 0.52253 0.31514
 H445 H 1.04299 0.57322 0.35930
 H446 H 0.94316 0.61158 0.31476
 H447 H 0.94398 0.55935 0.27187
 C448 C 1.00001 0.39867 0.33614
 C449 C 1.09223 0.50471 0.17821
 C450 C 0.99356 0.59748 0.33992
 C451 C 0.89771 0.49013 0.18006
 C452 C -0.05144 0.47773 0.80932
 H453 H -0.03127 0.45668 0.81023
 C454 C -0.08007 0.47805 0.83424
 H455 H -0.08143 0.45710 0.85424
 C456 C -0.07196 0.53227 0.78396
 H457 H -0.06807 0.55407 0.76520
 C458 C -0.10083 0.53377 0.80848
 H459 H -0.11923 0.55648 0.80794
 N460 N -0.04786 0.50462 0.78488
 C461 C 0.02887 0.46384 0.70350
 H462 H 0.04776 0.48659 0.70403
 C463 C 0.03418 0.43484 0.67918
 H464 H 0.05732 0.43542 0.66103
 C465 C -0.02467 0.43610 0.72607
 H466 H -0.04776 0.43695 0.74414
 C467 C -0.02046 0.40647 0.70201
 H468 H -0.04014 0.38450 0.70272
 Zn469 Zn -0.00522 0.50622 0.75610
 N470 N -0.00011 0.46398 0.72634
 C471 C 0.05988 0.48488 0.78943
 N472 N 0.03398 0.51081 0.78828
 C473 C 0.03354 0.53929 0.81233
 C474 C 0.05990 0.54256 0.83888
 C475 C 0.08682 0.48711 0.81553
 C476 C -0.03307 0.54527 0.69977
 C477 C -0.03532 0.57283 0.67469
 C478 C 0.01740 0.60167 0.70131
 C479 C 0.01853 0.57354 0.72606
 N480 N -0.00656 0.54615 0.72487
 H481 H 0.05908 0.46178 0.77089
 H482 H 0.01217 0.55910 0.81129
 H483 H 0.05881 0.56518 0.85813
 H484 H 0.10619 0.46536 0.81653
 H485 H -0.05242 0.52293 0.69920
 H486 H -0.05659 0.57158 0.65484
 H487 H 0.03733 0.62338 0.70323
 H488 H 0.03967 0.57348 0.74592
 C489 C 0.00914 0.40588 0.67776
 C490 C -0.10511 0.50660 0.83416
 C491 C -0.00967 0.60127 0.67489
 C492 C 0.08699 0.51630 0.84080
 C493 C 0.12922 0.15133 0.48428
 C494 C 0.14997 0.13889 0.51067
 H495 H 0.13293 0.14086 0.45702
 H496 H 0.14654 0.14949 0.53792
 C497 C 0.64087 0.62502 0.01113
 C498 C 0.62595 0.63944 -0.01799
 H499 H 0.63116 0.63323 0.03770
 H500 H 0.63293 0.62877 -0.04458
 C501 C 0.87562 -0.15205 0.50303
 C502 C 0.87415 -0.12063 0.48531
 H503 H 0.85251 -0.16109 0.51868
 H504 H 0.89734 -0.11155 0.46982
 C505 C 0.34801 0.37186 1.01005
 C506 C 0.36961 0.36035 0.98293
 H507 H 0.35008 0.35989 1.03629
 H508 H 0.36734 0.37228 0.95668
 C509 C 0.88119 0.12939 0.50981
 C510 C 0.84851 0.12900 0.49441
 H511 H 0.89000 0.10566 0.52390
 H512 H 0.83964 0.15241 0.47990
 C513 C 0.35384 0.62279 0.01734
 C514 C 0.36731 0.64072 -0.01103
 H515 H 0.36569 0.62728 0.04363
 H516 H 0.35553 0.63648 -0.03737
 C517 C 0.12796 -0.12383 0.51379
 C518 C 0.15916 -0.12194 0.49504
 H519 H 0.12009 -0.10102 0.53098
 H520 H 0.16708 -0.14440 0.47746
 C521 C 0.63860 0.37003 1.02029
 C522 C 0.62435 0.35220 0.99175
 H523 H 0.63020 0.36278 1.04727
 H524 H 0.63540 0.35695 0.96509
 C525 C 0.50696 0.13221 1.13912
 C526 C 0.47897 0.14397 1.12001
 H527 H 0.53349 0.14430 1.13531
 H528 H 0.45245 0.13190 1.12401
 C529 C 0.01550 0.65053 0.63642
 C530 C -0.01239 0.62956 0.64718
 H531 H 0.04142 0.64840 0.64937
 H532 H -0.03834 0.63197 0.63435
 C533 C 0.50704 0.86005 -0.15713
 C534 C 0.49103 0.86056 -0.12448
 H535 H 0.52311 0.83693 -0.16564
 H536 H 0.47532 0.88394 -0.11598
 C537 C 0.97956 0.36159 0.38849
 C538 C 1.00369 0.36963 0.36009
 H539 H 0.95536 0.37750 0.39174
 H540 H 1.02729 0.35297 0.35612
 C541 C 0.52009 0.87783 0.13017
 C542 C 0.49624 0.84831 0.12370
 H543 H 0.54355 0.88085 0.11291
 H544 H 0.47350 0.84451 0.14176
 C545 C -0.01133 0.35385 0.63823
 C546 C 0.01496 0.37631 0.65038
 H547 H -0.03817 0.35553 0.64994
 H548 H 0.04183 0.37434 0.63876
 C549 C 0.51402 0.11729 0.85645
 C550 C 0.48638 0.13788 0.86822
 H551 H 0.54040 0.12111 0.86834
 H552 H 0.45999 0.13430 0.85630
 C553 C 1.02083 0.64207 0.38373
 C554 C 0.99181 0.62823 0.36650
 H555 H 1.04726 0.63089 0.37803
 H556 H 0.96535 0.63939 0.37202
 C557 C 1.12719 0.48547 0.12316
 C558 C 1.12078 0.50889 0.15301
 H559 H 1.10942 0.46230 0.11887
 H560 H 1.13815 0.53244 0.15696
 C561 C 0.63145 0.00165 0.63546
 C562 C 0.64444 -0.02592 0.61499
 H563 H 0.64216 0.02892 0.63220
 H564 H 0.63371 -0.05317 0.61841
 C565 C -0.14761 0.48283 0.88080
 C566 C -0.13386 0.51069 0.86210
 H567 H -0.13972 0.45525 0.87376
 H568 H -0.14445 0.53776 0.86689
 C569 C 0.37711 -0.00932 0.34712
 C570 C 0.35852 0.01915 0.36066
 H571 H 0.37269 -0.03602 0.35821
 H572 H 0.36253 0.04585 0.34947
 C573 C 0.14485 0.50189 0.87120
 C574 C 0.11298 0.51903 0.87097
 H575 H 0.15303 0.48537 0.84809
 H576 H 0.10475 0.53551 0.89408
 C577 C 0.62768 0.01239 0.35080
 C578 C 0.64824 -0.01533 0.36105
 H579 H 0.63049 0.03871 0.36425
 H580 H 0.64584 -0.04163 0.34751
 C581 C 0.85434 0.51289 0.13525
 C582 C 0.86922 0.48515 0.15247
 H583 H 0.86128 0.54062 0.14323
 H584 H 0.85969 0.45761 0.14694
 C585 C 0.37488 -0.00314 0.64218
 C586 C 0.37486 0.01592 0.61172
 H587 H 0.35189 -0.02031 0.64877
 H588 H 0.39792 0.03296 0.60510
   
