data_POSCAR
  _audit_creation_date              2014-09-24
  _audit_creation_method            'ToBaCCo'
  _symmetry_space_group_name_H-M    'P1'
  _symmetry_Int_Tables_number       1
  _symmetry_cell_setting            triclinic
  loop_
  _symmetry_equiv_pos_as_xyz
 x,y,z
_cell_length_a 36.5013
_cell_length_b 38.7609
_cell_length_c 30.0106
_cell_angle_alpha 88.690000
_cell_angle_beta 90.360600
_cell_angle_gamma 91.298900
loop_
  _atom_site_label
  _atom_site_type_symbol
  _atom_site_fract_x
  _atom_site_fract_y
  _atom_site_fract_z
C1 C 1.28712 0.21661 0.26106
 C2 C 1.25801 0.23566 0.24369
 C3 C 1.23398 0.22097 0.21260
 C4 C 1.23925 0.18733 0.19806
 C5 C 1.26912 0.16871 0.21476
 C6 C 1.29328 0.18291 0.24669
 C7 C 1.25474 0.27219 0.25457
 C8 C 1.27942 0.29619 0.23524
 C9 C 1.27409 0.33179 0.23878
 C10 C 1.24522 0.34268 0.26556
 C11 C 1.22115 0.31884 0.28690
 C12 C 1.22561 0.28341 0.28037
 H13 H 1.30553 0.22864 0.28491
 H14 H 1.21112 0.23578 0.20016
 H15 H 1.30117 0.28681 0.21458
 H16 H 1.20629 0.26458 0.29435
 H17 H 1.27200 0.14238 0.20437
 H18 H 1.24203 0.36986 0.27140
 C19 C 0.76609 -0.27966 0.29708
 C20 C 0.74040 -0.26403 0.26876
 C21 C 0.71334 -0.28401 0.24795
 C22 C 0.71170 -0.31973 0.25532
 C23 C 0.73759 -0.33550 0.28341
 C24 C 0.76526 -0.31576 0.30480
 C25 C 0.74222 -0.22659 0.26055
 C26 C 0.76923 -0.21199 0.23255
 C27 C 0.77229 -0.17597 0.22632
 C28 C 0.74881 -0.15486 0.25010
 C29 C 0.72164 -0.16950 0.27798
 C30 C 0.71796 -0.20540 0.28236
 H31 H 0.78738 -0.26331 0.31107
 H32 H 0.69365 -0.27175 0.22589
 H33 H 0.78814 -0.22881 0.21650
 H34 H 0.69733 -0.21683 0.30434
 H35 H 0.73612 -0.36330 0.28812
 H36 H 0.75122 -0.12702 0.24652
 C37 C 0.75969 0.21143 -0.19764
 C38 C 0.73443 0.22723 -0.22630
 C39 C 0.70692 0.20748 -0.24672
 C40 C 0.70432 0.17182 -0.23836
 C41 C 0.72954 0.15601 -0.20931
 C42 C 0.75755 0.17570 -0.18893
 C43 C 0.73729 0.26451 -0.23521
 C44 C 0.76395 0.27802 -0.26454
 C45 C 0.76902 0.31407 -0.27069
 C46 C 0.74722 0.33585 -0.24512
 C47 C 0.72024 0.32220 -0.21626
 C48 C 0.71492 0.28653 -0.21206
 H49 H 0.78161 0.22702 -0.18340
 H50 H 0.68775 0.21983 -0.26937
 H51 H 0.78118 0.25991 -0.28081
 H52 H 0.69452 0.27585 -0.18918
 H53 H 0.72807 0.12829 -0.20376
 H54 H 0.75040 0.36367 -0.24807
 C55 C 1.28384 -0.29143 -0.23508
 C56 C 1.25507 -0.27141 -0.25109
 C57 C 1.22883 -0.28563 -0.27984
 C58 C 1.23166 -0.31993 -0.29323
 C59 C 1.26112 -0.33970 -0.27754
 C60 C 1.28751 -0.32580 -0.24804
 C61 C 1.25489 -0.23468 -0.24053
 C62 C 1.28235 -0.21301 -0.25851
 C63 C 1.28408 -0.17810 -0.24823
 C64 C 1.25816 -0.16479 -0.21947
 C65 C 1.22994 -0.18615 -0.20160
 C66 C 1.22847 -0.22133 -0.21236
 H67 H 1.30393 -0.27953 -0.21315
 H68 H 1.20633 -0.26997 -0.29143
 H69 H 1.30238 -0.22341 -0.28082
 H70 H 1.20672 -0.23822 -0.19967
 H71 H 1.26214 -0.36637 -0.28710
 H72 H 1.25927 -0.13752 -0.21226
 C73 C 0.22052 0.27531 0.72526
 C74 C 0.23815 0.24927 0.74998
 C75 C 0.21778 0.22015 0.76542
 C76 C 0.18029 0.21573 0.75460
 C77 C 0.16366 0.24177 0.72833
 C78 C 0.18341 0.27138 0.71384
 C79 C 0.27864 0.24990 0.75408
 C80 C 0.29787 0.27744 0.77407
 C81 C 0.33666 0.27881 0.77450
 C82 C 0.35544 0.25124 0.75563
 C83 C 0.33650 0.22353 0.73615
 C84 C 0.29818 0.22320 0.73522
 H85 H 0.23616 0.29748 0.71257
 H86 H 0.23185 0.20022 0.78428
 H87 H 0.28247 0.29815 0.78803
 H88 H 0.28340 0.20220 0.71933
 H89 H 0.13479 0.24030 0.72021
 H90 H 0.38498 0.25060 0.75648
 C91 C 0.71553 0.77468 0.71236
 C92 C 0.73144 0.74883 0.73875
 C93 C 0.70915 0.72399 0.76050
 C94 C 0.67054 0.72474 0.75659
 C95 C 0.65507 0.75173 0.73039
 C96 C 0.67722 0.77658 0.70734
 C97 C 0.77182 0.74831 0.74286
 C98 C 0.79069 0.77633 0.76199
 C99 C 0.82899 0.77941 0.75938
 C100 C 0.84837 0.75401 0.73728
 C101 C 0.82990 0.72536 0.71896
 C102 C 0.79161 0.72236 0.72252
 H103 H 0.73371 0.79396 0.69732
 H104 H 0.72228 0.70397 0.78024
 H105 H 0.77536 0.79643 0.77748
 H106 H 0.77705 0.70113 0.70685
 H107 H 0.62570 0.75394 0.72800
 H108 H 0.87793 0.75629 0.73470
 C109 C 0.71654 0.27169 0.21522
 C110 C 0.73139 0.24431 0.24011
 C111 C 0.70803 0.21953 0.26023
 C112 C 0.66981 0.22189 0.25623
 C113 C 0.65516 0.24940 0.23088
 C114 C 0.67835 0.27422 0.20974
 C115 C 0.77143 0.24148 0.24553
 C116 C 0.79176 0.26729 0.26733
 C117 C 0.82949 0.26369 0.27484
 C118 C 0.84717 0.23493 0.25785
 C119 C 0.82719 0.20924 0.23529
 C120 C 0.78916 0.21234 0.23010
 H121 H 0.73489 0.29103 0.20046
 H122 H 0.71981 0.19847 0.27944
 H123 H 0.77786 0.28934 0.28026
 H124 H 0.77347 0.19271 0.21268
 H125 H 0.62575 0.25176 0.22787
 H126 H 0.87648 0.23244 0.26238
 C127 C 0.21175 0.77379 0.22581
 C128 C 0.23025 0.74703 0.24851
 C129 C 0.20998 0.71977 0.26919
 C130 C 0.17143 0.72022 0.26962
 C131 C 0.15379 0.74574 0.24386
 C132 C 0.17342 0.77214 0.22085
 C133 C 0.27084 0.74770 0.25076
 C134 C 0.28977 0.77610 0.26898
 C135 C 0.32827 0.77725 0.27054
 C136 C 0.34770 0.74943 0.25415
 C137 C 0.32929 0.72091 0.23572
 C138 C 0.29077 0.72024 0.23406
 H139 H 0.22748 0.79437 0.20933
 H140 H 0.22433 0.69981 0.28767
 H141 H 0.27448 0.79737 0.28170
 H142 H 0.27628 0.69850 0.21949
 H143 H 0.12417 0.74521 0.24192
 H144 H 0.37735 0.75010 0.25533
 N145 N 1.04855 0.03648 0.06933
 N146 N 1.07623 0.04136 0.09694
 N147 N 0.97205 0.06344 0.04105
 N148 N 0.95427 0.09121 0.05179
 N149 N 0.97181 0.04074 0.07430
 N150 N 0.95333 0.05270 0.10837
 N151 N 1.04856 0.06035 0.03759
 N152 N 1.07622 0.08249 0.04312
 C153 C 1.09340 0.06996 0.08006
 C154 C 0.94198 0.08398 0.09331
 N155 N 0.96480 0.03557 -0.08391
 N156 N 0.93564 0.03913 -0.10948
 N157 N 1.04464 0.05798 -0.05780
 N158 N 1.07055 0.08090 -0.06823
 N159 N 1.04153 0.03441 -0.08839
 N160 N 1.06489 0.04131 -0.12121
 N161 N 0.96736 0.06044 -0.05494
 N162 N 0.93978 0.08174 -0.06022
 Mn163 Mn 1.00812 0.06082 -0.00868
 C164 C 0.92031 0.06803 -0.09445
 C165 C 1.08332 0.06999 -0.10743
 N166 N 0.96682 -0.03387 0.07883
 N167 N 0.94200 -0.03763 0.11033
 N168 N 1.04022 -0.06216 0.04527
 N169 N 1.06212 -0.08782 0.05503
 N170 N 1.04379 -0.03771 0.07465
 N171 N 1.06879 -0.04608 0.10499
 N172 N 0.96365 -0.05876 0.04999
 N173 N 0.93656 -0.08034 0.06138
 Mn174 Mn 1.00775 0.00138 0.07469
 C175 C 0.92318 -0.06657 0.09892
 C176 C 1.08036 -0.07723 0.09170
 N177 N 1.03725 -0.04014 -0.08248
 N178 N 1.06351 -0.04563 -0.11109
 N179 N 0.95952 -0.06107 -0.04602
 N180 N 0.93535 -0.08614 -0.05329
 N181 N 0.96073 -0.03912 -0.08005
 N182 N 0.93789 -0.04939 -0.11182
 N183 N 1.03658 -0.06399 -0.05066
 N184 N 1.06254 -0.08661 -0.05705
 Mn185 Mn 1.00108 -0.00228 -0.08414
 Mn186 Mn 0.99991 -0.06180 -0.00035
 Cl187 Cl 1.00411 -0.00048 -0.00456
 C188 C 1.07909 -0.07463 -0.09488
 C189 C 0.92156 -0.07827 -0.09402
 N190 N 0.95587 0.53317 0.42443
 N191 N 0.92780 0.53792 0.39728
 N192 N 1.03451 0.55711 0.45222
 N193 N 1.05845 0.58184 0.44163
 N194 N 1.03334 0.53348 0.42156
 N195 N 1.05708 0.54141 0.38952
 N196 N 0.95774 0.55740 0.45429
 N197 N 0.93116 0.57956 0.44797
 C198 C 0.91262 0.56690 0.41244
 C199 C 1.07299 0.57138 0.40310
 N200 N 1.03719 0.53170 0.57907
 N201 N 1.06445 0.53628 0.60737
 N202 N 0.96054 0.55725 0.55023
 N203 N 0.93997 0.58324 0.56109
 N204 N 0.96016 0.53326 0.58188
 N205 N 0.93889 0.54242 0.61503
 N206 N 1.03724 0.55629 0.54826
 N207 N 1.06448 0.57863 0.55514
 Mn208 Mn 0.99754 0.55727 0.50119
 C209 C 1.08133 0.56551 0.59195
 C210 C 0.92603 0.57346 0.60109
 N211 N 1.03083 0.45927 0.42297
 N212 N 1.05546 0.45419 0.39219
 N213 N 0.95459 0.43424 0.45626
 N214 N 0.93378 0.40757 0.44487
 N215 N 0.95398 0.45852 0.42491
 N216 N 0.93232 0.44885 0.39170
 N217 N 1.03133 0.43457 0.45366
 N218 N 1.05638 0.41171 0.44416
 Mn219 Mn 0.99344 0.49617 0.42308
 C220 C 1.07135 0.42463 0.40581
 C221 C 0.91936 0.41729 0.40511
 N222 N 0.95793 0.45872 0.58249
 N223 N 0.93164 0.45424 0.61199
 N224 N 1.03354 0.43391 0.55012
 N225 N 1.05679 0.40916 0.55933
 N226 N 1.03494 0.45744 0.58092
 N227 N 1.05945 0.44926 0.61187
 N228 N 0.95662 0.43425 0.55290
 N229 N 0.92942 0.41210 0.56196
 Mn230 Mn 0.99752 0.49524 0.58150
 Mn231 Mn 0.99403 0.43393 0.50332
 Cl232 Cl 0.99555 0.49560 0.50226
 C233 C 0.91400 0.42520 0.59876
 C234 C 1.07319 0.41926 0.59753
 N235 N 0.56087 0.03700 0.54751
 N236 N 0.58787 0.05902 0.55629
 N237 N 0.53000 -0.03490 0.58007
 N238 N 0.53310 -0.06061 0.60937
 N239 N 0.55612 -0.03568 0.55020
 N240 N 0.57791 -0.06183 0.55868
 N241 N 0.53579 0.03742 0.57866
 N242 N 0.54544 0.05930 0.60996
 C243 C 0.57762 0.07301 0.59501
 C244 C 0.56304 -0.07726 0.59553
 N245 N 0.42701 -0.03029 0.54569
 N246 N 0.40050 -0.05328 0.55318
 N247 N 0.45672 0.04134 0.57605
 N248 N 0.45011 0.06511 0.60568
 N249 N 0.43208 0.04213 0.54401
 N250 N 0.40818 0.06639 0.55082
 N251 N 0.45122 -0.03091 0.57819
 N252 N 0.44148 -0.05393 0.60922
 Mn253 Mn 0.49346 0.00325 0.57873
 C254 C 0.41011 -0.06798 0.59268
 C255 C 0.41990 0.08074 0.58913
 N256 N 0.55776 -0.03543 0.45375
 N257 N 0.58368 -0.05716 0.44419
 N258 N 0.53741 0.03759 0.41965
 N259 N 0.54547 0.06234 0.39005
 N260 N 0.56217 0.03680 0.45159
 N261 N 0.58775 0.06085 0.44455
 N262 N 0.53252 -0.03509 0.42231
 N263 N 0.54042 -0.05704 0.39094
 Mn264 Mn 0.55957 0.00067 0.50081
 C265 C 0.57208 -0.07099 0.40552
 C266 C 0.57691 0.07670 0.40618
 N267 N 0.43373 0.04225 0.44858
 N268 N 0.41128 0.06772 0.43995
 N269 N 0.45350 -0.03198 0.42002
 N270 N 0.44544 -0.05662 0.39159
 N271 N 0.42791 -0.03032 0.45035
 N272 N 0.40183 -0.05373 0.44356
 N273 N 0.45849 0.04042 0.41724
 N274 N 0.45306 0.06421 0.38583
 Mn275 Mn 0.42989 0.00597 0.49712
 Mn276 Mn 0.49550 0.00268 0.41929
 Cl277 Cl 0.49465 0.00312 0.49898
 C278 C 0.42396 0.08140 0.40105
 C279 C 0.41316 -0.07005 0.40693
 N280 N 0.56715 0.54093 0.04795
 N281 N 0.59389 0.56352 0.05549
 N282 N 0.53748 0.46979 0.08347
 N283 N 0.54084 0.44484 0.11372
 N284 N 0.56320 0.46818 0.05324
 N285 N 0.58493 0.44206 0.06233
 N286 N 0.54211 0.54205 0.07911
 N287 N 0.55160 0.56494 0.10925
 C288 C 0.58357 0.57854 0.09348
 C289 C 0.57049 0.42767 0.10012
 N290 N 0.43354 0.47265 0.05078
 N291 N 0.40684 0.45036 0.06067
 N292 N 0.46258 0.54483 0.07774
 N293 N 0.45451 0.56802 0.10770
 N294 N 0.43793 0.54474 0.04568
 N295 N 0.41274 0.56774 0.05273
 N296 N 0.45905 0.47211 0.08180
 N297 N 0.45082 0.44890 0.11321
 Mn298 Mn 0.50033 0.50727 0.08100
 C299 C 0.41844 0.43533 0.09916
 C300 C 0.42354 0.58240 0.09117
 N301 N 0.56402 0.46641 -0.04309
 N302 N 0.58940 0.44385 -0.05167
 N303 N 0.54279 0.53886 -0.07927
 N304 N 0.55086 0.56271 -0.11013
 N305 N 0.56803 0.53857 -0.04787
 N306 N 0.59404 0.56187 -0.05669
 N307 N 0.53845 0.46605 -0.07410
 N308 N 0.54545 0.44277 -0.10413
 Mn309 Mn 0.56595 0.50350 0.00262
 C310 C 0.57703 0.42883 -0.08927
 C311 C 0.58289 0.57693 -0.09544
 N312 N 0.43898 0.54276 -0.04951
 N313 N 0.41569 0.56730 -0.05925
 N314 N 0.45952 0.46837 -0.07554
 N315 N 0.45105 0.44403 -0.10418
 N316 N 0.43392 0.47029 -0.04520
 N317 N 0.40726 0.44750 -0.05254
 N318 N 0.46368 0.54068 -0.08087
 N319 N 0.45733 0.56329 -0.11344
 Mn320 Mn 0.43584 0.50760 0.00039
 Mn321 Mn 0.50114 0.50346 -0.07793
 Cl322 Cl 0.50084 0.50547 0.00151
 C323 C 0.42782 0.58013 -0.09882
 C324 C 0.41847 0.43111 -0.08922
 C325 C 1.17956 0.11903 0.14986
 C326 C 1.15988 0.13727 0.11701
 N327 N 1.16719 0.17148 0.11005
 C328 C 1.19296 0.18836 0.13488
 C329 C 1.21231 0.17019 0.16835
 N330 N 1.20517 0.13582 0.17451
 N331 N 1.17193 0.08507 0.15767
 C332 C 1.14505 0.06850 0.13453
 C333 C 1.12483 0.08672 0.10207
 N334 N 1.13296 0.12073 0.09375
 H335 H 1.19828 0.21558 0.12843
 H336 H 1.13920 0.04147 0.14188
 C337 C 1.16808 0.61339 0.66206
 C338 C 1.14893 0.63180 0.62890
 N339 N 1.15742 0.66569 0.62109
 C340 C 1.18401 0.68206 0.64522
 C341 C 1.20304 0.66367 0.67875
 N342 N 1.19457 0.62965 0.68594
 N343 N 1.15941 0.57972 0.67057
 C344 C 1.13208 0.56359 0.64769
 C345 C 1.11256 0.58194 0.61470
 N346 N 1.12163 0.61568 0.60584
 H347 H 1.19038 0.70899 0.63796
 H348 H 1.12550 0.53676 0.65546
 C349 C 0.64970 0.13669 0.66813
 C350 C 0.62642 0.11257 0.69004
 N351 N 0.62902 0.10812 0.73496
 C352 C 0.65395 0.12668 0.75900
 C353 C 0.67696 0.15111 0.73716
 N354 N 0.67409 0.15558 0.69217
 N355 N 0.64830 0.14014 0.62306
 C356 C 0.62479 0.12033 0.59876
 C357 C 0.60124 0.09641 0.62057
 N358 N 0.60249 0.09319 0.66582
 H359 H 0.65557 0.12270 0.79477
 H360 H 0.62452 0.12316 0.56279
 C361 C 0.65600 0.64392 0.16352
 C362 C 0.63287 0.62024 0.18646
 N363 N 0.63588 0.61658 0.23143
 C364 C 0.66110 0.63548 0.25454
 C365 C 0.68400 0.65942 0.23167
 N366 N 0.68071 0.66317 0.18664
 N367 N 0.65419 0.64651 0.11840
 C368 C 0.63046 0.62623 0.09504
 C369 C 0.60713 0.60269 0.11789
 N370 N 0.60876 0.60038 0.16318
 H371 H 0.66307 0.63212 0.29037
 H372 H 0.62991 0.62832 0.05901
 C373 C 0.84010 -0.11235 0.17926
 C374 C 0.85304 -0.12939 0.14192
 N375 N 0.83926 -0.16120 0.13238
 C376 C 0.81331 -0.17688 0.15867
 C377 C 0.80049 -0.16003 0.19649
 N378 N 0.81423 -0.12795 0.20546
 N379 N 0.85385 -0.08061 0.18902
 C380 C 0.88020 -0.06515 0.16326
 C381 C 0.89348 -0.08220 0.12599
 N382 N 0.87941 -0.11398 0.11610
 H383 H 0.80250 -0.20198 0.14961
 H384 H 0.89082 -0.03989 0.17203
 C385 C 0.82925 0.37892 0.67556
 C386 C 0.84810 0.35956 0.64462
 N387 N 0.84013 0.32537 0.64135
 C388 C 0.81449 0.30950 0.66796
 C389 C 0.79559 0.32876 0.69980
 N390 N 0.80364 0.36322 0.70190
 N391 N 0.83741 0.41299 0.67964
 C392 C 0.86400 0.42856 0.65441
 C393 C 0.88327 0.40922 0.62356
 N394 N 0.87465 0.37509 0.61914
 H395 H 0.80883 0.28242 0.66306
 H396 H 0.87024 0.45572 0.65871
 C397 C 0.33907 -0.13694 0.66159
 C398 C 0.36115 -0.11324 0.68489
 N399 N 0.35765 -0.11102 0.72976
 C400 C 0.33295 -0.13143 0.75240
 C401 C 0.31116 -0.15540 0.72911
 N402 N 0.31494 -0.15761 0.68423
 N403 N 0.34135 -0.13826 0.61658
 C404 C 0.36460 -0.11669 0.59362
 C405 C 0.38690 -0.09313 0.61682
 N406 N 0.38481 -0.09205 0.66203
 H407 H 0.33059 -0.12925 0.78815
 H408 H 0.36560 -0.11784 0.55764
 C409 C 0.35261 0.36720 0.17660
 C410 C 0.34019 0.39987 0.16352
 N411 N 0.30677 0.41001 0.17667
 C412 C 0.28495 0.38895 0.20233
 C413 C 0.29669 0.35552 0.21471
 N414 N 0.33044 0.34571 0.20107
 N415 N 0.38670 0.35758 0.16480
 C416 C 0.40885 0.37924 0.14021
 C417 C 0.39586 0.41144 0.12591
 N418 N 0.36181 0.42103 0.13796
 H419 H 0.25806 0.39786 0.21057
 H420 H 0.43600 0.37121 0.13125
 C421 C 0.82641 0.11146 -0.15386
 C422 C 0.84492 0.12832 -0.11914
 N423 N 0.83331 0.15950 -0.10604
 C424 C 0.80448 0.17491 -0.12668
 C425 C 0.78649 0.15851 -0.16238
 N426 N 0.79780 0.12688 -0.17459
 N427 N 0.83813 0.08049 -0.16740
 C428 C 0.86784 0.06572 -0.14814
 C429 C 0.88691 0.08277 -0.11389
 N430 N 0.87476 0.11366 -0.09994
 H431 H 0.79591 0.19978 -0.11546
 H432 H 0.87671 0.04109 -0.15990
 C433 C 0.82428 0.61614 0.34825
 C434 C 0.84716 0.63413 0.37780
 N435 N 0.84189 0.66816 0.38410
 C436 C 0.81520 0.68532 0.36158
 C437 C 0.79226 0.66758 0.33106
 N438 N 0.79741 0.63311 0.32609
 N439 N 0.83007 0.58228 0.34098
 C440 C 0.85802 0.56564 0.36171
 C441 C 0.88109 0.58363 0.39129
 N442 N 0.87488 0.61749 0.39887
 H443 H 0.81174 0.71222 0.36870
 H444 H 0.86226 0.53870 0.35503
 C445 C 0.35858 0.15153 0.32983
 C446 C 0.37291 0.12286 0.30890
 N447 N 0.36212 0.11546 0.26683
 C448 C 0.33689 0.13490 0.24499
 C449 C 0.32168 0.16346 0.26611
 N450 N 0.33384 0.17127 0.30785
 N451 N 0.36772 0.15786 0.37284
 C452 C 0.39011 0.13636 0.39612
 C453 C 0.40433 0.10757 0.37525
 N454 N 0.39567 0.10167 0.33191
 H455 H 0.32958 0.12828 0.21126
 H456 H 0.39623 0.14130 0.43077
 C457 C 0.35848 0.64620 -0.17015
 C458 C 0.36953 0.61525 -0.18859
 N459 N 0.35431 0.60475 -0.22746
 C460 C 0.32792 0.62341 -0.24841
 C461 C 0.31614 0.65441 -0.22968
 N462 N 0.33257 0.66499 -0.19124
 N463 N 0.37219 0.65598 -0.13014
 C464 C 0.39612 0.63579 -0.10730
 C465 C 0.40710 0.60475 -0.12562
 N466 N 0.39375 0.59526 -0.16606
 H467 H 0.31716 0.61423 -0.27968
 H468 H 0.40588 0.64349 -0.07479
 C469 C 1.16540 -0.12147 -0.16173
 C470 C 1.14633 -0.13969 -0.12787
 N471 N 1.15511 -0.17289 -0.11806
 C472 C 1.18193 -0.18875 -0.14081
 C473 C 1.20094 -0.17050 -0.17496
 N474 N 1.19209 -0.13718 -0.18418
 N475 N 1.15658 -0.08852 -0.17224
 C476 C 1.12925 -0.07288 -0.15062
 C477 C 1.10984 -0.09096 -0.11681
 N478 N 1.11898 -0.12403 -0.10599
 H479 H 1.18852 -0.21509 -0.13195
 H480 H 1.12268 -0.04658 -0.15992
 C481 C 1.15280 0.37911 0.32901
 C482 C 1.13753 0.36084 0.36553
 N483 N 1.14912 0.32845 0.37539
 C484 C 1.17537 0.31363 0.35047
 C485 C 1.19093 0.33216 0.31403
 N486 N 1.17891 0.36446 0.30450
 N487 N 1.14167 0.41141 0.31877
 C488 C 1.11575 0.42645 0.34338
 C489 C 1.10022 0.40844 0.38011
 N490 N 1.11152 0.37589 0.39046
 H491 H 1.18455 0.28812 0.35979
 H492 H 1.10740 0.45229 0.33425
 C493 C 0.63861 -0.13274 0.32712
 C494 C 0.65408 -0.10872 0.35650
 N495 N 0.69102 -0.10425 0.35863
 C496 C 0.71331 -0.12289 0.33279
 C497 C 0.69799 -0.14752 0.30411
 N498 N 0.66089 -0.15195 0.30205
 N499 N 0.60157 -0.13621 0.32388
 C500 C 0.57929 -0.11669 0.34876
 C501 C 0.59479 -0.09321 0.37884
 N502 N 0.63189 -0.08985 0.38196
 H503 H 0.74272 -0.11912 0.33532
 H504 H 0.54985 -0.11968 0.34541
 C505 C 0.63983 0.36232 -0.16551
 C506 C 0.65672 0.38640 -0.13729
 N507 N 0.69381 0.38954 -0.13606
 C508 C 0.71488 0.36960 -0.16179
 C509 C 0.69809 0.34507 -0.18947
 N510 N 0.66087 0.34191 -0.19052
 N511 N 0.60269 0.36015 -0.16795
 C512 C 0.58164 0.38109 -0.14349
 C513 C 0.59852 0.40479 -0.11475
 N514 N 0.63573 0.40678 -0.11228
 H515 H 0.74443 0.37241 -0.16010
 H516 H 0.55209 0.37917 -0.14629
 C517 C 1.15321 0.14112 -0.17467
 C518 C 1.11928 0.13140 -0.19325
 N519 N 1.10690 0.14847 -0.23005
 C520 C 1.12634 0.17542 -0.24859
 C521 C 1.16014 0.18624 -0.22943
 N522 N 1.17283 0.16792 -0.19329
 N523 N 1.16490 0.12509 -0.13664
 C524 C 1.14380 0.10025 -0.11590
 C525 C 1.10960 0.09076 -0.13413
 N526 N 1.09824 0.10649 -0.17265
 H527 H 1.11547 0.18749 -0.27848
 H528 H 1.15305 0.08879 -0.08469
 C529 C 1.14071 0.64004 0.32723
 C530 C 1.10783 0.65059 0.34605
 N531 N 1.09691 0.68343 0.33973
 C532 C 1.11704 0.70638 0.31489
 C533 C 1.15046 0.69644 0.29591
 N534 N 1.16174 0.66335 0.30339
 N535 N 1.15045 0.60646 0.33229
 C536 C 1.12883 0.58318 0.35548
 C537 C 1.09653 0.59423 0.37540
 N538 N 1.08702 0.62775 0.37018
 H539 H 1.10756 0.73257 0.31175
 H540 H 1.13716 0.55665 0.35926
 C541 C 0.63844 0.15627 0.34077
 C542 C 0.60443 0.14531 0.32356
 N543 N 0.59178 0.15999 0.28507
 C544 C 0.61166 0.18506 0.26293
 C545 C 0.64604 0.19586 0.27985
 N546 N 0.65837 0.18099 0.31854
 N547 N 0.65126 0.14175 0.37917
 C548 C 0.63170 0.11650 0.40112
 C549 C 0.59782 0.10500 0.38376
 N550 N 0.58492 0.11984 0.34528
 H551 H 0.60109 0.19570 0.23193
 H552 H 0.64275 0.10530 0.43157
 C553 C 0.64464 0.65451 -0.16488
 C554 C 0.60777 0.64818 -0.17577
 N555 N 0.59198 0.66727 -0.20876
 C556 C 0.61121 0.69256 -0.23130
 C557 C 0.64863 0.69909 -0.22085
 N558 N 0.66405 0.67933 -0.18775
 N559 N 0.66046 0.63590 -0.13141
 C560 C 0.64104 0.61112 -0.10835
 C561 C 0.60416 0.60423 -0.11956
 N562 N 0.58839 0.62302 -0.15322
 H563 H 0.59736 0.70614 -0.25801
 H564 H 0.65444 0.59667 -0.08187
 C565 C 0.85730 -0.15400 -0.15903
 C566 C 0.88562 -0.13609 -0.18182
 N567 N 0.89462 -0.14573 -0.22351
 C568 C 0.87682 -0.17262 -0.24332
 C569 C 0.84846 -0.19069 -0.22058
 N570 N 0.83924 -0.18059 -0.17898
 N571 N 0.84934 -0.14546 -0.11662
 C572 C 0.86871 -0.12012 -0.09570
 C573 C 0.89711 -0.10213 -0.11829
 N574 N 0.90478 -0.11047 -0.16108
 H575 H 0.88458 -0.17972 -0.27657
 H576 H 0.86243 -0.11440 -0.06148
 C577 C 0.86230 0.34699 0.32239
 C578 C 0.88531 0.33541 0.35697
 N579 N 0.89041 0.30109 0.36331
 C580 C 0.87345 0.27767 0.33668
 C581 C 0.84982 0.28898 0.30242
 N582 N 0.84470 0.32355 0.29626
 N583 N 0.85821 0.38148 0.31539
 C584 C 0.87612 0.40489 0.34141
 C585 C 0.89864 0.39327 0.37656
 N586 N 0.90257 0.35870 0.38338
 H587 H 0.87770 0.25043 0.34287
 H588 H 0.87262 0.43221 0.33498
 C589 C 0.35307 -0.15097 0.34609
 C590 C 0.38677 -0.13915 0.32854
 N591 N 0.40025 -0.15404 0.29181
 C592 C 0.38180 -0.18051 0.27208
 C593 C 0.34823 -0.19285 0.28991
 N594 N 0.33459 -0.17740 0.32641
 N595 N 0.33966 -0.13617 0.38296
 C596 C 0.35845 -0.11011 0.40315
 C597 C 0.39226 -0.09824 0.38573
 N598 N 0.40556 -0.11309 0.34865
 H599 H 0.39319 -0.19163 0.24262
 H600 H 0.34708 -0.09884 0.43253
 C601 C 0.35799 0.35228 -0.15405
 C602 C 0.39462 0.35981 -0.16509
 N603 N 0.41111 0.34135 -0.19667
 C604 C 0.39299 0.31518 -0.21730
 C605 C 0.35614 0.30682 -0.20609
 N606 N 0.33957 0.32634 -0.17500
 N607 N 0.34174 0.37054 -0.12183
 C608 C 0.36054 0.39593 -0.10015
 C609 C 0.39722 0.40364 -0.11145
 N610 N 0.41327 0.38536 -0.14389
 H611 H 0.40724 0.30216 -0.24322
 H612 H 0.34691 0.41006 -0.07461
 C613 C 1.14608 -0.14675 0.16573
 C614 C 1.11464 -0.15784 0.14253
 N615 N 1.10389 -0.19144 0.14473
 C616 C 1.12271 -0.21463 0.16973
 C617 C 1.15452 -0.20408 0.19333
 N618 N 1.16581 -0.17020 0.18988
 N619 N 1.15542 -0.11252 0.16496
 C620 C 1.13470 -0.08907 0.14204
 C621 C 1.10374 -0.10052 0.11800
 N622 N 1.09474 -0.13472 0.11884
 H623 H 1.11341 -0.24134 0.16984
 H624 H 1.14257 -0.06198 0.14197
 C625 C 1.14248 0.35328 0.67224
 C626 C 1.12488 0.34224 0.63317
 N627 N 1.12810 0.30914 0.62036
 C628 C 1.14775 0.28630 0.64516
 C629 C 1.16509 0.29697 0.68463
 N630 N 1.16230 0.33045 0.69711
 N631 N 1.13816 0.38625 0.68551
 C632 C 1.11674 0.40852 0.66174
 C633 C 1.09880 0.39732 0.62288
 N634 N 1.10365 0.36442 0.60953
 H635 H 1.14945 0.25988 0.63455
 H636 H 1.11341 0.43449 0.67334
 C637 C 0.60926 -0.16221 0.66489
 C638 C 0.62938 -0.14330 0.63267
 N639 N 0.66453 -0.15164 0.62470
 C640 C 0.68085 -0.17765 0.64794
 C641 C 0.66108 -0.19673 0.68110
 N642 N 0.62535 -0.18849 0.68789
 N643 N 0.57424 -0.15339 0.67348
 C644 C 0.55855 -0.12636 0.65142
 C645 C 0.57869 -0.10738 0.61901
 N646 N 0.61367 -0.11655 0.61030
 H647 H 0.70855 -0.18372 0.63911
 H648 H 0.53068 -0.11977 0.65914
 C649 C 0.61454 0.34272 0.17167
 C650 C 0.63292 0.35730 0.13461
 N651 N 0.66546 0.34433 0.12228
 C652 C 0.68064 0.31763 0.14551
 C653 C 0.66250 0.30308 0.18304
 N654 N 0.62961 0.31603 0.19484
 N655 N 0.58210 0.35576 0.18422
 C656 C 0.56725 0.38285 0.16153
 C657 C 0.58562 0.39767 0.12445
 N658 N 0.61809 0.38436 0.11180
 H659 H 0.70636 0.30766 0.13434
 H660 H 0.54140 0.39276 0.17245
 C661 C 0.89344 0.16208 0.16745
 C662 C 0.88047 0.12775 0.17181
 N663 N 0.85075 0.12051 0.19773
 C664 C 0.83331 0.14603 0.21912
 C665 C 0.84636 0.18039 0.21482
 N666 N 0.87635 0.18740 0.18921
 N667 N 0.92207 0.16979 0.14021
 C668 C 0.93822 0.14483 0.11674
 C669 C 0.92554 0.11039 0.12097
 N670 N 0.89698 0.10253 0.14878
 H671 H 0.80951 0.13961 0.23926
 H672 H 0.96083 0.15181 0.09491
 C673 C 0.86572 0.64248 0.67804
 C674 C 0.88805 0.65433 0.64274
 N675 N 0.89129 0.68867 0.63347
 C676 C 0.87318 0.71186 0.65790
 C677 C 0.85031 0.70025 0.69290
 N678 N 0.84697 0.66564 0.70206
 N679 N 0.86359 0.60805 0.68795
 C680 C 0.88275 0.58500 0.66412
 C681 C 0.90458 0.59686 0.62826
 N682 N 0.90654 0.63133 0.61857
 H683 H 0.87616 0.73911 0.64968
 H684 H 0.88067 0.55776 0.67274
 C685 C 0.36209 0.15801 0.65420
 C686 C 0.39475 0.14531 0.67251
 N687 N 0.40757 0.15787 0.71161
 C688 C 0.38935 0.18276 0.73310
 C689 C 0.35668 0.19571 0.71471
 N690 N 0.34384 0.18272 0.67569
 N691 N 0.34930 0.14568 0.61502
 C692 C 0.36764 0.12110 0.59326
 C693 C 0.40027 0.10811 0.61155
 N694 N 0.41305 0.12059 0.65091
 H695 H 0.40011 0.19204 0.76440
 H696 H 0.35669 0.11168 0.56211
 C697 C 0.35940 0.65571 0.15562
 C698 C 0.39228 0.64445 0.17506
 N699 N 0.40331 0.65735 0.21474
 C700 C 0.38322 0.68129 0.23557
 C701 C 0.35047 0.69298 0.21589
 N702 N 0.33931 0.67954 0.17641
 N703 N 0.34844 0.64316 0.11580
 C704 C 0.36882 0.61983 0.09444
 C705 C 0.40177 0.60837 0.11371
 N706 N 0.41269 0.62099 0.15381
 H707 H 0.39276 0.69110 0.26716
 H708 H 0.35925 0.61028 0.06272
   
