data_POSCAR
  _audit_creation_date              2014-09-24
  _audit_creation_method            'ToBaCCo'
  _symmetry_space_group_name_H-M    'P1'
  _symmetry_Int_Tables_number       1
  _symmetry_cell_setting            triclinic
  loop_
  _symmetry_equiv_pos_as_xyz
 x,y,z
_cell_length_a 19.0855
_cell_length_b 20.3011
_cell_length_c 18.4208
_cell_angle_alpha 77.713600
_cell_angle_beta 81.426400
_cell_angle_gamma 89.291700
loop_
  _atom_site_label
  _atom_site_type_symbol
  _atom_site_fract_x
  _atom_site_fract_y
  _atom_site_fract_z
C1 C 0.62627 0.60174 -0.01775
 C2 C 0.58537 0.66047 -0.02974
 C3 C 0.51187 0.65893 -0.03047
 C4 C 0.47900 0.59641 -0.02885
 C5 C 0.51533 0.53607 -0.00700
 C6 C 0.58827 0.53846 0.00268
 C7 C 0.61926 0.47758 0.03293
 C8 C 0.58260 0.41640 0.04592
 C9 C 0.51468 0.41268 0.02615
 C10 C 0.47849 0.47307 0.00444
 C11 C 0.41244 0.59230 -0.05179
 C12 C 0.37584 0.53121 -0.03906
 C13 C 0.40589 0.47071 -0.00641
 C14 C 0.36774 0.40759 0.01318
 C15 C 0.40855 0.34878 0.02504
 C16 C 0.48145 0.35040 0.02816
 H17 H 0.67080 0.47569 0.05011
 H18 H 0.60788 0.37190 0.07309
 H19 H 0.38861 0.63634 -0.08194
 H20 H 0.32554 0.53254 -0.05906
 H21 H 0.61044 0.70880 -0.03386
 H22 H 0.38422 0.30023 0.02868
 C23 C -0.02977 0.66514 0.45855
 C24 C -0.01423 0.67249 0.38065
 C25 C 0.00224 0.61709 0.34669
 C26 C 0.00863 0.55222 0.39403
 C27 C -0.00492 0.54429 0.47357
 C28 C -0.02440 0.60079 0.50572
 C29 C -0.03632 0.59164 0.58436
 C30 C -0.03262 0.52845 0.63054
 C31 C -0.01189 0.47177 0.60066
 C32 C 0.00218 0.47976 0.52131
 C33 C 0.03169 0.49547 0.36485
 C34 C 0.03597 0.43246 0.41113
 C35 C 0.02303 0.42333 0.48958
 C36 C 0.02966 0.35927 0.53712
 C37 C 0.01335 0.35208 0.61493
 C38 C -0.00596 0.40723 0.64767
 H39 H -0.04826 0.63324 0.61186
 H40 H -0.04672 0.52541 0.69004
 H41 H 0.04918 0.49806 0.30604
 H42 H 0.04989 0.39110 0.38378
 H43 H -0.02068 0.72192 0.34627
 H44 H 0.01894 0.30306 0.65077
 C45 C 0.57237 0.08047 0.59893
 C46 C 0.63392 0.09619 0.54603
 C47 C 0.64516 0.07285 0.47894
 C48 C 0.59244 0.03161 0.46313
 C49 C 0.52743 0.01902 0.51301
 C50 C 0.51655 0.04498 0.57974
 C51 C 0.44920 0.03666 0.62383
 C52 C 0.39628 -0.00145 0.60728
 C53 C 0.40811 -0.03282 0.54566
 C54 C 0.47366 -0.02137 0.49713
 C55 C 0.60463 -0.00262 0.40349
 C56 C 0.55170 -0.04087 0.38738
 C57 C 0.48476 -0.04843 0.43140
 C58 C 0.42906 -0.08337 0.41209
 C59 C 0.36601 -0.09664 0.46248
 C60 C 0.35479 -0.07197 0.52843
 H61 H 0.43536 0.06139 0.67027
 H62 H 0.34579 -0.00505 0.64326
 H63 H 0.65550 -0.00273 0.36942
 H64 H 0.56466 -0.06614 0.34113
 H65 H 0.67705 0.12371 0.55879
 H66 H 0.32214 -0.12161 0.44738
 O67 O 0.46799 0.04780 -0.10316
 O68 O 0.41689 -0.02034 0.09994
 O69 O 0.45904 0.09880 0.01693
 O70 O 0.42371 -0.06799 -0.01823
 O71 O 0.53526 -0.09466 -0.00929
 O72 O 0.57075 0.07243 0.02513
 O73 O 0.52865 -0.04469 0.11063
 O74 O 0.57947 0.02274 -0.09173
 Cu75 Cu 0.43070 0.01786 -0.00207
 Cu76 Cu 0.56467 -0.01410 0.00998
 C77 C 0.53284 0.04751 -0.13149
 C78 C 0.46389 -0.04534 0.13920
 C79 C 0.52118 0.11460 0.02485
 C80 C 0.47330 -0.11009 -0.01823
 O81 O -0.06228 0.58707 0.94542
 O82 O 0.11298 0.51252 0.97339
 O83 O 0.01979 0.50376 0.88419
 O84 O 0.03043 0.59791 1.03241
 O85 O -0.02358 0.51292 1.11673
 O86 O -0.03691 0.41975 0.96774
 O87 O 0.05675 0.42727 1.05515
 O88 O -0.11822 0.50285 1.02911
 Cu89 Cu 0.03068 0.55868 0.95051
 Cu90 Cu -0.03559 0.45729 1.05094
 C91 C -0.11972 0.55828 0.98192
 C92 C 0.11423 0.45602 1.01890
 C93 C -0.01104 0.44632 0.90042
 C94 C 0.00501 0.57145 1.09984
 O95 O 0.00063 -0.07112 0.44246
 O96 O 0.05491 0.10387 0.43781
 O97 O 0.10657 -0.01413 0.47815
 O98 O -0.05426 0.04798 0.40283
 O99 O -0.10653 0.04004 0.51994
 O100 O 0.05294 -0.02470 0.59516
 O101 O 0.00078 0.09557 0.55424
 O102 O -0.05552 -0.07871 0.55798
 Cu103 Cu 0.03252 0.01764 0.42842
 Cu104 Cu -0.03259 0.00723 0.56863
 C105 C -0.03655 -0.10475 0.50132
 C106 C 0.03707 0.12947 0.49493
 C107 C 0.10725 -0.03037 0.54842
 C108 C -0.10816 0.05450 0.44983
 C109 C -0.29780 0.60992 0.97148
 C110 C -0.26172 0.66950 0.93373
 C111 C -0.19161 0.65714 0.93261
 C112 C -0.18799 0.59125 0.96959
 O113 O -0.25190 0.56210 0.99262
 H114 H -0.28273 0.71652 0.90667
 H115 H -0.14804 0.69220 0.90748
 C116 C 0.29175 0.40024 1.02369
 C117 C 0.25494 0.34010 1.05755
 C118 C 0.18496 0.35403 1.06081
 C119 C 0.18215 0.42134 1.02879
 O120 O 0.24644 0.44983 1.00686
 H121 H 0.27527 0.29143 1.08053
 H122 H 0.14095 0.31897 1.08375
 C123 C -0.05392 -0.27407 0.48769
 C124 C -0.11438 -0.27162 0.53858
 C125 C -0.11570 -0.20767 0.55073
 C126 C -0.05730 -0.17506 0.50462
 O127 O -0.02011 -0.21488 0.46555
 H128 H -0.15252 -0.31195 0.56428
 H129 H -0.15475 -0.18706 0.58830
 C130 C 0.05447 0.29854 0.50850
 C131 C 0.11514 0.29611 0.45791
 C132 C 0.11656 0.23214 0.44581
 C133 C 0.05801 0.19961 0.49170
 O134 O 0.02063 0.23942 0.53053
 H135 H 0.15326 0.33647 0.43228
 H136 H 0.15572 0.21148 0.40839
 C137 C 0.57210 0.09379 -0.32832
 C138 C 0.61820 0.13824 -0.31025
 C139 C 0.60772 0.12758 -0.23403
 C140 C 0.55562 0.07848 -0.21059
 O141 O 0.53378 0.05777 -0.26692
 H142 H 0.65586 0.17412 -0.34735
 H143 H 0.63541 0.15198 -0.19943
 C144 C 0.43030 -0.09656 0.33548
 C145 C 0.39032 -0.14601 0.31833
 C146 C 0.39800 -0.13325 0.24187
 C147 C 0.44251 -0.07763 0.21810
 O148 O 0.46208 -0.05504 0.27424
 H149 H 0.35788 -0.18557 0.35684
 H150 H 0.37383 -0.16080 0.20747
 C151 C 0.47451 -0.28060 -0.02770
 C152 C 0.40227 -0.27492 -0.00507
 C153 C 0.39165 -0.20865 -0.00462
 C154 C 0.45791 -0.17883 -0.02421
 O155 O 0.50800 -0.22185 -0.03752
 H156 H 0.36215 -0.31423 0.01560
 H157 H 0.34247 -0.18594 0.01398
 C158 C 0.52069 0.28646 0.02742
 C159 C 0.59127 0.28165 -0.00211
 C160 C 0.60217 0.21497 0.00027
 C161 C 0.53710 0.18408 0.02797
 O162 O 0.48761 0.22699 0.04382
 H163 H 0.62943 0.32186 -0.02787
 H164 H 0.65007 0.19244 -0.02208
 C165 C -0.28580 0.08176 0.43922
 C166 C -0.26395 0.09287 0.36233
 C167 C -0.19167 0.08783 0.35381
 C168 C -0.17568 0.07531 0.42593
 O169 O -0.23191 0.07336 0.47680
 H170 H -0.29649 0.10219 0.31798
 H171 H -0.15568 0.09011 0.30201
 C172 C 0.28103 -0.07343 0.56502
 C173 C 0.25485 -0.09638 0.64016
 C174 C 0.18387 -0.08334 0.64584
 C175 C 0.17330 -0.05462 0.57349
 O176 O 0.23164 -0.04914 0.52493
 H177 H 0.28403 -0.11868 0.68507
 H178 H 0.14490 -0.09336 0.69612
 C179 C 0.00876 0.62775 1.26721
 C180 C 0.02751 0.68846 1.21712
 C181 C 0.02871 0.67561 1.14721
 C182 C 0.00925 0.60867 1.15931
 O183 O -0.00358 0.57997 1.23143
 H184 H 0.04184 0.73592 1.22929
 H185 H 0.04273 0.71062 1.09387
 C186 C -0.01761 0.39556 0.73106
 C187 C -0.05250 0.33989 0.77848
 C188 C -0.05329 0.35039 0.84936
 C189 C -0.01838 0.41136 0.83985
 O190 O 0.00395 0.43838 0.76847
 H191 H -0.07622 0.29770 0.76306
 H192 H -0.07786 0.31838 0.90146
   
