data_POSCAR
  _audit_creation_date              2014-09-24
  _audit_creation_method            'ToBaCCo'
  _symmetry_space_group_name_H-M    'P1'
  _symmetry_Int_Tables_number       1
  _symmetry_cell_setting            triclinic
  loop_
  _symmetry_equiv_pos_as_xyz
 x,y,z
_cell_length_a 32.5432
_cell_length_b 32.5335
_cell_length_c 27.2904
_cell_angle_alpha 89.950800
_cell_angle_beta 89.959300
_cell_angle_gamma 90.738600
loop_
  _atom_site_label
  _atom_site_type_symbol
  _atom_site_fract_x
  _atom_site_fract_y
  _atom_site_fract_z
O1 O 0.03857 0.30834 -0.04673
 O2 O -0.04303 0.30661 0.04772
 O3 O 0.03797 0.30823 0.04844
 O4 O -0.04216 0.30757 -0.04726
 O5 O -0.04180 0.23970 -0.04738
 O6 O 0.03779 0.24035 0.04776
 O7 O -0.04144 0.23890 0.04818
 O8 O 0.03754 0.24047 -0.04762
 Cu9 Cu -0.00215 0.31456 0.00064
 Cu10 Cu -0.00198 0.23311 0.00019
 C11 C 0.05179 0.27450 -0.06335
 C12 C -0.05619 0.27227 0.06418
 C13 C 0.05159 0.27428 0.06426
 C14 C -0.05567 0.27341 -0.06352
 O15 O 0.54321 0.80875 0.45346
 O16 O 0.46250 0.80887 0.54863
 O17 O 0.54328 0.80819 0.54854
 O18 O 0.46242 0.80904 0.45354
 O19 O 0.46190 0.74115 0.45310
 O20 O 0.54132 0.74032 0.54848
 O21 O 0.46192 0.74099 0.54859
 O22 O 0.54130 0.74087 0.45304
 Cu23 Cu 0.50298 0.81558 0.50108
 Cu24 Cu 0.50147 0.73407 0.50078
 C25 C 0.55600 0.77466 0.43710
 C26 C 0.44847 0.77483 0.56476
 C27 C 0.55608 0.77398 0.56462
 C28 C 0.44842 0.77508 0.43717
 O29 O 0.96076 0.69449 -0.04848
 O30 O 1.04177 0.69370 0.04646
 O31 O 0.96104 0.69341 0.04650
 O32 O 1.04197 0.69470 -0.04861
 O33 O 1.04160 0.76243 -0.04819
 O34 O 0.96239 0.76128 0.04742
 O35 O 1.04179 0.76156 0.04737
 O36 O 0.96247 0.76223 -0.04804
 Cu37 Cu 1.00133 0.68722 -0.00121
 Cu38 Cu 1.00215 0.76860 -0.00026
 C39 C 0.94764 0.72866 -0.06445
 C40 C 1.05550 0.72767 0.06310
 C41 C 0.94798 0.72730 0.06313
 C42 C 1.05571 0.72894 -0.06466
 O43 O 0.53755 0.18968 0.54717
 O44 O 0.45694 0.18980 0.45199
 O45 O 0.53775 0.18989 0.45209
 O46 O 0.45674 0.18990 0.54711
 O47 O 0.45845 0.25778 0.54724
 O48 O 0.53795 0.25777 0.45189
 O49 O 0.45858 0.25768 0.45181
 O50 O 0.53781 0.25756 0.54731
 Cu51 Cu 0.49714 0.18294 0.49959
 Cu52 Cu 0.49829 0.26446 0.49956
 C53 C 0.55141 0.22373 0.56339
 C54 C 0.44406 0.22390 0.43573
 C55 C 0.55163 0.22398 0.43587
 C56 C 0.44384 0.22401 0.56332
 O57 O 0.69094 0.03789 -0.04669
 O58 O 0.69341 -0.04344 0.04799
 O59 O 0.69118 0.03752 0.04852
 O60 O 0.69249 -0.04282 -0.04695
 O61 O 0.76033 -0.04013 -0.04722
 O62 O 0.75903 0.03959 0.04770
 O63 O 0.76107 -0.03960 0.04827
 O64 O 0.75879 0.03919 -0.04774
 Cu65 Cu 0.68513 -0.00292 0.00083
 Cu66 Cu 0.76655 0.00001 0.00019
 C67 C 0.72465 0.05220 -0.06347
 C68 C 0.72784 -0.05546 0.06437
 C69 C 0.72502 0.05226 0.06427
 C70 C 0.72676 -0.05520 -0.06323
 O71 O 0.19138 0.54041 0.45209
 O72 O 0.19093 0.45979 0.54746
 O73 O 0.19112 0.54061 0.54721
 O74 O 0.19105 0.45959 0.45241
 O75 O 0.25891 0.46091 0.45232
 O76 O 0.25898 0.54053 0.54755
 O77 O 0.25879 0.46110 0.54774
 O78 O 0.25923 0.54035 0.45204
 Cu79 Cu 0.18425 0.50005 0.49977
 Cu80 Cu 0.26574 0.50080 0.49992
 C81 C 0.22552 0.55409 0.43586
 C82 C 0.22492 0.44671 0.56376
 C83 C 0.22520 0.55433 0.56351
 C84 C 0.22509 0.44644 0.43629
 O85 O 0.30510 1.04393 0.04700
 O86 O 0.30766 0.96278 -0.04773
 O87 O 0.30512 1.04370 -0.04779
 O88 O 0.30792 0.96307 0.04755
 O89 O 0.24008 0.96068 0.04780
 O90 O 0.23747 1.03971 -0.04801
 O91 O 0.23982 0.96047 -0.04764
 O92 O 0.23745 1.03988 0.04761
 Cu93 Cu 0.31330 1.00362 -0.00027
 Cu94 Cu 0.23198 0.99988 -0.00005
 C95 C 0.27068 1.05587 0.06350
 C96 C 0.27399 0.94789 -0.06384
 C97 C 0.27068 1.05563 -0.06415
 C98 C 0.27430 0.94824 0.06394
 O99 O 0.81096 0.54011 0.54706
 O100 O 0.81014 0.45934 0.45207
 O101 O 0.81041 0.54017 0.45198
 O102 O 0.80985 0.45926 0.54719
 O103 O 0.74200 0.45971 0.54750
 O104 O 0.74254 0.53907 0.45200
 O105 O 0.74229 0.45969 0.45206
 O106 O 0.74309 0.53910 0.54741
 Cu107 Cu 0.81721 0.49975 0.49956
 Cu108 Cu 0.73572 0.49936 0.49976
 C109 C 0.77703 0.55334 0.56336
 C110 C 0.77596 0.44578 0.43593
 C111 C 0.77640 0.55338 0.43584
 C112 C 0.77566 0.44574 0.56352
 O113 O 0.21938 0.27704 0.31276
 O114 O 0.23766 0.18541 0.23708
 O115 O 0.27504 0.21986 0.31194
 O116 O 0.18307 0.24144 0.23841
 O117 O 0.22072 0.27914 0.18773
 O118 O 0.31254 0.25835 0.26196
 O119 O 0.27686 0.22248 0.18731
 O120 O 0.25754 0.31435 0.26222
 Cu121 Cu 0.22511 0.22722 0.28034
 Cu122 Cu 0.27065 0.27230 0.21959
 C123 C 0.23574 0.31126 0.30070
 C124 C 0.25982 0.18850 0.19891
 C125 C 0.30936 0.23605 0.30001
 C126 C 0.18633 0.26329 0.20000
 O127 O 0.76167 0.81476 0.23757
 O128 O 0.78105 0.72292 0.31254
 O129 O 0.81668 0.75912 0.23802
 O130 O 0.72493 0.77964 0.31255
 O131 O 0.68742 0.74115 0.26271
 O132 O 0.77900 0.72146 0.18746
 O133 O 0.74291 0.68560 0.26213
 O134 O 0.72245 0.77770 0.18795
 Cu135 Cu 0.77475 0.77283 0.28045
 Cu136 Cu 0.72920 0.72777 0.21987
 C137 C 0.73934 0.81173 0.19958
 C138 C 0.76489 0.68865 0.30041
 C139 C 0.81336 0.73745 0.19952
 C140 C 0.69065 0.76329 0.30085
 O141 O 0.81347 0.23965 0.23801
 O142 O 0.72119 0.22005 0.31296
 O143 O 0.75695 0.18420 0.23897
 O144 O 0.77890 0.27664 0.31249
 O145 O 0.74117 0.31350 0.26211
 O146 O 0.72002 0.22121 0.18786
 O147 O 0.68463 0.25755 0.26201
 O148 O 0.77721 0.27822 0.18780
 Cu149 Cu 0.77127 0.22654 0.28095
 Cu150 Cu 0.72712 0.27131 0.21971
 C151 C 0.81089 0.26163 0.19970
 C152 C 0.68724 0.23585 0.30056
 C153 C 0.73547 0.18708 0.20033
 C154 C 0.76316 0.31070 0.30035
 O155 O 0.28112 0.77957 0.18814
 O156 O 0.25998 0.68681 0.26188
 O157 O 0.22410 0.72248 0.18763
 O158 O 0.31630 0.74294 0.26231
 O159 O 0.27949 0.78027 0.31317
 O160 O 0.18729 0.75992 0.23837
 O161 O 0.22223 0.72334 0.31259
 O162 O 0.24350 0.81604 0.23904
 Cu163 Cu 0.27405 0.72933 0.21974
 Cu164 Cu 0.22949 0.77352 0.28108
 C165 C 0.26524 0.81350 0.20054
 C166 C 0.23802 0.68937 0.30023
 C167 C 0.19010 0.73832 0.19979
 C168 C 0.31351 0.76449 0.30092
 O169 O 0.77792 0.27632 0.68695
 O170 O 0.75639 0.18400 0.76116
 O171 O 0.72051 0.21949 0.68683
 O172 O 0.81273 0.23997 0.76141
 O173 O 0.77598 0.27776 0.81185
 O174 O 0.68378 0.25712 0.73744
 O175 O 0.71887 0.22082 0.81181
 O176 O 0.74024 0.31316 0.73739
 Cu177 Cu 0.77052 0.22629 0.71881
 Cu178 Cu 0.72605 0.27088 0.77984
 C179 C 0.76224 0.31040 0.69910
 C180 C 0.73463 0.18677 0.79964
 C181 C 0.68652 0.23533 0.69902
 C182 C 0.80994 0.26179 0.79980
 O183 O 0.31531 0.74223 0.73870
 O184 O 0.22230 0.72181 0.81218
 O185 O 0.25869 0.68642 0.73810
 O186 O 0.27964 0.77870 0.81263
 O187 O 0.24308 0.81578 0.76123
 O188 O 0.22130 0.72337 0.68745
 O189 O 0.18641 0.76048 0.76170
 O190 O 0.27909 0.77981 0.68748
 Cu191 Cu 0.27258 0.72860 0.78068
 Cu192 Cu 0.22886 0.77347 0.71911
 C193 C 0.31293 0.76390 0.70010
 C194 C 0.18874 0.73852 0.80003
 C195 C 0.23696 0.68927 0.69965
 C196 C 0.26434 0.81288 0.80005
 O197 O 0.18301 0.24179 0.76195
 O198 O 0.27469 0.22018 0.68765
 O199 O 0.23740 0.18552 0.76258
 O200 O 0.21908 0.27740 0.68735
 O201 O 0.25746 0.31449 0.73775
 O202 O 0.27687 0.22232 0.81219
 O203 O 0.31244 0.25844 0.73748
 O204 O 0.22094 0.27919 0.81250
 Cu205 Cu 0.22484 0.22752 0.71961
 Cu206 Cu 0.27070 0.27229 0.78018
 C207 C 0.18644 0.26352 0.80040
 C208 C 0.30909 0.23626 0.69939
 C209 C 0.25970 0.18843 0.80059
 C210 C 0.23552 0.31155 0.69942
 O211 O 0.74443 0.68455 0.73780
 O212 O 0.72382 0.77597 0.81262
 O213 O 0.68852 0.73967 0.73793
 O214 O 0.78078 0.72018 0.81226
 O215 O 0.81750 0.75958 0.76234
 O216 O 0.72558 0.77821 0.68754
 O217 O 0.76132 0.81399 0.76209
 O218 O 0.78251 0.72230 0.68765
 Cu219 Cu 0.73073 0.72630 0.78036
 Cu220 Cu 0.77545 0.77220 0.71960
 C221 C 0.76641 0.68791 0.69953
 C222 C 0.73954 0.81047 0.80053
 C223 C 0.69143 0.76178 0.69968
 C224 C 0.81464 0.73740 0.80050
 C225 C 0.23160 0.09619 0.12234
 C226 C 0.26902 0.08718 0.09888
 C227 C 0.30415 0.11098 0.11072
 C228 C 0.30138 0.14399 0.14344
 C229 C 0.26394 0.15270 0.16644
 C230 C 0.22932 0.12812 0.15629
 H231 H 0.20391 0.07854 0.11462
 H232 H 0.33348 0.10511 0.09346
 H233 H 0.32845 0.16269 0.15085
 H234 H 0.20005 0.13456 0.17339
 C235 C 0.74365 0.58821 0.63384
 C236 C 0.77657 0.58599 0.60076
 C237 C 0.80766 0.61632 0.60220
 C238 C 0.80489 0.64932 0.63490
 C239 C 0.77156 0.65182 0.66749
 C240 C 0.74142 0.62052 0.66726
 H241 H 0.71941 0.56508 0.63355
 H242 H 0.83324 0.61532 0.57684
 H243 H 0.82852 0.67306 0.63440
 H244 H 0.71526 0.62181 0.69175
 C245 C 0.76702 0.90433 0.12317
 C246 C 0.72955 0.91326 0.09984
 C247 C 0.69450 0.88936 0.11182
 C248 C 0.69742 0.85629 0.14449
 C249 C 0.73494 0.84764 0.16731
 C250 C 0.76946 0.87236 0.15707
 H251 H 0.79466 0.92207 0.11536
 H252 H 0.66514 0.89518 0.09466
 H253 H 0.67044 0.83747 0.15197
 H254 H 0.79879 0.86597 0.17402
 C255 C 0.25866 0.41137 0.63378
 C256 C 0.22548 0.41396 0.60114
 C257 C 0.19420 0.38385 0.60290
 C258 C 0.19699 0.35073 0.63544
 C259 C 0.23056 0.34783 0.66757
 C260 C 0.26093 0.37889 0.66708
 H261 H 0.28307 0.43432 0.63325
 H262 H 0.16842 0.38512 0.57789
 H263 H 0.17316 0.32719 0.63517
 H264 H 0.28725 0.37729 0.69124
 C265 C 0.90245 0.23340 0.12318
 C266 C 0.91250 0.27079 0.09968
 C267 C 0.88971 0.30600 0.11155
 C268 C 0.85661 0.30329 0.14431
 C269 C 0.84687 0.26585 0.16733
 C270 C 0.87048 0.23119 0.15718
 H271 H 0.91931 0.20564 0.11546
 H272 H 0.89641 0.33530 0.09425
 H273 H 0.83863 0.33038 0.15171
 H274 H 0.86322 0.20191 0.17428
 C275 C 0.41234 0.74105 0.63487
 C276 C 0.41571 0.77420 0.60211
 C277 C 0.38634 0.80543 0.60374
 C278 C 0.35314 0.80258 0.63625
 C279 C 0.34945 0.76903 0.66848
 C280 C 0.37980 0.73874 0.66815
 H281 H 0.43471 0.71668 0.63443
 H282 H 0.38822 0.83119 0.57865
 H283 H 0.33013 0.82634 0.63585
 H284 H 0.37755 0.71242 0.69238
 C285 C 0.09105 0.76109 0.13376
 C286 C 0.08810 0.72819 0.10064
 C287 C 0.11767 0.69715 0.10223
 C288 C 0.15063 0.69992 0.13508
 C289 C 0.15387 0.73321 0.16770
 C290 C 0.12333 0.76331 0.16735
 H291 H 0.06852 0.78531 0.13338
 H292 H 0.11612 0.67158 0.07689
 H293 H 0.17378 0.67630 0.13466
 H294 H 0.12521 0.78944 0.19185
 C295 C 0.58709 0.25750 0.63363
 C296 C 0.58410 0.22445 0.60075
 C297 C 0.61377 0.19351 0.60227
 C298 C 0.64690 0.19654 0.63483
 C299 C 0.65020 0.22999 0.66719
 C300 C 0.61955 0.25999 0.66693
 H301 H 0.56448 0.28164 0.63327
 H302 H 0.61217 0.16784 0.57707
 H303 H 0.67013 0.17301 0.63438
 H304 H 0.62147 0.28623 0.69126
 C305 C 0.75723 0.08743 0.86513
 C306 C 0.72469 0.08466 0.89879
 C307 C 0.69376 0.11435 0.89765
 C308 C 0.69639 0.14735 0.86474
 C309 C 0.72941 0.15046 0.83165
 C310 C 0.75931 0.11972 0.83151
 H311 H 0.78134 0.06478 0.86517
 H312 H 0.66847 0.11292 0.92345
 H313 H 0.67294 0.17066 0.86555
 H314 H 0.78523 0.12147 0.80664
 C315 C 0.25967 0.58974 0.36566
 C316 C 0.22647 0.58676 0.39838
 C317 C 0.19556 0.61646 0.39661
 C318 C 0.19879 0.64959 0.36402
 C319 C 0.23242 0.65290 0.33186
 C320 C 0.26236 0.62221 0.33232
 H321 H 0.28380 0.56711 0.36621
 H322 H 0.16976 0.61488 0.42166
 H323 H 0.17528 0.67286 0.36433
 H324 H 0.28874 0.62415 0.30815
 C325 C 0.24141 0.91224 0.86520
 C326 C 0.27402 0.91528 0.89866
 C327 C 0.30506 0.88569 0.89760
 C328 C 0.30248 0.85256 0.86493
 C329 C 0.26944 0.84922 0.83197
 C330 C 0.23940 0.87983 0.83179
 H331 H 0.21719 0.93477 0.86521
 H332 H 0.33039 0.88733 0.92327
 H333 H 0.32603 0.82934 0.86577
 H334 H 0.21343 0.87788 0.80705
 C335 C 0.74176 0.41027 0.36585
 C336 C 0.77492 0.41308 0.39857
 C337 C 0.80570 0.38325 0.39687
 C338 C 0.80240 0.35015 0.36430
 C339 C 0.76883 0.34703 0.33210
 C340 C 0.73900 0.37784 0.33253
 H341 H 0.71774 0.43301 0.36634
 H342 H 0.83147 0.38471 0.42194
 H343 H 0.82582 0.32680 0.36462
 H344 H 0.71267 0.37605 0.30833
 C345 C 0.11504 0.30494 0.89794
 C346 C 0.08440 0.27415 0.89912
 C347 C 0.08634 0.24144 0.86574
 C348 C 0.11869 0.23909 0.83233
 C349 C 0.15030 0.26888 0.83239
 C350 C 0.14806 0.30204 0.86523
 H351 H 0.11426 0.33035 0.92353
 H352 H 0.06298 0.21742 0.86582
 H353 H 0.11976 0.21306 0.80765
 H354 H 0.17205 0.32542 0.86596
 C355 C 0.61899 0.80499 0.39783
 C356 C 0.58869 0.77388 0.39969
 C357 C 0.59098 0.74071 0.36700
 C358 C 0.62332 0.73828 0.33355
 C359 C 0.65454 0.76848 0.33292
 C360 C 0.65197 0.80204 0.36512
 H361 H 0.61795 0.83078 0.42286
 H362 H 0.56789 0.71643 0.36759
 H363 H 0.62466 0.71196 0.30936
 H364 H 0.67565 0.82574 0.36530
 C365 C 0.89336 0.69408 0.88799
 C366 C 0.91628 0.72971 0.90020
 C367 C 0.90627 0.76708 0.87722
 C368 C 0.87426 0.76884 0.84338
 C369 C 0.85054 0.73372 0.83287
 C370 C 0.86020 0.69630 0.85540
 H371 H 0.90001 0.66478 0.90491
 H372 H 0.92322 0.79515 0.88521
 H373 H 0.86706 0.79809 0.82665
 H374 H 0.84215 0.66886 0.84771
 C375 C 0.40930 0.25793 0.36557
 C376 C 0.41144 0.22474 0.39830
 C377 C 0.38103 0.19375 0.39655
 C378 C 0.34802 0.19690 0.36395
 C379 C 0.34556 0.23052 0.33177
 C380 C 0.37695 0.26055 0.33224
 H381 H 0.43250 0.28211 0.36609
 H382 H 0.38197 0.16795 0.42162
 H383 H 0.32421 0.17332 0.36425
 H384 H 0.37569 0.28692 0.30806
 C385 C 0.76130 0.91014 0.86684
 C386 C 0.72798 0.91215 0.89938
 C387 C 0.69706 0.88167 0.89736
 C388 C 0.70034 0.84879 0.86463
 C389 C 0.73403 0.84650 0.83256
 C390 C 0.76405 0.87789 0.83335
 H391 H 0.78543 0.93337 0.86757
 H392 H 0.67116 0.88250 0.92227
 H393 H 0.67679 0.82496 0.86467
 H394 H 0.79049 0.87672 0.80926
 C395 C 0.25900 0.41094 0.36646
 C396 C 0.22577 0.41358 0.39909
 C397 C 0.19449 0.38346 0.39739
 C398 C 0.19729 0.35034 0.36488
 C399 C 0.23086 0.34745 0.33270
 C400 C 0.26127 0.37848 0.33319
 H401 H 0.28342 0.43388 0.36695
 H402 H 0.16867 0.38475 0.42238
 H403 H 0.17343 0.32683 0.36516
 H404 H 0.28761 0.37688 0.30901
 C405 C 0.30413 0.11064 0.88835
 C406 C 0.26899 0.08690 0.90038
 C407 C 0.23153 0.09598 0.87711
 C408 C 0.22923 0.12797 0.84319
 C409 C 0.26386 0.15251 0.83290
 C410 C 0.30135 0.14370 0.85567
 H411 H 0.33349 0.10471 0.90546
 H412 H 0.20383 0.07836 0.88498
 H413 H 0.19992 0.13450 0.82625
 H414 H 0.32842 0.16237 0.84814
 C415 C 0.80678 0.61649 0.39682
 C416 C 0.77574 0.58612 0.39846
 C417 C 0.74259 0.58850 0.36574
 C418 C 0.74010 0.62101 0.33252
 C419 C 0.77019 0.65233 0.33216
 C420 C 0.80375 0.64966 0.36435
 H421 H 0.83253 0.61539 0.42189
 H422 H 0.71836 0.56535 0.36618
 H423 H 0.71378 0.62242 0.30832
 H424 H 0.82738 0.67340 0.36472
 C425 C 0.09761 0.76758 0.87670
 C426 C 0.08697 0.73017 0.89980
 C427 C 0.10917 0.69468 0.88754
 C428 C 0.14233 0.69710 0.85483
 C429 C 0.15266 0.73457 0.83223
 C430 C 0.12960 0.76953 0.84273
 H431 H 0.08120 0.79555 0.88472
 H432 H 0.10201 0.66535 0.90454
 H433 H 0.15989 0.66979 0.84715
 H434 H 0.13735 0.79883 0.82595
 C435 C 0.58756 0.25789 0.36571
 C436 C 0.58445 0.22478 0.39858
 C437 C 0.61415 0.19387 0.39712
 C438 C 0.64739 0.19698 0.36466
 C439 C 0.65080 0.23048 0.33231
 C440 C 0.62013 0.26046 0.33250
 H441 H 0.56493 0.28203 0.36602
 H442 H 0.61249 0.16815 0.42230
 H443 H 0.67062 0.17344 0.36517
 H444 H 0.62213 0.28674 0.30817
 C445 C 0.90876 0.23926 0.86633
 C446 C 0.91177 0.27249 0.89895
 C447 C 0.88233 0.30363 0.89684
 C448 C 0.84944 0.30065 0.86397
 C449 C 0.84613 0.26705 0.83185
 C450 C 0.87653 0.23681 0.83270
 H451 H 0.93121 0.21496 0.86712
 H452 H 0.88394 0.32947 0.92179
 H453 H 0.82639 0.32437 0.86397
 H454 H 0.87457 0.21044 0.80857
 C455 C 0.41272 0.74172 0.36661
 C456 C 0.41574 0.77460 0.39974
 C457 C 0.38615 0.80563 0.39830
 C458 C 0.35310 0.80286 0.36559
 C459 C 0.34979 0.76959 0.33295
 C460 C 0.38035 0.73950 0.33315
 H461 H 0.43526 0.71751 0.36689
 H462 H 0.38776 0.83118 0.42367
 H463 H 0.32994 0.82646 0.36612
 H464 H 0.37842 0.71338 0.30863
 C465 C 0.24188 0.91268 0.13519
 C466 C 0.27450 0.91582 0.10170
 C467 C 0.30576 0.88647 0.10296
 C468 C 0.30336 0.85343 0.13580
 C469 C 0.27026 0.84993 0.16871
 C470 C 0.24003 0.88035 0.16876
 H471 H 0.21751 0.93506 0.13503
 H472 H 0.33112 0.88820 0.07728
 H473 H 0.32705 0.83036 0.13508
 H474 H 0.21403 0.87828 0.19348
 C475 C 0.74140 0.41030 0.63377
 C476 C 0.77455 0.41301 0.60095
 C477 C 0.80515 0.38300 0.60255
 C478 C 0.80166 0.34982 0.63508
 C479 C 0.76808 0.34679 0.66736
 C480 C 0.73845 0.37779 0.66705
 H481 H 0.71750 0.43318 0.63337
 H482 H 0.83090 0.38435 0.57740
 H483 H 0.82494 0.32633 0.63466
 H484 H 0.71212 0.37610 0.69131
 C485 C 0.69416 0.11428 0.10330
 C486 C 0.72531 0.08482 0.10177
 C487 C 0.75823 0.08793 0.13478
 C488 C 0.76042 0.12030 0.16822
 C489 C 0.73024 0.15076 0.16848
 C490 C 0.69690 0.14736 0.13598
 H491 H 0.66858 0.11257 0.07797
 H492 H 0.78253 0.06549 0.13440
 H493 H 0.78660 0.12233 0.19262
 H494 H 0.67325 0.17048 0.13551
 C495 C 0.19513 0.61680 0.60250
 C496 C 0.22600 0.58704 0.60092
 C497 C 0.25898 0.58989 0.63391
 C498 C 0.26146 0.62226 0.66737
 C499 C 0.23154 0.65298 0.66771
 C500 C 0.19816 0.64984 0.63521
 H501 H 0.16950 0.61532 0.57724
 H502 H 0.28307 0.56722 0.63353
 H503 H 0.28766 0.62406 0.69177
 H504 H 0.17469 0.67313 0.63477
 C505 C 0.88506 0.69651 0.10209
 C506 C 0.91533 0.72766 0.10060
 C507 C 0.91302 0.76055 0.13368
 C508 C 0.88069 0.76268 0.16715
 C509 C 0.84948 0.73247 0.16742
 C510 C 0.85206 0.69918 0.13483
 H511 H 0.88612 0.67095 0.07674
 H512 H 0.93609 0.78485 0.13336
 H513 H 0.87932 0.78882 0.19164
 H514 H 0.82838 0.67548 0.13437
 C515 C 0.38059 0.19401 0.60248
 C516 C 0.41114 0.22488 0.60074
 C517 C 0.40907 0.25801 0.63351
 C518 C 0.37671 0.26067 0.66689
 C519 C 0.34522 0.23074 0.66739
 C520 C 0.34757 0.19719 0.63514
 H521 H 0.38146 0.16826 0.57739
 H522 H 0.43235 0.28211 0.63300
 H523 H 0.37555 0.28698 0.69112
 H524 H 0.32369 0.17370 0.63485
 C525 C 0.11437 0.30500 0.10339
 C526 C 0.08419 0.27378 0.10170
 C527 C 0.08659 0.24064 0.13446
 C528 C 0.11895 0.23830 0.16779
 C529 C 0.15011 0.26856 0.16821
 C530 C 0.14743 0.30212 0.13598
 H531 H 0.11323 0.33075 0.07827
 H532 H 0.06358 0.21628 0.13395
 H533 H 0.12042 0.21196 0.19200
 H534 H 0.17108 0.32585 0.13564
 C535 C 0.59147 0.73943 0.63412
 C536 C 0.58891 0.77292 0.60183
 C537 C 0.61913 0.80409 0.60382
 C538 C 0.65227 0.80091 0.63620
 C539 C 0.65512 0.76705 0.66798
 C540 C 0.62398 0.73677 0.66727
 H541 H 0.56845 0.71508 0.63341
 H542 H 0.61790 0.83012 0.57911
 H543 H 0.67586 0.82470 0.63611
 H544 H 0.62554 0.71023 0.69116
   
