data_POSCAR
  _audit_creation_date              2014-09-24
  _audit_creation_method            'ToBaCCo'
  _symmetry_space_group_name_H-M    'P1'
  _symmetry_Int_Tables_number       1
  _symmetry_cell_setting            triclinic
  loop_
  _symmetry_equiv_pos_as_xyz
 x,y,z
_cell_length_a 45.1012
_cell_length_b 44.9797
_cell_length_c 45.1008
_cell_angle_alpha 89.999600
_cell_angle_beta 89.996500
_cell_angle_gamma 90.000800
loop_
  _atom_site_label
  _atom_site_type_symbol
  _atom_site_fract_x
  _atom_site_fract_y
  _atom_site_fract_z
C1 C 0.60279 0.62469 0.64803
 C2 C 0.58099 0.64694 0.64800
 C3 C 0.58114 0.66906 0.62613
 C4 C 0.60306 0.66912 0.60413
 C5 C 0.62505 0.64706 0.60384
 C6 C 0.62496 0.62473 0.62588
 C7 C 0.60283 0.60241 0.66980
 C8 C 0.62474 0.58030 0.66964
 C9 C 0.64677 0.58032 0.64770
 C10 C 0.64703 0.60243 0.62576
 C11 C 0.66896 0.60265 0.60370
 C12 C 0.66898 0.62480 0.58187
 C13 C 0.64712 0.64692 0.58192
 H14 H 0.56390 0.64708 0.66492
 H15 H 0.60296 0.68633 0.58728
 H16 H 0.58585 0.60228 0.68685
 H17 H 0.66369 0.56317 0.64772
 H18 H 0.68600 0.58563 0.60347
 H19 H 0.64733 0.66396 0.56491
 C20 C 0.89814 0.37473 0.14724
 C21 C 0.91994 0.35249 0.14720
 C22 C 0.91981 0.33038 0.12528
 C23 C 0.89787 0.33037 0.10326
 C24 C 0.87590 0.35245 0.10300
 C25 C 0.87599 0.37475 0.12507
 C26 C 0.89808 0.39697 0.16905
 C27 C 0.87620 0.41907 0.16890
 C28 C 0.85421 0.41913 0.14697
 C29 C 0.85394 0.39707 0.12498
 C30 C 0.83204 0.39692 0.10290
 C31 C 0.83199 0.37480 0.08104
 C32 C 0.85384 0.35265 0.08107
 H33 H 0.93699 0.35238 0.16417
 H34 H 0.89790 0.31321 0.08634
 H35 H 0.91499 0.39711 0.18615
 H36 H 0.83735 0.43633 0.14707
 H37 H 0.81502 0.41396 0.10268
 H38 H 0.85361 0.33563 0.06404
 C39 C 0.39734 0.12469 -0.14809
 C40 C 0.41916 0.14691 -0.14804
 C41 C 0.41903 0.16901 -0.12616
 C42 C 0.39709 0.16909 -0.10417
 C43 C 0.37508 0.14705 -0.10390
 C44 C 0.37517 0.12472 -0.12595
 C45 C 0.39729 0.10244 -0.16988
 C46 C 0.37538 0.08035 -0.16975
 C47 C 0.35335 0.08034 -0.14781
 C48 C 0.35309 0.10243 -0.12585
 C49 C 0.33116 0.10264 -0.10379
 C50 C 0.33112 0.12479 -0.08195
 C51 C 0.35299 0.14690 -0.08199
 H52 H 0.43626 0.14705 -0.16496
 H53 H 0.39720 0.18630 -0.08732
 H54 H 0.41428 0.10233 -0.18693
 H55 H 0.33643 0.06319 -0.14785
 H56 H 0.31412 0.08563 -0.10356
 H57 H 0.35278 0.16395 -0.06497
 C58 C 0.10204 0.87466 0.35269
 C59 C 0.08025 0.85241 0.35273
 C60 C 0.08037 0.83029 0.37463
 C61 C 0.10230 0.83029 0.39667
 C62 C 0.12427 0.85238 0.39694
 C63 C 0.12418 0.87468 0.37487
 C64 C 0.10210 0.89691 0.33089
 C65 C 0.12397 0.91903 0.33107
 C66 C 0.14595 0.91908 0.35300
 C67 C 0.14622 0.89701 0.37498
 C68 C 0.16812 0.89686 0.39706
 C69 C 0.16815 0.87473 0.41892
 C70 C 0.14632 0.85258 0.41888
 H71 H 0.06320 0.85230 0.33574
 H72 H 0.10226 0.81313 0.41359
 H73 H 0.08519 0.89706 0.31379
 H74 H 0.16280 0.93629 0.35292
 H75 H 0.18513 0.91390 0.39729
 H76 H 0.14654 0.83555 0.43591
 N77 N 0.08924 0.17241 0.11223
 N78 N 0.07726 0.15994 0.13569
 C79 C 0.05325 0.17576 0.14386
 C80 C 0.04995 0.19949 0.12446
 C81 C 0.07331 0.19652 0.10468
 H82 H 0.03932 0.17041 0.16259
 H83 H 0.07850 0.21079 0.08613
 Cu84 Cu 0.09481 0.12457 0.15329
 Cu85 Cu 0.12464 0.15658 0.09313
 Cu86 Cu 0.15596 0.09348 0.12453
 N87 N 0.11237 0.08920 0.17089
 N88 N 0.13643 0.07731 0.15955
 C89 C 0.14430 0.05355 0.17584
 C90 C 0.12409 0.05021 0.19879
 C91 C 0.10411 0.07334 0.19484
 H92 H 0.16341 0.03983 0.17124
 H93 H 0.08504 0.07838 0.20842
 N94 N 0.17234 0.11318 0.08904
 N95 N 0.16044 0.13715 0.07710
 C96 C 0.17651 0.14509 0.05322
 C97 C 0.19972 0.12517 0.04982
 C98 C 0.19629 0.10527 0.07304
 H99 H 0.17156 0.16398 0.03930
 H100 H 0.21013 0.08632 0.07796
 H101 H 0.11878 0.11298 0.10622
 H102 H 0.14228 0.13686 0.13052
 N103 N 0.40960 0.82732 0.61359
 N104 N 0.42093 0.83920 0.63766
 C105 C 0.44488 0.82334 0.64593
 C106 C 0.44883 0.80020 0.62595
 C107 C 0.42589 0.80354 0.60574
 H108 H 0.45845 0.82837 0.66501
 H109 H 0.42130 0.78983 0.58662
 Cu110 Cu 0.40334 0.87457 0.65522
 Cu111 Cu 0.37459 0.84349 0.59406
 Cu112 Cu 0.34319 0.90658 0.62539
 N113 N 0.38574 0.90995 0.67276
 N114 N 0.36229 0.92242 0.66079
 C115 C 0.35473 0.94653 0.67672
 C116 C 0.37451 0.94949 0.70008
 C117 C 0.39391 0.92576 0.69678
 H118 H 0.33619 0.96080 0.67152
 H119 H 0.41263 0.92041 0.71071
 N120 N 0.32717 0.88716 0.58959
 N121 N 0.33911 0.86319 0.57769
 C122 C 0.32311 0.85527 0.55374
 C123 C 0.29990 0.87517 0.55030
 C124 C 0.30328 0.89509 0.57352
 H125 H 0.32803 0.83631 0.53990
 H126 H 0.28936 0.91398 0.57846
 H127 H 0.38059 0.88687 0.60775
 H128 H 0.35628 0.86298 0.63124
 N129 N 0.91046 0.67276 0.38745
 N130 N 0.92214 0.66063 0.36367
 C131 C 0.94608 0.67652 0.35547
 C132 C 0.94968 0.69993 0.37518
 C133 C 0.92653 0.69673 0.39519
 H134 H 0.95989 0.67130 0.33660
 H135 H 0.92166 0.71066 0.41406
 Cu136 Cu 0.90509 0.62495 0.34615
 Cu137 Cu 0.87541 0.65657 0.40678
 Cu138 Cu 0.84413 0.59357 0.37543
 N139 N 0.88701 0.58986 0.32845
 N140 N 0.86326 0.57768 0.34013
 C141 C 0.85551 0.55374 0.32400
 C142 C 0.87550 0.55061 0.30083
 C143 C 0.89519 0.57404 0.30446
 H144 H 0.83673 0.53970 0.32895
 H145 H 0.91413 0.57922 0.29073
 N146 N 0.82800 0.61296 0.41116
 N147 N 0.83990 0.63693 0.42309
 C148 C 0.82383 0.64486 0.44698
 C149 C 0.80062 0.62494 0.45038
 C150 C 0.80406 0.60503 0.42716
 H151 H 0.82869 0.66383 0.46082
 H152 H 0.79013 0.58617 0.42215
 H153 H 0.88160 0.61300 0.39343
 H154 H 0.85783 0.63691 0.36936
 N155 N 0.59002 0.32781 -0.11313
 N156 N 0.57805 0.34033 -0.13656
 C157 C 0.55400 0.32456 -0.14473
 C158 C 0.55068 0.30081 -0.12536
 C159 C 0.57406 0.30371 -0.10560
 H160 H 0.54006 0.32996 -0.16344
 H161 H 0.57925 0.28940 -0.08708
 Cu162 Cu 0.59564 0.37569 -0.15413
 Cu163 Cu 0.62547 0.34354 -0.09405
 Cu164 Cu 0.65687 0.40664 -0.12538
 N165 N 0.61323 0.41108 -0.17167
 N166 N 0.63733 0.42291 -0.16034
 C167 C 0.64520 0.44670 -0.17660
 C168 C 0.62497 0.45011 -0.19951
 C169 C 0.60496 0.42699 -0.19558
 H170 H 0.66433 0.46038 -0.17200
 H171 H 0.58587 0.42200 -0.20915
 N172 N 0.67326 0.38685 -0.08994
 N173 N 0.66132 0.36288 -0.07803
 C174 C 0.67740 0.35488 -0.05417
 C175 C 0.70064 0.37476 -0.05076
 C176 C 0.69722 0.39470 -0.07395
 H177 H 0.67242 0.33598 -0.04027
 H178 H 0.71109 0.41365 -0.07884
 H179 H 0.61967 0.38716 -0.10706
 H180 H 0.64310 0.36327 -0.13142
 C181 C -0.01745 0.26731 0.12525
 C182 C 0.00468 0.26764 0.10354
 C183 C 0.02657 0.24565 0.10328
 C184 C -0.05889 0.30890 0.12535
 C185 C 0.00428 0.22289 0.14656
 C186 C -0.01759 0.24493 0.14676
 C187 C -0.04002 0.28992 0.12536
 C188 C 0.02668 0.22292 0.12479
 H189 H 0.00502 0.28489 0.08678
 H190 H 0.04331 0.24660 0.08615
 H191 H 0.00349 0.20592 0.16351
 H192 H -0.03462 0.24448 0.16370
 C193 C 0.51704 0.73318 0.62613
 C194 C 0.49542 0.73331 0.60392
 C195 C 0.47327 0.75504 0.60384
 C196 C 0.55863 0.69173 0.62621
 C197 C 0.49435 0.77672 0.64827
 C198 C 0.51647 0.75493 0.64828
 C199 C 0.53971 0.71067 0.62622
 C200 C 0.47241 0.77707 0.62604
 H201 H 0.49565 0.71656 0.58665
 H202 H 0.45692 0.75442 0.58633
 H203 H 0.49457 0.79317 0.66573
 H204 H 0.53312 0.75505 0.66560
 C205 C 1.01754 0.76730 0.37473
 C206 C 1.01731 0.74522 0.35290
 C207 C 0.99531 0.72331 0.35303
 C208 C 1.05906 0.80882 0.37458
 C209 C 0.97367 0.74552 0.39692
 C210 C 0.99569 0.76739 0.39672
 C211 C 1.04017 0.78985 0.37459
 C212 C 0.97315 0.72316 0.37504
 H213 H 1.03412 0.74492 0.33575
 H214 H 0.99582 0.70659 0.33583
 H215 H 0.95715 0.74630 0.41427
 H216 H 0.99567 0.78440 0.41374
 C217 C 0.48313 0.23313 -0.12616
 C218 C 0.48301 0.25555 -0.14765
 C219 C 0.50494 0.27754 -0.14745
 C220 C 0.44157 0.19166 -0.12624
 C221 C 0.52724 0.25466 -0.10424
 C222 C 0.50529 0.23272 -0.10450
 C223 C 0.46049 0.21059 -0.12626
 C224 C 0.52736 0.27742 -0.12570
 H225 H 0.46595 0.25606 -0.16455
 H226 H 0.50415 0.29454 -0.16436
 H227 H 0.54399 0.25364 -0.08714
 H228 H 0.50561 0.21544 -0.08776
 C229 C 0.12394 -0.01683 0.26698
 C230 C 0.14615 -0.01669 0.24536
 C231 C 0.14622 0.00506 0.22322
 C232 C 0.12389 -0.05828 0.30856
 C233 C 0.10178 0.02671 0.24431
 C234 C 0.10178 0.00491 0.26642
 C235 C 0.12388 -0.03934 0.28965
 C236 C 0.12402 0.02708 0.22236
 H237 H 0.16343 -0.03342 0.24558
 H238 H 0.16372 0.00445 0.20687
 H239 H 0.08431 0.04315 0.24454
 H240 H 0.08447 0.00502 0.28308
 C241 C 0.62478 0.51726 -0.26758
 C242 C 0.60260 0.49555 -0.26702
 C243 C 0.60262 0.47371 -0.24495
 C244 C 0.62469 0.55880 -0.30908
 C245 C 0.64711 0.49528 -0.22390
 C246 C 0.64703 0.51706 -0.24600
 C247 C 0.62470 0.53982 -0.29021
 C248 C 0.62489 0.47328 -0.22304
 H249 H 0.58526 0.49549 -0.28365
 H250 H 0.58513 0.45729 -0.24518
 H251 H 0.66465 0.49584 -0.20758
 H252 H 0.66433 0.53378 -0.24622
 C253 C 0.37533 1.01731 0.76748
 C254 C 0.39684 0.99492 0.76761
 C255 C 0.39663 0.97289 0.74573
 C256 C 0.37544 1.05887 0.80895
 C257 C 0.35335 0.99565 0.72346
 C258 C 0.35362 1.01764 0.74536
 C259 C 0.37545 1.03991 0.79006
 C260 C 0.37485 0.97293 0.72335
 H261 H 0.41378 0.99447 0.78464
 H262 H 0.41357 0.95591 0.74652
 H263 H 0.33622 0.99661 0.70674
 H264 H 0.33686 1.03490 0.74503
 C265 C 0.87614 0.48318 0.23303
 C266 C 0.85418 0.48302 0.25491
 C267 C 0.85397 0.50486 0.27696
 C268 C 0.87627 0.44174 0.19144
 C269 C 0.89781 0.52716 0.25531
 C270 C 0.89796 0.50527 0.23329
 C271 C 0.87627 0.46066 0.21037
 C272 C 0.87578 0.52728 0.27745
 H273 H 0.83718 0.46598 0.25493
 H274 H 0.83665 0.50402 0.29351
 H275 H 0.91501 0.54388 0.25483
 H276 H 0.91510 0.50561 0.21647
 C277 C 0.26708 0.12490 -0.01790
 C278 C 0.26701 0.10296 0.00406
 C279 C 0.24517 0.10302 0.02606
 C280 C 0.30854 0.12482 -0.05939
 C281 C 0.22333 0.14705 0.00416
 C282 C 0.24520 0.14692 -0.01781
 C283 C 0.28963 0.12484 -0.04049
 C284 C 0.22299 0.12508 0.02644
 H285 H 0.28385 0.08577 0.00420
 H286 H 0.24581 0.08571 0.04268
 H287 H 0.20677 0.16441 0.00353
 H288 H 0.24504 0.16402 -0.03473
 C289 C 0.73305 0.62486 0.51788
 C290 C 0.73315 0.60290 0.49594
 C291 C 0.75505 0.60290 0.47401
 C292 C 0.69155 0.62482 0.55931
 C293 C 0.77689 0.64693 0.49592
 C294 C 0.75495 0.64686 0.51782
 C295 C 0.71047 0.62484 0.54043
 C296 C 0.77726 0.62493 0.47367
 H297 H 0.71629 0.58574 0.49579
 H298 H 0.75444 0.58557 0.45742
 H299 H 0.79348 0.66426 0.49658
 H300 H 0.75510 0.66397 0.53473
 C301 C 0.76799 0.37485 0.01696
 C302 C 0.74608 0.35286 0.01684
 C303 C 0.72421 0.35279 -0.00513
 C304 C 0.80943 0.37481 0.05846
 C305 C 0.74611 0.39683 -0.02697
 C306 C 0.76794 0.39683 -0.00496
 C307 C 0.79053 0.37484 0.03955
 C308 C 0.72391 0.37478 -0.02738
 H309 H 0.74589 0.33573 0.03373
 H310 H 0.70764 0.33544 -0.00453
 H311 H 0.74677 0.41415 -0.04356
 H312 H 0.78480 0.41399 -0.00507
 C313 C 0.23218 0.87488 0.48296
 C314 C 0.23227 0.89690 0.50483
 C315 C 0.25424 0.89704 0.52671
 C316 C 0.19070 0.87477 0.44151
 C317 C 0.27615 0.85301 0.50487
 C318 C 0.25415 0.85294 0.48303
 C319 C 0.20960 0.87481 0.46041
 C320 C 0.27652 0.87508 0.52703
 H321 H 0.21535 0.91400 0.50500
 H322 H 0.25360 0.91440 0.54326
 H323 H 0.29277 0.83571 0.50422
 H324 H 0.25430 0.83576 0.46619
   
