data_POSCAR
  _audit_creation_date              2014-09-24
  _audit_creation_method            'ToBaCCo'
  _symmetry_space_group_name_H-M    'P1'
  _symmetry_Int_Tables_number       1
  _symmetry_cell_setting            triclinic
  loop_
  _symmetry_equiv_pos_as_xyz
 x,y,z
_cell_length_a 13.5280
_cell_length_b 13.5779
_cell_length_c 16.9565
_cell_angle_alpha 90.106800
_cell_angle_beta 90.153100
_cell_angle_gamma 121.821800
loop_
  _atom_site_label
  _atom_site_type_symbol
  _atom_site_fract_x
  _atom_site_fract_y
  _atom_site_fract_z
C1 C 0.05773 0.54390 1.32338
 C2 C -0.05719 0.52094 1.32385
 C3 C -0.11098 0.51639 1.25098
 C4 C -0.05863 0.51833 1.17837
 C5 C 0.05670 0.54399 1.17887
 C6 C 0.11218 0.55336 1.25092
 H7 H 0.20161 0.57470 1.25044
 H8 H -0.20097 0.49345 1.25085
 C9 C 0.44666 0.50843 1.32282
 C10 C 0.47914 0.42510 1.32288
 C11 C 0.49469 0.38412 1.25089
 C12 C 0.48344 0.42785 1.17901
 C13 C 0.44799 0.50819 1.17895
 C14 C 0.43330 0.55018 1.25059
 H15 H 0.40716 0.61320 1.24991
 H16 H 0.52622 0.32530 1.25096
 C17 C 0.49376 0.93978 1.32399
 C18 C 0.57193 1.06116 1.32470
 C19 C 0.61417 1.11949 1.25261
 C20 C 0.57195 1.06115 1.18050
 C21 C 0.49787 0.94024 1.17995
 C22 C 0.45685 0.88113 1.25146
 H23 H 0.39685 0.78790 1.25053
 H24 H 0.67049 1.21334 1.25236
 C25 C 0.94103 0.50788 0.67891
 C26 C 1.06255 0.56140 0.67902
 C27 C 1.12309 0.59411 0.75082
 C28 C 1.06361 0.56127 0.82284
 C29 C 0.94151 0.50571 0.82279
 C30 C 0.88153 0.48019 0.75080
 H31 H 0.78725 0.43400 0.75068
 H32 H 1.21741 0.63880 0.75047
 C33 C 0.49737 0.43733 0.67773
 C34 C 0.43800 0.49658 0.67749
 C35 C 0.40413 0.52079 0.74922
 C36 C 0.43567 0.49443 0.82119
 C37 C 0.49641 0.43645 0.82161
 C38 C 0.52641 0.40823 0.74974
 H39 H 0.57578 0.36621 0.74984
 H40 H 0.35749 0.56576 0.74910
 C41 C 0.51050 -0.06208 0.82207
 C42 C 0.55163 0.05721 0.82206
 C43 C 0.57374 0.11594 0.75017
 C44 C 0.55290 0.05801 0.67777
 C45 C 0.51068 -0.06152 0.67679
 C46 C 0.49917 -0.11805 0.74923
 H47 H 0.46629 -0.21027 0.74887
 H48 H 0.60769 0.20826 0.75058
 O49 O 0.48669 0.60721 0.93810
 O50 O 0.50712 0.80286 0.90381
 C51 C 0.47221 0.87112 0.89102
 O52 O 0.40278 0.87880 0.93826
 O53 O 0.20115 0.69534 0.90429
 C54 C 0.12954 0.58914 0.89152
 O55 O 0.11936 0.50947 0.93737
 O56 O 0.29924 0.49220 0.90585
 C57 C 0.40585 0.53252 0.89317
 O58 O 0.48943 0.65806 1.09263
 O59 O 0.52340 0.86097 1.06136
 C60 C 0.45474 0.87278 1.10684
 O61 O 0.34777 0.82670 1.09276
 O62 O 0.14177 0.65202 1.06039
 C63 C 0.12590 0.56979 1.10618
 O64 O 0.16934 0.50901 1.09286
 O65 O 0.34042 0.48085 1.06149
 C66 C 0.42505 0.55090 1.10632
 Cr67 Cr 0.49760 0.73097 0.99898
 Cr68 Cr 0.27461 0.76047 0.99880
 Cr69 Cr 0.23482 0.50212 0.99928
 O70 O 0.33570 0.66427 0.99998
 O71 O 0.47342 0.32830 0.93785
 O72 O 0.51059 0.16335 0.90927
 C73 C 0.57593 0.12542 0.89491
 O74 O 0.66165 0.14649 0.93927
 O75 O 0.82953 0.35513 0.90802
 C76 C 0.87225 0.46113 0.89466
 O77 O 0.85585 0.52705 0.93960
 O78 O 0.64785 0.48344 0.90912
 C79 C 0.54100 0.41483 0.89424
 O80 O 0.48753 0.29333 1.09475
 O81 O 0.51555 0.12091 1.06578
 C82 C 0.59849 0.13133 1.10891
 O83 O 0.70442 0.20325 1.09487
 O84 O 0.88152 0.41008 1.06241
 C85 C 0.87238 0.47856 1.10969
 O86 O 0.80068 0.50982 1.09742
 O87 O 0.59900 0.48028 1.06369
 C88 C 0.52437 0.39883 1.10762
 Cr89 Cr 0.50135 0.22941 1.00203
 Cr90 Cr 0.76619 0.28020 1.00133
 Cr91 Cr 0.72451 0.49576 1.00252
 O92 O 0.66356 0.33492 1.00162
 O93 O 0.64824 0.48378 0.59141
 O94 O 0.85577 0.52819 0.56147
 C95 C 0.87209 0.46260 0.60669
 O96 O 0.83042 0.35665 0.59280
 O97 O 0.66229 0.14744 0.56066
 C98 C 0.57749 0.12688 0.60557
 O99 O 0.51269 0.16563 0.59203
 O100 O 0.47376 0.32861 0.56168
 C101 C 0.54154 0.41522 0.60565
 O102 O 0.59714 0.47863 0.43728
 O103 O 0.79996 0.51014 0.40352
 C104 C 0.87298 0.48040 0.39193
 O105 O 0.88189 0.41173 0.43896
 O106 O 0.70356 0.20575 0.40460
 C107 C 0.59794 0.12944 0.39235
 O108 O 0.51602 0.11749 0.43703
 O109 O 0.48657 0.29096 0.40570
 C110 C 0.52145 0.39636 0.39374
 Cr111 Cr 0.72396 0.49589 0.49829
 Cr112 Cr 0.76650 0.28158 0.49903
 Cr113 Cr 0.50176 0.22867 0.49882
 O114 O 0.66376 0.33542 0.49916
 O115 O 0.30117 0.49290 0.59223
 O116 O 0.12227 0.50979 0.56124
 C117 C 0.13108 0.58992 0.60657
 O118 O 0.19981 0.69638 0.59332
 O119 O 0.40222 0.87903 0.55978
 C120 C 0.47234 0.87193 0.60735
 O121 O 0.50808 0.80425 0.59446
 O122 O 0.48802 0.60853 0.55957
 C123 C 0.40801 0.53427 0.60506
 O124 O 0.34410 0.48132 0.43794
 O125 O 0.17292 0.51124 0.40387
 C126 C 0.12457 0.56813 0.39211
 O127 O 0.13768 0.64763 0.43965
 O128 O 0.34433 0.82170 0.40419
 C129 C 0.45229 0.87360 0.39225
 O130 O 0.52145 0.86384 0.43877
 O131 O 0.48577 0.65917 0.40370
 C132 C 0.42546 0.55087 0.39150
 Cr133 Cr 0.23711 0.50275 0.49869
 Cr134 Cr 0.27277 0.75903 0.49921
 Cr135 Cr 0.49708 0.73238 0.49899
 O136 O 0.33560 0.66442 0.49977
   
