data_POSCAR
  _audit_creation_date              2014-09-24
  _audit_creation_method            'ToBaCCo'
  _symmetry_space_group_name_H-M    'P1'
  _symmetry_Int_Tables_number       1
  _symmetry_cell_setting            triclinic
  loop_
  _symmetry_equiv_pos_as_xyz
 x,y,z
_cell_length_a 32.9125
_cell_length_b 32.8812
_cell_length_c 32.9421
_cell_angle_alpha 104.413600
_cell_angle_beta 76.850800
_cell_angle_gamma 74.267900
loop_
  _atom_site_label
  _atom_site_type_symbol
  _atom_site_fract_x
  _atom_site_fract_y
  _atom_site_fract_z
C1 C 0.53328 0.50535 0.00464
 C2 C 0.49938 0.53974 -0.00034
 C3 C 0.45900 0.53311 -0.00160
 C4 C 0.45087 0.49383 0.00136
 C5 C 0.48486 0.45984 0.00613
 C6 C 0.52517 0.46597 0.00718
 H7 H 0.55017 0.43976 0.01168
 H8 H 0.43330 0.55911 -0.00547
 C9 C -0.00128 0.46484 0.51604
 C10 C 0.00366 0.49757 0.54959
 C11 C 0.00719 0.53696 0.54238
 C12 C 0.00674 0.54468 0.50215
 C13 C 0.00217 0.51117 0.46841
 C14 C -0.00177 0.47206 0.47600
 H15 H -0.00585 0.44694 0.45039
 H16 H 0.01175 0.56127 0.56832
 C17 C 0.50212 -0.00263 0.44824
 C18 C 0.46580 0.00324 0.48418
 C19 C 0.47154 0.00651 0.52556
 C20 C 0.51300 0.00289 0.53239
 C21 C 0.54966 -0.00198 0.49618
 C22 C 0.54338 -0.00561 0.45457
 H23 H 0.57000 -0.00737 0.42711
 H24 H 0.44383 0.00817 0.55186
 O25 O 0.47507 -0.00772 -0.06307
 O26 O 0.46660 0.00700 0.05353
 O27 O 0.46542 0.05864 0.00449
 O28 O 0.47502 -0.05900 -0.01410
 O29 O 0.54802 -0.07897 -0.03130
 O30 O 0.53843 0.03904 -0.01337
 O31 O 0.53958 -0.01243 0.03590
 O32 O 0.54810 -0.02775 -0.08064
 Cu33 Cu 0.46323 0.00170 -0.00298
 Cu34 Cu 0.55085 -0.02199 -0.02404
 C35 C 0.51299 -0.01977 -0.09173
 C36 C 0.50177 -0.00067 0.06459
 C37 C 0.50029 0.06895 -0.00198
 C38 C 0.51299 -0.08908 -0.02543
 O39 O -0.08182 0.54819 1.03119
 O40 O 0.03518 0.53935 1.01553
 O41 O -0.01574 0.53922 0.96498
 O42 O -0.03103 0.54902 1.08168
 O43 O -0.01096 0.47555 1.06348
 O44 O 0.00416 0.46578 0.94678
 O45 O 0.05511 0.46589 0.99728
 O46 O -0.06165 0.47473 1.01317
 Cu47 Cu -0.02534 0.55130 1.02509
 Cu48 Cu -0.00134 0.46314 1.00331
 C49 C -0.09169 0.51284 1.02456
 C50 C 0.06508 0.50116 1.00434
 C51 C -0.00366 0.50092 0.93596
 C52 C -0.02310 0.51388 1.09249
 O53 O 0.02374 -0.06786 0.45724
 O54 O 0.00438 0.05062 0.46719
 O55 O 0.07276 -0.01714 0.45664
 O56 O -0.04444 -0.00025 0.46585
 O57 O -0.06178 0.01739 0.53825
 O58 O 0.05568 0.00153 0.52911
 O59 O -0.01328 0.06864 0.53966
 O60 O 0.00711 -0.04947 0.52965
 Cu61 Cu 0.01576 -0.01051 0.45447
 Cu62 Cu -0.00482 0.01127 0.54142
 C63 C 0.01841 -0.07884 0.49193
 C64 C -0.00714 0.07980 0.50514
 C65 C 0.08420 -0.00990 0.49131
 C66 C -0.07311 0.01095 0.50344
 C67 C -0.34627 0.51725 1.02258
 C68 C -0.34655 0.47696 0.99610
 C69 C -0.38621 0.47315 0.99031
 C70 C -0.42657 0.50987 1.01057
 C71 C -0.42588 0.55016 1.03786
 C72 C -0.38600 0.55383 1.04357
 C73 C -0.30487 0.52049 1.02767
 C74 C -0.26919 0.52129 1.03047
 C75 C -0.22556 0.52008 1.03203
 C76 C -0.19281 0.47900 1.02388
 C77 C -0.14950 0.47681 1.02240
 C78 C -0.13829 0.51578 1.02904
 C79 C -0.17167 0.55713 1.03814
 C80 C -0.21504 0.55921 1.03954
 H81 H -0.31594 0.44843 0.97962
 H82 H -0.38489 0.44174 0.96861
 H83 H -0.45630 0.57857 1.05569
 H84 H -0.38622 0.58509 1.06454
 H85 H -0.20056 0.44848 1.01790
 H86 H -0.12465 0.44447 1.01536
 H87 H -0.16411 0.58772 1.04333
 H88 H -0.24012 0.59118 1.04573
 C89 C 0.32448 0.48735 0.99816
 C90 C 0.34736 0.50462 0.96962
 C91 C 0.38911 0.50624 0.97045
 C92 C 0.40917 0.49027 0.99974
 C93 C 0.38563 0.47277 1.02829
 C94 C 0.34373 0.47128 1.02739
 C95 C 0.28061 0.48774 0.99827
 C96 C 0.24363 0.48914 0.99824
 C97 C 0.19919 0.49185 0.99837
 C98 C 0.16658 0.53359 1.00841
 C99 C 0.12312 0.53659 1.00955
 C100 C 0.11168 0.49779 1.00065
 C101 C 0.14487 0.45590 0.99000
 C102 C 0.18832 0.45300 0.98889
 H103 H 0.33280 0.51712 0.94680
 H104 H 0.40615 0.51907 0.94720
 H105 H 0.39841 0.46224 1.05290
 H106 H 0.32599 0.45840 1.05011
 H107 H 0.17466 0.56389 1.01573
 H108 H 0.09839 0.56934 1.01792
 H109 H 0.13716 0.42540 0.98306
 H110 H 0.21333 0.42051 0.98102
 C111 C 0.02104 -0.33447 0.48842
 C112 C 0.04237 -0.37439 0.45271
 C113 C 0.03782 -0.41438 0.45696
 C114 C 0.01145 -0.41506 0.49699
 C115 C -0.00931 -0.37444 0.53277
 C116 C -0.00469 -0.33466 0.52839
 C117 C 0.02534 -0.29304 0.48470
 C118 C 0.02761 -0.25734 0.48356
 C119 C 0.02860 -0.21363 0.48456
 C120 C 0.03419 -0.20202 0.44608
 C121 C 0.03206 -0.15841 0.44812
 C122 C 0.02413 -0.12589 0.48879
 C123 C 0.01953 -0.13826 0.52706
 C124 C 0.02174 -0.18179 0.52491
 H125 H 0.06290 -0.37472 0.42175
 H126 H 0.05648 -0.44492 0.42935
 H127 H -0.03052 -0.37291 0.56393
 H128 H -0.02144 -0.30390 0.55625
 H129 H 0.03937 -0.22639 0.41468
 H130 H 0.03566 -0.14992 0.41809
 H131 H 0.01344 -0.11411 0.55887
 H132 H 0.01727 -0.19039 0.55492
 C133 C -0.01118 0.33946 0.52383
 C134 C 0.02486 0.35124 0.53169
 C135 C 0.02773 0.39258 0.53027
 C136 C -0.00554 0.42250 0.52107
 C137 C -0.04192 0.41072 0.51394
 C138 C -0.04474 0.36945 0.51536
 C139 C -0.01282 0.29585 0.52234
 C140 C -0.01393 0.25904 0.52010
 C141 C -0.01463 0.21476 0.51660
 C142 C -0.02430 0.20270 0.55456
 C143 C -0.02301 0.15906 0.55092
 C144 C -0.01196 0.12686 0.50918
 C145 C -0.00317 0.13959 0.47128
 C146 C -0.00449 0.18326 0.47501
 H147 H 0.05114 0.32814 0.53804
 H148 H 0.05635 0.40076 0.53526
 H149 H -0.06787 0.43332 0.50674
 H150 H -0.07269 0.36063 0.50911
 H151 H -0.03220 0.22683 0.58691
 H152 H -0.02988 0.15035 0.58075
 H153 H 0.00552 0.11562 0.43868
 H154 H 0.00304 0.19227 0.44540
 C155 C 0.52212 -0.01095 -0.34499
 C156 C 0.48484 0.02064 -0.34653
 C157 C 0.48221 0.02566 -0.38678
 C158 C 0.51710 -0.00069 -0.42652
 C159 C 0.55467 -0.03236 -0.42436
 C160 C 0.55714 -0.03730 -0.38391
 C161 C 0.52360 -0.01656 -0.30334
 C162 C 0.52328 -0.02019 -0.26777
 C163 C 0.52131 -0.02310 -0.22454
 C164 C 0.56009 -0.03360 -0.21266
 C165 C 0.55758 -0.03369 -0.16972
 C166 C 0.51615 -0.02313 -0.13809
 C167 C 0.47747 -0.01357 -0.15068
 C168 C 0.48009 -0.01354 -0.19361
 H169 H 0.45760 0.04135 -0.31654
 H170 H 0.45309 0.05099 -0.38657
 H171 H 0.58144 -0.05462 -0.45407
 H172 H 0.58602 -0.06218 -0.38311
 H173 H 0.59216 -0.04096 -0.23633
 H174 H 0.58796 -0.04113 -0.16107
 H175 H 0.44508 -0.00529 -0.12717
 H176 H 0.44984 -0.00529 -0.20246
 C177 C 0.49288 -0.00013 0.32086
 C178 C 0.52535 -0.03560 0.32430
 C179 C 0.52773 -0.03687 0.36581
 C180 C 0.49754 -0.00273 0.40440
 C181 C 0.46470 0.03255 0.40074
 C182 C 0.46235 0.03377 0.35917
 C183 C 0.49209 0.00210 0.27793
 C184 C 0.49252 0.00355 0.24162
 C185 C 0.49432 0.00452 0.19780
 C186 C 0.53538 -0.00532 0.16649
 C187 C 0.53770 -0.00612 0.12340
 C188 C 0.49888 0.00290 0.11097
 C189 C 0.45763 0.01347 0.14288
 C190 C 0.45541 0.01423 0.18601
 H191 H 0.54921 -0.06196 0.29487
 H192 H 0.55335 -0.06431 0.36786
 H193 H 0.44155 0.05962 0.43000
 H194 H 0.43723 0.06150 0.35689
 H195 H 0.56571 -0.01289 0.17526
 H196 H 0.56997 -0.01441 0.09968
 H197 H 0.42715 0.02049 0.13438
 H198 H 0.42344 0.02188 0.20999
 C199 C 0.51503 -0.34250 -0.02157
 C200 C 0.55007 -0.38351 -0.04273
 C201 C 0.54516 -0.42252 -0.03591
 C202 C 0.50517 -0.42102 -0.00739
 C203 C 0.47004 -0.37939 0.01308
 C204 C 0.47507 -0.34062 0.00619
 C205 C 0.51943 -0.30192 -0.02781
 C206 C 0.52090 -0.26669 -0.03136
 C207 C 0.52010 -0.22333 -0.03354
 C208 C 0.55893 -0.21263 -0.03957
 C209 C 0.55698 -0.16921 -0.03819
 C210 C 0.51605 -0.13596 -0.03053
 C211 C 0.47745 -0.14743 -0.02556
 C212 C 0.47951 -0.19078 -0.02704
 H213 H 0.58105 -0.38540 -0.06466
 H214 H 0.57232 -0.45398 -0.05382
 H215 H 0.43899 -0.37637 0.03577
 H216 H 0.44775 -0.30901 0.02283
 H217 H 0.59051 -0.23753 -0.04444
 H218 H 0.58727 -0.16142 -0.04206
 H219 H 0.44544 -0.12271 -0.01968
 H220 H 0.44922 -0.19865 -0.02220
 C221 C 0.48139 0.33054 0.00714
 C222 C 0.48773 0.35900 0.04262
 C223 C 0.48796 0.40138 0.04254
 C224 C 0.48166 0.41589 0.00702
 C225 C 0.47490 0.38739 -0.02836
 C226 C 0.47467 0.34491 -0.02823
 C227 C 0.48336 0.28612 0.00656
 C228 C 0.48576 0.24879 0.00626
 C229 C 0.48925 0.20406 0.00578
 C230 C 0.53109 0.17156 -0.00472
 C231 C 0.53470 0.12777 -0.00635
 C232 C 0.49642 0.11592 0.00250
 C233 C 0.45445 0.14903 0.01369
 C234 C 0.45094 0.19279 0.01529
 H235 H 0.49307 0.34820 0.07009
 H236 H 0.49336 0.42284 0.07005
 H237 H 0.47053 0.39777 -0.05628
 H238 H 0.46993 0.32306 -0.05595
 H239 H 0.56097 0.17995 -0.01207
 H240 H 0.56749 0.10309 -0.01514
 H241 H 0.42433 0.14102 0.02061
 H242 H 0.41838 0.21770 0.02352
 C243 C -0.32775 0.00937 0.50798
 C244 C -0.32857 -0.02128 0.47050
 C245 C -0.36885 -0.02525 0.46681
 C246 C -0.40932 0.00118 0.50085
 C247 C -0.40790 0.03215 0.53846
 C248 C -0.36745 0.03604 0.54199
 C249 C -0.28600 0.01362 0.51077
 C250 C -0.25027 0.01612 0.51148
 C251 C -0.20677 0.01767 0.51036
 C252 C -0.19476 0.02503 0.54897
 C253 C -0.15152 0.02392 0.54702
 C254 C -0.11975 0.01529 0.50634
 C255 C -0.13249 0.00880 0.46790
 C256 C -0.17566 0.00998 0.46995
 H257 H -0.29799 -0.04217 0.44398
 H258 H -0.36803 -0.05004 0.43767
 H259 H -0.43817 0.05456 0.56456
 H260 H -0.36723 0.06025 0.57098
 H261 H -0.21857 0.03091 0.58043
 H262 H -0.14275 0.02897 0.57719
 H263 H -0.10890 0.00210 0.43606
 H264 H -0.18457 0.00417 0.43984
 C265 C 0.33937 -0.00326 0.47611
 C266 C 0.34150 0.03353 0.50679
 C267 C 0.38272 0.03634 0.50841
 C268 C 0.42231 0.00242 0.47925
 C269 C 0.41996 -0.03399 0.44791
 C270 C 0.37866 -0.03676 0.44633
 C271 C 0.29684 -0.00734 0.47667
 C272 C 0.26083 -0.01027 0.47827
 C273 C 0.21739 -0.01289 0.48120
 C274 C 0.20519 -0.02376 0.44299
 C275 C 0.16218 -0.02401 0.44616
 C276 C 0.13076 -0.01328 0.48767
 C277 C 0.14367 -0.00334 0.52581
 C278 C 0.18670 -0.00313 0.52254
 H279 H 0.31130 0.05960 0.53003
 H280 H 0.38381 0.06460 0.53290
 H281 H 0.45005 -0.06088 0.42562
 H282 H 0.37737 -0.06546 0.42258
 H283 H 0.22869 -0.03136 0.41083
 H284 H 0.15330 -0.03174 0.41617
 H285 H 0.12029 0.00513 0.55824
 H286 H 0.19582 0.00535 0.55233
 C287 C -0.01430 0.52334 1.34599
 C288 C 0.02015 0.48745 1.34613
 C289 C 0.02583 0.48405 1.38600
 C290 C -0.00278 0.51667 1.42627
 C291 C -0.03720 0.55282 1.42601
 C292 C -0.04286 0.55619 1.38597
 C293 C -0.02049 0.52539 1.30462
 C294 C -0.02436 0.52527 1.26909
 C295 C -0.02727 0.52318 1.22575
 C296 C -0.01814 0.48164 1.19437
 C297 C -0.01789 0.47874 1.15128
 C298 C -0.02674 0.51745 1.13896
 C299 C -0.03691 0.55923 1.17103
 C300 C -0.03709 0.56203 1.21415
 H301 H 0.04238 0.46183 1.31539
 H302 H 0.05244 0.45587 1.38555
 H303 H -0.05994 0.57798 1.45677
 H304 H -0.06972 0.58402 1.38621
 H305 H -0.01039 0.45134 1.20300
 H306 H -0.00995 0.44609 1.12744
 H307 H -0.04381 0.58964 1.16259
 H308 H -0.04408 0.59433 1.23817
 C309 C 0.00579 0.48720 0.67645
 C310 C 0.04136 0.49336 0.64921
 C311 C 0.04091 0.49589 0.60761
 C312 C 0.00490 0.49218 0.59271
 C313 C -0.03050 0.48547 0.61996
 C314 C -0.03001 0.48294 0.66164
 C315 C 0.00527 0.48734 0.72029
 C316 C 0.00480 0.48858 0.75729
 C317 C 0.00393 0.49129 0.80179
 C318 C -0.00707 0.53304 0.83364
 C319 C -0.00887 0.53612 0.87714
 C320 C 0.00033 0.49738 0.88940
 C321 C 0.01188 0.45546 0.85701
 C322 C 0.01364 0.45248 0.81348
 H323 H 0.06914 0.49685 0.66039
 H324 H 0.06852 0.50108 0.58709
 H325 H -0.05885 0.48313 0.60934
 H326 H -0.05785 0.47845 0.68257
 H327 H -0.01460 0.56330 0.82493
 H328 H -0.01791 0.56889 0.90124
 H329 H 0.01907 0.42501 0.86537
 H330 H 0.02224 0.41997 0.78906
   
