data_POSCAR
  _audit_creation_date              2014-09-24
  _audit_creation_method            'ToBaCCo'
  _symmetry_space_group_name_H-M    'P1'
  _symmetry_Int_Tables_number       1
  _symmetry_cell_setting            triclinic
  loop_
  _symmetry_equiv_pos_as_xyz
 x,y,z
_cell_length_a 47.0767
_cell_length_b 47.3080
_cell_length_c 47.1193
_cell_angle_alpha 89.979600
_cell_angle_beta 89.949600
_cell_angle_gamma 89.977300
loop_
  _atom_site_label
  _atom_site_type_symbol
  _atom_site_fract_x
  _atom_site_fract_y
  _atom_site_fract_z
N1 N 0.14956 0.16907 0.22841
 N2 N 0.16927 0.14936 0.22796
 C3 C 0.16505 0.13160 0.24995
 C4 C 0.14143 0.14075 0.26488
 C5 C 0.13214 0.16456 0.25062
 H6 H 0.17814 0.11346 0.25486
 H7 H 0.11411 0.17768 0.25606
 Cu8 Cu 0.19863 0.14945 0.19877
 Cu9 Cu 0.14795 0.19933 0.20034
 Cu10 Cu 0.20039 0.19962 0.14849
 N11 N 0.22801 0.14954 0.16960
 N12 N 0.22860 0.16942 0.15009
 C13 C 0.25088 0.16496 0.13271
 C14 C 0.26504 0.14099 0.14182
 C15 C 0.24997 0.13171 0.16530
 H16 H 0.25639 0.17816 0.11479
 H17 H 0.25472 0.11341 0.17822
 N18 N 0.16998 0.22830 0.15043
 N19 N 0.14998 0.22814 0.17012
 C20 C 0.13235 0.25014 0.16565
 C21 C 0.14170 0.26478 0.14207
 C22 C 0.16555 0.25041 0.13294
 H23 H 0.11400 0.25520 0.17851
 H24 H 0.17862 0.25572 0.11482
 H25 H 0.16799 0.17758 0.16807
 H26 H 0.19086 0.19987 0.19134
 N27 N -0.15013 0.83068 0.22786
 N28 N -0.16980 0.85042 0.22741
 C29 C -0.16555 0.86818 0.24938
 C30 C -0.14198 0.85900 0.26425
 C31 C -0.13272 0.83518 0.25004
 H32 H -0.17856 0.88638 0.25429
 H33 H -0.11469 0.82210 0.25549
 Cu34 Cu -0.19905 0.85043 0.19820
 Cu35 Cu -0.14844 0.80051 0.19975
 Cu36 Cu -0.20055 0.80053 0.14767
 N37 N -0.22831 0.85044 0.16899
 N38 N -0.22875 0.83072 0.14932
 C39 C -0.25098 0.83523 0.13194
 C40 C -0.26526 0.85906 0.14122
 C41 C -0.25032 0.86821 0.16478
 H42 H -0.25640 0.82213 0.11393
 H43 H -0.25520 0.88639 0.17783
 N44 N -0.17018 0.77182 0.14962
 N45 N -0.15037 0.77182 0.16945
 C46 C -0.13280 0.74975 0.16506
 C47 C -0.14202 0.73523 0.14139
 C48 C -0.16572 0.74974 0.13211
 H49 H -0.11460 0.74456 0.17804
 H50 H -0.17868 0.74453 0.11392
 H51 H -0.16824 0.82248 0.16750
 H52 H -0.19130 0.80006 0.19053
 N53 N -0.15002 0.16965 -0.22791
 N54 N -0.16943 0.14966 -0.22717
 C55 C -0.16507 0.13180 -0.24905
 C56 C -0.14170 0.14117 -0.26416
 C57 C -0.13267 0.16519 -0.25018
 H58 H -0.17795 0.11350 -0.25383
 H59 H -0.11486 0.17847 -0.25588
 Cu60 Cu -0.19879 0.14990 -0.19802
 Cu61 Cu -0.14858 0.20022 -0.20015
 Cu62 Cu -0.19908 0.19831 -0.14655
 N63 N -0.22858 0.15020 -0.16923
 N64 N -0.22890 0.16981 -0.14943
 C65 C -0.25134 0.16554 -0.13223
 C66 C -0.26584 0.14193 -0.14172
 C67 C -0.25087 0.13274 -0.16529
 H68 H -0.25650 0.17840 -0.11396
 H69 H -0.25577 0.11462 -0.17838
 N70 N -0.17027 0.22847 -0.14955
 N71 N -0.15090 0.22900 -0.16986
 C72 C -0.13377 0.25144 -0.16577
 C73 C -0.14283 0.26567 -0.14184
 C74 C -0.16603 0.25064 -0.13211
 H75 H -0.11583 0.25694 -0.17900
 H76 H -0.17861 0.25539 -0.11351
 H77 H -0.16676 0.17750 -0.16823
 H78 H -0.19117 0.20001 -0.18966
 N79 N 0.15028 0.83042 -0.22796
 N80 N 0.17022 0.84988 -0.22778
 C81 C 0.16601 0.86759 -0.24981
 C82 C 0.14221 0.85868 -0.26445
 C83 C 0.13275 0.83505 -0.25003
 H84 H 0.17919 0.88561 -0.25490
 H85 H 0.11448 0.82222 -0.25524
 Cu86 Cu 0.19970 0.84985 -0.19877
 Cu87 Cu 0.14842 0.80047 -0.19962
 Cu88 Cu 0.20050 0.80045 -0.14757
 N89 N 0.22872 0.84989 -0.16929
 N90 N 0.22890 0.83041 -0.14936
 C91 C 0.25097 0.83506 -0.13182
 C92 C 0.26542 0.85873 -0.14125
 C93 C 0.25074 0.86764 -0.16508
 H94 H 0.25614 0.82220 -0.11355
 H95 H 0.25576 0.88566 -0.17829
 N96 N 0.16999 0.77191 -0.14933
 N97 N 0.15016 0.77194 -0.16915
 C98 C 0.13253 0.74994 -0.16467
 C99 C 0.14170 0.73545 -0.14095
 C100 C 0.16546 0.74988 -0.13174
 H101 H 0.11434 0.74475 -0.17766
 H102 H 0.17845 0.74464 -0.11357
 H103 H 0.16849 0.82268 -0.16771
 H104 H 0.19126 0.79966 -0.19045
 N105 N 0.16946 1.15023 0.77168
 N106 N 0.14968 1.16987 0.77198
 C107 C 0.13195 1.16560 0.74996
 C108 C 0.14119 1.14207 0.73523
 C109 C 0.16500 1.13283 0.74956
 H110 H 0.11364 1.17850 0.74501
 H111 H 0.17803 1.11473 0.74432
 Cu112 Cu 0.14903 1.19877 0.80139
 Cu113 Cu 0.19945 1.14844 0.79994
 Cu114 Cu 0.19944 1.20021 0.85190
 N115 N 0.14965 1.22808 0.83039
 N116 N 0.16941 1.22839 0.85010
 C117 C 0.16492 1.25045 0.86755
 C118 C 0.14110 1.26473 0.85826
 C119 C 0.13190 1.25003 0.83465
 H120 H 0.17792 1.25569 0.88571
 H121 H 0.11361 1.25495 0.82170
 N122 N 0.22805 1.16992 0.85010
 N123 N 0.22805 1.15020 0.83029
 C124 C 0.25015 1.13268 0.83472
 C125 C 0.26467 1.14184 0.85841
 C126 C 0.25017 1.16546 0.86766
 H127 H 0.25538 1.11456 0.82173
 H128 H 0.25542 1.17837 0.88584
 H129 H 0.17694 1.16810 0.83221
 H130 H 0.19948 1.19111 0.80907
 N131 N 0.83020 0.84916 0.77138
 N132 N 0.84971 0.82927 0.77136
 C133 C 0.86704 0.83317 0.74891
 C134 C 0.85782 0.85678 0.73426
 C135 C 0.83440 0.86638 0.74904
 H136 H 0.88523 0.82017 0.74380
 H137 H 0.82174 0.88484 0.74421
 Cu138 Cu 0.85107 0.80083 0.80128
 Cu139 Cu 0.80223 0.85243 0.80152
 Cu140 Cu 0.80060 0.79951 0.85212
 N141 N 0.85054 0.77181 0.83058
 N142 N 0.83081 0.77151 0.85035
 C143 C 0.83530 0.74943 0.86778
 C144 C 0.85906 0.73511 0.85840
 C145 C 0.86825 0.74980 0.83475
 H146 H 0.82225 0.74413 0.88591
 H147 H 0.88641 0.74475 0.82164
 N148 N 0.77199 0.82985 0.85015
 N149 N 0.77241 0.84988 0.83063
 C150 C 0.75017 0.86730 0.83484
 C151 C 0.73522 0.85782 0.85818
 C152 C 0.74955 0.83408 0.86738
 H153 H 0.74526 0.88564 0.82206
 H154 H 0.74406 0.82100 0.88539
 H155 H 0.82384 0.83089 0.83351
 H156 H 0.80083 0.80944 0.80946
 N157 N 0.16940 0.84930 1.22800
 N158 N 0.14981 0.82949 1.22791
 C159 C 0.13213 0.83369 1.25001
 C160 C 0.14121 0.85737 1.26458
 C161 C 0.16488 0.86674 1.25009
 H162 H 0.11398 0.82065 1.25514
 H163 H 0.17780 0.88493 1.25522
 Cu164 Cu 0.14938 0.80052 1.19861
 Cu165 Cu 0.19930 0.85122 1.19960
 Cu166 Cu 0.19939 0.79936 1.14765
 N167 N 0.14989 0.77127 1.16960
 N168 N 0.16948 0.77108 1.14969
 C169 C 0.16497 0.74901 1.13228
 C170 C 0.14130 0.73463 1.14178
 C171 C 0.13221 0.74925 1.16550
 H172 H 0.17790 0.74381 1.11402
 H173 H 0.11407 0.74420 1.17864
 N174 N 0.22784 0.82981 1.14929
 N175 N 0.22778 0.84955 1.16909
 C176 C 0.24980 0.86714 1.16459
 C177 C 0.26433 0.85800 1.14088
 C178 C 0.24992 0.83434 1.13166
 H179 H 0.25500 0.88525 1.17757
 H180 H 0.25523 0.82141 1.11349
 H181 H 0.17703 0.83124 1.16757
 H182 H 0.19988 0.80845 1.19051
 N183 N 0.83065 1.15023 1.22790
 N184 N 0.85042 1.16985 1.22750
 C185 C 0.86825 1.16560 1.24947
 C186 C 0.85904 1.14211 1.26429
 C187 C 0.83517 1.13287 1.25005
 H188 H 0.88649 1.17858 1.25442
 H189 H 0.82206 1.11490 1.25548
 Cu190 Cu 0.85056 1.19907 1.19844
 Cu191 Cu 0.80046 1.14856 1.19979
 Cu192 Cu 0.80036 1.20046 1.14778
 N193 N 0.85031 1.22808 1.16919
 N194 N 0.83052 1.22850 1.14951
 C195 C 0.83500 1.25064 1.13216
 C196 C 0.85884 1.26484 1.14147
 C197 C 0.86809 1.25002 1.16499
 H198 H 0.82186 1.25609 1.11416
 H199 H 0.88632 1.25495 1.17802
 N200 N 0.77169 1.17021 1.14970
 N201 N 0.77173 1.15046 1.16951
 C202 C 0.74966 1.13292 1.16507
 C203 C 0.73512 1.14209 1.14139
 C204 C 0.74958 1.16574 1.13214
 H205 H 0.74450 1.11476 1.17802
 H206 H 0.74433 1.17863 1.11393
 H207 H 0.82259 1.16845 1.16758
 H208 H 0.79992 1.19131 1.19061
 N209 N 0.52967 1.03052 1.05036
 N210 N 0.55121 1.03413 1.06790
 N211 N 0.46985 1.05007 1.03065
 N212 N 0.44829 1.06757 1.03432
 N213 N 0.46987 1.03042 1.05034
 N214 N 0.44832 1.03399 1.06794
 N215 N 0.52965 1.05014 1.03064
 N216 N 0.55115 1.06766 1.03420
 C217 C 0.56435 1.05738 1.05752
 C218 C 0.43507 1.05724 1.05767
 N219 N 0.47017 1.03049 0.94977
 N220 N 0.44865 1.03408 0.93220
 N221 N 0.52989 1.05014 0.96951
 N222 N 0.55147 1.06762 0.96592
 N223 N 0.52995 1.03050 0.94982
 N224 N 0.55157 1.03407 0.93229
 N225 N 0.47011 1.05009 0.96950
 N226 N 0.44857 1.06758 0.96591
 Mn227 Mn 0.49987 1.05045 1.00007
 C228 C 0.43544 1.05730 0.94256
 C229 C 0.56476 1.05731 0.94262
 N230 N 0.47010 0.96953 1.05031
 N231 N 0.44855 0.96587 1.06786
 N232 N 0.52993 0.95000 1.03065
 N233 N 0.55148 0.93249 1.03432
 N234 N 0.52988 0.96963 1.05035
 N235 N 0.55138 0.96603 1.06796
 N236 N 0.47017 0.94994 1.03058
 N237 N 0.44869 0.93239 1.03415
 Mn238 Mn 0.49988 1.00003 1.05068
 C239 C 0.43546 0.94263 1.05747
 C240 C 0.56463 0.94279 1.05767
 N241 N 0.52989 0.96962 0.94980
 N242 N 0.55147 0.96604 0.93226
 N243 N 0.47008 0.94996 0.96946
 N244 N 0.44851 0.93249 0.96584
 N245 N 0.47009 0.96960 0.94975
 N246 N 0.44854 0.96603 0.93219
 N247 N 0.52988 0.95000 0.96951
 N248 N 0.55144 0.93252 0.96596
 Mn249 Mn 0.50003 1.00005 0.94944
 Mn250 Mn 0.50001 0.94964 1.00005
 Cl251 Cl 0.49995 1.00004 1.00006
 C252 C 0.56466 0.94282 0.94264
 C253 C 0.43530 0.94279 0.94251
 N254 N -0.05039 0.47032 0.03071
 N255 N -0.06795 0.44887 0.03432
 N256 N -0.03061 0.52978 0.05036
 N257 N -0.03421 0.55125 0.06790
 N258 N -0.05032 0.52980 0.03065
 N259 N -0.06787 0.55129 0.03423
 N260 N -0.03067 0.47031 0.05040
 N261 N -0.03423 0.44886 0.06795
 C262 C -0.05757 0.43574 0.05763
 C263 C -0.05753 0.56443 0.05755
 N264 N 0.05031 0.52956 0.03068
 N265 N 0.06780 0.55107 0.03422
 N266 N 0.03049 0.47010 0.05041
 N267 N 0.03400 0.44861 0.06795
 N268 N 0.05023 0.47005 0.03070
 N269 N 0.06773 0.44852 0.03429
 N270 N 0.03055 0.52958 0.05037
 N271 N 0.03403 0.55108 0.06785
 Mn272 Mn -0.00006 0.49994 0.05072
 C273 C 0.05735 0.56424 0.05749
 C274 C 0.05732 0.43539 0.05761
 N275 N -0.05025 0.52974 -0.03047
 N276 N -0.06773 0.55126 -0.03406
 N277 N -0.03060 0.47020 -0.05012
 N278 N -0.03415 0.44866 -0.06758
 N279 N -0.05033 0.47024 -0.03041
 N280 N -0.06786 0.44874 -0.03390
 N281 N -0.03050 0.52969 -0.05017
 N282 N -0.03398 0.55116 -0.06771
 Mn283 Mn -0.05067 0.50003 0.00012
 C284 C -0.05729 0.56437 -0.05737
 C285 C -0.05747 0.43552 -0.05717
 N286 N 0.05030 0.47008 -0.03047
 N287 N 0.06779 0.44856 -0.03409
 N288 N 0.03068 0.52965 -0.05016
 N289 N 0.03422 0.55120 -0.06762
 N290 N 0.05039 0.52961 -0.03046
 N291 N 0.06789 0.55113 -0.03396
 N292 N 0.03057 0.47015 -0.05015
 N293 N 0.03408 0.44870 -0.06771
 Mn294 Mn 0.05066 0.49982 0.00012
 Mn295 Mn 0.00004 0.49992 -0.05049
 Cl296 Cl -0.00000 0.49993 0.00012
 C297 C 0.05738 0.43548 -0.05740
 C298 C 0.05753 0.56436 -0.05724
 N299 N 0.94992 0.03063 0.52970
 N300 N 0.93232 0.03422 0.55123
 N301 N 0.96965 0.05021 0.46996
 N302 N 0.96610 0.06773 0.44846
 N303 N 0.94989 0.03063 0.46998
 N304 N 0.93231 0.03429 0.44847
 N305 N 0.96963 0.05025 0.52966
 N306 N 0.96599 0.06777 0.55117
 C307 C 0.94264 0.05747 0.56439
 C308 C 0.94273 0.05752 0.43530
 N309 N 1.05053 0.03050 0.46977
 N310 N 1.06813 0.03406 0.44823
 N311 N 1.03081 0.05022 0.52949
 N312 N 1.03436 0.06775 0.55097
 N313 N 1.05057 0.03062 0.52952
 N314 N 1.06813 0.03427 0.55104
 N315 N 1.03083 0.05015 0.46977
 N316 N 1.03447 0.06765 0.44823
 Mn317 Mn 1.00023 0.05054 0.49972
 C318 C 1.05782 0.05732 0.43503
 C319 C 1.05771 0.05753 0.56417
 N320 N 0.94983 -0.03027 0.47005
 N321 N 0.93222 -0.03383 0.44856
 N322 N 0.96965 -0.04986 0.52976
 N323 N 0.96617 -0.06731 0.55133
 N324 N 0.94990 -0.03025 0.52979
 N325 N 0.93242 -0.03380 0.55142
 N326 N 0.96953 -0.04993 0.47004
 N327 N 0.96586 -0.06743 0.44853
 Mn328 Mn 0.94954 0.00018 0.49988
 C329 C 0.94250 -0.05710 0.43537
 C330 C 0.94288 -0.05701 0.56461
 N331 N 1.05055 -0.03029 0.52965
 N332 N 1.06814 -0.03385 0.55116
 N333 N 1.03069 -0.04998 0.47001
 N334 N 1.03415 -0.06750 0.44850
 N335 N 1.05046 -0.03041 0.46990
 N336 N 1.06793 -0.03405 0.44828
 N337 N 1.03081 -0.04990 0.52972
 N338 N 1.03443 -0.06735 0.55129
 Mn339 Mn 1.05088 0.00010 0.49971
 Mn340 Mn 1.00017 -0.05025 0.49988
 Cl341 Cl 1.00021 0.00014 0.49979
 C342 C 1.05780 -0.05705 0.56443
 C343 C 1.05746 -0.05728 0.43519
 C344 C 1.10630 0.10542 0.33648
 N345 N 1.12966 0.09376 0.32425
 N346 N 1.14106 0.10519 0.30103
 C347 C 1.12954 0.12872 0.28916
 N348 N 1.10618 0.14037 0.30143
 N349 N 1.09478 0.12894 0.32464
 C350 C 1.09369 0.09286 0.36209
 N351 N 1.07028 0.10454 0.37422
 N352 N 1.05884 0.09320 0.39746
 C353 C 1.07040 0.06977 0.40942
 N354 N 1.09379 0.05807 0.39732
 N355 N 1.10523 0.06941 0.37407
 C356 C 0.89391 -0.10509 0.33699
 N357 N 0.90539 -0.12862 0.32512
 N358 N 0.89394 -0.14003 0.30196
 C359 C 0.87059 -0.12833 0.28980
 N360 N 0.85910 -0.10481 0.30165
 N361 N 0.87054 -0.09339 0.32483
 C362 C 0.90655 -0.09256 0.36255
 N363 N 0.89505 -0.06910 0.37456
 N364 N 0.90652 -0.05779 0.39777
 C365 C 0.92991 -0.06953 0.40981
 N366 N 0.94143 -0.09296 0.39782
 N367 N 0.92996 -0.10427 0.37461
 C368 C 0.89407 0.10542 0.66289
 N369 N 0.90544 0.12903 0.67465
 N370 N 0.89403 0.14039 0.69788
 C371 C 0.87083 0.12855 0.71022
 N372 N 0.85945 0.10494 0.69847
 N373 N 0.87086 0.09358 0.67522
 C374 C 0.90670 0.09293 0.63728
 N375 N 0.89525 0.06944 0.62533
 N376 N 0.90671 0.05814 0.60209
 C377 C 0.93005 0.06991 0.58997
 N378 N 0.94152 0.09338 0.60189
 N379 N 0.93005 0.10468 0.62513
 C380 C 1.10627 -0.10521 0.66287
 N381 N 1.12986 -0.09376 0.67483
 N382 N 1.14131 -0.10525 0.69800
 C383 C 1.12959 -0.12858 0.71003
 N384 N 1.10602 -0.14000 0.69807
 N385 N 1.09458 -0.12853 0.67492
 C386 C 1.09364 -0.09262 0.63730
 N387 N 1.07011 -0.10414 0.62534
 N388 N 1.05867 -0.09280 0.60213
 C389 C 1.07035 -0.06950 0.59002
 N390 N 1.09386 -0.05793 0.60196
 N391 N 1.10531 -0.06929 0.62519
 C392 C 0.33654 1.10548 1.10644
 N393 N 0.32483 1.12917 1.09514
 N394 N 0.30167 1.14066 1.10662
 C395 C 0.28930 1.12890 1.12986
 N396 N 0.30102 1.10519 1.14116
 N397 N 0.32420 1.09370 1.12967
 C398 C 0.36214 1.09286 1.09374
 N399 N 0.37407 1.06931 1.10514
 N400 N 0.39730 1.05795 1.09363
 C401 C 0.40944 1.06972 1.07030
 N402 N 0.39752 1.09324 1.05888
 N403 N 0.37430 1.10460 1.07039
 C404 C 0.33681 0.89440 0.89403
 N405 N 0.32479 0.90581 0.87046
 N406 N 0.30163 0.89426 0.85902
 C407 C 0.28962 0.87089 0.87071
 N408 N 0.30167 0.85951 0.89429
 N409 N 0.32481 0.87105 0.90572
 C410 C 0.36240 0.90706 0.90666
 N411 N 0.37440 0.89557 0.93018
 N412 N 0.39760 0.90696 0.94162
 C413 C 0.40968 0.93029 0.92995
 N414 N 0.39769 0.94182 0.90644
 N415 N 0.37447 0.93042 0.89500
 C416 C 0.66316 0.89453 1.10615
 N417 N 0.67498 0.87099 1.09465
 N418 N 0.69818 0.85951 1.10603
 C419 C 0.71046 0.87114 1.12935
 N420 N 0.69862 0.89469 1.14085
 N421 N 0.67541 0.90617 1.12947
 C422 C 0.63754 0.90714 1.09355
 N423 N 0.62555 0.93060 1.10507
 N424 N 0.60231 0.94197 1.09364
 C425 C 0.59023 0.93029 1.07027
 N426 N 0.60221 0.90686 1.05873
 N427 N 0.62544 0.89549 1.07017
 C428 C 0.66303 1.10597 0.89387
 N429 N 0.67475 1.12958 0.90530
 N430 N 0.69777 1.14125 0.89372
 C431 C 0.70996 1.12976 0.87026
 N432 N 0.69822 1.10614 0.85884
 N433 N 0.67520 1.09447 0.87042
 C434 C 0.63757 1.09317 0.90664
 N435 N 0.62571 1.06964 0.89519
 N436 N 0.60254 1.05817 0.90669
 C437 C 0.59039 1.06982 0.93006
 N438 N 0.60226 1.09332 0.94156
 N439 N 0.62542 1.10478 0.93006
 C440 C 0.10546 0.33710 0.10592
 N441 N 0.12911 0.32527 0.09445
 N442 N 0.14064 0.30223 0.10596
 C443 C 0.12894 0.29017 0.12935
 N444 N 0.10527 0.30199 0.14082
 N445 N 0.09375 0.32503 0.12931
 C446 C 0.09284 0.36260 0.09329
 N447 N 0.06931 0.37459 0.10486
 N448 N 0.05797 0.39778 0.09347
 C449 C 0.06975 0.40982 0.07011
 N450 N 0.09324 0.39784 0.05851
 N451 N 0.10459 0.37465 0.06990
 C452 C -0.10616 0.33758 -0.10542
 N453 N -0.09482 0.32581 -0.12914
 N454 N -0.10653 0.30294 -0.14075
 C455 C -0.13001 0.29099 -0.12907
 N456 N -0.14134 0.30273 -0.10534
 N457 N -0.12964 0.32562 -0.09373
 C458 C -0.09335 0.36292 -0.09273
 N459 N -0.10489 0.37490 -0.06920
 N460 N -0.09341 0.39801 -0.05783
 C461 C -0.06998 0.40997 -0.06958
 N462 N -0.05839 0.39798 -0.09306
 N463 N -0.06987 0.37487 -0.10443
 C464 C 0.10557 0.66295 -0.10503
 N465 N 0.09397 0.67499 -0.12848
 N466 N 0.10545 0.69810 -0.13989
 C467 C 0.12896 0.71002 -0.12828
 N468 N 0.14053 0.69800 -0.10481
 N469 N 0.12905 0.67489 -0.09340
 C470 C 0.09300 0.63736 -0.09254
 N471 N 0.10467 0.62526 -0.06915
 N472 N 0.09335 0.60200 -0.05789
 C473 C 0.06996 0.58999 -0.06961
 N474 N 0.05827 0.60207 -0.09298
 N475 N 0.06959 0.62534 -0.10424
 C476 C -0.10584 0.66276 0.10553
 N477 N -0.12932 0.67471 0.09388
 N478 N -0.14084 0.69780 0.10528
 C479 C -0.12929 0.70979 0.12876
 N480 N -0.10580 0.69785 0.14041
 N481 N -0.09428 0.67476 0.12900
 C482 C -0.09321 0.63723 0.09300
 N483 N -0.06977 0.62522 0.10470
 N484 N -0.05838 0.60201 0.09339
 C485 C -0.07003 0.58998 0.06999
 N486 N -0.09344 0.60198 0.05827
 N487 N -0.10482 0.62519 0.06958
 C488 C 1.10536 0.10608 0.66260
 N489 N 1.12893 0.09467 0.67459
 N490 N 1.14030 0.10613 0.69775
 C491 C 1.12851 0.12942 0.70977
 N492 N 1.10491 0.14082 0.69782
 N493 N 1.09354 0.12935 0.67464
 C494 C 1.09294 0.09345 0.63701
 N495 N 1.06943 0.10486 0.62489
 N496 N 1.05820 0.09339 0.60166
 C497 C 1.07008 0.07010 0.58972
 N498 N 1.09358 0.05868 0.60181
 N499 N 1.10481 0.07016 0.62505
 C500 C 0.89462 -0.10611 0.66259
 N501 N 0.90611 -0.12974 0.67425
 N502 N 0.89438 -0.14162 0.69707
 C503 C 0.87073 -0.13030 0.70902
 N504 N 0.85927 -0.10665 0.69739
 N505 N 0.87099 -0.09478 0.67457
 C506 C 0.90736 -0.09314 0.63730
 N507 N 0.89566 -0.06967 0.62550
 N508 N 0.90703 -0.05808 0.60236
 C509 C 0.93049 -0.06955 0.59020
 N510 N 0.94225 -0.09295 0.60203
 N511 N 0.93088 -0.10455 0.62517
 C512 C 1.10514 -0.10616 0.33690
 N513 N 1.09355 -0.12970 0.32519
 N514 N 1.10502 -0.14136 0.30213
 C515 C 1.12849 -0.12989 0.28997
 N516 N 1.14006 -0.10635 0.30168
 N517 N 1.12860 -0.09470 0.32472
 C518 C 1.09264 -0.09336 0.36236
 N519 N 1.10440 -0.06993 0.37413
 N520 N 1.09316 -0.05838 0.39735
 C521 C 1.06977 -0.06987 0.40961
 N522 N 1.05797 -0.09325 0.39784
 N523 N 1.06921 -0.10481 0.37462
 C524 C 0.89488 0.10619 0.33699
 N525 N 0.90669 0.12946 0.32492
 N526 N 0.89530 0.14094 0.30174
 C527 C 0.87170 0.12954 0.28981
 N528 N 0.85990 0.10628 0.30188
 N529 N 0.87128 0.09481 0.32505
 C530 C 0.90736 0.09351 0.36253
 N531 N 0.89552 0.07021 0.37451
 N532 N 0.90680 0.05870 0.39772
 C533 C 0.93032 0.07010 0.40976
 N534 N 0.94218 0.09338 0.39780
 N535 N 0.93090 0.10489 0.37459
 C536 C 0.10510 0.33718 -0.10581
 N537 N 0.09335 0.32512 -0.12916
 N538 N 0.10477 0.30200 -0.14061
 C539 C 0.12836 0.29012 -0.12911
 N540 N 0.14008 0.30215 -0.10574
 N541 N 0.12866 0.32525 -0.09430
 C542 C 0.09263 0.36272 -0.09322
 N543 N 0.10445 0.37468 -0.06986
 N544 N 0.09320 0.39788 -0.05842
 C545 C 0.06974 0.40994 -0.06995
 N546 N 0.05791 0.39800 -0.09330
 N547 N 0.06915 0.37480 -0.10474
 C548 C -0.10539 0.33750 0.10585
 N549 N -0.12895 0.32563 0.09433
 N550 N -0.14032 0.30247 0.10571
 C551 C -0.12854 0.29034 0.12900
 N552 N -0.10497 0.30220 0.14053
 N553 N -0.09360 0.32537 0.12915
 C554 C -0.09292 0.36302 0.09330
 N555 N -0.06942 0.37501 0.10484
 N556 N -0.05815 0.39822 0.09345
 C557 C -0.06997 0.41024 0.07012
 N558 N -0.09344 0.39826 0.05856
 N559 N -0.10472 0.37506 0.06995
 C560 C -0.10504 0.66264 -0.10568
 N561 N -0.09343 0.67452 -0.12923
 N562 N -0.10484 0.69762 -0.14069
 C563 C -0.12828 0.70966 -0.12903
 N564 N -0.13988 0.69778 -0.10550
 N565 N -0.12847 0.67469 -0.09403
 C566 C -0.09254 0.63714 -0.09307
 N567 N -0.10427 0.62524 -0.06960
 N568 N -0.09302 0.60203 -0.05819
 C569 C -0.06964 0.58992 -0.06986
 N570 N -0.05787 0.60181 -0.09330
 N571 N -0.06913 0.62502 -0.10471
 C572 C 0.10514 0.66242 0.10574
 N573 N 0.09359 0.67427 0.12933
 N574 N 0.10509 0.69729 0.14083
 C575 C 0.12855 0.70928 0.12916
 N576 N 0.14008 0.69744 0.10558
 N577 N 0.12858 0.67443 0.09408
 C578 C 0.09260 0.63699 0.09311
 N579 N 0.10432 0.62508 0.06965
 N580 N 0.09306 0.60188 0.05825
 C581 C 0.06968 0.58979 0.06994
 N582 N 0.05792 0.60169 0.09336
 N583 N 0.06918 0.62489 0.10476
 C584 C 0.33712 1.10561 0.89444
 N585 N 0.32512 1.09415 0.87092
 N586 N 0.30202 1.10570 0.85945
 C587 C 0.29010 1.12912 0.87107
 N588 N 0.30209 1.14059 0.89458
 N589 N 0.32519 1.12904 0.90606
 C590 C 0.36262 1.09297 0.90701
 N591 N 0.37466 1.10450 0.93047
 N592 N 0.39789 1.09309 0.94182
 C593 C 0.40989 1.06977 0.93011
 N594 N 0.39786 1.05821 0.90667
 N595 N 0.37462 1.06961 0.89532
 C596 C 0.33702 0.89415 1.10522
 N597 N 0.32515 0.87075 1.09351
 N598 N 0.30196 0.85923 1.10485
 C599 C 0.28982 0.87070 1.12831
 N600 N 0.30168 0.89409 1.14002
 N601 N 0.32487 0.90561 1.12868
 C602 C 0.36258 0.90679 1.09279
 N603 N 0.37448 0.93015 1.10455
 N604 N 0.39774 0.94160 1.09328
 C605 C 0.40990 0.93009 1.06987
 N606 N 0.39802 0.90676 1.05809
 N607 N 0.37476 0.89531 1.06935
 C608 C 0.66270 1.10580 1.10543
 N609 N 0.67458 1.12924 1.09378
 N610 N 0.69767 1.14081 1.10523
 C611 C 0.70971 1.12934 1.12873
 N612 N 0.69785 1.10590 1.14037
 N613 N 0.67476 1.09433 1.12892
 C614 C 0.63720 1.09314 1.09291
 N615 N 0.62526 1.06976 1.10463
 N616 N 0.60202 1.05833 1.09333
 C617 C 0.58992 1.06988 1.06992
 N618 N 0.60184 1.09323 1.05817
 N619 N 0.62508 1.10466 1.06947
 C620 C 0.66288 0.89427 0.89434
 N621 N 0.67471 0.87078 0.90592
 N622 N 0.69775 0.85914 0.89437
 C623 C 0.70976 0.87057 0.87082
 N624 N 0.69794 0.89406 0.85924
 N625 N 0.67490 0.90570 0.87079
 C626 C 0.63744 0.90701 0.90700
 N627 N 0.62550 0.93041 0.89533
 N628 N 0.60229 0.94187 0.90673
 C629 C 0.59023 0.93033 0.93019
 N630 N 0.60219 0.90698 0.94190
 N631 N 0.62539 0.89552 0.93050
   
