data_POSCAR
  _audit_creation_date              2014-09-24
  _audit_creation_method            'ToBaCCo'
  _symmetry_space_group_name_H-M    'P1'
  _symmetry_Int_Tables_number       1
  _symmetry_cell_setting            triclinic
  loop_
  _symmetry_equiv_pos_as_xyz
 x,y,z
_cell_length_a 42.7464
_cell_length_b 42.6635
_cell_length_c 17.8739
_cell_angle_alpha 89.913500
_cell_angle_beta 90.086400
_cell_angle_gamma 119.997600
loop_
  _atom_site_label
  _atom_site_type_symbol
  _atom_site_fract_x
  _atom_site_fract_y
  _atom_site_fract_z
C1 C 0.48423 0.96759 0.54078
 C2 C 0.48341 0.96764 0.46199
 C3 C 0.49947 1.00060 0.42320
 C4 C 0.51637 1.03359 0.46189
 C5 C 0.51719 1.03357 0.54084
 C6 C 0.50110 1.00055 0.57960
 H7 H 0.50171 1.00050 0.64037
 H8 H 0.49879 1.00049 0.36246
 C9 C 0.03230 0.51649 0.53714
 C10 C 0.03228 0.51559 0.45846
 C11 C -0.00060 0.49870 0.41961
 C12 C -0.03351 0.48267 0.45838
 C13 C -0.03346 0.48359 0.53720
 C14 C -0.00055 0.50049 0.57595
 H15 H -0.00050 0.50119 0.63664
 H16 H -0.00051 0.49808 0.35889
 C17 C 0.48315 0.51607 0.54242
 C18 C 0.48403 0.51690 0.46361
 C19 C 0.50089 0.50083 0.42502
 C20 C 0.51690 0.48392 0.46392
 C21 C 0.51604 0.48306 0.54272
 C22 C 0.49917 0.49915 0.58139
 H23 H 0.49852 0.49850 0.64216
 H24 H 0.50154 0.50147 0.36433
 O25 O 0.38813 0.65861 -0.06379
 O26 O 0.38666 0.71837 -0.08743
 C27 C 0.36991 0.73529 -0.10019
 O28 O 0.34202 0.72987 -0.06431
 O29 O 0.28240 0.66865 -0.08793
 C30 C 0.26554 0.63495 -0.10054
 O31 O 0.27091 0.61242 -0.06440
 O32 O 0.33204 0.61389 -0.08737
 C33 C 0.36568 0.63069 -0.09984
 O34 O 0.38655 0.66860 0.08467
 O35 O 0.38802 0.72982 0.06107
 C36 C 0.36550 0.73516 0.09701
 O37 O 0.33189 0.71828 0.08417
 O38 O 0.27080 0.65854 0.06053
 C39 C 0.26540 0.63062 0.09665
 O40 O 0.28229 0.61384 0.08419
 O41 O 0.34195 0.61239 0.06124
 C42 C 0.36977 0.63491 0.09739
 Cr43 Cr 0.38530 0.69283 -0.00139
 Cr44 Cr 0.30780 0.69282 -0.00188
 Cr45 Cr 0.30782 0.61518 -0.00159
 O46 O 0.33364 0.66694 -0.00163
 O47 O 0.61338 0.33142 -0.08502
 O48 O 0.61188 0.27016 -0.06164
 C49 C 0.63431 0.26475 -0.09770
 O50 O 0.66795 0.28161 -0.08508
 O51 O 0.72910 0.34134 -0.06193
 C52 C 0.73444 0.36925 -0.09803
 O53 O 0.71762 0.38608 -0.08533
 O54 O 0.65804 0.38762 -0.06170
 C55 C 0.63014 0.36512 -0.09768
 O56 O 0.61208 0.34145 0.06352
 O57 O 0.61351 0.28166 0.08689
 C58 C 0.63028 0.26476 0.09958
 O59 O 0.65810 0.27012 0.06349
 O60 O 0.71779 0.33132 0.08665
 C61 C 0.73470 0.36502 0.09920
 O62 O 0.72930 0.38755 0.06314
 O63 O 0.66824 0.38612 0.08677
 C64 C 0.63462 0.36933 0.09954
 Cr65 Cr 0.61475 0.30719 0.00093
 Cr66 Cr 0.69221 0.30712 0.00078
 Cr67 Cr 0.69228 0.38480 0.00073
 O68 O 0.66641 0.33304 0.00082
 C69 C 0.43971 0.87631 -0.33512
 C70 C 0.40455 0.86891 -0.29680
 C71 C 0.38999 0.83917 -0.25174
 C72 C 0.41199 0.81971 -0.24936
 C73 C 0.45018 0.84890 -0.22609
 C74 C 0.46473 0.87862 -0.27113
 C75 C 0.43010 0.84111 -0.37661
 C76 C 0.41550 0.81129 -0.33143
 C77 C 0.45555 0.90873 -0.38245
 C78 C 0.46888 0.93608 -0.41926
 C79 C 0.39649 0.78819 -0.19942
 C80 C 0.38414 0.76340 -0.15555
 H81 H 0.39213 0.88552 -0.30454
 H82 H 0.36509 0.83031 -0.22087
 H83 H 0.46458 0.84640 -0.17844
 H84 H 0.49159 0.90158 -0.26205
 H85 H 0.43440 0.83973 -0.43608
 H86 H 0.40727 0.78436 -0.35219
 C87 C 0.12506 0.56400 -0.33615
 C88 C 0.13287 0.53619 -0.29891
 C89 C 0.16250 0.55130 -0.25369
 C90 C 0.18145 0.59276 -0.25011
 C91 C 0.15195 0.60116 -0.22615
 C92 C 0.12234 0.58606 -0.27134
 C93 C 0.16012 0.59024 -0.37718
 C94 C 0.18982 0.60538 -0.33186
 C95 C 0.09276 0.54750 -0.38364
 C96 C 0.06552 0.53354 -0.42060
 C97 C 0.21285 0.60872 -0.20001
 C98 C 0.23755 0.62111 -0.15603
 H99 H 0.11661 0.50718 -0.30745
 H100 H 0.17161 0.53523 -0.22350
 H101 H 0.15416 0.61761 -0.17794
 H102 H 0.09919 0.58956 -0.26182
 H103 H 0.16149 0.59637 -0.43646
 H104 H 0.21665 0.62449 -0.35230
 C105 C 0.43663 0.56074 -0.33397
 C106 C 0.41412 0.53578 -0.26971
 C107 C 0.39903 0.55039 -0.22484
 C108 C 0.40790 0.58855 -0.24853
 C109 C 0.39577 0.58478 -0.33056
 C110 C 0.41091 0.57013 -0.37557
 C111 C 0.46441 0.59609 -0.29603
 C112 C 0.44931 0.61071 -0.25112
 C113 C 0.45312 0.54483 -0.38111
 C114 C 0.46706 0.53145 -0.41778
 C115 C 0.39195 0.60410 -0.19876
 C116 C 0.37955 0.61647 -0.15503
 H117 H 0.41031 0.50894 -0.26033
 H118 H 0.38229 0.53605 -0.17703
 H119 H 0.37701 0.59289 -0.35142
 H120 H 0.40510 0.56566 -0.43499
 H121 H 0.49339 0.60861 -0.30389
 H122 H 0.46537 0.63575 -0.22053
 C123 C 0.56356 0.12444 -0.33398
 C124 C 0.59025 0.15957 -0.37445
 C125 C 0.60532 0.18921 -0.32892
 C126 C 0.59218 0.18073 -0.24755
 C127 C 0.60003 0.15086 -0.22294
 C128 C 0.58501 0.12131 -0.26833
 C129 C 0.53581 0.13253 -0.29786
 C130 C 0.55085 0.16210 -0.25243
 C131 C 0.54714 0.09219 -0.38170
 C132 C 0.53325 0.06498 -0.41882
 C133 C 0.60807 0.21208 -0.19726
 C134 C 0.62044 0.23675 -0.15318
 H135 H 0.59672 0.16102 -0.43352
 H136 H 0.62470 0.21607 -0.34898
 H137 H 0.61607 0.15279 -0.17416
 H138 H 0.58816 0.09792 -0.25842
 H139 H 0.50689 0.11649 -0.30728
 H140 H 0.53481 0.17139 -0.22294
 C141 C 0.87419 0.43851 -0.33503
 C142 C 0.86614 0.40266 -0.29855
 C143 C 0.83668 0.38821 -0.25297
 C144 C 0.81812 0.41102 -0.24831
 C145 C 0.80955 0.41561 -0.32973
 C146 C 0.83908 0.43010 -0.37541
 C147 C 0.87741 0.46321 -0.26962
 C148 C 0.84796 0.44877 -0.22408
 C149 C 0.90631 0.45423 -0.38291
 C150 C 0.93342 0.46746 -0.42017
 C151 C 0.78689 0.39564 -0.19787
 C152 C 0.76231 0.38338 -0.15367
 H153 H 0.88213 0.38970 -0.30785
 H154 H 0.82743 0.36287 -0.22324
 H155 H 0.78272 0.40817 -0.34970
 H156 H 0.83757 0.43507 -0.43452
 H157 H 0.90076 0.48976 -0.25998
 H158 H 0.84610 0.46297 -0.17544
 C159 C 0.56045 0.43633 -0.33286
 C160 C 0.56965 0.41040 -0.37411
 C161 C 0.58422 0.39520 -0.32886
 C162 C 0.58811 0.40746 -0.24695
 C163 C 0.55009 0.39875 -0.22334
 C164 C 0.53557 0.41391 -0.26846
 C165 C 0.59583 0.46411 -0.29506
 C166 C 0.61036 0.44894 -0.24992
 C167 C 0.54464 0.45289 -0.38028
 C168 C 0.53134 0.46690 -0.41719
 C169 C 0.60359 0.39144 -0.19693
 C170 C 0.61592 0.37900 -0.15303
 H171 H 0.56512 0.40451 -0.43349
 H172 H 0.59219 0.37629 -0.34946
 H173 H 0.53579 0.38207 -0.17541
 H174 H 0.50883 0.41022 -0.25917
 H175 H 0.60841 0.49315 -0.30320
 H176 H 0.63540 0.46499 -0.21938
 C177 C 0.87542 0.43603 0.33419
 C178 C 0.84031 0.41027 0.37560
 C179 C 0.81057 0.39510 0.33039
 C180 C 0.81896 0.40724 0.24837
 C181 C 0.84818 0.39834 0.22501
 C182 C 0.87783 0.41346 0.27008
 C183 C 0.86793 0.46385 0.29602
 C184 C 0.83826 0.44873 0.25092
 C185 C 0.90777 0.45255 0.38156
 C186 C 0.93505 0.46653 0.41840
 C187 C 0.78751 0.39126 0.19839
 C188 C 0.76276 0.37886 0.15452
 H189 H 0.83893 0.40446 0.43504
 H190 H 0.78370 0.37631 0.35109
 H191 H 0.84576 0.38155 0.17727
 H192 H 0.90081 0.40963 0.26095
 H193 H 0.88442 0.49290 0.30388
 H194 H 0.82935 0.46482 0.22014
 C195 C 0.56082 0.12448 0.33645
 C196 C 0.56985 0.15974 0.37705
 C197 C 0.58440 0.18938 0.33140
 C198 C 0.58845 0.18075 0.24977
 C199 C 0.55050 0.15120 0.22605
 C200 C 0.53599 0.12165 0.27157
 C201 C 0.59628 0.13212 0.29924
 C202 C 0.61080 0.16169 0.25369
 C203 C 0.54502 0.09224 0.38429
 C204 C 0.53171 0.06502 0.42149
 C205 C 0.60389 0.21209 0.19935
 C206 C 0.61617 0.23676 0.15517
 H207 H 0.56522 0.16127 0.43629
 H208 H 0.59226 0.21632 0.35152
 H209 H 0.53623 0.15333 0.17776
 H210 H 0.50930 0.09847 0.26226
 H211 H 0.60894 0.11579 0.30804
 H212 H 0.63589 0.17069 0.22348
 C213 C 0.56417 0.43873 0.33638
 C214 C 0.59074 0.43014 0.37682
 C215 C 0.60579 0.41563 0.33118
 C216 C 0.59274 0.41119 0.24972
 C217 C 0.60073 0.44902 0.22554
 C218 C 0.58573 0.46348 0.27105
 C219 C 0.53639 0.40297 0.29978
 C220 C 0.55140 0.38850 0.25424
 C221 C 0.54777 0.45448 0.38422
 C222 C 0.53388 0.46774 0.42141
 C223 C 0.60858 0.39578 0.19930
 C224 C 0.62089 0.38350 0.15513
 H225 H 0.59716 0.43502 0.43596
 H226 H 0.62509 0.40806 0.35120
 H227 H 0.61684 0.46324 0.17695
 H228 H 0.58898 0.49009 0.26144
 H229 H 0.50746 0.39009 0.30899
 H230 H 0.53533 0.36322 0.22443
 C231 C 0.12496 0.56090 0.33185
 C232 C 0.13257 0.59635 0.29407
 C233 C 0.16217 0.61090 0.24889
 C234 C 0.18130 0.58858 0.24589
 C235 C 0.15192 0.55050 0.22229
 C236 C 0.12233 0.53596 0.26744
 C237 C 0.16009 0.57010 0.37307
 C238 C 0.18976 0.58468 0.32778
 C239 C 0.09268 0.54508 0.37931
 C240 C 0.06547 0.53178 0.41625
 C241 C 0.21268 0.60406 0.19585
 C242 C 0.23738 0.61641 0.15196
 H243 H 0.11619 0.60898 0.30223
 H244 H 0.17115 0.63598 0.21836
 H245 H 0.15418 0.53616 0.17435
 H246 H 0.09926 0.50918 0.25817
 H247 H 0.16152 0.56555 0.43244
 H248 H 0.21663 0.59264 0.34835
 C249 C 0.43608 0.87513 0.33414
 C250 C 0.40915 0.84000 0.37426
 C251 C 0.39408 0.81043 0.32853
 C252 C 0.40747 0.81899 0.24732
 C253 C 0.44877 0.83742 0.25271
 C254 C 0.46381 0.86692 0.29834
 C255 C 0.41491 0.87851 0.26824
 C256 C 0.39988 0.84903 0.22264
 C257 C 0.45251 0.90730 0.38208
 C258 C 0.46641 0.93446 0.41937
 C259 C 0.39160 0.78772 0.19683
 C260 C 0.37927 0.76310 0.15262
 H261 H 0.40252 0.83849 0.43324
 H262 H 0.37454 0.78357 0.34833
 H263 H 0.46480 0.82805 0.22341
 H264 H 0.49271 0.88282 0.30813
 H265 H 0.41193 0.90199 0.25830
 H266 H 0.38403 0.84726 0.17366
 C267 C 0.43894 0.56423 0.33526
 C268 C 0.43058 0.59104 0.37530
 C269 C 0.41611 0.60611 0.32942
 C270 C 0.41146 0.59284 0.24814
 C271 C 0.38869 0.55144 0.25320
 C272 C 0.40313 0.53641 0.29898
 C273 C 0.46355 0.58562 0.26967
 C274 C 0.44912 0.60065 0.22392
 C275 C 0.45466 0.54781 0.38336
 C276 C 0.46789 0.53391 0.42080
 C277 C 0.39609 0.60872 0.19748
 C278 C 0.38386 0.62108 0.15314
 H279 H 0.43559 0.59759 0.43436
 H280 H 0.40869 0.62557 0.34915
 H281 H 0.36338 0.53535 0.22357
 H282 H 0.39020 0.50744 0.30857
 H283 H 0.49004 0.58876 0.26007
 H284 H 0.46326 0.61665 0.17513
   
