data_POSCAR
  _audit_creation_date              2014-09-24
  _audit_creation_method            'ToBaCCo'
  _symmetry_space_group_name_H-M    'P1'
  _symmetry_Int_Tables_number       1
  _symmetry_cell_setting            triclinic
  loop_
  _symmetry_equiv_pos_as_xyz
 x,y,z
_cell_length_a 57.7025
_cell_length_b 58.8286
_cell_length_c 54.9720
_cell_angle_alpha 91.818700
_cell_angle_beta 90.429100
_cell_angle_gamma 93.856600
loop_
  _atom_site_label
  _atom_site_type_symbol
  _atom_site_fract_x
  _atom_site_fract_y
  _atom_site_fract_z
C1 C 0.21308 0.52259 1.02922
 H2 H 0.21306 0.53705 1.01754
 C3 C 0.19775 0.52097 1.04875
 H4 H 0.18592 0.53432 1.05124
 C5 C 0.22742 0.48703 1.03808
 H6 H 0.23866 0.47359 1.03364
 C7 C 0.21241 0.48466 1.05774
 H8 H 0.21356 0.46976 1.06858
 N9 N 0.22743 0.50572 1.02421
 C10 C 0.28040 0.53584 0.97675
 H11 H 0.27836 0.52360 0.96165
 C12 C 0.29747 0.55369 0.97602
 H13 H 0.30819 0.55527 0.96001
 C14 C 0.26868 0.54842 1.01585
 H15 H 0.25771 0.54597 1.03153
 C16 C 0.28578 0.56648 1.01601
 H17 H 0.28782 0.57777 1.03193
 Zn18 Zn 0.24543 0.50739 0.99563
 N19 N 0.26639 0.53354 0.99638
 C20 C 0.22460 0.52677 0.95501
 N21 N 0.22438 0.50821 0.96916
 C22 C 0.20790 0.49070 0.96603
 C23 C 0.19070 0.49146 0.94810
 C24 C 0.20777 0.52822 0.93688
 C25 C 0.27998 0.48046 1.01066
 C26 C 0.29499 0.46287 1.00995
 C27 C 0.27687 0.44887 0.97213
 C28 C 0.26203 0.46673 0.97366
 N29 N 0.26380 0.48200 0.99281
 H30 H 0.23742 0.54080 0.95813
 H31 H 0.20783 0.47636 0.97789
 H32 H 0.17738 0.47763 0.94631
 H33 H 0.20828 0.54315 0.92582
 H34 H 0.28116 0.49298 1.02553
 H35 H 0.30739 0.46180 1.02467
 H36 H 0.27551 0.43712 0.95655
 H37 H 0.24941 0.46857 0.95936
 C38 C 0.30064 0.56914 0.99598
 C39 C 0.19679 0.50154 1.06330
 C40 C 0.29371 0.44683 0.99042
 C41 C 0.19034 0.51055 0.93342
 C42 C 0.78618 0.51020 -0.02314
 H43 H 0.78760 0.52215 -0.00775
 C44 C 0.80113 0.51301 -0.04276
 H45 H 0.81417 0.52714 -0.04225
 C46 C 0.76787 0.47680 -0.04192
 H47 H 0.75505 0.46258 -0.04136
 C48 C 0.78255 0.47894 -0.06196
 H49 H 0.78062 0.46650 -0.07690
 N50 N 0.76983 0.49247 -0.02315
 C51 C 0.71890 0.51778 0.02734
 H52 H 0.71869 0.50510 0.04118
 C53 C 0.70494 0.53622 0.02979
 H54 H 0.69436 0.53776 0.04586
 C55 C 0.73316 0.53111 -0.01027
 H56 H 0.74378 0.52884 -0.02613
 C57 C 0.71931 0.54965 -0.00870
 H58 H 0.71947 0.56134 -0.02351
 Zn59 Zn 0.75118 0.49022 0.00487
 N60 N 0.73290 0.51575 0.00772
 C61 C 0.77269 0.50514 0.05017
 N62 N 0.77186 0.48921 0.03163
 C63 C 0.78699 0.47248 0.03070
 C64 C 0.80345 0.47093 0.04917
 C65 C 0.78893 0.50425 0.06906
 C66 C 0.71398 0.46260 -0.01475
 C67 C 0.69801 0.44373 -0.01699
 C68 C 0.71671 0.42731 0.01710
 C69 C 0.73224 0.44658 0.01878
 N70 N 0.73074 0.46364 0.00282
 H71 H 0.76100 0.51871 0.05027
 H72 H 0.78633 0.46038 0.01543
 H73 H 0.81548 0.45760 0.04791
 H74 H 0.78917 0.51689 0.08382
 H75 H 0.71295 0.47658 -0.02696
 H76 H 0.68455 0.44350 -0.03084
 H77 H 0.71846 0.41379 0.02975
 H78 H 0.74538 0.44788 0.03293
 C79 C 0.70500 0.55250 0.01160
 C80 C 0.79939 0.49731 -0.06257
 C81 C 0.69925 0.42569 -0.00095
 C82 C 0.80454 0.48692 0.06872
 C83 C -0.02789 0.27322 0.50429
 H84 H -0.03932 0.27636 0.51933
 C85 C -0.02789 0.28723 0.48428
 H86 H -0.03948 0.30092 0.48477
 C87 C 0.00281 0.25334 0.48767
 H88 H 0.01522 0.24055 0.48913
 C89 C 0.00343 0.26690 0.46729
 H90 H 0.01566 0.26308 0.45319
 N91 N -0.01288 0.25646 0.50558
 C92 C -0.03847 0.19789 0.54107
 H93 H -0.02176 0.19223 0.54621
 C94 C -0.05739 0.18197 0.53860
 H95 H -0.05501 0.16418 0.54167
 C96 C -0.06193 0.22769 0.53064
 H97 H -0.06362 0.24544 0.52719
 C98 C -0.08146 0.21231 0.52820
 H99 H -0.09795 0.21835 0.52265
 Zn100 Zn -0.01304 0.23958 0.53457
 N101 N -0.04076 0.22015 0.53616
 C102 C -0.02790 0.26356 0.57715
 N103 N -0.01085 0.26142 0.56044
 C104 C 0.00789 0.27662 0.55989
 C105 C 0.00988 0.29520 0.57625
 C106 C -0.02675 0.28216 0.59376
 C107 C 0.01430 0.20531 0.51663
 C108 C 0.03311 0.19169 0.51535
 C109 C 0.04838 0.21022 0.55247
 C110 C 0.02931 0.22369 0.55292
 N111 N 0.01291 0.22126 0.53493
 H112 H -0.04281 0.25138 0.57697
 H113 H 0.02105 0.27459 0.54622
 H114 H 0.02497 0.30711 0.57536
 H115 H -0.04093 0.28420 0.60625
 H116 H 0.00081 0.20338 0.50280
 H117 H 0.03413 0.17970 0.50011
 H118 H 0.06112 0.21229 0.56706
 H119 H 0.02760 0.23596 0.56772
 C120 C -0.07904 0.18902 0.53136
 C121 C -0.01199 0.28442 0.46518
 C122 C 0.05057 0.19406 0.53338
 C123 C -0.00789 0.29856 0.59305
 C124 C 0.99362 0.72640 0.49459
 H125 H 0.98098 0.72396 0.47994
 C126 C 0.99209 0.71237 0.51457
 H127 H 0.97828 0.69899 0.51508
 C128 C 1.02742 0.74640 0.51119
 H129 H 1.04141 0.75938 0.50962
 C130 C 1.02658 0.73269 0.53149
 H131 H 1.03969 0.73566 0.54564
 N132 N 1.01087 0.74324 0.49341
 C133 C 0.97950 0.78789 0.44261
 H134 H 0.99197 0.78809 0.42800
 C135 C 0.95963 0.80009 0.44075
 H136 H 0.95677 0.80933 0.42440
 C137 C 0.96829 0.77562 0.48169
 H138 H 0.97203 0.76662 0.49793
 C139 C 0.94833 0.78770 0.48068
 H140 H 0.93698 0.78779 0.49627
 Zn141 Zn 1.01137 0.76102 0.46530
 N142 N 0.98336 0.77585 0.46278
 C143 C 0.99747 0.73491 0.42247
 N144 N 1.01500 0.74050 0.43870
 C145 C 1.03493 0.72945 0.43829
 C146 C 1.03776 0.71183 0.42124
 C147 C 0.99945 0.71714 0.40527
 C148 C 1.03571 0.79873 0.48682
 C149 C 1.05353 0.81571 0.49043
 C150 C 1.07121 0.80269 0.45328
 C151 C 1.05311 0.78573 0.45052
 N152 N 1.03604 0.78387 0.46742
 H153 H 0.98147 0.74341 0.42361
 H154 H 1.04839 0.73392 0.45173
 H155 H 1.05378 0.70325 0.42136
 H156 H 0.98487 0.71223 0.39329
 H157 H 1.02176 0.79703 0.49982
 H158 H 1.05325 0.82676 0.50654
 H159 H 1.08452 0.80404 0.43953
 H160 H 1.05269 0.77419 0.43482
 C161 C 0.94377 0.80023 0.46004
 C162 C 1.00866 0.71548 0.53341
 C163 C 1.07168 0.81789 0.47357
 C164 C 1.01964 0.70502 0.40482
 C165 C 0.46380 -0.00776 0.27746
 H166 H 0.47628 -0.02069 0.27776
 C167 C 0.44591 -0.00795 0.29447
 H168 H 0.44481 -0.02107 0.30786
 C169 C 0.45108 0.02584 0.26056
 H170 H 0.45342 0.03930 0.24773
 C171 C 0.43292 0.02627 0.27716
 H172 H 0.42117 0.03984 0.27646
 N173 N 0.46612 0.00903 0.26103
 C174 C 0.50866 -0.01590 0.20205
 H175 H 0.52146 -0.00162 0.20144
 C176 C 0.51002 -0.03445 0.18585
 H177 H 0.52365 -0.03348 0.17247
 C178 C 0.47480 -0.03300 0.21965
 H179 H 0.46114 -0.03236 0.23294
 C180 C 0.47540 -0.05194 0.20368
 H181 H 0.46234 -0.06578 0.20578
 Zn182 Zn 0.49250 0.00991 0.24069
 N183 N 0.49158 -0.01569 0.21887
 C184 C 0.53339 -0.00746 0.25935
 N185 N 0.51892 0.00981 0.26141
 C186 C 0.52179 0.02602 0.27959
 C187 C 0.53966 0.02509 0.29679
 C188 C 0.55145 -0.00902 0.27609
 C189 C 0.47635 0.03720 0.20471
 C190 C 0.47572 0.05593 0.18986
 C191 C 0.51082 0.07220 0.20960
 C192 C 0.51075 0.05312 0.22418
 N193 N 0.49349 0.03625 0.22168
 H194 H 0.53062 -0.02047 0.24516
 H195 H 0.50976 0.03931 0.28112
 H196 H 0.54125 0.03775 0.31155
 H197 H 0.56269 -0.02296 0.27414
 H198 H 0.46309 0.02334 0.20282
 H199 H 0.46195 0.05626 0.17640
 H200 H 0.52446 0.08565 0.21208
 H201 H 0.52445 0.05185 0.23746
 C202 C 0.49349 -0.05326 0.18659
 C203 C 0.43034 0.00942 0.29466
 C204 C 0.49302 0.07383 0.19228
 C205 C 0.55456 0.00717 0.29537
 C206 C 0.53771 -0.02794 0.72181
 H207 H 0.52364 -0.04106 0.72052
 C208 C 0.55648 -0.02881 0.70609
 H209 H 0.55665 -0.04265 0.69263
 C210 C 0.55383 0.00656 0.74027
 H211 H 0.55250 0.02048 0.75337
 C212 C 0.57296 0.00641 0.72477
 H213 H 0.58646 0.02009 0.72638
 N214 N 0.53676 -0.01055 0.73856
 C215 C 0.48902 -0.03907 0.79271
 H216 H 0.47567 -0.02701 0.79261
 C217 C 0.48751 -0.05707 0.80875
 H218 H 0.47271 -0.05897 0.82067
 C219 C 0.52468 -0.05100 0.77748
 H220 H 0.53947 -0.04827 0.76576
 C221 C 0.52387 -0.06921 0.79319
 H222 H 0.53811 -0.08029 0.79329
 Zn223 Zn 0.50946 -0.01072 0.75742
 N224 N 0.50734 -0.03644 0.77740
 C225 C 0.46591 -0.02690 0.73506
 N226 N 0.48436 -0.01122 0.73501
 C227 C 0.48592 0.00539 0.71836
 C228 C 0.46812 0.00731 0.70147
 C229 C 0.44761 -0.02560 0.71840
 C230 C 0.52545 0.01942 0.79594
 C231 C 0.52442 0.03786 0.81252
 C232 C 0.48967 0.04824 0.79205
 C233 C 0.49137 0.02968 0.77592
 N234 N 0.50906 0.01569 0.77808
 H235 H 0.46520 -0.04022 0.74816
 H236 H 0.50097 0.01741 0.71850
 H237 H 0.46973 0.02075 0.68845
 H238 H 0.43274 -0.03780 0.71908
 H239 H 0.53909 0.00779 0.79756
 H240 H 0.53733 0.04030 0.82692
 H241 H 0.47547 0.05916 0.78990
 H242 H 0.47818 0.02624 0.76202
 C243 C 0.50515 -0.07241 0.80918
 C244 C 0.57443 -0.01147 0.70739
 C245 C 0.50616 0.05241 0.81083
 C246 C 0.44845 -0.00808 0.70156
 C247 C 0.23688 0.04672 0.51119
 C248 C 0.25544 0.04556 0.53131
 C249 C 0.26857 0.02715 0.52896
 C250 C 0.26197 0.01149 0.50665
 C251 C 0.25059 0.04572 0.48747
 C252 C 0.26390 0.02751 0.48502
 C253 C 0.22302 0.02368 0.51198
 C254 C 0.23589 0.00529 0.50956
 H255 H 0.25779 0.05755 0.54651
 H256 H 0.27258 -0.00349 0.50477
 H257 H 0.25019 0.05884 0.47413
 H258 H 0.20435 0.02212 0.51429
 C259 C 0.76506 -0.04475 0.48736
 C260 C 0.75184 -0.04457 0.51158
 C261 C 0.73807 -0.02673 0.51474
 C262 C 0.73925 -0.01021 0.49349
 C263 C 0.74618 -0.04340 0.46782
 C264 C 0.73266 -0.02543 0.47089
 C265 C 0.77854 -0.02142 0.48755
 C266 C 0.76522 -0.00337 0.49047
 H267 H 0.75370 -0.05679 0.52555
 H268 H 0.72831 0.00447 0.49582
 H269 H 0.74400 -0.05560 0.45267
 H270 H 0.79726 -0.01942 0.48592
 C271 C 0.45783 0.27414 0.99313
 C272 C 0.45778 0.25469 0.97364
 C273 C 0.47611 0.24130 0.97552
 C274 C 0.49285 0.24849 0.99672
 C275 C 0.45918 0.26205 1.01736
 C276 C 0.47725 0.24841 1.01930
 C277 C 0.48168 0.28686 0.99045
 C278 C 0.49993 0.27364 0.99248
 H279 H 0.44524 0.25208 0.95900
 H280 H 0.50778 0.23767 0.99813
 H281 H 0.44623 0.26363 1.03136
 H282 H 0.48388 0.30493 0.98709
 C283 C 0.54315 0.72601 0.00610
 C284 C 0.54266 0.74211 -0.01550
 C285 C 0.52335 0.75429 -0.01635
 C286 C 0.50623 0.74932 0.00445
 C287 C 0.54013 0.74168 0.02849
 C288 C 0.52104 0.75411 0.02767
 C289 C 0.52027 0.71142 0.00367
 C290 C 0.50101 0.72339 0.00277
 H291 H 0.55667 0.74494 -0.02816
 H292 H 0.49038 0.75896 0.00355
 H293 H 0.55286 0.74357 0.04312
 H294 H 0.51952 0.69297 0.00220
 C295 C 1.00397 0.44860 0.27890
 C296 C 0.98221 0.44952 0.26293
 C297 C 0.98251 0.46758 0.24801
 C298 C 1.00482 0.48341 0.25053
 C299 C 1.02402 0.44931 0.26051
 C300 C 1.02452 0.46755 0.24575
 C301 C 1.00653 0.47178 0.29238
 C302 C 1.00716 0.49002 0.27775
 H303 H 0.96801 0.43652 0.26311
 H304 H 1.00522 0.49812 0.23839
 H305 H 1.03659 0.43661 0.25881
 H306 H 1.00809 0.47346 0.31202
 C307 C -0.00715 0.55381 0.72290
 C308 C -0.02915 0.55104 0.73839
 C309 C -0.03002 0.53255 0.75278
 C310 C -0.00868 0.51828 0.75026
 C311 C 0.01270 0.55409 0.74173
 C312 C 0.01207 0.53548 0.75591
 C313 C -0.00615 0.53107 0.70884
 C314 C -0.00678 0.51246 0.72293
 H315 H -0.04217 0.56339 0.73924
 H316 H -0.00921 0.50329 0.76201
 H317 H 0.02605 0.56788 0.74363
 H318 H -0.00512 0.52997 0.68917
 C319 C 0.10971 0.15320 0.52713
 C320 C 0.11241 0.17560 0.53686
 C321 C 0.09321 0.18882 0.53917
 C322 C 0.07089 0.17981 0.53204
 C323 C 0.06821 0.15717 0.52295
 C324 C 0.08738 0.14410 0.52036
 C325 C 0.12997 0.13934 0.52370
 N326 N 0.12845 0.12071 0.50843
 N327 N 0.14646 0.10797 0.50539
 C328 C 0.16677 0.11325 0.51754
 N329 N 0.16836 0.13193 0.53281
 N330 N 0.15035 0.14479 0.53574
 C331 C 0.18626 0.09827 0.51486
 C332 C 0.20446 0.09917 0.53204
 C333 C 0.22149 0.08331 0.53078
 C334 C 0.22073 0.06623 0.51214
 C335 C 0.20320 0.06636 0.49421
 C336 C 0.18613 0.08201 0.49562
 H337 H 0.12942 0.18311 0.54217
 H338 H 0.09598 0.20627 0.54596
 H339 H 0.05123 0.14946 0.51784
 H340 H 0.08467 0.12678 0.51313
 H341 H 0.20512 0.11164 0.54700
 H342 H 0.23469 0.08442 0.54481
 H343 H 0.20222 0.05366 0.47946
 H344 H 0.17255 0.08104 0.48186
 C345 C 0.66064 0.60878 0.01531
 C346 C 0.65328 0.58759 0.02473
 C347 C 0.66768 0.56942 0.02367
 C348 C 0.68992 0.57206 0.01343
 C349 C 0.69744 0.59343 0.00446
 C350 C 0.68292 0.61152 0.00526
 C351 C 0.64493 0.62770 0.01546
 N352 N 0.64915 0.64588 0.00111
 N353 N 0.63452 0.66246 0.00058
 C354 C 0.61513 0.66160 0.01449
 N355 N 0.61105 0.64353 0.02899
 N356 N 0.62560 0.62691 0.02943
 C357 C 0.59824 0.67943 0.01316
 C358 C 0.58066 0.68070 0.03055
 C359 C 0.56370 0.69635 0.02841
 C360 C 0.56361 0.71107 0.00869
 C361 C 0.58169 0.71022 -0.00835
 C362 C 0.59884 0.69466 -0.00603
 H363 H 0.63614 0.58486 0.03244
 H364 H 0.66112 0.55315 0.03038
 H365 H 0.71462 0.59624 -0.00311
 H366 H 0.68920 0.62769 -0.00195
 H367 H 0.57977 0.66935 0.04570
 H368 H 0.55011 0.69655 0.04188
 H369 H 0.58262 0.72096 -0.02387
 H370 H 0.61217 0.69411 -0.01976
 C371 C 0.88482 -0.15829 0.46044
 C372 C 0.90563 -0.15082 0.44916
 C373 C 0.92458 -0.16442 0.44865
 C374 C 0.92313 -0.18592 0.45921
 C375 C 0.90207 -0.19367 0.46985
 C376 C 0.88318 -0.17998 0.47056
 C377 C 0.86533 -0.14319 0.46247
 N378 N 0.84739 -0.14801 0.47776
 N379 N 0.83048 -0.13382 0.48052
 C380 C 0.83073 -0.11426 0.46801
 N381 N 0.84853 -0.10958 0.45252
 N382 N 0.86548 -0.12371 0.44984
 C383 C 0.81266 -0.09780 0.47202
 C384 C 0.81133 -0.07914 0.45690
 C385 C 0.79544 -0.06273 0.46168
 C386 C 0.78074 -0.06418 0.48199
 C387 C 0.78132 -0.08353 0.49641
 C388 C 0.79712 -0.10008 0.49149
 H389 H 0.90753 -0.13417 0.44129
 H390 H 0.94060 -0.15775 0.44063
 H391 H 0.90018 -0.21031 0.47774
 H392 H 0.86734 -0.18635 0.47918
 H393 H 0.82275 -0.07703 0.44149
 H394 H 0.79501 -0.04845 0.44975
 H395 H 0.76980 -0.08621 0.51155
 H396 H 0.79746 -0.11444 0.50330
 C397 C 0.34126 0.39318 0.98890
 C398 C 0.34858 0.41540 0.99707
 C399 C 0.33328 0.43277 0.99709
 C400 C 0.31015 0.42839 0.98917
 C401 C 0.30288 0.40625 0.98057
 C402 C 0.31830 0.38884 0.98037
 C403 C 0.35752 0.37475 0.98972
 N404 N 0.35264 0.35433 0.97788
 N405 N 0.36746 0.33791 0.97874
 C406 C 0.38768 0.34119 0.99160
 N407 N 0.39247 0.36157 1.00348
 N408 N 0.37774 0.37799 1.00253
 C409 C 0.40448 0.32322 0.99248
 C410 C 0.42308 0.32538 1.00917
 C411 C 0.43959 0.30914 1.00944
 C412 C 0.43830 0.29040 0.99280
 C413 C 0.41919 0.28786 0.97656
 C414 C 0.40249 0.30409 0.97645
 H415 H 0.36622 0.41943 1.00346
 H416 H 0.33966 0.44973 1.00326
 H417 H 0.28513 0.40224 0.97454
 H418 H 0.31210 0.37190 0.97399
 H419 H 0.42501 0.33972 1.02203
 H420 H 0.45379 0.31145 1.02248
 H421 H 0.41686 0.27359 0.96380
 H422 H 0.38824 0.30184 0.96348
 C423 C 0.86589 0.13828 0.51292
 C424 C 0.88840 0.13656 0.50376
 C425 C 0.90611 0.15304 0.50992
 C426 C 0.90175 0.17182 0.52515
 C427 C 0.87918 0.17394 0.53398
 C428 C 0.86142 0.15716 0.52811
 C429 C 0.84765 0.11997 0.50697
 N430 N 0.82812 0.11720 0.52054
 N431 N 0.81273 0.09957 0.51606
 C432 C 0.81619 0.08412 0.49774
 N433 N 0.83548 0.08723 0.48394
 N434 N 0.85086 0.10473 0.48846
 C435 C 0.80055 0.06321 0.49398
 C436 C 0.80501 0.04746 0.47510
 C437 C 0.79269 0.02628 0.47338
 C438 C 0.77549 0.02033 0.49037
 C439 C 0.76986 0.03650 0.50829
 C440 C 0.78235 0.05778 0.51015
 H441 H 0.89251 0.12223 0.49209
 H442 H 0.92329 0.15119 0.50259
 H443 H 0.87543 0.18832 0.54574
 H444 H 0.84424 0.15897 0.53540
 H445 H 0.81866 0.05111 0.46210
 H446 H 0.79707 0.01422 0.45912
 H447 H 0.75675 0.03227 0.52164
 H448 H 0.77839 0.06955 0.52484
 C449 C 0.35698 0.62128 -0.00480
 C450 C 0.33575 0.62594 0.00605
 C451 C 0.31739 0.60908 0.00643
 C452 C 0.31998 0.58721 -0.00391
 C453 C 0.34138 0.58256 -0.01433
 C454 C 0.35954 0.59936 -0.01490
 C455 C 0.37660 0.63884 -0.00565
 N456 N 0.39512 0.63520 -0.01997
 N457 N 0.41329 0.65031 -0.02031
 C458 C 0.41384 0.66978 -0.00634
 N459 N 0.39521 0.67361 0.00787
 N460 N 0.37692 0.65847 0.00816
 C461 C 0.43504 0.68555 -0.00574
 C462 C 0.43744 0.70454 0.01057
 C463 C 0.45862 0.71769 0.01263
 C464 C 0.47769 0.71188 -0.00140
 C465 C 0.47489 0.69371 -0.01853
 C466 C 0.45385 0.68075 -0.02072
 H467 H 0.33323 0.64267 0.01398
 H468 H 0.30108 0.61328 0.01445
 H469 H 0.34424 0.56576 -0.02187
 H470 H 0.37574 0.59503 -0.02309
 H471 H 0.42325 0.70878 0.02227
 H472 H 0.46042 0.73167 0.02594
 H473 H 0.48922 0.68918 -0.02993
 H474 H 0.45262 0.66651 -0.03374
 C475 C 0.12736 -0.13036 0.48678
 C476 C 0.10435 -0.12623 0.49269
 C477 C 0.08634 -0.14279 0.48786
 C478 C 0.09087 -0.16410 0.47732
 C479 C 0.11388 -0.16813 0.47105
 C480 C 0.13193 -0.15137 0.47560
 C481 C 0.14627 -0.11270 0.49251
 N482 N 0.16702 -0.11259 0.48094
 N483 N 0.18352 -0.09600 0.48564
 C484 C 0.17998 -0.07900 0.50227
 N485 N 0.15935 -0.07937 0.51401
 N486 N 0.14287 -0.09583 0.50923
 C487 C 0.19724 -0.05942 0.50639
 C488 C 0.19403 -0.04360 0.52555
 C489 C 0.20772 -0.02319 0.52741
 C490 C 0.22498 -0.01812 0.51021
 C491 C 0.22953 -0.03457 0.49216
 C492 C 0.21572 -0.05511 0.49022
 H493 H 0.10018 -0.11007 0.50095
 H494 H 0.06880 -0.13881 0.49234
 H495 H 0.11806 -0.18443 0.46317
 H496 H 0.14951 -0.15505 0.47088
 H497 H 0.18027 -0.04651 0.53861
 H498 H 0.20418 -0.01091 0.54177
 H499 H 0.24270 -0.03098 0.47866
 H500 H 0.21871 -0.06701 0.47533
 C501 C 0.64761 0.36909 0.99389
 C502 C 0.65667 0.37907 0.97278
 C503 C 0.67376 0.39706 0.97444
 C504 C 0.68210 0.40564 0.99726
 C505 C 0.67342 0.39528 1.01835
 C506 C 0.65645 0.37716 1.01668
 C507 C 0.62817 0.35128 0.99216
 N508 N 0.62120 0.33947 1.01197
 N509 N 0.60268 0.32465 1.01075
 C510 C 0.59031 0.32108 0.98969
 N511 N 0.59749 0.33265 0.96981
 N512 N 0.61605 0.34737 0.97100
 C513 C 0.56834 0.30650 0.98892
 C514 C 0.55206 0.30878 0.97016
 C515 C 0.53011 0.29736 0.97090
 C516 C 0.52410 0.28311 0.99017
 C517 C 0.54071 0.27969 1.00819
 C518 C 0.56262 0.29146 1.00771
 H519 H 0.65041 0.37314 0.95492
 H520 H 0.68040 0.40430 0.95781
 H521 H 0.67920 0.40161 1.03623
 H522 H 0.64976 0.36995 1.03331
 H523 H 0.55587 0.32018 0.95542
 H524 H 0.51756 0.30008 0.95671
 H525 H 0.53634 0.26887 1.02327
 H526 H 0.57484 0.28924 1.02235
 C527 C 0.49045 0.13118 1.14550
 C528 C 0.47017 0.12162 1.15624
 C529 C 0.47111 0.10328 1.17164
 C530 C 0.49236 0.09400 1.17673
 C531 C 0.51274 0.10381 1.16644
 C532 C 0.51180 0.12218 1.15096
 C533 C 0.48910 0.14997 1.12824
 N534 N 0.50843 0.15905 1.11720
 N535 N 0.50694 0.17539 1.10110
 C536 C 0.48607 0.18333 1.09536
 N537 N 0.46681 0.17434 1.10654
 N538 N 0.46829 0.15804 1.12261
 C539 C 0.48410 0.20087 1.07676
 C540 C 0.46217 0.20761 1.06981
 C541 C 0.46002 0.22330 1.05153
 C542 C 0.47977 0.23280 1.03976
 C543 C 0.50175 0.22636 1.04695
 C544 C 0.50391 0.21058 1.06525
 H545 H 0.45344 0.12816 1.15260
 H546 H 0.45516 0.09635 1.17962
 H547 H 0.52935 0.09692 1.16987
 H548 H 0.52776 0.12911 1.14301
 H549 H 0.44651 0.20045 1.07816
 H550 H 0.44275 0.22739 1.04617
 H551 H 0.51735 0.23348 1.03850
 H552 H 0.52109 0.20586 1.07020
 C553 C 0.00462 0.67142 0.59462
 C554 C 0.02620 0.67788 0.58430
 C555 C 0.02755 0.69235 0.56461
 C556 C 0.00735 0.70066 0.55477
 C557 C -0.01418 0.69444 0.56526
 C558 C -0.01554 0.68001 0.58497
 C559 C 0.00306 0.65543 0.61494
 N560 N -0.01780 0.64901 0.62477
 N561 N -0.01930 0.63413 0.64254
 C562 C -0.00001 0.62501 0.65125
 N563 N 0.02087 0.63154 0.64153
 N564 N 0.02238 0.64643 0.62376
 C565 C -0.00180 0.60781 0.67039
 C566 C 0.01804 0.59763 0.67857
 C567 C 0.01619 0.58067 0.69578
 C568 C -0.00546 0.57370 0.70574
 C569 C -0.02535 0.58373 0.69721
 C570 C -0.02350 0.60070 0.67998
 H571 H 0.04208 0.67157 0.59124
 H572 H 0.04437 0.69665 0.55675
 H573 H -0.03001 0.70084 0.55830
 H574 H -0.03244 0.67547 0.59250
 H575 H 0.03500 0.60243 0.67133
 H576 H 0.03175 0.57264 0.70095
 H577 H -0.04255 0.57812 0.70308
 H578 H -0.03921 0.60789 0.67380
 C579 C 0.50557 0.87361 -0.13946
 C580 C 0.49769 0.89497 -0.13254
 C581 C 0.49718 0.91234 -0.14929
 C582 C 0.50451 0.90877 -0.17335
 C583 C 0.51196 0.88729 -0.18039
 C584 C 0.51249 0.86993 -0.16366
 C585 C 0.50709 0.85548 -0.12145
 N586 N 0.51590 0.83531 -0.12781
 N587 N 0.51786 0.81925 -0.11151
 C588 C 0.51111 0.82264 -0.08813
 N589 N 0.50219 0.84277 -0.08179
 N590 N 0.50024 0.85884 -0.09809
 C591 C 0.51380 0.80493 -0.06987
 C592 C 0.50636 0.80825 -0.04578
 C593 C 0.50934 0.79174 -0.02848
 C594 C 0.51986 0.77158 -0.03484
 C595 C 0.52719 0.76817 -0.05892
 C596 C 0.52415 0.78463 -0.07624
 H597 H 0.49225 0.89843 -0.11406
 H598 H 0.49161 0.92877 -0.14320
 H599 H 0.51739 0.88388 -0.19889
 H600 H 0.51851 0.85367 -0.16969
 H601 H 0.49837 0.82368 -0.04019
 H602 H 0.50384 0.79502 -0.00998
 H603 H 0.53509 0.75266 -0.06444
 H604 H 0.53005 0.78145 -0.09461
 C605 C 0.99117 0.32949 0.40576
 C606 C 0.97061 0.32586 0.41896
 C607 C 0.96945 0.31091 0.43822
 C608 C 0.98889 0.29905 0.44501
 C609 C 1.00938 0.30258 0.43128
 C610 C 1.01046 0.31753 0.41202
 C611 C 0.99267 0.34603 0.38595
 N612 N 1.01225 0.34892 0.37253
 N613 N 1.01384 0.36424 0.35518
 C614 C 0.99591 0.37734 0.35055
 N615 N 0.97629 0.37437 0.36389
 N616 N 0.97469 0.35904 0.38121
 C617 C 0.99791 0.39486 0.33175
 C618 C 0.98014 0.40968 0.32850
 C619 C 0.98233 0.42665 0.31134
 C620 C 1.00217 0.42915 0.29664
 C621 C 1.02003 0.41433 0.30007
 C622 C 1.01786 0.39737 0.31732
 H623 H 0.95529 0.33458 0.41443
 H624 H 0.95291 0.30830 0.44715
 H625 H 1.02520 0.29480 0.43590
 H626 H 1.02666 0.32003 0.40234
 H627 H 0.96461 0.40841 0.33944
 H628 H 0.96849 0.43808 0.30967
 H629 H 1.03602 0.41584 0.29007
 H630 H 1.03199 0.38638 0.31951
 C631 C 0.49955 0.88794 0.14001
 C632 C 0.47785 0.89309 0.14929
 C633 C 0.47576 0.91232 0.16461
 C634 C 0.49533 0.92716 0.17097
 C635 C 0.51704 0.92172 0.16145
 C636 C 0.51907 0.90249 0.14633
 C637 C 0.50208 0.86757 0.12387
 N638 N 0.52347 0.86202 0.11663
 N639 N 0.52602 0.84388 0.10207
 C640 C 0.50729 0.83045 0.09404
 N641 N 0.48583 0.83594 0.10127
 N642 N 0.48328 0.85412 0.11591
 C643 C 0.51045 0.81043 0.07758
 C644 C 0.49132 0.79722 0.06747
 C645 C 0.49468 0.77873 0.05146
 C646 C 0.51722 0.77300 0.04541
 C647 C 0.53628 0.78616 0.05564
 C648 C 0.53295 0.80458 0.07151
 H649 H 0.46240 0.88230 0.14468
 H650 H 0.45851 0.91581 0.17058
 H651 H 0.53292 0.93164 0.16637
 H652 H 0.53613 0.89899 0.13970
 H653 H 0.47375 0.80125 0.07175
 H654 H 0.47965 0.76888 0.04395
 H655 H 0.55389 0.78264 0.05093
 H656 H 0.54812 0.81437 0.07883
 C657 C -0.00546 0.36077 0.63704
 C658 C -0.01418 0.34013 0.64680
 C659 C -0.01503 0.31983 0.63264
 C660 C -0.00724 0.31984 0.60845
 C661 C 0.00113 0.34058 0.59871
 C662 C 0.00212 0.36070 0.61282
 C663 C -0.00425 0.38244 0.65164
 N664 N 0.00739 0.40127 0.64303
 N665 N 0.00814 0.42103 0.65552
 C666 C -0.00275 0.42289 0.67722
 N667 N -0.01432 0.40402 0.68599
 N668 N -0.01501 0.38417 0.67348
 C669 C -0.00263 0.44534 0.69029
 C670 C -0.01601 0.44849 0.71126
 C671 C -0.01696 0.47019 0.72231
 C672 C -0.00466 0.48914 0.71253
 C673 C 0.00938 0.48579 0.69215
 C674 C 0.01037 0.46421 0.68116
 H675 H -0.02015 0.33961 0.66541
 H676 H -0.02146 0.30412 0.64072
 H677 H 0.00666 0.34137 0.57996
 H678 H 0.00866 0.37630 0.60456
 H679 H -0.02618 0.43430 0.71881
 H680 H -0.02791 0.47221 0.73798
 H681 H 0.01961 0.49991 0.68455
 H682 H 0.02113 0.46243 0.66525
 C683 C 0.49856 0.10829 0.86229
 C684 C 0.47916 0.09432 0.85414
 C685 C 0.48173 0.07614 0.83767
 C686 C 0.50377 0.07144 0.82888
 C687 C 0.52326 0.08516 0.83726
 C688 C 0.52068 0.10342 0.85378
 C689 C 0.49554 0.12792 0.87935
 N690 N 0.51408 0.14153 0.88761
 N691 N 0.51119 0.15928 0.90271
 C692 C 0.48962 0.16418 0.91017
 N693 N 0.47112 0.15055 0.90192
 N694 N 0.47401 0.13282 0.88685
 C695 C 0.48625 0.18399 0.92685
 C696 C 0.46377 0.18923 0.93386
 C697 C 0.46049 0.20787 0.94953
 C698 C 0.47959 0.22170 0.95863
 C699 C 0.50205 0.21653 0.95167
 C700 C 0.50536 0.19790 0.93592
 H701 H 0.46188 0.09742 0.86041
 H702 H 0.46642 0.06562 0.83194
 H703 H 0.54044 0.08206 0.83069
 H704 H 0.53601 0.11383 0.85968
 H705 H 0.44864 0.17889 0.92729
 H706 H 0.44298 0.21122 0.95484
 H707 H 0.51710 0.22708 0.95808
 H708 H 0.52290 0.19443 0.93086
 C709 C 1.02216 0.64381 0.35975
 C710 C 1.01168 0.66285 0.35092
 C711 C 1.01122 0.68292 0.36527
 C712 C 1.02113 0.68433 0.38878
 C713 C 1.03177 0.66531 0.39742
 C714 C 1.03239 0.64540 0.38308
 C715 C 1.02189 0.62206 0.34533
 N716 N 1.03384 0.60461 0.35331
 N717 N 1.03281 0.58461 0.34124
 C718 C 1.01977 0.58112 0.32065
 N719 N 1.00797 0.59865 0.31246
 N720 N 1.00903 0.61872 0.32454
 C721 C 1.01768 0.55829 0.30828
 C722 C 1.00319 0.55379 0.28776
 C723 C 1.00015 0.53171 0.27739
 C724 C 1.01139 0.51373 0.28747
 C725 C 1.02647 0.51841 0.30743
 C726 C 1.02958 0.54038 0.31770
 H727 H 1.00372 0.66222 0.33299
 H728 H 1.00309 0.69733 0.35795
 H729 H 1.03911 0.66553 0.41561
 H730 H 1.04047 0.63105 0.39058
 H731 H 0.99382 0.56721 0.27999
 H732 H 0.98845 0.52862 0.26202
 H733 H 1.03587 0.50504 0.31523
 H734 H 1.04108 0.54319 0.33331
 C735 C 1.14623 0.49260 0.11914
 C736 C 1.15374 0.51453 0.11193
 C737 C 1.17043 0.51756 0.09378
 C738 C 1.18027 0.49868 0.08226
 C739 C 1.17270 0.47671 0.08992
 C740 C 1.15599 0.47377 0.10797
 C741 C 1.12816 0.48920 0.13798
 N742 N 1.12027 0.46785 0.14394
 N743 N 1.10394 0.46465 0.16067
 C744 C 1.09475 0.48265 0.17221
 N745 N 1.10264 0.50404 0.16629
 N746 N 1.11899 0.50725 0.14951
 C747 C 1.07656 0.47892 0.19086
 C748 C 1.06778 0.49741 0.20383
 C749 C 1.05080 0.49371 0.22157
 C750 C 1.04227 0.47148 0.22672
 C751 C 1.05090 0.45303 0.21363
 C752 C 1.06785 0.45670 0.19594
 H753 H 1.14672 0.52946 0.12032
 H754 H 1.17601 0.53487 0.08951
 H755 H 1.17867 0.46144 0.08131
 H756 H 1.15053 0.45658 0.11293
 H757 H 1.07413 0.51474 0.20043
 H758 H 1.04472 0.50826 0.23159
 H759 H 1.04437 0.43571 0.21685
 H760 H 1.07408 0.44205 0.18622
 C761 C 0.62918 -0.01374 0.65460
 C762 C 0.62107 -0.03352 0.66646
 C763 C 0.60377 -0.03262 0.68401
 C764 C 0.59413 -0.01194 0.69018
 C765 C 0.60270 0.00799 0.67892
 C766 C 0.62003 0.00710 0.66130
 C767 C 0.64643 -0.01513 0.63481
 N768 N 0.65440 0.00377 0.62305
 N769 N 0.66924 0.00225 0.60469
 C770 C 0.67670 -0.01825 0.59727
 N771 N 0.66882 -0.03710 0.60913
 N772 N 0.65403 -0.03558 0.62748
 C773 C 0.69269 -0.02020 0.57640
 C774 C 0.69868 -0.04174 0.56775
 C775 C 0.71337 -0.04379 0.54785
 C776 C 0.72264 -0.02434 0.53613
 C777 C 0.71661 -0.00280 0.54475
 C778 C 0.70183 -0.00074 0.56466
 H779 H 0.62783 -0.04984 0.66194
 H780 H 0.59780 -0.04820 0.69267
 H781 H 0.59548 0.02416 0.68314
 H782 H 0.62589 0.02267 0.65257
 H783 H 0.69183 -0.05714 0.57616
 H784 H 0.71705 -0.06073 0.54141
 H785 H 0.72340 0.01256 0.53634
 H786 H 0.69758 0.01612 0.57084
 C787 C -0.15265 0.50609 0.87821
 C788 C -0.15875 0.48421 0.88670
 C789 C -0.17464 0.48125 0.90563
 C790 C -0.18472 0.50012 0.91648
 C791 C -0.17899 0.52190 0.90763
 C792 C -0.16316 0.52485 0.88875
 C793 C -0.13504 0.50955 0.85893
 N794 N -0.12846 0.53088 0.85178
 N795 N -0.11224 0.53421 0.83495
 C796 C -0.10186 0.51635 0.82450
 N797 N -0.10849 0.49497 0.83155
 N798 N -0.12473 0.49164 0.84844
 C799 C -0.08353 0.52029 0.80605
 C800 C -0.07333 0.50195 0.79427
 C801 C -0.05596 0.50591 0.77697
 C802 C -0.04849 0.52824 0.77104
 C803 C -0.05859 0.54655 0.78299
 C804 C -0.07591 0.54263 0.80020
 H805 H -0.15099 0.46938 0.87899
 H806 H -0.17857 0.46428 0.91220
 H807 H -0.18677 0.53671 0.91534
 H808 H -0.15903 0.54194 0.88258
 H809 H -0.07878 0.48453 0.79834
 H810 H -0.04867 0.49144 0.76804
 H811 H -0.05285 0.56401 0.77941
 H812 H -0.08320 0.55719 0.80905
 C813 C 0.37860 0.01333 0.35070
 C814 C 0.38345 -0.00787 0.34006
 C815 C 0.40010 -0.00920 0.32176
 C816 C 0.41225 0.01064 0.31369
 C817 C 0.40735 0.03180 0.32432
 C818 C 0.39073 0.03313 0.34253
 C819 C 0.36120 0.01496 0.37030
 N820 N 0.35615 0.03562 0.37977
 N821 N 0.34073 0.03728 0.39750
 C822 C 0.32966 0.01835 0.40661
 N823 N 0.33466 -0.00236 0.39715
 N824 N 0.35010 -0.00402 0.37936
 C825 C 0.31263 0.02043 0.42652
 C826 C 0.30159 0.00102 0.43682
 C827 C 0.28572 0.00326 0.45577
 C828 C 0.28044 0.02493 0.46471
 C829 C 0.29156 0.04430 0.45442
 C830 C 0.30740 0.04208 0.43559
 H831 H 0.37440 -0.02346 0.34586
 H832 H 0.40332 -0.02574 0.31378
 H833 H 0.41669 0.04737 0.31889
 H834 H 0.38757 0.04975 0.35036
 H835 H 0.30522 -0.01592 0.43030
 H836 H 0.27745 -0.01199 0.46320
 H837 H 0.28840 0.06127 0.46123
 H838 H 0.31563 0.05742 0.42825
 C839 C 0.13533 0.51661 0.88091
 C840 C 0.14389 0.53554 0.89533
 C841 C 0.16168 0.53351 0.91229
 C842 C 0.17144 0.51251 0.91526
 C843 C 0.16285 0.49352 0.90096
 C844 C 0.14500 0.49554 0.88395
 C845 C 0.11655 0.51899 0.86279
 N846 N 0.10764 0.50076 0.84913
 N847 N 0.09088 0.50309 0.83274
 C848 C 0.08234 0.52374 0.82933
 N849 N 0.09124 0.54192 0.84303
 N850 N 0.10795 0.53959 0.85940
 C851 C 0.06396 0.52654 0.81087
 C852 C 0.05620 0.54825 0.80669
 C853 C 0.03928 0.55111 0.78898
 C854 C 0.02965 0.53234 0.77505
 C855 C 0.03713 0.51060 0.77937
 C856 C 0.05415 0.50772 0.79706
 H857 H 0.13680 0.55200 0.89360
 H858 H 0.16759 0.54836 0.92334
 H859 H 0.17015 0.47716 0.90268
 H860 H 0.13887 0.48062 0.87312
 H861 H 0.06328 0.56313 0.81703
 H862 H 0.03359 0.56804 0.78635
 H863 H 0.03021 0.49586 0.76871
 H864 H 0.05972 0.49077 0.79979
 C865 C 0.60678 -0.00073 0.35054
 C866 C 0.59333 -0.01970 0.34076
 C867 C 0.57644 -0.01704 0.32296
 C868 C 0.57255 0.00465 0.31441
 C869 C 0.58581 0.02369 0.32431
 C870 C 0.60278 0.02103 0.34216
 C871 C 0.62493 -0.00386 0.36919
 N872 N 0.63805 0.01421 0.37909
 N873 N 0.65453 0.01115 0.39559
 C874 C 0.65857 -0.01010 0.40287
 N875 N 0.64540 -0.02812 0.39301
 N876 N 0.62895 -0.02506 0.37656
 C877 C 0.67717 -0.01378 0.42084
 C878 C 0.68183 -0.03603 0.42709
 C879 C 0.69969 -0.03974 0.44344
 C880 C 0.71333 -0.02131 0.45404
 C881 C 0.70851 0.00096 0.44817
 C882 C 0.69065 0.00470 0.43168
 H883 H 0.59579 -0.03670 0.34683
 H884 H 0.56621 -0.03201 0.31609
 H885 H 0.58332 0.04060 0.31798
 H886 H 0.61283 0.03601 0.34928
 H887 H 0.67177 -0.05068 0.41922
 H888 H 0.70271 -0.05709 0.44793
 H889 H 0.71889 0.01548 0.45587
 H890 H 0.68754 0.02205 0.42730
 C891 C 0.85661 0.48262 0.12475
 C892 C 0.84429 0.46286 0.11518
 C893 C 0.82724 0.46433 0.09726
 C894 C 0.82208 0.48558 0.08843
 C895 C 0.83412 0.50539 0.09822
 C896 C 0.85121 0.50393 0.11618
 C897 C 0.87516 0.48083 0.14326
 N898 N 0.88703 0.49974 0.15301
 N899 N 0.90390 0.49796 0.16940
 C900 C 0.90963 0.47719 0.17670
 N901 N 0.89773 0.45832 0.16696
 N902 N 0.88088 0.46011 0.15062
 C903 C 0.92845 0.47498 0.19481
 C904 C 0.93471 0.45328 0.20126
 C905 C 0.95228 0.45096 0.21838
 C906 C 0.96400 0.47027 0.22964
 C907 C 0.95797 0.49198 0.22303
 C908 C 0.94034 0.49433 0.20583
 H909 H 0.84785 0.44617 0.12144
 H910 H 0.81801 0.44879 0.09036
 H911 H 0.83070 0.52199 0.09161
 H912 H 0.86037 0.51948 0.12313
 H913 H 0.92611 0.43798 0.19301
 H914 H 0.95686 0.43396 0.22252
 H915 H 0.96655 0.50718 0.23141
 H916 H 0.93597 0.51130 0.20128
 C917 C 0.39266 0.00056 0.65072
 C918 C 0.40414 0.01944 0.66300
 C919 C 0.42196 0.01652 0.67965
 C920 C 0.42885 -0.00536 0.68445
 C921 C 0.41714 -0.02434 0.67255
 C922 C 0.39924 -0.02141 0.65582
 C923 C 0.37420 0.00400 0.63253
 N924 N 0.36227 -0.01397 0.62097
 N925 N 0.34586 -0.01063 0.60450
 C926 C 0.34074 0.01081 0.59885
 N927 N 0.35268 0.02872 0.61042
 N928 N 0.36903 0.02539 0.62688
 C929 C 0.32251 0.01476 0.58058
 C930 C 0.31833 0.03709 0.57422
 C931 C 0.30099 0.04105 0.55735
 C932 C 0.28733 0.02279 0.54644
 C933 C 0.29161 0.00044 0.55253
 C934 C 0.30903 -0.00355 0.56944
 H935 H 0.39944 0.03660 0.65971
 H936 H 0.43031 0.03145 0.68888
 H937 H 0.42217 -0.04140 0.67577
 H938 H 0.39076 -0.03633 0.64670
 H939 H 0.32846 0.05161 0.58227
 H940 H 0.29842 0.05845 0.55270
 H941 H 0.28119 -0.01397 0.54465
 H942 H 0.31175 -0.02096 0.57394
   
